#------------------------------------------------------------------------------
#$Date: 2019-11-03 11:41:48 +0200 (Sun, 03 Nov 2019) $
#$Revision: 221302 $
#$URL: file:///home/coder/svn-repositories/cod/cif/4/12/81/4128165.cif $
#------------------------------------------------------------------------------
#
# This file is available in the Crystallography Open Database (COD),
# http://www.crystallography.net/
#
# All data on this site have been placed in the public domain by the
# contributors.
#
data_4128165
loop_
_publ_author_name
'Cao, Chen-Chen'
'Chen, Cheng-Xia'
'Wei, Zhang-Wen'
'Qiu, Qian-Feng'
'Zhu, Neng-Xiu'
'Xiong, Yang-Yang'
'Jiang, Ji-Jun'
'Wang, Dawei'
'Su, Cheng-Yong'
_publ_section_title
;
 Catalysis through Dynamic Spacer Installation of Multivariate
 Functionalities in Metal-Organic Frameworks.
;
_journal_issue                   6
_journal_name_full               'Journal of the American Chemical Society'
_journal_page_first              2589
_journal_page_last               2593
_journal_paper_doi               10.1021/jacs.8b12372
_journal_volume                  141
_journal_year                    2019
_chemical_formula_moiety         '0.5(C152 H60 F48 N4 O64 Zr12)'
_chemical_formula_sum            'C76 H30 F24 N2 O32 Zr6'
_chemical_formula_weight         2486.34
_chemical_name_common            LIFM-28-BPYDC
_space_group_crystal_system      tetragonal
_space_group_IT_number           131
_space_group_name_Hall           '-P 4c 2'
_space_group_name_H-M_alt        'P 42/m m c'
_symmetry_space_group_name_Hall  '-P 4c 2'
_symmetry_space_group_name_H-M   'P 42/m m c'
_atom_sites_solution_hydrogens   geom
_atom_sites_solution_primary     dual
_audit_creation_date             2018-05-15
_audit_creation_method
;
Olex2 1.2
(compiled 2017.08.10 svn.r3458 for OlexSys, GUI svn.r5492)
;
_cell_angle_alpha                90
_cell_angle_beta                 90
_cell_angle_gamma                90
_cell_formula_units_Z            2
_cell_length_a                   23.0084(5)
_cell_length_b                   23.0084(5)
_cell_length_c                   18.8119(7)
_cell_measurement_reflns_used    6381
_cell_measurement_temperature    150.00(10)
_cell_measurement_theta_max      69.5480
_cell_measurement_theta_min      4.2750
_cell_volume                     9958.8(5)
_computing_cell_refinement       'CrysAlisPro 1.171.38.43 (Rigaku OD, 2015)'
_computing_data_collection       'CrysAlisPro 1.171.38.43 (Rigaku OD, 2015)'
_computing_data_reduction        'CrysAlisPro 1.171.38.43 (Rigaku OD, 2015)'
_computing_molecular_graphics    'Olex2 (Dolomanov et al., 2009)'
_computing_publication_material  'Olex2 (Dolomanov et al., 2009)'
_computing_structure_refinement  'ShelXL (Sheldrick, 2015)'
_computing_structure_solution    'ShelXT (Sheldrick, 2015)'
_diffrn_ambient_environment      N~2~
_diffrn_ambient_temperature      150.00(10)
_diffrn_detector                 'CCD plate'
_diffrn_detector_area_resol_mean 5.2913
_diffrn_detector_type            AtlasS2
_diffrn_measured_fraction_theta_full 0.992
_diffrn_measured_fraction_theta_max 0.980
_diffrn_measurement_details
;
List of Runs (angles in degrees, time in seconds):

  # Type    Start    End  Width  t~exp~   \w     \q     \k     \f   Frames
--------------------------------------------------------------------------
  1  \w   -109.00 -19.00   1.00   30.00    --  -38.50 -37.00-150.00   90
  2  \w     91.00 151.00   1.00   75.00    --   96.88  45.00 150.00   60
  3  \w     40.00 122.00   1.00   75.00    --   96.88-125.00  60.00   82
  4  \w     78.00 152.00   1.00   75.00    --   96.88  45.00 -90.00   74
;
_diffrn_measurement_device       'four-circle diffractometer'
_diffrn_measurement_device_type  'SuperNova, Dual, Cu at zero, AtlasS2'
_diffrn_measurement_method       '\w scans'
_diffrn_orient_matrix_type
'CrysAlisPro convention (1999,Acta A55,543-557)'
_diffrn_orient_matrix_UB_11      -0.0030320000
_diffrn_orient_matrix_UB_12      0.0022893000
_diffrn_orient_matrix_UB_13      -0.0817483000
_diffrn_orient_matrix_UB_21      -0.0141062000
_diffrn_orient_matrix_UB_22      0.0653216000
_diffrn_orient_matrix_UB_23      0.0036738000
_diffrn_orient_matrix_UB_31      0.0654712000
_diffrn_orient_matrix_UB_32      0.0141918000
_diffrn_orient_matrix_UB_33      -0.0029353000
_diffrn_radiation_monochromator  mirror
_diffrn_radiation_probe          x-ray
_diffrn_radiation_type           CuK\a
_diffrn_radiation_wavelength     1.54178
_diffrn_reflns_av_R_equivalents  0.0741
_diffrn_reflns_av_unetI/netI     0.0536
_diffrn_reflns_Laue_measured_fraction_full 0.992
_diffrn_reflns_Laue_measured_fraction_max 0.980
_diffrn_reflns_limit_h_max       27
_diffrn_reflns_limit_h_min       -22
_diffrn_reflns_limit_k_max       27
_diffrn_reflns_limit_k_min       -24
_diffrn_reflns_limit_l_max       13
_diffrn_reflns_limit_l_min       -22
_diffrn_reflns_number            19475
_diffrn_reflns_point_group_measured_fraction_full 0.992
_diffrn_reflns_point_group_measured_fraction_max 0.980
_diffrn_reflns_theta_full        67.679
_diffrn_reflns_theta_max         69.739
_diffrn_reflns_theta_min         4.297
_diffrn_source                   'micro-focus sealed X-ray tube'
_diffrn_source_type              'SuperNova (Cu) X-ray Source'
_exptl_absorpt_coefficient_mu    3.026
_exptl_absorpt_correction_T_max  1.00000
_exptl_absorpt_correction_T_min  0.72814
_exptl_absorpt_correction_type   multi-scan
_exptl_absorpt_process_details
;
CrysAlisPro 1.171.38.43 (Rigaku Oxford Diffraction, 2015)
Empirical absorption correction using spherical harmonics,
 implemented in SCALE3 ABSPACK scaling algorithm.
;
_exptl_crystal_colour            colourless
_exptl_crystal_colour_primary    colourless
_exptl_crystal_density_diffrn    0.829
_exptl_crystal_description       block
_exptl_crystal_F_000             2424
_exptl_crystal_size_max          0.05
_exptl_crystal_size_mid          0.05
_exptl_crystal_size_min          0.05
_refine_diff_density_max         1.107
_refine_diff_density_min         -1.847
_refine_diff_density_rms         0.114
_refine_ls_extinction_method     none
_refine_ls_goodness_of_fit_ref   1.058
_refine_ls_hydrogen_treatment    constr
_refine_ls_matrix_type           full
_refine_ls_number_parameters     219
_refine_ls_number_reflns         5016
_refine_ls_number_restraints     261
_refine_ls_restrained_S_all      1.096
_refine_ls_R_factor_all          0.0880
_refine_ls_R_factor_gt           0.0806
_refine_ls_shift/su_max          0.001
_refine_ls_shift/su_mean         0.000
_refine_ls_structure_factor_coef Fsqd
_refine_ls_weighting_details
'w=1/[\s^2^(Fo^2^)+(0.1272P)^2^+29.9360P] where P=(Fo^2^+2Fc^2^)/3'
_refine_ls_weighting_scheme      calc
_refine_ls_wR_factor_gt          0.2242
_refine_ls_wR_factor_ref         0.2318
_reflns_Friedel_coverage         0.000
_reflns_number_gt                4259
_reflns_number_total             5016
_reflns_threshold_expression     'I > 2\s(I)'
_iucr_refine_instructions_details
;

    1_a_sq.res created by SHELXL-2014/7

TITL 1_a.res in P4(2)/mmc
REM Old TITL 1 in P4(2)/mmc
REM SHELXT solution in P4(2)/mmc
REM R1 0.206, Rweak 0.013, Alpha 0.059, Orientation as input
REM Formula found by SHELXT: C33 N14 O4 F28 I3
REM 1_a.res in P4(2)/mmc
REM 102 parameters refined using 70 restraints
REM Highest difference peak 6.357, deepest hole -5.998, 1-sigma level 0.298
REM 103 parameters refined using 70 restraints
REM Highest difference peak 5.794, deepest hole -6.158, 1-sigma level 0.290
REM 219 parameters refined using 255 restraints
REM Highest difference peak 2.170, deepest hole -2.145, 1-sigma level 0.199
CELL 1.54178 23.0084 23.0084 18.8119 90 90 90
ZERR 2 0.0005 0.0005 0.0007 0 0 0
LATT 1
SYMM -Y,+X,0.5+Z
SYMM -X,-Y,+Z
SYMM +Y,-X,0.5+Z
SYMM +X,-Y,-Z
SYMM -X,+Y,-Z
SYMM +Y,+X,0.5-Z
SYMM -Y,-X,0.5-Z
SFAC C H F N O Zr
UNIT 152 60 48 4 64 12
EQIV $1 1-X,2-Y,+Z
EQIV $2 +X,2-Y,2-Z
DFIX 1.39 0.01 C1 C2 C2 C3 C3 C4 C4 C5 C5 C6 C6 C1
DFIX 2.4 0.01 C1 C3 C2 C4 C3 C5 C4 C6 C5 C1 C6 C2
DFIX 2.8 0.01 C1 C4 C2 C5 C3 C6
DFIX 1.39 0.01 C10 C11 C11 C12 C12 C13 C13 N1 N1 C11_$1
DFIX 2.4 0.01 C10 C12 C11 C13 C12 N1 N1 C10
DFIX 2.8 0.01 C10 C13 C11 N1 C12 C11_$1
DFIX 1.49 0.01 C9 C10 C13 C13_$2
DFIX 1.49 0.01 C2 C8 C6 C8A
DFIX 1.33 0.01 C8 F1 C8 F2 C8 F3
DFIX 1.33 0.01 C8A F1A C8A F2A C8A F3A
DFIX 2.35 0.01 C2 F1 C2 F2 C2 F3
DFIX 2.35 0.01 C6 F1A C6 F2A C6 F3A
SADI C1 C8A C5 C8A C1 C8 C3 C8
SADI F1 F2 F2 F3 F3 F1 F1A F2A F2A F3A F3A F1A
FLAT 0.01 C1 > C8 C8A
DELU C1 > C8 C8A F1 > F3 F1A > F3A
DELU C9 > C13 N1
DELU Zr1 Zr2 O4 O5
SIMU 0.01 0.02 2 C1 > C8 C8A F1 > F3 F1A > F3A
SIMU 0.01 0.02 2 C9 > C13 N1
SIMU 0.01 0.01 2 Zr1 Zr2 O4 O5
ISOR 0.01 0.02 N1 C13 C11
 
L.S. 20
PLAN  5
SIZE 0.05 0.05 0.05
TEMP -123.15(10)
GRID
BOND $H
ABIN
fmap 2
acta
MERG 2
REM <olex2.extras>
REM <HklSrc "%.\\1_a.hkl">
REM </olex2.extras>
 
WGHT    0.127200   29.936001
FVAR       0.26718   0.69803
ZR1   6    0.500000    0.892761    0.500000    10.25000    0.04662    0.03554 =
         0.01641    0.00000    0.00000    0.00000
ZR2   6    0.575793    1.000000    0.593796    10.50000    0.04156    0.05199 =
         0.01884    0.00000   -0.00994    0.00000
PART 1
F1    3    0.283016    0.643612    0.385751    21.00000    0.31402    0.18447 =
         0.22716    0.05246   -0.04992   -0.13455
F2    3    0.372669    0.648274    0.409455    21.00000    0.35201    0.12750 =
         0.22538    0.03453   -0.14133   -0.10234
F3    3    0.345588    0.616334    0.310661    21.00000    0.34090    0.11612 =
         0.23434   -0.02798   -0.10789   -0.04441
PART 0
PART 2
F1A   3    0.287699    0.778258    0.123738   -21.00000    0.28644    0.24401 =
         0.15927   -0.01403   -0.10553   -0.06558
F2A   3    0.294016    0.864089    0.158109   -21.00000    0.30456    0.21920 =
         0.18745    0.03344   -0.12920   -0.05949
F3A   3    0.220696    0.814683    0.188276   -21.00000    0.23940    0.24351 =
         0.22724   -0.01472   -0.13391   -0.03839
PART 0
O1    5    0.441577    0.843217    0.428780    11.00000    0.06674    0.06361 =
         0.03651   -0.01827   -0.01199   -0.02095
O2    5    0.395396    0.913653    0.365129    11.00000    0.08316    0.06651 =
         0.05399   -0.00910   -0.02408   -0.01904
O3    5    0.555225    1.000000    0.707636    10.50000    0.12632    0.08349 =
         0.01713    0.00000   -0.00364    0.00000
O4    5    0.500000    0.947692    0.591924    10.50000    0.03700    0.07742 =
         0.09412   -0.05053    0.00000    0.00000
O5    5    0.577252    0.947599    0.500000    10.50000    0.14927    0.07319 =
         0.01767    0.00000    0.00000   -0.05312
O6    5    0.670937    1.000000    0.590991    10.50000    0.03662    0.14527 =
         0.07897    0.00000   -0.01325    0.00000
PART 2
N1    4    0.447649    1.000000    0.924464    10.25000    0.12774    0.14732 =
         0.09667    0.00000    0.00122    0.00000
PART 0
C1    1    0.306403    0.734777    0.268765    11.00000    0.21063    0.13681 =
         0.14175   -0.02636   -0.08094   -0.07835
C2    1    0.336293    0.718155    0.329593    11.00000    0.21067    0.11230 =
         0.13945   -0.02113   -0.07662   -0.08321
PART 2
AFIX  43
H2    2    0.334570    0.679093    0.345816   -21.00000   -1.20000
AFIX   0
PART 0
C3    1    0.369001    0.759507    0.366801    11.00000    0.18307    0.09562 =
         0.10866   -0.02041   -0.05393   -0.05872
AFIX  43
H3    2    0.389597    0.748529    0.408459    11.00000   -1.20000
AFIX   0
C4    1    0.371346    0.816595    0.342819    11.00000    0.14186    0.09555 =
         0.08326   -0.01681   -0.04500   -0.05151
C5    1    0.341359    0.832942    0.282200    11.00000    0.18780    0.12475 =
         0.11604   -0.01048   -0.08680   -0.05460
AFIX  43
H5    2    0.342989    0.872008    0.265973    11.00000   -1.20000
AFIX   0
C6    1    0.308745    0.791822    0.245052    11.00000    0.21614    0.15150 =
         0.14649   -0.01185   -0.10575   -0.06575
PART 1
AFIX  43
H6    2    0.288114    0.802903    0.203461    21.00000   -1.20000
AFIX   0
PART 0
C7    1    0.405808    0.861443    0.381635    11.00000    0.10223    0.08801 =
         0.04340   -0.01214   -0.02133   -0.03172
PART 1
C8    1    0.334686    0.657557    0.357159    21.00000    0.26274    0.11899 =
         0.17728   -0.01236   -0.09477   -0.10484
PART 0
C9    1    0.500000    1.000000    0.734693    10.25000    0.12009    0.15327 =
         0.05533    0.00000    0.00000    0.00000
C10   1    0.500000    1.000000    0.813547    10.25000    0.12740    0.15749 =
         0.05682    0.00000    0.00000    0.00000
C11   1    0.552916    1.000000    0.850616    10.50000    0.14002    0.15516 =
         0.07202    0.00000   -0.01155    0.00000
PART 1
AFIX  43
H11   2    0.588737    1.000000    0.825502    10.25000   -1.20000
AFIX  43
PART 0
PART 2
H11A  2    0.588734    1.000000    0.825494    10.25000   -1.20000
AFIX   0
PART 0
PART 1
C12   1    0.552333    1.000000    0.924411    10.25000    0.13264    0.15968 =
         0.06834    0.00000   -0.00794    0.00000
AFIX  43
H12   2    0.587927    1.000000    0.950004    10.25000   -1.20000
AFIX   0
PART 0
C13   1    0.500000    1.000000    0.960849    10.25000    0.12872    0.14522 =
         0.08952    0.00000    0.00000    0.00000
PART 2
C8A   1    0.277694    0.811308    0.180118   -21.00000    0.24180    0.19210 =
         0.16583   -0.00820   -0.12350   -0.06235
HKLF 4
 
REM  1_a.res in P4(2)/mmc
REM R1 =  0.0806 for    4259 Fo > 4sig(Fo)  and  0.0880 for all    5016 data
REM    219 parameters refined using    261 restraints
 
END  
     
WGHT      0.1274     29.8689 

REM Highest difference peak  1.107,  deepest hole -1.847,  1-sigma level  0.114
Q1    1   0.5833  1.0367  0.5962  11.00000  0.05    1.11
Q2    1   0.5000  0.8775  0.5000  10.25000  0.05    1.00
Q3    1   0.3988  0.8225  0.4066  11.00000  0.05    0.89
Q4    1   0.5293  0.9506  0.5000  10.50000  0.05    0.81
Q5    1   0.4689  0.8642  0.4462  11.00000  0.05    0.79

  REM The information below was added by Olex2.
  REM
  REM R1 = 0.0806 for 4259 Fo > 4sig(Fo) and 0.0880 for all 19843 data
  REM n/a parameters refined using n/a restraints
  REM Highest difference peak 1.11, deepest hole -1.85
  REM Mean Shift 0, Max Shift 0.001.

  REM +++ Tabular Listing of Refinement Information +++
  REM R1_all = 0.0880
  REM R1_gt = 0.0806
  REM wR_ref = 0.2318
  REM GOOF = 1.058
  REM Shift_max = 0.001
  REM Shift_mean = 0
  REM Reflections_all = 19843
  REM Reflections_gt = 4259
  REM Parameters = n/a
  REM Hole = -1.85
  REM Peak = 1.11
  REM Flack = n/a

  
;
_cod_data_source_file            LIFM-28-BPYDC.cif
_cod_data_source_block           LIFM-28-BPYDC
_cod_original_cell_volume        9958.8(6)
_cod_database_code               4128165
_shelx_shelxl_version_number     2014/7
_chemical_oxdiff_usercomment     IR
_shelx_space_group_comment
;
The symmetry employed for this shelxl refinement is uniquely defined
by the following loop, which should always be used as a source of
symmetry information in preference to the above space-group names.
They are only intended as comments.
;
_shelx_estimated_absorpt_t_max   0.863
_shelx_estimated_absorpt_t_min   0.863
_reflns_odcompleteness_completeness 99.31
_reflns_odcompleteness_iscentric 1
_reflns_odcompleteness_theta     63.60
_olex2_refinement_description
;
1. Fixed Uiso
 At 1.2 times of:
  All C(H) groups, All C(H,H) groups
2. Restrained distances
 C1-C2 = C2-C3 = C3-C4 = C4-C5 = C5-C6 = C6-C1
 1.39 with sigma of 0.01
 C1-C3 = C2-C4 = C3-C5 = C4-C6 = C5-C1 = C6-C2
 2.4 with sigma of 0.01
 C1-C4 = C2-C5 = C3-C6
 2.8 with sigma of 0.01
 C10-C11 = C11-C12 = C12-C13 = C13-N1 = N1-C11_$1
 1.39 with sigma of 0.01
 C10-C12 = C11-C13 = C12-N1 = N1-C10
 2.4 with sigma of 0.01
 C10-C13 = C11-N1 = C12-C11_$1
 2.8 with sigma of 0.01
 C9-C10 = C13-C13_$2
 1.49 with sigma of 0.01
 C2-C8 = C6-C8A
 1.49 with sigma of 0.01
 C8-F1 = C8-F2 = C8-F3
 1.33 with sigma of 0.01
 C8A-F1A = C8A-F2A = C8A-F3A
 1.33 with sigma of 0.01
 C2-F1 = C2-F2 = C2-F3
 2.35 with sigma of 0.01
 C6-F1A = C6-F2A = C6-F3A
 2.35 with sigma of 0.01
 C1-C8A \\sim C5-C8A \\sim C1-C8 \\sim C3-C8
 with sigma of 0.02
 F1-F2 \\sim F2-F3 \\sim F3-F1 \\sim F1A-F2A \\sim F2A-F3A \\sim F3A-F1A
 with sigma of 0.02
3. Restrained planarity
 C1, C2, C3, C4, C5, C6, C7, C8, C8A
 with sigma of 0.01
4. Rigid bond restraints
 C1, C2, C3, C4, C5, C6, C7, C8, C8A, F1, F2, F3, F1A, F2A, F3A
 with sigma for 1-2 distances of 0.01 and sigma for 1-3 distances of 0.01
 C9, C10, C11, C12, C13, N1
 with sigma for 1-2 distances of 0.01 and sigma for 1-3 distances of 0.01
 Zr1, Zr2, O4, O5
 with sigma for 1-2 distances of 0.01 and sigma for 1-3 distances of 0.01
5. Uiso/Uaniso restraints and constraints
C1 \\sim C2 \\sim C3 \\sim C4 \\sim C5 \\sim C6 \\sim C7 \\sim C8 \\sim C8A
\\sim F1 \\sim F2 \\sim F3 \\sim F1A \\sim F2A \\sim F3A: within 2A with sigma
of 0.01 and sigma for terminal atoms of 0.02
C9 \\sim C10 \\sim C11 \\sim C12 \\sim C13 \\sim N1: within 2A with sigma of
0.01 and sigma for terminal atoms of 0.02
Zr1 \\sim Zr2 \\sim O4 \\sim O5: within 2A with sigma of 0.01 and sigma for
terminal atoms of 0.01
Uanis(N1) \\sim Ueq, Uanis(C13) \\sim Ueq, Uanis(C11) \\sim Ueq: with sigma of
0.01 and sigma for terminal atoms of 0.02
6. Others
 Sof(F1A)=Sof(F2A)=Sof(F3A)=Sof(H2)=Sof(C8A)=1-FVAR(1)
 Sof(F1)=Sof(F2)=Sof(F3)=Sof(H6)=Sof(C8)=FVAR(1)
 Fixed Sof: N1(0.25) H11(0.25) H11A(0.25) C12(0.25) H12(0.25)
7.a Aromatic/amide H refined with riding coordinates:
 C2(H2), C3(H3), C5(H5), C6(H6), C11(H11), C11(H11A), C12(H12)
;
_shelx_fab_file
;
0 0 2 -68.0505 1.0538
0 0 4 112.6443 -1.3039
0 0 12 -10.4645 -1.7906
0 0 14 8.6423 -3.1212
0 0 16 -9.0231 -3.2942
0 0 18 11.1909 -2.1122
0 0 20 -1.8683 -0.3332
1 0 2 9.6191 1.0149
1 0 3 30.8048 -2.2173
1 0 4 -5.7250 1.1917
1 0 5 4.4427 -1.8607
1 0 6 -5.9261 1.9725
1 0 11 -2.4565 -3.8689
1 0 12 3.5965 -0.6763
1 0 13 7.9039 -2.2019
1 0 14 1.2553 1.1583
1 0 15 1.8248 -0.5815
1 0 16 0.2206 2.0391
1 0 17 -2.6862 -0.9600
1 0 18 -1.6724 1.1990
1 0 19 0.4700 -1.5329
1 0 20 8.5987 -0.3484
1 0 21 1.4908 -1.6882
1 0 22 8.2301 -0.7392
1 1 2 -14.8242 -0.7047
1 1 4 -7.3378 1.1695
1 1 6 -2.1792 0.1248
1 1 12 4.6125 1.7577
1 1 14 -6.1686 0.4819
1 1 16 3.9088 -0.0014
1 1 18 -2.1698 0.4222
1 1 20 3.5412 0.4667
1 1 22 1.2846 2.5499
2 0 1 46.0789 -5.0446
2 0 2 -118.2204 -0.2189
2 0 3 -11.4274 0.8710
2 0 4 -32.0996 -0.0608
2 0 5 7.9362 9.5275
2 0 6 -23.0401 1.8718
2 0 7 11.0125 4.7651
2 0 11 1.0444 -7.2515
2 0 12 -1.2768 -1.7418
2 0 13 -0.1535 -1.0346
2 0 14 4.8781 0.9351
2 0 15 -1.9633 5.9035
2 0 16 -1.1618 1.7954
2 0 17 -0.2532 5.4330
2 0 18 7.2441 0.1639
2 0 19 0.9306 -1.0025
2 0 20 -2.9801 -1.1630
2 0 21 5.5201 -5.0436
2 0 22 0.7461 -2.2028
2 1 0 -28.5076 -0.5190
2 1 1 26.1337 -1.1164
2 1 2 26.5890 1.5945
2 1 3 -2.4775 -0.9623
2 1 4 -29.2832 -1.4215
2 1 5 -8.8672 -2.2303
2 1 6 2.6247 0.3092
2 1 7 17.1538 -1.1302
2 1 8 -5.9543 0.7494
2 1 11 6.0611 3.0159
2 1 12 -2.2922 1.4105
2 1 13 -2.2119 0.9913
2 1 14 -1.7237 0.0611
2 1 15 3.0984 -1.5085
2 1 16 -1.7928 -0.3015
2 1 17 -0.5038 -1.4578
2 1 18 4.0890 0.0298
2 1 19 0.6168 0.1902
2 1 20 -3.4493 1.6445
2 1 21 -0.3951 1.8558
2 1 22 6.2951 0.7622
2 2 2 69.2888 -1.8547
2 2 4 -15.2222 2.0712
2 2 6 -6.6999 4.3390
2 2 8 5.3230 -0.3321
2 2 12 0.2333 -3.3818
2 2 14 -10.6125 1.2534
2 2 16 -0.3847 3.2973
2 2 18 -2.9706 0.9636
2 2 20 0.3686 -2.3516
2 2 22 -0.8425 -2.8531
3 0 0 -175.5176 0.3103
3 0 1 31.0163 -1.8918
3 0 2 77.2245 0.1491
3 0 3 -31.4060 0.5282
3 0 4 -3.9431 8.0077
3 0 5 -41.6387 3.8928
3 0 6 12.3353 7.6116
3 0 7 -16.1049 1.3635
3 0 8 -8.6225 2.7563
3 0 11 -8.2068 -4.3079
3 0 12 0.3701 -1.1914
3 0 13 -4.2537 -1.1999
3 0 14 -0.5710 4.2523
3 0 15 -1.3326 2.2116
3 0 16 3.5107 6.8046
3 0 17 1.0291 2.3400
3 0 18 -6.7479 3.8352
3 0 19 -1.2585 -1.0073
3 0 20 2.5258 -1.1661
3 0 21 -1.6883 -3.3940
3 0 22 -1.4021 -1.5207
3 1 0 35.3297 0.3419
3 1 1 -30.8404 3.7645
3 1 2 -2.0582 1.7854
3 1 3 8.3387 -0.2528
3 1 4 13.3475 -0.9122
3 1 5 -7.1360 -0.5268
3 1 6 14.2080 -0.2790
3 1 7 -9.4120 -0.7036
3 1 8 2.2947 -0.1323
3 1 9 -3.7275 0.4779
3 1 11 -5.6386 1.5049
3 1 12 0.8052 -0.4429
3 1 13 -1.5741 -0.0189
3 1 14 3.0212 0.0432
3 1 15 1.5996 -0.2119
3 1 16 -1.1113 0.0196
3 1 17 -0.4867 0.0685
3 1 18 2.3817 -0.0977
3 1 19 0.5155 0.4430
3 1 20 -1.7244 0.2514
3 1 21 0.7606 1.5469
3 1 22 1.9274 0.4949
3 2 0 43.2696 -1.6399
3 2 1 -15.4540 -1.2603
3 2 2 86.9153 2.9879
3 2 3 -29.8283 0.3386
3 2 4 -9.0202 -4.4717
3 2 5 33.8103 3.0283
3 2 6 5.8034 -6.5691
3 2 7 12.6449 1.7506
3 2 8 5.3694 0.0911
3 2 9 -7.4778 -0.7168
3 2 10 4.1767 4.0041
3 2 11 5.2134 -1.5823
3 2 12 1.6646 2.8108
3 2 13 -1.4426 0.2515
3 2 14 0.7915 -2.1406
3 2 15 0.1879 2.3801
3 2 16 2.5400 -4.9589
3 2 17 0.6644 1.8870
3 2 18 -1.2293 -1.6363
3 2 19 -1.0582 -0.3226
3 2 20 1.1906 2.5981
3 2 21 1.7153 -2.1775
3 2 22 0.6306 1.3496
3 3 2 -110.4199 -1.4092
3 3 4 -22.5434 -3.0251
3 3 6 -31.3910 -3.6480
3 3 8 -19.9266 -1.9929
3 3 10 -5.2702 -1.6263
3 3 12 -9.5254 -1.9244
3 3 14 -0.2982 -2.8535
3 3 16 -7.3593 -2.8481
3 3 18 3.0155 -1.8122
3 3 20 -4.6640 -0.3872
3 3 22 3.2683 -1.3136
4 0 0 37.2553 2.6160
4 0 1 -39.7439 -1.0898
4 0 2 -17.6410 -0.5752
4 0 3 -40.6508 7.0439
4 0 4 48.0087 0.8436
4 0 5 -16.9990 10.8389
4 0 6 16.0592 1.8650
4 0 7 -2.1153 7.6112
4 0 8 -0.4770 0.8120
4 0 9 -12.6815 0.8942
4 0 11 10.9704 -1.7222
4 0 12 -3.3873 0.1559
4 0 13 1.1965 2.8233
4 0 14 1.7182 0.8358
4 0 15 -4.7782 7.8667
4 0 16 -2.6321 1.1470
4 0 17 -0.2819 7.9648
4 0 18 -0.1601 0.5757
4 0 19 0.2156 2.5169
4 0 20 0.2554 -0.1657
4 0 21 -1.4565 -0.8896
4 0 22 -0.9246 -0.1537
4 1 0 4.9929 -3.4172
4 1 1 -64.5323 4.9626
4 1 2 7.7996 -1.0756
4 1 3 -42.8726 -1.8959
4 1 4 13.5868 -1.8241
4 1 5 13.8101 -1.8643
4 1 6 -3.6988 -2.1420
4 1 7 -8.8996 -0.7255
4 1 8 5.0117 -2.7557
4 1 9 -4.0296 1.3602
4 1 10 -0.8195 -1.2150
4 1 11 -1.6489 1.7457
4 1 12 -0.0443 -1.3025
4 1 13 0.3631 0.2161
4 1 14 3.2223 -2.0501
4 1 15 -0.9511 -1.2714
4 1 16 -5.4908 -1.8567
4 1 17 -0.4379 -1.3073
4 1 18 4.0350 -1.8839
4 1 19 -1.6516 -0.0186
4 1 20 -2.2437 -0.9051
4 1 21 0.1547 2.3337
4 1 22 1.9324 -1.0010
4 2 0 -25.9466 0.9990
4 2 1 15.6055 -4.4977
4 2 2 -13.9940 -1.3640
4 2 3 -4.0794 -1.3954
4 2 4 -26.1643 0.4989
4 2 5 0.0039 -1.4426
4 2 6 -7.5899 -0.4139
4 2 7 19.1646 0.7021
4 2 8 -2.7464 -0.4270
4 2 9 -2.1025 -2.5861
4 2 10 -3.4284 -0.2482
4 2 11 0.3656 -4.0409
4 2 12 3.4572 -0.3561
4 2 13 -3.3965 -1.7055
4 2 14 -2.2190 -0.0194
4 2 15 -0.2960 0.2867
4 2 16 7.4538 -0.1143
4 2 17 3.6756 -0.1395
4 2 18 -3.9891 -0.0233
4 2 19 0.1523 -1.3348
4 2 20 2.2346 -0.7553
4 2 21 2.3098 -2.3880
4 2 22 -1.4925 0.7321
4 3 0 -1.6757 1.0948
4 3 1 22.9530 0.9480
4 3 2 37.6410 0.0130
4 3 3 5.2425 -1.0167
4 3 4 -14.7493 2.6936
4 3 5 -4.4509 -1.3677
4 3 6 -8.4938 1.6956
4 3 7 -13.5209 -1.0080
4 3 8 3.6880 1.6356
4 3 9 12.7637 -2.3175
4 3 10 2.6421 2.0213
4 3 11 -12.7488 -2.3317
4 3 12 -5.4609 1.4629
4 3 13 1.4451 -1.7041
4 3 14 -1.2938 1.2044
4 3 15 -1.4525 -1.0247
4 3 16 -2.0906 1.4084
4 3 17 -1.0320 -1.1836
4 3 18 0.2640 0.8825
4 3 19 1.0989 -1.0074
4 3 20 -3.5091 0.4086
4 3 21 0.4351 -0.5155
4 3 22 -1.9022 0.9687
4 4 2 31.7632 2.1764
4 4 4 -6.6468 3.1218
4 4 6 18.2473 2.6094
4 4 8 -3.9220 3.7892
4 4 10 6.6815 4.8974
4 4 12 -0.6338 4.5854
4 4 14 -1.3664 3.2175
4 4 16 -1.2970 2.2163
4 4 18 -2.5126 2.3655
4 4 20 -0.8731 2.7184
4 4 22 -0.4803 4.2928
5 0 0 -90.9871 5.9388
5 0 1 7.4668 -2.1092
5 0 2 16.7443 2.1673
5 0 3 24.6864 0.8640
5 0 4 -48.2443 11.5695
5 0 5 6.7492 3.1458
5 0 6 -17.6196 13.4354
5 0 7 19.0966 2.0894
5 0 8 -12.3841 6.7889
5 0 9 9.6898 -1.0231
5 0 10 -10.4521 0.6594
5 0 11 0.0415 -1.4693
5 0 12 5.8074 2.2140
5 0 13 2.6373 0.4760
5 0 14 -9.6963 8.0659
5 0 15 0.1091 2.2269
5 0 16 3.3775 11.4053
5 0 17 4.1025 1.7940
5 0 18 -2.0401 7.1616
5 0 19 3.3707 -0.3328
5 0 20 0.5145 1.3270
5 0 21 -3.8431 -1.4508
5 0 22 -1.4839 0.2918
5 1 0 -6.9833 0.1238
5 1 1 17.0418 1.2949
5 1 2 26.4787 0.0792
5 1 3 4.8539 -2.2864
5 1 4 -9.3402 0.0252
5 1 5 22.3193 -1.4717
5 1 6 -11.6863 1.1096
5 1 7 -0.8692 -1.8253
5 1 8 5.7448 -0.1130
5 1 9 3.9680 -1.5091
5 1 10 -4.1394 -0.0652
5 1 11 -2.5493 -1.5051
5 1 12 -1.2481 0.2318
5 1 13 4.4090 -1.5421
5 1 14 -2.9172 0.2324
5 1 15 1.5129 -1.0826
5 1 16 1.8599 0.3621
5 1 17 -0.7176 -1.0563
5 1 18 -0.4224 -0.2594
5 1 19 -0.2058 -1.2772
5 1 20 2.4089 -0.0642
5 1 21 -1.2097 -0.9380
5 1 22 -5.7203 0.9004
5 2 0 -2.7848 -0.0541
5 2 1 -37.9765 -0.2703
5 2 2 -21.8631 -1.0979
5 2 3 -29.9755 0.9718
5 2 4 -1.5525 -1.0736
5 2 5 0.1948 -1.2484
5 2 6 7.5780 -1.7852
5 2 7 -6.3391 -0.7213
5 2 8 -4.9209 -0.6366
5 2 9 1.3970 1.5129
5 2 10 3.7815 0.5675
5 2 11 2.5368 1.6783
5 2 12 6.6158 0.4147
5 2 13 -1.4830 0.5998
5 2 14 -1.5239 -0.9955
5 2 15 0.1392 -1.0722
5 2 16 6.3287 -1.8781
5 2 17 0.7305 -0.9553
5 2 18 -1.0134 -0.4614
5 2 19 1.4297 0.8462
5 2 20 1.1769 -0.3059
5 2 21 -0.2915 1.1730
5 2 22 -0.5352 0.3239
5 3 0 -39.0703 -2.7928
5 3 1 25.5333 1.8446
5 3 2 -30.6965 1.1927
5 3 3 -42.1525 1.8013
5 3 4 30.7202 1.0878
5 3 5 -5.5724 -2.8900
5 3 6 5.8815 3.4005
5 3 7 -9.4605 -1.2233
5 3 8 2.2682 1.1540
5 3 9 -1.9499 4.6257
5 3 10 2.7535 -1.1698
5 3 11 -1.0764 5.9954
5 3 12 0.0004 -0.0211
5 3 13 3.8868 2.6573
5 3 14 4.5957 1.6071
5 3 15 -1.2375 -2.0665
5 3 16 8.5142 2.4588
5 3 17 -0.8824 -1.8824
5 3 18 3.8815 0.5128
5 3 19 1.4626 2.2224
5 3 20 0.0172 0.3040
5 3 21 -0.4046 2.6154
5 3 22 -0.6043 -3.2129
5 4 0 -22.7026 -0.8465
5 4 1 -11.5492 0.1491
5 4 2 42.9205 0.1732
5 4 3 3.4065 0.5898
5 4 4 8.3020 1.3577
5 4 5 -16.1285 0.6201
5 4 6 19.7436 3.1309
5 4 7 6.7171 0.0728
5 4 8 -6.5930 -1.4526
5 4 9 -8.3101 3.1410
5 4 10 -0.8595 -2.7954
5 4 11 0.2252 4.0661
5 4 12 2.1832 -2.6687
5 4 13 -1.1840 2.3446
5 4 14 -0.4954 0.3829
5 4 15 -2.5424 0.5764
5 4 16 -1.6256 2.3553
5 4 17 2.6197 0.7209
5 4 18 0.9909 0.6452
5 4 19 1.0186 1.0765
5 4 20 -1.3443 -1.5052
5 4 21 -1.6994 1.9313
5 4 22 -1.3045 -1.2236
5 5 2 70.0791 -3.1582
5 5 4 10.3043 -2.2067
5 5 6 26.9598 -0.3445
5 5 8 -0.5366 -4.7714
5 5 10 0.1661 -9.7207
5 5 12 1.1273 -8.1896
5 5 14 0.1935 -3.0110
5 5 16 0.5533 -0.0924
5 5 18 -2.4554 -2.2447
5 5 20 1.0007 -5.3183
5 5 22 -3.4147 -7.7486
6 0 0 27.1713 -0.6939
6 0 1 24.7329 -4.3008
6 0 2 -11.7910 -2.1504
6 0 3 35.4794 5.8238
6 0 4 35.1069 0.0977
6 0 5 18.1354 13.1041
6 0 6 -0.4405 0.3556
6 0 7 -1.7217 9.2896
6 0 8 13.2772 -0.6170
6 0 9 -4.9161 0.2212
6 0 10 3.0527 -2.6454
6 0 11 -1.6368 -2.5700
6 0 12 0.7102 -2.1738
6 0 13 -6.1282 2.6937
6 0 14 -0.8830 -0.5431
6 0 15 1.9797 9.6118
6 0 16 -2.4695 0.4629
6 0 17 -0.8319 9.0757
6 0 18 6.5879 -0.2283
6 0 19 -0.8029 1.7315
6 0 20 0.4612 -1.7912
6 0 21 -0.6504 -2.0787
6 0 22 0.1242 -1.4541
6 1 0 -68.1137 -4.7617
6 1 1 29.9030 0.8628
6 1 2 -36.1246 -2.0712
6 1 3 -2.6499 -0.9958
6 1 4 -6.6845 0.2342
6 1 5 17.6628 -0.1488
6 1 6 -1.9859 1.6328
6 1 7 0.3607 0.0183
6 1 8 -0.0564 -1.2407
6 1 9 -13.9965 0.1532
6 1 10 3.4931 -5.4468
6 1 11 0.4147 0.7770
6 1 12 1.3481 -4.3665
6 1 13 -3.7118 0.6720
6 1 14 3.6096 -0.0548
6 1 15 -0.6868 0.3630
6 1 16 -1.5703 1.6723
6 1 17 8.9773 0.0651
6 1 18 1.0535 -0.2361
6 1 19 0.7496 -0.0296
6 1 20 -1.1718 -2.3709
6 1 21 0.8478 0.8163
6 1 22 -1.4285 -2.0427
6 2 0 -16.4097 0.6893
6 2 1 -5.7425 -2.5512
6 2 2 31.9287 -0.2692
6 2 3 -5.4957 -0.7817
6 2 4 37.2757 -0.3755
6 2 5 -14.4009 -2.8113
6 2 6 14.3733 -2.2677
6 2 7 -4.4681 -2.5654
6 2 8 2.4263 -0.1829
6 2 9 6.9868 -0.7209
6 2 10 -5.5645 0.4873
6 2 11 1.2076 -0.1501
6 2 12 -2.6791 0.0364
6 2 13 -3.2931 -1.5759
6 2 14 -2.3769 -0.7796
6 2 15 4.9116 -2.8489
6 2 16 8.5473 -1.3294
6 2 17 -1.1029 -2.2429
6 2 18 0.3971 -0.0914
6 2 19 -7.5677 -0.6099
6 2 20 0.4985 -0.2274
6 2 21 -0.7278 -0.2428
6 2 22 2.2481 0.9495
6 3 0 -28.4726 2.5460
6 3 1 -14.9885 -0.6342
6 3 2 22.8618 0.9473
6 3 3 -12.7185 0.5173
6 3 4 10.9632 -0.5042
6 3 5 5.6183 0.1414
6 3 6 -4.1861 -1.0040
6 3 7 10.5059 0.5129
6 3 8 -6.4105 1.1357
6 3 9 7.2771 0.2412
6 3 10 -7.1802 1.3503
6 3 11 2.6153 0.1620
6 3 12 -5.8487 1.1407
6 3 13 2.9435 0.2155
6 3 14 -1.3443 0.1626
6 3 15 -7.3322 0.1661
6 3 16 4.8072 -0.5365
6 3 17 0.2029 0.0977
6 3 18 -1.4730 0.1567
6 3 19 -1.0989 0.4813
6 3 20 0.3429 1.2531
6 3 21 -1.4063 -0.5087
6 3 22 0.0903 2.1855
6 4 0 -40.4344 3.1749
6 4 1 7.5491 1.1781
6 4 2 -4.1750 -2.0211
6 4 3 10.9623 -0.2387
6 4 4 -1.8130 -1.9441
6 4 5 4.1854 5.7903
6 4 6 -2.5702 -1.5421
6 4 7 -4.6771 2.6812
6 4 8 -8.3787 -1.4471
6 4 9 9.4523 -2.2520
6 4 10 -3.2387 -0.5452
6 4 11 -0.6286 -3.1700
6 4 12 -0.3789 -0.9286
6 4 13 -0.4407 -0.3765
6 4 14 -2.4429 -1.3512
6 4 15 -2.1795 3.8768
6 4 16 3.8689 -1.1858
6 4 17 -1.3143 3.3229
6 4 18 -1.3139 -0.7535
6 4 19 1.0386 -0.9449
6 4 20 0.4192 -0.4427
6 4 21 -0.1873 -1.6719
6 4 22 2.1720 2.5962
6 5 0 -4.7746 1.4681
6 5 1 3.1567 -1.1881
6 5 2 10.7569 -1.0293
6 5 3 -13.1343 0.6924
6 5 4 -4.9940 -0.7043
6 5 5 11.0072 -0.1484
6 5 6 3.3430 -2.5720
6 5 7 -5.3783 -0.0200
6 5 8 1.8442 0.5626
6 5 9 -9.5275 -2.5229
6 5 10 1.3380 -1.0587
6 5 11 -1.8158 -3.9562
6 5 12 1.6139 -0.2692
6 5 13 5.9707 -2.4802
6 5 14 1.3020 -0.5944
6 5 15 -2.1832 -0.4289
6 5 16 0.4589 -1.5137
6 5 17 1.7321 -0.4398
6 5 18 1.0251 -0.4310
6 5 19 -0.0890 -0.6926
6 5 20 1.2828 -0.6743
6 5 21 1.1915 -2.4589
6 6 0 8.9457 3.3017
6 6 2 7.2681 2.8845
6 6 4 2.0615 -0.4967
6 6 6 2.7695 -2.0638
6 6 8 -2.8849 3.3286
6 6 10 0.4502 8.6793
6 6 12 -0.0573 7.1168
6 6 14 8.5788 1.7000
6 6 16 -0.0972 -1.2644
6 6 18 -2.2325 0.4446
6 6 20 -1.4883 4.0409
7 0 0 -51.8530 6.1121
7 0 1 0.1544 -2.7046
7 0 2 1.2955 -0.2188
7 0 3 -24.9187 -1.8229
7 0 4 5.1166 8.9652
7 0 5 3.6231 -0.3318
7 0 6 22.9303 9.4828
7 0 7 -0.6638 -0.5059
7 0 8 8.1640 2.9028
7 0 9 7.7010 -3.7791
7 0 10 3.1085 -2.2197
7 0 11 -9.3564 -4.8910
7 0 12 -0.9940 -0.8997
7 0 13 0.1322 -2.7614
7 0 14 5.6033 4.8985
7 0 15 -2.4290 -0.4134
7 0 16 -5.7832 7.9611
7 0 17 0.6808 -0.4477
7 0 18 1.0400 4.0386
7 0 19 0.6763 -1.9762
7 0 20 -1.9582 -1.0919
7 0 21 -0.4682 -3.3625
7 0 22 0.3101 -1.4971
7 1 0 -8.8048 1.3994
7 1 1 11.4001 1.9028
7 1 2 -0.9828 -0.0989
7 1 3 -4.3686 -0.9792
7 1 4 3.2952 -0.4017
7 1 5 -10.9154 2.8589
7 1 6 27.2646 0.7190
7 1 7 -0.5487 0.6586
7 1 8 7.0548 0.1810
7 1 9 3.2405 -1.8278
7 1 10 -0.7059 1.0811
7 1 11 0.1241 -2.1298
7 1 12 0.2968 1.0624
7 1 13 2.2955 -0.3815
7 1 14 0.1752 1.0241
7 1 15 -2.2197 1.2233
7 1 16 -0.6076 0.9102
7 1 17 0.7574 1.2947
7 1 18 -1.0597 0.3883
7 1 19 -5.7140 -0.5419
7 1 20 -0.9516 0.8687
7 1 21 1.8839 -0.5838
7 1 22 1.4218 -0.1580
7 2 0 53.3719 -0.2483
7 2 1 -5.8752 2.2298
7 2 2 3.4773 2.0791
7 2 3 -22.3151 2.5228
7 2 4 16.1799 -3.7634
7 2 5 -8.5672 -0.5062
7 2 6 -5.9050 -4.7781
7 2 7 -24.1506 -0.0841
7 2 8 -2.5002 -0.9972
7 2 9 2.0523 1.8965
7 2 10 -0.6976 2.4001
7 2 11 -3.1081 2.6707
7 2 12 -1.3722 1.3971
7 2 13 -1.8161 1.1316
7 2 14 6.3259 -2.0358
7 2 15 3.6162 -0.4377
7 2 16 -3.6771 -4.2479
7 2 17 -0.1169 -0.0452
7 2 18 0.8524 -1.6801
7 2 19 -1.7349 0.8995
7 2 20 -1.3333 1.1104
7 2 21 0.5823 1.7316
7 2 22 1.5597 -1.7558
7 3 0 22.6232 -0.1519
7 3 1 11.7229 -0.2402
7 3 2 -7.8244 2.6784
7 3 3 6.4548 0.6173
7 3 4 35.5913 -0.5867
7 3 5 -1.5526 1.2101
7 3 6 -14.7712 -2.1249
7 3 7 3.9773 0.4628
7 3 8 0.4379 0.2818
7 3 9 -7.4512 0.0131
7 3 10 0.2377 3.6513
7 3 11 3.4100 -0.2342
7 3 12 0.2188 2.6696
7 3 13 -0.9093 0.0925
7 3 14 -8.1399 -0.3791
7 3 15 -2.8006 0.6742
7 3 16 0.9777 -2.2279
7 3 17 1.6307 1.0711
7 3 18 -0.4048 -0.4426
7 3 19 -3.4035 0.1546
7 3 20 -1.9501 2.2257
7 3 21 1.3298 -0.2458
7 4 0 -7.7484 -2.7756
7 4 1 12.9507 2.7357
7 4 2 -0.0631 0.2068
7 4 3 13.7422 -3.6809
7 4 4 13.3332 1.4563
7 4 5 14.2441 0.5971
7 4 6 -16.4719 2.8644
7 4 7 1.0968 0.1458
7 4 8 -1.3502 0.2960
7 4 9 -1.5638 -2.6607
7 4 10 -2.7295 -0.4319
7 4 11 1.5691 -2.6093
7 4 12 -3.0686 -0.1959
7 4 13 -1.2692 -1.4597
7 4 14 0.6663 1.1558
7 4 15 -2.1819 0.2494
7 4 16 -2.6160 2.1057
7 4 17 -1.5333 0.1151
7 4 18 3.0800 0.9361
7 4 19 2.0964 -2.2307
7 4 20 -1.2346 0.1448
7 4 21 0.9308 0.1412
7 5 0 -5.0907 -2.2334
7 5 1 -15.6690 -3.6597
7 5 2 -9.6599 1.8412
7 5 3 9.8252 -0.9322
7 5 4 -9.7909 1.4235
7 5 5 1.4228 -2.2698
7 5 6 -1.9207 0.7765
7 5 7 2.7337 0.1704
7 5 8 3.3678 2.3338
7 5 9 -1.5384 -0.3432
7 5 10 0.8838 2.0715
7 5 11 1.2108 -1.2317
7 5 12 -0.4347 1.8778
7 5 13 1.4503 -0.4213
7 5 14 -4.7090 1.4677
7 5 15 -0.9554 -0.7939
7 5 16 2.1186 0.7851
7 5 17 2.3168 -0.9268
7 5 18 -3.0103 1.2919
7 5 19 -1.5701 -0.4483
7 5 20 1.1115 1.1582
7 5 21 0.6473 -0.6394
7 6 0 14.6277 -2.5371
7 6 1 22.1294 2.1150
7 6 2 -18.9804 0.2928
7 6 3 -4.6935 -2.2468
7 6 4 8.2224 -1.8588
7 6 5 12.1375 -1.1609
7 6 6 -1.0931 -2.4720
7 6 7 -0.6246 -1.1377
7 6 8 5.1964 -1.2379
7 6 9 5.1527 1.1026
7 6 10 -1.0165 2.1215
7 6 11 -5.1663 2.4136
7 6 12 -0.5588 0.6896
7 6 13 -8.2017 0.7919
7 6 14 5.5643 -1.5708
7 6 15 0.3808 -0.7585
7 6 16 -3.3562 -2.1353
7 6 17 -0.6701 -1.1396
7 6 18 1.9363 -1.1551
7 6 19 0.5287 0.0555
7 6 20 -2.6163 0.5930
7 6 21 2.5354 3.0693
7 7 0 -6.3191 1.1654
7 7 2 -0.7298 -0.7546
7 7 4 1.9972 4.4878
7 7 6 1.0548 5.3638
7 7 8 -2.9756 0.3196
7 7 10 -3.5270 -5.1257
7 7 12 -3.9664 -4.0138
7 7 14 -6.4737 1.1616
7 7 16 -2.2620 4.0899
7 7 18 -4.5830 1.9190
7 7 20 1.8362 -2.3129
8 0 0 54.7171 -3.9259
8 0 1 -21.5269 -6.9243
8 0 2 -24.0729 -4.7242
8 0 3 -20.4802 1.7493
8 0 4 13.0744 -3.4924
8 0 5 18.2360 6.4106
8 0 6 -10.2866 -2.3401
8 0 7 1.1460 4.0106
8 0 8 -5.6525 -4.0704
8 0 9 3.1193 -3.1493
8 0 10 -9.2427 -6.0849
8 0 11 -0.1423 -5.9277
8 0 12 -1.0168 -4.7774
8 0 13 6.8264 -0.8969
8 0 14 -0.4438 -3.1447
8 0 15 -3.8409 4.9371
8 0 16 -3.1285 -2.1251
8 0 17 -0.2709 4.4842
8 0 18 -1.7099 -2.5961
8 0 19 2.1455 -0.8189
8 0 20 -0.1787 -3.9309
8 0 21 -2.1024 -4.2039
8 1 0 -13.7940 -1.6611
8 1 1 -3.3091 1.2042
8 1 2 1.6988 -1.6115
8 1 3 6.7836 0.5854
8 1 4 -9.7648 2.2396
8 1 5 -1.8939 1.1682
8 1 6 0.8029 3.6352
8 1 7 -0.6164 1.0844
8 1 8 -1.9621 0.0095
8 1 9 1.3277 0.4761
8 1 10 -2.4509 -2.3955
8 1 11 3.0840 0.2853
8 1 12 -1.5539 -1.8517
8 1 13 -0.0345 0.4234
8 1 14 -2.9059 0.7413
8 1 15 2.6132 1.1401
8 1 16 5.8932 2.9150
8 1 17 1.9017 0.4965
8 1 18 -1.0085 1.0255
8 1 19 0.7646 0.7900
8 1 20 1.3885 -1.5683
8 1 21 2.3132 1.1679
8 2 0 -0.6597 -2.7011
8 2 1 0.3607 -1.8974
8 2 2 -7.1414 2.7306
8 2 3 -10.3759 -1.2323
8 2 4 -5.2768 0.4424
8 2 5 0.7897 -4.7942
8 2 6 22.0562 -1.3571
8 2 7 -2.8484 -1.7388
8 2 8 6.6159 1.5148
8 2 9 -0.4134 0.2685
8 2 10 -0.4633 3.4781
8 2 11 -6.1683 0.7075
8 2 12 1.5655 2.8251
8 2 13 2.1750 -0.0659
8 2 14 1.0753 -0.1087
8 2 15 1.9940 -2.2667
8 2 16 -4.2016 -0.6758
8 2 17 1.0615 -2.8061
8 2 18 2.7802 0.6063
8 2 19 -1.0011 -0.3732
8 2 20 0.0628 2.2152
8 2 21 1.4764 -0.4118
8 3 0 25.3699 2.8717
8 3 1 -12.3631 -1.9364
8 3 2 44.6742 -2.1869
8 3 3 15.1673 -1.6519
8 3 4 -3.7665 1.6396
8 3 5 -2.8456 -1.3987
8 3 6 10.1290 1.8718
8 3 7 -2.3564 -1.5607
8 3 8 0.6014 0.0973
8 3 9 -4.0902 -0.1211
8 3 10 5.1513 -0.5701
8 3 11 -5.6396 -0.3251
8 3 12 6.8139 -0.2690
8 3 13 -7.3638 -0.6045
8 3 14 -7.0166 0.4300
8 3 15 2.6237 -0.9649
8 3 16 2.6828 1.4888
8 3 17 -2.7994 -1.2723
8 3 18 -2.9616 -0.1242
8 3 19 1.4944 -0.0316
8 3 20 2.7997 -1.3669
8 3 21 -0.7598 -0.6595
8 4 0 12.7256 -0.3155
8 4 1 -6.2887 1.6734
8 4 2 -15.6485 -3.3611
8 4 3 -3.8836 1.9687
8 4 4 13.4691 1.0650
8 4 5 -10.4501 2.1358
8 4 6 3.7616 3.9122
8 4 7 -15.6483 2.3298
8 4 8 3.2163 -1.6095
8 4 9 -2.5829 0.8807
8 4 10 0.8861 -5.5792
8 4 11 -1.6350 0.2114
8 4 12 4.1931 -3.9995
8 4 13 -0.7186 1.0585
8 4 14 -6.2857 0.4161
8 4 15 -0.2206 1.7304
8 4 16 -1.0156 2.8630
8 4 17 0.6151 2.0595
8 4 18 -0.7377 -0.3354
8 4 19 2.3401 1.4200
8 4 20 -1.0076 -3.4222
8 4 21 -0.3492 -0.6727
8 5 0 -2.0742 3.2644
8 5 1 -9.2906 -3.0899
8 5 2 16.9704 -1.3136
8 5 3 -17.0358 3.6922
8 5 4 -4.1510 -0.2544
8 5 5 -12.6493 -1.1110
8 5 6 1.5316 -1.5582
8 5 7 -9.0792 0.3246
8 5 8 -0.7899 -1.0508
8 5 9 1.2913 1.8661
8 5 10 1.8472 -0.9359
8 5 11 0.9992 2.1603
8 5 12 2.8250 -0.7350
8 5 13 -2.9803 1.6537
8 5 14 -5.3458 -0.5651
8 5 15 5.5686 0.1542
8 5 16 3.8992 -1.0498
8 5 17 2.1801 0.1334
8 5 18 -2.7525 -0.6006
8 5 19 -1.0464 1.8233
8 5 20 1.0954 -0.2320
8 5 21 -0.4332 -0.9703
8 6 0 12.1971 -0.5307
8 6 1 3.5538 3.6176
8 6 2 -6.7177 0.3476
8 6 3 -5.5850 0.1057
8 6 4 8.4666 -0.3906
8 6 5 5.0335 -1.7178
8 6 6 0.5360 -0.8246
8 6 7 7.5709 -1.5725
8 6 8 1.1210 -1.1215
8 6 9 2.1936 1.0242
8 6 10 2.1925 0.1066
8 6 11 -1.1515 1.7358
8 6 12 4.2349 -0.3966
8 6 13 -1.0971 0.3434
8 6 14 6.4718 -1.2911
8 6 15 -2.0829 -1.2275
8 6 16 -1.1033 -0.8546
8 6 17 -3.3558 -1.2740
8 6 18 0.7290 -0.4523
8 6 19 0.5703 -0.0011
8 6 20 -1.8551 0.9041
8 6 21 -1.5805 1.6351
8 7 0 2.5803 2.1006
8 7 1 25.6893 -2.0198
8 7 2 9.6067 1.7572
8 7 3 15.0534 1.9071
8 7 4 -2.4704 1.2937
8 7 5 2.4927 2.7336
8 7 6 4.6480 1.9154
8 7 7 9.2144 2.4754
8 7 8 -0.0226 1.4530
8 7 9 -1.8627 0.1113
8 7 10 0.6360 1.6356
8 7 11 3.9615 -0.7256
8 7 12 2.9242 1.6082
8 7 13 -3.6699 0.8351
8 7 14 3.0433 0.9964
8 7 15 0.3148 1.8802
8 7 16 -1.8917 1.4633
8 7 17 -2.6520 2.0898
8 7 18 1.4212 0.7236
8 7 19 3.1066 0.1640
8 7 20 2.8153 1.2274
8 7 21 -1.7380 -2.1222
8 8 0 -14.2033 -4.1974
8 8 2 3.0347 -1.7263
8 8 4 3.8019 -6.5508
8 8 6 -15.3455 -5.7282
8 8 8 -0.9322 -2.9896
8 8 10 -5.0245 -0.1459
8 8 12 2.3784 -0.8210
8 8 14 -4.6675 -3.7017
8 8 16 -1.7355 -4.9000
8 8 18 2.3755 -3.2202
8 8 20 2.9256 -0.6163
9 0 0 -39.4685 2.6183
9 0 1 16.3404 -6.2254
9 0 2 -2.2440 -1.6789
9 0 3 -7.4525 -5.1040
9 0 4 -4.1711 3.3710
9 0 5 17.6219 -2.7571
9 0 6 -8.0185 3.2857
9 0 7 -7.7383 -3.3324
9 0 8 2.6873 -0.4815
9 0 9 -8.1255 -6.1752
9 0 10 7.9713 -4.7148
9 0 11 -3.3853 -6.5384
9 0 12 0.8473 -3.3520
9 0 13 1.5653 -4.8888
9 0 14 -1.4079 1.2158
9 0 15 -3.5939 -2.9373
9 0 16 1.8992 3.2418
9 0 17 3.3162 -2.1553
9 0 18 0.1773 0.7716
9 0 19 -0.2695 -3.8479
9 0 20 -0.7767 -2.8674
9 0 21 0.6267 -5.3933
9 1 0 -9.5078 3.2252
9 1 1 -10.3227 2.7392
9 1 2 7.7019 0.5268
9 1 3 -2.3967 0.3388
9 1 4 -20.5040 1.5773
9 1 5 12.0034 2.9026
9 1 6 6.8110 2.8693
9 1 7 -6.0696 1.5101
9 1 8 -0.2483 1.7411
9 1 9 -0.8615 1.0043
9 1 10 -3.1413 0.2033
9 1 11 -0.4145 0.7118
9 1 12 1.0449 -0.1865
9 1 13 2.0704 0.9643
9 1 14 0.2417 1.4324
9 1 15 0.0013 1.9690
9 1 16 0.6957 1.9215
9 1 17 -1.0840 1.9265
9 1 18 -1.6924 0.8937
9 1 19 1.6606 0.6358
9 1 20 4.4050 0.2747
9 1 21 0.0511 1.2348
9 2 0 2.5692 -1.3902
9 2 1 -3.3694 1.2338
9 2 2 8.6580 0.4121
9 2 3 6.1311 1.7805
9 2 4 -14.5683 -2.8516
9 2 5 7.0108 -1.6392
9 2 6 -2.0494 -2.8687
9 2 7 5.0951 0.0013
9 2 8 10.1732 -0.9518
9 2 9 4.6740 2.0709
9 2 10 -8.6055 -1.1544
9 2 11 0.2703 2.4949
9 2 12 -1.3717 -1.0031
9 2 13 1.0016 1.0921
9 2 14 -2.6745 -1.3422
9 2 15 -0.5268 -0.7117
9 2 16 -2.8924 -2.3957
9 2 17 3.8865 -0.0749
9 2 18 2.5042 -1.2245
9 2 19 -1.0627 0.7007
9 2 20 0.3332 0.7645
9 2 21 -0.3262 0.9636
9 3 0 -10.3084 2.4305
9 3 1 -6.1017 -0.6764
9 3 2 -7.5932 -2.3320
9 3 3 5.4602 -0.5353
9 3 4 -2.7551 -0.9421
9 3 5 5.7561 0.9311
9 3 6 -0.0713 -1.2909
9 3 7 6.6307 -0.7339
9 3 8 7.5130 -1.2838
9 3 9 -3.3006 0.1387
9 3 10 -0.4871 -0.9358
9 3 11 2.4399 0.4908
9 3 12 7.5896 -1.2310
9 3 13 -2.9509 -0.4771
9 3 14 3.7563 -0.6017
9 3 15 0.9294 -0.0351
9 3 16 -2.3668 -1.0274
9 3 17 -2.9858 -0.2460
9 3 18 -0.2050 -0.4995
9 3 19 -0.7324 -1.1054
9 3 20 -3.1232 -1.1323
9 3 21 -1.2751 0.9228
9 4 0 -10.5487 -3.7578
9 4 1 3.6659 2.3169
9 4 2 -1.6584 0.7063
9 4 3 12.7897 -0.0921
9 4 4 0.9854 1.1217
9 4 5 -0.6881 1.4993
9 4 6 -6.4039 2.4137
9 4 7 6.3900 0.7269
9 4 8 -2.0082 1.5390
9 4 9 -1.4867 0.2061
9 4 10 2.1289 -0.8617
9 4 11 2.9562 0.3376
9 4 12 -4.1154 -0.0256
9 4 13 0.4181 0.2830
9 4 14 4.1540 1.4654
9 4 15 0.4193 0.4686
9 4 16 -0.5491 2.0785
9 4 17 -0.5625 0.5343
9 4 18 1.2168 1.4241
9 4 19 -2.7002 0.2851
9 4 20 -0.8202 -0.6820
9 4 21 2.2770 1.2174
9 5 0 -0.7348 0.8416
9 5 1 -23.6519 -1.0603
9 5 2 7.3874 2.3042
9 5 3 2.7487 -0.8593
9 5 4 -4.5803 -1.5100
9 5 5 -8.8763 -1.7254
9 5 6 6.7727 -2.5918
9 5 7 -5.4901 -2.9763
9 5 8 -5.5128 0.7080
9 5 9 1.9862 -1.8700
9 5 10 -1.9624 2.4750
9 5 11 -1.5292 -1.5129
9 5 12 -4.1458 1.9477
9 5 13 -1.1135 -1.9240
9 5 14 3.7854 -0.5838
9 5 15 1.4306 -1.8511
9 5 16 1.1379 -2.0739
9 5 17 0.2199 -1.3094
9 5 18 1.4903 0.1070
9 5 19 2.4267 -0.5278
9 5 20 0.5786 1.3583
9 5 21 1.9935 0.1736
9 6 0 12.8147 -4.3067
9 6 1 -10.3459 2.2214
9 6 2 -1.9057 1.2200
9 6 3 -12.8189 -1.2644
9 6 4 2.6521 -0.7181
9 6 5 -5.0718 0.0536
9 6 6 3.1675 -0.2240
9 6 7 1.6720 -1.3657
9 6 8 -2.5650 0.5851
9 6 9 -0.2256 0.7868
9 6 10 -2.1390 0.9093
9 6 11 -4.9759 0.6552
9 6 12 -4.4649 0.9407
9 6 13 -6.9098 -0.2137
9 6 14 -1.1102 0.2034
9 6 15 -5.1231 -0.6676
9 6 16 3.6286 -0.7483
9 6 17 1.5565 -1.2469
9 6 18 -0.2130 0.1079
9 6 19 -4.2851 -0.3279
9 6 20 -0.6616 -0.1646
9 6 21 1.1407 1.7516
9 7 0 -9.6097 3.9306
9 7 1 11.7205 -2.5988
9 7 2 10.0468 -2.4207
9 7 3 -0.2529 -0.2484
9 7 4 -1.9815 -0.6522
9 7 5 1.5815 2.5602
9 7 6 7.9408 0.0693
9 7 7 -1.6167 1.9766
9 7 8 -0.9543 -0.7063
9 7 9 1.8785 -0.4034
9 7 10 3.5945 -2.0008
9 7 11 1.5382 -0.8462
9 7 12 -1.4687 -0.9909
9 7 13 1.8012 -0.5283
9 7 14 1.5650 0.1598
9 7 15 2.2500 2.0094
9 7 16 1.0100 0.6219
9 7 17 1.0838 1.7546
9 7 18 -0.0361 -0.5986
9 7 19 1.1347 0.0124
9 7 20 0.4455 -1.5817
9 8 0 3.0131 -1.0347
9 8 1 5.6686 1.0768
9 8 2 -5.0652 -1.7542
9 8 3 4.7322 -1.6152
9 8 4 -10.4314 0.5279
9 8 5 0.2391 -2.8761
9 8 6 -3.6470 0.1822
9 8 7 -5.1445 -2.4190
9 8 8 4.3068 -0.0174
9 8 9 4.3516 -0.4646
9 8 10 3.0078 -2.7274
9 8 11 0.0440 -0.2880
9 8 12 1.8058 -1.6664
9 8 13 7.0615 -1.3637
9 8 14 0.4172 0.2971
9 8 15 -0.5502 -2.2967
9 8 16 2.5750 -0.1220
9 8 17 -0.9102 -2.1011
9 8 18 -1.7108 0.1520
9 8 19 -2.0313 -0.3013
9 8 20 0.4841 -1.5166
9 9 0 -17.8145 5.5545
9 9 2 6.2490 2.6246
9 9 4 7.4394 6.3438
9 9 6 -6.3546 5.5886
9 9 8 -0.7092 3.6981
9 9 10 8.2771 2.1304
9 9 12 0.6655 2.5713
9 9 14 1.7959 4.5353
9 9 16 -1.1598 5.2891
9 9 18 -0.2767 3.4008
9 9 20 -2.5494 2.1076
10 0 0 10.1434 -2.6097
10 0 1 9.3803 -4.4994
10 0 2 -9.9206 -5.7001
10 0 3 3.0731 0.3432
10 0 4 12.1982 -2.1877
10 0 5 -8.0721 3.1280
10 0 6 -20.0452 -0.4349
10 0 7 -2.7722 1.8055
10 0 8 3.5642 -4.8528
10 0 9 3.8271 -2.5656
10 0 10 5.2499 -8.4386
10 0 11 5.3032 -3.5300
10 0 12 1.9790 -7.0095
10 0 13 -4.2267 -0.5331
10 0 14 3.5036 -2.5557
10 0 15 1.3620 2.4837
10 0 16 1.8670 0.0578
10 0 17 1.3297 1.9080
10 0 18 2.7280 -1.8463
10 0 19 -1.8434 -1.0892
10 0 20 -1.8989 -4.8890
10 0 21 -0.5748 -3.7199
10 1 0 -23.3911 0.0384
10 1 1 6.2456 2.2135
10 1 2 3.2153 0.2279
10 1 3 -3.0136 0.5198
10 1 4 10.8458 0.0734
10 1 5 -4.6716 2.5082
10 1 6 -2.2473 1.4166
10 1 7 -1.8014 1.1493
10 1 8 16.1733 0.6415
10 1 9 -2.5880 -0.0189
10 1 10 -4.8998 1.2451
10 1 11 2.2154 -0.6198
10 1 12 0.3450 1.2551
10 1 13 1.6196 0.0822
10 1 14 -2.9786 1.3767
10 1 15 -0.9135 1.6317
10 1 16 0.1789 1.3588
10 1 17 5.0725 1.8235
10 1 18 -1.2563 0.5765
10 1 19 2.2402 0.7332
10 1 20 0.5061 0.3051
10 1 21 -1.0462 0.6506
10 2 0 -27.5685 -3.1694
10 2 1 -3.8361 0.7043
10 2 2 3.1895 2.7272
10 2 3 0.1614 0.5010
10 2 4 -10.2278 0.1031
10 2 5 7.5998 -1.7351
10 2 6 18.0230 -1.3453
10 2 7 6.5814 -0.4708
10 2 8 8.2138 1.1945
10 2 9 4.5709 -0.2027
10 2 10 -2.3849 2.7392
10 2 11 10.3205 0.4302
10 2 12 -0.1757 2.6587
10 2 13 0.0994 0.0746
10 2 14 1.9979 0.2957
10 2 15 -3.7664 -1.3337
10 2 16 -10.3219 -1.1746
10 2 17 -3.3649 -1.5347
10 2 18 6.2343 0.2659
10 2 19 -2.6682 0.4855
10 2 20 -1.8657 1.2038
10 2 21 3.4334 0.8523
10 3 0 -9.0188 3.0140
10 3 1 -5.3058 -1.1678
10 3 2 -7.9630 0.0729
10 3 3 -5.9031 -2.0897
10 3 4 -22.7712 0.2664
10 3 5 15.4390 -0.6636
10 3 6 -5.4778 -0.6451
10 3 7 10.3828 -1.6549
10 3 8 2.6797 -0.3026
10 3 9 0.0053 -1.2897
10 3 10 -9.2328 1.5296
10 3 11 -0.2514 -0.8117
10 3 12 -3.6032 0.9660
10 3 13 -4.5639 -1.1594
10 3 14 -0.0661 -0.2640
10 3 15 -13.3086 -1.3501
10 3 16 -2.9295 -0.3284
10 3 17 -11.8755 -1.1862
10 3 18 -2.1261 -0.1580
10 3 19 -0.9969 -1.3378
10 3 20 -0.0595 1.0721
10 3 21 -1.2271 0.4473
10 4 0 -13.4413 -0.5460
10 4 1 27.2148 0.3586
10 4 2 -9.2534 1.3547
10 4 3 9.2082 0.8845
10 4 4 -11.9602 0.7001
10 4 5 9.9303 1.2909
10 4 6 -4.1779 0.5672
10 4 7 -1.7063 1.8485
10 4 8 4.9062 0.8738
10 4 9 6.9502 -0.2924
10 4 10 4.5897 0.6802
10 4 11 4.8112 -0.6076
10 4 12 1.3679 0.6320
10 4 13 0.9735 0.7999
10 4 14 4.7676 0.1972
10 4 15 -4.3014 1.3994
10 4 16 1.3611 0.5506
10 4 17 -0.6512 1.4632
10 4 18 1.2887 0.7145
10 4 19 -0.8844 0.1377
10 4 20 1.0701 1.1888
10 4 21 4.4849 -1.1366
10 5 0 -14.7754 4.0633
10 5 1 9.0300 -1.9165
10 5 2 -4.2217 -0.2321
10 5 3 11.1800 0.5432
10 5 4 2.3351 -0.9099
10 5 5 3.7326 0.2193
10 5 6 -16.1668 -1.2863
10 5 7 2.0995 1.4436
10 5 8 -1.5639 -0.9568
10 5 9 2.9368 -1.1284
10 5 10 0.9112 0.5711
10 5 11 -1.3983 -0.9525
10 5 12 -5.9948 -0.6322
10 5 13 -0.8227 -0.0164
10 5 14 4.9598 -0.6284
10 5 15 -2.3483 0.8033
10 5 16 -0.8337 -0.8903
10 5 17 0.5358 0.6832
10 5 18 1.4867 -0.9433
10 5 19 -3.7377 -0.4490
10 5 20 -1.1749 0.4660
10 6 0 2.2967 -0.9061
10 6 1 -5.8677 0.2195
10 6 2 5.7418 -0.7554
10 6 3 2.2051 -0.3558
10 6 4 -4.3698 1.5375
10 6 5 8.2563 0.0109
10 6 6 0.8468 1.6008
10 6 7 -0.0253 0.9591
10 6 8 -0.9517 0.3305
10 6 9 -1.9612 1.5446
10 6 10 2.1160 -0.5931
10 6 11 1.9016 1.8901
10 6 12 -4.6905 -0.4316
10 6 13 0.3536 1.2508
10 6 14 5.4994 1.2477
10 6 15 -2.5140 -0.0517
10 6 16 -0.5835 1.6416
10 6 17 1.6144 0.0701
10 6 18 1.5469 0.3166
10 6 19 -1.4703 -0.3931
10 6 20 0.4098 0.4676
10 7 0 7.6326 2.6059
10 7 1 -13.2488 -0.2741
10 7 2 -7.9835 -0.3706
10 7 3 -1.1938 -0.2825
10 7 4 0.2395 0.9199
10 7 5 1.6102 -0.6949
10 7 6 4.0701 1.5165
10 7 7 2.9415 0.1662
10 7 8 -0.8227 -0.1166
10 7 9 -0.1157 -1.8376
10 7 10 0.2076 -0.2971
10 7 11 0.9698 -0.7868
10 7 12 -5.8345 -0.4699
10 7 13 -0.0895 -0.8562
10 7 14 6.4412 0.1516
10 7 15 3.1957 -0.2536
10 7 16 -2.5505 0.7466
10 7 17 -1.1046 -0.0066
10 7 18 1.0743 0.1390
10 7 19 0.3708 -0.3121
10 7 20 -0.3051 -0.2629
10 8 0 -10.6334 -4.2127
10 8 1 3.4276 1.8146
10 8 2 -4.0833 1.9261
10 8 3 2.0511 0.2993
10 8 4 -6.2600 1.6665
10 8 5 -5.4858 -2.8904
10 8 6 1.0585 1.2325
10 8 7 -3.3184 -1.5111
10 8 8 -0.1710 1.6206
10 8 9 1.3557 0.9878
10 8 10 -5.8989 0.9573
10 8 11 0.1609 1.4383
10 8 12 -5.6287 0.7122
10 8 13 6.0804 0.8453
10 8 14 -0.1159 1.4765
10 8 15 1.8790 -2.3045
10 8 16 0.2111 1.1369
10 8 17 -0.1994 -1.4913
10 8 18 -2.2902 1.0700
10 8 19 1.5855 -0.3210
10 8 20 -0.7415 -0.1468
10 9 0 9.3365 -0.5480
10 9 1 -8.5188 -0.2824
10 9 2 -7.9675 1.1877
10 9 3 -1.9696 1.2690
10 9 4 3.8566 -1.5481
10 9 5 -5.0669 3.2707
10 9 6 4.2592 -1.3129
10 9 7 -4.4900 1.8490
10 9 8 0.2653 -1.0966
10 9 9 0.1760 1.0505
10 9 10 1.9646 0.2581
10 9 11 -4.1044 1.5898
10 9 12 -0.4234 -0.2950
10 9 13 2.8541 1.6270
10 9 14 0.0191 -0.7668
10 9 15 -1.3708 2.1980
10 9 16 0.1343 -0.6196
10 9 17 -0.7159 1.3002
10 9 18 -2.9618 0.1484
10 9 19 -1.9240 0.6189
10 9 20 -1.1498 0.4449
10 10 0 9.3859 -4.1901
10 10 2 10.3776 -2.3051
10 10 4 8.1753 -3.6525
10 10 6 11.2375 -2.8151
10 10 8 1.4602 -3.1057
10 10 10 12.2708 -3.2337
10 10 12 5.9964 -3.3725
10 10 14 0.8548 -3.3336
10 10 16 0.9225 -2.7838
10 10 18 0.6863 -1.5276
11 0 0 -20.5633 0.5346
11 0 1 3.7916 -7.0543
11 0 2 -1.5838 0.1718
11 0 3 3.2156 -2.0981
11 0 4 1.5641 3.2448
11 0 5 -6.9229 1.0551
11 0 6 0.5680 2.9815
11 0 7 -0.9121 -0.8106
11 0 8 -4.4848 0.4032
11 0 9 8.8144 -6.1873
11 0 10 3.6233 -1.0966
11 0 11 3.4004 -7.8366
11 0 12 -2.1211 -0.4863
11 0 13 -1.9387 -4.1003
11 0 14 -2.5038 1.1896
11 0 15 -3.5960 0.3172
11 0 16 4.9830 2.4099
11 0 17 4.7228 0.4163
11 0 18 -4.6887 1.0512
11 0 19 -0.3726 -2.8561
11 0 20 -2.7453 -1.2761
11 0 21 1.4462 -5.3029
11 1 0 8.2090 1.1461
11 1 1 2.7911 0.3526
11 1 2 3.4641 -0.3300
11 1 3 3.8454 0.1372
11 1 4 9.0756 0.8641
11 1 5 -5.5659 1.0061
11 1 6 7.6514 1.6381
11 1 7 5.1382 0.6393
11 1 8 -6.2457 -0.1641
11 1 9 10.7844 -0.1766
11 1 10 0.5757 -0.8631
11 1 11 8.2691 -0.7661
11 1 12 -0.0785 -0.7959
11 1 13 -3.7859 0.0655
11 1 14 -3.1962 0.2122
11 1 15 3.4988 0.7901
11 1 16 -3.5290 1.2412
11 1 17 0.0160 0.6850
11 1 18 3.5330 0.1898
11 1 19 0.1593 -0.0789
11 1 20 -2.0354 0.5788
11 1 21 -2.4311 -0.1879
11 2 0 -30.0272 -0.5130
11 2 1 2.7556 -0.9125
11 2 2 3.2002 -0.4599
11 2 3 34.4309 1.6955
11 2 4 -3.3253 -0.7624
11 2 5 8.9266 -1.5106
11 2 6 5.4867 -0.9850
11 2 7 -2.9009 0.3835
11 2 8 4.9236 -0.0471
11 2 9 -3.2660 2.0126
11 2 10 -16.8436 0.3562
11 2 11 -5.0583 2.0635
11 2 12 -1.0653 0.5713
11 2 13 0.2000 1.3602
11 2 14 -5.0044 -0.1090
11 2 15 -9.6088 -0.1053
11 2 16 6.4412 -1.1396
11 2 17 -2.8403 0.1575
11 2 18 -1.1291 -0.6521
11 2 19 2.0604 1.1721
11 2 20 4.3646 0.1563
11 3 0 0.2356 0.9495
11 3 1 0.5809 -0.6696
11 3 2 -11.0282 -1.3028
11 3 3 -6.6950 -0.4306
11 3 4 19.9062 -0.7794
11 3 5 -2.6885 -0.2930
11 3 6 10.0400 -0.6930
11 3 7 -1.4045 -0.8116
11 3 8 11.3373 -1.1946
11 3 9 -6.5733 0.0863
11 3 10 -2.1527 -0.0035
11 3 11 12.4953 0.1740
11 3 12 2.7079 -0.7547
11 3 13 -2.0284 -0.1627
11 3 14 4.5407 -1.2055
11 3 15 -1.0148 -0.3856
11 3 16 2.0723 -0.9786
11 3 17 -5.8876 -0.5714
11 3 18 7.9618 -0.5874
11 3 19 0.7428 0.1400
11 3 20 -1.0664 -0.6505
11 4 0 -11.1778 -2.9443
11 4 1 -14.4986 0.2412
11 4 2 6.1815 0.3883
11 4 3 -1.7225 0.3476
11 4 4 6.3686 0.6376
11 4 5 -4.2307 1.1624
11 4 6 2.5128 0.3040
11 4 7 1.7115 1.2748
11 4 8 -0.2211 -0.3363
11 4 9 -2.0262 0.3019
11 4 10 7.0978 -1.5503
11 4 11 3.4065 -0.8464
11 4 12 -3.0050 -0.8429
11 4 13 4.9203 0.1966
11 4 14 2.7220 -0.4254
11 4 15 0.7986 1.3921
11 4 16 3.7201 0.7236
11 4 17 -4.6710 1.0986
11 4 18 -0.7102 0.2831
11 4 19 1.7942 0.4836
11 4 20 3.1261 -0.3963
11 5 0 4.0404 -1.9831
11 5 1 9.2696 -0.5309
11 5 2 -0.7837 0.5469
11 5 3 7.6745 -0.7691
11 5 4 4.0823 0.2744
11 5 5 2.4237 -0.2301
11 5 6 -1.8699 0.7166
11 5 7 0.2590 -0.0430
11 5 8 0.2901 0.1328
11 5 9 -1.7156 0.1385
11 5 10 1.4277 -0.7253
11 5 11 1.6937 -0.5723
11 5 12 1.4537 -0.3446
11 5 13 -5.6761 -0.2232
11 5 14 2.7037 0.4746
11 5 15 0.1855 0.1562
11 5 16 -2.7894 0.6739
11 5 17 -1.4721 -0.3535
11 5 18 1.4713 0.0679
11 5 19 2.6342 0.7368
11 5 20 -2.1534 -1.3357
11 6 0 -17.8803 -2.4755
11 6 1 1.5249 0.0876
11 6 2 6.3953 -0.9784
11 6 3 5.8188 -0.7458
11 6 4 2.2798 0.0722
11 6 5 4.0087 -0.1854
11 6 6 -3.5828 -0.1846
11 6 7 -2.0548 -1.7529
11 6 8 -1.6109 -0.0288
11 6 9 -2.7063 0.7704
11 6 10 2.1826 -0.6378
11 6 11 -1.8570 0.2830
11 6 12 2.6007 -0.2182
11 6 13 -5.0347 0.0699
11 6 14 -6.8587 -0.3306
11 6 15 -2.9634 -0.8860
11 6 16 0.9635 0.4476
11 6 17 -0.4734 -0.5987
11 6 18 -4.0700 -0.2594
11 6 19 -1.0692 0.0754
11 6 20 2.4954 0.4146
11 7 0 7.1994 1.0160
11 7 1 5.2481 0.6704
11 7 2 -6.8668 -0.0450
11 7 3 -11.6224 1.1891
11 7 4 -7.4341 -2.4894
11 7 5 5.4123 0.8980
11 7 6 0.0783 -2.1655
11 7 7 -1.7253 0.5447
11 7 8 3.7103 -0.8152
11 7 9 1.9348 -0.0672
11 7 10 -1.2462 1.4152
11 7 11 -1.4278 -0.0542
11 7 12 6.1123 0.8514
11 7 13 -11.8348 -0.0274
11 7 14 0.0685 -2.2418
11 7 15 -1.4521 0.4518
11 7 16 0.9386 -2.2802
11 7 17 -0.1670 0.6011
11 7 18 -0.1571 -0.5486
11 7 19 -3.3783 0.6077
11 7 20 -1.8855 0.4277
11 8 0 -1.1600 0.1080
11 8 1 1.2676 -0.9021
11 8 2 -3.8784 0.0296
11 8 3 -0.9226 1.2383
11 8 4 -2.6986 -0.4360
11 8 5 3.5051 0.6640
11 8 6 -4.6015 -1.1980
11 8 7 -0.5259 1.1256
11 8 8 0.4526 -0.1499
11 8 9 3.8910 0.4264
11 8 10 -4.3695 0.2203
11 8 11 3.2069 -1.2069
11 8 12 -3.1329 0.2222
11 8 13 2.1828 0.8571
11 8 14 -0.2108 -0.3815
11 8 15 -0.2316 1.2025
11 8 16 -1.3400 -0.7031
11 8 17 0.3171 0.7451
11 8 18 -2.3058 -0.6688
11 8 19 4.4640 0.6343
11 9 0 1.3577 2.3374
11 9 1 2.6082 -1.4174
11 9 2 -2.4325 -1.1456
11 9 3 1.8547 -0.2530
11 9 4 -2.0332 -1.0643
11 9 5 2.5085 2.9347
11 9 6 -8.3251 -1.2483
11 9 7 -0.0415 1.8228
11 9 8 -3.3564 -1.4815
11 9 9 1.8542 -2.1663
11 9 10 -6.9564 0.4126
11 9 11 -3.0151 -3.9250
11 9 12 0.6933 -0.3650
11 9 13 3.2051 -0.9438
11 9 14 1.1904 -1.5696
11 9 15 -4.5850 2.7365
11 9 16 0.3752 -1.0837
11 9 17 1.3727 2.1374
11 9 18 -0.3111 -0.9071
11 9 19 -2.4737 -0.9955
11 10 0 0.8301 1.1665
11 10 1 -3.4487 -1.3886
11 10 2 5.3848 -0.6785
11 10 3 -1.8349 -0.5497
11 10 4 1.1802 1.0533
11 10 5 -2.5014 -1.0915
11 10 6 0.4526 0.5178
11 10 7 6.7934 -0.5598
11 10 8 -0.8396 1.0120
11 10 9 -4.3655 -1.5778
11 10 10 6.6612 2.3709
11 10 11 1.7868 -2.2142
11 10 12 3.1504 2.0244
11 10 13 -0.0400 -1.0425
11 10 14 -1.1729 0.4581
11 10 15 1.9951 -1.0393
11 10 16 -2.1241 0.3142
11 10 17 3.8863 -0.4962
11 10 18 -6.4197 -0.4422
11 10 19 4.3413 -1.1457
11 11 0 8.7396 1.5825
11 11 2 -0.9419 0.7705
11 11 4 -5.2671 -0.5453
11 11 6 0.3440 -1.2136
11 11 8 8.7536 1.0835
11 11 10 -3.5436 3.6779
11 11 12 -3.0082 3.2024
11 11 14 -5.7288 0.6579
11 11 16 -1.9444 -0.9439
11 11 18 0.4987 -1.3330
12 0 0 7.1219 1.9770
12 0 1 -2.9302 0.8752
12 0 2 0.6055 -3.7164
12 0 3 5.7669 2.9734
12 0 4 1.5576 2.8329
12 0 5 -2.3119 4.2280
12 0 6 3.6655 4.2435
12 0 7 5.3802 3.0460
12 0 8 -0.3153 -0.6229
12 0 9 3.1314 2.0271
12 0 10 7.9856 -5.6601
12 0 11 -2.5866 1.9064
12 0 12 2.8891 -4.5029
12 0 13 0.0236 2.0153
12 0 14 10.1229 0.5930
12 0 15 2.6208 2.8427
12 0 16 11.0356 3.0440
12 0 17 2.9527 2.8129
12 0 18 -1.0643 0.6135
12 0 19 1.7101 1.5471
12 0 20 3.6819 -3.3503
12 1 0 6.3455 -1.4778
12 1 1 -5.4691 1.8096
12 1 2 1.7318 0.4557
12 1 3 14.7714 -1.5229
12 1 4 10.6028 -0.9466
12 1 5 0.7804 1.6311
12 1 6 1.9736 -0.7876
12 1 7 -5.6409 0.9548
12 1 8 -5.4980 -0.3457
12 1 9 4.1316 -0.3347
12 1 10 -2.0968 -0.2213
12 1 11 -2.6454 -0.8706
12 1 12 -3.3477 -0.3099
12 1 13 -0.9418 -0.1246
12 1 14 4.4275 -0.6393
12 1 15 1.6466 0.9360
12 1 16 -2.6605 -0.5884
12 1 17 0.5505 0.2090
12 1 18 1.0799 -0.2069
12 1 19 -0.7899 -0.6278
12 1 20 -1.8238 0.0484
12 2 0 -11.2112 -1.0663
12 2 1 -3.1345 0.9944
12 2 2 4.5198 0.8558
12 2 3 11.8536 -1.6691
12 2 4 -8.7446 0.3880
12 2 5 -5.4871 -2.0603
12 2 6 7.7741 -0.7634
12 2 7 -10.1236 -1.3174
12 2 8 -6.9960 0.6358
12 2 9 -10.8885 0.0777
12 2 10 -3.7081 0.1494
12 2 11 6.0660 0.8461
12 2 12 -0.5765 0.0573
12 2 13 -2.1115 0.0624
12 2 14 -2.4772 0.3206
12 2 15 -5.0233 -1.1851
12 2 16 -0.0431 -0.0859
12 2 17 -4.7289 -1.4531
12 2 18 -1.9323 0.5197
12 2 19 -4.6055 -0.5390
12 2 20 0.5769 -1.4893
12 3 0 18.6569 0.3451
12 3 1 1.4313 0.7081
12 3 2 -4.6940 0.3295
12 3 3 6.9209 0.2999
12 3 4 -4.4579 0.2039
12 3 5 8.8046 0.2483
12 3 6 -0.4561 0.5249
12 3 7 -2.8854 -0.2774
12 3 8 -9.0193 0.8408
12 3 9 9.3928 -0.2964
12 3 10 1.1500 0.7191
12 3 11 3.3869 0.0468
12 3 12 -4.1886 0.4679
12 3 13 5.5416 -0.5313
12 3 14 -1.8699 0.5140
12 3 15 -1.2115 -0.2685
12 3 16 3.4042 0.3543
12 3 17 0.9320 -0.0411
12 3 18 3.3133 0.2608
12 3 19 4.1383 0.4506
12 3 20 1.3071 -0.5796
12 4 0 0.7363 3.0478
12 4 1 -4.3102 1.7240
12 4 2 2.8531 -1.7858
12 4 3 -9.8393 0.5083
12 4 4 -0.4836 -0.2291
12 4 5 -5.8301 -0.3742
12 4 6 1.7698 0.5375
12 4 7 -6.7894 -0.2828
12 4 8 -0.9980 -0.2204
12 4 9 0.5770 0.1865
12 4 10 -0.5799 -1.1915
12 4 11 -5.9196 0.5105
12 4 12 -1.5042 -0.5794
12 4 13 -1.3333 -0.2589
12 4 14 -6.1544 0.3390
12 4 15 -0.8863 -0.3110
12 4 16 3.8215 0.3573
12 4 17 3.2661 -0.1234
12 4 18 -2.5759 -0.5024
12 4 19 2.4019 -0.6217
12 4 20 0.3999 -0.0946
12 5 0 -4.0201 0.9282
12 5 1 -7.1054 0.1546
12 5 2 6.7365 -0.2225
12 5 3 1.8572 0.9513
12 5 4 12.0754 -0.3253
12 5 5 -5.1977 0.1798
12 5 6 2.5061 0.6960
12 5 7 -2.7123 0.7040
12 5 8 -3.0979 0.6235
12 5 9 3.3683 -0.2774
12 5 10 3.2514 0.6983
12 5 11 -7.0108 -0.3967
12 5 12 -2.3520 0.8270
12 5 13 -0.5723 0.1387
12 5 14 -2.8789 0.9458
12 5 15 -1.3393 0.6072
12 5 16 -3.4850 -0.4283
12 5 17 2.4038 0.8028
12 5 18 1.6938 0.3047
12 5 19 -0.2429 -0.4545
12 5 20 -2.8999 -0.5054
12 6 0 0.6846 2.8142
12 6 1 -3.8191 -0.0625
12 6 2 5.3155 -1.1642
12 6 3 0.4058 0.5615
12 6 4 8.7345 -0.1515
12 6 5 -2.5210 -0.3614
12 6 6 1.7381 -1.1539
12 6 7 3.5721 -1.2974
12 6 8 1.9137 -0.3715
12 6 9 -2.6806 -0.2477
12 6 10 -1.3019 0.9324
12 6 11 1.9527 0.0241
12 6 12 1.9680 0.4633
12 6 13 -6.2330 -0.7555
12 6 14 -1.2879 -0.6269
12 6 15 4.0864 -0.7266
12 6 16 4.6319 -1.3709
12 6 17 0.1505 -0.5491
12 6 18 0.3952 -0.6807
12 6 19 1.3901 0.3948
12 7 0 -0.7860 -0.5102
12 7 1 7.2959 1.3095
12 7 2 -0.8642 1.2569
12 7 3 -4.4840 0.0147
12 7 4 4.6607 0.1308
12 7 5 2.8579 -0.4489
12 7 6 0.8402 -0.6285
12 7 7 -1.3499 0.3027
12 7 8 -1.9620 -0.0758
12 7 9 -1.4819 0.1722
12 7 10 1.8586 1.2175
12 7 11 0.1732 1.2639
12 7 12 5.2605 0.8402
12 7 13 -8.7265 0.1227
12 7 14 2.0143 -0.0419
12 7 15 -1.3249 -0.1018
12 7 16 2.1446 -0.9542
12 7 17 -3.1219 -0.1429
12 7 18 1.5161 0.9091
12 7 19 2.7961 -0.3488
12 8 0 -7.6930 -0.1771
12 8 1 2.0201 -1.1039
12 8 2 -0.7905 1.2108
12 8 3 -5.8962 -1.1346
12 8 4 8.9789 1.4121
12 8 5 -6.0448 -0.3533
12 8 6 -1.4820 0.7243
12 8 7 1.7296 -0.5301
12 8 8 0.2010 0.8596
12 8 9 -4.4417 -0.5918
12 8 10 -4.6201 -0.8466
12 8 11 -3.5063 -0.5070
12 8 12 0.5681 0.1981
12 8 13 -9.0376 -0.3156
12 8 14 -2.6482 1.6627
12 8 15 0.7531 0.1746
12 8 16 1.8462 1.3244
12 8 17 -2.4519 -0.5066
12 8 18 -5.4014 0.9353
12 8 19 1.5360 0.6313
12 9 0 4.7949 -2.1807
12 9 1 5.2655 1.6440
12 9 2 -0.8166 0.3079
12 9 3 1.8963 -1.2607
12 9 4 0.8084 0.0827
12 9 5 6.1164 0.9928
12 9 6 -0.1420 1.1016
12 9 7 3.2931 -0.4327
12 9 8 2.9596 0.6746
12 9 9 -0.2982 0.1708
12 9 10 0.2344 -0.8476
12 9 11 0.5559 0.6267
12 9 12 5.3247 -0.4459
12 9 13 2.8783 -0.8955
12 9 14 3.4684 0.5418
12 9 15 -1.7965 -0.0124
12 9 16 -0.3260 0.3432
12 9 17 4.4413 0.0953
12 9 18 2.3901 -0.2066
12 9 19 5.7689 0.2298
12 10 0 -3.7855 -0.9260
12 10 1 -0.9821 0.3838
12 10 2 0.7866 0.0114
12 10 3 -0.4439 -1.0044
12 10 4 -1.8433 0.0423
12 10 5 0.1326 -3.5766
12 10 6 -7.2639 -0.2285
12 10 7 9.8942 -2.3394
12 10 8 -4.2408 0.4467
12 10 9 1.1105 2.1888
12 10 10 -0.9593 -0.7771
12 10 11 2.6054 3.5317
12 10 12 -0.2912 0.4075
12 10 13 0.2386 -0.3790
12 10 14 -0.2518 0.0718
12 10 15 -1.4323 -2.4994
12 10 16 0.5983 -0.7025
12 10 17 4.1735 -2.5323
12 10 18 -1.8549 0.5010
12 11 0 -2.0870 -0.6373
12 11 1 0.3841 1.5427
12 11 2 -4.1026 1.3686
12 11 3 0.8385 -0.3341
12 11 4 -7.6337 -0.0007
12 11 5 0.4962 -0.3468
12 11 6 -8.0673 -0.1135
12 11 7 -0.6121 -0.4957
12 11 8 -1.5256 -0.1913
12 11 9 3.8995 1.3652
12 11 10 -1.1213 -0.8316
12 11 11 0.1050 1.8201
12 11 12 -2.8607 -0.3241
12 11 13 2.9917 0.8429
12 11 14 -2.0893 -0.1752
12 11 15 -3.2801 0.5448
12 11 16 -4.4813 0.0356
12 11 17 1.6141 -1.3291
12 11 18 -2.9601 0.1579
12 12 0 2.7488 1.6550
12 12 2 6.6761 0.5639
12 12 4 2.2868 4.0628
12 12 6 -1.1973 4.5983
12 12 8 0.1204 1.0864
12 12 10 -0.3814 -2.5009
12 12 12 -0.2774 -1.9561
12 12 14 -1.5628 1.6397
12 12 16 0.5461 3.7857
12 12 18 -1.4108 3.4952
13 0 0 13.6320 1.9788
13 0 1 5.1775 -5.7248
13 0 2 2.3836 2.9201
13 0 3 -11.7334 1.5008
13 0 4 2.5960 4.8143
13 0 5 2.5216 5.0988
13 0 6 7.4008 4.9738
13 0 7 -1.0023 2.6917
13 0 8 5.3520 3.5860
13 0 9 -3.6172 -2.4537
13 0 10 5.4514 3.0637
13 0 11 4.7750 -3.7336
13 0 12 1.2285 2.8384
13 0 13 2.0141 -0.4418
13 0 14 0.6677 3.5350
13 0 15 1.9771 3.2533
13 0 16 -0.8213 4.2800
13 0 17 -1.8048 3.6463
13 0 18 0.2936 3.2002
13 0 19 0.0325 -0.1154
13 0 20 0.9166 2.2673
13 1 0 5.9019 -1.1632
13 1 1 -7.5740 -0.5464
13 1 2 -3.0139 -0.5556
13 1 3 -5.8645 0.0979
13 1 4 -4.7746 -0.3357
13 1 5 -1.3645 -2.2968
13 1 6 -0.2435 0.6644
13 1 7 -7.5442 -1.7949
13 1 8 -2.6828 -0.8768
13 1 9 2.6137 -0.8129
13 1 10 -3.3380 -1.2844
13 1 11 -3.0325 -0.2927
13 1 12 -1.1431 -0.8681
13 1 13 0.1207 -0.9518
13 1 14 4.2037 0.1043
13 1 15 -4.8440 -1.9851
13 1 16 -1.3897 0.5225
13 1 17 -2.2830 -1.3240
13 1 18 -0.2754 -0.0334
13 1 19 -2.9063 -0.4106
13 1 20 2.0536 2.3192
13 2 0 10.7670 1.8369
13 2 1 1.8548 -1.7425
13 2 2 2.3693 -0.9714
13 2 3 0.8081 1.4803
13 2 4 -3.5801 -0.7922
13 2 5 6.2539 0.0466
13 2 6 -10.8445 -1.6035
13 2 7 -0.7911 0.2132
13 2 8 2.3432 -0.5325
13 2 9 -1.7278 0.5441
13 2 10 -3.2513 0.6479
13 2 11 -2.5081 0.7000
13 2 12 0.2273 0.4400
13 2 13 -0.1894 0.3241
13 2 14 -1.8395 -0.6369
13 2 15 2.4607 -0.2063
13 2 16 1.1795 -1.2271
13 2 17 1.1832 0.2887
13 2 18 -3.8483 -0.9131
13 2 19 6.4468 0.0866
13 2 20 2.8639 2.2543
13 3 0 -0.3590 -0.9275
13 3 1 -0.9663 0.0281
13 3 2 -6.1819 1.0205
13 3 3 0.1107 0.9771
13 3 4 0.1460 -0.1772
13 3 5 3.9891 0.8423
13 3 6 -9.9641 0.4927
13 3 7 -5.4342 0.4124
13 3 8 2.2412 0.6227
13 3 9 2.0969 0.8459
13 3 10 -0.6912 1.2319
13 3 11 0.1307 0.8759
13 3 12 2.2541 1.0503
13 3 13 1.5762 0.8226
13 3 14 4.4310 0.1763
13 3 15 2.6787 0.3807
13 3 16 -1.4855 0.1371
13 3 17 4.7538 0.7233
13 3 18 1.7295 0.3948
13 3 19 2.6379 0.1676
13 3 20 4.2097 1.6528
13 4 0 7.7045 0.4635
13 4 1 5.0918 -0.7879
13 4 2 -4.4367 0.3397
13 4 3 2.7940 -1.7501
13 4 4 -12.2236 -0.4328
13 4 5 1.3182 -0.5038
13 4 6 -1.0779 0.0070
13 4 7 6.0584 -0.9964
13 4 8 -6.4165 -0.7123
13 4 9 -1.4358 -1.3110
13 4 10 8.1719 -0.5807
13 4 11 -1.5601 -1.0503
13 4 12 -3.8567 -0.4164
13 4 13 -3.5232 -0.7553
13 4 14 -2.5969 -0.5535
13 4 15 -0.1284 -0.6311
13 4 16 -2.3050 -0.0358
13 4 17 -1.6869 -1.0809
13 4 18 0.7614 -0.2449
13 4 19 3.4934 -0.2993
13 5 0 -4.0291 -5.1916
13 5 1 -2.8532 -1.0445
13 5 2 -2.1072 1.9934
13 5 3 3.3660 -0.3784
13 5 4 -6.4851 1.2451
13 5 5 -0.4090 0.2905
13 5 6 -0.8601 0.7854
13 5 7 -2.0283 0.9807
13 5 8 -2.0374 0.7468
13 5 9 3.0502 -0.3105
13 5 10 -2.8602 -0.4260
13 5 11 -5.7131 -0.4292
13 5 12 -4.9642 -0.1082
13 5 13 0.2597 0.4798
13 5 14 -1.2288 0.9965
13 5 15 -5.4123 0.6933
13 5 16 -0.3712 1.0959
13 5 17 -0.7747 0.5135
13 5 18 0.3474 1.1670
13 5 19 3.4355 -0.4835
13 6 0 3.2488 1.4427
13 6 1 5.1180 0.1166
13 6 2 4.4603 0.0196
13 6 3 0.8065 -0.4972
13 6 4 -1.7551 0.8040
13 6 5 1.4777 0.1826
13 6 6 7.0771 0.4562
13 6 7 3.1771 -0.5147
13 6 8 -7.7767 0.2146
13 6 9 3.1486 0.9371
13 6 10 -0.3476 -0.4358
13 6 11 2.9377 1.2144
13 6 12 0.8697 -0.6538
13 6 13 3.3518 0.1162
13 6 14 0.4925 -0.0977
13 6 15 0.5517 -0.4783
13 6 16 2.4648 1.0521
13 6 17 0.9572 -0.5307
13 6 18 1.1563 0.0270
13 6 19 2.6184 0.5756
13 7 0 -0.8527 -2.3623
13 7 1 -2.8450 0.3576
13 7 2 -0.9417 0.8352
13 7 3 -6.0015 -0.7997
13 7 4 5.3810 -1.1749
13 7 5 -0.1189 -0.9304
13 7 6 0.6731 -0.1338
13 7 7 -2.0424 0.1438
13 7 8 -0.0370 -0.2698
13 7 9 1.5767 -0.2499
13 7 10 1.6158 -0.0266
13 7 11 -0.9540 0.1853
13 7 12 2.1834 -0.0210
13 7 13 -2.3852 0.3106
13 7 14 1.0855 -0.2465
13 7 15 -0.5580 -0.6411
13 7 16 0.3160 -0.1537
13 7 17 0.7839 -0.1490
13 7 18 -3.2624 -0.7549
13 7 19 -1.1335 -1.8295
13 8 0 6.6443 3.1578
13 8 1 0.1534 -1.0838
13 8 2 1.8017 -1.1333
13 8 3 -7.8696 0.4560
13 8 4 1.7708 1.0002
13 8 5 -5.7462 -0.4145
13 8 6 -0.7986 2.7111
13 8 7 -5.3889 0.1536
13 8 8 -6.9872 0.3191
13 8 9 -4.5254 -0.3102
13 8 10 1.9015 -2.0092
13 8 11 1.5886 -0.6081
13 8 12 -0.9791 -1.5531
13 8 13 -1.0216 -0.0491
13 8 14 -3.2081 1.3111
13 8 15 -0.1667 -0.2866
13 8 16 -3.1464 2.2515
13 8 17 -1.9714 0.1639
13 8 18 3.4158 0.3629
13 8 19 0.4423 0.2183
13 9 0 -9.6247 -0.6455
13 9 1 -0.1080 0.8626
13 9 2 -1.1626 -1.5740
13 9 3 0.6586 1.5799
13 9 4 9.7997 0.6749
13 9 5 -1.4567 0.5301
13 9 6 0.2902 2.1516
13 9 7 -2.0118 0.7531
13 9 8 2.5140 -0.0846
13 9 9 -3.2739 0.8513
13 9 10 6.1836 -1.0057
13 9 11 -0.7456 0.9230
13 9 12 2.0193 -1.7269
13 9 13 3.2117 0.8200
13 9 14 2.1278 0.5924
13 9 15 -3.4520 0.0239
13 9 16 3.8974 1.8223
13 9 17 1.0405 0.9512
13 9 18 -0.1763 0.0731
13 10 0 -2.1707 3.0750
13 10 1 -3.4138 -1.5721
13 10 2 0.7596 -1.3048
13 10 3 -0.9545 0.7493
13 10 4 -0.6320 -0.6020
13 10 5 -2.3202 -2.2864
13 10 6 6.1475 -1.1919
13 10 7 3.8067 -0.7958
13 10 8 -0.3489 -0.9996
13 10 9 -3.0563 -0.3192
13 10 10 -1.1786 0.3334
13 10 11 -2.1594 0.7581
13 10 12 0.6210 -0.0986
13 10 13 -0.1112 0.0931
13 10 14 4.7906 -0.6724
13 10 15 -1.8725 -1.9035
13 10 16 5.6610 -0.6690
13 10 17 -2.3455 0.1355
13 10 18 0.4762 0.2850
13 11 0 -0.5667 -0.9138
13 11 1 0.1796 0.8473
13 11 2 -4.4095 1.1412
13 11 3 0.9626 1.2643
13 11 4 1.2574 0.7173
13 11 5 -0.9175 1.8054
13 11 6 1.3061 1.0064
13 11 7 6.0309 1.8669
13 11 8 1.1430 0.3400
13 11 9 2.2434 -0.5366
13 11 10 -3.0148 0.4033
13 11 11 -1.1875 -0.9458
13 11 12 -1.7745 -0.0433
13 11 13 -3.7151 1.0119
13 11 14 0.7464 0.6945
13 11 15 1.1122 1.4232
13 11 16 0.0704 0.5413
13 11 17 -0.5868 0.5634
13 11 18 -0.7522 0.2454
13 12 0 6.4592 0.3607
13 12 1 -0.0947 -1.4482
13 12 2 1.5110 -0.9558
13 12 3 1.0007 1.1346
13 12 4 0.2201 0.2392
13 12 5 -2.1475 2.1927
13 12 6 -7.2871 0.4343
13 12 7 1.1958 1.6100
13 12 8 -1.5760 -0.3615
13 12 9 4.0797 -0.5673
13 12 10 -1.6529 -0.6226
13 12 11 3.2952 -1.0101
13 12 12 -1.2454 -1.0833
13 12 13 -3.3297 -0.1763
13 12 14 3.0403 0.3949
13 12 15 0.9926 0.4615
13 12 16 2.4371 -0.3623
13 12 17 -0.4680 3.0536
13 13 0 4.3697 -3.4839
13 13 2 0.5593 -1.7449
13 13 4 0.3215 -5.5893
13 13 6 -0.4566 -5.6791
13 13 8 -8.9029 -2.7312
13 13 10 7.3931 0.1625
13 13 12 -0.6982 -0.0557
13 13 14 0.0182 -2.6762
13 13 16 -3.1364 -4.8086
14 0 0 8.7851 3.1043
14 0 1 14.2051 2.6218
14 0 2 -10.7743 -1.7240
14 0 3 4.4053 4.6233
14 0 4 7.0009 4.8046
14 0 5 12.2904 5.5484
14 0 6 -0.0147 5.1229
14 0 7 9.0938 4.2862
14 0 8 3.8621 0.5492
14 0 9 5.7393 3.3540
14 0 10 2.8605 -4.0260
14 0 11 -6.7781 2.5205
14 0 12 6.2788 -2.7617
14 0 13 4.0880 3.1713
14 0 14 1.3933 1.9326
14 0 15 4.0510 4.3714
14 0 16 0.7671 4.5939
14 0 17 -1.5470 3.9489
14 0 18 2.9813 2.4156
14 0 19 6.9758 2.4804
14 1 0 -2.8683 -2.8276
14 1 1 3.1220 1.9902
14 1 2 1.4719 0.6126
14 1 3 -5.9950 -1.9904
14 1 4 -2.4522 -2.1216
14 1 5 -0.6756 1.0775
14 1 6 -6.6433 -2.6104
14 1 7 1.9950 0.4494
14 1 8 0.2421 -1.3551
14 1 9 -3.1818 -1.6363
14 1 10 -7.9891 -0.7145
14 1 11 0.4112 -2.6864
14 1 12 -3.1496 -0.5469
14 1 13 -0.6075 -0.7126
14 1 14 -0.3024 -1.8789
14 1 15 -1.5581 1.1027
14 1 16 -2.8167 -1.9792
14 1 17 -1.4526 0.2254
14 1 18 0.2834 -0.7460
14 1 19 1.6154 -0.1313
14 2 0 -2.8528 -0.1151
14 2 1 -4.1889 0.1694
14 2 2 -1.6816 0.4149
14 2 3 -1.9895 -1.4945
14 2 4 2.4008 0.4099
14 2 5 -5.2708 -1.1703
14 2 6 -4.2436 -0.0642
14 2 7 -1.9898 -0.4269
14 2 8 2.0329 0.7168
14 2 9 -2.9089 0.1990
14 2 10 0.2134 0.8114
14 2 11 9.0072 -0.0293
14 2 12 0.0036 0.5208
14 2 13 -3.3936 -0.5556
14 2 14 -4.9242 0.0081
14 2 15 3.9577 -0.3069
14 2 16 -1.2999 0.0545
14 2 17 -0.2328 -0.5264
14 2 18 -0.6377 0.1740
14 2 19 1.4155 0.3756
14 3 0 -0.9630 -1.1935
14 3 1 9.4001 -0.0856
14 3 2 3.8213 1.1556
14 3 3 3.0773 -0.1727
14 3 4 5.7621 0.9611
14 3 5 4.9534 -0.1010
14 3 6 1.9190 0.4950
14 3 7 -0.5903 0.1727
14 3 8 4.1248 0.5633
14 3 9 -2.3176 0.5093
14 3 10 0.8142 0.6308
14 3 11 -0.8676 0.4661
14 3 12 0.9394 0.3324
14 3 13 -0.9981 0.4776
14 3 14 0.8994 0.5890
14 3 15 1.2632 -0.0238
14 3 16 6.4803 0.6080
14 3 17 0.9565 -0.1116
14 3 18 0.0191 0.3917
14 3 19 -0.9526 -0.1853
14 4 0 -12.8421 3.7622
14 4 1 2.9449 -0.0645
14 4 2 0.9996 -2.2503
14 4 3 -4.2408 -0.6156
14 4 4 4.0099 -0.5445
14 4 5 3.4711 0.4418
14 4 6 -1.2854 -0.4602
14 4 7 -5.8235 0.1347
14 4 8 -1.6617 -1.6546
14 4 9 1.1818 -0.2256
14 4 10 -5.6594 -1.6248
14 4 11 -6.4337 0.2510
14 4 12 1.7503 -1.6380
14 4 13 2.1492 -0.1657
14 4 14 1.5660 -0.8253
14 4 15 -1.7735 -0.0277
14 4 16 2.2035 -0.3098
14 4 17 -1.4606 0.0010
14 4 18 -1.3724 -0.9267
14 4 19 3.8402 0.6294
14 5 0 -4.5284 -1.2851
14 5 1 -4.3781 -0.0256
14 5 2 -1.3502 0.1785
14 5 3 -2.4641 1.7985
14 5 4 -7.0798 -0.0048
14 5 5 -3.6958 0.4333
14 5 6 -2.7863 -0.3477
14 5 7 -1.6172 1.0629
14 5 8 -3.9484 0.0802
14 5 9 -5.4444 0.6098
14 5 10 -7.2566 -0.5882
14 5 11 -4.0261 -0.2970
14 5 12 1.3368 -0.5441
14 5 13 -0.1751 0.7112
14 5 14 -0.3793 -0.1632
14 5 15 -0.9025 0.3460
14 5 16 -0.3867 -0.1367
14 5 17 -1.3004 0.8138
14 5 18 -0.5125 0.2229
14 5 19 -1.4792 -0.1708
14 6 0 5.5733 4.1315
14 6 1 -1.8255 -0.6433
14 6 2 -2.1656 -0.7763
14 6 3 5.7621 0.5197
14 6 4 -3.5730 0.0007
14 6 5 6.0875 -0.1763
14 6 6 2.0041 -0.3938
14 6 7 7.1346 -0.6620
14 6 8 8.3742 -0.0534
14 6 9 1.7571 0.5625
14 6 10 3.0820 1.3336
14 6 11 1.7340 0.4298
14 6 12 -1.0506 0.6420
14 6 13 2.3764 0.0675
14 6 14 3.4676 -0.2770
14 6 15 3.0882 -0.2084
14 6 16 -2.0087 -0.1413
14 6 17 1.0848 -0.3330
14 6 18 1.8749 0.1373
14 6 19 5.8508 1.6693
14 7 0 1.9055 -2.7837
14 7 1 0.3635 0.1444
14 7 2 -1.5449 -0.6769
14 7 3 1.3427 -0.6496
14 7 4 -0.0980 -1.2103
14 7 5 1.9490 -1.4740
14 7 6 -3.4060 -1.6085
14 7 7 -1.0450 -0.5145
14 7 8 0.1824 -0.9220
14 7 9 -7.0886 -0.1701
14 7 10 1.7673 0.0717
14 7 11 2.4825 -0.4353
14 7 12 -0.3002 0.0937
14 7 13 0.3236 -0.0049
14 7 14 -0.6325 -0.9232
14 7 15 2.5793 -0.2600
14 7 16 1.9193 -1.0900
14 7 17 1.0505 -0.8215
14 7 18 -2.1086 -0.9120
14 8 0 0.7326 1.4092
14 8 1 -4.8039 -1.0632
14 8 2 -8.5710 -0.0640
14 8 3 1.7920 0.5163
14 8 4 -4.7571 1.0010
14 8 5 -1.3819 2.2712
14 8 6 -6.4716 0.4717
14 8 7 -2.0901 1.2357
14 8 8 3.0337 0.6200
14 8 9 3.6917 0.3744
14 8 10 6.5053 0.2518
14 8 11 5.6461 -0.4322
14 8 12 0.9745 0.2498
14 8 13 -0.8119 0.2879
14 8 14 -0.2272 -0.1266
14 8 15 -0.4761 1.0055
14 8 16 -2.5022 -0.0178
14 8 17 -2.4369 -0.0693
14 8 18 0.8876 0.4482
14 9 0 0.7287 -3.8856
14 9 1 2.4859 1.0452
14 9 2 0.0860 0.5798
14 9 3 1.1980 -0.2602
14 9 4 -3.9120 -1.0857
14 9 5 1.0685 0.6446
14 9 6 -5.1843 -2.3165
14 9 7 1.7612 -0.8164
14 9 8 -0.0619 -0.4939
14 9 9 0.9791 -0.3632
14 9 10 3.3477 0.6374
14 9 11 10.2245 -0.4999
14 9 12 1.0597 0.3975
14 9 13 1.2122 -0.1780
14 9 14 -4.6019 -1.2262
14 9 15 -1.7769 0.5557
14 9 16 -1.7360 -1.3062
14 9 17 1.6248 0.0092
14 9 18 0.2679 -1.0216
14 10 0 0.2406 0.4093
14 10 1 -1.7141 -0.4774
14 10 2 -2.5125 1.0796
14 10 3 0.2302 -0.7450
14 10 4 2.9338 -1.6346
14 10 5 -3.5952 -0.5275
14 10 6 2.9326 -3.1959
14 10 7 -1.0435 -1.0195
14 10 8 7.6832 -0.0386
14 10 9 1.8054 -0.7114
14 10 10 2.8308 2.2766
14 10 11 -1.9359 -0.5968
14 10 12 2.5496 2.1990
14 10 13 3.5671 -0.4495
14 10 14 0.6411 -1.4991
14 10 15 -7.1360 -0.2997
14 10 16 -2.1590 -1.8522
14 10 17 -3.2421 -0.8967
14 10 18 0.1340 -0.9798
14 11 0 -5.4837 -2.1763
14 11 1 -3.8294 0.8929
14 11 2 2.9367 1.3950
14 11 3 0.4403 -0.5495
14 11 4 -2.8979 0.2121
14 11 5 -1.0730 1.6714
14 11 6 -1.0596 0.6472
14 11 7 0.3327 0.8239
14 11 8 -0.1412 0.7511
14 11 9 -2.7747 0.7407
14 11 10 -3.9754 0.6035
14 11 11 -2.0236 -0.4459
14 11 12 0.0614 0.8133
14 11 13 3.0179 0.6210
14 11 14 -1.7108 0.6677
14 11 15 2.5337 1.0602
14 11 16 2.9216 0.4629
14 11 17 -0.7777 -0.2387
14 12 0 0.1195 2.3923
14 12 1 4.7857 -0.9672
14 12 2 0.0591 -1.9440
14 12 3 -1.7119 -0.9372
14 12 4 0.1201 -0.7009
14 12 5 -0.5128 -0.1653
14 12 6 2.4819 -0.3304
14 12 7 -5.3329 -0.5890
14 12 8 2.4216 -0.9391
14 12 9 3.8166 0.0365
14 12 10 -2.3701 -1.6026
14 12 11 -0.6339 -0.9206
14 12 12 2.3882 -1.2256
14 12 13 4.1306 -0.9423
14 12 14 -3.0364 -1.3358
14 12 15 -0.1894 -0.5660
14 12 16 2.6203 1.6002
14 12 17 2.6908 1.3061
14 13 0 0.5086 -0.4150
14 13 1 2.2195 0.6744
14 13 2 6.2624 -0.4327
14 13 3 -0.7354 -1.4387
14 13 4 2.3192 -0.3499
14 13 5 2.1463 -2.7608
14 13 6 -2.7489 -0.4014
14 13 7 -0.1089 -1.9777
14 13 8 4.0248 0.0268
14 13 9 0.1008 -0.0431
14 13 10 0.6009 0.7959
14 13 11 4.1653 0.3143
14 13 12 0.5644 0.8854
14 13 13 -0.7364 0.3127
14 13 14 0.5675 -0.3980
14 13 15 3.2912 -1.8185
14 13 16 2.3298 -0.2696
14 14 0 -7.4920 3.4839
14 14 2 -2.1659 1.8054
14 14 4 0.5469 5.5905
14 14 6 0.3968 5.4575
14 14 8 -3.7571 3.0574
14 14 10 -4.0101 0.8086
14 14 12 1.9913 0.9371
14 14 14 2.6545 3.5151
15 0 0 8.7740 2.4785
15 0 1 3.2013 -4.4711
15 0 2 2.1916 2.4312
15 0 3 -0.6001 0.5918
15 0 4 -2.7699 5.1384
15 0 5 -0.8495 4.3082
15 0 6 1.1273 5.2605
15 0 7 -1.9871 2.3793
15 0 8 1.6303 3.7436
15 0 9 -0.4167 -2.7364
15 0 10 1.6821 2.4181
15 0 11 0.7541 -4.2097
15 0 12 3.2198 2.3099
15 0 13 0.4063 -0.3111
15 0 14 2.7068 3.7848
15 0 15 7.2159 3.0158
15 0 16 -2.3922 4.1868
15 0 17 1.5305 2.9105
15 0 18 1.3194 2.6535
15 0 19 -3.6804 -1.5240
15 1 0 0.4464 -0.6767
15 1 1 -3.7920 -0.1799
15 1 2 5.4078 -0.7101
15 1 3 -1.2749 -0.5576
15 1 4 -2.3657 -0.8491
15 1 5 -3.4968 -1.5637
15 1 6 3.4692 0.3932
15 1 7 1.1874 -0.7420
15 1 8 -0.3357 -0.6908
15 1 9 -1.7914 -0.7063
15 1 10 8.1484 -1.1881
15 1 11 0.8593 -0.3591
15 1 12 3.8873 -0.8661
15 1 13 -5.2439 -0.7047
15 1 14 -1.9093 0.3116
15 1 15 -1.7879 -0.9897
15 1 16 2.8308 -0.1025
15 1 17 2.0389 -1.0532
15 1 18 -2.3301 -0.7848
15 1 19 -2.9173 -1.6008
15 2 0 -5.1954 1.5586
15 2 1 0.0192 -0.2091
15 2 2 -6.8399 -1.4445
15 2 3 -3.2254 1.5004
15 2 4 4.9465 -0.6992
15 2 5 -2.6106 -0.8527
15 2 6 -1.7143 -0.8669
15 2 7 0.0242 -0.1196
15 2 8 0.7159 -0.4012
15 2 9 -0.0700 1.3091
15 2 10 0.3615 -0.1454
15 2 11 3.4570 1.9036
15 2 12 -10.6527 -0.2915
15 2 13 -3.6006 0.5770
15 2 14 1.1256 -0.3371
15 2 15 -2.3329 -0.4600
15 2 16 -2.7094 -0.8650
15 2 17 -2.2953 -0.2663
15 2 18 2.3231 -0.7207
15 2 19 -0.8310 -0.7593
15 3 0 -25.1337 -0.8254
15 3 1 5.7629 0.8446
15 3 2 -1.6628 0.1671
15 3 3 4.8825 1.0266
15 3 4 4.5614 -0.3968
15 3 5 -2.9742 0.2888
15 3 6 0.7823 -0.4294
15 3 7 0.7149 -0.0486
15 3 8 4.6822 -0.1235
15 3 9 -2.3191 0.7918
15 3 10 -1.0837 0.0281
15 3 11 11.5123 0.6011
15 3 12 -5.1604 0.4828
15 3 13 0.5741 0.4945
15 3 14 1.5479 -0.1378
15 3 15 3.4615 0.2224
15 3 16 -2.9092 -0.2031
15 3 17 0.4943 0.1811
15 3 18 2.0257 -0.0846
15 3 19 -0.4186 0.4086
15 4 0 0.0465 0.6054
15 4 1 -3.0349 0.2989
15 4 2 -2.4512 -0.1613
15 4 3 -0.3129 -0.4568
15 4 4 2.4418 -0.5362
15 4 5 -6.6821 0.8522
15 4 6 -2.4991 -0.1642
15 4 7 0.3968 -0.0887
15 4 8 -2.8752 0.1586
15 4 9 -0.9056 -1.2723
15 4 10 -0.7557 1.0131
15 4 11 0.2378 -1.2915
15 4 12 -4.2407 0.9063
15 4 13 0.2256 -0.8256
15 4 14 2.1261 0.0488
15 4 15 4.7006 0.6366
15 4 16 0.9189 -0.6909
15 4 17 -2.9477 0.5142
15 4 18 2.0922 -0.0550
15 4 19 -2.0500 0.1665
15 5 0 1.8771 -4.2071
15 5 1 -0.5723 0.7331
15 5 2 2.8069 1.0967
15 5 3 -0.7426 -0.2731
15 5 4 -1.0302 0.7921
15 5 5 -2.0201 -0.4330
15 5 6 -3.6377 0.7016
15 5 7 2.5633 0.2001
15 5 8 -2.9012 1.5027
15 5 9 -1.8105 -0.7887
15 5 10 0.2124 0.4830
15 5 11 -1.8750 -0.9258
15 5 12 1.4440 0.6704
15 5 13 -2.0611 -0.5792
15 5 14 -3.0092 0.8265
15 5 15 -3.0833 -0.1201
15 5 16 2.2599 0.3176
15 5 17 -1.7530 -0.2596
15 5 18 -0.9975 0.3330
15 6 0 -0.0959 1.3421
15 6 1 4.0250 0.5926
15 6 2 -3.0439 -0.1685
15 6 3 2.7455 -0.4922
15 6 4 5.4539 -0.3169
15 6 5 6.6331 0.3911
15 6 6 -0.0564 -0.3610
15 6 7 -5.1903 -0.3350
15 6 8 -1.2599 0.0506
15 6 9 -0.9932 0.0405
15 6 10 2.6302 0.3885
15 6 11 -2.3835 0.9044
15 6 12 3.5337 0.3815
15 6 13 5.3279 -0.5218
15 6 14 -0.2178 -0.0701
15 6 15 0.6595 0.3583
15 6 16 -3.8646 -0.2072
15 6 17 -0.0812 -0.1199
15 6 18 -1.3915 -0.0548
15 7 0 -2.3484 -1.7125
15 7 1 -1.2907 1.4204
15 7 2 -0.4707 0.1360
15 7 3 2.2967 -0.0046
15 7 4 -0.6493 -1.2808
15 7 5 1.2116 0.8489
15 7 6 -1.7557 -1.2937
15 7 7 -0.9933 0.3332
15 7 8 1.2303 -0.6006
15 7 9 -2.7499 -0.5469
15 7 10 1.7358 -0.3995
15 7 11 -2.1971 -0.4346
15 7 12 0.5446 0.2866
15 7 13 2.2234 -0.0632
15 7 14 -1.1425 -0.4262
15 7 15 1.3140 0.6168
15 7 16 -4.5134 -2.0362
15 7 17 3.0184 1.0108
15 7 18 -5.1644 -0.6615
15 8 0 0.9854 3.0067
15 8 1 -2.0973 -0.2590
15 8 2 2.9748 0.7181
15 8 3 -1.8353 0.6554
15 8 4 4.9426 1.2004
15 8 5 2.7359 1.3029
15 8 6 -2.8865 1.5282
15 8 7 -12.3242 1.0270
15 8 8 4.9249 0.9175
15 8 9 -0.2152 0.1122
15 8 10 -1.8193 0.7074
15 8 11 2.1661 -0.2522
15 8 12 1.1713 0.9149
15 8 13 0.5877 -0.2607
15 8 14 -1.3314 1.1779
15 8 15 2.0799 0.9073
15 8 16 -2.4110 1.2785
15 8 17 1.9777 1.1899
15 8 18 5.4628 1.6524
15 9 0 -0.4139 0.1227
15 9 1 -0.9941 0.4511
15 9 2 -0.4730 0.3234
15 9 3 3.8856 -0.8268
15 9 4 -1.8673 -0.0971
15 9 5 5.8810 -1.0706
15 9 6 -8.0921 -0.6812
15 9 7 1.2062 -0.6078
15 9 8 2.3202 -0.6890
15 9 9 0.9555 -0.4237
15 9 10 3.6622 -0.0501
15 9 11 1.8599 -0.7372
15 9 12 -0.9460 -0.4313
15 9 13 -2.2646 -0.5036
15 9 14 -0.2316 -0.3043
15 9 15 -8.0866 -0.4033
15 9 16 1.6630 -0.8604
15 9 17 5.7073 -0.2882
15 10 0 1.5632 2.7893
15 10 1 -2.9939 -0.7802
15 10 2 -2.4991 0.0290
15 10 3 0.6164 -0.0790
15 10 4 -0.2225 0.3350
15 10 5 7.5704 -0.5272
15 10 6 -4.3775 0.7557
15 10 7 -1.6928 1.0208
15 10 8 -0.7975 -0.0279
15 10 9 0.9315 0.0269
15 10 10 -4.6954 0.2624
15 10 11 0.7798 1.0274
15 10 12 -0.7646 0.1124
15 10 13 3.8895 0.3495
15 10 14 -4.4580 0.0820
15 10 15 0.3565 0.5377
15 10 16 -9.2524 -0.4235
15 10 17 4.7022 -0.7228
15 11 0 -2.0350 -0.2037
15 11 1 2.0175 0.8018
15 11 2 -4.2001 -0.0549
15 11 3 1.2443 0.2361
15 11 4 -2.4534 1.4758
15 11 5 -1.8450 0.1706
15 11 6 -2.4275 1.9927
15 11 7 3.9724 0.8245
15 11 8 7.8302 0.4654
15 11 9 -2.5470 0.3483
15 11 10 -2.2714 -1.4685
15 11 11 -1.5746 0.3692
15 11 12 -0.6262 -0.9393
15 11 13 2.5852 0.2681
15 11 14 -0.3359 1.6813
15 11 15 1.0735 0.3798
15 11 16 -1.9524 0.9082
15 11 17 -1.7742 -0.9745
15 12 0 0.7050 0.6344
15 12 1 2.1367 -0.3321
15 12 2 -0.6163 -0.5812
15 12 3 -0.4742 0.5398
15 12 4 1.2350 0.0957
15 12 5 -2.7429 0.2191
15 12 6 2.4205 -0.0585
15 12 7 1.1877 -0.1372
15 12 8 5.2180 0.1646
15 12 9 -0.5426 -1.1989
15 12 10 1.1919 -0.2633
15 12 11 -2.6124 -0.7628
15 12 12 -3.3770 -0.3881
15 12 13 2.7273 -1.4988
15 12 14 -4.2798 0.3597
15 12 15 2.1990 1.0372
15 12 16 -1.4158 -0.0630
15 13 0 4.2817 -2.5219
15 13 1 -5.7604 0.1892
15 13 2 6.2963 1.4060
15 13 3 -6.4674 -0.5640
15 13 4 -2.2518 0.5999
15 13 5 -5.4694 -1.3241
15 13 6 1.0322 0.3188
15 13 7 -8.7859 -0.7360
15 13 8 1.3684 0.9104
15 13 9 -3.4794 -0.3061
15 13 10 1.9362 1.2058
15 13 11 -0.4711 1.0159
15 13 12 -2.9520 1.3869
15 13 13 -1.7106 -0.0593
15 13 14 -2.7014 -0.1181
15 13 15 1.6561 -0.3266
15 14 0 0.4457 -0.0940
15 14 1 6.7052 0.0264
15 14 2 1.1715 1.4256
15 14 3 2.9365 1.0400
15 14 4 -3.0800 0.2441
15 14 5 -0.6111 2.3647
15 14 6 0.5726 -0.0730
15 14 7 0.0073 1.6988
15 14 8 -0.1153 0.6039
15 14 9 2.6809 0.4011
15 14 10 -1.3601 0.3290
15 14 11 -0.8321 -0.1918
15 14 12 -4.9444 0.4939
15 14 13 5.8816 0.5492
15 14 14 3.5395 -0.2162
15 14 15 0.3712 2.6704
15 15 0 -6.5063 -1.9088
15 15 2 10.6923 -1.3651
15 15 4 -3.6723 -3.8990
15 15 6 1.0140 -3.7383
15 15 8 5.5640 -1.8345
15 15 10 -1.6458 -0.2379
15 15 12 10.5649 -0.5995
15 15 14 2.0314 -2.4475
16 0 0 6.5378 -0.0646
16 0 1 0.0483 -0.1275
16 0 2 1.2387 -2.7249
16 0 3 0.4531 2.7860
16 0 4 1.0143 1.3091
16 0 5 -3.9092 4.0411
16 0 6 0.6362 2.3012
16 0 7 -9.5396 2.7461
16 0 8 8.0847 -1.4631
16 0 9 0.5859 1.2188
16 0 10 -1.1045 -5.0347
16 0 11 1.7487 0.5100
16 0 12 -0.1190 -3.2749
16 0 13 -2.9620 1.4521
16 0 14 5.0752 0.5445
16 0 15 -1.1910 2.8974
16 0 16 -0.5492 2.2597
16 0 17 -1.3326 2.5804
16 0 18 1.3231 -0.0048
16 1 0 16.1852 -1.7915
16 1 1 -4.3816 1.1549
16 1 2 3.0302 -0.3631
16 1 3 -5.6331 -0.9728
16 1 4 1.3146 -0.6836
16 1 5 -0.4755 1.1315
16 1 6 5.2989 0.2362
16 1 7 1.6060 0.2866
16 1 8 -0.2328 -0.2159
16 1 9 4.5656 -0.7349
16 1 10 15.4129 -0.8805
16 1 11 0.4708 -0.7040
16 1 12 5.3396 -0.7647
16 1 13 -4.1870 0.0648
16 1 14 1.4771 -0.4635
16 1 15 -1.0732 0.6101
16 1 16 2.1981 -0.2836
16 1 17 0.2077 -0.4718
16 1 18 -1.6202 -0.0952
16 2 0 -2.6836 -0.8185
16 2 1 -30.1971 -0.2634
16 2 2 1.5869 1.5327
16 2 3 -4.9333 -0.2825
16 2 4 -7.8795 0.4193
16 2 5 2.3406 -1.3421
16 2 6 -5.5010 -0.1231
16 2 7 1.9822 -0.9484
16 2 8 0.3643 1.1363
16 2 9 -2.6274 -0.5588
16 2 10 3.2893 1.9610
16 2 11 22.2117 -0.1567
16 2 12 -5.6760 1.4919
16 2 13 -9.0677 -0.6949
16 2 14 1.5008 0.2529
16 2 15 -1.7504 -1.2771
16 2 16 -4.6104 -0.0120
16 2 17 3.0783 -0.4653
16 2 18 4.6119 -0.1396
16 3 0 -16.4295 0.4158
16 3 1 2.7844 -0.2248
16 3 2 -18.2394 0.6324
16 3 3 6.4120 -0.4104
16 3 4 -6.8508 0.9337
16 3 5 7.7909 -0.5367
16 3 6 7.2203 0.2681
16 3 7 2.2433 -0.8458
16 3 8 2.5815 0.3300
16 3 9 -1.6295 -0.1061
16 3 10 20.3673 1.2515
16 3 11 2.2831 0.0608
16 3 12 -5.5640 0.7828
16 3 13 -0.1974 -0.0635
16 3 14 0.5055 0.4962
16 3 15 1.6660 -0.8959
16 3 16 1.2752 0.4207
16 3 17 5.1614 -0.4999
16 3 18 0.7173 0.8984
16 4 0 -10.7410 1.5937
16 4 1 -7.3009 -0.6289
16 4 2 -4.7418 -0.7798
16 4 3 -0.6361 -0.0889
16 4 4 -4.1463 -0.1863
16 4 5 0.6069 0.3757
16 4 6 -3.7378 0.3992
16 4 7 -4.8811 0.4776
16 4 8 -2.6504 -0.7051
16 4 9 -17.1986 -0.4759
16 4 10 -1.7894 -0.9724
16 4 11 -8.2669 -0.7486
16 4 12 -1.4492 -1.0563
16 4 13 -6.8620 0.1670
16 4 14 -0.3265 -0.1374
16 4 15 -0.2108 0.4023
16 4 16 -7.1997 0.4696
16 4 17 1.0734 0.2850
16 4 18 1.1862 -0.0436
16 5 0 0.8695 0.4849
16 5 1 5.1986 -0.3461
16 5 2 -0.7752 -0.5442
16 5 3 -1.6613 0.7474
16 5 4 0.2812 0.3488
16 5 5 -0.6575 -0.1854
16 5 6 0.3558 0.5735
16 5 7 0.3342 0.7229
16 5 8 -8.0286 -0.4158
16 5 9 -0.8807 0.7523
16 5 10 -1.4770 -1.0661
16 5 11 -0.8918 0.1784
16 5 12 -4.3893 -0.9160
16 5 13 0.7573 0.6453
16 5 14 -4.7295 -0.2656
16 5 15 -2.1085 0.0507
16 5 16 -1.0396 0.2395
16 5 17 -4.0708 1.0783
16 5 18 -0.5180 0.4237
16 6 0 1.9578 1.7203
16 6 1 1.0054 -1.3929
16 6 2 -2.0925 -0.0111
16 6 3 -3.1353 0.2794
16 6 4 -0.1228 -0.1199
16 6 5 -0.5421 -0.4646
16 6 6 -9.6180 0.3904
16 6 7 2.0582 -0.3774
16 6 8 -7.0618 -0.3599
16 6 9 -2.1327 0.3828
16 6 10 -2.0521 0.6507
16 6 11 0.5808 0.3081
16 6 12 -0.5522 0.2048
16 6 13 -3.4102 0.2227
16 6 14 -2.4064 0.1110
16 6 15 -2.4436 -0.2900
16 6 16 -5.3237 0.9199
16 6 17 0.8504 -0.4060
16 6 18 2.4579 -0.2538
16 7 0 -5.7207 -0.7559
16 7 1 -0.0680 -0.0130
16 7 2 0.3903 0.1428
16 7 3 -8.5485 -0.8471
16 7 4 5.6135 0.4988
16 7 5 -4.2344 -1.4623
16 7 6 1.2918 0.8922
16 7 7 -2.1544 -0.8469
16 7 8 -0.7200 0.2359
16 7 9 11.1368 -0.2560
16 7 10 1.5010 -0.0698
16 7 11 1.0287 0.0531
16 7 12 -1.5967 0.0773
16 7 13 8.8996 0.0718
16 7 14 -0.2468 0.1531
16 7 15 2.9874 -1.8682
16 7 16 1.3551 0.5276
16 7 17 -0.2408 -0.6330
16 8 0 2.0922 -0.8149
16 8 1 5.2976 -0.9039
16 8 2 -3.8454 0.5513
16 8 3 -1.8359 0.1962
16 8 4 3.9074 0.6081
16 8 5 6.5413 -0.9599
16 8 6 2.9694 1.1219
16 8 7 0.4789 -0.4615
16 8 8 5.2071 0.4424
16 8 9 1.9799 -0.3379
16 8 10 -0.9592 -0.6134
16 8 11 -1.0764 -0.0256
16 8 12 -1.6383 -0.7981
16 8 13 -0.8697 -0.2092
16 8 14 0.2600 0.8231
16 8 15 2.4369 -0.0951
16 8 16 -0.8859 1.0153
16 8 17 3.1816 0.1505
16 9 0 -2.8418 -2.4112
16 9 1 2.4328 0.2743
16 9 2 0.6034 -0.8967
16 9 3 -3.1590 0.3926
16 9 4 -4.0056 -0.1892
16 9 5 -0.6907 -0.0105
16 9 6 1.5224 -0.0925
16 9 7 -3.0572 -0.2241
16 9 8 2.4177 -0.1266
16 9 9 2.9230 0.6425
16 9 10 -0.5991 -1.0411
16 9 11 1.7510 0.4919
16 9 12 -1.4374 -0.7053
16 9 13 -2.4531 0.1915
16 9 14 -7.8378 0.0099
16 9 15 -1.3847 -0.6976
16 9 16 -11.6927 0.5514
16 9 17 0.4794 1.3319
16 10 0 1.4128 -1.2880
16 10 1 -2.8146 -0.5406
16 10 2 1.1670 -0.7140
16 10 3 0.3517 0.1995
16 10 4 -2.0995 -0.5861
16 10 5 -0.5525 0.0951
16 10 6 -7.4986 0.3648
16 10 7 -3.1040 0.0131
16 10 8 -2.8939 -0.0832
16 10 9 2.1932 0.0555
16 10 10 2.4834 -0.1620
16 10 11 -1.7237 0.6089
16 10 12 0.4874 0.0170
16 10 13 2.3381 -0.0672
16 10 14 0.7352 0.4172
16 10 15 -5.9248 -0.7324
16 10 16 -4.0670 0.0863
16 11 0 -9.0861 -0.9278
16 11 1 -2.7425 0.2229
16 11 2 1.5711 -0.0789
16 11 3 4.3357 -0.1129
16 11 4 1.8274 0.1753
16 11 5 -3.4423 -0.4905
16 11 6 0.6434 0.4562
16 11 7 -1.5062 -1.0533
16 11 8 -1.3248 0.4068
16 11 9 -2.9026 0.0187
16 11 10 0.8568 -0.1599
16 11 11 0.0889 -0.4235
16 11 12 3.6570 -0.1100
16 11 13 4.4821 0.0685
16 11 14 3.6551 -0.1605
16 11 15 -0.1473 -0.9776
16 11 16 -0.1875 -0.5163
16 12 0 1.0512 0.3408
16 12 1 -2.9569 -0.3288
16 12 2 -1.5340 -0.0072
16 12 3 4.3991 0.6587
16 12 4 -0.7976 -1.0495
16 12 5 6.1537 0.0696
16 12 6 0.1352 -1.3330
16 12 7 -2.4798 -0.2510
16 12 8 -1.4987 -0.3651
16 12 9 1.6422 0.1541
16 12 10 0.8687 0.8387
16 12 11 -0.2781 -0.0167
16 12 12 -1.8560 0.1074
16 12 13 7.1013 0.4776
16 12 14 0.8641 -0.4613
16 12 15 2.3798 -0.2460
16 13 0 2.0565 0.5965
16 13 1 2.8887 -0.6494
16 13 2 1.6731 0.1523
16 13 3 -0.2433 0.0517
16 13 4 8.1477 -0.1940
16 13 5 -0.0857 0.1074
16 13 6 -0.8794 -0.5874
16 13 7 2.7303 0.5326
16 13 8 1.1289 -0.9369
16 13 9 -0.4369 0.3313
16 13 10 1.2141 -0.1289
16 13 11 -0.4903 0.2755
16 13 12 0.0872 -0.5947
16 13 13 -3.3691 0.3141
16 13 14 -4.6346 -0.1415
16 13 15 0.5185 -1.2347
16 14 0 3.1831 1.3843
16 14 1 0.3394 -0.2174
16 14 2 -1.4744 -1.1686
16 14 3 5.9993 0.8675
16 14 4 0.5650 -0.7998
16 14 5 5.7771 2.1446
16 14 6 -0.1548 -0.7030
16 14 7 0.4377 1.7007
16 14 8 -1.7120 -0.9165
16 14 9 0.3113 0.2311
16 14 10 2.7769 -0.6445
16 14 11 0.5403 -0.3796
16 14 12 -7.9437 -0.0930
16 14 13 2.2972 1.0424
16 14 14 -0.7301 0.0220
16 15 0 -2.8905 0.7972
16 15 1 -8.4428 -0.1962
16 15 2 -0.8456 -1.0198
16 15 3 -3.4389 -0.6641
16 15 4 1.6085 -0.1502
16 15 5 -1.6298 -1.1940
16 15 6 5.2957 0.1108
16 15 7 2.3480 -0.8517
16 15 8 3.5250 -0.3522
16 15 9 -3.6209 -0.1517
16 15 10 1.1783 -0.1647
16 15 11 -6.5661 -0.4221
16 15 12 0.6576 -0.9186
16 15 13 -5.1044 -1.0017
16 15 14 0.3420 0.0984
16 16 0 -1.1086 0.1928
16 16 2 -5.3086 0.6677
16 16 4 -4.7456 1.3473
16 16 6 1.9625 1.1711
16 16 8 5.7786 0.3567
16 16 10 3.2930 -0.0724
16 16 12 -8.7615 0.3201
17 0 0 -4.5332 1.8999
17 0 1 -1.3909 -4.2205
17 0 2 -11.7677 -0.4913
17 0 3 -5.1250 -2.5071
17 0 4 -6.3353 2.7371
17 0 5 0.7047 -0.0374
17 0 6 -1.5764 2.7430
17 0 7 1.7819 -1.0620
17 0 8 -0.8798 0.9563
17 0 9 9.0260 -4.2908
17 0 10 -3.2830 -1.3661
17 0 11 -0.7396 -4.9852
17 0 12 -3.8084 -1.1315
17 0 13 0.8078 -2.6257
17 0 14 -2.1339 1.4404
17 0 15 -2.0966 -0.1524
17 0 16 3.9439 2.6035
17 0 17 0.8688 0.2709
17 1 0 -0.2196 1.9433
17 1 1 -10.0448 0.3355
17 1 2 2.3264 0.0605
17 1 3 4.5328 -0.4371
17 1 4 -7.1891 0.2390
17 1 5 6.7971 1.0453
17 1 6 1.5395 0.8486
17 1 7 -1.8903 0.4935
17 1 8 5.1814 0.3525
17 1 9 1.2259 0.2746
17 1 10 -3.6173 0.0229
17 1 11 -1.5448 -0.0902
17 1 12 1.5525 0.3312
17 1 13 -3.8726 -0.1956
17 1 14 -3.1615 0.7024
17 1 15 2.2564 0.1572
17 1 16 5.9598 0.3545
17 1 17 0.9301 1.0636
17 2 0 14.8852 -0.7596
17 2 1 -1.1313 0.6151
17 2 2 9.6453 0.5803
17 2 3 7.0362 1.3132
17 2 4 7.6344 -1.3986
17 2 5 15.4316 -0.8156
17 2 6 1.8475 -1.6053
17 2 7 9.5673 0.1450
17 2 8 -3.7399 -0.8399
17 2 9 -1.0048 1.4769
17 2 10 14.1648 -0.5654
17 2 11 -0.4548 1.9701
17 2 12 4.2173 -0.6668
17 2 13 -5.1510 0.7924
17 2 14 8.4063 -1.3386
17 2 15 -11.9985 0.0478
17 2 16 2.1426 -1.2801
17 2 17 6.1759 -0.7018
17 3 0 -14.8520 0.8115
17 3 1 -13.0998 -0.6169
17 3 2 -3.8047 -0.7735
17 3 3 -0.7896 -0.5135
17 3 4 -16.3925 -0.3084
17 3 5 -0.2241 0.4518
17 3 6 -13.6439 -0.8812
17 3 7 -10.7388 0.0816
17 3 8 -1.3604 -0.6527
17 3 9 -18.5969 1.0607
17 3 10 -0.0783 -0.9982
17 3 11 -5.1768 0.4688
17 3 12 -1.1152 -0.4518
17 3 13 -8.6545 0.3740
17 3 14 0.8765 -0.7348
17 3 15 -2.4905 0.8078
17 3 16 -10.3436 -0.4916
17 3 17 1.2666 0.1379
17 4 0 8.0488 -1.8355
17 4 1 -5.2636 0.0509
17 4 2 -1.3111 0.5676
17 4 3 0.1730 -0.5550
17 4 4 1.6366 0.2371
17 4 5 6.3865 0.2580
17 4 6 0.2565 1.0283
17 4 7 2.9216 0.0941
17 4 8 10.0317 0.5171
17 4 9 4.3008 -0.2584
17 4 10 6.9673 -0.9818
17 4 11 0.5035 -0.1665
17 4 12 3.5491 -0.3734
17 4 13 4.1822 -0.1286
17 4 14 -0.5195 0.4576
17 4 15 6.6192 0.6032
17 4 16 -1.1324 0.5076
17 4 17 5.0439 -0.8916
17 5 0 3.3833 -0.8940
17 5 1 0.8717 0.5372
17 5 2 -2.0264 0.7323
17 5 3 -0.7915 -0.6254
17 5 4 5.8514 0.9219
17 5 5 2.5621 -0.0305
17 5 6 5.7676 0.1215
17 5 7 0.6461 -0.5678
17 5 8 1.8249 0.4579
17 5 9 -4.7490 0.1773
17 5 10 3.3865 -0.1320
17 5 11 1.9546 0.3463
17 5 12 2.1120 0.0729
17 5 13 0.2565 -0.2112
17 5 14 0.6943 -0.1988
17 5 15 2.9551 -0.7280
17 5 16 3.5172 0.7405
17 5 17 -0.2866 -0.5153
17 6 0 -0.6248 -1.4447
17 6 1 -3.0108 -0.3951
17 6 2 -4.9579 0.6699
17 6 3 -9.8995 -0.0986
17 6 4 -0.6381 -0.7404
17 6 5 -3.7827 -0.4936
17 6 6 -6.2813 -1.3242
17 6 7 -3.7584 -0.7201
17 6 8 -4.0766 -0.1924
17 6 9 0.4124 0.0954
17 6 10 -1.7092 0.4464
17 6 11 -0.6613 0.5718
17 6 12 -1.2600 0.1014
17 6 13 -0.5622 -0.2677
17 6 14 -1.0834 0.0064
17 6 15 -4.4667 -0.2601
17 6 16 1.6156 -0.6228
17 6 17 -0.9282 -1.4476
17 7 0 -2.2684 1.0764
17 7 1 0.4213 1.1074
17 7 2 -1.5467 -1.3082
17 7 3 -6.4416 0.1375
17 7 4 -3.1769 0.2663
17 7 5 2.7920 0.7508
17 7 6 -1.6704 -0.0529
17 7 7 1.9389 0.4399
17 7 8 -10.2444 -0.0283
17 7 9 0.1867 0.8798
17 7 10 -3.6289 -0.6641
17 7 11 2.1134 1.3646
17 7 12 -3.1234 -0.6007
17 7 13 -5.7951 0.6861
17 7 14 -1.0738 -0.1830
17 7 15 2.4571 0.3987
17 7 16 -1.1499 0.1815
17 7 17 0.0007 0.5064
17 8 0 -6.7768 0.6053
17 8 1 4.7821 -0.2240
17 8 2 -3.2003 -0.3038
17 8 3 3.4948 0.5986
17 8 4 -4.2571 -0.5092
17 8 5 5.1644 0.6202
17 8 6 -0.6033 -0.9465
17 8 7 4.5472 0.7135
17 8 8 2.7969 -0.2996
17 8 9 10.2635 -0.0232
17 8 10 -3.9811 -0.4152
17 8 11 3.7355 -0.7719
17 8 12 -4.3317 -0.5980
17 8 13 4.7221 0.4987
17 8 14 -3.9916 -0.7548
17 8 15 2.9928 0.8036
17 8 16 3.5028 -0.6570
17 9 0 -5.3682 2.5183
17 9 1 1.5099 0.4811
17 9 2 -3.2095 -0.6560
17 9 3 -3.3819 -0.0498
17 9 4 -0.1093 0.4345
17 9 5 3.6199 0.2534
17 9 6 0.9570 0.2412
17 9 7 -3.1680 -0.2055
17 9 8 -2.8128 0.3029
17 9 9 2.6565 0.2005
17 9 10 0.3165 0.7518
17 9 11 6.1413 -0.1849
17 9 12 -1.7789 0.4924
17 9 13 1.0896 -0.0615
17 9 14 -2.7038 -0.6085
17 9 15 6.3468 0.1201
17 9 16 -0.7874 1.7301
17 10 0 -5.5732 0.6730
17 10 1 2.9850 0.0890
17 10 2 -6.5663 0.0258
17 10 3 2.2259 -0.5166
17 10 4 -9.4273 0.0290
17 10 5 -3.2889 -0.7317
17 10 6 0.4136 -0.1399
17 10 7 -2.2277 -0.5158
17 10 8 2.5257 -0.1996
17 10 9 -0.6824 -0.3010
17 10 10 10.0359 0.5220
17 10 11 0.1379 -0.4350
17 10 12 1.7263 0.5358
17 10 13 -2.1689 -0.0304
17 10 14 -4.0593 0.0751
17 10 15 -4.5883 -0.1496
17 10 16 -2.9868 0.5910
17 11 0 0.3062 1.8694
17 11 1 2.8410 0.4182
17 11 2 2.6760 0.0419
17 11 3 -7.3220 -0.0473
17 11 4 7.0856 0.3038
17 11 5 -1.1258 0.4139
17 11 6 5.5927 -0.4338
17 11 7 1.9461 0.2408
17 11 8 2.4785 0.0764
17 11 9 7.4163 0.7954
17 11 10 0.0944 0.5475
17 11 11 4.2995 0.3232
17 11 12 -2.1982 0.0809
17 11 13 -1.4194 0.1451
17 11 14 -0.2002 -0.6348
17 11 15 2.1989 0.0646
17 12 0 -9.8795 -0.7048
17 12 1 -3.6358 0.6042
17 12 2 -2.7055 0.0944
17 12 3 1.0309 0.4881
17 12 4 -13.9506 -0.7358
17 12 5 -1.3335 0.6427
17 12 6 -1.8732 -0.9712
17 12 7 4.3340 0.3698
17 12 8 -3.0136 -0.5688
17 12 9 0.4298 0.1304
17 12 10 -2.0549 -0.4111
17 12 11 -2.5991 0.3214
17 12 12 -2.2644 -0.1158
17 12 13 -3.2445 0.2276
17 12 14 0.6223 -0.5469
17 12 15 -2.8108 0.5357
17 13 0 -1.3790 -0.4060
17 13 1 1.6965 0.3382
17 13 2 -2.0208 0.2646
17 13 3 -4.4094 -0.9101
17 13 4 -1.3389 1.1932
17 13 5 -3.1202 -0.6084
17 13 6 -2.3304 1.5377
17 13 7 -4.4898 -0.5353
17 13 8 -4.8652 0.2492
17 13 9 0.0796 -0.1886
17 13 10 -2.5129 -0.6607
17 13 11 -0.5821 -0.5289
17 13 12 -4.3903 0.0170
17 13 13 -0.0556 -0.2582
17 13 14 1.7867 0.5907
17 14 0 3.9714 -1.6351
17 14 1 0.0553 0.5986
17 14 2 0.1303 0.2389
17 14 3 4.0310 -0.5952
17 14 4 0.4682 0.0410
17 14 5 1.0872 -0.7122
17 14 6 -0.7706 0.9001
17 14 7 -1.5572 -0.8653
17 14 8 -0.0333 0.9711
17 14 9 -2.2545 -0.1399
17 14 10 1.1948 0.5848
17 14 11 3.2255 0.7212
17 14 12 -1.8974 0.4673
17 14 13 -2.4595 0.1312
17 15 0 -7.0191 -0.0482
17 15 1 -3.0600 0.3097
17 15 2 -0.0600 0.4883
17 15 3 3.4328 -0.4581
17 15 4 4.8676 0.8177
17 15 5 1.6571 -2.2080
17 15 6 -1.5810 0.3799
17 15 7 4.5896 -1.6137
17 15 8 -3.8935 0.4920
17 15 9 -0.7172 0.8757
17 15 10 -0.4728 -0.4587
17 15 11 -2.6035 1.2886
17 15 12 4.4005 -0.3457
17 15 13 3.6644 0.0042
17 16 0 -1.2656 -0.8025
17 16 1 -23.5918 0.4924
17 16 2 0.2122 0.2406
17 16 3 -3.1965 -0.0350
17 16 4 3.3648 -0.0692
17 16 5 0.4728 0.0613
17 16 6 -1.5017 -0.2319
17 16 7 -1.0243 0.2260
17 16 8 -0.8955 -0.5555
17 16 9 -3.4621 0.3586
17 16 10 -0.4661 -0.9470
17 16 11 5.2682 0.4640
17 16 12 0.1311 -0.2099
17 17 0 -14.2455 1.0336
17 17 2 -8.5002 0.2824
17 17 4 -1.2733 1.5146
17 17 6 -0.0175 1.4232
17 17 8 -1.3495 1.2953
17 17 10 5.0980 0.1450
18 0 0 -2.9244 -3.5801
18 0 1 1.9081 -3.9844
18 0 2 -0.3354 -3.4727
18 0 3 6.9162 -0.1393
18 0 4 0.3788 -2.7037
18 0 5 -8.3817 2.6931
18 0 6 -3.1036 -1.9144
18 0 7 -4.5406 1.7033
18 0 8 0.8443 -3.4121
18 0 9 -3.0464 -1.9664
18 0 10 -3.0909 -4.6254
18 0 11 -16.4678 -3.5576
18 0 12 -0.2360 -3.7435
18 0 13 -0.1854 -0.9693
18 0 14 -5.0300 -2.0463
18 0 15 0.7425 1.9539
18 0 16 -1.6256 -1.1112
18 0 17 -0.3415 2.1537
18 1 0 -1.8193 -0.1295
18 1 1 2.6775 0.9597
18 1 2 3.4918 -0.8460
18 1 3 4.2851 0.7704
18 1 4 4.5123 1.6078
18 1 5 2.6130 1.0916
18 1 6 -5.3208 1.7977
18 1 7 3.7890 0.9656
18 1 8 3.8438 0.2485
18 1 9 -1.5970 0.8802
18 1 10 -2.9022 -0.1261
18 1 11 2.6793 1.1858
18 1 12 3.9892 -0.5699
18 1 13 1.2988 0.9649
18 1 14 2.3991 0.7958
18 1 15 -1.7368 0.5230
18 1 16 1.4904 1.2006
18 1 17 2.2972 1.4891
18 2 0 1.6250 -1.9062
18 2 1 5.2870 -0.0822
18 2 2 7.3396 1.6895
18 2 3 3.4758 0.2415
18 2 4 -6.0947 0.2712
18 2 5 5.8448 -1.4409
18 2 6 -2.7409 -0.7536
18 2 7 2.3064 -0.0676
18 2 8 0.7094 0.8029
18 2 9 4.0540 -0.7839
18 2 10 2.0795 2.7034
18 2 11 2.7427 -0.4399
18 2 12 4.3323 1.7994
18 2 13 -0.1983 -0.1144
18 2 14 3.2463 0.4474
18 2 15 1.3065 -0.7743
18 2 16 5.6687 -0.6685
18 2 17 2.0317 0.3504
18 3 0 -2.4870 2.5407
18 3 1 -4.3407 -0.0975
18 3 2 0.8749 -1.4670
18 3 3 -4.3728 -1.3831
18 3 4 -2.9067 0.2273
18 3 5 1.8131 -0.9334
18 3 6 -2.3752 -0.3878
18 3 7 -1.6692 -1.0175
18 3 8 -4.1119 -0.2555
18 3 9 -0.3392 -0.9904
18 3 10 -1.3999 0.0980
18 3 11 0.6504 -0.5249
18 3 12 -5.0517 -0.5463
18 3 13 -3.8732 -0.6727
18 3 14 1.9112 0.2990
18 3 15 -5.6380 -1.1851
18 3 16 -0.7198 0.5991
18 3 17 0.4820 0.5984
18 4 0 -2.7157 -0.4050
18 4 1 -0.0402 0.8249
18 4 2 5.8436 -0.0775
18 4 3 -2.5351 1.5693
18 4 4 -0.2306 -0.5060
18 4 5 -0.4905 1.4871
18 4 6 3.6656 0.9129
18 4 7 3.7876 1.7269
18 4 8 -1.8194 0.5082
18 4 9 -0.0072 -0.1942
18 4 10 -1.4882 0.0812
18 4 11 -5.8431 -0.1554
18 4 12 2.4107 0.1828
18 4 13 -0.7838 0.3020
18 4 14 -2.5626 1.0991
18 4 15 -0.2194 0.4757
18 4 16 -0.2295 -0.6267
18 4 17 -1.0729 1.2000
18 5 0 0.6805 2.8887
18 5 1 4.7822 0.4907
18 5 2 2.1947 -1.1132
18 5 3 4.1732 0.9359
18 5 4 0.9546 -0.3904
18 5 5 7.3912 0.2101
18 5 6 2.3291 -0.6289
18 5 7 5.6550 0.2371
18 5 8 4.4551 -0.3161
18 5 9 1.7470 0.1529
18 5 10 -1.4095 0.2987
18 5 11 1.8204 0.3134
18 5 12 1.1817 0.2180
18 5 13 0.9227 -0.0703
18 5 14 3.0729 -0.3726
18 5 15 5.4210 0.6405
18 5 16 0.3344 -0.5117
18 5 17 2.6798 1.5066
18 6 0 2.0400 -0.6505
18 6 1 1.9967 -0.3360
18 6 2 0.0498 0.2415
18 6 3 -2.1568 0.0747
18 6 4 -2.6455 -0.9177
18 6 5 1.4512 -0.5589
18 6 6 -6.1886 -1.0069
18 6 7 -2.7614 -0.4702
18 6 8 0.9487 -0.5712
18 6 9 -5.3790 -0.4817
18 6 10 1.2840 0.3497
18 6 11 -1.0965 -0.5247
18 6 12 -1.1026 0.0434
18 6 13 -2.4844 -0.1374
18 6 14 -0.8307 -0.3003
18 6 15 1.1277 0.4880
18 6 16 -0.4090 -2.5381
18 7 0 5.0707 1.7752
18 7 1 -4.0788 0.5712
18 7 2 -4.1727 0.2808
18 7 3 -1.9901 -0.2608
18 7 4 0.1586 0.3827
18 7 5 -0.3038 1.4354
18 7 6 1.1848 0.9684
18 7 7 -3.5174 0.9560
18 7 8 4.4074 0.4472
18 7 9 5.6286 -0.2849
18 7 10 -0.9093 0.7097
18 7 11 -0.5920 -0.4803
18 7 12 -6.9492 1.1105
18 7 13 1.3067 -0.1478
18 7 14 2.6690 0.4413
18 7 15 -1.4942 0.9363
18 7 16 0.9731 0.4396
18 8 0 9.8654 -2.9212
18 8 1 -4.8559 -0.1001
18 8 2 -5.3417 1.6789
18 8 3 -3.9851 -0.2489
18 8 4 -0.4682 -0.3532
18 8 5 -0.4104 -0.4975
18 8 6 1.5112 -0.2022
18 8 7 0.5797 0.2313
18 8 8 5.1137 0.1464
18 8 9 -6.2793 -0.9642
18 8 10 2.4205 0.0342
18 8 11 0.6784 -0.8382
18 8 12 -2.9572 0.4128
18 8 13 -3.4359 -0.6083
18 8 14 4.0796 0.1149
18 8 15 -0.8969 -0.5488
18 8 16 3.8806 -2.9077
18 9 0 2.5897 -0.4928
18 9 1 2.6393 -0.1739
18 9 2 -4.5562 0.4516
18 9 3 -3.5435 -0.5299
18 9 4 -10.9075 -0.0337
18 9 5 -3.2321 0.2866
18 9 6 -6.2787 -0.3193
18 9 7 0.4554 -0.1658
18 9 8 -5.5163 -0.4566
18 9 9 1.6380 0.3150
18 9 10 -7.2409 -0.1968
18 9 11 -0.8733 0.7323
18 9 12 -3.1319 -0.1233
18 9 13 -1.8215 -0.1410
18 9 14 -0.0287 -0.0733
18 9 15 1.2969 1.4737
18 10 0 -9.9462 -2.5319
18 10 1 3.8834 -0.2281
18 10 2 -2.0943 1.2036
18 10 3 3.6993 0.3413
18 10 4 -2.2353 -0.7794
18 10 5 -3.8788 0.9061
18 10 6 -1.6685 -0.6154
18 10 7 -1.0890 0.9640
18 10 8 -4.2106 -0.3272
18 10 9 -3.1711 0.0922
18 10 10 1.1523 -0.4527
18 10 11 2.0181 0.7109
18 10 12 -2.8570 -0.2034
18 10 13 0.2871 0.3437
18 10 14 -4.2239 0.2134
18 10 15 1.3145 1.1251
18 11 0 -6.1678 0.6798
18 11 1 0.0498 -0.3378
18 11 2 4.5041 0.3654
18 11 3 2.5554 -0.3061
18 11 4 6.0593 0.5855
18 11 5 4.9771 0.0230
18 11 6 4.8239 0.4921
18 11 7 -0.8667 -0.1218
18 11 8 -4.0781 0.4062
18 11 9 1.2755 -0.4740
18 11 10 3.3653 -0.5199
18 11 11 1.9411 -0.2185
18 11 12 0.7113 0.2197
18 11 13 2.0531 -0.3444
18 11 14 -3.9673 -0.0169
18 12 0 -5.0909 -1.3521
18 12 1 0.4430 -0.2616
18 12 2 1.8697 0.3864
18 12 3 4.1021 -0.0874
18 12 4 -2.2740 0.0257
18 12 5 4.0762 -0.7137
18 12 6 -0.5098 0.6316
18 12 7 -10.7021 -0.1881
18 12 8 0.0759 0.4683
18 12 9 -3.0179 -0.5029
18 12 10 -1.7182 -0.0949
18 12 11 2.9203 -0.3125
18 12 12 0.6334 -0.1198
18 12 13 -0.1849 -0.4109
18 12 14 -0.4175 -0.2163
18 13 0 -2.3002 2.1693
18 13 1 1.5811 -0.7673
18 13 2 -0.9057 -0.5188
18 13 3 -2.7798 -0.1477
18 13 4 -2.1320 1.1221
18 13 5 -2.8579 -0.2924
18 13 6 -0.4064 1.4114
18 13 7 -5.6486 0.2189
18 13 8 -1.7526 0.2559
18 13 9 1.0125 -0.1033
18 13 10 0.2006 -0.3855
18 13 11 1.6552 0.0610
18 13 12 0.6645 -0.5118
18 13 13 -3.7340 -0.5277
18 14 0 -0.5457 -0.1423
18 14 1 0.3708 0.0945
18 14 2 2.4966 -0.6692
18 14 3 -1.4390 0.7226
18 14 4 -0.7370 -1.0109
18 14 5 1.3327 0.2737
18 14 6 -0.4052 -1.0916
18 14 7 -2.8527 0.7192
18 14 8 -3.1624 -0.2793
18 14 9 1.9041 0.2559
18 14 10 -0.3479 0.3194
18 14 11 4.6580 -0.2530
18 14 12 -2.5943 0.2409
18 14 13 -2.7376 -0.6846
18 15 0 1.6791 2.1989
18 15 1 -9.6712 -0.2945
18 15 2 0.0743 -0.5377
18 15 3 1.8504 0.7963
18 15 4 -0.0495 -0.0711
18 15 5 -4.2839 0.0033
18 15 6 1.8646 -0.4441
18 15 7 0.2632 0.3030
18 15 8 -1.2780 0.0017
18 15 9 2.3449 -0.2628
18 15 10 0.2226 0.6179
18 15 11 11.6012 -0.0817
18 15 12 -1.4009 1.0980
18 16 0 6.2037 -0.9524
18 16 1 -4.9883 0.0759
18 16 2 5.1039 0.2979
18 16 3 0.1468 0.1300
18 16 4 -1.5293 0.4089
18 16 5 -1.8966 1.4331
18 16 6 -3.0812 0.7407
18 16 7 2.6019 0.9638
18 16 8 -1.2458 -0.0338
18 16 9 0.5881 -1.7824
18 16 10 2.1398 0.1129
18 16 11 -0.2902 -1.3679
18 17 0 3.0701 0.4688
18 17 1 -2.7305 -0.6618
18 17 2 0.9960 -0.3399
18 17 3 -0.4862 0.1044
18 17 4 2.0558 0.1351
18 17 5 -2.7390 0.8871
18 17 6 -0.4286 0.4476
18 17 7 1.7892 0.6248
18 17 8 0.3146 0.4894
18 17 9 2.6285 0.1647
18 17 10 2.2578 0.0686
18 18 0 -0.4990 -1.3289
18 18 2 -1.0419 -0.8319
18 18 4 -2.4461 -3.4584
18 18 6 0.6194 -3.4234
18 18 8 -0.8918 -2.1402
19 0 0 -3.0349 1.5509
19 0 1 -12.5059 -3.0387
19 0 2 -5.2953 -1.8626
19 0 3 -11.7732 -3.4309
19 0 4 -6.2756 2.2211
19 0 5 -8.1164 -2.7020
19 0 6 -3.8681 2.6867
19 0 7 -0.9137 -2.9448
19 0 8 1.9990 -0.4769
19 0 9 -2.8238 -4.5051
19 0 10 -2.5488 -4.0129
19 0 11 -3.8821 -4.7556
19 0 12 2.9353 -3.0918
19 0 13 -4.8717 -3.3633
19 0 14 -1.4806 0.4432
19 0 15 5.0763 -1.8637
19 0 16 -1.8504 2.5510
19 1 0 5.3390 2.5331
19 1 1 5.7468 0.9507
19 1 2 2.1817 0.5747
19 1 3 -1.4141 0.2174
19 1 4 1.9223 0.4930
19 1 5 1.4921 2.3532
19 1 6 4.3269 0.7616
19 1 7 6.3190 0.5547
19 1 8 2.5782 0.6795
19 1 9 1.0487 -0.2214
19 1 10 1.4375 0.6462
19 1 11 3.0894 -0.9239
19 1 12 -1.0478 0.9347
19 1 13 2.5912 0.3005
19 1 14 2.8143 0.3369
19 1 15 0.6533 1.0987
19 1 16 0.3454 0.6697
19 2 0 -7.4630 -1.9701
19 2 1 2.0851 1.4918
19 2 2 3.4045 1.2172
19 2 3 0.1315 1.4336
19 2 4 1.8025 -1.6793
19 2 5 -9.5982 -0.6278
19 2 6 5.3698 -0.7370
19 2 7 2.3407 -0.2787
19 2 8 1.4452 0.1118
19 2 9 -3.3135 1.6793
19 2 10 1.1830 0.5864
19 2 11 5.8518 1.5304
19 2 12 -0.1247 1.2859
19 2 13 -0.4458 0.9576
19 2 14 0.2245 -0.7276
19 2 15 0.6744 -0.4884
19 2 16 2.0721 -0.0536
19 3 0 2.1787 1.1156
19 3 1 1.7524 -1.0780
19 3 2 2.7964 -1.0201
19 3 3 -4.4253 -0.4229
19 3 4 2.5409 -0.7346
19 3 5 -4.0873 -0.0131
19 3 6 -4.9784 -0.8381
19 3 7 0.7618 -0.8636
19 3 8 -3.6018 -0.9855
19 3 9 -0.6415 -0.3067
19 3 10 -4.6120 -0.4082
19 3 11 6.4819 -0.8482
19 3 12 -2.9364 -0.3594
19 3 13 0.2048 -0.7708
19 3 14 -0.8017 -1.1827
19 3 15 -3.1124 0.2521
19 3 16 -6.0388 0.5926
19 4 0 -8.4909 -3.3065
19 4 1 -0.5832 0.0810
19 4 2 -3.2165 1.0008
19 4 3 -1.7662 -0.1171
19 4 4 3.7095 0.9316
19 4 5 1.3031 0.8049
19 4 6 -0.0246 1.5173
19 4 7 -0.0367 0.6522
19 4 8 -0.6128 0.6388
19 4 9 3.6683 -0.2781
19 4 10 -2.1178 -0.0631
19 4 11 2.8897 -0.7440
19 4 12 -1.0703 0.3794
19 4 13 -2.4929 0.3512
19 4 14 -4.2310 0.1610
19 4 15 -0.7354 0.0993
19 4 16 4.2024 1.1221
19 5 0 3.2677 0.1973
19 5 1 3.4449 -0.6799
19 5 2 -4.8734 0.4972
19 5 3 3.2087 -1.0918
19 5 4 2.8360 0.7417
19 5 5 0.8683 -0.6130
19 5 6 2.8309 -0.1093
19 5 7 2.7817 -0.9200
19 5 8 1.8630 0.0067
19 5 9 1.7054 -0.1876
19 5 10 0.9864 0.2590
19 5 11 -3.0645 -0.6578
19 5 12 2.3586 0.3352
19 5 13 1.0847 -0.2383
19 5 14 -2.0826 -0.2795
19 5 15 -0.3604 -0.5236
19 5 16 -1.0239 1.5557
19 6 0 -5.6185 -3.1209
19 6 1 -1.6777 -0.9831
19 6 2 -0.9187 0.7412
19 6 3 -1.8614 -0.1474
19 6 4 -2.3214 -0.3056
19 6 5 0.2159 -0.4563
19 6 6 0.1286 -0.5045
19 6 7 3.6880 0.0773
19 6 8 -3.3380 0.1533
19 6 9 -4.5703 -0.0066
19 6 10 -0.6236 0.8666
19 6 11 -2.9278 -0.7801
19 6 12 -5.0918 0.1247
19 6 13 -1.1150 0.0336
19 6 14 2.0368 0.2481
19 6 15 1.2689 -1.5307
19 6 16 2.7134 -0.5986
19 7 0 -5.0542 1.6276
19 7 1 0.8526 0.2259
19 7 2 -1.8241 -1.6820
19 7 3 -1.7383 0.2373
19 7 4 -1.3706 0.7431
19 7 5 1.3663 0.1980
19 7 6 0.2065 0.9779
19 7 7 -3.3091 0.1358
19 7 8 0.1900 0.0033
19 7 9 -2.6506 0.5109
19 7 10 -1.4453 -0.6350
19 7 11 -0.9094 0.4282
19 7 12 -0.0973 -0.6812
19 7 13 1.5880 0.0806
19 7 14 -2.2688 0.5023
19 7 15 -0.9969 -0.3298
19 8 0 0.2387 -0.6784
19 8 1 -2.4895 -0.8594
19 8 2 2.9778 -0.1858
19 8 3 1.6543 0.1600
19 8 4 1.4005 -0.0429
19 8 5 -2.2748 -0.7271
19 8 6 3.1433 0.0675
19 8 7 -4.7220 -0.0882
19 8 8 3.3603 -0.0368
19 8 9 0.0252 -0.3332
19 8 10 3.0368 0.0665
19 8 11 2.9324 -0.2640
19 8 12 0.5719 -0.4212
19 8 13 1.2036 0.1566
19 8 14 1.2293 -0.3385
19 8 15 -0.9288 -2.4059
19 9 0 6.5741 2.9900
19 9 1 -8.2854 -0.6388
19 9 2 8.0716 -1.2282
19 9 3 0.3525 0.1151
19 9 4 -0.0474 0.1803
19 9 5 -7.2523 -0.7147
19 9 6 -4.5302 0.0242
19 9 7 -5.6350 -0.9097
19 9 8 4.9460 -0.0726
19 9 9 0.3100 -0.1508
19 9 10 1.7561 0.2939
19 9 11 -2.8969 -0.0587
19 9 12 5.9556 0.2542
19 9 13 1.2266 -0.2918
19 9 14 3.4337 0.7149
19 9 15 -9.7215 -0.3971
19 10 0 1.6076 -0.4102
19 10 1 4.5306 0.5930
19 10 2 -0.8303 -0.1820
19 10 3 4.5086 0.9393
19 10 4 2.7401 0.6228
19 10 5 -0.6042 0.1436
19 10 6 -1.1989 0.7529
19 10 7 3.9855 0.3731
19 10 8 -2.8151 0.7804
19 10 9 -2.9498 0.2067
19 10 10 0.0535 0.7361
19 10 11 7.5024 -0.4849
19 10 12 -0.6507 0.1009
19 10 13 0.2437 -0.0186
19 10 14 1.0601 0.8160
19 11 0 3.3141 1.9771
19 11 1 -1.8484 -0.5832
19 11 2 -2.4058 -1.2691
19 11 3 -0.2145 -0.6573
19 11 4 -1.5914 -0.2320
19 11 5 0.7822 -0.9420
19 11 6 -3.1855 -0.3625
19 11 7 0.0519 -0.9132
19 11 8 -1.2186 -0.4540
19 11 9 2.9691 -0.6752
19 11 10 -1.3737 0.3492
19 11 11 -0.0523 -0.1928
19 11 12 -1.0250 0.0811
19 11 13 0.0107 0.0465
19 11 14 1.8342 1.4357
19 12 0 -1.5804 -1.5371
19 12 1 -0.2884 0.5754
19 12 2 1.3202 -0.2303
19 12 3 -1.4042 0.4979
19 12 4 -2.4054 -0.9634
19 12 5 -2.2351 0.9501
19 12 6 0.8068 -1.0019
19 12 7 0.9124 0.8534
19 12 8 -0.2900 -0.2803
19 12 9 -2.7156 0.3026
19 12 10 -0.8325 -0.0563
19 12 11 0.1138 -0.0393
19 12 12 -0.6679 -0.2421
19 12 13 0.2631 0.1411
19 13 0 6.2514 0.1937
19 13 1 -1.0624 -0.3030
19 13 2 2.3442 0.0416
19 13 3 5.1674 -0.1072
19 13 4 -8.4695 -0.0632
19 13 5 -3.0771 1.2787
19 13 6 -0.9728 -0.4711
19 13 7 -6.2694 0.4039
19 13 8 3.2407 0.1324
19 13 9 -3.6617 0.4394
19 13 10 -0.2873 0.5161
19 13 11 -2.6025 -0.0681
19 13 12 -2.5193 -0.3055
19 14 0 3.4744 -2.5246
19 14 1 -4.6692 0.4087
19 14 2 1.5567 1.0182
19 14 3 -1.1402 -0.2901
19 14 4 3.7828 -1.0865
19 14 5 -2.2457 0.1249
19 14 6 1.9447 -1.6706
19 14 7 -0.3634 -0.7754
19 14 8 -0.7600 -0.5154
19 14 9 -0.4350 0.2349
19 14 10 0.0634 0.2078
19 14 11 7.9749 0.1537
19 14 12 -0.0435 -1.6873
19 15 0 2.8676 0.3633
19 15 1 0.5309 -0.6149
19 15 2 1.0575 1.0327
19 15 3 2.7348 -0.3208
19 15 4 1.9334 -0.2355
19 15 5 0.2536 0.5880
19 15 6 2.2295 -0.5788
19 15 7 -5.3904 -0.2466
19 15 8 -0.1462 -0.3178
19 15 9 -1.3038 -0.1726
19 15 10 2.4278 0.2013
19 15 11 0.9577 0.7701
19 16 0 -2.9889 -1.7418
19 16 1 -9.1423 0.1290
19 16 2 0.7130 0.6616
19 16 3 2.0285 -0.1720
19 16 4 2.1457 -0.2797
19 16 5 -1.3782 0.5045
19 16 6 -1.3292 0.1078
19 16 7 -1.2511 0.3351
19 16 8 -0.0489 0.1051
19 16 9 0.3171 0.1061
19 16 10 -1.4596 -0.6164
19 17 0 2.0455 0.9967
19 17 1 -0.5215 -0.3908
19 17 2 2.1158 -1.2816
19 17 3 -1.4067 -0.1041
19 17 4 1.6499 -0.5517
19 17 5 0.2950 -0.1998
19 17 6 -0.2337 -0.2047
19 17 7 -3.3903 -0.1497
19 17 8 -0.2309 -0.4321
19 17 9 3.8494 0.8349
19 18 0 -2.9642 -0.1715
19 18 1 1.0997 0.8294
19 18 2 2.0299 0.3906
19 18 3 1.1132 -0.5596
19 18 4 -0.2317 0.0521
19 18 5 -1.3775 -2.0820
19 18 6 -2.2841 -0.2109
19 18 7 0.0537 -1.8202
19 18 8 6.5802 0.4342
19 19 0 4.3904 0.8698
19 19 2 -2.5731 0.6175
19 19 4 0.5188 3.8317
20 0 0 -0.6789 -2.7017
20 0 1 -2.9351 -3.9817
20 0 2 -4.1906 -2.7377
20 0 3 1.1366 0.8772
20 0 4 -1.5344 -2.3209
20 0 5 -2.5263 3.9099
20 0 6 2.0193 -1.5507
20 0 7 -0.4949 2.3407
20 0 8 -4.2983 -2.2205
20 0 9 -1.6082 -1.5248
20 0 10 -3.5792 -3.3955
20 0 11 1.1184 -3.1628
20 0 12 0.2455 -2.6329
20 0 13 0.3972 -0.7413
20 0 14 -0.6394 -1.5578
20 0 15 -0.8615 2.6083
20 1 0 2.7335 -0.4202
20 1 1 -1.4028 0.4248
20 1 2 -4.2736 -0.7858
20 1 3 3.3060 0.5532
20 1 4 -0.3376 1.1524
20 1 5 -5.9884 -0.0020
20 1 6 -1.1249 1.4869
20 1 7 4.3468 0.4990
20 1 8 6.1668 0.3334
20 1 9 2.3822 1.1174
20 1 10 0.2092 -0.9130
20 1 11 2.2972 1.2109
20 1 12 1.6404 -0.6120
20 1 13 1.5886 0.5160
20 1 14 0.1967 0.2764
20 1 15 -0.6518 0.2149
20 2 0 3.4515 -0.7736
20 2 1 -0.3791 -0.5447
20 2 2 0.2430 0.8727
20 2 3 -6.7060 -0.6221
20 2 4 -2.9881 0.3084
20 2 5 4.4990 -1.6414
20 2 6 0.3894 -0.7746
20 2 7 0.8117 -0.2641
20 2 8 4.7024 0.5218
20 2 9 0.3625 -0.0088
20 2 10 -0.9373 1.0473
20 2 11 1.8809 0.8964
20 2 12 3.1441 0.4434
20 2 13 -1.8382 -0.2481
20 2 14 -1.1406 0.3527
20 2 15 0.2599 0.0301
20 3 0 2.1521 2.4088
20 3 1 -6.8585 -0.6593
20 3 2 -2.0135 -0.7357
20 3 3 0.5199 -1.2675
20 3 4 2.8333 0.7542
20 3 5 -2.0704 -0.7743
20 3 6 0.0908 -0.3283
20 3 7 -4.9393 -0.6060
20 3 8 3.0003 -0.3175
20 3 9 -5.4196 -0.0395
20 3 10 0.4531 -0.8030
20 3 11 0.5831 0.5152
20 3 12 -1.9728 -0.6888
20 3 13 -0.3641 -0.3039
20 3 14 -2.1156 0.4742
20 3 15 1.6763 0.5280
20 4 0 0.9164 0.2928
20 4 1 -2.4942 0.6350
20 4 2 3.0184 0.3797
20 4 3 -2.6327 0.4659
20 4 4 1.8903 0.1233
20 4 5 -11.7256 0.9687
20 4 6 4.8253 0.7967
20 4 7 -2.3244 1.1046
20 4 8 -5.8801 0.2180
20 4 9 -4.5239 -0.0462
20 4 10 2.3813 -0.1908
20 4 11 0.0629 0.4773
20 4 12 1.3975 -0.4367
20 4 13 2.1966 0.1276
20 4 14 -0.0285 -0.0053
20 4 15 -2.5446 1.2011
20 5 0 -0.9413 2.5455
20 5 1 1.5152 0.0543
20 5 2 -2.2641 -1.0095
20 5 3 -1.8212 0.5714
20 5 4 3.8145 -0.1921
20 5 5 -3.2178 -0.7698
20 5 6 -2.3632 -0.4115
20 5 7 0.8170 -0.2752
20 5 8 5.0611 -0.4110
20 5 9 0.1692 0.5244
20 5 10 -0.1280 -1.0444
20 5 11 3.7881 1.1954
20 5 12 -0.2770 -0.3152
20 5 13 1.1612 0.0891
20 5 14 -2.1613 -0.0882
20 5 15 3.0341 0.3834
20 6 0 -5.8953 0.1911
20 6 1 3.1262 0.8627
20 6 2 -0.6030 0.1303
20 6 3 -2.0265 -0.0136
20 6 4 0.8194 -0.1790
20 6 5 3.6136 -0.5957
20 6 6 0.2082 -0.1297
20 6 7 1.2913 -0.3530
20 6 8 -4.4709 0.0553
20 6 9 5.1270 0.6958
20 6 10 -2.5988 -0.0792
20 6 11 -1.4272 0.5562
20 6 12 -0.4988 -0.2967
20 6 13 0.4418 0.2545
20 6 14 1.5622 -0.6313
20 6 15 -4.7562 -0.4088
20 7 0 -2.3728 1.9202
20 7 1 1.5444 0.3778
20 7 2 -5.0745 0.0655
20 7 3 0.5834 -0.2929
20 7 4 4.4888 0.3096
20 7 5 2.1060 0.3351
20 7 6 -4.2996 0.3283
20 7 7 -2.0806 -0.5147
20 7 8 -1.9886 0.2246
20 7 9 -1.6460 -0.2801
20 7 10 -2.0852 -0.2098
20 7 11 -1.0205 0.3944
20 7 12 0.4480 0.2304
20 7 13 5.9865 -0.1875
20 7 14 -2.1825 -0.2087
20 8 0 0.4441 -1.9766
20 8 1 2.5087 1.0715
20 8 2 1.0296 0.6504
20 8 3 -1.7543 -0.1430
20 8 4 -3.1562 -0.0090
20 8 5 -1.0414 -0.0479
20 8 6 0.2938 -0.0508
20 8 7 0.1270 -0.1270
20 8 8 -2.4069 0.1007
20 8 9 3.8211 0.5746
20 8 10 -0.3273 -0.3803
20 8 11 -1.4517 0.2418
20 8 12 2.7351 0.4765
20 8 13 5.9555 0.2649
20 8 14 -0.3391 -0.6309
20 9 0 0.3586 -0.1836
20 9 1 0.2126 0.5233
20 9 2 -4.7631 -0.0975
20 9 3 1.9799 -0.0579
20 9 4 -5.2622 -0.4545
20 9 5 -1.5505 0.5577
20 9 6 -2.9769 -0.4689
20 9 7 0.6565 -0.2982
20 9 8 5.3838 -0.3124
20 9 9 -4.9101 0.1728
20 9 10 -1.1652 0.1456
20 9 11 -2.5526 -0.3274
20 9 12 1.2291 -0.5212
20 9 13 2.5553 -0.1680
20 9 14 -1.4983 -0.5220
20 10 0 -8.0968 -1.8593
20 10 1 -3.8913 1.1118
20 10 2 5.0797 0.8231
20 10 3 -1.9956 0.1124
20 10 4 -0.5662 -0.1119
20 10 5 -0.7333 0.5353
20 10 6 3.5741 0.1147
20 10 7 3.5822 0.5829
20 10 8 1.0709 0.4281
20 10 9 4.0498 0.1501
20 10 10 -2.5803 -0.1085
20 10 11 -1.7383 -0.1243
20 10 12 7.8119 0.3614
20 10 13 -2.4801 0.6907
20 11 0 5.0106 0.6481
20 11 1 -17.6020 -0.2865
20 11 2 -2.9035 -0.1715
20 11 3 -2.3515 -0.6933
20 11 4 4.0017 -0.1859
20 11 5 -1.9568 -0.8375
20 11 6 2.2470 -0.2129
20 11 7 -1.7582 -0.4455
20 11 8 -2.1718 -0.3582
20 11 9 -4.2571 0.3644
20 11 10 1.4483 0.1155
20 11 11 7.0846 0.6463
20 11 12 1.0756 0.2191
20 11 13 3.4671 1.0022
20 12 0 2.3523 -0.6825
20 12 1 -4.3298 0.6081
20 12 2 1.7118 0.4516
20 12 3 -2.4575 0.5649
20 12 4 0.2301 0.5156
20 12 5 0.9601 0.4535
20 12 6 -4.7622 0.2221
20 12 7 0.6987 0.4557
20 12 8 3.8939 -0.2332
20 12 9 2.3329 -0.0810
20 12 10 -4.0317 -0.0223
20 12 11 1.6011 -0.7312
20 12 12 4.6330 -0.0318
20 13 0 -2.0519 1.8427
20 13 1 -0.8840 -0.2615
20 13 2 -1.9058 -0.2986
20 13 3 6.7512 0.1232
20 13 4 -3.9249 1.0545
20 13 5 2.3429 -0.4592
20 13 6 -1.9463 1.1465
20 13 7 2.3723 -0.3214
20 13 8 0.1897 0.1567
20 13 9 1.8478 -0.5617
20 13 10 -1.4311 0.4112
20 13 11 -0.3861 -0.6728
20 14 0 -1.6118 0.5487
20 14 1 3.7176 0.3285
20 14 2 4.4569 -0.6536
20 14 3 -0.9773 -0.0417
20 14 4 1.1849 -0.1239
20 14 5 -2.8579 -1.0806
20 14 6 1.0449 0.2515
20 14 7 0.5443 -0.2207
20 14 8 2.6540 0.3510
20 14 9 -0.5417 -0.4034
20 14 10 1.2214 0.2917
20 15 0 -1.9496 1.8645
20 15 1 -8.9008 -0.0139
20 15 2 1.5793 -0.5112
20 15 3 -0.5781 0.2848
20 15 4 -1.2125 0.7174
20 15 5 -2.4556 -0.7783
20 15 6 0.1017 0.5179
20 15 7 -4.1840 0.0410
20 15 8 3.7551 0.2174
20 15 9 -3.6908 0.0864
20 15 10 2.3944 1.2295
20 16 0 -1.9175 0.0184
20 16 1 2.5559 0.8846
20 16 2 -1.4896 -0.1503
20 16 3 1.4043 0.0710
20 16 4 -2.4767 1.1011
20 16 5 -3.6885 0.5127
20 16 6 -0.3065 1.0820
20 16 7 -0.7083 0.6213
20 16 8 2.4490 0.1772
20 16 9 -4.5240 -0.6167
20 17 0 -1.8991 0.3284
20 17 1 -6.8885 -0.8783
20 17 2 -2.1460 -0.6917
20 17 3 -2.4033 0.0848
20 17 4 0.9049 -0.3245
20 17 5 2.4658 -0.5305
20 17 6 -0.7063 -0.7777
20 17 7 0.0341 0.2023
20 18 0 -2.4375 -0.4618
20 18 1 3.1605 0.3472
20 18 2 -3.1046 1.0835
20 18 3 0.0822 -0.4381
20 18 4 0.7484 -0.3998
20 18 5 0.9713 0.1138
21 0 0 0.5411 3.0033
21 0 1 -0.4813 -1.2927
21 0 2 -3.5830 -0.0474
21 0 3 0.1091 -1.0798
21 0 4 -3.3696 4.1923
21 0 5 -2.9066 -0.5500
21 0 6 -3.6425 4.1769
21 0 7 -3.2003 -0.3250
21 0 8 -0.9036 1.0157
21 0 9 -1.6298 -1.5455
21 0 10 -3.0625 -1.4453
21 0 11 -0.5767 -1.3152
21 0 12 -2.5768 -1.0257
21 0 13 4.7484 -0.6768
21 0 14 0.9135 2.0794
21 1 0 -3.6037 0.5753
21 1 1 0.2561 0.6928
21 1 2 -0.0776 0.3165
21 1 3 -0.9055 -0.6819
21 1 4 -9.7078 -0.0562
21 1 5 -3.4879 1.1961
21 1 6 0.8681 0.4159
21 1 7 -3.4160 0.4136
21 1 8 0.7229 0.5532
21 1 9 0.5219 -0.6921
21 1 10 -1.0242 0.2176
21 1 11 0.3424 -0.9678
21 1 12 4.1194 0.1285
21 1 13 -2.0345 -0.3491
21 1 14 -0.3666 -0.1672
21 2 0 1.3003 -0.7292
21 2 1 3.3089 0.8916
21 2 2 7.3407 0.3021
21 2 3 14.0697 0.4624
21 2 4 2.6172 -1.4663
21 2 5 4.8384 -0.0021
21 2 6 1.6384 -1.0814
21 2 7 5.9616 -0.3633
21 2 8 6.5177 -0.5939
21 2 9 0.1462 0.6899
21 2 10 2.5818 0.3160
21 2 11 0.8909 0.4331
21 2 12 3.9881 0.1436
21 2 13 1.7835 0.1763
21 2 14 2.1157 0.1351
21 3 0 -5.3107 -0.2824
21 3 1 -1.4610 -0.1042
21 3 2 -2.5752 0.1405
21 3 3 -4.5682 1.0896
21 3 4 -10.9466 -0.5292
21 3 5 -3.1286 0.2649
21 3 6 -13.6406 -0.2023
21 3 7 -1.5217 -0.2813
21 3 8 -1.6789 -0.1627
21 3 9 -1.9588 0.5152
21 3 10 -1.6126 -0.0017
21 3 11 -0.6571 0.7384
21 3 12 2.2624 -0.0943
21 3 13 -5.8515 0.6890
21 3 14 -1.9035 0.3434
21 4 0 1.3732 -1.3913
21 4 1 3.9335 0.7417
21 4 2 -4.6606 0.2130
21 4 3 2.5254 -0.1424
21 4 4 -5.9262 0.1706
21 4 5 0.3638 0.8403
21 4 6 -10.2484 0.8429
21 4 7 -8.9196 0.1274
21 4 8 -3.1342 -0.0707
21 4 9 -1.0944 -0.4522
21 4 10 -3.4406 -0.2462
21 4 11 3.5646 -0.9691
21 4 12 0.6576 -0.4015
21 4 13 -0.5090 -0.3533
21 4 14 -0.0269 0.4234
21 5 0 6.8642 -1.5414
21 5 1 -1.0090 -1.1423
21 5 2 3.9398 0.3519
21 5 3 0.0064 0.1079
21 5 4 -2.8998 -0.4024
21 5 5 -8.1746 -0.1223
21 5 6 -1.6428 -0.0681
21 5 7 -6.4202 0.1469
21 5 8 2.0101 0.4410
21 5 9 1.4130 -0.2213
21 5 10 1.9307 0.4202
21 5 11 0.4834 0.1445
21 5 12 1.6560 0.1058
21 5 13 0.0872 -0.0269
21 5 14 0.1986 0.3435
21 6 0 1.9436 -1.4089
21 6 1 -0.7428 0.0584
21 6 2 -1.8502 0.3179
21 6 3 3.5793 -0.1301
21 6 4 7.4548 -0.4920
21 6 5 -0.2084 0.5038
21 6 6 7.6003 -0.4968
21 6 7 -1.2610 -0.0489
21 6 8 6.2007 -0.2299
21 6 9 -0.4451 -0.4400
21 6 10 -0.5133 0.0175
21 6 11 -0.4708 -0.1808
21 6 12 -1.9086 0.1564
21 6 13 -0.0767 0.5121
21 6 14 1.3473 -0.0507
21 7 0 -5.1411 -0.1164
21 7 1 2.2008 -0.3013
21 7 2 -0.3295 -0.0608
21 7 3 4.1431 0.6043
21 7 4 4.3668 -0.0973
21 7 5 12.3429 0.4737
21 7 6 -1.6382 0.0271
21 7 7 11.8578 0.7932
21 7 8 -4.6204 -0.2910
21 7 9 5.1172 0.1232
21 7 10 0.7301 -0.1605
21 7 11 0.0722 0.3041
21 7 12 1.1846 -0.0654
21 7 13 0.2151 -0.2300
21 7 14 -2.9994 0.7817
21 8 0 1.5742 0.2147
21 8 1 2.9839 -0.4929
21 8 2 -3.4525 -0.0250
21 8 3 0.1940 0.0270
21 8 4 0.3833 -0.2739
21 8 5 3.4271 0.0495
21 8 6 -1.4411 -0.1794
21 8 7 -0.0579 0.6243
21 8 8 -4.5964 -0.1904
21 8 9 3.9428 -0.3605
21 8 10 -3.8886 -0.3744
21 8 11 3.0116 0.1857
21 8 12 0.0989 -0.2829
21 8 13 7.9005 0.0855
21 9 0 1.2066 1.3062
21 9 1 -5.6060 -1.5594
21 9 2 3.9457 0.1109
21 9 3 3.4064 0.1100
21 9 4 -0.0886 0.3921
21 9 5 -1.8230 -0.0557
21 9 6 1.4223 0.0948
21 9 7 0.3483 0.2819
21 9 8 0.8883 0.0459
21 9 9 -1.0328 -0.0943
21 9 10 3.2938 -0.2595
21 9 11 -5.7486 -0.0764
21 9 12 1.5121 -0.5470
21 9 13 1.9357 -0.7756
21 10 0 -0.3230 0.7112
21 10 1 -5.2403 -0.2568
21 10 2 -0.7254 -0.1165
21 10 3 -5.5700 -0.4964
21 10 4 2.1838 0.0707
21 10 5 -1.9447 -0.4090
21 10 6 -1.4835 0.1889
21 10 7 -2.5494 0.1969
21 10 8 -1.6293 -0.1540
21 10 9 -7.0555 0.1619
21 10 10 0.9408 -0.7971
21 10 11 -4.6991 0.7040
21 10 12 1.6450 0.0189
21 11 0 0.8230 0.4518
21 11 1 1.6927 -0.7238
21 11 2 -4.3415 -0.0070
21 11 3 1.9902 0.3125
21 11 4 0.7865 0.0515
21 11 5 2.3468 -0.0991
21 11 6 2.3758 0.7286
21 11 7 0.4589 -0.1876
21 11 8 -5.8874 0.0921
21 11 9 1.7881 0.4292
21 11 10 -0.3726 -0.4103
21 11 11 1.5391 0.1989
21 11 12 -6.3441 0.1544
21 12 0 1.9083 -0.4191
21 12 1 -6.4182 0.3107
21 12 2 0.9811 0.2834
21 12 3 -9.1011 -0.1540
21 12 4 1.2587 -0.1599
21 12 5 0.6063 -0.3829
21 12 6 -2.0842 0.1961
21 12 7 -1.8925 -0.0760
21 12 8 -3.6575 -0.1237
21 12 9 0.2516 -0.0386
21 12 10 -1.6069 -0.7212
21 12 11 -8.8480 0.0809
21 13 0 0.5087 -0.9260
21 13 1 -0.0158 -0.3334
21 13 2 0.5648 0.5982
21 13 3 5.4913 0.0435
21 13 4 -0.9770 0.4524
21 13 5 -0.0430 -0.4211
21 13 6 1.6280 -0.0055
21 13 7 1.8783 -0.4240
21 13 8 0.4230 0.2605
21 13 9 1.1434 0.3299
21 13 10 -3.5277 -0.6388
21 14 0 -2.3659 -1.0515
21 14 1 1.5318 0.1576
21 14 2 1.3181 -0.3971
21 14 3 -1.0573 -0.5755
21 14 4 2.4640 -0.3064
21 14 5 -1.1868 0.3596
21 14 6 -0.3528 0.5039
21 14 7 -2.9797 0.0008
21 14 8 1.5748 -0.2525
21 14 9 2.6243 0.4926
21 15 0 1.1193 -0.9098
21 15 1 3.7371 -0.1804
21 15 2 0.1302 0.0512
21 15 3 -0.3415 -0.1533
21 15 4 0.1207 -0.4469
21 15 5 1.4646 -0.5004
21 15 6 1.4677 0.1784
21 15 7 1.3997 -0.1992
21 15 8 1.3199 -0.2365
21 16 0 -0.0983 -0.4987
21 16 1 -3.1961 0.4400
21 16 2 -1.6507 0.2334
21 16 3 -1.0935 -0.1025
21 16 4 -0.0001 0.3523
21 16 5 2.2730 0.2132
21 16 6 1.1194 0.6636
21 16 7 -0.6951 -0.2625
21 17 0 1.6109 -0.1709
21 17 1 4.0424 -0.5491
21 17 2 0.0015 0.0608
21 17 3 -0.0042 0.5118
21 17 4 -3.2419 -0.1334
21 17 5 2.4449 -0.7292
22 0 0 7.7467 -0.0034
22 0 1 2.0968 -1.0303
22 0 2 -0.1873 -0.5527
22 0 3 -4.9598 3.3296
22 0 4 -0.4340 0.4705
22 0 5 -6.8571 5.3588
22 0 6 4.4870 0.7932
22 0 7 1.9003 3.3597
22 0 8 3.6092 0.1502
22 0 9 -0.8807 0.1997
22 0 10 7.5826 -0.4088
22 0 11 -1.1339 -1.3006
22 0 12 -1.3265 -0.0163
22 0 13 -1.2925 0.9466
22 1 0 -6.5964 -2.1753
22 1 1 -1.1275 0.6106
22 1 2 3.8250 -0.3680
22 1 3 2.3621 0.0315
22 1 4 1.6322 -0.4897
22 1 5 1.6904 -0.5019
22 1 6 -1.6527 -0.0359
22 1 7 5.9146 0.0088
22 1 8 4.2483 -0.8554
22 1 9 -3.5619 -0.4269
22 1 10 -1.2542 -1.1375
22 1 11 -0.8021 -0.3247
22 1 12 2.5747 -0.6785
22 1 13 -0.9580 -0.3810
22 2 0 -12.7964 0.3196
22 2 1 12.5034 -0.4088
22 2 2 -6.9683 -0.2733
22 2 3 0.6866 -0.8856
22 2 4 -8.9214 0.3390
22 2 5 4.4525 -1.5330
22 2 6 -6.8509 -0.6990
22 2 7 0.4409 -0.6648
22 2 8 -0.9360 0.0939
22 2 9 8.6684 -0.1866
22 2 10 -3.4537 1.0859
22 2 11 4.9179 0.0890
22 2 12 0.9737 0.5253
22 2 13 -2.0546 0.7715
22 3 0 -14.3332 0.2299
22 3 1 3.9404 -0.4952
22 3 2 8.8657 0.3814
22 3 3 8.7207 0.3888
22 3 4 -0.1353 0.8192
22 3 5 11.1599 0.1191
22 3 6 -3.0426 0.2621
22 3 7 1.3424 0.5787
22 3 8 -5.8394 1.0666
22 3 9 0.7586 -0.3279
22 3 10 -7.4790 1.5250
22 3 11 2.7560 -0.8836
22 3 12 -4.5148 0.7907
22 3 13 -1.4848 -0.3651
22 4 0 -1.3958 1.8829
22 4 1 5.0000 0.5365
22 4 2 -2.5748 -1.4690
22 4 3 1.1206 -0.5396
22 4 4 -13.3804 -0.1183
22 4 5 -11.7401 0.2996
22 4 6 -5.1454 -0.4992
22 4 7 -9.4674 -0.0927
22 4 8 -2.5335 -0.7365
22 4 9 3.7274 -0.8412
22 4 10 0.0772 -0.3497
22 4 11 0.2510 -0.9984
22 4 12 0.7395 -0.2821
22 4 13 -3.9208 -0.0399
22 5 0 -1.9435 0.1518
22 5 1 -0.6651 -0.5820
22 5 2 -0.1936 -0.1230
22 5 3 1.2516 0.4759
22 5 4 -7.3811 0.1632
22 5 5 0.6115 -0.1724
22 5 6 -5.1689 -0.1064
22 5 7 -1.8129 0.6605
22 5 8 -2.5027 0.0867
22 5 9 0.8051 0.6267
22 5 10 2.7223 0.2496
22 5 11 0.4490 -0.3237
22 5 12 0.3799 0.0163
22 5 13 -1.1103 -0.5216
22 6 0 -1.0789 1.8654
22 6 1 1.1208 0.7158
22 6 2 -3.3191 -0.2603
22 6 3 7.1131 -0.6881
22 6 4 3.6618 0.4266
22 6 5 4.7803 -0.3514
22 6 6 -0.7003 -0.1590
22 6 7 -7.9391 -0.5152
22 6 8 3.9666 -0.0396
22 6 9 1.8519 0.1218
22 6 10 -1.5566 0.7114
22 6 11 0.3486 -0.1018
22 6 12 -1.8066 0.8994
22 6 13 -5.7304 0.3180
22 7 0 6.9609 -0.2840
22 7 1 -3.3022 -0.3464
22 7 2 4.8900 0.3800
22 7 3 7.2773 0.2096
22 7 4 8.9862 0.1665
22 7 5 0.1802 -0.3085
22 7 6 8.4952 0.0033
22 7 7 0.6627 -0.2394
22 7 8 -1.9165 0.3938
22 7 9 -3.0754 -0.1695
22 7 10 1.6347 0.3444
22 7 11 0.3414 -0.4606
22 7 12 -0.5636 -0.1753
22 8 0 1.0915 -0.0918
22 8 1 -5.2968 0.0870
22 8 2 2.8624 -0.4439
22 8 3 -1.5559 -0.9886
22 8 4 4.4825 0.1316
22 8 5 -1.1987 0.0750
22 8 6 -0.8512 0.2860
22 8 7 1.9839 -0.5428
22 8 8 -2.0133 0.0193
22 8 9 1.0720 -0.3255
22 8 10 1.7750 0.2431
22 8 11 0.9997 -0.5181
22 8 12 -1.3320 0.6141
22 9 0 2.1437 -1.5492
22 9 1 1.1531 0.2636
22 9 2 -0.8818 0.4924
22 9 3 1.5479 0.4813
22 9 4 -3.7721 0.1394
22 9 5 0.0730 0.0385
22 9 6 0.4486 -0.0452
22 9 7 3.8392 -0.2513
22 9 8 0.2704 0.3330
22 9 9 -0.7047 0.3168
22 9 10 1.1902 0.5739
22 9 11 0.9224 -0.0132
22 9 12 -0.1267 -1.0902
22 10 0 -4.9367 -0.4143
22 10 1 -1.5814 0.9129
22 10 2 14.3596 -0.3172
22 10 3 1.4004 -0.3498
22 10 4 1.1426 -0.3245
22 10 5 1.8709 0.3460
22 10 6 -1.2521 -0.5340
22 10 7 2.9517 -0.3436
22 10 8 -4.7134 -0.4862
22 10 9 3.1989 -0.5609
22 10 10 2.5567 0.4261
22 10 11 -2.7895 1.1125
22 11 0 -0.3613 -0.8916
22 11 1 6.1224 -0.4559
22 11 2 -1.6847 0.4065
22 11 3 5.4693 0.5463
22 11 4 -0.1750 -0.1218
22 11 5 -2.6468 0.4007
22 11 6 1.8639 -0.5637
22 11 7 -0.4046 -0.2707
22 11 8 -1.7229 0.8251
22 11 9 -1.1741 -0.0478
22 11 10 6.5733 0.5323
22 12 0 -4.3047 0.9715
22 12 1 -1.9553 0.1170
22 12 2 -0.8954 -0.5287
22 12 3 0.1575 -0.4873
22 12 4 2.6644 -0.2294
22 12 5 0.6184 0.6907
22 12 6 0.4483 -0.5490
22 12 7 -0.6345 -0.0954
22 12 8 -0.7944 -0.3337
22 12 9 0.7796 -0.2690
22 13 0 2.1111 -0.0749
22 13 1 -0.5397 -0.2714
22 13 2 -0.7338 0.1891
22 13 3 0.7183 0.5640
22 13 4 -0.4097 -0.3124
22 13 5 -0.6868 0.3374
22 13 6 -1.5517 -0.6221
22 13 7 1.9547 0.5455
22 13 8 -1.8973 0.3587
22 14 0 -2.5051 1.6237
22 14 1 -0.9794 -0.1705
22 14 2 0.7166 -0.3366
22 14 3 1.2472 -0.1058
22 14 4 0.7559 -0.6196
22 14 5 -3.2491 0.5807
22 14 6 1.0769 -0.4424
22 14 7 -1.5464 0.0836
22 14 8 -1.4472 0.6137
22 15 0 4.2208 0.0128
22 15 1 -2.0362 -0.3770
22 15 2 -0.3181 0.2054
22 15 3 0.3372 0.3466
22 15 4 1.3699 -0.1030
22 15 5 -3.4169 0.4793
22 15 6 -2.5520 -0.7442
22 16 0 2.9152 0.7790
22 16 1 2.3930 0.1475
22 16 2 0.9852 -0.0114
22 16 3 1.0505 -0.2324
22 16 4 2.4983 0.4319
22 16 5 -0.9048 0.3657
23 0 0 -4.7118 2.9023
23 0 1 4.9406 -0.7499
23 0 2 1.9898 1.2975
23 0 3 1.3385 0.8879
23 0 4 1.8827 4.6588
23 0 5 5.4432 1.4800
23 0 6 -1.8239 4.4197
23 0 7 4.9272 1.0791
23 0 8 1.8508 2.2347
23 0 9 -0.1797 0.2525
23 0 10 2.4967 0.3678
23 0 11 -4.3608 0.3152
23 1 0 -0.5302 -0.4644
23 1 1 5.8094 0.3953
23 1 2 -3.8847 0.3579
23 1 3 0.7543 -0.6503
23 1 4 -1.0970 -0.3666
23 1 5 0.3576 -0.5061
23 1 6 -1.0174 0.0923
23 1 7 -2.2722 -0.5484
23 1 8 -0.4217 -0.4472
23 1 9 0.6426 -0.6051
23 1 10 0.8915 -0.4538
23 1 11 -2.4714 -0.3521
23 1 12 -2.6493 -0.1135
23 2 0 -16.4593 1.0117
23 2 1 -3.4108 -0.7620
23 2 2 -0.5837 -0.6399
23 2 3 -0.5441 -0.3832
23 2 4 0.2109 -1.1413
23 2 5 0.9589 0.1187
23 2 6 0.4398 -1.3526
23 2 7 -1.3224 -0.1561
23 2 8 -5.3651 -0.4705
23 2 9 -0.5124 0.4254
23 2 10 -9.8143 0.2297
23 2 11 -3.2718 0.0200
23 2 12 -4.1134 1.3867
23 3 0 1.4867 -0.9360
23 3 1 12.3326 0.3277
23 3 2 1.7129 1.1382
23 3 3 -2.1461 0.9006
23 3 4 4.1769 0.0371
23 3 5 3.6860 0.2352
23 3 6 -0.8128 0.8126
23 3 7 6.7662 -0.0016
23 3 8 0.4232 0.2526
23 3 9 10.6771 1.1477
23 3 10 -0.5772 -1.1573
23 3 11 2.9655 0.9234
23 3 12 -2.5080 -0.1708
23 4 0 -5.0379 0.3813
23 4 1 4.1084 0.2529
23 4 2 2.3335 -0.1519
23 4 3 -2.2996 -1.3178
23 4 4 2.1964 0.2408
23 4 5 0.8904 -0.1665
23 4 6 5.2047 0.8023
23 4 7 -0.4946 -0.3240
23 4 8 0.2255 -0.2153
23 4 9 2.9742 -0.0066
23 4 10 -4.7139 -0.7087
23 4 11 1.0741 0.2381
23 4 12 -2.1720 0.3411
23 5 0 1.7145 -2.5264
23 5 1 -0.1901 -0.6810
23 5 2 -0.3915 1.2816
23 5 3 0.0298 0.2044
23 5 4 -6.6733 0.1496
23 5 5 -5.5873 -0.8283
23 5 6 -2.0510 0.1521
23 5 7 -5.4384 -0.0296
23 5 8 -0.3392 0.3298
23 5 9 1.7376 -0.3695
23 5 10 -1.7812 -0.0994
23 5 11 -1.7065 -0.5210
23 5 12 0.1724 -0.3006
23 6 0 0.0981 0.5926
23 6 1 -0.0800 0.9308
23 6 2 0.0580 -0.1735
23 6 3 6.4696 -0.3336
23 6 4 6.1190 0.4422
23 6 5 -0.5121 0.4430
23 6 6 3.3768 0.0832
23 6 7 -0.6349 -0.4139
23 6 8 3.0989 0.0191
23 6 9 2.7332 0.2636
23 6 10 1.9608 0.5308
23 6 11 -0.8575 0.8949
23 7 0 -3.3831 -1.1361
23 7 1 0.7147 0.0821
23 7 2 1.4161 0.2837
23 7 3 2.7214 0.5476
23 7 4 7.3074 -0.8518
23 7 5 -2.4349 -0.4308
23 7 6 -1.1468 -0.3467
23 7 7 -2.4958 0.1946
23 7 8 0.5864 -0.0227
23 7 9 0.1138 -0.2283
23 7 10 -0.8382 -0.5020
23 7 11 -1.4269 -0.9531
23 8 0 3.1888 1.5235
23 8 1 3.5977 0.4496
23 8 2 -0.5294 -0.9860
23 8 3 4.0025 0.2543
23 8 4 0.0384 0.2832
23 8 5 2.5224 0.1574
23 8 6 -2.8388 0.8634
23 8 7 -0.6995 0.2627
23 8 8 0.5108 -0.2921
23 8 9 -0.5690 0.1690
23 8 10 -0.0230 0.2980
23 8 11 2.9607 0.7613
23 9 0 -0.6146 -0.0345
23 9 1 -2.1813 0.0427
23 9 2 3.6529 -0.0415
23 9 3 1.4532 0.8254
23 9 4 -5.6794 0.0484
23 9 5 -1.5528 -0.4584
23 9 6 -4.9722 -0.1834
23 9 7 -2.3294 0.5579
23 9 8 1.8219 0.3646
23 9 9 1.1113 -0.2659
23 9 10 0.6281 0.2238
23 10 0 1.0980 2.1485
23 10 1 -10.0706 0.6081
23 10 2 3.6029 -0.5974
23 10 3 -1.1685 -0.4423
23 10 4 -2.8738 0.2260
23 10 5 -3.5332 -0.3766
23 10 6 -1.5031 -0.2311
23 10 7 -2.1907 -0.1578
23 10 8 2.4387 -0.4596
23 10 9 -2.1179 -0.5564
23 10 10 1.0831 1.9084
23 11 0 -17.8451 -0.5619
23 11 1 -2.9151 0.1171
23 11 2 1.8518 0.1523
23 11 3 -1.2570 0.4048
23 11 4 -2.2628 -0.0245
23 11 5 -0.6799 -0.1031
23 11 6 -2.3143 0.1661
23 11 7 -0.0588 0.8529
23 11 8 -3.3232 0.2122
23 11 9 -1.1825 -1.0195
23 12 0 -0.2890 0.6164
23 12 1 -3.2155 0.4457
23 12 2 -0.0813 -0.5744
23 12 3 2.2896 -0.2058
23 12 4 2.6868 0.2438
23 12 5 0.4033 0.3127
23 12 6 3.0860 0.1718
23 12 7 0.9077 0.6281
23 12 8 -3.0205 0.3385
23 13 0 -5.7648 -1.3182
23 13 1 -0.2281 0.2984
23 13 2 1.6990 0.5761
23 13 3 2.3172 0.1867
23 13 4 -1.0331 -0.1541
23 13 5 -0.4052 -0.3347
23 13 6 -0.4771 -0.4090
23 13 7 0.2001 -0.3398
23 14 0 1.5455 0.2181
23 14 1 1.4199 -0.0051
23 14 2 3.1470 0.1347
23 14 3 3.4187 -0.3481
23 14 4 -0.3500 0.2743
23 14 5 -2.8115 0.4345
23 14 6 -0.8888 0.4504
23 15 0 -5.5046 -0.9828
23 15 1 -1.5845 0.1796
23 15 2 -0.8481 0.1382
23 15 3 2.7186 0.3033
23 15 4 -2.3312 -0.9772
24 0 0 2.5976 1.3163
24 0 1 -1.5297 0.2285
24 0 2 -1.4987 -0.2709
24 0 3 3.8431 2.6676
24 0 4 1.6571 1.6725
24 0 5 2.5054 4.0549
24 0 6 1.8377 2.0493
24 0 7 2.0923 3.0347
24 0 8 5.2183 0.3268
24 0 9 2.0651 1.0755
24 0 10 -2.0184 -0.9186
24 1 0 0.4115 -1.7735
24 1 1 2.0638 0.2539
24 1 2 -5.0434 0.3409
24 1 3 -0.5188 -0.6623
24 1 4 -1.7696 -0.9183
24 1 5 -2.8651 0.1210
24 1 6 4.0104 -0.2114
24 1 7 -2.8871 0.2083
24 1 8 0.6083 -0.2386
24 1 9 -1.8160 -0.8117
24 1 10 -3.2750 -0.1802
24 2 0 -2.4841 -0.0413
24 2 1 1.7277 0.2379
24 2 2 4.6056 -0.1981
24 2 3 -0.5484 -0.5865
24 2 4 1.9574 0.4182
24 2 5 -0.2284 -1.3514
24 2 6 -0.8589 -0.0094
24 2 7 -1.3852 -1.0006
24 2 8 -0.3060 -0.0118
24 2 9 1.1685 0.4225
24 2 10 -4.6918 -0.5307
24 3 0 -2.3800 -0.2726
24 3 1 2.2126 -0.3417
24 3 2 1.8484 0.9008
24 3 3 -0.4069 0.9823
24 3 4 1.2350 -0.1855
24 3 5 4.5961 0.0695
24 3 6 0.4253 -0.2040
24 3 7 2.0113 0.4931
24 3 8 -4.5532 0.5317
24 3 9 1.7512 -0.3182
24 3 10 -1.0450 0.2174
24 4 0 -0.5535 1.5519
24 4 1 -0.9120 0.3900
24 4 2 2.2676 -1.1789
24 4 3 -6.8197 0.2486
24 4 4 1.3015 0.2349
24 4 5 -7.6389 1.1428
24 4 6 1.0607 -0.1110
24 4 7 0.8967 0.0459
24 4 8 1.3203 -0.0989
24 4 9 1.2440 0.1346
24 4 10 0.8075 -0.0534
24 5 0 1.1156 -0.4828
24 5 1 1.0291 -0.5290
24 5 2 -5.0070 -0.3364
24 5 3 -4.5207 0.6780
24 5 4 2.7725 -1.1047
24 5 5 -1.8155 0.0862
24 5 6 1.4930 -0.5799
24 5 7 -0.6846 -0.0895
24 5 8 1.0562 -0.3888
24 5 9 -1.3804 -0.2714
24 5 10 0.6774 -1.2324
24 6 0 -0.2522 1.8028
24 6 1 3.4739 -0.0114
24 6 2 -0.7079 -0.4318
24 6 3 1.7921 0.3612
24 6 4 3.2633 0.2273
24 6 5 3.3256 0.8247
24 6 6 -3.4123 0.3645
24 6 7 1.8082 0.1962
24 6 8 0.7299 0.4033
24 6 9 2.4146 0.7916
24 6 10 1.5025 0.2232
24 7 0 -4.7498 -1.1629
24 7 1 -1.7416 -0.5051
24 7 2 -1.3224 0.4772
24 7 3 1.4256 -0.2618
24 7 4 -0.0905 -0.6296
24 7 5 -5.4444 -0.5721
24 7 6 -0.9622 -0.2529
24 7 7 -6.2172 -0.1695
24 7 8 -0.3395 -0.4836
24 7 9 -2.6921 -0.1433
24 7 10 -0.6380 -1.8141
24 8 0 3.9269 0.4516
24 8 1 -1.3791 -0.8452
24 8 2 -1.8596 0.4140
24 8 3 1.6050 -0.4562
24 8 4 -2.2027 0.4121
24 8 5 -0.9585 0.9327
24 8 6 -6.6541 0.2979
24 8 7 1.3894 0.0545
24 8 8 -2.1256 -0.1195
24 8 9 -0.3246 1.0702
24 9 0 1.0267 -2.0303
24 9 1 3.4301 -0.2344
24 9 2 -0.3311 0.9413
24 9 3 4.3875 -0.1063
24 9 4 -4.0131 -0.5162
24 9 5 8.6100 0.1131
24 9 6 -3.9198 -0.4366
24 9 7 0.3785 0.0665
24 9 8 3.0422 0.0255
24 9 9 -1.3964 0.1394
24 10 0 6.9921 -0.4659
24 10 1 -2.8092 -0.1849
24 10 2 4.2809 -0.0439
24 10 3 1.1318 -0.4865
24 10 4 0.6980 0.1398
24 10 5 -3.4866 0.0662
24 10 6 1.7277 0.2880
24 10 7 -3.7326 -0.7747
24 10 8 5.7226 -0.1121
24 11 0 -0.9703 -0.9647
24 11 1 -11.6609 -0.8430
24 11 2 3.4954 0.3444
24 11 3 -3.7828 -0.1005
24 11 4 1.1781 -0.1537
24 11 5 -1.7096 -0.5149
24 11 6 0.8457 0.8431
24 11 7 -3.3894 -0.5723
24 12 0 2.6855 0.6103
24 12 1 0.8861 -0.2579
24 12 2 -5.8075 0.0633
24 12 3 0.8342 -0.2346
24 12 4 3.9843 0.8778
24 12 5 1.1122 -0.3042
24 12 6 0.8270 2.1102
24 13 0 -1.5209 -0.6336
24 13 1 1.3106 0.3143
24 13 2 0.7062 -0.2060
24 13 3 -2.6564 -0.4287
24 13 4 0.2630 -0.4494
24 14 0 -4.2688 0.4104
24 14 1 1.5084 -0.0716
24 14 2 -4.6049 -0.2538
25 0 0 5.7452 0.1813
25 0 1 4.3595 -1.8259
25 0 2 2.1668 0.6491
25 0 3 2.3675 0.0603
25 0 4 -0.9593 2.3558
25 0 5 -0.6163 1.4553
25 0 6 0.7398 2.2236
25 0 7 0.3856 0.9550
25 0 8 5.6433 1.2899
25 1 0 -0.9716 0.1106
25 1 1 -5.4953 0.2472
25 1 2 0.0776 -0.7697
25 1 3 -0.2907 0.1644
25 1 4 -0.3557 -0.0479
25 1 5 -4.2343 -0.5814
25 1 6 2.8365 0.0342
25 1 7 -2.9955 -0.1127
25 1 8 -0.3774 -0.1404
25 2 0 3.1550 0.7082
25 2 1 -0.9026 -0.0954
25 2 2 -0.9371 -0.8516
25 2 3 -1.5022 0.4315
25 2 4 -4.1000 -0.5311
25 2 5 -1.2103 -0.0221
25 2 6 3.3255 -1.5566
25 2 7 -2.7860 0.2749
25 2 8 3.5568 -0.0247
25 3 0 0.2477 -0.2326
25 3 1 2.0419 0.4057
25 3 2 -2.5850 -0.4366
25 3 3 -2.8544 -0.2530
25 3 4 0.5462 0.1631
25 3 5 0.6244 0.3270
25 3 6 0.0551 0.2444
25 3 7 6.1854 0.1810
25 3 8 0.6257 0.0175
25 3 9 5.7837 0.1183
25 4 0 -5.3098 0.0087
25 4 1 3.6846 0.1488
25 4 2 -0.9302 0.5237
25 4 3 0.9884 -0.5693
25 4 4 -0.6225 0.2205
25 4 5 3.0481 0.0962
25 4 6 -1.7665 -0.0411
25 4 7 4.8566 0.1380
25 4 8 2.3702 -0.4722
25 4 9 -5.1596 -0.3893
25 5 0 -0.7234 -1.5046
25 5 1 -3.5298 -0.2390
25 5 2 0.0665 0.2153
25 5 3 -1.0071 -0.3161
25 5 4 -1.3765 -0.0645
25 5 5 -0.6197 -0.7767
25 5 6 1.0292 -0.2385
25 5 7 -2.9070 0.4673
25 5 8 -0.2183 -0.2703
25 5 9 -7.8711 -0.6303
25 6 0 2.3860 0.5026
25 6 1 -0.3047 0.4167
25 6 2 4.4366 -0.2996
25 6 3 1.0160 -0.0335
25 6 4 -0.4896 0.9279
25 6 5 1.3283 0.1303
25 6 6 -2.0222 -0.4131
25 6 7 0.9251 0.1583
25 6 8 -0.4449 0.2415
25 7 0 2.9807 -0.0203
25 7 1 0.6027 0.0362
25 7 2 4.1296 0.2050
25 7 3 -0.4609 -0.4861
25 7 4 6.4963 -0.7380
25 7 5 1.6106 0.1976
25 7 6 0.2710 -0.5131
25 7 7 1.6553 0.8421
25 7 8 3.1713 -0.2737
25 8 0 -2.9191 1.0347
25 8 1 1.1117 0.2279
25 8 2 -1.1046 -0.5191
25 8 3 3.4724 0.3452
25 8 4 -4.5593 0.7545
25 8 5 0.4879 -0.3935
25 8 6 -6.0225 -0.5004
25 8 7 1.0471 -0.6901
25 9 0 12.8212 0.6757
25 9 1 1.8041 0.3109
25 9 2 2.6551 -0.0052
25 9 3 -2.4789 -0.1775
25 9 4 2.8276 -0.0623
25 9 5 0.8411 0.4045
25 9 6 0.0326 0.3048
25 9 7 -0.9857 0.2284
25 10 0 1.2465 1.6874
25 10 1 -1.5308 -0.4804
25 10 2 -2.5820 0.1757
25 10 3 2.2052 0.2494
25 10 4 -2.9111 -0.0851
25 10 5 -1.6664 -0.1019
25 10 6 2.5761 -0.4394
25 11 0 -2.8744 0.8202
25 11 1 0.0011 -0.1258
25 11 2 0.1195 0.0748
25 11 3 -3.1446 0.3179
25 11 4 -0.6358 -0.7435
25 12 0 1.1152 0.3108
25 12 1 -0.6798 -0.8431
25 12 2 -4.3412 0.0826
26 0 0 3.2095 -0.3336
26 0 1 -3.4725 0.2088
26 0 2 -2.0647 -1.4758
26 0 3 0.8397 0.7327
26 0 4 4.1041 0.2124
26 0 5 -0.2831 0.8991
26 0 6 1.2687 0.9487
26 1 0 -4.9927 -0.1492
26 1 1 0.0937 -0.0927
26 1 2 1.7018 0.4359
26 1 3 -0.9911 -0.4703
26 1 4 -2.8729 -0.0479
26 1 5 -1.2840 1.0956
26 1 6 3.7973 0.2123
26 1 7 2.4297 -0.1122
26 2 0 -1.2315 -1.2685
26 2 1 0.2507 0.7005
26 2 2 -1.7216 1.1129
26 2 3 1.3002 -0.3598
26 2 4 -1.6834 0.2588
26 2 5 -2.8544 -1.3291
26 2 6 -0.9439 0.4845
26 2 7 -0.9309 -1.1968
26 3 0 2.6237 0.5645
26 3 1 2.9967 -0.3499
26 3 2 7.0778 0.0987
26 3 3 1.3201 -0.4509
26 3 4 -0.5214 0.2053
26 3 5 1.8017 0.0658
26 3 6 5.1453 1.2900
26 3 7 -0.6769 -0.3595
26 3 8 2.3164 0.2299
26 4 0 2.9827 -0.2128
26 4 1 2.9134 0.1356
26 4 2 1.8856 0.3193
26 4 3 0.8947 -0.0989
26 4 4 2.7024 0.3036
26 4 5 0.8385 -1.2720
26 4 6 -0.9682 0.5751
26 4 7 0.0903 -0.5216
26 5 0 -0.0569 0.4813
26 5 1 1.5021 0.1312
26 5 2 -0.0555 0.0899
26 5 3 2.2613 0.1008
26 5 4 0.1191 0.5758
26 5 5 2.5170 0.0090
26 5 6 1.6646 1.9197
26 5 7 0.0233 -0.1733
26 6 0 -2.4013 -0.0213
26 6 1 0.0623 -0.4748
26 6 2 -2.4939 -0.1122
26 6 3 -1.0434 -0.0391
26 6 4 1.1923 -0.0924
26 6 5 2.8123 -1.9404
26 6 6 -2.6228 0.0808
26 7 0 0.4620 -0.3802
26 7 1 -3.7498 0.9063
26 7 2 4.1343 0.0266
26 7 3 -4.9860 0.0788
26 7 4 -0.4108 1.2743
26 7 5 -4.6712 0.0388
26 7 6 0.5201 2.3558
26 8 0 -1.9006 -1.2451
26 8 1 -1.0942 0.4441
26 8 2 1.2431 -0.5221
26 8 3 -0.3943 0.1788
26 8 4 2.3422 -0.1403
26 8 5 -3.0881 -1.2564
26 9 0 -0.6780 -1.6026
26 9 1 1.4439 1.0181
26 9 2 1.7324 -0.6442
26 9 3 -2.3042 0.3532
26 9 4 2.2875 0.0978
26 10 0 -3.4914 -1.7849
26 10 1 0.0941 0.7296
26 10 2 -1.7012 -0.9361
27 0 2 -2.3345 -0.0287
27 0 3 -2.5332 -1.7819
27 1 1 -1.8000 -0.6115
27 1 2 1.4419 0.6504
27 1 3 -2.3270 0.6064
27 1 4 3.2332 0.1426
27 2 0 2.4273 -0.2273
27 2 1 -2.8397 -1.0575
27 2 2 3.8028 0.0767
27 2 3 -2.3630 0.7772
27 2 4 -2.6354 -0.6446
27 3 0 2.3294 1.7348
27 3 1 4.3240 -0.0012
27 3 2 3.3078 -0.4861
27 3 3 0.8725 0.4753
27 3 4 1.3675 -0.8245
27 3 5 -0.4799 1.1245
27 4 0 -3.6209 -1.0193
27 4 1 -1.0819 -0.5057
27 4 2 0.2512 -0.4375
27 4 3 2.2577 0.7421
27 4 4 2.4354 -1.1949
27 5 0 -7.1387 0.7334
27 5 1 -2.9530 0.1950
27 5 2 1.0067 0.2103
27 5 3 2.0504 0.6800
27 5 4 3.4257 0.0368
27 6 0 -1.8979 -0.4908
27 6 1 -0.3131 -0.6714
27 6 2 -2.3181 0.0477
27 6 3 -0.7211 -0.4825
27 7 1 0.5556 -0.1229
27 7 2 -2.1074 0.6537
0 0 0 0.0 0.0
;
_olex2_submission_special_instructions 'No special instructions were received'
_oxdiff_exptl_absorpt_empirical_details
;
Empirical correction (ABSPACK) includes:
- Absorption correction using spherical harmonics
- Frame scaling
;
_oxdiff_exptl_absorpt_empirical_full_max 1.407
_oxdiff_exptl_absorpt_empirical_full_min 0.670
loop_
_space_group_symop_operation_xyz
'x, y, z'
'-y, x, z+1/2'
'-x, -y, z'
'y, -x, z+1/2'
'x, -y, -z'
'-x, y, -z'
'y, x, -z+1/2'
'-y, -x, -z+1/2'
'-x, -y, -z'
'y, -x, -z-1/2'
'x, y, -z'
'-y, x, -z-1/2'
'-x, y, z'
'x, -y, z'
'-y, -x, z-1/2'
'y, x, z-1/2'
loop_
_atom_site_label
_atom_site_type_symbol
_atom_site_fract_x
_atom_site_fract_y
_atom_site_fract_z
_atom_site_U_iso_or_equiv
_atom_site_adp_type
_atom_site_occupancy
_atom_site_site_symmetry_order
_atom_site_calc_flag
_atom_site_refinement_flags_posn
_atom_site_refinement_flags_adp
_atom_site_refinement_flags_occupancy
_atom_site_disorder_assembly
_atom_site_disorder_group
Zr1 Zr 0.5000 0.89276(4) 0.5000 0.0329(3) Uani 1 4 d S TU P . .
Zr2 Zr 0.57579(3) 1.0000 0.59380(3) 0.0375(2) Uani 1 2 d S TU P . .
F1 F 0.2830(6) 0.6436(6) 0.3858(8) 0.242(6) Uani 0.698(6) 1 d D U . A 1
F2 F 0.3727(6) 0.6483(5) 0.4095(7) 0.235(6) Uani 0.698(6) 1 d D U . A 1
F3 F 0.3456(7) 0.6163(4) 0.3107(7) 0.230(6) Uani 0.698(6) 1 d D U . A 1
F1A F 0.2877(12) 0.7783(12) 0.1237(8) 0.230(9) Uani 0.302(6) 1 d D U . A 2
F2A F 0.2940(13) 0.8641(9) 0.1581(13) 0.237(9) Uani 0.302(6) 1 d D U . A 2
F3A F 0.2207(6) 0.8147(14) 0.1883(12) 0.237(9) Uani 0.302(6) 1 d D U . A 2
O1 O 0.4416(2) 0.8432(2) 0.4288(2) 0.0556(11) Uani 1 1 d . . . . .
O2 O 0.3954(2) 0.9137(2) 0.3651(3) 0.0679(13) Uani 1 1 d . . . . .
O3 O 0.5552(4) 1.0000 0.7076(3) 0.076(2) Uani 1 2 d S T P . .
O4 O 0.5000 0.9477(3) 0.5919(4) 0.070(2) Uani 1 2 d S TU P . .
O5 O 0.5773(4) 0.9476(3) 0.5000 0.080(2) Uani 1 2 d S TU P . .
O6 O 0.6709(3) 1.0000 0.5910(4) 0.087(3) Uani 1 2 d S T P . .
N1 N 0.4476(3) 1.0000 0.9245(5) 0.124(5) Uani 0.5 2 d DS TU P B 2
C1 C 0.3064(3) 0.7348(3) 0.2688(4) 0.163(4) Uani 1 1 d D U . . .
C2 C 0.3363(3) 0.7182(3) 0.3296(4) 0.154(3) Uani 1 1 d D U . . .
H2 H 0.3346 0.6791 0.3458 0.185 Uiso 0.302(6) 1 calc R . . A 2
C3 C 0.3690(3) 0.7595(3) 0.3668(3) 0.129(3) Uani 1 1 d D U . . .
H3 H 0.3896 0.7485 0.4085 0.155 Uiso 1 1 calc R . . . .
C4 C 0.3713(3) 0.8166(3) 0.3428(4) 0.107(2) Uani 1 1 d D U . . .
C5 C 0.3414(4) 0.8329(3) 0.2822(4) 0.143(3) Uani 1 1 d D U . . .
H5 H 0.3430 0.8720 0.2660 0.171 Uiso 1 1 calc R . . . .
C6 C 0.3087(4) 0.7918(4) 0.2451(4) 0.171(4) Uani 1 1 d D U . . .
H6 H 0.2881 0.8029 0.2035 0.206 Uiso 0.698(6) 1 calc R . . A 1
C7 C 0.4058(4) 0.8614(4) 0.3816(4) 0.078(2) Uani 1 1 d . U . . .
C8 C 0.3347(5) 0.6576(4) 0.3572(6) 0.186(4) Uani 0.698(6) 1 d D U . A 1
C9 C 0.5000 1.0000 0.7347(6) 0.110(5) Uani 1 4 d DS TU P . .
C10 C 0.5000 1.0000 0.8135(4) 0.114(4) Uani 1 4 d DS TU P . .
C11 C 0.5529(3) 1.0000 0.8506(4) 0.122(4) Uani 1 2 d DS TU P . .
H11 H 0.5887 1.0000 0.8255 0.147 Uiso 0.5 2 calc RS T P C 1
H11A H 0.5887 1.0000 0.8255 0.147 Uiso 0.5 2 calc RS T P D 2
C12 C 0.5523(3) 1.0000 0.9244(5) 0.120(4) Uani 0.5 2 d DS TU P B 1
H12 H 0.5879 1.0000 0.9500 0.144 Uiso 0.5 2 calc RS T P B 1
C13 C 0.5000 1.0000 0.9608(2) 0.121(4) Uani 1 4 d DS TU P . .
C8A C 0.2777(6) 0.8113(7) 0.1801(7) 0.200(5) Uani 0.302(6) 1 d D U . A 2
loop_
_atom_site_aniso_label
_atom_site_aniso_U_11
_atom_site_aniso_U_22
_atom_site_aniso_U_33
_atom_site_aniso_U_23
_atom_site_aniso_U_13
_atom_site_aniso_U_12
Zr1 0.0466(5) 0.0355(5) 0.0164(4) 0.000 0.000 0.000
Zr2 0.0416(4) 0.0520(4) 0.0188(3) 0.000 -0.0099(2) 0.000
F1 0.314(12) 0.184(11) 0.227(13) 0.052(9) -0.050(9) -0.135(10)
F2 0.352(13) 0.127(8) 0.225(12) 0.035(7) -0.141(11) -0.102(10)
F3 0.341(15) 0.116(7) 0.234(12) -0.028(8) -0.108(10) -0.044(9)
F1A 0.286(19) 0.244(17) 0.159(12) -0.014(14) -0.106(14) -0.066(18)
F2A 0.305(19) 0.219(14) 0.187(17) 0.033(11) -0.129(16) -0.059(16)
F3A 0.239(12) 0.244(19) 0.227(18) -0.015(16) -0.134(12) -0.038(14)
O1 0.067(3) 0.064(3) 0.037(2) -0.0183(19) -0.0120(19) -0.021(2)
O2 0.083(3) 0.067(3) 0.054(3) -0.009(2) -0.024(2) -0.019(3)
O3 0.126(6) 0.083(5) 0.017(3) 0.000 -0.004(3) 0.000
O4 0.037(3) 0.077(5) 0.094(5) -0.051(4) 0.000 0.000
O5 0.149(7) 0.073(4) 0.018(2) 0.000 0.000 -0.053(5)
O6 0.037(3) 0.145(8) 0.079(5) 0.000 -0.013(3) 0.000
N1 0.128(8) 0.147(9) 0.097(8) 0.000 0.001(6) 0.000
C1 0.211(8) 0.137(6) 0.142(7) -0.026(5) -0.081(6) -0.078(6)
C2 0.211(7) 0.112(5) 0.139(6) -0.021(4) -0.077(5) -0.083(5)
C3 0.183(7) 0.096(5) 0.109(6) -0.020(4) -0.054(5) -0.059(5)
C4 0.142(6) 0.096(4) 0.083(4) -0.017(4) -0.045(4) -0.052(4)
C5 0.188(7) 0.125(6) 0.116(6) -0.010(5) -0.087(5) -0.055(6)
C6 0.216(8) 0.151(6) 0.146(7) -0.012(5) -0.106(6) -0.066(6)
C7 0.102(5) 0.088(5) 0.043(3) -0.012(4) -0.021(4) -0.032(4)
C8 0.263(9) 0.119(6) 0.177(8) -0.012(6) -0.095(7) -0.105(7)
C9 0.120(11) 0.153(12) 0.055(7) 0.000 0.000 0.000
C10 0.127(8) 0.157(10) 0.057(6) 0.000 0.000 0.000
C11 0.140(7) 0.155(7) 0.072(5) 0.000 -0.012(4) 0.000
C12 0.133(8) 0.160(9) 0.068(6) 0.000 -0.008(6) 0.000
C13 0.129(7) 0.145(7) 0.090(6) 0.000 0.000 0.000
C8A 0.242(11) 0.192(10) 0.166(9) -0.008(8) -0.124(9) -0.062(10)
loop_
_atom_type_symbol
_atom_type_description
_atom_type_scat_dispersion_real
_atom_type_scat_dispersion_imag
_atom_type_scat_source
C C 0.0181 0.0091 'International Tables Vol C Tables 4.2.6.8 and 6.1.1.4'
H H 0.0000 0.0000 'International Tables Vol C Tables 4.2.6.8 and 6.1.1.4'
F F 0.0727 0.0534 'International Tables Vol C Tables 4.2.6.8 and 6.1.1.4'
N N 0.0311 0.0180 'International Tables Vol C Tables 4.2.6.8 and 6.1.1.4'
O O 0.0492 0.0322 'International Tables Vol C Tables 4.2.6.8 and 6.1.1.4'
Zr Zr -0.1862 2.2449 'International Tables Vol C Tables 4.2.6.8 and 6.1.1.4'
loop_
_geom_angle_atom_site_label_1
_geom_angle_atom_site_label_2
_geom_angle_atom_site_label_3
_geom_angle
_geom_angle_site_symmetry_1
_geom_angle_site_symmetry_3
Zr2 Zr1 Zr2 59.79(2) . 3_675
Zr2 Zr1 Zr2 59.79(2) 11_556 9_676
Zr2 Zr1 Zr2 90.31(2) . 9_676
Zr2 Zr1 Zr2 90.31(2) 3_675 11_556
Zr2 Zr1 Zr2 60.57(2) . 11_556
Zr2 Zr1 Zr2 60.57(2) 3_675 9_676
O1 Zr1 Zr2 111.13(12) 6_656 3_675
O1 Zr1 Zr2 75.83(13) 11_556 3_675
O1 Zr1 Zr2 166.14(13) 11_556 11_556
O1 Zr1 Zr2 111.45(12) 13_655 .
O1 Zr1 Zr2 111.45(13) 6_656 11_556
O1 Zr1 Zr2 111.13(12) . 11_556
O1 Zr1 Zr2 111.45(12) 11_556 9_676
O1 Zr1 Zr2 111.45(12) . 3_675
O1 Zr1 Zr2 75.84(13) . 9_676
O1 Zr1 Zr2 166.14(13) 6_656 9_676
O1 Zr1 Zr2 166.14(13) . .
O1 Zr1 Zr2 166.14(13) 13_655 3_675
O1 Zr1 Zr2 75.83(13) 13_655 11_556
O1 Zr1 Zr2 75.83(13) 6_656 .
O1 Zr1 Zr2 111.13(12) 13_655 9_676
O1 Zr1 Zr2 111.13(12) 11_556 .
O1 Zr1 O1 118.0(3) 6_656 .
O1 Zr1 O1 74.8(2) 13_655 .
O1 Zr1 O1 74.5(2) 11_556 .
O1 Zr1 O1 118.0(3) 11_556 13_655
O1 Zr1 O1 74.5(2) 6_656 13_655
O1 Zr1 O1 74.8(2) 6_656 11_556
O4 Zr1 Zr2 89.5(2) 11_556 .
O4 Zr1 Zr2 89.5(2) . 11_556
O4 Zr1 Zr2 34.59(12) . 3_675
O4 Zr1 Zr2 89.5(2) . 9_676
O4 Zr1 Zr2 89.5(2) 11_556 3_675
O4 Zr1 Zr2 34.59(12) 11_556 9_676
O4 Zr1 Zr2 34.59(12) . .
O4 Zr1 Zr2 34.59(12) 11_556 11_556
O4 Zr1 O1 79.4(2) . 6_656
O4 Zr1 O1 142.41(12) 11_556 11_556
O4 Zr1 O1 79.4(2) . 11_556
O4 Zr1 O1 142.41(12) . 13_655
O4 Zr1 O1 79.4(2) 11_556 13_655
O4 Zr1 O1 79.4(2) 11_556 .
O4 Zr1 O1 142.41(12) . .
O4 Zr1 O1 142.41(12) 11_556 6_656
O4 Zr1 O4 107.7(5) 11_556 .
O4 Zr1 O5 70.03(17) 11_556 13_655
O4 Zr1 O5 70.03(17) 11_556 .
O4 Zr1 O5 70.03(17) . 13_655
O4 Zr1 O5 70.03(17) . .
O5 Zr1 Zr2 35.45(12) 13_655 9_676
O5 Zr1 Zr2 89.9(2) . 9_676
O5 Zr1 Zr2 35.45(12) 13_655 3_675
O5 Zr1 Zr2 89.9(2) 13_655 11_556
O5 Zr1 Zr2 35.45(12) . 11_556
O5 Zr1 Zr2 35.45(12) . .
O5 Zr1 Zr2 89.9(2) . 3_675
O5 Zr1 Zr2 89.9(2) 13_655 .
O5 Zr1 O1 78.6(2) . 6_656
O5 Zr1 O1 142.48(12) . .
O5 Zr1 O1 142.48(12) 13_655 13_655
O5 Zr1 O1 78.6(2) 13_655 .
O5 Zr1 O1 142.48(12) . 11_556
O5 Zr1 O1 78.6(2) 13_655 11_556
O5 Zr1 O1 142.48(12) 13_655 6_656
O5 Zr1 O1 78.6(2) . 13_655
O5 Zr1 O5 109.3(5) . 13_655
Zr1 Zr2 Zr1 89.69(2) 9_676 .
Zr1 Zr2 Zr2 59.716(10) . 11_556
Zr1 Zr2 Zr2 59.716(10) 9_676 11_556
Zr2 Zr2 Zr1 60.106(12) 3_675 9_676
Zr2 Zr2 Zr1 60.106(12) 3_675 .
Zr2 Zr2 Zr2 90.0 3_675 11_556
O2 Zr2 Zr1 72.24(13) 9_676 9_676
O2 Zr2 Zr1 161.83(13) 9_676 .
O2 Zr2 Zr1 161.83(13) 6_656 9_676
O2 Zr2 Zr1 72.24(13) 6_656 .
O2 Zr2 Zr2 107.27(14) 9_676 3_675
O2 Zr2 Zr2 110.25(13) 9_676 11_556
O2 Zr2 Zr2 110.25(13) 6_656 11_556
O2 Zr2 Zr2 107.27(14) 6_656 3_675
O2 Zr2 O2 125.7(3) 9_676 6_656
O3 Zr2 Zr1 112.64(16) . .
O3 Zr2 Zr1 112.64(16) . 9_676
O3 Zr2 Zr2 167.5(2) . 11_556
O3 Zr2 Zr2 77.5(2) . 3_675
O3 Zr2 O2 74.10(16) . 9_676
O3 Zr2 O2 74.10(16) . 6_656
O4 Zr2 Zr1 89.0(2) . 9_676
O4 Zr2 Zr1 89.0(2) 3_675 .
O4 Zr2 Zr1 35.01(17) . .
O4 Zr2 Zr1 35.01(17) 3_675 9_676
O4 Zr2 Zr2 34.62(17) . 3_675
O4 Zr2 Zr2 89.0(2) 3_675 11_556
O4 Zr2 Zr2 89.0(2) . 11_556
O4 Zr2 Zr2 34.62(17) 3_675 3_675
O4 Zr2 O2 139.1(2) 3_675 6_656
O4 Zr2 O2 139.1(2) . 9_676
O4 Zr2 O2 75.2(2) 3_675 9_676
O4 Zr2 O2 75.2(2) . 6_656
O4 Zr2 O3 80.7(3) . .
O4 Zr2 O3 80.7(3) 3_675 .
O4 Zr2 O4 69.2(3) 3_675 .
O4 Zr2 O5 71.3(3) . .
O4 Zr2 O5 71.3(3) 3_675 5_576
O4 Zr2 O5 108.6(3) . 5_576
O4 Zr2 O5 108.6(3) 3_675 .
O4 Zr2 O6 145.31(17) 3_675 .
O4 Zr2 O6 145.31(17) . .
O5 Zr2 Zr1 36.3(2) . .
O5 Zr2 Zr1 89.4(2) 5_576 .
O5 Zr2 Zr1 89.4(2) . 9_676
O5 Zr2 Zr1 36.3(2) 5_576 9_676
O5 Zr2 Zr2 90.9(2) . 3_675
O5 Zr2 Zr2 34.35(16) 5_576 11_556
O5 Zr2 Zr2 34.36(16) . 11_556
O5 Zr2 Zr2 90.9(2) 5_576 3_675
O5 Zr2 O2 141.5(2) 5_576 6_656
O5 Zr2 O2 77.2(2) 5_576 9_676
O5 Zr2 O2 77.2(2) . 6_656
O5 Zr2 O2 141.5(2) . 9_676
O5 Zr2 O3 144.05(16) 5_576 .
O5 Zr2 O3 144.05(16) . .
O5 Zr2 O5 68.7(3) 5_576 .
O5 Zr2 O6 88.0(3) . .
O5 Zr2 O6 88.0(3) 5_576 .
O6 Zr2 Zr1 119.09(13) . .
O6 Zr2 Zr1 119.09(13) . 9_676
O6 Zr2 Zr2 178.6(2) . 3_675
O6 Zr2 Zr2 88.6(2) . 11_556
O6 Zr2 O2 73.23(17) . 9_676
O6 Zr2 O2 73.23(17) . 6_656
O6 Zr2 O3 103.8(3) . .
C7 O1 Zr1 129.8(5) . .
C7 O2 Zr2 134.8(4) . 9_676
C9 O3 Zr2 124.3(6) . .
Zr2 O4 Zr1 110.4(2) . .
Zr2 O4 Zr1 110.4(2) 3_675 .
Zr2 O4 Zr2 110.8(3) . 3_675
Zr2 O5 Zr1 108.3(3) . .
Zr2 O5 Zr1 108.3(3) 11_556 .
Zr2 O5 Zr2 111.3(3) . 11_556
C13 N1 C11 120.1(6) . 3_675
C2 C1 C1 121.4(7) . 8_665
C6 C1 C1 117.8(6) . 8_665
C6 C1 C2 120.4(5) . .
C1 C2 H2 120.3 . .
C1 C2 C3 119.4(4) . .
C1 C2 C8 122.2(6) . .
C3 C2 H2 120.3 . .
C3 C2 C8 118.4(6) . .
C2 C3 H3 120.0 . .
C4 C3 C2 120.0(5) . .
C4 C3 H3 120.0 . .
C3 C4 C7 121.0(6) . .
C5 C4 C3 120.3(5) . .
C5 C4 C7 118.7(6) . .
C4 C5 H5 120.1 . .
C4 C5 C6 119.8(5) . .
C6 C5 H5 120.1 . .
C1 C6 C5 120.1(5) . .
C1 C6 H6 120.0 . .
C1 C6 C8A 122.1(7) . .
C5 C6 H6 120.0 . .
C5 C6 C8A 117.8(7) . .
O1 C7 C4 117.0(7) . .
O2 C7 O1 127.1(6) . .
O2 C7 C4 115.9(7) . .
F1 C8 C2 112.7(8) . .
F2 C8 F1 104.3(10) . .
F2 C8 C2 113.0(7) . .
F3 C8 F1 105.2(9) . .
F3 C8 F2 104.5(9) . .
F3 C8 C2 116.1(8) . .
O3 C9 O3 136.3(10) 3_675 .
O3 C9 C10 111.8(5) . .
O3 C9 C10 111.8(5) 3_675 .
C11 C10 C9 119.8(3) . .
C11 C10 C9 119.8(3) 3_675 .
C11 C10 C11 120.4(6) . 3_675
N1 C11 C10 119.3(6) 3_675 .
N1 C11 H11A 120.4 3_675 .
C10 C11 H11 120.4 . .
C10 C11 H11A 120.4 . .
C12 C11 C10 119.2(6) . .
C12 C11 H11 120.4 . .
C11 C12 H12 119.9 . .
C13 C12 C11 120.2(6) . .
C13 C12 H12 119.9 . .
N1 C13 N1 120.8(7) . 3_675
N1 C13 C13 119.6(3) 3_675 5_577
N1 C13 C13 119.6(3) . 5_577
C12 C13 C12 120.7(7) . 3_675
C12 C13 C13 119.7(3) . 5_577
C12 C13 C13 119.7(3) 3_675 5_577
F1A C8A F2A 103.0(11) . .
F1A C8A C6 113.7(9) . .
F2A C8A C6 113.2(9) . .
F3A C8A F1A 107.4(11) . .
F3A C8A F2A 105.1(11) . .
F3A C8A C6 113.5(9) . .
loop_
_geom_bond_atom_site_label_1
_geom_bond_atom_site_label_2
_geom_bond_distance
_geom_bond_site_symmetry_2
Zr1 Zr2 3.4989(7) .
Zr1 Zr2 3.4990(7) 3_675
Zr1 Zr2 3.4990(7) 9_676
Zr1 Zr2 3.4990(7) 11_556
Zr1 O1 2.214(4) 6_656
Zr1 O1 2.214(4) 11_556
Zr1 O1 2.214(4) 13_655
Zr1 O1 2.214(4) .
Zr1 O4 2.142(6) 11_556
Zr1 O4 2.142(6) .
Zr1 O5 2.180(7) 13_655
Zr1 O5 2.180(7) .
Zr2 Zr1 3.4989(7) 9_676
Zr2 Zr2 3.5290(11) 11_556
Zr2 Zr2 3.4878(13) 3_675
Zr2 O2 2.232(5) 9_676
Zr2 O2 2.232(5) 6_656
Zr2 O3 2.193(6) .
Zr2 O4 2.119(4) .
Zr2 O4 2.119(4) 3_675
Zr2 O5 2.137(4) .
Zr2 O5 2.137(4) 5_576
Zr2 O6 2.190(7) .
F1 C8 1.344(9) .
F2 C8 1.333(8) .
F3 C8 1.314(8) .
F1A C8A 1.325(9) .
F2A C8A 1.337(9) .
F3A C8A 1.323(9) .
O1 C7 1.281(10) .
O2 Zr2 2.232(5) 9_676
O2 C7 1.264(10) .
O3 C9 1.369(10) .
O4 Zr2 2.119(4) 3_675
O5 Zr2 2.137(4) 11_556
N1 C11 1.389(8) 3_675
N1 C13 1.385(7) .
C1 C1 1.515(12) 8_665
C1 C2 1.389(7) .
C1 C6 1.387(7) .
C2 H2 0.9500 .
C2 C3 1.401(7) .
C2 C8 1.488(8) .
C3 H3 0.9500 .
C3 C4 1.390(7) .
C4 C5 1.385(7) .
C4 C7 1.492(9) .
C5 H5 0.9500 .
C5 C6 1.395(7) .
C6 H6 0.9500 .
C6 C8A 1.484(9) .
C9 O3 1.369(10) 3_675
C9 C10 1.483(9) .
C10 C11 1.403(7) .
C10 C11 1.403(7) 3_675
C11 N1 1.389(8) 3_675
C11 H11 0.9500 .
C11 H11A 0.9500 .
C11 C12 1.388(8) .
C12 H12 0.9500 .
C12 C13 1.386(8) .
C13 N1 1.385(8) 3_675
C13 C12 1.386(8) 3_675
C13 C13 1.473(9) 5_577
loop_
_refln_index_h
_refln_index_k
_refln_index_l
_refln_F_squared_meas
_refln_F_squared_sigma
0 0 -2 1663.47 37.2
0 0 -3 -0.81 3.83
0 0 -4 6757.37 107.85
0 0 -11 1.57 4.89
0 0 -12 4204.2 104.96
0 0 -13 0.25 5.99
0 0 -14 1053.61 57.34
0 0 -15 -4.91 5.97
0 0 -16 153.75 23.68
0 0 -17 5.07 7.85
0 0 -18 37.56 14.1
0 0 -19 6.03 10.5
0 0 -20 1035.62 53.67
0 0 -21 25.41 15.32
-1 0 -2 198.15 13.89
0 1 -2 199.68 14.39
-1 0 -3 21.52 5.02
0 1 -3 19.56 5.44
0 1 -4 271.24 22.82
-1 0 -4 277.79 23.03
-1 0 -5 2430.33 73.46
0 1 -5 2359.24 73.54
0 1 -6 62.1 13.09
-1 0 -6 57.73 12.36
1 0 -11 4571.36 103.47
0 -1 -11 4545.04 103.18
0 1 -11 4623.84 101.43
-1 0 -11 4524.02 102.94
0 1 -12 10.84 7.38
-1 0 -12 1.54 5.54
1 0 -12 4.38 5.1
0 -1 -12 4.98 4.36
0 1 -13 1743.71 70.14
0 -1 -13 1649.11 70.35
-1 0 -13 1653.94 70.02
1 0 -13 1681.02 69.96
0 1 -14 20.66 10.01
-1 0 -14 17.86 10.37
0 -1 -14 10.83 7.16
1 0 -14 21.28 9.61
0 -1 -15 -5.42 8.12
-1 0 -15 2.08 6.73
1 0 -15 1.66 7.19
0 1 -15 15.07 10.79
0 -1 -16 29.32 12.23
0 1 -16 30.01 11.89
1 0 -16 29.11 11
-1 0 -16 29.11 11.74
0 -1 -17 70.31 17.39
0 1 -17 70.95 16.45
1 0 -17 73.35 16.54
-1 0 -17 74.73 16.4
1 0 -18 12.24 6.35
0 1 -18 7.74 6.71
-1 0 -18 2.91 6.88
0 -1 -18 12.71 6.91
0 1 -19 573.49 42.86
0 -1 -19 583.04 43.23
1 0 -19 585.54 43.04
-1 0 -19 581.67 42.51
-1 0 -20 13.36 14.02
1 0 -20 11.9 12.55
0 1 -20 12.07 12.51
0 -1 -20 12.09 11.22
0 1 -21 1140.28 50.76
-1 0 -21 1140.96 50.71
1 0 -21 1158.64 51.57
0 -1 -21 1145.78 51.58
0 -1 -22 7.32 8.99
1 1 1 0.47 1.3
-1 1 -1 1.48 1.93
-1 1 -2 4811.48 69.2
1 1 -2 5105.23 67.92
1 1 -3 -3.03 5.34
-1 1 -3 -4.35 7.45
-1 1 -4 1323.12 51.55
1 1 -4 1289.53 48.38
-1 1 -5 33.49 17.34
-1 1 -6 1728.68 69.38
-1 1 -7 -0.52 9.09
1 -1 -11 -4.75 6.31
-1 1 -11 -1.91 4.8
-1 -1 -11 4.41 6.54
-1 -1 -12 2433.27 80.72
-1 1 -12 2311.07 78.07
1 -1 -12 2318.86 79.59
1 1 -12 2436.01 78.15
1 -1 -13 6.28 8.67
1 1 -13 2.91 4.76
-1 1 -13 3.14 6.4
-1 -1 -13 7.36 7.95
-1 1 -14 445.51 37.87
-1 -1 -14 437.27 37.55
1 1 -14 435.89 37.82
1 -1 -14 443.27 37.36
1 -1 -15 -3.37 6.52
-1 1 -15 7.2 7.61
1 1 -15 0.54 5.9
-1 -1 -15 4.22 9.51
1 1 -16 222.97 27.82
1 -1 -16 197.37 25.95
-1 -1 -16 205.04 27.05
-1 1 -16 194.48 25.87
1 -1 -17 1.72 7.34
-1 1 -17 1.73 7.32
-1 -1 -17 3.72 7.38
1 1 -17 8.09 7.31
-1 -1 -18 2.96 6.3
1 -1 -18 7.41 7.5
1 1 -18 5.77 6.14
-1 1 -18 7.5 7.69
1 -1 -19 6.12 12.63
1 1 -19 -5.87 6.86
-1 -1 -19 -3.36 9.27
-1 1 -19 -1.11 7.22
1 -1 -20 888.98 50.6
-1 -1 -20 885.85 50.5
1 1 -20 885.08 49.1
-1 1 -20 868.61 48.57
-1 1 -21 5.18 10.79
1 1 -21 15.25 11.12
-1 -1 -21 6.68 11.47
1 -1 -21 11.52 12.68
-1 -1 -22 785.1 37.64
-2 0 -1 7.75 2.76
0 2 -1 7.16 2.8
0 2 -2 6617.55 85.88
0 2 -3 135.41 15.36
-2 0 -3 141.03 14.21
0 2 -4 738.05 37.74
-2 0 -4 757.26 36.82
0 2 -5 438.32 36.56
-2 0 -5 431.07 33.21
0 2 -6 1336.78 61.71
-2 0 -6 1351.34 60.51
0 2 -7 263.22 31.14
-2 0 -7 288.31 29.62
-2 0 -11 39.2 9.24
2 0 -11 41.61 10.77
0 2 -11 43.27 10.51
-2 0 -12 1577.62 65.08
0 -2 -12 1574.95 65.87
2 0 -12 1568.59 64.62
0 2 -12 1658.58 64.61
2 0 -13 173.74 22.97
0 -2 -13 157.76 22.95
-2 0 -13 169.51 26.62
0 2 -13 164.92 21.61
2 0 -14 156.19 22.85
0 2 -14 147.14 21.9
0 -2 -14 145.52 22.02
-2 0 -14 151.86 22.18
2 0 -15 319.86 32.36
0 2 -15 328.62 32.57
-2 0 -15 315.6 32.84
0 -2 -15 326.64 33.12
-2 0 -16 252.02 29.73
2 0 -16 256.44 30.04
0 -2 -16 230.57 29.38
0 2 -16 228.06 27.54
2 0 -17 236.97 28.39
-2 0 -17 238.73 28.83
0 -2 -17 244.09 29.95
0 2 -17 249.31 29.32
0 -2 -18 -5.91 8.77
-2 0 -18 7.8 8.79
2 0 -18 11.09 9.73
0 2 -18 -2.14 7.77
0 2 -19 15.46 11.15
0 -2 -19 6.33 7.74
2 0 -19 16.01 9.18
-2 0 -19 13.01 9.71
-2 0 -20 695.47 43.41
0 2 -20 716.4 43.68
2 0 -20 732.46 45.09
0 -2 -20 716.89 45.07
0 -2 -21 22.29 12.4
-2 0 -21 29.07 11.34
2 0 -21 28.34 12.47
0 -2 -22 621.34 33.78
1 2 0 440.89 11.55
2 1 1 5245.64 42.15
-2 1 -1 5174.27 61.49
1 2 -1 5360 58.1
1 2 -2 182.54 14.14
-2 -1 -2 193.64 12.63
-2 1 -2 139.64 12.81
-1 2 -2 139.26 13.46
-2 -1 -3 58.18 8.68
-1 2 -3 69.3 10.56
-2 1 -3 74.28 10.59
1 2 -3 53.59 9.13
-2 -1 -4 12.85 8.24
1 2 -4 13.11 8.76
-1 2 -4 9.2 9.36
-2 1 -4 14.83 10.54
-2 -1 -5 886.04 43.81
-2 1 -5 778.55 45.89
1 2 -5 869.21 47.29
-1 2 -5 822.02 48.26
-1 2 -6 200.67 25.62
-2 1 -6 204.95 25.08
1 2 -6 207.11 25.07
-2 1 -7 194.68 25.99
-1 2 -7 210.72 27.59
-2 1 -8 23.57 12.05
-1 2 -8 38.05 14.38
1 2 -11 2743.82 78.6
-2 -1 -11 2664.16 79.92
-1 2 -11 2655.34 76.99
2 -1 -11 2648.17 79.43
-1 -2 -11 2639.09 80.29
2 1 -11 2730.13 78.03
-2 1 -11 2635.64 77.51
1 -2 -11 2632.63 79.88
2 -1 -12 10.42 5.12
-1 2 -12 7.75 4.83
-2 1 -12 4.73 4.64
1 -2 -12 3.46 4.64
1 2 -12 6.73 6.6
-2 -1 -12 5.42 6.65
-1 -2 -12 3.14 5.86
2 1 -12 4.75 4.4
-2 1 -13 320.87 30.24
2 1 -13 308.93 30.58
-2 -1 -13 323.78 30.93
-1 2 -13 327.66 31.47
2 -1 -13 298.71 30.09
1 2 -13 314.2 30.02
1 -2 -13 310.77 30.93
-1 -2 -13 319.32 30.97
-2 -1 -14 106.83 19.23
-2 1 -14 105.1 18.63
1 2 -14 94.81 16.96
1 -2 -14 116.87 19.51
2 -1 -14 112.97 19.35
-1 -2 -14 106.98 20.03
-1 2 -14 101.87 18.22
2 1 -14 101.8 18.33
2 1 -15 100.46 19.23
1 2 -15 100.07 19.36
-2 1 -15 85.95 16.75
-1 2 -15 99.96 18.68
-1 -2 -15 104.23 20.84
1 -2 -15 93.87 19.25
-2 -1 -15 93.7 18.58
2 -1 -15 98.6 18.58
2 -1 -16 163.05 24.74
1 -2 -16 163.32 24.93
-2 1 -16 163.24 24.08
2 1 -16 162.91 23.62
-2 -1 -16 158.82 24.08
1 2 -16 159.66 23.41
-1 -2 -16 150.1 24.04
-1 2 -16 140.23 21.95
-2 -1 -17 112.74 21.1
2 -1 -17 114.21 20.7
1 2 -17 106.01 20.15
1 -2 -17 117.13 21.07
-1 -2 -17 109.61 20.44
2 1 -17 108.71 20.24
-2 1 -17 101.76 18.92
-1 2 -17 106.79 19.83
2 -1 -18 79.62 17.43
-1 -2 -18 78.34 17.58
1 2 -18 68.7 15.84
-2 -1 -18 70.17 16.55
1 -2 -18 76.16 17.86
-1 2 -18 66.87 14.95
2 1 -18 83.9 17.62
-2 1 -18 91.49 19.34
1 2 -19 282.85 29.75
-2 -1 -19 309.15 31.1
1 -2 -19 293.18 30.97
2 1 -19 295.06 30.87
-1 -2 -19 288.52 30.9
-1 2 -19 295.03 30.16
-2 1 -19 294.7 30.28
2 -1 -19 287.11 30.24
-2 -1 -20 9.3 10.93
-2 1 -20 12.3 8.06
-1 -2 -20 8.74 10.4
-1 2 -20 3.28 8.87
2 -1 -20 -0.53 9.82
1 2 -20 4.38 10.61
1 -2 -20 0.88 8.86
2 1 -20 6.83 7.72
-2 -1 -21 647.75 38.11
-1 -2 -21 677.34 39.53
1 -2 -21 679.64 40.3
-2 1 -21 643.06 37.38
2 -1 -21 671.03 39.12
-1 -2 -22 -1.18 5.97
-2 -1 -22 -1.56 4.32
2 2 -1 0.53 2.36
2 2 1 2.66 1.74
-2 2 -1 0.56 3.01
-2 2 -2 104.39 12.27
2 2 -2 159.12 12.72
2 2 -3 3.51 6.16
-2 2 -3 3.75 6.27
-2 2 -4 152.07 31.2
2 2 -4 110.41 25.8
-2 2 -5 -1.67 14.06
-2 2 -6 781.86 50.15
-2 2 -7 -4.05 12.62
-2 2 -8 398.56 39.42
-2 2 -9 8.52 9.57
2 -2 -11 13.89 7.05
2 2 -11 4.36 6.38
-2 2 -11 -2.77 5.35
-2 -2 -11 2.75 5.01
-2 2 -12 550.6 37.68
-2 -2 -12 564.21 39.21
2 2 -12 584.82 38.03
2 -2 -12 572.88 39.24
-2 -2 -13 -4.49 5.6
-2 2 -13 -2.53 5.29
2 2 -13 -5.07 4.62
2 -2 -13 -5.4 8.8
2 -2 -14 14.67 8.74
-2 -2 -14 16.65 8.48
-2 2 -14 3.21 7.44
2 2 -14 18.61 9.15
2 -2 -15 -8.1 9.42
-2 2 -15 -0.73 7.14
2 2 -15 -2.11 7.88
-2 -2 -15 -2.84 7.44
2 -2 -16 311.99 33.35
-2 2 -16 312.5 32.5
2 2 -16 327.49 33.72
-2 -2 -16 327.12 35.24
-2 2 -17 4.41 7.9
2 2 -17 2.35 9.01
-2 -2 -17 -2.7 7.98
2 -2 -17 -5.17 10.99
2 2 -18 17.44 8.21
-2 -2 -18 25.08 12.32
-2 2 -18 18.81 10.74
2 -2 -18 27.94 12.09
2 -2 -19 5.55 8.21
-2 -2 -19 -1.93 6.86
-2 2 -19 6.67 7.32
2 2 -19 -2.34 7.39
2 -2 -20 347.64 31.69
-2 -2 -20 330.47 30.73
2 2 -20 349.96 30.33
-2 2 -20 326.2 28.59
2 -2 -21 5.16 8.46
-2 -2 -21 3.92 6.52
2 -2 -22 240.03 21.2
-2 -2 -22 228.52 20.23
0 3 0 1923.81 39.11
0 3 -1 872.94 27.35
-3 0 -1 921.07 24
0 3 -2 676.82 28.51
-3 0 -2 671.91 25.74
-3 0 -3 661.62 30.54
0 3 -3 661.88 32.75
-3 0 -4 6122.39 109.41
0 3 -4 6287.61 118.21
0 3 -5 2103.03 73.74
-3 0 -5 2188.3 70.98
0 3 -6 1269.96 62.3
-3 0 -6 1324.33 60.5
-3 0 -7 431.69 37.95
0 3 -7 419.88 39.15
-3 0 -8 157.38 25.8
0 3 -8 139.64 24.3
0 3 -11 2040.12 67.36
-3 0 -11 1917.09 66.56
3 0 -11 1985.94 66.92
0 -3 -11 1853.36 68.97
3 0 -12 -1.78 5.24
0 -3 -12 0.47 5.21
0 3 -12 -2.06 5.26
-3 0 -12 -1.1 6.32
3 0 -13 37.98 11.34
0 -3 -13 36.53 11.88
-3 0 -13 39.57 12.17
0 3 -13 35.63 11.29
-3 0 -14 585.53 42.49
3 0 -14 634.36 44.07
0 3 -14 602.15 42.74
0 -3 -14 592.94 44.01
3 0 -15 230.45 27.86
-3 0 -15 224.33 28.09
0 -3 -15 214.8 28.63
0 3 -15 201.66 25.8
3 0 -16 1023.82 59.19
0 3 -16 962.35 56.81
0 -3 -16 1032.29 60.59
-3 0 -16 1032.39 59.58
0 -3 -17 141.85 23.7
0 3 -17 146.32 23.52
3 0 -17 147.04 23.7
-3 0 -17 150.5 24.2
0 -3 -18 467.92 40.97
0 3 -18 446.09 37.65
3 0 -18 445.52 38.38
-3 0 -18 429.86 38.33
0 3 -19 145.82 21.45
0 -3 -19 137.64 21.91
-3 0 -19 143.26 21.42
3 0 -19 161.85 23.18
3 0 -20 3.31 7.41
-3 0 -20 3.95 7.14
0 -3 -20 7.87 9.63
-3 0 -21 376.05 28.37
0 -3 -21 397.21 31.11
3 0 -21 398.59 30.32
0 -3 -22 9.54 5.35
1 3 0 5510 55.33
-1 3 -1 9.05 4.22
-3 -1 -1 10.5 2.88
1 3 -1 12.58 4.12
-3 1 -1 11.4 4.65
1 3 -2 244.36 17.14
-3 -1 -2 245.96 14.18
-3 1 -2 243.72 16.98
-1 3 -2 227.34 18.43
1 3 -3 831.88 36.58
-1 3 -3 826.1 37.66
-3 -1 -3 835.37 32.89
-3 1 -3 735.76 35.55
1 3 -4 499 37.49
-3 1 -4 378.82 32.99
-3 -1 -4 432.19 30.69
-1 3 -4 405 37.39
-1 3 -5 1160.14 55.88
-3 1 -5 1197.89 55.45
1 3 -5 1268.5 55.96
-3 -1 -5 1261.68 51.66
-3 -1 -6 613.04 40.5
-3 1 -6 549.65 40.85
1 3 -6 618.52 43.42
-1 3 -6 546.27 43.2
-1 3 -7 522.51 45.46
1 3 -7 549.34 44.5
-3 1 -7 508.89 43.12
-1 3 -8 61.3 16.65
-3 1 -8 66.71 18.07
-3 1 -9 58.75 19.05
-1 3 -9 70.68 19.69
1 3 -11 52.19 11.12
-1 -3 -11 58.02 13.71
-3 1 -11 47.46 11.77
1 -3 -11 41.82 10.66
3 1 -11 47.09 11.28
-3 -1 -11 54.28 12.38
3 -1 -11 47.32 11.62
-1 3 -11 49.44 10.8
1 -3 -12 535.37 38.64
-1 -3 -12 535.78 38.94
3 1 -12 549.57 37.49
-3 1 -12 509.45 36.5
1 3 -12 565.2 37.65
-3 -1 -12 526.43 37.39
3 -1 -12 524.17 37.09
-1 3 -12 558.02 37.54
3 -1 -13 189.95 24.34
-1 3 -13 244.24 27.9
-1 -3 -13 190.32 24.26
-3 1 -13 186.88 23.06
-3 -1 -13 177.26 23.47
1 3 -13 178.79 21.77
3 1 -13 195.64 23.75
1 -3 -13 189.88 24.64
-3 1 -14 14.29 8.88
-1 -3 -14 16.26 8.41
-1 3 -14 18.69 6.87
-3 -1 -14 15.32 8.77
3 1 -14 19.35 8.55
3 -1 -14 27.87 9.58
1 3 -14 19.42 7.85
1 -3 -14 17.53 9.38
-3 1 -15 675.61 46.93
3 1 -15 710.73 47.04
-1 3 -15 686.67 46.25
3 -1 -15 730.71 48.68
1 3 -15 691.45 47.17
-3 -1 -15 691.06 48.4
-1 -3 -15 665.33 48.13
1 -3 -15 691.57 48.53
1 3 -16 318.98 32.91
-1 3 -16 299.16 30.89
-1 -3 -16 315.83 35.23
-3 -1 -16 296.42 33.42
1 -3 -16 306.15 33.74
3 -1 -16 334.73 33.85
-3 1 -16 313.45 32.45
3 1 -16 319.26 32.79
3 -1 -17 605.64 45.79
-1 3 -17 577.97 44.83
-1 -3 -17 584.23 46.11
-3 -1 -17 574.71 45.74
-3 1 -17 605.03 45.15
3 1 -17 610.4 46.15
1 -3 -17 611.57 46.7
1 3 -17 573.9 44.98
-3 1 -18 30.28 10.58
3 1 -18 32.06 12.71
-3 -1 -18 20.29 10.37
-1 -3 -18 47.99 15.44
-1 3 -18 38.04 13.27
1 3 -18 32.14 11.4
1 -3 -18 23.47 12.67
3 -1 -18 29.51 10.95
-1 3 -19 35.45 11.28
-3 1 -19 34.96 11.39
1 -3 -19 23.9 10.65
-1 -3 -19 30.81 11.62
1 3 -19 24.84 10.64
3 -1 -19 43.25 13.84
3 1 -19 34.36 14.03
-3 -1 -19 39.75 12.96
-3 -1 -20 269.53 27.18
1 -3 -20 279.76 28.2
3 1 -20 284.84 27.94
-1 -3 -20 286.17 29.09
3 -1 -20 276.01 27.43
-1 3 -20 271.63 26.52
-3 1 -20 254.01 25.67
1 -3 -21 21.55 9.96
-1 -3 -21 24.13 8.98
-3 1 -21 28.29 8.81
-3 -1 -21 16.31 6.37
3 -1 -21 31.92 11.39
-1 -3 -22 180.37 17.86
1 -3 -22 167.43 17.06
2 3 0 694.67 16.02
-2 3 -1 465.7 24.1
-3 2 -1 428.26 23.35
-3 2 -2 467.49 24.49
2 3 -2 507.64 23.84
-2 3 -2 479.27 25.07
2 3 -3 446.48 27.62
-3 2 -3 456.63 28.1
-2 3 -3 430.14 27.22
-3 2 -4 65.66 8.68
2 3 -4 93.59 11.54
-3 2 -5 292.42 29.14
2 3 -5 257.97 25.16
-2 3 -5 306.21 30.08
-3 2 -6 163.98 24.35
2 3 -6 170.17 23.2
-2 3 -6 154.22 24.22
-2 3 -7 103.61 24.26
-3 2 -7 99.67 21.31
-2 3 -8 96.03 21.05
-3 2 -8 101.5 20.86
-3 2 -9 471.44 46.57
-2 3 -9 466.88 46.59
-3 2 -10 59.93 19.81
-2 3 -10 74.73 20.61
-2 -3 -11 121.95 18.43
2 3 -11 117.93 16.9
-2 3 -11 112.16 16.08
3 -2 -11 113.43 16.42
-3 2 -11 110.58 15.74
3 2 -11 122.17 16.91
-3 -2 -11 122.77 18.06
2 -3 -11 111.22 16.94
2 3 -12 10.21 4.94
-3 2 -12 9.36 6.21
2 -3 -12 4.86 6.85
-2 3 -12 10.55 6.15
3 2 -12 6.24 4.73
-3 -2 -12 12.57 8.6
3 -2 -12 8.4 7.89
-2 -3 -12 3.56 7.16
2 -3 -13 5.4 8.5
2 3 -13 -4.26 7.27
3 2 -13 3.93 5.46
-3 -2 -13 3.99 12.04
-2 -3 -13 5.63 6.34
-3 2 -13 -4 5.06
3 -2 -13 1.35 6.66
-2 3 -13 0.65 4.85
-3 2 -14 118.89 18.3
-2 -3 -14 111.78 19.84
2 3 -14 109.81 18.59
-3 -2 -14 96.24 18.49
2 -3 -14 115.05 19.54
-2 3 -14 114.21 17.92
3 -2 -14 109.89 18.49
3 2 -14 114.58 18.97
2 -3 -15 283.03 31.17
3 -2 -15 275.61 30.39
-3 2 -15 270.8 29.44
-3 -2 -15 283.22 32.3
-2 -3 -15 304.47 33.66
3 2 -15 309.13 31.64
-2 3 -15 284.33 29.77
2 3 -15 293.41 31.33
-2 3 -16 202.78 26.37
3 -2 -16 216.2 28.35
2 3 -16 207.93 27.23
3 2 -16 191.19 25.56
-2 -3 -16 206.96 27.78
2 -3 -16 207.58 26.96
-3 2 -16 207.66 26.36
-3 -2 -16 210.03 27.68
2 3 -17 155.18 24.12
3 2 -17 169.26 25.16
-3 2 -17 143.19 22.27
-2 -3 -17 174.95 26.96
2 -3 -17 153.91 24.9
-2 3 -17 126.8 21.16
3 -2 -17 154.63 23.05
-3 -2 -17 182.89 26.51
2 -3 -18 98.02 18.97
-2 3 -18 88.57 17.53
-2 -3 -18 82.28 17.48
3 2 -18 97.27 19.23
-3 2 -18 104.59 19.1
-3 -2 -18 89.72 18.41
3 -2 -18 92.96 19.32
2 3 -18 94.16 18.26
3 -2 -19 47.85 13.3
-2 3 -19 41.63 11.81
2 3 -19 34.97 10.22
-2 -3 -19 41.05 12.32
-3 -2 -19 44.43 13.1
2 -3 -19 54.85 14.21
-3 2 -19 40.77 11.23
3 2 -19 43.95 12.78
-2 -3 -20 1.33 5.55
3 -2 -20 4.86 6.09
-3 2 -20 3.99 5.86
2 -3 -20 1.28 6.29
-3 -2 -20 0.43 5.42
-2 3 -20 14.5 7.87
3 2 -20 10.14 7.05
3 -2 -21 55.43 11.8
-3 -2 -21 68.72 12.67
2 -3 -21 60.29 11.82
-2 -3 -21 60.07 12.37
-2 -3 -22 4.27 3.36
2 -3 -22 8.03 5.65
-3 -2 -22 2.91 4.05
-3 3 -1 2.78 5.01
3 3 -1 1.15 2.44
-3 3 -2 468.45 28.13
3 3 -2 348.16 20.73
3 3 -3 88.91 18.39
-3 3 -3 134.68 26.36
-3 3 -4 239.65 26.62
3 3 -4 205.44 21.2
-3 3 -5 5.77 7.53
-3 3 -6 9.92 9.3
-3 3 -7 3.73 9.25
-3 3 -8 118.98 26.61
-3 3 -9 11.17 10.95
-3 3 -10 86.9 21.63
-3 3 -11 -5.8 5.7
3 -3 -11 -6.66 5.8
-3 -3 -11 -5.72 7.68
3 3 -11 -1.31 5.37
3 3 -12 154.91 20.69
-3 -3 -12 154.87 21.31
3 -3 -12 157.59 21.11
-3 3 -12 138.14 19.02
3 3 -13 3.96 6.68
3 -3 -13 -5.02 7.31
-3 3 -13 2.85 5.45
-3 -3 -13 5.52 5.59
3 -3 -14 143.55 21.72
-3 3 -14 150.96 21.32
3 3 -14 164.82 22.44
-3 -3 -14 150.26 23.86
-3 3 -15 -7.81 8.6
3 -3 -15 2.56 6.73
-3 -3 -15 6.2 8.9
3 3 -15 9.8 9.13
3 3 -16 247.05 29.3
-3 3 -16 205.32 25.64
3 -3 -16 221.18 27.56
-3 -3 -16 244.82 31.17
-3 -3 -17 -8.78 9.91
3 -3 -17 -0.26 7.25
-3 3 -17 2.14 6.33
3 3 -17 1.91 8.46
3 3 -18 74.17 16.31
-3 -3 -18 60.77 13.97
-3 3 -18 70.54 16.07
3 -3 -18 69.44 17.1
-3 -3 -19 5.69 8.41
3 3 -19 -2.31 5.77
3 -3 -19 5.73 7.49
-3 3 -19 -0.56 5.42
3 -3 -20 1.04 5.38
-3 -3 -20 2.27 4.99
-3 -3 -21 1.87 4.48
3 -3 -21 5.4 5.94
3 -3 -22 12.94 5.73
-3 -3 -22 17.15 6.18
0 4 0 25 5.08
0 4 -1 7.07 4.46
-4 0 -1 4.8 3.16
-4 0 -2 39.62 8.12
0 4 -2 36.44 8.97
0 4 -3 7704.94 118.07
0 4 -4 2628.29 78.41
-4 0 -4 2553.94 70.78
0 4 -5 3106.78 93.49
-4 0 -5 3037.89 87.68
0 4 -6 1141.19 60.67
-4 0 -6 1096.79 55.87
0 4 -7 1002.76 60.77
-4 0 -7 966.76 56.97
0 4 -8 279.78 35.06
-4 0 -8 267.15 32.96
0 4 -9 39.22 16.7
0 -4 -11 43.58 12.39
-4 0 -11 44.76 10.11
4 0 -11 48.44 11.89
0 4 -11 46.75 11.17
0 -4 -12 276.45 28.83
4 0 -12 283.31 27.36
-4 0 -12 291.46 27.31
0 4 -12 303.68 27.43
-4 0 -13 175.71 23.46
4 0 -13 193.78 23.85
0 -4 -13 175.71 23.25
0 4 -13 182.84 22.62
4 0 -14 69.92 14.37
0 -4 -14 81.64 17.37
-4 0 -14 76.21 15.41
0 4 -14 83.5 16.05
0 4 -15 1554.56 69.83
4 0 -15 1556.21 71.74
0 -4 -15 1573.74 74.56
-4 0 -15 1558.58 70.75
0 -4 -16 329.23 35.16
0 4 -16 318.01 32.59
-4 0 -16 330.36 33.98
4 0 -16 317.71 33.18
-4 0 -17 1433.53 69.85
4 0 -17 1460.47 69.46
0 -4 -17 1456.38 72.42
0 4 -17 1405.93 67.63
4 0 -18 25.51 9.52
0 -4 -18 25.22 12.78
0 4 -18 33.55 12.17
-4 0 -18 27.78 11.98
4 0 -19 81.27 16.53
0 -4 -19 84.05 16.32
-4 0 -19 82.86 15.95
0 4 -19 77.85 15.93
4 0 -20 121.99 18.36
0 -4 -20 122.2 18.72
-4 0 -20 134.5 18.73
-4 0 -21 30.74 8.76
0 -4 -21 33.66 10.62
0 -4 -22 47.89 9.61
1 4 0 118.81 9.89
-1 4 -1 78.76 10.02
1 4 -1 50.73 7.4
-4 -1 -1 76.6 6.39
-4 1 -1 72.46 10.32
1 4 -2 478.63 25.69
-4 -1 -2 505.41 22.31
-1 4 -2 450.79 27.5
-4 1 -2 505.47 25.8
1 4 -3 573.18 37.17
-1 4 -3 738.48 43.03
-4 1 -3 730.35 36.92
-4 -1 -3 570.6 30.55
1 4 -4 3360.76 86.77
-1 4 -4 3531.72 91.5
-4 -1 -4 3316.29 77.24
-4 1 -4 3571.82 87.53
-1 4 -5 65.84 14.65
-4 1 -5 33.39 8.88
1 4 -5 68.05 14.12
-4 -1 -5 59.82 11.69
-1 4 -6 2374.02 90.59
-4 1 -6 2512.72 88.6
-4 -1 -6 2610.57 82.94
1 4 -6 2602.86 89.2
1 4 -7 653.65 48.71
-4 -1 -7 677.58 46.3
-1 4 -7 638.59 50.19
-4 1 -7 611.12 46.84
-4 1 -8 218.05 30.29
1 4 -8 217.53 31.68
-1 4 -8 209.27 30.64
-4 1 -9 128.42 25.03
-1 4 -9 130.07 24.98
-1 4 -10 44.93 18.36
-1 -4 -11 340.47 30.8
1 4 -11 342.3 27.97
1 -4 -11 361.75 30.41
-1 4 -11 331.26 27.89
-4 1 -11 316.91 26.88
4 1 -11 324.02 27.46
-4 -1 -11 325.67 27.38
4 -1 -11 344.45 28.14
-4 -1 -12 1.54 5.41
-1 -4 -12 2.18 4.89
4 -1 -12 7.02 5.99
-1 4 -12 1.58 4.87
4 1 -12 10.45 6.95
1 4 -12 9.32 7.77
1 -4 -12 -1.7 5.73
-4 1 -12 8.54 5.9
1 4 -13 6.39 7.36
-1 -4 -13 -3.62 5.75
-4 -1 -13 -9.78 8.31
1 -4 -13 -4.19 8.31
-4 1 -13 1.76 4.83
4 -1 -13 -0.21 5.17
-1 4 -13 5.77 7.25
4 1 -13 4.8 7.5
-1 -4 -14 608.47 45.52
-4 1 -14 622.13 43.52
1 4 -14 647.5 43.77
-4 -1 -14 603.54 44.89
4 -1 -14 639.64 44.23
1 -4 -14 617.11 45.25
4 1 -14 665.84 44.47
-1 4 -14 643.9 43.21
-4 1 -15 246.56 28.59
4 -1 -15 242.01 29.12
1 -4 -15 259.43 30.35
1 4 -15 257.91 28.85
4 1 -15 256.9 29.66
-4 -1 -15 258.86 29.36
-1 4 -15 260.74 28.77
-1 -4 -15 237.93 30.29
-4 1 -16 1456.09 69.13
-4 -1 -16 1429.13 70.71
-1 -4 -16 1461.48 72.66
1 -4 -16 1460.28 72.4
1 4 -16 1473.57 69.22
4 -1 -16 1494.09 71.06
-1 4 -16 1442.17 68.95
4 1 -16 1500.53 70.06
-4 -1 -17 137.22 23.28
1 4 -17 139.21 23.01
-1 -4 -17 146.51 24.1
4 -1 -17 134.56 22.07
-4 1 -17 131.44 21.35
4 1 -17 141.33 23.52
-1 4 -17 121.58 20.4
1 -4 -17 134.29 23.12
4 -1 -18 559.78 42.42
-4 1 -18 524.12 41
4 1 -18 525.95 42.32
1 -4 -18 535.96 43.32
-1 -4 -18 546.21 44.18
-4 -1 -18 516.19 41.67
-1 4 -18 525.02 41.07
1 4 -18 510.33 41.13
4 -1 -19 26.03 9.21
1 -4 -19 33.87 11.86
-1 -4 -19 35.82 12.64
4 1 -19 24.97 9.86
1 4 -19 31.69 11.42
-1 4 -19 35.43 10.6
-4 -1 -19 29.52 11.5
-4 1 -19 28.05 11.01
4 1 -20 14.14 6.91
-1 -4 -20 7.09 6.43
-4 -1 -20 2.35 5.78
1 -4 -20 20.03 10.43
-4 1 -20 23.9 9.47
4 -1 -20 14.11 9.6
-4 -1 -21 32.57 9.09
4 -1 -21 39.08 10.04
-1 -4 -21 41.85 10.69
1 -4 -21 37.9 10.55
-1 -4 -22 5.16 3.89
1 -4 -22 15.27 5.8
2 4 0 263.1 12.37
-4 2 -1 31.15 7.71
2 4 -1 20.47 6.07
-4 -2 -1 19.71 3.11
-2 4 -1 27.63 7.35
-2 4 -2 492.64 28.84
-4 -2 -2 686.83 22.28
-4 2 -2 495.79 28.39
2 4 -2 665.69 29.54
-4 2 -3 152.4 23.96
2 4 -3 220.73 27.04
-4 -2 -3 161.27 17.59
-2 4 -3 198.11 28
-2 4 -4 1168.72 52.55
-4 -2 -4 1412.07 46.24
-4 2 -4 1175.91 50.8
2 4 -4 1394.87 53.68
-2 4 -5 1355.27 64.87
2 4 -5 1536.48 62.31
-4 2 -5 1444.01 63.99
2 4 -6 90.14 17.95
-2 4 -6 59.54 14.7
-4 2 -6 69.19 17.41
-4 2 -7 729.12 53.06
-2 4 -7 726.43 53.98
2 4 -7 802.19 52.7
-4 2 -8 261.79 33.86
-2 4 -8 250.38 34.39
-4 2 -9 60.58 19.42
-2 4 -9 52.86 16.88
-2 4 -10 -7.14 15.31
-4 2 -10 13.41 9.35
2 4 -11 116.68 16.66
4 -2 -11 102.35 16.56
-2 -4 -11 101.46 17.6
-2 4 -11 87.6 14.58
4 2 -11 105.14 15.69
-4 -2 -11 104.53 16.33
-4 2 -11 81.27 13.96
2 -4 -11 78.03 14.23
-2 4 -11 95.41 24.96
4 -2 -12 25.64 8.68
4 2 -12 21.07 8.77
2 -4 -12 33.22 9.79
-2 -4 -12 32.22 10.34
-4 -2 -12 22.09 9.19
-2 4 -12 29 10.62
2 4 -12 29.23 10.32
-4 2 -12 31.28 10.32
-2 4 -13 193.44 23.11
4 2 -13 194.66 23.38
2 -4 -13 187.21 24.07
-4 2 -13 183 23.54
-4 -2 -13 179.63 23.41
-2 -4 -13 171.09 23.41
2 4 -13 184.8 22.98
4 -2 -13 192.58 24.48
-4 -2 -14 102.59 20.02
2 4 -14 111.09 18.59
-2 -4 -14 104.15 18.36
4 2 -14 113.4 18.73
2 -4 -14 103.82 18.3
4 -2 -14 91.9 17.57
-4 2 -14 99.77 17.3
-2 4 -14 108.13 18.1
-2 4 -15 550.5 41.63
4 -2 -15 569.89 44.26
-4 2 -15 593.05 42.91
-4 -2 -15 554.05 44.5
-2 -4 -15 558.71 45.05
4 2 -15 581.86 43.12
2 -4 -15 573.8 44.78
2 4 -15 587.57 43.05
2 -4 -16 182.46 24.95
4 2 -16 223.4 27.42
-4 -2 -16 208.37 28.06
2 4 -16 221.59 27.95
-2 4 -16 197.51 25.34
4 -2 -16 199.2 26.1
-4 2 -16 179.4 24.16
-2 -4 -16 207.85 29.61
4 2 -17 516.49 40.69
-2 4 -17 490.6 39.35
4 -2 -17 522.4 42.55
-2 -4 -17 504.06 43.43
-4 -2 -17 521.67 43.06
2 -4 -17 512.7 42.8
2 4 -17 493.91 40.69
-4 2 -17 491.88 39.58
-4 -2 -18 55.6 14.31
4 -2 -18 52.1 14.45
-4 2 -18 50.7 13.63
2 -4 -18 61.54 15.65
4 2 -18 61.33 15.44
2 4 -18 56.4 14.55
-2 -4 -18 61.37 15.92
-2 4 -18 55.37 13.76
4 -2 -19 17.53 9.41
-2 -4 -19 15.73 7.71
4 2 -19 20.6 8.83
-4 2 -19 16.16 7.91
-2 4 -19 15.56 8.45
-4 -2 -19 14.41 9.1
2 -4 -19 24.62 10.95
-4 2 -20 -4.79 6.22
-2 -4 -20 -0.94 5.78
4 -2 -20 0.69 6.01
-4 -2 -20 1.25 4.84
2 -4 -20 -10.88 9.73
2 -4 -21 39.33 10.47
-4 -2 -21 34.64 10.16
-2 -4 -21 42.69 10.85
4 -2 -21 36.25 9.99
2 -4 -22 8.15 4.17
-4 -2 -22 9.63 4.68
-2 -4 -22 9.02 5.74
3 4 0 227.96 10.58
-3 4 -1 1401.57 48.47
-4 3 -1 1411.33 46.92
-4 3 -2 299.05 28.76
-3 4 -2 295.66 30.62
3 4 -2 309.36 22.84
3 4 -3 2290.45 60.15
-3 4 -3 2203.05 65.63
-4 3 -3 2195.28 65.47
-3 4 -4 274.79 27.3
-4 3 -4 311.9 27.11
-4 3 -5 117.64 21.07
3 4 -5 152.66 20.2
-3 4 -5 100.47 19.23
-4 3 -6 54.51 14.84
-3 4 -6 51.48 16.63
-3 4 -7 77.73 18.58
-4 3 -7 67.8 16.29
-3 4 -8 231.66 33.48
-4 3 -8 249.14 34.68
-3 4 -9 119.57 26.75
-4 3 -9 111.29 24.53
-3 4 -10 84.87 23.05
-4 3 -10 78.27 21.9
-4 3 -11 663.22 62.62
4 3 -11 594.41 36.7
3 4 -11 591.45 37.05
-3 -4 -11 559.76 39.73
-3 4 -11 640.19 63.26
-4 3 -11 593.5 36.3
4 -3 -11 614.14 38.47
-4 -3 -11 574.65 38.57
-3 4 -11 582.55 37.59
3 -4 -11 626.09 39.69
3 -4 -12 10.01 7.73
-3 -4 -12 11.95 8.13
4 -3 -12 14.1 7.18
-4 3 -12 6.54 5.31
3 4 -12 8.44 5.35
-3 4 -12 8.25 6.5
-4 -3 -12 6.51 6.69
4 3 -12 16.53 10.19
3 -4 -13 372.14 33.66
4 3 -13 400.81 33.47
-3 -4 -13 372.14 35.13
3 4 -13 396.26 32.75
-4 -3 -13 375.22 34.34
-3 4 -13 361.13 31.28
4 -3 -13 363.38 33.17
-4 3 -13 361.28 31.17
3 -4 -14 43.73 13.62
-3 -4 -14 35.44 12.81
-4 -3 -14 40.5 12.03
4 -3 -14 42.05 12.83
-4 3 -14 33.25 11.21
-3 4 -14 39.27 11.39
4 3 -14 47.82 12.19
3 4 -14 40.77 12.28
4 3 -15 183.82 25.95
4 -3 -15 183.77 25.71
-3 4 -15 149.54 22.18
3 4 -15 203.39 26.19
-3 -4 -15 187.67 27.41
-4 -3 -15 180.46 26.82
-4 3 -15 172.07 23.95
3 -4 -15 171.96 24.76
3 -4 -16 111.83 20.8
3 4 -16 114.68 19.04
-4 3 -16 120.43 20.1
-3 4 -16 112.75 18.63
-3 -4 -16 111.82 19.92
4 3 -16 103.62 20.28
4 -3 -16 124.55 21.55
-4 -3 -16 117.52 21.89
3 -4 -17 58.14 14.9
-4 -3 -17 65.05 16.33
4 3 -17 78.41 17.28
4 -3 -17 68.57 15.91
-4 3 -17 54.12 13.93
-3 -4 -17 68.07 17.05
-3 4 -17 58.5 13.52
3 4 -17 63.24 15.82
-3 4 -18 61.78 14.19
4 3 -18 59.8 14.77
-3 -4 -18 58.53 14.16
3 -4 -18 65.56 17.77
3 4 -18 66.13 15.95
-4 -3 -18 79.68 17.63
4 -3 -18 68.22 16.07
-4 3 -18 62.17 14.32
4 -3 -19 39.98 11.17
-4 -3 -19 47.98 13.87
-3 4 -19 32.1 10.45
-4 3 -19 37.96 11.31
3 -4 -19 34.82 10.7
-3 -4 -19 51.23 14.12
-4 -3 -20 8.76 7.91
4 -3 -20 11.5 8.83
-3 -4 -20 6.93 7.75
3 -4 -20 12.03 8.69
-3 -4 -21 150.35 18.93
3 -4 -21 175.82 20.56
-4 -3 -21 164.6 19.2
4 -3 -21 159.83 18.66
3 -4 -22 5.28 3.54
-4 -3 -22 9.85 5.18
-3 -4 -22 10.38 4.77
-4 4 -1 42.53 20.24
-4 4 -2 2640.47 72.22
-4 4 -3 -12.15 12.6
-4 4 -4 163.35 22.73
-4 4 -5 -4.48 10.51
-4 4 -6 174.44 28.12
-4 4 -7 0.19 10.12
-4 4 -8 465.89 48.65
-4 4 -9 -8.2 14.42
-4 4 -10 1292.7 84.51
4 4 -10 1191.25 49.03
4 4 -11 -0.01 4.11
-4 4 -11 3.6 9.08
4 -4 -11 0.93 4.35
-4 -4 -11 -1.28 6.99
-4 4 -11 -2.75 4.68
4 -4 -12 1430.06 62.73
-4 4 -12 1435.66 59.76
-4 -4 -12 1405.87 64.78
4 4 -12 1456.26 60.16
-4 4 -13 1.8 5.11
4 -4 -13 2.93 5.81
-4 -4 -13 -8.34 7.85
4 4 -13 4.13 6.07
4 -4 -14 191.61 25.15
-4 4 -14 193.14 23.65
-4 -4 -14 203.32 27.09
4 4 -14 211.89 25.64
-4 4 -15 -2.78 5.91
4 -4 -15 -6.14 8.3
4 4 -15 -1.23 6.69
-4 -4 -15 1.03 7.87
4 -4 -16 27.74 12.89
-4 4 -16 7.88 6.8
-4 -4 -16 18.1 10.03
4 4 -16 16.86 9.01
4 -4 -17 1.11 6.73
-4 -4 -17 2.9 6.15
4 4 -17 -2.1 5.57
-4 4 -17 1.41 6.2
-4 4 -18 112.11 18.44
4 4 -18 123.81 20.32
-4 -4 -18 110.56 20.29
4 -4 -18 101.53 18.86
4 -4 -19 7.84 7.29
-4 -4 -19 -10.14 7.74
4 -4 -20 407.2 33.28
-4 -4 -20 389.18 32.31
-4 -4 -21 -10.48 5.59
4 -4 -21 -1.17 5.65
-4 -4 -22 337.22 22.41
0 5 0 1622.8 46.08
0 5 -1 373.88 22.52
-5 0 -1 367.34 20.27
-5 0 -2 137.66 17.51
0 5 -2 184 26.48
0 5 -3 447.36 31.74
-5 0 -3 431.05 27.09
-5 0 -4 9999 143.26
-5 0 -5 60.05 13.75
0 5 -5 68.86 16.06
0 5 -6 5092.03 134.74
-5 0 -6 5208.2 125.75
-5 0 -7 1824.25 77.63
0 5 -7 1814.08 83.55
0 5 -8 1278.73 75.49
-5 0 -8 1351.92 72.05
-5 0 -9 34.2 12.88
0 5 -9 34.1 15.31
0 5 -10 174 31.32
-5 0 -11 294.66 26.7
5 0 -11 302.07 26.08
0 -5 -11 282.94 28.72
0 5 -11 275.5 25.77
0 -5 -12 36.01 12.84
5 0 -12 32.48 9.42
-5 0 -12 28.8 10.03
0 5 -12 35.41 10.33
0 -5 -13 14.53 9.19
5 0 -13 15.06 8.3
-5 0 -13 10.21 5.46
0 5 -13 12.56 7.64
0 5 -14 707.72 45.02
-5 0 -14 658.16 44.92
5 0 -14 700.57 45.64
0 -5 -14 657.44 48.07
-5 0 -15 156.6 23.75
0 5 -15 172.63 25.29
0 -5 -15 165.49 26.59
5 0 -15 162.48 23.71
5 0 -16 2244.35 86.41
0 5 -16 2255.74 84.94
-5 0 -16 2239.11 85.5
0 -5 -16 2288.22 91.75
0 5 -17 55.41 14.35
0 -5 -17 44.67 15.13
-5 0 -17 45.75 15.6
5 0 -17 48.56 15.36
0 -5 -18 779.13 52.43
-5 0 -18 758.5 48.72
0 5 -18 752.65 48.93
5 0 -18 791.73 49.77
5 0 -19 32.72 11.49
-5 0 -19 23.51 9.52
0 -5 -19 32.77 11.97
0 -5 -20 10.64 5.97
5 0 -20 12.18 6.51
-5 0 -20 9.99 5.64
-5 0 -21 0.07 3.75
0 -5 -21 -3.36 5.07
0 -5 -22 17.35 6.58
-1 5 0 332.07 23.37
1 5 0 430.77 21.34
-5 -1 -1 551.73 19.86
1 5 -1 551.46 24.33
-1 5 -1 467.22 26.28
-5 1 -1 482.13 24.74
-5 -1 -2 384.9 23.09
1 5 -2 424.49 31.29
-5 1 -2 456.06 29.85
-5 -1 -3 3074.96 66.13
-1 5 -3 3182.83 82.95
-5 1 -3 3071.95 74.08
1 5 -3 3209.15 77.71
-5 -1 -4 177.31 19.62
-5 1 -4 204.82 22.25
1 5 -4 197.34 22.5
-1 5 -4 226.89 25.03
-5 1 -5 5630.62 123
-5 -1 -5 5346.43 111.53
1 5 -5 5473.24 125.82
-1 5 -5 5471 130.81
-1 5 -6 723.25 50.77
1 5 -6 808.61 52
-5 -1 -6 788.3 45.84
-5 1 -6 688.09 48.08
-1 5 -7 1904.94 88.04
-5 1 -7 1897.95 84.37
-5 -1 -7 1981.2 78.81
1 5 -7 1933.67 84.95
-5 1 -8 810.13 57.46
-1 5 -8 841.29 62.25
1 5 -8 912.25 61.71
-5 1 -9 10.7 11.74
-1 5 -9 5.26 8.82
1 5 -9 5.42 10.05
-5 1 -10 37.91 17.26
-1 5 -10 50.72 19.45
1 5 -11 198.7 22.11
1 -5 -11 169.55 22.01
5 1 -11 191.24 21.98
-1 5 -11 175.86 20.57
-1 5 -11 185.92 32.75
-1 -5 -11 185.78 24.08
-5 -1 -11 205.71 22.72
-5 1 -11 182.71 20.95
5 -1 -11 180.04 21.29
-1 -5 -12 63.32 15.71
1 -5 -12 56.81 14.29
-5 -1 -12 64.79 14.02
1 5 -12 56.47 13.23
-1 5 -12 54.83 12.75
-5 1 -12 58.71 12.77
5 -1 -12 62.65 13.03
5 1 -12 62.11 13.63
1 5 -13 168.14 22.25
-5 -1 -13 164.29 22.39
-1 5 -13 180.35 22.73
5 -1 -13 175.7 22.83
-1 -5 -13 159.92 23.7
-5 1 -13 164.2 22.02
5 1 -13 173.76 21.55
1 -5 -13 171.41 23.79
1 5 -14 41.25 12.57
5 1 -14 48.74 13.13
5 -1 -14 43.19 12.31
1 -5 -14 41.44 12.77
-1 -5 -14 44.53 14.16
-5 -1 -14 37.45 11.92
-5 1 -14 37.64 11.9
-1 5 -14 29.92 10.22
5 -1 -15 1450.09 68.16
-1 5 -15 1393.82 66.39
-1 -5 -15 1392.94 71.41
1 -5 -15 1377.01 70.99
-5 -1 -15 1349.08 67.02
-5 1 -15 1403.11 65.97
5 1 -15 1417.69 67.52
1 5 -15 1391.13 66.72
5 -1 -16 159.97 24.47
5 1 -16 164.38 23.75
-1 5 -16 154.91 22.43
-5 1 -16 142.39 22.52
1 -5 -16 144.63 24.36
-5 -1 -16 156.44 24.34
-1 -5 -16 160.06 26.44
1 5 -16 169 24.71
1 5 -17 1342.76 65.25
-1 -5 -17 1374.85 71.18
1 -5 -17 1362.74 69.92
5 -1 -17 1366.04 67.55
-5 1 -17 1332.31 65.42
-1 5 -17 1342.64 64.67
5 1 -17 1360.28 67.82
-5 -1 -17 1338.16 67.05
-5 1 -18 11.82 9.16
-5 -1 -18 21.96 11.58
5 -1 -18 8.48 7.32
-1 5 -18 21.91 10.24
-1 -5 -18 17.89 10.29
5 1 -18 12.61 8.42
1 5 -18 17.59 11
1 -5 -18 16.21 10.76
5 -1 -19 38.64 11.92
5 1 -19 45.97 12.9
-1 -5 -19 43.73 13.48
1 -5 -19 39.25 12.12
-5 -1 -19 37.14 11.32
-5 1 -19 47.54 13.08
5 -1 -20 1.46 4.96
-5 -1 -20 -1.74 4.37
1 -5 -20 10.79 8.61
-1 -5 -20 -4.59 8.53
-5 1 -20 -2.23 5.11
1 -5 -21 48.07 10.63
-5 -1 -21 57.58 11.3
-1 -5 -21 42.54 10.79
-1 -5 -22 -5.76 5.13
5 1 -22 -1.36 2.82
2 5 0 1217.28 32.4
-2 5 0 1067.72 43.39
2 5 -1 895.72 33.04
-2 5 -1 1194.03 49.87
-5 2 -1 1187.6 46.13
-5 -2 -2 572.05 21.35
2 5 -2 553.86 27.93
-5 2 -2 507.44 29.23
-2 5 -2 550.03 30.71
2 5 -3 562.87 34.31
-2 5 -3 407.34 32.48
-5 2 -3 357.09 28.86
-5 -2 -3 558.48 27.19
-2 5 -4 1078.31 53.91
2 5 -4 1014.05 48.82
-5 -2 -4 941.22 39.2
-5 2 -4 1003.16 50.71
-5 -2 -5 491.02 32.87
-2 5 -5 447.18 37.78
2 5 -5 560.54 39.82
-5 2 -5 425.19 34.89
-5 2 -6 2008.86 84
2 5 -6 2217.75 84.23
-2 5 -6 2020.48 86.35
2 5 -7 529.27 43.55
-2 5 -7 469.61 43.52
-5 2 -7 458.4 43.01
-5 2 -8 364.57 41.43
-2 5 -8 368.68 43.12
2 5 -8 406.44 41.98
-5 2 -9 133.64 25.16
-2 5 -9 135.93 27.12
-5 2 -10 172.75 31.69
-2 5 -10 198.4 35.24
2 -5 -11 111.19 18.33
-5 -2 -11 105.42 16.54
2 5 -11 107.37 15.68
-5 2 -11 105.4 15.82
5 2 -11 111.28 17.3
-2 5 -11 114 16.04
-2 -5 -11 100.87 17.73
-2 5 -11 115.9 27.07
5 -2 -11 108.05 16.29
-2 -5 -12 79 16.42
2 5 -12 76.01 14.98
5 -2 -12 57.92 14.46
-5 -2 -12 74.82 15.41
-5 2 -12 55.25 13.25
2 -5 -12 54.06 14.06
5 2 -12 73.89 14.37
-2 5 -12 58.51 12.96
-2 5 -13 72.05 15.09
2 -5 -13 65.16 15.63
-5 2 -13 62.64 13.84
5 2 -13 68.7 14.07
-5 -2 -13 69.09 15.26
5 -2 -13 72.51 14.77
2 5 -13 71.2 14.67
-2 -5 -13 67.77 15.41
2 -5 -14 317.98 32.27
-2 5 -14 308.23 30.24
-2 -5 -14 273.89 30.57
-5 -2 -14 287.12 31.64
5 2 -14 306.69 30.02
-5 2 -14 300.7 30.27
2 5 -14 297.08 29.65
5 -2 -14 293.94 31.18
2 5 -15 101.84 19.61
5 -2 -15 91.81 21.06
2 -5 -15 84.26 18.71
-5 -2 -15 85.46 18.02
-2 5 -15 84.2 16.85
-5 2 -15 81.9 17
-2 -5 -15 91.34 20.83
5 2 -15 96.52 18.92
-5 2 -16 943.45 54.16
-5 -2 -16 975.62 57.48
-2 5 -16 915.86 54.86
2 5 -16 954.72 56.28
5 2 -16 956.03 57.09
2 -5 -16 966.44 59.37
-2 -5 -16 985.89 61.81
5 -2 -16 953.96 57.56
2 5 -17 34.48 12.12
-5 2 -17 31.24 12.76
-5 -2 -17 19.73 9.97
-2 -5 -17 24.78 9.53
-2 5 -17 20.88 9.47
2 -5 -17 31.12 13.43
5 -2 -17 31.73 12.85
5 2 -17 25.12 9.88
5 2 -18 306.8 30.89
5 -2 -18 320.07 32.42
-5 2 -18 321.23 30.89
-2 5 -18 313.52 30.28
2 -5 -18 304.6 33.46
-5 -2 -18 300.71 32.12
-2 -5 -18 293.06 32.11
2 -5 -19 17.17 9.43
-5 2 -19 19.4 8.76
5 -2 -19 1.2 5.85
-2 -5 -19 9.42 6.42
-5 -2 -19 19.83 9.23
5 2 -19 16.54 6.88
2 -5 -20 32.77 10.73
-2 -5 -20 22.98 9.94
-5 -2 -20 35.65 11.02
5 -2 -20 42.02 13.33
-5 2 -20 23.93 7.89
-5 -2 -21 74.77 11.97
2 -5 -21 82.1 13.88
-2 -5 -21 79.4 13.97
5 -2 -21 95.02 14.35
5 2 -22 20.83 4.87
-2 -5 -22 31.98 7.61
3 5 0 290.6 14.32
3 5 -1 404.47 18.71
-5 3 -1 393.26 25.17
3 5 1 359.95 13.46
-3 5 -1 416.19 26.29
-3 5 -2 208.7 24.77
-5 3 -2 202.72 22.52
3 5 -2 258.95 21.5
-3 5 -3 209.54 21.44
3 5 -3 265.12 21.33
-5 3 -3 192.68 20.79
3 5 -4 1210.88 51.27
-5 3 -4 1103.51 53.28
-3 5 -4 1153.81 55.61
-3 5 -5 67.91 16.46
-5 3 -5 70.71 15.96
3 5 -5 90.16 15.02
3 5 -6 135.66 23.09
-5 3 -6 105.2 23.15
-3 5 -6 116.26 25.98
-5 3 -7 554.59 48.2
3 5 -7 586.56 47.33
-3 5 -7 512.53 48.32
-5 3 -8 508.71 49.92
-3 5 -8 515.93 51.09
-3 5 -9 101.51 23.55
-5 3 -9 104.78 24.03
-5 3 -10 1216.38 81.27
3 5 -10 1171.86 48.46
5 3 -10 1094.03 47.99
-3 5 -10 1157.63 82.81
-3 -5 -11 175.28 23.03
-3 5 -11 154.8 30.07
3 -5 -11 136.74 19.31
3 5 -11 168.69 20.97
-5 3 -11 148.72 31.46
5 3 -11 172.62 21
-5 3 -11 147.04 18.67
-5 -3 -11 170.24 21.87
5 -3 -11 154.51 19.32
-3 5 -11 145.08 18.34
-5 -3 -12 856.6 49.47
5 -3 -12 904.09 49.47
-3 -5 -12 922.43 52.83
3 -5 -12 885.07 50.37
5 3 -12 876.39 47.17
3 5 -12 925.36 48.88
-3 5 -12 965.28 81.84
-5 3 -12 854.47 47.08
-3 5 -12 903.89 47.43
5 3 -13 33.68 11.3
-5 3 -13 32.27 11.12
-5 -3 -13 35.77 10.91
5 -3 -13 39.43 12.31
3 5 -13 33.01 11.05
3 -5 -13 34.83 13.17
-3 -5 -13 26.24 11.03
-3 5 -13 37.31 11.6
5 -3 -14 118.91 19.63
-5 3 -14 113.53 18.63
5 3 -14 131.84 20.48
-5 -3 -14 117.59 21.25
-3 5 -14 113.08 18.22
3 5 -14 138.43 20.86
3 -5 -14 120.72 20.15
-3 -5 -14 134.57 23.14
-3 5 -15 212.11 25.86
3 5 -15 196.21 25.67
-5 3 -15 181.46 23.09
-3 -5 -15 203.23 27.39
-5 -3 -15 207.58 27.31
5 -3 -15 224.13 27.44
3 -5 -15 188.58 25.73
5 3 -15 213.81 26.24
3 5 -16 19.36 6.14
3 -5 -16 32.12 12.89
5 -3 -16 31.86 13.93
-5 -3 -16 30.53 12.39
-3 5 -16 29.81 11.53
-3 -5 -16 17.41 10.08
5 3 -16 26.87 10.26
-5 3 -16 21.71 10
3 5 -17 256.39 28.44
-5 3 -17 278.05 29.7
-3 5 -17 242.94 27.25
-3 -5 -17 247.5 29.88
-5 -3 -17 263.12 30.44
5 3 -17 268.82 29.85
3 -5 -17 271.28 30.89
5 -3 -17 271.97 30.41
-5 -3 -18 51.22 13.81
-3 -5 -18 58.08 15.17
-5 3 -18 59.06 12.98
5 -3 -18 51.33 14.09
5 3 -18 61.64 15.03
-3 5 -18 42.2 12.4
3 -5 -18 53.46 13.4
-5 3 -19 11.58 8.01
5 -3 -19 6.02 7.92
3 -5 -19 1.12 7.82
-5 -3 -19 1.07 6.33
-3 -5 -19 -9.9 8.23
-5 -3 -20 305.63 27.49
5 -3 -20 310.81 27.81
-3 -5 -20 304.18 29
3 -5 -20 320.27 29.41
3 -5 -21 67.27 13.06
-5 -3 -21 69.17 12.94
5 -3 -21 72.02 13.82
-3 -5 -21 61.38 11.75
5 3 -22 246.71 18.19
-3 -5 -22 248.97 19.75
3 -5 -22 256.36 20.09
4 5 0 154.25 7.92
-4 5 -1 3756.3 91.81
4 5 -1 3736.5 52.34
-5 4 -1 3708.59 88.38
-4 5 -2 434.24 32.77
-5 4 -2 456.42 32.66
-4 5 -3 835.97 46.6
4 5 -3 761.87 35.17
-5 4 -3 797.62 45.39
-5 4 -4 76.18 17.28
-4 5 -4 76.81 17.9
4 5 -4 120.74 16.51
-5 4 -5 233.48 28.67
-4 5 -5 244.24 29.77
-4 5 -6 31.88 13.45
-5 4 -6 51.07 14.63
-5 4 -7 91.12 23.22
-4 5 -7 88.88 23.22
-4 5 -8 2.08 10.04
-5 4 -8 -0.94 11.24
-4 5 -9 1117.8 79.13
-5 4 -9 1082.91 78.04
4 5 -10 42.32 9.86
5 4 -10 42.76 9.95
4 -5 -10 39.06 9.83
-4 5 -10 28.76 10.65
-5 4 -10 43.93 16.03
5 4 -11 2579.64 76.91
-4 5 -11 2653.11 130.9
-5 4 -11 2611.68 76.65
4 -5 -11 2580.15 82.04
-5 -4 -11 2515.47 84.42
-4 -5 -11 2524.92 86.33
4 5 -11 2670.3 77.84
5 -4 -11 2566.03 79.79
-5 4 -11 2677.95 128.68
-4 5 -11 2636.81 75.73
4 -5 -12 1.32 5.62
-4 -5 -12 31.79 22.09
-5 4 -12 8.89 12.47
4 5 -12 6.57 6.65
5 4 -12 3.2 5.92
-5 -4 -12 1.91 9.02
-5 4 -12 3.26 4.17
5 -4 -12 4.34 6.1
-4 5 -12 6.06 5.45
-4 5 -12 -0.29 12.54
-5 4 -13 545.98 38.21
5 4 -13 596.19 40.36
4 5 -13 573.99 40.26
4 -5 -13 561.68 41.85
-4 5 -13 556.59 38.66
-4 -5 -13 585.43 44.59
-5 -4 -13 557.1 42.3
5 -4 -13 566.78 41.22
4 5 -14 2.31 6.17
-5 -4 -14 -5.6 7.52
5 4 -14 -2.59 7.6
4 -5 -14 11.45 9.66
-4 -5 -14 -3 9.58
-4 5 -14 -2.67 6.28
-5 4 -14 6.22 6.02
5 -4 -14 29.77 12.71
4 -5 -15 26.54 14.61
5 4 -15 7.62 7.65
4 5 -15 8.34 9.09
5 -4 -15 -7.72 7.31
-4 -5 -15 13.01 10.57
-4 5 -15 9.22 7.21
-5 4 -15 11.95 8.08
-5 -4 -15 8.5 6.61
-5 4 -16 34.79 10.14
-4 -5 -16 30.3 11.14
4 -5 -16 24.85 11.18
4 5 -16 34.38 11.78
-5 -4 -16 30.02 11.62
-4 5 -16 34.25 10.95
5 -4 -16 29.79 11.23
5 4 -16 39.46 11.4
-5 4 -17 15.32 8.4
5 -4 -17 7.79 5.79
-5 -4 -17 10.42 9.06
-4 5 -17 20.29 9.14
4 -5 -17 26.67 12.02
-4 -5 -17 6.57 6.69
5 4 -17 7.82 6.05
5 -4 -18 13.49 9.05
-5 4 -18 21.14 10.07
-4 -5 -18 16.44 8.42
-5 -4 -18 10.22 8.46
4 -5 -18 17.31 9.85
-4 -5 -19 360 32.67
5 -4 -19 354.25 31.81
4 -5 -19 368.38 33.38
-5 -4 -19 332.12 32.02
4 -5 -20 26.24 11.16
-5 -4 -20 9.1 7.32
5 -4 -20 21.68 10.75
-4 -5 -20 4.8 5.68
5 -4 -21 674.41 36.24
4 -5 -21 668.11 36.73
-4 -5 -21 635.59 35.93
-5 -4 -21 623.25 34.68
5 4 -22 16.51 5.54
4 5 -22 10.75 4.38
4 -5 -22 18.29 6.04
-4 -5 -22 3.1 3.64
-5 5 -1 2.37 7.61
-5 5 -2 4587.84 107.16
-5 5 -3 5.69 6.93
-5 5 -4 286.65 31.7
-5 5 -5 8.51 11.95
-5 5 -6 40.26 14.92
-5 5 -7 4.97 10.11
-5 5 -8 78.24 21.35
-5 5 -9 -3.8 12.5
5 -5 -10 2997.32 82.6
-5 5 -10 3183.34 139.6
5 5 -10 3034.77 79.56
5 5 -11 -1.75 4.65
-5 -5 -11 0.43 5.69
-5 5 -11 -14 18.26
-5 5 -11 -4.75 6.33
5 -5 -11 -0.03 8.41
-5 5 -12 2530.83 134.92
5 -5 -12 2528.97 84.06
-5 5 -12 2508.04 77.24
-5 -5 -12 2527.94 88.99
5 5 -12 2442.34 80.49
5 5 -13 -1.33 6.1
-5 5 -13 -2.75 5.78
5 -5 -13 -4.05 8.33
-5 -5 -13 -7.16 9.87
5 -5 -14 72.8 13.02
-5 -5 -14 125.42 21.77
-5 5 -14 140.1 20.61
5 5 -14 137.95 21.03
-5 5 -15 1.48 5.75
5 5 -15 8.52 10.42
5 -5 -15 11.64 8.94
-5 -5 -15 8.94 7.36
5 5 -16 226.24 27.35
-5 5 -16 237.33 26.64
-5 -5 -16 244.51 29.93
5 -5 -16 251.3 29.41
-5 5 -17 -2.03 5.54
-5 -5 -17 6.54 7.12
5 -5 -17 -3.33 6.41
5 -5 -18 118.2 19.46
-5 -5 -18 130.03 21.06
5 -5 -19 -0.21 4.99
-5 -5 -19 -16.02 11.11
5 -5 -20 772.06 43.11
-5 -5 -20 694.22 41.82
5 -5 -21 5.78 6.98
-5 -5 -21 -18.94 6.91
5 5 -22 470.53 24.84
0 6 0 4931.01 87.15
0 6 -1 2213.94 58.03
-6 0 -1 2094.17 50.14
0 6 -2 360.23 27.28
-6 0 -2 339.44 21.97
0 6 -3 115.03 17.44
-6 0 -3 86.7 12.65
0 6 -4 312.23 30.16
-6 0 -4 352.24 27.98
-6 0 -5 8878.56 152.43
-6 0 -6 548.72 41.57
0 6 -6 538.58 45.77
0 6 -7 5477.13 151.39
-6 0 -7 5259.65 135.14
-6 0 -8 461.54 42.4
0 6 -8 485.9 48.51
-6 0 -9 195.05 29.14
0 6 -9 185.34 32.44
0 6 -10 67.18 19.82
0 6 -10 64.61 11.13
0 6 -11 730.5 41.45
-6 0 -11 734.11 41.91
6 0 -11 736.84 41.04
0 -6 -11 709.44 46.46
-6 0 -12 148.52 20.07
0 6 -12 143.55 19.58
6 0 -12 155.5 20.56
0 -6 -12 149.5 21.38
6 0 -13 100.39 17.11
-6 0 -13 99.14 17.4
0 -6 -13 99.62 19.15
0 6 -13 113.62 18.29
0 6 -14 -0.51 7.47
0 -6 -14 -4.83 9.68
6 0 -14 1.24 5.59
-6 0 -14 2.06 6.58
-6 0 -15 1428.99 67.58
6 0 -15 1537.35 69.18
0 6 -15 1470.71 67.6
0 -6 -15 1458.05 73.97
6 0 -16 43.15 14.47
-6 0 -16 49.87 15.18
0 -6 -16 48.27 15.02
0 6 -16 53.84 14.24
0 6 -17 1465.68 67.26
6 0 -17 1493.48 69.09
-6 0 -17 1451.21 67.92
0 -6 -17 1508.43 75.87
6 0 -18 12.07 10.59
-6 0 -18 31.65 10.57
0 -6 -18 17.83 9.18
6 0 -19 11.75 7.27
-6 0 -19 14.24 7.29
0 -6 -19 19.19 9.92
0 -6 -20 0.31 6.33
-6 0 -20 6.14 5.7
6 0 -21 71.8 11.39
0 -6 -21 75.34 13.12
0 -6 -22 1.33 3.31
1 6 0 9662.4 113.13
-6 -1 -1 285.59 16.83
1 6 -1 303.41 21.97
-1 6 -1 349.5 26.19
-6 1 -1 318.63 22.86
-6 1 -2 105.05 12.95
-6 -1 -2 82.58 9.75
-1 6 -2 101 13.56
1 6 -2 77.96 11.54
1 6 -3 190.61 20.87
-6 -1 -3 184.29 17.36
-1 6 -3 156.14 20.64
-6 1 -3 133.05 17.89
1 6 -4 4250.22 107.28
-1 6 -4 4422.5 109.02
-6 -1 -4 4269.25 92.22
-6 1 -4 4094.98 98.95
-6 -1 -5 198.17 23.89
1 6 -5 193.82 26.64
-1 6 -5 174.24 26.82
-6 1 -5 146.13 22.76
-1 6 -6 4562.4 131.07
-6 1 -6 4597.4 124.33
-6 -1 -6 4504.69 111.63
1 6 -6 4798.36 131.07
-6 -1 -7 1350.06 66.01
-6 1 -7 1172.95 67.88
1 6 -7 1363.62 74.14
-1 6 -7 1218.06 72.76
1 6 -8 1271.11 74.61
-6 -1 -8 1311.96 69.76
-1 6 -8 1231.73 77.36
-6 1 -8 1203.8 71.57
-1 6 -9 16.39 16.9
-6 1 -9 15.01 9.23
1 6 -9 14.19 10.74
-6 1 -10 477.72 50.49
1 6 -10 528.4 56.12
1 6 -10 519.08 32.74
-1 6 -10 464.69 52.8
-1 -6 -11 55.31 15.11
-1 6 -11 48.6 10.56
-6 -1 -11 47.2 11.47
6 1 -11 57.12 13.52
1 -6 -11 50.38 11.99
-6 1 -11 46.44 9.77
6 -1 -11 51.71 11.17
-1 6 -11 45.3 18.81
1 6 -11 59.83 12.58
1 -6 -12 180.54 23.88
-1 -6 -12 232.39 28.19
-6 -1 -12 217.59 24.35
6 1 -12 222.93 24.16
6 -1 -12 186.03 21.84
-6 1 -12 185.37 22.09
1 6 -12 210.29 24.1
-1 6 -12 183.79 21.65
-1 6 -13 20.23 8.17
6 1 -13 22.5 8.77
1 6 -13 24.41 9.35
-6 -1 -13 25.75 10.47
6 -1 -13 28.53 11.66
-1 -6 -13 32.75 11.5
-6 1 -13 21.69 9.04
1 -6 -13 33.05 11.57
6 1 -14 353.16 32.29
6 -1 -14 387.14 35.66
-1 -6 -14 334.25 35.17
-1 6 -14 348.39 31.73
1 6 -14 344.06 32.06
-6 1 -14 337.25 31.76
1 -6 -14 366.11 35.93
-6 -1 -14 312.63 31.07
-6 -1 -15 19.15 11.19
-1 6 -15 31.06 11.63
6 -1 -15 20.41 9.41
1 6 -15 23.3 10.88
6 1 -15 25.03 11.01
-6 1 -15 18.49 10.46
1 -6 -15 21 9.28
-1 -6 -15 31.52 13.83
1 6 -16 1717.36 73.19
1 -6 -16 1681.46 79.3
6 -1 -16 1687.59 73
-1 -6 -16 1710.77 80.37
-6 1 -16 1691.22 72.66
-1 6 -16 1643.83 71.17
-6 -1 -16 1668.21 74.83
6 1 -16 1720.41 73.61
-6 1 -17 9.91 9.56
6 1 -17 10.95 9.14
-1 -6 -17 6.46 10.46
1 -6 -17 3.4 8.76
6 -1 -17 4.63 8.33
-6 -1 -17 11.61 7.97
-1 6 -17 7.02 7.76
1 -6 -18 468.21 40.96
-6 1 -18 447.73 36.05
6 1 -18 453.39 38.38
-1 -6 -18 462.34 40.45
-6 -1 -18 447.43 37.38
6 -1 -18 473.11 38.55
6 1 -19 1.19 5.02
1 -6 -19 7.37 6.84
-1 -6 -19 7.42 6.14
-6 1 -19 2.18 5.56
-6 -1 -19 8.54 6.83
6 -1 -19 7.55 5.75
-6 1 -20 42.19 10.49
-1 -6 -20 51.34 13.04
-6 -1 -20 44.38 11.01
1 -6 -20 50.25 12.48
6 -1 -20 46.97 11.98
1 -6 -21 20.1 7.03
-6 -1 -21 18.27 7.12
6 1 -21 20.64 6.29
6 -1 -21 20.48 6.26
-1 -6 -21 11.92 5.67
-1 -6 -22 39.28 8.75
1 -6 -22 45.82 9.11
2 6 0 894.85 32.89
-2 6 0 1344.93 54.68
-6 2 -1 379.45 27.82
-6 -2 -1 390.6 15.91
2 6 -1 408.65 24.23
2 6 1 468.38 23.73
-2 6 -1 396.51 30.25
-2 6 -2 69.3 10.93
-6 -2 -2 118.23 10.14
2 6 -2 121.41 12.91
-6 2 -2 86.75 13.23
-2 6 -3 951.19 48.36
-6 2 -3 953.37 45.04
-6 -2 -3 993.3 36
2 6 -3 1014.83 45.86
2 6 -4 256.09 28.1
-6 -2 -4 236.91 21.02
-2 6 -4 202.11 27.77
-6 2 -4 174.04 23.83
2 6 -5 1029.77 55.87
-6 2 -5 971.87 54.4
-6 -2 -5 949.11 45.18
-2 6 -5 970.48 57.38
-6 -2 -6 280.7 27.45
-2 6 -6 216.04 28.82
-6 2 -6 186.6 27.11
2 6 -6 287.86 30.97
2 6 -7 1360.09 72.19
-6 2 -7 1231.68 71.12
-2 6 -7 1229.07 74.54
-2 6 -8 528.37 51.73
-6 2 -8 475.9 47.04
-6 2 -9 159.89 29.63
2 6 -9 179.98 31.89
-2 6 -9 156.1 31.86
-6 2 -10 219.97 34.57
-2 6 -10 216.38 36.31
6 2 -10 212.77 21.3
2 -6 -10 221.78 24.74
2 6 -10 212.26 20.29
-6 2 -11 390.71 30.09
-2 6 11 378.71 29.52
-2 6 -11 391.65 50.36
2 -6 -11 379.89 33.2
-6 -2 -11 452.1 34.41
2 6 -11 443.22 33.06
6 -2 -11 397.35 30.79
-2 6 -11 385.09 30.08
-6 2 -11 403.06 49.66
6 2 -11 443.28 32.85
2 6 -12 98.08 16.52
2 -6 -12 88.14 18.1
6 2 -12 104.21 16.17
-2 6 -12 99.53 16.43
-6 -2 -12 84.86 16.61
-6 2 -12 98.8 16.37
6 -2 -12 93.28 17.19
-2 -6 -12 97.89 18.2
-6 2 -13 19.86 10.4
6 -2 -13 33.68 11.88
-2 -6 -13 18.34 9.59
6 2 -13 17.94 9.06
-6 -2 -13 20.21 10.94
2 -6 -13 20.57 7.81
2 6 -13 18.59 8.75
-2 6 -13 22.71 8.98
-2 6 -14 8.42 7.12
-6 2 -14 13.23 7.89
-2 -6 -14 26.7 12.46
2 6 -14 18.12 9.88
6 2 -14 21.38 11.23
6 -2 -14 43.81 17.41
2 -6 -14 15.88 11.88
-6 -2 -14 15.88 9.62
-2 -6 -15 597.82 47.46
2 -6 -15 567.89 45.06
-6 -2 -15 581.23 44.56
-6 2 -15 571.86 41.46
-2 6 -15 559.31 41.12
2 6 -15 597.8 43.91
6 -2 -15 430.51 35.79
6 2 -15 624.01 44.3
-6 -2 -16 27.28 10.87
2 6 -16 25.62 10.38
2 -6 -16 27.47 12.5
-6 2 -16 31.16 10.11
6 2 -16 25.79 10.36
-2 -6 -16 28.91 12.92
-2 6 -16 36.33 12.66
6 -2 -16 32.34 11.23
-2 6 -17 683.05 45.78
6 -2 -17 709.58 48.1
2 -6 -17 709.88 50.41
6 2 -17 692.52 46.85
-2 -6 -17 700.65 51.18
-6 2 -17 681.04 44.55
-6 -2 -17 682.05 47.47
6 2 -18 6.83 8.28
-6 2 -18 4.79 6.34
-6 -2 -18 -2.35 7.39
6 -2 -18 5.57 6.7
2 -6 -18 6.92 8.49
-2 -6 -18 -4.35 9.92
-2 -6 -19 10.2 7.91
6 -2 -19 10.23 7.3
2 -6 -19 8.72 6.23
-6 2 -19 6.71 4.16
-6 -2 -19 11.46 8.75
6 -2 -20 81.77 14.78
2 -6 -20 87.34 15.85
-6 -2 -20 85.53 14.8
-2 -6 -20 90.32 16.92
6 -2 -21 101.01 12.05
2 -6 -21 124.18 16.31
-2 -6 -21 122.13 16.69
-6 -2 -21 130.18 15.81
2 -6 -22 70 10.7
-2 -6 -22 67.95 10.38
3 6 0 873.52 26.98
-3 6 0 762.13 42.61
3 6 -1 735.87 29.27
-3 6 -1 935.26 45.14
3 6 1 734.33 24.87
-6 3 -1 907.22 43.25
-6 3 -2 88.75 15.46
3 6 -2 69.54 11.31
-3 6 -2 97.3 15.64
-3 6 -3 212.49 25
-6 3 -3 208.68 23.04
-3 6 -4 52.02 14.4
3 6 -4 35.56 12.09
-6 3 -4 44.43 15
3 6 -5 131.53 20.9
-6 3 -5 90.37 20.11
-3 6 -5 89.63 21.99
3 6 -6 389.5 34.24
-3 6 -6 332.32 36.73
-6 3 -6 345.17 36.64
-3 6 -7 60.37 18.82
3 6 -7 88.25 20.07
-6 3 -7 59.98 17.04
-3 6 -8 29.89 15.38
-6 3 -8 39.69 16.42
-6 3 -9 1007.35 71.96
-3 6 -9 1033.06 76.65
3 6 -10 450.15 30.96
3 -6 -10 382.84 31.1
6 3 -10 459.5 30.79
-3 6 -10 391.4 48.86
-6 3 -10 400.9 47
-6 3 -11 1214.64 52.12
-3 6 -11 1246.61 89.72
-3 6 -11 1219.83 51.92
-6 3 -11 1262.48 87.8
-6 -3 -11 1138.49 55.56
3 6 -11 1162.38 53.3
3 -6 -11 1247.98 58.43
6 3 -11 1189.66 52.01
6 -3 -11 1191.14 53.64
-3 6 11 1214.48 52.83
6 -3 -12 133.04 20.07
3 -6 -12 124.59 19.76
-3 -6 -12 164.33 24.52
3 6 -12 146.57 21.31
-3 6 -12 121.61 31.17
-6 -3 -12 150.2 21.73
6 3 -12 153.44 20.76
-3 6 -12 123.23 19.61
-6 3 -12 131.91 18.37
3 6 -13 143.61 21.07
6 -3 -13 158.56 21.8
6 3 -13 150.88 20.21
-3 -6 -13 168.3 25.12
3 -6 -13 149.47 21.81
-6 -3 -13 142.27 21.48
-6 3 -13 149.38 20.21
-3 6 -13 147.76 20.75
3 6 -14 17.89 8.19
-3 -6 -14 24.5 11.87
-3 6 -14 27.98 11.53
3 -6 -14 34.82 13.76
-6 3 -14 15.22 7.05
6 3 -14 26.94 10.02
-6 -3 -14 21.17 9.55
6 -3 -14 44.76 13.88
3 6 -15 44.75 13.83
6 -3 -15 4 12.37
-3 -6 -15 43.87 14.13
-6 3 -15 46.5 12.52
3 -6 -15 69.71 17.62
-6 -3 -15 61.09 16.02
6 3 -15 52.18 13.27
-3 6 -15 44.39 12.32
-3 -6 -16 410.34 38.92
6 3 -16 389.86 35.54
-6 -3 -16 389.58 36.3
-6 3 -16 386.73 33.81
6 -3 -16 407.51 36.37
-3 6 -16 382.92 33.68
3 -6 -16 386.46 37.08
3 6 -16 395.42 35.55
-6 3 -17 43.64 12.41
-6 -3 -17 36.92 12.15
-3 -6 -17 31 10.36
6 3 -17 35.13 13.33
6 -3 -17 47.74 14.05
3 -6 -17 32.38 14.57
6 -3 -18 74.55 15.18
-6 -3 -18 74.11 16.22
-6 3 -18 74.51 14.51
3 -6 -18 82.25 17.01
-3 -6 -18 94.33 18.25
6 -3 -19 207.97 24.39
3 -6 -19 194.55 24.5
-6 -3 -19 181.09 22.75
-3 -6 -19 202.28 25.82
-6 3 -19 187.07 21.47
-6 -3 -20 109.93 17.1
-3 -6 -20 101.48 16.86
3 -6 -20 104.84 16.62
6 -3 -20 121.21 17.27
3 -6 -21 372.98 27.61
-3 -6 -21 344.64 26.62
-6 -3 -21 325.27 24.04
6 3 -21 321.35 23.68
3 -6 -22 100.17 12.38
-3 -6 -22 96.36 11.87
-4 6 0 2371.5 77.18
4 6 0 1670.3 32.78
4 6 -1 105.19 10.59
-6 4 -1 74.13 14.75
-4 6 -1 60.51 14.38
4 6 1 75.48 6.3
-4 6 -2 1304.54 58.53
-6 4 -2 1244.15 55.82
-4 6 -3 27.24 13.52
-6 4 -3 30.23 12.25
4 6 -3 20.57 7.37
-6 4 -4 342 32.44
4 6 -4 336.01 27.32
-4 6 -4 348.64 33.16
4 6 -5 71.27 16.23
-6 4 -5 81.07 18.25
-4 6 -5 72 17.93
-6 4 -6 59.41 17.44
4 6 -6 44.32 14.61
-4 6 -6 50.87 15.77
-4 6 -7 5.41 10.72
-6 4 -7 9.94 10.96
-4 6 -8 129.48 29.13
-6 4 -8 119.93 25.52
-6 4 -9 226.85 35.75
-4 6 -9 224.9 37.03
4 -6 -10 2631.63 79.43
6 4 -10 2522.94 72.55
-4 6 -10 2677.54 131.28
6 -4 -10 2473.11 74.89
-6 4 -10 2629.17 125.39
4 6 -10 2538.91 72.81
-6 4 -11 165.33 19.01
-4 6 -11 150.44 19.56
4 6 -11 186.57 21.52
6 4 -11 192.31 22.15
6 -4 -11 158.98 19.81
-6 -4 -11 195.4 23.85
-6 4 -11 146.77 29.8
4 -6 -11 151.02 20.38
-4 6 -11 144.17 31.66
4 -6 -12 1624.83 69.21
6 4 -12 1583.13 63.09
-6 4 -12 1621.5 107.08
-4 6 -12 1612.65 63.11
-4 -6 -12 1543.05 72.01
-6 -4 -12 1503.53 68.12
-6 4 -12 1587.71 62.36
6 -4 -12 1582.45 65.62
-4 6 -12 1591.28 109.49
4 6 -12 1581.76 63.82
4 6 -13 5.9 5.34
-4 6 -13 12.36 6.6
6 4 -13 12.75 8.16
6 -4 -13 0.24 5.73
-6 -4 -13 12.05 7.09
4 -6 -13 18.01 9.55
-4 -6 -13 9.81 7.61
-6 4 -13 8.48 6.97
-6 -4 -14 54.21 14.33
4 -6 -14 8.97 13.83
6 4 -14 71.12 15.71
-4 6 -14 66.59 14.9
4 6 -14 68.74 15.73
6 -4 -14 31.41 9.22
-6 4 -14 63.87 13.56
-4 -6 -14 71.69 17.61
-4 -6 -15 -2.48 8.42
4 -6 -15 32.58 14.82
6 -4 -15 18.18 7.36
-6 4 -15 1.49 5.82
4 6 -15 8.93 7.06
6 4 -15 16.91 9.86
-4 6 -15 6.98 6.9
-6 -4 -15 12.43 10.5
6 -4 -16 286.38 31.48
4 -6 -16 272.75 32
6 4 -16 268.46 28.96
-6 -4 -16 247.07 29.77
-4 6 -16 250.26 27.29
-4 -6 -16 244 30.29
-6 4 -16 284.68 29.05
-4 -6 -17 54.38 15.46
-6 -4 -17 55.88 14.33
4 -6 -17 42.62 12.71
-6 4 -17 48.37 13.41
6 -4 -17 55.49 14.93
6 -4 -18 68.08 14.57
-6 -4 -18 80.62 17.4
-4 -6 -18 78.45 17.04
-6 4 -18 62.78 13.55
4 -6 -18 70.24 16.9
4 -6 -19 35.7 12.11
-6 -4 -19 26.05 9.03
-4 -6 -19 16.72 8.64
6 -4 -19 28.11 10.81
-6 -4 -20 552.49 35.48
4 -6 -20 577.34 37.5
6 -4 -20 575.35 36.43
-4 -6 -20 541.55 37.28
6 4 -21 114.08 14.24
6 -4 -21 117.1 15.23
4 -6 -21 117.07 15.12
-6 -4 -21 85.2 12.83
-4 -6 -21 106.23 14.46
4 6 -22 363.15 21.79
-6 5 0 110.81 19.11
-5 6 0 78.02 16.58
-5 6 -1 3083.65 92.33
-6 5 -1 3053.11 91.33
-5 6 -2 90.68 16.08
-6 5 -2 87.35 15.97
-6 5 -3 640.91 43.87
-5 6 -3 652.56 45.39
-6 5 -4 3.21 8.62
-5 6 -4 4.59 8.93
-5 6 -5 24.53 9.41
-6 5 -5 36.59 14.46
-5 6 -6 58.02 18.13
-6 5 -6 67.21 18.67
-5 6 -7 536.5 51.82
-6 5 -7 517.25 50.32
-5 6 -8 49.1 18.38
-6 5 -8 53.69 18.22
-5 6 -9 1292.38 89.28
-6 5 -9 1265.04 88.5
5 6 -9 1151.43 47.73
-6 5 -10 53 18.23
5 -6 -10 44.42 10.76
6 5 -10 61.38 12.02
-5 6 -10 42.59 14.91
6 -5 -10 51.8 11.59
5 6 -10 61.81 11.94
-6 5 -11 3626.84 156.94
6 -5 -11 3583.71 95.54
6 5 -11 3567.77 91.57
-5 6 -11 3769.82 90.49
5 -6 -11 3578.67 97.34
5 6 -11 3632.02 92.28
-6 -5 -11 3482.08 102.82
-6 5 -11 3727.77 88.53
-5 6 -11 3613.78 157.81
-6 5 -12 -2.02 16.16
-6 -5 -12 11.96 7.19
-5 -6 -12 19.55 9.2
6 -5 -12 15.35 7.33
-6 5 -12 14.35 7.19
5 -6 -12 17.42 8.23
-5 6 -12 19.06 6.64
5 6 -12 23.42 9.42
6 5 -12 22.08 8.87
-5 6 -12 14.48 13.09
-5 -6 -13 436.9 39.79
-5 6 -13 478.15 62
5 6 -13 461.65 36.74
5 -6 -13 479.03 40.15
6 5 -13 438.53 36.14
6 -5 -13 475.3 38.43
-6 -5 -13 441.58 39.21
-5 6 -13 458.45 35.12
-6 5 -13 452.68 34.84
-6 5 -14 23.36 8.48
6 5 -14 27.04 10.27
-5 -6 -14 28.13 12.37
5 -6 -14 24.55 10.74
-5 6 -14 35.08 11.53
6 -5 -14 1.48 6.13
-6 -5 -14 30.05 11.47
5 6 -14 27.09 11.58
6 5 -15 300.52 31.39
-5 -6 -15 301.1 33.6
-6 5 -15 299.7 29.06
-5 6 -15 312.18 29.58
-6 -5 -15 301.35 33.05
6 -5 -15 335.4 33.54
5 -6 -15 331.53 35.17
-5 -6 -16 -4.12 7.86
6 -5 -16 0.02 7.06
-5 6 -16 -1.94 5.38
5 -6 -16 8.68 8.47
-6 -5 -16 -6 7.31
-6 5 -16 5.54 6.69
-6 -5 -17 48.24 14.24
5 -6 -17 30.41 11.25
-6 5 -17 32.41 10.24
-5 -6 -17 27.4 12.63
6 -5 -17 37.17 10.97
-5 -6 -18 0.79 6.06
6 -5 -18 -3.26 6.19
-6 -5 -18 4.02 7.9
5 -6 -18 -10.87 8.57
6 -5 -19 323.41 29.56
5 -6 -19 332.27 30.32
-6 -5 -19 293.51 28.92
-5 -6 -19 316.25 30.21
6 -5 -20 31.51 10.07
-5 -6 -20 11.02 4.79
5 -6 -20 33.02 9.35
-6 -5 -20 25.83 9.45
-6 -5 -21 649.71 33.34
6 -5 -21 727.64 35.61
6 5 -21 646.76 33.41
-5 -6 -21 664.97 35.2
5 -6 -21 730.44 36.75
-6 6 0 5260.94 127.15
-6 6 -1 -3.85 10.44
-6 6 -2 1839.32 76.72
-6 6 -3 6.64 10.47
-6 6 -4 530.35 42.29
-6 6 -5 -0.26 9.06
-6 6 -6 2122.48 97.74
-6 6 -7 -12.7 15.68
-6 6 -8 60.09 19.79
-6 6 -9 0.14 12.3
6 6 -9 0.44 4.22
-6 6 -10 3316.8 150
6 -6 -10 3032 85.04
6 6 -10 3098.75 82.06
6 -6 -11 -4.81 6.25
6 6 -11 -3.77 6.81
-6 6 -11 -20.05 21.83
-6 -6 -12 1729.67 77.66
6 6 -12 1770.76 69.38
-6 6 -12 1824.2 118.47
6 -6 -12 1822.51 72.41
-6 6 -12 1882.92 66.42
-6 6 -13 4.13 5.61
6 -6 -13 -2.54 7.37
-6 -6 -13 -6.05 8.56
-6 6 -13 -4.2 18.39
-6 -6 -14 94.62 20.37
-6 6 -14 80.64 15.75
6 -6 -14 104.64 19.34
-6 -6 -15 7.05 6.72
6 -6 -15 0.7 6.56
-6 6 -15 10.34 7.61
6 -6 -16 328.3 33.81
-6 -6 -16 305.29 33.72
-6 -6 -17 -3.89 8.31
6 -6 -17 9.44 8.62
-6 -6 -18 3.78 6.16
6 -6 -18 2.17 5.66
-6 -6 -19 -2.15 6.5
6 -6 -19 3.33 5.78
6 -6 -20 530.3 34.21
-6 -6 -20 491.01 33.57
6 -6 -21 5.69 4.75
-6 -6 -21 -9.41 5.02
6 6 -21 -4.91 4.14
0 7 0 1866.15 60.57
-7 0 -1 58.7 8.75
0 7 -1 61.97 10.89
0 7 -2 321.05 25.55
-7 0 -2 337.64 23.16
-7 0 -3 52.9 10.9
0 7 -3 46.8 11.58
0 7 -4 1447.43 65.45
-7 0 -4 1379.54 57.73
-7 0 -5 443.96 35.3
0 7 -5 431.3 38.84
-7 0 -6 6047.01 139.59
0 7 -6 6072.76 153.93
-7 0 -7 64.83 15.73
0 7 -7 86.71 19.69
-7 0 -8 767.05 56.64
0 7 -8 883.72 66.32
-7 0 -9 82.04 19.64
0 7 -9 84.42 21.76
0 7 10 1209.82 53.69
0 7 -10 1348.14 89.27
0 7 -10 1307.67 51.61
7 0 -10 1315.61 51.71
7 0 -11 116.34 15.85
0 7 -11 129.05 28.62
0 7 11 101.14 15.36
0 7 -11 115.47 16.45
-7 0 -11 119.47 17.59
0 -7 -12 344.02 34.58
-7 0 -12 325.21 30.02
0 7 -12 325.55 29.87
7 0 -12 339.82 30.31
7 0 -13 131.55 19.52
0 -7 -13 126.8 22.31
0 7 -13 127.91 19.08
-7 0 -13 130.73 20.01
0 7 -14 282.54 29.16
0 -7 -14 276.44 32
-7 0 -14 279.99 28.75
7 0 -14 188.81 22.39
-7 0 -15 1.01 6.42
0 -7 -15 -2.06 9.62
7 0 -15 -1.29 6.58
0 7 -15 5.48 8.55
0 -7 -16 1571.39 77.55
-7 0 -16 1547.88 69.06
7 0 -16 1546.47 69.9
-7 0 -17 75.79 17.07
0 -7 -17 63.75 17.04
7 0 -17 54.77 15.16
-7 0 -18 271.7 28.01
0 -7 -18 315.96 33.48
7 0 -18 295.83 29.86
-7 0 -19 36.57 10.16
7 0 -19 48.29 12.17
0 -7 -19 38.57 11.63
-7 0 -20 80.71 12.53
0 -7 -20 90.37 16.33
7 0 -21 1.94 3.15
0 -7 -21 1.07 5.05
0 -7 -22 68.45 10.45
1 7 0 97.41 13.02
-1 7 0 168.97 19.34
1 7 -1 1199.06 44.84
-7 1 -1 955.98 41.34
-7 -1 -1 1179 36.88
1 7 1 1234.48 45.92
-1 7 -1 943.29 45.2
-7 -1 -2 20.17 6.29
1 7 -2 35.33 10.15
-7 1 -2 27.7 8.37
-1 7 -2 39.09 11.01
-7 1 -3 197.72 21.37
-1 7 -3 207 23.21
1 7 -3 246.88 25.04
-7 -1 -3 236.04 20.51
-7 -1 -4 298.75 25.32
1 7 -4 304.01 29.49
-7 1 -4 275.31 26.62
-1 7 -4 282.94 29.48
-7 -1 -5 1806.79 67.79
-1 7 -5 1981.79 83.14
1 7 -5 1876.43 78.71
-7 1 -5 1857.77 75.34
-7 -1 -6 155.89 22.54
-7 1 -6 104.18 22.23
1 7 -6 180.35 26.66
-1 7 -6 126.06 23.38
1 7 -7 3860.43 128.6
-7 -1 -7 3754.83 110.47
-1 7 -7 3806.93 132.1
-7 1 -7 3718.58 122.24
-7 1 -8 15.41 11.28
1 7 -8 19.87 14.21
-1 7 -8 19.24 14.98
-7 -1 -8 12.33 9.63
1 7 -9 336.09 41.98
-1 7 -9 305.32 41.19
-7 1 -9 321.62 39.01
-1 7 -10 51.91 9.73
-7 1 -10 46.14 13.99
1 7 -10 56.7 17.3
-1 7 10 56.34 12.07
7 -1 -10 60.81 10.35
-1 7 -10 55.93 20.58
7 1 -10 69.26 12.25
1 7 -10 60.69 11.45
1 7 10 58.44 11.88
-1 7 -11 1163.42 88.76
-1 7 -11 1149.74 51.32
-7 1 -11 1143.53 52.06
-7 -1 -11 1217.82 55.7
1 7 -11 1244.66 53.97
7 -1 -11 1184.29 52.06
-1 7 11 1019.04 51.05
1 -7 -11 1124.54 58.32
7 1 -11 1245.26 53.54
1 -7 -12 14.32 7.77
-7 -1 -12 7.01 6.62
7 -1 -12 14.16 7.11
-7 1 -12 12.29 7.85
-1 7 -12 3.55 5.99
7 1 -12 14.63 7.77
-1 -7 -12 19.25 9.41
1 7 -12 3.17 5.86
-7 1 -13 16.02 8.6
-1 7 -13 17.31 7.59
1 7 -13 21.15 9.59
-7 -1 -13 18.26 8.35
7 -1 -13 20.74 9.45
7 1 -13 24.77 8.32
1 -7 -13 26.36 11.27
-1 -7 -13 21.23 10.1
1 7 -14 13.05 7.35
-7 -1 -14 17.53 9.55
1 -7 -14 22.43 11.17
7 -1 -14 -11.51 9.05
-1 -7 -14 4.2 7.66
-7 1 -14 17.12 6.88
-1 7 -14 21.71 9.06
1 7 -15 813.78 50.25
-1 -7 -15 826.89 56.43
-7 1 -15 809.17 49.02
7 -1 -15 671.72 45.34
-1 7 -15 805.93 49.27
7 1 -15 865.89 51.21
1 -7 -15 789.24 53.94
-7 -1 -15 796.86 49.92
7 -1 -16 45.64 16.15
7 1 -16 32.38 11.5
-7 -1 -16 38.26 12.49
-1 -7 -16 18.32 7.9
-7 1 -16 44.01 15.38
1 -7 -16 26.2 10.83
7 -1 -17 824.24 51.05
-7 1 -17 807.43 48.18
-1 -7 -17 819.64 55.62
-7 -1 -17 789.61 49.91
7 1 -17 811.4 49.97
1 -7 -17 832.97 55.34
-7 1 -18 51.48 12.97
7 -1 -18 38.71 12
-1 -7 -18 44.35 11.97
7 1 -18 55.16 14.71
-7 -1 -18 49.02 12.7
1 -7 -18 46.54 14.62
1 -7 -19 9.89 8.29
7 -1 -19 9.19 8.18
-7 1 -19 8.85 6.21
-7 -1 -19 9.92 6.44
-1 -7 -19 -1.86 7.1
1 -7 -20 -0.18 7.57
7 -1 -20 3.18 4.56
-7 -1 -20 2.24 4.85
-1 -7 -20 -3.52 6.26
-7 1 -20 3.2 5.74
-1 -7 -21 178.28 19.46
7 -1 -21 143.48 14.21
1 -7 -21 162.2 18.29
7 1 -21 157.7 16.38
1 -7 -22 0.1 2.97
-1 -7 -22 0.99 4.29
2 7 0 7831.92 102.46
-7 -2 0 7752.45 82.21
-7 -2 -1 181.79 11.39
2 7 -1 198.05 17.29
-7 2 -1 230.96 21.88
2 7 1 195.77 16.55
-2 7 -1 246.77 24.14
-7 2 -2 135.94 18.2
-2 7 -2 138.71 20.08
2 7 -2 139.48 16.34
-7 -2 -2 131.78 12.18
-7 2 -3 52.43 11.34
2 7 -3 57.35 12.61
-2 7 -3 49.3 12.64
-7 -2 -3 56.85 8.92
-7 2 -4 1399.29 61.83
-2 7 -4 1493.82 67.83
-7 -2 -4 1412.49 49.98
2 7 -4 1442.66 63.16
2 7 -5 44.19 15.32
-2 7 -5 38.82 14.2
-7 -2 -5 27 8.49
-7 2 -5 29.24 12.35
2 7 -6 1328.51 69.13
-2 7 -6 1179.73 70.78
-7 -2 -6 1269.28 57.83
-7 2 -6 1148.55 65.79
-2 7 -7 246.76 37.74
-7 2 -7 225.21 35.22
2 7 -7 308.08 36.79
-2 7 -8 48.41 17.07
-7 2 -8 41.53 16.59
2 7 -8 28.75 14.67
2 7 -9 7.3 8.38
-7 2 -9 9.11 11.1
-2 7 -9 3.54 11.03
7 2 -10 1002.88 45.46
-2 7 -10 840.79 72.16
-2 7 10 813.01 42.68
7 -2 -10 837.5 41.49
-7 2 -10 859.13 68.2
2 7 10 947.11 48.44
-2 7 -10 825.73 41.51
2 7 -10 1009.14 45.97
2 -7 -11 98.92 18.01
-7 -2 -11 72.47 14
-7 2 -11 89.43 23.32
7 2 -11 72.07 13.45
2 7 -11 85.23 15.73
-2 7 -11 100.09 26.82
-2 7 11 92.42 16.36
-2 7 -11 96.1 15.44
7 -2 -11 96.83 16
-7 -2 -12 333.58 31.07
7 2 -12 338.71 29.5
-7 2 -12 322.77 28.59
7 -2 -12 310.6 28.75
-2 7 -12 315.92 47.38
2 7 -12 352.04 30.53
-2 -7 -12 341.04 35.77
2 -7 -12 294.25 31.26
-2 7 -12 278.8 27.67
-2 7 -13 6.33 5.57
-7 -2 -13 2.83 5.09
7 2 -13 2.66 7.59
-7 2 -13 -0.39 5.13
7 -2 -13 0.34 6.66
2 -7 -13 7.03 9.25
-2 -7 -13 4.54 7.54
2 7 -13 1.86 5.45
7 2 -14 -12.23 13.1
2 7 -14 34.18 11.99
-2 -7 -14 30.54 12.19
-7 -2 -14 30.76 11.54
7 -2 -14 26.89 9.44
-7 2 -14 37.64 11.02
-2 7 -14 32.49 11.26
2 -7 -14 25.29 11.31
-7 -2 -15 82.82 17.41
2 -7 -15 104.45 22.18
-7 2 -15 111.28 19.44
7 -2 -15 127.62 22.83
-2 7 -15 102.8 18.1
-2 -7 -15 92.73 20.17
7 2 -15 88.4 18.38
2 -7 -16 775.13 54.7
-7 -2 -16 766.1 50.68
7 2 -16 824.25 50.25
-7 2 -16 785.93 47.72
-2 -7 -16 798.05 55.32
7 -2 -16 779.37 49.7
7 2 -17 75.87 15.62
-2 -7 -17 65.38 15.66
7 -2 -17 54.5 14.38
2 -7 -17 72.88 16.96
-7 -2 -17 71.15 16.26
-7 2 -17 70.89 15.3
7 -2 -18 112.02 19.69
-7 2 -18 110.61 17.31
-2 -7 -18 109 19.32
-7 -2 -18 110.61 18.46
2 -7 -18 133.6 22.03
7 -2 -19 13.77 7.73
2 -7 -19 0.06 7.07
-2 -7 -19 0.03 8.92
-7 2 -19 7.38 4.09
-7 -2 -19 13.45 8.39
7 -2 -20 200.32 21.42
-2 -7 -20 196.51 22.7
7 -2 -20 147.71 16.24
2 -7 -20 171.34 21.31
-7 -2 -20 170.85 19.59
2 -7 -21 41.9 8.47
7 2 -21 44.99 8.94
-2 -7 -21 40.68 9.48
-7 -2 -21 49.38 9.44
2 -7 -22 140.27 14.49
-2 -7 -22 155.31 15.3
3 7 0 215.96 15.77
-7 -3 0 141.02 8.56
-7 3 -1 668.18 40.72
3 7 -1 668.34 31
-3 7 -1 652 41.12
3 7 1 699.2 27.27
-7 -3 -2 26.8 4.36
-7 3 -2 66.14 14.53
3 7 -2 65.6 12.6
-3 7 -2 69.23 15.76
-7 3 -3 34.87 12.86
-7 -3 -3 22.11 5.29
3 7 -3 36.11 11.73
-3 7 -3 34.42 12.5
-3 7 -4 165.26 27.37
3 7 -4 155.74 23.37
-7 3 -4 154.15 24.66
3 7 -5 235.59 26.39
-3 7 -5 213.01 28.29
-7 3 -5 224.97 28.35
3 7 -6 65.78 18.23
-3 7 -6 89.98 24.49
-7 3 -6 57.68 19.69
-7 3 -7 46.22 17.69
-3 7 -7 60.9 19.45
3 7 -7 53.69 16.43
-3 7 -8 149.31 28.14
-7 3 -8 133.77 25.6
3 7 -8 177.51 28.01
3 7 -9 809.71 40.49
-3 7 -9 802.52 70.76
-7 3 -9 802.63 66.79
-3 7 -10 1001.72 44.72
7 -3 -10 972.35 45.51
7 3 -10 957.29 44.88
-7 -3 -10 947.78 48.76
3 -7 -10 1007.58 51.73
3 7 -10 975.86 45.98
-3 7 -10 1039.17 81.69
-7 3 -10 963.63 75.01
7 -3 -11 425.05 32.4
-7 -3 -11 516.67 38.47
3 -7 -11 411.98 35.07
-3 7 -11 426.35 31.53
-7 3 -11 414.91 52.24
7 3 -11 541.57 37.53
-3 7 11 408.76 31.77
3 7 -11 557.91 36.71
-3 7 -11 426.82 55.38
7 3 -12 243.75 25.34
3 -7 -12 218.06 27.65
-7 3 -12 248.09 25.08
-3 7 -12 244.78 43.07
-7 -3 -12 236.3 26.92
-3 7 -12 262.76 25.86
-3 -7 -12 232.4 28.68
3 7 -12 259.3 26.21
7 -3 -12 242.82 25.67
-3 -7 -13 27.12 13.3
-7 3 -13 36.99 10.87
3 7 -13 33.68 10.83
3 -7 -13 32.97 11.48
7 3 -13 27.19 9.7
-3 7 -13 24.4 9.93
-7 -3 -13 28.83 10.86
7 -3 -13 29.41 9.82
7 3 -14 39.21 13.76
-7 3 -14 29.14 11.03
3 -7 -14 38.62 16.25
-3 -7 -14 10.65 10.48
7 -3 -14 47.67 16.62
-7 -3 -14 21.52 11.2
-3 7 -14 20.93 10.66
-7 -3 -15 92.92 17.96
-3 7 -15 92.53 17.87
7 -3 -15 107.76 19.76
-3 -7 -15 97.24 20.87
7 3 -15 91.87 17.61
-7 3 -15 98.79 16.87
3 -7 -15 79.54 17.23
3 -7 -16 306.53 34.08
-3 -7 -16 282.37 33.72
-7 -3 -16 293.58 31.75
7 -3 -16 311.4 31.73
-7 3 -16 330.25 30.87
7 3 -16 276.23 30.05
7 -3 -17 158.16 22.22
7 3 -17 165.24 22.84
-3 -7 -17 177.07 26.38
3 -7 -17 164.2 24.57
-7 -3 -17 163.9 22.82
-7 3 -17 158.78 20.99
-7 3 -18 10.56 6.31
3 -7 -18 3.44 7.36
7 -3 -18 -0.09 5.65
-3 -7 -18 13.19 9.75
-7 -3 -18 1.31 5.26
-7 -3 -19 122.67 18.84
7 -3 -19 114.98 18.37
-3 -7 -19 126.63 20.16
3 -7 -19 119.17 19.27
-3 -7 -20 168.85 20.64
-7 -3 -20 156.94 18.91
7 -3 -20 173.9 20.25
3 -7 -20 183.54 21.55
-7 -3 -21 239.13 19.21
7 3 -21 258.11 21.14
3 -7 -21 255.55 22.31
-3 -7 -21 261.95 23.2
4 7 0 1411.21 35.27
-4 7 0 1362.56 61.75
-7 4 0 1392.04 61.61
-4 7 -1 1008.06 54.57
4 7 1 900.06 25.38
4 7 -1 1035.68 35.35
-7 4 -1 1035.77 52.46
-4 7 -2 70.85 17.77
-7 4 -2 67.95 16.95
4 7 -2 117.96 14.82
4 7 2 108.49 10.49
-4 7 -3 58.33 14.69
4 7 -3 61.18 11.65
-7 4 -3 44.1 13.28
4 7 -4 312.7 27.11
-4 7 -4 302.2 32.95
-7 4 -4 295.56 30.68
4 7 -5 35.65 12.77
-7 4 -5 43.87 13.99
-4 7 -5 56.52 16.7
-4 7 -6 29.13 14.38
-7 4 -6 31.5 13.67
4 7 -6 28.58 11.59
-4 7 -7 407.68 46.81
-7 4 -7 402.41 44.48
-4 7 -8 158.51 32.33
-7 4 -8 160.06 31.69
-7 4 -9 1111.22 81.14
-4 7 -9 1103.75 84.02
-7 4 -10 378.1 49.72
-4 7 -10 406.01 52.41
4 -7 -10 373.02 30.72
-4 7 -10 381.07 27.97
7 -4 -10 393.4 29.52
7 4 -10 454.26 31.15
4 7 -10 431.46 32.37
-7 -4 -11 1748.05 70.82
4 7 -11 1803.86 66.78
7 -4 -11 1790.49 66.19
4 -7 -11 1955.16 74.65
-4 7 -11 1808.12 63.46
-4 7 -11 1795.84 112.11
7 4 -11 1744.85 63.54
-7 4 -11 1784.1 107.89
-4 7 11 1772.59 65.07
-7 4 -12 259.6 43.28
7 4 -12 300.98 29.26
4 7 -12 303.97 29.2
4 -7 -12 265.66 28.25
-7 -4 -12 318.38 32.5
7 -4 -12 262.69 26.91
-4 7 -12 281.78 26.32
-4 -7 -12 327.46 34.55
-4 7 -12 247.39 42.56
-4 7 -13 86.66 15.71
4 -7 -13 92.76 17.14
-7 -4 -13 79.95 16.83
-4 -7 -13 88.2 18.53
7 -4 -13 90.23 16.5
7 4 -13 84.07 15.4
-4 7 -13 75.29 28.6
-7 4 -13 91.1 15.9
7 -4 -14 126.99 21.42
-4 7 -14 103.92 18.32
-7 4 -14 119.5 18.47
7 4 -14 117.32 19.3
4 -7 -14 106.78 20.27
-4 -7 -14 116.97 24.65
-7 -4 -14 125.1 21.46
-7 -4 -15 314.2 32.81
4 -7 -15 334.54 35.31
7 -4 -15 354.93 33.18
7 4 -15 302.7 30.88
-4 -7 -15 297.6 33.19
-7 4 -15 354.69 30.87
4 -7 -16 30.96 11.15
7 -4 -16 26.6 8.7
-7 -4 -16 41.89 12.37
-4 -7 -16 35.45 9.55
-7 4 -16 38.63 11.66
4 -7 -17 77.1 17.42
-7 4 -17 71.17 13.78
-7 -4 -17 66.18 15.6
7 -4 -17 82.67 16.75
-4 -7 -17 82.01 18.37
4 -7 -18 19.31 8.9
-7 -4 -18 19.27 9.21
7 -4 -18 3.86 5.54
-4 -7 -18 11.89 7.74
4 -7 -19 168.58 22.75
-4 -7 -19 137.78 20.27
7 -4 -19 162.44 20.53
-7 -4 -19 160.06 21.44
-4 -7 -20 194.88 21.77
7 -4 -20 207.87 21.24
4 -7 -20 198.44 21.45
-7 -4 -20 190.86 19.76
4 -7 -21 427.69 28.44
-7 -4 -21 347.33 23.05
-4 -7 -21 411.69 27.8
7 4 -21 384.21 25
-7 5 0 3595.6 105.1
-5 7 0 3651.53 105.54
5 7 -1 594.25 22.2
-5 7 -1 554.41 42.06
-7 5 -1 546.38 41.98
-5 7 -2 1274.23 63.89
5 7 -2 1176.91 39.08
-7 5 -2 1269.85 61.67
5 7 -3 103.07 14.38
-7 5 -3 103.5 19.49
-5 7 -3 91.86 19.44
-7 5 -4 479.99 39.8
-5 7 -4 476.41 41.04
5 7 -4 577.1 35.92
-5 7 -5 370.32 38.93
-7 5 -5 369.91 38.77
-5 7 -6 2189.99 102
-7 5 -6 2178.53 99.03
-7 5 -7 98.14 24.19
-5 7 -7 87.58 24.38
-7 5 -8 100.4 25.26
-5 7 -8 101.4 25.18
-7 5 -9 324.41 45.64
-5 7 -9 303.66 46.04
7 5 -9 311.04 24.96
-5 7 -10 2602.89 136.41
7 5 -10 2462.29 73.06
-7 5 -10 2584.05 130.46
5 -7 -10 2554.03 80.62
7 -5 -10 2501.9 75.74
7 -5 -11 216.61 23.5
7 5 -11 249.23 24.93
5 -7 -11 203.77 23.95
-5 7 -11 230.64 22.81
-7 -5 -11 249.96 28.71
-7 5 -11 202.94 37.38
-5 7 -11 177.87 36.98
7 -5 -12 1086.07 54.79
-7 -5 -12 989.22 56.75
-5 -7 -12 1036.57 60.1
-5 7 -12 1101.94 91.97
5 -7 -12 1098.35 58.38
-5 7 -12 1093.28 51.17
-7 5 -12 1038.39 88.19
7 5 -12 1074.22 52.44
7 -5 -13 131.33 20.7
-5 -7 -13 139.03 24.15
-7 5 -13 125.82 30.92
-5 7 -13 124.27 32.54
7 5 -13 142.46 20.52
5 -7 -13 127.72 20.43
-5 7 -13 126.89 18.85
-7 -5 -13 119.55 21.35
5 -7 -14 40 10.45
7 -5 -14 75.07 15.86
-5 7 -14 52.99 12.66
-5 -7 -14 65.73 16.22
-7 -5 -14 81.66 17.73
5 -7 -15 29.64 11.62
-5 -7 -15 19.95 10.35
-7 -5 -15 27.49 11.31
7 -5 -15 29.24 12.25
7 -5 -16 280.65 30.19
-5 -7 -16 258.17 31.73
-7 5 -16 276.97 26.66
5 -7 -16 267.42 30.42
-7 -5 -16 256.96 30.29
7 -5 -17 12.73 6.97
-7 -5 -17 20.68 10.35
-5 -7 -17 9.9 7.32
5 -7 -17 22.84 9.68
-7 -5 -18 6 6.39
7 -5 -18 4.67 6.12
-5 -7 -18 0.58 6.42
5 -7 -18 0.48 7.28
7 -5 -19 81.99 15.15
-5 -7 -19 79.97 15.48
-7 -5 -19 78.15 15.01
5 -7 -19 81.4 15.23
-5 -7 -20 385.15 30.09
7 5 -20 392.98 28.71
7 -5 -20 419.95 29.24
5 -7 -20 432.04 31.35
-7 -5 -20 368.55 27.62
-5 -7 -21 87.48 12.69
5 -7 -21 101.99 13.39
5 7 -21 90.29 12.42
-7 -5 -21 78.89 11.28
7 5 -21 99.06 12.69
-6 7 0 483.24 40.75
-7 6 0 517.48 41.89
-7 6 -1 3433.9 106.23
-6 7 -1 3463.32 107.8
-7 6 -2 62.57 14.91
-6 7 -2 46.73 14.1
-7 6 -3 16.99 10.55
-6 7 -3 17.17 11.18
-6 7 -4 30.89 12.82
-7 6 -4 34.78 13.62
-7 6 -5 3772.92 123.77
-6 7 -5 3789.39 125.55
-7 6 -6 99.44 20.55
-6 7 -6 95.41 21.32
-6 7 -7 700.08 63.44
-7 6 -7 719.19 62.09
-6 7 -8 123.03 31.11
-7 6 -8 122.11 29.73
-6 7 -9 655.29 67.66
-7 6 -9 672.82 67.83
6 -7 -10 88.19 14.61
-6 7 -10 89.58 25.83
-7 6 -10 82.98 21.78
7 -6 -10 95.15 14.89
-6 7 -11 2313.45 133.71
6 -7 -11 2225.03 78.13
-7 6 -11 2240.97 129.57
7 -6 -11 2268.39 76.59
-6 -7 -12 53.52 13.81
7 -6 -12 38.42 11.69
-7 6 -12 29.28 16.86
6 -7 -12 48.31 12.64
-7 -6 -12 41.99 13.48
-6 7 -12 27.66 14.26
-6 7 -13 8.88 15
6 -7 -13 14.71 9.2
7 -6 -13 22.66 9.92
-7 -6 -13 10.81 7.74
-7 6 -13 -9.23 17.54
-6 -7 -13 24.6 11.84
-6 7 -13 15.61 7.77
7 -6 -14 82.81 17.01
6 -7 -14 47.96 13.84
-7 -6 -14 48.3 14.2
-6 -7 -14 35.19 14.21
6 -7 -15 199.7 25.69
7 -6 -15 220.08 26.64
-7 -6 -15 228.96 28.71
-6 -7 -15 250.2 30.76
6 -7 -16 41.91 12.58
-6 -7 -16 21.31 8.95
-7 -6 -16 25.91 10.69
7 -6 -16 34.62 11.5
-6 -7 -17 331.56 33.69
7 -6 -17 324.45 31.24
-7 -6 -17 330.94 34.08
6 -7 -17 321.41 31.92
-6 -7 -18 8.46 5.42
-7 -6 -18 14.21 8.96
6 -7 -18 18.1 8.09
7 -6 -18 21.62 8.49
-7 -6 -19 56.08 12.8
6 -7 -19 63.38 13.07
7 -6 -19 67.38 13.6
-6 -7 -19 51.52 12.24
-7 -6 -20 6.02 4
7 6 -20 10.96 5.42
6 -7 -20 21.38 7.14
-6 -7 -20 16.43 7.11
7 -6 -20 24.72 7.76
-6 -7 -21 340.8 23.54
7 6 -21 340.02 23.19
6 7 -21 342.99 23.08
6 -7 -21 372.52 23.59
-7 -6 -21 323.84 21.74
-7 7 0 5282.71 137.67
-7 7 -1 -15.26 13.05
-7 7 -2 1222.84 68.56
-7 7 -3 0.59 10.11
-7 7 -4 3339.32 114.73
-7 7 -5 -21.74 16.6
-7 7 -6 3472.19 129.58
-7 7 -7 -6.89 15.14
-7 7 -8 176.37 34.46
-7 7 -9 -3.6 13.96
-7 7 -10 1461.82 106.97
7 -7 -10 1365.12 58.95
7 -7 -11 -10.64 8.6
-7 7 -11 -10.49 15.34
-7 -7 -12 420.88 39.22
-7 7 -12 456.13 61.73
7 -7 -12 510.53 39.24
7 -7 -13 4.74 7.35
-7 7 -13 13.74 10.77
-7 -7 -13 -3.9 7.57
7 -7 -14 31.22 10.19
-7 -7 -14 97.59 20.37
7 -7 -15 23.79 13.93
-7 -7 -15 -15.14 11.08
-7 -7 -16 974.56 58.52
7 -7 -16 945.21 53.91
-7 -7 -17 -2.36 7.35
7 -7 -17 4.4 4.95
7 -7 -18 145.44 19.82
-7 -7 -18 159.56 21.91
-7 -7 -19 -9.65 6.84
7 -7 -19 -5.98 4.52
7 7 -20 177.89 18.75
7 -7 -20 193.12 18.61
-7 -7 -20 177.95 19.28
7 7 -21 6.63 4.46
0 8 0 2787.51 77.06
-8 0 0 2850.77 70.93
0 8 -1 1105.5 49.63
-8 0 -1 1071.14 42.4
0 8 1 1174.11 51.32
0 8 -2 151.47 19.22
-8 0 -2 169.33 17.64
0 8 -3 267.67 27.51
-8 0 -3 244.65 23
-8 0 -4 18.29 10.35
0 8 -4 20.03 11.72
0 8 -5 1618.91 77.15
-8 0 -5 1596.49 68.28
0 8 -6 202.08 29.63
-8 0 -6 251.98 29.85
0 8 -7 2980.71 118.84
-8 0 -7 2931.26 104.7
-8 0 -8 593.39 49.66
0 8 -8 600.5 56.53
0 8 -9 763.31 66.3
-8 0 -9 811.58 61.99
0 8 -10 519.95 32.95
0 8 -10 525.45 55.84
8 0 -10 513.9 32.53
0 8 10 479.28 35.01
0 8 -11 1355.88 95.63
0 8 11 1148.41 56.22
0 8 -11 1326.5 56.15
-8 0 -11 1294.73 55.54
8 0 -11 1310.39 54.93
0 -8 -12 67.64 16.36
8 0 -12 68.61 13.52
-8 0 -12 61.96 13.07
0 8 -12 65.87 13.2
0 -8 -13 19.37 11.4
-8 0 -13 19.94 8.29
8 0 -13 24.62 10.07
0 -8 -14 63.95 16.81
-8 0 -14 67.44 15.41
8 0 -15 667.85 45.43
-8 0 -15 648.21 44.37
0 -8 -15 605.8 49.03
8 0 -16 55.7 14.46
0 -8 -16 53.91 15.69
-8 0 -16 62.34 16.7
-8 0 -17 562.58 39.9
8 0 -17 587.57 41.47
0 -8 -17 607.14 47.13
0 -8 -18 74.78 16.98
-8 0 -18 62.83 14.12
8 0 -18 69 14.78
0 -8 -19 19.29 9.34
-8 0 -19 18.82 7.92
0 -8 -20 66.5 12.85
8 0 -20 65.59 11.39
8 0 -21 182.86 15.54
0 -8 -21 225.12 21.27
-1 8 0 5933.99 119.8
-8 -1 0 6481.05 95.5
-8 1 0 5754.14 110.36
1 8 0 6643.34 110.61
1 8 -1 370.8 27.05
-8 1 -1 347.12 26
1 8 1 368.06 26.42
-8 -1 -1 364.66 21.88
-1 8 -1 341.54 28.76
-1 8 1 348.42 29.17
-8 1 -2 164.67 19.39
-1 8 -2 186.5 23.38
1 8 -2 250.72 24.81
-8 -1 -2 241.16 18.91
1 8 -3 7.68 5.84
-1 8 -3 1.59 6.47
-8 1 -3 5.51 6.38
-8 -1 -3 6.76 4.97
-8 -1 -4 1099.82 50.04
-8 1 -4 857.85 48.22
-1 8 -4 907.7 55.36
1 8 -4 1140.75 59.63
-1 8 -5 66.09 16.93
-8 -1 -5 38.87 11.16
1 8 -5 45.88 13.74
-8 1 -5 56.65 14.92
-8 -1 -6 3217.65 98.03
1 8 -6 3331.95 115.62
-8 1 -6 3206.77 107.92
-1 8 -6 3328.25 119.77
-8 -1 -7 434.68 38.86
-1 8 -7 513.73 50.88
1 8 -7 426.11 44.67
-8 1 -7 532.28 48.13
-1 8 -8 101.72 25.96
-8 1 -8 98.62 22.26
1 8 -8 60.03 18.71
-8 -1 -8 73.51 16.71
-8 1 -9 552.17 51.75
-1 8 -9 538.33 57.04
1 8 -9 555.44 55.14
1 8 9 492.37 33.25
-8 1 -10 1594.8 92.93
1 8 10 1571.02 63.36
1 8 -10 1408.81 94.04
-1 8 -10 1570.58 99.15
8 -1 -10 1541.69 56.95
-1 8 -10 1555.85 57.64
-1 8 10 1492.36 59.4
8 1 -10 1680.07 58
-1 8 -11 51.13 11.5
8 -1 -11 50.58 11.05
-1 8 -11 55 21.73
1 8 11 44.33 11.98
8 1 -11 59.12 11.82
-1 8 11 57.72 13.57
-8 -1 -11 62.63 14
8 1 -12 386.89 31.97
-1 8 -12 353.89 53.18
1 -8 -12 374.21 36.02
-1 -8 -12 396.09 38.29
-8 -1 -12 381.4 32.25
-1 8 -12 382.46 31.43
8 -1 -12 380.26 31.61
-8 1 -13 117.88 18.88
1 -8 -13 120.2 21.13
-8 -1 -13 120.43 19.35
8 1 -13 107.73 17.3
-1 -8 -13 114.38 20.64
8 -1 -13 122.13 19.5
8 1 -14 43.13 11.37
1 -8 -14 77.84 20.34
8 -1 -14 82.86 18.5
-8 -1 -14 64.05 15.08
-8 1 -14 63.24 14.42
-1 -8 -14 51.5 15.47
8 1 -15 89.92 18.92
-8 1 -15 99.15 18.03
8 -1 -15 92.87 18.14
-1 -8 -15 58.06 13.44
1 -8 -15 91.61 20.1
-8 -1 -15 81.05 17
-8 -1 -16 839.46 51.06
-1 -8 -16 852.24 57.57
8 1 -16 831.9 50.32
1 -8 -16 819.03 56.41
-8 1 -16 845.88 48.93
8 -1 -16 856.45 50.99
8 1 -17 93.51 17.75
-8 -1 -17 102.64 18.42
1 -8 -17 97.1 19.64
-1 -8 -17 90.54 19.24
-8 1 -17 99.68 17.11
8 -1 -17 101.42 18.21
1 -8 -18 135.42 21.37
-1 -8 -18 131.33 21.35
-8 -1 -18 127.16 18.57
8 -1 -18 123.08 18.44
-8 1 -18 122.77 17.55
8 -1 -19 49.78 12.84
-1 -8 -19 35.75 11.21
-8 -1 -19 43.22 10.58
8 -1 -19 39.25 9.79
1 -8 -19 44.57 12.47
1 -8 -20 199.02 22.25
8 1 -20 214.84 20.97
8 -1 -20 186.62 18.28
-1 -8 -20 223.67 23.83
8 1 -21 37.43 7.52
1 -8 -21 43.9 8.84
-1 -8 -21 36.07 7.87
-2 8 0 125.48 20.03
-8 2 0 122.92 18.54
-8 -2 0 164.13 13.59
2 8 0 175.54 18.19
-2 8 -1 775.48 45.33
2 8 1 1125.38 42.95
-8 -2 -1 960.83 30.25
2 8 -1 1000.73 42.43
-8 2 -1 773.63 42.37
-8 -2 -2 37.61 6.8
-2 8 -2 48.47 12.8
-8 2 -2 45.8 10.83
2 8 -2 36.66 9.72
-8 2 -3 27.7 10.32
-2 8 -3 30.02 10.97
-8 -2 -3 46.43 9.1
2 8 -3 43.82 11.85
-2 8 -4 720.64 50.16
-8 -2 -4 702.66 36.02
-8 2 -4 714.02 47.01
2 8 -4 686.88 44.8
-8 2 -5 332.59 33.59
-2 8 -5 366.8 39.43
2 8 -5 401.87 37
-8 -2 -5 378.19 29.28
2 8 -6 328.86 40.01
-8 -2 -6 324.06 31.94
-8 2 -6 364.49 41.88
-2 8 -6 389.62 46.61
-2 8 -7 140.12 29.66
-8 2 -7 139.75 27.54
2 8 -7 121.46 23.55
2 8 -8 62.27 18.85
-8 2 -8 72.71 21.47
-2 8 -8 78.21 23.68
2 8 9 856.46 46.38
2 8 -9 998.14 74.24
-2 8 -9 818.41 71.17
-8 2 -9 775 64.85
8 -2 -10 10.72 5.9
-2 8 -10 15.93 6.18
-8 -2 -10 13.39 6.09
-8 2 -10 18.49 12.49
2 8 10 21.74 7.89
8 2 -10 27.96 8.82
-2 8 -10 31.57 14.09
-2 8 10 28.36 9.28
-2 8 -11 870.06 79.21
-2 8 11 807.46 46.38
-8 2 -11 881.03 74.93
-8 -2 -11 947.81 49.65
8 -2 -11 875.31 45.88
8 2 -11 977.85 47.62
-2 8 -11 872.97 45.61
2 -8 -11 863.6 52.49
8 2 -12 3.98 5.99
-8 -2 -12 2.91 5.23
-2 8 -12 26.8 16.12
-2 8 -12 2.95 5.72
8 -2 -12 9.11 6.07
2 -8 -12 1.91 6.3
-2 -8 -13 13.16 7.11
-8 -2 -13 12.62 8.25
2 -8 -13 -2.02 8.46
8 -2 -13 11.63 9.07
8 2 -13 14.53 8.07
2 -8 -14 77.77 18.62
8 2 -14 44.77 13.52
-8 -2 -14 52.68 13.75
8 -2 -14 70.63 15.95
-8 2 -14 59.91 13.79
-2 -8 -14 69.59 18.44
8 -2 -15 262.03 28.12
-8 2 -15 273.57 27.73
8 2 -15 277.29 29.16
-8 -2 -15 280.54 30.76
2 -8 -15 256.89 30.81
-2 -8 -15 281.37 34.18
2 -8 -16 174.62 26.39
8 -2 -16 160.32 23.12
-2 -8 -16 154.63 24.6
8 2 -16 145.68 20.94
-8 -2 -16 152.87 22.48
-8 2 -16 171.8 22.5
8 2 -17 217.61 25.98
-8 2 -17 225.41 24.88
-8 -2 -17 206.2 25.42
2 -8 -17 248.27 30.95
-2 -8 -17 235.99 30.11
8 -2 -17 255.96 27.98
-8 -2 -18 40.87 12.79
8 -2 -18 32.73 10.49
2 -8 -18 40.71 13.46
-2 -8 -18 41.45 12.44
-2 -8 -19 150.72 22.04
2 -8 -19 135.45 19.89
8 -2 -19 113.29 15.31
-8 -2 -19 125.23 17.26
8 -2 -19 133.27 18.41
-8 -2 -20 13.92 6.65
-2 -8 -20 -12.48 9.62
8 -2 -20 8.72 5.29
2 -8 -20 -4.76 6.72
8 2 -20 -4.7 5.86
-2 -8 -21 363.15 26.91
2 -8 -21 313.93 24.65
8 2 -21 327.26 22.33
-3 8 0 891.78 51.96
-8 -3 0 915.78 23.89
-8 3 0 898.91 49.75
-8 3 -1 481.27 34.64
3 8 -1 429.84 26.22
-3 8 -1 481.16 36.55
3 8 1 439.18 23.74
3 8 -2 10.01 4.72
-3 8 -2 22.92 9.27
3 8 2 15.29 5.63
-8 -3 -2 3.11 2.35
-8 3 -2 8.11 7.46
3 8 -3 194.52 21.68
-3 8 -3 245.15 29.26
-8 -3 -3 164.63 12.72
-8 3 -3 240.51 27.78
-8 3 -4 11.98 8.74
-3 8 -4 17.37 9.67
3 8 -4 21.86 8.81
-3 8 -5 414.1 43.27
3 8 -5 348.33 35.27
-8 3 -5 409.24 41.07
3 8 -6 173.2 26.47
-3 8 -6 231.36 35.45
-8 3 -6 221.86 31.18
-3 8 -7 54.44 20.57
-8 3 -7 34.46 16.49
3 8 -7 37.29 15.41
-3 8 -8 290.96 41.45
-8 3 -8 277.92 38.03
3 8 -8 303.69 37.86
-8 3 -9 188.87 32.44
3 8 9 191.52 21.4
-3 8 -9 207.7 37.5
-8 3 -10 648.41 61.82
3 8 10 763.7 46.8
8 -3 -10 680.87 37.74
-8 -3 -10 828.11 46.05
8 3 -10 854.41 42.1
-3 8 -10 647.57 68.01
-3 8 10 668.85 39.52
3 -8 -11 172.02 24.49
-3 8 -11 174.63 20.68
-8 3 -11 156.49 30.55
-3 8 11 158.66 20.54
-8 -3 -11 148.36 21.3
8 -3 -11 156.8 19.81
-3 8 -11 177.28 37.13
8 3 -11 142.38 19.22
-8 3 -12 302.16 47.11
8 -3 -12 334.31 30.01
-3 8 -12 325.36 51.58
3 -8 -12 307.05 32.38
-3 8 12 283.06 28.28
-8 -3 -12 353.26 33.26
8 3 -12 372.54 31.4
-3 -8 -13 37.25 13.49
8 3 -13 49.76 12.81
-3 8 -13 43.76 23.1
-8 -3 -13 31.15 11.93
8 -3 -13 46.42 14.88
3 -8 -13 38.77 12.52
3 -8 -14 32.43 12.47
-8 -3 -14 40.15 12.88
-3 -8 -14 43.1 14.82
8 -3 -14 74.48 17.88
8 3 -14 41.61 11.86
8 3 -15 273.27 28.53
8 -3 -15 278.73 28.98
-3 -8 -15 259.01 31.7
-8 -3 -15 256.24 29.68
3 -8 -15 284.27 32.71
8 -3 -16 148.49 21.34
-3 -8 -16 149.72 23.93
3 -8 -16 162.24 24.59
-8 -3 -16 142.22 21.71
-8 -3 -17 97.75 16.92
3 -8 -17 111.51 21.47
-3 -8 -17 95.46 20.77
8 -3 -17 105.3 18.68
8 -3 -18 37.63 11.34
3 -8 -18 44.09 12.63
-3 -8 -18 36.03 11.87
-8 -3 -18 45.63 12.82
-8 -3 -19 6.67 6.05
3 -8 -19 6.22 6.12
8 -3 -19 7.62 7.84
-3 -8 -19 8.88 5.46
-3 -8 -20 348.2 29.42
3 -8 -20 327.89 28.36
8 3 -20 332.19 25.82
-8 -3 -20 315.84 24.15
3 -8 -21 67.49 11.03
8 3 -21 52.85 8.84
-3 -8 -21 65.97 11.08
-4 8 0 2510.54 87.8
4 8 0 2468.14 51.98
-8 4 0 2514.51 86.03
4 8 -1 504.96 27.2
-4 8 -1 440.1 37.3
-8 4 -1 439.1 35.61
4 8 1 495.89 21.33
4 8 -2 241.11 21.92
4 8 2 242.25 16.15
-4 8 -2 182.23 26.5
-8 4 -2 166.64 24.62
-4 8 -3 217.16 28.47
4 8 -3 262.56 24.62
-8 4 -3 201.2 24.74
-4 8 -4 777.27 53.54
-8 4 -4 733.66 49.67
4 8 -4 645.12 41.47
-4 8 -5 758.86 57.06
-8 4 -5 779.85 54.73
4 8 -5 723.06 46.63
-8 4 -6 1422.25 79.3
-4 8 -6 1452.65 82.83
4 8 -6 1592.45 73.77
4 8 -7 235.02 32.36
-4 8 -7 272.64 41.73
-8 4 -7 282.34 40.67
-4 8 -8 75.81 22.96
-8 4 -8 64.98 20.76
-4 8 -9 898.79 77.04
-8 4 -9 897.27 75.03
8 4 -9 913.69 42.27
4 8 9 845.7 47.31
-4 8 -10 1194.87 91.6
4 -8 -10 1132.39 57.21
-4 8 10 1073.96 50.3
8 -4 -10 1101.53 48.57
8 4 -10 1051.39 47.51
-8 4 -10 1080.85 84.39
8 -4 -11 491.32 34.4
-4 8 -11 493.64 61.51
8 4 -11 607.28 38.3
-8 4 -11 429.96 54.86
-4 8 11 488.5 35.38
-8 -4 -11 579.21 41.77
4 -8 -11 470.74 37.9
-4 8 12 285.1 27.66
-8 -4 -12 315.1 31.25
8 4 -12 262.43 27.04
-8 4 -12 263.73 43.22
4 -8 -12 273.99 29.89
-4 8 -12 292.36 46.9
8 -4 -12 282.16 27.23
-4 -8 -13 228.58 31.51
8 -4 -13 158.12 20.48
-4 8 -13 216.49 42.19
4 -8 -13 245.98 30.91
8 4 -13 261.45 28.23
-8 -4 -13 206.97 26.08
-4 -8 -14 71.66 18.3
8 -4 -14 27.76 8.45
-8 -4 -14 65.7 15.79
4 -8 -14 51.61 11.9
8 4 -14 30.39 6.94
8 -4 -15 25.46 12.93
-4 -8 -15 -7.17 12.73
4 -8 -15 0.24 6.08
-8 -4 -15 5.64 7.38
-8 -4 -16 252.18 29.03
-4 -8 -16 256.88 31.02
8 -4 -16 278.12 29.81
4 -8 -16 283.05 31.55
8 -4 -17 43.97 12.09
-8 -4 -17 47.09 12.1
4 -8 -17 44.23 13.76
-4 -8 -17 53.38 14.94
-8 -4 -18 13.91 7.83
-4 -8 -18 21.08 11.17
8 -4 -18 15.67 8.08
4 -8 -18 9.02 6.66
-8 -4 -19 275.42 26.4
4 -8 -19 291.94 28.11
8 -4 -19 308.88 26.79
-4 -8 -19 305.02 29.51
8 4 -20 156.58 17.56
4 -8 -20 159.63 18.82
8 -4 -20 171.73 18.36
-8 -4 -20 145.11 16.34
-4 -8 -20 136.05 17.77
8 4 -21 246.99 19.39
4 8 -21 219.18 19.23
4 -8 -21 240.61 19.96
-4 -8 -21 261.57 21.49
-5 8 0 1491.99 71.05
-8 5 0 1550.35 70.26
-8 5 -1 2009.7 81.59
5 8 -1 1854.31 43.62
-5 8 -1 2114.26 84.9
-8 5 -2 394.36 36.85
-5 8 -2 430.85 38.99
-8 5 -3 28.75 11.59
-5 8 -3 13.27 8.18
5 8 -3 37.39 7.41
5 8 3 34.75 5.78
5 8 -4 612.26 38.34
-5 8 -4 706.53 51.69
-8 5 -4 682.55 49.16
-5 8 -5 2776.26 109.8
-8 5 -5 2645.91 102.96
5 8 -5 2912.61 91.05
-5 8 -6 376.4 45.46
-8 5 -6 376.59 43.33
-8 5 -7 488.07 50.05
-5 8 -7 509.37 53.36
-8 5 -8 484.59 54.36
5 8 8 482.67 33.71
-5 8 -8 512.61 57.99
5 -8 -9 698.57 41.7
-5 8 -9 705.46 70.19
-8 5 -9 718.97 68.38
5 -8 -10 413.92 33.76
-5 8 10 402.86 30.25
-5 8 -10 424.68 58.06
-8 5 -10 439.82 55.78
8 -5 -10 439.65 31.5
-5 8 -11 1196.38 98.18
8 -5 -11 1173.47 54.12
-8 5 -11 1144.37 91.5
-8 -5 -11 1135.65 59.85
-5 8 11 1196.09 54.47
5 -8 -11 1178.95 59.68
8 -5 -12 298.28 28.47
-8 -5 -12 314.29 32.52
-5 8 -12 270.92 45.85
5 -8 -12 273.43 29.08
-8 5 -12 282.94 46.08
5 -8 -13 20.31 10.21
-8 -5 -13 17.78 8.86
-5 -8 -13 11.51 8.48
-8 5 -13 18.08 12.88
8 -5 -13 17.16 7.78
-5 8 -13 -1.88 13.25
5 -8 -14 289 30.94
-8 -5 -14 269.17 30.85
-5 -8 -14 269.65 32.4
8 -5 -14 208.07 24.81
8 -5 -15 166.05 22.37
-5 -8 -15 157.72 24.53
-8 -5 -15 154.05 22.98
5 -8 -15 169.9 24.45
8 -5 -16 161.76 22.67
5 -8 -16 184.7 25.38
-5 -8 -16 155.79 24.54
-8 -5 -16 141.08 22.08
8 -5 -17 256.85 27.4
-8 -5 -17 265.27 28.53
-5 -8 -17 270.34 31.15
5 -8 -17 290.79 30.8
-8 -5 -18 149.3 20.74
8 -5 -18 162.27 21.42
-5 -8 -18 137.63 20.61
5 -8 -18 151.71 21.63
8 -5 -19 39.61 10.08
-8 -5 -19 30.87 8.22
-5 -8 -19 35.78 10.5
5 -8 -19 43.77 11.06
8 5 -19 30.07 8.52
-8 -5 -20 141.34 16.13
8 5 -20 161.79 17.61
5 -8 -20 154.39 18.06
8 -5 -20 147.24 16.64
-5 -8 -20 152.93 18.85
-5 -8 -21 236.25 20.23
5 8 -21 228.24 18.42
8 5 -21 234.73 18.68
5 -8 -21 248.42 19.57
-8 6 0 3539.65 113.48
-6 8 0 3632.83 115.87
-8 6 -1 811.47 52.82
-6 8 -1 770.91 52.06
-8 6 -2 718.66 51.64
-6 8 -2 773.01 54.53
-6 8 -3 296.07 34.83
-8 6 -3 319.9 35.29
-8 6 -4 2793.47 103.46
-6 8 -4 2913.97 107.58
-6 8 -5 345.21 42.28
-8 6 -5 351.62 41.32
-8 6 -6 2412.81 108.81
-6 8 -6 2526.92 112.52
-6 8 -7 289.59 41.51
-8 6 -7 310.03 43.22
-6 8 -8 61.1 21.36
-8 6 -8 40.35 18.36
-6 8 -9 194.29 38.94
-8 6 -9 193.9 39
6 -8 -9 182.53 21.87
6 -8 -10 1266.56 58.27
-8 6 -10 1284.61 98.55
8 -6 -10 1266.7 53.74
-6 8 -10 1324.13 101.3
-8 6 -11 85.82 29.54
6 -8 -11 93.12 16.23
-6 8 -11 107.39 30.45
8 -6 -11 118.26 17.06
6 -8 -12 226.3 26.65
8 -6 -12 152.72 20.64
-8 6 -12 196.86 41.01
-8 -6 -12 195.91 26.64
-6 8 -12 206.42 42.52
-6 -8 -13 130.54 23.31
-8 6 -13 111.86 32.99
-6 8 -13 79.98 30.13
8 -6 -13 80.88 14.77
-8 -6 -13 148.43 23.57
6 -8 -13 161.99 24.12
8 -6 -14 32.44 11.01
6 -8 -14 36.08 12.95
-6 -8 -14 37.8 13.39
-8 -6 -14 54.92 14.89
8 -6 -15 221.52 25.14
6 -8 -15 356.65 34.31
-6 -8 -15 287.84 33.78
-8 -6 -15 316.93 34.39
6 -8 -16 675 46.52
-8 -6 -16 666.33 48.12
-6 -8 -16 691.73 50.14
8 -6 -16 663.63 45.06
8 -6 -17 149.9 20.69
-6 -8 -17 103.11 18.03
-8 -6 -17 133.84 21.02
6 -8 -17 140.55 21.08
-8 -6 -18 123.18 18.15
8 -6 -18 117.99 17.11
6 -8 -18 115.08 18.03
-6 -8 -18 134.67 20.83
6 -8 -19 56.97 12.75
8 6 -19 70.72 13.31
-8 -6 -19 58.4 12.54
8 -6 -19 62.94 12.09
-6 -8 -19 56.59 13.73
6 8 -20 144.54 17.4
-6 -8 -20 154.07 18.41
8 -6 -20 149.81 16.28
8 6 -20 148.81 16.74
-8 -6 -20 140.56 15.98
6 -8 -20 157.13 17.54
6 8 -21 25.01 6.79
8 6 -21 23.53 6.36
-6 -8 -21 23.69 6.07
-8 7 0 469.68 42.59
-7 8 0 438.61 41.13
-8 7 1 3691.03 123.28
-7 8 1 3727.54 125.81
-7 8 -1 3594.27 119.17
-8 7 -1 3353.47 115.38
-8 7 -2 176.29 26.84
-7 8 -2 141.25 24.43
-8 7 -3 1117.11 67.61
-7 8 -3 1112.86 67.95
-8 7 -4 19.15 12.41
-7 8 -4 34.23 14.57
-7 8 -5 3062.35 120.64
-8 7 -5 2989.66 117.94
-7 8 -6 24.99 13.73
-8 7 -6 28.89 8.95
-8 7 -7 1570.55 96.87
-7 8 -7 1511.78 98.27
-8 7 -8 27.29 15.05
-7 8 -8 29.74 18.09
-7 8 -9 316.41 49.54
7 -8 -9 265.47 24.64
-8 7 -9 290.9 48.3
-8 7 -10 33.85 17.26
8 -7 -10 25.07 7.74
7 -8 -10 22.64 8.83
-7 8 -10 9.68 11.1
-8 7 -11 595.31 70.47
8 -7 -11 644.87 41.08
-7 8 -11 624.75 73.45
7 -8 -11 633.84 41.99
7 -8 -12 -0.19 8.25
8 -7 -12 18.89 9.09
-7 8 -12 16.07 16.3
-8 -7 -12 27.56 12.14
-8 7 -13 10.36 11.54
-7 8 -13 11.32 11.93
-7 -8 -13 52.16 18.05
8 -7 -13 15.35 7.72
7 -8 -13 27.44 11.58
-8 -7 -13 65.58 17.64
8 -7 -14 104.02 17.82
-7 -8 -14 114.78 20.39
7 -8 -14 107.03 18.08
-8 -7 -14 133.21 22
-8 -7 -15 917.38 57.71
7 -8 -15 856.96 51.54
-7 -8 -15 941.67 59.06
-8 -7 -16 88.63 18.93
8 -7 -16 129.74 21.64
-7 -8 -16 62.29 13.98
7 -8 -16 94.43 17.76
8 -7 -17 732.05 44.39
7 -8 -17 768.83 47.31
-8 -7 -17 801.82 50.83
-7 -8 -17 802.98 51.7
-7 -8 -18 10.86 5.95
-8 -7 -18 6.16 5.72
8 -7 -18 13.87 6.41
7 -8 -18 21.51 9.09
8 -7 -19 11.99 5.93
-8 -7 -19 -0.15 4.32
-7 -8 -19 13.94 7.84
7 8 -19 11.75 6.51
8 7 -19 12.89 6.52
7 -8 -19 3.57 3.63
7 -8 -20 3.42 3.73
-8 -7 -20 -2.05 3.62
-7 -8 -20 5.25 4.42
8 -7 -20 8.75 4.49
8 7 -20 -6.25 5.41
7 8 -20 0.34 3.92
7 8 -21 102.6 11.52
8 7 -21 102.23 11.69
-8 8 0 2716.71 110.03
-8 8 1 -17.66 15.47
-8 8 -1 -16.92 12.74
-8 8 -2 91.99 21.23
-8 8 -3 -0.03 8.11
-8 8 -4 3257 122.6
-8 8 -5 -7.21 12.52
-8 8 -6 2242.42 110.28
-8 8 -7 -1.42 14.59
-8 8 -8 207.46 39.93
-8 8 -9 0.15 11.49
-8 8 -10 293.64 52.09
8 -8 -11 13.4 8.93
-8 8 -11 -30.97 21.92
-8 8 -12 85.96 31.47
8 -8 -12 49.59 12.36
-8 8 -13 -13.26 13.71
8 -8 -13 -1.62 5.17
-8 -8 -13 -7.31 8.04
8 -8 -14 271.27 28.03
-8 -8 -14 496.07 42.67
-8 -8 -15 -31.66 14.98
8 -8 -15 -3.44 7.51
-8 -8 -16 1643.51 75.02
8 -8 -16 1508.08 65.79
-8 -8 -17 -15.85 11.69
8 -8 -17 1.31 6.42
-8 -8 -18 252.12 25.28
8 -8 -18 217.33 22.49
8 8 -18 264.34 25.2
8 -8 -19 -3.88 4.38
-8 -8 -19 2.4 4.61
8 8 -19 -2.73 5.09
8 -8 -20 35.29 7.1
8 8 -20 29.28 7.79
-8 -8 -20 32.37 8.93
-9 0 0 578.67 34.04
0 9 0 637.63 39
0 9 -1 1004.96 49.83
0 9 1 1053.87 50.33
-9 0 -1 998.72 43.25
-9 0 -2 263.62 22.87
0 9 -2 289.05 27.74
-9 0 -3 360.44 27.46
0 9 -3 369.96 32.56
0 9 -4 346.34 33.85
-9 0 -4 343.87 29.9
0 9 -5 124.4 21.62
-9 0 -5 106.11 19.03
-9 0 -6 2115.05 86.23
0 9 -6 2215.07 98.69
0 9 -7 1200.31 77.11
-9 0 -7 1154.15 67.58
-9 0 -8 53.26 16.83
0 9 -8 60.32 20.23
0 9 -9 1880.12 105.21
0 9 9 1740.98 63.19
-9 0 -9 1917.27 94.78
0 9 -10 789.03 72.6
9 0 -10 725.91 38.94
0 9 10 727.52 43.73
0 9 -11 379.61 51.22
0 9 11 331.98 30.5
9 0 -11 382.02 29.58
0 -9 -12 241.12 30.98
9 0 -12 206.58 23.29
0 -9 -13 248.17 31.08
9 0 -13 241.94 26.29
0 -9 -14 34.43 14
9 0 -14 47.65 12.15
9 0 -15 61.26 13.67
0 -9 -15 63.79 16.59
0 -9 -16 551.11 46.18
9 0 -16 542.94 39.82
0 -9 -17 10.28 8.21
9 0 -17 23.8 9.98
9 0 -18 82.66 14.08
0 -9 -18 115.27 20.08
9 0 -19 121.55 15.92
0 -9 -19 147.5 21.45
9 0 -20 199.85 18.57
0 -9 -20 239.35 23.93
0 -9 -21 366.73 26.05
-1 9 0 1242.25 57.86
1 9 0 1099.68 49
-9 1 0 1178.23 52.44
-9 -1 0 1109.47 42.17
-9 -1 -1 313.01 22.77
-1 9 -1 249.07 27.1
-1 9 1 231.78 26.34
1 9 1 346.31 28.2
1 9 -1 310.44 27.28
-9 1 -1 212.52 21.85
-9 1 -2 278.17 25.69
-1 9 -2 296.61 30.38
-9 -1 -2 338.82 23.42
1 9 -2 360.8 30.79
-9 -1 -3 47.71 10.79
-1 9 -3 27.45 9.7
1 9 -3 50.36 13.02
-9 1 -3 32.28 8.49
-1 9 -4 111.5 21.6
1 9 -4 92.95 19.24
-9 1 -4 82.22 17.24
-9 -1 -4 67.88 13.64
-1 9 -5 752.54 55.7
-9 -1 -5 946.24 51.64
1 9 -5 963.08 61.11
-9 1 -5 685.18 47.84
1 9 -6 547.13 49.38
-9 -1 -6 512.75 40.34
-9 1 -6 651.44 52.26
-1 9 -6 658.43 57.94
-9 -1 -7 458.9 39.15
-9 1 -7 503.32 47.32
1 9 -7 489.88 49.18
-1 9 -7 496.46 51.59
-9 1 -8 1026.42 69.84
1 9 -8 973.26 71.19
-1 9 -8 1076.47 78.82
-9 -1 -8 941.92 61.36
-1 9 9 651.37 37.4
1 9 9 687.14 41.77
-1 9 -9 699.5 68.03
-9 1 -9 614.79 56.15
1 9 -9 594.59 56.91
-1 9 10 364.38 31.17
1 9 10 390.21 32.19
9 1 -10 368.01 28.6
9 -1 -10 399.49 28.92
-1 9 -10 388 51.4
-9 1 -10 382.84 46.05
1 9 -10 274.6 39.3
9 1 -11 778.57 42.83
-1 9 -11 755.76 73.5
1 9 -11 850.48 76.9
-1 9 11 722.64 44.77
1 9 11 749.91 45.93
9 -1 -11 737.5 41.19
-1 9 12 192.02 23.89
1 -9 -12 204.69 26.8
-1 9 -12 209.27 39.38
9 1 -12 219.36 23.83
9 -1 -12 192.7 21.9
9 1 -13 10.28 7.51
9 -1 -13 10.43 6.35
1 -9 -13 5.61 9.16
-1 -9 -13 13.45 11.44
-9 -1 -13 -0.74 6.55
9 -1 -14 74.63 15.06
-9 -1 -14 61.77 14.25
1 -9 -14 64.57 16.62
9 1 -14 57.91 14.29
-1 -9 -14 61.65 18.23
-1 -9 -15 338.43 36.63
1 -9 -15 339.79 36.53
9 1 -15 326.9 30.92
9 -1 -15 315.6 30.66
-9 -1 -15 343.71 31.89
-1 -9 -16 26.06 11.55
9 1 -16 41.62 12.21
-9 -1 -16 43.28 13.17
9 -1 -16 42.3 12.27
1 -9 -16 38.2 10.66
-1 -9 -17 304.3 33.65
1 -9 -17 286.35 32.23
9 -1 -17 271.8 27.28
-9 -1 -17 291.87 28.53
1 -9 -18 52.09 14.43
9 -1 -18 48.3 12.57
-1 -9 -18 35.2 12.98
9 -1 -18 64.2 13.23
9 -1 -19 68.21 12.64
-1 -9 -19 92.97 16.51
1 -9 -19 96.22 17.14
9 1 -19 84.21 14.35
9 -1 -20 130.78 14.2
-1 -9 -20 159.79 19.78
9 1 -20 142.28 15.84
1 -9 -20 168.95 20.22
-1 -9 -21 256.02 21.82
1 -9 -21 232.71 20.6
9 1 -21 204.24 16.33
-2 9 0 1193.3 60.19
2 9 0 1415.5 51.1
-9 -2 0 1374.02 40.75
-9 2 0 1136.91 54.55
2 9 1 84.83 14.3
-9 -2 -1 88.63 10.58
-2 9 -1 105.54 19.14
-2 9 1 105.68 19.82
-9 2 -1 102.22 18.54
2 9 -1 84.59 14.09
2 9 -2 74.25 14.83
-9 2 -2 80.29 16.6
2 9 2 68.39 13.77
-9 -2 -2 63.4 10.15
-2 9 -2 82.21 18.59
-9 -2 -3 59.13 10.36
-9 2 -3 29.68 10.29
2 9 -3 75.41 15.78
-2 9 -3 39.68 11.97
-2 9 -4 80.63 20.44
-9 2 -4 76.21 18.36
-9 -2 -4 91.09 15.2
2 9 -4 113.8 21.27
2 9 -5 655.06 49.95
-9 -2 -5 589.86 37.07
-2 9 -5 845.56 61.58
-9 2 -5 761.27 54.77
-2 9 -6 4.53 8.48
2 9 -6 1.37 7.43
-9 -2 -6 9.03 6.41
-9 2 -6 -6.19 8.8
2 9 -7 264.86 36.29
-2 9 -7 351.75 45.66
-9 2 -7 364.36 42.71
2 9 8 198.43 22.16
2 9 -8 202.92 33.75
-2 9 -8 162.01 33.66
-9 2 -8 159.32 30.18
-2 9 9 150.04 18.55
2 9 -9 98.89 18.29
-2 9 -9 159.33 34.73
9 2 -9 163.72 17.71
-9 2 -9 162.17 28.99
2 9 9 158.21 20.65
-2 9 10 810.49 45.07
9 2 -10 925.48 43.62
2 9 10 904.77 49.61
-9 2 -10 825.39 68.56
2 9 -10 735.1 67.79
9 -2 -10 838.58 41.68
-2 9 -10 867.25 77.76
-2 9 -11 61.35 23.38
-9 2 -11 65.27 20.81
-9 -2 -11 76.07 15.32
9 -2 -11 69.22 12.91
-2 9 11 54.43 13.57
2 9 11 79.87 19.79
9 2 -11 85.41 14.74
-2 9 12 154.75 21.69
-2 9 -12 169.55 39.57
9 2 -12 213.24 23.17
2 -9 -12 166.79 24.35
9 -2 -12 174.75 21.4
-9 -2 -12 214.36 25.34
9 2 -13 181.5 22.34
9 -2 -13 113.38 16.67
-2 -9 -13 171.77 26.23
2 -9 -13 233.37 31.32
-9 -2 -13 182.94 23.63
9 -2 -14 -12.3 8.82
-2 -9 -14 18.28 11.98
9 2 -14 16.07 10.34
-9 -2 -14 3.54 7.67
2 -9 -14 -3.47 7.83
9 2 -15 95.58 17.23
2 -9 -15 120.34 22.83
9 -2 -15 127.58 20.55
-2 -9 -15 88.88 18.63
-9 -2 -15 90.51 16.39
9 -2 -16 211.96 24.6
-9 -2 -16 211.61 25.46
-2 -9 -16 222.49 30.1
2 -9 -16 225.54 28.82
-9 -2 -17 78.08 14.92
2 -9 -17 93.16 19.3
-2 -9 -17 75.66 17.63
9 -2 -17 86.29 17.16
9 -2 -18 -0.78 5.11
2 -9 -18 -1 6.72
-9 -2 -18 19.47 7.85
-2 -9 -18 8.73 6.89
9 -2 -18 10.5 7.69
9 2 -19 27.8 8.52
9 -2 -19 28.74 7.93
-2 -9 -19 23.57 7.89
2 -9 -19 22.44 8.82
-2 -9 -20 326.87 28.29
9 2 -20 298.01 23.37
2 -9 -20 288.18 25.97
9 2 -21 36.7 6.94
2 -9 -21 48.19 9.52
-2 -9 -21 54.55 10.09
-9 -3 0 3.67 2.78
-9 3 0 -0.07 7.24
3 9 0 13.63 5.54
-3 9 0 6 6.57
-3 9 -1 394.32 35.88
3 9 1 554.83 29.51
-9 3 -1 381.24 33.61
-3 9 1 406.59 37.1
3 9 -1 528.13 32.06
-9 3 -2 44.85 10.65
-9 -3 -2 34.67 4.9
-3 9 -2 51.03 13.52
3 9 2 62.88 9.89
3 9 -2 56.27 10.88
-9 -3 -3 70.1 8.3
-9 3 -3 58.71 15.66
3 9 -3 78.47 14.33
-3 9 -3 53.66 14.3
-9 3 -4 892.42 55.46
-3 9 -4 1027 63.13
3 9 -4 879.03 51.56
-3 9 -5 1523.47 81.24
-9 3 -5 1504.25 75.18
3 9 -5 1415.27 70.72
-9 3 -6 364.6 41.41
-3 9 -6 394.61 45.12
3 9 -6 318.75 36.27
3 9 -7 382.24 39.7
-3 9 -7 382.52 46.26
-9 3 -7 353.05 41.44
3 9 8 49.73 15.9
-9 3 -8 23.34 11.78
3 9 -8 37.43 14.11
-3 9 -8 41.87 20.1
9 3 -9 1041.43 43.77
-9 3 -9 865.15 71.9
3 9 -9 1189.69 80.16
-3 9 -9 936.96 79.92
3 9 9 1050.74 51.74
-3 9 9 772.77 42.54
-9 3 -10 -3.38 11.16
-9 -3 -10 -3.09 4.87
9 3 -10 -1.4 4.43
-3 9 10 -2.17 5.18
9 -3 -10 4.39 3.85
3 9 10 8.15 7.03
-3 9 -10 6.94 12.33
-3 9 -11 379.99 55.44
-3 9 11 409.42 33.58
-9 3 -11 393.59 50.21
9 3 -11 501.19 34.85
-9 -3 -11 483.43 37.35
3 -9 -11 428.22 37.7
9 -3 -11 416.6 31.93
-3 9 -12 19.05 13.69
3 -9 -12 8.22 9.52
9 3 -12 2.16 6.03
9 -3 -12 23.27 10.08
-9 3 -12 11.86 10.94
-3 9 12 1.19 5.97
-9 -3 -12 8.69 7.11
9 -3 -13 44.38 12.59
3 -9 -13 6.69 13.98
9 3 -13 76.83 15.81
-9 -3 -13 70.98 15.92
-3 9 -13 84.48 29.43
-3 -9 -13 68.86 17.13
-3 -9 -14 72.12 17.76
9 3 -14 32.9 9.37
9 -3 -14 56.78 14.25
3 -9 -14 76.55 17.29
-9 -3 -14 62.49 14.53
9 -3 -15 -13.18 11.14
-3 -9 -15 20.26 10.13
3 -9 -15 14.92 8.48
-9 -3 -15 12.46 8.73
3 -9 -16 110.34 21.67
-3 -9 -16 99.45 20.38
-9 -3 -16 94.37 17.88
9 -3 -16 115.79 20.59
-3 -9 -17 44.01 14.09
9 -3 -17 54.41 14
9 -3 -17 44.37 11.16
3 -9 -17 56.71 15.46
-9 -3 -17 44.04 11.58
-3 -9 -18 19.3 8.47
3 -9 -18 30.68 10.6
-9 -3 -18 26.56 9.03
9 -3 -18 40.08 11.58
9 -3 -18 34.42 10.32
9 3 -19 293.76 25.68
3 -9 -19 309.94 29.16
9 -3 -19 300.9 25.69
-3 -9 -19 324.51 30.3
-9 -3 -19 281.06 24.2
9 3 -20 -4.39 4.08
3 -9 -20 2.56 4.78
-3 -9 -20 -7.53 7.18
-3 -9 -21 286.46 22.6
9 3 -21 248.87 18.44
3 -9 -21 255.13 20.53
-4 9 0 1758.18 77.35
-9 4 0 1738.5 73.69
4 9 -1 557.61 29.68
-9 4 -1 475.3 38.53
4 9 1 535.21 24.34
-4 9 -1 531.43 41.89
-4 9 1 529.63 43.45
4 9 2 196.71 15.18
-4 9 -2 200.28 26.52
4 9 -2 193.25 19.62
-9 4 -2 185.13 24.81
4 9 -3 123.48 18.72
-9 4 -3 184.83 27.42
-4 9 -3 213.42 31.25
4 9 3 99.56 13.08
4 9 -4 645.8 43.08
-4 9 -4 687.5 52.79
-9 4 -4 702.6 50.48
-9 4 -5 1277.68 71.29
-4 9 -5 1370.97 77.95
4 9 -6 788.33 54.21
-9 4 -6 958.75 66.68
-4 9 -6 981.86 70.97
-9 4 -7 33.93 15.42
4 9 -7 63.62 18.09
-4 9 -7 45.48 16.73
-4 9 -8 810.6 73.54
4 9 8 828.09 43.98
-9 4 -8 784.66 68.92
-9 4 -9 219.26 35.77
-4 9 -9 243.53 41.19
-4 9 9 215.82 21.03
4 9 9 228.18 24.5
-4 9 -10 804.74 78.16
4 -9 -10 702 45.85
-9 -4 -10 933.68 50.95
-4 9 10 734.5 42.51
-9 4 -10 696.49 69.84
-4 9 -11 212.6 40.82
9 -4 -11 201.4 21.79
-4 9 11 203.34 22.49
-9 -4 -11 202.37 25.51
-9 4 -11 191.75 37.63
4 -9 -11 202.66 25.92
9 -4 -12 215.51 24.16
-4 9 12 258.29 26.99
4 -9 -12 282.68 30.57
-4 9 -12 225.21 43.99
-9 -4 -12 286.55 29.59
-9 4 -12 197.94 37.46
-4 -9 -13 91.43 20.51
-4 9 -13 75.42 28.54
4 -9 -13 7.67 8.05
9 -4 -13 69.81 14.33
-9 -4 -13 84.4 17.53
9 -4 -14 108.35 18.26
-4 -9 -14 165.04 26.54
-9 -4 -14 175.87 23.28
4 -9 -14 207.42 28.07
9 -4 -15 123.08 19.25
-4 -9 -15 126.88 23.61
4 -9 -15 165.03 25.87
-9 -4 -15 128.55 20.66
4 -9 -16 169.86 24.74
-4 -9 -16 155.38 24.69
9 -4 -16 201.96 25.6
-9 -4 -16 156.08 21.83
-9 -4 -17 105.38 17.8
-4 -9 -17 113.12 21.41
4 -9 -17 120.6 20.07
9 -4 -17 136.41 20.04
4 -9 -18 303.91 30.55
9 -4 -18 283.11 26.22
-4 -9 -18 298.36 31.49
9 4 -18 259.13 25.49
-9 -4 -18 265.56 26.15
9 -4 -19 12.5 7.18
-4 -9 -19 -6.16 7.67
4 -9 -19 9.41 7.04
9 4 -19 -3.41 5.99
-9 -4 -19 10.25 4.4
-4 -9 -20 261.76 24.4
9 4 -20 246.1 21.6
4 -9 -20 239.13 22.33
4 -9 -21 52.49 8.96
4 9 -21 47.95 8.72
9 4 -21 38.8 7.24
-4 -9 -21 41.72 8.41
-5 9 0 1791.93 82.15
-9 5 0 1756.41 78.57
-5 9 -1 989.2 60.09
5 9 -1 1065.14 36.45
-5 9 1 996.29 62.4
-9 5 -1 981.94 57.95
-9 5 -2 131.78 23.1
-5 9 -2 136.31 24.56
5 9 -2 192.19 18.67
-5 9 -3 1277.56 72.06
5 9 -3 1066.59 46.29
-9 5 -3 1231.44 66.66
-5 9 -4 1468.7 78.97
-9 5 -4 1373.99 72.88
5 9 -4 1548.1 61.45
-9 5 -5 887.36 62.05
-5 9 -5 908.36 65.99
5 9 -5 793.36 48.69
-9 5 -6 730.59 59.68
-5 9 -6 792.62 64.4
-9 5 -7 951.48 74.33
-5 9 -7 1019.33 79.26
-5 9 -8 9.62 13.75
-9 5 -8 7.28 11.52
5 9 8 5.56 4.82
5 9 9 644.12 42.39
-5 9 -9 641.3 69.77
-5 9 9 608.09 36.1
-9 5 -9 655.33 66.27
-9 5 -10 594.13 66.08
-5 9 10 635.91 39.1
5 -9 -10 647.92 43.31
-5 9 -10 669.85 74.42
-9 5 -11 199.27 37.85
9 -5 -11 182.47 20.9
-5 9 -11 181.92 41.84
5 -9 -11 194.59 24.76
-5 9 11 200.09 22.77
-9 -5 -11 248.34 28.14
9 -5 -12 20.05 5.42
-5 9 12 55.4 13.71
-5 9 -12 79.38 25.85
-9 -5 -12 54.35 14.42
-9 5 -12 62.94 24.56
5 -9 -12 66.85 15.14
-5 9 -13 126.9 36.52
5 -9 -13 161.08 24.45
-9 -5 -13 150.88 22.8
9 -5 -13 104.64 18
-9 5 -13 130.62 36.01
-5 -9 -13 147.11 25.83
5 -9 -14 16.48 9.37
-5 -9 -14 9.6 7.69
-9 -5 -14 3.68 7.24
9 -5 -14 4.39 6.77
-9 -5 -15 531.51 42.42
5 -9 -15 597.41 46.12
-5 -9 -15 515.71 44.96
9 -5 -16 340.73 31.52
-9 -5 -16 298.87 30.65
-5 -9 -16 316.52 34.79
5 -9 -16 324.19 33.96
5 -9 -17 424.39 37
-9 -5 -17 369.77 33.02
-5 -9 -17 380.41 36.71
9 -5 -17 393.41 33.2
-9 -5 -18 48.31 10.92
9 5 -18 43.59 11.46
-5 -9 -18 49.25 13.09
5 -9 -18 54.78 12.79
9 -5 -18 43.6 10.69
-5 -9 -19 216.73 23.95
9 -5 -19 213.37 20.74
5 -9 -19 239.86 23.99
9 5 -19 223.38 22.39
-9 -5 -19 196.01 20.28
-5 -9 -20 77.36 13.34
5 9 -20 75.45 12.44
9 5 -20 72.4 11.58
5 -9 -20 71.84 12.62
5 9 -21 53.76 8.79
9 5 -21 62.43 9.3
-5 -9 -21 60.62 9.98
-9 6 0 894.3 59.03
-6 9 0 955.96 62.49
-9 6 1 1829.09 86.96
-9 6 -1 1723.1 81.2
-6 9 1 1890.82 89.23
-6 9 -1 1791.84 85.56
-6 9 -2 1168.57 69.85
-9 6 -2 1188.85 68.76
-9 6 -3 891.53 59.1
-6 9 -3 954.38 63.57
-6 9 -4 575.95 52.14
-9 6 -4 607.89 51.08
-9 6 -5 976.15 68.46
-6 9 -5 1092.5 72.91
-9 6 -6 457.4 50.52
-6 9 -6 415.97 51.02
-6 9 -7 804.42 70.75
6 9 7 859.97 45.34
-9 6 -7 736.12 66.75
-6 9 8 402.65 28.47
-6 9 -8 420.66 56.28
6 9 8 341.23 31.02
-9 6 -8 396.69 52.04
-6 9 9 249.43 23.59
-6 9 -9 259.08 46.24
-9 6 -9 283.02 45.55
6 -9 -9 280.41 27.37
-9 6 -10 36.62 14.43
6 -9 -10 49.19 12.24
-6 9 -10 28.78 17.74
-6 9 10 51.99 11.47
-6 9 11 281.61 26.93
-6 9 -11 277.43 49.8
-9 6 -11 255.14 45.8
6 -9 -11 243.78 26.91
6 -9 -12 -0.49 10.91
-6 9 -12 28.21 14.37
9 -6 -12 32.7 10.93
-9 6 -12 25.27 15.13
-9 -6 -12 54.49 15.43
-6 9 -13 5.19 13.24
-6 -9 -13 12.54 8.82
9 -6 -13 4.37 4.31
6 -9 -13 -27.69 13.95
-9 6 -13 4.77 12.01
-9 -6 -13 8.45 6.48
6 -9 -14 769.07 51.89
-9 -6 -14 665.2 47.66
-6 -9 -14 683.33 52.08
9 -6 -15 260.16 27.21
6 -9 -15 335.44 33.57
-9 -6 -15 337.47 33.16
-6 -9 -15 341.61 36.04
9 -6 -16 642.35 42.74
6 -9 -16 641.8 44.64
-6 -9 -16 529.78 43.96
-9 -6 -16 556.47 43.23
6 -9 -17 436.19 36.15
-6 -9 -17 461.96 39.97
-9 -6 -17 441.75 35.56
9 -6 -17 423.69 33.34
-6 -9 -18 157.57 22.17
9 6 -18 177.04 21.73
9 -6 -18 180.83 20.57
6 -9 -18 184.08 22.32
-9 -6 -18 146.57 19.68
-6 -9 -19 7.02 5.46
-9 -6 -19 5.33 4.9
6 -9 -19 6.59 4.93
9 6 -19 14.97 7.67
9 -6 -19 19.07 7.26
6 9 -20 26.88 7.28
-6 -9 -20 33.76 8.42
6 -9 -20 26.01 6.85
-9 -6 -20 16.77 4.87
9 6 -20 38.7 8.65
6 9 -21 81.28 9.89
9 6 -21 83.28 10.21
-7 9 0 2776.4 110.7
-9 7 0 2700.44 106.99
-7 9 -1 376.65 40.12
-9 7 1 411.72 43.48
-7 9 1 430.45 44.07
-9 7 -1 396.3 40.98
-9 7 -2 94.65 20.9
-7 9 -2 94.41 21.83
-9 7 -3 233.74 34.47
-7 9 -3 220 33.65
-9 7 -4 2342.03 101.72
-7 9 -4 2441.54 105.12
-9 7 -5 203.46 34.66
-7 9 -5 176.63 33.41
-7 9 -6 1718.97 97.17
9 7 -6 1641.27 52.88
-9 7 -6 1640.89 94.7
9 7 7 143.82 15.93
-9 7 -7 185.79 35.54
-7 9 -7 185.61 36.38
-7 9 8 182 18.83
-9 7 -8 176.17 34.78
-7 9 -8 170.79 36.83
-9 7 -9 36.64 21.87
-7 9 -9 17.26 16.63
-7 9 9 16.95 7.29
-9 7 -10 324.95 53.03
-7 9 -10 301.33 50.45
7 -9 -10 281.86 27.63
-9 7 -11 7.67 15.21
-7 9 -11 -0.34 11.14
7 -9 -11 -5.16 5.67
7 -9 -12 36.28 10.86
-7 9 -12 34.51 16.69
-9 7 -12 64.51 24.2
9 -7 -12 1.53 7.45
-9 -7 -12 49.43 14.42
7 -9 -13 133.48 20.11
-7 9 -13 137.38 34.83
9 -7 -13 121.86 18.48
-9 7 -13 181.63 41.59
-9 -7 -13 163.33 24.14
-7 -9 -13 169.13 26.93
9 -7 -14 101.35 15.02
7 -9 -14 120.61 20.2
-9 -7 -14 185.13 25.81
-7 -9 -14 204.02 28.51
9 -7 -15 256.77 28.37
-9 -7 -15 298.98 32.99
-7 -9 -15 266.81 31.99
7 -9 -15 258.73 28.07
-9 -7 -16 1130.79 60.59
9 -7 -16 1022.83 52.46
-7 -9 -16 1120.57 63.32
7 -9 -16 1043.68 55.77
9 -7 -17 200.27 22.48
-9 -7 -17 170.59 23.5
-7 -9 -17 149.17 22.28
9 7 -17 178.89 22.35
7 -9 -17 200.86 23.93
9 -7 -18 179 19.96
-7 -9 -18 207.97 24.18
9 7 -18 205.75 21.98
7 -9 -18 187.63 21.23
-9 -7 -18 188.15 21.95
9 -7 -19 24.18 7.46
-7 -9 -19 24.22 9.2
7 9 -19 17.71 6.41
-9 -7 -19 13.59 5.71
7 -9 -19 19.04 7.11
9 7 -19 20.58 7.17
9 7 -20 32.71 8.27
7 -9 -20 41.46 8.46
-7 -9 -20 37.69 9.06
7 9 -20 40.69 8.66
-9 8 0 69.82 21.48
-8 9 0 66.29 22.82
-9 8 1 12.23 12.67
-8 9 1 8.95 9
-9 8 -1 9.32 9.88
-8 9 -1 6.75 9.36
-9 8 -2 10.65 7.78
-8 9 -2 10.12 8.27
-9 8 -3 938.9 66.22
-8 9 -3 987.75 68.5
-8 9 -4 17.3 8.74
-9 8 -4 40.36 16.29
-8 9 -5 1683.17 94.6
-9 8 -5 1677.51 94.25
-8 9 -6 98.84 25.04
-9 8 -6 104.16 23.22
8 9 -6 85.33 12.34
9 8 -6 98.4 14.03
9 8 7 1119.02 43.3
9 8 -7 1102.41 46.49
-9 8 -7 961.65 83.41
-8 9 -7 958.16 83.91
-9 8 -8 6.53 12.61
-8 9 -8 1.89 14.86
-8 9 8 13.26 6.77
-9 8 -9 6.96 11.13
-8 9 -9 8.95 14.64
-9 8 -10 14.48 14.89
-8 9 -10 -2.97 12.55
-9 8 -11 92.34 32.41
8 -9 -11 102.89 15.78
-8 9 -11 90.89 29.72
-8 9 -12 20.49 19.84
-9 8 -12 5.51 13.97
8 -9 -12 1.93 4.56
-9 -8 -12 12.67 10.32
-9 -8 -13 367.45 36.72
-8 -9 -13 359.17 37.51
9 -8 -13 335.45 30.5
9 -8 -14 53.34 12.81
-9 -8 -14 33.17 11.9
-8 -9 -14 43.27 12.95
8 -9 -14 27.57 9.64
-9 -8 -15 1123.76 62.56
9 -8 -15 1030.69 53.31
-8 -9 -15 1172.67 65.49
8 -9 -16 73.6 14.93
-8 -9 -16 45.11 13.74
-9 -8 -16 67.53 14.9
9 8 -16 99.73 17.99
9 -8 -16 82.76 14.53
9 -8 -17 681.75 40.01
-9 -8 -17 775.07 48.62
8 9 -17 807.33 45.84
9 8 -17 817.36 45.79
8 -9 -17 722.73 43.54
-8 -9 -17 853.87 51.36
9 -8 -18 9.26 6.1
-9 -8 -18 5.75 5.85
8 9 -18 14.11 7.04
8 -9 -18 22.71 7.25
9 8 -18 16.69 7.86
-8 -9 -18 -3.72 7.17
8 -9 -19 12.69 5.94
-9 -8 -19 0.79 3.68
-8 -9 -19 9.08 6.14
8 9 -19 4.68 4.53
9 8 -19 14.95 6.25
9 8 -20 4.27 4.22
-8 -9 -20 -3.15 4.53
8 9 -20 -0.78 3.02
-9 9 0 286.69 39.9
-9 9 -1 0.28 7.68
-9 9 1 3.89 11.43
-9 9 -2 162.21 30.34
-9 9 2 160.54 32.19
-9 9 -3 -4.89 11.91
-9 9 -4 1504.48 88.56
9 9 -5 -0.91 4.07
-9 9 -5 4.09 14.17
9 9 6 2088.57 56.34
-9 9 -6 1910.24 107.19
9 9 -6 2040.37 61.26
9 9 -7 2.45 4.71
-9 9 -7 2 14.55
9 9 -8 159.19 19.47
-9 9 -8 151.71 37.61
-9 9 -9 6.97 11.52
-9 9 -10 41.47 25.91
-9 9 -11 8.84 19.09
-9 9 -12 100.86 32.98
-9 -9 -13 -10.33 8.06
-9 -9 -14 638.16 49.35
9 -9 -14 516.11 37.6
-9 -9 -15 -12.05 10.14
9 -9 -15 -3.66 5.39
9 9 -15 -9.45 8.65
9 -9 -16 945.5 48.82
9 9 -16 1092.17 53.74
-9 -9 -16 1065.96 59.01
9 -9 -17 -0.67 4.83
9 9 -17 4.19 7.96
-9 -9 -17 -13.82 9.27
-9 -9 -18 205.27 22.8
9 9 -18 241.14 23.12
-9 -9 -19 -1.2 4.07
9 9 -19 -0.54 3.54
9 9 -20 0.68 2.75
-10 0 0 2806.5 77.62
0 10 0 2786.53 85.79
0 10 1 28.59 8.76
0 10 -1 24.24 9.38
-10 0 -1 32.87 8.85
-10 0 -2 145.52 18.5
0 10 -2 153.94 21.75
0 10 2 175.03 23.19
0 10 -3 62.66 16.15
-10 0 -3 65.97 12.64
0 10 -4 55.15 15.73
-10 0 -4 42.99 13.87
0 10 -5 12.34 10.93
-10 0 -5 15.21 9.34
0 10 -6 120.61 26.49
-10 0 -6 96.01 19.29
-10 0 -7 355.8 37.79
0 10 -7 375.53 44.64
0 10 8 1201.78 50.72
-10 0 -8 1270.43 73.61
0 10 -8 1122.15 80.62
0 10 9 11.42 5.68
-10 0 -9 2.91 11.88
0 10 -9 -3.35 11.13
0 10 10 1083.06 53.5
0 10 -10 1089.19 85.17
10 0 -10 1074.1 47.64
0 10 -11 279.8 45.97
0 10 11 250.5 27.3
10 0 -11 264.14 24.76
0 10 12 659.34 44.86
10 0 -12 697.42 42.39
10 0 -13 12.03 7.37
0 -10 -13 21.43 12.86
0 -10 -14 17.11 12.31
10 0 -14 15.85 8.91
0 -10 -15 298.25 33.77
10 0 -15 279.41 27.26
10 0 -16 7.29 6.21
0 -10 -16 -1.36 11.89
10 0 -17 218.59 24.33
0 -10 -17 247.67 30.35
0 -10 -18 12.44 7.77
10 0 -18 8.46 6.07
10 0 -19 31.52 8.91
0 -10 -19 46.77 11.42
10 0 -20 364.46 23.81
0 -10 -20 461.2 32.77
0 -10 -21 72 11.62
-1 10 0 104.98 19.51
1 10 0 193.63 22.81
-10 1 0 120.04 18.24
-10 -1 0 172.1 18.69
-1 10 1 992.81 54.99
-10 1 -1 939.61 48.03
1 10 -1 897.83 47.8
-1 10 -1 958.47 54.2
1 10 1 927.98 46.99
-10 -1 -1 877.1 39.23
1 10 -2 54.8 12.7
-10 -1 -2 46.94 9.48
-1 10 2 32.95 11.29
1 10 2 45.71 11.91
-1 10 -2 29.89 11.23
-10 1 -2 39.22 10.92
-10 1 -3 50.2 13.08
-1 10 -3 61.15 16.46
-10 -1 -3 45.59 10.69
1 10 -3 53.06 15.46
-1 10 -4 25.67 12.82
-10 1 -4 12.71 6.95
-10 -1 -4 12.35 6.58
1 10 -4 17.32 10.39
1 10 -5 24.74 10.98
-10 -1 -5 20.72 9.15
-1 10 -5 31.82 15.3
-10 1 -5 27.26 10.39
-10 -1 -6 96.7 18.96
-1 10 -6 96.18 22.82
-10 1 -6 75.28 16.18
1 10 -6 93.32 20.64
-1 10 -7 497.44 54.24
-10 -1 -7 367.83 35.69
1 10 -7 427.16 47.42
-10 1 -7 473.62 47
1 10 8 63.03 13.07
1 10 -8 111.38 30.08
-1 10 8 85.81 13.65
-1 10 -8 120.1 34.03
-10 -1 -8 81.74 19.3
-10 1 -8 105.95 25.2
10 1 -9 933.8 41.48
1 10 9 845.44 47.04
1 10 -9 699.53 64.19
-10 1 -9 1081.91 75.07
-1 10 9 960.12 49.11
-1 10 -9 1150.24 87.13
-10 1 -10 192.84 32.8
-1 10 -10 224.09 41.1
10 -1 -10 198.93 21.02
-1 10 10 242.93 25.37
1 10 -10 284.49 43.28
1 10 10 258.93 26.89
10 1 -10 240.75 22.91
10 -1 -11 812.03 42.69
1 10 -11 857.21 78.23
10 1 -11 847.02 43.46
1 10 11 771.08 48.19
-1 10 -11 782.62 75.59
-1 10 11 772.92 46.56
10 1 -12 77.87 16.79
10 -1 -12 10.47 5.71
-1 10 -12 64.84 25.81
1 -10 -12 39.93 14.02
-1 10 12 30.87 8.44
-1 -10 -13 335.89 37.82
10 -1 -13 232.38 25.46
10 1 -13 206.8 22.74
1 -10 -13 337.24 37.23
-1 -10 -14 17.56 13.13
1 -10 -14 15.65 9.56
10 -1 -14 12.19 7.14
10 1 -14 3.21 4.86
-1 -10 -15 16.96 9.49
10 -1 -15 -6.05 6.59
1 -10 -15 9.38 7.17
10 1 -15 11.32 8.04
10 -1 -16 255.65 26.25
-1 -10 -16 288.09 33.26
1 -10 -16 262.81 31.04
10 -1 -16 261.83 26.83
10 -1 -17 23.19 9.44
10 -1 -17 20.44 9.77
1 -10 -17 16.48 8.66
-1 -10 -17 21.5 10.71
10 1 -17 25.05 9.89
10 -1 -18 0.38 5.18
-1 -10 -18 9.94 9.67
10 1 -18 13.22 5.83
1 -10 -18 4.96 8.71
10 -1 -19 89.08 13.66
-1 -10 -19 111.01 18.32
10 1 -19 80.53 13.64
1 -10 -19 112.91 18.41
10 -1 -20 97.39 11.94
1 -10 -20 127.75 17.46
-1 -10 -20 154.74 19.01
10 1 -20 115.7 13.72
1 -10 -21 417.61 26.3
-1 -10 -21 425.98 26.87
-2 10 0 771.36 50.81
2 10 0 641.69 37.51
-10 2 0 743.15 46.92
-10 -2 0 627.65 29.07
-10 -2 -1 37.44 7.51
2 10 -1 47.75 11.51
-10 2 -1 26.33 10.64
2 10 1 57.79 11.4
-2 10 1 34.42 12.75
-2 10 -1 22.74 11.77
2 10 2 411.65 29.96
2 10 -2 417.86 32.49
-10 2 -2 459.41 35.77
-2 10 -2 489.35 40.98
-10 -2 -2 388.02 23.02
-2 10 -3 2.88 8.16
-10 2 -3 4.01 8.68
-10 -2 -3 7.02 4.97
2 10 -3 7.09 7.18
2 10 -4 39.97 14.28
-2 10 -4 32.97 14.88
-10 2 -4 26.24 11.61
-10 -2 -4 27.85 8.84
-10 -2 -5 213.84 22.5
-2 10 -5 254.9 35.5
-10 2 -5 224.14 30.17
2 10 -5 229.78 30.57
-10 2 -6 207.09 30.67
-10 -2 -6 145.72 19.84
2 10 -6 183.44 30.73
-2 10 -6 216.38 34.92
-2 10 -7 29.99 14.81
2 10 -7 58.07 18.71
-10 2 -7 36.83 17
2 10 8 140.48 19.28
2 10 -8 136.15 28.98
-2 10 8 203.15 21.02
-10 2 -8 179.58 35.46
-2 10 -8 191.22 36.8
10 2 -9 526.03 31.79
2 10 9 530.26 36.72
-10 2 -9 483.95 50.99
-2 10 -9 526.13 63.08
2 10 -9 619.04 60.34
-2 10 9 499.76 33.86
2 10 -10 380.82 48.8
10 2 -10 367.73 27.79
-10 2 -10 401.5 49.6
2 10 10 391.21 33.4
-2 10 10 375.69 32.13
-2 10 -10 414.97 55.33
-2 10 11 153.85 21.68
-10 2 -11 146.49 33.8
10 2 -11 216.25 22.77
2 10 11 180.09 26.37
10 -2 -11 160.48 20.26
-2 10 -11 152.04 35.6
-2 10 -12 208.23 42.25
10 2 -12 223.77 25.79
2 -10 -12 202.8 27.61
10 -2 -12 116.64 16.04
-2 10 12 198.69 24.8
2 -10 -13 -15.33 13.12
10 2 -13 8.75 7.2
-2 -10 -13 13.45 13.15
10 -2 -13 10.29 8.13
10 2 -14 62.65 15.1
-2 -10 -14 50.65 16.72
2 -10 -14 58.72 15.47
10 -2 -14 34.26 9.82
2 -10 -15 50.83 15.02
10 -2 -15 41.75 11.37
-2 -10 -15 54.32 17.18
10 -2 -16 21.44 8.92
-2 -10 -16 51.05 15.97
2 -10 -16 57.4 16.52
10 -2 -17 11.26 7.53
10 2 -17 10.06 6.23
2 -10 -17 0.05 9.94
10 -2 -17 5.93 5.75
-2 -10 -17 -3.13 8.21
10 -2 -18 28.33 10.04
-2 -10 -18 24.62 10.27
2 -10 -18 30.57 11.5
10 2 -18 16.41 8.53
-2 -10 -19 139.84 20.54
10 2 -19 122.14 16.03
10 -2 -19 91.7 11.93
2 -10 -19 121.98 18.06
10 2 -20 84.12 11.89
-2 -10 -20 93.23 14.39
2 -10 -20 97.16 14.84
-2 -10 -21 136.89 15.35
2 -10 -21 125.19 14.46
2 10 -21 124.42 13.21
-10 3 0 353.85 34.34
-3 10 0 374.63 37.52
-3 10 -1 188.61 26.39
-10 3 -1 185.69 24.45
3 10 -1 108.66 16.2
-3 10 1 200.41 27.99
-10 -3 1 94.4 11.64
3 10 1 119.05 14.74
-10 3 -2 59.41 16.77
3 10 2 143.97 16.92
-3 10 -2 80.46 20.67
3 10 -2 133.05 20.56
3 10 -3 129.45 19.81
-3 10 -3 165.5 26.04
-10 3 -3 150.45 23.35
3 10 3 118.14 15.51
-3 10 -4 536.65 50.02
3 10 -4 410.98 37.36
-10 3 -4 521.6 43.82
-10 3 -5 23.2 11.03
-3 10 -5 19.8 13.57
3 10 -5 32.7 13.28
-3 10 -6 548.42 55.64
3 10 -6 600.41 50.19
-10 3 -6 549.4 50.63
-3 10 -7 91.75 27.21
-10 3 -7 76.16 23.31
3 10 -7 128.61 28.14
10 3 7 91.28 13.49
3 10 7 83.92 15.68
-3 10 8 520.27 32.91
3 10 8 612.67 38.83
-3 10 -8 588.87 62.42
-10 3 -8 528.92 54.88
3 10 -8 689.47 58.46
-3 10 -9 117.93 29.95
3 10 9 90.37 15.6
3 10 -9 145.32 32.28
-10 3 -9 114.68 26.97
-3 10 9 85.02 13.53
-10 3 -10 319.1 45.12
3 10 10 421.89 35.82
-3 10 10 375.69 31.39
-3 10 -10 362.94 53.52
-3 10 11 12.21 8.36
-3 10 -11 3.17 11.03
10 -3 -11 7.64 6.53
3 -10 -11 12.59 7.01
-10 3 -11 -0.03 11.17
-3 10 12 33.57 11.78
10 -3 -12 15.78 4.22
-10 3 -12 37.56 16.76
-3 10 -12 50.16 25.94
3 -10 -12 42.16 13.79
3 -10 -13 166.11 26.67
10 -3 -13 148.13 20.01
-10 -3 -13 199.9 24.23
-3 -10 -13 203.16 30.13
-3 10 -13 186.25 40.89
10 -3 -14 41.63 11.68
3 -10 -14 54.54 14.75
-10 -3 -14 57.02 13.64
-3 -10 -14 41.57 12.87
-10 -3 -15 43 11.86
3 -10 -15 52.23 16.07
-3 -10 -15 31 11.75
10 -3 -15 32.69 10.96
10 -3 -15 32.13 11.49
3 -10 -16 118.65 22.04
-10 -3 -16 101.3 17.22
10 -3 -16 99.96 17.1
-3 -10 -16 96.19 19.65
10 -3 -16 137.56 19.83
10 3 -17 32.49 10.62
3 -10 -17 37.78 10.99
10 -3 -17 41.84 11.45
10 -3 -17 24.4 9.1
-3 -10 -17 40.71 13.89
-3 -10 -18 139.32 21.24
10 3 -18 122.74 16.87
10 -3 -18 135.15 17.95
3 -10 -18 146.42 21.53
3 -10 -19 6.38 6.27
-3 -10 -19 2.12 6.68
10 3 -19 0.34 4.16
10 3 -20 159.64 15.87
3 -10 -20 183.22 19.22
-3 -10 -20 189.48 20.71
3 10 -21 23.19 6.04
-3 -10 -21 15.24 5.49
3 -10 -21 22.51 6
-4 10 0 128.97 23.21
-10 4 0 143.7 23.27
4 10 0 171.11 17.68
4 10 -1 488.15 30.66
4 10 1 434.93 24.64
-10 4 -1 322.68 34
-4 10 -1 329.26 37.94
-4 10 1 361.35 38.03
4 10 -2 18.12 7.37
4 10 2 24.8 6.71
-10 4 -2 23.07 12.35
-4 10 -2 28.2 14.43
4 10 3 592.99 30.63
4 10 -3 629.11 40.48
-10 4 -3 599.67 47.38
-4 10 -3 620.93 51.28
-10 4 -4 435.2 41.44
-4 10 -4 497.5 46.49
4 10 -4 485.25 37.83
-4 10 -5 1240.58 77.11
-10 4 -5 1149.83 70.23
4 10 -5 1028.17 59.48
-10 4 -6 11.94 11.27
4 10 -6 -12.31 14.16
-4 10 -6 5.12 11.92
-4 10 -7 1361.6 93.2
-10 4 -7 1350.74 86.01
10 4 -7 1142.02 46.72
4 10 -7 961.43 63.81
4 10 7 1189.68 52.18
10 4 7 1160.77 43.78
4 10 -8 25.42 10.79
-4 10 8 18.61 5.67
-4 10 -8 13.03 10.98
-10 4 -8 18.39 11.73
4 10 8 39.1 10.46
-4 10 9 727.98 41.48
-4 10 -9 879.44 81.39
4 10 9 922.56 50.75
-10 4 -9 788.45 71.5
-4 10 -10 81.03 28.88
4 10 10 75.89 15.29
-4 10 10 67.92 14.19
-10 4 -10 52.45 20.67
-4 10 -11 68.16 24.81
-4 10 11 67.49 14.14
-10 -4 -11 87.99 16.47
-10 4 -11 58.35 23.24
4 -10 -11 61.71 14.75
10 -4 -12 -22.76 10.91
4 -10 -12 17.37 10.74
10 -4 -12 -14.96 8.49
-4 10 12 8.82 8.56
-10 4 -12 6.65 11.65
-4 10 -12 19.71 18.4
-10 -4 -12 18.26 10.45
-10 -4 -13 19.22 8.99
-4 10 -13 4.26 11.56
10 -4 -13 5.6 4.55
10 -4 -13 5.67 5.12
-4 -10 -13 26.73 15.39
-4 -10 -14 17.77 12.63
10 -4 -14 9.27 6.29
4 -10 -14 15.98 9.13
10 -4 -14 24.58 9.96
-10 -4 -14 7.89 5.22
4 -10 -15 384.32 37.79
-10 -4 -15 350.24 32.47
10 -4 -15 255.79 26
-4 -10 -15 319.08 36.3
-10 -4 -16 34.56 8.33
-4 -10 -16 32.28 12.19
4 -10 -16 38.76 11.67
-4 -10 -17 456.97 40.61
4 -10 -17 480.24 39.86
10 4 -17 437.36 34.61
-10 -4 -17 447.84 34.31
10 -4 -17 448.16 34.01
10 -4 -18 6.84 5.26
4 -10 -18 4.53 6.56
10 4 -18 3.17 5.55
-4 -10 -18 -4.71 6.58
4 -10 -19 238.97 24.43
-4 -10 -19 242.74 25.61
10 4 -19 234.61 22.28
4 -10 -20 9.13 4.26
-4 -10 -20 13.31 6.66
10 4 -20 2.65 3.24
4 10 -20 6.59 4.48
-4 -10 -21 58.33 9.72
-10 5 0 651.34 50.06
-5 10 0 677.46 53.32
-5 10 -1 520.31 46.47
-10 5 -1 488.04 43.52
-10 5 1 559.76 47.56
-5 10 1 533.16 47.32
-5 10 -2 548.96 49.7
-10 5 -2 548.29 46.53
5 10 -2 524.73 31.32
-5 10 -3 246.36 33.04
5 10 -3 251.55 23.92
-10 5 -3 240.96 30.88
5 10 -4 878.21 47.78
-10 5 -4 968.53 63.52
-5 10 -4 994.96 67.27
-5 10 -5 72.83 19.86
-10 5 -5 65.33 18.14
5 10 -5 110 22.61
-10 5 -6 1866.17 98.54
-5 10 -6 1868.01 103.34
10 5 -7 45.33 11.06
10 5 7 45.64 9.69
-5 10 -7 62.04 22.61
-10 5 -7 35.44 12.9
5 10 7 86.6 14.21
-5 10 7 52.41 10.65
-10 5 -8 729.75 69.98
5 10 8 727.15 43.58
-5 10 -8 755.55 75.11
-5 10 8 731.4 39.56
5 10 9 187.41 23.47
-5 10 9 192.96 20.51
-5 10 -9 213.59 41.81
-10 5 -9 182.27 37.64
-10 5 -10 39.96 16.28
5 -10 -10 54.72 13.65
-5 10 10 68.13 13.61
-5 10 -10 47.35 19.09
5 -10 -11 31.76 11.12
-5 10 -11 30.26 20.34
-10 5 -11 19.91 15.39
-5 10 11 19.13 8.41
-10 -5 -11 38.06 11.71
-5 10 -12 17.17 17.65
-5 10 12 5.74 7.05
5 -10 -12 33.05 15.83
-10 -5 -12 4.79 7.78
-10 5 -12 27.71 17.54
5 -10 -13 26.04 11.53
10 -5 -13 -8.4 7.77
-5 10 -13 14.92 15.99
-10 -5 -13 13.96 9.5
-5 -10 -13 34.72 15.49
-10 5 -13 26.82 19.53
5 -10 -14 583.59 45.52
-10 -5 -14 555.4 42.8
-5 -10 -14 574.94 49.04
10 -5 -14 502.02 36.94
-5 -10 -15 29.11 10.71
5 -10 -15 47.37 14.17
10 -5 -15 61.21 13.83
-10 -5 -15 34.61 9.43
5 -10 -16 855.71 54.01
-5 -10 -16 728.03 52.24
-10 -5 -16 753.06 47.26
10 5 -16 744.73 46.36
10 -5 -16 875.69 49.23
-10 -5 -17 64.04 12.48
10 -5 -17 68.59 13.71
10 5 -17 80.88 14.96
-5 -10 -17 65.52 15.8
5 -10 -17 85.1 16.96
-10 -5 -18 340.6 28.17
5 -10 -18 392.29 32.69
-5 -10 -18 372.66 33.75
10 -5 -18 364.05 27.5
10 5 -18 339.1 28.37
5 -10 -19 6.2 3.81
-5 -10 -19 -0.7 6.23
10 5 -19 -5.51 7.39
5 10 -20 42.62 8.75
10 5 -20 41.64 8.9
-5 -10 -20 44.09 10.07
5 -10 -20 43.32 9.38
-6 10 0 1143.24 71.7
-10 6 0 1082 67.89
-6 10 -1 243.83 32.95
-10 6 -1 232.99 31.86
-10 6 1 243.48 33.86
-6 10 1 258.98 35.05
-10 6 -2 13.48 11.88
-6 10 -2 14.47 10.34
-10 6 -3 500.47 47.93
-6 10 -3 526.11 50.69
-10 6 -4 553.6 49.47
-6 10 -4 587.93 53.7
-6 10 -5 1554.51 91.93
-10 6 -5 1668.61 90.99
-6 10 -6 622.66 59.14
6 10 6 691.72 39.69
10 6 6 578.58 30.1
10 6 -6 650.61 33.44
-10 6 -6 560.65 55.03
-6 10 7 786.79 39.94
-6 10 -7 803.08 75.08
10 6 7 649.46 33.6
6 10 7 664.45 40.76
10 6 -7 598.22 34.36
-10 6 -7 849.37 72.86
-10 6 -8 16.11 15.5
-6 10 8 3.62 4.29
-6 10 -8 8.63 10.58
10 6 -8 5.93 5.59
6 10 8 4.19 7.6
6 -10 -9 46.22 12.21
-6 10 9 54.8 12.49
-10 6 -9 39.11 17.15
-6 10 -9 63.37 24.2
-6 10 -10 44.02 21.27
-10 6 -10 54.23 23.14
-6 10 10 54.85 13.11
6 -10 -10 49.5 12.43
6 -10 -11 27.9 11.19
-10 -6 -11 6.94 9.61
-6 10 11 16.22 7.87
-10 6 -11 22.1 17.01
-6 10 -11 3.61 17.85
-6 10 12 8.15 8.39
6 -10 -12 16.04 9.87
-10 6 -12 21.67 17.05
-6 10 -12 15.85 14.53
-10 -6 -12 32.68 13.7
6 -10 -13 185.28 24.61
-10 -6 -13 196.37 26.64
-10 6 -13 182.53 40.83
-6 -10 -13 224.28 30.6
10 -6 -14 -0.33 5.24
-6 -10 -14 4.58 7.78
-10 -6 -14 -4.57 8.73
6 -10 -14 -10.29 7.84
6 -10 -15 757.04 50.31
-6 -10 -15 616.61 49.72
-10 -6 -15 670.02 47.13
10 -6 -15 657.87 41.85
10 6 -16 298.86 29.88
6 -10 -16 301.88 30.56
-6 -10 -16 317.21 34.01
10 -6 -16 296.17 26.98
-10 -6 -16 300.2 30.82
6 -10 -17 655.83 43.7
10 -6 -17 564.06 36.33
10 6 -17 568.68 39.18
-6 -10 -17 544.29 42.81
-10 -6 -17 532.81 38.07
6 -10 -18 71.56 13.56
10 6 -18 61.96 12.98
10 -6 -18 69.17 11.5
-10 -6 -18 55.72 11.43
-6 -10 -18 63.39 13.57
6 10 -19 76.36 12.72
-6 -10 -19 84.11 14.28
10 6 -19 81.72 13.42
6 -10 -19 81.72 13.16
6 10 -20 23.52 6.48
10 6 -20 29.35 7.43
-6 -10 -20 25.89 7.62
6 -10 -20 31.85 7.48
-10 7 0 24.41 12.82
-7 10 0 20.35 9.69
-7 10 1 -1.07 10.14
-10 7 -1 12.79 8.17
-7 10 -1 11.1 9.4
-10 7 1 16.52 10.16
-7 10 2 87.14 23.08
-10 7 -2 66.52 19.3
-7 10 -2 76.79 21.13
-10 7 -3 386.33 41.4
-7 10 -3 392.52 44.42
-7 10 -4 660.23 59.6
-10 7 -4 619.22 56.58
-7 10 -5 876.03 70.03
10 7 -5 985.39 40.4
-10 7 -5 821.86 65.69
7 10 6 737.71 41.79
-10 7 -6 842.87 71.26
-7 10 -6 825.29 72.7
7 10 -6 681.1 34.49
-7 10 6 833.08 41.03
10 7 6 688.95 33.75
10 7 -6 718.73 37.87
-10 7 -7 426.13 53.82
-7 10 7 503.19 32.1
7 10 7 530.8 37.44
10 7 7 495.72 29.24
-7 10 -7 488.07 59.47
10 7 -7 503 31.94
-7 10 -8 92.7 29.17
-7 10 8 70.03 15.04
10 7 -8 54.37 13.24
-10 7 -8 80.86 25.43
-7 10 9 1.75 4.21
-7 10 -9 6.96 12.57
-10 7 -9 0.16 12.66
10 7 -9 -0.18 5.02
-7 10 10 62.11 12.19
-10 7 -10 62.53 28.9
-7 10 -10 55.67 24.25
7 -10 -10 58.76 13.86
-7 10 -11 46.33 21.33
7 -10 -11 30.52 9.59
-10 7 -11 46.63 21.47
7 -10 -12 16.2 9.47
-10 7 -12 14.44 15.33
-10 -7 -12 5.01 8.38
-7 10 -12 16.1 12.61
-7 -10 -13 73.22 19.06
-10 -7 -13 74.01 17.07
7 -10 -13 51.03 12.72
7 -10 -14 192.36 25.57
-10 -7 -14 190.68 26.66
-7 -10 -14 200.63 29.91
-10 -7 -15 367.84 34.28
7 -10 -15 276.17 28.93
-7 -10 -15 395.91 38.82
10 7 -15 384.83 33.99
10 -7 -16 504.17 35.26
-10 -7 -16 515.07 40.4
10 7 -16 506.43 38.38
-7 -10 -16 491.57 42.55
7 -10 -16 538.41 39.97
7 -10 -17 388.61 32.15
-10 -7 -17 382.17 31.46
-7 -10 -17 420.61 36.25
10 7 -17 411.21 32.38
-7 -10 -18 117.38 18.63
-10 -7 -18 113.12 16.05
7 -10 -18 137.44 17.15
10 7 -18 141.57 18.23
7 10 -18 126.79 17.08
10 7 -19 3.63 5.13
7 -10 -19 5.17 5.27
-7 -10 -19 4.91 4.88
7 10 -19 -1.59 3.55
10 7 -20 1.24 3.63
-7 -10 -20 1.56 3.23
7 10 -20 3.9 3.92
-10 8 0 16.55 14.93
-8 10 0 22 16.34
-10 8 1 80.86 20.72
-10 8 -1 78.76 20.45
-8 10 -1 85.59 21.41
-8 10 1 77 23.4
-8 10 2 149.11 28.16
-8 10 -2 147.23 28.64
-10 8 -2 128.94 25.58
-10 8 2 150.68 29.3
-8 10 -3 126.53 28.76
-10 8 -3 112.53 26.6
-10 8 -4 1056.96 73.77
-8 10 -4 1117.64 78.1
10 8 -4 1077.57 40.94
10 8 -5 435.23 29.89
8 10 5 511.64 33.58
10 8 5 462.9 26.24
-8 10 -5 553.43 60.39
-10 8 -5 540.06 60.09
8 10 -5 477.13 28.59
8 10 -6 1201.22 46.21
10 8 6 1183.94 43.77
-8 10 -6 1102.61 83.33
-8 10 6 1071.9 45.67
-10 8 -6 1013.31 78.98
10 8 -6 1113.2 45.77
10 8 7 129.05 16.63
8 10 -7 118.74 17.03
-8 10 7 136.31 18.69
-10 8 -7 185.3 38.46
10 8 -7 115.81 17.89
-8 10 -7 163.89 35.45
10 8 -8 185.33 20.63
-10 8 -8 203.91 41.47
-8 10 8 172.48 20.12
-8 10 -8 184.56 40.49
-8 10 -9 40.58 21.8
-10 8 -9 53.05 23.46
10 8 -9 55.54 12.03
-8 10 9 44.7 10.02
-8 10 -10 23.73 20.13
-10 8 -10 32.6 20.17
10 8 -10 34.02 11.1
-10 8 -11 87.2 29.01
10 8 -11 67.35 14.97
-8 10 -11 83.83 30.35
-8 10 -12 13.51 15.44
8 -10 -12 28.13 10.59
-10 8 -12 16.9 16.04
-10 -8 -12 34.23 12.03
10 8 -12 32.75 12.42
10 8 -13 13.48 7.7
-8 -10 -13 6.31 8.7
-10 -8 -13 15.41 11.74
8 -10 -13 33.5 12.16
-10 -8 -14 291.57 30.93
-8 -10 -14 307.69 34.54
8 -10 -14 297.62 29.63
10 8 -14 280.74 28.57
-8 -10 -15 168.44 25.1
-10 -8 -15 196.89 26.63
8 -10 -15 203.7 23.43
10 8 -15 170.42 23.49
8 -10 -16 591.8 39.94
8 10 -16 665.72 41.76
-8 -10 -16 675.77 47.43
-10 -8 -16 653.27 44.59
10 8 -16 645.44 42.09
-10 -8 -17 102.59 16.58
8 -10 -17 115.56 16.44
8 10 -17 117.12 18.04
-8 -10 -17 103.22 18.07
10 8 -17 114.44 17.95
-10 -8 -18 138.72 17.63
-8 -10 -18 158.61 19.8
10 8 -18 172.99 19.37
8 -10 -18 138.05 16.43
8 10 -18 172.72 19.31
-10 -8 -19 -2.03 3.13
8 10 -19 4.27 4.18
-8 -10 -19 -3.78 5.74
10 8 -19 6.12 5.63
10 8 -20 7.2 4.56
8 10 -20 3.06 2.67
-10 9 0 281.15 38.37
-9 10 0 233.39 35.53
-10 9 1 305.33 42.23
-10 9 -1 268.35 41.65
-9 10 1 294.72 41.6
-9 10 -1 246.68 41.17
-10 9 2 -4.92 9.61
-9 10 2 7.4 12.71
-10 9 -2 2.87 11.14
-9 10 -2 -6.88 9.22
-9 10 -3 705.82 62.72
-10 9 -3 668.68 61.07
-9 10 -4 63.2 22.63
-9 10 4 56.74 10.29
10 9 -4 30.47 8.98
9 10 -4 31.27 7.91
-10 9 -4 51.48 19.82
10 9 5 1085.79 41.63
-9 10 -5 987.37 77.53
-10 9 -5 955.19 75.75
10 9 -5 1125.03 44.17
9 10 -5 1130.82 44.11
-9 10 5 943.89 43.91
-9 10 6 47.17 12.41
9 10 6 47.64 8.98
10 9 -6 49.25 10.66
-9 10 -6 58.29 22
-10 9 -6 61.67 20.34
10 9 6 45.99 9.52
9 10 -6 56.74 10.83
10 9 7 494.55 30.46
-9 10 7 435.17 30.92
-10 9 -7 422.55 55.7
9 10 -7 496.35 31.45
-9 10 -7 446.97 58.12
10 9 -7 498.62 32.95
-9 10 -8 -4.47 12.25
-10 9 -8 5.68 14.12
10 9 -8 0.54 5.38
9 10 -8 3.94 5.4
-9 10 8 6.05 5.9
-9 10 -9 3.45 15.95
-10 9 -9 33.16 20.51
9 10 -9 7.98 7.79
10 9 -9 17.43 9.2
-10 9 -10 99.63 31.45
10 9 -10 70.08 14.57
9 10 -10 50.48 12.53
-9 10 -10 92.44 32.75
9 10 -11 84.39 17.53
10 9 -11 75.25 17.53
-10 9 -11 64.73 30.81
-9 10 -11 70.01 33.42
10 9 -12 49.93 12.37
9 10 -12 33.6 10.81
9 10 -13 554.41 40.69
-10 -9 -13 626.47 47.9
10 9 -13 519.76 39.09
-9 -10 -13 610.51 49
10 9 -14 15.53 8.44
-9 -10 -14 2.89 6.44
9 10 -14 26.51 10.87
-10 -9 -14 16.16 9.59
9 10 -15 596.51 41.57
-9 -10 -15 672.78 48.64
10 9 -15 630.07 41.39
-10 -9 -15 665.07 47.01
-10 -9 -16 26.11 9.97
-9 -10 -16 20.88 8.36
9 10 -16 50.15 13.02
10 9 -16 38.26 10.84
9 10 -17 318.69 27.93
-9 -10 -17 318.06 30.15
-10 -9 -17 304.35 27.71
10 9 -17 336.53 28.37
-10 -9 -18 -1.44 4.19
-9 -10 -18 7.36 5.03
10 9 -18 3.37 5.45
9 10 -18 8.14 6.4
10 9 -19 -5.32 4.71
-9 -10 -19 8.16 5.42
9 10 -19 3.76 4.52
-10 -9 -19 13.65 5.88
10 9 -20 7.34 4.11
-10 10 0 654.73 65.72
-10 10 -1 3.76 9.25
-10 10 1 -2.09 12.02
-10 10 -2 592.55 63.77
-10 10 2 659.46 65.05
-10 10 2 622.43 34.76
-10 10 3 2.33 11.73
10 10 -3 -4.52 3.97
-10 10 3 -0.93 3.87
-10 10 -3 -4.66 12.11
-10 10 4 397.2 27.89
10 10 4 455.93 26.45
-10 10 -4 403.98 48.69
10 10 -4 436.33 26.47
-10 10 5 3.25 5
-10 10 -5 -13.38 13.63
10 10 5 3.71 5.38
10 10 -5 -5.57 5.92
-10 10 -6 252.11 41.93
10 10 6 333.78 24.28
10 10 -6 335.89 26.14
-10 10 6 280.81 24.56
10 10 -7 -1.73 4.73
-10 10 -7 14.44 18
10 10 -8 195.97 22.92
-10 10 -8 205.97 44.99
10 10 -9 1.27 4.8
-10 10 -9 -1.49 15.26
10 10 -10 112.76 19.43
-10 10 -10 66.72 30.26
-10 10 -11 -12.54 19.18
10 10 -11 -3.61 6.57
10 10 -12 410.94 34.02
-10 -10 -13 -8.06 9.54
10 10 -13 2.05 6.03
-10 -10 -14 357.32 36.06
10 10 -14 322.24 29.18
10 10 -15 -2.94 7.18
-10 -10 -15 -10.17 9.98
10 10 -16 278.93 26.79
-10 -10 -16 273.97 28.06
10 10 -17 -0.84 4.22
-10 -10 -17 -1.12 5.81
-10 -10 -18 14.9 6.77
10 10 -18 14.29 6.46
10 10 -19 -3.28 4.48
-11 0 0 175.41 20.69
0 11 0 174.11 21.9
0 11 1 3545.84 102.69
-11 0 1 3428.51 95.14
0 11 -1 3495.05 103.55
-11 0 -1 3338.4 87.95
0 11 -2 411.53 37.18
0 11 2 421.94 36.35
-11 0 -2 382.87 29.95
-11 0 -3 57.13 11.7
0 11 -3 58.45 13.77
0 11 -4 390.79 39.21
-11 0 -4 422.58 34.63
0 11 -5 459.35 45.83
-11 0 -5 510.39 41.99
-11 0 -6 112.51 20.54
0 11 -6 104.64 22.5
0 11 7 4.93 3.97
11 0 -7 7.93 5.51
-11 0 -7 7.95 9.32
11 0 -8 341.09 25.99
-11 0 -8 420.55 42.84
0 11 8 308.37 27.18
0 11 -8 326.99 45.27
11 0 -9 1345.74 54.12
0 11 -9 1509.28 101.55
0 11 9 1331.11 58.58
0 11 10 -5.34 9.8
11 0 -10 9.01 5.97
0 11 -10 -6.33 13.83
0 11 -11 1415.66 103.23
11 0 -11 1444.04 56.91
0 11 11 1360.32 63.42
0 11 12 13.24 8.7
11 0 -12 15.32 7.28
11 0 -13 247.92 25.47
0 -11 -13 380.98 38.55
11 0 -14 7.98 6.22
0 -11 -14 18.03 11.86
11 0 -14 13.62 7.37
0 -11 -15 60.77 15.92
11 0 -15 55.75 13.25
0 -11 -16 222.7 28.36
11 0 -16 204.22 22.57
11 0 -17 84.29 15.03
0 -11 -17 80.66 17.62
11 0 -18 44.34 10.01
0 -11 -18 58.93 13.93
11 0 -19 87.7 11.88
0 -11 -19 107.97 17.24
11 0 -20 -3.13 4.16
0 -11 -20 2.64 4.67
0 -11 -21 576.46 29.55
-11 -1 0 5277.19 101.75
-1 11 0 5121.14 129.6
-11 1 0 5025.65 119.9
-1 11 1 193.15 28.31
1 11 1 108.97 18
-11 1 1 184.64 25.42
-11 1 -1 187.48 24.87
-1 11 -1 186.6 27.39
-11 -1 -1 111.81 15.99
1 11 -1 121.18 19.82
-11 -1 1 115.88 17.19
-11 1 -2 470.83 37.04
-1 11 -2 479.37 41.9
-11 -1 -2 397.96 27.76
1 11 -2 414.28 36.52
-1 11 2 529.09 43.69
1 11 2 427.11 34.82
1 11 -3 366.17 35.26
-11 1 -3 292.08 28.94
-1 11 -3 328.91 34.97
-11 -1 -3 362.6 28.1
1 11 3 379.32 33.66
-11 -1 -4 527.21 37.84
-1 11 -4 379.5 40.82
1 11 -4 573.29 48.01
-11 1 -4 419.29 37.2
-11 -1 -5 13.72 7.58
1 11 -5 16.72 12.01
-1 11 -5 18.93 14.01
-11 1 -5 15.58 12.02
-11 1 -6 208.28 30.17
-1 11 -6 207.49 34.45
1 11 -6 286.42 38.48
-11 -1 -6 299.06 32.1
11 1 7 102.55 14.04
1 11 7 101.39 15.18
1 11 -7 127.79 25.3
-1 11 7 106.93 14.87
-1 11 -7 108.83 24.95
-11 1 -7 129.23 23.92
11 1 -7 105.6 14.26
-1 11 8 254.5 25.4
-11 1 -8 274.26 38.3
1 11 8 212.5 22.51
1 11 -8 257.56 41.25
-1 11 -8 227.71 39.66
11 -1 -8 267.43 23.34
11 1 -8 201.23 20.81
1 11 -9 49.5 19.77
11 -1 -9 46.05 12.08
-1 11 9 44.81 11.83
11 1 -9 40.19 11.15
1 11 9 40.4 11.9
-11 1 -9 48.87 16.29
-1 11 -9 49.79 21.13
-1 11 -10 1241.87 94.61
-11 1 -10 1208.39 83.39
-1 11 10 1197.98 57.64
11 -1 -10 1201.54 52.43
11 1 -10 1211.01 49.15
1 11 -10 1198.06 88.86
1 11 10 1173.28 59.01
-1 11 -11 46.01 17.83
1 11 -11 37.92 19.59
1 11 11 29.03 13.16
11 -1 -11 44.04 11.96
-1 11 11 46.33 12.89
11 1 -11 56.66 13.17
11 1 -12 547.45 36.49
-1 11 12 695.45 46.1
-1 11 -12 707.96 76.79
11 -1 -12 722.65 44.53
1 -11 -12 820.72 55.96
11 -1 -12 522.32 35.45
11 1 -13 15.87 7.56
11 -1 -13 37.18 12.35
11 -1 -13 24.55 8.97
-1 -11 -13 33.25 14.3
1 -11 -13 25.06 11.39
-1 -11 -14 21.25 13.58
11 1 -14 5.06 5.46
11 -1 -14 14.07 7.17
11 -1 -14 28.06 10.94
1 -11 -14 3.65 7.09
11 -1 -15 143 21.45
-1 -11 -15 127.05 22.47
1 -11 -15 123.32 22.14
11 1 -15 115.54 18.77
11 -1 -15 88.86 15.28
11 1 -16 181.19 22.91
-1 -11 -16 187.95 28.33
1 -11 -16 163.73 24.7
11 -1 -16 157.98 20.62
1 -11 -17 59.9 14.83
-1 -11 -17 56.85 14.73
11 -1 -17 54.09 12.13
11 1 -17 60.73 13.79
1 -11 -18 12.33 8.26
-1 -11 -18 15.92 7.59
11 1 -18 15.91 7.8
11 -1 -18 11.3 5.25
11 1 -19 9.53 4.63
1 -11 -19 9.39 6.54
-1 -11 -19 2.35 4.96
11 -1 -19 -2.29 3.26
1 -11 -20 347.02 26.7
11 1 -20 255.91 18.61
-1 -11 -20 332.18 26.68
-1 -11 -21 2.79 3.46
-2 11 0 902.77 58.84
-11 2 0 858.76 54.17
2 11 0 613.77 40.71
-2 11 1 1155.74 64.91
-2 11 -1 1082.29 63.19
2 11 -1 1189.32 55.79
2 11 1 1200.57 53.29
-11 2 1 1151.83 61.6
-11 2 -1 1038.36 56.57
-11 -2 1 1160.93 45.45
-2 11 2 55.35 14.45
-2 11 -2 54.54 14.89
2 11 -2 63.9 14.63
2 11 2 58.3 11.96
-11 2 -2 51.96 12.13
2 11 3 206.36 25.06
-11 2 -3 217 27.81
-2 11 -3 219.02 33.11
2 11 -3 207.62 28.68
2 11 -4 202.54 28.25
-2 11 -4 222.87 32.15
-11 2 -4 194.13 27.81
-2 11 -5 426.45 48.06
-11 2 -5 484.23 44.69
11 2 6 38.3 10.61
-2 11 -6 74.49 24.36
-11 2 -6 61.93 18.49
2 11 -6 75.42 22.38
11 2 7 131.28 16.48
-11 2 -7 74.89 23.68
-2 11 7 102.38 15.87
-2 11 -7 121.9 31.33
2 11 7 136.88 19.42
11 2 -7 140.24 16.95
-2 11 -8 27.87 14.16
-2 11 8 19.62 9.18
2 11 8 13.45 6.35
2 11 -8 47.7 23.18
-11 2 -8 -0.08 10.04
11 2 -8 18.8 7.4
11 -2 -8 17.32 7.14
11 2 -9 308.35 26.59
11 -2 -9 343.17 28.02
2 11 9 303.13 29.05
2 11 -9 347.89 47.59
-2 11 -9 382.29 54.74
-2 11 9 325.07 29.42
-11 2 -9 357.38 45.75
-2 11 -10 85.19 29.87
-11 2 -10 77.72 24.03
2 11 -10 86.28 29.72
-2 11 10 96.99 18.68
2 11 10 91.46 18.26
11 -2 -10 84.81 14.78
11 -2 -11 557.85 36.63
2 11 11 492.18 38.97
-2 11 -11 521.17 63.96
-11 2 -11 520.06 57.96
-2 11 11 532.92 38.93
-2 11 -12 53.19 22.8
11 -2 -12 27.52 9.58
2 -11 -12 0.13 12.35
-2 11 12 44.53 12.64
11 -2 -12 33.5 10.28
-2 -11 -13 278.56 35.76
2 -11 -13 247.3 30.4
-2 11 -13 228.37 43.27
11 -2 -13 153.07 18.82
11 -2 -13 189.39 22.19
-2 -11 -14 -4.66 11.75
11 -2 -14 -19.33 9.01
11 2 -14 6.43 7.29
2 -11 -14 8.84 7.58
11 -2 -14 0.05 6.23
11 -2 -15 78.73 15.35
2 -11 -15 78 19.3
11 -2 -15 72.77 14.28
11 2 -15 127.91 20.25
-2 -11 -15 129.04 23.32
-2 -11 -16 1.87 9.66
11 -2 -16 10.81 7.8
2 -11 -16 17.69 10.42
11 2 -16 16.02 8.45
-2 -11 -17 177.82 25.97
11 2 -17 154.14 20.21
2 -11 -17 127.31 21.77
11 -2 -17 120.82 15.76
11 2 -18 2.48 4.18
2 -11 -18 2.52 6.14
-2 -11 -18 2.1 6.33
11 -2 -18 0.03 3.56
11 2 -19 17.34 6.01
-2 -11 -19 20.12 8.45
2 -11 -19 31.39 10.57
-2 -11 -20 43.14 9.96
2 -11 -20 37.39 9.28
11 2 -20 31.26 7.33
3 11 0 60.11 11.98
-11 3 0 62.98 16.16
-3 11 0 87.61 20
-11 3 -1 617.98 45.53
3 11 1 387.93 27.77
-3 11 1 680.62 52.24
-3 11 -1 664.12 52.43
-11 3 1 667.72 49.83
-11 3 -2 264.84 28.99
3 11 -2 222.35 23.82
3 11 2 182.73 18.67
-3 11 -2 281.98 33.83
-3 11 2 295.68 34.51
3 11 -3 521.25 40.08
3 11 3 492.49 32.37
-3 11 -3 636.52 50.26
-11 3 -3 570 43.86
3 11 4 77.73 14.48
-3 11 -4 35.6 15.38
-11 3 -4 34.51 13.2
3 11 -4 77.58 20.49
-11 3 -5 853.63 59.93
-3 11 -5 803.38 64.42
-11 3 -6 259.88 36.85
3 11 -6 288.53 37.63
3 11 6 358.07 28.87
-3 11 6 244.03 23.3
11 3 6 388.1 25.22
-3 11 -6 277.55 42.64
11 3 -6 377.03 26.88
3 11 7 402.03 30.73
-3 11 -7 424.82 52.86
3 11 -7 369.53 42.45
-3 11 7 396.51 28.97
11 3 7 386.07 26.79
-11 3 -7 385.58 44.87
11 3 -7 395.94 27.71
-3 11 8 62.61 13.46
3 11 8 68.99 15.9
11 3 -8 79.86 14.49
11 -3 -8 78.52 13.77
-3 11 -8 69.01 27.26
3 11 -8 51.39 18.5
-11 3 -8 50.15 22.24
3 11 9 161.96 22.34
-3 11 9 135.81 18.32
3 11 -9 146.81 30.1
-11 3 -9 126.92 29.32
11 3 -9 155.38 18.94
11 -3 -9 125.25 16.78
-3 11 -9 149.15 33.9
3 11 10 41.36 12.2
-11 3 -10 54.81 22.55
-3 11 -10 39.53 24.77
11 -3 -10 56.18 11.5
-3 11 10 40.01 12.4
-11 3 -11 45.54 18.73
-3 11 -11 49.42 23.71
3 11 11 48.52 14.48
-3 11 11 65.01 15.54
11 -3 -11 35.02 10.11
-3 11 12 135.95 20.47
-3 11 -12 110.5 32.79
3 -11 -12 75.91 15.9
11 -3 -12 102.05 16.41
-3 11 -13 45.43 21.52
-3 -11 -13 61.46 18.08
11 -3 -13 43.46 10.64
3 -11 -13 19.4 8.86
11 -3 -14 59.22 14.34
3 -11 -14 23.42 10.28
11 -3 -14 2.43 8.14
-3 -11 -14 39.4 15.16
11 3 -14 36.44 12.81
11 -3 -15 147.02 19.73
11 -3 -15 159.96 21.26
11 3 -15 154.74 21.86
3 -11 -15 173.29 26.02
-3 -11 -15 143.88 25.33
11 3 -16 143.17 21.21
11 -3 -16 112.55 17.91
11 -3 -16 104.56 15.36
-3 -11 -16 137.77 24.21
3 -11 -16 102.55 20.17
11 3 -17 174.03 21.92
3 -11 -17 187.74 25.29
-3 -11 -17 158.45 23.75
3 -11 -18 36.17 11.19
-3 -11 -18 55.68 14.31
11 3 -18 47.94 11.39
3 -11 -19 75.67 13.87
11 3 -19 84.23 13.01
-3 -11 -19 100.35 16.71
11 3 -20 21.81 5.91
-3 -11 -20 16.98 6.77
3 -11 -20 16.67 6.37
3 11 -20 31.64 8
-4 11 0 375.12 39.75
-11 4 0 377.48 37.8
-4 11 1 147.65 26.28
4 11 -1 197.51 20.38
-11 4 -1 111.69 22.04
-4 11 -1 129.97 25.92
-11 4 1 149.88 25.26
4 11 -2 98.64 16.23
-4 11 2 69.86 19.04
-11 4 -2 57.5 17.12
-4 11 -2 64.76 18.06
-11 4 -3 59.8 15.15
-4 11 -3 89.61 19.69
4 11 -4 859.76 53.8
-11 4 -4 1007.22 64.43
-4 11 -4 1060.56 71.71
-11 4 -5 172.99 29.09
-4 11 -5 149.36 28.27
4 11 -5 144 20.79
-4 11 6 1732.83 58.51
-4 11 -6 1850.28 104.1
11 4 6 1569.28 51.27
11 4 -6 1527.38 52.81
-11 4 -6 1790.01 95.68
4 11 6 1579.99 58.77
-11 4 -7 204.11 33.35
4 11 -7 192.73 29.48
11 4 7 225.78 19.86
4 11 7 216.55 23.26
11 4 -7 234.68 21.32
-4 11 7 180.72 19.05
-4 11 -7 203.23 33.32
4 11 -8 429.27 46.07
-11 4 -8 498.35 55.4
-4 11 8 477.15 32.86
11 4 -8 511.53 33.14
4 11 8 520.2 37.81
-4 11 -8 549.35 63.2
-11 4 -9 33.71 19.04
4 11 9 43.78 12.65
11 4 -9 43.56 11.79
-4 11 -9 31.83 18.76
-4 11 9 19.73 7.79
-4 11 10 27.66 11
11 4 -10 24.29 9.13
-4 11 -10 15.26 13.22
4 11 10 23.74 11.78
-11 4 -10 5.08 12.41
4 -11 -11 16.12 10.07
-4 11 -11 5.66 13.84
-4 11 11 9.95 7.42
-11 4 -11 12.63 13.3
4 -11 -12 153.76 24.28
-11 4 -12 101.56 30.09
-4 11 -12 117.7 34.15
-4 11 12 127.98 20.51
-4 11 13 19.87 9.72
4 -11 -13 42.49 14.07
11 4 -14 203.9 24.96
4 -11 -14 211.74 27.69
-4 -11 -14 228.2 31.48
-4 -11 -15 61.75 16.7
11 4 -15 65.38 14.67
4 -11 -15 47.05 13.12
11 -4 -15 58.96 13.02
11 -4 -16 663.42 39.46
-4 -11 -16 623.79 48.73
11 4 -16 619.53 41.58
4 -11 -16 686.1 50.25
4 -11 -17 27.64 9.9
-4 -11 -17 35.61 10.43
11 4 -17 44.61 13.56
11 -4 -17 23.93 8.12
4 -11 -18 251.4 26.79
-4 -11 -18 251.53 27.35
11 4 -18 230.47 23.09
11 4 -19 10.25 4.12
4 -11 -19 5.78 3.85
-4 -11 -19 1.78 4.46
4 11 -20 26.81 6.87
11 4 -20 19.06 6.01
-4 -11 -20 15.26 6.61
4 -11 -20 22.42 5.31
-5 11 0 592.01 52.47
-11 5 0 431.56 47.04
-11 5 1 33.57 12.57
-5 11 1 34.24 14.27
-11 5 -1 28.35 12.38
-5 11 -1 48.65 16.63
-5 11 2 11.95 8.93
-5 11 -2 18.57 8.87
-11 5 -2 10.29 9.19
-11 5 -3 187.92 30.6
-5 11 -3 222.63 34.64
5 11 -4 43.67 10.09
-11 5 -4 35.38 9.89
-5 11 -4 50.95 13.23
5 11 -5 2247.28 85.06
11 5 -5 2322.81 63.59
-5 11 -5 2780.47 122.75
-11 5 -5 2616.69 112.35
5 11 -6 40.82 13.15
11 5 6 30.3 5.9
-5 11 -6 36.43 14.74
11 5 -6 33.6 8.75
5 11 6 25.68 7.33
-11 5 -6 42.37 14.12
-5 11 6 28.4 4.39
-11 5 -7 1024.29 81.29
11 5 7 846.42 39.68
-5 11 7 1077.25 48.53
5 11 7 894.21 49.14
-5 11 -7 1172.69 90.05
11 5 -7 845.48 41.81
-5 11 -8 112.23 31.68
-11 5 -8 86.71 24.44
11 5 -8 100.54 15.25
5 11 8 92.78 16.89
-5 11 8 91.41 14.76
-5 11 9 45.29 10.49
-11 5 -9 46.77 18.79
11 5 -9 60.93 13.03
5 11 9 57.88 14.29
-5 11 -9 53.37 25.61
-11 5 -10 -0.19 16.77
-5 11 -10 1.48 14.42
-5 11 10 6.75 6.53
11 5 -10 7.64 6.4
5 -11 -10 8.21 8.91
5 -11 -11 175.2 25.73
-11 5 -11 146.16 35.26
11 5 -11 163.83 21.55
-5 11 11 158.41 21.5
-5 11 -11 157.66 38.69
-11 5 -12 -12.36 12.54
-5 11 12 18.96 9.75
-5 11 -12 11.64 17.25
5 -11 -12 -26.67 11.78
11 5 -12 23.68 9.02
5 -11 -13 84.44 18.95
-5 11 13 50.12 12.91
-11 -5 -13 40.05 10.51
11 5 -13 52.41 13.61
11 5 -14 140.8 22.37
-11 -5 -14 138.36 19.9
5 -11 -14 129.58 20.99
-5 -11 -14 149.5 26.84
-11 -5 -15 570.79 41.83
5 -11 -15 667.52 48.63
-5 -11 -15 651.51 50.77
11 5 -15 551.23 40.78
-5 -11 -16 -3.89 9.81
5 -11 -16 -2.19 6.42
11 5 -16 -0.64 5.54
11 5 -17 712.67 42.65
5 -11 -17 776.61 48.73
-5 -11 -17 717.38 49.74
5 -11 -18 4.96 5.28
11 5 -18 2.44 5.35
-5 -11 -18 -3.88 7.75
-5 -11 -19 86.07 15.08
5 -11 -19 82.32 13.11
5 11 -19 73.11 11.64
11 5 -19 79.42 12.71
5 11 -20 20.58 5.89
5 -11 -20 20.52 5.98
11 5 -20 13.42 4.79
-5 -11 -20 19.01 6.89
-6 11 0 92.53 22.38
-11 6 0 96.83 23.65
-6 11 1 107.24 23.95
-11 6 1 128.83 24.28
-11 6 -1 103.16 22.03
-6 11 -1 106.03 25.4
-6 11 2 15.56 11.59
-11 6 -2 1.61 9.27
-6 11 -2 -1.69 8.26
-6 11 -3 36.5 15.03
-11 6 -3 2.48 8.89
-11 6 -4 1389.76 81.81
-6 11 -4 1446.35 86.89
-6 11 5 54.9 10.3
-11 6 -5 14.46 8.86
11 6 -5 58.79 10.87
-6 11 -5 31.07 11.5
11 6 5 53.4 9.13
6 11 5 68.18 11.85
11 6 6 1327.89 48.32
-6 11 -6 1747.81 107.06
6 11 6 1376.42 58.36
-11 6 -6 1663.73 97.76
11 6 -6 1348.21 51.7
-6 11 6 1515.95 56.67
11 6 -7 -2.36 4.88
6 11 7 5.35 5.35
11 6 7 5.99 5.77
-6 11 -7 5.96 10.79
-11 6 -7 -0.79 13.71
-6 11 7 -1.99 5.93
-6 11 -8 119.85 33.86
6 11 8 113.94 18.97
-11 6 -8 130.82 31.19
-6 11 8 154.89 18.94
11 6 -8 112.88 16.78
6 -11 -9 -2.13 5.5
-6 11 9 12.4 7.9
-11 6 -9 -8.92 17.1
-6 11 -9 3.33 12.82
11 6 -9 5.37 6.03
11 6 -10 187.1 22.08
-6 11 -10 183.1 40.42
6 -11 -10 235.96 28.65
-11 6 -10 190.43 41.84
-6 11 10 172.85 22.2
-11 6 -11 30.62 17.49
11 6 -11 33.31 11.09
-11 -6 -11 30.73 11.62
-6 11 11 22.43 9.13
6 -11 -11 20.53 8.24
-6 11 -11 4.4 18.24
6 -11 -12 2.85 5
11 6 -12 17.44 8.29
-6 11 -12 -6.9 16.74
-11 -6 -12 7.34 7.16
-6 11 12 14.29 8.85
-11 6 -12 -1.46 13.44
-11 -6 -13 23.17 9.81
-6 11 13 17.45 7.59
11 6 -13 25.82 11.89
6 -11 -13 12.77 7.11
6 -11 -14 202.24 24.93
-6 -11 -14 295.85 36.24
11 6 -14 268.68 29.11
-11 -6 -14 266.6 30.85
6 -11 -15 2.45 6.48
-11 -6 -15 0.59 6.48
11 6 -15 11.49 6.96
-6 -11 -15 -4.46 10.95
6 -11 -16 849.89 50.03
-6 -11 -16 730.63 51.81
11 6 -16 749.83 46.01
-11 -6 -16 759.72 45.42
-6 -11 -17 24.98 9.68
6 -11 -17 45.54 12.11
11 6 -17 43.08 10.72
6 -11 -18 290.62 26.13
-6 -11 -18 248.92 26.32
6 11 -18 241.39 23.71
11 6 -18 247.79 23.42
6 -11 -19 7.42 4.8
6 11 -19 3.29 3.75
-6 -11 -19 6.35 4.64
11 6 -19 11.75 5.64
-6 -11 -20 2.55 3.91
6 11 -20 7.96 3.89
11 6 -20 6.92 4.46
-11 7 0 18.46 9.77
-7 11 0 18.7 10.72
-11 7 1 440.08 47.82
-7 11 1 432.9 48.22
-11 7 -1 423 45.75
-7 11 -1 415.36 47.11
-11 7 2 19.13 14.78
-7 11 2 25.33 15.27
-11 7 -2 27.64 14.95
-7 11 -2 22.29 15.14
-7 11 -3 343.77 44.48
-11 7 -3 339.66 42.45
-11 7 -4 143.13 29.27
11 7 4 237.35 18.77
-7 11 -4 159.81 33.05
11 7 -4 237.27 20.13
-7 11 4 163.85 18.57
11 7 -5 1130.02 47.23
11 7 5 1191.13 44.54
-7 11 -5 1598.67 98.38
-7 11 5 1372.57 53.87
-11 7 -5 1579.65 94.98
7 11 5 1313.36 54.08
11 7 6 212.71 19.2
7 11 -6 235.71 19.84
7 11 6 248.44 24.66
-11 7 -6 167.63 31.85
-7 11 -6 206.63 37.29
-7 11 6 204.24 20.76
11 7 -6 232.88 21.21
-7 11 -7 637.64 71.1
11 7 7 463.19 29.95
-7 11 7 598.28 36.96
7 11 7 510.04 38.08
11 7 -7 462.87 31.81
7 11 -7 425.52 29.84
-11 7 -7 632.95 66.84
-7 11 -8 42.41 21.88
-11 7 -8 40.25 20.51
11 7 -8 32.01 10.06
-7 11 8 32.11 9.5
11 7 -9 128.2 17.79
-7 11 -9 144.67 38.2
-11 7 -9 131.97 34.45
-7 11 9 119.5 17.56
-7 11 -10 -7.58 11.61
-11 7 -10 -12.68 16.87
-7 11 10 7.59 6.49
7 -11 -10 21.18 9.08
11 7 -10 15.77 7.27
-11 7 -11 247.82 46.82
-11 -7 -11 323.12 33.67
-7 11 11 268.32 27.82
-7 11 -11 273.64 50.88
7 -11 -11 183.87 23.77
11 7 -11 307.03 29.59
11 7 -12 8.98 5.91
-11 -7 -12 2.77 6.29
7 -11 -12 3.8 4.33
-11 7 -12 -10.48 17.08
-11 -7 -13 19.55 9.7
11 7 -13 29.22 11.88
7 -11 -13 17.68 9.36
11 7 -14 13.09 6.69
-11 -7 -14 3.66 6.02
7 -11 -14 5.21 6.02
-7 -11 -14 21.33 10.64
7 -11 -15 498.33 39.03
-11 -7 -15 444.85 37.43
-7 -11 -15 417.85 42.09
11 7 -15 431.44 35.8
7 -11 -16 105.08 17
11 7 -16 125.09 18.58
-11 -7 -16 96.85 15.69
-7 -11 -16 107.77 17.87
-11 -7 -17 328.56 28.17
7 11 -17 340.24 27.98
-7 -11 -17 350.5 33.19
7 -11 -17 371.98 30.5
11 7 -17 352.97 30.63
11 7 -18 44.27 10.1
7 -11 -18 32.47 8.2
-7 -11 -18 28.32 9.05
7 11 -18 38.33 9.89
11 7 -19 2.56 4.23
7 11 -19 7.37 4.85
7 -11 -19 4.57 4.3
-7 -11 -19 6.2 5.89
7 11 -20 4.64 2.85
11 7 -20 9.98 4.46
-11 8 0 978.62 72.9
-8 11 0 931.49 72.52
-11 8 -1 110.8 28.53
-11 8 1 106.9 28.8
-8 11 1 95.15 28.78
-8 11 -1 109.63 27.73
-8 11 1 76.45 14.01
-8 11 2 72.51 12.73
-11 8 2 84.6 22.84
-8 11 2 77.5 22.62
-8 11 -2 50.31 19.46
11 8 -2 101.34 12.81
-11 8 -2 65.25 19.97
-8 11 3 163.91 31.42
-8 11 -3 159.82 31.04
11 8 3 152.02 14.72
11 8 -3 151.59 15.76
-11 8 -3 131.27 26.94
-8 11 3 136.83 16.87
-8 11 4 334 26.67
11 8 4 203.68 19.81
-11 8 -4 336.32 46.15
-8 11 -4 380.46 49.11
11 8 -4 205.73 21.08
8 11 4 258.91 24.84
-11 8 -5 180.49 33.05
-8 11 5 225.18 22.11
-8 11 -5 209.13 38.13
11 8 -5 289.68 23.01
8 11 5 303 27.93
8 11 -5 296.97 22.69
11 8 5 305.51 21.9
-8 11 -6 629.03 66.3
-8 11 6 545.73 35.58
11 8 -6 452.04 33.42
-11 8 -6 590.52 63.36
11 8 6 533.54 30.58
8 11 -6 486.79 29.99
8 11 6 562.86 37.2
11 8 7 283.83 24.07
-8 11 7 270.81 24.41
-8 11 -7 267.29 45.36
-11 8 -7 234.56 41.79
11 8 -7 314.05 26.09
8 11 -7 297.91 24.34
-11 8 -8 -0.8 13.3
8 11 -8 3.68 6.77
-8 11 -8 8.18 14.21
11 8 -8 2.3 6.38
-8 11 8 5.17 4.45
-11 8 -9 8.25 16.71
-8 11 9 18.32 7.89
-8 11 -9 12.18 11.46
11 8 -9 4.74 5.41
8 11 -9 12.02 7.4
-8 11 10 381.89 31.79
-8 11 -10 355.27 58.57
-11 8 -10 389.99 59.54
11 8 -10 391.24 32.14
-8 11 -11 16.69 15.48
11 8 -11 27.32 11.59
-11 8 -11 41.43 22.81
-11 -8 -12 276.73 31.25
11 8 -12 257.42 27.18
8 -11 -13 238.96 26.79
11 8 -13 209.22 25.04
-11 -8 -13 228.11 28.02
-8 -11 -13 240.32 32.43
11 8 -14 56.53 16.25
-8 -11 -14 65.89 18.17
-11 -8 -14 53.5 14.68
8 11 -14 65.6 14.83
8 -11 -14 84.53 17.17
8 -11 -15 116.76 17.87
8 11 -15 142.97 19.8
11 8 -15 149.61 21.07
-8 -11 -15 170.57 26.04
-11 -8 -15 141.61 21.12
8 -11 -16 240.86 24.74
-11 -8 -16 250.88 26.68
-8 -11 -16 260.61 30.37
8 11 -16 237.55 24.81
11 8 -16 245.09 26.52
8 -11 -17 114.15 16.03
-11 -8 -17 99.06 14.94
8 11 -17 133.24 17.22
11 8 -17 145.84 18.15
-8 -11 -17 154.46 21.04
11 8 -18 19.58 7.08
-8 -11 -18 10.14 6.38
8 11 -18 17.76 7.15
-8 -11 -19 3.9 3.36
8 11 -19 1.7 3.75
11 8 -19 2.85 4.57
-9 11 0 321.35 44.36
-11 9 0 253.77 40.93
-11 9 1 339.52 46.02
-11 9 -1 372.49 45.43
11 9 1 395.87 23.93
-9 11 -1 316.25 44.63
-9 11 1 341.31 44.75
-9 11 1 351.6 27.2
11 9 -1 378.3 24.75
-9 11 2 279.1 23.58
11 9 2 143.29 16.59
-9 11 2 338.6 46.49
-9 11 -2 308.53 42.89
11 9 -2 165.17 16.93
-11 9 -2 270.39 43.05
-11 9 2 335.86 45.43
-11 9 2 277.45 23.21
-9 11 3 7.51 5.68
-11 9 3 25.71 16.74
11 9 -3 15.76 5.71
11 9 3 13.63 5.19
-11 9 3 11.62 4.78
-11 9 -3 13.85 15.58
9 11 -3 11.92 4.65
-9 11 -3 20.01 13.69
-9 11 3 -4.59 12.18
11 9 -4 193.44 18.9
11 9 4 200.7 17.43
9 11 4 224.77 22.96
-11 9 -4 192.28 34.46
-9 11 -4 185.87 35.18
-11 9 4 184.25 18.35
9 11 -4 188.97 17.42
-9 11 4 150.68 19.66
-9 11 -5 148.98 31.16
9 11 -5 100.69 14.36
-11 9 -5 142.95 30.63
11 9 -5 98.81 15.57
11 9 5 104.35 15.06
-9 11 5 111.85 16.1
11 9 6 255.24 21.65
-11 9 -6 167.89 33.88
-9 11 6 223.94 23
11 9 -6 267.85 23.98
9 11 -6 265.47 22.56
-9 11 -6 188.54 38.34
9 11 -7 129.05 16.18
11 9 7 135.88 16.9
-9 11 7 103.97 15.97
-11 9 -7 97.18 26.56
11 9 -7 132.85 17.57
-9 11 -7 125.59 33.72
-11 9 -8 217.73 41.71
9 11 -8 168.37 20.94
-9 11 -8 196.54 41.81
-9 11 8 186.92 20.96
11 9 -8 183.63 20.88
11 9 -9 79.48 15.12
-9 11 -9 82.81 29.73
-11 9 -9 71.31 26.77
9 11 -9 85.41 15.28
-9 11 9 80.14 14.39
9 11 -10 81.34 17.01
-11 9 -10 73.85 31.23
11 9 -10 59.98 15.88
-9 11 -10 64.49 31.66
9 11 -11 354.7 30.63
11 9 -11 384.95 32.57
-9 11 -11 270.53 50.99
-11 9 -11 328.6 53.3
11 9 -12 192.04 25.03
-11 -9 -12 215.79 28.26
9 11 -12 257.56 26.78
9 11 -13 57.06 15.09
-9 -11 -13 91.19 19.31
-11 -9 -13 56.47 14.13
11 9 -13 80.89 16.44
9 11 -14 112.71 17.21
-11 -9 -14 100.45 19.16
-9 -11 -14 140.74 23.51
11 9 -14 97.73 17.91
11 9 -15 32.86 11.88
9 11 -15 53.78 13.42
-9 -11 -15 39.31 13.09
-11 -9 -15 44.95 14.21
11 9 -16 165.1 20.64
-11 -9 -16 138.75 18.48
9 11 -16 159.74 20.42
-9 -11 -16 157.59 21.86
9 11 -17 27.79 8.71
-11 -9 -17 18.45 7.09
-9 -11 -17 26.03 9.19
11 9 -17 27.83 8.81
-9 -11 -18 8.88 5.04
9 11 -18 15.04 6.64
11 9 -18 11.33 5.51
-9 -11 -19 6.34 3.7
9 11 -19 11.36 4.67
11 9 -19 7.11 3.88
10 11 0 192.87 17.3
11 10 0 195.9 17.87
-11 10 0 167.46 33.67
-10 11 0 183.48 33.42
-11 10 -1 678.92 68.72
-10 11 1 780.78 70.51
-10 11 1 581.29 35.96
-10 11 -1 724.97 68.8
10 11 1 401.99 23.66
11 10 1 349.09 22.41
-11 10 1 711.98 68.05
-11 10 2 95.09 15.13
-11 10 2 79.5 27.63
-10 11 2 79.55 24.64
10 11 2 76.82 11.81
11 10 2 83.04 12.34
-11 10 -2 89.83 23.75
10 11 -2 86.94 11.46
-10 11 2 80.45 13.89
11 10 -2 93.68 12.31
-10 11 -2 83.48 23.47
-11 10 3 116.68 15.85
-11 10 3 155.89 33.21
-10 11 3 128.03 30.9
10 11 3 77.96 10.38
11 10 3 91.21 11.25
10 11 -3 77.38 11.2
11 10 -3 58.22 11.62
-11 10 -3 105.58 29.78
-10 11 -3 114.74 31.3
-10 11 3 133.94 17.07
-11 10 -4 7.12 11.79
-10 11 4 15.91 7.54
-10 11 -4 13.5 14.06
-11 10 4 4.4 4.43
11 10 4 3.7 4.58
10 11 -4 2.1 3.88
10 11 4 -0.91 4.7
-10 11 4 10.98 11.66
11 10 -4 4.16 5.28
-10 11 5 32.37 10.73
-11 10 5 21.81 10.04
-11 10 -5 33.3 23.45
10 11 5 20.36 7.2
11 10 5 30.87 8.6
10 11 -5 21.79 8.59
-10 11 -5 27.35 19.04
11 10 -5 27.7 10.39
-10 11 6 48.44 11.18
11 10 6 65.54 11.63
10 11 -6 59.81 12.44
-10 11 -6 55.51 22.59
-11 10 -6 37.15 17.84
11 10 -6 72.35 13.7
-10 11 7 197.62 21.6
11 10 -7 219.37 22.93
10 11 -7 229.33 22.67
-11 10 -7 207.04 51.23
-10 11 -7 160.98 38.96
-10 11 -8 -10.44 18.26
11 10 -8 -7.21 5.49
-11 10 -8 0.29 14.63
10 11 -8 4.4 5.78
10 11 -9 64.25 14.16
-10 11 -9 81.15 32.66
-11 10 -9 84.02 30.39
11 10 -9 58.58 14.35
11 10 -10 68.35 15.92
10 11 -10 75.85 14.39
-11 10 -10 63.63 24.88
-10 11 -10 70.44 31.96
11 10 -11 233.99 27.36
10 11 -11 271.36 26.65
11 10 -12 72.79 14.56
10 11 -12 70.6 15.3
-11 -10 -12 86.41 18.66
-11 -10 -13 337.3 34.97
-10 -11 -13 332.93 37
11 10 -13 320.4 30.94
10 11 -13 299.5 29.12
10 11 -14 16.26 8.68
-11 -10 -14 7.69 7.7
-10 -11 -14 -3.9 7.36
11 10 -14 7.56 7.09
11 10 -15 64.74 13.58
-11 -10 -15 66.72 15.12
-10 -11 -15 71.01 16.31
10 11 -15 75.15 13.78
10 11 -16 2.32 5.2
-11 -10 -16 -1.27 7.09
-10 -11 -16 1.38 6.79
11 10 -16 11.25 6.09
11 10 -17 2.93 4.55
-10 -11 -17 2.75 5.73
-11 -10 -17 -2.65 5.2
10 11 -17 -0.67 4.12
-11 -10 -18 3.48 3.4
-10 -11 -18 6.65 5
11 10 -18 1.38 3.74
10 11 -18 11.21 5.87
10 11 -19 5.37 3.25
11 10 -19 3.47 3.17
-11 11 0 547.02 62.46
11 11 0 262.05 19.93
-11 11 1 -1.18 11.33
11 11 1 -3.04 4.33
-11 11 1 -10.12 7.82
11 11 -1 -2.37 5.32
-11 11 2 210.47 22.16
-11 11 2 269.67 42.7
-11 11 -2 232.97 44.95
11 11 2 113.6 13.24
11 11 -2 96.93 13.34
-11 11 -3 1.83 12.88
-11 11 3 -0.27 4.55
-11 11 3 -1.59 11.4
11 11 3 3.07 5.11
11 11 -3 3.01 4.87
-11 11 -4 9.01 14.19
-11 11 4 14.52 6.61
11 11 4 19.41 8.18
11 11 -4 2.73 5.54
-11 11 4 8.45 10.72
-11 11 5 -6.52 6.85
11 11 -5 -3.73 5.43
-11 11 -5 0.01 10.45
11 11 5 2.58 6.37
-11 11 -6 32.56 20.43
11 11 6 32.61 9.95
11 11 -6 35.04 9.88
-11 11 6 32.28 10.61
-11 11 -7 -16.11 14.46
11 11 -7 0.83 4.39
-11 11 -8 28.89 21.4
11 11 -8 12.02 6.76
-11 11 -9 1.38 13.07
11 11 -9 -1.37 5.44
11 11 -10 236.64 25.81
11 11 -11 -5.71 9.3
11 11 -12 300.07 28.62
-11 -11 -13 -5.29 9.2
11 11 -13 2.13 6.09
-11 -11 -14 15.21 9.66
11 11 -14 10.36 7.97
11 11 -15 2.47 5.48
-11 -11 -15 -0.09 5.12
-11 -11 -16 31.06 10.35
11 11 -16 33.43 10.8
-11 -11 -17 -1.78 4.79
11 11 -17 3.19 4.83
11 11 -18 29.78 6.92
-12 0 0 5642.05 119.62
0 12 0 5932.82 140.13
-12 0 -1 162.11 20.85
0 12 -1 188.46 26.17
0 12 1 181.24 25.56
-12 0 1 178.64 22.68
0 12 2 895.61 55.36
-12 0 -2 774.51 44.09
0 12 -2 869.66 54.72
-12 0 -3 509.89 36.93
0 12 -3 545.04 47
0 12 3 565.66 45.48
0 12 -4 826.5 59.88
-12 0 -4 825.92 50.06
12 0 5 353.99 22.68
0 12 5 352.76 25.79
0 12 -5 454.7 45.94
-12 0 -5 454.02 38.93
12 0 6 914.59 40.5
0 12 -6 997.09 71.85
0 12 6 836.06 42.77
12 0 -6 914.52 40.89
12 0 7 290.57 23.88
12 0 -7 293.77 23.58
0 12 7 284.53 24.89
0 12 8 28.4 9.27
12 0 -8 25.84 8.36
0 12 9 130.24 19.83
12 0 -9 141.68 18.9
0 12 -9 121.84 30.47
0 12 -10 1422.79 100.16
12 0 -10 1451.52 59.11
0 12 10 1398.01 64.34
0 12 -11 379.46 52.94
0 12 11 392.7 35.11
12 0 -11 399.51 32.08
0 12 12 651.26 46.06
12 0 -12 672.7 42.34
12 0 -13 86.82 15.93
0 -12 -13 87.97 20.58
12 0 -14 3.65 6.23
0 -12 -14 9.17 10.82
0 -12 -15 76.08 17.09
12 0 -15 60.61 13.07
0 -12 -16 395.08 37.66
12 0 -16 345.17 30.16
0 -12 -17 128.32 21.29
12 0 -17 107.42 15.38
0 -12 -18 34.59 10.82
12 0 -18 33.28 9.16
12 0 -19 35.81 7.86
0 -12 -19 50.37 11.33
0 -12 -20 317.12 24.72
-12 1 0 166.03 24.17
-12 -1 0 108.85 16.2
1 12 0 122.76 20.8
-1 12 1 2801.06 100.06
-12 -1 1 2739.66 81.26
1 12 1 2911.95 94.27
-1 12 -1 2702.67 99.69
1 12 -1 2813.1 92.64
-12 1 -1 2487.56 85.28
-12 1 1 2581.54 89.64
1 12 2 322.47 32.18
-12 1 -2 370.31 33.99
-1 12 -2 388.13 39.11
-1 12 2 413.36 40.18
1 12 -2 324.98 33.34
-1 12 3 56.5 16.08
-1 12 -3 52.34 16.86
-12 1 -3 47.03 13.58
1 12 3 114.15 21.5
1 12 -3 104.94 22.23
-12 1 -4 307.75 31.95
-1 12 -4 298.5 35.96
1 12 -4 364.76 38.63
-12 1 -5 1642.81 79.53
12 1 5 1934.69 55.91
-1 12 -5 1688.14 93.58
-1 12 5 1501.38 55.28
1 12 5 1773.6 60.49
-1 12 -6 91.26 23.54
12 -1 6 79.23 12.55
12 -1 -6 78.07 11.33
12 1 6 81.75 12.17
-1 12 6 68.94 11.84
-12 1 -6 88.73 19.47
1 12 6 78.31 13.35
12 1 -6 83.44 12.47
-1 12 -7 320.69 44.64
-1 12 7 364.96 28.21
12 1 -7 434.75 30.17
-12 1 -7 407.29 43.43
12 1 7 452.66 29.62
1 12 7 404.02 31.09
12 -1 -7 387.7 27.29
1 12 -8 237 40.67
-1 12 -8 288.01 49.31
12 -1 -8 211.7 21.13
-1 12 8 182.97 21.55
1 12 8 176.08 21.76
12 1 -8 190.83 21.41
-12 1 -8 199.29 32.08
1 12 -9 763.94 70.48
-1 12 -9 780.64 75.38
12 1 -9 716.82 40.71
1 12 9 678.58 43.92
-1 12 9 672.71 41.58
12 -1 -9 701.24 39.69
-1 12 -10 367.35 53.87
1 12 10 320.19 31.16
12 -1 -10 378.23 30.88
1 12 -10 316.95 47.48
12 1 -10 342.52 29.15
-1 12 10 365.19 32.59
-1 12 11 1057.21 57.18
12 -1 -11 1097.95 52.33
-1 12 -11 1016.37 89.66
1 12 11 994.19 55.96
1 12 -11 1026.81 87.92
12 1 -11 1046.64 53.58
-1 12 -12 184.79 39.52
1 12 12 175.3 24.93
-1 12 12 185.85 24.53
12 1 -12 151.47 21.44
12 -1 -12 175.37 22.08
12 1 -13 247.2 26.94
1 -12 -13 263.41 31.99
-1 -12 -13 273.23 34.93
12 -1 -13 167.51 21
-1 -12 -14 25.8 12.09
1 -12 -14 20.4 10.86
12 1 -14 14.67 7.76
12 -1 -14 20.76 9.58
12 -1 -15 210.27 24.06
1 -12 -15 193.89 26.78
-1 -12 -15 230.81 31.17
12 1 -15 215.94 24.65
1 -12 -16 41.52 10.83
-1 -12 -16 46.01 14.69
12 1 -16 39.95 10.96
12 -1 -16 34.07 8.3
12 1 -17 308.78 27.2
-1 -12 -17 343.53 34.67
1 -12 -17 294.31 31.44
12 -1 -17 270.38 24.47
12 1 -18 56.12 10.96
1 -12 -18 60.89 13.55
-1 -12 -18 56.97 13.69
12 -1 -18 55.95 10.17
12 1 -19 28.85 7.67
12 -1 -19 17.88 5.25
-1 -12 -19 34 9.2
1 -12 -19 39.51 10.67
1 -12 -20 29.9 7.99
-1 -12 -20 23.03 7.45
1 12 -20 23.95 7.4
-12 2 0 2074.65 84.31
2 12 0 2393.17 79.29
-2 12 0 2189.07 92.88
-2 12 1 893.79 60.49
-12 2 -1 777.55 52.36
-2 12 -1 785.66 57.84
2 12 -1 564.81 40.92
2 12 1 550.15 38.15
-12 2 1 800.6 53.79
-2 12 2 231.54 31.69
2 12 2 187.33 22
-12 2 -2 209.38 26.29
-2 12 -2 219.56 31.21
2 12 -2 220.71 28.3
-2 12 -3 16.51 11.06
2 12 3 16.45 9.23
-2 12 3 14.79 10.72
-12 2 -3 8.24 5.74
2 12 -4 829.35 57.69
-2 12 -4 809.99 62.34
-12 2 -4 810.87 54.63
12 2 5 84.91 13.42
2 12 -5 116 23.81
-2 12 -5 179.9 34.69
2 12 5 102.1 14.67
-2 12 5 152.61 18.46
12 2 -5 93.19 14.39
-12 2 -5 156.24 28.52
-2 12 6 932.88 44.25
-12 2 -6 956.34 66.28
12 -2 6 936.54 40.95
12 2 6 1099.03 44.41
2 12 -6 945.44 68.36
12 2 -6 1121.76 45.49
2 12 6 1032.61 46.81
2 12 7 21.3 8.78
-2 12 -7 12.62 9.61
-12 2 -7 14.39 9.33
12 2 7 27.14 9.54
-2 12 7 17.05 7.88
12 -2 -7 22.43 8.2
12 2 -7 24.93 7.69
2 12 -7 26.92 14.42
-2 12 -8 56.48 25.8
-2 12 8 32.5 10.3
-12 2 -8 14.46 8.82
2 12 8 31.42 12.04
2 12 -8 42.7 19.4
12 2 -8 44.43 10.94
12 -2 -8 34.9 9.9
-12 2 -9 228.86 39.55
12 -2 -9 273 25.51
-2 12 -9 266.84 47.63
-2 12 9 255.72 27.74
2 12 -9 149.42 31.36
12 2 -9 227.95 24.06
2 12 9 186.22 26.04
12 -2 -10 497.04 33.88
2 12 -10 430.37 54.08
-2 12 -10 493.09 63.56
-2 12 10 470.89 37.24
2 12 10 417.38 37
12 2 -10 436.43 32.54
12 -2 -11 123.22 15.33
-2 12 -11 168.93 37.16
2 12 11 153.05 22.73
12 2 -11 188.12 23.89
-2 12 11 193.44 26.05
-2 12 12 399.79 35.74
12 -2 -12 305.29 27.84
12 2 -12 322.32 28.91
2 -12 -12 361.46 37.71
-2 12 -12 411.77 59.22
2 -12 -13 196.49 30.04
12 -2 -13 113.8 16.8
12 2 -13 141.97 19.88
-2 -12 -13 152.83 26.39
12 -2 -14 47.18 11.42
2 -12 -14 66.23 17.55
-2 -12 -14 83.06 19.39
12 2 -14 65.71 14.44
-2 -12 -15 -18.06 13.19
2 -12 -15 -3.33 7
12 -2 -15 -31.78 13.56
12 2 -15 4.73 6.49
12 2 -16 465.01 35.34
-2 -12 -16 504.21 43.96
2 -12 -16 390.76 37.43
12 -2 -16 369.93 28.82
12 2 -17 -1.25 4.66
12 -2 -17 2.32 3.99
2 -12 -17 -3.71 7.65
-2 -12 -17 -16.46 10.13
-2 -12 -18 125.86 19.79
2 -12 -18 93.8 15.97
12 2 -18 111.35 16.17
12 2 -19 10.04 5.44
2 -12 -19 1.99 4.43
-2 -12 -19 2.01 6.51
2 -12 -20 116.6 14.67
-2 -12 -20 110.48 14.6
2 12 -20 92.87 11.42
12 2 -20 75.34 9.51
-12 3 0 1149.17 66.81
-3 12 0 1294.99 74.18
-12 3 -1 119.47 22.16
3 12 1 159.48 18.54
-3 12 1 143.56 24.96
-3 12 -1 140.6 24.63
3 12 -1 160.86 20.72
-12 3 1 125.81 22.78
-12 3 -2 131.55 22.52
-3 12 2 146.62 25.36
3 12 -2 107.37 22.06
3 12 2 107.09 15.97
-3 12 -2 127.67 24.37
-3 12 -3 119.97 22.72
3 12 -3 193.64 27.73
-3 12 3 115.68 24.68
-12 3 -3 130.32 22.96
-3 12 -4 520.69 51.54
-12 3 -4 493.51 45.52
-3 12 5 874.05 41.81
12 3 5 1211.14 44.8
3 12 5 1057.62 47.42
12 3 -5 1137.41 44.98
-3 12 -5 936.61 72.71
3 12 -5 877.15 62.82
-12 3 -5 917.83 63.75
-12 3 -6 349.08 43.68
12 3 6 273.86 23.64
12 3 -6 308.29 25.09
3 12 6 306.26 26.83
3 12 -6 243.26 33.83
-3 12 6 355.02 28.91
-3 12 -6 335.02 46.33
-3 12 -7 355.53 51.99
-12 3 -7 310.45 43.06
12 3 7 464.9 30.82
3 12 7 471.88 34.62
3 12 -7 344.66 42.63
12 -3 -7 378.29 26.9
-3 12 7 334.76 28.57
12 3 -7 486.25 32.3
-12 3 -8 5.7 13.84
3 12 8 19.51 8.64
3 12 -8 16.72 10.83
-3 12 -8 15.14 17
12 -3 -8 26.76 7.96
12 3 -8 16.16 6.72
-3 12 8 16.23 7.43
3 12 -9 27.38 13.33
12 -3 -9 40.21 10.83
-3 12 -9 36.74 16.72
3 12 9 32.4 11.5
12 3 -9 33.75 9.66
-12 3 -9 13.44 9.44
-3 12 9 33.95 11.48
12 3 -10 107.2 17.81
3 12 10 96.92 18.52
-12 3 -10 79.95 24.4
12 -3 -10 162.7 21.37
-3 12 -10 119.28 34.97
-3 12 10 130.57 19.44
12 3 -11 222.6 25.57
-3 12 -11 214.24 42.43
-3 12 11 223.51 26.67
12 -3 -11 172.32 20.12
3 12 11 228.61 28.13
12 -3 -12 185.66 21.75
12 3 -12 219.37 25.76
-3 12 -12 237.31 47.16
3 -12 -12 143.32 20.42
-3 12 12 246.46 27.84
12 3 -13 18.53 8.78
-3 12 13 9.63 5.95
12 -3 -13 -7.19 7.48
3 -12 -13 22.39 10.19
3 -12 -14 26.07 12.03
12 3 -14 37.7 11.33
12 -3 -14 57.41 14.11
-3 -12 -14 42.87 15.7
12 3 -15 399.27 33.26
12 -3 -15 319.37 26.87
3 -12 -15 314.87 33.45
3 -12 -16 180.42 25.62
-3 -12 -16 138.17 23.05
12 3 -16 137.55 19.98
3 -12 -17 256.07 28.12
-3 -12 -17 331.31 34.04
12 3 -17 318.51 28.1
3 -12 -18 35.01 11.18
12 3 -18 23.44 7.49
-3 -12 -18 37.79 11.51
-3 -12 -19 14.91 7.1
3 -12 -19 12.39 7.01
12 3 -19 5.65 4.74
3 -12 -20 12.69 5.18
-3 -12 -20 16.93 6.27
12 3 -20 14.15 5.58
3 12 -20 19.93 6.43
-12 4 0 62.47 15.8
-4 12 0 51.55 14.5
-4 12 1 877.67 63.19
-12 4 -1 778.08 55.78
-4 12 -1 824.04 61.56
-12 4 1 823.8 59.72
-4 12 2 5.56 8.1
-4 12 -2 7.28 10.32
-12 4 -2 9.72 8.36
4 12 -3 111.72 18.79
-12 4 -3 155.8 25.76
-4 12 3 171.26 30.24
-4 12 -3 131.66 24.76
12 4 4 208.39 18.42
-4 12 -4 153.97 29.64
-12 4 -4 174.29 27.18
12 4 -4 215.3 19.34
4 12 -4 248.07 30.58
-4 12 4 180.87 18.02
12 4 5 1529.89 50.46
12 4 -5 1560.76 53.14
-4 12 5 1713.44 59.64
4 12 5 1530.59 56.75
-12 4 -5 1633.28 91.43
4 12 -5 1717.74 80.45
12 4 6 759.37 37.74
-4 12 6 594.44 36.42
4 12 -6 818.79 60.46
12 4 -6 719.24 38.3
-12 4 -6 646.42 57.16
4 12 6 747.13 42.22
-4 12 -6 599.52 61.75
4 12 -7 295.45 35.84
12 4 7 370.97 26.76
-4 12 -7 384.69 52.29
-12 4 -7 331.12 44.16
12 4 -7 336.29 27.21
4 12 7 376.99 31.07
-4 12 7 378.19 28.95
12 4 -8 397.77 29.8
-12 4 -8 292.48 44.45
4 12 -8 304.43 39.08
-4 12 8 296.47 26.65
4 12 8 381.39 32.05
-4 12 -8 338.77 51.24
-4 12 -9 23.8 15.8
-12 4 -9 0.31 11.61
4 12 9 5.22 7.04
-4 12 9 6.37 5.69
12 4 -9 5.37 6.51
12 4 -10 -6.19 6.17
-4 12 -10 6.53 14.9
-4 12 10 3.81 6.27
4 12 10 8.14 7.98
-12 4 -10 9.05 12.85
-12 4 -11 338.69 49.45
12 4 -11 353.49 31.67
4 -12 -11 449.12 41.19
-4 12 -11 362.85 56.68
-4 12 11 377.2 33.42
4 -12 -12 24.85 10.93
-4 12 -12 -5.33 11.72
-4 12 12 17.06 8.55
12 4 -12 11.49 6.2
12 4 -13 17.32 9.09
-4 12 13 16.47 9.48
4 -12 -13 27.65 10.41
4 -12 -14 347.5 34.41
12 4 -14 378.51 33.96
-4 -12 -14 410.02 41.55
4 -12 -15 342.23 35.32
-4 -12 -15 305.39 35.58
12 4 -15 287.41 29.29
4 -12 -16 234.8 27.81
12 4 -16 281.03 27.83
-4 -12 -16 279.23 32.07
12 4 -17 335.13 28.73
-4 -12 -17 383.36 35.91
4 -12 -17 406.08 35.08
4 -12 -18 74.74 13.55
-4 -12 -18 94.72 16.41
12 4 -18 85.74 13.72
12 4 -19 27.18 7.03
4 -12 -19 27.75 8.42
-4 -12 -19 31.74 8.77
4 12 -19 24.74 6.93
12 4 -20 0.75 2.44
-4 -12 -20 6.04 4.36
4 12 -20 5.79 3.57
-12 5 0 842.77 61.98
-5 12 0 827.78 62.83
-5 12 1 285.4 36.61
-12 5 -1 247.82 31.55
-5 12 -1 270.55 35.34
-12 5 1 249.83 32.49
-12 5 2 53.54 18.1
-5 12 2 57.6 18.68
-12 5 -2 46.48 14.61
-5 12 -2 58.63 18.03
-5 12 -3 -6.21 10.08
-12 5 -3 5.68 10.95
12 5 3 14.18 5.82
12 5 -3 31.34 8.44
-5 12 3 29.97 15.09
-5 12 3 17.69 7.87
12 5 4 987.52 40.54
-12 5 -4 1257.68 78.24
-5 12 4 1161.66 49.71
-5 12 -4 1398.67 88.5
12 5 -4 1069.06 42.55
12 5 5 290.43 22.37
12 5 -5 275.87 23.25
-5 12 5 250.31 22.13
-5 12 -5 251.15 38.22
-12 5 -5 254.37 36.52
5 12 5 287.5 25.22
12 5 6 1252.29 47.94
12 5 -6 1299.23 51.27
-5 12 6 1467.79 56.78
-5 12 -6 1491.29 101
-12 5 -6 1414.68 90.71
5 12 6 1269.06 56.7
-5 12 -7 369.72 49.84
-5 12 7 339.68 28.02
5 12 7 411.16 32.15
12 5 -7 393.09 28.67
12 5 7 410.16 27.83
-12 5 -7 364.17 47.41
5 12 8 58.47 14.91
12 5 -8 71.04 15.09
-5 12 -8 87.25 28.46
-12 5 -8 89.03 29.22
-5 12 8 90.42 14.85
-12 5 -9 25.65 19.63
-5 12 -9 13.58 11.53
-5 12 9 13.03 4.94
12 5 -9 11.81 5.87
5 12 9 13.27 8.93
-5 12 -10 330.57 56.33
12 5 -10 305.68 28.34
5 -12 -10 290.78 31.65
-12 5 -10 278.89 46.2
-5 12 10 299.58 29.31
5 -12 -11 1.89 5.41
-12 5 -11 -5.56 15.36
-5 12 11 -0.17 6.84
-5 12 -11 0.58 14.37
12 5 -11 11.29 7.9
-12 5 -12 99.15 29.27
-5 12 12 128.34 20.93
12 5 -12 119.76 19.36
-5 12 -12 110.28 33.98
5 -12 -12 106.92 19.4
12 5 -13 127.46 19.76
-5 12 13 122.03 19.86
5 -12 -13 110.36 19.57
5 -12 -14 186.95 26.15
-5 -12 -14 160.16 27.37
12 5 -14 145.27 20.66
5 -12 -15 125.07 20.6
12 5 -15 155.49 21.28
-5 -12 -15 136.25 23.77
12 5 -16 628.05 41.06
-5 -12 -16 647.74 48.45
5 -12 -16 755.02 48.2
12 5 -17 71.66 14.36
5 -12 -17 46.82 11.21
-5 -12 -17 58.71 14.96
5 -12 -18 203.71 21.78
-5 -12 -18 198.82 23.64
12 5 -18 170.37 18.96
5 12 -18 177.32 18.34
5 -12 -19 46.29 9.74
12 5 -19 29.8 7.24
-5 -12 -19 45.94 10.28
5 12 -19 30.26 7.67
-5 -12 -20 8.75 4.79
12 5 -20 17.72 5.08
-6 12 0 255.92 23.77
-12 6 0 211.34 31.25
-6 12 0 207.81 32.23
-6 12 1 790.91 38.61
-6 12 1 985.31 73.23
-12 6 1 895.2 67.43
-12 6 -1 867.46 66.6
-6 12 -1 888.55 71.88
-6 12 2 52.83 16.34
-12 6 2 50.03 17.42
-6 12 2 48.16 9.94
12 6 2 49.29 9.31
12 6 -2 54.16 10.03
-12 6 -2 42.13 14.85
-6 12 -2 52.82 18.23
-6 12 3 326.93 45.36
12 6 3 225.29 18.46
-12 6 -3 278.59 37.11
-6 12 -3 293.61 41.51
12 6 -3 227.83 19.63
-6 12 3 274.3 23.59
-6 12 4 6.42 5.63
-12 6 -4 17.3 8.11
-6 12 -4 6.64 10.21
6 12 4 8.58 5.44
12 6 4 12.27 5.73
12 6 -4 9.63 3.87
-6 12 -5 1818.62 105.67
12 6 5 1479.84 51.04
6 12 5 1553.48 60.32
-12 6 -5 1708.88 97.29
12 6 -5 1470.5 52.29
-6 12 5 1719.66 60.44
6 12 -6 62.83 9.97
12 6 6 69.7 11.59
12 6 -6 55.94 10.71
-6 12 -6 56.2 17.45
-12 6 -6 57.08 16.24
6 12 6 68.81 13.01
-6 12 6 54.71 10.68
-12 6 -7 682.61 70.42
6 12 7 602.7 41.55
12 6 -7 567.77 36.03
-6 12 7 717.92 42.38
12 6 7 507.19 32.03
6 12 -7 564.53 32.57
-6 12 -7 721.4 76.47
12 6 -8 1.21 4.86
-12 6 -8 -14.02 14.83
6 12 8 6.46 7.43
-6 12 -8 0.45 12.7
-6 12 8 3.41 5.14
12 6 -9 222.99 23.81
-6 12 -9 168.35 37.49
6 12 9 195.12 25.89
-12 6 -9 170.39 35.71
-6 12 9 161 20.9
-6 12 -10 23.38 18.29
6 -12 -10 19.31 7.85
12 6 -10 27.73 10.09
-12 6 -10 26.34 19.19
-6 12 10 21.16 8.13
-12 6 -11 379.96 56.14
12 6 -11 417.96 34.92
-6 12 -11 401.96 63.02
6 -12 -11 349.47 34.03
-6 12 11 389.2 33.48
12 6 -12 119.51 18.53
6 -12 -12 105.8 20.01
-6 12 12 121.37 18.36
-6 12 13 24.08 11.38
6 -12 -13 10.53 7.39
12 6 -13 27.37 10.89
12 6 -14 89.7 17.32
-6 -12 -14 97.14 22.17
12 6 -15 378.34 33.86
6 -12 -15 401.1 36.11
-6 -12 -15 422.65 41.85
12 6 -16 21.31 9.8
6 -12 -16 6.84 4.76
-6 -12 -16 8.49 7.07
6 12 -17 421.31 30.57
6 -12 -17 484.04 35.25
12 6 -17 441.22 32.38
-6 -12 -17 459.37 38.06
6 -12 -18 13.81 6.07
12 6 -18 6.56 5
6 12 -18 15.53 5.15
-6 -12 -18 6.43 5.91
6 12 -19 5.8 3.92
-6 -12 -19 7.05 5.62
6 -12 -19 5.32 4.05
12 6 -19 4.57 4.44
-12 7 0 2059.19 103.76
-7 12 0 2144.11 108.82
12 7 0 2070.08 56.64
-12 7 1 8.13 8.91
-7 12 1 -2.2 11.47
-7 12 1 14.68 6.31
12 7 1 18.31 6.07
-12 7 -1 -1.41 11.1
-7 12 -1 -9.34 12.03
12 7 -1 11.8 3.99
-7 12 2 178.03 18.35
-12 7 -2 169.28 32.33
-7 12 2 201.27 33.91
12 7 2 217.3 18.16
12 7 -2 209.77 18.8
-7 12 -2 159.04 32.24
-12 7 2 184.71 32.73
-7 12 3 30.07 9.29
-7 12 3 52.53 22.82
12 7 -3 33.21 8.53
12 7 3 13.56 7.41
-12 7 -3 39.51 17.8
-7 12 -3 30.87 16.37
7 12 4 604.69 35.9
12 7 4 538.91 30.74
-12 7 -4 700.42 61.77
-7 12 -4 731.88 66.59
12 7 -4 566.25 31.41
-7 12 4 639.27 36.8
-7 12 5 18.92 8.01
-7 12 -5 30.58 15.56
-12 7 -5 28.61 12.68
12 7 5 8.6 5.2
7 12 5 13 6.88
7 12 -5 21.83 7.06
12 7 -5 20.32 7.02
-7 12 6 1052.59 49.92
12 7 6 1010.9 44
7 12 6 1070.95 52.9
12 7 -6 951.07 45.56
-12 7 -6 1204 88.2
-7 12 -6 1326.54 97.09
7 12 -6 951.99 41.06
7 12 -7 25.21 7.81
7 12 7 29.98 10.96
12 7 7 9.73 6.7
-7 12 -7 31.93 15.63
-12 7 -7 28.52 15.62
12 7 -7 27.5 8.22
-7 12 7 27.14 7.78
-7 12 -8 9.52 14.56
12 7 -8 27.92 9.55
-12 7 -8 37.63 21.38
7 12 8 19.42 10.4
7 12 -8 20.56 8.29
-7 12 8 21.75 8.39
-12 7 -9 -9.71 15.49
-7 12 -9 4.84 12.71
7 12 -9 2.61 4.87
-7 12 9 -1.72 5.25
12 7 -9 8.07 6.63
-7 12 10 699.99 43.32
-7 12 -10 718.16 82.57
12 7 -10 793.18 45.63
-12 7 -10 672 77.35
-7 12 -11 33.01 16.01
7 -12 -11 0.4 10.09
-7 12 11 33.89 9.5
12 7 -11 26.44 8.41
-12 7 -11 31.71 17.07
12 7 -12 563.54 40.02
-7 12 12 477.9 36.31
-12 -7 -12 589.64 42.47
7 -12 -13 45.67 15.44
12 7 -13 3.7 6.38
7 -12 -14 57.2 12.7
12 7 -14 44.66 13.42
-7 -12 -14 53.95 16.67
7 12 -15 12.68 7.92
7 -12 -15 7.49 5.52
12 7 -15 6.64 8.31
-7 -12 -15 3.46 6.95
7 -12 -16 423.99 33.13
-7 -12 -16 450.86 39
12 7 -16 432.65 34.04
7 12 -16 414.19 32.17
7 -12 -17 1.96 4.57
-7 -12 -17 -6.96 7.94
12 7 -17 6.38 4.51
7 12 -17 13.59 7.17
7 -12 -18 57.58 10.38
12 7 -18 49.1 10.89
-7 -12 -18 55.9 13.09
7 12 -18 55.44 10.24
12 7 -19 15.18 5.74
-7 -12 -19 14.63 5.84
7 12 -19 12.46 5.79
-12 8 0 53.11 22.13
-8 12 0 60.55 23.1
12 8 0 32.05 8.26
-8 12 1 1162.47 83.67
-12 8 -1 1133.22 80.94
-8 12 -1 1128.23 84.29
-12 8 1 1140.43 82.59
12 8 1 1176.01 42.89
12 8 -1 1217.62 44.58
-8 12 1 1057.41 48.1
-8 12 2 5.37 4.59
-8 12 -2 -18.35 10.56
-12 8 2 0.25 11.64
-8 12 2 -4.33 13.15
12 8 2 -2.4 4.72
12 8 -2 -1.8 4.34
-12 8 -2 2.9 9.68
-8 12 3 26.35 9
-12 8 3 27.57 16.91
12 8 3 19.59 5.8
8 12 3 19.19 7.34
12 8 -3 38.86 10.04
-8 12 -3 33.34 18.2
-8 12 3 29.41 16.98
-12 8 -3 14.4 15.42
-12 8 -4 22.02 16.48
-8 12 4 24.26 7.64
-8 12 -4 29.58 18.64
8 12 4 31.85 9.49
12 8 4 28.37 7.82
12 8 -4 37.32 9.71
8 12 -4 26.09 7.36
12 8 5 458.49 28.54
-8 12 -5 548.35 61.73
12 8 -5 446.35 29.66
8 12 -5 412.81 26.68
8 12 5 431.95 33.74
-12 8 -5 475.34 55.99
-8 12 5 485.34 33.03
8 12 6 90.33 15.89
8 12 -6 75.04 12.34
12 8 6 80.89 12.34
-8 12 -6 81.27 24.89
-12 8 -6 72.15 25.09
12 8 -6 73.06 11.77
-8 12 6 69.54 13.64
12 8 7 243.67 22.29
-8 12 7 327.93 28.52
8 12 -7 231.04 21.92
-8 12 -7 364.92 54.18
12 8 -7 250.88 24.08
-12 8 -7 336.65 51.3
-8 12 -8 89.28 30.64
-12 8 -8 81.59 26.34
-8 12 8 78.41 13.78
8 12 -8 81.8 13.23
12 8 -8 94.59 15.03
-8 12 -9 226.16 45.12
12 8 -9 262.65 26.13
-12 8 -9 214.84 44.35
-8 12 9 252.52 25.61
8 12 -9 270.98 24.78
-8 12 -10 9.91 12.33
-8 12 10 -13.55 7.83
-12 8 -10 14.5 15.08
12 8 -10 8.59 6.51
8 12 -10 4.98 5.07
-12 -8 -11 1252.17 64.01
12 8 -11 1147.25 55.85
8 12 -11 1138.56 52.92
12 8 -12 28.71 11.42
-12 -8 -12 24.96 8.46
8 12 -12 30.06 10.37
8 12 -13 196.55 23.23
-12 -8 -13 205.56 25.39
12 8 -13 210.06 25.15
-12 -8 -14 9.85 6.99
12 8 -14 15.68 8.08
-8 -12 -14 6.72 7.69
8 12 -14 6.55 5.76
8 12 -15 123.24 17.62
-12 -8 -15 113.88 18.37
-8 -12 -15 132.06 23.77
12 8 -15 153.53 20.61
12 8 -16 23.44 10.02
-8 -12 -16 16.21 7.88
8 12 -16 25.93 9.54
12 8 -17 89.88 14.27
-8 -12 -17 96.95 16.91
8 12 -17 96.26 14.26
12 8 -18 4.3 4.82
-8 -12 -18 -3.2 5.02
8 12 -18 7.57 5.31
8 12 -19 40.52 7.81
-8 -12 -19 29.81 8.54
12 8 -19 28.73 7
-9 12 0 1187.49 85.22
-12 9 0 1229.7 85.5
12 9 0 1297.34 46.3
-12 9 1 115.9 30.81
-9 12 1 99.24 30.73
12 9 1 50.84 10.38
-12 9 -1 109.57 27.89
12 9 -1 44.71 9.5
-9 12 -1 137.49 30.58
-9 12 1 99.84 17
-12 9 2 568.96 61
-9 12 2 540.48 34.67
-9 12 2 582.81 61.61
-12 9 -2 552.37 58.97
-9 12 -2 535.84 61.35
12 9 2 618.59 30.64
12 9 -2 587.22 32.24
-12 9 2 578.1 34.65
-12 9 3 20.64 7.36
-9 12 3 25.15 7.84
-12 9 3 51.64 22.32
12 9 3 17.83 6.49
-9 12 3 24.39 14.15
12 9 -3 16.98 7.86
-12 9 -3 24.04 14.39
-9 12 -3 14.17 13.85
9 12 -3 17.46 5.92
-9 12 4 29.64 9.08
-12 9 -4 23.62 16.42
-9 12 -4 12.36 11.81
9 12 4 29.57 8.99
12 9 4 21.69 6.57
-9 12 4 33.85 22.17
12 9 -4 31.93 8.41
9 12 -4 25.92 7.46
-9 12 5 21.8 9.31
-12 9 -5 10.22 11.37
12 9 5 5.72 5.4
12 9 -5 11.21 7.61
9 12 -5 13.17 5.64
12 9 6 385.84 26.84
9 12 -6 392.73 27.75
-12 9 -6 388.96 53.7
12 9 -6 376.16 28.5
-9 12 6 378.32 29.81
-9 12 -6 418.65 57.07
12 9 7 151.09 17.36
-9 12 -7 152.6 35.5
-12 9 -7 132.69 32.92
-9 12 7 157.78 19.94
12 9 -7 161.12 19.46
9 12 -7 160.76 18.11
-9 12 -8 10.22 20.15
-12 9 -8 27.64 21.7
9 12 -8 11.19 6.99
12 9 -8 5.6 6.32
-9 12 8 16.07 8.82
-9 12 -9 21.01 21.4
-12 9 -9 18.81 16.41
-9 12 9 35.62 11.01
9 12 -9 24.6 9.79
12 9 -9 18.43 8.16
12 9 -10 848.61 46.15
9 12 -10 814.73 43.95
-9 12 -10 645.36 80.94
-12 9 -10 667.2 78.49
-9 12 10 714.91 43.29
12 9 -11 63.36 15.98
9 12 -11 84.4 16.35
12 9 -12 582.53 40.9
-12 -9 -12 622.95 46.21
9 12 -12 547.19 37.69
12 9 -13 56.57 13.5
-12 -9 -13 76.36 16.78
9 12 -13 77.05 14.97
-9 -12 -13 64.41 17.76
-12 -9 -14 29.45 10.89
-9 -12 -14 26.82 12.83
12 9 -14 23.81 9.61
9 12 -14 23.19 9.72
9 12 -15 19.15 8.66
-12 -9 -15 18.19 9.91
-9 -12 -15 20.45 8.32
12 9 -15 25.08 10.78
-9 -12 -16 40.58 11.09
12 9 -16 61.54 12.29
9 12 -16 55.75 12.24
-9 -12 -17 1.5 4.53
12 9 -17 3.67 5.68
9 12 -17 7.5 5.97
12 9 -18 5.28 4.5
-9 -12 -18 -5.82 5.5
9 12 -18 2.64 4.03
12 9 -19 4 3.44
9 12 -19 2.63 3.09
-10 12 0 315.43 49.27
10 12 0 193.37 17.21
12 10 0 165.52 17.18
-12 10 0 286.79 46.89
-12 10 1 662.69 65.62
-10 12 1 632.57 64.9
-12 10 -1 642.2 64.98
-10 12 -1 608.89 63.85
-10 12 1 612.12 37.42
10 12 -1 648.7 32.3
12 10 -1 668.16 33.38
12 10 1 672.25 32.18
-10 12 2 123.89 17.72
10 12 -2 45.53 7.94
-12 10 -2 124.94 34.07
-12 10 2 102.92 16.53
-10 12 2 171.73 36.16
12 10 2 52.32 9.91
12 10 -2 45.6 10.94
-10 12 -2 159.78 35.89
-12 10 2 168.82 36.22
-12 10 3 60.73 11.96
-12 10 3 64.06 25.42
-10 12 3 40.1 20.31
12 10 3 59.26 10.38
-12 10 -3 58.73 22.72
12 10 -3 49.69 10.9
10 12 -3 48.15 9.49
-10 12 3 52 11.22
-10 12 -3 48.92 18.76
-10 12 4 34.95 9.74
-12 10 4 19.68 6.67
-12 10 -4 9.56 15.65
-10 12 -4 0.55 12.76
-10 12 4 35.17 21.94
12 10 4 18.21 6.98
12 10 -4 20.32 8.26
-12 10 4 25.36 12.9
10 12 -4 28.37 7.66
-10 12 5 75.55 14.61
-10 12 -5 78.37 25.51
-12 10 -5 70.28 25.49
12 10 5 100.2 13.33
10 12 -5 86.82 13.47
12 10 -5 93.58 14.35
12 10 -6 22.6 8.8
-10 12 -6 18.89 15.92
-12 10 -6 20.74 14.6
12 10 6 17.24 8.98
10 12 -6 26.09 8.11
-10 12 6 20.74 9.86
10 12 -7 73.02 12.96
12 10 -7 70.75 13.17
12 10 7 74.51 13.4
-12 10 -7 47.23 24.82
-10 12 7 44.42 11.5
-10 12 -7 38.44 20.64
-12 10 -8 3.84 12.75
12 10 -8 18.17 8.42
-10 12 -8 0.82 12.73
10 12 -8 19.02 7.32
-10 12 8 14.83 6.2
-10 12 -9 122.66 36.07
-12 10 -9 158.39 38.29
12 10 -9 199.37 23.16
10 12 -9 177.31 22.1
12 10 -10 173.16 22.56
10 12 -10 133.8 19.63
12 10 -11 452.93 35
10 12 -11 389.36 32.48
12 10 -12 184.24 23.3
-12 -10 -12 209.42 27.64
10 12 -12 194.89 23.81
10 12 -13 118.57 18.42
-12 -10 -13 146.56 21.6
-10 -12 -13 155.03 24.24
12 10 -13 147.12 20.24
-12 -10 -14 1.86 5.32
-10 -12 -14 2.7 8.21
10 12 -14 -4.49 4.56
12 10 -14 -2.32 5.02
12 10 -15 1.69 4.96
10 12 -15 -1.09 4.51
-10 -12 -15 1.47 6.68
-12 -10 -15 4.55 6.32
-12 -10 -16 27.16 9.19
-10 -12 -16 31.13 11.92
10 12 -16 35.16 9.04
12 10 -16 27.94 10.29
-10 -12 -17 4.47 5.28
10 12 -17 9.12 5.6
12 10 -17 3.54 3.63
10 12 -18 18.77 5.87
-10 -12 -18 18.46 6.62
12 10 -18 19.57 6.48
11 12 0 111.72 13.61
12 11 0 124.15 14.45
-12 11 0 128.9 31.41
-11 12 0 90.67 23.89
12 11 -1 135.98 15.26
-11 12 1 241.48 43.19
-11 12 1 205.71 22.85
-12 11 -1 181.7 41.46
-11 12 -1 242.55 44.41
12 11 1 140.22 14.57
11 12 -1 113 13.98
-12 11 1 194.17 21.64
-12 11 1 212.41 37.19
-12 11 2 58.43 12.24
-11 12 2 53.6 11.85
-12 11 2 53.22 21.83
-11 12 2 42.13 17.84
11 12 2 38.35 8.66
12 11 2 52.94 9.38
12 11 -2 55.1 10.92
-11 12 -2 36.72 15.62
-12 11 -2 49.5 19.23
11 12 -2 51.54 9.86
-11 12 3 28.51 10
-12 11 3 24.74 9.17
-12 11 3 21.86 15.68
-11 12 3 1.49 11.9
11 12 3 28.79 8.69
12 11 3 45.6 9.87
12 11 -3 35.63 9.01
11 12 -3 38.24 9.57
-12 11 -3 17.86 13.51
-11 12 -3 16.75 15.62
-11 12 4 2.32 4.56
-12 11 4 5.66 6.5
-12 11 -4 -10.43 17.76
-11 12 -4 -15.74 15.03
-12 11 4 -5.97 10.07
-11 12 4 -0.46 14.38
12 11 4 -0.97 4.92
12 11 -4 -2.11 5.34
11 12 -4 7.4 5.64
-11 12 5 243.33 24.54
12 11 5 210.05 20.2
11 12 -5 224.45 20.87
-11 12 5 291.14 52.43
-11 12 -5 248.15 46.05
12 11 -5 204.87 21.22
-12 11 5 255.63 24.92
-12 11 5 228.86 44.52
12 11 6 32.46 9.8
11 12 -6 19.51 7.67
-11 12 -6 27.18 17.3
-12 11 -6 18.3 17.27
12 11 -6 22.81 8.06
-11 12 6 8.6 6.02
-11 12 7 60.48 12.62
-12 11 -7 71.44 25.79
12 11 -7 58.88 12.05
11 12 -7 44.16 11.51
-11 12 -7 66.8 31.5
-11 12 -8 -1.86 15.33
-12 11 -8 21.53 17.2
11 12 -8 6.38 6.1
12 11 -8 12.12 8.25
11 12 -9 49.93 12.9
-12 11 -9 63.27 27.67
12 11 -9 42.95 11.34
12 11 -10 62.7 13.87
11 12 -10 65.64 12.88
12 11 -11 279.03 28.39
11 12 -11 268.62 28.83
12 11 -12 56.52 11.54
11 12 -12 56.52 11.61
-12 -11 -12 73.36 16.2
11 12 -13 35.3 12.09
12 11 -13 37.59 11.84
-12 -11 -13 39.37 11.9
-11 -12 -13 54.69 16.59
-12 -11 -14 -1.17 7.09
12 11 -14 1.39 5.64
-11 -12 -14 8.07 7.83
11 12 -14 13.25 6.97
-12 -11 -15 107.04 17.27
-11 -12 -15 98.09 17.89
12 11 -15 109.83 16.02
11 12 -15 94.91 15.18
12 11 -16 14.53 7.63
-12 -11 -16 -0.58 6.01
-11 -12 -16 -8.28 7.1
11 12 -16 9.14 4.88
-11 -12 -17 125.01 16.61
12 11 -17 135.86 14.58
11 12 -17 132.92 14.17
11 12 -18 1.27 2.53
12 11 -18 -0.22 3.1
-12 12 0 253.21 43.86
12 12 0 160.46 15.43
-12 12 1 -10.47 8.98
12 12 1 -7.51 5.51
-12 12 1 6.85 13.62
12 12 -1 2.66 4
-12 12 -1 -4.63 11.6
-12 12 2 55.71 12.77
-12 12 2 43.23 17.29
12 12 2 23.07 6.03
12 12 -2 34.01 9.39
-12 12 -2 64.71 26.73
-12 12 3 -1.32 4.61
-12 12 3 6.15 13.47
12 12 3 -3.18 5.02
12 12 -3 -0.92 3.71
-12 12 -3 4.59 15.13
-12 12 4 314.99 50.5
12 12 4 425.58 27.75
-12 12 -4 376.77 56.36
12 12 -4 406.64 27.92
-12 12 4 373.25 30.65
-12 12 5 -5.38 7.94
-12 12 5 -9.93 17.82
12 12 5 -4.1 6.15
-12 12 -5 12.19 11.02
12 12 -5 6.47 4.77
-12 12 6 642.47 42.85
12 12 6 753.07 37.5
-12 12 -6 734.43 78.35
12 12 -6 714.99 37.92
-12 12 6 703.08 82.64
12 12 -7 9.42 6.99
-12 12 -7 1.73 17.4
-12 12 -8 25.49 16.55
12 12 -8 33.3 9.81
12 12 -9 0.89 5.3
12 12 -10 189.14 22.44
12 12 -11 -5.22 6.55
12 12 -12 109.64 17.9
-12 -12 -12 109.72 21.3
12 12 -13 -2.37 5.3
-12 -12 -13 0.95 6.27
-12 -12 -14 133.77 19.67
12 12 -14 150.36 18.59
-12 -12 -15 -6 4.62
12 12 -15 2.37 4.22
12 12 -16 367.51 25.57
-12 -12 -16 331.16 26.65
12 12 -17 0.24 3.46
12 12 -18 92.64 10.28
-13 0 0 148.89 19.8
0 13 0 98.93 15.53
0 13 -1 1757.25 79.84
-13 0 1 1920.57 75.42
-13 0 2 529.05 42.46
0 13 -2 609.4 50.11
0 13 3 45.35 14.27
0 13 -3 99.86 24.18
13 0 4 715.78 34.36
0 13 4 697.65 37.31
13 0 -4 667.3 33.5
0 13 -4 804.37 62.28
0 13 4 568.6 47.97
13 0 -5 1508.94 51.21
13 0 5 1514.83 51.91
0 13 5 1422.74 57.1
13 0 6 321.12 25.03
0 13 6 296.05 25.58
13 0 -6 315.03 24.5
13 0 7 732.95 40.67
13 0 -7 747.42 39.73
0 13 7 694.56 40.89
0 13 -8 286.55 46.2
13 0 -8 267.73 25.11
0 13 8 263.78 27.71
13 0 -9 545.97 34.98
0 13 9 522.77 38.19
0 13 -9 569.98 64.49
13 0 -10 474.1 34.52
0 13 -10 444.43 58.73
0 13 10 440.49 39.26
0 13 11 1141.06 59.89
0 13 -11 1086.71 91.84
13 0 -11 1190.18 56.4
0 13 12 357.98 36.13
13 0 -12 400.51 33.63
13 0 -13 93.65 16.84
0 -13 -13 106.78 20.65
13 0 -14 82.92 15.15
0 -13 -14 99.23 20.92
0 -13 -15 336.35 36.12
13 0 -15 313.46 28.22
0 -13 -16 100.82 19.29
13 0 -16 80.75 13.91
13 0 -17 337.74 26.45
0 -13 -17 403.63 35.89
13 0 -18 158.59 16.66
0 -13 -18 205.74 23.53
0 -13 -19 21.01 7.48
13 0 -19 18.63 4.62
0 -13 -20 101.65 13.22
-13 1 0 2637.7 91.25
-1 13 0 2840.23 106.33
-13 1 1 409.12 38.25
-1 13 1 470.13 44.93
1 13 1 210 24.73
-1 13 -1 473.33 44.74
1 13 -1 254.2 29.2
-13 1 -1 411.18 37
-1 13 2 378 40.17
1 13 2 190.49 23.06
1 13 -2 231.36 29.95
-13 1 -2 282.71 30.8
-1 13 -2 327.54 37.58
-13 1 2 304.87 34.16
-1 13 3 422.11 41.11
1 13 3 520.69 42.95
13 1 3 566.77 28.56
-1 13 -3 576.15 51.74
-13 1 -3 537.78 42.98
-1 13 3 531.92 31.75
1 13 -3 429.78 42.47
-13 1 -4 737.84 51.74
-1 13 4 761.3 38.73
13 1 4 890.06 38.73
-1 13 -4 805.44 62.97
1 13 4 910.13 42.51
13 1 -4 889.87 38.38
13 -1 4 722.64 35.8
1 13 4 1004.64 61.93
-1 13 4 575.17 50.78
1 13 -4 739.09 58.47
13 -1 -5 175.26 17.27
1 13 -5 148.24 27.65
13 -1 5 159.47 17.39
13 1 5 166 17.03
-1 13 -5 177.98 29.86
1 13 5 162.55 18.46
13 1 -5 162.77 17.24
-1 13 5 155.67 18.51
-1 13 -6 1829.06 103.71
13 -1 6 1625.92 56.07
13 1 6 1752.16 57.64
1 13 -6 1498.98 89.8
13 -1 -6 1631.23 54.56
13 1 -6 1738.4 58.82
-1 13 6 1552.06 59.7
1 13 6 1627.22 61.75
13 1 -7 174.14 19.35
13 1 7 185.82 20.56
1 13 -7 153.29 29.56
13 -1 -7 177.04 19.15
-1 13 -7 180.15 34.79
1 13 7 179.39 21.95
-1 13 7 157.86 18.87
-1 13 8 6.96 5.74
-1 13 -8 3.15 10.36
1 13 8 8.97 5.96
13 -1 -8 10.66 6.35
13 1 -8 5.62 5.56
1 13 -9 301.49 44.59
1 13 9 308.12 30.22
13 -1 -9 344.28 28.09
-1 13 9 350.62 32.07
-1 13 -9 354.87 53.01
13 1 -9 314.23 28.51
13 -1 -10 1075.35 50.6
13 1 -10 1039.54 51.29
-1 13 10 1008.54 55.8
1 13 10 1001.12 57.07
1 13 -10 974.3 83.75
-1 13 -10 1015.6 89.61
-1 13 11 480 39.79
1 13 -11 393.71 55.29
-1 13 -11 423.01 59.92
13 -1 -11 393.5 31.72
13 1 -11 287.52 26.69
1 13 11 411.63 37.37
1 13 12 424.69 37.63
-1 13 -12 394.62 57.44
-1 13 12 373.05 35.07
13 -1 -12 282.51 26.63
13 1 -12 358.62 31.87
1 -13 -13 326.11 36.29
-1 -13 -13 315.85 37.12
13 -1 -13 221.37 23.57
13 1 -13 295.67 28.1
13 1 -14 103.45 17.73
13 -1 -14 83.62 15.93
-1 -13 -14 124.33 24.33
1 -13 -14 99.54 20.16
-1 -13 -15 16.41 11.59
1 -13 -15 36.47 13.17
13 -1 -15 27.06 8.84
13 1 -15 24.66 8.01
-1 -13 -16 670.46 49.34
1 -13 -16 561.6 45
13 -1 -16 515.8 34.55
13 1 -16 608 38.83
13 1 -17 73.11 12.9
1 -13 -17 79.3 15.87
13 -1 -17 72.33 12.41
-1 -13 -17 89.65 17.72
-1 -13 -18 105.75 18.52
1 -13 -18 69.55 13.42
13 -1 -18 60.83 9.92
13 1 -18 83.13 13
1 -13 -19 91.94 14.72
13 1 -19 71.81 10.51
-1 -13 -19 91.54 14.61
1 -13 -20 130.87 14.33
-1 -13 -20 153.66 16.34
-13 2 0 283.13 32.91
2 13 0 220.68 25.14
-13 2 1 684.5 51.21
-2 13 1 731.97 55.96
-13 2 -1 689.26 49.61
2 13 -1 802.9 52.23
-2 13 -1 745.56 56.67
2 13 1 832.09 48.97
-2 13 2 476.43 47.34
2 13 2 301.96 29.84
-13 2 -2 377.74 39.1
-2 13 -2 371.32 44.32
2 13 -2 217.62 27.92
-13 2 2 381.97 40.23
2 13 3 312.98 32.3
13 2 3 255.22 21.75
-13 2 -3 168.7 25.52
-2 13 -3 227.67 34.37
13 2 -3 281.44 21.99
-2 13 3 196.69 20.02
2 13 -3 212.47 27.75
-2 13 3 203.5 30.8
-2 13 4 57.06 11.07
-2 13 -4 80.58 23.05
-2 13 4 102.49 25.02
2 13 -4 44.45 13.8
13 -2 4 60.67 10.19
13 2 4 52.65 9.29
-13 2 -4 67.53 16.97
13 2 -4 49.22 9.19
2 13 4 61.81 11.8
-13 2 -5 1709.73 86.78
13 -2 5 1740.46 55.37
13 2 5 2034.39 60.37
2 13 5 1907.56 64.53
2 13 -5 1698.41 90.02
-2 13 5 1669.89 60.81
13 -2 -5 1683.4 52.36
13 2 -5 1984.25 59.68
-2 13 -5 1355.15 86.83
13 -2 6 33.65 9.06
13 2 6 61.77 12.39
-13 2 -6 27.08 12.41
2 13 -6 40.73 13.57
13 2 -6 66.36 12.73
2 13 6 53 12.73
13 -2 -6 46.33 10.83
-2 13 6 29.07 8.76
-2 13 -6 7.87 19.7
13 2 7 775.07 40.23
-2 13 -7 754.95 72.92
2 13 7 760.67 43.92
2 13 -7 575.34 57.46
13 -2 -7 659.17 35.84
13 2 -7 764.34 40.87
-2 13 7 642.72 39.94
13 2 -8 165.01 19.98
-2 13 8 163.61 21.25
2 13 8 152.62 21.17
13 -2 -8 173.95 19.08
2 13 -8 105.89 24.71
-2 13 -8 172.68 37.72
2 13 9 134.44 20.41
-2 13 -9 126.84 34.32
13 -2 -9 131.3 17.16
13 2 -9 133.27 17.81
2 13 -9 175.77 35.79
-2 13 9 138.84 18.97
-2 13 -10 461.24 62.7
-2 13 10 449.79 38.53
2 13 -10 325.08 49.09
13 -2 -10 297.55 27.65
13 2 -10 390.03 32.69
2 13 10 369.47 35.44
-2 13 11 418.1 36.49
13 -2 -11 320.44 28.42
-2 13 -11 367.02 56.59
13 2 -11 314.45 28.39
2 13 11 451.5 39.24
-2 13 12 379.56 35.71
2 -13 -12 454.97 42.88
13 2 -12 378.09 33.88
2 -13 -13 21.94 13.05
-2 13 13 21.28 10.33
13 -2 -13 16.63 7.38
13 2 -13 20.24 8.61
2 -13 -14 13.68 10.21
-2 -13 -14 10.05 10.02
13 2 -14 10.27 6.55
13 -2 -14 5.87 6.08
2 -13 -15 473.8 41.81
13 -2 -15 464.23 33.11
13 2 -15 566.09 38.41
2 -13 -16 -2.81 7.04
-2 -13 -16 -8.4 9.96
13 -2 -16 0.98 4.14
13 2 -16 4.64 5.02
2 -13 -17 405.32 35.32
-2 -13 -17 522.58 41.12
13 2 -17 457.6 32.12
13 -2 -17 346.84 24.6
13 2 -18 14.8 6.24
2 -13 -18 26.71 8.83
-2 -13 -18 20.9 8.15
13 2 -19 8.74 4.36
2 -13 -19 14.71 6.67
-2 -13 -19 3.37 4.27
2 13 -19 2.88 4.48
-2 -13 -20 85.7 12.06
-3 13 0 402.73 44.28
-13 3 0 387.27 39.94
-13 3 1 799.4 57.51
-3 13 1 959.53 66.42
-13 3 -1 793.83 57
-3 13 -1 802.58 63.32
13 3 1 579.23 29.57
13 3 -1 589.82 31.27
-13 3 2 -15.43 12.46
3 13 -2 7.76 8.68
-3 13 -2 -1.93 10.12
-3 13 2 0.94 7.81
-13 3 -2 -4.34 8.33
13 3 2 6.42 4.25
13 3 -2 -9.31 5.08
-3 13 2 -2.65 6.11
-3 13 3 1.74 4.66
-13 3 -3 -7.47 9.29
-3 13 3 -2.57 10.34
13 3 3 0.97 4.65
13 3 -3 -1.99 4.11
3 13 -3 -9.34 10.47
13 -3 4 839.43 39.64
13 3 4 1141.77 44.49
-3 13 4 920.29 71.69
13 3 -4 1134.73 43.74
-3 13 -4 667.45 58
-13 3 -4 893.63 61.63
3 13 4 1103.22 47.35
3 13 -4 1261.9 72.42
-3 13 4 874.51 42.4
13 -3 5 195.93 20.38
13 3 5 150.33 17.64
-3 13 5 209.04 22.9
3 13 5 177.1 20.84
13 -3 -5 188.45 18.96
3 13 -5 237.56 34.55
13 3 -5 148.11 18.38
-13 3 -5 188.94 31.92
-3 13 -5 194.87 36.09
13 3 6 1315.52 49.52
13 -3 -6 1030.42 42.07
-13 3 -6 980.23 70.81
13 3 -6 1281.98 51.35
3 13 6 1226.07 54.92
3 13 -6 978.53 68.63
-3 13 6 1063.87 49.99
-3 13 -6 791.13 70.28
-3 13 7 -7.49 8.05
13 -3 -7 13.06 7.1
-3 13 -7 0.8 14.81
13 3 7 -2.16 8.46
3 13 -7 7.1 9.27
-13 3 -7 9.04 9.01
13 3 -7 -0.95 4.28
3 13 7 14.48 7.49
-3 13 8 197.39 21.76
13 3 -8 241.53 24.44
3 13 -8 186.54 32.61
-13 3 -8 193.01 35.24
-3 13 -8 198.5 40.03
13 -3 -8 217.72 20.73
3 13 8 242.56 26.5
13 -3 -9 222.78 23.66
-3 13 -9 201.64 45.35
-3 13 9 189.73 23.47
13 3 -9 145.63 20.48
3 13 9 139.59 21.96
13 3 -10 38 12.1
-3 13 -10 19.83 14.08
3 13 10 46.72 14.46
-3 13 10 34.18 10.66
13 -3 -10 22.43 8.44
13 -3 -11 375.15 30.3
-3 13 -11 507.94 67.05
3 13 11 485.98 41.45
13 3 -11 509.37 38.33
-3 13 11 581.23 42
-3 13 12 48.88 12.71
13 3 -12 55.98 13.25
3 -13 -12 69.02 16.33
13 -3 -12 35.34 8.89
-3 13 13 69.03 17.12
13 -3 -13 90.46 17.17
3 -13 -13 80.94 19.41
13 3 -13 53.52 12.81
13 3 -14 401.15 33.62
3 -13 -14 376.21 36.94
-3 -13 -14 455.96 44.18
13 -3 -14 335.01 27.5
13 -3 -15 33.8 9.59
3 -13 -15 40.93 12.73
13 3 -15 39.55 11.4
-3 -13 -15 38.19 11.92
-3 -13 -16 711.49 51.46
13 3 -16 654.66 40.55
3 -13 -16 567.31 43.07
3 -13 -17 45.94 13.05
-3 -13 -17 28.28 9.67
13 3 -17 41.94 11.07
3 -13 -18 163.84 20.49
-3 -13 -18 177.03 22.13
3 13 -18 154.01 16.53
13 3 -18 172.4 18.24
13 3 -19 8.04 3.84
3 -13 -19 20.83 7.61
-3 -13 -19 3.75 4.76
3 13 -19 10.78 5.97
-3 -13 -20 0.66 3.39
-13 4 0 1094.45 69.91
-4 13 0 1124.39 46.88
-4 13 1 58.88 10.27
-4 13 -1 67.52 11.33
-13 4 1 60.55 15.34
13 4 1 80.68 13.94
-4 13 1 83.14 22.72
-13 4 -1 52.54 13.07
-4 13 -1 90.05 22.87
13 4 -1 43.18 7.97
-13 4 -2 149.9 26.23
13 4 2 126.61 15.36
13 4 -2 121.77 14.84
-4 13 2 145.54 17.65
-13 4 2 167.09 28.81
-4 13 -2 189 34.54
13 4 3 262.01 21.12
-13 4 -3 203.43 29.25
-4 13 -3 175.3 29.41
-4 13 3 181.21 34.17
-4 13 3 207.9 20.95
13 4 -3 264.25 21.19
4 13 3 244.48 22.39
13 -4 4 548.37 30.39
13 4 4 466.28 28.25
-4 13 -4 465.39 49.55
-13 4 -4 523.3 51.86
13 4 -4 459.19 28.65
-4 13 4 532.44 33.91
4 13 4 455.29 30.96
-4 13 4 466.13 49
13 -4 5 1001.84 43.27
-4 13 -5 881.28 71.52
-13 4 -5 1044.24 72.18
13 4 5 1280.19 48.6
-4 13 5 1047.81 48.67
4 13 5 1281.23 53.39
13 4 -5 1233.16 49.18
13 4 6 476.33 31.99
4 13 6 470.13 36.27
13 4 -6 457.78 32.58
-4 13 6 554.93 37.1
-4 13 -6 611.88 65.19
-13 4 -6 514.68 55.2
-4 13 -7 579.16 65.54
13 4 7 702.95 37.9
13 4 -7 689.22 39.92
4 13 7 673.68 43.91
-4 13 7 563.29 39.28
-13 4 -8 10.08 11.77
4 13 8 -1.17 6.07
13 4 -8 6.89 6.55
-4 13 -8 18.58 14.21
-4 13 8 -3.1 7.62
4 13 9 76.64 15.22
-4 13 9 79.41 14.07
-13 4 -9 65.14 18.9
13 4 -9 77.37 13.08
-4 13 -9 85.8 26.81
-4 13 10 537.73 39.64
4 13 10 496.35 39.4
-4 13 -10 526.75 70.13
13 4 -10 514.66 36.87
-4 13 -11 -6.41 19.6
-4 13 11 6 8.83
13 4 -11 -7.69 7.7
4 -13 -11 -22.19 11.4
4 -13 -12 295.3 35.37
-4 13 12 226.69 27.86
13 4 -12 215.85 25.97
13 4 -13 146.28 21.28
4 -13 -13 137.02 22.01
-4 13 13 132.56 20.52
13 4 -14 62.97 13.81
-4 -13 -14 62.74 15.63
4 -13 -14 74.73 17.25
4 -13 -15 423.69 37.71
-4 -13 -15 537.04 45.87
13 4 -15 469.89 36.63
4 -13 -16 274.84 30.13
-4 -13 -16 244.43 30.05
13 4 -16 236.24 24.19
4 -13 -17 258.85 26.08
-4 -13 -17 368.91 34.48
13 4 -17 327.01 27.24
4 -13 -18 49.25 10.78
13 4 -18 39.25 9.03
-4 -13 -18 48.42 12.34
4 13 -18 46.49 9.48
4 13 -19 38.52 7.34
4 -13 -19 32.74 7.76
-4 -13 -19 28.87 8.36
13 4 -19 31.78 6.45
-5 13 0 393.23 27.21
-13 5 0 399.06 42.33
13 5 0 298.41 20.96
-13 5 1 917.12 68.05
-13 5 -1 882.03 65.48
-5 13 -1 1026.82 74.99
13 5 1 820.33 36.4
13 5 -1 840.46 38.06
-5 13 1 972.76 72.58
-5 13 1 879.3 41.33
-5 13 -1 916.18 42.62
13 5 -2 183.41 17.71
-13 5 2 205.4 32.61
-5 13 2 190.21 19.85
-13 5 -2 201.27 31.5
-5 13 2 127.17 24.03
-5 13 -2 235.73 38.47
13 5 2 166.3 17.79
-5 13 3 117.1 24.68
-5 13 -3 136.2 32.13
13 5 3 89.73 12.77
13 5 -3 82.24 11.79
5 13 3 104.73 14.53
-5 13 3 102.95 14.6
-13 5 -3 108.08 22.97
13 -5 4 336.96 24.34
13 5 4 402.3 26.21
-5 13 -4 330.51 45.73
-13 5 -4 317.22 40.13
13 5 -4 371.79 27.01
5 13 4 372.79 29.17
-5 13 4 348.05 26.88
-5 13 4 299.3 42.8
13 5 5 1225.85 48.31
13 5 -5 1257.61 49.03
-13 5 -5 1298.09 86.77
-5 13 5 1405.36 55.87
5 13 5 1257.3 54.49
13 5 6 487.34 31.78
5 13 6 547.24 37.99
-5 13 6 392.09 30.64
13 5 -6 505.43 33.55
-5 13 -6 407.96 52.8
-13 5 -6 366.04 45.08
-5 13 -7 366.1 53.99
-13 5 -7 308.86 46.65
13 5 7 325.37 26.15
-5 13 7 350.49 29.69
13 5 -7 292.89 26.77
5 13 7 323.59 31.43
-5 13 -8 132.7 32.42
-5 13 8 154.67 19.97
-13 5 -8 159.83 33.16
13 5 -8 176.3 20.64
5 13 8 166.32 21.48
-5 13 9 312.48 29.13
13 5 -9 382.16 30.88
5 13 9 373.85 34.13
-5 13 -9 322.63 56.52
-13 5 -9 322.89 49.55
-5 13 -10 53.67 25.29
5 13 10 47.26 11.83
-5 13 10 33.08 10.04
13 5 -10 47.17 11.06
-13 5 -10 34.04 15.44
13 5 -11 376.99 33.96
-5 13 -11 374 60.92
5 -13 -11 330.1 34.14
-5 13 11 423.75 37.01
5 -13 -12 148.96 23.03
-5 13 12 165.57 22.66
13 5 -12 161.79 22.29
-5 13 13 10.99 9.46
13 5 -13 15.25 9.95
5 -13 -14 289.53 31.44
13 5 -14 289.67 29.65
-5 -13 -14 312.72 36.95
5 -13 -15 273.76 30.18
-5 -13 -15 276.73 32.94
13 5 -15 268.46 27.23
5 -13 -16 223.26 25.51
-5 -13 -16 283.6 31.66
13 5 -16 255.83 26.18
5 13 -17 236.93 22.52
5 -13 -17 277.51 26.9
-5 -13 -17 265.59 28.35
13 5 -17 251.13 23.67
5 13 -18 98.42 12.95
5 -13 -18 102.15 14.78
-5 -13 -18 117.08 17.61
13 5 -18 113.09 14.74
5 -13 -19 4.92 3.94
-5 -13 -19 4.17 3.78
13 5 -19 3.88 2.95
5 13 -19 -4.63 4.1
-6 13 0 2189.01 67.87
-13 6 0 2201.21 106.69
-6 13 0 2479.85 118.22
13 6 0 2336.1 61.84
-13 6 1 213.97 35.02
-6 13 1 190.41 20.26
-6 13 1 230.46 37.62
-13 6 -1 211.65 32.39
-6 13 -1 209.29 33.68
13 6 -1 159.85 16.44
13 6 1 152.02 15.78
-6 13 2 253.43 40.31
-6 13 -2 219.45 34.92
13 6 2 182.18 19.18
13 6 -2 210.42 20.18
-13 6 2 209.46 34.69
-13 6 -2 200.04 33.98
-6 13 2 214.21 21.41
6 13 3 252.77 24.54
13 6 3 246.78 20.67
-13 6 -3 276.08 39.12
-6 13 -3 280.8 40.76
13 6 -3 258.42 21.7
-6 13 3 274.51 24.29
-6 13 3 295.87 42.91
13 6 4 657.15 35.25
-13 6 -4 846.73 68.15
-6 13 -4 975.92 78.31
13 6 -4 672.64 36.01
-6 13 4 779.11 42.98
6 13 4 704.27 40.22
-6 13 4 976.65 81.91
13 6 5 221.3 20.32
6 13 5 232.68 24.18
13 6 -5 209.91 20.92
-6 13 -5 198.72 37.64
-13 6 -5 186.97 33.52
-6 13 5 198.98 21.38
13 6 -6 1101.54 48.86
13 6 6 1106.88 48.29
-13 6 -6 1208.64 88.55
6 13 6 1153.96 56.32
-6 13 6 1277.15 55.01
-6 13 -6 1375.49 100.07
-13 6 -7 91.93 26.95
6 13 7 78.8 15.37
13 6 7 71.59 13.41
13 6 -7 81.05 14.35
-6 13 -7 72.5 23.07
6 13 -7 74.65 12.02
-6 13 7 68.67 13.09
6 13 -8 61.33 12.46
-6 13 -8 45.78 23.92
-13 6 -8 24.19 15.82
6 13 8 59.19 15.05
13 6 -8 53.87 13.1
-6 13 8 40.54 13.1
-13 6 -9 20.3 16.29
-6 13 -9 41.13 21.4
13 6 -9 36.84 8.56
-6 13 9 21.45 5.79
6 13 -9 38.25 10.34
6 13 9 44.24 13.6
13 6 -10 634.24 42.39
-6 13 10 565.97 40.97
-6 13 -10 544.7 72.62
6 -13 -10 398.89 34.95
-13 6 -10 491.43 63.01
-13 6 -11 131.97 31.82
13 6 -11 186.57 24.14
6 -13 -11 160 23.65
-6 13 11 204.88 25.04
-6 13 12 294.25 29.8
13 6 -12 338.85 32.29
-6 13 13 49.93 13.4
6 -13 -13 50.72 12.63
13 6 -13 47.91 12.62
-6 -13 -14 15.27 10.98
13 6 -14 7.87 6.26
6 -13 -15 121.32 18.89
-6 -13 -15 157.83 25.19
13 6 -15 152.74 21.15
6 13 -15 136.69 18.62
6 -13 -16 401.94 32.34
6 13 -16 365.89 28.02
-6 -13 -16 405.85 37.63
13 6 -16 375.9 30.83
6 13 -17 56.34 11.65
6 -13 -17 48.64 11.78
13 6 -17 71.49 12.68
-6 -13 -17 58.98 13.62
6 -13 -18 67.34 11.84
-6 -13 -18 62.81 13.36
13 6 -18 55.4 10.35
6 13 -18 65.06 11.05
6 13 -19 41.83 8.13
-6 -13 -19 46.2 10.13
13 6 -19 37.97 7.37
-7 13 0 25.92 6.12
-13 7 0 23.15 11.54
-7 13 0 20.36 12.02
13 7 0 26.47 5.11
-7 13 1 1705.15 60.56
-13 7 1 1794.36 102.99
-7 13 1 1860.6 105.25
-13 7 -1 1706.53 98.21
-7 13 -1 1756.56 104.47
13 7 1 1759.29 53.92
13 7 -1 1758.66 56.45
-13 7 2 197.88 36.13
-13 7 -2 212.11 34.6
-7 13 -2 215.56 36.43
13 7 2 153.23 15.91
13 7 -2 175.53 17.35
-7 13 2 226.92 39.25
-7 13 2 182.49 20.48
-7 13 3 22.28 9.15
-13 7 3 23.25 17.75
-13 7 -3 28.92 14.65
-7 13 3 15.82 13.91
13 7 3 8 5.96
13 7 -3 16.51 6.78
7 13 3 6.68 4.73
-7 13 -3 27.01 13.44
-7 13 -4 51.28 23.26
-7 13 4 37.9 11.57
-13 7 -4 50.31 20.07
-7 13 4 48.22 21.8
13 7 -4 38.06 9.7
13 7 4 36.77 9.32
7 13 4 42.5 11.51
13 7 5 798.26 40.65
13 7 -5 834.43 41.83
-7 13 -5 1028.43 85.35
-13 7 -5 931.89 77
7 13 5 925.41 48.47
-7 13 5 960.76 47.5
7 13 -6 8.35 3.81
13 7 6 14.85 7.25
7 13 6 3.27 6.43
-7 13 -6 11.14 16.48
-13 7 -6 9.36 11.93
13 7 -6 14.39 6.27
-7 13 6 28.21 8.9
-13 7 -7 220.4 43.58
13 7 7 178.95 21.43
7 13 -7 206.92 20.02
13 7 -7 144.64 20.23
7 13 7 184.81 25.91
-7 13 7 234.59 25.84
-7 13 -7 263.66 51.08
-7 13 -8 21.29 18.41
7 13 8 5.59 7.66
-13 7 -8 10.11 12.68
-7 13 8 5.67 6.01
13 7 -8 10.64 7.34
7 13 -8 7.83 5.66
-7 13 9 334.25 29.4
7 13 -9 385.29 29.29
-7 13 -9 297.97 53.46
-13 7 -9 233.73 44.61
13 7 -9 417.74 33.15
-7 13 -10 52.08 21.72
-7 13 10 39.06 11.88
-13 7 -10 50.62 24.82
13 7 -10 48.12 12.41
7 13 -10 35.63 8.95
7 -13 -11 1029.61 55.66
13 7 -11 1144.26 56.07
-7 13 11 1036.17 54.64
7 13 -11 1143.54 52.66
-7 13 12 22.67 10.3
7 -13 -12 43.35 12.24
13 7 -12 36.31 11.23
7 13 -12 36.62 11.28
-7 13 13 154.86 21.29
7 -13 -13 150.24 22.06
13 7 -13 181.88 23.52
7 13 -13 185.42 21.34
7 -13 -14 124.46 19.23
7 13 -14 124.67 17.52
-7 -13 -14 157.04 26
13 7 -14 146.27 20.72
7 -13 -15 150.41 20.21
-7 -13 -15 172.32 26.58
13 7 -15 145.22 20.83
7 13 -15 151.75 19.59
7 -13 -16 23.72 8.42
13 7 -16 30.26 9.62
-7 -13 -16 15.1 7.05
7 13 -16 22.51 7.75
7 -13 -17 163.49 18.2
13 7 -17 155.44 18.52
-7 -13 -17 172.93 22.22
7 13 -17 148.52 17.12
13 7 -18 14.36 5.6
-7 -13 -18 12.95 7.34
7 13 -18 16.26 6.4
-7 -13 -19 27.23 7.39
13 7 -19 30.28 6.85
-8 13 0 2235.72 70.88
-13 8 0 2089.56 112.42
-8 13 0 2361.47 122.09
13 8 0 2199.26 61.07
-8 13 1 25.67 7.7
-13 8 1 12.31 8.44
-8 13 1 20.06 9.53
13 8 1 34.88 7.16
13 8 -1 31.37 7.12
-13 8 -1 23.5 11.47
-8 13 -1 22.56 12.95
-13 8 2 711.76 67.25
-8 13 2 713.02 69.38
-13 8 -2 634.9 64.38
-8 13 -2 714.16 71.32
13 8 2 810.6 36.16
-13 8 2 825.25 41.09
13 8 -2 799.85 38.51
-8 13 2 704.64 39.9
-8 13 3 11.67 8.15
-13 8 3 46.7 20.23
-8 13 3 36.42 21.07
13 8 3 7.89 7.7
-13 8 -3 24.66 17.13
13 8 -3 24.34 9.29
-8 13 -3 17.04 15.83
8 13 3 18.38 8.07
-13 8 -4 172.93 33.01
-8 13 -4 180.74 35.4
-8 13 4 165.67 36.05
13 8 4 159.84 17.26
8 13 4 179.39 20.22
13 8 -4 144.25 17.01
-8 13 4 144.31 18.59
-8 13 5 20.79 8.74
8 13 5 13.83 7.65
-8 13 -5 28.33 17.9
13 8 5 5.18 5.66
-13 8 -5 12.63 11.04
8 13 -5 4.89 3.44
13 8 -5 9 6.66
13 8 6 308.31 25.71
8 13 6 332.02 30.88
-13 8 -6 335.9 50.34
13 8 -6 298.28 26.62
8 13 -6 297.56 24.02
-8 13 -6 355.99 53.87
-8 13 6 344.98 31.34
13 8 7 13.47 6.43
13 8 -7 19.44 7.88
-8 13 -7 20.02 12.31
8 13 -7 26.58 8.36
-13 8 -7 28.98 15.29
-8 13 7 27.45 8.48
-8 13 -8 19.47 16.83
-13 8 -8 19.31 17.14
8 13 -8 53.36 11.1
13 8 -8 44.97 12.49
-8 13 8 26.39 9.73
-8 13 9 -0.18 6.93
8 13 -9 5.77 5.8
-8 13 -9 8.87 14.46
-13 8 -9 6.41 12.67
13 8 -9 0.39 7.15
-8 13 -10 1071.93 104.17
-13 8 -10 979.79 93.22
-8 13 10 1125.19 55.83
8 13 -10 1195.05 53.89
13 8 -10 1315.94 58.99
8 13 -11 2.82 5.6
-8 13 11 -17.92 10.79
13 8 -11 -0.02 7.51
8 13 -12 872.07 47.25
-8 13 12 799.31 47.55
13 8 -12 928.79 50.51
8 13 -13 3.89 6.03
13 8 -13 1.99 6.73
8 13 -14 11.61 7.79
-8 -13 -14 -1.49 8.74
13 8 -14 20.37 10.62
8 13 -15 6.36 5.35
-8 -13 -15 16.79 10.07
13 8 -15 8.12 6.02
-8 -13 -16 138.45 21.04
13 8 -16 128.24 17.28
8 13 -16 112.7 16.13
-8 -13 -17 2.17 4.88
13 8 -17 3.95 3.92
8 13 -17 14.81 6.86
8 13 -18 1.7 3.03
13 8 -18 2.29 3.69
-8 -13 -18 6.52 6.11
13 8 -19 5.76 2.79
-9 13 0 15.89 8.05
-13 9 0 12.52 12.51
13 9 0 15.27 4.32
-9 13 0 6.79 12.61
-9 13 1 1433.7 57.49
-13 9 -1 1359.78 93.97
-9 13 -1 1372.25 96.38
13 9 1 1528.92 50.74
13 9 -1 1566.07 53
-13 9 1 1413.57 97.67
-9 13 1 1416.86 98.53
-9 13 2 14.85 7.36
-13 9 2 11.26 6.19
-13 9 2 24.83 15.74
-9 13 2 25.27 16.48
-9 13 -2 20.78 13.37
13 9 2 4.9 4.19
13 9 -2 12.43 5.69
-13 9 -2 23.44 16.59
-13 9 3 101.86 15.06
-9 13 3 98.79 15.72
13 9 3 95.55 13.86
-13 9 3 92.11 25.47
-9 13 3 99.37 29.49
13 9 -3 95.39 13.26
-13 9 -3 112.01 27.08
-9 13 -3 87.19 26.1
-9 13 4 31.52 10.69
-9 13 -4 30.18 14.69
-13 9 4 29.73 19.98
-9 13 4 33.19 20.3
13 9 4 7.97 5.6
13 9 -4 20 7.46
9 13 -4 11 5.29
-13 9 -4 38.12 18.59
9 13 4 25.78 9.89
-9 13 5 132.75 33.12
13 9 5 166.87 18.82
-9 13 -5 139.55 34.51
-13 9 -5 92.48 27.04
13 9 -5 159.83 18.47
9 13 -5 159.48 17.55
-9 13 5 146.56 19.49
13 9 6 1.57 6.25
-13 9 -6 17.02 17.85
9 13 -6 3.88 4.13
13 9 -6 -1.08 5.33
-9 13 6 -0.35 6.26
13 9 7 37.56 11.34
-9 13 -7 47.41 24.27
-13 9 -7 33.78 17.99
9 13 -7 31.18 8.91
-9 13 7 49.15 13.14
13 9 -7 39.01 10.58
-9 13 -8 20.41 13.11
-13 9 -8 40.79 22.69
13 9 -8 38.47 10.87
9 13 -8 22.97 8.15
-9 13 8 33.73 10.41
-13 9 -9 415.43 62.16
-9 13 -9 448.75 65
13 9 -9 537.55 37.87
9 13 -9 518.95 33.68
-9 13 9 491.79 36.43
13 9 -10 -1.84 6.76
9 13 -10 6.87 5.78
-9 13 10 7.32 7.11
13 9 -11 1139.33 57.33
9 13 -11 1083.5 51.45
9 13 -12 20.58 7.36
13 9 -12 -2.94 8.25
-9 -13 -13 345.4 37.59
13 9 -13 321.28 30.07
9 13 -13 281.44 27.26
-9 -13 -14 4.96 7.72
13 9 -14 15.77 7.01
9 13 -14 12.16 6.95
13 9 -15 16.21 7.62
-9 -13 -15 21.24 10.14
9 13 -15 21.19 9.22
-9 -13 -16 22.31 10.98
13 9 -16 15.7 7.85
9 13 -16 21.48 6.9
-9 -13 -17 10.61 6.1
13 9 -17 12.95 6.73
9 13 -17 13.77 5.67
-9 -13 -18 11.67 5.92
13 9 -18 7.04 3.88
9 13 -18 15.29 5.33
-10 13 0 896.83 48.02
-13 10 0 859.21 75.71
-10 13 0 860.23 79.93
13 10 0 988.62 40.76
-10 13 1 82.25 17.01
-13 10 1 78.59 27.35
-10 13 1 94.02 27.25
13 10 1 41.83 10.15
13 10 -1 57.86 10.77
-13 10 -1 78.35 26.43
-10 13 -1 87.4 29.75
-13 10 2 290.79 46.9
-10 13 2 302.87 48.09
-13 10 2 326.18 26.98
13 10 2 297.18 23.15
-13 10 -2 293.28 44.96
-10 13 -2 270.46 44.92
10 13 -2 306.94 23.27
13 10 -2 318.16 24.55
-10 13 2 302.54 27.32
-10 13 3 17.5 8.2
-13 10 3 17.33 7.65
-13 10 3 2.69 16.1
-10 13 3 12.34 12.49
13 10 3 20.79 9.01
-10 13 -3 20.62 16.33
13 10 -3 12.31 5.66
10 13 -3 18.43 7.26
-13 10 -3 11.48 10.34
-10 13 4 27.71 8.19
-13 10 -4 40.86 17.62
-10 13 -4 35.39 18.46
-10 13 4 34.37 21.87
13 10 4 15.53 6.28
13 10 -4 20.02 8.45
10 13 -4 25.27 8.05
-10 13 5 180.34 22.77
-13 10 5 149.18 37.89
13 10 5 136.29 17.61
-10 13 -5 193.02 38.4
-13 10 -5 160.53 34.88
10 13 -5 164.06 16.99
13 10 -5 131.18 18.23
-10 13 5 232.2 47.74
-10 13 6 37.52 16.62
13 10 6 46.84 10.93
13 10 -6 45.36 10.43
-10 13 -6 18.27 16.82
-13 10 -6 26 19.33
10 13 -6 50.55 10.52
-10 13 6 47.36 12.6
13 10 7 4.37 7.67
-10 13 -7 14.52 19.45
10 13 -7 3.14 5.41
-13 10 -7 -4.38 14.74
13 10 -7 11.07 7.4
-10 13 7 2.21 5.84
-10 13 -8 46.04 19.9
-13 10 -8 60.12 25.61
10 13 -8 45.14 11.97
-10 13 8 69.07 15.02
13 10 -8 48.2 11.97
13 10 -9 31.07 10.87
10 13 -9 20.68 8.8
-10 13 9 46.91 13.25
10 13 -10 634.27 38.7
13 10 -10 692.85 42.15
13 10 -11 128.84 19.17
10 13 -11 113.39 18.19
-13 -10 -12 489.97 39.53
13 10 -12 505.74 36.9
10 13 -12 506.49 34.95
-13 -10 -13 16.89 8.22
10 13 -13 8.2 6.89
13 10 -13 11.25 8.5
-10 -13 -13 17.28 11.05
10 13 -14 15.59 6.45
13 10 -14 17.23 8.42
-10 -13 -14 17.46 9.84
13 10 -15 84.26 14.66
10 13 -15 83.55 13.19
-10 -13 -15 87.76 17.41
-10 -13 -16 13.14 5.72
13 10 -16 23.54 8.91
10 13 -16 23.71 8.01
-10 -13 -17 57.52 12.45
10 13 -17 68.63 10.66
13 10 -17 74.67 11.32
13 10 -18 21.68 5.4
10 13 -18 20.9 5.6
-11 13 0 207.75 42.74
13 11 0 108.56 14.59
-13 11 0 194.6 39.9
-11 13 0 193.32 25.96
13 11 1 149.1 16.53
11 13 -1 155.77 16.31
13 11 -1 144.06 16.3
-13 11 1 110.53 26.65
-11 13 1 125.99 17.7
-11 13 1 98.35 29.74
-13 11 -1 99.93 27.81
-13 11 1 128.43 18.31
-11 13 -1 112.54 29
-13 11 -2 57.8 36.28
-11 13 2 28.11 10.56
-11 13 -2 27.33 18.74
-13 11 2 26.4 16.67
-11 13 2 28.11 19.04
13 11 2 18.76 8.08
11 13 -2 22.59 6.4
13 11 -2 20 7.82
-13 11 2 28.05 9.74
-11 13 3 67.39 14.26
-13 11 3 88.38 14.63
-13 11 3 77.86 27.21
-11 13 3 60.07 25.95
13 11 3 65.64 11.21
11 13 -3 67.45 10.99
13 11 -3 62.84 11.65
-13 11 -3 65.46 27.28
-11 13 -3 68.21 25.37
-13 11 4 252.06 46.98
-11 13 4 271.15 48.46
-11 13 4 299.63 27.43
13 11 4 325.61 24.74
13 11 -4 306.82 24.75
-13 11 -4 302.33 48.86
-11 13 -4 319.32 50.62
11 13 -4 327.78 23.82
-13 11 4 308.24 27.17
-11 13 5 19.81 9.77
-13 11 5 31.66 20.71
-11 13 5 20.55 16.9
13 11 5 5.1 6.55
-11 13 -5 11.3 16.41
-13 11 -5 20.03 18.36
13 11 -5 16.78 7.36
11 13 -5 20.67 7.49
13 11 6 411.4 29.26
13 11 -6 391.79 28.81
11 13 -6 391.15 28.47
-11 13 -6 406.27 59.46
-11 13 6 409.87 33.03
-13 11 -6 366.27 56.65
-13 11 6 355.3 58.43
-11 13 6 360.01 59.06
-11 13 7 5.24 12.87
-11 13 -7 1.8 19.15
13 11 -7 23.5 10.03
11 13 -7 26.39 9.66
-13 11 -7 20.59 15.32
-11 13 7 23.13 8.7
-13 11 -8 8.74 11.57
11 13 -8 14.42 4.97
-11 13 8 2.9 4.63
13 11 -8 13.5 5.87
13 11 -9 123.5 18
11 13 -9 118.64 16.89
13 11 -10 166.73 20.68
11 13 -10 144.21 19.13
13 11 -11 206.25 24.03
11 13 -11 207.19 22.73
13 11 -12 90.91 16.43
11 13 -12 93.22 15.35
-13 -11 -12 88.09 18.08
13 11 -13 38.11 10.81
-13 -11 -13 42.49 11.39
11 13 -13 51.96 11.59
-11 -13 -13 63.16 15.79
13 11 -14 128.64 17.81
-11 -13 -14 141.11 20.69
11 13 -14 115.85 16.31
-13 -11 -14 105.07 15.91
13 11 -15 8.49 4.65
11 13 -15 7.53 5.55
-11 -13 -15 5.3 5.9
-11 -13 -16 229.78 22.91
13 11 -16 267.68 22.7
11 13 -16 256.29 20.75
11 13 -17 12.73 4.62
-11 -13 -17 5 4.47
13 11 -17 12.84 5.15
13 11 -18 50.17 7.92
-12 13 0 -6.73 6.41
-13 12 0 6.41 5.91
12 13 0 -4.44 5.09
13 12 0 -1.51 4.87
-13 12 0 -10.32 16.94
-12 13 0 6.51 11.79
-13 12 1 128.1 19.06
-12 13 1 131.34 18.81
12 13 1 85.06 11.8
12 13 -1 110.04 13.29
13 12 1 70.89 11.74
-13 12 1 125.47 32.09
-12 13 1 112.74 31.52
13 12 -1 91.12 11.62
-13 12 -1 108.4 30.63
-12 13 -1 128.9 34.51
-12 13 2 16.93 8.55
-13 12 2 23.04 8.38
13 12 2 23.61 7.8
-13 12 2 31.1 14.76
-12 13 2 27.21 15.66
12 13 -2 27.6 7.61
13 12 -2 24.31 7.8
-13 12 -2 15.35 15.01
-12 13 -2 2.74 12.5
-13 12 -3 111.59 31.2
-12 13 -3 130.87 34.1
13 12 3 190.32 19.64
-13 12 3 132.41 32.15
-12 13 3 124.17 33.08
12 13 -3 216.42 20.41
13 12 -3 205.13 20.38
-12 13 3 145.06 21.14
-13 12 3 163.84 20.72
-12 13 4 8.68 4.98
-13 12 4 14.26 6.85
-12 13 -4 3.51 12.09
-13 12 -4 49.07 22.82
-13 12 4 34.79 17.46
13 12 4 11.6 5.81
-12 13 4 27.09 21.69
12 13 -4 14.14 5.58
13 12 -4 15.55 5.8
-12 13 5 983.58 96.56
13 12 5 1167.63 48.03
13 12 -5 1163.18 49.3
12 13 -5 1196.24 48.68
-13 12 -5 990.21 92.51
-12 13 -5 1077.87 96.25
-12 13 5 1123.97 54.69
-13 12 5 1166.02 53.52
-13 12 5 1047.48 97.37
-13 12 6 7.13 17.24
-12 13 6 6.41 10.39
13 12 6 13.93 9.21
-12 13 -6 5.93 15.49
-13 12 -6 1.18 16.75
12 13 -6 4.55 6.18
13 12 -6 14.25 7.22
-12 13 6 3.06 5.43
13 12 -7 484.14 32.26
12 13 -7 455.07 32.2
-12 13 7 516.75 36.54
13 12 -8 9.49 6.49
12 13 -8 10.26 7.69
13 12 -9 32.94 9.82
12 13 -9 26.3 9.14
12 13 -10 19.58 7.4
13 12 -10 27.88 8.91
13 12 -11 167.95 20.1
12 13 -11 184.49 21.85
12 13 -12 14.32 6.12
-13 -12 -12 18 8.95
13 12 -12 12.71 6.53
-13 -12 -13 -1.38 6.16
13 12 -13 10.17 7.46
12 13 -13 3.59 4.19
-12 -13 -13 8.8 7.66
-13 -12 -14 2.08 4.38
13 12 -14 4.97 5.81
-12 -13 -14 7.16 6.71
12 13 -14 1.03 3.84
-12 -13 -15 409.49 30.84
13 12 -15 508.92 30.6
12 13 -15 496.17 29.99
12 13 -16 2.66 3.73
-12 -13 -16 -0.56 3.59
13 12 -16 2.27 3.67
13 12 -17 312.86 19.74
12 13 -17 308.58 19.4
-13 13 0 241.35 26.24
13 13 0 258.03 20.6
-13 13 0 196.4 42.78
-13 13 1 -5.19 6.07
-13 13 -1 0.62 14.63
13 13 1 3.37 4.43
13 13 -1 -1.25 4.59
-13 13 1 -2.17 12.73
-13 13 2 18.6 9.11
13 13 2 30.31 8.27
-13 13 2 23.62 13.68
13 13 -2 38 9.66
-13 13 -2 45.88 27.49
-13 13 -3 -9.94 15.75
-13 13 3 -3.96 6.32
13 13 3 -1.2 6.11
-13 13 3 9.81 17.17
13 13 -3 -5.11 4.95
-13 13 4 634.33 76.8
13 13 4 914.26 40.84
13 13 -4 970.29 43.61
-13 13 -4 682.2 78.33
-13 13 4 807.58 47.16
-13 13 5 -8.62 9.6
-13 13 5 9.78 13.22
-13 13 -5 -2.72 16.98
13 13 -5 -9.74 7.58
-13 13 6 1336.8 58.82
13 13 -6 1324.17 52.7
13 13 -7 -0.67 6.49
13 13 -8 91.9 14.63
13 13 -9 -1.07 4.49
13 13 -10 64.84 11.6
13 13 -11 -3.57 6.5
-13 -13 -12 47.68 13.23
13 13 -12 39.92 10.28
13 13 -13 4.82 5.55
-13 -13 -13 -8.62 6.22
-13 -13 -14 290.15 26.09
13 13 -14 347.18 25.12
13 13 -15 -2.58 3.56
13 13 -16 632.06 28.6
14 0 0 2325.18 60.44
0 14 0 2189.96 62.7
0 14 1 139.44 24.23
14 0 1 169.02 18.86
14 0 -1 190.59 18.18
0 14 -1 162.83 26.86
0 14 1 181.78 18.56
0 14 -1 189.05 19.15
0 14 2 183.6 26.7
14 0 2 211.37 18.66
14 0 -2 233.19 19.77
0 14 -2 188.31 28.14
0 14 2 221.08 20.46
0 14 -2 206.62 18.81
0 14 3 533.87 47.47
14 0 3 714.79 36.6
14 0 -3 719.86 35.46
0 14 -3 591.51 52.91
0 14 3 753.34 39.25
0 14 -3 686.26 34.86
14 0 4 612.29 33.88
0 14 -4 540.3 31.47
14 0 -4 591.23 32.7
0 14 4 592.04 36.57
0 14 -4 521.82 51.7
0 14 -5 590.4 32.28
0 14 -5 533.71 54.08
14 0 5 655.14 35.61
0 14 5 634.33 38.57
14 0 -5 650.95 34.64
14 0 6 1641.29 59.39
0 14 6 1619.15 63.74
14 0 -6 1692.53 57.86
14 0 7 278.02 25.64
0 14 -7 212.29 36.13
14 0 -7 270.24 24.02
0 14 7 272.27 27.32
0 14 -8 0.7 10.1
14 0 -8 4.79 5.97
0 14 8 8.34 7.17
14 0 -9 165.49 20.37
0 14 9 176.91 23.49
0 14 -9 158.89 34.28
0 14 -10 994.9 87.25
14 0 -10 1113.14 53.33
0 14 10 1131.7 59.26
0 14 -11 213.53 44.46
14 0 -11 278 29
0 14 11 251.14 29.31
14 0 -12 379.29 32.27
0 14 12 355.37 35.25
14 0 -13 427.96 34.09
0 -14 -13 478.53 44.83
0 -14 -14 126.76 23.5
14 0 -14 110.17 17.23
14 0 -15 123.26 16.94
0 -14 -15 124.32 22.19
0 -14 -16 612.58 45.21
14 0 -16 517.24 33.3
0 -14 -17 211.82 25.57
14 0 -17 162.61 17.4
0 -14 -18 34.82 10.32
14 0 -18 20.87 6.35
0 -14 -19 95.8 14.19
-1 14 0 144.12 25.84
14 -1 0 183.31 18.85
14 1 0 146.86 17.06
1 14 0 167.26 27.06
-1 14 0 199 22.27
-1 14 1 622.52 52.04
1 14 1 872.93 55.52
14 -1 1 704.19 33.3
14 1 1 782.43 36.02
-1 14 -1 564.63 47.9
14 -1 -1 766.17 34.95
14 1 -1 831.13 36.94
1 14 -1 814.78 55.48
-14 1 1 713.16 50.02
1 14 1 727.74 38.31
-1 14 1 686.71 35.94
-1 14 -1 721.52 36.59
-1 14 -2 450.66 30.33
-1 14 2 412.13 43.7
1 14 2 405.49 38.34
14 -1 2 498.9 28.37
14 1 2 419.83 26.47
14 -1 -2 472.9 29.53
14 1 -2 405.69 27.44
-1 14 -2 387.95 42.89
1 14 -2 283.32 34.27
1 14 2 394.06 28.83
-1 14 2 498.59 32.3
-14 1 2 476.96 43.36
-1 14 3 51.9 11.29
-1 14 -3 40.4 9.4
-1 14 -3 33.69 13.26
-1 14 3 35.3 12.97
14 -1 3 40.85 10.13
14 1 3 55.23 10.1
1 14 3 58 15.65
14 -1 -3 51.35 9.78
1 14 -3 51.78 16.9
14 1 -3 63.68 10.86
1 14 3 79.1 13.72
-1 14 4 404.62 44.01
-1 14 -4 516.56 31.29
1 14 -4 456.57 47.48
1 14 4 569.99 35.13
14 -1 4 528.02 31.49
14 1 4 568.45 32.09
1 14 4 604.63 48.98
14 -1 -4 530.29 30.53
14 1 -4 528.3 31.15
-1 14 4 546.62 34.86
-1 14 -4 585.07 56.43
-1 14 5 1484.27 58.96
-1 14 -5 1426.79 52.54
-1 14 -5 1660.76 98.51
14 1 5 1716.38 57.72
1 14 -5 1386.21 86.52
1 14 5 1693.11 61.99
14 -1 -5 1487.49 52.06
14 1 -5 1701.41 57.55
14 -1 5 1439 53.54
-1 14 5 1149.04 77.14
14 -1 6 292.94 24.78
14 1 6 364.95 27.61
-1 14 6 290.22 26.34
1 14 -6 289.79 41.02
-1 14 -6 345.46 48.31
14 -1 -6 306.18 23.98
14 1 -6 341.94 26.68
1 14 6 328.33 27.65
14 1 7 660.35 39.39
-1 14 -7 694.39 69.65
1 14 -7 519.84 58.94
14 -1 -7 623.96 35.98
14 1 -7 660.28 37.88
1 14 7 658.43 41.78
-1 14 7 580.35 39.61
-1 14 -8 217.48 40.56
14 -1 -8 204.98 21.31
14 1 -8 198.18 21.7
1 14 8 220.44 25.67
-1 14 8 204.64 24.19
1 14 -8 216.62 40.49
-1 14 -9 348.55 53.9
1 14 -9 342.55 47.9
14 -1 -9 363.82 29.6
14 1 -9 361.64 30.2
-1 14 9 339.65 31.96
1 14 9 343.97 33.47
-1 14 -10 257.42 46.4
1 14 10 229.93 28.42
14 -1 -10 215.41 23.26
14 1 -10 128.27 17.72
-1 14 10 313.57 32.92
1 14 -10 190.29 40.76
-1 14 11 702.12 46.5
1 14 11 728.81 49.56
1 14 -11 682.26 74.73
-1 14 -11 656.46 73.79
14 -1 -11 477.5 33.64
14 1 -11 540.31 37.45
1 14 12 359.55 35.53
14 -1 -12 283.36 26.95
14 1 -12 380.35 32.72
-1 14 12 395.96 36.64
14 1 -13 26.88 10.24
14 -1 -13 -2.92 7.81
1 -14 -13 25.43 11.87
-1 -14 -13 27.99 11.81
1 -14 -14 131.87 23.12
14 -1 -14 130.2 20.01
14 1 -14 113.97 17.58
-1 -14 -14 121.55 22.64
1 -14 -15 522.85 43.53
-1 -14 -15 594.66 46.37
14 -1 -15 434.41 31.51
14 1 -15 518.12 36.32
14 -1 -16 73.29 12.67
14 1 -16 81.74 14.42
1 -14 -16 97.83 18.31
-1 -14 -16 89.74 18.37
1 -14 -17 301.46 29.4
14 -1 -17 255.5 20.71
14 1 -17 308.06 24.77
1 -14 -18 155.5 19.25
-1 -14 -18 141.9 18.96
14 1 -18 124.04 14.29
1 -14 -19 14.05 5.51
-1 -14 -19 14.35 5.86
-14 2 0 533.41 46.01
-2 14 0 644.22 56.47
14 -2 0 539.86 29.59
14 2 0 692.45 34.58
-2 14 0 541.36 33.02
-2 14 1 607.24 54.82
-14 2 -1 470.5 44.69
14 -2 1 507.11 27.72
14 2 1 355.97 25.06
-2 14 -1 536.53 53.93
14 -2 -1 461.61 27.33
14 2 -1 375.56 26.56
2 14 -1 333.06 35.14
-14 2 1 503.43 45.5
2 14 1 351.06 26.4
-2 14 1 510.61 32.66
-2 14 -1 478.94 31.84
-2 14 -2 10.42 10.19
-2 14 2 0.6 4.06
-2 14 -2 -0.38 4.89
-14 2 2 2.03 6.65
14 -2 2 -3.32 5.09
-2 14 2 -17.52 13.56
14 2 2 -7.17 4
14 -2 -2 -0.73 5.46
2 14 -2 14.19 9.56
14 2 -2 3.56 5.26
-14 2 -2 -6.73 7.37
2 14 2 -2.18 6.11
2 14 -3 232.43 31.6
-2 14 3 189.86 27.77
-2 14 -3 248.25 22.88
2 14 3 210.35 21.12
14 -2 3 261.67 21.94
14 2 3 224.69 19.55
-2 14 3 271.82 23.72
14 -2 -3 212.55 21.15
14 2 -3 205.09 19.9
-2 14 -3 272.57 39.34
-14 2 -3 265.16 34.28
-2 14 -4 605.4 35.57
-2 14 4 665.08 38.64
14 -2 4 579.79 34.19
2 14 -4 774.4 60.37
14 2 4 874.96 39.62
-2 14 4 519.31 51.64
14 -2 -4 672.94 33.79
14 2 -4 843.19 39.54
-2 14 -4 671.86 62.54
2 14 4 852.88 42.95
-2 14 5 29.62 13.77
14 -2 5 40.78 10.01
14 2 5 50.9 11.76
14 -2 -5 45.64 9.69
14 2 -5 53.94 11.18
2 14 -5 57.37 18.12
-2 14 -5 66.72 23.52
2 14 5 55.13 11.47
-2 14 5 48.97 13.12
-2 14 -6 1227.6 89.99
14 -2 6 1086.86 48.84
14 2 6 1360.05 53.63
14 -2 -6 1088.89 45.69
2 14 -6 1064.8 77.73
14 2 -6 1349.09 53.02
2 14 6 1292.29 57.02
-2 14 6 1148.34 52.77
2 14 -7 69.31 20.61
14 2 7 106.48 17.79
-2 14 -7 84.41 21.87
14 2 -7 105.07 15.02
14 -2 -7 91.8 13.38
2 14 7 108.49 17.51
-2 14 7 94.42 15.19
2 14 -8 40.8 17.16
14 -2 -8 44.35 10.74
2 14 8 50.83 14.33
14 2 -8 52.9 12.04
-2 14 -8 40.35 21.54
-2 14 8 34.79 10.41
14 -2 -9 163.96 18.82
-2 14 -9 227.69 45.71
14 2 -9 183.4 22.17
-2 14 9 254.27 29.63
2 14 -9 170.63 33.93
2 14 9 212.13 28.35
2 14 10 327.96 33.81
2 14 -10 280.03 44.11
14 -2 -10 181.66 21.02
14 2 -10 190.69 21.55
-2 14 10 266.37 29.23
-2 14 -10 224.43 43.01
-2 14 -11 439.19 62.07
14 -2 -11 361.81 29.99
14 2 -11 329.63 31.04
2 14 11 411.13 38.09
14 -2 -12 60.7 12.55
14 2 -12 95.81 16.4
-2 14 12 77.31 16.07
2 -14 -12 97.28 20.54
-2 14 13 172.58 24.43
2 -14 -13 180.29 28.2
14 -2 -13 123.45 17.31
14 2 -13 138.29 20.59
2 -14 -14 303.39 33.54
14 -2 -14 301.34 26.86
14 2 -14 375.67 31.96
-2 -14 -15 7.54 8.29
2 -14 -15 -4.71 10.98
14 -2 -15 2.21 4.02
14 2 -15 14.88 7.71
2 -14 -16 600.9 43.86
-2 -14 -16 752.8 50.97
14 -2 -16 503.4 30.96
14 2 -16 663.33 38.93
2 -14 -17 26.04 10.32
-2 -14 -17 9.12 6.87
14 2 -17 27.01 8.24
-2 -14 -18 128.13 18.42
2 -14 -18 87.16 14.01
14 2 -18 90.77 12.4
2 14 -18 97.81 12.62
2 -14 -19 80.55 12.6
-2 -14 -19 69.98 12
14 2 -19 51.28 8.23
14 3 0 532.43 29.92
-14 3 0 600.92 51.16
-3 14 0 670.66 36.8
-3 14 1 24.62 8.58
-3 14 -1 27.78 8.98
-14 3 1 23.44 12.7
14 -3 1 22.9 6.5
14 3 1 23.16 8.21
-3 14 1 24.24 10.48
14 3 -1 31.86 8.57
-14 3 -1 11.82 10.58
-3 14 -1 40.07 18.38
3 14 1 26.7 8.48
-3 14 -2 302.3 25.39
-3 14 2 377.9 44.27
14 -3 2 331.08 23.59
14 3 2 239.16 20.17
-14 3 -2 301.56 37.17
14 -3 -2 226.77 21.43
-3 14 -2 277.27 38.95
14 3 -2 238.01 21.22
3 14 2 234.2 23.22
-3 14 2 302.86 25.31
-14 3 2 320.78 38.84
-3 14 3 407.45 47.6
-3 14 -3 396.6 28.48
14 -3 3 372.57 25.75
14 3 3 440.17 28.75
14 -3 -3 386.37 25.29
-14 3 -3 389.87 40.43
-3 14 -3 312.21 38.08
14 3 -3 493.38 29.57
3 14 3 478.04 31.85
-3 14 3 401.27 28.77
-3 14 4 11.33 5.11
14 -3 4 -1.37 5.97
14 3 4 16.71 6.44
14 3 -4 15.98 5.45
-14 3 -4 11.91 10.77
14 -3 -4 19.57 7.77
3 14 4 20.67 8.55
14 -3 5 933.74 44.04
14 3 5 1236.37 50.11
-3 14 5 972.33 48.56
14 -3 -5 993.98 41.65
14 3 -5 1234.29 50.59
3 14 5 1235.38 53.7
-3 14 -5 1099.24 85.28
-14 3 -5 840.21 65.24
-3 14 5 839.96 69.66
14 3 6 46.48 12.44
14 -3 -6 68.05 13.31
14 3 -6 50.98 11.67
3 14 6 51.43 12.8
-3 14 -6 85.43 25.89
-3 14 6 78.04 15.16
-3 14 -7 509.79 62.64
14 3 7 544.11 36.45
14 -3 -7 450.59 29.1
14 3 -7 553.11 36.28
-3 14 7 471.89 35.46
3 14 7 570.8 40.95
14 3 -8 69.88 13.64
14 -3 -8 99.22 16.21
-3 14 -8 68.79 26.15
3 14 8 62.75 14.14
-3 14 8 65.23 14.5
-3 14 9 5.19 5.8
3 14 9 3.66 6.87
-3 14 -9 -3.81 21.17
14 3 -9 11.15 5.98
14 -3 -9 1.17 4.76
-3 14 -10 534.13 70.12
14 -3 -10 357.56 28.41
14 3 -10 441.12 34.25
3 14 10 450.49 39.25
-3 14 10 532.53 40.1
-3 14 -11 38.63 12.95
14 -3 -11 9.06 4.88
3 14 11 39.43 14.19
-3 14 11 5.71 6.25
14 3 -11 36.5 12.17
14 -3 -12 300.97 27.52
3 -14 -12 354.22 36.56
14 3 -12 245.03 26.49
-3 14 12 311.05 32.47
3 -14 -13 122.6 20.79
14 -3 -13 117.14 16.16
14 3 -13 137.48 19.63
-3 14 13 122.69 19.91
3 -14 -14 -1.93 8.48
14 -3 -14 9.94 6.31
14 3 -14 5.48 5.05
-3 -14 -14 -6.5 11.89
3 -14 -15 509.33 41.46
14 3 -15 585.16 38.62
3 -14 -16 22.94 9.49
-3 -14 -16 6.85 7.3
14 3 -16 16.21 8.2
3 14 -17 338.23 24.88
3 -14 -17 324.35 29.52
-3 -14 -17 438.53 36.28
14 3 -17 395.91 28.17
3 -14 -18 2.53 4.71
-3 -14 -18 -6.75 6.63
14 3 -18 -0.56 3.86
3 14 -18 4.86 4.78
3 -14 -19 5.52 3.33
-3 -14 -19 13.47 5.89
14 3 -19 3.96 3.44
-4 14 0 118.88 16.44
14 4 0 82.98 13.05
-14 4 0 83.3 19.32
-4 14 0 79.63 21.29
-4 14 -1 620.02 36.72
-14 4 1 628.51 56.03
-4 14 1 504.01 49.32
14 -4 1 594.49 31.09
-14 4 -1 598.33 52.96
-4 14 -1 498.21 53.21
4 14 1 538.62 31.81
14 4 1 521.69 30.46
-4 14 1 631.53 36.76
14 4 -1 526.77 30.98
-4 14 -2 327.5 26.29
-4 14 2 322.4 26.44
-4 14 2 218.75 33.32
14 -4 2 342.42 23.59
14 4 2 311.26 22.83
-14 4 -2 324.4 38.51
-4 14 -2 239.3 37.62
14 4 -2 327 23.93
4 14 2 320.54 25
-14 4 2 311.16 40.01
-4 14 3 -10.14 7.93
-14 4 -3 0.87 9.05
-4 14 -3 -13.86 18.33
-14 4 3 4.68 9.49
-4 14 3 -3.72 10.06
14 -4 3 0.35 4.86
14 4 3 -1.89 5.08
14 4 -3 -0.91 3.88
4 14 3 9.2 6.63
14 4 4 900.7 40.66
4 14 4 884.75 44.32
14 4 -4 902.72 41.9
-4 14 -4 626.77 62.01
-14 4 -4 674.24 57.94
14 -4 4 680.62 36.38
-4 14 4 734.36 40.56
-4 14 4 746.76 68.15
14 -4 5 582.97 35.56
14 4 5 545.01 33.39
-14 4 -5 598.55 58.8
-4 14 -5 691.7 67.22
14 4 -5 572.86 34.3
4 14 5 564.04 37.65
-4 14 5 651.04 40.09
-4 14 5 683.14 66.8
-14 4 -6 453.2 50.61
-4 14 -6 530.68 62.49
14 4 6 665.55 37.85
14 4 -6 657.33 37.85
-4 14 6 511.48 37.18
4 14 6 665.47 41.07
-4 14 -7 72.32 26.01
14 4 7 30.45 12.51
-14 4 -7 45.94 18.44
14 4 -7 46.69 11.39
4 14 7 46.05 11.69
-4 14 7 58.77 13.38
4 14 8 152.08 21.52
-4 14 -8 148.35 35.91
14 4 -8 158.1 20.38
-4 14 8 132.54 19.1
-4 14 -9 309.32 52.39
14 4 -9 304.55 27.74
-4 14 9 324.94 31.34
4 14 9 307.39 32.09
14 4 -10 44.52 13.59
-4 14 -10 15.96 15.06
4 14 10 24.88 11.92
-4 14 10 33.22 11.37
14 4 -11 388.66 33.05
-4 14 11 456.6 37.99
-4 14 12 192.56 24.87
4 -14 -12 218.37 29.56
14 4 -12 181.32 22.31
14 4 -13 13.08 7.1
-4 14 13 13.97 10.05
4 -14 -13 12.11 7.94
4 -14 -14 335.88 34.02
-4 -14 -14 407.8 42.19
14 4 -14 365.45 31.38
4 -14 -15 100.34 18.97
14 4 -15 85.63 14.61
-4 -14 -15 88.12 18.33
4 -14 -16 391.4 33.85
14 4 -16 469.47 33.04
4 14 -16 413.84 29.03
4 -14 -17 68.36 13.47
-4 -14 -17 54.97 12.56
14 4 -17 54.93 10.73
4 14 -17 62.81 11.31
4 -14 -18 119.58 15.57
-4 -14 -18 152.64 20.01
14 4 -18 136.96 15.18
4 14 -18 124.06 14
-4 -14 -19 1.11 3.6
14 4 -19 4.42 3.29
-5 14 0 1361.67 54.08
-14 5 0 1303.31 81.78
-5 14 0 1139.2 82.05
14 5 0 1230.04 47.37
-5 14 -1 302.98 25.21
-14 5 1 312.53 41.14
-5 14 1 252.58 38.5
-14 5 -1 299.75 39.34
-5 14 -1 208.57 34.9
14 5 1 212.7 19.46
14 5 -1 230.14 20.69
5 14 1 230.57 21.38
-5 14 1 299.26 26.12
-5 14 -2 154.49 18.74
14 -5 2 141.46 16.45
-14 5 2 137.19 28.13
14 5 2 155.58 16.7
-5 14 2 91.55 21.26
-5 14 2 168.1 19.22
14 5 -2 164.61 17.72
5 14 2 154.77 17.74
-14 5 -2 138.82 27.18
-5 14 3 477.58 53.55
14 -5 3 536.89 32.05
14 5 3 640.06 33.19
-14 5 -3 521.96 52.03
-5 14 -3 613.94 62.43
14 5 -3 628.92 34.5
5 14 3 609.43 36.33
-5 14 3 540.72 34.88
-14 5 3 528.42 56.92
14 -5 4 619.43 34.57
14 5 4 563.44 32.33
5 14 4 552.46 35.83
14 5 -4 522.74 31.97
-5 14 -4 675.25 67.52
-14 5 -4 639.66 60.34
-5 14 4 643.46 39.09
-5 14 4 767.75 71.04
14 5 5 513.11 31.92
14 5 -5 511.02 32.82
-5 14 -5 458.93 55.53
5 14 5 526.52 35.93
-5 14 5 440.57 32.59
-5 14 5 429.01 54.82
-14 5 -5 392.26 47.53
14 5 6 599.22 36.19
5 14 6 623.44 41.37
-5 14 -6 695.19 72.35
-5 14 6 645.02 41.02
14 5 -6 592.97 36.14
-14 5 -6 557.02 60.81
-5 14 7 190.21 23.25
14 5 7 217.55 23.02
-14 5 -7 144.82 31.79
14 5 -7 216.96 22.53
5 14 7 224.58 26.43
-5 14 -7 173.02 39.09
-14 5 -8 46.46 17.73
-5 14 -8 10.14 12.54
5 14 8 18.15 9.02
14 5 -8 17.84 7.85
-5 14 8 28.61 9.49
14 5 -9 99.83 15.88
-5 14 -9 125.21 38.26
5 14 9 107.51 18.47
-5 14 9 121.48 18.56
-5 14 -10 449.24 64.92
14 5 -10 474.09 36.62
5 14 10 478.84 40.77
-5 14 10 492.96 39
-5 14 11 302.64 30.81
5 -14 -11 235.02 28.35
14 5 -11 292.14 28.82
5 -14 -12 122.37 21.01
14 5 -12 182.32 23.09
-5 14 12 145.6 22.39
14 5 -13 135.81 19.53
5 -14 -13 70.54 15.83
-5 14 13 122.51 21.09
-5 -14 -14 18.5 11.71
5 -14 -14 18.93 7.66
14 5 -14 28.73 9.38
5 14 -14 23.76 7.7
5 -14 -15 249.92 27.44
-5 -14 -15 306.75 33.88
14 5 -15 280.41 26.95
5 14 -15 269.47 24.72
5 -14 -16 224.41 24.22
5 14 -16 196.78 19.68
-5 -14 -16 220.9 26.72
14 5 -16 193.24 21.12
5 -14 -17 143.92 18.12
-5 -14 -17 188.02 23.2
14 5 -17 174.19 18.77
5 14 -17 154.83 16.75
5 -14 -18 33.94 8.2
-5 -14 -18 31.35 8.71
5 14 -18 25.62 6.14
14 5 -18 25.39 6.74
14 5 -19 43.7 7.4
-5 -14 -19 68.44 11.19
-6 14 0 198.41 20.88
-14 6 0 196.76 33.44
14 6 0 140.07 17.17
-6 14 -1 1276.34 54.28
-14 6 1 1221.33 83.75
-6 14 1 1413.62 92.76
-14 6 -1 1204.41 82.07
-6 14 -1 1366.57 90.61
14 6 1 1211.87 46.51
14 6 -1 1212.25 47.48
-6 14 1 1235.66 53.06
-14 6 2 314.43 45.54
-6 14 2 431.41 54.84
14 6 2 286.25 22.38
-14 6 -2 320.37 42.69
6 14 2 306.04 25.91
-6 14 -2 373.9 49.48
14 6 -2 293.54 23.76
-6 14 2 365.42 29.98
6 14 3 63.27 12.61
-14 6 3 81.82 24.85
-6 14 3 96.15 27.85
14 6 3 47.33 10.62
14 6 -3 55.39 11.31
-6 14 -3 90.92 25.43
-6 14 3 81.1 16.05
-14 6 -3 72.23 19.9
-6 14 -4 145.56 32.3
14 6 4 154.68 17.34
-14 6 -4 131.51 29.19
-6 14 4 162.52 20.24
14 6 -4 149.84 17.14
6 14 4 172.04 20.81
-6 14 4 214.27 39.47
14 6 5 745.95 38.73
14 6 -5 766.24 40.45
-6 14 -5 897.67 80.25
-14 6 -5 789.84 70.63
6 14 5 852.82 47.29
-6 14 5 852.74 46.89
14 6 6 153.7 18.28
14 6 -6 144.71 18.47
-6 14 -6 125.35 30.47
6 14 6 157.53 20.32
-6 14 6 146.05 19.51
-14 6 -6 120.48 27.67
-14 6 -7 78.97 26.41
14 6 7 75.55 15.57
14 6 -7 83.07 14.21
6 14 7 102.51 17.82
-6 14 7 110.84 17.39
-6 14 -7 107.87 30.57
14 6 -8 98.04 15.38
-6 14 -8 103.61 32.07
-6 14 8 110.01 17.58
-14 6 -8 99.65 29.82
6 14 8 77.52 17.67
-6 14 -9 326.95 56.4
6 14 -9 335.42 26.12
-14 6 -9 259.73 43.68
14 6 -9 340.24 30.17
6 14 9 359.77 34.43
-6 14 9 290.84 28.59
-6 14 -10 244.16 44.12
6 -14 -10 210.41 25.27
14 6 -10 289.36 27.94
6 14 -10 294.28 26.03
-6 14 10 309.7 31.5
14 6 -11 617.39 42.56
-6 14 11 534.15 40.14
6 14 -11 594.74 37.66
6 -14 -12 148.23 22.53
14 6 -12 104.22 18.99
-6 14 12 107.07 20.17
6 14 -12 81.87 16.07
-6 14 13 67.46 15.06
14 6 -13 80.05 16.66
6 -14 -13 36.86 8.05
6 14 -13 76.99 13.69
6 -14 -14 137.94 19.92
14 6 -14 146.62 20.8
-6 -14 -14 178.68 28
6 14 -14 149.5 20
6 -14 -15 148.39 20.72
6 14 -15 130.73 17.71
-6 -14 -15 177.5 25.85
14 6 -15 145.18 19.42
6 14 -16 78.28 12.07
6 -14 -16 76.96 13.82
14 6 -16 94.82 14.74
-6 -14 -16 85.59 16.66
6 14 -17 134.17 15.37
-6 -14 -17 164.93 21.97
14 6 -17 138.67 16.31
6 -14 -17 143.84 17.47
-6 -14 -18 57.51 12.15
6 14 -18 60.82 9.45
14 6 -18 51.22 9.07
-6 -14 -19 12.32 5.08
14 6 -19 7.88 3.33
-7 14 0 2198.69 119.56
-14 7 0 1995.35 109.78
14 7 0 2075.05 61.24
-7 14 0 2076.22 70.36
-7 14 1 185.4 20.57
-7 14 -1 188.38 21.23
-14 7 -1 192.98 33.98
-7 14 -1 203.47 35.94
14 7 1 147.69 15.64
-14 7 1 154.77 31.8
14 7 -1 141.05 15.58
-7 14 1 183.67 34.63
-7 14 2 389.95 50.47
-14 7 2 343.44 46.98
14 7 2 404.23 26.3
-14 7 -2 290.05 44.12
-7 14 -2 330.4 49.48
14 7 -2 388.04 28.13
7 14 2 375.52 28.91
-7 14 2 366.09 30.05
-7 14 3 22.8 10
-14 7 3 29.33 19.72
14 7 3 34.9 13.51
-7 14 3 29.4 20.62
-7 14 -3 60.61 23.94
14 7 -3 34.34 8.67
7 14 3 34.61 10.91
-14 7 -3 32.23 14.9
-14 7 4 221.43 42.1
14 7 4 193.58 20.08
7 14 4 255.97 25.91
-7 14 4 266.49 46.15
-7 14 -4 252.02 41.56
-14 7 -4 224.88 38.07
14 7 -4 223.87 21.94
-7 14 4 257.78 27.39
-7 14 5 65.33 13.84
-7 14 5 86.67 29.03
14 7 5 42.96 10.55
-7 14 -5 66.73 21.58
-14 7 -5 59.57 19.64
14 7 -5 57.78 11.66
7 14 5 56.2 13.06
14 7 6 274.78 24.47
7 14 6 303.9 29.85
14 7 -6 258.15 24.18
-14 7 -6 303.97 46.73
-7 14 6 337.58 30.57
-7 14 -6 347.4 52.91
-14 7 -7 30.03 17.97
14 7 7 23.58 10.23
7 14 7 23.63 9.79
14 7 -7 12.7 7.38
-7 14 -7 27.36 13.05
-7 14 7 24.02 8.84
7 14 8 65.93 14.06
-7 14 -8 77.84 30.62
14 7 -8 93.14 15.46
-14 7 -8 37.16 17.44
7 14 -8 94.28 14.17
-7 14 8 72.01 14.7
7 14 -9 83.41 13.65
14 7 -9 85.57 16.95
-7 14 -9 70.37 30.19
-7 14 9 86.02 15.85
-14 7 -9 84.72 28.16
7 14 -10 1007.48 47.71
14 7 -10 1021.03 52
-7 14 10 894.95 50.86
7 14 -11 70.65 13.69
-7 14 11 77.94 16.63
14 7 -11 68.11 15.58
14 7 -12 556.49 41
-7 14 12 463.98 37.14
7 14 -12 521.91 35.43
7 14 -13 41.08 10.52
7 -14 -13 37.02 10.08
-7 14 13 42.69 11.59
14 7 -13 47.03 13.1
14 7 -14 -7.14 6.3
7 -14 -14 -0.19 5.1
7 14 -14 0.01 5.02
-7 -14 -14 3.75 8.15
7 -14 -15 35.3 9.9
14 7 -15 33.66 9.7
-7 -14 -15 38.01 14.08
7 14 -15 27.32 8.77
-7 -14 -16 178.02 23.27
14 7 -16 155.17 18.25
7 14 -16 131.06 16
-7 -14 -17 15.4 8.16
7 14 -17 20.99 6.11
14 7 -17 18.42 6.83
7 14 -18 3.39 3.11
-7 -14 -18 8.78 6.09
14 7 -18 6.63 4.13
14 8 0 68.05 12.98
-8 14 0 57.19 11.92
-14 8 0 39.4 15.38
-8 14 0 57.54 19.36
-8 14 1 1393.26 57.8
-8 14 -1 1410.58 59.34
-14 8 1 1241 89.87
-8 14 1 1381.7 96.71
-14 8 -1 1230.27 88.92
-8 14 -1 1350.08 95.71
14 8 1 1444.77 50.16
14 8 -1 1547.09 54.08
-8 14 2 16.96 9.66
-14 8 2 19.38 14.57
-8 14 2 18.01 12.96
14 8 2 4.46 4.89
14 8 -2 35.8 13.96
-14 8 -2 15.77 13.07
-8 14 -2 2.12 11.57
-8 14 3 18.12 7.61
-14 8 3 8.47 18.13
-8 14 3 25.23 13.63
14 8 3 18.04 7.22
14 8 -3 20.22 7.69
8 14 3 30.95 10.03
-14 8 -3 40.76 18.35
-8 14 -3 16.36 10.54
-8 14 4 0.43 7.55
-8 14 -4 20.28 14.65
-14 8 -4 12.3 15.32
-14 8 4 14.16 17.18
-8 14 4 16.46 14.49
14 8 4 0.65 5.12
14 8 -4 13.16 6.95
8 14 4 12.25 6.19
14 8 5 122.91 15.99
-8 14 5 91.21 28.61
-8 14 -5 109.86 30.32
-14 8 -5 75 24.68
14 8 -5 108.93 16.7
8 14 5 142.59 19.3
-8 14 5 119.86 18.29
-8 14 6 31.31 24.32
14 8 6 5.13 6.82
-8 14 -6 24.08 17.03
-14 8 -6 16.62 16.73
14 8 -6 9.61 7.94
8 14 6 8.42 7.09
-8 14 6 7.06 5.81
8 14 -7 4.19 5.07
-8 14 -7 -11.25 11.47
14 8 -7 5.41 6.79
-8 14 7 0.85 7.18
14 8 7 1.9 8.61
-14 8 -7 -3.2 12.1
-8 14 -8 -5.59 14.1
-14 8 -8 17.66 19.59
14 8 -8 4.39 6.97
8 14 -8 3.74 5.62
-8 14 8 -8.01 7.37
-8 14 9 570.57 40.11
-8 14 -9 542.28 73.89
-14 8 -9 496.51 66.75
14 8 -9 750.8 43.79
8 14 -9 665.62 37.46
14 8 -10 -3.18 7.23
-8 14 10 -18.4 11.76
8 14 -10 -4.44 5.94
14 8 -11 1083.14 55.33
-8 14 11 921.76 51.11
8 14 -11 977.2 48.06
-8 14 12 5.93 6.2
8 14 -12 5.38 4.73
14 8 -12 19.19 10.26
14 8 -13 220.21 24.72
8 14 -13 202.4 21.97
-8 -14 -14 32.94 13.05
14 8 -14 32.2 11.03
8 14 -14 19.87 8.08
14 8 -15 34.85 10.71
-8 -14 -15 37.99 13.03
8 14 -15 25 7.6
-8 -14 -16 18.24 8.84
14 8 -16 15.17 6.72
8 14 -16 7.07 4.3
-8 -14 -17 21.02 7.91
14 8 -17 30.62 8.08
8 14 -17 20.15 5.56
-8 -14 -18 13.12 6.77
14 8 -18 3.99 3.31
8 14 -18 6.46 3.79
-9 14 0 1317.43 58.39
-9 14 0 1330.26 97.72
14 9 0 1427.34 51.88
-9 14 1 -2.09 6.47
-14 9 1 25.03 16.12
14 9 1 1.02 5.07
-9 14 -1 2.6 6.26
-9 14 1 3.29 10.28
14 9 -1 4.09 5.09
-14 9 -1 -12.94 12.17
-9 14 -1 8.21 16.02
-14 9 2 437.62 31.18
-9 14 2 435.45 57.15
-14 9 2 398.11 54.24
14 9 2 412.99 28.04
-14 9 -2 383.36 51.73
-9 14 -2 417.01 55.96
14 9 -2 443.12 29.65
-9 14 2 429.37 32.97
-9 14 3 9.13 8.03
-9 14 -3 12.04 12.24
-14 9 3 -4.29 10.52
-9 14 3 4.86 11.66
14 9 3 8.59 6.38
14 9 -3 3.82 4.39
-14 9 -3 -1.1 11.66
-9 14 4 -0.39 7.04
-9 14 -4 9.34 13.26
-14 9 -4 15.17 13.31
-14 9 4 3 11.61
-9 14 4 6.41 14.29
14 9 4 2.87 5.72
14 9 -4 3.93 5.26
9 14 4 9.47 7.38
-9 14 5 34.95 10.56
-9 14 5 39.94 22.63
14 9 5 16.05 8.02
-9 14 -5 44.34 18.63
-14 9 5 24.49 20.82
14 9 -5 25.61 7.84
-14 9 -5 3.9 12.03
-9 14 6 1.51 12.93
14 9 6 28 10.86
14 9 -6 23.77 8.36
-9 14 -6 -2.77 14.69
-14 9 -6 28.43 19.93
9 14 -6 31.02 8.16
-9 14 6 18.1 9.87
14 9 7 7.9 7.68
14 9 -7 9.62 7.24
9 14 -7 -1.51 4.55
-9 14 -7 4.24 13.8
-14 9 -7 13.29 19.52
-9 14 7 -2.56 5.35
-9 14 -8 145.7 37.42
-14 9 -8 89.34 26.31
14 9 -8 182.12 21.82
9 14 -8 177.48 19.41
-9 14 8 168.12 21.95
9 14 -9 18.52 6.97
-9 14 9 13.14 5.71
14 9 -9 24.56 8.76
14 9 -10 970.33 49.85
9 14 -10 899.23 44.78
9 14 -11 1.94 5.18
-9 14 11 -3.57 8.49
14 9 -11 -4.23 7.98
14 9 -12 697.55 43.4
9 14 -12 674.55 39.31
14 9 -13 -4.62 5.71
9 14 -13 9.3 7.49
-9 -14 -13 -8.62 8.34
14 9 -14 19.82 9.38
9 14 -14 24.8 7.88
-9 -14 -14 23.67 10.87
14 9 -15 30.93 9.82
-9 -14 -15 38.95 12.11
9 14 -15 28.98 7.4
-9 -14 -16 32.07 9.51
9 14 -16 40.16 9.25
14 9 -16 41.45 9.46
-9 -14 -17 5.22 4.07
14 9 -17 11.27 5.3
9 14 -17 14.24 5.39
14 9 -18 20.58 5.32
14 10 0 40.76 9.98
-14 10 0 72.61 25.5
-10 14 0 80.79 17.27
-10 14 0 68.38 23.72
-10 14 1 438.2 34.03
-14 10 1 464.49 34.03
-10 14 -1 476.73 35.42
-14 10 1 338.74 48.5
-10 14 1 428.06 55.66
-14 10 -1 349.1 50.07
-10 14 -1 356.84 52.45
14 10 1 479.54 30.18
14 10 -1 477.74 30.37
-14 10 2 3.52 5.04
-10 14 2 6.61 7.64
-14 10 2 -0.71 14.88
14 10 2 0.43 4.47
-10 14 2 6.39 14.04
14 10 -2 4.38 4.54
-14 10 -2 -6.77 10.6
-10 14 -2 -4.78 17.44
-14 10 -3 119.32 30.82
-10 14 -3 143.39 33.97
-14 10 3 134.2 36.71
-10 14 3 130.27 34.18
14 10 3 81.32 13.66
14 10 -3 85.5 13.42
-10 14 3 134.93 19.61
-14 10 3 118.67 17
-10 14 4 69.81 14.51
-10 14 -4 63.29 22.75
-14 10 -4 52.48 23.91
-14 10 4 53.9 25.29
-10 14 4 61.07 26.62
14 10 4 44.86 10.49
14 10 -4 30.98 8.43
-10 14 5 71.36 15.69
-14 10 5 60.62 32.26
-10 14 5 79.6 28.74
14 10 5 59.26 12.65
-10 14 -5 70.11 29.68
-14 10 -5 49.05 23.52
14 10 -5 46.98 12.39
10 14 -5 56.6 10.91
-14 10 6 64.12 26.32
-10 14 6 95.94 29.82
14 10 6 77.72 14.33
14 10 -6 79.77 14.51
10 14 -6 114.58 15.51
-10 14 -6 98.14 30.38
-14 10 -6 37.73 23.38
-10 14 6 104.63 17.86
-10 14 7 33.82 23
14 10 7 20.39 10.86
10 14 -7 20.04 8.32
14 10 -7 37.4 9.77
-10 14 -7 9.44 14.61
-14 10 -7 19.75 15.7
-10 14 7 30.34 12.48
-10 14 8 12.66 9.19
14 10 -8 12.19 7.78
10 14 -8 17.55 8.11
14 10 -9 334.86 29.66
10 14 -9 320.73 27
-10 14 9 311.24 29.15
10 14 -10 79.91 14.34
14 10 -10 78.76 14.88
-10 14 10 87.79 15.77
14 10 -11 650.78 40.63
10 14 -11 652.97 38.06
10 14 -12 23.9 8.55
14 10 -12 15.69 8.66
14 10 -13 110.7 16.53
10 14 -13 107.75 15.78
-10 -14 -13 123.58 21.26
10 14 -14 64.03 11.52
14 10 -14 65.82 13.31
-10 -14 -14 77.09 16.58
14 10 -15 21.52 9
10 14 -15 7.12 5.21
-10 -14 -15 13.73 8.48
14 10 -16 73.52 11.44
10 14 -16 85.19 11.7
-10 -14 -16 72.68 13.86
10 14 -17 15.28 5.42
-10 -14 -17 11.42 5.85
14 10 -17 15.05 5.5
14 10 -18 10.39 4
-11 14 0 73.7 15.7
14 11 0 97.98 14.14
-14 11 0 51.58 20.93
-11 14 0 50.93 20.33
-11 14 -1 114.57 19.57
-14 11 1 81.59 15.52
14 11 1 63.85 11.3
-14 11 1 72.18 25.97
14 11 -1 73.77 11.88
-11 14 1 86.63 27.74
-11 14 1 109.49 18.37
-14 11 -1 97 30.23
-11 14 -1 78.91 26.57
-14 11 2 114.87 17.3
14 11 2 115.41 14.59
14 11 -2 117.22 15.75
-14 11 2 111.91 30.65
-11 14 2 112.71 32.39
-14 11 -2 109.15 30.96
-11 14 -2 107.83 32.15
-11 14 2 120.6 18.29
-14 11 -3 65.06 24.39
-11 14 -3 61.37 25.78
-11 14 3 71.85 14.23
-14 11 3 63.65 12.8
14 11 3 59.09 11.61
-11 14 3 60.98 23.35
11 14 -3 79.77 12.11
14 11 -3 66.48 12.24
-14 11 3 59.65 22.61
-11 14 4 106.04 18.89
-11 14 -4 70.1 28.76
-14 11 -4 75.97 29.87
-14 11 4 89.56 31.61
14 11 4 42.52 11.04
-11 14 4 91.03 30.29
11 14 -4 58.94 9.66
14 11 -4 61.93 11.65
-11 14 5 433.91 65.24
14 11 5 506.83 32.59
14 11 -5 469.39 32.71
11 14 -5 527.75 30.5
-11 14 -5 465.31 64.99
-14 11 -5 391.58 56.77
-11 14 5 467.99 37.01
-14 11 5 426.39 61.64
-14 11 6 32.4 21.48
-11 14 6 28.41 17.48
14 11 6 33.53 10.42
-11 14 -6 46.23 26.34
-14 11 -6 29.51 18.58
14 11 -6 41.04 11.03
11 14 -6 46.43 10.86
-11 14 6 37.44 13.28
14 11 -7 173.87 20.89
11 14 -7 176.88 18.93
-11 14 7 164.68 22.17
11 14 -8 28.4 9.18
14 11 -8 53.48 12.92
-11 14 8 44.02 12.36
11 14 -9 36.84 10.36
14 11 -9 41.48 10.76
-11 14 9 45.02 12.51
14 11 -10 179.07 21.8
11 14 -10 200.73 20.97
14 11 -11 94.13 16
11 14 -11 100.92 16.59
14 11 -12 127.44 17.98
11 14 -12 109.72 15.21
11 14 -13 4.53 5.01
14 11 -13 4.37 6.85
-11 -14 -13 9.09 8.48
11 14 -14 5.58 4.05
-11 -14 -14 12.52 7.68
14 11 -14 18.23 7.43
-11 -14 -15 235.8 25.38
14 11 -15 235.09 21.11
11 14 -15 234.24 19.35
-11 -14 -16 21.06 8.32
14 11 -16 14.18 5.95
11 14 -16 24.88 6.38
14 11 -17 103.74 11.7
11 14 -17 115.39 11.54
-12 14 0 241.26 28.02
-14 12 0 224.26 26.69
14 12 0 201.88 20.33
-14 12 0 195.31 42.26
-12 14 0 229.59 42.86
-12 14 1 -2.95 6.92
-14 12 1 -2.17 6.11
14 12 1 -4.24 5.4
14 12 -1 -3.8 5.99
-14 12 1 15.27 21.75
-12 14 1 -1.22 12.78
-12 14 -1 3.03 6.94
-14 12 -1 1.79 11.77
-12 14 -1 -7.47 15.21
-12 14 2 5.3 7.66
-14 12 2 5.46 6.52
-12 14 -2 13.85 14.42
14 12 2 4.72 5.77
-14 12 2 10.33 11.53
-12 14 2 6.78 13.54
12 14 -2 14.71 7.2
14 12 -2 -0.74 5.5
-14 12 -2 13.44 14.99
-12 14 3 54.15 13.29
-14 12 -3 59.34 25.26
-12 14 -3 67.21 30.41
-14 12 3 66.99 15.76
14 12 3 40.06 10.09
-14 12 3 40.19 26.76
-12 14 3 27.92 14.39
12 14 -3 54.49 10.71
14 12 -3 35.49 11.25
-14 12 4 591.49 38.2
-14 12 4 489.24 65.96
-12 14 4 565.28 69.04
14 12 4 603.88 34.43
12 14 -4 643.31 35.15
14 12 -4 612.38 36.09
-12 14 -4 517.18 67.01
-14 12 -4 469.88 63.66
-12 14 4 580.91 39.87
-12 14 5 28.92 8.12
14 12 5 18.31 7.31
-14 12 5 25.43 18.62
-12 14 5 39.78 23.7
-14 12 -5 31.43 23.07
-12 14 -5 16.93 13.83
12 14 -5 30.01 8.39
14 12 -5 31.51 8.22
14 12 6 907.92 43.32
14 12 -6 895.96 44.85
12 14 -6 966.46 43.11
-12 14 6 874.21 49.16
14 12 -7 15.12 7.11
12 14 -7 8.86 5.35
14 12 -8 41.67 10.27
12 14 -8 49.2 11.15
-12 14 8 52.6 11.88
12 14 -9 12.38 6.39
14 12 -9 12.11 9.04
14 12 -10 46.77 11.85
12 14 -10 45.25 10.5
12 14 -11 36.49 8.46
-14 -12 -11 27.18 9.06
14 12 -11 30.02 9.58
12 14 -12 40.2 9.39
14 12 -12 38.63 10.04
14 12 -13 3.47 3.89
12 14 -13 3.52 3.94
-12 -14 -13 -3.26 5.92
-12 -14 -14 220.18 24.37
14 12 -14 223.44 20.69
12 14 -14 233.91 20.28
-12 -14 -15 10.39 6.6
14 12 -15 7.28 4.77
12 14 -15 3.1 3.18
14 12 -16 408.29 23.8
12 14 -16 412.1 22.75
14 12 -17 10.5 4.27
-13 14 0 -8.41 8.41
-14 13 0 11.72 9.41
13 14 0 6.33 5.31
14 13 0 8.32 6.18
-13 14 0 15.84 16.95
-14 13 0 -3.05 13.91
-13 14 1 59.95 14.16
-14 13 1 57.5 14.32
-13 14 -1 55.7 15.52
-14 13 -1 63.8 14.89
13 14 -1 83.67 12.73
14 13 1 73.29 11.9
14 13 -1 71.24 12.38
-14 13 1 26.68 16.89
-13 14 1 33.71 12.78
-14 13 -1 10.74 11.06
-13 14 -1 44.17 22.38
-13 14 2 9.93 9.57
-14 13 2 3.61 7.43
14 13 2 11.21 6.78
13 14 -2 10.6 6.22
14 13 -2 6.83 6.33
-14 13 2 6.62 14.28
-13 14 2 11.49 19.42
-14 13 -2 -14.41 12.47
-13 14 -2 -23.79 12.69
-13 14 3 306.36 29.33
-14 13 -3 221.68 42.6
14 13 3 346.59 25.63
-14 13 3 295.5 28.04
13 14 -3 365.88 26.06
14 13 -3 353.76 26.24
-14 13 3 183.81 39.76
-13 14 3 219.31 45.15
-13 14 -3 243.52 45.87
-13 14 4 4.75 6.36
-14 13 4 17.64 7.57
14 13 4 19.78 8.62
13 14 -4 10.78 4.65
14 13 -4 15.56 5.98
14 13 5 1377.96 51.97
13 14 -5 1502.22 53.71
14 13 -5 1496.79 55.56
-13 14 5 1368.83 60.94
-14 13 5 1373.57 59.18
13 14 -6 -2.2 6.61
14 13 -6 -5.11 7.51
-13 14 6 -7.24 9.04
-13 14 7 534.47 37.84
14 13 -7 493.25 33.11
13 14 -7 523.99 33.07
14 13 -8 8.27 6.04
13 14 -8 -3.32 5.29
14 13 -9 0.12 5.64
13 14 -9 5.02 5.81
13 14 -10 -10.72 6.55
14 13 -10 7.71 4.29
14 13 -11 76.14 14.33
13 14 -11 79.44 13.61
14 13 -12 5.57 4.56
13 14 -12 2.07 4.42
-14 -13 -12 -5.21 6.53
-13 -14 -12 -4.22 7.64
14 13 -13 46.57 9.7
-13 -14 -13 37.82 8.78
13 14 -13 39.45 9.16
13 14 -14 1.08 3.42
14 13 -14 2.32 5.28
-13 -14 -14 -1.18 4.7
14 13 -15 565.26 28.32
13 14 -15 531.93 27
14 13 -16 3.68 3.59
13 14 -16 5.01 3.99
-14 14 0 90.94 16.38
14 14 0 103.93 13.8
14 14 1 -0.29 4.41
-14 14 1 10.05 7.11
14 14 -1 6.85 6.83
-14 14 -1 4.2 8.23
-14 14 2 13.31 5.84
-14 14 -2 21.48 10.34
14 14 2 8.25 4.61
14 14 -2 13.32 7.21
-14 14 3 4.61 8.65
14 14 -3 5.34 5.02
14 14 -4 990.41 43.39
-14 14 4 888.02 49.45
14 14 -5 -11.78 8.32
-14 14 5 -19.46 8.59
14 14 -6 1056.55 46.51
-14 14 6 1010.13 52.86
14 14 -7 -8.43 6.25
14 14 -8 195.41 20.54
14 14 -9 -10.05 6.36
14 14 -10 54.59 12.53
14 14 -11 -6.41 5.17
14 14 -12 5.25 4.44
-14 -14 -12 8.36 6.28
14 14 -13 2.09 3.95
14 14 -14 292.56 20.7
14 14 -15 2.03 2.87
15 0 0 109.04 14.22
0 15 0 103.6 15.5
0 15 1 577.38 33.75
0 15 1 437.11 41.76
15 0 1 554.14 30.5
15 0 -1 577.73 31.72
0 15 -1 459.5 44.96
0 15 -1 543.04 32.41
0 15 2 319.44 37.66
15 0 -2 339.35 25.69
15 0 2 354.2 25.38
0 15 -2 261.59 35.99
0 15 2 342.76 27.83
0 15 -2 325.16 25.42
0 15 -3 8.03 5.83
15 0 3 8.33 5.2
0 15 -3 9.9 10.57
15 0 -3 5.21 6.77
0 15 3 17.27 9.07
0 15 4 501.11 48.69
15 0 4 467.14 30.76
15 0 -4 461.28 29.76
0 15 4 473.07 33.56
0 15 -4 399.13 47.11
0 15 -4 456.46 29.43
0 15 -5 518.34 31.18
0 15 -5 434.45 51.09
15 0 5 517.08 33.19
15 0 -5 507.86 31.86
0 15 5 512.78 37.12
15 0 6 296.47 26.16
15 0 -6 295.06 24.73
0 15 6 299.82 28.16
0 15 7 330.72 29.42
0 15 -7 402.84 56.86
15 0 -7 308.78 25.95
0 15 8 133.4 20.56
15 0 -8 100.87 15.82
0 15 -8 112.26 29.09
0 15 -9 389.04 53.15
15 0 -9 390.42 31.33
0 15 9 407.38 35.99
15 0 -10 32.88 10.52
0 15 -10 25.76 18.18
0 15 10 34.97 11.82
0 15 11 623.58 45.31
15 0 -11 598.52 38.77
15 0 -12 225.59 24.43
0 15 12 226.13 29.82
0 -15 -13 46.24 14.52
15 0 -13 19.63 7.03
0 -15 -14 243.89 31.58
15 0 -14 191.2 20.96
0 -15 -15 359.48 36.94
15 0 -15 305.75 25.67
0 -15 -16 246.84 28.47
15 0 -16 189.33 18.81
0 -15 -17 130.91 18.25
15 0 -17 99.9 12.55
0 -15 -18 121.18 16.69
0 -15 -19 43.63 9.31
15 -1 0 818.09 37.28
-1 15 0 667.73 55.91
15 1 0 798.72 37.83
1 15 0 918.71 59.24
1 15 0 770.29 38.66
-1 15 0 786.9 39.76
-1 15 1 197.25 31.63
15 -1 1 239.85 22.14
15 1 1 186.6 19.24
15 -1 -1 236.16 22.02
15 1 -1 198.12 20.33
-1 15 -1 180.76 30.82
1 15 -1 195.7 29.58
1 15 1 175.37 20.42
-1 15 1 279.68 24.74
1 15 -1 162.47 19.06
-1 15 -1 256.72 24.1
-1 15 2 47.2 10.91
1 15 -2 38.66 8.95
-1 15 -2 42.01 9.06
-1 15 -2 39.14 14.55
15 -1 2 40.89 9.02
15 1 2 43.28 9.56
1 15 -2 68.39 19.89
-1 15 2 40.48 14.5
15 -1 -2 39.04 8.53
15 1 -2 49 9.86
1 15 2 49.74 10.33
-1 15 3 268.99 36.73
15 -1 3 364 26.93
15 1 3 340.12 25.65
15 -1 -3 357.76 26.84
15 1 -3 318.42 25.75
-1 15 -3 279.84 39.82
1 15 3 346.4 29.1
1 15 -3 233.43 32.95
-1 15 3 385.81 29.3
1 15 -3 325.64 24.9
-1 15 -3 338.48 27.01
-1 15 -4 215.76 21.27
1 15 4 310.83 27.31
-1 15 4 170.8 29.61
1 15 -4 215.77 34.56
15 -1 4 195.87 21.55
15 1 4 278.66 23.94
15 -1 -4 242.51 21.6
15 1 -4 272.01 23.21
-1 15 4 241.11 24.62
-1 15 -4 162.46 33.1
1 15 -4 259.31 22.56
-1 15 5 182.02 30.43
-1 15 -5 236.2 22.25
15 -1 5 257.42 23.57
15 1 5 247.17 23.61
1 15 -5 206.27 34.15
15 -1 -5 241.61 21.74
15 1 -5 229.97 22.05
1 15 5 244.12 24.35
-1 15 5 266.77 25.62
-1 15 -5 184.78 30.63
-1 15 -6 571.84 34.44
15 -1 6 580.49 36.62
15 1 6 660 38.73
-1 15 -6 684.91 69.97
1 15 6 628.16 41.89
1 15 -6 538.54 57.05
15 -1 -6 549.53 33.95
15 1 -6 658.79 37.5
-1 15 6 599.52 39.28
-1 15 -7 160.23 17.81
15 1 7 191.38 22.87
1 15 7 191.67 23.4
15 -1 -7 154.75 18.87
1 15 -7 97.33 19.09
15 1 -7 186.38 20.8
-1 15 -7 177.81 36.98
-1 15 7 166.33 21.63
15 -1 -8 14.56 8.36
-1 15 8 3.05 6.14
-1 15 -8 -2.12 11.49
1 15 8 -0.32 6.25
15 1 -8 8.26 8.04
1 15 -8 -1.91 9.36
-1 15 9 81.31 18.29
1 15 -9 33.21 18.7
15 -1 -9 38.42 10.07
15 1 -9 -0.89 9.43
1 15 9 52.46 14.72
-1 15 -9 75.72 29.21
1 15 -10 503.79 60.46
1 15 10 602.12 44.89
-1 15 -10 450.76 59.97
15 -1 -10 331.23 27.35
15 1 -10 358.97 28.91
-1 15 10 547.38 42.22
15 1 -11 89.91 15.91
-1 15 11 131.6 22.43
1 15 11 105.75 19.99
15 -1 -11 66.17 12.19
15 -1 -12 116.01 15.42
15 1 -12 201.99 23.03
1 15 12 189.86 25.62
-1 15 12 180.36 24.52
15 -1 -13 169.85 20.1
15 1 -13 177.48 22.12
-1 -15 -13 232.14 31.64
1 -15 -14 152.09 24.63
15 -1 -14 131.31 17.2
15 1 -14 163.6 20.46
-1 -15 -14 196 28.84
1 -15 -15 144.91 23.06
15 -1 -15 110.57 15.49
15 1 -15 139.98 17.99
-1 -15 -15 131.45 21.02
1 -15 -16 376.98 33.81
-1 -15 -16 421.94 36.56
15 -1 -16 303.23 23.17
15 1 -16 355.49 26.38
1 -15 -17 160.57 20.93
-1 -15 -17 161.74 21.62
15 1 -17 128.23 14.59
1 -15 -18 1.63 5.04
-1 -15 -18 9.32 4.94
15 1 -18 3.27 4.13
1 -15 -19 49.63 9.57
-1 -15 -19 47.31 9.6
-2 15 0 195.38 33.79
15 -2 0 234.52 20.63
15 2 0 169.56 19.18
2 15 0 167.91 20.13
-2 15 0 233.44 24.14
2 15 -1 41.2 9.39
-2 15 1 42.04 10.41
-2 15 -1 46.45 10.61
15 -2 1 47.5 10.13
15 2 1 48.95 10.16
15 -2 -1 39.82 8.29
15 2 -1 50.14 9.63
-2 15 1 46.15 16.25
-2 15 -1 18.39 10.67
2 15 1 50.53 11.06
-15 2 2 242.55 34.58
-2 15 -2 139.27 25.25
-2 15 2 217.43 34.07
15 -2 2 240.44 21.59
15 2 2 181.84 18.35
15 -2 -2 233.33 21.58
15 2 -2 177.13 20.1
-2 15 -2 226.69 23.36
2 15 2 178.93 19.96
-2 15 2 240.24 24.05
2 15 -2 166.65 18.23
-2 15 -3 90.77 14.22
-2 15 3 101.09 15.83
-15 2 3 67.1 18.78
15 2 3 125.78 16.55
-2 15 -3 54.6 20.08
15 -2 3 88.15 14.37
-2 15 3 58.49 18.61
15 -2 -3 107.08 14.58
15 2 -3 122.78 15.98
2 15 3 127.87 18.77
2 15 -3 113.08 14.63
-2 15 -4 88.58 14.23
-2 15 4 93.72 15.99
15 -2 4 92.88 14.15
-2 15 4 62.15 17.19
15 2 4 84.87 13.88
15 -2 -4 77.08 13.11
-2 15 -4 127.43 30.85
15 2 -4 77.15 12.91
2 15 4 88.78 14.32
-2 15 -5 582.42 35.9
15 -2 5 600.42 36.16
15 2 5 807.55 40.69
15 -2 -5 599.63 34.11
15 2 -5 771.62 40.08
2 15 5 732.25 43.8
-2 15 5 645.48 40.5
-2 15 -5 669.62 66.28
-2 15 5 430.26 49.85
-2 15 -6 42.97 18.87
-2 15 -6 40.77 8.86
-2 15 6 23.07 11.75
15 -2 6 29.79 8.77
15 2 6 47.98 12.82
15 -2 -6 44.75 9.77
15 2 -6 45.64 10.09
2 15 6 42.17 11.67
-2 15 6 29.19 9.08
15 2 7 242.39 25.03
2 15 7 262.26 27.41
-2 15 -7 191.22 38.55
15 -2 -7 183.58 19.84
15 2 -7 237.28 24.34
-2 15 7 198.6 23.14
15 -2 -8 21.23 4.84
15 2 -8 64.22 14.14
2 15 8 58.17 14.59
-2 15 8 70.61 16.23
-2 15 -8 58.71 25.3
15 -2 -9 72.13 13.54
-2 15 -9 98.35 30.54
-2 15 9 122.25 19.67
2 15 9 129.69 21.25
15 2 -9 73.93 11.52
-2 15 -10 176.16 41.52
15 -2 -10 110.98 16.99
2 15 10 137.95 22.84
-2 15 10 171.05 24.59
-2 15 11 186.7 24.77
15 -2 -11 139.21 18.59
15 2 -11 213.56 24.74
2 15 11 227.18 28.24
15 -2 -12 142.93 18.84
15 2 -12 167.01 22.41
2 -15 -12 299.46 36.1
-2 15 12 256.16 29.81
15 2 -13 55.8 13.18
-2 15 13 37 12.18
2 -15 -13 45.47 14.26
15 2 -14 21.67 8.93
15 -2 -14 13.74 7.71
2 -15 -14 21.14 10.53
-2 -15 -14 28.67 12.63
2 -15 -15 383.87 35.66
15 -2 -15 319.33 24.32
-2 -15 -15 507.57 44.84
15 2 -15 433.26 32.11
2 -15 -16 36.93 11.92
15 2 -16 42.3 10.05
-2 -15 -16 38.88 10.59
2 -15 -17 197.18 22.85
-2 -15 -17 255 27.01
15 2 -17 204.98 19.05
2 -15 -18 46.1 10.26
-2 -15 -18 43.37 10.49
15 2 -18 32.47 7.03
-2 -15 -19 13.83 6.12
-3 15 0 43.5 11.25
15 -3 0 46.26 10.13
15 3 0 48.22 11.88
-15 3 0 25.85 12.34
3 15 0 51.33 12
-3 15 1 175.58 30.91
15 -3 1 154.23 17.38
15 -3 -1 158.77 16.89
15 3 1 125.66 16.05
-3 15 -1 158.16 34.72
15 3 -1 123.05 16.58
-15 3 1 129.44 24
-15 3 -1 74.38 20.96
3 15 1 126.22 16.54
3 15 -1 107.65 14.37
-3 15 1 159.62 20.84
-3 15 -1 162.44 20.37
-3 15 -2 109.12 15.97
-3 15 -2 92.95 25.22
15 -3 2 85.31 14.31
15 3 2 99.97 14.26
-15 3 2 71.93 18.7
15 -3 -2 102.05 13.25
15 3 -2 104.86 14.83
-3 15 2 52.3 8.72
3 15 2 112.53 16.25
-3 15 2 110.11 16.49
-3 15 3 69.4 14.21
-3 15 -3 61.12 12.95
-15 3 3 53.45 17.98
-3 15 -3 69.83 22.91
15 -3 3 73.32 12.74
-3 15 3 36.85 12.09
15 3 3 50.64 11.27
15 -3 -3 37.76 10.48
15 3 -3 37.1 9.96
3 15 3 49.79 11.55
-3 15 4 330.88 43.67
-3 15 -4 451.47 32.89
15 -3 4 463.59 31.22
15 3 4 623 36.85
15 -3 -4 487 29.61
15 3 -4 638.88 35.96
-3 15 -4 492.56 55.9
3 15 4 641.52 38.89
-3 15 4 501.85 35.83
15 -3 5 23.85 10.84
15 3 -5 17.29 7
15 3 5 19.6 7.77
15 -3 -5 32.09 9.28
-3 15 -5 35.04 15.58
3 15 5 37.17 11.47
-3 15 5 28.07 8.11
-3 15 -6 463.03 58.11
15 3 6 580.99 36.66
15 -3 -6 432.42 28.8
15 3 -6 593.92 36.48
-3 15 6 375.79 50.12
3 15 6 568.27 40.2
-3 15 6 461.26 35.02
15 3 7 -9.56 9.4
-3 15 -7 7.79 10.6
-3 15 7 2.73 5.41
15 -3 -7 15.53 7.74
15 3 -7 -3.46 4.63
3 15 7 -6.99 8.36
15 3 -8 37.8 11.53
15 -3 -8 26.48 8.1
-3 15 -8 24.88 11
3 15 8 32.61 12.51
-3 15 8 36.37 11.65
-3 15 -9 126.18 37.29
15 -3 -9 84.07 13.55
15 3 -9 133.61 19.91
3 15 9 144.36 22.99
-3 15 9 159.98 23.51
15 -3 -10 19.05 7.73
3 15 10 68.15 16.14
15 3 -10 64.12 14.26
-3 15 10 55.1 13.86
-3 15 -10 34.77 17.7
15 -3 -11 280.28 25.57
15 3 -11 237.6 25.79
3 15 11 227.39 31.26
-3 15 11 322.37 34.23
15 -3 -12 73.32 12.33
-3 15 12 72.75 15.59
15 3 -12 78.7 14.39
3 -15 -12 99.2 19.37
15 3 -13 -3.25 6.49
-3 15 13 6.37 5.65
3 -15 -13 11.36 9.24
15 -3 -13 -4.11 6.18
3 -15 -14 235.07 28.7
15 3 -14 294.92 27.49
3 -15 -15 8.27 7.24
-3 -15 -15 -2.77 6.87
15 3 -15 8.35 6.03
3 15 -15 4.13 8.45
3 -15 -16 326.92 29.92
15 3 -16 387.05 28.25
3 15 -16 332.57 24.2
3 -15 -17 -4.42 5.68
-3 -15 -17 -10.79 7.31
15 3 -17 -3.43 4.52
3 -15 -18 58.38 11.24
-3 -15 -18 68.87 13.67
15 3 -18 46.96 8.63
-3 -15 -19 21.06 6.7
-15 4 0 279.71 37.93
-4 15 0 370.71 46.93
15 -4 0 271.42 21.31
15 4 0 292.93 23.5
4 15 0 282.73 23.41
-4 15 0 322.2 26.84
-4 15 -1 167.66 20.47
-4 15 1 167.87 32.89
15 -4 1 139.26 15.9
-15 4 -1 141.93 28.03
15 -4 -1 128.47 14.85
15 4 1 110.85 15.57
-4 15 -1 184.19 35.94
15 4 -1 111.64 15.77
-15 4 1 107.64 24
4 15 1 114.05 15.05
-4 15 1 172.44 20.19
-4 15 2 60.69 12.68
-4 15 -2 59.86 13.92
-15 4 2 51.38 18.13
15 -4 2 53.53 10.75
15 4 2 35.09 9.39
-4 15 2 71.1 22.51
15 -4 -2 47.36 11.23
15 4 -2 32.26 9.38
4 15 2 43.68 9.93
-15 4 -2 51.66 17.97
-4 15 -2 59.3 22.76
-4 15 -3 540.87 35.47
-4 15 3 534.72 59.69
15 -4 3 520.5 31.32
15 4 3 594.32 33.79
15 -4 -3 495.11 28.69
15 4 -3 602.92 34.49
-15 4 -3 477.22 48.89
-4 15 -3 575.42 58.93
-4 15 3 536.46 35.51
4 15 3 607.59 36.49
-15 4 3 426.12 50.21
-4 15 4 195.69 35.44
-15 4 4 151.26 31.1
-4 15 -4 170.39 20.01
15 -4 4 172.62 18.59
15 4 4 160.13 17.25
-4 15 -4 177.81 33.84
15 -4 -4 152.01 17.52
-15 4 -4 173.51 29.33
15 4 -4 169.67 19.02
4 15 4 174.56 20.01
-4 15 4 188.17 21.19
15 -4 5 424.1 30.34
15 4 5 571.07 34.96
4 15 5 586.84 38.71
15 4 -5 584.78 35.93
-4 15 5 452.44 53.23
-4 15 -5 492.98 58.52
-4 15 5 464.64 34.76
-4 15 6 141.39 33.2
15 4 6 131.08 18.59
-4 15 -6 142.7 35.22
15 4 -6 118.38 16.89
-4 15 6 147.92 20.44
4 15 6 141.93 20.12
15 4 7 175.19 21.28
-4 15 -7 131.11 34.12
15 4 -7 167.1 20.95
4 15 7 182.55 25.32
-4 15 7 142.67 20.68
-4 15 -8 19.74 12.93
15 4 -8 32.01 10.59
4 15 8 37.87 12.37
-4 15 8 32.17 10.19
-4 15 -9 12.34 14.2
4 15 9 8.59 9.42
15 4 -9 10.47 8.42
-4 15 9 14.62 11.3
15 4 -10 236.72 25.51
4 15 10 277.19 31.16
-4 15 10 338.02 34.78
15 4 -11 209.57 23.83
4 -15 -11 202.81 26.91
-4 15 11 226.21 28.08
15 4 -12 30.33 10.1
-4 15 12 37.63 12.89
4 -15 -12 62.85 17.25
4 -15 -13 165.23 24.15
15 4 -13 163.85 21.07
-4 15 13 170.97 23.25
4 15 -13 163.08 18.56
15 4 -14 33.06 9.4
4 -15 -14 36.17 11.59
-4 -15 -14 33.67 12.53
4 15 -14 27.72 7.42
4 -15 -15 237.92 27.88
15 4 -15 277.66 25.58
4 15 -15 245.87 22.54
15 4 -16 47.36 10.4
-4 -15 -16 66.15 15.86
4 -15 -16 63.8 13.32
4 15 -16 58.24 10.49
4 -15 -17 112.71 15.73
-4 -15 -17 176.36 22.3
15 4 -17 159.24 16.92
4 15 -17 140.09 14.02
4 -15 -18 8.65 4.06
-4 -15 -18 7.47 4.31
15 4 -18 9.02 4.06
-4 -15 -19 29.07 7.41
15 5 0 39.08 10.39
-15 5 0 34.09 15.6
-5 15 0 52.85 21.61
-5 15 0 83.63 16.18
-15 5 1 312.64 40.88
-5 15 1 407.03 50.32
15 -5 1 336.03 24.01
-15 5 -1 307.95 40.71
-5 15 -1 431.85 52.2
15 5 1 335.93 24.88
15 5 -1 351.92 26.51
5 15 1 339.45 26.08
-5 15 -1 391.2 30.52
-5 15 1 410.97 30.98
-15 5 2 400.02 50.56
15 -5 2 405.98 27.61
15 5 2 364.12 25.71
-15 5 -2 411.95 47.32
-5 15 -2 422.18 53.14
15 5 -2 403.62 28.36
-5 15 -2 490.25 33.24
5 15 2 367.24 27.8
-5 15 2 514.8 57.93
-5 15 2 430.65 32.05
-5 15 3 74.54 14.65
-15 5 -3 65.31 19.01
-5 15 -3 53.5 19.93
-15 5 3 75.78 22.98
15 -5 3 66.04 12.27
-5 15 3 91.05 24.61
15 5 3 57.46 11.15
15 5 -3 51.27 10.3
-5 15 -3 76.41 14.54
5 15 3 66.16 12.35
-5 15 4 260.18 42.7
15 -5 4 226.24 22.11
15 5 4 289.72 23.79
15 5 -4 300.06 24.91
-5 15 -4 268.12 43.9
-15 5 -4 229.66 37.06
5 15 4 318.08 28.19
-5 15 4 267.66 26.3
-15 5 4 238.84 40.49
15 5 5 421.88 30.01
15 5 -5 427.28 30.78
-5 15 -5 488.54 60.39
-15 5 -5 417.7 49.51
5 15 5 475.26 35.83
-5 15 5 492.26 35.88
-5 15 5 495.13 58.45
-5 15 6 166.76 21.2
-5 15 6 126.72 31.82
15 5 6 193.97 22.04
15 5 -6 196.63 21.93
5 15 6 214.75 25.42
-5 15 -6 156.42 34.96
-15 5 -6 121.08 28.2
-5 15 -7 36.96 23.66
15 5 7 26.27 9.74
15 5 -7 32.14 10.25
5 15 7 29.49 10.55
-5 15 7 21.01 8.63
-5 15 -8 82.8 28.93
5 15 8 71.78 16.3
15 5 -8 78.32 15
-5 15 8 75.23 14.3
-5 15 9 150.06 24.01
15 5 -9 121.92 18.34
5 15 9 135.73 21.7
-5 15 -9 140.32 36.85
15 5 -10 353.97 30.9
5 15 10 369.72 35.56
5 -15 -10 319.27 33.11
-5 15 10 428.59 36.65
15 5 -11 191.63 22.56
5 -15 -11 143.02 22.19
-5 15 11 162.92 23.18
5 15 -12 177.66 20.6
5 -15 -12 181.22 25.04
15 5 -12 178.3 23.92
-5 15 12 216.79 28.3
-5 15 13 9.99 7.48
5 -15 -13 9.97 7.77
15 5 -13 9.85 6.31
5 15 -13 14.7 6.12
5 15 -14 135.54 16.96
5 -15 -14 139.15 21.42
15 5 -14 141.68 19.19
-5 -15 -14 183.42 28.19
5 -15 -15 122.06 18.72
15 5 -15 126.46 17.39
5 15 -15 114.51 15.43
-5 -15 -15 132.49 21.7
5 -15 -16 68.48 13.14
-5 -15 -16 118.11 19.82
15 5 -16 96.89 14.63
5 15 -16 93.93 13
5 -15 -17 103.37 14.58
-5 -15 -17 104.19 16.75
15 5 -17 96.59 13.03
5 15 -17 85.88 11.06
-5 -15 -18 55.23 11.3
15 5 -18 53.4 9.11
-6 15 0 784.58 43.52
-15 6 0 688.46 64.87
-6 15 0 858.35 76.4
15 6 0 645.07 35.58
-6 15 -1 224.13 23.9
-6 15 1 219.23 39.47
-15 6 -1 153.41 28.11
15 6 1 134.02 16.55
-6 15 -1 195.8 35.64
15 6 -1 149.16 17.82
-15 6 1 111.35 24.99
6 15 1 151.21 17.33
-6 15 1 189.47 23.1
-6 15 -2 124.41 18.82
15 6 2 150.18 17.31
-15 6 2 89.39 21.56
15 6 -2 133.55 17.68
-6 15 2 89.77 23.42
6 15 2 161.18 19.39
-15 6 -2 73.11 22.73
-6 15 -2 135.59 29.2
-6 15 2 125.32 17.21
-15 6 -3 126.34 29.52
-6 15 -3 106.96 27.83
-6 15 -3 141.63 19.72
15 6 3 107.02 15.64
-15 6 3 102.39 26.8
-6 15 3 161.21 33.9
15 6 -3 104.31 15.64
6 15 3 121.76 17.68
-6 15 3 112.87 19.11
-6 15 4 284.86 45.3
15 6 4 241.64 22.83
6 15 4 268.23 26.67
15 6 -4 232.52 22.68
-6 15 -4 295.01 47.39
-15 6 -4 240.83 41
-6 15 4 270.72 27.81
-15 6 4 241.72 40.85
-6 15 5 78.31 21.38
15 6 5 61.66 11.98
-6 15 -5 86.8 26.15
-15 6 -5 72.19 21.69
15 6 -5 72.92 12.5
6 15 5 92.93 17.12
-6 15 5 70.35 15.14
15 6 6 185.38 21.22
15 6 -6 200.22 21.87
6 15 6 218.12 25.6
-6 15 6 220.9 25.46
-6 15 -6 236.99 44.38
-15 6 -6 189.24 38.07
-6 15 6 214.17 42.45
-6 15 -7 41.23 22.07
-6 15 7 77.58 26.84
6 15 7 72.23 15.79
15 6 7 62.16 14.39
-15 6 -7 49.48 23.21
-6 15 7 46.98 12.62
15 6 -7 45.77 11.01
-6 15 -8 9.31 15.36
6 15 8 11.12 9.99
15 6 -8 12.49 8.61
-6 15 8 1.49 6.66
-6 15 -9 332.1 57.21
15 6 -9 278.88 28.12
6 15 9 333.03 33.29
-6 15 9 331.35 30.87
15 6 -10 380.6 31.76
6 -15 -10 362.27 34.53
-6 15 10 334.9 32.46
6 -15 -11 230.14 27.66
15 6 -11 199.32 24.45
6 15 -11 195.99 21.92
-6 15 11 215.26 27.3
6 -15 -12 203.87 26.15
15 6 -12 231.7 26.15
6 15 -12 224.18 21.86
-6 15 12 193.59 24.24
6 -15 -13 53.15 14.31
-6 15 13 55.81 14.92
15 6 -13 40.5 10.78
6 15 -13 33.31 9.97
6 -15 -14 16.49 8.7
15 6 -14 6.76 6.42
6 15 -14 18.38 7.1
-6 -15 -14 16.38 12.94
6 -15 -15 29.99 9.66
-6 -15 -15 29.5 9.49
6 15 -15 21.12 6.07
15 6 -15 22.77 7.46
6 -15 -16 160.6 18.49
6 15 -16 154.96 16.56
-6 -15 -16 200.14 24.93
15 6 -16 180.56 19.08
-6 -15 -17 8.28 5.56
15 6 -17 10.8 4.71
6 15 -17 21.66 6.88
-6 -15 -18 10.36 6.34
15 6 -18 2.25 2.66
-7 15 0 221.79 41.2
15 7 0 114.66 16.55
-15 7 0 181.77 34.31
-7 15 0 207.39 23.1
-7 15 -1 653.31 40.57
-15 7 1 493.17 55.33
-7 15 1 635.63 65.91
-15 7 -1 518.82 57.76
-7 15 -1 630.09 65.87
15 7 1 598.35 34.81
15 7 -1 621.63 36.26
-7 15 1 649.49 40.24
-7 15 2 23.27 9.76
-7 15 -2 24.89 9.56
-15 7 2 28.45 18.77
15 7 2 18.2 7.71
-7 15 2 31.94 18.97
15 7 -2 22.67 8.17
7 15 2 33.22 9.64
-15 7 -2 17.06 13.68
-7 15 -2 26.57 16.76
-15 7 -3 11.79 13.87
-7 15 3 -1.63 5.55
-7 15 -3 -3.84 12.5
-15 7 3 7.85 11.43
-7 15 3 9.62 13.19
15 7 3 9.53 6.96
15 7 -3 1.6 6.57
7 15 3 11.52 7.69
-7 15 4 12.89 9.59
-15 7 4 3.53 11.43
-7 15 -4 -0.48 14.55
-15 7 -4 9.01 12.5
-7 15 4 20.78 15.92
15 7 4 0.64 6.27
15 7 -4 -0.29 6.17
7 15 4 16.41 9.24
-7 15 5 131.92 32.36
15 7 5 106.87 16.1
-7 15 5 133.81 18.97
-15 7 5 112.55 32.14
-7 15 -5 164.21 37.28
-15 7 -5 121.9 29.64
15 7 -5 132.42 16.89
7 15 5 143.02 20.28
-7 15 6 4 11.81
15 7 6 2.29 7.18
-7 15 -6 -17.71 17.81
-15 7 -6 -16.23 16.62
15 7 -6 0 5.16
-7 15 6 7.35 7.03
-15 7 -7 20.28 13.43
-7 15 7 9.8 17.61
15 7 7 40.01 13.07
15 7 -7 21.67 8.82
7 15 7 -18.92 12.26
-7 15 7 24.3 9.3
-7 15 -7 24.41 17.15
-7 15 -8 79.11 29.96
-15 7 -8 67.07 25.61
7 15 8 50.64 11.58
15 7 -8 62.75 15.28
-7 15 8 94.27 17.86
15 7 -9 421.9 33.35
-7 15 9 353.99 31.95
7 15 -10 122.08 15.59
15 7 -10 98.74 17.96
-7 15 10 125.69 20.56
15 7 -11 568.93 39.73
7 15 -11 575.58 35.21
-7 15 11 466.38 37.41
7 15 -12 62.9 12.07
-7 15 12 54.06 14.8
15 7 -12 65.92 14.04
-7 15 13 59.88 13.17
15 7 -13 63.01 13.44
7 15 -13 71.41 12.12
15 7 -14 10.9 6.53
7 15 -14 16.54 7.8
-7 -15 -14 1.45 8.1
-7 -15 -15 82.82 17.56
7 15 -15 51.18 9.47
15 7 -15 61.41 12.18
15 7 -16 7.44 4.45
7 15 -16 3.18 3.79
-7 -15 -17 45.37 10.91
15 7 -17 48.01 8.9
7 15 -17 40.56 7.07
-7 -15 -18 1.43 4.33
15 7 -18 1.14 2.57
-8 15 0 1092.54 53.05
-15 8 0 904.06 77.61
-8 15 0 1110.57 87.85
15 8 0 1082.31 45.76
-8 15 1 29.07 10.54
-8 15 -1 43.48 11.5
-8 15 -1 54.25 22.7
15 8 1 13.98 7.1
-15 8 1 41.76 15.8
15 8 -1 27.38 6.5
-8 15 1 22.9 11.5
-15 8 -1 30.59 16.02
-8 15 -2 209.89 24.89
15 8 2 188.59 20.12
-15 8 2 161.65 36.7
15 8 -2 182.09 20.61
-8 15 2 175.81 37.95
-15 8 -2 156.44 34.6
-8 15 -2 194.92 38.04
-8 15 2 201.26 23.63
-15 8 -3 0.63 13.1
-8 15 3 3.73 6.27
-8 15 -3 -4.8 14.4
-15 8 3 -3.5 12.09
15 8 3 1.33 5.28
-8 15 3 -10.1 14.39
15 8 -3 -5.54 6.75
8 15 3 9.45 6.7
-8 15 4 5.07 8.44
-15 8 4 -6.6 10.6
-8 15 -4 -0.89 12.03
-15 8 -4 -6.17 13.99
-8 15 4 1.35 12.42
15 8 4 0.84 6.05
15 8 -4 5.71 5
8 15 4 13 7.75
-8 15 5 1.03 6.14
-15 8 5 0.79 13.52
-8 15 5 0.33 13.63
15 8 5 5.94 6.02
-8 15 -5 8.35 16.6
-15 8 -5 9.1 15.66
15 8 -5 15.36 7.47
8 15 5 26.71 9.14
-8 15 6 30.25 21
15 8 6 42.12 12.62
-8 15 -6 27.19 18.02
15 8 -6 37.83 9.97
-15 8 -6 20.77 11.34
8 15 6 51.05 14.35
-8 15 6 22.16 9.72
-15 8 -7 14.13 12.02
-8 15 7 4.27 12.56
-8 15 -7 36.33 18.2
15 8 7 19.41 11.9
15 8 -7 21.65 10.72
-8 15 7 25.51 11.26
-8 15 8 129.71 35.88
-8 15 -8 145.12 36.82
-15 8 -8 115.18 32.23
15 8 -8 159.81 20.68
-8 15 8 154.3 20.72
15 8 -9 5.8 7.66
8 15 -9 9.19 5.73
-8 15 9 2.48 6.41
15 8 -10 786.38 45.46
8 15 -10 772.68 40.94
8 15 -11 15.64 6.53
15 8 -11 9.2 6.13
-8 15 11 4.59 7.03
15 8 -12 380.17 31.61
8 15 -12 374.71 28.37
-8 15 12 321.35 30.28
15 8 -13 -4.81 7.1
8 15 -13 -1.56 4.75
8 15 -14 5.14 3.55
-8 -15 -14 9.66 10.06
15 8 -14 6.23 6.01
15 8 -15 5.29 4.54
-8 -15 -15 5.41 7.7
8 15 -15 5.79 5.1
15 8 -16 57.73 10.75
-8 -15 -16 54.8 12.84
8 15 -16 52.33 8.91
-8 -15 -17 -0.28 4.32
8 15 -17 -2.16 3.47
15 8 -17 5.52 4.32
15 8 -18 0.42 2.81
-9 15 0 -5.35 9
15 9 0 4.45 4.82
-15 9 0 6.99 13.7
-9 15 0 3.44 16.52
-9 15 -1 516.92 37.29
-15 9 1 364.39 49.67
-9 15 1 417.71 56.88
-15 9 -1 395.21 54.65
-9 15 -1 419.79 58.46
15 9 1 475.08 30.48
15 9 -1 517.64 32.96
-9 15 1 507.15 36.6
-9 15 2 11.68 7.75
-9 15 -2 -0.2 5.92
15 9 2 7.36 5.28
-15 9 2 6.54 15.73
-9 15 2 0.3 11.19
15 9 -2 -2.63 6.8
-15 9 -2 -7.11 13.33
-9 15 -2 7.11 11.03
-15 9 -3 40.25 16.33
-9 15 3 72.89 15.4
-15 9 3 51.85 23.64
15 9 3 48.09 11.73
-9 15 3 66.5 29.22
-9 15 -3 40.64 17.24
15 9 -3 48.71 11.16
-9 15 4 12.22 7.98
-9 15 -4 8.23 16.23
-15 9 -4 28.38 14.23
-15 9 4 0.16 10.33
15 9 4 15.85 8.01
-9 15 4 16.23 16.97
15 9 -4 19.2 8.05
9 15 4 15.69 7.28
-9 15 5 43.57 13.15
-15 9 5 1.23 12.93
-9 15 5 31.14 23.78
15 9 5 28.15 11.23
-9 15 -5 21.54 18.42
-15 9 -5 10.93 14.55
15 9 -5 28.72 10.85
-9 15 6 2.48 11.84
15 9 6 31.63 11.33
-9 15 -6 -25.19 19.81
15 9 -6 18.83 8.81
-15 9 -6 23.04 21.39
-15 9 6 -1.01 10.38
-9 15 6 18.79 8.11
-15 9 -7 41.91 23.29
-9 15 7 50.61 27.16
15 9 7 55.21 13.56
15 9 -7 44.77 12.96
-9 15 -7 70.79 26.6
-9 15 7 87.38 15.81
15 9 -8 8.27 6.32
9 15 -8 -0.46 4.68
-9 15 8 1.04 6.85
15 9 -9 500.41 36.18
9 15 -9 520.04 32.87
-9 15 9 422.08 34.85
9 15 -10 7.36 3.92
15 9 -10 0.27 4.88
-9 15 10 3.51 5.24
15 9 -11 692.46 41.91
9 15 -11 667.8 37.81
15 9 -12 -4.82 7.16
9 15 -12 6.93 5.49
15 9 -13 60.66 12.67
9 15 -13 64.17 11.8
-9 -15 -13 69.21 17.25
15 9 -14 11.43 7.22
9 15 -14 4.02 3.4
-9 -15 -14 4.23 6.25
15 9 -15 32.89 9.73
-9 -15 -15 41.56 12.19
9 15 -15 25.9 7.7
-9 -15 -16 -0.32 4.54
15 9 -16 2.49 3.97
9 15 -16 6.53 3.96
-9 -15 -17 7.58 6.08
15 9 -17 10.17 4.55
-10 15 0 194.84 23.92
15 10 0 216.77 20.92
-15 10 0 121.83 29.15
-10 15 0 119.29 33.21
-10 15 1 35.44 12.19
-10 15 -1 35.05 11.73
-15 10 1 18.9 9.94
15 10 1 24.38 9.09
15 10 -1 16.61 7.94
-15 10 1 4.39 11.32
-10 15 1 32.55 24.12
-15 10 -1 14.5 18.37
-10 15 -1 28.73 19.67
-15 10 2 160.75 20.2
-10 15 -2 183.54 23.96
15 10 2 150.82 17.38
15 10 -2 155.18 18.89
-15 10 2 106.51 30.54
-10 15 2 158.49 37.15
-15 10 -2 127.04 30.47
-10 15 -2 131.73 33.59
-10 15 2 161.7 21.66
-10 15 3 -2.78 7.73
-15 10 -3 13.01 12.95
-10 15 -3 10.76 16.47
15 10 3 -4.52 7.06
-15 10 3 5.99 11.3
-10 15 3 -1.61 13.51
15 10 -3 -7.49 5.58
-10 15 -4 38.11 20.54
-15 10 -4 45.92 23.74
-15 10 4 35.71 25.35
15 10 4 29.09 9.95
-10 15 4 24.62 18.11
15 10 -4 36.3 11.78
-10 15 4 102.01 19.07
-10 15 5 25.68 9.76
-15 10 5 -3.56 12.96
15 10 5 9.18 8.85
-10 15 5 12.22 17.62
-10 15 -5 8.94 16.05
-15 10 -5 1.23 17.45
15 10 -5 12.17 7.84
15 10 6 125.71 18.92
-15 10 6 68.8 26.93
-10 15 6 101.48 34.01
15 10 -6 117.25 18.4
-10 15 -6 118.51 33.7
-15 10 -6 69.38 27.57
-10 15 6 157.71 22.6
15 10 -7 12.73 7.09
10 15 -7 7.95 5.72
-10 15 7 4.51 6.17
15 10 -8 149.08 19.88
10 15 -8 147.33 17.1
-10 15 8 145.23 20.44
15 10 -9 57.08 12.03
10 15 -9 51.47 10.25
-10 15 9 58.14 12.97
15 10 -10 463.77 34.15
10 15 -10 432.8 29.57
15 10 -11 23.35 9.96
10 15 -11 23.32 7.71
15 10 -12 125.31 18.09
10 15 -12 105.06 14.52
15 10 -13 8.2 4.48
10 15 -13 1.84 4.3
-10 -15 -13 2.01 6.32
15 10 -14 8.54 4.92
-10 -15 -14 17.91 9
10 15 -14 13.63 5.44
15 10 -15 34.09 8.52
10 15 -15 40.12 7.76
-10 -15 -15 26.2 9.13
-10 -15 -16 25.36 9.4
15 10 -16 36.26 8.52
10 15 -16 22.21 5.89
15 10 -17 -4.49 4.22
-11 15 0 204.72 26.1
-15 11 0 219.01 25.4
-11 15 0 230.33 44.39
15 11 0 148.47 17.92
-15 11 0 171.03 37.77
-15 11 1 14.63 7.7
-11 15 -1 11.39 7.82
15 11 1 22.9 8.17
-11 15 -1 8.78 16
15 11 -1 13.07 7.33
-15 11 1 -3.26 12.79
-11 15 1 14.56 15.94
-11 15 1 9.1 6.9
-15 11 -1 -0.29 12.57
-11 15 2 -5.84 7.48
-15 11 2 10.09 6.32
-11 15 -2 10.24 8.34
15 11 2 0.56 5.13
-15 11 2 4.24 13.92
-11 15 2 12.1 17.4
15 11 -2 9.66 7.65
-15 11 -2 7.56 13.05
-11 15 -2 -0.02 10.91
-11 15 3 88.05 17.38
-15 11 3 51.48 12.74
-15 11 -3 60.04 24.69
-11 15 -3 41.94 22.74
15 11 3 36.53 11.07
-15 11 3 50.28 21
-11 15 3 66.31 27.85
15 11 -3 45.54 11.46
-11 15 4 108.52 17.86
-11 15 -4 113.19 30.77
-15 11 -4 87.73 30.66
15 11 4 80.76 14.13
-15 11 4 75.91 27.49
-11 15 4 82.11 27.81
15 11 -4 99.36 14.7
15 11 5 100.17 16.56
-15 11 5 81.88 31.29
-11 15 -5 123.94 37.57
-15 11 -5 95.45 31.1
15 11 -5 112.75 16.48
-11 15 5 175.68 24.11
15 11 6 259.47 24.74
15 11 -6 261.2 23.98
11 15 -6 281.55 22.38
-11 15 6 282.85 28.75
15 11 -7 52.92 11.93
11 15 -7 43.92 9.78
-11 15 7 47.28 12.95
15 11 -8 20.27 8.58
11 15 -8 17.54 7.35
-11 15 8 4.73 7.15
15 11 -9 69.25 13.45
11 15 -9 65.81 11.97
-11 15 9 69.42 14.32
15 11 -10 46.33 10.87
11 15 -10 57.55 10.72
15 11 -11 73.4 14.3
11 15 -11 61.35 11.45
15 11 -12 50.33 11.89
11 15 -12 37.98 9.32
11 15 -13 3.84 4.78
15 11 -13 11.33 7.15
-11 -15 -13 13.04 7.4
11 15 -14 66.77 10.76
15 11 -14 60.39 11.75
-11 -15 -14 72.22 15.41
15 11 -15 35.12 8.05
11 15 -15 25.8 6.75
-11 -15 -15 14.55 7.34
-11 -15 -16 91.95 13.7
15 11 -16 91.62 11.16
11 15 -16 93.16 10.24
15 11 -17 20.58 5.29
-12 15 0 2.37 6.18
-15 12 0 -2.41 5.72
15 12 0 11.81 6.54
-15 12 0 8.98 10.38
-12 15 0 -6.1 17.17
-15 12 1 100.31 17.13
-12 15 1 102.43 17.7
-12 15 -1 97.14 19.01
15 12 1 94.52 14.54
15 12 -1 90.23 13.31
-15 12 1 92.33 28.89
-12 15 1 69.8 27.62
-15 12 -1 78.7 28.09
-12 15 -1 75.62 29.99
-12 15 2 -0.84 8.21
-15 12 2 2.52 6.57
-12 15 -2 1.54 7.16
15 12 2 13.3 8.25
15 12 -2 9.05 5.69
-15 12 2 -20.28 16.33
-12 15 2 0.22 10.55
-15 12 -2 8.22 18.89
-12 15 -2 39.43 34.26
-12 15 3 89.65 15.81
-15 12 3 89.84 15.3
-15 12 -3 51.41 22.94
15 12 3 88.07 14.03
15 12 -3 92.76 14.31
-15 12 3 67.83 27.94
-12 15 3 77.41 30.95
-12 15 4 80.22 16.17
15 12 4 28.72 7.4
12 15 -4 57.26 10.99
15 12 -4 63.74 11.67
15 12 5 725.17 39.18
12 15 -5 875.33 40.53
15 12 -5 804.25 42.35
-12 15 5 768.22 47.05
15 12 6 22.47 7.96
12 15 -6 37.64 8.36
15 12 -6 41.66 9.95
-12 15 6 44.42 14.13
15 12 -7 279.3 26.28
12 15 -7 299.51 24.4
-12 15 7 238.71 25.4
15 12 -8 7.99 5.61
12 15 -8 5.31 4.74
-12 15 8 -5.75 5.67
15 12 -9 -3.14 5.97
12 15 -9 2.89 3.65
12 15 -10 -8.58 6.46
15 12 -10 -5.25 6.16
15 12 -11 96.6 15.29
12 15 -11 101.25 14.66
12 15 -12 1.81 3.97
15 12 -12 -1.11 4.2
15 12 -13 6.67 5.36
12 15 -13 5.87 4.31
-12 -15 -13 9.3 5.6
-12 -15 -14 -0.66 5.03
15 12 -14 16.75 6.65
12 15 -14 16.74 5.3
-12 -15 -15 212.42 20.72
15 12 -15 261.75 19.44
12 15 -15 256.16 17.7
15 12 -16 21.54 5.81
-13 15 0 84.73 16.21
-15 13 0 74.49 15.24
15 13 0 78.51 12.91
-13 15 1 41.77 13.05
-15 13 1 36.97 11.12
-13 15 -1 25.77 11.43
15 13 1 39.57 10.41
15 13 -1 28.48 9.74
-15 13 -1 26.16 8.63
-13 15 2 -0.8 5.34
-15 13 2 -5.54 7.97
-13 15 -2 3.76 6.68
15 13 2 3.97 6.92
15 13 -2 7.93 6.14
-13 15 3 15.71 8.04
-15 13 3 10.81 6.36
15 13 3 23.75 7.85
13 15 -3 18.65 7.17
15 13 -3 15.83 7.63
15 13 4 642.12 36.38
13 15 -4 729.16 36.09
15 13 -4 682.53 37.8
-13 15 4 663.53 43.94
-15 13 4 681.21 41.34
15 13 5 0.63 6.31
13 15 -5 12.1 6.11
15 13 -5 5.9 4.24
-13 15 5 -3.63 9
13 15 -6 901.69 42.8
15 13 -6 831.05 43.27
-13 15 6 830.51 49.18
13 15 -7 0.11 4.31
15 13 -7 -1.24 6.67
-13 15 7 -12.66 7.65
15 13 -8 106.06 15.77
13 15 -8 112.79 14.97
15 13 -9 11.54 6.18
13 15 -9 14.5 6.13
13 15 -10 73.78 12.53
15 13 -10 65.94 12.91
15 13 -11 29.05 8.7
13 15 -11 28.62 7.94
15 13 -12 12.44 6.28
13 15 -12 2.8 3.75
-13 -15 -12 -1.29 7.1
15 13 -13 16.49 6.91
13 15 -13 5.83 3.99
-13 -15 -13 5.19 4.68
-13 -15 -14 164.9 18.45
15 13 -14 226.56 18.78
13 15 -14 208.98 16.85
15 13 -15 6.81 3.36
13 15 -15 8.58 3.72
-14 15 0 22.68 9.25
-15 14 0 26.23 9.4
15 14 0 30.08 7.87
-14 15 1 25.88 10.49
-15 14 1 21.07 9.48
-14 15 -1 30.23 10.7
-15 14 -1 25.41 9.79
15 14 1 34.59 6.61
15 14 -1 41.21 9.55
-14 15 2 6.42 7.27
-15 14 2 9.83 6.99
-14 15 -2 8.03 8.23
-15 14 -2 8.91 7.58
15 14 2 11.57 6
14 15 -2 16.95 6.09
15 14 -2 11.08 4.02
-14 15 -3 188.05 24.86
15 14 3 131.49 16.48
14 15 -3 154.71 16.51
15 14 -3 154.38 17.39
-14 15 3 141.85 20.09
-15 14 3 147.46 19.31
-14 15 4 2.83 6.37
14 15 -4 6.65 5.08
15 14 -4 7.11 5.06
14 15 -5 805.91 38.95
15 14 -5 770.61 39.56
-14 15 5 755.31 45.52
14 15 -6 -5.87 5.7
15 14 -6 -15.29 6.65
-14 15 6 -14.53 7.54
14 15 -7 516.49 31.24
15 14 -7 499 32.1
14 15 -8 12.25 5.15
15 14 -8 9.09 5.18
14 15 -9 17.82 6.63
15 14 -9 18.41 8
14 15 -10 17.04 7.13
15 14 -10 16.75 6
15 14 -11 64.43 11.53
14 15 -11 63.18 11.05
15 14 -12 8.44 5.51
14 15 -12 0.08 4.2
-14 -15 -12 -2.29 4.56
14 15 -13 36.94 7.34
15 14 -13 38.35 8.57
14 15 -14 3.23 3.19
15 14 -14 2.18 3.61
-14 15 -15 254.2 19.47
15 14 -15 302.77 18.5
-15 15 0 92.3 15.96
15 15 0 118.79 13.13
-15 15 1 -5.39 7.29
-15 15 -1 -4.1 7.78
15 15 -1 -4.71 5.01
-15 15 2 77.6 16.11
-15 15 -2 92.84 18.67
15 15 -2 51.31 10.34
-15 15 3 2.23 5.64
-15 15 -3 2.08 8.19
15 15 -3 -6.77 5.78
-15 15 4 242.52 24.76
15 15 -4 288.75 22.61
15 15 -5 1.77 4.57
-15 15 5 -3.1 6.05
15 15 -6 541.95 31.79
15 15 -7 -1.9 6.68
15 15 -8 25.63 8.95
15 15 -9 0.16 4.69
15 15 -10 113.17 14.39
15 15 -11 -4.34 4.26
15 15 -12 21.68 6.34
15 15 -13 2.25 3.1
15 15 -14 132.76 12.1
16 0 0 1030.01 46.21
0 16 0 1030.32 47.33
0 16 1 56.71 11.83
0 16 -1 52.62 11
0 16 -1 29.66 9.97
16 0 1 48.93 10.18
16 0 -1 49.67 10.41
16 0 -2 102.71 14.13
16 0 2 97.93 14.17
0 16 -2 93.77 13.93
0 16 2 94.73 15.01
16 0 3 214.05 22.56
16 0 -3 214.76 21.37
0 16 3 242.51 24.89
0 16 -3 159.92 29.96
0 16 -3 197.33 20.83
0 16 -4 14.5 6.99
16 0 4 25.44 8.4
16 0 -4 16.52 7.39
0 16 4 17.76 8.88
0 16 -4 14.04 13.54
16 0 5 245.73 23.97
0 16 -5 170.57 31.99
0 16 5 222.06 24.92
16 0 -5 201.91 21.65
0 16 -5 200.25 20.51
16 0 6 121.17 18.28
16 0 -6 111.04 15.73
0 16 6 122.22 19.05
0 16 -7 116.77 28.87
16 0 -7 123.3 17.34
0 16 7 130.26 19.4
0 16 -8 55.47 20.38
16 0 -8 58.89 14.12
0 16 8 60.94 14.68
0 16 9 9.99 8.44
0 16 -9 -2.62 11.72
16 0 -9 14.74 7.82
16 0 -10 496.8 35.33
0 16 10 499.97 42.23
16 0 -11 1.65 5.38
0 16 11 0.15 7.76
16 0 -12 274.82 25.67
0 16 12 283.35 30.32
16 0 -13 64.86 12.51
0 -16 -13 103.54 21.81
16 0 -14 6.44 4.93
0 -16 -14 11.24 9.81
0 -16 -15 258.86 29.46
16 0 -15 204.84 19.85
0 -16 -16 110.32 18.15
16 0 -16 65.5 10.87
0 -16 -17 192.68 21.75
16 0 -17 151.51 14.33
0 -16 -18 5.22 4.83
16 -1 0 78.59 13.67
16 1 0 81.04 14.54
1 16 0 86.74 15.96
-1 16 0 43.06 16.12
-1 16 0 88.96 15.97
16 -1 1 356.35 25.4
16 1 1 318.37 24.21
-1 16 1 258.39 35.96
16 -1 -1 355.71 25.25
16 1 -1 338.12 26.24
-1 16 -1 271.86 37.77
1 16 1 320.9 26.47
1 16 -1 322.75 25.72
-1 16 1 330.15 27
-1 16 -1 320.75 26.12
1 16 -2 72.32 12.29
16 -1 2 99.55 15.26
-1 16 -2 74.6 21.49
16 -1 -2 110.3 15.4
16 1 -2 86.11 14.11
16 1 2 85.63 13.84
-1 16 2 69.81 18.28
1 16 2 96.99 16.53
-1 16 2 109.68 16.72
-1 16 -2 106.7 16.51
1 16 -3 4.05 5.89
-1 16 -3 7.2 6.24
1 16 3 14.13 8.83
16 -1 3 10.49 7.18
16 1 3 4.21 5.38
-1 16 -3 9.27 12.24
-1 16 3 -23.89 16.75
16 -1 -3 6.49 4.95
16 1 -3 8.77 6.81
-1 16 3 11.91 8.48
1 16 -4 140.5 17.04
16 -1 4 166.48 19.66
16 1 4 167.35 19.17
16 -1 -4 159.45 18.34
16 1 -4 148.25 18.95
-1 16 -4 118.88 27.22
1 16 4 170.67 20.81
-1 16 4 161.66 21.02
-1 16 -4 151.17 18.93
-1 16 -5 41.52 15.64
-1 16 -5 75.88 12.89
16 1 5 136.13 18.32
16 -1 5 72.3 13.45
16 1 -5 113.54 16.78
16 -1 -5 80.48 13.25
1 16 5 117.16 18.95
-1 16 5 103.08 17.28
-1 16 -6 133.34 16.94
16 -1 6 163.82 20.87
16 1 6 156.98 21.18
-1 16 -6 138.31 30.91
1 16 6 146.97 20.08
16 -1 -6 148.97 18.29
16 1 -6 147.38 18.29
-1 16 6 140.39 20.33
-1 16 7 28.31 9.56
-1 16 -7 -4.3 7.81
16 1 7 32.34 12.73
16 -1 -7 57.67 14.34
16 1 -7 47.93 13.62
-1 16 -7 34.98 18.63
1 16 7 34.78 12.86
16 1 -8 -8.67 9.35
-1 16 -8 28.34 18.58
16 -1 -8 -4.48 7.63
1 16 8 25.68 11.67
-1 16 8 33.85 12.33
1 16 9 321.42 32.41
16 -1 -9 166.21 18.54
16 1 -9 184.78 20.29
-1 16 9 295.74 30.99
-1 16 -9 250.91 47.72
16 1 -10 10.31 5.27
16 -1 -10 -9.05 10.03
1 16 10 -2.93 8.11
-1 16 10 5.12 8.64
16 1 -11 370.58 31.53
1 16 11 391.21 36.05
-1 16 11 390.65 35.8
16 1 -12 44.14 11.99
16 -1 -12 20.98 7.55
-1 16 12 57.01 15.61
1 16 12 62.43 17.4
16 -1 -13 16.82 8.33
16 1 -13 17 7.73
1 -16 -13 29.4 11.53
-1 -16 -13 17.01 12.5
16 -1 -14 73.8 13.02
1 -16 -14 113.38 21.87
16 1 -14 76.38 14.36
-1 -16 -14 85.45 18.53
1 -16 -15 131.89 20.89
16 -1 -15 92.01 13.13
-1 -16 -15 163.72 23.26
16 1 -15 125.69 16.8
1 -16 -16 220.23 25
-1 -16 -16 217.39 25.47
16 -1 -16 149.6 15.09
16 1 -16 155.97 16.23
1 -16 -17 17.74 7.37
-1 -16 -17 39.64 10.25
16 1 -17 26.64 6.85
1 -16 -18 43.57 9.59
-1 -16 -18 49 10.33
16 -2 0 156.16 17.83
16 2 0 189.37 19.73
-2 16 0 119.5 26.01
2 16 0 160.33 19.19
-2 16 0 162.81 19.48
-2 16 -1 44.61 18.71
16 -2 1 88.41 15.27
16 2 1 89.83 14.52
16 -2 -1 84.16 13.69
16 2 -1 90.33 16.13
-2 16 1 55.99 19.98
2 16 1 99.06 17.42
2 16 -1 92.89 15.74
-2 16 1 104.46 17.1
-2 16 -1 87.86 16.78
2 16 -2 5.55 6.12
-2 16 2 7.88 5.43
-2 16 -2 11.99 6.92
-2 16 -2 2.75 9.94
16 -2 2 14.47 7.82
16 2 2 4.71 5.31
16 -2 -2 9.53 5.59
16 2 -2 9.5 6.07
-2 16 2 8.61 8.77
2 16 2 13.98 8.25
2 16 -3 54.37 11.4
-2 16 -3 80.51 14.11
16 -2 3 76.31 14.53
16 2 3 61 12.19
-2 16 -3 10.61 18.3
-2 16 3 57.68 17.76
16 -2 -3 56.35 12.26
16 2 -3 58.23 12.91
2 16 3 68.27 14.26
-2 16 3 85.47 15.26
-2 16 -4 107.61 16.48
16 2 4 158.99 18.59
16 -2 4 102.18 15.83
-2 16 -4 153.8 36.4
-2 16 4 55.16 18.32
16 -2 -4 102.23 14.47
16 2 -4 146.82 18.89
2 16 4 142.69 20.52
-2 16 4 117.74 18.19
-2 16 -5 26.28 8.86
16 -2 5 37.01 10.82
16 2 5 38.3 11.36
-2 16 5 -0.13 13.21
16 -2 -5 28.43 8.08
16 2 -5 33.65 8.79
2 16 5 36.62 10.35
-2 16 -5 51.51 19.8
-2 16 5 32.06 10.23
-2 16 -6 139.54 19.16
16 2 6 165.91 21.27
16 -2 6 118.87 17.01
-2 16 -6 123.4 31.79
-2 16 6 144.03 30.83
16 -2 -6 154.9 20.12
16 2 -6 177.01 20.89
-2 16 6 125.71 18.66
2 16 6 176.74 23.95
-2 16 -7 15.85 6.59
16 2 7 19.69 10.69
2 16 7 36.61 12.27
-2 16 -7 8.57 15.49
16 -2 -7 0.16 5.95
16 2 -7 38.17 10.99
-2 16 7 27.82 10.58
-2 16 -8 -5.2 5.72
-2 16 -8 9.84 12.4
16 -2 -8 6.03 6.36
16 2 -8 -9.23 8.75
2 16 8 16.76 11.6
-2 16 8 5.82 8.94
16 -2 -9 9.93 4.68
-2 16 -9 11.46 15.73
16 2 -9 -13.61 8.7
2 16 9 26.65 11.51
-2 16 9 24.59 11.5
16 2 -10 286.1 28.02
2 16 10 321.54 32.78
-2 16 10 266.3 28.78
16 -2 -11 59.67 13.47
16 2 -11 111.33 19.63
2 16 11 130.71 22.62
-2 16 11 123.01 22.09
16 -2 -12 -21.22 10.76
-2 16 12 -3.43 9.15
16 2 -12 -1.59 6.34
2 -16 -12 -0.7 6.73
16 -2 -13 19.01 8.1
16 2 -13 23.12 9.81
-2 -16 -13 24.49 14.25
2 -16 -13 38.1 14.71
16 2 -14 106.23 16.41
16 -2 -14 65.56 10.9
2 -16 -14 82.81 17.14
16 2 -15 25.97 7.49
-2 -16 -15 30.76 11.15
2 -16 -15 33.71 12.22
2 -16 -16 142.21 19.68
-2 -16 -16 207.39 25.81
16 2 -16 162.63 17.4
2 -16 -17 37.53 9.89
-2 -16 -17 45.82 11.16
16 2 -17 28.41 6.78
2 -16 -18 17.14 6.61
-2 -16 -18 5.68 4.51
-3 16 0 49.83 12.88
16 -3 0 49.38 10.42
16 3 0 64.18 13.32
3 16 0 54.28 11.33
-3 16 1 25.96 8.97
-3 16 -1 19.89 8.68
16 -3 1 20.23 6.63
16 -3 -1 24.54 7.59
16 3 1 18.48 6.9
16 3 -1 10.05 6.33
-3 16 1 -1.46 14.85
3 16 1 25.48 8.93
-3 16 -1 -12.37 10.72
3 16 -1 27.19 8.06
-3 16 2 55.77 13.24
-3 16 -2 42.4 12.78
-3 16 -2 86.99 29.95
16 -3 2 37.06 10.38
16 3 2 53.1 11.82
16 -3 -2 46.35 11.41
-3 16 2 8.45 8.38
16 3 -2 42.25 12.02
3 16 2 54.55 12.26
3 16 -2 48.63 11.23
-3 16 -3 123.9 17.31
16 -3 3 105.48 15.84
16 3 3 175.93 19.32
-3 16 -3 120.32 27.68
16 -3 -3 133.13 16.31
16 3 -3 165.76 19.64
-3 16 3 138.1 20.44
3 16 3 188.52 21.69
-3 16 -4 11.12 6.36
16 -3 4 19 8.72
16 3 4 27.02 9.42
-3 16 -4 17.52 14.44
16 -3 -4 15.7 7
16 3 -4 17.83 6.13
3 16 4 21.86 7.64
-3 16 4 16.54 7.7
-3 16 5 159.81 35.21
-3 16 -5 145.65 19.98
16 -3 5 141.03 18.79
16 3 5 214.42 22.93
16 -3 -5 185.82 21.21
16 3 -5 233.12 23.4
3 16 5 231.96 25.83
-3 16 -5 184.19 36.68
-3 16 5 175.62 23.24
-3 16 -6 1.09 12.73
-3 16 -6 14.35 9.28
-3 16 6 7.83 8.64
16 3 6 -0.29 8.17
16 -3 -6 -16.8 8.86
16 3 -6 5.41 5.83
3 16 6 9.03 7.57
-3 16 6 0.56 7.47
-3 16 7 50.67 16.65
16 3 7 59.45 13.25
-3 16 -7 31.24 20.24
-3 16 -7 37.19 10.47
16 -3 -7 34.04 8.97
16 3 -7 60.08 13.75
3 16 7 69.99 15.74
-3 16 7 56.97 13.99
-3 16 -8 12.95 7.63
16 -3 -8 7.61 5.14
16 3 -8 23.49 10.18
3 16 8 26.83 12.48
-3 16 8 9.82 7.62
-3 16 -8 4.26 11.38
-3 16 -9 53.74 24.37
16 -3 -9 10.18 5.36
16 3 -9 73.9 14.65
3 16 9 72.44 17.09
-3 16 9 65.39 14.24
16 -3 -10 118.23 17.55
16 3 -10 126.61 20.55
3 16 10 155.7 24.51
-3 16 10 149.44 24.44
16 -3 -11 12.48 5.19
3 16 11 19.41 9.16
16 3 -11 30.92 11.08
-3 16 11 20.6 9.06
16 3 -12 71.19 15.77
3 -16 -12 55.64 15.61
-3 16 12 48.2 15.11
-3 16 13 68.29 14.47
16 3 -13 71.77 12.84
3 -16 -13 76.69 16.45
16 3 -14 3.65 4.99
3 -16 -14 14.56 8.64
-3 -16 -14 13.06 12.29
3 -16 -15 149.39 21.06
-3 -16 -15 208.59 27.97
16 3 -15 173.19 19.29
3 -16 -16 -2.27 4.59
16 3 -16 -7.23 5.97
-3 -16 -16 -1.38 7
3 -16 -17 37.42 9.55
-3 -16 -17 70.58 13.75
16 3 -17 49.54 9.51
-3 -16 -18 4.69 3.84
16 3 -18 0.24 2.41
4 16 0 75.4 13.53
16 -4 0 80.99 13.87
16 4 0 79.04 15.45
-4 16 0 102.73 25.63
-4 16 0 109.58 17.13
-4 16 1 27.35 8.97
-4 16 -1 26.24 11.3
16 -4 1 23.1 8.17
16 -4 -1 16.17 8.58
16 4 1 14.11 7.26
-16 4 1 6.53 9.97
16 4 -1 10.46 8.73
-4 16 1 8.94 10.96
-4 16 -1 16.7 11.91
4 16 1 12.51 6.17
-4 16 -2 218.44 22.87
-4 16 2 224.11 38.24
16 -4 2 208.46 20.1
16 4 2 200.32 20.66
16 -4 -2 199.64 18.94
-16 4 2 162.31 29.11
16 4 -2 207.83 21.48
-4 16 -2 192.02 35.88
4 16 2 220.48 22.26
-4 16 2 206.25 22.79
-4 16 3 81.17 15.01
-4 16 -3 62.45 13.19
-4 16 -3 87.56 24.31
16 -4 3 75.11 13.23
-16 4 3 58.8 19.35
16 -4 -3 77.77 12.64
16 4 3 81.26 13.5
-4 16 3 63.15 17.69
16 4 -3 79.89 14.57
4 16 3 78.79 14.02
-4 16 -4 128.12 17.29
16 4 4 145.78 18.88
-16 4 4 72.36 22.93
16 -4 4 116.73 16.1
-4 16 4 100.44 26.37
16 -4 -4 113.09 14.1
-4 16 -4 129.17 28.76
16 4 -4 151.63 19.42
4 16 4 164.32 19.66
-4 16 4 117.8 17.65
-4 16 -5 148.48 20.26
-16 4 5 101.28 28.08
16 4 5 167.61 20.43
16 -4 5 120.88 18.31
-4 16 5 138.31 32.32
16 4 -5 164.2 19.48
-4 16 -5 171.33 37.24
4 16 5 175.07 22.02
-4 16 5 157.89 21.42
-4 16 -6 61.51 12.94
-4 16 6 61.06 21.32
16 4 6 97.59 16.8
16 4 -6 101.43 16.39
4 16 6 110.81 19.16
-4 16 6 85.54 16.72
-4 16 -6 66.99 25.72
-4 16 7 13.09 18.51
16 4 7 8.73 12.47
-4 16 -7 -4.89 11.85
16 4 -7 -0.72 6.17
4 16 7 14.92 11.34
-4 16 7 12.18 6.94
-4 16 8 -1.54 16.95
16 4 -8 8.2 8.26
-4 16 -8 5.75 11.14
4 16 8 7.41 8.02
-4 16 8 11.66 7.21
16 4 -9 97.57 18.56
4 16 9 106.31 20.58
-4 16 9 98.39 20.32
16 4 -10 100.22 16.87
-4 16 10 116.39 20.03
4 16 10 98.42 19.8
16 4 -11 28.13 11.81
4 -16 -11 15.73 8.94
-4 16 11 19.87 9.76
16 4 -12 166.42 20.73
-4 16 12 192.7 24.79
-4 16 13 2.34 5.95
16 4 -13 23.29 8.78
4 -16 -13 25.11 11.23
16 4 -14 111.52 16.62
-4 -16 -14 143.88 23.5
4 -16 -14 97.6 17.07
4 -16 -15 63.89 14.63
16 4 -15 54.79 11.21
-4 -16 -15 74.18 16.93
4 -16 -16 37.23 9.78
16 4 -16 51.64 10.36
4 -16 -17 31.38 7.88
-4 -16 -17 39.06 10.7
16 4 -17 31.97 7.72
-4 -16 -18 24.07 7.25
16 4 -18 7.18 3.78
16 5 0 125.21 16.5
-16 5 0 104.2 26.36
-5 16 0 129.29 29.61
-5 16 0 150.32 19.59
-5 16 1 250.69 40.27
16 -5 1 186.55 18.54
16 5 1 148.05 17.45
-16 5 -1 174.62 33.05
-5 16 -1 191.33 36.19
16 5 -1 158.53 19.66
5 16 1 151.28 18.36
-5 16 1 235.87 25.01
-16 5 1 182.18 33.5
-5 16 -1 243.47 24.38
-5 16 -2 6.45 13.69
-5 16 2 8.49 6.26
-5 16 -2 4.62 7.3
16 -5 2 4.36 6.18
-16 5 2 15.22 8.97
16 5 2 9.81 6.02
-5 16 2 -4.53 10.14
16 5 -2 2.92 6.85
5 16 2 9.01 5.99
-16 5 -2 2.62 11.24
-5 16 -3 124.53 17.26
16 -5 3 130.41 16.62
-5 16 -3 110.28 28.15
-16 5 3 91.07 23.25
16 5 3 107 15.65
-5 16 3 134.63 30.62
16 5 -3 102.82 15.47
5 16 3 113.82 16.89
-5 16 3 124.82 18.07
-5 16 -4 206.96 24.32
-5 16 4 209.57 38.15
16 -5 4 295.25 29.04
16 5 4 199.21 21.56
-16 5 4 160.17 33.44
16 5 -4 207.51 22.2
-5 16 -4 218.56 40.94
5 16 4 223.54 23.7
-5 16 4 219.91 24.36
-5 16 -5 32.15 9.46
-16 5 5 9.09 15.46
-5 16 5 38.32 17.52
16 5 5 41.17 10.77
-5 16 -5 39.92 19.5
16 5 -5 40.17 11.9
5 16 5 46.15 12.39
-5 16 5 40.29 12.47
-5 16 6 116.78 31.79
16 5 6 114.28 17.24
16 5 -6 117.74 17.52
5 16 6 155.33 22.27
-5 16 6 132.77 21.26
-5 16 -6 143.91 36.93
-5 16 7 -1.1 11.57
-5 16 -7 22.9 21.61
16 5 7 20.81 11.78
16 5 -7 27.88 10.54
5 16 7 -18.51 14.64
-5 16 7 10.85 8.55
-5 16 8 20.79 20.6
-5 16 -8 21.12 19.03
16 5 -8 53.97 13.13
5 16 8 40.62 13.14
-5 16 8 27.87 11.38
16 5 -9 152.81 20.5
5 16 9 147.1 21.95
-5 16 9 152.02 22.4
16 5 -10 12.41 6.52
-5 16 10 15.05 8.01
5 -16 -10 1.81 6.5
16 5 -11 255.25 26.96
5 -16 -11 206.57 26.26
-5 16 11 287.09 32.48
16 5 -12 25.19 8.89
-5 16 12 12.41 7.11
5 -16 -12 36.17 14.8
-5 16 13 110.9 18.89
16 5 -13 79.36 14.73
5 -16 -13 94.53 17.88
5 -16 -14 59.9 13.98
16 5 -14 54.75 12.23
-5 -16 -14 64.98 16.68
5 -16 -15 1.22 4.76
16 5 -15 1.96 4.15
-5 -16 -15 7.56 6.27
5 -16 -16 146.38 17.41
-5 -16 -16 156.04 21.48
16 5 -16 142.34 16.64
-5 -16 -17 -0.66 4.23
16 5 -17 -2.98 4.32
-5 -16 -18 27.14 7.47
16 5 -18 9.99 3.85
16 6 0 129.18 17.12
-16 6 0 116.4 27.77
-6 16 0 163.64 34.42
-6 16 0 191.44 21.59
-6 16 -1 99.51 16.7
-6 16 1 98.35 16.34
16 6 -1 105.03 15.12
-16 6 -1 59.34 19.84
16 6 1 86.51 13.54
-16 6 1 61.05 22.44
-6 16 1 86.13 24.45
6 16 1 105.21 15.32
-6 16 -1 95.48 26.46
-6 16 2 76.72 15.94
-6 16 -2 100.74 16.11
16 6 2 39.11 11.05
-16 6 2 55.97 20.27
-6 16 2 80.63 24.88
16 6 -2 55.77 12.69
6 16 2 68.48 14.03
-16 6 -2 75.81 23.87
-6 16 -2 60.93 23.11
-6 16 3 35.67 11.4
-6 16 -3 32.4 11.09
-6 16 -3 15.11 11.18
-16 6 -3 15.96 8.95
-16 6 3 37.14 19.25
16 6 3 11.08 6.63
-6 16 3 34.01 16.59
16 6 -3 28.46 7.65
6 16 3 34.57 9.96
-6 16 4 10.21 8.36
-6 16 -4 9.44 6.4
-16 6 4 16.48 11.58
16 6 4 2.73 6.43
-6 16 -4 -10.4 13.28
-6 16 4 29.26 17.69
-16 6 -4 -14.27 15.21
16 6 -4 5.85 5.15
6 16 4 -0.18 5.66
-16 6 5 85.26 25.55
-6 16 5 118.53 30.57
16 6 5 120.4 17.21
16 6 -5 123.13 17.67
-6 16 -5 134.27 33.4
6 16 5 144.1 21.33
-6 16 5 137.84 21.67
-6 16 6 -10.56 19.62
16 6 6 5.46 9.95
6 16 6 5.07 6.73
16 6 -6 -4.54 8.23
-6 16 -6 3.71 15.16
-6 16 6 7.62 7.45
-6 16 -7 85.65 30.61
-6 16 7 100.33 32.48
16 6 7 98.43 17.74
16 6 -7 111.41 17.78
6 16 7 90.95 17.65
-6 16 7 86.13 16.26
-6 16 8 68.71 26.44
16 6 -8 83 16.75
6 16 8 111.46 21.63
-6 16 8 101.74 18
6 16 9 19.12 11.31
16 6 -9 18.96 9.74
-6 16 9 20.52 9.29
16 6 -10 181.57 23.82
-6 16 10 239.94 29.29
6 -16 -11 177.47 23.07
16 6 -11 174.14 21.84
-6 16 11 157.16 23.07
6 -16 -12 107.04 17.98
16 6 -12 108.42 17.33
-6 16 12 133.88 21.65
6 -16 -13 1.14 5.85
-6 16 13 10.61 7.61
16 6 -13 12.91 8.59
6 -16 -14 5.78 7.8
16 6 -14 4.89 5.74
-6 -16 -14 10.57 8.26
16 6 -15 106.72 15.04
-6 -16 -15 142.34 22
16 6 -16 -1.88 5.35
-6 -16 -16 6.13 5.74
16 6 -17 73.8 10.68
-6 -16 -17 74.66 13.34
-6 -16 -18 -3.99 4.84
-7 16 0 229.93 41.04
16 7 0 270.42 23.83
-7 16 0 278.01 27.63
-7 16 1 77.79 16.08
-7 16 -1 89.21 15.36
16 7 1 51.55 11.24
16 7 -1 66.44 12.05
-16 7 1 64.28 22.27
-7 16 1 79.84 25.95
-16 7 -1 64.35 20.16
-7 16 -1 61.37 24.46
-7 16 2 43.33 10.94
-7 16 -2 46.7 12.56
16 7 2 39.17 10.01
-16 7 2 30.87 17.88
-7 16 2 41.65 18.8
16 7 -2 39.67 8.92
7 16 2 71.61 13.98
-16 7 -2 29.65 16.54
-7 16 -2 48.29 18.11
-7 16 3 23.8 11.06
-16 7 -3 3.82 13.78
-7 16 -3 17.41 15.47
-7 16 -3 12.53 7.16
-16 7 3 -4.63 9.61
16 7 3 -0.22 5.91
-7 16 3 26.58 19.74
16 7 -3 16.23 8.87
7 16 3 -27.1 13.98
-7 16 4 18.13 10.61
-7 16 -4 17.67 7.06
-16 7 4 10.7 12.31
-7 16 -4 32.72 20.34
16 7 4 16.79 8.78
-16 7 -4 10.37 13.18
-7 16 4 30.08 16.85
16 7 -4 6.44 6.04
7 16 4 -20.76 12.52
7 16 5 76.48 16.66
-16 7 5 23.78 17.41
16 7 5 56.22 12.17
-7 16 5 27.33 11.32
-7 16 -5 25.37 17.16
-16 7 -5 17.38 10.57
16 7 -5 51.71 11.91
-7 16 5 39.02 10.52
-16 7 6 72.42 28.62
-7 16 6 94.38 30.22
16 7 6 93.67 16.87
16 7 -6 88.28 14.65
7 16 6 99.21 17.96
-7 16 -6 90.77 28.65
-7 16 6 93.34 17.17
-7 16 -7 -7.29 12.91
-7 16 7 16.19 13.65
16 7 7 20.02 11.87
16 7 -7 27.95 9.36
-7 16 7 3.86 8.05
16 7 -8 10.65 6.9
7 16 8 17.51 9.46
-7 16 8 2.43 5.88
16 7 -9 68.42 15.86
-7 16 9 99.67 18.37
16 7 -10 292.06 27.81
-7 16 10 234.8 26.02
16 7 -11 106.3 18.6
-7 16 11 146.25 22.2
-7 16 12 100.29 17.65
16 7 -12 134.4 19.3
16 7 -13 13.61 7.4
-7 16 13 5.35 7.66
16 7 -14 9 4.28
-7 -16 -14 4.89 7.86
16 7 -15 27.09 8.27
-7 -16 -15 35.71 11.77
-7 -16 -16 99.14 16.11
16 7 -16 86.92 12.53
-7 -16 -17 25.98 7.99
16 7 -17 29.82 6.72
-8 16 0 -0.69 6.93
16 8 0 6.2 5.31
-16 8 0 13.05 9.33
-8 16 0 9.96 10.82
-8 16 -1 157.58 22.68
16 8 1 162.21 18.88
16 8 -1 179.12 20.45
-16 8 1 98.14 25.84
-8 16 1 140 33.57
-16 8 -1 103.54 28.3
-8 16 -1 139.83 33.53
-8 16 1 167.38 21.81
-8 16 2 8.67 8.06
-8 16 -2 2.34 6.28
16 8 2 6.18 6.67
-16 8 2 -1.72 13.77
-8 16 2 -2 12.64
16 8 -2 5.55 6.05
-16 8 -2 -3.09 12.03
-8 16 -2 16.15 9.97
-8 16 3 30.16 11.3
-16 8 -3 25.59 17.57
-8 16 -3 46.35 20.78
-8 16 -3 39.2 11.64
16 8 3 21.65 9.71
-16 8 3 6.25 13.42
-8 16 3 48.52 23.27
16 8 -3 19.48 7.42
8 16 3 24.49 8.02
-8 16 4 95.62 17.3
16 8 4 126.91 17.26
-16 8 4 69.99 23.43
-8 16 -4 102.12 27.06
-16 8 -4 87.13 28.6
-8 16 4 129.78 35.81
16 8 -4 125.35 17.02
8 16 4 103.72 16.6
-16 8 5 -2.47 15.29
16 8 5 32.9 12
-8 16 5 13.23 14.4
-8 16 -5 32.83 23.97
-16 8 -5 8.54 11.23
16 8 -5 15.54 8.35
8 16 5 14.88 8.01
-8 16 5 6.98 5.66
16 8 6 129.88 19.24
-16 8 6 58.59 24.04
-8 16 6 117.83 33.62
16 8 -6 137.6 18.74
8 16 6 131.24 20.9
-16 8 -6 53.28 20.75
-8 16 -6 98.5 32.85
-8 16 6 91.94 17.21
16 8 7 -4.75 10.56
16 8 -7 -6.09 6.91
-8 16 7 0.15 5.55
16 8 -8 35.9 10.67
-8 16 8 17.2 9.13
16 8 -9 301.49 28.57
-8 16 9 252.8 26.94
16 8 -10 27.85 9.33
-8 16 10 33.78 11.09
16 8 -11 369.3 30.86
-8 16 11 268.26 27.62
16 8 -12 -1.98 5.42
-8 16 12 13.6 8.46
8 16 -12 8 5.03
16 8 -13 10.18 5.53
8 16 -13 16.24 4.89
16 8 -14 25.57 7.8
8 16 -14 20.06 5.39
-8 -16 -14 35.54 11.36
8 16 -15 27.63 6.94
16 8 -15 36.85 9.61
-8 -16 -15 41.63 11.52
16 8 -16 56.66 9.94
-8 -16 -16 39.05 10.79
-8 -16 -17 16.37 6.39
16 8 -17 13.18 5.49
-9 16 0 116.35 18.34
16 9 0 115.46 15.97
-16 9 0 46.86 18.03
-9 16 0 87.66 25.82
-9 16 1 9.83 8.18
-9 16 -1 3.67 5.66
16 9 1 9 6.65
16 9 -1 2.99 5.94
-16 9 1 9.1 11.93
-9 16 1 -4.48 18.69
-16 9 -1 9.53 13.94
-9 16 -1 -18.16 16.22
-9 16 2 83.7 15.69
-9 16 -2 89.42 18.25
16 9 -2 96.63 15.52
16 9 2 85.13 14.73
-16 9 2 46.36 22.98
-9 16 2 76.61 26.8
-16 9 -2 50.38 22.41
-9 16 -2 70.69 23.05
-9 16 3 21.23 8.97
-16 9 -3 6.42 17
-9 16 -3 44.11 24.1
-9 16 -3 19.88 9.17
16 9 3 33.75 10.72
-16 9 3 23.11 20.46
-9 16 3 14.7 11.38
16 9 -3 34.74 9.6
-9 16 4 42.42 14.42
-9 16 -4 43.7 24.77
16 9 4 22.51 10.37
-16 9 -4 4.61 14.91
-16 9 4 20.15 17.71
-9 16 4 21.43 18.54
16 9 -4 24.11 10.57
9 16 4 11.56 7.42
16 9 5 148 19.04
-16 9 5 68.74 24.41
-9 16 5 76.92 27.3
16 9 -5 140.39 18.5
-9 16 -5 94.13 28.84
-16 9 -5 90.81 28.61
-9 16 5 109.59 18.2
16 9 6 35.46 12.08
16 9 -6 31.58 11.22
-9 16 6 53.38 13.85
16 9 7 77.61 12.92
16 9 -7 90.72 15.68
-9 16 7 68.1 14.51
16 9 -8 123.52 18.22
-9 16 8 130.2 20.07
16 9 -9 13.28 6.95
-9 16 9 2.22 6.54
16 9 -10 438.27 34.45
-9 16 10 362.87 31.88
16 9 -11 4.49 5.04
9 16 -11 6.77 6.02
-9 16 11 -0.71 5.63
16 9 -12 59.74 13.43
-9 16 12 31.27 9.27
9 16 -12 56.87 10.71
16 9 -13 25.55 9.49
9 16 -13 21.8 6.37
-9 -16 -13 33.41 11.86
9 16 -14 23.31 7.44
16 9 -14 15.47 7.31
-9 -16 -14 13.17 8.88
-9 16 -15 12.82 6.94
16 9 -15 16.5 6.04
9 16 -15 11.96 4.65
-9 -16 -15 19.34 8.54
16 9 -16 25.63 7.68
-9 -16 -16 19.13 8.05
16 9 -17 32.94 6.5
16 10 0 66.48 14.55
-16 10 0 75.4 25.49
-10 16 0 93.07 28.44
-10 16 0 114.29 19.61
-10 16 1 20.74 10.83
-10 16 -1 29.79 12.56
-16 10 1 19.18 8.03
16 10 1 37 11.1
16 10 -1 24.68 9.98
-16 10 1 3.34 10.16
-10 16 1 21.34 17.66
-16 10 -1 5.92 11.74
-10 16 -1 8.22 17.17
-10 16 2 38.67 11.73
-10 16 -2 54.89 14.87
16 10 2 41.71 10.94
-16 10 2 14.41 11.02
16 10 -2 35.99 11.66
-10 16 2 18.7 15.9
-16 10 -2 -4.33 12.48
-10 16 -2 20.84 13.22
-10 16 3 32.22 11.67
-10 16 -3 35.15 21.47
-16 10 -3 17.93 12.4
-10 16 -3 36.88 13.03
16 10 3 11.77 7.93
-16 10 3 6.15 14.35
-10 16 3 12.66 11.53
16 10 -3 15.95 7.04
-10 16 4 17.32 9.3
16 10 4 4.7 6.85
-10 16 -4 31.45 16.61
-16 10 -4 -2.6 12.51
-16 10 4 0.08 13
-10 16 4 -3.36 16.13
16 10 -4 21.31 7.8
16 10 5 66.51 14.45
16 10 -5 110.83 17.71
-10 16 5 117.15 21.67
16 10 6 -1.98 7.95
16 10 -6 -5.31 7.06
-10 16 6 -5.11 7.12
16 10 -7 102.05 17.87
-10 16 7 169.66 23.03
16 10 -8 21.83 8.85
-10 16 8 17.62 7.56
16 10 -9 158.88 20.18
-10 16 9 163.86 21.19
10 16 -10 42.62 9.19
-10 16 10 35.44 11.91
16 10 -10 22.98 9.48
16 10 -11 72.19 14.09
10 16 -11 53.18 10.2
-10 16 11 28.24 7.88
10 16 -12 37.14 8.29
16 10 -12 41.9 10.37
16 10 -13 3.2 4.62
10 16 -13 2.32 3.88
-10 -16 -13 6.26 6.56
16 10 -14 -0.04 4.37
10 16 -14 -6.12 5.09
-10 -16 -14 -7.68 7.54
-10 16 -15 8.37 4.28
16 10 -15 34.78 8.71
10 16 -15 25.98 6.51
-10 -16 -15 20.75 7.53
-10 -16 -16 -6.1 4.94
16 10 -16 0.79 3.32
-11 16 0 4.39 7.48
-16 11 0 11.58 6.83
-16 11 0 23.92 22.55
16 11 0 7.14 5.56
-11 16 0 -14.55 17.82
-11 16 1 87.66 17.9
-11 16 -1 99.34 18.37
-16 11 1 72.18 15.03
16 11 1 66.04 12.02
16 11 -1 62.31 12.35
-16 11 1 44.23 20.29
-11 16 1 93.45 31.01
-16 11 -1 56.86 21.54
-11 16 -1 68.11 23.35
-16 11 -2 3.16 15.2
-11 16 -2 13.79 12.77
-11 16 2 16.83 10.4
-16 11 2 16.09 6.42
-11 16 -2 18.48 10.96
16 11 2 11.54 7.46
16 11 -2 9.87 6.01
-16 11 2 -5.42 14.35
-11 16 2 28.21 18.9
-11 16 3 -1.27 7.17
-11 16 -3 1.08 6.22
16 11 3 5.77 6.58
16 11 -3 4.91 4.82
16 11 4 38.23 10.39
16 11 -4 73.45 13.06
16 11 5 50.22 10.33
16 11 -5 66.98 12.61
-11 16 5 64.4 14.15
16 11 6 102.34 16.38
16 11 -6 132.92 19.13
16 11 -7 24.28 8.82
-11 16 7 23.93 8.4
16 11 -8 44.34 11.07
-11 16 8 50.32 13.3
16 11 -9 34.81 10.44
11 16 -9 19.58 6.76
-11 16 9 36.35 10.42
16 11 -10 1.04 4.54
11 16 -10 -0.46 4.45
-11 16 10 -5.9 7.72
16 11 -11 107.92 16.86
11 16 -11 95.94 13.25
16 11 -12 12.52 6.12
11 16 -12 11.03 5.96
16 11 -13 -0.32 4.56
11 16 -13 -1.28 3.07
-11 -16 -13 -2.09 6.14
16 11 -14 20.72 7.33
11 16 -14 14.98 4.74
-11 -16 -14 5.14 6.33
-11 16 -15 26.19 7.05
16 11 -15 27.68 6.87
11 16 -15 32.27 6.26
-11 -16 -15 30.85 9.12
16 11 -16 31.52 6.65
-12 16 0 99.85 17.84
-16 12 0 104.43 17.26
16 12 0 71.5 12.95
-12 16 1 12.91 6.85
-16 12 1 24.6 10.3
-12 16 -1 31.05 11
-16 12 -1 24.04 9.29
16 12 1 27.87 8.88
16 12 -1 19.11 6.9
-12 16 2 19.55 7.89
-16 12 2 21.34 7.76
-12 16 -2 18.13 8.05
16 12 2 31.25 9.95
16 12 -2 25.79 6.67
-12 16 3 41.57 11.78
-12 16 -3 40.31 15.79
16 12 3 81.21 14.07
16 12 -3 73.16 13.25
-12 16 -4 182.03 25.26
16 12 4 127.47 15.88
16 12 -4 126.07 16.13
-12 16 4 146.01 20.67
16 12 5 48.16 11.81
16 12 -5 62.82 11.74
-12 16 5 67.94 15.35
16 12 6 247.78 22.71
16 12 -6 297.3 25.71
-12 16 6 281.14 27.93
16 12 -7 41.95 10.92
-12 16 7 40.15 12.02
12 16 -8 26.8 6.62
16 12 -8 20.33 8.46
-12 16 8 11.52 7.05
16 12 -9 26.66 7.81
12 16 -9 34 8.89
-12 16 9 19.02 7.82
16 12 -10 111.29 16.28
12 16 -10 100.73 13.24
16 12 -11 70.9 12.93
12 16 -11 60.22 9.87
16 12 -12 19.05 6.34
12 16 -12 17.32 6.31
-12 -16 -12 10.79 6.27
16 12 -13 39.45 9.2
12 16 -13 33.48 7.32
-12 -16 -13 22.31 8.61
16 12 -14 60.96 10.21
12 16 -14 66.42 9.08
-12 16 -15 7.89 5.19
16 12 -15 13.14 4.98
-12 -16 -15 5.95 3.69
-13 16 0 93.91 16.46
-16 13 0 89.35 15.72
16 13 0 107.64 14.54
-13 16 1 18.69 8.46
-16 13 1 25.47 10.28
-13 16 -1 27.8 11.7
-16 13 -1 27.01 10.74
16 13 1 27.64 8.27
16 13 -1 24.29 7.8
-13 16 2 76.57 14.92
-16 13 2 46.55 12.89
-13 16 -2 74.37 15.49
-16 13 -2 67.07 15.19
16 13 -2 86.59 14.22
16 13 2 77.99 13.18
-13 16 3 51.91 14.04
-16 13 3 43.84 10.7
-13 16 -3 66.39 14.89
16 13 3 31.89 9.03
16 13 -3 42.92 9.17
-13 16 4 12.16 5.34
-13 16 -4 15.97 8.43
16 13 4 18.93 8.01
16 13 -4 21.5 7.78
16 13 5 423.23 29.55
16 13 -5 425.49 30.53
-13 16 5 439.63 36.21
13 16 -6 12.91 5.11
16 13 -6 17.01 6.85
-13 16 6 4.7 5.22
13 16 -7 306.32 23.26
16 13 -7 275.32 24.63
13 16 -8 51.4 10.1
16 13 -8 42.16 10.34
-13 16 8 27.72 8.63
13 16 -9 32.89 9.1
16 13 -9 29.88 9.48
13 16 -10 116.61 14.22
16 13 -10 126.7 16.24
13 16 -11 45.97 8.97
16 13 -11 49.11 9.86
13 16 -12 77.92 11.02
16 13 -12 75.66 11.55
-13 -16 -12 58.27 12.9
13 16 -13 16.15 5.65
16 13 -13 4.27 3.85
-13 -16 -13 12.75 6.1
-13 16 -14 6.84 4.13
13 16 -14 4.43 2.91
16 13 -14 13.87 4.96
16 13 -15 120.78 12.1
-14 16 0 65.12 13.31
-16 14 0 69.97 14.22
16 14 0 80.48 13.43
-16 14 -1 159.4 22.7
16 14 1 170.62 17.61
16 14 -1 165.06 17.24
-14 16 1 133.54 20.32
-16 14 1 160.31 21.09
-14 16 -1 147.53 21.88
-14 16 2 16.49 7.9
-16 14 2 18.31 7.41
-14 16 -2 29.03 10.59
-16 14 -2 20.89 9.54
16 14 2 13.01 7.24
16 14 -2 15.63 6.97
-14 16 3 5.94 5.09
-16 14 3 4 6.12
-14 16 -3 9.54 7.72
-16 14 -3 3.75 6.9
16 14 3 26.46 8.07
16 14 -3 24.07 8.37
-14 16 -4 233.85 28.4
16 14 4 208.51 20.14
16 14 -4 182.88 18.76
-14 16 4 196.44 24.18
-14 16 -5 -5.33 7.97
14 16 -5 -4.6 5.26
16 14 -5 9.62 5.96
-14 16 5 -2.45 5.34
14 16 -6 468.75 28.73
16 14 -6 435.97 29.33
-14 16 6 387.69 32.1
14 16 -7 29.7 6.44
16 14 -7 26.48 7.04
14 16 -8 16.98 6.1
16 14 -8 4.93 4.99
14 16 -9 71.87 11.4
16 14 -9 89.33 13.26
14 16 -10 93.65 13.41
16 14 -10 87.64 13.35
14 16 -11 67.77 11.23
16 14 -11 75.56 12.2
-14 -16 -11 36.5 10.04
14 16 -12 25.45 6.64
16 14 -12 18.56 6.33
-14 -16 -12 4.4 4.85
14 16 -13 30.85 6.7
16 14 -13 29.53 6.54
-14 16 -14 79.77 11.82
16 14 -14 81.67 9.64
-15 16 0 65.61 14.96
-16 15 0 89.98 16.99
16 15 0 84.88 12.52
-15 16 1 51.9 13.17
-16 15 1 73.13 15.04
-15 16 -1 78.32 15.87
-16 15 -1 64.36 14.16
16 15 1 92.48 12.14
16 15 -1 78.19 12.12
-15 16 2 9.52 6.55
-16 15 2 21.97 7.95
-15 16 -2 13.6 6.48
-16 15 -2 29.76 11.68
16 15 -2 21.98 6.5
-15 16 -3 142.97 21.41
-16 15 -3 146.81 22.36
16 15 -3 107.51 14.65
-15 16 3 141.44 19.78
-16 15 3 130.89 18.88
-15 16 -4 4.42 6.73
-16 15 -4 0.14 7.59
15 16 -4 8.23 5.48
16 15 -4 0.1 4.29
-15 16 4 -2.4 4.83
-16 15 4 5.68 5.46
-15 16 -5 238.39 29.04
15 16 -5 273.82 21.54
16 15 -5 246.14 21.53
-15 16 5 197.64 23.79
-15 16 -6 -0.91 6.08
15 16 -6 -2.95 4.82
16 15 -6 -1.51 4.37
15 16 -7 12.39 5.93
16 15 -7 21.57 6.97
15 16 -8 8.18 4.07
16 15 -8 10.02 5.14
15 16 -9 73.85 11.15
16 15 -9 67.42 10.63
15 16 -10 22.26 6.74
16 15 -10 20.51 6.04
15 16 -11 35.68 7.94
16 15 -11 34.75 7.34
15 16 -12 14.28 4.45
16 15 -12 16.61 5.35
-15 16 -13 23.07 7.64
15 16 -13 17.65 4.98
16 15 -13 15.19 4.78
-16 15 -14 0.97 4.03
-16 16 0 105.68 18.2
-16 16 1 -12.08 7.78
-16 16 -1 -11.23 9.51
-16 16 2 32.69 10.03
-16 16 -2 44.8 13.62
-16 16 3 -0.36 6.81
-16 16 -3 -0.17 6.14
16 16 -3 -0.6 4.26
-16 16 -4 120.6 19.3
16 16 -4 103.38 13.24
-16 16 4 101 17.04
-16 16 -5 -7.21 7.33
16 16 -5 -2.99 4.45
-16 16 -6 4.19 7.52
16 16 -6 2.21 3.79
-16 16 -7 2.59 5.91
16 16 -7 -2.84 3.93
-16 16 -8 16.68 9.27
16 16 -8 31.83 7.04
16 16 -9 -0.69 3.42
16 16 -10 51.61 7.96
-16 16 -11 -2.07 5.65
16 16 -11 -4.41 3.96
-16 16 -12 5.45 4.71
16 16 -12 29.36 6.62
-16 16 -13 -4.06 3.18
0 17 0 51.95 11.79
17 0 0 58.35 10.82
17 0 1 651.54 35.58
17 0 -1 670.25 36.12
0 17 1 657.12 39.29
0 17 -1 619.8 37.16
0 17 -2 -3.44 5.92
17 0 2 -1.68 6.64
17 0 -2 -3.3 6.46
0 17 2 -1.05 6.17
0 17 -3 57.21 11.06
17 0 3 83.66 14.9
17 0 -3 71.64 12.76
0 17 3 58.72 12.38
17 0 4 154.89 19.64
17 0 -4 151.4 18.95
0 17 4 152.47 18.95
0 17 -4 108.86 15.14
17 0 5 19.46 10.49
17 0 -5 4.35 5.86
0 17 5 9.45 7.34
17 0 6 215.04 24.52
17 0 -6 211.72 23.64
0 17 6 193.36 24.05
17 0 -7 25.33 12.17
0 17 7 11.8 9.37
17 0 -8 2.28 5.64
0 17 8 3.6 6.18
17 0 -9 256.37 25.33
0 17 9 288.54 31.63
17 0 -10 124.36 17.29
0 17 10 121.69 21.07
17 0 -11 461.53 32.78
0 17 11 533.16 41.94
17 0 -12 57.74 12.53
0 17 12 32.38 9.77
17 0 -13 124.6 16.78
0 -17 -13 157.12 25.38
17 0 -14 58.25 11.71
0 -17 -14 88.82 18.33
17 0 -15 -8.51 5.7
0 -17 -15 -10.98 8.49
0 -17 -16 276.9 26.87
17 0 -16 211.36 17.67
0 -17 -17 -2.56 4.97
17 -1 0 701.82 37.91
17 1 0 689.59 38.11
1 17 0 705.2 40.94
-1 17 0 688.94 40.12
17 -1 1 114.31 16.54
17 1 1 163.66 19.35
17 -1 -1 111.91 16.92
17 1 -1 170.38 19.53
1 17 1 171.38 22.5
1 17 -1 152.97 20.17
-1 17 1 114.92 17.32
-1 17 -1 113 17.06
17 -1 2 177.17 19.93
17 1 2 171.48 19.27
17 -1 -2 174.31 18.77
17 1 -2 182.01 18.75
-1 17 -2 84.82 16.91
1 17 2 174.54 20.83
-1 17 2 173.71 20.67
1 17 -2 158.07 18.83
-1 17 -2 145.53 18.35
-1 17 -3 29.91 9.96
17 -1 3 26.63 10.09
17 1 3 14.98 7.51
17 -1 -3 20.37 7.24
17 1 -3 20.18 7.48
-1 17 -3 -1.54 16.95
1 17 -3 48.77 13.67
1 17 3 25.29 9.38
-1 17 3 40.69 12.05
1 17 -4 43.09 12.07
17 -1 4 23.12 10.37
17 1 4 9.76 8.6
17 -1 -4 24.41 9.56
17 1 -4 26.64 9.74
-1 17 -4 51.84 24.89
1 17 4 23.21 9.34
-1 17 4 39.56 12.58
-1 17 -4 59.81 16.08
17 -1 5 220.2 26.27
17 1 5 205.94 22.9
-1 17 -5 163.53 33.14
17 -1 -5 163.29 19.04
17 1 -5 207.65 23.09
1 17 5 186.48 22.42
-1 17 5 176.81 21.79
-1 17 -6 4.8 6.06
17 -1 6 -30.4 13.93
17 1 6 6.66 9.58
17 -1 -6 32.95 11.4
-1 17 -6 27.67 19.3
17 1 -6 -25.48 12.39
1 17 6 5.07 7.92
-1 17 6 10.04 7.14
-1 17 -7 61.06 24.88
17 -1 -7 29.02 7.46
17 1 -7 64.21 13.72
1 17 7 71.56 14.67
-1 17 7 86.78 16.82
-1 17 -7 89.83 14.44
-1 17 -8 39.88 21.94
17 -1 -8 -2.6 10.94
17 1 -8 40.89 12.14
1 17 8 49.29 14.14
-1 17 8 48.38 13.13
17 -1 -9 7.32 7.03
17 1 -9 38 10.51
1 17 9 45.65 14.05
-1 17 9 37.86 11.34
17 1 -10 379.4 30.18
1 17 10 428.9 37.73
-1 17 10 410.03 36.58
17 1 -11 205.85 23.2
1 17 11 198.08 27.13
-1 17 11 152.75 23.75
17 -1 -12 153.36 18.84
17 1 -12 151.61 19.16
-1 17 12 139.89 21.84
1 -17 -12 198.1 29.51
17 -1 -13 12.86 5.66
17 1 -13 30.38 9.23
1 -17 -13 10.83 8.41
17 -1 -14 13.72 6.28
17 1 -14 21.29 7.61
1 -17 -14 21.25 10.46
-1 -17 -14 17.59 10.68
1 -17 -15 146.43 21.02
17 -1 -15 108.25 13.61
17 1 -15 118.87 14.56
-1 -17 -15 154.83 21.89
1 -17 -16 25.89 10.09
17 1 -16 17.25 5.68
-1 -17 -16 5.27 6.87
1 -17 -17 120.44 16.11
-1 -17 -17 138.91 17.47
17 1 -17 82.65 9.82
17 -2 0 258.62 22.68
17 2 0 366.51 29.72
-2 17 0 147.64 29.18
2 17 0 355.26 28.72
-2 17 0 233.98 25.67
-2 17 1 78.58 14.06
-2 17 -1 59.76 12.93
-2 17 -1 34.68 12.38
17 -2 1 76.55 13.89
2 17 -1 80.08 14.27
17 2 1 75.57 13.29
17 -2 -1 70.39 12.45
17 2 -1 76 13.14
-2 17 1 33.9 14.59
2 17 1 83.6 15.29
-2 17 2 79.8 15.67
-2 17 -2 69.66 14.32
-2 17 -2 -16.17 21.49
17 -2 -2 74.91 14.19
17 -2 2 74.19 14.56
17 2 -2 91.01 15.49
17 2 2 95.15 15.76
-2 17 2 -6.42 16.8
2 17 2 89.23 18.17
2 17 -2 106.89 18.38
2 17 -3 13.27 6.67
-2 17 -3 20.28 9.26
17 -2 3 19.88 8.42
17 2 3 14.94 7.35
-2 17 -3 55.35 27.99
17 -2 -3 7.94 7.71
17 2 -3 18.81 8.95
-2 17 3 24.02 18.23
2 17 3 6.73 7.54
-2 17 3 26.66 10.29
-2 17 -4 1.47 5
17 -2 4 6.35 8.12
17 2 4 -13.22 9.25
17 2 -4 7.88 8.12
-2 17 -4 -10.23 15.58
2 17 4 4.64 6.93
-2 17 4 5.93 6.84
-2 17 -5 78.08 26.93
-2 17 -5 24.4 7.11
17 -2 5 134.18 20.93
17 2 5 62.46 15.34
17 2 -5 92.18 18.78
17 -2 -5 12.58 7.81
-2 17 5 88.59 18.83
2 17 5 73.23 15.55
-2 17 -6 20.75 7.35
17 2 6 29.82 11.38
-2 17 -6 51.67 20.4
17 -2 -6 33.31 9.28
17 2 -6 -2.6 8.77
2 17 6 43.17 11.93
-2 17 6 46.74 12.98
-2 17 -7 16.66 6.73
17 2 7 22.29 12.51
17 -2 -7 8.27 5.76
17 2 -7 -2.88 7.12
2 17 7 30.19 12.32
-2 17 -7 17.76 17.51
-2 17 7 48.28 13.93
-2 17 -8 4.42 5.53
-2 17 8 10.44 8.51
-2 17 -8 -8.71 19.29
17 -2 -8 -0.19 4.73
17 2 -8 29.44 11.67
2 17 8 0.97 7.37
17 -2 -9 143.6 17.83
17 2 -9 222.33 23.11
2 17 9 221.86 28.35
-2 17 9 202.63 25.12
17 2 -10 222.42 24.32
2 17 10 223.4 28.81
-2 17 10 160.69 23.92
17 -2 -11 18.31 4.36
17 2 -11 65.2 13.7
2 17 11 56.01 14.4
-2 17 11 55.41 14.35
17 -2 -12 161.39 19.03
17 2 -12 224.72 25.18
2 -17 -12 172.72 26.6
-2 17 12 159.05 21.91
17 -2 -13 -3.66 4.13
17 2 -13 -5.38 4.86
2 -17 -13 2.65 8.1
-2 -17 -13 6.69 8.83
17 2 -14 6.69 5.78
2 -17 -14 19.8 10.47
-2 -17 -14 6.49 6.94
17 2 -15 47.2 9.85
2 -17 -15 55.85 14.37
-2 -17 -15 85.96 17.89
2 -17 -16 42 10.62
17 2 -16 24.65 6.73
-2 -17 -16 33.26 9.76
2 -17 -17 32.21 9.17
-2 -17 -17 42.47 10.2
17 2 -17 28.8 6.6
-3 17 0 22.51 10.1
17 -3 0 24.32 8.34
17 3 0 49.35 11.43
-3 17 0 59.56 23.05
3 17 0 37.56 10.71
17 -3 1 167.7 19.29
17 -3 -1 152.33 17.99
17 3 1 262.19 24.01
17 3 -1 245.98 23.44
-3 17 -1 186.95 36.62
-3 17 1 149.39 30.32
3 17 1 244.59 24.82
3 17 -1 261.94 25.76
-3 17 1 134.88 20.83
-3 17 -1 160.77 21.67
-3 17 2 17.93 7.26
-3 17 -2 28.36 9.37
-3 17 -2 20.02 10.77
17 -3 2 22.86 7.12
17 3 2 25.29 8.87
17 -3 -2 32.97 10.84
17 3 -2 22.39 8.1
-3 17 2 27.45 19.12
3 17 2 23.83 7.81
3 17 -2 17.59 6.04
-3 17 -3 48.65 11.76
17 -3 3 56.11 12.89
17 -3 -3 72.83 12.96
17 3 3 89.72 15.36
-3 17 -3 35.99 16.05
-3 17 3 65.34 26.1
17 3 -3 77.73 14.4
3 17 3 77.52 14.74
-3 17 3 49.72 12.96
-3 17 -4 42.16 12.66
17 -3 4 42.2 13.22
17 3 4 48.24 14.4
-3 17 4 24.25 12.68
17 -3 -4 3.12 6.42
17 3 -4 38.38 11.84
-3 17 -4 25.16 20.02
3 17 4 42.33 12.89
-3 17 4 50.19 13.86
-3 17 -5 36.47 11.47
17 -3 5 31.38 10.18
17 3 5 16.3 8.43
3 17 5 41.92 11.83
-3 17 5 19.92 16.92
17 -3 -5 17.79 7.2
17 3 -5 15.4 6.91
-3 17 -5 40.31 24.34
-3 17 5 17.52 8.92
-3 17 -6 30.3 9.61
-3 17 -6 13.92 16.87
17 3 6 64.47 17.26
17 -3 -6 35 10.4
17 3 -6 59.61 14.14
3 17 6 82.2 19.24
-3 17 6 67.01 16.86
17 3 7 25.31 11.23
17 -3 -7 5.62 5.74
-3 17 -7 12.19 15.46
-3 17 -7 -4.94 6.21
17 3 -7 15.64 8.82
3 17 7 4.21 9.9
-3 17 7 8.74 6.64
-3 17 -8 41.57 10.63
17 -3 -8 12.27 4.36
17 3 -8 39.81 10.02
3 17 8 35.49 11.97
-3 17 8 57.63 14.26
-3 17 -9 92.5 16.35
17 -3 -9 95.99 15.96
17 3 -9 115.51 18.72
3 17 9 122.12 22.47
-3 17 9 80.21 18.04
17 -3 -10 3.61 4.12
17 3 -10 7.5 6.03
3 17 10 8.26 7.46
-3 17 10 -4.51 6.63
17 3 -11 287.87 27.94
3 17 11 290.26 32.37
-3 17 11 204.77 26.02
17 3 -12 31.45 9.66
-3 17 12 47.82 14.1
3 -17 -12 41.99 13.46
17 3 -13 115.38 17.68
3 -17 -13 85.18 16.49
-3 -17 -13 144.18 24.94
17 3 -14 33.2 9.42
3 -17 -14 38.66 13.08
-3 -17 -14 37.26 12.03
3 -17 -15 10.56 6.79
17 3 -15 13.7 5.5
-3 -17 -15 18.3 10.37
3 -17 -16 34.81 9.55
17 3 -16 27.98 7.92
3 -17 -17 -1.8 3.36
-3 -17 -17 4.3 4.99
17 3 -17 -7.53 4.22
-4 17 0 73.44 15.83
17 -4 0 128.56 18.78
17 4 0 108.52 16.36
4 17 0 140.28 18.92
-4 17 0 63.12 21.49
17 -4 1 192.17 22.38
17 -4 -1 166.6 19.25
17 4 1 98.8 15.41
17 4 -1 126.04 16.93
4 17 1 136.98 18.91
-4 17 1 144.51 29.8
-4 17 1 149.52 20.13
-4 17 -1 158.44 19.97
-4 17 -1 114.39 29.34
-4 17 -2 99.45 27.71
17 -4 2 192.27 22.36
17 4 2 125.88 17.14
17 -4 -2 100.04 13.83
17 4 -2 120.75 17.52
-4 17 2 111.7 27.42
4 17 2 125.35 17.34
-4 17 2 118.2 17.73
-4 17 -2 119.77 17.4
-4 17 3 24.02 9.58
-4 17 -3 26.98 10.02
17 -4 3 69.38 13.63
-4 17 -3 29.7 18.86
17 4 3 30.68 10.66
17 -4 -3 -21.11 8.27
-4 17 3 25.74 14.06
17 4 -3 22.15 7.85
4 17 3 24.65 9.22
-4 17 -4 149.71 20.01
17 4 4 161.72 19.89
17 -4 4 104.48 12.38
17 4 -4 161.28 20.33
-4 17 4 114.52 29.06
17 -4 -4 61.08 9.18
-4 17 -4 139.62 32.38
4 17 4 181.06 22.19
-4 17 4 139.86 21.18
-4 17 -5 23.3 10.23
17 4 5 20.98 11.28
-4 17 5 4.47 13.67
17 4 -5 10.97 7.54
-4 17 -5 -1.55 15.67
4 17 5 -7.58 8.3
-4 17 5 23.61 9.62
-4 17 -6 57.27 24.44
-4 17 -6 82.37 16.5
17 4 6 62.58 14.29
-4 17 6 69.76 25.3
17 4 -6 58.79 13.25
4 17 6 33.66 10.19
-4 17 6 82.19 17.12
-4 17 -7 -4.9 10.66
17 4 7 53.69 14.99
-4 17 7 43.58 19.42
-4 17 -7 31.09 16.15
17 4 -7 53.39 13.12
4 17 7 53.85 14.69
-4 17 7 46.21 12.58
17 4 -8 117.91 18.37
4 17 8 118.61 21.25
-4 17 8 81.31 16.2
-4 17 -9 4.79 4.17
17 4 -9 -4.41 5.27
4 17 9 -3.41 7.06
-4 17 9 -0.83 7.42
-4 17 -10 98.17 16.08
17 4 -10 161.52 22.15
4 17 10 177.73 24.76
-4 17 10 126.11 20.28
17 4 -11 135.72 19.07
4 -17 -11 95.88 17.53
17 4 -12 83.37 14.92
-4 17 12 53.63 14.43
4 -17 -12 42.99 12.55
17 4 -13 68.88 13.23
-4 17 13 74.15 14.41
4 -17 -13 72.61 15.35
4 -17 -14 55.44 13.43
17 4 -14 56.1 11.76
-4 -17 -14 69.16 17.01
4 -17 -15 10.5 6.65
17 4 -15 13.53 6.57
-4 -17 -15 9.8 8.65
4 -17 -16 63.34 11.71
17 4 -16 54.8 9.61
-4 -17 -16 72.53 13.72
-4 -17 -17 18.95 6.78
17 4 -17 12.56 4.23
17 -5 0 225.19 22.14
17 5 0 166.81 19.97
-5 17 0 229.27 42.19
-5 17 0 248.06 26.49
-5 17 1 36.09 9.87
-5 17 -1 44.24 11.6
17 -5 1 11.99 7.52
17 5 1 50.93 11.27
17 5 -1 42.8 9.9
-5 17 1 17.84 15.5
5 17 1 -14.11 10.93
-5 17 -1 24.78 14.21
-5 17 2 65.01 14.31
-5 17 -2 72.81 15.24
-5 17 -2 59.66 23.16
17 -5 2 1.01 8.4
17 5 2 47.95 11.11
17 5 -2 54.6 12.58
-5 17 2 42.85 20.37
5 17 2 24.24 6.6
-5 17 -3 135.43 19.77
17 -5 3 72.87 13.81
-5 17 -3 121.09 31.76
17 5 3 124.14 17.04
17 5 -3 130.77 18.16
-5 17 3 123.55 31.26
5 17 3 147.14 20.1
-5 17 3 131.61 20.24
17 -5 4 13.05 8.67
-5 17 -4 -0.51 7.7
17 5 4 9.3 7.52
-5 17 4 -7.07 11.36
-5 17 -4 4.99 16.15
17 5 -4 4.93 6.61
5 17 4 6.3 6.74
-5 17 4 9.12 8.37
5 17 5 98.79 17.63
-5 17 -5 42.31 6.23
17 5 5 106.72 17.62
-5 17 5 81.6 26
17 5 -5 99.2 15.38
-5 17 -5 83.95 28.42
-5 17 5 86.54 17.01
-5 17 -6 43.54 12.22
17 5 6 53.23 13.52
-5 17 6 16.16 13.4
17 5 -6 32.55 8.75
5 17 6 32.36 11.27
-5 17 6 61.78 15.61
-5 17 -6 20.76 19.53
-5 17 -7 155.61 20.53
17 5 7 186.38 23.09
-5 17 7 127.45 34.08
-5 17 -7 122.09 35.95
17 5 -7 176.61 21.45
5 17 7 200.87 25.86
-5 17 7 155.77 21.35
-5 17 -8 -6.87 7.77
17 5 -8 1.71 5.6
5 17 8 18.9 9.27
-5 17 8 1.87 6.88
-5 17 -9 54.19 13.36
17 5 -9 114.43 17.54
5 17 9 102.05 19.79
-5 17 9 93.38 18.54
-5 17 -10 157.1 20.66
17 5 -10 159.63 21.32
-5 17 10 196.76 27.11
-5 17 -11 -0.86 6.75
17 5 -11 -4.26 8.14
-5 17 11 -1.64 7.44
5 -17 -11 -0.61 5.8
5 -17 -12 187.6 24.38
17 5 -12 166.74 20.51
-5 17 12 207.61 25.39
17 5 -13 38.68 10.96
5 -17 -13 45.28 11.06
-5 17 13 52.36 12.73
5 -17 -14 4.41 4.62
17 5 -14 -6.79 6.24
-5 -17 -14 -8.12 7.97
5 -17 -15 115.05 16.17
17 5 -15 115.87 15.07
-5 -17 -15 127.01 20.17
17 5 -16 24.49 6.32
-5 -17 -16 35.33 9.89
-5 -17 -17 71.31 12.85
17 5 -17 57.11 8.57
-6 17 0 21.6 10.03
17 6 0 -3.97 5.57
-6 17 0 -6.45 14.71
17 6 -1 105 16
17 6 1 85.02 14.61
-17 6 1 83.68 24.04
-6 17 1 98.86 26.73
6 17 1 84.79 13.23
-6 17 1 143.12 20.67
-6 17 -1 96.54 28.12
-6 17 -1 159.36 21.02
-6 17 2 15.35 9.91
-6 17 -2 28.3 13.45
-6 17 -2 23.42 9.41
17 6 2 16.71 8.67
-17 6 2 -10.65 17
17 6 -2 24.61 8.91
-6 17 2 18.59 15.68
6 17 2 17.72 7.75
-6 17 3 9.61 8.49
-6 17 -3 19.34 9.84
-6 17 -3 27.73 19.63
17 6 3 7.19 8.94
-17 6 3 3.49 12.06
-6 17 3 23.77 17.95
17 6 -3 24.06 10.54
6 17 3 13.34 7.75
-6 17 -4 54.72 13.49
17 6 4 44.88 12.39
-17 6 4 34.87 16.82
-6 17 -4 62.24 24.49
-6 17 4 32.49 19.19
17 6 -4 48.26 12.55
6 17 4 1.45 10.51
-6 17 4 45.52 13.14
-6 17 -5 80.67 16.17
-17 6 5 37.97 17.14
17 6 5 118.87 18.16
-6 17 5 75.03 25.27
17 6 -5 113.44 17.98
-6 17 -5 82.11 27.28
6 17 5 101.48 18.71
-6 17 5 108.12 19.61
-6 17 -6 92.33 11.81
17 6 6 151.38 19.97
-17 6 6 76.89 28.37
-6 17 6 146.91 38.05
17 6 -6 166.7 20.61
6 17 6 139.57 19.71
-6 17 6 197.12 24.67
-6 17 -6 142.82 36.13
-6 17 -7 19.22 8.93
17 6 7 24.21 9.68
6 17 7 42.98 16.71
17 6 -7 27.18 9.39
-6 17 7 21.4 10.46
17 6 -8 110.09 17.79
6 17 8 106.31 18.89
-6 17 8 93.04 17.34
17 6 -9 70.84 14.99
-6 17 9 82.9 18.07
17 6 -10 11.24 6.59
-6 17 10 11.11 8.3
-6 17 -11 220.78 24.05
17 6 -11 163.88 21.72
-6 17 11 244.08 27.64
-6 17 -12 5.7 6.5
-6 17 12 0.11 5.53
17 6 -12 3.69 5.96
17 6 -13 2.43 5.71
17 6 -14 38.78 8.76
-6 -17 -14 67.81 15.81
17 6 -15 58.69 10.49
-6 -17 -15 68.58 14.59
-6 -17 -16 109.14 16.5
17 6 -16 94.88 11.68
-6 -17 -17 54.8 10.46
17 6 -17 54.68 8.13
-7 17 0 25.65 10.48
17 7 0 15.02 7.58
-17 7 0 9.88 13.38
-7 17 0 27.37 18.32
-7 17 1 4.2 7.1
-7 17 -1 7.87 6.57
17 7 1 -5.34 7.72
17 7 -1 6.21 5.38
-17 7 1 6.57 10.56
-7 17 1 1.13 11.13
-17 7 -1 -4.85 9.63
-7 17 -1 -2.65 9.9
-7 17 2 8.45 10.09
-7 17 -2 33.8 16.73
-7 17 -2 24.21 9.45
17 7 2 6.83 6
-17 7 2 4.44 16.84
17 7 -2 9.87 7.54
-7 17 2 9.95 10.53
7 17 2 -27.09 12.23
-7 17 3 6.49 7.1
-7 17 -3 6.1 7.5
-7 17 -3 24.21 15.26
17 7 3 31.33 10.97
-17 7 3 2.33 12.1
-7 17 3 2.8 12.79
17 7 -3 10.57 8.49
7 17 3 7.09 6.33
-7 17 -4 179.05 22.95
17 7 4 234.86 25.35
-17 7 4 109.39 31.51
-7 17 -4 159.77 36.3
17 7 -4 222.77 23.85
-7 17 4 135.91 33.71
7 17 4 154.48 20.44
-7 17 4 187.68 24.81
-7 17 -5 64.7 17
-17 7 5 26.6 17.27
17 7 5 41.22 11.98
-7 17 5 0.8 13.36
-7 17 -5 25.12 19.6
17 7 -5 31.28 9.44
7 17 5 -10 10.62
-7 17 5 35.48 11.36
-7 17 -6 234.06 26.31
17 7 6 231.46 24.38
17 7 -6 236.35 25.34
7 17 6 227.03 27.14
-7 17 6 203.34 24.58
17 7 7 58 12.36
17 7 -7 69.14 13.42
7 17 7 77.06 15.33
-7 17 7 61.57 13.53
17 7 -8 69.69 14.96
-7 17 8 56.31 14.72
17 7 -9 26.88 9.53
-7 17 9 4.94 6.05
17 7 -10 113.63 17.77
-7 17 10 145.21 21.91
17 7 -11 75.25 14.46
-7 17 11 52.88 12.16
-7 17 -12 13.39 6.53
17 7 -12 15.4 7.68
-7 17 12 11.26 7.76
-7 17 -13 5.03 5.31
17 7 -13 20.04 8.12
-7 -17 -13 11.48 9.79
-7 -17 -14 59.5 13.35
17 7 -14 67.53 11.92
17 7 -15 41.21 9.27
-7 -17 -15 50.86 12.36
-7 -17 -16 137.18 17.88
17 7 -16 147.17 14.44
-7 -17 -17 28.34 7.78
17 7 -17 17.35 4.24
-8 17 0 18.72 10.38
17 8 0 25.53 8.65
-17 8 0 -12.96 17.53
-8 17 0 21.82 17.74
-8 17 1 0.99 7.04
-8 17 -1 11.45 7.45
17 8 1 9.13 8.65
17 8 -1 4.09 7.47
-17 8 1 2.07 13.08
-8 17 1 -13.62 19.29
-17 8 -1 5.03 11.81
-8 17 -1 -25.35 11.82
-17 8 -2 13.53 12.82
-8 17 2 37.17 11.69
-8 17 -2 44.93 21.49
-8 17 -2 30.72 10.88
17 8 2 41.97 10.69
17 8 -2 45.63 11.02
-17 8 2 -1.21 14.89
-8 17 2 29.05 22.49
-8 17 3 99.31 18.07
-8 17 -3 94.52 17.16
17 8 3 106.3 17.72
-8 17 -3 67.67 24.84
-17 8 -3 77.48 26.96
17 8 -3 101.92 16.28
-17 8 3 47.94 18.37
-8 17 3 97.53 31.61
8 17 3 37.97 6.93
-8 17 4 1.9 6.42
-8 17 -4 -11.34 10.49
17 8 4 8.05 6.39
-17 8 4 -3.46 15.35
-8 17 -4 1.68 15.43
-8 17 4 -14.37 15.48
17 8 -4 -1.42 6
8 17 4 4.91 6.28
-8 17 -5 423.19 36.12
17 8 5 476.11 34.51
17 8 -5 485.77 34.5
8 17 5 355.73 31.61
-8 17 5 435.66 36.45
-8 17 -6 9.42 6.61
17 8 6 -4.5 9.31
17 8 -6 -0.31 5.33
8 17 6 -7.15 8.14
-8 17 6 1.82 7.33
17 8 7 270.86 26.16
17 8 -7 292.13 27.59
-8 17 7 217.95 24.96
17 8 -8 6.88 5.33
-8 17 8 3.8 6.95
17 8 -9 30.38 10.18
-8 17 9 16.16 9.43
17 8 -10 147.4 19.34
-8 17 10 99.53 16.98
17 8 -11 11.28 5.71
-8 17 11 6.68 5.54
17 8 -12 16.36 6.8
-8 17 12 13.94 8.54
-8 -17 -13 54.31 15.57
-8 17 -13 31.54 8.4
17 8 -13 46.74 10.56
-8 17 -14 -0.75 3.87
17 8 -14 3.78 3.95
-8 -17 -14 0.83 6.39
17 8 -15 103.93 13.67
-8 -17 -15 107.02 16.86
17 8 -16 20.32 6.04
-8 -17 -16 22.58 7.52
-9 17 0 7.15 6.53
17 9 0 -5.47 6.3
-17 9 0 -5.85 9.58
-9 17 0 8.78 13.1
-9 17 1 22.23 11.13
-9 17 -1 24.73 11.21
17 9 1 36.88 10.76
17 9 -1 24.96 7.58
-17 9 1 12.23 10.9
-9 17 1 -5.32 13.16
-17 9 -1 -2.25 14.46
-9 17 -1 20.18 20.8
-9 17 2 34.82 12.03
-17 9 -2 45.1 19.56
-9 17 -2 21.17 15.85
-9 17 -2 38.58 11.48
17 9 2 38.37 11.34
17 9 -2 30.33 8.59
-17 9 2 25.54 20.12
-9 17 2 23.71 11.89
-9 17 3 -1.22 7.04
-9 17 -3 10.82 8.64
-9 17 -3 -7.73 11.34
-17 9 -3 -2.11 11.39
17 9 3 -0.7 6.73
-17 9 3 0.71 10.67
-9 17 3 -4.65 10.81
17 9 -3 -2.92 5.87
-9 17 -4 294.6 30.09
17 9 4 305.71 26.47
17 9 -4 316.02 27.71
-9 17 4 296.84 29.93
-9 17 -5 61.37 17.06
17 9 5 20.69 10.04
17 9 -5 33.95 10.29
-9 17 5 58.51 14.77
17 9 6 341.55 27.89
17 9 -6 366.84 30.09
-9 17 6 312.06 30.96
17 9 -7 32.69 11.06
-9 17 7 37.52 12
17 9 -8 123.07 18.19
-9 17 8 90.86 16.79
17 9 -9 124.7 18.23
-9 17 9 112.02 17.6
17 9 -10 1.47 6.33
-9 17 10 14.96 9.3
17 9 -11 48.86 11.98
-9 17 11 21.66 8.16
17 9 -12 23.25 8.52
-9 17 12 21.71 8.92
-9 17 -13 0.1 4.63
17 9 -13 11.74 6.61
-9 -17 -13 9.02 8.1
-9 17 -14 25.83 7.84
17 9 -14 33.81 8.65
-9 -17 -14 35.69 11.86
17 9 -15 12.12 5.51
-9 -17 -15 16.47 7.62
-9 -17 -16 115.58 14.97
17 9 -16 119.32 12.65
-10 17 0 45.1 14.12
-17 10 0 30.07 10.68
17 10 0 49.38 11.96
-10 17 1 21.56 9.44
-10 17 -1 23.05 10.08
17 10 1 15.56 8.7
17 10 -1 7.98 7.07
-17 10 1 -6.61 14.78
-17 10 -1 12.06 13.56
-10 17 2 7.63 5.99
-10 17 -2 11.37 8.88
17 10 2 4.34 7.58
17 10 -2 18.8 7.42
-10 17 -3 145.07 22.99
17 10 3 149.62 18.05
17 10 -3 175.1 19.95
-10 17 3 147.81 21.82
-10 17 4 75.63 17.71
-10 17 -4 71.08 17.09
17 10 4 40.61 10.64
17 10 -4 66.41 12.98
-10 17 -5 110.81 17.55
17 10 5 109.91 16.13
17 10 -5 116.2 16.48
-10 17 5 101.71 16.52
17 10 6 65.19 14.13
17 10 -6 104.75 18.34
17 10 -7 98.5 16.31
-10 17 7 72.44 14.89
17 10 -8 72.78 14.1
-10 17 8 90.86 16.94
17 10 -9 44.15 11.35
-10 17 9 48.37 12.58
17 10 -10 20.47 9.5
-10 17 10 6.83 4.85
17 10 -11 37.85 9.2
-10 17 11 48.41 11.68
17 10 -12 29.72 9
-10 17 -13 8.29 4.21
17 10 -13 15.64 6.52
-10 -17 -13 11.35 7.2
-10 17 -14 0.63 4.33
17 10 -14 13.27 5.79
-10 -17 -14 8.02 6.49
17 10 -15 24.7 6.44
-10 -17 -15 12.3 5.61
17 10 -16 23.03 5.89
-17 11 0 26.34 8.23
17 11 0 16.18 8.02
-11 17 1 42.18 11.66
-11 17 -1 29.18 10.54
-17 11 1 21.08 7.56
-17 11 -1 26.12 8.32
17 11 1 10.06 5.53
17 11 -1 17.3 6.21
-11 17 2 46.63 12.68
-11 17 -2 71.65 16
17 11 2 65.89 12.82
17 11 -2 53 11.77
-11 17 3 72.91 13.92
-11 17 -3 64.18 15.9
17 11 3 77.24 13.11
17 11 -3 104.1 16.15
-11 17 4 -11.44 10.05
-11 17 -4 11.4 9.49
17 11 4 7.41 6.03
17 11 -4 4.54 7.43
17 11 5 72.08 13.75
17 11 -5 96.83 17.77
-11 17 5 68.61 16.2
-11 17 -6 -8.8 9.67
17 11 6 -9.11 8.69
17 11 -6 -7.3 8.35
-11 17 6 -7.67 8.27
17 11 -7 88.01 16.64
-11 17 7 129.72 19.6
17 11 -8 4.27 5.64
-11 17 8 15.33 7.32
17 11 -9 2.74 4.73
-11 17 9 -4.03 7.05
17 11 -10 79.7 14.26
-11 17 10 87.15 15.55
17 11 -11 70.42 12.68
17 11 -12 29.21 8.95
-11 17 -13 30.22 8.7
17 11 -13 38.86 8.75
-11 -17 -13 35.63 10.25
-11 17 -14 4.48 3.2
17 11 -14 1.79 4.36
-11 -17 -14 -0.09 5.39
17 11 -15 16.56 5.19
-11 -17 -15 13.46 6.28
-17 12 0 122.59 18.47
17 12 0 95.15 14.39
-12 17 0 123.81 20.95
-12 17 1 54.54 13.24
-17 12 1 52.71 11.88
-12 17 -1 60.8 13.72
-17 12 -1 56.91 13
17 12 1 47.18 10.64
17 12 -1 53.09 10.97
-12 17 2 99.39 17.62
-12 17 -2 98.16 19.4
17 12 2 116.76 15.51
17 12 -2 115.86 16.42
-12 17 3 3.66 5.41
-12 17 -3 -9.04 9.02
17 12 3 -3.42 4.98
17 12 -3 -1.72 6.16
-12 17 4 40.82 11.13
-12 17 -4 44.78 13.62
17 12 4 40.09 10.43
17 12 -4 72.9 13.52
-12 17 -5 38.94 12.33
17 12 5 37.54 9.62
17 12 -5 39.74 8.46
-12 17 5 33.35 10.91
17 12 -6 69.84 12.61
-12 17 6 94.27 18.83
17 12 -7 12.11 5.05
-12 17 7 8.52 6.07
17 12 -8 41.49 11.39
-12 17 8 14.78 5.71
17 12 -9 36.24 9.69
-12 17 9 38.28 11.07
17 12 -10 149.19 18.16
17 12 -11 37.8 8.88
-12 17 -12 142.51 18.2
17 12 -12 158.83 16.9
-12 -17 -12 153.47 20.88
-12 17 -13 -5.47 5.47
17 12 -13 0.35 3.86
-12 -17 -13 1.43 5.16
-12 17 -14 4.69 3.25
-12 -17 -14 6.89 4.1
17 12 -15 4.3 3.78
-13 17 0 113.04 18.48
17 13 0 126.15 15.74
-17 13 0 112.84 17.78
-17 13 -1 362.22 32.91
17 13 1 358.5 26.87
17 13 -1 333.2 25.62
-13 17 1 346.63 32.62
-17 13 1 349.65 31.47
-13 17 -1 358.79 35.03
-13 17 2 -0.72 6.47
-17 13 2 2.92 6.41
-13 17 -2 -6.57 7.47
-17 13 -2 6.15 6.39
17 13 2 -8.58 7.32
17 13 -2 6.5 4.66
-13 17 3 38.72 11.47
-13 17 -3 32.42 11.59
17 13 3 31.65 8.53
17 13 -3 42.29 9.48
-13 17 -4 58.23 14.74
17 13 4 38.59 8.91
17 13 -4 53.89 10.97
-13 17 4 44.77 12.68
17 13 5 14.88 6.84
17 13 -5 25.78 8.69
-13 17 5 16.78 9.11
-13 17 -6 129.18 22.53
17 13 -6 156.15 18.23
-13 17 6 119.38 17.22
-13 17 -7 25.95 12.82
17 13 -7 47 10.54
-13 17 7 17.06 7.86
17 13 -8 3.13 4.94
-13 17 8 -0.72 5.76
17 13 -9 183.81 19.26
17 13 -10 35.68 8.73
-13 17 -11 239.3 25
17 13 -11 243.42 21.09
-13 17 -12 3.92 4.56
17 13 -12 16.8 5.85
-13 -17 -12 14.64 6.73
-13 17 -13 55.35 10.64
17 13 -13 88.83 11.43
-13 -17 -13 54.08 10.82
-13 17 -14 12.73 4.69
17 13 -14 9.2 3.96
17 14 0 517.74 31.34
-14 17 0 516.91 39.16
-17 14 0 536.98 38.27
-14 17 1 35.15 10.12
-17 14 1 14.76 7.09
-14 17 -1 35.76 11.81
-17 14 -1 25.97 8.08
17 14 1 46 9.97
17 14 -1 36.94 8.04
-17 14 -2 147.38 22.27
17 14 2 153.74 16.83
17 14 -2 144.38 16.51
-14 17 2 152.72 20.98
-17 14 2 120.29 17.28
-14 17 -2 162.21 21.8
-14 17 3 48.33 13.11
-14 17 -3 38.7 11.97
-17 14 -3 46.19 13.81
17 14 3 24.09 7.24
17 14 -3 33.2 9.54
-14 17 -4 -3.38 7.82
-17 14 -4 6.15 6.7
17 14 4 -3.32 6.15
17 14 -4 1.76 4.13
-14 17 4 3.28 7.08
-14 17 -5 143.42 20.72
17 14 -5 139.5 16.81
-14 17 5 141.96 20.53
17 14 -6 4.36 4.1
-14 17 6 -3.05 4.62
-14 17 -7 19.93 8.74
17 14 -7 24.2 7.13
-14 17 7 14.33 6.67
-14 17 -8 91.28 16.93
17 14 -8 80.46 12.67
-14 17 -9 19.26 6.62
17 14 -9 38.73 8.42
-14 17 -10 210.8 22.94
17 14 -10 192.44 18.08
-14 17 -11 11.78 6.61
17 14 -11 21.53 6.2
-14 -17 -11 11.78 4.7
-14 17 -12 147.12 17.18
17 14 -12 157.95 14.87
-14 17 -13 3.41 4.78
17 14 -13 14.28 5.84
-15 17 0 98.63 14.94
-17 15 0 99.98 16.58
17 15 0 138.02 15.2
17 15 1 206.19 19.33
17 15 -1 200.75 18.55
-15 17 1 175.43 22.83
-17 15 1 200.99 23.19
-15 17 -1 210.43 24.56
-17 15 -1 212.34 24.45
-15 17 2 7.73 5.74
-17 15 2 9.17 6.26
-15 17 -2 9.66 7.41
-17 15 -2 18.5 8.93
17 15 2 21.07 8.16
17 15 -2 7.38 3.92
-15 17 3 10.59 6.36
-17 15 3 17.84 8.41
-15 17 -3 24.18 9.11
-17 15 -3 21.56 8.91
17 15 -3 22.7 7.51
-15 17 -4 71.98 15.18
-17 15 -4 74.98 16.98
17 15 -4 54.15 10.94
-15 17 4 63.73 14.07
-15 17 -5 3.02 5.68
-17 15 -5 3.96 7.04
17 15 -5 4.6 6.43
-15 17 5 0.53 4.85
-15 17 -6 13.07 8.76
-17 15 -6 15.68 10.08
17 15 -6 9.62 5.63
-15 17 6 -0.06 4.98
-15 17 -7 5.25 6.42
17 15 -7 1.52 4
-15 17 -8 16.51 8.93
17 15 -8 21.96 6.88
-15 17 -9 75.31 14.39
17 15 -9 72.1 11.08
-15 17 -10 14.02 6.91
17 15 -10 50 8.76
-15 17 -11 115.91 15.88
17 15 -11 129.94 13.17
-15 17 -12 9.57 5.05
17 15 -12 18.33 4.88
-15 17 -13 19.57 5.71
-17 15 -13 24.42 6.85
-16 17 0 36.27 8.78
-17 16 0 57.12 11.66
-16 17 1 43.61 10.33
-17 16 1 30.32 8.53
-16 17 -1 35.85 12.24
-17 16 -1 40.75 10.67
-16 17 2 26.15 8.34
-17 16 2 33.65 9.54
-16 17 -2 27.83 8.8
-17 16 -2 36.48 10.99
17 16 -2 30.54 6.84
-16 17 -3 2.31 6.44
-17 16 -3 5.56 5.56
17 16 -3 8.45 4
-16 17 3 18.06 8.49
-17 16 3 2.63 5.78
-16 17 -4 0.78 6.36
-17 16 -4 1.32 5.78
17 16 -4 -1.45 4.96
-16 17 4 1.83 6.55
-16 17 -5 3.22 7.77
-17 16 -5 7.31 7.56
17 16 -5 8.85 4.71
-16 17 -6 3.05 6.05
-17 16 -6 6.16 6.71
17 16 -6 -0.62 3.77
-16 17 -7 23.18 10.02
-17 16 -7 23.3 9.34
17 16 -7 9.35 4.23
-16 17 -8 9.42 5.83
-17 16 -8 20.2 9.04
17 16 -8 7.32 3.52
-16 17 -9 5.21 6.91
-17 16 -9 27.24 8.62
-16 17 -10 28.29 9.26
-17 16 -10 29.01 8.91
17 16 -10 34.87 6.7
-16 17 -11 17.98 7.12
-17 16 -11 22.2 7.46
-16 17 -12 9.22 3.32
-17 16 -12 10.3 5.25
-17 17 0 46.51 10.79
-17 17 1 -5.16 6.27
-17 17 -1 -2.17 6.27
-17 17 2 2.52 5.8
-17 17 -2 43.44 11.53
-17 17 -3 0.93 6.24
-17 17 3 -3.29 6.06
-17 17 -4 15.09 8.31
-17 17 -5 -4.29 6.25
-17 17 -6 46.18 11.35
-17 17 -7 -7.08 7.25
-17 17 -8 48.55 11.4
-17 17 -9 6.84 6.65
-17 17 -10 4.36 4.77
-17 17 -11 1.72 4.73
18 0 0 803.21 41.02
0 18 0 838.73 45.51
18 0 1 256.7 24.56
18 0 -1 222.26 21.84
0 18 1 241.23 26.52
0 18 -1 218.44 24.05
18 0 2 324.04 28.36
18 0 -2 292.68 27.06
0 18 2 316.27 30.11
0 18 -2 238.23 23.14
0 18 -3 1.86 4.22
18 0 3 8.94 7.8
18 0 -3 20.51 11.44
0 18 3 30.3 12.53
18 0 4 188.53 22.55
18 0 -4 169.82 20.14
0 18 4 172.24 22.81
0 18 -4 117.29 16.66
18 0 -5 158.71 20.59
0 18 5 163.2 22.6
18 0 6 46.93 13.74
18 0 -6 62.4 14.79
0 18 6 49.98 13.27
18 0 -7 220.45 22.59
0 18 7 232.49 26.3
18 0 -8 27.88 10.51
0 18 8 49.17 13.94
18 0 -9 68.58 13.67
0 18 9 85.73 16.98
18 0 -10 385.5 29.95
0 18 10 450.67 39.7
18 0 -11 419.67 31.36
0 18 11 425.83 37.13
18 0 -12 237.95 22.75
0 18 12 265.77 30.04
18 0 -13 28.89 7.72
0 -18 -13 31.91 11.51
18 0 -14 82.38 12
0 -18 -14 113.83 20
18 0 -15 130.76 14.22
0 -18 -15 167.93 20.98
0 -18 -16 38.86 9.79
0 -18 -17 116.87 14.11
18 -1 0 373.52 29.43
18 1 0 500.12 33.45
1 18 0 517.47 36.86
-1 18 0 390.92 32.2
18 -1 1 326.89 27.07
18 1 1 295.72 26.09
18 -1 -1 288.79 24.72
18 1 -1 306.9 27.84
1 18 1 317.65 28.27
1 18 -1 306 26.93
-1 18 1 337.07 31.43
-1 18 -1 306.27 28.31
1 18 -2 59.58 12.26
-1 18 -2 74.57 13.94
18 -1 2 120.06 19.7
18 1 2 119.82 17.77
18 1 -2 146.95 20.26
18 -1 -2 70.42 13.65
1 18 2 130.82 20.68
-1 18 2 100.87 17.53
18 -1 3 144.78 19.18
18 1 3 159.48 20.91
18 -1 -3 159.56 19.43
18 1 -3 91.5 13.87
1 18 3 120.58 17.89
-1 18 3 170.87 22.7
1 18 -3 94.57 14.78
-1 18 -3 115.76 17.02
1 18 -4 -13.39 9.65
-1 18 -4 27.83 9.47
18 -1 4 20.6 8.52
18 1 4 48.53 13.05
18 -1 -4 68.59 14.34
18 1 -4 10.29 5.4
1 18 4 30.75 10.68
-1 18 4 41.3 12.04
18 -1 5 106.57 17.7
18 1 5 107.53 18.69
18 -1 -5 124.81 18.05
18 1 -5 95.34 15.45
1 18 5 108.66 18.41
-1 18 5 137.79 21.41
-1 18 -5 83.49 14.41
18 1 6 220.42 24.66
18 -1 -6 144.15 18.09
18 1 -6 120.08 14.07
1 18 6 194.2 24.97
-1 18 6 202.49 24.32
-1 18 -6 139.01 16.91
18 1 -7 23.46 9.67
1 18 7 35.5 12.5
18 -1 -8 -9.77 11.35
18 1 -8 16.33 7.3
1 18 8 23.15 9.81
-1 18 8 15.38 8.17
18 1 -9 228.89 23.8
1 18 9 254.98 29.43
-1 18 9 245.74 29.21
18 1 -10 449.61 33.4
1 18 10 503.06 41.23
-1 18 10 387.82 35.49
18 -1 -11 191.32 20.15
18 1 -11 216.84 22.1
1 18 11 228.34 27.27
-1 18 11 239.68 28.49
18 -1 -12 254.83 23.37
18 1 -12 329.58 27.57
1 -18 -12 298.61 33
-1 18 12 283.44 30.38
18 -1 -13 83.84 12.77
18 1 -13 89.28 13.87
1 -18 -13 142.72 22.43
-1 -18 -13 136.45 23.36
18 -1 -14 16.23 7.1
18 1 -14 12.71 6.14
1 -18 -14 24.59 11.09
-1 -18 -14 16.6 8.81
18 1 -15 43.03 8.49
1 -18 -15 78.89 15.49
-1 -18 -15 54.27 13.41
1 -18 -16 147.01 18.09
-1 -18 -16 168.88 19.74
18 1 -16 129.49 13.06
-1 -18 -17 43.61 8.87
18 -2 0 121.48 16.46
18 2 0 132.78 17.95
2 18 0 129.3 17.36
-2 18 0 145.68 22.46
18 -2 1 445.54 32.66
18 2 1 608.32 36.92
18 -2 -1 418.57 30.88
18 2 -1 622.33 37.74
2 18 1 582.68 39.11
2 18 -1 369.01 29.23
-2 18 1 491.07 37.13
-2 18 -1 423.6 34.82
-2 18 -2 85 15.62
18 -2 2 82.34 14.42
18 2 2 53.63 13.09
18 -2 -2 81.36 13.16
18 2 -2 80.75 14.26
2 18 2 71.66 14.45
2 18 -2 47.76 10.94
-2 18 2 84.55 17.08
-2 18 -3 51.11 12
18 -2 3 73.69 15.44
18 2 3 71.29 14.6
18 2 -3 85.14 16.45
18 -2 -3 -2.82 10.62
-2 18 -3 93.24 26.77
2 18 3 79.02 15.59
-2 18 3 53.83 12.37
2 18 -3 24.89 7.09
-2 18 -4 54.47 12.69
18 -2 4 33.49 9.06
18 2 4 98.91 18.85
18 -2 -4 79.31 14.23
18 2 -4 69.16 13.19
-2 18 4 130.9 20.79
2 18 4 65.38 14.25
-2 18 -4 96.51 28.59
-2 18 -5 61.07 12.71
-2 18 -5 67.02 23.49
18 -2 5 42.04 12.39
18 2 5 80.89 16.2
18 -2 -5 56.35 11.75
18 2 -5 43.63 9.97
2 18 5 85.75 17.1
-2 18 5 86.41 17.7
-2 18 -6 57.51 12.9
18 2 6 44.69 16.03
18 -2 -6 34.85 9.7
18 2 -6 58.93 14.38
2 18 6 57.04 15.29
-2 18 6 78.02 17.08
-2 18 -7 27.39 8.85
18 -2 -7 30.45 9.06
18 2 -7 61.89 13.35
-2 18 7 41.99 11.96
18 -2 -8 101.36 15.12
18 2 -8 112.67 16.85
2 18 8 142.27 21.65
-2 18 8 171.75 23.87
-2 18 -8 154.8 18.78
18 2 -9 163.43 20.58
2 18 9 162.25 24.4
-2 18 9 145.05 22.31
18 2 -10 63.49 12.97
2 18 10 60.83 13.84
-2 18 10 59.82 15.76
18 -2 -11 447.97 30.82
18 2 -11 622.37 39.08
2 18 11 618.02 45.86
-2 18 11 491.95 39.62
18 -2 -12 18.79 6.28
18 2 -12 21.04 7.3
-2 18 12 32.89 12.57
2 -18 -12 10.58 9.01
18 2 -13 155.92 18.84
2 -18 -13 116.24 19.55
18 2 -14 36.01 9.58
2 -18 -14 43.58 12.58
-2 -18 -14 37.87 12.43
18 2 -15 10.48 4.79
2 -18 -15 8.59 4.74
-2 -18 -15 7.82 6.31
2 -18 -16 114.43 16.16
-2 -18 -16 95.84 15.58
18 2 -16 72.73 10.24
-2 -18 -17 24.77 6.76
-3 18 0 454.59 52.85
3 18 0 411.45 31.38
-3 18 0 487.28 36.92
-3 18 1 -3.84 5.57
-3 18 -1 8.75 10.72
-3 18 -1 -4.8 14.13
18 -3 -1 -9.75 5.91
18 3 1 -1.4 6.82
18 3 -1 8.36 7.82
-3 18 1 -18.99 13.73
3 18 1 -34.74 13.04
3 18 -1 5.98 5.88
18 -3 2 284.83 23.93
18 3 2 454.5 32.29
18 -3 -2 213.43 20.98
18 3 -2 420.68 31.65
-3 18 -2 336.96 48.39
3 18 2 438.83 33.12
-3 18 2 325.52 30.42
-3 18 -2 303.98 28.56
-3 18 -3 27.2 8.76
18 3 3 4.46 7.7
18 -3 -3 8.41 6.04
-3 18 -3 3.29 14.53
18 3 -3 18.04 8.77
3 18 3 25.53 14.31
-3 18 3 21.34 8.96
-3 18 -4 15.87 8.56
18 -3 4 44.87 14.95
18 3 4 39.95 13.18
18 -3 -4 15.07 7.26
18 3 -4 29.48 10.02
-3 18 -4 9.22 16.65
3 18 4 5.15 5
-3 18 4 9.89 7.77
-3 18 -5 24.99 15.64
-3 18 -5 54.67 12.94
18 -3 5 69.04 18.05
18 3 5 44.98 13.55
18 -3 -5 25.4 7.43
18 3 -5 52.18 12.75
3 18 5 30.92 9.96
-3 18 5 83.83 17.64
-3 18 -6 18.42 9.75
18 3 6 29.26 12.83
-3 18 -6 -7.35 14.27
18 -3 -6 8.78 6.31
18 3 -6 16.05 6.39
3 18 6 49 16.54
-3 18 6 13.44 8.17
18 -3 -7 105.73 14.66
18 3 -7 189.82 22.3
3 18 7 198.52 26.25
-3 18 7 252.02 28.92
-3 18 -7 144.82 19.71
18 -3 -8 81.32 15.19
18 3 -8 85.56 15.2
3 18 8 71.45 15.81
-3 18 8 60.22 13.73
-3 18 -9 23.47 9.11
18 -3 -9 18.16 7.64
18 3 -9 16.14 6.24
3 18 9 22.53 10.41
-3 18 9 22.48 9.65
18 3 -10 477.71 35.16
3 18 10 484.55 39.56
18 3 -11 25.29 9.07
-3 18 11 47.78 14.81
3 -18 -11 66.24 16.86
18 3 -12 350.23 29.35
3 -18 -12 265.78 29.52
-3 18 12 279.59 28.98
18 3 -13 -1.18 4.39
3 -18 -13 9.23 8.75
-3 -18 -13 -3.88 7.11
18 3 -14 39.24 9.03
3 -18 -14 34.32 8.72
-3 -18 -14 51.55 13.07
3 -18 -15 57.13 13.55
18 3 -15 37.58 9.09
-3 -18 -15 71.94 15.81
3 -18 -16 -1.73 3.79
18 3 -16 -6.62 4.9
-3 -18 -16 5.24 5.26
-3 -18 -17 66.38 11.05
-4 18 0 62.81 12.94
18 -4 0 51.8 10.66
18 4 0 47.66 10.07
4 18 0 41.53 9.23
-4 18 0 42.13 21.4
18 -4 1 359.83 28.01
18 -4 -1 337.25 26.27
18 4 1 567.64 36.17
18 4 -1 624.06 37.53
-4 18 1 432.21 54.22
-4 18 -1 431.97 55.71
4 18 1 381.81 29.71
-4 18 1 496.45 36.71
-4 18 -1 492.65 37.16
-4 18 2 29.07 10.81
-4 18 -2 25.52 15.29
18 -4 2 12.86 7.27
18 4 2 20.07 9.84
18 -4 -2 10.11 5.85
18 4 -2 19.31 8.49
-4 18 2 17.66 10.91
4 18 2 12.09 4.64
-4 18 -3 89.62 15.8
18 4 3 182.32 22.14
18 -4 3 106.56 16.19
18 4 -3 157.26 21.89
18 -4 -3 43.79 7.32
-4 18 -3 107.32 30.58
-4 18 3 103.15 28.38
4 18 3 185.52 22.39
-4 18 3 144.84 21.02
-4 18 -4 -29.85 15.2
18 -4 4 12.3 8.4
18 4 4 19.96 10.41
18 -4 -4 -19.04 9.87
-4 18 4 8.84 12.47
18 4 -4 20.32 10.16
-4 18 -4 8.82 14.33
4 18 4 31.63 13.74
-4 18 4 22.43 10.01
-4 18 -5 13.5 9.28
18 4 5 14.49 9.81
18 4 -5 0.34 7.17
4 18 5 -26.52 15.54
-4 18 -5 -2.45 11.85
-4 18 5 10.8 9.93
-4 18 -6 280.04 28.52
18 4 6 178.84 22.99
18 4 -6 186.62 22.28
4 18 6 233.97 28.01
-4 18 6 241.55 27.85
-4 18 -7 84.89 14.97
18 4 7 111.53 18.08
18 4 -7 116.42 17.39
4 18 7 130.98 21.32
-4 18 7 114.07 18.87
-4 18 -8 11.52 5.16
18 4 -8 19 7.01
4 18 8 28.29 11.85
-4 18 8 24.31 10.93
18 4 -9 284.07 27.67
4 18 9 298.31 30.87
-4 18 9 232.49 27.37
-4 18 -10 105.82 15.79
18 4 -10 89.34 15.34
-4 18 10 101.17 20.83
4 18 10 106.84 19.49
4 -18 -11 130.65 21.61
-4 18 11 162.98 23.05
4 -18 -12 98.14 18.96
18 4 -12 68.43 12.06
-4 18 12 99.02 16.97
4 -18 -13 122.64 19.07
18 4 -13 156.74 18.93
18 4 -14 0.47 3.77
4 -18 -14 -1.18 4.31
-4 -18 -14 10.8 7.05
4 -18 -15 68.8 12.26
18 4 -15 45.22 8.92
-4 -18 -15 64.17 13.38
-4 -18 -16 80.94 15.11
18 4 -16 66.02 9.77
-4 -18 -17 17.53 5.36
18 5 0 403.6 29.3
-5 18 0 347.44 52.81
-5 18 0 412.11 33.76
-5 18 -1 91.76 29.46
18 -5 1 75.04 12.54
18 5 -1 136.88 20.56
18 5 1 108.97 16.48
5 18 1 84.77 14.18
-5 18 1 109.62 27.86
-5 18 1 191.65 23.85
-5 18 -1 186.82 24.87
-5 18 -2 137.55 34.08
18 5 2 185.25 22.01
18 -5 2 92.66 15.03
18 5 -2 199.1 22.92
-5 18 2 107.45 29.86
5 18 2 131.54 18.45
-5 18 2 138.39 21.54
-5 18 -2 186.79 23.39
-5 18 3 33.55 13.08
-5 18 -3 -18.02 13.29
18 -5 3 20 9.48
18 5 3 24.83 11.7
-5 18 -3 6.61 11.32
18 5 -3 19.93 9.5
-5 18 3 13.64 16.49
5 18 3 14.39 7.03
-5 18 -4 10.7 7.68
18 5 4 34.79 11.51
-5 18 4 1.8 11.58
18 5 -4 13.91 7.95
-5 18 -4 3.94 11.43
5 18 4 58.48 15.93
-5 18 4 49.52 13.55
-5 18 -5 165.18 22.29
18 5 5 185.67 22.76
18 5 -5 185.17 21.57
-5 18 5 124.47 31.31
5 18 5 204.98 26.83
-5 18 5 217.38 27.6
-5 18 -5 168.04 38.17
-5 18 -6 165.93 21.11
18 5 6 174.48 21.16
18 5 -6 158.87 20.13
5 18 6 176.9 22.87
-5 18 6 176.39 22.67
5 18 7 73.64 15.64
-5 18 -7 75.1 14.95
18 5 7 61.53 13.44
18 5 -7 58.2 12.61
-5 18 7 83.37 18.13
18 5 -8 283.32 26.78
5 18 8 282.27 30
-5 18 8 248.86 27.88
-5 18 -9 24.19 8.1
18 5 -9 32.47 9.55
5 18 9 44.85 14.37
-5 18 9 40.52 13.29
-5 18 -10 60.96 13.35
18 5 -10 69.49 14.28
-5 18 10 66.9 15.67
5 -18 -10 44.48 12.9
-5 18 -11 210.5 21.85
18 5 -11 198.57 21.61
5 -18 -11 241.25 26.57
-5 18 11 255.49 29.03
18 5 -12 78.94 14.75
-5 18 12 79.08 15.67
5 -18 -12 62.02 13.22
18 5 -13 20.58 9.06
5 -18 -13 18.46 8.92
-5 -18 -13 24.39 12.37
18 5 -14 81.63 12.77
-5 -18 -14 99.21 18.29
18 5 -15 58.76 9.74
-5 -18 -15 60.69 13.15
18 5 -16 47.74 7.29
-5 -18 -16 74.84 13.53
-5 -18 -17 75 11.73
18 6 0 52.76 13.16
-6 18 0 57.34 24.47
-6 18 -1 89.98 26.7
18 6 1 118.26 17.64
18 6 -1 154.75 20.06
-6 18 1 91.42 28.68
-6 18 1 135.73 20.56
-6 18 -1 153.52 22.24
-6 18 2 74.17 16.18
-6 18 -2 73.54 15.62
-6 18 -2 59.5 20.94
18 6 2 60.62 13.65
18 6 -2 42.2 12.42
-6 18 2 23.75 10.75
6 18 2 35.99 8.48
-6 18 3 19.97 10.58
-6 18 -3 12.55 9
-6 18 -3 -4.63 13.6
18 6 3 10.86 9.97
18 6 -3 4.68 6.43
-6 18 3 11.35 17.16
6 18 3 9.42 6.29
-6 18 -4 174.56 25.09
18 6 4 191 22.64
18 6 -4 172.82 21.4
-6 18 4 113.5 30.2
-6 18 -4 121.09 32.17
6 18 4 135 19.9
-6 18 4 168.56 24.84
-6 18 -5 127.14 19.99
18 6 5 78.86 15.54
18 6 -5 85.4 14.15
6 18 5 117.37 19.95
-6 18 5 112.07 20.13
-6 18 -6 272.58 28.25
18 6 6 295.7 27.67
18 6 -6 293.99 29.03
6 18 6 325.06 31.51
-6 18 6 296.34 30.82
-6 18 -7 260.11 26.34
18 6 7 213.38 24.38
18 6 -7 243.43 24.59
6 18 7 252.66 27.52
-6 18 7 229.98 26.53
-6 18 -8 14.12 6.42
18 6 -8 27.59 10.11
6 18 8 23.9 10.45
-6 18 8 12.44 8.81
-6 18 -9 33.82 10.36
18 6 -9 32.2 10.03
-6 18 9 26.69 10.77
-6 18 -10 167.7 20.98
18 6 -10 148.38 19.13
-6 18 10 178.22 23.77
-6 18 -11 10.75 6.18
18 6 -11 18.27 7.43
-6 18 11 17.44 8.54
-6 18 -12 101.81 15.16
18 6 -12 99.81 15.59
-6 18 12 105.73 17.46
18 6 -13 45.64 10.41
-6 -18 -13 43.71 13.85
18 6 -14 39.84 9.84
-6 -18 -14 65.93 15.02
18 6 -15 40.25 7.84
-6 -18 -15 71.19 14.43
-6 -18 -16 228.37 22.16
18 6 -16 185.13 15.44
-7 18 0 18.01 9.12
18 7 0 -2.75 6.16
-7 18 0 29.32 18.45
-7 18 -1 39.61 19.11
18 7 1 47.01 11.61
18 7 -1 77.55 15.19
-7 18 1 44.81 22.08
-7 18 1 115.57 19.82
-7 18 -1 104.91 20.67
-7 18 2 21.48 11.85
-7 18 -2 21.14 11.33
-7 18 -2 -2.15 11.21
18 7 2 4.18 6.97
18 7 -2 11.72 5.77
-7 18 2 13.21 15.48
7 18 2 38.94 12.4
-7 18 3 81 16.45
-7 18 -3 71.03 14.54
-7 18 -3 66.46 27.53
18 7 3 83.55 14.88
18 7 -3 63.6 12.02
-7 18 3 62.53 25.52
7 18 3 48.55 10.81
-7 18 -4 21.22 8.68
18 7 4 19.56 7.97
18 7 -4 19.88 6.95
7 18 4 19.35 7.46
-7 18 4 42.85 11.8
-7 18 -5 644.16 42.97
18 7 5 701.9 41.27
18 7 -5 680.77 41.27
-7 18 5 638.5 45.49
-7 18 -6 69.3 14.93
18 7 6 32.58 9.43
18 7 -6 37.5 10.93
7 18 6 59.06 13.24
-7 18 6 56.61 14.6
-7 18 -7 271.46 28.12
18 7 -7 339.44 29.79
7 18 7 339.65 32.38
-7 18 7 273.2 28.27
-7 18 -8 37.07 10.75
18 7 -8 33.52 9.91
-7 18 8 50.1 13.61
-7 18 -9 25.51 9.42
18 7 -9 20.53 9.29
-7 18 -10 10.38 6.4
18 7 -10 4.88 5.84
-7 18 10 18.48 10.01
-7 18 -11 79.43 14.27
18 7 -11 79.94 14.46
-7 18 11 102.19 17.98
-7 18 -12 11.68 6.71
18 7 -12 16.25 8.44
-7 18 12 32.08 10.75
18 7 -13 9.59 6.77
-7 -18 -13 4.88 6.57
18 7 -14 3.16 4.43
-7 -18 -14 8.3 6.46
18 7 -15 178 16.9
-7 -18 -15 199.28 22.18
18 7 -16 16.97 4.4
-7 -18 -16 21.82 6.99
18 8 0 89.84 14.77
-8 18 0 141.42 21.38
-8 18 1 13.35 8.59
-8 18 -1 20.07 9.8
18 8 1 13.83 6.48
18 8 -1 17.14 9.08
-8 18 2 13.95 9.58
-8 18 -2 -2.05 7.05
18 8 2 -3.43 6.88
18 8 -2 5.63 5.88
-8 18 3 21.76 9.35
-8 18 -3 26.69 11.46
18 8 3 7.88 8.25
18 8 -3 12.79 7.27
-8 18 -4 649.48 42.97
18 8 4 647.45 38.88
18 8 -4 656.5 40.12
-8 18 4 645.45 44.87
-8 18 -5 -3.3 8.81
18 8 5 -14.22 9.58
18 8 -5 -6.08 8.75
8 18 5 -7.88 8.39
-8 18 5 -6.36 7.86
-8 18 -6 678.4 44.92
18 8 6 737.7 42.58
18 8 -6 772.57 44.5
-8 18 6 692.21 46.86
-8 18 -7 -0.87 8.24
18 8 -7 -9.82 9.22
-8 18 7 -11.44 10.31
-8 18 -8 117.06 18.74
18 8 -8 174.56 21.2
-8 18 8 119.1 19.29
-8 18 -9 10.11 7.44
18 8 -9 16.01 9.76
-8 18 9 12.68 7.81
-8 18 -10 14.29 9.3
18 8 -10 1.33 5.93
-8 18 10 8.91 6.13
-8 18 -11 2.44 6.07
18 8 -11 9.39 6.38
-8 18 11 -6.89 5.2
-8 18 -12 -8.62 6.55
18 8 -12 -1.5 5.69
-8 18 12 10.68 6.67
-8 18 -13 -0.42 3.92
18 8 -13 4.19 5.73
-8 -18 -13 7.86 6.62
18 8 -14 82.39 12.18
-8 -18 -14 81.24 15.54
18 8 -15 -1.15 3.6
-8 -18 -15 2.94 6.71
-8 -18 -16 281.26 22.41
18 8 -16 297.96 18.68
-9 18 0 70.66 17.33
18 9 0 85.49 13.58
-9 18 1 31.43 10.44
-9 18 -1 44.26 12.78
18 9 1 35.7 9.55
18 9 -1 28.46 10.34
-9 18 2 23.77 10.47
-9 18 -2 46.13 13.38
18 9 2 22.62 8.66
18 9 -2 22.66 9.55
-9 18 -3 378.9 33.79
18 9 3 337.12 27.83
18 9 -3 356.56 28.32
-9 18 3 374.55 34.18
-9 18 -4 10.91 8.94
18 9 4 9.89 7.85
18 9 -4 19.95 6.78
-9 18 4 15.63 9.18
-9 18 -5 658.01 45.49
18 9 5 682.84 40.36
18 9 -5 751.43 42.01
-9 18 5 699.38 46.2
-9 18 -6 34.7 13.51
18 9 6 -11.33 10.12
18 9 -6 4.37 5.65
-9 18 6 28.96 9.82
-9 18 -7 418.56 35.49
18 9 -7 452.11 33.7
-9 18 7 384.59 33.47
-9 18 -8 28.28 10.56
18 9 -8 15.87 5.23
-9 18 8 20.54 8.45
-9 18 -9 46.73 12.17
18 9 -9 43.16 11.17
-9 18 9 40.74 11.03
-9 18 -10 12.95 8.49
18 9 -10 15.6 9.54
-9 18 10 4.31 5.47
-9 18 -11 1.68 4.69
18 9 -11 1.4 5.67
-9 18 11 0.69 5.26
-9 18 -12 19.19 7.66
18 9 -12 24.97 8.55
-9 18 12 45.46 11.47
-9 18 -13 19.09 7.49
18 9 -13 21.2 6.67
-9 -18 -13 26.8 10.85
18 9 -14 0.53 3.46
-9 -18 -14 3.83 4.94
18 9 -15 160.89 15.08
-9 -18 -15 144.35 17.18
-10 18 0 27.81 10.72
18 10 0 47.4 10.59
18 10 1 14.69 5.7
18 10 -1 21.5 6.66
-10 18 2 61.03 13.01
-10 18 -2 68.76 14.02
18 10 2 51.77 11
18 10 -2 42.93 9.41
-10 18 3 53.16 14.14
-10 18 -3 38.61 13.56
18 10 3 50.12 12.44
18 10 -3 54.77 12.17
-10 18 -4 341.2 32.54
18 10 4 286.53 25.62
18 10 -4 307.23 26.71
-10 18 4 312.88 31.95
-10 18 -5 129.7 22.25
18 10 5 58.43 12.6
18 10 -5 86.05 15.92
-10 18 5 118.63 21.83
-10 18 -6 362.37 33.49
18 10 6 338.75 27.83
18 10 -6 377.14 30.4
-10 18 6 353.32 31.85
-10 18 -7 89.57 19.22
18 10 -7 45.75 11.17
-10 18 7 88.66 17.25
-10 18 -8 139.48 22.19
18 10 -8 123.1 17.93
-10 18 8 127.42 18.71
-10 18 -9 0.72 5.35
18 10 -9 -1.85 5.07
-10 18 9 0.32 6.1
-10 18 -10 12.13 8.24
18 10 -10 15.42 6.82
-10 18 10 31.06 8.63
-10 18 -11 85.07 15.5
18 10 -11 63.62 12.15
-10 18 11 54.44 12.26
-10 18 -12 7.21 4.14
18 10 -12 6.19 3.9
-10 18 -13 22.24 7.25
18 10 -13 24.28 7.29
-10 -18 -13 32.76 11.03
-10 18 -14 28.72 6.34
18 10 -14 48.1 8.89
-10 -18 -14 32.11 9.73
18 10 -15 6.99 4.14
-10 -18 -15 16.34 6.95
-18 11 0 195.14 22.71
-11 18 0 240.48 28.55
-11 18 1 38.6 10.22
-11 18 -1 54.95 14.62
-18 11 -1 47.86 11.44
18 11 1 21.37 8.13
18 11 -1 24.13 9.37
-11 18 2 74.78 15.25
-11 18 -2 78.7 16.62
18 11 -2 78.91 14.62
18 11 2 63.08 11.91
-11 18 3 41.96 13.19
-11 18 -3 38.59 12.26
18 11 3 29.5 8.44
18 11 -3 41.29 9.68
-11 18 -4 55.66 15.58
18 11 4 42.44 11.66
18 11 -4 63.68 12.91
-11 18 4 57.4 14.76
-11 18 -5 67.39 14.23
18 11 5 58.67 11.9
18 11 -5 77.31 13.32
-11 18 5 56.29 12.87
18 11 -6 107.71 17.78
-11 18 6 143.75 21.92
-11 18 -7 92.31 17.88
18 11 -7 87.25 14.08
-11 18 7 82.27 15.48
-11 18 -8 5.66 6.4
18 11 -8 18.25 7.65
-11 18 8 15.26 7.7
-11 18 -9 52.34 13.42
18 11 -9 63.19 13
-11 18 9 38.77 10.59
-11 18 -10 110.33 17.35
18 11 -10 99.65 15.01
-11 18 10 83.62 13.79
-11 18 -11 22.87 8.47
18 11 -11 6.03 6.01
-11 18 -12 160.35 18.51
18 11 -12 158.32 17.24
-11 -18 -12 175.61 22.11
-11 18 -13 10.17 5.28
18 11 -13 13.49 5.83
-11 -18 -13 20.36 8.2
18 11 -14 6.86 3.91
-11 -18 -14 0.67 4.39
18 12 0 95.07 13.67
-12 18 0 144.66 21.19
-18 12 0 127.19 17.8
-18 12 -1 374.95 33.28
18 12 1 373.05 27.85
18 12 -1 344.39 27.01
-12 18 1 376.67 34.23
-12 18 -1 467.96 37.52
-12 18 2 4.99 6.3
-12 18 -2 9.39 6.45
-18 12 -2 17.98 8.52
18 12 2 22.75 7.4
18 12 -2 12.45 6.47
-12 18 3 31.15 9.63
-12 18 -3 27.53 12.38
18 12 3 31.85 8.44
18 12 -3 42.43 10.25
-12 18 -4 -12.59 11.53
18 12 4 -3.99 6.82
18 12 -4 -3.79 5.88
-12 18 4 4.68 6.59
18 12 5 36.36 10.13
18 12 -5 48.42 10.73
-12 18 5 43.13 13.6
-12 18 -6 1.79 10.17
18 12 -6 -6.84 7.74
-12 18 6 0.77 8.06
-12 18 -7 23.7 11.67
18 12 -7 41.5 10.56
-12 18 7 11.54 7.8
-12 18 -8 14.38 7.44
18 12 -8 13.74 7.11
-12 18 8 10.08 6.53
-12 18 -9 142.23 19.73
18 12 -9 131.63 16.37
-12 18 9 106.44 16.59
-12 18 -10 20.78 6.9
18 12 -10 10.41 5.4
-12 18 -11 384.63 29.93
18 12 -11 358.09 24.91
-12 18 -12 13.62 6.87
18 12 -12 9.31 4.42
-12 -18 -12 14.79 8.15
-12 18 -13 80.66 10.95
18 12 -13 96.05 11.75
-12 -18 -13 92.01 14.08
18 12 -14 11.95 5.58
18 13 0 654.18 35.98
-13 18 0 723.31 48.34
-18 13 0 728.96 43.88
-13 18 1 35.7 11.17
-18 13 1 29.47 9.85
-13 18 -1 37.03 9.23
-18 13 -1 31.79 8.79
18 13 1 31.89 8.48
18 13 -1 32.68 8.06
-18 13 -2 237.83 26.62
18 13 2 248.67 22.61
18 13 -2 232.04 22
-13 18 2 235.86 26.71
-13 18 -2 247.94 28.73
-13 18 3 5 6.29
-13 18 -3 5.69 6.99
-18 13 -3 3.68 5.9
18 13 3 5.58 6.82
18 13 -3 -5.21 5.47
-13 18 -4 12.93 9.11
18 13 4 7.49 6.78
18 13 -4 2.09 4.59
-13 18 4 10.53 8.57
-13 18 -5 21.79 9.7
18 13 -5 19.26 6.02
-13 18 5 7.33 5.2
-13 18 -6 13.21 8.43
18 13 -6 10.79 6.23
-13 18 6 4.63 5.81
-13 18 -7 -10.74 8.9
18 13 -7 -3.6 5.7
-13 18 7 1.77 5.96
-13 18 -8 91 16.57
18 13 -8 88.92 12.78
-13 18 8 61.3 12.42
-13 18 -9 8 6.6
18 13 -9 12.69 5.51
-13 18 -10 427.62 32.4
18 13 -10 390.84 26.63
-13 18 -11 0.79 5.93
18 13 -11 9 5.17
-13 18 -12 280.64 22.59
18 13 -12 308.47 20.78
-13 -18 -12 230.85 22.26
-13 18 -13 2.79 4.2
18 13 -13 4.64 3.2
-14 18 0 40.92 10.84
-18 14 0 42.83 10.35
18 14 0 41.36 8.25
18 14 1 489.99 31.12
18 14 -1 462.88 28.95
-14 18 1 499.86 37.7
-18 14 1 455.83 33.63
-14 18 -1 520.05 38.82
-18 14 -1 515.04 38.09
-14 18 2 1.58 6.45
-14 18 -2 2.37 7.62
-18 14 -2 -1.81 5.69
18 14 2 -0.03 5.91
18 14 -2 -7.56 6.75
-14 18 -3 67.81 15.57
-18 14 -3 74.53 15.73
18 14 3 54.33 10.59
18 14 -3 67.83 11.65
-14 18 3 62.57 13.94
-14 18 -4 41.19 11.02
-18 14 -4 18.25 9.12
18 14 4 13.34 4.87
18 14 -4 22.32 7.75
-14 18 4 25.14 8.91
-14 18 -5 14.56 7.42
-18 14 -5 11.12 6.45
18 14 -5 10.73 6.31
-14 18 5 12.79 7.76
-14 18 -6 4.73 6.74
18 14 -6 11.66 4.89
-14 18 6 4.07 5.86
-14 18 -7 4.44 5.63
18 14 -7 7.05 5.03
-14 18 7 -0.56 4.58
-14 18 -8 -3.01 7.18
18 14 -8 2.81 4.64
-14 18 -9 246.21 25.49
18 14 -9 204.35 18.18
-14 18 -10 6.33 4.97
18 14 -10 17.27 5.17
-14 18 -11 383.31 27.46
18 14 -11 376.88 22.83
-14 18 -12 1.25 3.48
18 14 -12 4.83 3.74
-18 14 -13 69.87 11.16
18 15 0 401.69 25.93
-15 18 0 393.67 33.4
-18 15 0 432.91 33.51
-15 18 1 5.11 6.09
-18 15 1 -0.55 6.61
-15 18 -1 12.47 6.52
-18 15 -1 14.71 6.21
18 15 1 24.47 6.39
18 15 -1 24.69 6.93
18 15 2 185.24 17.61
18 15 -2 182.8 17.11
-15 18 2 179.94 22.14
-18 15 2 186.25 20.99
-15 18 -2 204.55 25.05
-18 15 -2 189.18 23.74
-18 15 -3 7.6 7.62
18 15 -3 4.02 4.73
-15 18 3 6.32 6.4
-15 18 -4 -8.87 7.61
-18 15 -4 -2.08 5.16
18 15 -4 -3.22 5.15
-15 18 4 0.79 5.61
-15 18 -5 2.99 5.8
-18 15 -5 4.4 7.08
18 15 -5 6.08 4.49
-15 18 5 9.24 4.65
-15 18 -6 16.39 6.01
-18 15 -6 16.2 9.07
18 15 -6 15.66 6.39
-15 18 6 8.51 6.79
-15 18 -7 14.14 8.38
-18 15 -7 8.03 6.12
18 15 -7 6.37 5.42
-15 18 -8 60.43 13.02
-18 15 -8 63.57 12.48
18 15 -8 47.22 8.22
-15 18 -9 7.95 4.62
-18 15 -9 10.99 6.9
-15 18 -10 233.14 22.24
-18 15 -10 232.85 22.86
18 15 -10 216.77 16.62
-15 18 -11 7.74 4.72
-18 15 -11 8.3 4.13
18 15 -11 19.33 4.9
-15 18 -12 126.44 13.66
-18 15 -12 132.64 15.19
-16 18 0 30.1 9.85
-18 16 0 14.84 5.47
-16 18 1 163.82 19.9
-18 16 1 160.32 18.77
-16 18 -1 173.97 21.77
-18 16 -1 172.65 21.48
-16 18 2 11.89 7.02
-18 16 2 6.5 5.69
-16 18 -2 6.88 6.01
-18 16 -2 10.72 7.08
18 16 -2 16.93 5.11
-16 18 -3 12.94 8.14
-18 16 -3 5.61 4.74
18 16 -3 17.25 6.16
-16 18 3 11.38 5.43
-16 18 -4 19.84 8.42
-18 16 -4 14.3 6.98
18 16 -4 4.52 3.3
-16 18 4 8.29 6.46
-16 18 -5 23.74 9.11
-18 16 -5 22.02 8.85
18 16 -5 20.66 5.8
-16 18 5 13.17 7.56
-16 18 -6 27.94 9.92
-18 16 -6 11.93 6.06
18 16 -6 15.87 5.53
-16 18 -7 4.85 5.11
-18 16 -7 11.51 8
18 16 -7 1.56 3.22
-16 18 -8 20.93 6.91
-18 16 -8 24.9 8.81
18 16 -8 26.53 5.53
-16 18 -9 52.32 10.6
-18 16 -9 60.44 11.72
18 16 -9 42.66 7.34
-16 18 -10 5.95 4.45
-18 16 -10 8.66 5.43
-16 18 -11 60.94 10.13
-18 16 -11 64.45 10.1
-17 18 0 23.69 7.21
-18 17 0 32.23 9.21
-17 18 1 14.77 6.91
-18 17 1 7.83 4.13
-17 18 -1 6.72 4.72
-18 17 -1 6.11 5.61
-17 18 -2 10.35 6.55
-18 17 -2 19.17 7.32
-18 17 2 15.28 6.93
-17 18 2 17.82 7.61
-17 18 -3 27.19 9.13
-18 17 -3 33.06 10.29
-17 18 3 35.82 10.37
-17 18 -4 -3.65 7.18
-18 17 -4 9.09 6.4
-18 17 -5 81.96 14.48
-17 18 -5 98.22 15.82
-17 18 -6 3.44 4.53
-18 17 -6 0.49 5.8
-17 18 -7 59.04 11.77
-18 17 -7 45.28 10.49
-17 18 -8 4.18 5.77
-18 17 -8 3.08 3.9
-17 18 -9 13.13 5.47
-18 17 -9 17.86 6.59
-17 18 -10 9.73 4.79
-18 17 -10 -0.52 4.55
-18 18 0 -2.42 6.29
-18 18 -1 -8.58 5.16
-18 18 1 -5.96 6.35
-18 18 -2 8.8 4.99
-18 18 2 4.09 4.35
-18 18 -3 -0.78 4.22
-18 18 -4 144.56 18.45
-18 18 -5 1.03 5.05
-18 18 -6 145.93 17.51
-18 18 -7 -0.9 4.11
-18 18 -8 23.34 7
-18 18 -9 10.33 6.25
19 0 0 355.67 28.88
0 19 0 510.01 37.54
19 0 1 239.24 24.33
19 0 -1 220.84 23.15
0 19 1 212.95 21.9
19 0 2 104.42 16.13
0 19 2 127 19.45
0 19 -2 105.72 16.81
19 0 3 166.52 19.4
19 0 -3 165.14 18.02
0 19 3 213.47 25.62
0 19 -3 161.76 19.86
0 19 -4 40.4 9.52
0 19 4 58.55 14.37
19 0 5 113.11 17.03
19 0 -5 112.06 16.34
0 19 5 129.29 20.17
0 19 -5 146.75 19.11
19 0 -6 533.35 36.08
0 19 6 559.09 40.53
19 0 -7 21.84 10.21
0 19 7 42.53 14.16
19 0 -8 -1.28 5.57
0 19 8 3.56 6.48
19 0 -9 273.19 24.68
0 19 9 310.67 32.77
19 0 -10 477.17 32.85
0 19 10 562.34 43.17
19 0 -11 150.01 17.65
0 19 11 182.94 25.97
19 0 -12 316.97 24.91
0 -19 -12 387.27 37.77
19 0 -13 112.62 14.18
0 -19 -13 151.1 22.59
19 0 -14 15.46 5.89
0 -19 -14 31.51 10.56
0 -19 -15 150.19 19.08
0 -19 -16 201.59 19.27
19 -1 0 341.72 27.96
19 1 0 185.89 20.98
1 19 0 359.83 30.84
-1 19 0 244.83 24.59
19 -1 1 296.53 24.82
19 1 1 500.31 35.83
19 -1 -1 459.75 33.73
19 1 -1 412.45 29.5
1 19 1 591.63 40.97
1 19 -1 385.91 32.29
-1 19 1 387.26 33.08
-1 19 -1 527.38 37.4
19 1 2 223.24 25.48
19 -1 -2 197.84 21.39
19 1 -2 124.8 17.29
19 -1 2 103.43 13.79
-1 19 2 154.13 21.71
1 19 -2 123.41 17.39
-1 19 -2 229.03 25.33
1 19 2 110.14 16.02
-1 19 -3 21.16 7.93
19 -1 3 -48.4 19.02
19 1 3 41.99 13.84
19 -1 -3 38.99 12.32
19 1 -3 -20.64 13.43
1 19 3 4.16 8.61
-1 19 3 26.62 9.52
1 19 -3 22.2 8.38
19 -1 4 194.31 24.86
19 1 4 185.47 23.63
19 -1 -4 215.41 23.51
19 1 -4 175.7 20.78
1 19 4 211.27 26.38
-1 19 4 198.68 24.1
1 19 -4 210.22 22.21
-1 19 -4 131.65 17.57
19 -1 5 347.01 30.71
19 1 5 312.22 28.68
19 -1 -5 263 25.02
19 1 -5 320.45 27.65
1 19 5 312.17 29.88
-1 19 5 299.4 29.11
19 1 6 29.97 13.56
19 -1 -6 37.24 11.45
19 1 -6 73.91 15.37
-1 19 6 135.41 22.06
1 19 6 83.72 18.62
-1 19 -6 123.13 18.37
19 1 -7 260.03 26.39
1 19 7 258.55 29.23
-1 19 7 229.84 27.62
19 1 -8 97.58 15.69
1 19 8 99.47 18.19
-1 19 8 113.59 19.8
19 -1 -9 146.44 19.21
19 1 -9 193.14 21.59
1 19 9 197.52 27.12
-1 19 9 166.6 24.18
19 -1 -10 130.84 16.99
19 1 -10 135.32 18.31
1 19 10 162.94 23.31
-1 19 10 178.41 25.06
19 -1 -11 539.89 33.42
19 1 -11 676.01 38.45
1 19 11 712.15 48.05
-1 19 11 625.64 43.63
19 -1 -12 75.11 11.69
19 1 -12 74.4 12.37
-1 19 12 88.55 18.45
1 -19 -12 80.94 18.4
19 -1 -13 45.48 9.73
19 1 -13 60.09 10.54
1 -19 -13 70.83 15.92
19 1 -14 102.1 12.71
1 -19 -14 159.02 21.78
-1 -19 -14 151.32 21.76
19 1 -15 74.31 10.5
1 -19 -15 112.23 16.16
-1 -19 -15 128.27 17.45
1 -19 -16 135.32 15.83
-1 -19 -16 105.84 14.43
19 -2 0 789.51 41.89
2 19 0 709.35 42.87
-2 19 -1 47.39 11.94
19 -2 1 104.58 18.07
19 2 1 51.32 13.69
19 -2 -1 8.8 9.99
19 2 -1 55.86 12.87
2 19 1 83.02 14.17
2 19 -1 47.38 11.78
-2 19 1 36.44 12.34
19 -2 2 300.85 26.9
19 2 2 423.95 32.26
19 2 -2 461.11 34.22
2 19 2 420.32 33.93
2 19 -2 281.08 26.09
-2 19 2 365.58 32.3
-2 19 -2 345.71 29.85
-2 19 -3 77.79 15.53
19 -2 3 127.1 20.27
19 2 3 58.75 13.82
19 2 -3 84.8 16.18
19 -2 -3 47.05 10.61
2 19 3 16.38 8.92
-2 19 3 71.9 15.72
-2 19 -4 -9.67 11.18
19 -2 4 113.14 20.27
19 2 4 18.02 9.39
19 -2 -4 37.95 9.87
19 2 -4 59.61 13.33
2 19 4 53.99 15.47
-2 19 4 55.96 14.21
19 -2 5 130.82 19.07
19 2 5 75.08 17.16
19 -2 -5 76.08 14.39
19 2 -5 111.69 18.31
2 19 5 121.02 19.58
-2 19 5 151.83 23.14
-2 19 -5 87.77 14.98
19 2 6 228.43 24.73
19 -2 -6 127.9 16.95
19 2 -6 248.23 25.96
2 19 6 253.01 28.77
-2 19 6 153.42 23
-2 19 -6 118.85 17.28
19 -2 -7 124.76 18.58
19 2 -7 179.68 22.98
2 19 7 197.53 26.25
-2 19 7 266.73 29.22
-2 19 -7 238.09 24.34
19 2 -8 5.58 5.93
2 19 8 22.04 10.36
-2 19 8 5.81 7.72
2 19 9 47.3 13.64
19 -2 -9 15.77 5.84
19 2 -9 30.33 9.9
-2 19 9 49.04 13.13
19 2 -10 728.37 41.88
2 19 10 740.43 48.57
-2 19 10 601.83 44.06
19 -2 -11 6.89 4.55
19 2 -11 30.79 9.74
2 19 11 20.39 8.98
-2 19 11 23.3 11.55
2 -19 -11 14.27 9.87
19 2 -12 428.63 29.94
2 -19 -12 352.15 33.44
-2 19 12 371.23 32.69
19 2 -13 16.95 5.09
2 -19 -13 23.12 9.46
-2 -19 -13 30.23 10.1
19 2 -14 1.31 3.91
2 -19 -14 -0.17 4.83
-2 -19 -14 -6.06 7.41
2 -19 -15 143.06 18.15
19 2 -15 105.99 12.56
-2 -19 -15 139.55 19.21
-2 -19 -16 57.87 11.15
-3 19 0 -7.32 7.28
19 -3 0 -5.79 6.74
19 3 0 -7.57 8.93
3 19 0 0.83 5.14
19 -3 1 573.58 36.59
19 -3 -1 542.95 33.31
19 3 1 1048.15 49.56
19 3 -1 999.05 46.94
3 19 1 745.3 42.96
3 19 -1 683.22 40.89
-3 19 1 850.63 48.7
-3 19 -1 610.77 39.94
19 3 2 4.88 7.54
19 -3 -2 -3.56 5.21
19 3 -2 6.73 7.41
3 19 2 25.45 9.94
-3 19 2 1.21 6.9
-3 19 -3 68.15 14.65
19 -3 3 49.28 9.73
19 3 3 76.42 14.8
19 -3 -3 28.92 8.78
19 3 -3 75.36 13.9
3 19 3 82.31 16.72
-3 19 3 59.47 14.49
-3 19 -4 49.74 12.94
19 3 4 23.64 11.59
19 -3 -4 21.8 7.97
19 3 -4 30.53 9.39
3 19 4 61.25 14.97
-3 19 4 46.22 14.52
19 3 5 73.89 15.84
19 -3 -5 15.09 8.61
19 3 -5 62.03 14.08
3 19 5 81.66 16.48
-3 19 5 40.03 13.2
19 3 6 332.17 30.55
19 -3 -6 247.57 23.2
19 3 -6 402.02 31.37
3 19 6 364.91 33.53
-3 19 6 462.1 38.21
-3 19 -6 307.22 28.47
-3 19 -7 1.74 5.01
19 -3 -7 -6.36 6.77
19 3 -7 -4.47 6.55
3 19 7 6.06 7.12
-3 19 7 -7.84 7.68
19 -3 -8 25.74 8.52
19 3 -8 53.28 13.28
3 19 8 61.46 15.73
-3 19 -8 68.33 14.43
19 3 -9 338 29.32
3 19 9 345.91 35.03
-3 19 9 288.15 30.68
19 3 -10 23.22 10.04
3 19 10 49.17 14.98
-3 19 10 50.65 16.37
3 -19 -11 405.47 36.65
-3 19 11 429.46 36.25
19 3 -12 -0.1 4.49
-3 19 12 11.13 7.32
3 -19 -12 15.52 9.03
19 3 -13 173.56 18.16
3 -19 -13 146.18 19.96
19 3 -14 30.45 7.99
3 -19 -14 49.69 11.8
-3 -19 -14 47.76 12.16
3 -19 -15 -1.28 4.67
-3 -19 -15 6.94 6.71
-3 -19 -16 127.08 16.21
19 -4 0 635.39 36.93
4 19 0 717.8 41.13
19 -4 -1 81.39 14.2
-4 19 -1 91.25 25.4
19 -4 1 79.46 14.8
19 4 1 98.4 16.17
19 4 -1 92.97 15.22
4 19 1 78.87 14.6
-4 19 1 110.74 19.31
-4 19 -1 148.65 22.53
19 -4 2 166.64 20.01
19 4 2 354.77 29.5
19 -4 -2 116.7 14.76
19 4 -2 317.92 28.41
-4 19 -2 225.58 41.39
4 19 2 241.05 25.38
-4 19 2 275.16 29.08
-4 19 -2 193 24.01
-4 19 -3 27.45 11.75
19 -4 3 -8.01 7.57
19 4 3 9.46 8.8
19 -4 -3 -6.45 6.75
19 4 -3 7.06 7.24
-4 19 -3 -7.95 11.74
4 19 3 36.29 10.82
-4 19 3 2.77 6.69
-4 19 -4 9.77 6.83
19 4 4 0.07 7.11
19 4 -4 7.9 6.24
4 19 4 10.67 9.38
-4 19 4 17.42 10.01
19 4 5 270.29 27.35
19 4 -5 309.05 28.16
4 19 5 301.68 29.95
-4 19 5 357.51 34.42
-4 19 -5 330.76 30.23
-4 19 -6 42.84 11.8
19 4 6 15.73 9.48
19 4 -6 21.86 8.81
4 19 6 38.67 11.52
-4 19 6 33.66 11.37
19 4 -7 152.56 20.19
4 19 7 172.07 24.51
-4 19 -7 119.85 17.06
19 4 -8 197.59 22.14
4 19 8 210.7 25.69
-4 19 8 202.46 25.35
-4 19 -9 36.08 8.53
19 4 -9 48.07 10.88
4 19 9 43.99 12.67
-4 19 9 40.45 13.56
19 4 -10 300.42 28.98
-4 19 10 274.14 30.05
19 4 -11 128.67 16.96
4 -19 -11 142.06 21.72
-4 19 11 174.44 23.18
4 -19 -12 192.68 22.89
-4 19 12 224.71 24.57
19 4 -13 3.17 5
4 -19 -13 7.55 4.91
-4 -19 -13 18.78 11.22
4 -19 -14 48.55 10.54
19 4 -14 56 10.02
19 4 -15 59.4 9.89
-4 -19 -15 77.26 14.53
-4 -19 -16 13.78 7.14
-5 19 0 168.4 36.88
19 5 0 219.53 23.27
19 -5 1 193.36 19.37
19 5 1 427.48 31.54
19 5 -1 419.26 31.35
-5 19 1 281.59 45.33
-5 19 -1 302.79 48
5 19 1 273.58 24.68
-5 19 1 370.78 33.32
-5 19 -1 371.06 33.33
-5 19 2 100.53 17.29
-5 19 -2 89.29 16.05
-5 19 -2 80.55 28.37
19 5 2 79.19 13.96
19 5 -2 91.08 14.61
5 19 2 60.79 12.97
-5 19 -3 40.3 12.14
19 -5 3 21.23 9.36
19 5 3 24.48 10.22
19 5 -3 31.23 10.1
5 19 3 34.07 10.51
-5 19 3 58.99 14.37
19 5 4 190.32 22.46
19 5 -4 205.53 23.05
5 19 4 236.39 26.77
-5 19 4 254.77 28.82
-5 19 -4 228.63 25.88
-5 19 -5 18.48 5.33
19 5 5 31.6 9.05
19 5 -5 40.91 9.7
5 19 5 31.66 9.88
-5 19 5 45.83 13.98
19 5 6 286.13 28.05
19 5 -6 288.07 28.17
5 19 6 314.06 31.36
-5 19 6 320.46 32.29
-5 19 -6 307.81 29.26
19 5 -7 196.1 22.43
5 19 7 207.91 25.87
-5 19 7 213.7 25.86
-5 19 -7 179.72 22.22
19 5 -8 -12.08 9.75
5 19 8 -3.94 7.96
-5 19 8 -0.91 6.82
19 5 -9 148.64 19.86
5 19 9 166.41 22.8
-5 19 9 151.04 22.99
-5 19 -9 137.38 18.33
19 5 -10 208.42 22.43
-5 19 10 210.75 25.67
-5 19 -10 170.31 19.5
19 5 -11 157.45 19.75
-5 19 11 146.02 20.94
19 5 -12 127.26 16.29
-5 19 12 138.01 19.6
19 5 -13 100.4 14.56
-5 -19 -13 157.27 23.24
19 5 -14 22.49 6.66
-5 -19 -14 29.57 10.41
19 5 -15 23.84 5.31
-5 -19 -15 37.66 10.08
-5 -19 -16 172.21 18.09
-6 19 0 98.45 17.82
19 6 0 108.57 16.8
19 6 1 274.71 25.1
19 6 -1 222.07 24.62
-6 19 1 379.03 34.57
-6 19 -1 334.96 32.03
-6 19 2 89.99 17.35
-6 19 -2 72.93 15.77
19 6 2 59.62 12.49
19 6 -2 56.2 13.78
-6 19 -3 46.95 12.65
19 6 3 53.3 11.46
19 6 -3 54.05 12.07
6 19 3 57.24 14.27
-6 19 3 53.55 12.71
-6 19 -4 41.37 11.33
19 6 4 33.38 7.79
19 6 -4 43.27 10.74
6 19 4 50.25 12.22
-6 19 4 60.23 15.68
19 6 5 562.29 38.89
19 6 -5 567.78 38.57
6 19 5 624.11 43.09
-6 19 5 557.65 43.01
-6 19 -5 539.89 39.5
-6 19 -6 103.23 16.42
19 6 6 82.41 15.96
19 6 -6 89.28 16.69
6 19 6 93.92 16.31
-6 19 6 110.09 20.04
-6 19 -7 148.41 20.18
19 6 -7 149.69 20.81
6 19 7 178.04 23.72
-6 19 7 153.71 21.94
-6 19 -8 131.23 18.53
19 6 -8 138.75 19.17
6 19 8 125.01 20.46
-6 19 8 144.74 21.39
-6 19 -9 22.39 8.38
19 6 -9 26.02 9.09
-6 19 9 24.84 9.71
-6 19 -10 71.06 12.7
19 6 -10 75.77 14.11
-6 19 10 95.58 18.64
19 6 -11 242.24 23.27
-6 19 11 263.09 27.4
-6 19 -11 219.29 21.26
19 6 -12 49.49 10.12
-6 19 12 47.44 11.2
19 6 -13 4.8 4.92
-6 -19 -13 4.99 7.88
19 6 -14 21.13 6.99
-6 -19 -14 23.4 8.68
19 6 -15 149.01 14.37
-6 -19 -15 182.14 21.2
-6 -19 -16 18.61 6.48
19 7 0 337.78 28.86
-7 19 0 460.15 37.72
-7 19 1 9.84 7.51
-7 19 -1 14.25 9.38
19 7 1 -7.46 7.28
19 7 -1 4.73 6.53
-7 19 2 1.35 7.21
-7 19 -2 -2.51 9.15
19 7 2 -16.52 9.33
19 7 -2 -2.82 6.76
-7 19 -3 71.79 15.5
19 7 3 64.26 12.52
19 7 -3 62.56 13.27
7 19 3 51.87 12.19
-7 19 3 82.14 17.59
19 7 4 603.41 38.35
19 7 -4 579.55 38.43
-7 19 4 614.2 43.94
-7 19 -4 572.29 40.56
-7 19 -5 6.8 5.97
19 7 5 7.08 7.46
19 7 -5 15.19 6.7
-7 19 5 24.32 11.15
-7 19 -6 608.25 41.8
19 7 6 678.14 41.67
19 7 -6 693.71 42.07
7 19 6 691.6 44.52
-7 19 6 625.72 44.73
-7 19 -7 42.41 11.73
19 7 -7 51.86 13.11
-7 19 7 58.15 15
-7 19 -8 40.31 12.04
19 7 -8 66.84 15.04
-7 19 8 44.68 12.38
-7 19 -9 40.95 10.6
19 7 -9 36.59 11.74
-7 19 9 61.6 14.8
-7 19 -10 86.99 14.89
19 7 -10 82.02 13.7
-7 19 10 95.79 16.69
-7 19 -11 20.74 7.88
19 7 -11 23.42 7.27
-7 19 11 45.86 11.47
-7 19 -12 33.46 8.92
19 7 -12 51.23 10.95
-7 19 12 40.95 10.61
19 7 -13 13.63 6.22
-7 -19 -13 20.63 11.04
19 7 -14 77.56 11.6
-7 -19 -14 79.08 14.96
19 7 -15 -1.41 3.71
-7 -19 -15 3.89 5.67
-8 19 0 38.7 11.92
19 8 0 19.34 5.44
19 8 1 139.07 17.95
19 8 -1 136.64 18.57
-8 19 1 161.4 21.84
-8 19 -1 161.61 23.06
-8 19 2 64 16.35
-8 19 -2 49.91 15.32
19 8 2 25.1 9.83
19 8 -2 19.18 8.93
19 8 3 266.09 25.46
19 8 -3 293.54 26.43
-8 19 3 281.38 30.01
-8 19 -3 274.19 30.38
-8 19 -4 -7.62 9.33
19 8 4 -12.11 10.31
19 8 -4 4.72 5.99
-8 19 4 -9.72 8.3
-8 19 -5 893.93 51.24
19 8 5 935.43 47.95
19 8 -5 975.18 48.44
-8 19 5 912.83 53.63
-8 19 -6 -6.77 7.52
19 8 6 -16.58 10.63
19 8 -6 -14 9.89
-8 19 6 -4.28 10.53
-8 19 -7 437.73 36.04
19 8 -7 525.86 36.48
-8 19 7 448.52 36.57
-8 19 -8 6.19 7.63
19 8 -8 7.23 6.33
-8 19 8 20.22 10.41
-8 19 -9 3.48 5.26
19 8 -9 -4.45 7.48
-8 19 9 0.32 5.13
-8 19 -10 12.3 7.32
19 8 -10 16.29 7.69
-8 19 10 26.51 10.29
-8 19 -11 23.22 8.08
19 8 -11 43.13 10.5
-8 19 11 36.43 10.85
-8 19 -12 8.14 3.98
19 8 -12 16.51 7.55
-8 19 12 15.52 8.05
19 8 -13 7.39 3.99
-8 -19 -13 13.4 8.61
19 8 -14 -2.27 4.67
-8 -19 -14 -3.41 6.07
19 8 -15 246.34 17.36
-8 -19 -15 235.6 21.79
19 9 0 138.11 17.99
-9 19 0 113.56 20.55
-9 19 1 57.5 15.03
-9 19 -1 57.91 15.83
19 9 1 10.93 7.16
19 9 -1 17.76 8.39
-9 19 2 17.61 8.05
-9 19 -2 11.05 8.24
19 9 2 3.17 8.23
19 9 -2 3.33 5.72
-9 19 3 4.97 6.03
-9 19 -3 2.81 7.01
19 9 3 -14.61 10.02
19 9 -3 7.19 5.84
19 9 4 553.69 36.67
19 9 -4 569.96 36.42
-9 19 4 592.41 43.45
-9 19 -4 593.48 42.3
-9 19 -5 27.57 9.74
19 9 5 18.45 7.07
19 9 -5 11.72 5.6
-9 19 5 26.66 9.65
-9 19 -6 811.93 49.09
19 9 6 867.47 45.61
19 9 -6 918.2 46.21
-9 19 6 815.16 49.28
-9 19 -7 18.36 9.25
19 9 -7 8.06 5.61
-9 19 7 23.85 9.58
-9 19 -8 158.43 21.45
19 9 -8 165 19.74
-9 19 8 161.81 21.67
-9 19 -9 0.28 5.7
19 9 -9 -4.44 6.2
-9 19 9 -1.84 5.95
-9 19 -10 9.32 6.21
19 9 -10 7.97 6.09
-9 19 10 5.1 6.41
-9 19 -11 45.9 11.14
19 9 -11 37.24 10.08
-9 19 11 42.27 9.83
-9 19 -12 -4.28 6.03
19 9 -12 5.35 4.07
-9 19 12 2.84 4.51
-9 19 -13 -2.01 3.78
19 9 -13 5.02 5.41
-9 -19 -13 11.22 6.99
19 9 -14 90.82 11.02
-9 -19 -14 88.85 13.75
19 9 -15 -0.83 2.75
19 10 0 97.06 14.34
-10 19 0 192.48 26.05
-10 19 1 0.99 7.35
-10 19 -1 13.4 6.83
19 10 1 6.85 5.49
19 10 -1 3.91 5.67
-10 19 2 30.97 11.04
-10 19 -2 25.18 10.36
19 10 2 18.73 8.15
19 10 -2 14.92 7.04
19 10 3 88.68 14.8
19 10 -3 94.54 14.96
-10 19 3 118.89 19.82
-10 19 -3 112.76 20.39
-10 19 -4 49.24 13.01
19 10 4 24.42 7.89
19 10 -4 19.17 6.61
-10 19 4 36.08 12.56
-10 19 -5 515.73 38.89
19 10 5 492.79 33.52
19 10 -5 489.13 34.12
-10 19 5 506.42 38.63
-10 19 -6 128.37 20.76
19 10 -6 80.84 14.23
-10 19 6 127.9 20.08
-10 19 -7 356.32 32.5
19 10 -7 353.36 28.33
-10 19 7 333.15 30.08
-10 19 -8 -6.09 7.1
19 10 -8 6.05 5.86
-10 19 8 10.43 7.19
-10 19 -9 19.51 7.85
19 10 -9 20.04 8.25
-10 19 9 28.95 9.2
-10 19 -10 63.82 12.42
19 10 -10 48.41 10.65
-10 19 10 54.75 12.08
-10 19 -11 7.27 4.24
19 10 -11 11.15 5.91
-10 19 11 9.12 5.52
-10 19 -12 61.72 10.92
19 10 -12 68.9 11.82
-10 -19 -12 86.99 17.09
-10 19 -13 16.88 4.18
19 10 -13 31.82 7.29
-10 -19 -13 29.83 9.84
19 10 -14 0.84 2.88
-10 -19 -14 3.53 5.02
-11 19 0 39.06 10.51
19 11 0 27.27 7.92
-19 11 -1 245.32 25.09
19 11 1 179.57 19.71
19 11 -1 193.9 20.07
-11 19 1 275.04 29.8
-11 19 -1 291.89 30.65
-11 19 2 24.6 10.32
-11 19 -2 28.37 9.6
-19 11 -2 21.8 8.29
19 11 2 15.48 7.5
19 11 -2 21.4 8.73
-11 19 -3 1.66 6.73
19 11 3 6.77 5.88
19 11 -3 11.2 5.98
-11 19 3 0.75 7.09
19 11 4 105.86 15.6
19 11 -4 111.36 14.89
-11 19 4 106.19 18.24
-11 19 -4 125.86 20.74
19 11 5 108.32 15.38
19 11 -5 122.62 16.98
-11 19 -6 197.21 24.51
19 11 -6 168.9 18.88
-11 19 6 162.92 20.96
-11 19 -7 51.24 14.47
19 11 -7 26.04 9.45
-11 19 7 23.46 7.45
-11 19 -8 71.66 15.6
19 11 -8 56.66 11.04
-11 19 8 52.71 12.01
-11 19 -9 32.25 9.23
19 11 -9 48.21 9.9
-11 19 9 45.55 11.25
-11 19 -10 11.95 5.06
19 11 -10 5.06 4.62
-11 19 10 11.15 6.58
-11 19 -11 251.98 23.09
19 11 -11 227.08 19.99
-11 19 -12 -0.75 4.32
19 11 -12 9.23 4.6
-11 -19 -12 9.09 6.92
-11 19 -13 31.56 6.35
19 11 -13 50.42 8.54
-11 -19 -13 55.59 11.52
19 11 -14 32.94 6.14
19 12 0 427.18 29.91
-12 19 0 548.19 42.31
-12 19 1 5.87 8.86
-12 19 -1 23.22 7.57
-19 12 -1 5.51 7.44
19 12 1 12.16 5.1
19 12 -1 7.07 6.13
-19 12 -2 171.52 21.47
19 12 2 167.25 19.17
19 12 -2 171.15 18.89
-12 19 2 185.23 23.79
-12 19 -2 211.67 24.87
-12 19 -3 8.48 6.49
-19 12 -3 24.94 11.05
19 12 3 12.22 8.05
19 12 -3 17.26 6.96
-12 19 3 27.77 11.06
19 12 4 23.66 8.07
19 12 -4 39.15 9.68
-12 19 4 46.88 12.85
-12 19 -5 14.63 7.06
19 12 5 -0.83 7.14
19 12 -5 6.98 4.69
-12 19 5 -4.32 8.27
19 12 -6 41.35 9.36
-12 19 6 46.6 11.46
-12 19 -7 27.45 8.65
19 12 -7 10.77 5.52
-12 19 7 15.54 5.67
-12 19 -8 17.2 8.02
19 12 -8 24.96 7.36
-12 19 8 13.28 6.39
-12 19 -9 10.97 6.33
19 12 -9 10.94 5.46
-12 19 9 7.37 6.18
-12 19 -10 356.49 29.11
19 12 -10 355 24.31
-12 19 -11 -4.04 5.83
19 12 -11 -0.47 3.82
19 12 -12 244.81 18.4
-12 -19 -12 232.75 22.51
-12 19 -12 253.23 20.32
19 12 -13 11.06 4.41
-13 19 0 10.28 8.68
-19 13 0 -6.87 10.49
19 13 0 6.17 5.52
19 13 1 511.43 32.03
19 13 -1 474.45 29.95
-13 19 1 571.24 41.13
-13 19 -1 575.27 42.03
-19 13 -1 544.42 36.96
-13 19 2 0.27 6.05
-13 19 -2 1.92 6.84
-19 13 -2 -3.44 4.68
19 13 2 0.69 4.72
19 13 -2 2.46 4.64
-13 19 -3 39.59 10.72
-19 13 -3 38.41 10.72
19 13 3 53.12 10.34
19 13 -3 45.37 9.45
-13 19 3 44.25 12.14
-13 19 -4 -2.65 7.11
-19 13 -4 2.87 6.1
19 13 4 9.96 6.48
19 13 -4 3.67 4.32
-13 19 4 1.76 6.67
-13 19 -5 67.34 14.86
19 13 -5 39.18 9.66
-13 19 5 43.39 11.55
-13 19 -6 -4.4 6.89
19 13 -6 -4.14 5.58
-13 19 6 3.71 4.67
-13 19 -7 -3.77 7.18
19 13 -7 0.94 4.07
-13 19 7 3.72 5.01
-13 19 -8 6.21 7.11
19 13 -8 3.21 4.86
-13 19 8 -5.45 6.44
-13 19 -9 284.49 26.45
19 13 -9 255.76 20.21
-13 19 -10 -9.26 7.34
19 13 -10 -1.13 4.01
-13 19 -11 451.06 29.55
19 13 -11 406.05 23.23
-13 -19 -11 428.2 31.71
-13 19 -12 1.4 3.24
19 13 -12 -0.92 3.17
-13 -19 -12 6.47 4.25
19 14 0 568.11 31.96
-14 19 0 640.15 43.71
-19 14 0 567.71 37.28
-14 19 1 -0.53 8.26
-14 19 -1 0.18 9.2
-19 14 -1 -5.58 7.71
19 14 1 0.35 5.38
19 14 -1 -8.96 7.63
19 14 2 275.04 22.65
19 14 -2 276.05 22.19
-14 19 2 325.96 29.89
-14 19 -2 315.56 32.07
-19 14 -2 263.32 26.7
-14 19 -3 3.92 6.83
-19 14 -3 8.32 6.68
19 14 3 13.96 6.77
19 14 -3 3 4.79
-14 19 3 5.13 7.11
-14 19 -4 -0.62 6.44
-19 14 -4 -2.85 5.47
19 14 -4 -0.66 4.24
-14 19 4 1.44 5.32
-14 19 -5 -4.87 7.73
-19 14 -5 -1.33 5.81
19 14 -5 4.19 4.26
-14 19 5 3.36 5.3
-14 19 -6 31.2 9.07
-19 14 -6 33.18 10.97
19 14 -6 52.65 10.5
-14 19 6 25.39 7.72
-14 19 -7 1.76 5.16
-19 14 -7 10.17 7.37
19 14 -7 0.52 3.39
-14 19 7 8.39 7.76
-14 19 -8 78.59 14.1
19 14 -8 56.74 9.36
-14 19 -9 -4.41 6.36
19 14 -9 -0.76 3.81
-14 19 -10 394.75 28.4
19 14 -10 344.61 20.44
-14 19 -11 -2.68 4.58
-19 14 -11 -0.17 3.69
19 14 -11 4.5 3.7
-19 14 -12 228.38 19.58
-15 19 0 -6.92 8.26
-19 15 0 -5.02 7.99
19 15 0 -5.28 6.04
19 15 1 435.05 27.07
19 15 -1 429.05 26.55
-15 19 1 457.38 34.29
-15 19 -1 451.53 35.17
-19 15 -1 417 31.88
-15 19 -2 -10.04 8.42
-19 15 -2 -4.84 7.4
19 15 2 1.47 4.62
19 15 -2 -2.71 6.67
-15 19 2 -3.35 5.95
-15 19 -3 39.24 12.24
-19 15 -3 35.78 10.12
19 15 3 22.08 5.97
19 15 -3 27.26 6.95
-15 19 3 28.56 9.57
-15 19 -4 -6.27 5.59
-19 15 -4 -11.37 7.45
19 15 -4 3.54 3.53
-15 19 4 -3.35 5.2
-15 19 -5 39.2 11.13
-19 15 -5 47.98 12.78
19 15 -5 47.93 8.31
-15 19 5 28.17 8.02
-15 19 -6 7.67 6.22
-19 15 -6 5.8 5.65
19 15 -6 4.99 3.91
-15 19 6 2.7 4.54
-15 19 -7 3.04 5.64
-19 15 -7 7.4 6.06
19 15 -7 -1.01 3.74
-15 19 -8 3.53 4.41
-19 15 -8 1.51 5.18
19 15 -8 6.82 4.16
-19 15 -9 159.16 18.6
19 15 -9 116.83 12.25
-15 19 -9 147.01 17.25
-15 19 -10 -3.3 5.33
-19 15 -10 6.13 3.87
19 15 -10 5.43 3.36
-19 15 -11 245.04 20.39
-15 19 -11 209.2 17.66
-16 19 0 290.1 26.59
-19 16 0 286.6 24.59
-16 19 1 -2.51 7.17
-16 19 -1 6.92 4.86
-19 16 -1 10.27 5.02
-16 19 -2 82.93 14.23
-19 16 -2 78.24 13.56
19 16 -2 60.05 9.42
-16 19 2 80.08 13.56
-16 19 -3 20.78 7.92
-19 16 -3 16.14 6.38
19 16 -3 25.82 6.89
-16 19 3 8.45 4.42
-16 19 -4 12.2 7.42
-19 16 -4 5.36 5.34
19 16 -4 11.55 5.02
-16 19 4 1.83 4.22
-16 19 -5 51.59 12.32
-19 16 -5 45.05 11.43
19 16 -5 38.89 7.54
-16 19 5 29.42 8.6
-16 19 -6 12.63 5.53
-19 16 -6 7.63 4.89
19 16 -6 20.24 5.38
-16 19 -7 16.5 7.71
-19 16 -7 17.17 7.38
19 16 -7 12.1 4.5
-16 19 -8 11.59 5.64
-19 16 -8 6.2 4.82
19 16 -8 5.4 3.51
-16 19 -9 10.02 6.16
-19 16 -9 6.71 5.69
-19 16 -10 77.44 10.85
-16 19 -10 82.98 11.5
-17 19 0 -0.26 5.81
-19 17 0 -7.55 6.35
-17 19 -1 57.95 11.67
-19 17 -1 49.35 10.53
-17 19 1 37.18 10.17
-19 17 1 47.01 10.12
-17 19 -2 4.92 4.29
-19 17 -2 -6.07 5.59
-17 19 2 3.46 4.14
-17 19 -3 6.31 4.87
-19 17 -3 3.14 4.09
-17 19 3 -1.61 4.16
-17 19 -4 111.89 16.72
-19 17 -4 112.09 15.59
-17 19 -5 6.72 4.07
-19 17 -5 16.19 5.37
-17 19 -6 88.03 14.44
-19 17 -6 85.92 13.48
-17 19 -7 -2.5 5.01
-19 17 -7 -4.15 4.94
-17 19 -8 18.93 6.92
-19 17 -8 7.42 4.47
-17 19 -9 6.08 4.35
-19 17 -9 2.09 4.02
-19 18 0 4.06 3.99
-18 19 0 1.07 5.56
-18 19 -1 1.35 4.56
-19 18 -1 6.68 5.27
-18 19 1 -0.84 4.15
-18 19 -2 9.5 5.71
-19 18 -2 2.28 3.5
-18 19 2 9.71 4.75
-18 19 -3 64.2 11.07
-19 18 -3 65.15 11.83
-18 19 -4 4.93 4.97
-19 18 -4 2.17 3.67
-18 19 -5 197.36 19.38
-19 18 -5 190.42 18.95
-18 19 -6 16.24 6.44
-19 18 -6 2.79 3.72
-18 19 -7 70.04 11.03
-19 18 -7 83.34 11.77
-18 19 -8 7.91 4.83
-19 19 0 6.93 4.51
-19 19 -1 -2.94 3.21
-19 19 -2 11.93 5.85
-19 19 -3 -4.62 4.15
-19 19 -4 145.36 15.5
-19 19 -5 -4.55 5.3
20 0 0 313.27 28.06
0 20 0 398.53 32.81
20 0 1 463.47 33.75
20 0 -1 422.09 31.48
0 20 1 478.74 36.81
0 20 -1 433.62 33.47
20 0 2 156.39 20.83
20 0 -2 142.68 18.23
0 20 2 163.19 20.64
0 20 -2 120.47 17.41
20 0 3 4.68 7.65
20 0 -3 5.95 5.82
0 20 3 7.5 5.77
0 20 -3 14.82 7.47
0 20 -4 62.74 12.33
20 0 4 48.51 11.03
20 0 -4 73.66 14.71
0 20 4 74.54 15.08
20 0 5 737.48 43.78
20 0 -5 715.61 39.98
0 20 5 714.86 45.17
20 0 -6 47.93 12.93
0 20 6 68.91 18.39
20 0 -7 181.37 20.58
0 20 7 222.95 26.33
20 0 -8 94.88 15.04
0 20 8 126.29 20.99
20 0 -9 98.13 15.07
0 20 9 126.92 21.77
20 0 -10 65.57 10.76
0 20 10 111.92 19.41
20 0 -11 391.29 28.06
0 20 11 488.82 37.57
20 0 -12 52.19 9.95
0 -20 -12 55.5 13.48
20 0 -13 8.97 5.67
0 -20 -13 30.68 11.31
0 -20 -14 131.81 18.12
0 -20 -15 177.24 18.55
20 -1 0 554.33 36.17
20 1 0 701.9 40.73
1 20 0 606.96 41.15
-1 20 0 618.24 41.43
20 1 1 155.62 20.47
20 -1 -1 136.78 17.47
20 1 -1 155.79 18.51
20 -1 1 132.53 17.56
1 20 1 151.06 19.33
1 20 -1 118.04 17
-1 20 1 161.98 22.63
-1 20 -1 156.65 20.03
20 -1 2 135.83 18.59
20 1 2 180.99 22.65
20 -1 -2 115.21 16.2
20 1 -2 173.97 20.54
1 20 2 180.07 24.16
-1 20 2 154.95 21.33
1 20 -2 148.11 19.25
-1 20 -2 162.83 21.36
20 -1 3 74.83 13.94
20 -1 -3 105.87 17.99
20 1 3 60.13 12.96
20 1 -3 72.56 13.38
-1 20 -3 71.99 14.59
1 20 3 75.87 15.39
-1 20 3 84.68 16.46
1 20 -3 34.37 7.81
20 -1 4 210.8 24.24
20 1 4 203.82 23.15
20 -1 -4 194.89 23.88
20 1 -4 217.79 21.75
1 20 4 206.92 24.66
-1 20 4 200.17 23.94
-1 20 -4 134.27 17.49
20 -1 5 128.73 19.96
20 1 5 70.45 18.27
20 -1 -5 101.37 17.82
20 1 -5 94.43 16.71
1 20 5 106.74 20.83
-1 20 5 169.67 25.57
-1 20 -5 135.16 20.04
20 -1 -6 420.69 30.61
20 1 -6 558.14 35.67
1 20 6 567.85 41.46
-1 20 6 485.78 38.45
-1 20 -6 432.18 30.76
20 -1 -7 64.87 13.06
20 1 -7 60.13 12.59
1 20 7 79.26 16.48
-1 20 7 94.75 18.4
20 -1 -8 15.9 9.13
20 1 -8 7.93 6.38
1 20 8 3.76 7.98
-1 20 8 3.88 6.43
20 -1 -9 54.09 10.38
20 1 -9 71.59 13.23
1 20 9 96.71 18.88
-1 20 9 101.67 18.76
20 1 -10 448.11 30.95
1 20 10 486.65 39.87
-1 20 10 456.17 38.24
20 -1 -11 20.37 6.3
20 1 -11 27.94 8.33
1 20 11 38.2 13.18
-1 20 11 44.42 14.22
20 -1 -12 174.81 16.9
20 1 -12 231.52 20.66
1 -20 -12 226.19 25.93
20 1 -13 38.48 8.11
1 -20 -13 63.1 13.59
-1 -20 -13 73.36 14.21
20 1 -14 31.03 6.41
1 -20 -14 35.02 9.51
-1 -20 -14 42.34 11.03
1 -20 -15 98.7 14.06
-1 -20 -15 97.65 14.58
20 -2 0 52.11 11.06
20 2 0 30.57 10.91
2 20 0 30.72 7.92
-2 20 0 42.83 11.83
20 -2 1 599.35 38.43
20 2 1 724.62 42.86
20 -2 -1 345.19 27.89
20 2 -1 735.21 41.11
2 20 1 575.2 38.78
2 20 -1 517 35.83
-2 20 1 592.72 41.9
-2 20 -1 555.12 39.05
-2 20 -2 10.26 5.39
20 -2 2 10.43 7.47
20 2 2 -0.56 6.79
20 -2 -2 -11.37 10.53
20 2 -2 8.56 5.55
2 20 2 8.19 6.62
2 20 -2 -11.57 6.45
-2 20 2 6.71 7.37
20 -2 3 -6.83 7.21
20 2 3 5.62 8.21
20 -2 -3 9.1 5.96
20 2 -3 -0.68 4.95
2 20 3 13.48 7.73
-2 20 3 2.45 7.35
-2 20 -4 55.2 12
20 -2 4 72.22 15.02
20 2 4 56.21 15.52
20 -2 -4 62.01 12.28
20 2 -4 82.22 14.27
2 20 4 97.57 18.23
-2 20 4 114.45 20.23
20 2 5 356.14 30.96
20 -2 -5 174.23 20.15
20 2 -5 332.54 30.07
2 20 5 343.73 33.58
-2 20 5 236.14 29.09
-2 20 -5 151.93 19.1
20 2 6 161.72 21.27
20 -2 -6 159.35 19.53
20 2 -6 191.4 22.15
2 20 6 234.2 27.99
-2 20 -6 227.32 23.56
-2 20 -7 77.16 13.02
20 2 -7 95.8 14.78
2 20 7 106.52 19.48
-2 20 7 90.05 17.52
20 -2 -8 40.69 13.5
20 2 -8 21.69 8.92
2 20 8 36.62 14.27
-2 20 8 32.09 11.72
20 -2 -9 193.12 18.61
20 2 -9 266.38 24.85
2 20 9 308.5 32.01
-2 20 9 264.16 28.84
20 -2 -10 3.11 3.96
20 2 -10 0.94 6.06
2 20 10 -0.18 8.86
-2 20 10 1.57 8.6
20 2 -11 485.37 31.2
2 -20 -11 430.78 37.48
-2 20 11 437.29 35.67
20 2 -12 3.7 4.72
2 -20 -12 4.32 7.43
-2 -20 -12 10.34 7.71
20 2 -13 43.02 9.48
2 -20 -13 39.25 10.29
2 -20 -14 77.6 13.13
20 2 -14 49.31 8.63
-2 -20 -14 65.82 13.4
-2 -20 -15 68.84 12.52
3 20 0 661.45 40.37
-3 20 0 745.94 47.33
-3 20 -1 45.99 11.05
20 -3 1 48.51 12.39
20 -3 -1 35.54 9.34
20 3 1 45.53 12.98
20 3 -1 26.95 9.75
3 20 1 27.03 8.98
3 20 -1 27.8 9.24
-3 20 1 42.46 12.02
20 3 2 251.69 24.86
20 -3 -2 121.99 17.52
20 3 -2 248.05 25.06
3 20 2 199.11 23.56
-3 20 2 189.82 24.52
-3 20 -2 192.18 23.34
-3 20 -3 8.52 5.76
20 -3 3 9.55 6.24
20 3 3 -11.76 8.33
20 -3 -3 -6.17 4.44
20 3 -3 5.82 6.71
3 20 3 -2.44 5.49
-3 20 3 -0.1 6.01
-3 20 -4 17.14 8.69
20 3 4 45.68 13.1
20 -3 -4 18.65 9.33
20 3 -4 29.69 10.54
3 20 4 44.5 13.17
-3 20 4 28.43 13.04
20 3 5 296.35 29.13
20 -3 -5 356.02 27.19
20 3 -5 326.12 28.26
3 20 5 324.43 31.65
-3 20 5 415.42 35.81
-3 20 -5 258.98 25.82
-3 20 -6 31.8 8.72
20 3 6 56.03 14.69
20 -3 -6 43.92 10.85
20 3 -6 73.8 14.11
3 20 6 75.42 15.43
-3 20 6 56.68 15.41
-3 20 -7 57.67 11.3
20 3 -7 83.74 16.69
20 -3 -7 60.02 11.14
-3 20 -8 33.99 9.02
20 3 -8 72.18 13.93
3 20 8 81.08 16.19
-3 20 8 57.16 14.08
20 3 -9 20.59 9.06
3 20 9 20.86 10.48
-3 20 9 5.98 6.29
20 3 -10 475.18 32.4
3 20 10 485.27 39.24
-3 20 10 418.7 35.81
20 3 -11 35.99 10.68
-3 20 11 73.75 16.51
3 -20 -11 72.23 15.35
3 -20 -12 188.17 22.58
-3 20 12 220.23 24.41
20 3 -13 -4.09 4.36
3 -20 -13 0.57 3.93
-3 -20 -13 -8.34 7.18
20 3 -14 5.73 3.26
3 -20 -14 -3.28 4.36
-3 -20 -14 6.93 4.98
-3 -20 -15 68.68 12.92
20 3 -15 51.23 7.55
20 4 0 246.71 24.04
4 20 0 255.76 24.08
-4 20 0 282.14 28.46
20 -4 1 239.25 22.62
20 -4 -1 238.2 22.76
20 4 1 524.79 35.93
20 4 -1 498.77 34.45
4 20 1 355.08 29.48
-4 20 1 413.32 35.5
-4 20 -1 392.63 34.45
-4 20 -2 87.34 15.5
20 -4 -2 117.51 17.16
20 -4 2 54.81 10.45
20 4 2 84.48 14.34
20 4 -2 101.67 16.41
4 20 2 65.95 13.31
-4 20 2 99.31 17.97
-4 20 -3 16.71 7.56
20 -4 3 10.52 6.65
20 4 3 26.08 9.9
20 -4 -3 31.19 9.91
20 4 -3 25.97 9.03
4 20 3 41.41 12.28
-4 20 3 24.69 9.73
20 4 4 162.8 20.94
20 4 -4 198.99 22.92
4 20 4 202.3 25.06
-4 20 4 241.86 28.63
-4 20 -4 207.99 25.02
-4 20 -5 7.35 6.44
20 4 5 28.9 12.2
20 4 -5 15.49 8.87
4 20 5 30.36 10.96
-4 20 5 16.29 12.22
20 4 6 178.91 22.18
20 4 -6 180.33 22.82
4 20 6 209.62 26.76
-4 20 6 283.95 30.6
-4 20 -6 251.77 26.46
-4 20 -7 25.23 9.18
20 4 -7 29.3 10.84
4 20 7 40.92 12.31
-4 20 7 28.54 9.92
20 4 -8 37.33 9.95
4 20 8 12.42 8.56
-4 20 8 17.44 10.65
20 4 -9 203.76 22.7
4 20 9 204.34 26.14
-4 20 9 202.24 25.44
-4 20 -9 138 17.14
20 4 -10 162.68 20.08
4 -20 -10 174.96 22.78
-4 20 10 186.32 25.86
20 4 -11 300.52 24.86
4 -20 -11 212.7 24.07
-4 20 11 261.98 27.99
20 4 -12 74.25 12.17
-4 20 12 84.09 15.4
20 4 -13 75.94 11.17
-4 -20 -13 129.29 20.16
20 4 -14 4.77 3.78
-4 -20 -14 20.28 7.93
20 4 -15 -3.41 3.57
-4 -20 -15 -7.83 5.95
20 5 0 245.18 23.34
-5 20 0 212.5 24.46
20 -5 1 439.65 31.44
20 5 1 419.35 31.97
20 5 -1 420.33 30.66
5 20 1 445.59 33.08
-5 20 1 492.63 38.46
-5 20 -1 461.6 38.49
20 -5 2 147.21 20.24
20 5 2 138.04 18.83
20 5 -2 118.4 17.98
5 20 2 85.04 14.58
-5 20 2 138.97 21.76
-5 20 -2 117.38 19.66
-5 20 -3 26.53 10.52
20 5 3 24.8 8.63
20 5 -3 17.17 8.79
5 20 3 16.03 7.49
-5 20 3 34.84 10.96
-5 20 -4 9.5 5.68
20 5 4 8.99 7.67
20 5 -4 25.83 9.9
-5 20 4 23.84 11
20 5 5 319.47 29.18
20 5 -5 316.07 27.79
5 20 5 344.78 30.99
-5 20 5 375.56 36.1
-5 20 -5 342.89 30.85
-5 20 -6 36.62 10.29
20 5 6 44.18 13.89
20 5 -6 43.43 11.65
5 20 6 50.7 13.67
-5 20 6 51.87 15.21
-5 20 -7 49.37 12.45
20 5 -7 37.66 10.46
5 20 7 40.06 11.52
-5 20 7 42.08 12.81
20 5 -8 100.35 15.56
5 20 8 102.19 18.28
-5 20 8 118.53 20.08
-5 20 -8 89.74 15.02
20 5 -9 104.81 15.24
-5 20 9 102.52 19.24
-5 20 -9 86.3 14.46
20 5 -10 174.37 20.05
-5 20 10 150.77 21.13
20 5 -11 264.45 23.38
-5 20 11 314.78 29.26
20 5 -12 124.14 15.39
-5 20 12 87.11 15.03
20 5 -13 13.65 5.77
-5 -20 -13 28.26 10.67
20 5 -14 14.48 4.88
-5 -20 -14 19.24 7.58
20 5 -15 49.65 8.26
-5 -20 -15 70.08 12.14
20 6 0 576.44 36.93
-6 20 0 688.32 45.52
-6 20 1 95.76 18.95
-6 20 -1 77.64 17.64
20 6 1 63.73 13.49
20 6 -1 68.35 13.6
-6 20 -2 44.79 11.98
20 6 2 40.52 10.63
20 6 -2 43.34 10.96
6 20 2 49.03 10.43
-6 20 2 42.21 11.34
-6 20 -3 51.69 12.31
20 6 3 48.63 11.7
20 6 -3 45.84 11.21
6 20 3 32.72 6.34
20 6 4 288.06 28.8
20 6 -4 301.29 26.99
6 20 4 212.9 24.1
-6 20 4 303.75 31.99
-6 20 -4 286.64 29.14
-6 20 -5 15.6 7.38
20 6 5 26.61 10.31
20 6 -5 20.27 8.58
6 20 5 42.23 12.6
-6 20 5 23.71 12.18
20 6 6 339.78 30.42
20 6 -6 329.79 28.73
6 20 6 338.01 31.55
-6 20 6 299.74 31.3
-6 20 -6 298.47 28.66
-6 20 -7 73.38 14.47
20 6 -7 66.17 14.17
6 20 7 71.64 15.34
-6 20 7 89.89 17.4
-6 20 -8 -5.43 6.28
20 6 -8 -5.55 8.17
-6 20 8 -2.06 6.16
-6 20 -9 40.65 10.59
20 6 -9 55.56 12.17
-6 20 9 66.96 15.39
20 6 -10 266.26 24.22
-6 20 10 272.51 29.01
-6 20 -10 251.45 23.15
20 6 -11 46.37 9.49
-6 20 11 55.77 12.56
20 6 -12 107.67 14.09
-6 20 12 126.34 17.44
20 6 -13 24.43 7.15
-6 -20 -13 53.82 14.02
20 6 -14 26.53 6.34
-6 -20 -14 41.53 10.59
-6 -20 -15 -9.27 6.07
-7 20 0 13.46 10.94
20 7 0 1.13 7.09
20 7 1 266.77 25.5
20 7 -1 234.65 24.18
-7 20 1 300.15 31.33
-7 20 -1 272.4 30.09
-7 20 -2 41.86 13.22
20 7 2 34.71 12.19
20 7 -2 29.16 9.93
-7 20 2 54.29 14.35
-7 20 -3 71.53 15.26
20 7 3 78.9 14.85
20 7 -3 88.8 14.94
7 20 3 97.28 16.43
-7 20 3 76.89 15.91
-7 20 -4 -0.02 5.54
20 7 4 6.33 7.46
20 7 -4 1.68 5.09
-7 20 4 20.18 10.06
20 7 5 670.69 40.54
20 7 -5 658.32 40.51
7 20 5 558.05 38.73
-7 20 5 650.46 44.9
-7 20 -5 576.97 41.44
-7 20 -6 24.73 9.89
20 7 6 30.04 12.81
20 7 -6 19.12 9.4
7 20 6 17.94 8.62
-7 20 6 32.97 12.72
20 7 -7 264.99 25.78
-7 20 7 217.84 25.06
-7 20 -7 213.79 23.96
-7 20 -8 27.84 10
20 7 -8 34.77 10.57
-7 20 8 22.04 10.01
-7 20 -9 28.63 8.63
20 7 -9 32.01 9.28
-7 20 9 20.52 7.91
-7 20 -10 0.17 5.23
20 7 -10 19.41 7.93
-7 20 10 15.66 8.93
20 7 -11 177.65 18.74
-7 20 11 169.37 19.81
-7 20 -11 140.11 16.07
20 7 -12 10.75 4.3
-7 20 12 16.73 7.7
20 7 -13 3.79 4.04
-7 -20 -13 16.78 9.29
20 7 -14 -1.8 3.11
-7 -20 -14 6.74 6.54
20 8 0 213.25 22.7
-8 20 0 191.78 23.63
-8 20 1 28.99 10.67
-8 20 -1 35.54 11.11
20 8 1 -0.97 6.6
20 8 -1 -4.24 5.98
-8 20 2 5.24 6.51
-8 20 -2 -4.89 8.68
20 8 2 -0.17 6.24
20 8 -2 -2.53 6.84
-8 20 -3 -1.52 6.78
20 8 3 5.75 7.23
20 8 -3 18.04 8.03
-8 20 3 -2.3 6.8
20 8 4 448.96 32.96
20 8 -4 471.84 33.25
-8 20 4 457.67 38.96
-8 20 -4 403.64 35.75
-8 20 -5 31.78 11.24
20 8 5 36.32 10.85
20 8 -5 29.52 8.5
-8 20 5 35.39 12.39
20 8 6 802.83 43.96
20 8 -6 777.31 44.59
-8 20 6 716.08 45.96
-8 20 -6 738.92 44.37
-8 20 -7 7.38 6.57
20 8 -7 11.78 7.55
-8 20 7 5.13 5.54
-8 20 -8 43.53 10.6
20 8 -8 46.06 10.41
-8 20 8 35.15 10.45
-8 20 -9 18.65 7.59
20 8 -9 5.64 5.31
-8 20 9 1.64 6.43
-8 20 -10 75.9 12.83
20 8 -10 101.38 15.49
-8 20 10 64.91 13.27
-8 20 -11 -0.66 4.46
20 8 -11 3.93 5.25
-8 20 11 14.98 8.21
-8 20 -12 20.14 5.74
20 8 -12 27.06 7.31
20 8 -13 6.23 4.52
-8 -20 -13 11.12 7.43
20 8 -14 86.56 9.93
-8 -20 -14 87.89 13.3
-9 20 0 46.99 12.75
20 9 0 9.21 6.65
-9 20 1 58.45 15.17
-9 20 -1 43.3 14.12
20 9 1 55.49 12.87
20 9 -1 63.56 12.97
-9 20 2 12.58 9.05
-9 20 -2 8.53 6.4
20 9 2 1.98 5.82
20 9 -2 0.35 6.86
-9 20 -3 108.85 18.13
20 9 3 98.69 15.7
20 9 -3 73.67 15.96
-9 20 3 106.75 19.96
-9 20 -4 32.56 9.65
20 9 4 37.52 10.92
20 9 -4 38.95 9.71
-9 20 4 40.19 12.37
20 9 5 704.38 40.68
20 9 -5 721.6 40.95
-9 20 5 716.8 46.31
-9 20 -5 697.17 44.39
-9 20 -6 71.72 14.41
20 9 -6 67.39 12.89
-9 20 6 79.83 15.94
20 9 -7 349.85 27.25
-9 20 7 322.93 29.9
-9 20 -7 340.26 29.9
-9 20 -8 7.23 7.39
20 9 -8 14.66 7.62
-9 20 8 10.49 7.22
-9 20 -9 8.46 6.29
20 9 -9 0.74 5.04
-9 20 9 -0.03 5.14
-9 20 -10 6.31 4.28
20 9 -10 16.37 6
-9 20 10 19.58 8.23
-9 20 -11 25.1 6.52
-9 20 11 20.33 7.2
-9 20 -12 4.22 4.14
20 9 -12 6.43 3.69
-9 -20 -12 13.24 8.11
20 9 -13 6.95 3.64
-9 -20 -13 5.75 5.71
20 9 -14 11.8 4.16
-9 -20 -14 7.35 3.92
-10 20 0 23.1 8.43
20 10 0 41.77 11.03
-10 20 -1 57.85 13.35
20 10 1 40.5 9.61
20 10 -1 31.49 8.99
-10 20 2 22.81 11.33
-10 20 -2 25.17 11.95
20 10 2 19.73 9.27
20 10 -2 3.38 4.92
-10 20 -3 1.35 7.43
20 10 3 15.17 8.77
20 10 -3 -7.91 7.89
-10 20 3 10.58 9.23
20 10 4 268.88 25.04
20 10 -4 272.09 24.28
-10 20 4 290.42 30.37
-10 20 -4 265.7 28.32
20 10 5 128.86 17.52
20 10 -5 116.87 17.35
-10 20 5 185.14 24.63
-10 20 -5 177.26 23.22
20 10 -6 372.77 28.21
-10 20 6 351.48 30.53
-10 20 -6 360.81 32.29
-10 20 -7 52.93 12.49
20 10 -7 39.48 9.46
-10 20 7 53.25 12.69
-10 20 -8 63.86 13.29
20 10 -8 45.51 9.63
-10 20 8 57.98 12.28
-10 20 -9 17.88 7.65
20 10 -9 4.68 4.72
-10 20 9 6.42 6.27
-10 20 -10 9.23 5.62
-10 20 10 11.12 6.7
-10 20 -11 47.55 9.33
20 10 -11 48.33 8.84
-10 20 11 56.86 11
-10 20 -12 -1.12 4.9
20 10 -12 20.45 5.85
-10 -20 -12 11.55 6.55
20 10 -13 -3.29 3.25
-10 -20 -13 3.3 4.62
20 11 0 155.81 18.65
-11 20 0 206.62 25.29
-11 20 1 13.96 6.59
-11 20 -1 35.92 11.2
20 11 1 23.19 9.18
20 11 -1 27.46 8.86
-11 20 2 59.83 13.32
-11 20 -2 58.3 13.05
-20 11 -2 58.83 11.69
20 11 2 46.58 11.12
20 11 -2 50.27 10.87
-11 20 -3 72.07 15.21
-20 11 -3 54.42 12.68
20 11 3 40.27 10.23
20 11 -3 36.5 9.73
-11 20 3 55.89 14.26
-11 20 -4 98.74 18.43
20 11 4 64.74 12.61
20 11 -4 74.63 12.88
-11 20 4 95.95 17.42
20 11 5 104.46 14.69
20 11 -5 114.76 15.39
-11 20 5 117.15 17.99
-11 20 -5 124.81 18.48
20 11 -6 120.53 16.54
-11 20 6 126.09 19.27
-11 20 -6 160.11 21.1
-11 20 -7 74.92 15.37
20 11 -7 60.73 11
-11 20 7 57.41 12.67
-11 20 -8 -2.73 5.44
20 11 -8 -3.02 5.06
-11 20 8 0.14 4.27
-11 20 -9 0.84 4.91
20 11 -9 14.9 6.98
-11 20 9 11.44 5.66
20 11 -10 127.63 14.85
-11 20 10 124.68 15.28
-11 20 -10 138.47 17.05
-11 20 -11 5.38 3.6
20 11 -11 54.11 9.42
20 11 -12 85.48 10.53
-11 -20 -12 97.11 14.9
-11 20 -12 76.2 10.66
20 11 -13 11.71 4.72
-12 20 0 -4.86 9.21
20 12 0 2.45 5.07
20 12 1 286.47 24.18
20 12 -1 288.49 23.68
-12 20 1 375.46 32.98
-12 20 -1 364.08 34.02
-12 20 -2 10.33 6.57
-20 12 -2 -0.99 5.09
20 12 2 10.95 7.03
20 12 -2 10.14 6.31
-12 20 2 10.52 8.14
-12 20 -3 3.88 6.44
-20 12 -3 6.85 5.7
20 12 3 8.16 6.3
20 12 -3 2.97 5.22
-12 20 3 0.37 6.83
-12 20 -4 10.79 6.24
-20 12 -4 10.15 5.61
20 12 4 -1.18 5.22
20 12 -4 11.06 6.57
-12 20 4 1.14 5.64
20 12 -5 102.7 15.26
-12 20 5 170.15 21.73
-12 20 -5 150.68 22.33
-12 20 -6 5.37 6.53
20 12 -6 -1.74 5.64
-12 20 6 3.27 6.55
-12 20 -7 19.01 7.47
20 12 -7 12.06 5.58
-12 20 7 9.29 6.23
-12 20 -8 15.35 9.01
20 12 -8 7.19 5.85
-12 20 8 10.2 5.73
20 12 -9 115.98 13.99
-12 20 9 108.13 14.96
-12 20 -9 128.51 16.54
-12 20 -10 7.06 4.08
20 12 -10 17.55 5.78
20 12 -11 267.35 18.18
-12 -20 -11 248.96 23.67
-12 20 -11 270.64 21.19
20 12 -12 7.98 4.08
-12 -20 -12 2.71 3.29
20 13 0 484.36 30.25
-13 20 0 629.87 42.58
-13 20 1 -11.18 10.7
-13 20 -1 -12.48 11.28
20 13 1 5.34 4.98
20 13 -1 -7.5 6.89
20 13 2 184.44 18.45
20 13 -2 174.41 17.89
-13 20 2 220.56 26.08
-13 20 -2 237.47 25.93
-20 13 -2 186.58 20.62
-13 20 -3 17.35 7.81
-20 13 -3 4.74 5.75
20 13 3 9.8 5.14
20 13 -3 11.25 5.19
-13 20 3 8.96 6.67
-13 20 -4 19.04 7.77
-20 13 -4 13.27 7.97
20 13 4 15.09 7.01
20 13 -4 17.43 6.49
-13 20 4 21.29 8.2
-13 20 -5 -8.52 7.95
-20 13 -5 5.18 5.05
20 13 -5 5.03 4.03
-13 20 5 -3.71 5.37
-13 20 -6 81.42 15.25
-20 13 -6 66.2 13.89
20 13 -6 72.63 11.23
-13 20 6 50.52 11.19
-13 20 -7 -12.44 7.05
-20 13 -7 2.28 6
20 13 -7 -1.92 3.48
-13 20 7 4.74 4.65
-13 20 -8 29.48 8.54
20 13 -8 29.16 6.95
-13 20 8 30.09 8.43
-13 20 -9 3.77 4.42
20 13 -9 5.74 3.42
20 13 -10 306.09 19.63
-13 20 -10 356.17 25.51
-13 20 -11 -5.56 4.58
20 13 -11 7.64 3.68
-13 -20 -11 6.05 5
-14 20 0 -11.57 9.86
20 14 0 -8.6 6.77
20 14 1 413.23 26.77
20 14 -1 439.78 27.32
-14 20 1 493.96 36.38
-14 20 -1 511.71 37.62
-20 14 -1 439.47 30.79
-14 20 -2 -11.76 9.07
-20 14 -2 -1.72 4.34
20 14 2 -3.35 4.7
20 14 -2 4.45 4.72
-14 20 2 -1 6.32
-14 20 -3 29.1 9.14
-20 14 -3 30.3 8.34
20 14 3 25.31 7.04
20 14 -3 28.28 7.98
-14 20 3 28.48 9.64
-14 20 -4 2.74 6.02
-20 14 -4 7.18 5.13
20 14 -4 2.46 4.62
-14 20 4 0.28 4.79
-20 14 -5 61.72 13.07
20 14 -5 83.76 11.39
-14 20 5 51.74 10.69
-14 20 -5 91.9 15.85
-14 20 -6 -5.78 7.08
-20 14 -6 -3.68 5.08
20 14 -6 4.21 3.33
-14 20 6 0.22 4.6
-14 20 -7 6.63 6.37
-20 14 -7 3.43 4.78
20 14 -7 6.56 3.71
-14 20 7 10.79 6.42
-14 20 -8 1.81 4.18
-20 14 -8 -6.42 4.1
20 14 -8 3.99 4.23
-20 14 -9 157.3 17.52
20 14 -9 134.1 12.92
-14 20 -9 156.95 17.31
-14 20 -10 4.9 3.89
-20 14 -10 5 4.62
20 14 -10 5.37 3.52
-14 -20 -10 6.77 5.13
20 15 0 385.16 24.18
-15 20 0 428.96 32.48
-15 20 -1 -18.21 9.29
-20 15 -1 -7.44 5.98
20 15 1 2.77 4.55
20 15 -1 4.07 3.84
-15 20 1 -8.15 7.15
20 15 2 93.02 11.87
20 15 -2 107.09 12.31
-15 20 2 116.78 16.73
-15 20 -2 151.46 19.57
-20 15 -2 114.38 15.77
-15 20 -3 -4.59 6.05
-20 15 -3 -11.92 6.67
20 15 -3 -4.77 4.49
-15 20 3 1.34 4.39
-15 20 -4 11.63 6.55
-20 15 -4 21.33 8.4
20 15 -4 10.19 4.14
-15 20 4 10.41 5.64
-15 20 -5 12.58 6.44
-20 15 -5 2.74 4.61
20 15 -5 5.41 3.47
-15 20 5 3.17 3.9
-15 20 -6 29.26 9.45
-20 15 -6 26.57 8.43
20 15 -6 52.31 8.14
-15 20 6 37.84 8.3
-15 20 -7 3.69 4.9
-20 15 -7 5.3 5
20 15 -7 0.38 3.04
-15 20 -8 7 5.01
20 15 -8 9.92 4.17
-15 20 -9 -6.66 5.16
-20 15 -9 -3.41 4.2
20 15 -9 3.44 3.39
-15 20 -10 179.4 16.02
-16 20 0 7.54 4.51
-16 20 1 145.96 17.78
-16 20 -1 137.79 17.74
-20 16 -1 107.34 14.26
-16 20 -2 -4.23 6.43
-20 16 -2 2.08 4.55
20 16 -2 -1.66 3.89
-16 20 2 5.17 6.11
-16 20 -3 3.39 5.52
-20 16 -3 5.65 5.37
20 16 -3 8.23 4.36
-16 20 3 2.93 4.95
-16 20 -4 34.47 8.79
-20 16 -4 26.7 7.32
20 16 -4 26.67 6.33
-16 20 4 34.38 8.74
-16 20 -5 41.09 9.97
20 16 -5 54.71 7.73
-16 20 -6 11.64 6.08
-20 16 -6 20.08 7.54
20 16 -6 15.49 4.35
-16 20 -7 7.69 5.83
-20 16 -7 5.75 4.09
20 16 -7 0.36 2.87
-16 20 -8 5.85 4.78
-20 16 -8 0.51 4.04
-16 20 -9 22.15 6.18
-17 20 0 55.46 10.38
-17 20 -1 -0.61 5.03
-20 17 -1 -2.02 4.13
-17 20 1 -1.6 5.69
-20 17 -2 5.01 4.14
-17 20 2 14.51 6.64
-17 20 -3 32.84 9.02
-20 17 -3 26.89 7.47
-17 20 3 26.97 7.91
-17 20 -4 16.81 7.09
-20 17 -4 22.14 6.59
-17 20 -5 84.59 12.98
-20 17 -5 86.65 11.89
-17 20 -6 13.1 5.3
-20 17 -6 13.22 4.49
-17 20 -7 35.52 7.72
-20 17 -7 27.14 6.7
-18 20 0 4.81 4.18
-18 20 1 12.8 5.97
-18 20 -1 5.04 4.21
-18 20 -2 -4.68 4.56
-20 18 -2 2.46 4.14
-18 20 -3 6.43 4.73
-20 18 -3 4.86 3.5
-18 20 -4 122.01 14.35
-20 18 -4 107.21 12.65
-18 20 -5 8.81 4.56
21 0 0 278.9 26.03
0 21 0 298.68 28.56
21 0 -1 110.41 16.39
21 0 1 104.03 16.62
0 21 1 106.9 16.81
0 21 -1 127.98 18.1
21 0 2 0.43 6.01
21 0 -2 -2.11 5.14
0 21 2 9.39 6.14
0 21 -2 2.84 3.94
21 0 3 4.71 6.98
21 0 -3 0.87 5.8
0 21 3 10.94 8.07
21 0 4 475.93 34.92
21 0 -4 452.95 31.42
0 21 4 481.81 36.52
0 21 -4 453.58 31.96
21 0 5 5.91 7.1
21 0 -5 12.29 5.99
0 21 5 26.21 11.33
21 0 -6 370 28.92
0 21 6 407.04 36.2
21 0 -7 34.07 9.84
0 21 7 49.9 12.71
21 0 -8 15.56 6.98
0 21 8 13.02 8.91
21 0 -9 42.07 9.74
0 21 9 46.44 12.95
21 0 -10 118.81 14.63
0 21 10 152.11 21.6
21 0 -11 15.41 5.34
0 21 11 27.57 8.85
0 -21 -11 33.07 11.09
21 0 -12 27.86 6.89
0 -21 -12 41.05 10.84
0 -21 -13 44.25 11.03
0 -21 -14 96.11 14.26
21 -1 0 121.66 16.93
21 1 0 128.32 17.51
1 21 0 105.85 15.91
-1 21 0 130.72 19.75
21 -1 1 215.92 22.64
21 1 1 246.21 24.34
21 -1 -1 177.78 20.5
21 1 -1 261.22 25.34
1 21 1 241.57 26.96
1 21 -1 192.31 22.24
-1 21 1 218.47 25.02
-1 21 -1 209.1 24.61
21 -1 2 8.8 7.79
21 1 2 16.95 8.24
21 -1 -2 3.14 5.18
21 1 -2 14.41 6.72
1 21 2 17.9 7.96
-1 21 2 27.78 11.2
1 21 -2 -7.34 8.2
-1 21 -2 47.43 12.87
21 -1 -3 91.76 14.84
21 -1 3 69.53 13.6
21 1 3 78.33 15.41
21 1 -3 81.77 14.02
1 21 3 76.97 15.4
-1 21 3 89.24 16.22
1 21 -3 72.31 13.16
-1 21 -3 49.26 11.24
21 -1 4 39.87 13.15
21 1 4 38.35 13.6
21 -1 -4 60.99 15.58
21 1 -4 17.71 7.7
1 21 4 50.05 13.26
-1 21 4 53.82 15.55
-1 21 -4 4.02 6.1
21 1 5 524.08 37.52
21 -1 -5 447.78 32.66
21 1 -5 500.93 33.95
1 21 5 537.8 39.88
-1 21 5 499.01 38.66
-1 21 -5 419.3 30.83
21 -1 -6 34.69 10.6
21 1 -6 25.34 7.86
1 21 6 45.86 13.88
-1 21 6 29.81 10.97
21 -1 -7 112.56 15.32
21 1 -7 107.94 15.28
1 21 7 136.44 20.58
-1 21 7 131.47 21.26
21 -1 -8 21.02 6.92
21 1 -8 18.16 7.86
1 21 8 34.82 12.25
-1 21 8 42.35 13.72
21 -1 -9 50.62 9.54
21 1 -9 58.49 10.56
1 21 9 80.65 17.08
-1 21 9 72.22 15.36
21 -1 -10 5.93 4.69
21 1 -10 3.94 4.27
1 21 10 10.22 8.02
-1 21 10 19.2 10.52
21 -1 -11 114.01 13.54
21 1 -11 161.38 17.07
1 -21 -11 155.9 22.22
-1 21 11 156.66 20.16
21 1 -12 5.49 3.19
1 -21 -12 5.75 5.6
-1 -21 -12 1.32 6.04
21 1 -13 -4.52 3.3
-1 -21 -13 -0.13 4.72
1 -21 -14 33 7.93
-1 -21 -14 37.42 9.48
21 -2 0 366.76 30.02
2 21 0 369.86 31.2
-2 21 0 403.16 33.63
21 -2 1 14.48 9.76
21 2 1 -1.12 7.88
21 2 -1 -3.99 6.74
2 21 1 5.77 6.27
2 21 -1 -11.52 7.96
-2 21 1 -1.12 6.13
-2 21 -1 9.23 8.9
21 -2 2 24.07 9.66
21 2 2 46.89 12.47
21 2 -2 45.63 11.62
2 21 2 47.08 11.63
2 21 -2 48.73 11.52
-2 21 2 42.84 12.2
-2 21 -2 36.29 10.54
-2 21 -3 52.05 14.49
21 -2 3 16.16 8.24
21 2 3 31.62 11.51
21 -2 -3 12.8 5.9
21 2 -3 25.55 9.35
2 21 3 29.85 10.75
-2 21 3 38.14 12.85
-2 21 -4 69.21 11.59
21 2 4 195.78 23.55
21 -2 4 128.17 18.49
21 2 -4 145.73 20.24
21 -2 -4 74.48 12.57
2 21 4 184.57 24.44
-2 21 4 136.06 21.63
-2 21 -5 28.96 5.83
21 2 5 52.96 14.1
21 -2 -5 3.64 10.06
21 2 -5 68.87 14.09
-2 21 5 124.75 20.68
2 21 5 93.87 17.55
21 -2 -6 229.39 20.91
21 2 -6 291.21 25.42
2 21 6 276.31 28.82
-2 21 6 272.58 28.29
-2 21 -6 226.67 22.62
21 -2 -7 13.88 6.99
21 2 -7 7.26 6
2 21 7 19.67 9.43
21 -2 -8 12.51 5.55
21 2 -8 22.57 8.25
2 21 8 29.14 11.39
-2 21 8 19.83 9.78
21 -2 -9 -2.64 3.97
21 2 -9 -1.22 5.72
2 21 9 2.48 6.62
-2 21 9 9.11 8.58
21 2 -10 265.67 22.33
2 21 10 299.04 30.06
-2 21 10 250.38 26.78
21 2 -11 -0.68 4.35
-2 21 11 -2.18 7.24
2 -21 -11 4.98 5.61
21 2 -12 66.83 10.72
2 -21 -12 54.81 11.76
21 2 -13 1.8 3
2 -21 -13 8.52 5.46
-2 -21 -13 16.44 7.9
-2 -21 -14 37.5 9.34
21 -3 0 80.53 13.7
21 3 0 79.76 15.91
3 21 0 71.31 13.35
21 -3 1 123.5 16.33
21 -3 -1 141.85 17.31
21 3 1 337.99 29.79
21 3 -1 322.97 29.08
3 21 1 232.09 24.27
3 21 -1 293 26.45
-3 21 1 247.84 28.87
-3 21 -1 233.78 27.23
-3 21 -2 41.96 12.69
21 -3 2 -18.95 13.11
21 3 2 60.26 12.82
21 -3 -2 -16.9 10.19
21 3 -2 59.01 11.82
3 21 2 65.09 12.68
-3 21 2 47.4 12.79
-3 21 -3 4.91 5.76
21 3 3 9.19 7.97
21 -3 -3 -2.49 6.09
21 3 -3 -0.9 6.39
3 21 3 6.63 5.92
-3 21 3 3.19 7.04
21 -3 -4 102.22 15.68
21 3 4 83.03 16.71
21 3 -4 88.67 15.62
-3 21 4 134.11 21.39
3 21 4 91 16.35
-3 21 -4 106.94 18
21 3 5 131.44 20.09
21 -3 -5 92.21 13.54
21 3 -5 130.64 17.86
3 21 5 133.87 19.81
-3 21 5 100.72 17.93
-3 21 -5 110.71 18.24
-3 21 -6 66.01 14.04
21 -3 -6 32.82 8.25
21 3 -6 61.6 13.77
3 21 6 76.42 17.41
-3 21 6 94.08 18.91
-3 21 -7 4.9 4.92
21 3 -7 -0.08 5.38
3 21 7 18.08 7.88
-3 21 7 -1.42 7.21
21 3 -8 32.19 10.09
3 21 8 29.51 11.43
-3 21 8 32.54 12.1
21 3 -9 181.9 19.58
3 21 9 192.96 23.59
-3 21 9 177.3 23.21
21 3 -10 54.51 11.47
-3 21 10 69.44 15.21
3 -21 -10 66.92 14.84
21 3 -11 193.99 18.5
3 -21 -11 125.87 17.42
-3 21 11 156.51 20.91
21 3 -12 30.77 6.94
3 -21 -12 20.94 8.67
-3 -21 -12 29.95 8.04
21 3 -13 15.78 6.05
-3 -21 -13 14.93 8.06
21 3 -14 5.16 3.32
-3 -21 -14 8 4.77
21 -4 0 151.53 19.79
21 4 0 230.03 24.99
4 21 0 233.81 23.56
-4 21 0 164.68 23.32
21 -4 1 225.73 21.98
21 -4 -1 283.75 24.24
21 4 1 332.43 28.69
21 4 -1 345.97 28.07
4 21 1 260.64 24.92
-4 21 1 364.52 33.1
-4 21 -1 347.38 32.35
-4 21 -2 87.66 16.36
21 -4 2 26.27 5.43
21 4 2 87.19 16.02
21 -4 -2 80.5 12.83
21 4 -2 85.57 15.06
4 21 2 61.4 12.86
-4 21 2 78.97 16.83
-4 21 -3 4.5 5.63
21 4 3 5.02 8.66
21 4 -3 2.7 5.42
-4 21 3 -1.73 6.45
-4 21 -4 -5.14 7.5
21 4 4 17.01 10.18
21 4 -4 0.07 5.42
4 21 4 22.24 10.02
-4 21 4 17.13 9.09
21 4 5 85.06 16.71
21 4 -5 77.76 14.96
4 21 5 101.34 17.73
-4 21 5 137.94 21.81
-4 21 -5 115.12 17.45
-4 21 -6 10.1 6.15
21 4 -6 42.07 10.95
4 21 6 41.63 13.12
-4 21 6 16.4 10.35
-4 21 -7 13.81 6.5
21 4 -7 28.24 10.05
4 21 7 35.95 12.18
-4 21 7 41.03 15.43
-4 21 -8 26.71 8.8
21 4 -8 44.15 11.43
4 21 8 43.45 12.5
-4 21 8 49.84 12.93
21 4 -9 110.51 15.65
-4 21 9 133.95 20.65
21 4 -10 164.11 18.47
-4 21 10 138.92 19.84
21 4 -11 156.84 17.06
-4 21 11 165.98 20.5
21 4 -12 64.64 10.24
-4 -21 -12 101.72 17.84
21 4 -13 22.86 6.31
-4 -21 -13 20.74 8.22
21 4 -14 -1.46 3.16
-4 -21 -14 4.64 6.2
21 5 0 601.68 37.66
-5 21 0 630.78 43.1
-5 21 -1 71.25 16.18
21 5 1 79.67 14.53
21 5 -1 74.03 13.39
5 21 1 66.37 12.91
-5 21 1 79.32 16.19
21 5 -2 119.04 17.11
21 5 2 101.13 17.81
5 21 2 100.76 16.28
-5 21 2 114.92 20.68
-5 21 -2 104.91 18.18
-5 21 -3 30.76 10.33
21 5 3 44.17 11.52
21 5 -3 30.6 9.56
5 21 3 5.12 6.59
-5 21 3 36.17 13.37
-5 21 -4 61.91 13.98
21 5 4 66.07 14.43
21 5 -4 63.28 12.61
5 21 4 76.1 14.8
-5 21 4 79.48 17.29
-5 21 -5 22.71 7.64
21 5 5 35.91 12.87
21 5 -5 56.53 13.51
5 21 5 39.52 11.68
-5 21 5 31.97 12.61
-5 21 -6 49.49 12.44
21 5 -6 51.19 11.91
5 21 6 64.69 14.62
-5 21 6 86.06 17.18
-5 21 -7 32.13 9.1
21 5 -7 23.85 8.69
5 21 7 41.88 12.74
-5 21 7 51.59 14.55
-5 21 -8 41.15 10.18
21 5 -8 58.62 10.65
-5 21 8 64.24 13.92
-5 21 -9 17.35 6.36
21 5 -9 26.44 8.72
-5 21 9 36.83 10.85
21 5 -10 305.78 24.28
-5 21 10 336.85 29.91
21 5 -11 56.98 10.59
-5 21 11 44.45 10.82
21 5 -12 129.89 14.76
-5 -21 -12 172.27 22.8
21 5 -13 11.34 4.38
-5 -21 -13 16.42 6.78
21 5 -14 -2.4 2.51
-5 -21 -14 13.68 6.72
-6 21 0 11.93 6.65
21 6 0 -0.52 7.93
21 6 1 363.85 30.12
21 6 -1 336.85 28.05
-6 21 1 397.52 36.28
-6 21 -1 382.12 34.37
-6 21 -2 7.86 5.83
21 6 2 12.05 8.35
21 6 -2 1.56 5.92
6 21 2 8.86 4.46
-6 21 2 14.64 8.55
-6 21 -3 1.5 5.81
21 6 3 0.35 7.57
21 6 -3 4.67 6.92
6 21 3 18.09 10.7
-6 21 3 0.82 7.15
-6 21 -4 11.36 8.02
21 6 4 26.57 10.31
21 6 -4 20.96 10.58
6 21 4 53.12 14.04
-6 21 4 21.61 10.87
21 6 5 195.59 22.96
21 6 -5 215.15 22.63
6 21 5 224.67 25.1
-6 21 5 218.61 26.69
-6 21 -5 175.91 21.98
-6 21 -6 38.82 11.27
21 6 -6 59.73 13.58
6 21 6 56.83 13.12
-6 21 6 58.47 16.71
-6 21 -7 17.82 7.87
21 6 -7 22.38 8.39
-6 21 7 19.02 9.18
-6 21 -8 10.43 5.09
21 6 -8 17.9 8.34
-6 21 8 28.33 12.05
21 6 -9 180.41 19.54
-6 21 9 188.03 23.02
-6 21 -9 144.92 17.42
-6 21 -10 -9.55 6.8
21 6 -10 5.08 4.89
-6 21 10 11.25 6.89
21 6 -11 253.01 21.24
-6 21 11 270.3 24.6
21 6 -12 4.95 4.32
-6 -21 -12 0.65 5.44
21 6 -13 9.5 4.11
-6 -21 -13 38.13 10.79
21 6 -14 -0.47 2.46
-6 -21 -14 4.68 4.46
21 7 0 249.03 25.35
-7 21 0 266.81 30.02
-7 21 -1 1.03 6.04
21 7 1 6.54 7.59
21 7 -1 -11.6 8.38
-7 21 1 -7.19 6.42
-7 21 -2 51.04 12.66
21 7 2 62.54 13.83
21 7 -2 44.41 10.01
-7 21 2 71.05 15.62
-7 21 -3 6.42 6.01
21 7 3 12.44 8.44
21 7 -3 5.83 6.33
7 21 3 6.09 7.27
-7 21 3 14.14 8.96
21 7 4 231.24 24.23
21 7 -4 193.8 22.24
7 21 4 214.7 24.07
-7 21 4 181.81 25.29
-7 21 -4 168.42 21.18
-7 21 -5 16.55 8.66
21 7 5 29.79 10.22
21 7 -5 31.72 8.9
7 21 5 38.6 11.45
-7 21 5 30.02 11.9
21 7 -6 325.53 26.25
-7 21 6 309.93 30.14
-7 21 -6 280.03 27.18
-7 21 -7 10.34 6.45
21 7 -7 32.67 9.89
-7 21 -8 -1.76 6.38
21 7 -8 1.51 5.13
-7 21 8 0.73 5.63
-7 21 -9 9.57 5.54
21 7 -9 10.63 5.68
-7 21 9 21.2 9.18
21 7 -10 236.55 20.75
-7 21 10 207.5 22.51
21 7 -11 -7.71 5.16
-7 21 11 -5.6 6.26
21 7 -12 81.85 10.87
-7 -21 -12 101.96 16.81
21 7 -13 -0.01 3
-7 -21 -13 -5.73 6.27
-7 -21 -14 48.66 10.09
-8 21 0 3.57 5.84
21 8 0 -14.38 8.69
21 8 1 157.43 19.28
21 8 -1 138.6 18.43
-8 21 1 128.95 20.68
-8 21 -1 122.8 19.6
-8 21 -2 15.23 8.9
21 8 2 34.49 11.65
21 8 -2 24.47 8.93
-8 21 2 13.48 8.23
-8 21 -3 21.1 8.45
21 8 3 25.77 9.93
21 8 -3 43.49 10.56
-8 21 3 27.58 8.9
-8 21 -4 25.9 10.7
21 8 4 48.93 11.54
21 8 -4 50.65 12.35
-8 21 4 27.6 10.21
21 8 5 489.3 33.24
21 8 -5 508.67 32.97
-8 21 5 443.94 36.36
-8 21 -5 465.1 35.49
-8 21 -6 42.34 12.18
21 8 -6 43.17 8.82
-8 21 6 47.61 14.08
21 8 -7 131.86 16.13
-8 21 7 110.84 17.13
-8 21 -7 118.67 16.98
-8 21 -8 17.71 6.93
21 8 -8 36.93 10.21
-8 21 8 22.67 9.81
-8 21 -9 18.02 7.75
21 8 -9 46.48 10.02
-8 21 9 31.98 10.32
-8 21 -10 0.79 4.9
21 8 -10 21.63 6.9
-8 21 10 11.25 6.91
-8 21 11 98.84 13.94
-8 21 -11 91.54 11.98
21 8 -12 0.34 3.2
-8 -21 -12 3.66 5.05
21 8 -13 11.13 5.16
-8 -21 -13 3.89 5.84
-9 21 0 84.22 17.12
21 9 0 135.76 18.44
-9 21 1 4.44 7.84
-9 21 -1 -5.33 9.51
21 9 1 7.81 6.98
21 9 -1 0.51 5.7
-9 21 -2 4.84 6.41
21 9 2 3.28 6.35
21 9 -2 15.56 8.08
-9 21 2 5.21 7.45
-9 21 -3 27.7 11.16
21 9 3 45.87 10.76
21 9 -3 48.52 11.39
-9 21 3 48.36 13.81
21 9 4 218.93 22.41
21 9 -4 237.15 22.48
-9 21 4 224.62 25.31
-9 21 -4 205.28 23.95
21 9 5 114.01 16.03
21 9 -5 132.14 16.82
-9 21 5 140.95 20.75
-9 21 -5 126.36 19.16
21 9 -6 296.62 24.77
-9 21 6 257.66 26.77
-9 21 -6 278.83 26.99
-9 21 -7 62.21 13.68
21 9 -7 58.02 11.08
-9 21 7 60.14 13.3
-9 21 -8 -1.6 4.74
21 9 -8 13.67 6.45
-9 21 8 13.29 6.73
-9 21 -9 4.7 4.17
21 9 -9 4.6 4.42
-9 21 9 10 6.51
-9 21 -10 70.8 11.14
-9 21 10 88.6 13.93
21 9 -11 1.07 3.16
-9 21 11 2.24 3.51
21 9 -12 16.76 5.02
-9 -21 -12 12.7 6.46
21 9 -13 9.12 3.44
-9 -21 -13 5.34 4.53
-10 21 0 34.72 10.74
21 10 0 6.71 5.68
-10 21 1 37.92 12.58
-10 21 -1 42.33 13.72
21 10 1 58.2 13.01
21 10 -1 81.92 14.14
-10 21 -2 -6.7 8.7
21 10 2 8.45 7.38
21 10 -2 -6.69 6.28
-10 21 2 0.29 5.76
-10 21 -3 43.57 12.51
21 10 3 30.77 10.11
21 10 -3 40.77 10.69
-10 21 3 39.76 11.68
21 10 4 125.68 17.55
21 10 -4 127.84 16.02
-10 21 4 151.54 21.09
-10 21 -4 142.82 20.28
21 10 5 144.93 17.27
21 10 -5 153.21 18.85
-10 21 5 136.31 18.7
-10 21 -5 143.59 20.55
21 10 -6 136.63 17.34
-10 21 6 158.81 20.43
-10 21 -6 189.26 22.75
-10 21 -7 51.27 12.09
21 10 -7 52.64 9.82
-10 21 7 51.08 12.83
-10 21 -8 7.76 5.57
21 10 -8 9.41 5.73
-10 21 8 8.31 5.18
-10 21 -9 13.27 5.94
21 10 -9 30.76 7.75
-10 21 9 12.75 6.68
-10 21 -10 3.43 4.32
21 10 -10 1.32 3.7
-10 21 10 10.71 6.04
-10 21 -11 9.61 3.61
21 10 -11 80.79 11.36
21 10 -12 0.58 3.1
-10 -21 -12 5.73 5.14
-11 21 0 37.97 12.08
21 11 0 48.9 11.6
-11 21 1 101.68 18.14
21 11 1 80.92 13.01
21 11 -1 79.43 12.5
-11 21 -1 119.16 19.24
-11 21 -2 10.4 6.67
21 11 2 21.96 8.78
21 11 -2 16.71 7.72
-11 21 2 23.03 9.39
-11 21 -3 8.03 6.46
21 11 3 26.69 9.47
21 11 -3 8.03 5.53
-11 21 3 16.41 8.98
-11 21 -4 19.19 6.92
-21 11 -4 10.59 6.63
21 11 4 14.06 8.07
21 11 -4 24.06 8.06
-11 21 4 6.8 7.28
-21 11 -5 213.69 22.47
21 11 -5 218.7 20.11
-11 21 5 251.23 25.55
-11 21 -5 277.5 27.49
-11 21 -6 7.51 5.93
21 11 -6 16.36 7.15
-11 21 6 17.18 7.1
-11 21 -7 67.55 13.29
21 11 -7 50.52 9.88
-11 21 7 43.79 11.32
-11 21 -8 6.84 5.73
21 11 -8 12.48 5.62
-11 21 8 10.11 6.12
-11 21 -9 10.47 4.28
21 11 -9 10.57 4.58
-11 21 9 10.29 5.85
-11 21 -10 40.47 8.96
-11 21 10 16.59 6.19
-11 21 -11 44.02 7.84
21 11 -11 48.75 7.86
-11 -21 -11 55.1 11.14
21 11 -12 19.95 5.09
21 12 0 268.68 22.8
-12 21 0 326.04 29.93
-12 21 -1 12.55 6.74
21 12 1 8.6 5.59
21 12 -1 22.92 7.47
-12 21 1 20.96 8.56
-12 21 -2 67.97 14.02
21 12 2 56.57 10.46
21 12 -2 53.01 10.26
-12 21 2 56.88 13.76
-12 21 -3 14.95 9.4
21 12 3 18.95 7.54
21 12 -3 17.01 6.78
-12 21 3 17.7 9.45
-12 21 -4 84.58 15.39
-21 12 -4 74.79 13.22
21 12 4 73.75 12.28
21 12 -4 78.26 10.8
-12 21 4 89.88 15.72
-12 21 -5 -10.66 7.95
-21 12 -5 -3.7 7.75
21 12 -5 -2.88 4.88
-12 21 5 -12.49 7.49
-21 12 -6 141.4 18.39
21 12 -6 132.39 14.75
-12 21 6 143.27 17.87
-12 21 -6 157.48 20.13
-12 21 -7 8.18 4.79
-21 12 -7 1.71 4.84
21 12 -7 0.29 3.56
-12 21 7 1.42 4.16
-12 21 -8 -6.28 5.78
21 12 -8 -4.44 4.77
-12 21 8 -0.45 3.89
-12 21 -9 3.54 4.18
-12 21 9 10.17 5.41
21 12 -10 116.07 12.13
-12 21 -10 133.46 15.07
-21 12 -11 10.1 5.32
21 12 -11 34.37 6.63
-13 21 0 -8.69 8
21 13 0 7.02 4.65
21 13 1 233.28 20.77
21 13 -1 232.22 20.22
-13 21 1 295.93 28.71
-13 21 -1 283.61 27.29
-13 21 -2 3.4 7.5
21 13 2 14.1 6.46
21 13 -2 15.57 5.91
-13 21 2 10.35 5.62
-13 21 -3 -1.73 7.78
-21 13 -3 0.82 5.01
21 13 3 -2.62 4.84
21 13 -3 -7.69 5.91
-13 21 3 1.37 4.91
-13 21 -4 4.46 5.24
-21 13 -4 5.71 3.93
21 13 -4 21.61 6.91
-13 21 4 16.97 7.52
-21 13 -5 108.68 15.53
21 13 -5 123.46 13.66
-13 21 5 106.31 15.28
-13 21 -5 118.07 16.83
-13 21 -6 9.99 6.09
-21 13 -6 5.26 4.9
21 13 -6 21.16 6.85
-13 21 6 11.02 3.86
-13 21 -7 29.52 9.01
-21 13 -7 24.82 8.31
21 13 -7 28.14 6.97
-13 21 7 16.53 5.62
-13 21 -8 19.75 6.8
-21 13 -8 12.15 6.67
21 13 -8 24.52 6.64
-13 21 8 7.16 4.81
-21 13 -9 76.18 11.47
21 13 -9 65.89 8.44
-13 21 -9 93.66 13.3
-13 21 -10 -3.14 3.52
-21 13 -10 5.06 4.92
21 14 0 268.39 20.15
-14 21 0 326.66 28.24
-14 21 -1 10.98 5.26
21 14 1 11.95 5.83
21 14 -1 15.91 5.83
-14 21 1 7.19 5.37
-14 21 -2 83.54 14.75
21 14 2 57.21 10.26
21 14 -2 74.23 10.96
-14 21 2 80.41 14.04
-14 21 -3 14.78 6.69
-21 14 -3 14.1 6.04
21 14 -3 18.03 6.13
-14 21 3 5.11 4.25
-14 21 -4 25.02 9.7
-21 14 -4 25.72 6.74
21 14 -4 32.65 7.05
-14 21 4 14.51 4.82
-14 21 -5 4.36 4.2
-21 14 -5 10.5 4.93
21 14 -5 12.34 4.76
-14 21 5 8.31 5.67
-14 21 -6 56.86 11.75
-21 14 -6 53.38 10.46
21 14 -6 78.03 10.42
-14 21 6 41.53 8.62
-14 21 -7 11.92 5.67
-21 14 -7 15.39 5.87
21 14 -7 26.51 6.36
-14 21 7 14.71 6.08
-14 21 -8 9.69 4.71
-21 14 -8 12.49 6.53
21 14 -8 15.07 4.87
-14 21 -9 3.41 4.54
-21 14 -9 2.16 3.85
21 14 -9 3.2 2.39
21 15 0 10.5 5.11
-15 21 0 11.75 6.66
21 15 1 102.16 12.38
21 15 -1 113.18 12.61
-15 21 1 106.07 15.9
-15 21 -1 120.39 16.42
-15 21 -2 9.4 5.64
21 15 -2 14.17 4.81
-15 21 2 7.52 4.76
-15 21 -3 -0.5 5.52
-21 15 -3 3.65 4.03
21 15 -3 -0.37 4.11
-15 21 3 0.35 3.97
-15 21 -4 4.12 4.33
-21 15 -4 -4.78 4.93
21 15 -4 0.43 3.67
-15 21 4 -2.5 3.98
-15 21 -5 64.9 12.18
-21 15 -5 41.48 9
-15 21 5 34.92 8.2
-21 15 -6 4.78 3.5
21 15 -6 6.83 3.32
-15 21 -7 7.83 5.44
-21 15 -7 4.73 3.62
21 15 -7 9.58 3.53
-15 21 -8 5.95 4.54
-16 21 0 58.23 10.77
-16 21 1 13.75 6.13
-16 21 -1 12.35 6.88
-16 21 -2 5.84 5.32
-16 21 2 9.6 4.46
-16 21 -3 -6.55 4.91
-21 16 -3 -5.53 5.45
-16 21 3 -1.32 4.59
-16 21 -4 31.03 8.59
-21 16 -4 20.48 6.19
-16 21 4 20.49 6.52
-16 21 -5 10.94 5.23
-21 16 -5 10.62 3.97
-16 21 -6 23.03 6.21
-21 16 -6 15.89 5.5
-16 21 -7 0.6 3.62
-17 21 0 11.15 5.75
-17 21 1 -2.17 4.67
-17 21 -1 4.2 4.83
-17 21 2 -7.44 3.72
-17 21 -2 0.02 3.34
-17 21 -3 9.88 5.7
-17 21 -4 41.99 8.73
-17 21 -5 33.61 7.29
22 0 0 132.49 18.28
0 22 0 134.17 18.91
22 0 1 -2.21 7.94
22 0 -1 25.25 8.57
0 22 1 3.37 5.18
0 22 -1 41.7 12.56
22 0 2 18.46 8.76
22 0 -2 16.03 7.84
0 22 2 5.77 6.71
0 22 -2 -9.33 7.37
22 0 3 207.91 22.81
22 0 -3 198.98 21.09
0 22 3 183.77 21.8
0 22 -3 187.99 21.29
22 0 4 5.17 8.1
22 0 -4 6.73 5.92
0 22 4 -0.84 7.22
0 22 -4 -0.65 5.28
22 0 -5 412.39 29.36
0 22 5 471.75 36.74
22 0 -6 7.36 6.04
0 22 6 0.81 5.53
22 0 -7 123.37 15.98
0 22 7 173 22.48
22 0 -8 5.92 5.1
0 22 8 17.77 8.65
22 0 -9 -3.13 3.9
0 22 9 2.73 5.39
22 0 -10 32.29 7.74
0 22 10 22.66 8.54
22 0 -11 2.78 3.03
0 -22 -11 -1.38 5.54
0 -22 -12 16.55 6.13
0 -22 -13 30.29 8.49
22 -1 0 35.7 9.13
22 1 0 84.04 15.24
1 22 0 99.62 17.18
-1 22 0 60 13.43
22 -1 1 27.61 9.5
22 1 1 30.48 10.03
22 -1 -1 40.34 10.66
22 1 -1 25 9.65
1 22 1 16.47 6.86
1 22 -1 -4.16 8.7
-1 22 1 23.67 9.47
-1 22 -1 21.93 7.46
22 -1 2 27.18 9.38
22 1 2 8.66 8.11
22 -1 -2 25.79 8.91
22 1 -2 5.52 6.68
1 22 2 18.45 7.31
-1 22 2 28.91 10.78
1 22 -2 33.84 11.48
-1 22 -2 18.7 8.02
22 -1 3 0.2 9.13
22 1 3 3.75 7.85
22 -1 -3 2.81 4.81
22 1 -3 3.12 5.72
1 22 3 23.08 9.75
-1 22 3 12.72 6.56
1 22 -3 13.93 7.16
22 1 4 335.38 29.98
22 -1 -4 281.55 24.47
22 1 -4 302.76 26.22
1 22 4 326.45 30.65
-1 22 4 306.09 29.94
-1 22 -4 312.29 27.94
22 -1 -5 2.63 5.52
22 1 -5 7.66 5.17
1 22 5 17.29 8.81
-1 22 5 0.74 6.12
-1 22 -5 4.58 4.83
22 -1 -6 227.69 20.99
22 1 -6 232.05 23.01
1 22 6 287.58 28.9
-1 22 6 283.46 29.39
22 -1 -7 9.89 4.56
22 1 -7 12.36 6.89
1 22 7 12.22 8.66
-1 22 7 14.15 8.58
22 -1 -8 20.8 7.58
22 1 -8 9.78 6.5
1 22 8 15.74 7.79
-1 22 8 29.33 11.05
22 -1 -9 16.56 6.32
22 1 -9 1.14 4.79
1 22 9 14.73 7.87
-1 22 9 19 9.04
22 -1 -10 13.32 4.71
22 1 -10 29.74 7.3
1 22 10 45.49 11.74
-1 22 10 45.01 11.13
22 1 -11 4.32 3.89
1 -22 -11 11.11 7.75
-1 -22 -11 12.53 7.41
22 1 -12 4.35 3.31
1 -22 -12 11.79 5.66
-1 -22 -12 1.74 4.96
-1 -22 -13 5.58 4.09
22 -2 0 3.17 7.02
22 2 0 6.68 7.63
-2 22 0 2.49 5.35
22 -2 -1 103.46 18.06
22 -2 1 47.86 10.98
22 2 1 96.06 15.97
22 2 -1 95.87 15.84
2 22 1 106.18 18.79
2 22 -1 107.39 17.41
-2 22 1 86.99 17.73
-2 22 -1 76.04 15.8
22 -2 2 27.94 9.55
22 2 2 17.88 9.93
22 -2 -2 36.06 12.19
22 2 -2 27.25 9.51
2 22 2 24.1 8.85
-2 22 2 16.51 7.73
-2 22 -2 20.79 8.34
22 -2 3 60.89 13.08
22 2 3 61.7 14.07
22 -2 -3 69.31 12.93
22 2 -3 63.82 12.87
2 22 3 52.49 12.11
-2 22 3 67.03 14.51
-2 22 -3 56.84 12.47
22 2 4 38.46 12.78
22 -2 -4 17.07 6.76
22 2 -4 35.68 11.62
2 22 4 40.89 12.24
-2 22 4 33.51 12.22
-2 22 -4 30.85 8.98
22 -2 -5 171.52 17.99
22 2 -5 226.55 22.76
2 22 5 238.26 26.42
-2 22 5 216.47 25.31
-2 22 -5 168.17 20.02
22 -2 -6 24.19 7.47
22 2 -6 44.1 10.61
2 22 6 54.85 14.35
-2 22 6 49.68 14.9
-2 22 -6 19.79 6.97
22 -2 -7 28.92 8.53
22 2 -7 27.8 9.04
2 22 7 46.56 13.35
-2 22 7 33.17 11.9
22 2 -8 26.81 8.29
2 22 8 27.7 10.52
-2 22 8 15.56 9.46
22 2 -9 42.12 9.27
2 22 9 70.27 14.76
-2 22 9 65.85 15.36
22 2 -10 7.96 4.86
-2 22 10 10.79 7.32
2 -22 -10 -1.29 5.39
22 2 -11 28.42 6.56
-2 22 11 36.13 10.5
2 -22 -11 28.52 8.8
22 2 -12 -3.54 3.79
2 -22 -12 3.8 5.14
-2 -22 -13 35.14 9.12
22 3 0 171.64 21.2
3 22 0 158.25 20.13
-3 22 0 119.99 20.32
22 -3 1 144.24 20.14
22 -3 -1 110.29 17.09
22 3 1 97.02 16.85
22 3 -1 96.48 16.62
3 22 1 101.76 15.78
-3 22 1 109.63 18.33
-3 22 -1 97.02 16.75
22 -3 2 13.61 7.51
22 3 2 9.58 8.28
22 -3 -2 19.94 10.58
22 3 -2 8.13 7.36
3 22 2 17.09 9.71
-3 22 2 11.39 8.73
-3 22 -2 8.11 7.49
22 3 3 57.77 14.13
22 -3 -3 25.74 8.53
22 3 -3 53.34 11.57
3 22 3 42.76 11.25
-3 22 3 30.36 10.97
-3 22 -3 24.42 8.46
-3 22 -4 28.11 8.8
22 3 4 47.4 13.65
22 -3 -4 36.63 9.88
22 3 -4 48.11 10.84
3 22 4 54.13 12.43
-3 22 4 37.51 12.15
-3 22 -5 28.95 8.5
22 3 5 72.48 16.58
22 -3 -5 27.86 8.68
22 3 -5 51 13.2
3 22 5 67.54 15.59
-3 22 5 61.34 14.92
-3 22 -6 8.1 5.23
22 3 -6 26.09 8.43
-3 22 6 24.61 9.63
-3 22 -7 37.29 8.48
22 3 -7 76.09 13.32
3 22 7 77.08 15.32
-3 22 7 54.17 13.82
22 3 -8 16.22 6.79
3 22 8 14.71 7.29
-3 22 8 22.61 9.54
22 3 -9 45.99 10.08
-3 22 9 68.46 14.61
22 3 -10 86.56 12.94
-3 22 10 77.02 15.15
22 3 -11 43.09 8.16
-3 22 11 44.92 11.14
22 3 -12 5.53 3.6
-3 -22 -12 17.96 8.2
22 3 -13 3.12 2.7
-3 -22 -13 11.12 5.74
22 -4 0 259.84 22.96
22 4 0 272.96 25.1
-4 22 0 319.22 31.4
22 -4 1 16.52 7.01
22 -4 -1 18.04 7.59
22 4 1 38.37 11.18
22 4 -1 30.74 10.91
4 22 1 33.87 9.42
-4 22 1 27.63 11.33
-4 22 -1 26.33 9.28
22 4 2 140.99 19.11
22 4 -2 147.32 18.81
4 22 2 142.07 19.52
-4 22 2 122.11 19.7
-4 22 -2 116.54 18.96
-4 22 -3 -4.24 6.62
22 4 3 10.24 8.57
22 4 -3 4.26 6.22
4 22 3 1.55 5.08
-4 22 3 -2.27 6.63
-4 22 -4 16.96 8.58
22 4 4 23.44 11.1
22 4 -4 25.87 9.27
4 22 4 34.9 10.17
-4 22 4 23.92 10.44
-4 22 -5 18.15 8.71
22 4 5 28.7 11.96
22 4 -5 31.36 10.67
4 22 5 38.04 10.53
-4 22 5 25.84 10.4
-4 22 -6 6.37 5.13
22 4 -6 15.64 6.63
4 22 6 29.57 10.64
-4 22 6 17.65 9.36
-4 22 -7 1.93 4.15
22 4 -7 1.49 5.59
4 22 7 7.74 6.25
-4 22 7 2.64 5.65
22 4 -8 122.85 16.03
4 22 8 123.39 18.24
-4 22 8 122.13 19.36
22 4 -9 26.49 7.91
-4 22 9 27.82 10.73
22 4 -10 170.52 17.36
-4 22 10 190.05 21.83
22 4 -11 13.37 5.16
-4 22 11 21.85 7.87
22 4 -12 73.79 9.84
-4 -22 -12 106.26 16.9
22 4 -13 -1.77 3.14
-4 -22 -13 14.11 7.48
22 5 0 5.68 7.13
-5 22 0 7.53 8.21
22 5 1 365.5 29.42
22 5 -1 330.36 27.95
-5 22 1 384.73 34.22
-5 22 -1 336.11 31.9
-5 22 -2 6.45 7.4
22 5 2 -11.6 7.65
22 5 -2 10.35 6.32
5 22 2 9.37 5.66
-5 22 2 2.18 8.34
-5 22 -3 13.88 8.23
22 5 3 27.6 10.59
22 5 -3 36.77 10.14
5 22 3 19.32 6.96
-5 22 3 28.77 11.13
-5 22 -4 38.64 11.58
22 5 4 43.3 12.33
22 5 -4 35.92 10
5 22 4 32.42 10.13
-5 22 4 37.86 11.96
-5 22 -5 4.82 5.86
22 5 5 3 6.93
22 5 -5 6.47 7.32
5 22 5 5.61 4.96
-5 22 5 8.79 9.35
-5 22 -6 26.71 9.46
22 5 -6 30.82 10.33
5 22 6 24.77 9.28
-5 22 6 36.52 12.18
-5 22 -7 31.79 9.53
22 5 -7 28.12 8.39
5 22 7 31.8 10.12
-5 22 7 32.99 10.64
-5 22 -8 2.59 4.76
22 5 -8 3.8 4.49
-5 22 8 0.6 5.89
22 5 -9 216.24 20.13
-5 22 9 224.66 24.97
22 5 -10 -4.57 5.97
-5 22 10 -0.06 5.49
22 5 -11 209.76 18.1
-5 22 11 219.04 21.71
22 5 -12 0.21 4.34
-5 -22 -12 -0.74 5.36
22 5 -13 26.15 5.49
-5 -22 -13 36.76 9.47
22 6 0 364.52 28.88
-6 22 0 373.06 33.26
-6 22 -1 26.17 10.7
22 6 1 15.31 8.07
22 6 -1 19.46 7.48
-6 22 1 9.02 5.58
22 6 2 124.74 18.25
22 6 -2 113.72 17.52
-6 22 2 132.17 21.13
-6 22 -2 110.89 19.29
-6 22 -3 22.3 9.31
22 6 3 14.52 8.57
22 6 -3 12.03 8.31
6 22 3 20.83 7.15
-6 22 3 18.69 12.33
-6 22 -4 12.28 5.9
22 6 4 33.73 11.08
22 6 -4 27.24 8.74
6 22 4 29.46 9.33
-6 22 4 21.03 9.17
-6 22 -5 23.57 10.31
22 6 5 32.39 11.28
22 6 -5 30.35 9.7
6 22 5 37.17 10.81
-6 22 5 29.95 11.46
-6 22 -6 13.69 5.39
22 6 -6 15.94 7.07
-6 22 6 22.41 9.51
-6 22 -7 10.67 5.74
22 6 -7 15.71 8
-6 22 7 18.23 8.65
-6 22 -8 57.82 10.75
22 6 -8 73.7 13.04
-6 22 8 70.85 13.91
-6 22 -9 -1.35 3.84
22 6 -9 11.55 5.58
-6 22 9 10.05 7.25
22 6 -10 253.55 20.29
-6 22 10 311.52 26.5
22 6 -11 6.39 4.17
-6 22 11 3.56 3.89
22 6 -12 100.63 11.59
-6 -22 -12 116.8 16.44
-6 -22 -13 9.32 5.51
22 7 0 98.37 16.12
-7 22 0 79.13 15.78
22 7 1 213.44 23.54
22 7 -1 190.14 22.22
-7 22 1 193.11 25.04
-7 22 -1 205.96 24.69
-7 22 -2 26.94 9.5
22 7 2 43.82 11.84
22 7 -2 35.23 9.17
-7 22 2 36.42 11.68
-7 22 -3 1.98 6.92
22 7 3 5.53 7.63
22 7 -3 13.26 7.3
-7 22 3 6.54 7.92
-7 22 -4 -3.34 5.08
22 7 4 12.12 7.9
22 7 -4 18.27 7.21
-7 22 4 6.13 6.21
-7 22 -5 95.24 15.47
22 7 5 127.96 17.56
22 7 -5 139 17.41
-7 22 5 112.39 18.1
-7 22 -6 22.9 8.59
22 7 -6 21.77 7.97
-7 22 6 28.76 10.9
-7 22 -7 10.12 6.07
22 7 -7 -0.14 6.39
-7 22 7 5.1 6.44
-7 22 -8 16.46 6.11
-7 22 8 23.01 8.49
22 7 -9 95.78 12.89
-7 22 9 106.55 16.14
-7 22 -9 80.71 12.14
22 7 -10 45.67 8.71
-7 22 10 40.05 9.89
22 7 -11 167.46 15.26
-7 22 11 151.3 17.27
22 7 -12 13.7 3.95
-7 -22 -12 15.93 7.67
22 8 0 129.79 17.18
-8 22 0 115.06 20.83
-8 22 -1 52.93 14.68
22 8 1 77.28 14.06
22 8 -1 70.84 11.82
-8 22 1 58.9 13.7
-8 22 -2 16.3 9.91
22 8 2 19.99 8.69
22 8 -2 17.26 6.39
-8 22 2 23.48 8.87
-8 22 -3 38.13 10.23
22 8 3 46.58 12.18
22 8 -3 43.74 10.79
-8 22 3 41.87 11.58
-8 22 -4 87.72 15.89
22 8 4 97.95 15.31
22 8 -4 106.69 15.39
-8 22 4 92.14 16.03
-8 22 -5 31.5 9.26
22 8 -5 40.42 8.9
-8 22 5 44.39 11.6
-8 22 -6 68.81 12.75
22 8 -6 88.66 14.63
-8 22 6 85.15 15.35
-8 22 -7 20.58 7.77
-8 22 7 29.52 10.03
-8 22 -8 3.11 3.84
22 8 -8 4.6 4.5
-8 22 8 3.31 4.96
-8 22 -9 45.21 8.75
22 8 -9 71.87 11.18
-8 22 9 69.51 13.1
22 8 -10 141.65 14.92
-8 22 10 124.29 16.23
-8 22 -10 96.31 12.18
22 8 -11 36.87 6.42
-8 22 11 29.09 7.59
22 8 -12 26.81 5.56
-8 -22 -12 36.21 10.01
22 9 0 26.99 7.79
-9 22 0 17.09 8.79
-9 22 -1 54.78 13.65
22 9 1 71.69 13.55
22 9 -1 62.04 12.28
-9 22 1 50.92 13.86
-9 22 -2 28.41 8.96
22 9 2 53.13 12.43
22 9 -2 36.55 9.46
-9 22 2 45.49 13.02
-9 22 -3 7.05 5.61
22 9 3 13.38 7.92
22 9 -3 5.66 6.07
-9 22 3 3.42 6.65
22 9 4 103.61 15.06
22 9 -4 103.61 14.4
-9 22 4 114.99 18.32
-9 22 -4 123.19 17.88
-9 22 -5 71.99 14.28
22 9 -5 112.57 15.04
-9 22 5 83.03 14.76
22 9 -6 82.63 12.55
-9 22 6 82.11 14.94
-9 22 -6 85.6 15.26
-9 22 -7 8.67 6.24
22 9 -7 11.64 5.68
-9 22 7 4.42 5.53
-9 22 -8 33.35 8.85
22 9 -8 44.28 9.18
-9 22 8 34.06 10.12
-9 22 -9 22.28 6.69
22 9 -9 51.48 9.09
-9 22 9 42.86 10.28
-9 22 -10 17.22 5.18
22 9 -10 36.88 7.07
-9 22 10 26.39 7.46
22 9 -11 64.74 9.03
-9 -22 -11 67.44 12.5
22 9 -12 27.42 6.03
22 10 0 68.22 13.13
-10 22 0 78.92 16.35
-10 22 -1 1.21 5.96
22 10 1 -2.85 6.11
22 10 -1 -3.25 6.61
-10 22 1 -6.86 8.75
-10 22 -2 17.39 8.04
22 10 2 21.45 8.54
22 10 -2 35.76 10.59
-10 22 2 23.1 9.55
-10 22 -3 82.39 14.77
22 10 3 91.67 14.39
22 10 -3 73.63 11.98
-10 22 3 82.93 15.54
-10 22 -4 13.4 6.17
22 10 4 -0.27 6.25
22 10 -4 12.46 5.85
-10 22 4 17.27 8.06
22 10 -5 176.3 18.18
-10 22 5 195.83 22.6
-10 22 -5 213.05 23.74
-10 22 -6 10.3 5.69
22 10 -6 18.46 7.78
-10 22 6 10.99 6.03
-10 22 -7 55.72 10.94
22 10 -7 52.43 10.04
-10 22 7 68.68 12.4
-10 22 -8 11.29 5.58
22 10 -8 13.18 5.59
-10 22 8 6.73 5.46
-10 22 -9 -1.13 4.26
22 10 -9 8.04 3.91
-10 22 9 2.14 4.31
-10 22 -10 18.23 5.18
-10 22 10 26.16 6.82
22 10 -11 6.31 3.87
-10 -22 -11 21.1 9.14
22 11 0 27.63 6.59
-11 22 0 27.37 8
-11 22 -1 45.29 11.7
22 11 1 21.31 9.12
22 11 -1 26.91 9.39
-11 22 1 32.83 10.08
-11 22 -2 -8.33 7.09
22 11 2 -4.04 6.53
22 11 -2 -3.59 6.15
-11 22 2 -0.24 5.48
-11 22 -3 7.59 6.82
22 11 3 12.53 7.63
22 11 -3 1.1 4.48
-11 22 3 5.05 5.22
22 11 -4 132.92 15.33
-11 22 4 145.69 18.57
-11 22 -4 164.29 20.26
-11 22 -5 -6.46 6.94
22 11 -5 0.37 4.74
-11 22 5 -8.35 6.89
-22 11 -6 140.49 16.44
22 11 -6 131.6 14.4
-11 22 6 159.92 18.87
-11 22 -6 160.93 19.22
-11 22 -7 9.73 5.82
-22 11 -7 4.2 5.09
22 11 -7 8.23 4
-11 22 7 4.03 4.32
-11 22 -8 3.42 3.56
-22 11 -8 5.17 4.23
22 11 -8 2.93 3.19
-11 22 8 7.53 4.54
-11 22 -9 4.52 5.08
-22 11 -9 17.67 6.19
-11 22 9 22.34 7.04
22 11 -10 0.16 2.57
22 12 0 17.68 7.58
-12 22 0 34.02 10.83
-12 22 -1 60.53 13.29
22 12 1 46.75 10.17
22 12 -1 61.64 10.79
-12 22 1 59.28 11.93
-12 22 -2 14.95 6.73
22 12 2 20 5.98
22 12 -2 20.99 6.76
-12 22 2 0.48 4.97
-12 22 -3 6.64 4.94
22 12 3 11.99 6.18
22 12 -3 1.62 3.94
-12 22 3 14.14 6.62
-12 22 -4 8 5.6
22 12 -4 9.4 4.03
-12 22 4 8.84 5.64
-22 12 -5 126.93 15.68
22 12 -5 139.34 14.5
-12 22 5 173.63 19.55
-12 22 -5 159.4 19.28
-12 22 -6 29.81 8.77
-22 12 -6 32.48 8.33
22 12 -6 19.92 4.92
-12 22 6 25.55 7.77
-12 22 -7 36.13 8.7
-22 12 -7 33.65 7.97
22 12 -7 37.88 7.7
-12 22 7 45.09 9.4
-12 22 -8 21.32 6.62
-22 12 -8 22.13 6.7
22 12 -8 33.94 7.15
-12 22 8 16.23 5.45
-12 22 -9 15.74 5.41
-22 12 -9 10.79 4.89
22 12 -9 17.59 5.19
22 13 0 118.48 14.44
-13 22 0 115.86 16.47
-13 22 -1 14.03 5.83
22 13 1 22.56 7.32
22 13 -1 13 4.73
-13 22 1 17.65 7.48
-13 22 -2 17.17 7.87
22 13 2 21.55 6.4
22 13 -2 25.4 6.5
-13 22 2 13.23 7.33
-13 22 -3 25.23 8.96
22 13 -3 35.84 8.09
-13 22 3 28.91 8.64
-13 22 -4 47.26 10.37
22 13 -4 49.35 8.37
-13 22 4 39.4 8.95
-13 22 -5 47.47 10.51
-22 13 -5 46.42 8.91
22 13 -5 46.58 7.58
-13 22 5 53.22 10.27
22 13 -6 77.3 9.65
-13 22 6 48.15 9.45
-13 22 -6 83.45 13.25
-22 13 -6 70.28 10.94
-13 22 -7 39.27 8.14
-22 13 -7 30.33 7.02
22 13 -7 47.56 8.05
-13 22 7 37.03 8.16
-13 22 -8 7.05 5.07
22 13 -8 1.26 3.15
22 14 0 8.42 5.04
-14 22 0 21.88 7.93
22 14 1 67.11 11.06
22 14 -1 72.95 10.29
-14 22 1 67.74 12.96
-14 22 -1 71.09 13.59
-14 22 -2 20.91 7.93
22 14 -2 20.31 5.74
-14 22 2 31.64 8.37
-14 22 -3 -6.52 6.68
22 14 -3 2.42 3.36
-14 22 3 -1.91 5.05
-14 22 -4 33.39 9.22
22 14 -4 23.03 5.12
-14 22 4 24.6 6.75
-14 22 -5 67.69 12.2
22 14 -5 79.8 10.02
-14 22 5 54.43 9.71
-22 14 -5 85.84 12.62
-14 22 -6 47.88 9.51
-22 14 -6 43.25 8.53
22 14 -6 45.09 7.2
-14 22 6 25.55 6.86
-14 22 -7 -0.13 3.46
22 14 -7 13.26 4.61
-14 22 -8 27.4 6.98
22 15 0 36.36 7.05
-15 22 0 31.58 7.81
22 15 -1 13.62 5.32
-15 22 1 16.38 7.24
-15 22 -1 9.03 5.12
22 15 -2 2.43 4.07
-15 22 2 2.71 4.68
-15 22 -2 11.71 6.68
-15 22 -3 4.18 4.64
22 15 -3 13.62 4.4
-15 22 3 11.35 4.96
-15 22 -4 19.12 6.06
22 15 -4 38.19 6.82
-15 22 4 34.83 8.06
-15 22 -5 7.37 4.1
22 15 -5 7.13 3.67
-15 22 -6 9.63 4.09
-16 22 0 3.48 3.5
-16 22 1 12.77 6.39
-16 22 -1 0.32 3.91
-16 22 2 3.91 4.03
-16 22 -2 4.54 5
-16 22 -3 9.18 4.17
-16 22 -4 -1.26 4.05
-16 22 -5 12.73 5.11
23 0 0 2.56 5.76
0 23 0 -1.43 6.19
23 0 1 77.54 14.56
23 0 -1 82.55 14.24
0 23 1 73.14 13.76
0 23 -1 66.75 13.56
23 0 2 78.39 15
23 0 -2 83.73 14.36
0 23 2 81.34 15.82
0 23 -2 63.3 12.65
23 0 3 10.44 7.04
23 0 -3 8.78 7
0 23 3 -2.74 7.69
0 23 -3 5.74 4.37
23 0 -4 190.5 19.92
0 23 4 235.48 25.32
23 0 -5 66.99 11.48
0 23 5 77.49 15.8
23 0 -6 200.51 18.7
0 23 6 268.22 26.73
23 0 -7 22.74 7.21
0 23 7 33.92 10.65
23 0 -8 29.63 7.53
0 23 8 43.52 10.68
23 0 -9 14.67 5.41
0 23 9 17.42 8.42
23 0 -10 -2.91 3.54
0 -23 -10 4.76 4.3
0 -23 -11 31.63 8.31
23 -1 0 107.13 15.73
23 1 0 92.93 14.71
1 23 0 79.87 13.73
-1 23 0 85.95 15.02
23 -1 1 27.88 9.91
23 1 1 26.48 10.34
23 -1 -1 16.36 7.71
23 1 -1 12.87 8.47
1 23 1 24.1 9.54
1 23 -1 11.07 6.4
-1 23 1 29.7 9.56
-1 23 -1 32.04 11.03
23 -1 2 -8.23 7.96
23 1 2 2 6.79
23 -1 -2 -0.37 5.88
23 1 -2 2.53 6.28
1 23 2 2.4 4.53
-1 23 2 -0.82 5.74
1 23 -2 9.76 6.1
-1 23 -2 12.53 7.21
23 -1 3 122.83 17.77
23 -1 -3 117.32 16.29
23 1 -3 126.04 17.23
23 1 3 114.2 17.99
1 23 3 143.93 19.25
-1 23 3 132.96 19.56
-1 23 -3 131.69 17.88
23 1 4 48.14 11.57
23 -1 -4 32.39 9.28
23 1 -4 59.66 12.37
1 23 4 41.4 12.06
-1 23 4 50.43 12.56
-1 23 -4 42.56 10.36
23 -1 -5 173.9 17.52
23 1 -5 185.46 19.49
1 23 5 228.25 24.42
-1 23 5 227.53 25.23
23 1 -6 113.6 14.62
23 -1 -6 64.07 11.42
1 23 6 121.82 19.61
-1 23 6 92.38 16.05
23 -1 -7 70.27 10.65
23 1 -7 46.52 10.37
-1 23 7 99.56 17.08
1 23 7 94.72 16.04
23 -1 -8 7.12 4.98
23 1 -8 9.45 4.95
1 23 8 20.62 7.54
-1 23 8 12.95 6.46
23 1 -9 2.23 3.89
1 23 9 8.43 6.22
-1 23 9 15.63 8.06
23 1 -10 16.07 4.84
-1 23 10 12.8 5.63
1 -23 -10 17.27 7.86
23 1 -11 6.72 2.9
1 -23 -11 14.95 6.41
-1 -23 -11 7.97 5.61
-1 -23 -12 26.92 7.78
23 -2 0 45.26 11.62
23 2 0 54.59 13.7
2 23 0 61.6 12.56
-2 23 0 81.92 16.16
23 -2 1 -4.59 5.94
23 -2 -1 -3.79 5.9
23 2 1 -15.64 8.75
23 2 -1 -5.38 7.47
2 23 1 -2.24 6.21
2 23 -1 -3.14 4.85
-2 23 1 -3.78 5.58
-2 23 -1 0.66 6.17
23 -2 2 25.14 8.77
23 2 2 36.27 12.25
23 -2 -2 34.87 9.91
23 2 -2 28.34 9.37
2 23 2 41.39 11.04
-2 23 2 60.68 13.72
-2 23 -2 50.23 12.81
23 2 3 44.44 11.94
23 -2 -3 18.46 7.1
23 2 -3 47.04 11.31
2 23 3 50.64 12.36
-2 23 3 30.45 10.89
-2 23 -3 21.07 7.81
23 2 4 103.62 16.43
23 -2 -4 73.97 12.11
23 2 -4 92.58 14.33
2 23 4 98.33 15.9
-2 23 4 94.5 16.53
-2 23 -4 83.88 13.93
23 2 -5 136.24 17.06
23 -2 -5 64.25 11.1
2 23 5 155.52 21.36
-2 23 5 101.31 17.34
-2 23 -5 71.55 11.83
23 -2 -6 20.05 6.47
23 2 -6 20.06 6.65
2 23 6 38.67 10.04
-2 23 6 47.82 13.18
23 2 -7 126.91 15.64
2 23 7 141.29 19.95
-2 23 7 97.02 17.48
23 2 -8 10.92 7.15
2 23 8 13.53 7.53
-2 23 8 17.67 9.38
23 2 -9 -2.59 4.17
-2 23 9 7.06 6.54
2 -23 -9 4.3 5.34
23 2 -10 12.79 4.97
-2 23 10 40.69 10.84
23 2 -11 -7.88 4.6
-2 -23 -11 2.99 5.63
-2 -23 -12 35.63 9.42
23 -3 0 32.82 9
23 3 0 36.54 10.19
3 23 0 35.03 9.16
-3 23 0 30.71 8.51
23 -3 1 32.03 9.86
23 -3 -1 24.71 8.39
23 3 1 58.21 13.39
23 3 -1 43.53 11.72
3 23 1 45.13 11.51
-3 23 1 76.84 16.78
-3 23 -1 47.64 12.37
23 3 2 51.75 13.04
23 -3 -2 29.46 9.69
23 3 -2 35.49 9.97
3 23 2 47.41 11.41
-3 23 2 41.98 11.21
-3 23 -2 40.71 10.45
23 3 3 2.76 8
23 -3 -3 13.9 6.81
23 3 -3 16.89 8.25
3 23 3 17.37 7.65
-3 23 3 12.47 9.05
-3 23 -3 14.43 4.96
23 3 4 98.61 16.54
23 3 -4 108.04 16.63
3 23 4 104.78 16.82
-3 23 4 80.65 16.32
-3 23 -4 64.82 13.19
23 3 -5 4.61 4.8
3 23 5 15.01 7.68
-3 23 5 6.46 6.8
-3 23 -5 8.49 5.31
23 3 -6 141.82 16.81
3 23 6 155.48 20.42
-3 23 6 131.41 19.78
-3 23 -6 85.81 13.73
23 3 -7 3.45 4.22
3 23 7 4.41 4.98
-3 23 7 5.46 7.07
23 3 -8 78.09 11.88
3 23 8 107.94 16.94
-3 23 8 93.7 15.61
23 3 -9 9.96 5.23
-3 23 9 34.25 9.91
23 3 -10 18.55 5.84
-3 23 10 35.13 8.99
23 3 -11 7.56 3.91
-3 -23 -11 27.32 9.2
-3 -23 -12 8.74 5.43
23 4 0 55.38 12.81
-4 23 0 51.48 13.38
23 4 1 123.75 17.28
23 4 -1 127.83 17.39
4 23 1 110.01 15.11
-4 23 1 125 18.68
-4 23 -1 115.7 17.57
23 4 2 7.09 7.69
23 4 -2 6.69 6.74
4 23 2 5.53 4.44
-4 23 2 22.01 9.13
-4 23 -2 6.2 5.85
23 4 3 86.86 15.96
23 4 -3 84.08 14.75
4 23 3 86 14.8
-4 23 3 67.39 14.59
-4 23 -3 71.55 14.02
23 4 4 17.65 8.74
23 4 -4 17.45 7.98
4 23 4 20.91 8.55
-4 23 4 7.08 5.41
-4 23 -4 25.35 8.47
23 4 -5 83.07 12.99
4 23 5 81.28 14.9
-4 23 5 56.97 14.02
-4 23 -5 48.3 9.9
23 4 -6 22.44 8.11
4 23 6 27.03 9.38
-4 23 6 29.12 10.27
-4 23 -6 15.42 5.79
23 4 -7 92.78 13.47
4 23 7 107.75 16.32
-4 23 7 113.77 18.38
-4 23 -7 67.13 11.42
23 4 -8 -6.96 5.73
-4 23 8 -3.42 4.69
23 4 -9 99.31 12.49
-4 23 9 129.72 17.36
23 4 -10 5.7 4
-4 23 10 24.95 8.85
23 4 -11 64.24 8.9
-4 -23 -11 89.32 14.86
-4 -23 -12 15.23 6.24
23 5 0 170.6 19.85
-5 23 0 179.16 22.86
23 5 1 53.4 11.85
23 5 -1 53.77 12.69
-5 23 1 42.25 10.27
-5 23 -1 41.82 13.32
23 5 2 144.3 18.47
23 5 -2 136.74 18.03
-5 23 2 128.26 19.12
-5 23 -2 130.28 19.36
23 5 3 10.85 7.65
23 5 -3 15.81 6.95
5 23 3 13.91 6.91
-5 23 3 4.48 5.77
-5 23 -3 3.92 4.79
23 5 4 30.3 11.18
23 5 -4 17.43 7.4
5 23 4 16.76 7.66
-5 23 4 21.28 9.98
-5 23 -4 6.99 5.3
-5 23 -5 38.85 10.62
23 5 -5 46.82 10.92
5 23 5 41.65 10.27
-5 23 5 59.18 14.45
-5 23 -6 26.61 7.75
23 5 -6 20.82 6.38
5 23 6 30.47 8.54
-5 23 6 28.32 9.37
-5 23 -7 2.16 4.83
23 5 -7 8.78 5.8
-5 23 7 7.71 5.26
23 5 -8 102 13.88
-5 23 8 132.29 18.4
23 5 -9 1.31 3.69
-5 23 9 17.38 7.51
23 5 -10 133.38 14.36
-5 23 10 178.72 19.35
23 5 -11 10.53 3.86
-5 -23 -11 16.76 7.13
-5 -23 -12 70.11 11.59
23 6 0 112.15 16.37
-6 23 0 106.67 18.52
23 6 1 173.16 19.84
23 6 -1 155.55 18.6
-6 23 1 186.61 23.17
-6 23 -1 164.66 21.77
23 6 2 25.95 8.58
23 6 -2 22.54 6.91
-6 23 2 18.09 8.03
-6 23 -2 16.15 7.26
23 6 3 22.2 7.85
23 6 -3 25.1 8.83
-6 23 3 38.84 12.66
-6 23 -3 26.16 10.38
-6 23 -4 28.51 8.98
23 6 4 30.9 9.88
23 6 -4 19.21 8.02
6 23 4 35.28 9.33
-6 23 4 39.65 11.96
-6 23 -5 4.31 5.08
23 6 -5 -3.57 5.69
-6 23 5 2.15 5.31
-6 23 -6 6.35 4.94
23 6 -6 11.82 5.73
-6 23 6 13.84 7.79
-6 23 -7 17.27 6.31
23 6 -7 19.54 7.38
-6 23 7 39.64 11.24
-6 23 -8 2.09 4.58
23 6 -8 9.09 5.46
-6 23 8 -0.7 4.51
23 6 -9 88.35 11.12
-6 23 9 141.83 17.7
23 6 -10 27.67 6.53
-6 23 10 33.8 8.47
23 6 -11 102.63 10.98
-6 -23 -11 134.75 17.04
23 7 0 95.5 14.71
-7 23 0 115.31 18.13
23 7 1 124.42 17.61
23 7 -1 120.36 16.46
-7 23 1 116.57 18.32
-7 23 -1 79.8 17.12
23 7 2 48.08 11.68
23 7 -2 33.69 9.56
-7 23 2 47.31 12.8
-7 23 -2 47.42 12.56
-7 23 -3 8.07 7.12
23 7 3 9.88 6.05
23 7 -3 22.33 8.41
-7 23 3 14.76 7.92
-7 23 -4 3.97 4.66
23 7 4 24.08 8.82
23 7 -4 9.29 5.62
-7 23 4 17.52 9.09
-7 23 -5 -1.66 6.34
23 7 -5 9.08 5.08
-7 23 5 3.04 5.5
-7 23 -6 1.91 4.89
23 7 -6 7.34 5.7
-7 23 6 5.51 5.85
-7 23 -7 8.45 4.1
23 7 -7 13.33 6.32
-7 23 7 9.11 6.22
-7 23 -8 20.26 5.8
23 7 -8 22.14 5.88
-7 23 -9 51.21 8.65
23 7 -9 66.69 10.01
-7 23 9 70.54 12.12
23 7 -10 78.63 9.67
-7 23 10 105.09 13.5
23 7 -11 49.56 7.38
-7 -23 -11 92.79 14.14
23 8 0 179.16 19.58
-8 23 0 163.62 20.7
23 8 1 48.93 10.25
23 8 -1 37.44 9.41
-8 23 1 36 10.36
-8 23 -1 43.08 12.16
23 8 2 87.32 13.79
23 8 -2 84.75 13.56
-8 23 2 73.14 14.57
-8 23 -2 78.79 14.46
-8 23 -3 -1.42 6.13
23 8 3 -0.45 6.42
23 8 -3 -2.32 5.6
-8 23 3 4.16 5.17
-8 23 -4 21.38 7.15
23 8 4 18.92 7.64
23 8 -4 18.04 5.86
-8 23 4 18.31 7.68
-8 23 -5 17.67 7.36
23 8 -5 30.59 8.45
-8 23 5 24.55 9.34
-8 23 -6 10.44 5.41
23 8 -6 16.19 6.5
-8 23 6 11.01 5.93
-8 23 -7 1.44 3.68
23 8 -7 4.69 4.81
-8 23 7 -2.77 6.04
-8 23 -8 33.5 7.93
23 8 -8 48.67 8.93
-8 23 8 52.48 11.27
-8 23 -9 15.67 4.43
23 8 -9 36.3 7.35
-8 23 9 39.99 9.22
23 8 -10 97.9 10.86
-8 23 10 83.33 11.48
23 8 -11 29.01 5.54
-8 -23 -11 41.89 10.09
23 9 0 31.64 8.39
-9 23 0 43.23 12.07
23 9 1 106.43 14.52
23 9 -1 104.95 15.08
-9 23 1 99.34 17.01
-9 23 -1 95.05 14.62
-9 23 -2 5.29 5.41
23 9 2 5.53 5.6
23 9 -2 1.94 5.2
-9 23 2 -0.38 6.49
-9 23 -3 78.47 14.52
23 9 -3 82.2 13.75
23 9 3 76.63 12.91
-9 23 3 76.52 14.01
-9 23 -4 11.53 5.7
23 9 -4 18.04 7.36
-9 23 4 12.83 7.56
-9 23 -5 52.98 11.46
23 9 -5 43.25 9.05
-9 23 5 53.56 11.18
-9 23 -6 6.4 4.13
23 9 -6 17.12 6.18
-9 23 6 5.43 4.55
-9 23 -7 22.57 7.67
23 9 -7 27.54 7.24
-9 23 7 29.43 8.69
-9 23 -8 7.58 4.82
23 9 -8 9.06 4.06
-9 23 8 11.38 6.82
-9 23 -9 48.97 8.64
23 9 -9 61.77 9.4
-9 23 9 66.09 10.96
23 9 -10 39 6.92
23 10 0 36.8 9.28
-10 23 0 25.76 8.99
23 10 1 46.64 10.76
23 10 -1 32.47 9.11
-10 23 1 33.74 9.76
-10 23 -1 38.43 9.99
-10 23 -2 47.25 11.26
23 10 2 53.21 10.01
23 10 -2 52.71 10.35
-10 23 2 54.1 11.88
-10 23 -3 -4.63 5.76
23 10 3 -10.75 7.76
23 10 -3 -4.18 5.03
-10 23 3 -9.93 7.56
23 10 -4 99.11 13.43
-10 23 4 121.45 16.98
-10 23 -4 110.61 16.22
-10 23 -5 10.97 6.41
23 10 -5 8.16 4.94
-10 23 5 1.17 4.53
-10 23 -6 71.48 12.53
23 10 -6 56.05 9.54
-10 23 6 58.27 11.16
-10 23 -7 5.44 4.25
23 10 -7 11.82 4.36
-10 23 7 7.32 5.73
-10 23 -8 18.36 5.92
23 10 -8 19.54 5.56
-10 23 8 21.89 7.73
23 10 -9 34.27 7.04
-10 23 9 6.75 3.4
23 10 -10 34.1 6.47
23 11 0 24.63 8.36
-11 23 0 23.82 8.08
23 11 1 -0.32 5.67
23 11 -1 -3.9 5.67
-11 23 1 -3.05 6.12
-11 23 -1 -8.21 6.78
-11 23 -2 20.6 7.96
23 11 2 13.42 6.32
23 11 -2 13.89 6.94
-11 23 2 5.32 5.85
-11 23 -3 46.37 10.16
23 11 3 43.02 9.72
23 11 -3 39.54 8.46
-11 23 3 53.65 10.56
-11 23 -4 12.45 6.5
23 11 -4 6.65 4.36
-11 23 4 16.7 6.53
23 11 -5 88.98 11.44
-11 23 5 111.3 15.53
-11 23 -5 110.73 14.78
-11 23 -6 30.08 7.76
23 11 -6 21.97 5.36
-11 23 6 31.45 8.45
-11 23 -7 33.98 8.07
23 11 -7 21.49 5.95
-11 23 7 34.6 8.75
-11 23 -8 13.51 4.98
23 11 -8 16.47 4.61
-11 23 8 14.58 5.62
23 11 -9 3.82 3.46
23 12 0 7.06 3.95
-12 23 0 13.22 5.48
23 12 1 13.88 6.01
23 12 -1 10.73 6.07
-12 23 1 3.4 5.31
-12 23 -1 16.16 7.11
23 12 2 -0.71 4.3
23 12 -2 -1.18 5.22
-12 23 2 -3.14 5.83
-12 23 -2 -10.77 6.67
-12 23 -3 14.49 6.07
23 12 -3 30.77 7.56
-12 23 3 24.19 7.36
-12 23 -4 63.36 10.72
23 12 -4 47.64 8.53
-12 23 4 47 10.03
23 12 -5 68.82 9.82
-12 23 5 70.08 11.63
-12 23 -5 77.78 12.36
-12 23 -6 66.39 10.88
23 12 -6 52.32 8.28
-12 23 6 58.61 10.78
-12 23 -7 46.98 8.78
23 12 -7 44.26 7.9
-12 23 7 33.12 7.96
23 12 -8 5.23 3.76
23 13 0 -0.36 4.07
-13 23 0 7.25 4.28
23 13 1 19.87 6.21
23 13 -1 28.58 6.86
-13 23 1 13.09 4.45
-13 23 -1 22.45 7.55
23 13 -2 16.04 5.85
-13 23 2 24.2 6.81
-13 23 -2 17.85 6.8
-13 23 -3 6.76 4.31
23 13 -3 7.03 3.81
-13 23 3 7.28 5.21
23 13 -4 60.92 8.77
-13 23 4 65.55 10.8
-13 23 -4 81.41 12.86
-13 23 -5 46.93 9.26
23 13 -5 42.28 7.62
-13 23 5 41.49 9.19
23 13 -6 93.31 10.16
-13 23 6 88.93 12.11
-13 23 -6 106.47 13.28
-13 23 -7 8.29 3.84
23 14 0 22.19 5.94
-14 23 0 16.61 5.47
23 14 -1 5.76 4.18
-14 23 1 7.72 5.68
-14 23 -1 14.15 6.84
23 14 -2 4 3.15
-14 23 2 1.94 3.31
-14 23 -2 7.88 5.18
23 14 -3 29.93 5.59
-14 23 3 28.17 7.69
-14 23 -3 29.4 8.27
-14 23 -4 23.53 7.16
23 14 -4 15.93 5.07
-14 23 4 14.67 6.19
-14 23 -5 86.28 11.84
-14 23 -6 10.73 4.99
-15 23 0 -1.4 4.48
-15 23 1 0.22 3.37
-15 23 -1 5.03 5.21
-15 23 2 6.78 4.09
-15 23 -2 12.64 5.09
-15 23 -3 9.66 5.02
-15 23 -4 24.56 6.21
24 0 0 180.69 19.26
0 24 0 151.96 18.26
24 0 1 30.51 9.17
24 0 -1 32.6 9.53
0 24 1 29.32 9.39
0 24 -1 28.31 9.35
24 0 2 6.64 6.09
24 0 -2 3.85 4.98
0 24 2 8.74 5.63
0 24 -2 4.93 4.67
24 0 -3 72.12 12.3
0 24 3 81.51 14.67
24 0 -4 53.69 10.81
0 24 4 62.34 12.76
24 0 -5 102.48 13.62
0 24 5 137.5 17.16
24 0 -6 82 11.56
0 24 6 117.68 17.98
24 0 -7 61.99 9.31
0 24 7 93.07 14.52
24 0 -8 -5.81 4.9
0 24 8 7.64 4.81
24 0 -9 17.74 4.99
0 24 9 22.93 7.22
0 -24 -10 49.08 10.68
24 -1 0 28.76 8.97
24 1 0 18.22 8.66
1 24 0 21.21 7.77
-1 24 0 43.97 11.05
24 -1 1 64.17 14.28
24 1 1 59.22 12.58
24 -1 -1 46.84 11
24 1 -1 60.88 12.2
1 24 1 54.8 11.77
1 24 -1 51.63 10.39
-1 24 1 51.78 11.23
-1 24 -1 49.94 11.16
24 -1 2 57.94 11.46
24 1 2 53.11 12.47
24 -1 -2 49.84 10.69
24 1 -2 49.05 11.48
1 24 2 59.24 12.33
-1 24 2 70.17 13.8
-1 24 -2 54.29 11.01
24 1 3 11.1 6.37
24 -1 -3 2.31 4.68
24 1 -3 7.37 4.96
1 24 3 20.23 7.87
-1 24 3 12.06 6.3
-1 24 -3 11.25 6.54
24 -1 -4 67.73 11.22
24 1 -4 62.99 11.64
1 24 4 78.48 14.41
-1 24 4 83.5 14.27
24 1 -5 145.03 16.36
1 24 5 176.9 20.93
-1 24 5 135.49 18.6
24 -1 -6 60.47 9.77
24 1 -6 48.88 9.2
1 24 6 75.99 13.16
-1 24 6 85.08 14.8
24 1 -7 81.24 11.52
24 -1 -7 52.88 9.66
1 24 7 94.58 15.13
-1 24 7 103.8 16.11
24 1 -8 17.33 6.04
1 24 8 38.89 10.03
-1 24 8 36.37 9.92
24 1 -9 19.33 6.2
-1 24 9 12.76 6.41
1 -24 -9 22.49 8.81
-1 -24 -10 28.65 8.26
24 -2 0 33.62 10.11
24 2 0 50.61 11.69
2 24 0 35.8 8.97
-2 24 0 29.91 9.01
24 -2 1 45.99 11.37
24 -2 -1 28.84 9.29
24 2 1 34.87 10.82
24 2 -1 39.11 11.47
2 24 1 47.85 10.16
-2 24 1 70.23 13.94
-2 24 -1 44.35 11.11
24 2 2 4.4 6.52
24 -2 -2 5.06 5.27
24 2 -2 0.76 5.41
2 24 2 -2.97 4.49
-2 24 2 1.95 5.95
-2 24 -2 1.19 4.38
24 2 3 34.23 10.83
24 -2 -3 42.87 10.19
24 2 -3 43.25 10.73
2 24 3 37.9 9.81
-2 24 3 47.64 11.28
-2 24 -3 31.47 8.45
24 2 -4 110.04 15.14
24 -2 -4 72.32 11.33
2 24 4 124.83 17.65
-2 24 4 83.42 16.04
-2 24 -4 60.45 11.6
24 2 -5 7.39 6.3
2 24 5 8.31 6.13
-2 24 5 14.49 8.53
24 2 -6 237.72 19.85
2 24 6 279.88 25.79
-2 24 6 206.66 23.45
24 2 -7 5.69 3.89
2 24 7 17.05 7.01
-2 24 7 7.69 6.03
24 2 -8 32.7 7.85
2 24 8 43.17 10.53
-2 24 8 27.89 7.81
24 2 -9 13.59 4.86
-2 24 9 36.42 9.87
24 2 -10 0.6 2.6
-2 -24 -10 11.17 5.01
24 -3 0 49.71 10.57
24 3 0 64.36 13.69
-3 24 0 89.76 15.96
24 -3 -1 4.88 6.97
24 3 1 1.37 6.42
24 3 -1 15.33 6.88
3 24 1 -4.67 6.43
-3 24 1 -3.09 8.4
-3 24 -1 3.04 4.52
24 3 2 26.54 10.21
24 3 -2 17.19 8.18
3 24 2 27.24 9.85
-3 24 2 39.12 10.71
-3 24 -2 36.24 10.2
24 3 3 59.92 12.64
24 3 -3 64.15 11.93
3 24 3 57.63 11.7
-3 24 3 55.86 13.45
-3 24 -3 35.67 9.96
24 3 -4 -7.78 7.4
3 24 4 0.68 4.07
-3 24 4 -4.64 7.27
-3 24 -4 1.56 4.74
24 3 -5 228.83 20.68
3 24 5 226.24 22.8
-3 24 5 174.33 21.44
24 3 -6 10.72 4.47
3 24 6 2.37 4.96
-3 24 6 8.6 6.95
24 3 -7 137.71 14.88
3 24 7 166.14 19.12
-3 24 7 146.37 18.81
24 3 -8 -5.02 3.65
-3 24 8 7.92 6.91
24 3 -9 14.99 5.59
-3 24 9 20.03 7.8
24 3 -10 20.16 5.52
-3 -24 -10 39.3 11.23
24 4 0 22.27 9.35
-4 24 0 13.11 5.96
24 4 1 61.87 13.45
24 4 -1 59.06 11.84
-4 24 -1 87.84 15.8
-4 24 1 65.09 12.88
24 4 2 40.82 10.44
24 4 -2 42.08 10.47
4 24 2 39.18 9.2
-4 24 2 37.11 11.15
-4 24 -2 40.7 9.95
24 4 3 10.28 8.35
24 4 -3 -4.68 5.79
4 24 3 -0.45 3.88
-4 24 3 -3.31 6.01
-4 24 -3 -1.37 5.59
24 4 -4 126.76 16.1
4 24 4 114.83 15.85
-4 24 -4 88.12 13.51
-4 24 4 90.65 15.59
24 4 -5 31.1 8.91
4 24 5 27.19 8.02
-4 24 5 48.15 11.99
-4 24 -5 33.81 8.36
24 4 -6 127.04 15.35
4 24 6 125.13 16.49
-4 24 6 129.09 18.45
-4 24 -6 95.05 13.25
24 4 -7 1.91 4.14
-4 24 7 10.92 6.8
24 4 -8 80.62 11.18
-4 24 8 101.69 15.1
24 4 -9 3.38 3.36
-4 24 9 17.7 6.43
24 4 -10 21.01 4.69
-4 24 10 38.34 8.89
24 5 0 81.77 14.14
-5 24 0 124.32 18.51
24 5 1 76.14 12.72
24 5 -1 69.71 12.76
-5 24 1 68.02 12.9
-5 24 -1 74.38 13.1
24 5 2 7.72 6.84
24 5 -2 4.76 5.6
-5 24 2 16.34 8.18
-5 24 -2 16.73 9.15
24 5 3 61.91 12.85
24 5 -3 68.61 11.91
5 24 3 49.71 9.96
-5 24 3 65.8 13.68
-5 24 -3 57.39 12.2
24 5 -4 48.13 9.97
5 24 4 43.68 9.58
-5 24 4 50.71 12.14
-5 24 -4 54.06 12.32
24 5 -5 47.97 9.63
-5 24 5 48.26 11.41
-5 24 -5 35.76 9.62
24 5 -6 44.8 8.08
-5 24 6 57.56 13.15
-5 24 -6 32.83 7.84
24 5 -7 52.85 9.42
-5 24 7 75.58 13.85
-5 24 -7 62.26 10.51
24 5 -8 2.09 3.71
-5 24 8 2.88 4.27
24 5 -9 50.13 8.33
-5 24 9 83.06 12.85
24 5 -10 20.81 5.34
-5 24 10 33.8 7.79
24 6 0 69.02 12.47
-6 24 0 99.58 16.56
24 6 1 103.45 16
24 6 -1 85.08 14.47
-6 24 1 87.32 15.3
-6 24 -1 89.39 14.87
24 6 2 58.66 12.32
24 6 -2 57.12 11.63
-6 24 2 62.31 13.13
-6 24 -2 73.37 14.33
24 6 3 14.95 7.55
24 6 -3 3.29 5.3
-6 24 3 6.67 5.38
-6 24 -3 -1.93 5.61
24 6 -4 12.71 5.65
-6 24 4 14.64 8.31
-6 24 -4 16.91 7.17
24 6 -5 53.23 10.4
-6 24 5 55.33 11.6
-6 24 -5 42.81 9.61
24 6 -6 15.9 5.88
-6 24 6 25.43 8.64
-6 24 -6 8.88 5.43
24 6 -7 8.88 4.72
-6 24 7 5.18 5.54
-6 24 -7 -2.69 5.23
24 6 -8 25.04 6.42
-6 24 8 44.42 9.81
24 6 -9 19.09 5.59
-6 24 9 19.45 5.16
24 6 -10 39.35 6.26
-6 24 10 55.06 9.7
24 7 0 213.87 20.47
-7 24 0 206.76 22.39
24 7 1 49.41 10.9
24 7 -1 38.1 9.65
-7 24 1 53.06 11.6
-7 24 -1 57.91 12.56
24 7 2 46.98 10.5
24 7 -2 61.39 11.63
-7 24 2 59 13.09
-7 24 -2 52.29 11.12
24 7 3 13.22 7.62
24 7 -3 11.38 6
-7 24 3 24.21 8.98
-7 24 -3 7.3 5.6
24 7 -4 2.48 5.87
-7 24 4 15.5 6.72
-7 24 -4 12.56 6.44
24 7 -5 -1.2 3.79
-7 24 5 3.85 4.94
-7 24 -5 -4.11 4.42
24 7 -6 7.85 4.08
-7 24 6 11.88 5.29
-7 24 -6 9.67 6.69
24 7 -7 -4.67 4.8
-7 24 7 7.04 5.93
-7 24 -7 -4.26 4.47
24 7 -8 13.32 4.71
-7 24 8 7.4 4.45
-7 24 -8 11.84 5.32
24 7 -9 13.08 4.78
-7 24 9 21.11 6.45
24 7 -10 84.39 9.95
-7 -24 -10 109.41 14.82
24 8 0 2.98 6.33
-8 24 0 18.51 6.31
24 8 1 242.43 21.84
24 8 -1 226.3 20.05
-8 24 1 225.12 23.18
-8 24 -1 210.63 23.13
24 8 2 -2.08 5.87
24 8 -2 0.16 4.61
-8 24 2 12.11 6.7
-8 24 -2 1.44 5.26
24 8 3 17.51 6.81
24 8 -3 20.97 7.59
-8 24 3 19.35 8.21
-8 24 -3 21.64 7.07
24 8 -4 6.36 5.45
-8 24 4 14.36 7.75
-8 24 -4 2.84 5.12
24 8 -5 -1.69 4.6
-8 24 5 -4.41 5.96
-8 24 -5 0.33 4.59
24 8 -6 7.02 3.98
-8 24 6 5.63 5.29
-8 24 -6 3.8 3.56
24 8 -7 4.59 4.43
-8 24 7 1.09 4.01
-8 24 -7 1.09 3.43
24 8 -8 6.57 4.4
-8 24 8 3.2 4.99
-8 24 -8 -7.35 4.96
24 8 -9 62.21 8.51
-8 24 9 56.22 9.62
24 9 0 233.37 20.98
-9 24 0 229.14 23.5
24 9 1 -5.99 5.66
24 9 -1 0.44 4.67
-9 24 1 5.92 4.81
-9 24 -1 5.66 5.57
24 9 2 112.25 14.31
24 9 -2 117.08 14.38
-9 24 2 95.07 14.68
-9 24 -2 110.39 16.24
24 9 3 8.06 4.86
24 9 -3 2.24 4.02
-9 24 3 -2.09 4.51
-9 24 -3 10.92 7
24 9 -4 8.68 4.97
-9 24 4 21.25 7.73
-9 24 -4 20.06 7.46
24 9 -5 19.85 6.66
-9 24 5 14.99 7.17
-9 24 -5 9.43 5.77
24 9 -6 -7.57 5.34
-9 24 6 0.95 4.53
-9 24 -6 6.37 5.66
24 9 -7 -3.88 4.15
-9 24 7 6.39 3.76
-9 24 -7 7.56 5
24 9 -8 18.59 5.45
-9 24 8 21.19 5.61
24 9 -9 -1.55 2.99
24 10 0 13.44 6.6
-10 24 0 35.22 9.69
24 10 1 103.38 13.01
24 10 -1 94.17 12.25
-10 24 1 105.84 15.14
-10 24 -1 91.51 15.17
24 10 2 -1.85 5.1
24 10 -2 -0.9 4.52
-10 24 2 0.85 5.09
-10 24 -2 4.75 4.95
24 10 -3 55.41 10.38
-10 24 3 53.36 10.9
-10 24 -3 58.06 11.78
24 10 -4 1.86 4.34
-10 24 4 6.16 4.59
-10 24 -4 4.24 4.62
24 10 -5 19.52 6.09
-10 24 5 32.04 8.85
-10 24 -5 26.43 7.46
24 10 -6 5.61 3.96
-10 24 6 19.38 6.5
-10 24 -6 17.43 6.87
24 10 -7 8.84 4.75
-10 24 7 7.3 5.49
-10 24 -7 10.95 4.27
24 10 -8 0.02 2.87
24 11 0 18.11 5.79
-11 24 0 25.72 8.29
24 11 1 20.72 7.06
24 11 -1 20.06 6.51
-11 24 1 23.49 7.61
-11 24 -1 24.42 8.83
24 11 2 29.69 7.36
24 11 -2 25.22 7.36
-11 24 2 35.83 9.24
-11 24 -2 32.24 9.17
24 11 -3 8.69 4.73
-11 24 3 0.96 4.59
-11 24 -3 7.78 6.12
24 11 -4 28.32 6.54
-11 24 4 36.96 8.31
-11 24 -4 42.3 9.87
24 11 -5 33.27 6.89
-11 24 5 48.43 9.72
-11 24 -5 42.18 8.39
24 11 -6 9.27 3.08
-11 24 6 23.49 6.21
-11 24 -6 25.19 6.63
24 11 -7 13.23 4.35
24 12 0 2.91 3.92
-12 24 0 14.51 6.52
24 12 1 -6.88 4.48
24 12 -1 -4.75 3.75
-12 24 1 -4.94 5.15
-12 24 -1 -2.69 5.42
24 12 -2 18.88 5.78
-12 24 2 13.33 6.28
-12 24 -2 10.38 5.97
24 12 -3 9.68 4.88
-12 24 3 13.39 5.76
-12 24 -3 9.61 4.46
24 12 -4 53.49 8.3
-12 24 4 46.74 8.9
-12 24 -4 50.68 9.34
24 12 -5 7.64 3.26
-12 24 5 16.84 5.86
-12 24 -5 14.27 5.48
24 12 -6 75.45 9.38
-12 24 -6 84.96 11.8
24 13 0 6.7 3.58
-13 24 0 -2.62 3.78
24 13 -1 4.67 3.35
-13 24 -1 0.14 3.32
24 13 -2 -2.09 3.74
-13 24 2 -3.88 4.51
-13 24 -2 2.68 3.31
24 13 -3 27.79 6.27
-13 24 3 22.33 6.1
-13 24 -3 26.24 7.08
-13 24 -4 5.92 3.7
-14 24 0 3.9 3.85
-14 24 1 -0.53 3.75
-14 24 -1 2.47 3.62
-14 24 -2 13.38 5.47
25 0 0 5.01 5.16
0 25 0 7.33 4.61
25 0 1 151.62 17.83
25 0 -1 136.24 16.06
0 25 1 143.08 17.15
0 25 -1 142.1 16.49
25 0 -2 15.45 6.66
0 25 2 24.76 8.56
25 0 -3 -1.69 4.4
0 25 3 -1.01 5.79
25 0 -4 40.38 8.54
0 25 4 48.42 10.44
25 0 -5 75.93 11.44
0 25 5 116.92 16.35
25 0 -6 28.47 6.77
0 25 6 51.69 10.26
25 0 -7 45.11 8.44
0 25 7 49.19 10.89
0 25 8 22.1 7.38
25 -1 0 161.33 17.05
25 1 0 201.47 19.84
1 25 0 182.73 18.9
-1 25 0 163.02 18.05
25 1 1 -3.98 5.72
25 -1 -1 4.03 4.9
25 1 -1 4.64 6.3
1 25 1 20.79 7.58
-1 25 1 20.71 6.54
-1 25 -1 13.31 6.09
25 1 2 35.38 9.49
25 -1 -2 21.61 6.69
25 1 -2 30.09 8.69
1 25 2 22.52 7.59
-1 25 2 24.92 7.45
-1 25 -2 26.49 7.52
25 -1 -3 25.79 7.88
25 1 -3 30.01 9.38
1 25 3 20.26 6.75
-1 25 3 24.36 8.26
25 -1 -4 30.14 7.68
25 1 -4 55.93 10.56
1 25 4 57.66 12.09
-1 25 4 55.92 10.86
25 -1 -5 4.87 3.43
25 1 -5 8.84 3.96
1 25 5 17.82 5.52
25 1 -6 121.67 13.45
1 25 6 185.91 19.68
-1 25 6 164.84 18.52
25 1 -7 9.72 4.66
1 25 7 15.78 5.1
25 1 -8 -0.46 3.28
-1 25 8 10.85 5.13
25 2 0 6.11 6.67
-2 25 0 35.09 8.47
25 -2 -1 44.68 10.21
25 2 1 81.66 12.93
25 2 -1 78.11 13.37
2 25 1 66.18 11.54
-2 25 1 53.07 10.63
-2 25 -1 52.46 10.39
25 2 2 22.61 8.76
25 -2 -2 21.94 7.44
25 2 -2 22.87 8.63
2 25 2 20.81 7.78
-2 25 2 47.73 10.97
-2 25 -2 21.44 7.53
25 2 -3 3.81 4.79
2 25 3 14.17 7.02
-2 25 3 18.91 8.28
-2 25 -3 10.57 4.81
25 2 -4 3.08 5.19
2 25 4 4 3.9
-2 25 4 2.98 4.26
25 2 -5 181.59 16.83
2 25 5 223.6 21.84
-2 25 5 168.01 19.42
2 25 6 1.1 4.49
-2 25 6 3.04 4.76
25 2 -7 85.12 10.6
-2 25 7 93.88 14.5
25 2 -8 -4.13 3.84
-2 25 8 9.42 5.51
25 3 0 43.93 10.2
-3 25 0 24.5 8.3
25 3 1 36.88 10.08
25 3 -1 29.66 9.14
-3 25 1 58.6 11.76
-3 25 -1 60.07 10.97
25 3 2 -1.42 5.96
25 3 -2 -1.21 4.48
3 25 2 0.58 4.83
-3 25 2 -1.15 4.57
-3 25 -2 0.38 4.67
25 3 -3 3.78 4.71
3 25 3 6.03 3.75
-3 25 3 5.81 5.88
-3 25 -3 2.5 4.13
25 3 -4 111 13.91
3 25 4 99.73 14.09
-3 25 4 98.37 15.25
-3 25 -4 74.85 11.68
25 3 -5 23.59 6.55
3 25 5 34.46 8.51
-3 25 5 37.98 10.45
25 3 -6 147.32 14.88
-3 25 6 157.55 18.47
25 3 -7 -8.01 5.21
-3 25 7 3.64 4.73
25 3 -8 13.11 3.85
-3 25 8 29.71 7.98
-3 25 9 20.26 6.3
25 4 0 55.86 11.15
-4 25 0 110.73 15.93
25 4 1 2.04 6.11
25 4 -1 -1.82 6.3
-4 25 1 -0.82 5.21
-4 25 -1 -0.92 4.42
25 4 2 6.07 7.16
25 4 -2 12.82 5.72
-4 25 2 11.5 6.61
-4 25 -2 19.63 7.59
25 4 -3 40.01 9.03
4 25 3 36.74 8.55
-4 25 3 35.63 9.32
-4 25 -3 35.74 9.69
25 4 -4 61.23 10.34
4 25 4 52.76 10.41
-4 25 4 68.9 13.42
-4 25 -4 54.64 9.61
25 4 -5 99.17 12.84
-4 25 5 96.05 14.82
-4 25 -5 65.87 10.14
25 4 -6 65.86 9.93
-4 25 6 85.37 13.58
25 4 -7 49.44 9.03
-4 25 7 74.55 13.25
25 4 -8 5.61 3.9
-4 25 8 7.79 6.27
-4 25 9 12.14 4.75
25 5 0 15.94 5.81
-5 25 0 31.86 8.78
25 5 1 36.66 9.27
25 5 -1 39.39 10.05
-5 25 1 55.79 11.36
-5 25 -1 42.16 10.36
25 5 2 28.65 8.91
25 5 -2 31.42 8.36
-5 25 2 27.22 7.66
-5 25 -2 28.27 7.53
25 5 -3 22.48 7.21
-5 25 3 21.71 7.7
-5 25 -3 16.45 6.96
25 5 -4 24.48 7.7
-5 25 4 31.96 9.63
-5 25 -4 30.2 8.56
25 5 -5 122.19 14.11
-5 25 5 143.2 18.59
-5 25 -5 110.15 14.11
25 5 -6 23.34 6.66
-5 25 6 37.24 9.95
-5 25 -6 18.86 6.55
25 5 -7 29.94 6.7
-5 25 7 38.54 9.6
25 5 -8 17.12 5.4
-5 25 8 33.18 8.37
-5 25 9 -3.48 4.64
25 6 0 104.59 14.14
-6 25 0 118.92 16.03
25 6 1 28.15 7.82
25 6 -1 37.17 8.73
-6 25 1 40.87 9.46
-6 25 -1 32.23 8.24
25 6 2 9.77 5.53
25 6 -2 5.16 4.26
-6 25 2 7.43 6.3
-6 25 -2 5.29 3.87
25 6 -3 22.23 7.6
-6 25 3 13.45 7.71
-6 25 -3 12.95 4.89
25 6 -4 57.08 10.39
-6 25 4 62.49 12.25
-6 25 -4 50.49 10.56
25 6 -5 1.43 4.2
-6 25 5 4.19 4.87
-6 25 -5 -4.39 5.7
25 6 -6 72.19 10.12
-6 25 6 90.25 14.08
-6 25 -6 50.46 9.05
25 6 -7 2.23 3.8
-6 25 7 8.92 5.42
25 6 -8 -3.44 3.45
-6 25 8 0.07 3.81
25 7 0 11.31 5.43
-7 25 0 22.84 7.77
25 7 1 144.7 15.63
25 7 -1 150.5 16.68
-7 25 1 112.11 15.03
-7 25 -1 117.83 15.96
25 7 2 10.73 5.29
25 7 -2 12.25 5.82
-7 25 2 11.78 5.98
-7 25 -2 12.59 5.64
25 7 -3 -4.03 6.13
-7 25 3 -2.61 4.45
-7 25 -3 2.66 3.93
25 7 -4 9.51 4.95
-7 25 4 4.63 4.27
-7 25 -4 14.83 5.77
25 7 -5 46.45 8.8
-7 25 5 37.71 8.54
-7 25 -5 39.04 8.33
25 7 -6 -0.53 3.45
-7 25 6 1.68 5.12
-7 25 -6 -1.88 4.35
25 7 -7 13.9 4.44
-7 25 7 16.28 6.11
25 7 -8 -4.06 3.53
-7 25 8 8.97 5.26
25 8 0 265.79 20.16
-8 25 0 237.7 22.09
25 8 1 0.69 4.46
25 8 -1 -2.92 5.54
-8 25 1 0.69 3.85
-8 25 -1 -4.5 5
25 8 2 81.62 11.7
25 8 -2 61.15 10.57
-8 25 2 70.35 12.2
-8 25 -2 65.37 12.07
25 8 -3 4.48 4.98
-8 25 3 3.23 4.76
-8 25 -3 6.15 4.69
25 8 -4 1.62 3.65
-8 25 4 -0.88 5.71
-8 25 -4 -1.25 4.58
25 8 -5 4.16 4.07
-8 25 5 -3.14 5
-8 25 -5 1.73 4.07
-8 25 6 14.08 3.92
-8 25 -6 1.64 4.1
25 8 -7 0.78 2.95
-8 25 7 16.81 6.43
25 9 0 -6.56 6.01
-9 25 0 0.51 4.77
25 9 1 176.11 17.14
25 9 -1 152.38 15.34
-9 25 1 185.21 19.45
-9 25 -1 172.31 18.47
25 9 2 8.23 5.96
25 9 -2 6.35 3.7
-9 25 2 4.28 4.2
-9 25 -2 5.45 4.29
25 9 -3 10.69 5.4
-9 25 3 18.87 6.38
-9 25 -3 24.55 7.57
25 9 -4 3.87 5
-9 25 4 1.94 4.17
-9 25 -4 5.7 4.95
25 9 -5 6.18 4.13
-9 25 5 2.83 3.54
-9 25 -5 4.25 4.51
25 9 -6 -1.4 3.4
-9 25 6 4.09 3.95
25 9 -7 3.07 2.93
25 10 0 127.32 13.39
-10 25 0 130.46 15.4
25 10 1 21.55 6.41
25 10 -1 14.68 5.98
-10 25 1 24.26 7.45
-10 25 -1 23.08 6.93
25 10 -2 43.34 8.58
-10 25 2 57.36 11.22
-10 25 -2 56.67 10.62
25 10 -3 -0.26 3.97
-10 25 3 -10.17 6.18
-10 25 -3 -4.35 4.22
25 10 -4 4.13 3.61
-10 25 4 10.52 5.46
-10 25 -4 5.54 4.84
25 10 -5 5.97 3.96
-10 25 5 10.86 5.32
-10 25 -5 11.78 4.21
25 10 -6 4.15 3.16
25 11 0 27.92 6.92
-11 25 0 46.11 9.41
25 11 -1 29.94 7
-11 25 1 30.03 7.4
-11 25 -1 30.63 7.71
25 11 -2 9.89 5
-11 25 2 -1.4 5.18
-11 25 -2 -2.6 3.55
25 11 -3 -3.82 3.98
-11 25 3 3.83 3.82
-11 25 -3 8.17 4.33
25 11 -4 8.45 3.8
-11 25 4 16.68 5.98
-11 25 -4 11.82 5.03
-12 25 0 1.05 3.5
25 12 -1 4.58 3.57
-12 25 1 16.38 5.61
-12 25 -1 9.84 5.25
-12 25 2 7.34 5.26
-12 25 -2 6.2 4.44
0 26 0 276.54 21.51
26 0 -1 5.66 5.4
0 26 1 1.2 4.27
26 0 -2 47.73 8.67
0 26 2 53.29 9.53
26 0 -3 -2.14 3.67
0 26 3 5.88 5.01
26 0 -4 -1.49 3.91
0 26 4 14.12 6.42
26 0 -5 4.17 3.56
0 26 5 10.78 5.25
0 26 6 48.11 8.74
26 1 0 -11.85 7.26
-1 26 0 -3.68 6.09
26 1 -1 162.3 16.41
1 26 1 171.03 16.74
-1 26 1 152.95 16.99
-1 26 -1 144.68 15.8
26 -1 -2 1.57 3.73
26 1 -2 2.66 5.12
1 26 2 13.06 4.8
-1 26 2 3.26 4.34
26 -1 -3 -1.45 3.76
26 1 -3 3.67 5.08
1 26 3 6.3 4.27
-1 26 3 5.24 4.34
26 1 -4 -1.54 4.02
1 26 4 -2.26 3.71
-1 26 4 5.68 5.36
26 1 -5 45.68 7.47
1 26 5 78.27 11.51
-1 26 5 69.41 11.55
1 26 6 6.16 3.87
-1 26 6 2.47 3.38
-1 26 7 22.88 6.72
26 2 0 151.82 16.88
-2 26 0 130.63 15.32
26 2 -1 1.6 4.24
-2 26 1 15.42 5.9
-2 26 -1 11.8 5.11
26 2 -2 30.51 7.83
2 26 2 20.11 6.13
-2 26 2 29.46 8.35
-2 26 -2 20.62 5.69
26 2 -3 3.51 3.76
2 26 3 6.78 4.62
-2 26 3 4.79 5.02
26 2 -4 37.38 7.96
2 26 4 46.69 8.98
-2 26 4 38.47 8.71
26 2 -5 9.65 5.01
2 26 5 -1.25 4.81
-2 26 5 13.39 6.52
26 2 -6 71.56 9.2
-2 26 6 83.94 12.27
-2 26 7 -16.09 7.35
26 3 0 13.59 7.13
-3 26 0 34.39 8.14
26 3 1 33.43 8.56
26 3 -1 31.25 7.62
-3 26 1 23.95 6.88
-3 26 -1 25.24 6.96
26 3 -2 15.11 5.9
-3 26 2 3.38 3.87
-3 26 -2 7.66 3.74
26 3 -3 13.71 6.06
3 26 3 6.63 4.09
-3 26 3 13.45 6.17
-3 26 -3 0.5 3.1
26 3 -4 46.04 8.17
-3 26 4 45.32 9.68
26 3 -5 72.96 9.76
-3 26 5 98.44 13.76
26 3 -6 27.08 5.37
-3 26 6 44.29 9.45
-3 26 7 35.68 8.01
-3 26 8 2.09 3.73
26 4 0 11.88 5.73
-4 26 0 7.64 5.68
26 4 1 7.85 5.49
26 4 -1 3.3 4.71
-4 26 1 12.72 5.46
-4 26 -1 12.26 5.74
26 4 -2 -0.45 4.2
-4 26 2 -0.95 4.64
-4 26 -2 -5.79 4.54
26 4 -3 24.85 7.4
-4 26 3 24.67 7.25
-4 26 -3 23.92 6.12
26 4 -4 16.51 6.1
-4 26 4 30.54 8.06
-4 26 -4 13.69 5.35
26 4 -5 135.75 13.3
-4 26 5 158.35 16.97
26 4 -6 32.46 6.53
-4 26 6 53.37 10.04
-4 26 7 60.2 9.46
26 5 0 19.66 6.42
-5 26 0 34.59 7.93
26 5 1 4.86 5.61
26 5 -1 -7.21 5.78
-5 26 1 8.84 4.02
-5 26 -1 8.28 5.12
26 5 -2 -0.16 4.19
-5 26 2 -6.49 4.92
-5 26 -2 -5.82 5.2
26 5 -3 10.07 5.7
-5 26 3 15.19 6.31
-5 26 -3 5.81 4.84
26 5 -4 99.98 11.81
-5 26 4 112.94 14.55
-5 26 -4 82.99 10.77
26 5 -5 9.53 4.67
-5 26 5 11.08 5.47
26 5 -6 112.32 12.07
-5 26 6 149.56 16.2
-5 26 7 1.71 3.43
26 6 0 -2 4.97
-6 26 0 17.32 6.94
26 6 1 16.55 5.58
26 6 -1 23.58 7.19
-6 26 1 22.11 7.18
-6 26 -1 27.23 7.31
26 6 -2 6.79 4.21
-6 26 2 7.61 5.01
-6 26 -2 1.54 4.42
26 6 -3 7.25 3.91
-6 26 3 15.53 5.97
-6 26 -3 21.22 6.48
26 6 -4 -7.86 5.29
-6 26 4 3.84 3.98
-6 26 -4 0.6 3.2
26 6 -5 138.58 13.37
-6 26 5 150.06 16.18
26 6 -6 -5.17 3.95
-6 26 6 -8.48 5.02
26 7 0 83.54 11.32
-7 26 0 91.99 12.74
26 7 1 -6.28 5.67
26 7 -1 -3.98 5.16
-7 26 1 9.71 5.07
-7 26 -1 5.87 3.48
26 7 -2 10.16 4.98
-7 26 2 16.08 5.84
-7 26 -2 14.02 5.68
26 7 -3 8.07 5
-7 26 3 8.5 5.18
-7 26 -3 6.57 4.97
26 7 -4 38.89 7.61
-7 26 4 38.79 8.61
-7 26 -4 29.56 6.73
26 7 -5 5.14 3.18
-7 26 5 6.95 4
-7 26 6 100.59 12.68
26 8 0 0.44 4.41
-8 26 0 5.28 3.56
26 8 -1 85.61 10.26
-8 26 1 102.59 13.35
-8 26 -1 99.82 12.58
26 8 -2 12.16 3.98
-8 26 2 21.25 6.98
-8 26 -2 9.75 4.95
26 8 -3 -4.77 4.49
-8 26 3 -3.43 3.52
-8 26 -3 4.17 3.41
26 8 -4 11.59 4.65
-8 26 4 12.32 5.34
26 8 -5 40.1 6.75
-8 26 5 41.59 8.04
26 9 0 139.55 12.8
-9 26 0 135.78 14.9
26 9 -1 20.6 5.12
-9 26 1 22.89 6.6
-9 26 -1 12.3 4.5
26 9 -2 40.2 7.24
-9 26 2 45.04 8.78
-9 26 -2 40.78 8.31
26 9 -3 30.78 6.88
-9 26 3 18.53 5.7
26 9 -4 8.4 4.55
-9 26 4 10.3 3.93
-10 26 0 41.73 7.81
26 10 -1 63.28 8.34
-10 26 1 73.07 10.46
-10 26 -1 72.38 10.29
-10 26 2 15.49 5.36
0 27 2 -3.33 3.05
0 27 3 11.67 4.45
-1 27 1 -8.61 5.25
-1 27 2 68.1 10.63
-1 27 3 10.89 5.28
-1 27 4 9.71 3.83
-2 27 0 -3.54 5.11
-2 27 1 106.82 12.42
27 2 -2 2.32 4.46
-2 27 2 2.2 3.81
27 2 -3 -4.33 4.36
-2 27 3 -4.22 4.67
-2 27 4 17.55 5.68
-3 27 0 72.53 10.78
27 3 -1 -1.19 4.31
-3 27 1 8.39 4.82
27 3 -2 4.41 3.74
-3 27 2 6.94 4.28
27 3 -3 17.81 4.96
-3 27 3 19.25 5.89
-3 27 4 16.64 5.34
-3 27 5 82.68 10.95
-4 27 0 14.32 5.62
27 4 -1 4.3 4.18
-4 27 1 19.56 5.96
27 4 -2 0.33 3.43
-4 27 2 11.99 5.22
27 4 -3 -5.7 4.67
-4 27 3 -0.48 3.82
-4 27 4 112.72 13.26
-5 27 0 8.69 4.65
27 5 -1 0.93 3.6
-5 27 1 -1.42 3.59
27 5 -2 -1.35 3.23
-5 27 2 1.38 3.1
27 5 -3 33.4 6.86
-5 27 3 42.19 8.42
-5 27 4 2.1 3.08
-6 27 0 18.9 6.11
27 6 -1 -8.61 5.21
-6 27 1 -3.06 4.37
27 6 -2 -1.36 3.98
-6 27 2 3.46 3.77
-6 27 3 6.86 4.25
27 7 -1 24.83 5.6
27 7 -2 13.41 4.83
loop_
_smtbx_masks_void_nr
_smtbx_masks_void_average_x
_smtbx_masks_void_average_y
_smtbx_masks_void_average_z
_smtbx_masks_void_volume
_smtbx_masks_void_count_electrons
1 -0.355 -0.083 -0.520 6130.2 610.6
