#------------------------------------------------------------------------------
#$Date: 2019-11-03 12:50:14 +0200 (Sun, 03 Nov 2019) $
#$Revision: 221444 $
#$URL: file:///home/coder/svn-repositories/cod/cif/4/12/83/4128321.cif $
#------------------------------------------------------------------------------
#
# This file is available in the Crystallography Open Database (COD),
# http://www.crystallography.net/
#
# All data on this site have been placed in the public domain by the
# contributors.
#
data_4128321
loop_
_publ_author_name
'Kusaka, Shinpei'
'Kiyose, Atsushi'
'Sato, Hiroshi'
'Hijikata, Yuh'
'Hori, Akihiro'
'Ma, Yunsheng'
'Matsuda, Ryotaro'
_publ_section_title
;
 Dynamic Topochemical Reaction Tuned by Guest Molecules in the Nanospace
 of a Metal-Organic Framework.
;
_journal_issue                   40
_journal_name_full               'Journal of the American Chemical Society'
_journal_page_first              15742
_journal_page_last               15746
_journal_paper_doi               10.1021/jacs.9b07682
_journal_volume                  141
_journal_year                    2019
_chemical_formula_moiety         'C31 H31 N2 O5 Zn'
_chemical_formula_sum            'C31 H31 N2 O5 Zn'
_chemical_formula_weight         576.98
_space_group_crystal_system      triclinic
_space_group_IT_number           2
_space_group_name_Hall           '-P 1'
_space_group_name_H-M_alt        'P -1'
_symmetry_space_group_name_Hall  '-P 1'
_symmetry_space_group_name_H-M   'P -1'
_atom_sites_solution_hydrogens   geom
_atom_sites_solution_primary     direct
_atom_sites_solution_secondary   difmap
_cell_angle_alpha                76.227(2)
_cell_angle_beta                 76.572(2)
_cell_angle_gamma                83.831(2)
_cell_formula_units_Z            2
_cell_length_a                   8.4884(2)
_cell_length_b                   11.7850(3)
_cell_length_c                   14.7536(3)
_cell_measurement_reflns_used    10694
_cell_measurement_temperature    296
_cell_measurement_theta_max      27.67
_cell_measurement_theta_min      2.63
_cell_volume                     1392.14(6)
_computing_cell_refinement       'CrysAlisPro 1.171.39.9b (Rigaku OD, 2015)'
_computing_data_collection       'CrysAlisPro 1.171.39.9b (Rigaku OD, 2015)'
_computing_data_reduction        'CrysAlisPro 1.171.39.9b (Rigaku OD, 2015)'
_computing_molecular_graphics    'CrystalStructure 4.2.2'
_computing_publication_material  'CrystalStructure 4.2.2 (Rigaku, 2016)'
_computing_structure_refinement  'SHELXL Version 2014/7 (Sheldrick, 2008)'
_computing_structure_solution    'SHELXT Version 2014/5 (Sheldrick, 2014)'
_diffrn_ambient_temperature      296
_diffrn_detector_area_resol_mean 5.811
_diffrn_measured_fraction_theta_full 0.998
_diffrn_measured_fraction_theta_max 0.864
_diffrn_measurement_device_type  'Rigaku XtaLAB P200'
_diffrn_measurement_method       \w
_diffrn_radiation_type           'Mo K\a'
_diffrn_radiation_wavelength     0.71075
_diffrn_reflns_av_R_equivalents  0.0315
_diffrn_reflns_Laue_measured_fraction_full 0.998
_diffrn_reflns_Laue_measured_fraction_max 0.864
_diffrn_reflns_limit_h_max       11
_diffrn_reflns_limit_h_min       -11
_diffrn_reflns_limit_k_max       16
_diffrn_reflns_limit_k_min       -14
_diffrn_reflns_limit_l_max       20
_diffrn_reflns_limit_l_min       -16
_diffrn_reflns_number            24523
_diffrn_reflns_point_group_measured_fraction_full 0.998
_diffrn_reflns_point_group_measured_fraction_max 0.864
_diffrn_reflns_theta_full        25.242
_diffrn_reflns_theta_max         30.151
_diffrn_reflns_theta_min         2.037
_diffrn_standards_number         0
_exptl_absorpt_coefficient_mu    0.925
_exptl_absorpt_correction_T_max  1.000
_exptl_absorpt_correction_T_min  0.878
_exptl_absorpt_correction_type   multi-scan
_exptl_absorpt_process_details
;
CrysAlisPro 1.171.39.9b (Rigaku Oxford Diffraction, 2015)
Empirical absorption correction using spherical harmonics,
 implemented in SCALE3 ABSPACK scaling algorithm.
;
_exptl_crystal_colour            nONE
_exptl_crystal_density_diffrn    1.376
_exptl_crystal_density_method    'not measured'
_exptl_crystal_description       nONE
_exptl_crystal_F_000             602.00
_refine_diff_density_max         0.52
_refine_diff_density_min         -0.53
_refine_ls_extinction_method     none
_refine_ls_goodness_of_fit_ref   1.068
_refine_ls_hydrogen_treatment    refxyz
_refine_ls_number_parameters     527
_refine_ls_number_reflns         7123
_refine_ls_number_restraints     53
_refine_ls_R_factor_all          0.0505
_refine_ls_R_factor_gt           0.0408
_refine_ls_shift/su_max          0.001
_refine_ls_structure_factor_coef Fsqd
_refine_ls_weighting_details
'w = 1/[\s^2^(Fo^2^)+(0.0709P)^2^+0.2256P] where P=(Fo^2^+2Fc^2^)/3'
_refine_ls_weighting_scheme      calc
_refine_ls_wR_factor_gt          0.1085
_refine_ls_wR_factor_ref         0.1128
_reflns_Friedel_coverage         0.000
_reflns_number_gt                6049
_reflns_number_total             7123
_reflns_threshold_expression     F^2^>2.0\s(F^2^)
_cod_data_source_file            ja9b07682_si_006.cif
_cod_data_source_block           xcalibur
_cod_database_code               4128321
_shelx_res_file
;

    shelxl.res created by SHELXL-2014/7

TITL xcalibur
CELL 0.71075 8.4884 11.785 14.7536 76.227 76.572 83.831
ZERR 2 0.0002 0.0003 0.0003 0.002 0.002 0.002
LATT 1
SFAC C H N O Zn
UNIT 62 62 4 10 2
DFIX 2.48 C21 C27 C21 C23
DFIX 1.39 C26 C25 C25 C24 C24 C23
DFIX 1.48 C21 C22
DFIX 1.39 C23 C22 C22 C27 C27 C26
DFIX 1.54 C43 C44
DFIX 1.54 C47 C48
DFIX 1.21 C43 O5
DFIX 1.47 0.01 C41 N3 N3 C42 N3 C43
DFIX 3.12 C41 C42
DFIX 2.59 0.01 O5 H42A
DFIX 1.47 0.01 C45 N4 N4 C46 N4 C47
DFIX 3.12 C45 C46
DFIX 1.21 0.01 C47 O6
DFIX 2.91 0.01 O6 H46A
FLAT C44 N3 C41 C42 C43 O5
FLAT C48 N4 C45 C46 C47 O6
SIMU 0.01 0.02 2 N3 N4
SIMU 0.01 0.02 2 C44 C48
SIMU 0.01 0.02 2 C43 C47
SIMU 0.01 0.02 2 O6 O5

L.S. 100
PLAN  25
TEMP 23
WPDB -2
HTAB
BOND $H
CONF
LIST 4
fmap 2
acta
REM <olex2.extras>
REM <HklSrc "%.\\shelxl.hkl">
REM </olex2.extras>

WGHT    0.070900    0.225600
FVAR       0.44683   0.48812
ZN1   5    0.378708    0.085926    0.459312    11.00000    0.02680    0.02684 =
         0.02247   -0.00586   -0.00382   -0.00641
O1    4    0.701519    0.074430    0.531773    11.00000    0.05511    0.03061 =
         0.04625   -0.00423   -0.01854   -0.01728
O2    4    0.519172    0.207034    0.474122    11.00000    0.04096    0.03684 =
         0.06010   -0.01238   -0.01736   -0.01406
O3    4    0.242017    0.085790    0.591550    11.00000    0.06173    0.07331 =
         0.02717   -0.01559    0.00777   -0.01890
O4    4    0.424979   -0.046958    0.645891    11.00000    0.04182    0.09660 =
         0.03703   -0.03108    0.01063   -0.01292
C1    1    0.648192    0.177656    0.503780    11.00000    0.03830    0.03386 =
         0.03147   -0.00883   -0.00514   -0.01407
C2    1    0.750239    0.273958    0.504991    11.00000    0.03674    0.02984 =
         0.03833   -0.00752   -0.00929   -0.01193
C3    1    0.703420    0.389952    0.476755    11.00000    0.06923    0.03485 =
         0.14893    0.00166   -0.07439   -0.01511
AFIX  43
H3    2    0.604996    0.409745    0.457904    11.00000   -1.20000
AFIX   0
C4    1    0.799520    0.477468    0.475846    11.00000    0.07991    0.02739 =
         0.16030    0.00826   -0.08256   -0.01504
AFIX  43
H4    2    0.763945    0.555147    0.457008    11.00000   -1.20000
AFIX   0
C5    1    0.946881    0.452664    0.502148    11.00000    0.03595    0.02980 =
         0.04566   -0.00704   -0.01197   -0.01133
C6    1    0.990833    0.336753    0.532445    11.00000    0.04104    0.03205 =
         0.10895   -0.01200   -0.03790   -0.00676
AFIX  43
H6    2    1.088428    0.316808    0.552258    11.00000   -1.20000
AFIX   0
C7    1    0.893957    0.248872    0.534302    11.00000    0.04620    0.02560 =
         0.09363   -0.00931   -0.03033   -0.00668
AFIX  43
H7    2    0.927100    0.171252    0.555879    11.00000   -1.20000
AFIX   0
C8    1    0.297883    0.017071    0.657495    11.00000    0.04436    0.06693 =
         0.02870   -0.02116    0.00798   -0.02920
C9    1    0.206320    0.011002    0.758895    11.00000    0.03926    0.05373 =
         0.02600   -0.01478    0.00463   -0.01606
C10   1    0.075764    0.087189    0.780052    11.00000    0.05620    0.06103 =
         0.02680   -0.00735   -0.00079   -0.00058
AFIX  43
H10   2    0.041030    0.142102    0.730982    11.00000   -1.20000
AFIX   0
C11   1   -0.004396    0.082762    0.873885    11.00000    0.05209    0.06046 =
         0.02898   -0.00943    0.00069    0.01192
AFIX  43
H11   2   -0.091904    0.135471    0.886704    11.00000   -1.20000
AFIX   0
C12   1    0.042513    0.001649    0.949341    11.00000    0.03609    0.04917 =
         0.02431   -0.01007    0.00043   -0.00119
C13   1    0.173032   -0.076681    0.926434    11.00000    0.04609    0.06294 =
         0.03102   -0.01047   -0.00111    0.00965
AFIX  43
H13   2    0.206410   -0.133260    0.975023    11.00000   -1.20000
AFIX   0
C14   1    0.253235   -0.071613    0.833102    11.00000    0.03941    0.06932 =
         0.03801   -0.02151    0.00107    0.00624
AFIX  43
H14   2    0.340245   -0.124504    0.819728    11.00000   -1.20000
AFIX   0
PART 1
N1    3    0.281824    0.174035    0.348260    21.00000    0.03046    0.03579 =
         0.02603   -0.00286   -0.00746   -0.00083
C15   1    0.165439    0.131693    0.320186    21.00000    0.04398    0.05180 =
         0.04940   -0.00393   -0.01901   -0.00346
AFIX  43
H15   2    0.111037    0.068437    0.361237    21.00000   -1.20000
AFIX   0
C16   1    0.122312    0.176173    0.234790    21.00000    0.06745    0.05312 =
         0.06399    0.00660   -0.04079   -0.02338
AFIX  43
H16   2    0.034278    0.147869    0.221198    21.00000   -1.20000
AFIX   0
C17   1    0.209300    0.263326    0.168348    21.00000    0.05757    0.05233 =
         0.04700    0.00004   -0.02065   -0.00678
C18   1    0.336442    0.302955    0.193261    21.00000    0.07154    0.05900 =
         0.05362    0.01724   -0.03099   -0.02615
AFIX  43
H18   2    0.401106    0.359608    0.150258    21.00000   -1.20000
AFIX   0
C19   1    0.366157    0.257178    0.283045    21.00000    0.06501    0.05268 =
         0.05481    0.01001   -0.02882   -0.02571
AFIX  43
H19   2    0.450877    0.286213    0.299376    21.00000   -1.20000
AFIX   0
C20   1    0.164587    0.309544    0.074599    21.00000    0.07901    0.06434 =
         0.04879   -0.00216   -0.03175   -0.00866
AFIX  43
H20   2    0.090924    0.269090    0.058277    21.00000   -1.20000
AFIX   0
C21   1    0.222359    0.404627    0.012345    21.00000    0.06578    0.06893 =
         0.05345    0.00223   -0.02749   -0.01291
AFIX  43
H21   2    0.295742    0.444096    0.029825    21.00000   -1.20000
AFIX   0
C22   1    0.182228    0.454286   -0.081822    21.00000    0.06530    0.06281 =
         0.03389   -0.00257   -0.01933    0.00378
C23   1    0.075941    0.402783   -0.116275    21.00000    0.11142    0.07258 =
         0.06109   -0.00244   -0.04403   -0.01533
AFIX  43
H23   2    0.029095    0.333595   -0.081062    21.00000   -1.20000
AFIX   0
C24   1    0.040295    0.456959   -0.205289    21.00000    0.10301    0.09481 =
         0.06043   -0.01652   -0.04282   -0.00407
AFIX  43
H24   2   -0.030475    0.422698   -0.229095    21.00000   -1.20000
AFIX   0
C25   1    0.106698    0.558108   -0.257354    21.00000    0.09720    0.10002 =
         0.03945    0.00003   -0.02558    0.00518
AFIX  43
H25   2    0.081541    0.592738   -0.316213    21.00000   -1.20000
AFIX   0
C26   1    0.211652    0.609313   -0.222589    21.00000    0.08042    0.09438 =
         0.06015    0.01080   -0.01949   -0.00267
AFIX  43
H26   2    0.258310    0.678509   -0.257948    21.00000   -1.20000
AFIX   0
C27   1    0.246785    0.557651   -0.135654    21.00000    0.07379    0.07869 =
         0.06861    0.01091   -0.02783   -0.01187
AFIX  43
H27   2    0.316400    0.593443   -0.112199    21.00000   -1.20000
AFIX   0
PART 0
PART 2
N2    3    0.232890    0.182056    0.375362   -21.00000    0.03323    0.04278 =
         0.02994   -0.01111   -0.00075   -0.00139
C28   1    0.111662    0.136600    0.353848   -21.00000    0.06518    0.04946 =
         0.08950   -0.00726   -0.04482    0.00090
AFIX  43
H28   2    0.094640    0.057755    0.379869   -21.00000   -1.20000
AFIX   0
C29   1    0.011848    0.196889    0.296972   -21.00000    0.07553    0.07316 =
         0.09743    0.00633   -0.04885   -0.02481
AFIX  43
H29   2   -0.072977    0.160363    0.287528   -21.00000   -1.20000
AFIX   0
C30   1    0.036297    0.309060    0.254648   -21.00000    0.05632    0.06102 =
         0.05555   -0.00563   -0.01790   -0.00618
C31   1    0.155606    0.359666    0.277103   -21.00000    0.09107    0.05090 =
         0.08809    0.01450   -0.05242   -0.01881
AFIX  43
H31   2    0.173822    0.438544    0.252199   -21.00000   -1.20000
AFIX   0
C32   1    0.249105    0.291211    0.337751   -21.00000    0.07779    0.05199 =
         0.07641    0.00177   -0.04410   -0.01687
AFIX  43
H32   2    0.329543    0.327275    0.352165   -21.00000   -1.20000
AFIX   0
C33   1   -0.068762    0.375786    0.189175   -21.00000    0.07443    0.06778 =
         0.07116    0.00669   -0.03713   -0.01172
AFIX  43
H33   2   -0.143922    0.333430    0.176098   -21.00000   -1.20000
AFIX   0
C34   1   -0.066648    0.486521    0.148491   -21.00000    0.07158    0.07221 =
         0.06773   -0.00752   -0.03117   -0.00189
AFIX  43
H34   2    0.005486    0.529308    0.163791   -21.00000   -1.20000
AFIX  66
C36   1   -0.265204    0.497574    0.044669   -21.00000    0.06959    0.09749 =
         0.06703    0.01041   -0.02376   -0.01182
AFIX  43
H36   2   -0.270708    0.416643    0.061405   -21.00000   -1.20000
AFIX  65
C37   1   -0.357830    0.564548   -0.017231   -21.00000    0.07138    0.11903 =
         0.09265    0.01177   -0.04195   -0.00126
AFIX  43
H37   2   -0.425307    0.528428   -0.041910   -21.00000   -1.20000
AFIX  65
C38   1   -0.349604    0.685508   -0.042244   -21.00000    0.09581    0.12240 =
         0.08560    0.00122   -0.03924    0.03288
AFIX  43
H38   2   -0.411578    0.730318   -0.083660   -21.00000   -1.20000
AFIX  65
C39   1   -0.248753    0.739494   -0.005358   -21.00000    0.15795    0.08029 =
         0.10995   -0.01207   -0.07028    0.03606
AFIX  43
H39   2   -0.243250    0.820425   -0.022094   -21.00000   -1.20000
AFIX  65
C40   1   -0.156126    0.672521    0.056542   -21.00000    0.11522    0.08058 =
         0.08811   -0.02229   -0.04916    0.01905
AFIX  43
H40   2   -0.088650    0.708642    0.081221   -21.00000   -1.20000
AFIX  65
C35   1   -0.164350    0.551561    0.081556   -21.00000    0.06935    0.07996 =
         0.07609   -0.00116   -0.02250    0.00311
AFIX   0

PART 0
PART 1
C44   1    0.533864   -0.221593    1.247164    21.00000    0.18591    0.17265 =
         0.12285   -0.04526   -0.01941   -0.05795
AFIX 137
H44A  2    0.644425   -0.213166    1.212945    21.00000   -1.50000
H44B  2    0.531332   -0.268744    1.310210    21.00000   -1.50000
H44C  2    0.482689   -0.145822    1.251598    21.00000   -1.50000
AFIX   0
N3    3    0.450342   -0.222461    1.099685    21.00000    0.10022    0.14024 =
         0.22279    0.02134    0.01335    0.03938
C41   1    0.545400   -0.116106    1.051974    21.00000    0.17203    0.11740 =
         0.17942    0.02500   -0.01247   -0.02230
AFIX 137
H41A  2    0.656940   -0.133721    1.056080    21.00000   -1.50000
H41B  2    0.501950   -0.053308    1.083253    21.00000   -1.50000
H41C  2    0.538132   -0.093239    0.986061    21.00000   -1.50000
AFIX   0
C42   1    0.365304   -0.292302    1.063183    21.00000    0.10307    0.08309 =
         0.12077   -0.04180   -0.06523    0.01240
AFIX 137
H42A  2    0.252296   -0.267560    1.073987    21.00000   -1.50000
H42B  2    0.377883   -0.372832    1.094974    21.00000   -1.50000
H42C  2    0.408120   -0.283832    0.995858    21.00000   -1.50000
AFIX   0
C43   1    0.449542   -0.276537    1.197834    21.00000    0.09690    0.05687 =
         0.15745   -0.03294   -0.00154   -0.03802
O5    4    0.343485   -0.349291    1.233829    21.00000    0.25390    0.21543 =
         0.21172   -0.10555   -0.05617   -0.02965
PART 0
PART 2
C48   1    0.584913   -0.294355    1.294992   -21.00000    0.09185    0.13207 =
         0.10395   -0.04196   -0.04404   -0.01075
AFIX 137
H48A  2    0.680261   -0.274746    1.245878   -21.00000   -1.50000
H48B  2    0.611912   -0.357534    1.344448   -21.00000   -1.50000
H48C  2    0.543451   -0.227390    1.321406   -21.00000   -1.50000
AFIX   0
N4    3    0.388091   -0.235074    1.195370   -21.00000    0.12307    0.11645 =
         0.22440    0.03165    0.01831    0.03967
C45   1    0.424872   -0.114761    1.189091   -21.00000    0.11430    0.06013 =
         0.25244   -0.01323   -0.05570   -0.01259
AFIX 137
H45A  2    0.380576   -0.063202    1.139063   -21.00000   -1.50000
H45B  2    0.540317   -0.108943    1.175310   -21.00000   -1.50000
H45C  2    0.377884   -0.093102    1.248773   -21.00000   -1.50000
AFIX   0
C46   1    0.280432   -0.284789    1.157093   -21.00000    0.08859    0.05994 =
         0.19839   -0.01570   -0.10982    0.00830
AFIX 137
H46A  2    0.172131   -0.278169    1.194152   -21.00000   -1.50000
H46B  2    0.312455   -0.365838    1.159093   -21.00000   -1.50000
H46C  2    0.283804   -0.244026    1.092113   -21.00000   -1.50000
AFIX   0
C47   1    0.461636   -0.330013    1.254212   -21.00000    0.07241    0.06107 =
         0.12525   -0.02251   -0.03967    0.00030
O6    4    0.421407   -0.439700    1.267314   -21.00000    0.18123    0.11534 =
         0.18486   -0.04480   -0.00835   -0.02959
HKLF 4

REM  xcalibur
REM R1 =  0.0408 for    6049 Fo > 4sig(Fo)  and  0.0505 for all    7123 data
REM    527 parameters refined using     53 restraints

END

WGHT      0.0705      0.2420

REM Instructions for potential hydrogen bonds
EQIV $1 -x+1, -y, -z+1
HTAB C28 O1_$1
HTAB C46 O6

REM Highest difference peak  0.517,  deepest hole -0.525,  1-sigma level  0.066
Q1    1   0.3845 -0.2590  1.0542  11.00000  0.05    0.52
Q2    1   0.2725 -0.2581  1.1758  11.00000  0.05    0.50
Q3    1   0.5210 -0.1348  1.0406  11.00000  0.05    0.43
Q4    1   0.3486 -0.2757  1.1448  11.00000  0.05    0.42
Q5    1   0.6563  0.3974  0.4874  11.00000  0.05    0.39
Q6    1   0.4639 -0.2822  1.2558  11.00000  0.05    0.39
Q7    1   0.7774  0.4818  0.5025  11.00000  0.05    0.37
Q8    1   0.8473  0.4598  0.4380  11.00000  0.05    0.37
Q9    1   0.7473  0.3609  0.4450  11.00000  0.05    0.36
Q10   1   0.4015 -0.1384  1.1525  11.00000  0.05    0.34
Q11   1   0.3786 -0.1325  1.2119  11.00000  0.05    0.34
Q12   1   1.0000  0.5000  0.5000  10.50000  0.05    0.33
Q13   1   0.9377  0.3767  0.5528  11.00000  0.05    0.31
Q14   1   0.2625  0.2349  0.2116  11.00000  0.05    0.31
Q15   1   0.0447  0.1013  0.3419  11.00000  0.05    0.31
Q16   1   0.1196 -0.0233  0.9461  11.00000  0.05    0.30
Q17   1   0.4933 -0.2455  1.1829  11.00000  0.05    0.30
Q18   1   0.2000  0.1001  0.5971  11.00000  0.05    0.30
Q19   1   0.4625 -0.0766  0.6704  11.00000  0.05    0.29
Q20   1   0.8814  0.4606  0.4985  11.00000  0.05    0.29
Q21   1  -0.0012  0.0198  0.9117  11.00000  0.05    0.29
Q22   1   0.9892  0.4004  0.4921  11.00000  0.05    0.27
Q23   1   0.7169  0.3203  0.5025  11.00000  0.05    0.27
Q24   1   0.0000  0.0000  1.0000  10.50000  0.05    0.27
Q25   1   0.9189  0.3206  0.5554  11.00000  0.05    0.27
;
_shelx_res_checksum              88989
_shelx_hkl_file
;
   0   1   1 1129.54   33.50
  -1   0   0   29.99    1.06
   0  -1   1  575.90   17.17
   0   1  -1  639.49   19.05
  -1   0  -1  159.97    6.61
  -1   0  -1  320.23    6.73
   1   1   1  433.07   13.08
  -1  -1  -1  442.51   13.52
   1   1   1  445.83   13.16
  -1  -1  -1  425.56   13.53
   0   0   2 1192.40   35.46
   1   1   0 1019.31   30.36
  -1  -1   0 1095.43   33.11
  -1  -1   0 1121.61   33.04
   0   1   2  844.91   25.16
   0  -1  -2  913.37   28.03
   0  -1  -2  976.50   28.09
   0   1   2  782.16   25.06
  -1   0   1  659.47   20.65
  -1   0   1  729.58   20.69
   1   0  -1  656.45   19.64
   1  -1   0  262.68    7.99
  -1   1   0  269.27    8.19
   1  -1   1 3058.42   90.57
  -1   1  -1 3037.71   89.98
   1   0   2    7.65    0.61
  -1   0  -2    7.16    0.45
  -1   0  -2    6.13    0.49
  -1  -1  -2  572.02   16.69
  -1  -1  -2  533.71   16.73
  -1  -1  -2  561.37   16.77
   1   1   2  563.25   16.03
   1   1   2  501.19   16.10
   1  -1  -1  259.64    8.13
   0   2   1   70.37    2.41
   0  -2  -1   58.71    2.22
   0  -2  -1   69.89    2.21
   0   2   0  207.85    6.47
   0  -2   0  172.29    5.43
  -1  -1   1 1256.51   36.74
   1   1  -1 1272.59   37.11
  -1  -1   1 1219.71   36.72
   1   1  -1 1226.55   37.12
   0   1  -2   82.56    2.61
   0   1  -2   72.35    2.66
   0  -1   2   86.94    2.79
   0  -1   2   82.52    2.88
  -1  -2  -1 9902.06  292.41
   1   2   1 9999.00  295.24
   0  -2  -2  859.60   24.14
   0   2   2  853.87   25.76
   0  -2  -2  752.00   24.15
   0   2   2  867.43   25.74
   0   2  -1    6.33    0.58
  -1   1  -2  129.96    4.25
   1  -1   2  137.88    4.45
  -1   0   2  801.42   23.16
   1   0  -2  791.92   23.59
  -1   0   2  772.23   23.30
  -1   0   2  749.13   23.25
  -1  -2   0   12.87    0.79
   1   2   2   32.59    1.15
  -1  -2  -2   29.86    1.36
  -1  -2  -2   32.20    1.11
  -1  -2  -2   30.94    1.15
   0  -1  -3   12.30    0.78
   0   1   3   13.55    0.76
   0  -1  -3   14.20    0.88
   0   1   3   13.24    0.93
   0   1   3   12.60    0.78
   1  -1  -2 1815.41   54.09
  -1   1   2 1812.65   54.18
  -1   1   2 1848.17   54.41
   0   0  -3 2054.40   62.97
   0   0  -3 2208.32   62.93
   0   0   3 2100.51   62.39
   0   0  -3 2074.36   63.17
  -1   2   0  878.35   26.70
  -1   2   0  896.68   26.49
  -1  -1  -3    0.70    0.38
   1   1   3    2.19    0.37
  -1  -1  -3    1.12    0.39
   1   0   3    0.03    0.44
   1  -2  -1 1189.21   35.32
  -1   2   1 1198.65   35.58
   1   1  -2   84.62    2.72
   1   1  -2   79.65    2.65
  -1  -1   2   79.37    2.61
   1   1  -2   83.38    2.81
   1   1  -2   84.91    2.74
  -1  -1   2   80.68    2.68
  -1  -1   2   83.43    2.75
  -1   2  -1   82.63    2.93
   1  -2   1   85.43    2.78
   1  -2   1   86.42    2.95
  -1   2  -1   83.60    2.67
  -1   2  -1   80.17    2.85
  -2   0  -1  610.84   18.14
   2   0   1  601.56   17.71
  -2   0  -1  594.16   18.03
  -2   0  -1  607.01   18.05
   2   0   1  582.55   17.74
   1   2  -1   50.02    1.75
   1   2  -1   50.58    2.10
   1   2  -1   50.21    1.64
  -2   0   0  154.11    5.36
   2   0   0  166.33    5.25
  -2   0   0  165.45    5.01
   2   1   1  142.18    4.46
   2   1   1  138.49    4.60
  -2  -1  -1  139.71    4.58
   2   1   1  147.02    4.63
  -2  -1  -1  147.33    4.47
  -2  -1  -1  134.76    4.77
   0  -2  -3  243.62    7.74
   0  -2  -3  246.29    7.71
   0   2   3  252.54    8.03
   0   2   3  254.21    7.91
   0  -2  -3  252.33    7.73
   0   2   3  252.73    7.91
  -1  -2  -3    6.09    0.49
  -1  -2  -3    6.60    0.55
   1   2   3    6.32    0.48
   0  -1   3    4.61    0.46
   0  -1   3    3.43    0.51
   0   1  -3    4.02    0.52
   0   1  -3    3.47    0.52
   0   2  -2   24.09    1.22
   0  -2   2   34.03    1.59
   0  -2   2   32.07    1.29
   0  -2   2   29.20    1.41
   2   1   0   31.53    1.17
   2   1   0   31.96    1.48
  -2  -1   0   28.41    1.38
  -2  -1   0   27.91    1.53
  -2  -1   0   29.04    1.09
   2   1   2  718.18   21.34
   2   1   2  704.19   21.30
   2   1   2  701.67   21.35
  -2  -1  -2  704.98   21.33
  -2  -1  -2  732.66   21.32
  -2  -1  -2  690.55   21.29
   2   1   2  714.83   21.40
   2   0   2   41.35    1.53
   2   0   2   37.42    1.77
  -2   0  -2   41.38    1.43
   2   0   2   35.67    1.40
  -2   0  -2   41.60    1.51
  -2   0  -2   41.44    1.61
  -2   0  -2   41.30    1.66
  -1   2   2  465.16   13.94
   1  -2  -2  464.59   13.91
   1  -2  -2  454.89   14.13
  -1   2   2  456.82   14.19
   0   3   1   66.49    2.45
   0  -3  -1   65.00    2.39
   0  -3  -1   63.18    2.38
   1  -1   3   84.52    3.04
   1  -1   3   87.90    2.98
  -1   1  -3   88.65    3.03
   2  -1   0   23.95    1.06
   2  -1   0   27.29    1.25
   0   3   0   25.39    1.26
   0   3   0   27.44    1.28
   0  -3   0   26.67    1.31
   2  -1   1   67.64    2.42
   2  -1   1   63.82    2.54
  -2   0   1  233.63    7.26
  -2   0   1  220.80    7.06
   2   0  -1  223.41    7.06
   2   0  -1  219.06    6.91
  -1   2  -2  177.04    5.61
  -1   2  -2  183.70    5.74
   1  -2   2  189.89    6.00
  -1   0   3   29.87    1.24
   1   0  -3   23.10    1.25
   1   0  -3   28.33    1.16
   1   0  -3   26.59    1.04
  -1   0   3   28.44    1.32
   1  -1  -3 7342.42  217.02
  -1   1   3 7197.04  195.01
  -1   1   3 7105.64  194.73
   0   3   2   11.12    0.76
   0  -3  -2   11.19    0.74
   0  -3  -2   10.05    0.80
   0   3   2   11.32    0.73
  -1  -3  -1 1512.43   44.92
  -1  -3  -2  245.61    7.51
   2   2   1   95.48    3.44
   2   2   1   98.56    3.27
   2   2   1   95.98    3.43
   2   2   1  101.25    3.55
  -2  -2  -1  102.33    3.58
   2   2   1   97.56    3.49
   1   1   4    1.37    0.41
  -1  -1  -4    1.04    0.51
   1   1   4    0.98    0.48
  -1  -1  -4    0.82    0.47
   0  -1  -4  207.57    6.51
   0  -1  -4  190.22    6.43
   0   1   4  207.55    6.88
   0  -1  -4  207.81    6.65
   0   1   4  214.25    7.05
   0   1   4  220.62    6.82
   2  -1  -1 2062.48   62.58
  -2   1   1 2087.91   62.43
  -2   1   1 2116.50   62.13
  -2   1   1 2060.01   62.55
   2  -1  -1 2110.37   62.24
  -2  -2  -2 1496.61   43.93
   2   2   2 1459.51   44.51
  -2  -2  -2 1492.47   43.92
   2   2   2 1510.12   44.25
   2   2   2 1510.29   44.42
   2   2   2 1459.34   44.47
  -2  -2  -2 1426.88   43.84
  -2  -1   1   25.67    1.28
  -2  -1   1   24.96    1.56
   2   1  -1   27.27    1.30
   2   1  -1   28.41    1.15
  -2  -1   1   27.52    1.11
   2   1   3  170.77    5.94
  -2  -1  -3  194.07    6.03
  -2  -1  -3  187.77    6.08
   2   1   3  195.40    5.95
   2   1   3  190.10    5.90
  -2  -1  -3  178.01    6.12
  -2  -1  -3  191.07    5.94
   2   1   3  193.33    5.86
  -2   1  -2  324.44    9.74
  -2   1  -2  329.24    9.99
   2  -1   2  303.49    9.62
  -2   1  -2  308.80   10.18
   1   3   0   32.21    1.44
   1   0   4    7.81    0.70
   0   0   4 1817.70   54.18
   0   0  -4 1784.28   52.71
   0   0  -4 1754.17   52.79
   1   2  -2   48.10    2.12
   1   2  -2   45.62    1.77
   1   2  -2   41.91    1.58
   0  -3   1  219.36    7.02
   0   3  -1  218.06    6.99
   2   0   3  104.92    3.58
   2   0   3  102.52    3.75
  -2   0  -3  105.21    3.48
  -2   0  -3  104.99    3.63
  -2   0  -3  105.13    3.79
  -2   0  -3  105.49    3.68
  -2  -2   0    5.95    0.85
  -2  -2   0    7.65    0.40
   2   2   0    6.81    0.74
   2   2   0    6.30    0.74
  -2  -2   0    6.32    0.69
   2   2   0    7.28    0.39
   2   2   0    4.70    0.69
  -1  -1   3  108.32    3.57
   1   1  -3  114.28    3.76
  -1  -1   3  121.42    3.85
  -1  -1   3  114.50    3.73
  -1   3   0   83.70    2.86
   1  -3   0   87.68    3.01
   1  -3  -1   88.51    3.21
  -1   3   1   91.37    3.07
   1  -3  -1   89.07    3.02
   1   2   4   70.32    2.50
  -1  -2  -4   64.07    2.33
  -1  -2  -4   65.49    2.40
   1  -2  -3  540.84   16.37
  -1   2   3  497.57   15.94
  -1   2   3  537.26   15.85
   0   3   3   24.18    1.21
   0   3   3   22.12    1.26
   0   3   3   22.19    1.17
   0   3   3   24.14    1.00
   0  -3  -3   21.71    0.98
   0  -3  -3   22.60    1.21
   0  -3  -3   23.53    1.18
  -1  -3  -3   16.96    0.84
   1   3   3   19.91    0.92
   0  -2  -4   32.81    1.55
   0   2   4   32.75    1.55
   0  -2  -4   29.83    1.44
   0  -2  -4   31.97    1.50
   0   2   4   31.43    1.43
   0  -2  -4   29.64    1.42
  -2  -2  -3    4.97    0.54
  -2  -2  -3    4.00    0.65
  -2  -2  -3    5.43    0.67
   2   2   3    5.40    0.41
   2   2   3    5.56    0.64
   2   2   3    4.54    0.48
   2   2   3    4.40    0.62
  -2  -2  -3    4.99    0.66
   0  -2   3  188.60    6.09
   0   2  -3  183.64    5.91
   0   2  -3  183.91    6.06
   0  -2   3  191.47    6.27
   0  -2   3  196.21    6.50
   2   0  -2  580.30   17.75
  -2   0   2  583.40   17.92
   2   0  -2  591.91   17.83
  -2   0   2  590.53   17.83
   2  -2   0  342.94   10.94
  -2   2   0  342.31   10.59
   2  -2   0  351.90   10.75
  -1   3  -1  429.23   13.14
  -1   3  -1  411.59   13.27
  -1   3  -1  435.53   13.01
   1  -3   1  431.62   13.15
   1   3  -1    1.62    0.59
   1   3  -1    0.89    0.54
  -1  -3   1    1.21    0.21
   2  -2   1  401.67   12.35
  -2   2  -1  397.34   12.15
   2  -2   1  395.23   12.43
  -2   2  -1  383.59   12.24
  -1   3   2 2120.75   62.95
   1  -3  -2 2114.76   62.37
   1  -3  -2 2088.76   62.51
   1  -3  -2 2089.89   62.57
  -2   1   2   80.77    2.98
   2  -1  -2   80.16    2.92
  -2   1   2   81.60    2.88
   2  -1  -2   79.07    3.19
  -2   1   2   78.86    2.61
  -2   1   2   68.26    3.13
   1  -2   3  118.47    3.99
  -1   2  -3  123.12    4.08
   1  -2   3  126.49    4.20
   0   1  -4   66.59    2.54
   0  -1   4   67.73    2.50
   0   1  -4   65.98    2.49
   0  -1   4   68.74    2.65
  -2   1  -3  323.17   10.35
   2  -1   3  309.27    9.84
  -2   1  -3  341.14   10.49
  -2   2   1   60.87    2.20
   2  -2  -1   63.16    2.04
   1  -1   4  303.55    9.43
   1  -1   4  303.59    9.57
  -2  -2   1   19.60    1.05
  -2  -2   1   20.14    1.37
   2   2  -1   19.13    1.05
  -2  -2   1   21.22    0.92
   2   1  -2  295.65    9.51
   2   1  -2  315.32    9.25
  -2  -1   2  300.03    9.02
   2   1  -2  300.24    9.48
   2   1  -2  305.68    9.28
  -2  -1   2  308.60    9.12
  -2  -1  -4  129.74    4.27
   2   1   4  135.56    4.41
  -2  -1  -4  111.36    4.22
  -2  -1  -4  123.74    4.14
  -2  -1  -4  121.39    4.18
   2   1   4  125.89    4.56
   2   1   4  126.91    4.32
   2   1   4  126.54    4.45
   0   3  -2  240.18    8.13
   0   3  -2  266.04    8.14
   0  -3   2  273.85    8.77
   0  -3   2  269.24    8.42
  -1   1   4 1992.48   59.56
  -1   1   4 2027.93   59.73
   1  -1  -4 1995.69   58.93
   1  -1  -4 1949.80   59.36
  -2  -3  -2 3608.65  107.81
  -2  -3  -2 3649.88  107.80
   2   3   2 3575.84  108.99
   2   3   2 3639.89  108.91
   2   3   2 3661.36  108.86
   2   3   2 3713.46  108.50
   2   3   1   17.08    1.14
  -2  -3  -1   15.51    1.19
   2   3   1   17.08    1.08
  -2  -3  -1   18.95    1.16
   2  -2   2 1719.86   52.76
   2  -2   2 1814.00   52.81
  -2   2  -2 1812.56   54.20
   2   0   4  244.27    7.83
  -2   0  -4  244.95    7.83
  -2   0  -4  241.99    7.75
  -2   0  -4  218.70    7.70
   2   0   4  241.00    7.92
  -2   0  -4  251.44    7.59
   1   0  -4  497.48   14.42
  -1   0   4  493.36   15.07
  -1   0   4  496.19   15.22
   1   0  -4  487.11   14.56
   1   0  -4  470.91   15.05
  -1  -3  -4   16.08    0.89
   1   3   4   17.93    0.97
  -2  -2  -4   71.38    2.75
   2   2   4   79.18    2.66
   2   2   4   76.97    2.89
  -2  -2  -4   79.70    2.97
   2   2   4   76.33    2.97
   2   2   4   77.80    2.80
  -2  -2  -4   80.32    2.92
   1   1   5   75.03    2.71
  -1  -1  -5   69.51    2.75
  -1  -1  -5   68.81    2.67
  -1  -1  -5   71.85    2.70
   1   1   5   69.43    2.81
   0  -4  -1  205.07    6.75
   0   4   1  205.03    6.71
   0  -4  -1  207.52    6.75
  -1  -2   3   20.31    1.09
   1   2  -3   16.57    1.38
   1   2  -3   20.01    0.96
   1   2  -3   20.49    1.12
  -1   3  -2  263.85    8.32
  -1   3  -2  265.80    8.27
   0  -3  -4  163.35    5.37
   0  -3  -4  163.22    5.31
   0   3   4  161.98    5.40
   0  -3  -4  156.42    5.21
   0   3   4  163.58    5.58
   0   3   4  163.62    5.42
  -2   2   2   19.34    1.20
   2  -2  -2   17.88    1.32
  -2   2   2   24.64    1.39
   2  -2  -2   20.82    0.90
   1  -3  -3    0.43    0.60
   1  -3  -3    0.54    0.47
  -1   3   3    0.57    0.39
  -1   3   3    0.82    0.62
   1  -3  -3    0.25    0.53
  -2  -3  -3  197.27    6.67
  -2  -3  -3  202.51    6.32
  -2  -3  -3  196.08    6.63
  -2  -3  -3  203.08    6.14
   2   3   3  209.48    6.70
   2   3   3  198.11    6.19
   2   3   3  208.84    6.33
  -2  -3  -3  202.77    6.65
  -2  -3   0   40.64    1.39
  -2  -3   0   37.39    1.87
   2   3   0   37.70    1.68
   0  -4  -2   63.27    2.50
   0  -4  -2   61.81    2.41
   0   4   2   61.38    2.47
   0   1   5   27.80    1.44
   0   1   5   28.15    1.38
   0  -1  -5   23.99    1.34
   0  -1  -5   23.94    1.34
   0  -1  -5   28.03    1.43
   0   1   5   26.88    1.67
   1  -2  -4  173.03    5.85
   1  -2  -4  181.31    5.80
  -1   2   4  183.38    5.71
  -1   2   4  157.49    5.79
   0  -4   0   14.93    1.06
   0   4   0   13.78    1.02
   0   4   0   14.84    1.05
   1   4   1  568.45   17.52
   1   4   1  564.04   17.54
   1   4   1  568.29   17.14
  -1  -4  -2  136.39    4.42
   1   4   2  138.97    4.86
  -1   0  -5   84.58    3.18
   1   3  -2   45.04    1.66
   1   3  -2   47.34    2.23
   1   3  -2   46.90    1.99
  -1  -3   2   43.55    2.23
   1   3  -2   44.59    1.58
  -1  -3   2   47.91    1.67
   1   2   5   14.17    0.89
  -1  -2  -5   12.96    0.88
  -1  -2  -5   13.01    0.90
   1   2   5   12.70    1.02
  -3   0  -1  751.43   21.93
   3   0   1  753.76   22.58
  -3   0  -1  760.32   22.07
  -2   0   3  363.80   11.27
  -2   0   3  366.94   11.28
   2   0  -3  371.48   11.81
   2   0  -3  386.28   11.55
  -2   0   3  357.51   10.95
   0   0  -5  439.03   13.23
   0   0  -5  464.32   13.35
   0   0   5  449.03   14.07
   0   0   5  437.30   13.74
  -3  -1  -1  177.41    6.05
   3   1   1  174.53    5.53
   3   1   1  182.71    5.78
   3   1   1  179.41    5.83
   3   1   1  170.26    6.09
   3   1   1  183.35    5.60
  -3  -1  -1  174.30    5.48
   3   1   1  174.00    5.70
  -1  -1   4    1.50    0.37
   1   1  -4    1.82    0.47
  -1  -1   4    2.52    0.51
  -1  -1   4    2.07    0.56
  -2   1   3   36.77    1.73
  -2   1   3   34.64    1.96
  -2   1   3   34.62    1.64
   2  -1  -3   34.54    1.65
   2  -1  -3   35.09    1.88
  -2   1   3   33.66    1.39
   3   1   2  288.98    9.00
  -3  -1  -2  296.04    9.00
  -3  -1  -2  297.39    8.92
   3   1   2  281.70    9.06
   3   1   2  291.48    8.92
   3   1   2  287.10    9.00
   3   0   2  401.74   12.18
   3   0   2  400.97   12.18
  -3   0  -2  399.58   12.07
  -3   0  -2  391.13   12.26
  -3   0  -2  396.47   12.16
   0   2   5   37.12    1.81
   0   2   5   36.38    1.71
   0   2   5   38.66    1.88
   0  -2  -5   36.70    1.68
   0  -2  -5   34.23    1.67
   0   2   5   38.69    1.72
   0  -2  -5   37.51    1.79
   0  -2  -5   38.23    1.78
  -2  -2   2   23.58    1.12
  -2  -2   2   24.05    1.16
  -2  -2   2   23.05    1.57
   2   2  -2   22.05    1.10
  -2   1  -4  775.93   23.69
  -2   1  -4  778.64   23.65
   2  -1   4  758.37   23.11
  -3   0   0  379.61   11.41
  -3   0   0  382.65   11.55
  -3   0   0  379.31   12.12
   3   0   0  384.68   11.59
   3   0   0  377.41   11.71
   3   0   0  371.19   12.02
   1   4   0   76.55    2.71
  -1  -4   0   58.19    2.53
   1   4   0   67.80    2.88
   1   4   0   70.88    2.89
   1   4   3   28.65    1.28
  -1  -4  -3   30.37    1.30
   1   4   3   29.56    1.55
   0  -2   4   57.41    2.22
   0  -2   4   58.80    2.40
   0   2  -4   57.05    2.27
   0   2  -4   57.50    2.33
   0  -2   4   56.05    2.64
   2  -2   3  581.12   18.92
  -2   2  -3  615.41   18.57
   2  -2   3  644.14   18.87
  -2   2  -3  654.10   19.17
  -2   3   0  245.15    7.46
  -2   3   0  241.00    8.03
  -2   3   0  247.31    7.90
   0  -4  -3    1.89    0.58
   0   4   3    1.83    0.61
   0   4   3    1.97    0.60
   0  -4  -3    1.92    0.55
   1  -2   4  696.07   21.50
   1  -2   4  751.17   21.79
  -1   2  -4  725.05   21.86
   1  -2   4  705.86   21.92
   3   1   0  110.14    3.59
   3   1   0   99.63    4.19
  -3  -1   0  114.02    4.05
   3   1   0  109.66    4.01
  -3  -1   0  104.64    3.58
   3   1   0  109.76    3.57
   0   4  -1   68.41    2.70
   0  -4   1   67.52    2.70
   2  -3  -1  129.26    4.10
  -2   3   1  130.23    4.23
  -2   3   1  119.66    3.88
   0   3  -3  437.96   13.39
   0  -3   3  453.74   13.88
   0   3  -3  423.95   12.80
   0  -3   3  448.69   14.14
   0  -3   3  454.78   14.31
   2   3   4    0.29    0.54
   2   3   4    0.44    0.33
  -2  -3  -4    0.84    0.33
  -2  -3  -4    0.76    0.58
  -2  -3  -4    0.23    0.57
  -2  -3  -4    0.97    0.46
  -1   4   1  404.49   12.47
   1  -4  -1  410.61   12.65
   3  -1   1  436.22   13.44
   2   1  -3   73.88    2.71
   2   1  -3   75.69    2.57
   2   1  -3   80.02    2.61
  -2  -1   3   77.84    2.82
  -2  -1   3   74.11    2.74
   2   1  -3   77.38    2.82
  -2   3  -1   58.78    2.41
  -2   3  -1   57.83    2.44
   2  -3   1   64.52    2.21
   2  -3   1   63.31    2.57
  -3  -1  -3   14.97    0.97
   3   1   3   16.55    1.04
   3   1   3   16.34    0.89
   3   1   3   16.76    1.00
  -3  -1  -3   16.23    0.93
  -3  -1  -3   15.63    0.99
   3   1   3   15.89    0.94
   2   1   5  360.96   10.63
   2   1   5  339.71   10.78
  -2  -1  -5  362.85   11.19
  -2  -1  -5  348.70   11.30
  -2  -1  -5  357.14   11.25
  -2  -3   1  103.56    3.45
  -2  -3   1  111.08    3.98
   2   3  -1  106.30    3.67
  -1   4   0  145.43    4.84
   1  -4   0  130.68    4.45
  -3  -2  -2  377.42   11.88
  -3  -2  -2  403.11   12.21
   3   2   2  391.32   11.92
   3   2   2  373.59   12.14
   3   2   2  383.14   11.71
  -3  -2  -2  371.08   11.89
   3   2   2  387.69   11.90
   3   2   2  375.00   11.41
  -3  -2  -2  376.56   11.72
   3  -1   0  209.98    6.24
   3  -1   0  201.14    6.44
  -3   1   0  173.48    6.04
   3  -1   0  188.84    5.99
   3   2   1   42.51    2.10
   3   2   1   41.75    1.88
   3   2   1   38.24    1.55
   3   2   1   41.09    1.40
   3   2   1   40.78    1.85
   3   2   1   40.93    1.98
  -3  -2  -1   43.11    2.04
  -3   0  -3  863.91   25.70
  -3   0  -3  872.10   25.85
  -3   0  -3  867.61   26.11
   3   0   3  853.23   27.02
   3   0   3  902.42   26.45
  -3   0  -3  835.25   26.02
   3   0   3  872.90   26.64
   2  -2  -3    3.51    0.87
  -2   2   3    4.19    0.55
  -2   2   3    3.17    0.90
  -2   2   3    4.53    0.71
   1  -1   5   49.00    1.90
  -1   1  -5   42.18    1.94
   1  -1   5   46.28    2.01
   1  -1   5   41.33    2.03
  -1   3  -3  565.62   17.16
  -1   3  -3  563.20   17.18
   1  -3   3  559.26   16.97
  -3   1  -2  180.25    5.80
   3  -1   2  159.74    4.96
   3  -1   2  176.01    5.77
  -3   1  -2  178.02    5.52
   1  -4  -2  677.04   20.62
   1  -4  -2  671.28   20.45
  -1   4   2  670.19   20.32
  -2  -2  -5   28.73    1.52
  -2  -2  -5   29.91    1.60
   2   2   5   28.66    1.41
   2   2   5   28.24    1.47
   2   2   5   26.94    1.56
  -2  -2  -5   28.88    1.47
   2   2   5   31.22    1.32
   1   3   5   22.25    1.21
   1   3   5   24.17    1.23
  -1  -3  -5   24.44    1.23
  -3   0   1  109.14    3.80
  -3   0   1  110.36    4.09
   3   0  -1  106.52    3.80
   3   0  -1  116.24    4.07
   0   1  -5    7.96    0.86
   0   1  -5    8.56    0.82
   0  -1   5    9.39    0.86
   0  -1   5    8.43    0.88
   0  -1   5    8.56    0.83
  -2   0  -5  813.71   22.45
   2   0   5  765.89   23.42
  -2   0  -5  749.75   22.61
  -1   3   4   -0.21    0.65
  -1   3   4   -0.11    0.55
   1  -3  -4    0.85    0.60
   1  -3  -4    0.30    0.46
  -3  -2  -3    5.50    0.70
   3   2   3    5.46    0.66
   3   2   3    4.65    0.60
   3   2   3    4.97    0.64
  -3  -2  -3    4.64    0.74
   3   2   3    5.07    0.70
  -3  -2  -3    6.15    0.77
   3   2   3    5.35    0.63
   1   4  -1    2.96    0.72
   1   4  -1    2.65    0.73
  -1  -4   1    2.49    0.81
  -1  -4   1    3.25    0.34
   2  -3  -2   59.60    2.66
   2  -3  -2   59.99    2.12
  -1   4  -1  827.97   25.19
  -1   4  -1  854.61   25.30
   1  -4   1  842.15   25.43
  -1   4  -1  819.23   25.47
   0  -3  -5   59.51    2.62
   0  -3  -5   61.15    2.53
   0  -3  -5   64.64    2.52
   0   3   5   67.28    2.58
   0   3   5   63.31    2.71
   0   3   5   63.58    2.57
   0  -3  -5   64.41    2.49
  -1  -4  -4   80.62    2.87
   1   4   4   82.57    2.97
   1   4   4   83.70    3.21
  -2  -4  -2 1632.36   48.24
  -2  -4  -2 1629.49   48.25
  -2  -4  -2 1607.76   48.94
   2   4   2 1636.13   48.77
  -3  -1   1    6.12    0.84
   3   1  -1    6.99    0.61
  -3  -1   1    6.72    1.08
  -3  -1   1    7.31    0.63
   3   1  -1    8.80    0.83
   1  -1  -5 1496.87   44.99
  -1   1   5 1583.96   46.35
   1  -1  -5 1512.77   45.49
  -1   1   5 1515.46   46.54
   3   2   0    1.54    0.76
   3   2   0    0.43    0.56
   3   2   0    0.19    0.29
   3   2   0    0.17    0.28
  -3  -2   0    0.63    0.58
  -3  -2   0    0.08    0.78
  -3  -2   0    0.52    0.30
  -2   3  -2  658.66   20.46
   2  -3   2  679.53   21.03
   2  -3   2  688.32   20.93
  -2   3  -2  675.94   20.55
   3  -1  -1   68.59    3.25
   3  -1  -1   72.91    2.45
   3  -1  -1   75.58    3.01
   3  -1  -1   76.43    2.82
  -3   1   1   74.30    3.08
  -2  -4  -1  418.03   13.02
   0   4   4    1.68    0.40
   0  -4  -4    0.82    0.56
   0  -4  -4    0.99    0.60
   0   4   4    1.61    0.55
   0  -4  -4    0.77    0.37
   0   4   4    1.43    0.60
   0   4   4    1.52    0.53
   1   0  -5  128.02    4.78
   1   0  -5  143.20    4.61
  -1   0   5  140.08    4.86
   1   0  -5  143.76    4.76
   1   0  -5  142.64    5.31
  -1   0   5  148.68    5.01
  -1  -2   4   47.13    1.97
  -1  -2   4   47.54    2.00
  -1  -2   4   41.35    2.42
   1   2  -4   43.78    1.96
   1   2  -4   44.33    1.86
   1   2  -4   49.23    1.95
  -1  -3   3   71.79    3.18
   1   3  -3   67.33    2.41
   1   3  -3   65.25    2.94
   1   3  -3   64.43    2.63
  -2  -4  -3  512.31   15.29
   2   4   3  503.39   15.33
  -2  -4  -3  512.65   15.38
  -2  -4  -3  496.52   15.91
   2   4   3  504.52   15.73
   3   1   4  140.07    4.67
  -3  -1  -4  138.36    4.61
   3   1   4  142.22    4.91
   3   1   4  147.38    5.15
  -3  -1  -4  139.44    4.91
   3   1   4  136.09    4.80
   3   1   4  134.83    4.81
  -3  -1  -4  144.38    4.76
  -3  -1  -4  140.03    4.84
  -3   1  -3  611.33   19.10
  -3   1  -3  613.16   18.43
   3  -1   3  618.97   19.21
  -3   1  -3  614.39   18.75
   0  -4   2   14.95    1.25
   0   4  -2   12.69    1.12
   0   4  -2   13.59    1.08
   1  -4  -3  166.85    5.49
  -1   4   3  170.34    5.49
  -1   4   3  161.20    5.68
   1  -4  -3  167.85    5.52
   1  -4  -3  163.53    5.66
   1   1   6   22.05    1.27
   1   1   6   21.38    1.31
   1   1   6   21.58    1.38
  -1  -1  -6   21.05    1.32
   1  -2  -5  359.41   11.38
  -1   2   5  367.91   11.87
   1  -2  -5  362.77   11.70
  -1   2   5  385.11   11.68
  -2   2  -4 1012.22   30.35
  -2   2  -4  990.78   30.30
   2  -2   4  951.50   28.79
  -2   1   4  351.88   10.46
  -2   1   4  330.62   10.73
  -2   1   4  332.82   10.19
  -2   1   4  319.65   11.04
   2  -1  -4  335.75   10.63
  -2   1   4  353.43   10.78
   2  -1  -4  335.43   10.40
  -2  -2   3   39.75    1.66
  -2  -2   3   44.74    1.80
   2   2  -3   44.11    1.78
   2   2  -3   44.83    1.70
   3  -2   1  355.14   11.40
   3  -2   1  355.04   11.15
   3   0   4  792.96   23.99
   3   0   4  782.90   24.30
  -3   0  -4  787.39   24.16
  -3   0  -4  783.00   23.85
  -3   0  -4  779.90   23.63
  -3   0  -4  789.82   23.93
  -3   0  -4  781.73   23.42
   2   3   5   20.31    1.39
   2   3   5   21.80    1.08
  -2  -3  -5   20.63    1.37
  -2  -3  -5   24.66    1.28
  -2  -3  -5   24.57    1.48
   3  -2   0  329.85   10.32
   3  -2   0  333.24   10.55
  -2   0   4  644.04   19.50
   2   0  -4  667.51   19.78
  -2   0   4  644.05   19.95
  -2   0   4  669.61   19.66
  -2   0   4  648.94   19.89
   2   0  -4  649.16   19.58
   2   0  -4  652.44   20.02
  -3  -2  -4   21.73    1.30
   3   2   4   21.63    1.21
  -3  -2  -4   22.43    1.31
  -3  -2  -4   20.89    1.21
   3   2   4   20.26    1.21
   3   2   4   22.77    1.29
   3   2   4   22.34    1.35
   1   2   6   13.59    1.10
   1   2   6   12.45    1.08
   1   2   6   13.50    0.98
   1   2   6   13.91    1.07
  -1  -2  -6   14.35    1.04
  -1  -2  -6   14.94    1.03
  -2  -4   0  171.18    5.83
   3   3   2   15.57    1.20
   3   3   2   14.18    0.76
  -3  -3  -2   14.48    1.12
   3   3   2   14.56    1.06
   3   3   2   15.07    1.13
   3   3   2   14.50    0.92
   3   3   2   16.63    1.21
  -3  -3  -2   13.68    1.15
   2   3  -2   39.23    1.47
   2   3  -2   41.33    1.64
  -2  -3   2   40.58    1.64
   2   3  -2   39.83    2.21
   2  -1   5  760.50   23.24
  -2   1  -5  777.70   23.25
  -2   1  -5  742.90   23.28
   0  -1  -6   24.74    1.47
   0  -1  -6   23.44    1.41
   0   1   6   27.26    1.38
   0  -1  -6   25.61    1.39
   0   1   6   25.83    1.74
   0   1   6   26.38    1.51
   3   0  -2  127.78    4.65
  -3   0   2  123.74    4.38
  -3   0   2  132.46    4.66
   3   0  -2  135.77    4.53
   1   0   6   67.94    2.70
   1   0   6   65.68    2.82
  -1   0  -6   77.76    3.06
   3   3   1   62.72    2.67
   3   3   1   62.00    2.62
   3   3   1   57.86    2.30
   3   3   1   63.67    2.70
   3   3   1   64.31    2.67
  -1   4  -2  477.95   14.67
  -1   4  -2  474.00   14.65
  -3  -2   1    0.58    0.36
  -3  -2   1    0.78    0.85
   3   2  -1    0.08    0.79
   3   2  -1    0.85    0.63
   3   2  -1    0.90    0.39
  -3  -2   1    1.15    0.62
   2  -3  -3  465.87   14.10
   2  -3  -3  455.10   14.59
   3   3   3  168.79    5.99
   3   3   3  171.20    5.45
  -3  -3  -3  161.76    5.57
  -3  -3  -3  161.76    5.69
   3   3   3  169.23    5.81
   3   3   3  167.59    5.68
  -3  -3  -3  171.42    5.71
   3   3   3  168.67    5.77
   3  -2   2  282.46    9.10
  -3   2  -2  265.39    8.07
   3  -2   2  279.47    9.22
  -3   2  -2  281.09    8.95
  -2  -4  -4  579.17   18.06
   2   4   4  591.63   17.70
  -2  -4  -4  589.83   17.53
  -2  -4  -4  574.49   17.64
   2   4   4  577.56   18.27
   3  -1  -2  205.24    6.86
  -3   1   2  180.84    5.87
   3  -1  -2  215.81    7.06
   3  -1  -2  205.69    7.38
  -3   1   2  206.96    6.41
  -3   1   2  206.51    6.63
   3  -2  -1  107.92    3.78
   3  -2  -1   98.37    3.12
   3  -2  -1  102.97    4.14
  -3   2   1  106.12    3.61
  -1  -1   5   33.97    1.63
  -1  -1   5   30.28    1.53
   1   1  -5   30.15    1.54
   1   1  -5   33.60    1.55
   0   2   6   78.06    3.06
   0   2   6   80.89    3.14
   0  -2  -6   79.48    3.07
   0   2   6   83.12    3.35
   0   2   6   79.95    3.19
   0  -2  -6   80.09    3.12
   0  -2  -6   80.70    3.21
   1   4  -2  683.46   20.50
   1   4  -2  636.42   20.40
  -1  -4   2  653.75   19.55
   1   4  -2  661.58   20.33
  -1  -4   2  643.39   20.29
   0  -5  -1  249.78    8.21
   0   5   1  245.98    8.09
  -2   3  -3  651.22   19.61
   2  -3   3  678.63   19.39
   2  -3   3  575.69   19.52
  -2   3  -3  612.44   18.93
  -2   3  -3  661.10   19.44
  -2   2   4   61.09    2.93
  -2   2   4   66.05    2.69
  -2   2   4   65.73    2.50
   0   3  -4  150.73    5.12
   0  -3   4  154.01    5.19
   0  -3   4  152.40    5.46
   0   3  -4  151.99    5.35
   0  -3   4  163.38    5.76
   0   0  -6  140.96    4.85
   0   0   6  129.89    4.76
   0   0  -6  134.62    4.69
   0   0  -6  132.49    4.74
   0   0   6  142.15    5.21
   0  -5  -2  196.81    6.61
   0   5   2  189.51    6.39
   0  -5  -2  196.74    6.48
   0  -5  -2  194.05    6.62
   1  -2   5  236.60    7.50
   1  -2   5  246.64    7.83
   1  -2   5  231.85    8.01
  -3  -1   2    2.15    0.65
   3   1  -2    1.93    0.57
  -3  -1   2    0.84    0.86
  -3  -1   2    1.71    0.47
   3   1  -2    2.95    0.66
  -1  -5  -2   35.11    1.87
  -1  -5  -2   31.56    1.20
   1   5   2   34.39    1.85
  -1  -5  -2   34.29    1.50
   0  -2   5   97.86    3.39
   0  -2   5   87.84    3.87
   0   2  -5   99.03    3.68
   0  -2   5  101.17    3.65
   0   2  -5  103.58    3.76
   0  -2   5   89.71    2.94
   1   4   5  200.04    6.37
   1   4   5  193.63    6.18
  -1  -4  -5  186.48    6.08
   1   4   5  192.15    6.58
  -2  -1   4  428.64   12.99
  -2  -1   4  416.90   13.15
   2   1  -4  449.27   13.82
  -2  -1   4  419.23   12.84
   2   1  -4  441.94   13.59
  -2  -1  -6  155.32    5.69
  -2  -1  -6  167.63    5.59
   2   1   6  159.72    5.45
  -2  -1  -6  166.31    5.65
   2   1   6  157.75    5.62
  -1   3  -4  599.00   18.18
   1  -3   4  596.67   19.07
   1  -3   4  613.26   18.53
   1  -3   4  626.41   18.87
   1   5   1  105.28    3.96
   1   5   1  101.64    3.98
  -1  -5  -1   99.93    3.88
  -2   4   0  174.53    5.69
  -2   4   0  186.31    6.22
  -2   4   0  183.11    6.13
   3   3   0   75.90    3.17
   3   3   0   79.78    3.12
  -3  -3   0   82.60    3.32
   3   3   0   76.14    3.19
   3   3   0   75.50    3.11
  -3  -3   0   72.13    2.50
  -3  -3   0   85.26    3.11
   2   2   6  115.64    3.96
  -2  -2  -6  107.10    3.97
  -2  -2  -6  104.22    4.09
   2   2   6  109.96    4.02
  -2  -2  -6  114.83    4.04
   0   5   0  796.11   24.40
   0   5   0  797.07   24.34
   0  -5   0  777.92   23.83
   3  -1   4  737.31   22.75
  -3   1  -4  748.80   22.94
  -3   1  -4  738.33   22.64
  -3   1  -4  738.67   22.31
   1  -3  -5   97.37    3.74
  -1   3   5  102.04    3.80
  -1   3   5  101.42    3.83
   1  -3  -5  103.65    3.67
   1   3   6    1.64    0.62
  -1  -3  -6    0.48    0.55
  -1  -3  -6    1.14    0.58
   1   3   6    1.59    0.63
  -2   4   1   93.04    3.65
  -2   4   1   95.62    3.48
  -2   4   1   88.51    3.07
   2  -4  -1   91.40    3.12
  -1  -5  -3   29.49    1.65
   1   5   3   30.62    1.71
  -1  -5  -3   24.37    1.29
  -1   4   4   69.87    2.82
  -1   4   4   68.16    2.85
   1  -4  -4   71.28    2.69
  -1   4   4   66.73    2.60
   1  -4  -4   62.99    2.73
  -3  -1  -5   71.09    2.95
  -3  -1  -5   70.97    2.74
   3   1   5   69.70    2.86
   3   1   5   72.15    2.73
   3   1   5   71.23    2.93
   3   1   5   73.72    2.89
  -3  -1  -5   69.08    2.87
   3   1   5   66.62    3.07
   3   3   4   34.04    1.75
   3   3   4   34.54    1.52
  -3  -3  -4   36.38    1.78
   3   3   4   32.60    1.71
  -3  -3  -4   36.33    1.82
  -3  -3  -4   32.75    1.79
   3   3   4   34.13    1.27
   0   4   5   66.29    2.83
   0   4   5   63.76    2.41
   0   4   5   63.01    2.61
   0  -4  -5   59.27    2.36
   0  -4  -5   63.88    2.54
   0   4   5   65.91    2.64
   0  -4  -5   63.28    2.63
   2   4  -1  133.95    5.13
   2   4  -1  142.65    4.72
  -2  -4   1  145.55    5.20
   0  -5  -3  177.91    5.99
   0   5   3  180.90    6.14
   0  -5  -3  179.27    6.12
  -2   0  -6  282.69    9.30
   2   0   6  322.08   10.38
  -3   2  -3  584.78   18.31
   3  -2   3  588.06   18.07
   3  -2   3  572.31   18.08
   2  -4   1  114.70    3.86
  -2   4  -1  110.21    4.19
  -2   4  -1  112.89    3.81
  -2   4  -1  115.96    4.23
   1   5   0  150.68    5.46
  -1  -5   0  156.50    5.57
   1   5   0  155.16    5.50
  -3  -2  -5   88.02    3.38
   3   2   5   89.01    3.53
  -3  -2  -5   93.15    3.51
   3   2   5   89.73    3.49
  -3  -2  -5   86.86    3.27
   3   2   5   88.25    3.35
   3   2   5   94.62    3.73
   3   2   5   89.64    3.35
   0   4  -3  163.09    5.54
   0  -4   3  173.25    5.73
   0  -4   3  175.58    6.22
   0   4  -3  154.20    4.99
   0   4  -3  165.52    5.64
   1  -1   6  471.23   14.89
   1  -1   6  465.64   14.59
  -1   1  -6  472.56   13.52
   1  -1   6  487.61   14.81
  -1   1  -6  385.23   13.38
  -3   2   2  352.20   10.68
  -3   2   2  347.35   11.17
   3  -2  -2  365.48   11.58
   3  -2  -2  363.11   12.02
  -3   2   2  344.20   11.35
   0  -3  -6   74.95    2.96
   0   3   6   73.88    3.04
   0  -3  -6   68.53    2.84
   0   3   6   71.36    2.89
   0  -3  -6   72.54    3.01
   0  -3  -6   70.80    2.89
  -2   4   2   38.70    1.53
   2  -4  -2   38.37    1.60
  -3   0  -5  794.87   24.67
   3   0   5  796.31   24.53
  -3   0  -5  811.10   24.36
   3   0   5  829.20   24.75
  -3   0  -5  809.61   24.86
  -3   0  -5  800.92   24.64
   3   0   5  783.69   24.53
   1  -5  -1    4.06    0.80
  -1   5   1    5.45    0.73
  -2  -4  -5  233.67    7.59
  -2  -4  -5  238.56    7.47
   2   4   5  241.04    7.64
  -2  -4  -5  242.17    8.03
   2   4   5  245.94    8.18
   0   1  -6   11.67    1.03
   0   1  -6   11.27    1.02
   0  -1   6   10.09    0.94
   0  -1   6    7.81    0.88
   1   3  -4  104.57    3.98
   1   3  -4  108.14    4.42
  -1  -3   4  107.72    4.46
   1   3  -4  110.93    3.79
  -3  -2   2  102.24    3.50
   3   2  -2  104.72    3.64
  -3  -2   2   92.77    4.11
  -3  -2   2  103.05    3.73
   3   2  -2   95.60    3.44
  -1   4  -3  366.65   11.24
  -1   4  -3  354.41   11.34
   0  -5   1   26.03    1.61
   0   5  -1   28.81    1.64
   0  -5   1   29.97    1.62
   2   3   6    1.25    0.53
  -2  -3  -6    1.76    0.72
  -2  -3  -6    0.99    0.63
  -2  -3  -6    1.22    0.74
   3   0  -3   23.36    1.31
  -3   0   3   18.87    0.78
   3   0  -3   22.58    1.33
   3   0  -3   16.65    1.55
  -3   0   3   24.22    1.39
  -3   0   3   22.31    1.24
  -3   3   0  602.82   18.52
   1   5   4  126.52    4.38
  -1  -5  -4  119.46    4.16
  -1  -5  -4  125.15    4.55
   1   5   4  129.35    4.70
   1  -5   0    8.13    0.90
  -1   5   0   10.44    0.94
  -2   2  -5 2016.11   62.31
   2  -2   5 2152.33   63.56
   2  -2   5 2098.15   63.37
  -2   2  -5 2141.45   62.24
   1  -5  -2   26.47    1.45
   1  -5  -2   26.60    1.54
  -1   5   2   25.81    1.39
   1  -1  -6 2825.69   83.88
   1  -1  -6 2781.47   83.34
  -1   1   6 2728.77   81.33
   2  -3  -4  181.14    6.37
  -2   3   4  188.85    6.63
  -2   3   4  189.46    6.34
   2  -3  -4  182.83    5.95
   2   3  -3    8.48    0.59
   2   3  -3    8.63    0.85
  -2  -3   3    9.20    0.77
   2   3  -3    6.60    0.59
   2   3  -3    7.05    1.18
   3  -3   1  213.55    7.25
  -3   3  -1  205.07    7.22
  -3   3  -1  212.62    7.04
   3  -3   1  211.21    7.08
   3  -1  -3   80.61    3.62
   3  -1  -3   86.90    3.26
  -3   1   3   85.28    3.42
  -3   1   3   83.37    3.25
  -3   1   3   82.78    2.77
  -3   1   3   80.50    3.68
  -3  -3   1    5.41    1.08
  -3  -3   1    7.27    0.83
  -3  -3   1    6.89    0.56
   3   3  -1    7.36    0.88
  -2  -5  -2 2046.28   58.84
  -2  -5  -2 1951.69   58.65
  -1  -2   5   48.93    2.19
  -1  -2   5   51.00    2.19
   1   2  -5   55.33    2.30
  -1  -2   5   47.84    2.73
   1   2  -5   53.11    2.22
   3   4   2  613.09   18.38
  -3  -4  -2  602.61   18.82
   3   4   2  619.41   18.24
   3   4   2  561.69   17.55
   3   4   2  596.85   18.14
   3   4   2  628.60   18.41
   3   4   2  587.69   18.39
   0  -5  -4    0.33    0.63
   0  -5  -4    0.60    0.26
   0   5   4    0.29    0.58
   0   5   4   -0.31    0.58
   0  -5  -4   -0.22    0.60
   2   2  -4    8.26    0.77
  -2  -2   4    9.92    0.90
  -2  -2   4    7.59    0.63
   2   2  -4    7.69    0.76
  -2   4  -2  191.17    6.46
   2  -4   2  201.44    6.35
  -2   4  -2  178.70    6.30
   2  -4   2  193.54    6.84
  -2   1   5 1032.93   32.74
  -2   1   5 1077.99   33.11
  -2   1   5 1114.10   32.48
   2  -1  -5 1028.06   31.58
   2  -1  -5 1079.37   31.83
  -2   3  -4  171.97    5.81
  -2   3  -4  168.07    5.42
   2  -3   4  171.72    5.78
   3  -3  -1   24.77    0.94
  -3   3   1   28.38    1.46
   3  -3  -1   30.07    1.66
   3   4   3 2483.55   74.85
   3   4   3 2502.92   74.89
   3   4   3 2518.18   74.72
   3   4   3 2456.98   74.71
  -3  -4  -3 2435.55   73.04
   3   4   3 2537.79   74.20
   3   4   3 2455.98   74.95
  -3  -4  -3 2445.65   73.02
  -1   2   6 1102.49   33.77
   1  -2  -6 1074.52   33.20
  -1   2   6 1124.81   33.54
   1  -2  -6 1090.43   32.85
  -1   0   6  807.73   24.55
   1   0  -6  715.56   22.95
  -1   0   6  805.20   24.69
   1   0  -6  797.76   23.62
   1   0  -6  718.09   22.70
   1   0  -6  803.49   22.96
   2   5   3 1212.30   36.80
  -2  -5  -3 1236.55   35.91
  -2  -5  -3 1223.07   35.95
  -3  -3  -5   89.92    3.53
   3   3   5   89.11    3.61
   3   3   5   95.86    3.44
  -3  -3  -5   93.81    3.63
   3   3   5   97.18    3.70
   3   3   5   96.02    3.76
   3   3   5   96.56    3.21
  -3  -3  -5   97.78    3.70
   2   5   1  769.72   23.46
  -2  -5  -1  733.74   22.34
  -1  -4   3   26.83    1.19
  -1  -4   3   23.25    1.79
   1   4  -3   24.69    0.97
   1   4  -3   29.23    1.63
   1   5  -1  288.31    9.54
  -1  -5   1  293.95    9.45
  -1  -5   1  284.16    8.79
  -2   0   5 1552.82   45.25
   2   0  -5 1529.83   45.71
   2   0  -5 1562.65   46.17
  -2   0   5 1548.36   45.40
   2   0  -5 1515.19   46.84
  -2   0   5 1468.99   45.06
  -2   0   5 1453.53   45.78
   2   0  -5 1538.39   45.93
  -2   0   5 1512.67   44.93
  -4  -1  -2   72.70    2.61
  -4  -1  -2   72.47    3.29
   4   1   2   61.54    3.10
   4   1   2   75.30    2.78
   4   1   2   72.32    2.72
   4   1   2   75.02    2.59
   4   1   2   71.38    2.75
   4   1   2   72.34    2.63
   3   4   1 1157.69   32.93
  -3  -4  -1 1158.26   35.20
   3   4   1 1152.87   33.05
   3   4   1 1045.19   32.08
   3   4   1 1139.50   33.09
   3   4   1 1137.95   32.93
  -3  -1   3   41.28    1.95
   3   1  -3   41.91    1.46
   3   1  -3   40.20    1.86
   3   1  -3   38.82    1.83
  -3  -1   3   38.76    1.79
   2  -1   6  525.92   17.33
   2  -1   6  588.12   17.34
   4   0   1   91.39    3.13
  -4   0  -1   92.32    3.28
  -4   0  -1   96.81    3.94
   4   0   1   95.65    3.34
   4   0   1   83.46    3.71
  -4   0  -1   92.29    3.12
  -2   4   3  374.11   11.52
   2  -4  -3  370.49   12.04
   2  -4  -3  376.36   11.59
  -4  -1  -1  139.43    5.42
   4   1   1  146.16    5.69
   4   1   1  151.30    5.44
  -4  -1  -1  147.94    4.65
   4   1   1  144.08    5.05
   4   1   1  146.31    4.83
   4   1   1  147.87    4.98
   4   1   1  143.75    4.63
   4   1   1  151.59    4.88
   1   1   7   31.96    2.00
   1   1   7   37.73    1.83
  -1  -1  -7   32.26    1.85
  -1  -1  -7   32.76    1.80
   1   1   7   31.56    1.87
   4   0   2    0.58    0.38
  -4   0  -2    0.44    0.54
   4   0   2    0.77    0.44
  -4   0  -2    1.39    0.47
  -3   3  -2  340.09   11.12
   3  -3   2  337.64   10.13
   3  -3   2  335.54   10.06
  -1   5  -1    4.81    0.89
   1  -5   1    5.66    0.79
  -1   5   3    2.05    0.60
   1  -5  -3    2.74    0.73
   1  -5  -3    0.87    0.58
   1  -5  -3    1.66    0.64
   1   4   6  126.69    4.65
   1   4   6  131.21    4.42
  -1  -4  -6  126.58    4.41
   1   4   6  126.86    4.51
   1   2   7   29.02    1.61
   1   2   7   27.63    1.66
   1   2   7   30.95    1.84
  -1  -2  -7   30.41    1.67
   1   2   7   33.04    1.84
  -1  -2  -7   32.77    1.63
  -1  -2  -7   24.71    1.71
   2   4  -2    2.81    0.54
   2   4  -2    2.77    0.38
   2   4  -2    1.84    1.00
   2   4  -2    2.16    0.91
  -3   2  -4  164.74    5.83
  -3   2  -4  175.04    6.06
   3  -2   4  169.17    5.99
   3  -2   4  171.06    6.08
  -3   1  -5  211.18    7.27
   3  -1   5  209.54    7.21
  -3   1  -5  208.43    7.43
  -3   1  -5  225.59    7.01
  -2   2   5  383.87   12.36
  -2   2   5  395.99   11.85
   2  -2  -5  375.43   11.78
  -2   2   5  388.23   12.14
  -2   2   5  365.69   12.58
   4   1   3  176.12    6.06
   4   1   3  183.60    5.92
  -4  -1  -3  169.31    5.60
  -4  -1  -3  165.51    5.60
   4   1   3  175.67    5.90
   4   1   3  183.74    5.89
  -3   2   3  241.88    8.07
   3  -2  -3  249.97    8.69
   3  -2  -3  252.83    8.30
  -3   2   3  256.68    8.29
  -3   2   3  261.75    7.70
  -3   2   3  229.61    7.45
   1  -4  -5   26.90    1.53
  -1   4   5   27.17    1.66
  -1   4   5   34.45    1.77
  -1   4   5   26.54    1.60
   1  -4  -5   30.04    1.65
   3   4   4  353.57   10.92
   3   4   4  373.81   11.18
   3   4   4  378.10   11.76
  -3  -4  -4  374.13   12.12
  -3  -4  -4  379.11   12.10
   3   4   4  372.27   11.68
  -2  -5  -4 1172.67   34.64
   2   5   4 1142.00   32.69
  -2  -5  -4 1147.77   33.96
  -2  -5  -4 1111.98   33.99
   2   5   4 1152.78   31.97
   4   0   0   12.10    0.98
  -4   0   0   15.07    1.32
   4   0   0   11.66    0.82
  -4   0   0   10.26    0.52
   4   0   0   13.21    1.25
   4   2   2  204.15    6.57
   4   2   2  220.65    6.97
   4   2   2  206.47    7.52
  -4  -2  -2  211.84    6.73
  -4  -2  -2  206.42    7.37
   4   2   2  218.11    7.03
   4   2   2  211.60    6.74
   4   2   2  208.22    7.39
   4   2   2  215.63    7.05
  -4   0  -3   13.23    0.85
   4   0   3   12.63    0.75
   4   0   3   12.98    0.80
  -4   0  -3   13.32    0.99
  -4   0  -3   12.24    1.08
  -3  -1  -6  252.79    8.08
   3   1   6  245.59    8.43
   3   1   6  253.36    8.63
  -3  -1  -6  238.86    8.24
   3   1   6  261.14    8.40
  -3  -1  -6  246.60    8.31
   1  -3   5  168.62    5.60
   1  -3   5  154.03    5.79
   1  -3   5  158.68    5.17
  -1   3  -5  157.93    5.16
   0   3  -5  290.58    9.35
   0  -3   5  287.18    9.56
   0  -3   5  290.71    9.25
   0  -3   5  290.10    9.90
   3  -3  -2  537.05   16.26
  -3   3   2  552.09   16.85
   3  -3  -2  543.26   16.90
   3  -3  -2  553.05   17.29
   4   1   0   63.73    2.47
   4   1   0   61.97    2.23
   4   1   0   62.08    2.81
   4   1   0   58.89    2.34
  -4  -1   0   60.32    2.82
   4   1   0   59.00    3.10
   0   1   7  346.62   11.20
   0  -1  -7  356.81   10.97
   0  -1  -7  342.95   11.09
   0  -1  -7  329.64   10.99
   0   1   7  346.98   11.56
  -2  -5   0  249.91    8.21
   2   5   0  251.22    8.33
   1   0   7  553.06   16.61
  -1   0  -7  539.39   16.50
   1   0   7  529.46   16.28
   1   0   7  510.89   16.08
   1   0   7  486.70   16.06
  -1   0  -7  513.31   16.56
   0   5  -2  276.19    8.79
   0   5  -2  252.71    8.86
   0  -5   2  283.08    9.40
   3   2   6  485.71   15.23
   3   2   6  480.24   15.01
   3   2   6  487.64   15.02
  -3  -2  -6  464.93   14.81
  -3  -2  -6  469.46   14.95
   3   2   6  466.59   15.36
  -3  -2  -6  483.75   14.85
   0  -4  -6  158.56    5.54
   0   4   6  155.42    5.64
   0   4   6  165.77    5.71
   0   4   6  174.66    5.96
   0  -4  -6  161.09    5.65
   0  -4  -6  163.34    5.48
  -1  -5  -5  137.04    4.64
   1   5   5  131.04    4.50
   1   5   5  124.94    4.70
  -1  -5  -5  131.64    4.94
  -4   1  -1  269.19    8.94
   4  -1   1  289.45    8.91
  -4   1  -1  292.74    8.82
   4  -1   1  293.88    9.07
   4  -1   1  271.80    8.45
   3   4   0  861.91   25.62
  -3  -4   0  722.63   22.40
  -3  -4   0  863.44   23.37
   3   4   0  850.16   25.83
   3   4   0  795.10   25.80
   4   2   1  265.81    8.94
  -4  -2  -1  266.49    9.02
   4   2   1  265.46    9.17
   4   2   1  259.60    8.70
   4   2   1  263.59    8.18
   4   2   1  263.58    8.62
   4   2   1  266.37    8.43
   4   2   1  265.82    8.17
   4   2   3  172.07    6.93
  -4  -2  -3  198.47    7.08
   4   2   3  202.52    6.60
  -4  -2  -3  197.87    6.63
   4   2   3  204.83    6.64
   4   2   3  198.53    6.65
   4   2   3  202.63    6.50
  -4  -2  -3  198.52    6.51
   0  -2  -7  429.71   13.47
   0   2   7  432.71   13.56
   0  -2  -7  424.53   13.49
   0  -2  -7  423.18   13.57
   0   2   7  434.80   13.94
   0   2   7  423.06   13.61
   0   2   7  432.42   13.71
   1  -2   6  389.18   12.68
  -1   2  -6  385.23   11.98
   1  -2   6  386.18   12.07
  -1   2  -6  361.19   11.96
   1  -2   6  401.14   12.43
  -2  -1   5  677.56   20.59
   2   1  -5  672.54   20.56
  -2  -1   5  673.57   20.62
   2   1  -5  680.49   20.76
  -2  -1   5  692.28   20.93
  -2  -1  -7  532.21   15.87
   2   1   7  549.11   16.55
  -2  -1  -7  527.17   15.95
   2   1   7  512.18   16.72
   1  -3  -6  427.14   13.66
  -1   3   6  442.01   13.98
   1  -3  -6  437.26   13.59
   1  -3  -6  439.89   13.73
   1  -3  -6  425.95   13.92
  -1   3   6  437.37   13.92
  -1  -1   6  160.63    5.64
   1   1  -6  166.74    5.78
   1   1  -6  171.86    5.77
  -1  -1   6  170.11    5.77
   4  -1   2  296.43    8.82
   4  -1   2  280.02    8.70
  -4   1  -2  290.49    9.40
  -4   1  -2  296.36    9.28
  -2  -2  -7   29.90    1.71
   2   2   7   33.82    1.89
  -2  -2  -7   33.14    1.77
   2   2   7   30.84    1.62
   2   2   7   30.68    1.67
  -2  -4  -6    4.21    0.63
  -2  -4  -6    4.28    0.73
   2   4   6    4.38    0.63
  -2  -4  -6    3.16    0.86
  -1  -3  -7    0.29    0.59
   1   3   7    0.37    0.62
  -1  -3  -7    0.62    0.58
   1   3   7    1.23    0.74
   1   3   7    0.37    0.58
   1   3   7    0.84    0.88
   0   2  -6  335.24   10.76
   0  -2   6  337.58   10.14
   0  -2   6  327.71   10.38
   0   2  -6  336.06   10.82
   0  -2   6  305.82    9.61
  -2   4  -3   87.12    3.06
  -2   4  -3   89.50    3.42
   2  -4   3   74.37    3.26
  -2   4  -3   85.88    3.62
  -4   1   0  139.96    4.42
  -4   1   0  135.56    5.24
   4  -1   0  137.05    4.37
   4  -1   0  124.53    4.14
   4  -1   0  133.69    4.63
  -4   1   0  134.94    4.52
   0  -4   4    9.14    0.80
   0  -4   4    7.80    1.27
   0   4  -4    7.43    1.03
   0   4  -4    7.35    0.46
   3  -3   3   12.97    1.21
   3  -3   3   12.20    1.15
  -3   3  -3   11.77    1.23
  -3   0  -6 1000.86   29.78
   3   0   6 1003.78   29.29
  -3   0  -6  959.22   30.07
  -3   0  -6  983.60   30.06
   3   0   6  985.37   29.42
  -4  -1  -4  270.76    8.54
  -4  -1  -4  275.76    8.90
   4   1   4  276.07    8.86
  -4  -1  -4  265.24    8.67
   4   1   4  265.78    8.59
  -4  -1  -4  270.87    8.76
   4   1   4  269.86    8.72
  -3  -3   2  216.01    7.61
  -3  -3   2  220.98    7.07
  -3  -3   2  208.57    6.84
   3   3  -2  205.75    6.77
   0   0   7  321.53   10.81
   0   0   7  315.28   10.33
   0   0  -7  328.66   10.57
   0   0  -7  322.39   10.47
   0   0  -7  324.78   10.42
   0  -5  -5    4.44    0.77
   0   5   5    1.63    0.72
   0   5   5    2.69    0.76
   0   5   5    3.05    0.49
   0   5   5    3.37    0.72
   0  -5  -5    2.68    0.50
   0  -5  -5    3.89    0.81
   3   2  -3  148.23    4.75
  -3  -2   3  149.59    5.65
   3   2  -3  150.89    5.04
   3   2  -3  146.90    5.05
  -3  -2   3  143.84    5.03
   3   2  -3  150.05    4.82
  -3  -2   3  144.59    4.95
  -1   5  -2   41.48    1.90
  -1   5  -2   40.20    1.90
   1  -4   4  727.22   21.90
  -1   4  -4  686.72   21.23
   1  -4   4  693.76   22.18
  -1   4  -4  698.14   21.03
   1  -5  -4  216.36    7.02
   1  -5  -4  219.42    7.20
   1  -5  -4  216.48    7.32
  -1   5   4  214.29    7.37
  -1   5   4  220.29    7.16
  -4   0   1   95.33    3.53
   4   0  -1   98.48    3.56
  -4   0   1   94.29    3.91
   4   0  -1   95.79    3.87
   1   5  -2  140.87    5.34
  -1  -5   2  150.39    4.84
   1   5  -2  149.18    5.32
  -1  -5   2  150.68    5.62
   4   2   0   86.86    3.47
  -4  -2   0   88.84    3.12
   4   2   0   87.34    3.95
  -4  -2   0   93.59    3.75
   4   2   0   92.45    3.08
   4   2   0   88.85    2.90
   4   2   0   96.54    3.71
  -4  -2  -4  120.40    4.42
   4   2   4  126.78    4.43
   4   2   4  117.39    4.23
  -4  -2  -4  125.18    4.41
  -4  -2  -4  122.70    4.35
   4   2   4  112.11    4.22
   4   2   4  116.13    4.23
   2   0   7  331.95   10.75
  -2   0  -7  279.16    9.28
  -4   1  -3  153.49    5.21
  -4   1  -3  150.64    5.30
  -4   1  -3  155.15    4.87
   4  -1   3  152.33    5.68
  -4   1  -3  139.93    5.67
   3   4   5   52.32    2.06
  -3  -4  -5   53.56    2.47
   3   4   5   52.69    2.45
  -3  -4  -5   51.52    2.46
   3   4   5   49.74    1.85
   3   4   5   51.54    2.43
  -3  -4  -5   52.04    2.44
  -3  -4  -5   49.20    2.10
  -4   0  -4   89.81    3.54
   4   0   4  101.60    3.40
  -4   0  -4   88.81    3.41
   4   0   4   89.29    4.01
  -4   0  -4   89.29    3.88
  -4   0  -4   90.14    3.22
   4   0   4   95.87    3.61
   2  -4  -4  348.33   11.41
  -2   4   4  358.21   11.49
   2  -4  -4  355.59   11.05
   2  -3  -5    7.96    0.84
  -2   3   5    6.30    1.13
  -2   3   5    4.78    0.72
  -3  -3  -6   32.72    1.71
  -3  -3  -6   32.16    1.81
   3   3   6   30.47    1.99
   3   3   6   35.35    1.53
   3   3   6   35.49    1.70
   3   3   6   35.21    1.91
  -3  -3  -6   34.59    1.93
   3   3   6   31.67    1.79
  -3   0   4   80.33    3.24
   3   0  -4   77.29    2.66
  -3   0   4   77.99    3.17
  -3   0   4   79.88    2.69
   3   0  -4   80.15    3.10
  -3   1   4    6.62    0.58
   3  -1  -4    7.63    0.95
  -3   1   4    7.84    0.92
  -3   1   4    6.25    1.22
  -3   1   4    7.18    0.95
  -2  -5  -5 1234.32   36.56
   2   5   5 1246.46   37.36
  -2  -5  -5 1280.72   37.09
  -2  -5  -5 1179.48   36.48
   2   5   5 1252.28   38.03
  -2   5   1  247.52    8.06
  -2   5   1  234.87    7.60
   2  -5  -1  239.59    8.09
  -2  -3  -7   28.13    1.53
  -2  -3  -7   21.39    1.61
  -2  -3  -7   25.13    1.61
   2   3   7   23.63    1.65
   2   3   7   28.68    1.47
   4   1  -1  206.61    6.44
  -4  -1   1  205.05    7.21
  -4  -1   1  207.29    6.74
   4   1  -1  212.12    6.74
   4   1  -1  203.78    7.12
   0   3   7  739.88   22.90
   0  -3  -7  751.90   22.72
   0  -3  -7  746.35   22.94
   0  -3  -7  721.21   22.74
   0   3   7  744.33   22.77
   0   3   7  733.65   22.74
  -2   5   0   35.98    1.96
  -2   5   0   34.67    1.58
   2  -5   0   35.31    1.68
  -2   5   0   35.78    1.98
   0   6   2  444.32   14.10
   0  -6  -2  460.30   14.23
   0  -6  -2  448.75   14.40
   0  -6  -2  451.10   14.37
  -1  -6  -2   44.07    1.88
  -1  -6  -2   41.61    2.24
   1   6   2   42.47    2.26
  -1  -6  -2   40.52    1.53
   0  -6  -1  112.05    4.30
   0   6   1  115.37    4.39
   4   3   2   99.77    3.75
   4   3   2  104.15    3.99
  -4  -3  -2  102.62    4.19
   4   3   2   96.82    3.70
   4   3   2   95.32    3.96
   4   3   2   96.45    3.36
   4   3   2   90.47    2.91
   2   5  -1   47.19    2.53
   2   5  -1   54.41    2.54
   4  -1  -1  703.47   21.57
  -4   1   1  694.27   20.87
  -4   1   1  701.62   21.82
   4  -1  -1  716.79   22.34
   4  -1  -1  755.17   21.94
   4  -1  -1  684.20   21.09
   2   3  -4   10.37    0.93
  -2  -3   4    8.11    0.57
   2   3  -4    8.23    1.40
   2   3  -4    9.63    0.77
  -2  -3   4   10.31    0.91
   3  -3  -3  989.60   30.47
  -3   3   3  993.49   29.63
  -3   3   3  955.23   30.17
  -3   3   3 1010.89   30.39
   3  -3  -3  963.78   30.08
   3  -3  -3  995.58   29.54
  -2   2  -6   15.46    1.17
   2  -2   6   12.97    1.07
   2  -2   6   14.67    1.23
  -2   3  -5   75.97    2.98
   2  -3   5   84.35    3.35
  -2   3  -5   70.17    3.09
   2  -3   5   78.91    3.08
   4   3   3  207.57    6.46
   4   3   3  202.66    6.66
  -4  -3  -3  214.00    7.10
   4   3   3  208.62    6.69
  -4  -3  -3  208.68    7.07
   4   3   3  183.68    5.89
  -4  -3  -3  202.16    6.85
   4   3   3  209.48    7.04
  -1   1  -7  325.89   10.88
   1  -1   7  311.53   10.29
   1  -1   7  340.19   10.57
  -1   1  -7  341.94   10.88
   1  -1   7  336.00   10.70
   1   3  -5   14.01    1.05
   1   3  -5   11.18    1.11
  -1  -3   5   11.88    1.55
  -1  -3   5   13.47    1.06
  -1  -3   5   13.24    1.15
   1   3  -5   14.88    1.14
   1   3  -5   13.91    1.52
  -3  -4   1  750.45   24.03
  -3  -4   1  781.31   23.24
   3   4  -1  767.92   23.46
   1   6   1   85.38    3.61
   1   6   1   87.13    3.57
  -1  -6  -1   88.30    3.68
  -1  -6  -3    2.86    0.87
  -1  -6  -3    4.62    0.69
   1   6   3    5.13    0.91
  -1  -6  -3    4.31    0.94
  -3   4   0   78.73    3.01
  -3   4   0   68.24    2.27
  -3   4   0   73.13    3.19
  -3   2  -5   10.14    1.14
   3  -2   5   10.38    1.15
  -3   2  -5    8.91    1.00
   3  -2   5   11.10    1.22
   2  -5  -2   29.68    1.72
  -2   5   2   26.62    1.30
   2  -5  -2   23.62    1.32
   4  -2   1  107.41    3.82
   4  -2   1   98.13    4.14
   0  -6  -3  531.04   15.55
   0  -6  -3  538.14   15.60
   0  -6  -3  524.77   15.37
   0   6   3  534.30   16.74
  -4  -3  -1   13.84    1.28
   4   3   1   12.14    1.17
   4   3   1   12.25    0.81
   4   3   1   13.22    1.29
   4   3   1   14.09    0.62
   4   3   1   11.50    1.06
   4   3   1   12.87    1.35
  -1  -4   4   34.28    2.25
   1   4  -4   33.92    1.88
   1   4  -4   33.51    1.58
   2   4  -3    0.84    0.66
   2   4  -3    0.75    0.38
   2   4  -3    0.31    0.35
   2   4  -3    0.42    0.86
  -2  -4   3    0.05    0.47
  -2   5  -1   18.53    1.14
   2  -5   1   17.66    1.15
  -2   5  -1   19.51    1.45
  -2   5  -1   19.46    1.36
   3   1  -4  577.53   17.67
  -3  -1   4  565.65   17.44
   3   1  -4  605.56   18.12
  -3  -1   4  558.66   17.42
  -3   4  -1    9.56    0.58
  -3   4  -1   12.63    1.18
   3  -4   1   12.78    0.76
  -3   4  -1    9.64    1.19
  -3   4   1    2.30    0.72
   3  -2  -4  400.31   12.85
  -3   2   4  412.90   13.17
  -3   2   4  407.95   12.56
   3  -2  -4  408.61   13.28
  -3   2   4  403.41   12.99
  -3   2   4  398.32   13.41
   4  -2   0    0.83    0.51
   4  -2   0   -0.41    0.79
   0   6   0  597.83   18.54
   0   6   0  591.21   18.60
   0  -6   0  580.89   18.33
   0  -6   0  589.95   18.10
  -3  -5  -2  182.28    6.53
   3   5   2  184.67    6.60
   3   5   2  193.44    6.54
   3   5   2  175.04    6.60
   0  -1   7  112.48    4.16
   0   1  -7  114.99    4.24
   0   1  -7  108.77    4.25
   0  -1   7  103.91    4.10
  -2  -2   5  342.21   10.72
  -2  -2   5  329.43   10.29
   2   2  -5  336.56   10.60
  -3   1  -6  101.69    4.08
  -3   1  -6   98.79    4.01
  -3   1  -6  106.54    3.76
  -3   1  -6   99.27    3.99
   3  -1   6   99.33    3.98
   4  -2   2    0.53    0.80
  -4   2  -2    0.69    0.93
   4  -2   2    0.60    0.66
   3   5   3 1678.57   49.82
   3   5   3 1603.06   50.23
   3   5   3 1650.39   50.06
  -3  -5  -3 1678.40   51.09
  -3  -5  -3 1704.91   51.10
   3   5   3 1711.38   50.23
  -4  -1  -5  110.36    4.29
   4   1   5  109.55    4.56
   4   1   5  111.11    4.20
   4   1   5  114.91    3.99
  -4  -1  -5  103.54    4.52
  -4  -1  -5  117.93    4.07
   4   1   5  109.08    4.16
  -4  -1  -5  113.46    4.20
  -4  -1  -5  111.77    3.87
   0   5  -3  519.53   15.52
   0  -5   3  520.68   16.02
   0   5  -3  506.12   16.21
   0   5  -3  495.06   16.04
   0  -5   3  519.31   16.59
  -1  -5  -6  212.61    7.06
   1   5   6  227.36    7.35
   1   5   6  216.33    7.54
  -1  -5  -6  217.70    7.41
   1   4   7   74.66    3.09
  -1  -4  -7   78.69    2.99
   1   4   7   78.27    3.10
  -1  -4  -7   68.80    3.12
   1   4   7   79.62    3.21
   1   4   7   75.01    3.34
   4   3   4    2.02    0.63
   4   3   4   -0.10    1.00
   4   3   4    0.78    0.60
  -4  -3  -4    0.82    0.70
   4   3   4    1.39    0.71
  -4  -3  -4    0.94    0.61
  -4  -3  -4    0.65    0.68
   4   3   4    0.40    0.54
   1  -1  -7 1109.86   34.30
   1  -1  -7 1111.46   33.71
  -1   1   7 1108.44   33.63
  -2   1   6  448.68   14.82
  -2   1   6  441.40   14.45
  -2   1   6  469.64   14.19
   2  -1  -6  446.31   13.79
   2  -1  -6  435.58   13.96
   2  -1  -6  441.15   14.64
  -4   1  -4   28.97    1.57
  -4   1  -4   25.55    1.57
  -4   1  -4   25.48    1.21
  -4   1  -4   25.85    1.82
   4  -1   4   27.84    1.86
  -1   4   6   35.54    1.92
   1  -4  -6   33.42    1.97
   1  -4  -6   34.91    1.88
  -1   4   6   36.76    1.98
  -1   4   6   36.25    1.99
   1  -4  -6   35.58    1.84
  -1  -2   6    3.62    0.32
  -1  -2   6    4.13    0.79
   1   2  -6    3.34    0.74
   1   2  -6    6.00    0.87
  -1  -2   6    4.14    0.80
  -3   3  -4    2.16    0.84
   3  -3   4    3.16    0.86
   3  -3   4    2.62    0.85
  -4  -2   1   10.37    0.82
   4   2  -1   10.43    1.13
  -4  -2   1   11.30    1.50
  -4  -2   1   11.89    1.16
   4   2  -1   11.39    0.84
   4   2  -1   11.99    1.40
  -4  -2  -5  376.52   12.18
  -4  -2  -5  381.44   12.01
  -4  -2  -5  386.87   12.14
   4   2   5  370.34   11.92
   4   2   5  374.62   12.02
   4   2   5  377.58   11.97
   4   2   5  383.06   12.17
  -1  -6   0  416.30   13.44
   1   6   0  402.42   13.21
   1   6   0  413.72   13.20
  -1  -6  -4    1.00    0.82
   1   6   4    1.31    0.74
  -1  -6  -4    0.86    0.58
   1  -2  -7   58.53    3.05
  -1   2   7   60.09    2.51
  -1   2   7   63.78    2.73
   1  -2  -7   65.09    2.80
   4   0  -2  212.74    7.03
  -4   0   2  213.10    6.97
  -4   0   2  200.83    7.25
   4   0  -2  211.31    7.29
  -2   1  -7   24.24    1.64
   2  -1   7   23.19    1.49
   2  -1   7   26.78    1.64
   3   5   1  238.71    8.54
  -3  -5  -1  263.38    8.49
  -3  -5  -1  250.07    7.64
   3   5   1  256.68    8.35
  -2   4  -4   11.80    1.07
  -2   4  -4   11.48    1.28
   2  -4   4   12.19    1.01
  -2   4  -4   11.52    0.85
  -2   0   6  107.54    3.94
   2   0  -6  113.91    4.19
   2   0  -6  107.72    3.75
  -2   0   6  105.59    3.74
   2   0  -6  106.57    4.77
  -2   0   6  106.50    3.86
  -2   0   6  115.06    4.19
   2   0  -6  114.14    3.98
  -1   5  -3    3.61    0.74
  -1   5  -3    4.71    0.71
   3   5   4  379.05   11.93
  -3  -5  -4  385.74   12.41
  -3  -5  -4  381.65   11.67
  -3  -5  -4  405.10   12.44
   3   5   4  365.26   12.31
   3   5   4  390.98   12.29
  -3  -5  -4  374.42   11.40
  -2   5   3  144.11    4.83
   2  -5  -3  144.63    5.29
   2  -5  -3  145.21    4.91
   2  -5  -3  141.82    5.23
  -4   0  -5    0.23    0.64
  -4   0  -5   -0.30    0.91
   4   0   5   -0.89    0.84
  -4   0  -5    0.61    0.34
  -4   0  -5    0.42    0.67
  -4   0  -5    0.78    0.55
   4   0   5    0.46    0.57
   3  -4   2  111.47    3.65
  -3   4  -2  119.15    4.59
  -3   4  -2  120.70    4.66
   3  -4   2  111.83    4.34
   1  -5  -5   14.01    1.16
  -1   5   5   11.98    1.17
   1  -5  -5   12.40    1.15
  -1   5   5    8.85    1.09
  -1   5   5   13.07    1.02
  -2   2   6 1074.16   32.82
  -2   2   6 1065.32   31.96
  -2   2   6 1070.11   32.26
   2  -2  -6 1042.38   31.57
  -2   2   6 1056.32   32.52
   3   1   7   47.65    2.46
  -3  -1  -7   50.65    2.32
   3   1   7   53.93    2.44
   3   1   7   52.14    2.62
  -3  -1  -7   49.59    2.48
   3  -4  -2  229.43    8.11
  -3   4   2  231.50    7.58
   3  -4  -2  229.85    7.16
  -3  -2  -7  178.40    6.16
   3   2   7  179.09    6.43
   3   2   7  172.92    6.26
  -3  -2  -7  173.89    6.28
  -3  -2  -7  174.02    6.13
   3   2   7  175.07    5.87
   3   2   7  173.79    6.06
  -1   6   1   92.28    3.55
   1  -6  -1   86.09    3.42
   4  -2  -1  419.81   13.28
   4  -2  -1  413.45   13.93
  -4   2   1  418.57   13.67
  -4  -3   0   38.41    1.53
  -4  -3   0   43.61    2.20
   4   3   0   47.48    2.31
   4   3   0   41.91    2.15
   4   3   0   44.29    2.47
   4   3   0   43.48    1.70
   4   3   0   37.55    2.15
   4   3   0   43.35    1.61
   1   0  -7  288.16    9.18
   1   0  -7  290.55    9.86
   1   0  -7  259.21    9.14
   1   0  -7  283.98    8.98
  -1   0   7  282.92    9.24
  -1   0   7  274.23    9.08
   0  -6  -4   29.30    1.64
   0   6   4   29.65    1.71
   0  -6  -4   28.09    1.75
  -3  -4  -6   60.15    2.68
  -3  -4  -6   58.35    2.71
   3   4   6   62.27    2.30
   3   4   6   61.78    2.84
   3   4   6   59.75    2.75
  -3  -4  -6   59.00    2.79
  -3  -4  -6   60.49    2.49
   1  -6  -2  116.85    4.43
   1  -6  -2  118.92    4.41
   1  -6  -2  116.81    4.31
  -1   6   2  114.14    4.18
  -4   1   2  649.75   19.45
   4  -1  -2  680.98   20.81
   4  -1  -2  669.83   21.32
   4  -1  -2  653.41   20.51
  -4   1   2  654.99   19.83
  -4   1   2  615.01   18.71
   0  -5  -6   83.43    3.49
   0  -5  -6   86.27    3.37
   0   5   6   88.20    3.74
   0   5   6   88.26    3.16
   0   5   6   85.16    3.46
   0  -5  -6   86.86    3.13
   0   5   6   88.29    3.46
   2   6   2  190.69    5.97
  -2  -6  -2  180.71    5.79
  -2  -6  -2  177.64    5.48
   2   6   2  165.22    6.51
  -2  -6  -2  184.86    5.90
  -2  -4  -7    1.64    0.89
   2   4   7    1.99    0.62
  -2  -4  -7    2.06    0.62
  -2  -4  -7    2.30    0.69
  -4   2  -3  101.24    4.18
   4  -2   3  103.72    4.05
  -4   2  -3  105.62    3.72
   4  -2   3  101.62    4.18
  -4   2  -3   94.54    3.17
   4   1  -2   35.26    1.88
  -4  -1   2   36.29    1.70
   4   1  -2   34.29    1.68
  -4  -1   2   38.03    2.06
  -4  -1   2   27.62    2.28
   2   6   3  101.39    3.44
  -2  -6  -3  111.83    3.52
   2   6   3  106.89    4.24
  -2  -6  -3  102.94    3.65
   3   3  -3  446.56   14.19
   3   3  -3  473.23   14.23
  -3  -3   3  485.32   14.96
  -3  -3   3  486.52   14.99
  -3  -3   3  476.28   15.71
  -2  -5  -6  393.45   12.17
   2   5   6  403.78   12.19
   2   5   6  366.14   12.74
  -2  -5  -6  389.81   12.25
  -2   5  -2    4.25    0.91
  -2   5  -2    4.64    0.85
   2  -5   2    4.42    0.73
   0  -4  -7  383.23   12.68
   0  -4  -7  407.25   12.83
   0   4   7  401.95   13.02
   0   4   7  400.47   12.81
   0  -4  -7  413.96   13.03
   1   2   8   18.94    1.45
  -1  -2  -8   18.69    1.48
  -1  -2  -8   19.23    1.38
   1   2   8   23.14    1.73
   1   2   8   20.25    1.44
   1   2   8   19.98    1.56
  -1  -1  -8  144.51    5.28
   1   1   8  143.20    5.60
   1   1   8  158.53    5.53
  -1  -1  -8  144.13    5.38
   1   1   8  161.15    5.92
   0   6  -1  385.54   12.40
   0  -6   1  396.02   12.65
   0  -6   1  389.90   12.56
   1  -6   0  118.13    4.40
  -1   6   0  114.47    4.27
   1  -3   6   27.89    1.87
   1  -3   6   30.61    1.68
  -1   3  -6   29.39    1.82
   1  -3   6   29.49    1.32
   1   5  -3   67.03    3.11
   1   5  -3   71.43    3.10
  -1  -5   3   68.03    3.28
  -1  -5   3   68.59    2.50
  -2   4   5  343.18   11.14
  -2   4   5  344.91   11.31
   2  -4  -5  333.39   10.58
   2   5  -2    0.75    0.48
   2   5  -2    0.96    0.82
   2   5  -2    0.48    0.85
   2   6   1   29.20    2.01
   2   6   1   34.97    2.11
  -2  -6  -1   36.35    1.75
   2   6   1   38.25    1.79
   0  -3   6  350.94   11.71
   0  -3   6  332.46   11.25
   0   3  -6  346.94   11.09
   0  -3   6  347.04   10.94
   0   3  -6  336.65   10.96
   4   3   5  266.83    8.86
  -4  -3  -5  266.85    9.03
  -4  -3  -5  272.65    9.06
  -4  -3  -5  280.27    9.00
   4   3   5  270.54    8.69
   4   3   5  268.03    9.02
   4   3   5  266.61    8.86
   3   2  -4  796.41   23.92
   3   2  -4  779.39   23.61
  -3  -2   4  773.81   23.95
   3   2  -4  777.88   23.62
  -3  -2   4  801.05   24.78
  -3  -2   4  792.31   24.01
   3   2  -4  789.73   23.78
   3   0   7   12.43    1.25
   3   0   7   12.34    1.28
  -3   0  -7   13.89    1.14
  -3   0  -7   13.56    1.30
   1  -6  -3  117.98    4.39
  -1   6   3  117.16    4.28
   1  -6  -3  119.68    4.18
   1  -6  -3  120.15    4.50
  -3   3   4  289.62    9.09
  -3   3   4  289.37    9.61
   3  -3  -4  284.91    8.80
  -3   3   4  265.69    9.40
   3  -3  -4  276.68    9.56
   3  -3  -4  270.05    9.23
   3   3   7   88.56    3.24
  -3  -3  -7   85.38    3.50
   3   3   7   88.90    3.39
   3   3   7   85.86    3.71
   3   3   7   87.07    3.53
  -3  -3  -7   82.62    3.36
  -3  -3  -7   86.06    3.62
   0   4  -5   13.89    1.33
   0  -4   5   14.07    1.32
   0  -4   5   12.70    1.02
   0  -4   5   17.02    1.64
  -1   3   7  106.92    4.30
  -1   3   7  110.90    4.23
  -1   3   7  107.61    3.98
   1  -3  -7  105.91    4.13
   1  -3  -7  103.78    4.15
   1  -3  -7  113.65    4.44
   1  -3  -7  107.11    4.07
  -3  -4   2  625.60   19.15
  -3  -4   2  641.78   20.00
   3   4  -2  602.20   18.50
  -1   4  -5   10.66    0.84
   1  -4   5   10.78    1.05
  -1   4  -5   11.21    1.29
   1  -4   5   12.76    1.40
   3   5   0  164.81    5.69
  -3  -5   0  171.23    5.43
  -3  -5   0  179.31    6.25
   3   5   0  156.37    5.96
  -2  -6  -4  101.67    3.53
   2   6   4  103.84    4.20
  -2  -6  -4  104.13    3.48
   2   6   4  103.97    4.26
  -4  -4  -3  163.06    5.76
   4   4   3  160.14    5.78
   4   4   3  165.64    5.81
  -4  -4  -3  152.52    5.71
   4   4   3  159.66    5.95
   4   4   3  159.53    5.19
   4   4   3  153.00    5.51
   4   4   3  162.21    5.92
   4   4   2    0.28    0.46
   4   4   2   -0.34    0.69
   4   4   2   -0.09    0.33
   4   4   2    0.75    0.75
   4   4   2    0.17    0.67
   4   4   2    0.65    0.84
  -2  -2  -8  145.98    5.25
   2   2   8  141.19    5.38
  -2  -2  -8  139.50    5.21
   2   2   8  148.03    5.18
  -1  -6   1  221.84    7.67
   1   6  -1  228.01    7.91
  -1  -6   1  222.60    6.98
  -2  -1   6  166.15    5.52
  -2  -1   6  168.26    5.88
   2   1  -6  166.14    5.82
  -2  -1   6  164.05    5.54
   2   1  -6  165.94    5.64
  -3  -5  -5   47.92    2.42
   3   5   5   45.02    2.36
   3   5   5   45.58    1.69
   3   5   5   43.25    2.36
  -3  -5  -5   48.12    2.45
  -3  -5  -5   45.41    1.94
   2   1   8  387.90   12.10
  -2  -1  -8  358.05   11.97
  -2  -1  -8  377.01   11.93
  -2  -1  -8  372.37   12.05
   2   1   8  365.04   12.24
  -1  -6  -5  164.53    5.83
   1   6   5  156.40    5.60
  -1  -6  -5  155.09    5.40
   1   6   5  149.35    5.28
   1  -2   7  159.00    5.62
  -1   2  -7  162.81    5.79
  -1   2  -7  159.43    5.84
   1  -2   7  156.87    5.25
   1  -2   7  159.96    5.92
  -1  -3  -8  249.34    8.49
   1   3   8  250.29    8.38
  -1  -3  -8  246.97    8.16
   1   3   8  243.99    8.22
  -1  -3  -8  241.86    8.19
   1   3   8  250.72    8.44
   1   3   8  240.52    8.46
   1   0   8  288.74    9.62
  -1   0  -8  289.36    9.67
   1   0   8  268.99    9.42
  -1   0  -8  295.83    9.78
   0  -1  -8    1.09    0.73
   0  -1  -8    0.98    0.78
   0   1   8    0.89    0.75
   0   1   8    1.38    1.12
  -3   1   5   96.43    3.87
  -3   1   5   95.43    3.85
  -3   1   5   99.16    3.41
   3  -1  -5   97.59    3.46
   3  -1  -5  101.65    3.87
  -3   1   5   96.00    4.32
   0   2   8  229.56    7.85
   0   2   8  228.15    7.94
   0   2   8  239.34    8.07
   0  -2  -8  227.70    7.72
   0  -2  -8  228.91    7.87
   0   2   8  245.65    8.37
  -2   3   6   94.46    3.75
  -2   3   6  104.62    4.23
   2  -3  -6  101.46    3.77
   4  -2  -2  230.99    8.40
  -4   2   2  223.08    7.94
   4  -2  -2  228.18    7.74
   3  -4   3   31.18    1.84
   3  -4   3   33.11    1.99
  -3   4  -3   30.24    1.83
  -4   1  -5   11.71    1.16
  -4   1  -5   10.12    1.33
   4  -1   5   15.22    1.52
  -4   1  -5   12.60    1.14
  -4   1  -5   12.25    0.87
   3  -4  -3   54.16    2.74
   3  -4  -3   45.84    1.88
  -3   4   3   48.40    2.09
   1  -6   1  198.57    6.75
  -1   6  -1  204.30    7.27
  -1   6  -1  206.05    7.02
  -3   0   5  152.42    6.42
   3   0  -5  175.72    5.92
  -3   0   5  168.83    5.43
  -3   0   5  176.67    5.95
  -3   0   5  168.68    5.94
   3   0  -5  165.25    5.48
  -1  -1   7    0.14    0.71
  -1  -1   7    0.15    0.72
   1   1  -7   -1.06    0.73
   1   1  -7   -0.14    0.70
   4   1   6   56.14    2.67
   4   1   6   62.30    3.03
  -4  -1  -6   56.66    2.65
  -4  -1  -6   57.54    2.28
  -4  -1  -6   58.52    2.74
   4   1   6   62.71    2.75
  -4  -1  -6   57.73    2.47
   4  -3   1   45.62    2.20
  -4   3  -1   43.32    2.48
   4  -3   1   50.61    2.54
   4   4   4    0.41    0.95
   4   4   4    0.69    0.62
   4   4   4    0.17    0.73
   4   4   4   -0.62    0.65
  -4  -4  -4   -0.08    0.79
   4   4   4    0.42    0.46
  -4  -4  -4   -0.17    0.79
  -4  -2   2    8.77    1.43
   4   2  -2    9.29    1.35
  -4  -2   2    8.66    0.83
   4   2  -2    7.12    0.79
   4   2  -2    9.53    1.04
  -4  -2   2    8.34    1.00
   2  -5  -4  680.49   21.30
  -2   5   4  689.94   19.75
   2  -5  -4  679.89   20.93
   2  -5  -4  693.55   21.22
  -2   5   4  577.38   20.12
   4   2   6  410.80   12.89
   4   2   6  390.75   13.40
  -4  -2  -6  409.64   12.66
   4   2   6  410.38   12.98
   4   2   6  408.52   13.20
  -4  -2  -6  398.85   12.82
  -4  -2  -6  397.59   12.94
   4   2   6  409.60   13.08
   4  -3   0   -0.87    0.84
   4  -3   0    1.22    0.95
   4   4   1   27.35    1.79
   4   4   1   26.27    1.38
   4   4   1   28.02    1.81
   4   4   1   25.11    1.79
   4   4   1   28.04    1.74
   4   3  -1  187.38    5.94
  -4  -3   1  188.94    7.01
  -4  -3   1  184.07    5.99
  -4  -3   1  189.76    6.58
   4   3  -1  191.06    6.51
   4   3  -1  181.20    5.88
   4   3  -1  190.37    6.90
   0  -2   7  257.05    8.56
   0   2  -7  258.23    8.76
   0   2  -7  265.75    8.72
   0  -2   7  253.21    8.45
   0  -2   7  248.47    7.77
  -4   2  -4    6.50    0.57
  -4   2  -4    7.38    1.18
   4  -2   4    8.53    1.14
  -4   2  -4    5.68    0.88
   4  -2   4    6.33    1.08
  -3   2  -6   29.84    1.85
  -3   2  -6   28.70    1.79
   3  -2   6   31.58    1.87
   3  -2   6   30.40    1.81
   2   6   0    2.15    0.77
   2   6   0    0.49    0.86
   2   6   0    1.55    0.92
  -2  -6   0    1.91    0.76
   0   6   5    9.92    1.08
   0  -6  -5   11.78    1.11
   0  -6  -5    9.90    1.10
   0  -6  -5    9.33    0.55
   0   6   5   10.51    1.09
   0   6   5   11.58    1.30
   2   3   8   58.61    2.82
   2   3   8   59.60    2.58
  -2  -3  -8   57.82    2.67
  -2  -3  -8   62.15    2.79
   2  -3   6   38.67    1.85
   2  -3   6   41.00    2.14
  -2   3  -6   39.54    1.93
   3  -3   5   28.62    1.71
  -3   3  -5   22.15    0.99
   3  -3   5   27.07    1.87
  -3   3  -5   28.64    1.74
  -3   3  -5   28.36    1.68
   4  -3   2   29.36    1.95
   4  -3   2   32.06    1.83
  -4   3  -2   31.43    2.08
  -3   2   5   86.22    3.42
  -3   2   5   97.00    3.03
  -3   2   5   98.00    3.62
  -3   2   5   91.76    3.90
   3  -2  -5   85.43    3.50
   4   0  -3  113.25    4.34
   4   0  -3  114.23    4.18
  -4   0   3  104.91    4.10
  -4   0   3  116.90    4.44
  -2   0  -8  159.93    5.85
   2   0   8  146.71    5.34
   0   0  -8    0.83    0.77
   0   0   8   -0.16    0.69
   0   0  -8    1.60    0.76
   0   0   8   -0.86    1.28
   0   0  -8    0.73    0.77
   2   3  -5   39.65    2.60
   2   3  -5   38.60    1.81
   2   3  -5   39.21    1.93
  -2  -3   5   41.95    1.98
   2   3  -5   40.58    1.89
  -2  -3   5   37.16    1.39
  -2   5  -3   32.53    1.82
  -2   5  -3   31.88    1.51
  -2   5  -3   31.07    1.97
  -2  -4   4   42.92    1.99
   2   4  -4   45.06    2.09
   2   4  -4   40.12    2.50
   2   4  -4   36.10    1.34
   2   4  -4   41.06    1.71
   1  -6  -4  411.13   13.00
  -1   6   4  397.98   12.60
   1  -6  -4  401.95   12.56
   1  -6  -4  403.41   12.89
   1   5   7  406.42   12.37
  -1  -5  -7  392.05   12.52
   1   5   7  392.33   12.52
  -1  -5  -7  401.93   12.87
   0  -5   4   58.00    2.92
   0   5  -4   50.72    2.54
   0   5  -4   53.00    2.67
   0   5  -4   54.33    1.94
   0  -5   4   54.36    2.33
   2   6   5  130.16    4.42
  -2  -6  -5  125.99    4.38
   2   6   5  126.87    5.07
  -2  -6  -5  130.97    5.02
  -2  -6  -5  134.92    4.43
   2   6   5  127.96    4.96
   0   6  -2  244.90    8.84
   0   6  -2  273.71    8.80
   0  -6   2  271.10    9.18
   0  -3  -8   84.20    3.51
   0   3   8   85.18    3.54
   0   3   8   87.58    3.47
   0  -3  -8   84.95    3.48
   0  -3  -8   89.33    3.70
   0   3   8   82.54    3.63
   4  -1  -3  415.82   14.11
  -4   1   3  412.49   12.79
  -4   1   3  421.51   13.10
  -4   1   3  390.09   11.98
   4  -1  -3  428.68   13.46
   4  -3  -1  151.96    5.54
   4   0   6   95.53    3.88
   4   0   6   93.08    3.78
  -4   0  -6  100.24    3.55
  -4   0  -6   94.42    4.11
  -4   0  -6   91.53    3.79
   4   0   6   97.78    4.11
  -4   0  -6   94.51    3.87
  -4   0  -6   91.77    3.19
   2  -2   7    1.72    0.75
   2  -2   7    2.19    0.70
   2  -2   7    1.75    0.98
  -3  -1   5  101.40    3.82
  -3  -1   5   93.70    3.66
   3   1  -5   95.76    3.30
   3   1  -5   91.14    3.62
   1   4  -5  109.99    4.31
  -1  -4   5  107.02    4.69
   1   4  -5  112.00    4.03
   1  -5   4    5.36    0.83
  -1   5  -4    4.91    0.82
  -1   5  -4    5.70    0.70
  -3   1  -7    5.65    0.96
   3  -1   7    6.46    1.07
  -1   5   6   13.61    1.33
   1  -5  -6   15.23    1.26
  -1   5   6   11.84    1.26
   1  -5  -6   13.42    1.21
  -1   5   6   16.00    1.22
   4   3   6  317.18    9.97
  -4  -3  -6  321.38   10.40
   4   3   6  318.86   10.67
   4   3   6  315.80   10.56
  -4  -3  -6  323.16   10.61
   4   3   6  334.31   10.37
  -4  -3  -6  319.67   10.53
   4   3   6  320.34   10.46
  -1  -3   6   35.92    1.92
  -1  -3   6   33.04    2.40
   1   3  -6   37.77    1.98
   1   3  -6   38.47    1.92
  -1  -3   6   38.77    2.02
  -3  -4  -7    6.70    0.90
  -3  -4  -7    6.58    1.03
   3   4   7    5.43    0.96
   3   4   7    6.19    0.74
   3   4   7    5.96    1.06
  -3  -4  -7    4.02    0.90
  -3  -5   1  142.97    4.64
  -3  -5   1  137.48    5.37
   3   5  -1  145.04    4.99
   3   5  -1  131.93    5.42
   2  -4   5    0.08    0.59
  -2   4  -5    1.42    0.73
   2  -4   5    1.18    0.63
  -2   4  -5    0.53    0.52
  -4  -1   3    6.08    0.82
   4   1  -3    7.09    0.87
  -4  -1   3    6.39    0.95
   4   1  -3    5.19    0.89
   4   4   5   19.93    1.14
   4   4   5   19.40    1.44
  -4  -4  -5   20.22    1.52
  -4  -4  -5   16.85    1.42
   4   4   5   14.22    0.75
   4   4   5   16.38    1.62
   4   4   5   20.03    1.39
  -4  -4  -5   18.82    1.43
   4   4   0   92.69    3.52
   4   4   0   99.11    4.08
   4   4   0  105.74    4.25
   4   4   0  105.40    4.04
  -4  -4   0   97.02    4.22
   4   4   0  101.04    4.17
  -4  -4   0   96.82    3.17
  -2  -5  -7  308.84    9.71
   2   5   7  298.75    9.58
  -2  -5  -7  298.61   10.29
  -2  -5  -7  303.88    9.83
   3   5   6    0.47    0.44
   3   5   6    0.09    0.84
  -3  -5  -6    0.48    0.56
  -3  -5  -6    0.08    0.77
  -3  -5  -6   -0.09    0.78
   3   5   6    0.83    0.86
  -1   4   7   83.51    3.51
   1  -4  -7   75.51    3.49
   1  -4  -7   82.97    3.35
  -1   4   7   80.36    3.47
   1  -4  -7   83.62    3.39
  -1   4   7   84.93    3.55
   1   4   8  358.64   11.96
  -1  -4  -8  347.81   11.62
   1   4   8  350.83   11.82
   1   4   8  373.11   11.73
   1   4   8  361.13   11.63
  -1  -4  -8  369.74   11.34
  -1  -4  -8  364.35   11.28
  -3   5   0   77.68    2.71
  -3   5   0   77.21    3.51
  -3   5   0   83.85    3.37
   1  -1   8  530.45   16.34
   1  -1   8  517.18   16.06
   1  -1   8  519.79   16.92
  -1   1  -8  506.19   16.45
  -1   1  -8  507.12   16.31
  -1   1  -8  538.64   16.43
   1  -1   8  506.01   16.47
  -1   6  -2   49.66    2.21
  -1   6  -2   44.26    2.20
  -3   5   1   13.71    1.40
  -3   5   1   14.80    1.25
  -3   5   1   14.62    0.77
  -1  -6   2  414.34   12.64
   1   6  -2  430.95   13.83
  -1  -6   2  405.85   13.49
   1   6  -2  420.36   13.82
  -2   6   1   21.74    1.29
  -2   6   1   23.31    1.67
   2  -6  -1   21.54    1.38
   4  -3   3  117.33    4.64
  -4   3  -3  112.31    4.65
  -4   3  -3  110.84    3.53
   4  -3   3  117.06    4.54
   0   5   7  235.62    8.01
   0   5   7  248.26    8.06
   0   5   7  228.30    7.73
   0   5   7  237.46    8.30
   0  -5  -7  249.66    8.25
   0  -5  -7  234.99    8.06
  -1  -6  -6  318.68   10.36
   1   6   6  309.05   10.39
   1   6   6  318.96   10.17
  -1  -6  -6  303.35    9.90
  -2  -2   6   33.70    1.81
  -2  -2   6   33.23    1.66
   2   2  -6   31.41    1.64
   2   2  -6   30.44    1.62
  -2  -2   6   30.10    1.36
   5   1   2   21.56    1.78
  -5  -1  -2   20.28    1.73
   5   1   2   18.09    1.18
   5   1   2   19.00    1.16
  -5  -1  -2   19.27    1.04
   5   1   2   20.11    1.27
   2   5  -3   61.21    2.97
   2   5  -3   61.97    3.09
   2   5  -3   56.97    2.15
   2   5  -3   58.13    2.70
  -2   6   0   72.33    3.29
  -2   6   0   76.08    2.97
   2  -6   0   76.97    3.05
  -2   6   0   80.69    3.43
  -3   5  -1   83.76    3.63
  -3   5  -1   82.75    2.91
   3  -5   1   84.50    3.05
  -3   5  -1   83.00    3.52
   4  -2  -3  438.27   13.95
  -4   2   3  426.21   14.03
  -4   2   3  440.25   14.33
   4  -2  -3  435.60   14.55
  -4   2   3  443.00   13.42
   2   6  -1  338.32   11.39
   2   6  -1  358.20   11.63
  -3  -2  -8  118.62    4.53
  -3  -2  -8  119.18    4.55
   3   2   8  125.80    4.44
   3   2   8  121.06    4.79
  -3  -2  -8  114.99    4.66
   3   2   8  117.94    4.54
   3   2   8  118.00    4.84
  -3  -6  -3  860.29   27.49
  -3  -6  -3  885.38   26.40
   3   6   3  813.78   26.75
   3   6   3  914.45   26.76
  -3  -6  -3  928.72   27.59
   3   3  -4  453.04   14.84
   3   3  -4  438.46   13.58
   3   3  -4  436.04   13.56
   3   3  -4  443.20   13.67
  -3  -3   4  438.18   13.73
  -3  -3   4  438.61   13.58
  -3  -3   4  433.72   14.49
   3  -4   4  177.26    6.20
  -3   4  -4  171.15    6.23
   3  -4   4  173.13    6.44
  -2   6   2   89.19    3.31
   2  -6  -2   88.04    3.73
   2  -6  -2   92.02    3.42
   3  -4  -4  548.25   17.75
   3  -4  -4  556.84   16.96
  -3   4   4  520.64   17.36
  -3   4   4  557.54   17.15
  -3   4   4  569.97   17.67
   2   4   8    1.15    0.68
  -2  -4  -8    2.47    0.81
  -2  -4  -8    2.43    0.72
   2   4   8    2.93    0.91
  -5   0  -2    4.55    1.12
   5   0   2    2.75    0.60
   5   0   2    2.76    0.51
   5   0   2    1.66    0.69
  -5   0  -2    2.77    0.68
  -5   0  -2    2.19    0.52
  -2   1   7  470.29   15.11
  -2   1   7  472.38   14.83
   2  -1  -7  486.03   15.85
   2  -1  -7  458.73   14.92
  -2   1   7  479.17   15.53
   2  -1  -7  495.11   15.17
  -5  -1  -3  142.09    5.77
  -5  -1  -3  148.30    5.02
   5   1   3  151.44    5.07
   5   1   3  143.86    4.97
   5   1   3  149.29    5.08
  -5  -1  -3  148.30    5.07
   1   5  -4  204.34    7.41
  -1  -5   4  217.96    7.03
  -1  -5   4  222.06    8.04
   1   5  -4  213.82    7.35
  -4   3   2  427.54   13.17
   4  -3  -2  421.17   13.20
   4  -3  -2  405.38   12.36
   4  -3  -2  418.01   13.80
  -4   3   2  419.59   13.97
  -3  -6  -2  153.95    4.86
  -3  -6  -2  164.18    5.96
  -3  -1  -8    1.67    0.72
  -3  -1  -8    2.00    0.92
  -3  -1  -8    2.24    0.90
   3   1   8    1.96    0.73
   3   1   8    1.66    0.89
   3   1   8    1.30    0.84
  -2   4   6  186.85    6.78
  -2   4   6  187.12    6.57
   2  -4  -6  195.12    6.58
  -3  -4   3  477.10   15.34
   3   4  -3  436.19   15.24
   3   4  -3  459.47   14.06
   3   4  -3  485.55   14.50
  -3  -4   3  463.69   14.49
   3   4  -3  457.16   14.23
  -5  -1  -1   33.38    1.32
   5   1   1   36.29    1.72
   5   1   1   32.31    2.41
  -5  -1  -1   33.88    2.21
   5   1   1   32.64    1.79
   5   1   1   34.73    1.64
   5   1   1   35.72    2.19
   3  -3  -5  165.44    6.05
  -3   3   5  161.03    6.24
  -3   3   5  164.87    5.54
  -3   3   5  156.99    5.92
  -3   3   5  157.27    6.03
   3  -3  -5  170.61    5.67
  -5   0  -1   38.47    2.35
   5   0   1   36.46    2.27
   5   0   1   33.73    1.78
   5   0   1   37.20    1.58
  -5   0  -1   35.05    1.45
  -1  -7  -2  279.50    8.97
   1   7   2  265.33    9.13
  -1  -7  -2  272.47    9.43
   0  -1   8  203.51    6.89
   0  -1   8  200.96    6.93
   0  -1   8  181.68    6.76
   0   1  -8  214.83    7.36
   0  -1   8  190.14    7.38
   0   1  -8  204.80    7.15
   0   1  -8  211.86    7.27
   4  -2   5  109.73    4.45
  -4   2  -5  108.43    3.65
  -4   2  -5   97.52    4.33
  -4   2  -5  102.20    4.08
   4  -2   5  105.64    4.37
   3  -5  -2   57.18    2.16
  -3   5   2   57.67    2.11
  -3   5   2   59.59    2.62
   4   3  -2  508.49   15.51
   4   3  -2  502.28   15.89
  -4  -3   2  511.99   16.49
  -4  -3   2  497.11   15.83
  -4  -3   2  499.69   15.42
   0  -7  -2  349.23   11.70
   0   7   2  363.19   11.88
   0  -7  -2  360.86   11.04
   0  -7  -2  356.26   11.50
   2  -2  -7  339.93   11.94
  -2   2   7  359.41   11.92
  -2   2   7  367.65   11.35
  -2   2   7  362.55   12.23
   2  -2  -7  352.68   11.22
  -2   2   7  366.26   11.69
   1   2  -7   62.23    2.79
  -1  -2   7   60.67    2.54
  -1  -2   7   61.91    2.61
   1   2  -7   65.14    2.77
   2  -5  -5  348.99   10.77
   2  -5  -5  333.12   11.04
  -2   5   5  284.98   10.35
   2  -5  -5  323.18   10.94
  -2   5   5  343.73   10.50
  -1   1   8  710.33   22.03
   1  -1  -8  715.53   22.86
   1  -1  -8  719.14   22.26
   3   6   4  473.26   14.39
  -3  -6  -4  459.59   14.03
   3   6   4  452.50   15.01
  -3  -6  -4  430.01   14.89
  -3  -6  -4  467.24   13.91
  -3  -6  -4  477.26   15.01
  -5   0  -3   22.07    1.31
  -5   0  -3   23.83    1.46
   5   0   3   22.31    1.17
  -5   0  -3   23.43    1.23
   5   0   3   23.36    1.15
  -2   1  -8   14.31    1.42
  -2   1  -8   20.16    1.56
   2  -1   8   19.74    1.43
   2  -1   8   21.15    1.50
  -1  -7  -3  104.86    4.18
   1   7   3  102.11    4.19
  -1  -7  -3   94.71    3.67
  -1  -7  -3   99.62    4.12
  -4   1  -6    3.46    0.67
   4  -1   6    2.75    0.89
  -4   1  -6    2.91    0.32
   4  -1   6    5.26    1.11
  -4   1  -6    2.81    0.84
  -4   1  -6    3.36    1.05
  -4   1  -6    3.86    0.87
   5   2   2  267.59    8.57
  -5  -2  -2  279.28    8.74
   5   2   2  281.81    9.01
   5   2   2  280.40    9.83
   5   2   2  273.00    8.59
  -5  -2  -2  273.35    9.63
   5   2   2  284.92    9.13
   5   2   2  276.08    8.92
   5   2   2  268.10    9.50
  -1   2   8   71.84    3.07
   1  -2  -8   73.64    3.57
   1  -2  -8   72.52    3.20
  -1   2   8   65.51    2.78
   0   6   6   14.63    1.24
   0   6   6   12.40    1.25
   0   6   6   14.53    1.50
   0  -6  -6   12.15    1.28
   0  -6  -6   13.87    1.21
  -2  -6  -6  160.93    5.43
   2   6   6  157.75    5.95
  -2  -6  -6  172.19    6.07
   2   6   6  147.81    4.84
  -2  -6  -6  158.96    5.47
   2   6   6  159.24    5.80
   2   6   6  170.36    5.33
   5   2   3  271.54    9.24
   5   2   3  255.80    8.60
   5   2   3  255.40    8.20
  -5  -2  -3  256.33    9.19
  -5  -2  -3  262.62    8.40
   5   2   3  270.09    8.63
   5   2   3  256.75    8.33
   5   2   3  268.72    8.60
  -1   6   5  340.91   11.19
  -1   6   5  333.06   10.73
   1  -6  -5  320.65   10.85
   1  -6  -5  343.33   10.83
  -1   6   5  326.03   10.96
   2   0  -7  163.88    5.78
  -2   0   7  177.17    6.38
  -2   0   7  180.53    5.99
  -2   0   7  183.36    6.13
   2   0  -7  186.14    6.98
   2   0  -7  179.33    6.04
   2   0  -7  185.44    6.25
  -2   0   7  176.07    6.09
   0  -7  -1  318.93   10.76
   0  -7  -1  329.04   10.31
   0   7   1  312.13   10.41
   0  -4  -8  196.04    6.92
   0   4   8  201.23    7.08
   0  -4  -8  206.80    7.07
   0   4   8  201.34    7.03
   0   4   8  206.59    7.25
   0  -4  -8  200.81    7.21
  -3  -3  -8  179.21    6.60
  -3  -3  -8  185.37    6.39
   3   3   8  181.14    6.46
   3   3   8  189.65    6.21
   3   3   8  179.95    6.31
  -3  -3  -8  175.97    6.42
   3   3   8  174.27    6.62
  -2   6  -1  184.50    6.55
   2  -6   1  188.42    6.37
  -2   6  -1  175.16    6.38
  -2   6  -1  178.36    6.10
   0  -7  -3  429.58   13.32
   0   7   3  439.69   14.12
   0  -7  -3  423.44   13.37
   0  -7  -3  432.26   13.14
   0  -7  -3  397.65   12.43
   4   5   3    1.34    0.86
   4   5   3    1.87    0.35
  -4  -5  -3    1.91    0.93
   4   5   3    0.39    0.90
   4   5   3    1.21    0.86
   4   5   3    1.71    0.97
   4   5   3    1.68    0.79
   4   2  -3  118.72    3.78
  -4  -2   3  124.45    4.48
   4   2  -3  122.90    4.35
  -4  -2   3  125.23    4.73
   4   2  -3  124.65    4.17
   4   2  -3  108.81    3.61
  -4  -2   3  127.84    5.35
   1   7   1  547.03   17.22
   1   7   1  533.29   17.26
  -1  -7  -1  539.77   17.23
   4   2   7  381.95   12.30
  -4  -2  -7  375.85   11.93
   4   2   7  353.78   12.18
   4   2   7  381.31   11.98
  -4  -2  -7  363.96   12.06
   4   2   7  378.10   12.06
  -4  -2  -7  366.22   11.67
   4   2   7  365.22   12.47
  -3  -6  -1  150.64    5.47
   3   6   1  147.74    5.42
   3   6   1  148.37    5.45
  -4  -1  -7  121.50    4.80
  -4  -1  -7  129.12    4.62
  -4  -1  -7  123.73    4.88
   4   1   7  123.91    4.68
   4   1   7  123.77    4.98
   4   1   7  118.02    4.71
   5   1   4   21.06    1.21
  -5  -1  -4   17.29    1.20
  -5  -1  -4   19.83    1.27
   5   1   4   20.46    1.17
   5   1   4   18.03    1.23
   4   5   2   62.90    2.89
   4   5   2   63.69    3.06
   4   5   2   63.01    3.05
   4   5   2   62.34    2.10
   4   5   2   62.27    3.01
   4   5   2   66.53    2.72
  -3  -2   5  117.24    4.24
   3   2  -5  110.97    3.99
  -3  -2   5  117.02    5.03
   3   2  -5  122.08    4.31
  -3  -2   5  123.03    4.44
  -3   5  -2  133.54    4.49
   3  -5   2  136.22    4.54
  -3   5  -2  135.13    5.17
  -3   5  -2  131.34    5.14
  -2   6   3    9.73    0.89
   2  -6  -3    9.08    1.11
   2  -6  -3    9.85    0.96
   2  -6  -3   10.28    1.22
   4   4   6   61.55    2.93
   4   4   6   64.21    2.61
  -4  -4  -6   63.56    2.85
  -4  -4  -6   62.74    2.93
   4   4   6   65.89    3.04
  -4  -4  -6   62.59    2.94
   4   4   6   64.29    2.31
   4   4   6   65.32    2.94
   5   2   1  108.62    4.18
  -5  -2  -1  114.82    4.74
   5   2   1  105.39    3.44
   5   2   1  104.61    3.79
   5   2   1  100.93    3.62
   5   2   1  111.35    4.06
   5   2   1  108.81    4.44
   5   2   1  111.28    4.79
   5   0   0  184.47    6.22
  -5   0   0  172.33    5.35
   5   0   0  189.83    6.77
   5   0   0  179.59    6.00
  -5   0   0  186.29    6.70
  -2   5  -4   48.41    2.24
  -2   5  -4   42.38    2.51
  -2   5  -4   47.15    2.05
   1  -3   7   20.32    1.45
   1  -3   7   19.96    1.88
  -1   3  -7   21.64    1.61
   1  -3   7   19.85    1.05
   1  -3   7   20.10    1.65
   1  -4   6   -0.52    0.81
  -1   4  -6    0.22    0.42
   1  -4   6    0.98    0.67
   5   1   0  309.21   11.02
   5   1   0  323.37   10.60
  -5  -1   0  310.45   10.63
   5   1   0  310.48   10.03
   5   1   0  311.56    9.93
  -3   0  -8   12.95    1.40
   3   0   8   11.18    1.25
  -3   0  -8   11.12    1.15
   3   0   8    9.31    1.26
  -4  -4   1  245.56    8.82
  -4  -4   1  247.23    7.75
   4   4  -1  248.27    8.71
   4   4  -1  249.34    8.39
  -5   1  -2   93.29    3.57
   5  -1   2   97.85    3.69
   5  -1   2   95.01    3.30
   5  -1   2   93.75    3.07
  -5   1  -2   95.88    3.45
   4   5   4  133.61    5.31
   4   5   4  144.33    5.21
   4   5   4  133.99    5.06
   4   5   4  136.00    5.21
  -4  -5  -4  132.92    5.10
   4   5   4  129.86    4.97
  -4  -5  -4  127.41    5.03
   4   5   4  134.11    4.42
  -5   1  -1   41.72    1.87
   5  -1   1   38.72    2.02
  -5   1  -1   34.23    2.43
   5  -1   1   44.37    1.91
   5  -1   1   37.72    1.45
  -5   1  -1   42.65    1.72
   1   0  -8   54.89    3.06
   1   0  -8   53.51    2.54
   1   0  -8   47.36    2.27
   1   0  -8   54.55    2.50
  -1   0   8   52.57    2.51
  -1   0   8   51.13    2.59
   0   6  -3  469.08   15.12
   0  -6   3  467.45   14.72
   0   6  -3  471.71   14.34
   0   6  -3  453.71   14.90
   0  -6   3  484.93   15.39
   1   7   4  124.65    4.84
  -1  -7  -4  121.78    4.79
  -1  -7  -4  121.09    4.34
  -1  -7  -4  120.64    4.80
  -5  -2  -4  100.47    3.82
   5   2   4   97.10    3.71
  -5  -2  -4  100.40    3.74
   5   2   4  103.32    3.96
  -5  -2  -4   92.66    4.31
   5   2   4   96.24    3.71
   5   2   4  105.23    3.81
   0  -4   6   10.74    0.95
   0  -4   6    8.07    1.19
   0  -4   6    9.73    1.49
  -1  -2  -9   73.35    3.43
   1   2   9   83.16    3.74
   1   2   9   79.09    3.57
   1   2   9   82.06    3.43
  -1  -2  -9   79.94    3.35
   1   2   9   77.89    3.43
  -4   3  -4  155.94    6.20
   4  -3   4  165.71    6.07
   4  -3   4  162.60    6.05
  -4   3  -4  166.67    5.28
  -4   3  -4  166.05    5.87
   0  -7   0  177.91    6.53
   0  -7   0  185.63    6.29
   0   7   0  170.87    6.27
  -5   0  -4   47.78    2.37
  -5   0  -4   50.93    2.26
   5   0   4   47.29    2.82
  -5   0  -4   48.40    2.05
   5   0   4   54.02    2.08
  -3  -6  -5  205.48    6.92
  -3  -6  -5  223.78    6.76
   3   6   5  230.64    8.05
  -3  -6  -5  234.57    7.78
  -3  -6  -5  199.89    7.60
   3   6   5  227.68    7.37
   1   1   9  192.63    6.97
  -1  -1  -9  194.69    6.96
  -1  -1  -9  191.11    6.83
   1   1   9  190.82    7.24
   1   1   9  197.55    6.86
  -4   0   4   64.56    2.88
   4   0  -4   62.13    2.72
  -4   0   4   67.52    3.08
   3   5  -2   49.19    2.26
   3   5  -2   50.24    2.88
  -3  -5   2   54.75    2.18
  -3  -5   2   53.93    2.86
   3   5  -2   54.81    1.86
   4  -4   0  150.70    5.60
  -4   4   0  150.09    5.37
  -4   4   0  145.46    5.78
   0  -3   7  365.58   12.28
   0   3  -7  382.24   12.37
   0  -3   7  372.66   11.93
   0   3  -7  379.32   12.26
   0  -3   7  385.01   12.82
   1  -3  -8  130.77    5.10
  -1   3   8  124.05    4.62
  -1   3   8  130.04    4.86
   1  -3  -8  124.14    4.72
   1  -3  -8  122.18    4.78
   1  -3  -8  128.63    4.87
  -3   1   6   92.33    3.13
  -3   1   6   95.24    4.12
   3  -1  -6   92.57    3.40
  -3   1   6   73.85    2.73
   3  -1  -6   92.79    3.77
  -3   1   6   87.60    3.56
  -3   1   6   92.71    3.62
  -4   1   4  346.81   11.00
  -4   1   4  356.70   11.55
   4  -1  -4  350.19   11.10
   4  -1  -4  326.59   11.69
  -4   1   4  317.70    9.93
  -4   1   4  318.36   10.69
  -4   4  -1  152.63    5.89
  -3   3  -6    4.13    0.90
  -3   3  -6    4.92    0.98
   3  -3   6    4.28    0.95
   3  -3   6    4.14    0.94
   4   3   7  505.89   15.50
   4   3   7  516.89   15.84
   4   3   7  475.30   16.34
   4   3   7  504.90   16.12
   4   3   7  508.79   16.20
   4   3   7  500.73   15.91
  -4  -3  -7  496.40   15.92
  -4  -3  -7  488.22   16.02
  -4  -3  -7  515.95   15.76
  -2   3   7    5.99    1.00
   2  -3  -7    7.45    0.98
   2  -3  -7    6.82    1.36
  -2   3   7    7.02    0.79
  -2   3   7    6.92    1.33
   3  -5  -3  110.68    3.85
   3  -5  -3  111.72    4.64
   0  -7  -4   87.01    3.75
   0  -7  -4   93.87    3.64
   0  -7  -4   89.34    3.80
   0   7   4   92.11    3.82
   4   5   1  112.53    4.16
   4   5   1  109.96    3.49
   4   5   1  116.32    4.52
   4   5   1  121.56    4.66
   4   5   1  122.00    4.73
   5  -1   3  174.63    6.55
  -5   1  -3  169.53    5.43
   5  -1   3  172.56    5.46
  -5   1  -3  171.18    5.82
  -5   1  -3  170.20    5.98
   3  -2   7    9.55    1.20
  -3   2  -7    9.27    1.13
   3  -2   7    9.87    1.15
  -3   2  -7    9.26    1.16
  -5   1   0    0.93    0.36
  -5   1   0    0.59    0.94
   5  -1   0    0.92    0.38
   5  -1   0    1.39    0.49
  -5   1   0    0.85    0.50
   5  -1   0    0.94    0.97
   5  -1   0    0.70    0.81
   5  -1   0    0.86    1.23
   1   7   0  143.25    5.39
   1   7   0  137.38    5.42
  -1  -7   0  142.17    5.48
  -4   0  -7    0.55    0.90
  -4   0  -7    1.17    0.86
   4   0   7    1.14    0.80
   4   0   7    1.40    1.01
   4   0   7    2.48    0.93
  -4   0  -7    2.29    0.71
  -4   0  -7    0.28    0.84
  -1   6  -3    1.98    0.63
  -1   6  -3    1.81    0.72
   2   2   9   62.37    2.88
   2   2   9   67.91    3.09
  -2  -2  -9   65.47    2.99
  -2  -2  -9   63.20    2.97
  -3  -5  -7    0.70    0.86
  -3  -5  -7    0.91    0.89
   3   5   7    0.70    0.85
  -3  -5  -7    0.19    0.63
  -3  -5  -7    0.10    0.81
   3   5   7   -0.74    0.87
   3   5   7   -0.05    0.49
   3   0  -6   31.13    1.82
  -3   0   6   29.27    1.80
  -3   0   6   28.36    1.40
  -3   0   6   32.35    1.78
  -3   0   6   34.45    2.35
  -3   0   6   24.67    1.13
   3   0  -6   31.09    1.54
   2   7   3    1.78    0.95
  -2  -7  -3    1.31    0.56
   4  -3  -3  198.52    6.28
  -4   3   3  203.13    6.49
   4  -3  -3  205.55    7.55
   4  -3  -3  193.49    6.95
  -4   3   3  201.62    7.42
  -2  -7  -2    9.06    0.84
   2   7   2   11.00    1.36
  -2  -7  -2   10.56    0.85
   2   7   2    9.25    1.24
  -5  -3  -3  124.17    5.12
   5   3   3  120.23    4.53
   5   3   3  119.04    5.04
   5   3   3  120.15    4.55
   5   3   3  122.24    4.95
   5   3   3  115.60    3.80
   5   3   3  117.62    4.44
   5   3   3  123.12    4.23
   2   1  -7   57.94    2.36
   2   1  -7   59.03    2.57
  -2  -1   7   54.51    2.69
   2   1  -7   56.92    3.31
  -2  -1   7   58.86    2.36
  -2  -1   7   59.68    2.48
  -4   4   1   17.72    1.31
   4  -4  -1   18.20    1.52
  -1  -3  -9    0.38    0.75
   1   3   9    0.81    0.79
   1   3   9    0.61    0.86
   1   3   9    0.72    0.79
   1   3   9   -0.31    1.06
  -1  -3  -9    0.10    0.94
  -1  -3  -9   -0.16    0.77
   5   3   2  208.41    7.81
  -5  -3  -2  204.49    7.48
   5   3   2  209.01    7.06
   5   3   2  211.10    7.62
   5   3   2  220.48    7.36
   5   3   2  206.54    6.49
   5   3   2  210.56    6.77
   5   3   2  209.24    7.25
  -2  -1  -9  293.23   10.02
  -2  -1  -9  299.65   10.00
   2   1   9  320.13   10.24
  -2  -1  -9  298.90    9.91
   2   1   9  298.54   10.30
   5   2   0  128.33    5.42
   5   2   0  124.97    4.30
   5   2   0  125.82    4.32
   5   2   0  131.33    5.03
   5   2   0  130.13    4.72
  -5  -2   0  123.17    5.00
   3   6   0   19.25    1.43
   3   6   0   20.35    1.63
  -3  -6   0   22.58    1.66
   1   5   8 1040.57   31.92
  -1  -5  -8 1030.01   30.93
   1   5   8 1027.35   31.63
  -1  -5  -8 1016.11   30.61
   1   5   8 1029.32   31.47
  -1  -5  -8  959.36   31.03
  -2   6  -2  222.90    7.74
  -2   6  -2  212.86    7.46
   2  -6   2  223.12    7.39
  -1   7   2  227.38    7.70
   1  -7  -2  228.27    7.65
   1  -7  -2  215.14    7.63
  -3   2   6   57.22    2.83
  -3   2   6   58.14    2.38
  -3   2   6   58.50    3.19
   3  -2  -6   56.81    2.70
  -3   2   6   53.84    2.74
   1  -7  -1   43.38    2.27
  -1   7   1   43.91    2.25
   0   5  -5   35.02    2.13
   0   5  -5   30.48    1.13
   0  -5   5   36.31    2.46
   0  -5   5   39.67    1.91
   4   5   5    2.12    0.54
   4   5   5    2.03    0.98
   4   5   5    1.37    0.75
  -4  -5  -5    1.07    0.92
   4   5   5    0.68    0.92
  -4  -5  -5    0.56    0.93
   2   6  -2   56.26    2.39
   2   6  -2   62.86    3.06
   2   6  -2   66.66    3.05
   1  -2   8  137.55    4.75
  -1   2  -8  140.29    5.32
  -1   2  -8  139.44    5.25
   1  -2   8  144.91    5.18
   1  -2   8  138.27    5.46
  -4   4  -2  235.64    8.39
   4  -4   2  237.52    7.90
   4  -4   2  237.17    7.76
   4  -4   2  216.17    6.82
   1  -5   5  139.58    5.56
   1  -5   5  147.34    5.26
  -1   5  -5  135.91    4.62
  -1   5  -5  125.69    5.28
  -1   5  -5  143.73    5.04
   1   6  -3  157.07    5.76
  -1  -6   3  155.32    5.04
   1   6  -3  145.94    5.72
  -1  -6   3  143.18    5.88
   3   4   8   12.34    1.24
  -3  -4  -8   13.83    1.36
   3   4   8   11.32    0.98
  -3  -4  -8   12.92    1.20
   3   4   8   13.21    1.40
  -3  -4  -8   11.09    1.34
  -4  -1   4   18.16    1.44
   4   1  -4   15.52    1.22
  -4  -1   4   14.61    1.24
   4   1  -4   11.03    0.55
   5   1   5    7.25    0.94
  -5  -1  -5    8.11    0.89
  -5  -1  -5    9.24    0.97
   5   1   5    8.93    1.41
   5   1   5    7.49    0.80
   2  -3   7   20.46    1.51
   2  -3   7   19.00    1.25
  -2   3  -7   18.45    1.26
   2  -3   7   17.94    1.68
   5   0  -1  153.60    5.00
   5   0  -1  162.27    5.52
  -5   0   1  162.00    6.25
   5   0  -1  167.33    6.00
   1  -5  -7    0.58    0.83
   1  -5  -7    0.74    0.80
   1  -5  -7    0.24    0.78
  -1   5   7    0.09    0.81
  -1   5   7    0.10    0.76
  -1   5   7    0.39    0.83
  -1  -6  -7  464.79   14.81
   1   6   7  440.32   13.37
   1   6   7  462.47   14.22
  -1  -6  -7  452.81   14.39
   1   6   7  445.07   13.93
   2   4  -5    1.20    1.23
   2   4  -5    1.05    0.82
  -2  -4   5    1.31    0.72
   2   4  -5    0.95    0.62
  -2  -7  -4    6.95    0.73
  -2  -7  -4    6.29    1.19
   2   7   4    6.51    1.11
  -2  -3  -9   37.74    2.19
  -2  -3  -9   38.30    2.12
   2   3   9   35.43    1.97
   2   3   9   37.31    2.22
   5   3   4  320.71   10.21
   5   3   4  329.26   10.85
   5   3   4  335.19   10.95
   5   3   4  345.90   11.46
  -5  -3  -4  336.76   10.88
   5   3   4  339.03   10.74
  -5  -3  -4  339.53   11.05
   5   3   4  346.04   10.74
   5   3   4  353.25   10.95
   2  -6  -4   14.59    1.30
  -2   6   4   13.28    1.02
   2  -6  -4   14.28    1.15
   2  -6  -4   13.23    1.37
  -5  -2  -5  364.44   11.87
   5   2   5  367.45   11.89
   5   2   5  363.56   12.02
   5   2   5  379.80   11.76
  -5  -2  -5  366.17   11.73
   5   2   5  359.36   11.78
  -5  -2  -5  379.30   11.92
   1   7   5   11.08    1.25
  -1  -7  -5    9.16    1.23
  -1  -7  -5   11.44    1.02
  -1  -7  -5    8.40    1.24
   4  -2  -4  256.69    9.15
   4  -2  -4  249.53    8.53
  -4   2   4  250.66    8.64
  -4   2   4  239.15    8.37
  -4   2   4  245.12    7.75
   0  -2  -9    4.34    1.09
   0  -2  -9    3.25    1.01
   0   2   9    5.05    1.04
   0   2   9    6.30    1.38
   0   2   9    4.52    0.88
   0   2   9    5.04    0.99
  -1   0  -9  353.74   11.81
  -1   0  -9  369.61   11.95
  -1   0  -9  355.47   11.78
   1   0   9  370.37   11.98
   1   0   9  347.06   11.79
   1   0   9  371.33   12.38
   3  -5   3  297.62   10.12
  -3   5  -3  298.85   10.04
  -3   5  -3  288.82    9.88
  -2  -5  -8  225.38    7.52
  -2  -5  -8  228.93    7.66
   2   5   8  230.92    7.68
   2   5   8  230.75    7.63
   2   7   1   45.80    2.48
   2   7   1   39.29    2.39
  -2  -7  -1   38.81    2.40
  -2  -7  -1   40.16    1.94
   5   1  -1  186.12    6.58
   5   1  -1  186.30    6.05
  -5  -1   1  183.12    6.84
   3  -4   5   82.06    3.37
  -3   4  -5   84.84    3.51
   3  -4   5   82.88    3.75
  -3   4  -5   78.07    2.74
   2  -4   6   66.34    3.03
   2  -4   6   66.79    2.69
  -2   4  -6   69.20    2.86
   0   1   9   21.09    2.03
   0  -1  -9   20.21    1.60
   0  -1  -9   18.58    1.45
   0  -1  -9   18.06    1.53
   0   1   9   19.99    1.55
   3  -4  -5  254.85    8.29
  -3   4   5  235.02    8.76
  -3   4   5  275.49    8.60
   3  -4  -5  260.67    8.99
   1  -7  -3   22.81    1.54
   1  -7  -3   20.62    1.58
  -1   7   3   22.08    1.55
   1  -7  -3   20.16    1.62
   5   3   1   72.20    2.49
   5   3   1   74.66    3.64
   5   3   1   79.88    3.23
   5   3   1   69.77    3.19
   5   3   1   69.84    3.35
  -5  -3  -1   72.99    3.45
   5   3   1   70.07    2.56
  -1   7   0   57.76    2.71
   1  -7   0   59.14    2.77
   2   3  -6    3.44    0.79
   2   3  -6    6.59    0.87
  -2  -3   6    3.79    0.89
   2   3  -6    5.53    1.42
  -2  -3   6    3.94    0.31
   0   7  -1  394.27   13.12
   0   7  -1  408.26   13.06
   0  -7   1  422.98   13.67
   0  -7   1  427.77   13.77
   1   1  -8   11.35    1.11
   1   1  -8   11.41    1.22
  -1  -1   8   11.64    1.23
   1   1  -8   12.12    1.21
  -1  -1   8   14.61    1.30
   1   1  -8   15.93    1.77
   5  -1   4  236.89    8.47
  -5   1  -4  245.07    8.27
  -5   1  -4  245.94    7.71
  -5   1  -4  240.29    8.79
  -5   1  -4  241.26    8.11
   0  -2   8  348.67   10.95
   0  -2   8  318.78   11.01
   0   2  -8  331.53   10.91
   0   2  -8  332.73   11.01
   0  -2   8  327.20   10.18
   5  -1  -1   75.00    3.07
  -5   1   1   64.55    2.19
  -5   1   1   69.69    3.37
   5  -1  -1   73.47    3.84
   5  -1  -1   69.30    2.51
   5  -1  -1   70.49    2.59
   5  -1  -1   73.64    3.38
   5  -2   1   88.39    3.59
  -5   2  -1   84.17    3.14
   5  -2   1   83.93    3.33
  -5   0  -5   68.99    3.01
  -5   0  -5   75.77    3.21
   5   0   5   71.52    3.51
  -5   0  -5   72.94    3.58
  -5   0  -5   69.79    2.78
   2   6   7  172.38    6.54
  -2  -6  -7  180.06    6.14
   2   6   7  183.78    5.82
   2   6   7  181.56    6.14
  -2  -6  -7  186.81    6.24
   4  -2   6   93.87    4.01
  -4   2  -6   98.94    4.20
  -4   2  -6  101.31    4.00
   4  -2   6   94.77    4.13
  -4   2  -6   93.42    3.52
  -3   1  -8   11.08    1.36
   3  -1   8   12.13    1.32
   4   5   0  137.13    5.45
   4   5   0  148.37    5.32
  -4  -5   0  133.93    4.29
  -4  -5   0  140.73    5.45
   4   5   0  135.84    5.53
  -3  -1   6  122.06    4.68
   3   1  -6  122.99    4.24
   3   1  -6  121.51    4.56
   3   1  -6  119.91    4.00
  -3  -1   6  123.10    4.48
   1  -6  -6  188.19    6.66
  -1   6   6  181.68    6.94
  -1   6   6  188.68    6.57
  -1   6   6  202.81    6.89
   1  -6  -6  188.29    6.61
   5  -2   2   20.73    1.78
  -5   2  -2   21.17    1.31
   5  -2   2   20.50    1.45
   1   4  -6  226.03    7.54
   1   4  -6  231.97    7.75
  -1  -4   6  218.30    8.26
   1   4  -6  218.58    7.80
  -3  -6  -6   47.45    2.00
  -3  -6  -6   41.52    1.76
  -3  -6  -6   46.47    2.53
  -3  -6  -6   44.19    2.43
   3   6   6   48.46    1.90
   3   6   6   43.01    2.53
  -4   4   2   60.62    2.55
   4  -4  -2   58.78    2.77
   4  -4  -2   50.88    1.80
   4  -4  -2   52.36    3.01
   2   5  -4   23.90    1.93
   2   5  -4   18.00    0.79
   2   5  -4   21.79    1.54
   2   5  -4   22.80    1.19
   2   0   9  101.13    4.41
   2   0   9  107.14    4.22
  -2   0  -9  109.27    4.47
   2   0   9  111.37    4.26
  -4  -3   3  991.84   30.78
  -4  -3   3  974.67   29.94
  -4  -3   3  979.79   29.70
   4   3  -3  983.95   29.21
   4   3  -3  967.79   28.69
   4   3  -3  929.15   28.88
   2  -2   8    2.05    0.99
   2  -2   8    1.13    0.67
   2  -2   8    3.11    0.90
   0   7   5  227.30    7.83
   0  -7  -5  221.26    7.61
   0  -7  -5  228.45    7.85
  -2   5   6  135.15    5.46
   2  -5  -6  158.20    5.50
  -2   5   6  152.27    5.49
   2  -5  -6  151.01    5.72
   0  -5  -8  169.89    6.29
   0  -5  -8  190.26    6.51
   0   5   8  177.65    6.48
   0   5   8  186.12    6.76
   0   5   8  182.45    6.28
   0  -3  -9  133.28    5.13
   0   3   9  140.55    5.48
   0  -3  -9  133.73    5.08
   0   3   9  144.12    5.39
   0   3   9  145.49    5.32
   0  -3  -9  139.73    5.30
   4   4   7  354.37   11.25
   4   4   7  354.28   10.95
   4   4   7  356.52   11.57
  -4  -4  -7  353.35   11.54
   4   4   7  343.73   11.67
   4   4   7  343.93   11.73
  -4  -4  -7  354.59   11.69
  -4  -4  -7  353.75   11.76
   1   7  -1  251.67    8.90
  -1  -7   1  248.91    7.80
  -1  -7   1  244.94    8.52
   1   7  -1  258.28    8.88
   0  -6  -7  103.94    4.10
   0  -6  -7   93.45    3.86
   0   6   7   93.77    3.79
   0   6   7   94.90    3.41
   0   6   7   92.89    3.82
   0   6   7   90.57    4.09
   1  -4  -8   31.57    1.98
   1  -4  -8   31.26    2.00
  -1   4   8   31.02    1.80
  -1   4   8   30.72    1.97
  -1   4   8   32.83    2.06
   1  -4  -8   28.84    1.82
   1  -4  -8   32.53    1.93
  -1   4   8   35.24    2.08
  -5   2   0   59.54    3.32
   5  -2   0   62.08    2.52
  -5   2   0   65.94    2.54
   5  -2   0   63.67    2.90
   3   4  -4  567.50   17.60
   3   4  -4  577.16   17.66
   3   4  -4  598.75   17.99
  -3  -4   4  585.36   18.69
  -3  -4   4  571.62   17.84
   3   4  -4  588.87   19.01
  -4   4  -3  209.64    7.63
   4  -4   3  204.34    7.26
   4  -4   3  202.70    7.29
  -4  -4   2  306.99    9.82
  -4  -4   2  291.29    9.39
  -4  -4   2  300.49   10.46
   4   4  -2  312.96   10.19
   2   7   5    2.60    0.95
  -2  -7  -5    1.05    1.09
   2   7   5    2.11    0.94
  -2  -7  -5    1.43    0.60
   3  -5  -4   44.46    2.51
   3  -5  -4   37.68    1.78
   5   3   5  404.29   12.59
  -5  -3  -5  395.01   12.55
  -5  -3  -5  389.19   12.56
   5   3   5  382.90   12.50
   5   3   5  382.01   12.40
   5   3   5  391.05   12.72
  -5  -3  -5  388.13   12.63
  -3   3   6  127.71    5.24
   3  -3  -6  126.98    4.58
   3  -3  -6  128.55    4.92
  -3   3   6  121.52    4.10
  -3   3   6  122.46    4.94
  -3   3   6  116.03    4.85
  -3   3   6  126.89    4.50
   4  -3   5  110.42    4.63
   4  -3   5  115.12    4.59
  -4   3  -5  115.63    4.42
  -4   3  -5  108.67    4.64
   4  -1   7   -0.11    0.98
  -4   1  -7   -0.11    0.86
  -4   1  -7    1.35    0.95
  -4   1  -7    2.42    0.88
  -4   1  -7    1.31    0.67
  -1  -4  -9  188.19    6.43
  -1  -4  -9  165.93    6.52
   1   4   9  189.27    6.81
  -1  -4  -9  190.39    6.83
  -1  -4  -9  183.73    6.45
   1   4   9  190.78    6.84
   1   4   9  182.37    6.95
   1   4   9  194.56    6.70
   0   0   9   31.38    1.95
   0   0  -9   31.74    1.89
   0   0   9   27.28    2.33
   0   0  -9   29.62    1.95
   0   0  -9   31.43    1.96
   1   3  -7   64.80    2.88
  -1  -3   7   66.39    3.00
   1   3  -7   70.73    3.03
  -1  -3   7   63.88    2.92
  -1  -3   7   62.08    3.60
  -1  -5   5  240.24    8.86
   1   5  -5  242.99    8.40
  -3  -3   5  106.04    4.07
   3   3  -5  110.33    3.86
   3   3  -5  102.49    3.87
  -3  -3   5  103.18    4.76
  -3  -3   5  110.21    3.80
   3   3  -5  110.39    4.99
   4   5   6   43.58    1.88
   4   5   6   44.25    2.36
  -4  -5  -6   42.57    2.36
  -4  -5  -6   41.51    2.38
   4   5   6   40.60    1.56
   4   5   6   40.26    2.26
   4   5   6   38.92    2.55
  -2   4   7   85.38    3.50
  -2   4   7   77.27    3.66
   2  -4  -7   79.18    3.23
   5   2  -1  239.51    7.71
  -5  -2   1  232.07    8.57
   5   2  -1  249.15    7.89
  -5  -2   1  252.02    7.96
   5   2  -1  254.86    8.53
   5   2  -1  245.09    8.98
  -5   2  -3   88.52    3.51
   5  -2   3   93.19    3.84
   5  -2   3   94.33    4.14
  -5   2  -3   93.48    4.21
   1  -7  -4  211.11    7.38
   1  -7  -4  206.15    6.86
   1  -7  -4  221.75    7.35
  -1   7   4  208.41    7.15
  -2  -7   0  179.09    6.25
   2   7   0  183.37    6.78
   2   7   0  181.73    6.83
  -1   7  -1   17.94    1.48
  -1   7  -1   21.85    1.79
   1  -7   1   17.64    1.43
   5   3   0  146.99    4.74
   5   3   0  148.51    5.57
   5   3   0  142.23    4.60
  -5  -3   0  138.30    5.43
   5   3   0  144.30    5.50
   5   3   0  149.61    5.42
   5   3   0  142.61    5.85
   2   4   9   68.28    3.17
   2   4   9   76.47    3.40
  -2  -4  -9   70.52    3.12
   2   4   9   71.20    3.04
   3   2   9   86.60    3.54
   3   2   9   84.35    3.47
   3   2   9   83.17    3.75
  -3  -2  -9   85.88    3.70
  -3  -2  -9   84.85    3.83
   3   2   9   85.59    3.80
   3   2   9   82.71    3.80
  -3  -2  -9   85.52    3.64
   3   6  -1    3.70    1.09
   3   6  -1    2.23    0.75
  -3  -6   1    3.42    1.09
  -4  -2   4   44.02    2.15
   4   2  -4   44.85    1.68
  -4  -2   4   47.30    2.98
   4   2  -4   41.45    2.12
  -4  -2   4   45.95    2.29
   4   2  -4   46.32    2.12
   4   2  -4   43.52    1.64
  -4  -2  -8   72.32    3.12
   4   2   8   62.26    3.17
   4   2   8   68.43    3.38
  -4  -2  -8   65.93    3.22
   4   2   8   67.61    3.00
   4   2   8   67.88    3.18
   2  -5   5   64.54    2.96
  -2   5  -5   67.46    2.76
  -2   5  -5   68.52    2.89
  -2   6  -3  249.78    8.66
  -2   6  -3  275.52    9.14
  -2   6  -3  259.74    8.45
   0   6  -4   37.52    2.21
   0   6  -4   38.50    2.37
   0   6  -4   39.70    1.64
   0  -6   4   40.09    1.91
   0  -6   4   40.13    2.51
   5   4   3  129.75    5.35
   5   4   3  136.42    5.08
   5   4   3  129.11    4.65
   5   4   3  128.51    5.29
   5   4   3  125.30    5.02
   5   4   3  133.03    4.53
   4   1   8   -0.58    0.99
  -4  -1  -8   -0.29    0.82
   4   1   8    0.10    0.86
  -4  -1  -8    0.39    0.77
  -4  -1  -8   -1.22    0.93
   4   1   8    1.56    0.91
  -3  -1  -9    3.87    1.03
  -3  -1  -9    4.81    0.90
   3   1   9    5.52    1.17
   3   1   9    7.79    1.13
  -3  -1  -9    2.70    0.98
   3   1   9    7.79    1.03
  -5   0   2  130.07    4.77
   5   0  -2  133.32    5.23
   5   0  -2  136.12    4.88
  -5   0   2  124.54    5.17
  -2  -2   7    0.74    0.66
  -2  -2   7    0.42    0.75
   2   2  -7   -0.14    0.70
  -2  -2   7    0.32    0.38
   2   2  -7    0.27    0.66
   5   1   6    0.24    0.75
  -5  -1  -6   -0.46    0.87
  -5  -1  -6    0.88    0.66
  -5  -1  -6    0.13    1.03
  -5  -1  -6   -0.33    0.55
   5   1   6   -0.50    1.15
   5   1   6    0.45    0.75
  -5  -1  -6    0.41    0.83
   5   1   6    0.49    0.57
   5   2   6  194.07    6.53
   5   2   6  184.15    7.16
   5   2   6  185.56    6.66
   5   2   6  187.83    6.65
  -5  -2  -6  182.89    6.64
  -5  -2  -6  191.18    6.42
  -5  -2  -6  193.64    6.62
   5   2   6  193.56    6.83
   4  -3  -4  244.16    7.74
  -4   3   4  245.11    8.29
  -4   3   4  226.82    7.40
   4  -3  -4  242.21    8.37
   4  -3  -4  239.17    8.83
  -4   3   4  243.38    7.72
  -4   3   4  253.24    8.58
   3   5  -3   54.77    2.58
   3   5  -3   54.06    2.02
   3   5  -3   56.93    3.14
   3   5  -3   52.07    2.18
  -3  -5   3   53.19    2.27
  -3  -5   3   54.16    2.96
  -1  -7  -6    0.71    0.94
   1   7   6    0.65    0.76
   1   7   6    1.05    0.84
  -1  -7  -6    0.66    0.70
   5   4   2   46.86    2.56
   5   4   2   48.99    2.12
   5   4   2   50.58    2.85
   5   4   2   54.52    2.64
   5   4   2   50.28    2.73
  -5   2   1   81.72    2.94
   5  -2  -1   86.01    3.54
  -5   2   1   83.67    3.95
   5  -2  -1   83.55    3.99
   5  -2  -1   84.41    3.24
  -1   1  -9  263.23    8.93
  -1   1  -9  263.82    9.00
   1  -1   9  272.18    9.18
   1  -1   9  262.94    8.65
   1  -1   9  262.14    9.59
  -1   1  -9  257.99    9.04
  -3   6   1  112.55    4.40
  -3   6   1  109.20    3.76
   3  -6  -1   99.52    4.19
  -3   6   1  110.68    4.63
   3  -6   0  147.73    5.11
  -3   6   0  138.90    4.73
  -3   6   0  145.28    5.42
  -3   6   0  143.79    5.53
  -3  -3  -9  274.61    9.65
   3   3   9  270.27    9.50
   3   3   9  269.25    9.53
  -3  -3  -9  280.22    9.45
   3   3   9  279.21    9.04
  -3  -3  -9  283.70    9.53
   5  -1   5  252.16    8.99
  -5   1  -5  258.69    9.50
  -5   1  -5  276.81    9.14
  -5   1  -5  270.20    8.98
  -5   1  -5  266.37    8.52
  -5  -4  -4  296.12    9.97
   5   4   4  286.17    9.88
   5   4   4  302.48    9.71
   5   4   4  305.56   10.36
   5   4   4  303.39    9.51
   5   4   4  285.13    9.90
   5   4   4  304.20    9.99
   5   4   4  286.65   10.31
  -1   6  -4    1.49    0.73
   1  -6   4    3.38    0.74
  -1   6  -4    2.10    0.64
  -2   6   5  156.02    5.41
   2  -6  -5  159.47    5.63
   2  -6  -5  157.09    5.81
   2  -6  -5  151.36    5.48
  -4  -3  -8  260.09    8.58
   4   3   8  254.49    8.66
   4   3   8  248.76    8.06
   4   3   8  230.98    8.61
   4   3   8  234.03    8.79
  -4  -3  -8  236.16    8.63
   4   3   8  251.14    8.40
   4   3   8  253.15    8.33
  -5  -1   2  221.05    7.98
  -5  -1   2  221.83    7.43
   5   1  -2  227.43    7.89
   5   1  -2  223.27    7.43
  -2   1   8  265.79    8.97
  -2   1   8  257.25    8.64
   2  -1  -8  251.41    9.62
   2  -1  -8  269.48    8.82
   2  -1  -8  267.89    9.01
   5  -1  -2  105.52    4.23
   5  -1  -2  115.48    4.62
   5  -1  -2  116.06    5.12
  -5   1   2  115.02    4.89
  -3  -5  -8    5.63    1.16
  -3  -5  -8    6.35    1.14
  -3  -5  -8    5.94    0.89
   3   5   8    6.00    1.20
   3   5   8    6.12    0.83
   3   5   8    5.37    1.10
  -3   5  -4  141.42    5.37
   3  -5   4  144.88    5.67
   4  -4  -3   91.29    3.92
   4  -4  -3   93.36    3.18
  -4   4   3   89.23    4.14
   4  -4  -3   92.65    4.31
  -4   4   3   91.57    3.38
   0  -7   2  155.22    5.86
   0   7  -2  145.00    5.41
   0   7  -2  136.55    5.54
   4   6   3   53.20    2.54
   4   6   3   49.85    2.71
   4   6   3   52.87    2.61
   4   6   3   47.40    2.81
   4   6   3   51.44    2.74
  -4  -6  -3   50.46    2.78
  -4   1   5  219.65    7.68
  -4   1   5  221.15    7.89
  -4   1   5  245.72    8.53
  -4   1   5  216.24    6.93
   4  -1  -5  222.08    7.65
  -2   2   8  381.07   13.00
   2  -2  -8  381.35   12.32
  -2   2   8  391.75   12.45
   2  -2  -8  380.91   13.10
  -2   2   8  382.79   12.69
   0   4   9  111.88    4.55
   0   4   9  109.68    4.39
   0  -4  -9  109.73    4.37
   0  -4  -9  108.47    4.51
   0  -4  -9  104.73    4.24
   0   4   9  104.70    4.32
  -4  -5   1  186.40    5.99
   4   5  -1  186.43    6.55
  -4  -5   1  189.41    7.07
   4   5  -1  184.99    6.97
  -4   0   5   62.76    2.82
   4   0  -5   65.01    2.89
  -4   0   5   50.35    3.28
  -4   0   5   64.99    2.98
  -3  -7  -3  409.73   13.77
  -3  -7  -3  416.80   12.62
   3   7   3  453.48   14.16
   2   6  -3   53.73    2.13
   2   6  -3   59.20    2.86
   2   6  -3   56.70    3.00
   2   6  -3   55.04    2.94
  -3   6   2    0.08    0.78
   3  -6  -2    0.10    0.93
  -3   6   2    0.46    0.95
  -3   6   2    0.87    0.47
   4   6   4  645.75   20.07
  -4  -6  -4  667.88   21.35
   4   6   4  679.48   20.61
  -4  -6  -4  680.62   21.35
   4   6   4  618.06   20.31
   4   6   4  643.36   20.54
  -3  -2   6   96.71    3.57
  -3  -2   6   97.56    3.87
  -3  -2   6   92.51    4.47
   3   2  -6  100.33    3.68
   3  -6   1  192.89    6.41
  -3   6  -1  187.35    6.19
  -3   6  -1  192.48    6.93
  -3   6  -1  187.84    6.86
  -5   2  -4   83.19    2.90
   5  -2   4   85.83    3.93
   5  -2   4   86.64    3.74
  -5   2  -4   89.70    4.12
  -5   2  -4   87.39    3.51
  -2   1  -9   13.13    1.42
  -2   1  -9   14.41    1.50
   2  -1   9   12.69    1.26
   2  -1   9   15.87    1.37
  -5   0  -6  139.20    4.87
  -5   0  -6  143.21    5.21
  -5   0  -6  130.98    5.60
  -5   0  -6  136.68    5.32
   5   0   6  137.37    5.60
   4   6   2   94.06    4.14
   4   6   2   90.84    3.75
   4   6   2   95.89    4.01
   4   6   2   91.55    4.11
   2   7   6  125.40    4.94
  -2  -7  -6  127.40    4.99
   2   7   6  118.90    5.02
  -2  -7  -6  119.42    4.29
   3  -3   7  147.57    5.66
   3  -3   7  148.86    5.41
  -3   3  -7  152.07    5.76
  -3   3  -7  153.53    5.63
  -5  -3  -6  306.00    9.88
   5   3   6  313.90   10.03
   5   3   6  293.30   10.05
  -5  -3  -6  296.24   10.01
   5   3   6  301.07   10.12
   5   3   6  311.47   10.32
  -5  -3  -6  297.62   10.03
   5   4   1   82.10    3.67
   5   4   1   83.96    3.92
   5   4   1   83.11    3.06
   5   4   1   84.40    3.65
   5   4   1   86.04    3.79
  -3  -7  -2   70.61    2.51
   3   7   2   75.91    3.14
  -3  -7  -4  229.76    8.21
   3   7   4  226.06    8.04
  -3  -7  -4  230.23    7.12
  -3  -7  -4  226.78    7.13
   4  -4   4  375.10   12.45
   4  -4   4  381.61   12.59
  -4   4  -4  370.74   12.42
   0   7   6   81.44    3.46
   0   7   6   81.42    3.80
   0   7   6   78.80    3.45
   0  -7  -6   83.49    3.48
   0  -7  -6   82.70    3.63
  -1   4  -7    8.50    1.21
   1  -4   7   10.22    1.36
   1  -4   7   12.97    1.69
   1  -4   7    8.91    1.07
   4   0   8  293.59   10.10
   4   0   8  289.10    9.90
  -4   0  -8  279.31    9.70
   4   0   8  292.32    9.91
  -4   0  -8  278.40    9.73
  -4   0  -8  291.07    9.40
  -1  -2   8   84.40    2.96
  -1  -2   8  102.07    3.89
  -1  -2   8   93.57    3.77
   1   2  -8   98.80    3.95
   1   2  -8   97.76    3.97
  -3  -6  -7   19.26    1.65
  -3  -6  -7   19.25    1.09
   3   6   7   21.80    1.74
   3   6   7   20.64    1.20
  -3  -6  -7   19.43    1.27
  -3  -6  -7   16.71    1.62
   2  -7  -1   30.37    1.80
  -2   7   1   32.69    2.10
  -2   7   1   29.20    1.66
   2   0  -8  154.54    6.51
  -2   0   8  155.72    5.81
  -2   0   8  155.64    5.55
   2   0  -8  162.56    5.86
  -2   0   8  156.15    5.42
   2   0  -8  155.97    5.65
   2   0  -8  160.12    5.39
   1  -2  -9  162.68    6.04
  -1   2   9  164.69    6.09
   1  -2  -9  163.68    6.50
  -1   1   9  288.24    9.71
   1  -1  -9  292.06    9.84
   1  -1  -9  293.24   10.46
  -3   0  -9    0.42    0.78
  -3   0  -9   -0.11    0.93
   3   0   9    0.10    0.79
   0  -1   9  297.48   10.40
   0  -1   9  313.38   10.52
   0   1  -9  341.97   11.03
   0   1  -9  329.49   11.11
   0  -1   9  331.48   11.24
   0   1  -9  335.35   11.19
   1   6  -4  248.33    7.91
   1   6  -4  236.43    7.94
  -1  -6   4  237.58    8.71
  -1  -6   4  237.52    7.63
   5   4   5  149.90    5.31
   5   4   5  136.70    4.47
  -5  -4  -5  148.18    5.45
   5   4   5  146.28    5.86
   5   4   5  149.96    5.52
   5   4   5  152.13    5.47
  -5  -4  -5  157.22    5.59
  -5  -4  -5  139.41    5.53
   5   4   5  155.28    5.09
   2  -7  -2   -0.19    0.92
  -2   7   2    1.39    0.68
   2  -7  -2    0.54    0.76
  -1   7   5  432.68   13.82
   1  -7  -5  422.81   14.16
   1  -7  -5  460.26   14.20
   1   6   8  666.18   21.35
   1   6   8  693.61   21.93
  -1  -6  -8  705.83   21.84
  -1  -6  -8  683.00   21.42
   1   6   8  707.92   21.57
  -1  -7   2  380.44   11.73
   1   7  -2  365.79   12.42
   1   7  -2  381.04   12.47
  -1  -7   2  376.01   12.67
   5  -3   1  124.53    5.18
   5  -3   1  126.90    4.69
   5  -3   1  129.40    4.97
   2   7  -1  215.97    7.90
   2   7  -1  219.35    7.92
  -1   7  -2    9.95    1.08
  -1   7  -2   10.75    1.17
   4  -2  -5  186.35    6.65
  -4   2   5  195.26    7.02
  -4   2   5  193.17    6.35
  -4   2   5  198.28    7.63
  -4   2   5  202.06    7.25
   0  -4   7   22.46    1.52
   0   4  -7   24.96    1.80
   0  -4   7   22.77    1.76
   0  -4   7   22.87    2.13
   0   4  -7   20.47    1.54
  -1   3  -8    1.56    0.89
   1  -3   8    1.97    0.51
   1  -3   8    1.28    1.19
   1  -3   8    2.90    0.82
   1  -3   8    1.58    0.89
  -1   3  -8    1.75    0.99
  -4   5   0  153.41    6.12
  -4   5   0  158.92    5.76
   4  -5   0  146.38    5.62
  -2   7   0   40.98    2.33
  -2   7   0   39.16    2.02
  -2   7   0   40.31    2.44
   2  -7   0   39.26    2.07
   5   3  -1   44.01    2.68
   5   3  -1   36.10    1.35
  -5  -3   1   44.03    2.42
   5   3  -1   45.11    2.38
   5   3  -1   41.49    1.72
  -5  -3   1   38.72    1.75
   3  -2   8   86.22    3.66
  -3   2  -8   89.76    3.90
   3  -2   8   88.70    3.82
  -3   4  -6   40.56    2.32
  -3   4  -6   44.88    2.33
   3  -4   6   41.12    2.13
   3  -4   6   38.07    2.28
  -3   4  -6   38.95    1.68
  -3   1   7   58.86    2.24
  -3   1   7   63.84    3.03
   3  -1  -7   60.59    2.59
  -3   1   7   69.69    3.00
   3  -1  -7   64.86    2.97
  -3   1   7   65.76    3.49
  -3   1   7   59.77    2.54
   4   5   7   48.35    2.61
  -4  -5  -7   50.37    2.58
  -4  -5  -7   51.51    2.72
  -4  -5  -7   45.86    2.61
   4   5   7   52.77    2.73
   4   5   7   50.18    1.98
  -3   4   6  183.24    7.15
  -3   4   6  208.49    6.96
  -3   4   6  209.88    7.57
   3  -4  -6  210.94    7.05
   4   6   5   19.04    1.47
  -4  -6  -5   21.93    1.79
   4   6   5   23.18    1.91
   4   6   5   22.98    1.75
   4   6   5   18.39    1.70
  -4  -6  -5   19.82    1.73
  -4  -1   5   32.33    1.95
   4   1  -5   30.60    1.31
   4   1  -5   35.67    1.92
  -4  -1   5   33.00    1.93
   5  -3   2  183.62    6.27
  -5   3  -2  177.06    6.84
   5  -3   2  163.94    6.53
  -4   5  -1  108.34    4.64
  -4   5  -1  106.52    4.36
   4  -5   1  104.64    3.60
   5  -3   0   36.26    2.17
  -2   3   8   18.01    1.24
   2  -3  -8   21.56    1.58
  -2   3   8   21.66    1.59
   2  -3  -8   22.28    2.00
   2  -3  -8   21.00    1.58
  -2   3   8   24.01    1.98
   3   4   9   84.08    3.90
   3   4   9   78.16    3.81
  -3  -4  -9   84.07    3.90
  -3  -4  -9   84.76    3.63
   3   4   9   86.97    3.41
   3   4   9   92.17    3.78
  -3  -4  -9   89.89    3.85
  -5  -2   2   31.62    1.70
   5   2  -2   32.12    1.67
  -5  -2   2   34.87    2.61
   5   2  -2   34.69    2.07
   5   2  -2   37.40    2.58
  -5  -2   2   32.44    2.15
   5   2  -2   33.36    1.36
  -2  -6  -8   96.30    3.75
   2   6   8   99.19    4.15
   2   6   8   99.18    3.57
   2   6   8   96.66    3.76
  -2  -6  -8  103.28    3.86
   3  -5  -5  204.28    6.79
  -3   5   5  200.55    7.08
   3  -5  -5  202.51    7.36
   1  -5   6  209.94    7.41
  -1   5  -6  208.57    7.28
   1  -5   6  222.77    7.89
  -1   5  -6  209.91    6.74
  -1  -5  -9  229.48    8.35
   1   5   9  232.80    7.91
  -1  -5  -9  238.34    8.23
  -1  -5  -9  224.63    7.89
   1   5   9  225.00    8.25
  -1  -5  -9  238.01    7.97
  -4   5   1   59.78    3.18
   4  -5  -1   55.28    2.86
  -4   5   1   59.43    2.74
  -4  -6  -1  275.31    9.50
   4   6   1  264.25    9.34
   4   6   1  268.48    9.12
   4   6   1  265.13    9.39
  -5   2   2  157.64    5.89
   5  -2  -2  156.00    5.72
   5  -2  -2  157.82    6.52
  -5   2   2  136.53    4.50
  -3  -7  -1    3.89    0.97
   3   7   1    3.27    0.91
  -1   6   7  107.26    4.52
  -1   6   7  105.78    4.37
   1  -6  -7  108.84    4.23
   1  -6  -7  105.70    4.20
   1  -6  -7   98.78    4.00
   0  -5   6   26.23    1.54
   0   5  -6   22.60    1.81
   0  -5   6   28.09    2.35
  -1   5   8    8.64    1.26
  -1   5   8   12.24    1.33
   1  -5  -8   10.33    1.22
   1  -5  -8   10.63    1.32
   1  -5  -8   14.07    1.36
  -1   5   8   10.25    1.28
   3   7   5  108.37    4.54
  -3  -7  -5  111.61    4.52
  -3  -7  -5  103.57    3.52
  -3  -7  -5  102.57    3.61
   3  -6  -3   10.15    1.36
  -3   6   3   13.50    0.91
   3  -6  -3   13.63    0.98
  -3   6   3   11.30    1.54
   3  -6  -3   12.09    1.53
   4   4   8  242.60    8.78
   4   4   8  256.75    8.59
   4   4   8  254.53    8.77
  -4  -4  -8  243.43    8.66
  -4  -4  -8  240.47    8.53
  -4  -4  -8  250.70    8.39
   4   4   8  229.23    8.90
   4   4   8  241.41    8.30
   4   4   8  258.56    8.07
  -4  -4  -8  247.19    8.32
   3  -2  -7    0.36    0.93
  -3   2   7    0.14    1.33
  -3   2   7    0.70    0.97
  -3   2   7    0.44    0.62
  -3   2   7    1.09    0.90
   1  -3  -9   88.88    3.76
   1  -3  -9   85.11    4.08
   1  -3  -9   89.11    3.84
  -1   3   9   87.43    3.75
  -1   3   9   86.87    3.51
   1  -3  -9   89.53    3.75
   4  -2   7   72.25    3.58
   4  -2   7   74.54    3.41
  -4   2  -7   76.33    3.46
  -4   2  -7   76.07    3.57
  -4   2  -7   77.00    3.07
  -3   6  -2  141.70    5.48
   3  -6   2  138.18    4.76
  -3   6  -2  144.91    5.57
  -3   6  -2  140.69    4.91
   3   0  -7   94.39    4.68
   3   0  -7   93.09    3.60
  -3   0   7   98.61    3.37
  -3   0   7   97.83    3.89
  -3   0   7   97.21    4.05
  -3   0   7  101.29    4.64
  -3   0   7   95.34    3.61
   3   0  -7  102.44    4.01
   2  -7  -3   55.50    2.53
   2  -7  -3   58.89    2.88
   2  -7  -3   55.14    2.66
  -2   7   3   54.71    2.40
   1   2  10  120.45    5.02
   1   2  10  126.00    4.86
  -1  -2 -10  115.31    4.77
   1   2  10  127.27    5.28
  -2  -5  -9  440.36   14.10
   2   5   9  450.79   14.80
   2   5   9  441.34   14.34
   2   5   9  462.45   14.38
  -2  -5  -9  451.31   14.25
  -1   0   9   27.33    1.90
   1   0  -9   27.29    1.82
  -1   0   9   29.01    1.84
   1   0  -9   26.65    1.64
   1   0  -9   26.12    1.77
   1   0  -9   25.71    2.26
   0   3  -8  239.59    8.13
   0  -3   8  246.89    9.12
   0  -3   8  240.68    8.55
   0  -3   8  244.51    8.42
   0   3  -8  230.12    8.19
  -4  -4   3  808.36   24.19
  -4  -4   3  765.71   23.94
  -4  -4   3  795.47   25.07
   4   4  -3  785.66   24.23
   4   4  -3  797.13   24.17
  -3  -6   2    5.18    1.24
  -3  -6   2    3.03    0.63
   3   6  -2    1.83    1.07
   3   6  -2    2.42    1.14
   3   6  -2    2.71    0.71
   4  -3   6  159.34    6.05
   4  -3   6  165.21    6.28
  -4   3  -6  167.57    6.05
  -4   3  -6  155.88    6.13
  -1  -8  -3  244.95    8.26
  -1  -8  -3  256.91    8.82
   1   8   3  250.51    8.80
  -1  -8  -2  196.24    6.80
   1   8   2  204.91    7.50
  -1  -8  -2  204.18    7.32
   4   3  -4  377.86   11.46
  -4  -3   4  375.69   12.93
   4   3  -4  361.17   11.56
   4   3  -4  375.12   11.82
  -4  -3   4  367.56   11.89
  -4  -3   4  376.14   11.98
  -2  -2 -10  187.76    6.87
  -2  -2 -10  189.26    6.84
   2   2  10  193.54    7.07
   2   2  10  166.07    6.79
   2   2  10  193.91    6.65
  -2   4  -7  133.28    4.77
   2  -4   7  134.17    5.17
   2  -4   7  134.05    4.70
   2  -4   7  135.22    5.47
   0  -8  -2  103.97    3.73
   0  -8  -2  107.97    4.46
   0  -8  -2  110.53    4.23
   0   8   2  112.66    4.60
   2   4  -6   46.17    2.41
  -2  -4   6   51.62    2.49
   2   4  -6   49.74    2.24
   2   4  -6   47.07    2.34
   2   4  -6   48.38    3.09
  -2   6  -4  300.67   10.80
  -2   6  -4  316.46   10.18
  -2   6  -4  326.37   10.39
   5   4   0    6.59    1.13
   5   4   0    7.20    1.34
   5   4   0    5.51    1.18
   5   4   0    6.39    0.64
  -5  -4   0    5.52    1.18
  -5  -4   0    6.10    0.58
   5   4   0    4.43    1.00
   1   1  10  253.66    9.39
   1   1  10  265.26    8.93
  -1  -1 -10  245.87    8.73
  -1  -1 -10  251.20    8.61
   1   1  10  256.01    9.06
   2  -7   1   65.17    2.86
  -2   7  -1   60.53    3.04
  -2   7  -1   65.63    3.24
  -2   7  -1   65.18    2.82
  -2   5   7  112.87    4.99
  -2   5   7  138.89    5.16
   2  -5  -7  134.61    4.95
   2  -5  -7  131.77    5.15
  -2   5   7  131.72    5.02
   2  -3   8   41.24    2.34
   2  -3   8   44.49    2.04
   2  -3   8   42.88    2.64
   5   2   7   34.50    2.15
   5   2   7   34.27    2.01
   5   2   7   32.66    2.35
  -5  -2  -7   29.62    1.67
  -5  -2  -7   31.14    1.87
  -5  -2  -7   31.96    2.04
   5   2   7   29.46    1.94
   5   2   7   29.62    1.78
  -4   5  -2  165.63    5.78
  -4   5  -2  167.32    5.96
   4  -5   2  152.76    4.92
   5   0  -3  136.36    5.29
  -5   0   3  127.90    4.77
  -5   0   3  122.92    5.13
   5   0  -3  137.89    5.01
   5  -3   3  215.74    7.48
  -5   3  -3  211.75    7.22
  -5   3  -3  208.71    7.84
   5  -3   3  205.20    7.68
   5  -3  -1   18.20    1.61
   5  -3  -1   19.04    2.07
  -5   3   1   16.18    1.69
   0   8   3  173.18    6.37
   0  -8  -3  159.36    5.20
   0  -8  -3  176.25    6.24
   0  -8  -3  168.79    5.94
   0  -6  -8   63.17    3.06
   0   6   8   60.54    2.93
   0   6   8   59.02    2.88
   0   6   8   63.97    3.20
   0   6   8   62.96    2.62
   0  -6  -8   63.03    2.94
  -5   1  -6  260.73    8.68
  -5   1  -6  245.46    8.13
  -5   1  -6  255.93    9.11
   5  -1   6  239.14    8.63
  -5   1  -6  250.34    8.75
  -5  -1  -7   57.06    2.30
  -5  -1  -7   55.75    2.56
  -5  -1  -7   52.18    2.72
   5   1   7   56.19    3.17
   5   1   7   57.57    2.80
   5   1   7   58.27    2.86
  -5  -1  -7   54.24    2.84
  -1  -3 -10    5.64    1.08
   1   3  10    5.37    1.13
   1   3  10    5.72    1.06
   1   3  10    7.09    1.40
  -1  -3 -10    5.81    1.21
   1   3  10    5.42    1.13
  -1  -7  -7   68.82    3.27
   1   7   7   62.77    2.88
  -1  -7  -7   64.68    2.85
   1   7   7   66.25    3.10
   2   5  -5   57.42    2.50
   2   5  -5   62.23    2.91
  -2  -5   5   62.64    2.79
   2   5  -5   70.51    3.60
  -2  -1   8   17.03    1.12
  -2  -1   8   16.92    1.44
   2   1  -8   17.36    1.19
   2   1  -8   13.22    1.92
   2   1  -8   15.99    1.32
  -2  -1   8   14.32    1.20
   2   1  -8   14.98    1.38
  -5   2  -5  150.77    5.61
   5  -2   5  145.39    5.90
  -5   2  -5  154.97    5.51
  -5   2  -5  141.43    4.90
  -5   2  -5  157.78    6.09
   5  -2   5  156.02    5.88
   4  -5  -2    6.12    1.38
  -4   5   2    9.00    1.12
   4  -5  -2    9.04    1.32
   2   1  10  183.26    6.45
   2   1  10  175.55    6.47
  -2  -1 -10  174.40    6.34
  -2  -1 -10  169.20    6.42
   2   1  10  169.85    6.60
   0   8   1   73.57    3.41
   0  -8  -1   62.70    2.75
   0  -8  -1   74.50    3.32
  -5  -4  -6  343.80   11.27
   5   4   6  339.61   10.29
  -5  -4  -6  348.05   11.34
  -5  -4  -6  329.08   11.19
   5   4   6  337.53   11.13
   5   4   6  326.73   11.24
   5   4   6  315.45   11.08
   5   4   6  347.13   10.84
   4  -4  -4   71.65    3.26
   4  -4  -4   69.36    2.61
  -4   4   4   68.03    3.49
   4  -4  -4   64.39    3.53
  -4   4   4   70.01    2.72
  -4   4   4   71.29    2.96
  -1  -8  -4  235.20    8.07
  -1  -8  -4  218.59    8.00
  -1  -8  -4  221.37    7.52
   1   8   4  226.09    8.08
   2   3  10   76.88    3.69
   2   3  10   83.81    3.76
   2   3  10   78.16    3.62
   2   3  10   77.40    3.39
  -2  -3 -10   82.65    3.58
  -2  -3 -10   78.35    3.59
  -1  -8  -1  301.46   10.36
   1   8   1  307.63   10.56
  -5   1   3   67.48    3.05
   5  -1  -3   63.67    3.63
   5  -1  -3   71.25    3.08
  -5   1   3   66.62    3.40
   1  -2   9   80.22    3.66
   1  -2   9   71.34    2.93
   1  -2   9   81.68    3.38
  -1   2  -9   74.59    3.52
  -1   2  -9   78.45    3.53
   2  -6  -6   94.98    3.96
  -2   6   6   84.44    3.81
   2  -6  -6   90.11    3.68
  -2   6   6   86.09    3.80
  -4   1  -8   79.33    3.64
   4  -1   8   83.50    3.78
  -4   1  -8   72.32    3.51
  -4   1  -8   78.44    3.19
  -4   1  -8   76.86    3.58
  -4  -6  -6    1.61    1.07
   4   6   6    1.55    0.91
   4   6   6    0.44    0.92
  -4  -6  -6    0.89    1.02
   4   6   6    0.90    0.32
   4   6   6    0.84    0.79
  -4   3   5  205.48    6.67
  -4   3   5  222.31    7.70
  -4   3   5  226.75    7.13
  -4   3   5  227.40    7.98
   4  -3  -5  227.74    8.40
   4  -3  -5  225.55    7.92
   5   5   3  112.39    4.79
   5   5   3  112.53    4.70
   5   5   3  115.47    3.90
   5   5   3  118.27    4.33
   5   5   3  116.09    4.87
   5   5   3  114.77    4.70
   0   7  -3  149.08    5.08
   0   7  -3  144.17    5.61
   0  -7   3  148.20    5.77
   0  -7   3  143.44    5.10
   0   7  -3  151.98    5.86
  -3  -4   5  212.92    8.08
   3   4  -5  214.83    7.13
  -3  -4   5  212.47    7.24
   3   4  -5  209.37    7.00
   3   4  -5  215.01    8.18
   3   4  -5  203.43    6.86
  -5  -1   3  248.06    8.24
   5   1  -3  261.66    8.53
   5   1  -3  254.27    8.84
  -5  -1   3  231.31    9.19
  -5  -1   3  252.76    8.73
  -2  -3   7    4.66    0.98
   2   3  -7    5.63    1.66
   2   3  -7    4.06    0.90
   2   3  -7    5.17    0.91
  -2  -7  -7  105.43    4.37
  -2  -7  -7  106.67    4.45
   2   7   7   90.10    4.38
   2   7   7  104.12    4.32
   2   7   7  102.08    3.80
  -2  -7  -7  101.60    3.79
  -2  -7  -7   98.13    3.79
   0   5   9  148.54    5.80
   0   5   9  146.70    5.58
   0  -5  -9  141.05    5.47
   0  -5  -9  149.51    5.80
   0  -5  -9  153.55    5.66
  -4  -5   2  316.54    9.99
  -4  -5   2  320.32   11.10
   4   5  -2  326.99   10.22
   4   5  -2  313.65    9.56
  -5  -3  -7  227.70    7.73
   5   3   7  233.68    7.88
   5   3   7  227.68    7.88
  -5  -3  -7  231.47    8.02
  -5  -3  -7  223.63    7.88
   5   3   7  232.00    8.53
   5   3   7  228.04    8.04
   5   3   7  228.07    8.19
  -3   1  -9   39.74    2.42
   3  -1   9   44.26    2.45
  -3   3   7  115.35    4.82
   3  -3  -7  117.89    4.72
  -3   3   7  117.96    4.47
  -3   3   7  121.53    4.08
  -3   3   7  124.18    5.27
  -3   5  -5  134.08    4.51
   3  -5   5  139.45    5.60
  -3   5  -5  139.05    5.24
   5   5   4  175.16    6.19
   5   5   4  175.99    5.74
  -5  -5  -4  166.15    6.40
   5   5   4  174.03    6.60
   5   5   4  178.66    6.50
  -5  -5  -4  179.37    6.47
   5   5   4  166.75    6.65
   5   5   4  173.04    6.42
   4   6   0  150.20    5.37
   4   6   0  134.92    5.63
  -4  -6   0  143.85    5.55
  -4  -6   0  137.54    4.44
   4   6   0  135.22    5.59
   3   7   0   17.78    1.56
   3   7   0   16.15    1.38
  -3  -7   0   16.59    1.49
   0  -8  -4  121.76    4.82
   0  -8  -4  112.38    4.52
   0  -8  -4  123.73    4.83
   0   8   4  108.72    4.44
   3   1  -7   75.28    2.75
  -3  -1   7   74.90    3.10
  -3  -1   7   77.28    3.38
   3   1  -7   72.99    3.28
   3   1  -7   77.54    3.02
   3   1  -7   75.92    4.13
   2  -5   6  139.52    5.31
  -2   5  -6  132.72    4.80
  -2   5  -6  132.56    4.82
  -3  -7  -6  188.30    6.74
  -3  -7  -6  177.62    5.93
   3   7   6  164.37    5.34
  -3  -7  -6  176.05    5.79
   3   7   6  177.44    6.51
   2  -7  -4   60.71    2.99
   2  -7  -4   59.90    2.76
  -2   7   4   58.80    2.57
   2  -7  -4   56.88    2.64
   4  -4   5  246.18    8.70
   4  -4   5  241.98    8.49
  -4   4  -5  248.42    8.57
  -4   4  -5  245.94    8.79
   1   4  -7  198.89    7.15
  -1  -4   7  199.39    7.99
  -1  -4   7  202.72    7.29
   1   4  -7  208.19    7.06
  -1  -4   7  205.85    7.15
   5   5   2   27.31    1.99
   5   5   2   32.28    1.32
   5   5   2   29.87    2.13
   5   5   2   24.22    2.04
   5   5   2   30.47    2.02
   5   5   2   28.51    1.60
   0  -6   5   10.31    1.66
   0  -6   5   10.88    1.06
   0   6  -5    7.32    1.22
   0   6  -5    8.28    1.36
   0   6  -5    8.60    0.60
   0   2  10    0.73    0.89
   0   2  10    2.59    0.98
   0  -2 -10    2.72    1.13
   0  -2 -10    2.61    0.95
   0   2  10    1.96    1.40
  -4  -2   5   74.30    3.19
  -4  -2   5   73.67    3.18
   4   2  -5   76.04    3.15
  -4  -2   5   74.87    4.01
   4   2  -5   73.80    2.66
   4   2   9   23.52    2.04
   4   2   9   27.49    1.79
   4   2   9   24.19    1.89
   4   2   9   22.64    1.56
  -4  -2  -9   24.15    1.71
  -4  -2  -9   23.15    1.90
   3   5  -4   21.67    2.02
  -3  -5   4   23.53    2.19
  -3  -5   4   22.78    1.45
   3   5  -4   21.25    1.58
   3   5  -4   21.45    1.12
   3   5  -4   22.72    1.21
  -2  -8  -3   69.08    2.81
   2   8   3   74.87    3.61
  -2  -8  -3   77.32    3.58
  -1   0 -10  290.55   10.05
   1   0  10  268.04    9.52
  -1   0 -10  291.64    9.97
  -1   0 -10  295.16    9.92
   1   0  10  279.14    9.67
   1   0  10  299.41   10.22
   5   0   7  279.99    9.60
  -5   0  -7  263.81    8.87
   5   0   7  277.74    9.88
  -5   0  -7  284.91    9.75
  -5   0  -7  284.16    9.32
  -5   0  -7  264.56    8.43
  -5   0  -7  273.98    9.39
   1  -7  -6  379.27   12.51
  -1   7   6  380.85   12.38
  -1   7   6  383.25   12.66
  -1   7   6  389.10   12.94
   1  -7  -6  384.61   12.46
   2  -4  -8   30.87    1.81
  -2   4   8   26.61    1.89
   2  -4  -8   24.50    2.16
  -2   4   8   30.19    1.67
  -2   4   8   31.46    2.22
  -1  -5   6  259.68    9.63
   1   5  -6  250.38    8.73
  -1   6  -5  106.55    4.55
  -1   6  -5  106.04    4.16
   1  -6   5   97.08    3.94
  -1   6  -5  101.38    3.75
   3  -6  -4   14.03    1.10
   3  -6  -4   15.06    1.63
   3  -6  -4   14.21    1.51
   1  -4  -9   18.04    1.63
   1  -4  -9   18.20    1.55
  -1   4   9   22.25    1.73
  -1   4   9   22.16    1.83
  -1   4   9   18.26    1.65
  -1   4   9   21.38    1.50
   1  -4  -9   19.48    1.84
   1  -4  -9   19.97    1.60
   0  -8   0  120.58    4.84
   0  -8   0  119.21    4.54
   0   8   0  123.85    4.99
   0   7   7   23.70    1.93
   0   7   7   26.52    1.77
   0   7   7   23.86    1.78
   0  -7  -7   25.96    1.88
   0  -7  -7   24.82    1.70
   2  -2   9   -0.07    0.68
   2  -2   9    1.72    0.83
   2  -2   9    0.88    1.01
   0   1  10   85.96    3.83
   0  -1 -10   85.90    3.67
   0  -1 -10   81.49    3.73
   0   1  10   90.70    4.39
   0  -1 -10   82.34    3.56
  -1   7  -3    9.19    1.17
  -1   7  -3   10.69    1.07
   3   3  -6   77.25    3.06
  -3  -3   6   81.42    4.02
   3   3  -6   76.70    3.07
  -3  -3   6   74.28    2.85
  -3  -3   6   80.30    3.31
   3   3  -6   77.49    4.12
  -3   6  -3  267.58    9.28
  -3   6  -3  257.99    9.09
   2   7  -2   75.79    3.65
   2   8   2  134.87    5.48
  -2  -8  -2  142.20    5.54
  -2  -8  -2  130.49    4.72
  -2  -8  -2  135.89    4.63
  -3  -6  -8   16.23    1.28
  -3  -6  -8   11.59    1.44
   3   6   8   14.29    1.10
  -3  -6  -8   13.56    1.04
   3   6   8   12.96    1.52
   1   1  -9   87.01    3.50
   1   1  -9   90.42    3.73
   1   1  -9   82.25    3.65
  -1  -1   9   87.23    3.82
  -1  -1   9   90.75    3.75
   4  -5   3    2.25    0.96
  -4   5  -3    0.35    1.08
   5   3  -2    8.96    1.20
  -5  -3   2    8.61    1.28
  -5  -3   2   10.76    1.80
   5   3  -2    7.73    0.84
  -5  -3   2    7.48    0.84
  -4  -1  -9  164.48    6.50
   4   1   9  175.64    6.65
   4   1   9  181.78    6.55
  -4  -1  -9  175.55    6.26
   4   1   9  175.00    6.79
  -4  -1  -9  178.16    6.54
   0  -2   9  242.91    8.49
   0  -2   9  233.46    7.58
   0  -2   9  256.48    8.44
   0   2  -9  244.05    8.73
   0   2  -9  258.99    8.71
   2   8   4   98.57    4.32
  -2  -8  -4   90.97    3.42
  -2  -8  -4   92.89    4.11
  -1  -8  -5   58.24    2.64
   1   8   5   61.84    3.12
  -1  -8  -5   63.70    3.09
  -1  -8  -5   57.90    3.03
  -2   7  -2  316.35   10.82
  -2   7  -2  320.85   10.54
  -2   7  -2  310.26   10.34
   2  -7   2  304.34    9.95
  -5   3  -4   32.04    1.29
  -5   3  -4   38.81    2.05
   5  -3   4   37.73    2.25
   5  -3   4   37.82    2.41
  -5   3  -4   33.35    2.36
   2   0  10   78.80    3.40
   2   0  10   81.88    3.69
  -2   0 -10   77.98    3.67
   2   0  10   83.67    3.53
  -2   0 -10   80.05    3.64
   2   0  10   66.51    3.33
  -5   2   3  140.57    4.61
   5  -2  -3  149.95    5.58
  -5   2   3  146.78    5.81
   5  -2  -3  146.76    6.25
  -1  -8   0  137.44    5.47
   1   8   0  134.70    5.51
   1   8   0  142.19    5.49
  -5   3   2    0.66    1.00
   5  -3  -2    2.02    1.30
   5  -3  -2    2.43    1.04
   5  -3  -2    0.58    0.25
   3   5   9   26.35    1.91
  -3  -5  -9   26.21    1.77
   3   5   9   23.53    1.98
  -3  -5  -9   30.83    2.06
   3   5   9   26.14    2.04
  -3  -5  -9   25.96    2.03
   3   5   9   28.76    1.60
  -1  -4 -10   21.30    1.64
   1   4  10   20.93    1.80
  -1  -4 -10   23.70    1.93
   1   4  10   22.94    1.73
   1   4  10   19.71    1.60
  -1  -4 -10   20.75    1.74
   1   4  10   24.37    1.92
  -1  -4 -10   20.56    1.60
   4   3   9  175.97    6.16
   4   3   9  170.09    6.66
   4   3   9  166.60    6.42
  -4  -3  -9  172.03    6.26
   4   3   9  167.75    5.91
  -4  -3  -9  164.06    6.37
   5   5   5   39.45    1.80
   5   5   5   37.10    2.54
   5   5   5   42.12    2.25
  -5  -5  -5   37.14    2.30
  -5  -5  -5   39.01    2.39
   5   5   5   37.35    2.37
   5   5   5   39.29    2.32
   1   7  -3  140.41    5.50
  -1  -7   3  131.22    4.38
   1   7  -3  133.50    5.43
  -1  -7   3  119.01    5.27
   0  -3 -10   24.77    1.77
   0   3  10   24.86    1.89
   0   3  10   23.01    1.64
   0  -3 -10   22.67    1.87
   0   3  10   24.91    1.82
   0  -3 -10   27.24    1.83
   0  -3 -10   24.67    1.82
  -1   8   2   22.05    1.66
   1  -8  -2   24.92    1.78
   1  -8  -2   22.75    1.77
   2   6  -4  152.37    4.91
   2   6  -4  166.55    6.23
   2   6  -4  172.23    6.01
   2   4  10    4.35    1.18
   2   4  10    2.29    0.89
  -2  -4 -10    3.12    0.98
   2   4  10    3.21    1.03
   4  -5  -3   -0.14    0.41
   4  -5  -3    1.33    1.21
   4  -5  -3    0.72    1.01
  -4   5   3    1.02    0.75
   3   2  10   79.15    3.42
  -3  -2 -10   79.67    3.71
   3   2  10   70.96    3.63
  -3  -2 -10   74.58    3.49
  -3  -2 -10   76.75    3.53
   3   2  10   77.13    3.31
   6   1   2    0.12    0.60
   6   1   2    0.90    1.21
   6   1   2    1.27    0.72
  -6  -1  -2    0.70    1.02
   6   1   2    0.29    0.73
   6   1   2    1.62    1.35
  -6  -1  -2    1.09    0.46
  -1   8   1    1.98    0.87
   1  -8  -1    3.94    1.09
  -4  -5  -8  105.41    4.52
  -4  -5  -8  107.46    4.34
  -4  -5  -8  105.37    4.48
   4   5   8  109.42    4.56
   4   5   8  107.75    4.44
  -4  -5  -8  104.28    4.09
   4   5   8  102.75    4.57
   4   5   8  107.14    3.80
  -6  -1  -3    1.98    1.12
   6   1   3    1.49    0.73
   6   1   3    1.74    0.62
   6   1   3    1.17    0.67
  -6  -1  -3    0.83    0.62
   6   1   3    1.84    1.20
   5   4  -1   38.60    2.25
   5   4  -1   34.52    2.30
  -5  -4   1   37.33    1.66
  -5  -4   1   42.25    2.33
   5   4  -1   39.43    2.29
   5   4  -1   37.30    1.58
  -5  -4   1   36.93    2.69
  -1  -3   8  194.55    7.09
   1   3  -8  202.96    7.23
   1   3  -8  207.93    7.19
  -1  -3   8  201.43    7.98
  -1  -3   8  202.69    7.11
   5   5   1   -0.48    0.97
   5   5   1    2.32    0.60
   5   5   1    1.86    1.08
   5   5   1    1.75    1.08
   5   5   1    1.55    1.02
   4  -1  -6  157.81    5.84
  -4   1   6  150.33    5.17
  -4   1   6  162.68    6.05
  -4   1   6  168.18    5.98
  -4   1   6  169.43    6.72
   5   2  -3   29.13    1.16
  -5  -2   3   34.56    2.67
  -5  -2   3   30.00    2.15
  -5  -2   3   36.76    1.90
   5   2  -3   33.92    1.73
   5   2  -3   31.67    1.93
   1  -8  -3   10.65    1.33
  -1   8   3    8.00    1.13
   1  -8  -3    8.05    1.27
   6   0   2  134.33    5.37
   6   0   2  125.17    4.28
   6   0   2  120.48    4.60
  -6   0  -2  117.24    4.16
   6   0   2  130.02    4.56
  -6   0  -2  130.41    5.37
   2   8   1  228.97    8.34
   2   8   1  235.09    8.45
  -2  -8  -1  212.43    7.26
  -2  -8  -1  214.71    6.53
  -3  -3 -10  237.74    8.04
  -3  -3 -10  211.92    8.08
   3   3  10  229.89    8.24
   3   3  10  225.32    7.77
  -3  -3 -10  222.68    7.93
   0  -8  -5  257.64    8.93
   0  -8  -5  254.99    8.70
   0   8   5  262.55    9.02
   0  -8  -5  258.94    8.97
   3   1  10    2.31    0.87
  -3  -1 -10    3.75    1.08
  -3  -1 -10    3.33    1.09
   3   1  10    2.43    1.07
   3   1  10    2.03    0.97
  -3  -1 -10    3.46    1.04
  -3  -1 -10    2.55    1.08
   4   0  -6    0.34    0.90
  -4   0   6    0.58    0.91
  -4   0   6    1.31    0.82
   4   0  -6    1.95    0.54
  -6   0  -3   76.34    3.05
   6   0   3   81.56    2.96
   6   0   3   83.02    3.10
   6   0   3   80.41    3.33
  -6   0  -3   81.43    3.29
   6   2   3   87.47    3.50
  -6  -2  -3   87.59    3.28
   6   2   3   85.54    3.17
  -6  -2  -3   90.12    4.26
   6   2   3   88.65    4.18
   6   2   3   83.92    4.38
   6   2   3   83.46    3.54
   6   2   3   87.84    3.49
   6   2   3   89.73    3.20
   3  -5  -6  146.84    5.21
  -3   5   6  141.83    5.36
   5   4   7  322.49   10.86
   5   4   7  323.66   10.54
   5   4   7  310.12   10.95
  -5  -4  -7  343.05   11.08
  -5  -4  -7  323.54   11.19
   5   4   7  332.79   10.81
  -5  -4  -7  334.49   11.22
   5   4   7  323.29   10.05
  -2  -8  -5   10.63    0.99
   2   8   5   13.58    1.49
   2   8   5   13.60    1.55
  -2  -8  -5   11.25    1.43
   0   0 -10  232.31    8.02
   0   0  10  231.47    8.77
   0   0 -10  231.75    8.14
   0   0 -10  231.59    8.19
   0   0  10  226.74    8.10
   6   1   1   72.92    3.14
   6   1   1   78.37    4.07
   6   1   1   70.55    2.87
  -6  -1  -1   68.01    3.57
   6   1   1   69.88    2.89
   6   1   1   70.02    3.58
   6   2   2   51.34    3.26
   6   2   2   51.21    2.41
   6   2   2   50.56    2.12
   6   2   2   49.74    2.50
  -6  -2  -2   52.44    3.07
   6   2   2   51.98    2.32
   6   2   2   49.46    2.95
  -5   4  -1  233.51    8.63
   5  -4   1  240.37    8.50
   5  -4   1  230.10    8.25
   6   1   4   33.63    1.68
   6   1   4   32.04    1.66
  -6  -1  -4   31.73    1.72
   1   6  -5  195.74    7.39
   1   6  -5  206.24    7.37
  -1  -6   5  204.42    7.93
  -1  -6   5  203.28    6.73
   6   0   1    9.79    1.10
  -6   0  -1    8.43    1.38
  -6   0  -1    7.80    0.60
   6   0   1    8.28    0.79
   6   0   1    7.82    1.41
  -4  -6  -7   -0.69    0.97
   4   6   7    0.22    0.91
   4   6   7    0.14    0.44
   4   6   7   -0.22    0.92
  -4  -6  -7    0.11    0.96
  -4  -6  -7   -0.19    0.67
   5  -4   0  126.24    5.03
   1  -8   0    1.78    1.05
  -1   8   0    1.55    1.05
  -1   8   0    1.22    0.78
  -1  -6  -9  521.20   16.75
   1   6   9  541.80   17.02
  -1  -6  -9  544.14   17.17
   1   6   9  540.48   17.18
   1   6   9  520.15   17.47
   2   2  -8    1.35    0.87
   2   2  -8    1.40    0.81
  -2  -2   8    1.24    0.89
  -2  -2   8    2.27    0.50
  -2  -2   8    1.92    0.82
  -4   2   6  141.01    4.90
  -4   2   6  146.60    5.60
  -4   2   6  151.59    5.79
   4  -2  -6  145.89    5.54
  -4   2   6  143.97    6.18
  -4   0  -9  165.40    6.52
   4   0   9  175.59    6.57
   4   0   9  174.45    6.71
   4   0   9  180.36    6.66
  -4   0  -9  170.90    6.54
  -4   0  -9  178.97    6.22
   3  -3   8  213.22    7.43
   3  -3   8  195.78    7.02
  -3   3  -8  200.16    7.10
  -3   3  -8  201.43    7.34
   5  -2   6  167.50    6.46
   5  -2   6  164.82    6.41
  -5   2  -6  162.96    6.26
  -5   2  -6  181.59    6.82
  -5   2  -6  178.00    6.45
  -5   2  -6  170.74    5.73
   3   6  -3   13.42    1.04
   3   6  -3   13.13    1.40
   3   6  -3   13.21    1.61
  -3  -6   3   15.95    1.71
  -3  -6   3   13.04    1.08
   3   6  -3   13.43    1.64
   6   2   4   15.85    1.10
  -6  -2  -4   18.82    1.93
   6   2   4   17.77    1.40
   6   2   4   15.21    1.14
   6   2   4   16.08    1.28
  -6  -2  -4   18.43    1.33
   6   2   4   20.44    1.95
   6   2   4   15.82    1.26
   0  -8   1   73.11    3.35
   0   8  -1   72.19    3.50
   0  -8   1   76.31    3.49
   0   8  -1   77.37    3.47
   2   6   9  237.61    8.17
  -2  -6  -9  229.01    7.62
  -2  -6  -9  221.39    7.71
   2   6   9  234.92    7.68
   2   6   9  218.08    7.78
   3  -4   7  109.02    4.29
   3  -4   7  115.88    4.67
  -3   4  -7  119.40    4.61
  -3   4  -7  112.26    4.07
  -3   4  -7  124.99    4.85
   3   7  -1   18.11    1.72
   3   7  -1   17.11    1.33
  -3  -7   1   16.69    1.58
   3   7  -1   14.40    1.67
   2  -7  -5   76.32    3.42
   2  -7  -5   69.05    3.07
   2  -7  -5   74.71    3.16
  -2   7   5   70.53    2.94
   5  -4   2  168.81    5.58
   5  -4   2  165.28    5.89
  -5   4  -2  153.65    6.23
   4   6  -1  126.65    5.23
  -4  -6   1  124.54    4.21
  -4  -6   1  128.01    5.28
   4   6  -1  123.72    4.76
   4   6  -1  128.96    5.40
   5   5   6  243.10    7.29
   5   5   6  229.89    7.93
  -5  -5  -6  234.58    8.39
  -5  -5  -6  239.77    8.36
   5   5   6  207.20    6.64
   5   5   6  243.73    7.92
   5   5   6  224.93    8.22
   5   5   6  224.08    7.74
  -3   4   7  166.93    6.47
   3  -4  -7  173.08    6.06
  -3   4   7  176.84    6.23
  -3   4   7  174.78    6.79
   4   4   9  241.68    8.30
   4   4   9  216.64    8.62
   4   4   9  236.30    7.85
   4   4   9  247.83    8.14
   4   4   9  240.63    8.57
  -4  -4  -9  235.08    8.27
  -4  -4  -9  246.41    8.51
  -4  -4  -9  239.49    8.62
  -3  -7  -7   60.54    2.40
   3   7   7   61.08    2.48
   3   7   7   64.36    3.24
  -3  -7  -7   60.71    3.07
   3   7   7   60.05    2.30
  -3  -7  -7   59.42    2.54
  -5   1  -7  230.39    8.19
  -5   1  -7  224.94    7.65
   5  -1   7  230.84    8.22
   5  -1   7  226.82    8.37
  -5   1  -7  241.36    8.31
  -5   1  -7  236.96    8.59
  -5  -2  -8   56.52    2.46
   5   2   8   45.94    3.00
   5   2   8   55.85    2.75
   5   2   8   56.19    2.82
  -5  -2  -8   51.69    2.67
  -5  -2  -8   53.19    2.89
   4   7   3  108.58    4.61
   4   7   3   99.11    4.44
   4   7   3  101.42    4.61
   4   7   3  105.93    4.31
  -4  -7  -3  106.10    4.62
  -1   6   8   41.46    2.50
  -1   6   8   43.45    2.29
   1  -6  -8   38.52    2.15
   1  -6  -8   38.09    2.23
   1  -6  -8   40.46    2.34
  -1   6   8   41.27    2.44
  -2   6  -5  202.04    6.79
  -2   6  -5  195.50    6.86
   2  -6   5  185.16    6.71
   6   0   4  131.13    4.43
   6   0   4  130.43    4.41
  -6   0  -4  130.20    4.40
  -6   0  -4  123.51    4.81
  -6   0  -4  119.71    4.57
   1  -8  -4  120.59    4.81
   1  -8  -4  125.82    4.80
   1  -8  -4  118.09    4.24
  -1   8   4  124.38    4.77
   1  -8  -4  128.07    4.91
   4  -3   7  150.85    5.85
  -4   3  -7  158.48    6.01
   4  -3   7  158.31    6.04
  -4   3  -7  150.18    5.88
   4  -3   7  158.80    6.23
  -3  -2   7   77.98    3.04
   3   2  -7   77.55    3.13
  -3  -2   7   77.52    3.40
   0  -4 -10  148.02    5.65
   0   4  10  154.78    5.99
   0  -4 -10  145.66    5.57
   0  -4 -10  149.30    5.81
   0   4  10  153.55    5.75
   0   4  10  151.32    5.82
   4   7   4  131.39    5.36
   4   7   4  127.55    5.28
   4   7   4  130.26    5.15
  -4  -7  -4  130.88    5.36
  -4   4   5   89.70    3.97
  -4   4   5   82.51    3.16
  -4   4   5   87.34    4.11
   4  -4  -5   89.45    3.94
   4  -4  -5   91.44    3.39
   4  -4  -5   93.10    4.31
  -4   4   5   94.53    3.55
  -6  -2  -1  274.70    9.85
   6   2   1  276.77    8.75
   6   2   1  282.93    9.15
   6   2   1  270.36    8.81
   6   2   1  257.61    9.24
   6   2   1  274.42    9.70
   6   2   1  286.57   10.23
  -5   0   4  155.81    5.73
  -5   0   4  153.34    6.05
   5   0  -4  149.24    5.37
   5   0  -4  141.07    6.19
   2  -1  -9   86.05    4.41
  -2   1   9   89.55    3.68
   2  -1  -9   88.48    3.89
  -2   1   9   85.79    3.85
   2  -1  -9   94.56    3.79
  -4  -4   4  234.81    7.90
   4   4  -4  238.60    7.90
  -4  -4   4  236.94    7.92
  -4  -4   4  246.95    8.98
   4   4  -4  244.22    7.94
   4   4  -4  238.50    7.76
   4   4  -4  247.79    9.28
   1   7   8   84.08    4.11
   1   7   8   92.07    3.89
   1   7   8   88.24    2.99
  -1  -7  -8   90.65    4.01
  -1  -7  -8   86.69    3.59
   1   7   8   85.94    3.66
  -1   1 -10  139.26    5.36
   1  -1  10  134.98    4.93
  -1   1 -10  129.62    5.19
  -1   1 -10  134.74    5.38
   1  -1  10  141.63    5.99
   1   8   6   63.77    3.14
  -1  -8  -6   68.63    3.33
  -1  -8  -6   66.80    2.94
  -1  -8  -6   71.11    3.42
  -2   2   9  232.49    8.13
  -2   2   9  240.35    8.73
   2  -2  -9  231.94    8.75
   2  -2  -9  231.54    8.02
  -2   2   9  233.42    8.35
  -6   1  -2  177.37    5.97
   6  -1   2  175.72    5.81
  -6   1  -2  177.88    6.16
   6  -1   2  176.03    6.13
   6  -1   2  169.45    5.43
   6  -1   2  187.33    6.27
  -5  -1  -8   74.96    3.68
  -5  -1  -8   80.13    3.64
   5   1   8   79.48    3.96
   5   1   8   82.91    3.68
  -5  -1  -8   81.07    3.42
  -5  -1  -8   81.97    3.08
   5   1   8   77.00    3.60
   1   8  -1  162.77    6.38
   1   8  -1  167.75    6.33
  -1  -8   1  157.43    5.21
   5  -1  -4   69.62    3.20
  -5   1   4   66.95    3.13
  -5   1   4   68.75    3.45
   5  -1  -4   74.45    3.88
   5  -4  -1   93.70    4.63
   5  -4  -1   93.86    4.07
   1  -4   8   42.50    2.89
   1  -4   8   44.87    2.60
  -1   4  -8   42.71    2.48
   1  -4   8   37.00    1.54
   1  -4   8   45.15    2.28
  -4   2  -8  126.79    5.18
  -4   2  -8  137.51    5.26
   4  -2   8  129.50    5.08
  -4   2  -8  129.92    4.78
   4  -2   8  120.76    5.31
  -4   2  -8  121.13    5.15
   4   1  -6   20.98    1.59
   4   1  -6   19.93    1.11
  -4  -1   6   21.19    1.60
  -4  -1   6   19.38    1.54
  -4   5  -4  101.44    4.49
   4  -5   4  100.64    4.36
   4  -5   4   95.79    4.18
   3  -7  -1  218.92    7.44
  -3   7   1  221.32    7.77
  -3   7   1  223.69    8.00
   3  -7  -1  221.41    7.93
  -3   7   1  209.72    7.03
   6   0   0   21.63    1.51
  -6   0   0   23.20    2.05
   6   0   0   21.85    1.25
   6   0   0   19.86    1.18
   6   0   0   23.88    2.01
   3  -6  -5    4.21    1.14
   3  -6  -5    3.70    1.13
   3  -6  -5    3.24    0.83
  -3  -4 -10   61.30    3.07
   3   4  10   60.53    2.78
  -3  -4 -10   70.20    3.44
   3   4  10   62.53    3.23
  -3  -4 -10   63.95    3.20
   4   7   2   81.84    3.89
   4   7   2   80.44    3.96
   4   7   2   83.23    3.75
   5   5   0   22.90    1.85
   5   5   0   27.09    1.45
   5   5   0   26.59    2.06
   5   5   0   25.37    1.92
  -5  -5   0   24.81    1.05
  -6   1  -1   25.37    1.32
  -6   1  -1   28.23    2.27
   6  -1   1   27.25    1.52
   6  -1   1   26.94    1.77
   6  -1   1   24.67    1.09
   6  -1   1   28.41    2.18
  -6   1  -1   27.95    1.51
   2   8   0  219.93    8.00
  -2  -8   0  191.74    5.82
   2   8   0  214.26    8.00
  -6  -1   0  184.45    7.17
   6   1   0  178.93    6.80
   6   1   0  191.91    7.46
   6   1   0  178.39    6.10
   6   1   0  173.85    6.14
  -5   3  -5  180.93    6.65
  -5   3  -5  184.84    5.95
   5  -3   5  186.20    7.03
  -5   3  -5  191.68    7.18
   5  -3   5  187.59    7.00
   2   7   8  144.97    5.28
  -2  -7  -8  141.92    5.73
   2   7   8  150.75    5.74
  -2  -7  -8  147.16    5.18
   5  -3  -3   18.24    1.60
   5  -3  -3   14.85    0.88
  -5   3   3   14.00    1.02
  -5   3   3   15.96    1.76
   5  -3  -3   19.27    2.09
  -5  -3  -8  224.66    7.61
   5   3   8  228.24    7.83
  -5  -3  -8  216.07    7.79
   5   3   8  222.34    7.80
  -5  -3  -8  226.12    7.99
   5   3   8  222.12    8.47
   5   3   8  228.67    7.42
   5   3   8  225.52    8.17
   5   3   8  223.84    8.03
  -3   0 -10    2.14    1.02
  -3   0 -10    2.09    0.98
  -3   0 -10    0.81    1.09
   6  -1   3  244.93    8.26
  -6   1  -3  239.28    8.11
  -6   1  -3  253.39    8.33
   6  -1   3  238.38    7.59
   6   3   3   93.90    3.53
   6   3   3   91.71    4.03
  -6  -3  -3   99.20    4.58
   6   3   3  101.34    3.32
   6   3   3   97.78    4.68
   6   3   3   95.25    4.00
   6   3   3   96.68    3.87
   6   3   3  103.74    4.56
  -2   7  -3  135.49    5.28
  -2   7  -3  151.38    5.80
   3  -7   0  206.99    7.03
  -3   7   0  218.14    7.68
  -3   7   0  210.55    7.51
  -3   7   0  197.59    6.77
  -3   6  -4  119.55    5.01
  -3   6  -4  115.08    4.72
  -1   5  -7  222.43    7.96
   1  -5   7  232.36    7.80
   1  -5   7  213.69    8.18
   1  -5   7  222.17    8.46
   2  -1  10   29.79    1.90
   2  -1  10   30.47    1.99
  -2   1 -10   27.43    2.09
   2  -1  10   24.55    1.75
  -2   1 -10   29.42    2.07
  -2   1 -10   29.78    2.16
  -6  -1  -5   81.07    3.39
  -6  -1  -5   81.70    3.31
   6   1   5   91.12    3.45
   3  -2   9  104.02    4.16
   3  -2   9   91.79    4.51
  -3   2  -9   94.34    4.19
   3  -2   9  107.41    4.38
   4   3  -5  365.37   12.59
  -4  -3   5  367.35   12.45
  -4  -3   5  339.97   11.33
  -4  -3   5  350.11   11.26
   4   3  -5  338.99   10.82
   4   3  -5  350.31   10.89
   0   7  -4    0.09    0.51
   0  -7   4    0.33    0.69
   0  -7   4   -0.52    1.22
   0   7  -4    0.42    0.96
   0   7  -4   -1.20    1.10
   4   7   5   44.58    2.72
  -4  -7  -5   49.98    2.82
   4   7   5   47.01    2.20
  -4  -7  -5   47.69    2.79
   4   7   5   54.11    2.78
  -1   5   9   10.57    1.32
   1  -5  -9   10.05    1.28
   1  -5  -9   10.83    1.39
   1  -5  -9   10.93    1.36
  -1   5   9   11.27    1.40
  -1   5   9   12.12    1.45
  -2   6   7  104.06    4.52
  -2   6   7  110.94    4.60
   2  -6  -7  104.31    4.17
   2  -6  -7  106.53    4.40
   6   2   5   -0.49    0.69
  -6  -2  -5    0.40    0.75
  -6  -2  -5    0.38    0.74
   6   2   5    0.78    0.67
   4   5  -3  304.39    9.78
  -4  -5   3  325.18   10.48
   4   5  -3  327.75   10.38
   4   5  -3  328.66   10.24
   4   5  -3  320.56   11.35
  -4  -5   3  341.78   11.65
  -1  -5 -10  192.18    7.19
  -1  -5 -10  195.66    7.03
  -1  -5 -10  184.17    6.77
   1   5  10  184.20    6.96
   1   5  10  192.38    7.20
  -1  -5 -10  185.96    6.74
   1   5  10  192.23    6.85
   4  -5  -4    6.04    1.26
   4  -5  -4    8.27    1.48
  -4   5   4    8.33    1.00
  -4   5   4    8.77    1.49
   4  -5  -4    6.27    0.74
  -3   7   2  120.51    5.02
   3  -7  -2  110.50    4.62
  -3   7   2  116.90    4.70
  -3   7   2  112.69    4.05
   5   1  -4   81.21    3.55
   5   1  -4   79.68    3.34
  -5  -1   4   84.59    3.50
  -5  -1   4   80.61    3.78
   6   3   2  103.51    3.98
   6   3   2  104.66    4.23
   6   3   2  103.02    4.64
   6   3   2  107.90    4.34
   6   3   2   98.29    4.85
   6   3   2  106.33    3.52
  -6  -3  -2  100.75    4.59
   6   3   2  100.31    3.57
  -2  -5 -10   90.19    3.77
   2   5  10   91.08    3.71
   2   5  10   88.79    3.78
   2   5  10   82.66    3.96
  -2  -5 -10   86.00    3.59
   2   8   6    5.70    1.23
   2   8   6    7.61    1.24
  -2  -8  -6    5.26    1.23
  -2  -8  -6    7.10    0.90
  -6  -3  -4  144.88    5.29
  -6  -3  -4  159.93    6.27
   6   3   4  155.74    6.16
   6   3   4  142.46    4.79
   6   3   4  144.68    5.47
   6   3   4  159.10    5.50
   6   3   4  144.21    5.14
   6   3   4  143.91    5.48
   6   3   4  155.82    6.30
   5  -4   3  155.83    6.06
  -5   4  -3  168.54    6.67
   5  -4   3  151.52    5.84
  -3   1   8   63.97    3.64
  -3   1   8   66.15    2.51
  -3   1   8   65.37    2.80
   3  -1  -8   70.96    3.20
  -3   1   8   70.57    3.27
   3  -1  -8   71.98    3.95
  -3   1   8   67.29    3.13
   3  -1  -8   63.66    2.85
   0  -4   8   18.46    1.73
   0  -4   8   19.93    2.16
   0  -4   8   19.39    1.44
   0   4  -8   21.69    1.79
   0   4  -8   17.87    1.58
   1  -8   1   40.13    2.31
  -1   8  -1   39.36    2.57
  -1   8  -1   42.51    2.36
  -4   4  -6  402.20   13.07
   4  -4   6  387.27   13.02
   4  -4   6  381.28   12.65
  -4   4  -6  388.09   13.17
   2  -5  -8  158.41    5.91
   2  -5  -8  146.31    5.98
  -2   5   8  171.44    6.22
  -2   5   8  145.71    5.97
   2  -5  -8  157.66    5.70
  -2   5   8  156.86    5.96
   0  -5   7    2.31    0.77
   0   5  -7    2.62    1.07
   0  -5   7    2.95    1.45
   0  -5   7    3.45    1.16
   2   0  -9   17.71    1.48
  -2   0   9   18.71    1.63
   2   0  -9   18.32    1.28
   2   0  -9   22.32    2.22
  -2   0   9   16.65    1.47
   2   0  -9   18.65    1.63
  -2   0   9   17.53    1.35
  -1   7   7  210.95    8.00
   1  -7  -7  204.49    7.05
   1  -7  -7  208.97    7.45
   1  -7  -7  217.81    7.48
  -1   7   7  223.69    7.57
  -1   7   7  216.20    7.77
  -4   6   0  181.05    6.38
  -4   6   0  183.26    6.03
   1   2  -9  416.32   13.45
   1   2  -9  406.52   13.35
  -1  -2   9  345.76   11.13
  -1  -2   9  380.68   12.13
  -1   2  10   12.22    1.35
   1  -2 -10   14.73    1.56
   1  -2 -10   10.89    1.61
   0  -6  -9   64.84    3.20
   0   6   9   74.55    3.34
   0  -6  -9   65.42    3.06
   0   6   9   69.61    3.02
   0   6   9   66.02    3.49
   2  -3  -9   15.28    1.81
   2  -3  -9   19.98    1.54
  -2   3   9   19.01    1.28
  -2   3   9   19.29    2.02
  -2   3   9   17.88    1.46
   2  -3  -9   15.61    1.51
   3   8   3   63.03    3.56
  -3  -8  -3   67.81    2.51
   3   8   3   75.97    2.86
  -3   5  -6   67.98    3.12
  -3   5  -6   63.96    2.52
   3  -5   6   60.35    3.16
   3  -5   6   72.12    3.03
   0   8   6  209.67    7.33
   0  -8  -6  208.97    7.35
   0   8   6  196.93    7.68
   0  -8  -6  193.59    7.05
   1  -3   9    3.74    0.92
   1  -3   9    3.34    1.14
  -1   3  -9    4.61    1.17
   1  -3   9    2.48    0.52
  -1   3  -9    3.07    1.14
  -4   3   6  189.11    6.10
  -4   3   6  198.10    7.35
  -4   3   6  192.12    6.75
   4  -3  -6  203.74    7.31
  -4   3   6  195.22    6.97
  -4   3   6  165.31    5.53
   3  -2  -8   32.14    2.68
  -3   2   8   36.81    2.22
   3  -2  -8   34.61    1.93
  -3   2   8   34.52    2.23
  -3   2   8   34.52    1.88
   3  -2  -8   35.37    2.20
  -3   2   8   34.38    2.59
   1  -7   4   59.25    2.76
  -1   7  -4   56.56    2.81
  -1   7  -4   56.91    2.48
  -4   6   1  161.31    6.03
  -4   6   1  166.62    6.52
  -3  -8  -4   32.86    1.47
   3   8   4   33.81    1.48
   3   8   4   34.81    2.28
   3   8   4   31.07    2.36
  -3  -8  -4   32.95    1.29
   1  -1 -10   53.74    2.78
   1  -1 -10   49.20    2.67
  -1   1  10   57.59    2.85
   2   7  -3  152.83    5.25
   2   7  -3  168.11    6.16
   2   7  -3  162.78    6.29
   5  -2  -4  148.97    5.64
  -5   2   4  145.36    5.60
  -5   2   4  145.14    5.91
   5  -2  -4  151.91    6.37
  -5   2   4  144.50    4.68
  -6   1   0   46.81    1.77
   6  -1   0   45.41    2.00
   6  -1   0   52.16    2.89
  -6   1   0   48.35    2.97
   6  -1   0   46.16    2.40
   6  -1   0   47.26    1.83
  -3   7  -1  302.04   10.28
  -3   7  -1  306.52   10.30
  -3   7  -1  287.78    9.53
   3  -7   1  299.39    9.72
  -5  -3   3    2.10    1.50
  -5  -3   3    0.60    0.84
   5   3  -3    1.90    0.54
  -5  -3   3    2.33    0.74
   5   3  -3    3.95    1.02
   5   3  -3    2.03    0.25
   5   3  -3    2.05    0.74
   0  -1  10  455.76   14.30
   0   1 -10  458.55   14.95
   0   1 -10  479.86   15.15
   0   1 -10  458.87   15.16
   0  -1  10  460.84   15.05
  -4   6  -1  123.69    4.09
  -4   6  -1  135.70    5.40
   4  -6   1  130.42    4.49
  -4   6  -1  129.48    5.15
  -6   0  -5  266.01    8.87
  -6   0  -5  252.29    8.61
  -6   0  -5  227.00    9.32
  -6   0  -5  263.51    8.34
   6   0   5  269.72    9.75
  -5   0  -8  101.13    4.39
   5   0   8   99.61    4.65
  -5   0  -8   97.03    3.91
  -5   0  -8  100.38    4.30
   5   0   8  110.03    4.51
  -5   0  -8   94.66    4.53
  -5   0  -8  102.18    3.49
   2  -4   8  152.60    6.27
   2  -4   8  162.44    5.98
   2  -4   8  158.23    5.40
   6   2   0  219.74    8.51
   6   2   0  223.13    8.02
  -6  -2   0  220.28    8.21
   6   2   0  225.99    7.80
   6   2   0  212.01    7.02
   6   2   0  217.11    7.51
   6   2   0  217.97    7.14
  -5  -4   2  135.97    5.25
  -5  -4   2  132.95    4.67
  -5  -4   2  140.23    5.94
   5   4  -2  135.02    5.14
   0   7   8    0.59    0.93
   0  -7  -8   -0.11    0.96
   0   7   8    0.10    0.77
   0  -7  -8    0.36    0.95
   0   7   8   -0.13    0.95
  -6   1  -4  253.28    8.32
  -6   1  -4  238.17    8.07
  -6   1  -4  220.36    8.86
   6  -1   4  247.54    9.07
  -3   0   8   33.28    2.61
   3   0  -8   29.68    2.05
  -3   0   8   29.82    1.70
   3   0  -8   26.07    2.52
  -3   0   8   32.48    1.92
  -3   0   8   32.87    2.13
  -3   0   8   30.50    1.49
   3   0  -8   32.51    1.75
  -3  -8  -2    3.53    0.90
   3   8   2    4.52    0.84
  -3  -8  -2    2.81    0.60
   4   7   1   21.17    1.80
  -4  -7  -1   22.32    1.81
  -4  -7  -1   20.91    0.90
   4   7   1   23.23    1.78
   4   7   1   22.34    1.95
   5   6   3   -0.48    1.07
   5   6   3    0.74    1.08
   5   6   3    0.08    0.71
   5   6   3   -0.82    0.95
   5   6   3    0.24    0.27
   5   6   3    0.12    0.99
   5  -4  -2   77.24    4.11
  -5   4   2   64.81    3.52
   5  -4  -2   76.92    3.58
   2   5  -6  116.10    4.29
  -2  -5   6  121.83    4.65
   2   5  -6  116.03    4.66
   5   6   4   24.80    1.93
   5   6   4   28.07    2.11
   5   6   4   22.75    1.72
   5   6   4   28.23    2.00
   5   6   4   23.56    1.94
   5   6   4   27.09    1.19
  -5  -6  -4   26.95    2.06
  -1   8   5  217.04    7.55
   1  -8  -5  230.35    8.04
   1  -8  -5  229.41    8.08
   2   4  -7   92.37    4.44
   2   4  -7   78.71    3.46
  -2  -4   7   83.26    3.56
   2   4  -7   80.49    3.35
   3   6   9   -1.63    1.09
  -3  -6  -9   -0.41    0.85
  -3  -6  -9   -0.24    1.03
   3   6   9    0.54    0.74
  -3  -6  -9   -0.25    1.12
   1  -3 -10   24.65    1.79
   1  -3 -10   22.72    1.84
   1  -3 -10   27.41    2.23
  -1   3  10   22.60    1.79
  -1   3  10   23.55    1.59
   1  -3 -10   25.11    1.81
  -6  -3  -1  265.56    9.56
   6   3   1  268.22    9.70
   6   3   1  258.49    8.15
   6   3   1  273.49    9.33
   6   3   1  247.99    7.97
   6   3   1  267.23    8.91
   6   3   1  263.00    8.49
   6   3   1  269.83    9.05
   4  -1   9  135.01    5.45
  -4   1  -9  124.03    5.34
  -4   1  -9  139.18    5.45
  -4   1  -9  137.02    5.03
   6   3   5   69.52    3.07
   6   3   5   64.24    3.01
  -6  -3  -5   65.99    2.87
   6   3   5   65.37    3.62
   6   3   5   71.30    3.26
  -6  -3  -5   59.30    2.91
   6   3   5   70.14    2.95
  -3   7   3   38.00    1.80
   3  -7  -3   39.63    2.40
  -3   7   3   41.38    2.65
   3  -7  -3   36.23    1.85
   3  -7  -3   37.28    2.40
  -3   7   3   40.50    2.32
  -5  -5  -7  335.88   11.66
   5   5   7  336.02   10.63
  -5  -5  -7  354.91   11.74
   5   5   7  357.48   11.14
  -5  -5  -7  350.89   11.62
   5   5   7  365.13   11.71
   5   5   7  353.48   11.67
   5   5   7  347.36   11.79
   0   8  -2    7.92    1.44
   0   8  -2   12.04    1.38
   0  -8   2    7.52    1.34
   0   8  -2    8.28    1.28
   1   7  -4  103.40    3.47
  -1  -7   4  105.98    3.82
   1   7  -4  114.46    4.62
  -1  -7   4  109.00    4.91
   1   7  -4   97.44    4.48
   2  -3   9   77.98    3.94
   2  -3   9   87.55    3.73
  -2   3  -9   66.02    3.34
   2  -3   9   82.53    3.25
  -3  -8  -5   63.74    3.38
   3   8   5   58.25    3.27
   3   8   5   67.62    3.36
  -3  -8  -5   65.69    2.47
  -3  -8  -5   67.57    2.47
  -4   6   2  127.92    5.56
  -4   6   2  136.08    5.09
   4  -6  -2  133.58    5.67
   2  -5   7  218.11    7.81
  -2   5  -7  205.81    6.96
   2  -5   7  223.19    8.23
  -2   5  -7  205.17    7.08
   0  -3   9  133.08    5.24
   0   3  -9  131.80    5.18
   0   3  -9  127.47    5.11
   0  -3   9  112.61    5.58
   0  -3   9  130.69    5.08
   4   7   6   18.55    1.30
   4   7   6   20.53    1.89
   4   7   6   16.76    1.63
  -4  -7  -6   18.81    1.78
  -4  -7  -6   17.91    1.77
  -5  -4  -8  359.73   12.44
  -5  -4  -8  382.69   12.60
   5   4   8  385.76   12.16
   5   4   8  363.05   12.63
   5   4   8  385.69   12.37
  -5  -4  -8  383.42   12.32
   5   4   8  355.63   12.87
   5   4   8  377.42   12.55
   5   4   8  373.27   11.73
  -6   0   1   34.95    2.52
   6   0  -1   29.45    1.25
   6   0  -1   32.29    2.23
   6   0  -1   29.23    1.78
   6   0  -1   30.05    1.60
  -3  -4   6   15.11    1.32
   3   4  -6   15.29    1.18
   3   4  -6   12.53    1.28
   3   4  -6   16.79    2.12
   3   4  -6   12.23    1.17
  -1   6  -6  121.02    5.12
   1  -6   6  136.18    5.63
   1  -6   6  124.34    4.88
  -1   6  -6  120.68    4.16
  -1   6  -6  117.18    4.75
   2  -8  -1   53.04    2.70
  -2   8   1   49.52    2.50
  -2   8   1   62.15    3.13
   2  -8  -1   56.87    2.92
   3   5  -5    0.84    0.68
   3   5  -5    1.43    1.27
   3   5  -5    1.26    1.02
  -3  -5   5    0.45    0.75
   0  -6   6    1.30    0.73
   0   6  -6    0.97    0.99
   0   6  -6    1.32    1.16
   0  -6   6    0.45    1.40
   5   6   2    2.67    1.12
   5   6   2    1.73    1.11
   5   6   2    1.35    1.02
   5   6   2    2.48    1.17
   5   6   2    2.59    0.25
   5   6   2    2.49    0.77
   4   6   8   21.24    1.23
  -4  -6  -8   18.40    1.39
   4   6   8   20.82    1.80
  -4  -6  -8   20.93    1.82
  -4  -6  -8   21.38    1.82
   4   6   8   20.63    1.79
   2  -8  -2   50.98    2.84
   2  -8  -2   55.83    2.69
  -2   8   2   57.02    2.63
  -1  -2 -11  249.35    8.93
   1   2  11  247.50    9.10
   1   2  11  238.24    8.76
   1   2  11  247.58    8.60
  -4  -5  -9  145.10    5.46
  -4  -5  -9  138.39    5.68
  -4  -5  -9  139.54    5.26
   4   5   9  141.54    4.96
  -4  -5  -9  136.22    5.57
   4   5   9  137.08    5.68
   4   5   9  145.67    5.57
   2   2  11   76.09    3.82
   2   2  11   82.80    4.06
  -2  -2 -11   79.70    3.63
   2   2  11   84.45    3.66
  -2  -2 -11   70.98    3.72
  -2  -2 -11   80.38    3.63
   6   1  -1  176.46    6.09
   6   1  -1  178.45    6.18
   6   1  -1  168.27    7.21
  -6  -1   1  176.04    6.89
   6   1  -1  178.41    6.73
   5   6   5    2.98    0.58
  -5  -6  -5    0.58    1.09
  -5  -6  -5    2.58    1.11
   5   6   5    1.88    1.10
   5   6   5    0.13    1.08
   5   6   5    2.48    0.93
   5   6   5    1.76    1.03
  -6   2  -2  262.66    8.40
   6  -2   2  255.17    8.47
   6  -2   2  248.17    7.90
   6  -2   2  249.15    8.61
  -6   2  -2  247.53    8.54
  -3   3   8   23.14    1.57
  -3   3   8   22.32    1.19
  -3   3   8   21.87    2.17
   3  -3  -8   22.18    1.81
  -3   3   8   24.40    1.89
  -1   0  10    0.29    0.82
  -1   0  10    0.54    0.88
   1   0 -10    1.02    0.90
   1   0 -10   -0.39    1.00
   1   0 -10    0.48    1.00
   4   2  -6   88.92    3.21
  -4  -2   6   86.64    3.52
  -4  -2   6   78.85    4.30
   4   2  -6   87.93    3.68
  -4  -2   6   84.58    3.59
   6  -2   1  118.67    4.45
   6  -2   1  124.02    4.80
  -6   2  -1  121.66    4.27
  -6   2  -1  119.39    4.41
   2  -7  -6  250.03    8.45
  -2   7   6  246.71    8.29
  -2   7   6  245.45    8.82
   2  -7  -6  246.03    8.70
  -4   6  -2   71.47    3.52
   4  -6   2   71.92    2.68
  -4   6  -2   71.11    2.61
  -4   6  -2   78.34    3.69
   6   2   6    6.71    1.07
   6   2   6    9.02    1.26
  -6  -2  -6    9.15    1.16
  -6  -2  -6    8.64    1.13
   6   2   6    7.54    0.94
   4   2  10   22.75    1.77
   4   2  10   24.43    2.00
   4   2  10   21.68    2.01
   4   2  10   24.96    1.69
  -4  -2 -10   24.95    1.85
  -4  -2 -10   22.43    1.95
   0  -5 -10  143.54    5.48
   0   5  10  145.39    5.90
   0  -5 -10  143.53    5.80
   0  -5 -10  146.29    5.64
   0   5  10  151.37    5.75
   0   5  10  148.48    5.70
   6   1   6  187.71    6.89
   6   1   6  200.93    6.63
   6   1   6  196.65    7.58
  -6  -1  -6  198.96    6.85
  -6  -1  -6  177.19    7.45
  -6  -1  -6  192.22    6.63
   3   7  -2   86.93    4.12
   3   7  -2   90.10    4.21
  -3  -7   2   88.40    4.05
   3   7  -2   88.23    3.46
  -5  -2   4    1.72    0.93
   5   2  -4    2.52    0.93
   5   2  -4    4.11    1.00
  -5  -2   4    2.49    1.01
  -5  -2   4    2.04    1.49
   2   8  -1  327.54   11.29
   2   8  -1  322.88   11.31
   1   8   7   28.32    2.01
  -1  -8  -7   32.81    2.29
  -5   4  -4   21.54    0.96
   5  -4   4   26.26    1.99
  -5   4  -4   24.47    2.09
   5  -4   4   24.50    2.04
  -5   4  -4   27.76    1.85
  -2  -3 -11  218.20    7.49
   2   3  11  219.38    8.02
   2   3  11  221.50    7.66
   2   3  11  204.95    7.79
  -2  -3 -11  193.14    7.55
   2   3  11  214.17    8.01
  -2  -3 -11  198.98    7.44
   1   3  11    7.12    1.22
  -1  -3 -11    5.63    1.31
   1   3  11    7.82    1.72
   1   3  11    7.84    1.21
  -1  -3 -11    7.37    1.23
   1   3  11    7.92    1.35
   4   6  -2   55.59    3.30
  -4  -6   2   52.94    3.18
   4   6  -2   57.55    2.66
  -4  -6   2   56.37    2.29
  -3  -8  -1    0.90    0.89
   3   8   1   -0.17    0.74
   3   8   1   -0.52    1.09
   3   7   8   21.39    1.91
   3   7   8   19.94    1.33
  -3  -7  -8   20.68    1.30
  -3  -7  -8   22.08    1.85
  -3  -7  -8   21.80    1.47
   1   8  -2  204.20    7.73
  -1  -8   2  210.35    7.78
  -1  -8   2  212.12    6.85
   1   8  -2  217.15    7.84
  -5  -5   1  130.21    5.40
   5   5  -1  113.60    5.09
   5   5  -1  118.74    4.24
  -5  -5   1  114.15    3.94
   5   5  -1  123.77    4.82
   5   5  -1  122.30    5.02
  -3  -5 -10   13.50    1.61
   3   5  10   14.03    1.37
   3   5  10   15.99    1.57
   3   5  10   13.42    1.64
  -3  -5 -10   13.27    1.43
  -3  -5 -10   13.96    1.54
   3   5  10   14.66    1.65
  -2   8   0  136.38    5.45
  -2   8   0  135.71    5.56
   2  -8   0  138.88    5.23
  -2   8   0  136.70    5.11
  -1  -1 -11  372.72   12.36
   1   1  11  376.67   13.07
  -1  -1 -11  371.64   12.54
   1   1  11  362.81   12.56
   1   1  11  381.60   12.47
   2   6  -5  248.83    8.72
   2   6  -5  247.74    9.01
  -3   7  -2   26.07    1.98
  -3   7  -2   23.48    1.49
   3  -7   2   21.33    1.42
  -3   7  -2   22.35    2.03
   6  -1  -1    5.84    1.12
   6  -1  -1    7.18    1.48
  -6   1   1    6.86    1.40
   6  -1  -1    6.13    1.61
   6  -1  -1    6.95    0.72
  -5   2  -7  101.96    3.89
  -5   2  -7  108.56    4.54
  -5   2  -7  107.15    4.80
  -5   2  -7  107.29    4.44
   5  -2   7  102.44    4.56
   5  -2   7  101.50    4.59
  -2  -1   9   -0.85    0.83
  -2  -1   9   -0.10    0.85
   2   1  -9    0.26    0.75
   2   1  -9   -0.34    1.26
   2   1  -9    0.93    0.88
  -2  -1   9    0.63    0.60
   2   1  -9    0.09    1.01
  -4  -3 -10   90.20    4.16
   4   3  10   95.03    3.93
  -4  -3 -10   87.28    3.92
  -4  -3 -10   89.06    3.95
   4   3  10   90.91    4.20
   4   3  10   87.96    4.30
   4   3  10   91.72    3.69
  -2   8   3   -0.52    0.80
   2  -8  -3    0.46    1.01
   2  -8  -3    0.51    0.90
   2  -8  -3    0.22    1.01
   2   1  11  141.38    5.93
  -2  -1 -11  125.28    5.31
  -2  -1 -11  129.06    5.23
  -2  -1 -11  130.41    5.17
   2   1  11  132.50    5.58
   2   1  11  137.12    5.38
   2   1  11  139.93    5.38
   6  -2   3  152.41    5.04
  -6   2  -3  147.51    6.36
  -6   2  -3  152.44    5.50
  -6   2  -3  158.35    5.68
   6  -2   3  157.02    5.62
   6   4   3  367.01   12.16
   6   4   3  342.31   11.45
   6   4   3  329.60   11.26
   6   4   3  330.94   10.88
   6   4   3  348.76   11.48
   6   4   3  362.00   11.98
   3  -1  10   70.91    3.37
  -3   1 -10   68.90    3.42
   3  -1  10   68.47    3.26
  -1   8  -2  101.66    3.97
  -1   8  -2   91.64    4.10
  -2   4   9   20.02    1.97
   2  -4  -9   17.99    1.53
   2  -4  -9   15.36    1.83
   2  -4  -9   16.41    1.61
  -2   4   9   17.69    1.33
  -2   4   9   18.46    1.53
   4  -5   5   30.67    2.10
   4  -5   5   30.74    2.29
  -4   5  -5   29.08    2.19
   6   4   4  407.08   13.68
   6   4   4  392.21   12.59
   6   4   4  404.37   13.56
   6   4   4  391.94   12.97
   6   4   4  399.00   13.01
   6   4   4  385.61   12.62
   6   4   4  407.81   13.02
  -1  -5   7  181.44    7.49
   1   5  -7  189.13    6.77
   1   5  -7  181.45    6.47
   2   3  -8   84.86    3.65
  -2  -3   8   86.04    3.73
   2   3  -8   90.21    3.65
   4   1  10   83.97    4.04
  -4  -1 -10   92.82    3.91
   4   1  10   87.68    4.04
  -4  -1 -10   87.65    4.11
   4   1  10   87.06    3.84
   3  -5  -7  164.78    5.87
  -3   5   7  169.96    6.25
   2   8   7   48.14    2.66
  -2  -8  -7   44.06    2.13
   2   8   7   38.54    2.73
  -2  -8  -7   47.52    2.73
  -3  -1   8   21.88    1.48
  -3  -1   8   19.09    1.23
   3   1  -8   19.95    1.66
   3   1  -8   20.41    2.25
   3   1  -8   20.00    1.45
   3   1  -8   22.08    1.22
  -3  -1   8   20.24    1.66
   6  -2   0   60.73    3.71
   6  -2   0   58.24    2.92
   6  -2   0   56.63    3.17
   6  -2   0   59.57    2.48
  -6   2   0   58.39    3.39
  -6   2   0   56.92    2.29
  -6   2   0   60.24    2.43
  -6   1  -5   62.97    3.53
  -6   1  -5   63.73    2.95
   6  -1   5   66.03    3.56
  -6   1  -5   59.35    3.07
  -6   1  -5   63.64    2.47
  -1   2 -10   15.64    1.69
  -1   2 -10   16.50    1.70
   1  -2  10   15.39    1.68
   1  -2  10   17.98    1.21
  -1   2 -10   17.75    1.65
   5  -3   6   91.26    4.14
  -5   3  -6   93.55    4.41
   5  -3   6   89.50    4.17
  -5   3  -6   95.98    4.08
  -5   3  -6   95.86    3.46
   3   3  -7   11.69    1.17
  -3  -3   7    9.81    1.22
   3   3  -7    8.46    1.91
  -3  -3   7    9.79    0.79
   3   3  -7   12.41    1.18
   1   4  -8  163.14    6.26
  -1  -4   8  167.40    6.94
  -1  -4   8  161.67    6.12
   1   4  -8  177.18    6.22
  -1  -4   8  154.58    5.95
  -5   3   4   14.57    1.51
   5  -3  -4   15.89    1.61
   5  -3  -4   15.08    0.98
  -5   3   4   19.26    1.88
  -5   3   4   15.86    1.07
   5  -3  -4   19.01    2.10
   6   3   0  147.02    4.86
   6   3   0  144.38    5.02
   6   3   0  141.32    6.15
   6   3   0  146.87    5.52
   6   3   0  139.61    5.64
  -6  -3   0  148.34    6.01
   6   3   0  144.53    5.78
   4   7   0   12.75    1.65
   4   7   0    9.89    1.52
   4   7   0   12.83    1.41
  -4  -7   0   13.27    1.57
   6   4   2  176.85    5.67
   6   4   2  185.27    7.13
   6   4   2  196.80    6.55
   6   4   2  187.03    6.13
   6   4   2  199.72    6.87
   6   4   2  198.40    7.45
  -6  -4  -2  191.85    7.37
   6   4   2  198.53    6.96
   6   3   6   48.35    2.76
  -6  -3  -6   55.57    2.79
  -6  -3  -6   56.32    2.75
   6   3   6   57.45    2.66
   6   3   6   52.20    2.60
   6   3   6   53.74    2.60
   5   6   1    0.67    1.04
   5   6   1    2.06    1.26
   5   6   1    0.25    1.06
   5   6   1    0.29    0.63
   3   8   6   48.63    2.92
  -3  -8  -6   51.59    2.16
   3   8   6   53.11    2.95
  -3  -8  -6   55.41    2.23
  -3  -8  -6   56.30    3.07
  -6  -2   1  244.85    8.92
   6   2  -1  217.73    7.78
   6   2  -1  223.51    8.73
   6   2  -1  228.96    7.45
   6   2  -1  231.28    8.19
   1  -4 -10   59.44    3.05
   1  -4 -10   58.04    2.95
  -1   4  10   61.81    3.16
  -1   4  10   63.39    3.31
  -1   4  10   60.31    2.93
  -1   4  10   61.47    3.12
   1  -4 -10   61.96    2.98
   1  -4 -10   54.73    3.19
   3   6  -4   14.86    0.96
   3   6  -4   13.60    1.45
   3   6  -4   12.83    0.85
  -3  -6   4   12.74    1.14
   3   6  -4   13.62    1.68
   3   6  -4   17.32    1.98
  -2   7  -4  255.52    8.48
  -2   7  -4  232.88    8.89
  -2   7  -4  250.34    8.31
  -6   0  -6   85.78    3.71
  -6   0  -6   86.50    3.85
   6   0   6   87.33    4.28
  -6   0  -6   85.04    3.35
  -6   0  -6   86.11    4.29
  -4   6   3   55.19    2.68
   4  -6  -3   56.64    3.26
   4  -6  -3   55.09    2.15
   3  -6  -6   44.70    2.22
  -3   6   6   39.23    2.36
   3  -6  -6   43.08    2.55
  -3   7   4   35.35    1.74
   3  -7  -4   28.48    2.13
   3  -7  -4   31.77    1.75
   3  -7  -4   37.64    2.32
   5   6   6    5.25    1.14
   5   6   6    5.32    1.22
   5   6   6    5.31    1.18
  -5  -6  -6    6.02    1.39
   5   6   6    4.45    1.41
  -5  -6  -6    3.35    1.19
   5  -1   8   58.93    3.25
  -5   1  -8   61.69    3.05
  -5   1  -8   52.12    1.93
  -5   1  -8   59.76    3.28
  -5   1  -8   54.48    3.00
  -5   1  -8   59.89    2.60
   5  -1   8   58.85    3.11
  -5   4   3   17.48    1.88
   5  -4  -3   14.63    1.64
   5  -4  -3   15.51    2.00
   5  -4  -3   14.57    0.78
  -4   1   7    2.00    1.56
  -4   1   7    0.43    0.53
  -4   1   7    0.44    0.98
  -4   1   7   -0.11    0.87
   4  -1  -7    0.48    1.06
   4  -5  -5    7.75    1.55
  -4   5   5    6.32    1.36
  -4   5   5    5.77    0.88
   4  -5  -5    6.32    0.83
   4  -5  -5    5.50    1.28
  -4   5   5    6.32    1.06
   4  -4  -6  149.16    5.65
  -4   4   6  146.79    5.95
   4  -4  -6  140.63    5.06
  -4   4   6  141.47    5.19
  -4   4   6  142.17    5.71
  -5  -2  -9  179.07    6.62
  -5  -2  -9  175.18    6.81
   5   2   9  177.79    6.83
  -5  -2  -9  184.41    6.26
   5   2   9  182.72    7.20
   5   2   9  188.22    6.76
  -3   6  -5   23.28    1.79
   3  -6   5   24.40    2.16
   1   9   3  146.11    5.86
  -1  -9  -3  149.20    5.78
  -1  -9  -3  135.14    5.13
   6   4   5  344.58   10.44
   6   4   5  300.92    9.63
   6   4   5  345.99   10.83
   6   4   5  330.78   10.51
   6   4   5  332.57   10.84
  -6  -4  -5  323.53   11.02
  -6  -4  -5  331.54   10.83
   6   4   5  338.09   11.38
  -2   2 -10   28.09    2.03
   2  -2  10   30.21    2.06
   2  -2  10   30.41    1.80
   2  -2  10   32.37    2.37
  -2   2 -10   31.08    2.22
   0  -8  -7  233.24    8.11
   0   8   7  217.93    7.78
   0  -8  -7  216.23    7.78
   0   8   7  219.45    8.23
   2   4  11   40.98    2.29
   2   4  11   43.90    2.61
  -2  -4 -11   43.11    2.54
   2   4  11   37.73    2.45
   2   4  11   34.57    2.51
   2  -6   6  189.73    6.92
  -2   6  -6  174.34    6.32
  -2   6  -6  184.73    6.32
  -2   8  -1   81.03    3.61
  -2   8  -1   73.84    3.32
  -2   8  -1   75.19    3.77
   2  -8   1   73.02    3.26
   0  -2 -11   13.27    1.52
   0   2  11   11.20    1.45
   0   2  11   10.96    1.42
  -1  -9  -2  150.12    5.53
  -1  -9  -2  153.93    6.06
   1   9   2  152.47    6.04
  -1   8   6  247.19    8.91
  -1   8   6  237.26    8.28
   1  -8  -6  253.94    8.93
   1  -8  -6  261.32    8.96
  -5   1   5  109.38    4.69
  -5   1   5   98.21    4.30
  -5   1   5  109.39    5.18
   5  -1  -5   97.85    4.08
  -1  -4 -11    9.31    1.50
  -1  -4 -11    9.61    1.31
   1   4  11    8.27    1.32
  -1  -4 -11    8.36    1.37
   1   4  11    9.01    1.28
  -1  -4 -11    6.82    1.20
   1   4  11    8.03    1.38
   1   4  11    9.46    1.64
   1   7   9  101.68    3.64
   1   7   9  104.10    4.23
   1   7   9  102.98    4.35
  -1  -7  -9   97.54    4.04
  -1  -7  -9  103.82    4.46
   1   7   9  100.41    4.66
   5   0  -5  102.45    4.17
  -5   0   5   96.44    4.25
  -5   0   5  101.89    4.05
  -1  -6   6  138.29    6.12
   1   6  -6  148.58    5.88
   5  -5   0  266.15    9.36
  -5   5   0  266.19    9.74
  -5   5  -1  227.19    8.53
  -4  -7  -7    5.32    1.19
  -4  -7  -7    4.03    1.18
  -4  -7  -7    4.41    0.78
   4   7   7    6.02    1.27
   4   7   7    4.92    0.88
   4   7   7    4.96    1.31
   4   7   7    3.80    0.53
  -6   2  -4   65.88    3.68
   6  -2   4   65.91    3.21
   6  -2   4   63.34    3.46
  -6   2  -4   67.05    3.01
  -6   2  -4   65.61    3.14
  -4   0   7    5.61    1.69
  -4   0   7    5.48    1.18
   4   0  -7    7.61    1.20
  -4   0   7    7.87    1.23
   4   0  -7    5.82    0.74
  -4   6  -3    0.73    1.12
  -4   6  -3    1.68    0.56
  -4   6  -3    1.36    1.11
   3   2  11   69.94    3.60
  -3  -2 -11   70.25    3.49
   3   2  11   75.86    3.38
  -3  -2 -11   75.21    3.51
  -2  -7  -9  264.33    8.98
  -2  -7  -9  267.65    8.92
  -2  -7  -9  274.40    9.53
   2   7   9  280.81    9.56
   2   7   9  267.65    9.12
   2  -8  -4   13.49    1.33
   2  -8  -4   13.56    1.33
   2  -8  -4   15.99    1.66
  -2   8   4   12.23    1.19
  -4   2   7    0.78    0.60
  -4   2   7    0.49    1.42
   4  -2  -7    0.20    1.02
  -4   2   7    0.83    1.13
  -4   2   7    1.00    0.95
   0  -9  -2   12.02    1.47
   0   9   2   15.32    1.59
   0  -9  -2   15.91    1.70
   0  -9  -2   14.05    1.05
   4   4  10  221.64    8.41
  -4  -4 -10  236.60    8.52
  -4  -4 -10  232.15    8.16
  -4  -4 -10  225.37    8.31
   4   4  10  225.14    8.28
   4   4  10  224.61    7.62
   1   6  10  322.91   10.70
  -1  -6 -10  324.07   10.60
   1   6  10  310.74   11.09
  -1  -6 -10  309.62   10.87
   2   6  10   87.95    4.09
   2   6  10   91.10    3.69
   2   6  10   91.40    3.76
  -2  -6 -10   92.55    3.91
   2   6  10   83.00    3.93
  -2  -6 -10   94.19    3.80
   5   3   9   36.89    2.20
   5   3   9   36.15    2.62
   5   3   9   40.04    2.29
   5   3   9   38.28    2.53
  -5  -3  -9   37.90    2.43
  -5  -3  -9   36.01    2.06
   5   3   9   36.31    2.39
  -5  -3  -9   37.88    2.34
   5   3   9   38.45    1.95
  -5  -1  -9   41.08    2.60
  -5  -1  -9   43.20    1.99
  -5  -1  -9   39.42    2.55
   5   1   9   41.22    2.46
  -5  -1  -9   43.82    2.37
   5   1   9   41.38    2.76
   5   1   9   39.14    2.47
  -1   0 -11  485.80   15.57
   1   0  11  481.08   15.80
  -1   0 -11  467.48   15.42
  -1   0 -11  472.10   15.61
   1   0  11  457.33   15.19
   1   0  11  450.64   15.03
   0  -9  -3   57.23    2.84
   0  -9  -3   54.69    2.08
   0   9   3   61.19    3.10
   0  -9  -3   60.94    3.12
   1   9   4  235.28    8.51
  -1  -9  -4  237.37    8.03
  -1  -9  -4  236.66    8.59
  -4   3  -8  131.89    5.24
   4  -3   8  126.09    5.56
   4  -3   8  135.93    5.40
   4  -3   8  131.45    5.20
  -4   3  -8  127.28    5.27
   3   8   0   10.09    1.55
  -3  -8   0    9.83    1.32
   3   8   0   10.54    1.29
  -6   0   2   28.45    2.24
   6   0  -2   30.91    2.20
   6   0  -2   31.63    1.90
  -3   4  -8   71.34    3.19
   3  -4   8   72.58    3.15
  -3   4  -8   68.16    3.41
   3  -4   8   72.29    3.48
   2   0  11   30.80    2.51
   2   0  11   27.09    1.91
  -2   0 -11   30.78    2.19
   2   0  11   26.92    2.10
   2   0  11   28.25    2.02
  -2   0 -11   27.14    2.10
   0  -1 -11   77.28    3.52
   0   1  11   78.13    4.23
   0  -1 -11   80.92    3.76
   0  -1 -11   77.99    3.65
   0   1  11   74.21    3.58
   3   3  11  110.82    4.44
  -3  -3 -11  102.66    4.45
   3   3  11  109.67    4.79
  -3  -3 -11  104.18    4.49
  -1   6   9   27.96    1.97
   1  -6  -9   26.12    1.89
  -1   6   9   22.59    1.92
  -1   6   9   23.57    1.91
   1  -6  -9   26.43    1.92
   1  -6  -9   30.78    2.06
   0  -3 -11    1.94    1.02
   0  -3 -11    1.55    1.12
   0   3  11    3.33    0.97
   0   3  11    1.79    0.96
   0   3  11    4.01    1.13
   0  -3 -11    2.46    1.04
  -6  -4  -1  212.59    7.97
   6   4   1  222.69    7.88
   6   4   1  215.47    7.59
   6   4   1  209.34    8.09
   6   4   1  206.99    6.51
   6   4   1  214.92    7.69
   6   4   1  204.91    6.70
  -4  -4   5  164.56    6.05
   4   4  -5  171.43    5.79
   4   4  -5  170.80    5.76
   4   4  -5  173.98    5.91
  -4  -4   5  181.27    7.14
   4   4  -5  165.42    7.18
  -4  -4   5  169.90    5.83
   0  -2  10  416.93   13.66
   0   2 -10  422.33   14.16
   0  -2  10  402.41   12.64
   0   2 -10  436.82   14.00
   0  -2  10  421.76   13.58
   0   2 -10  427.98   14.08
  -1  -1  10   39.08    2.45
  -1  -1  10   43.76    2.42
   1   1 -10   43.97    2.35
   1   1 -10   46.92    2.59
   1   1 -10   45.27    2.56
  -6   2   1  100.64    4.69
   6  -2  -1  103.59    4.28
   6  -2  -1  112.72    4.98
  -6   2   1   93.05    3.42
   6  -2  -1  101.33    3.85
  -6   2   1  100.01    3.35
  -3   4   8    1.65    0.88
  -3   4   8    2.69    0.70
   3  -4  -8    2.49    0.91
  -3   4   8    3.11    1.44
  -3   4   8    1.30    1.08
  -4   0 -10  184.47    6.68
  -4   0 -10  184.07    7.00
   4   0  10  173.87    6.65
   4   0  10  172.94    6.80
   4   0  10  187.57    6.88
  -5  -5  -8  457.14   14.91
   5   5   8  437.04   13.53
  -5  -5  -8  446.68   14.74
  -5  -5  -8  453.23   14.92
   5   5   8  433.79   14.50
   5   5   8  420.40   14.35
   5   5   8  461.29   14.01
   5   5   8  442.27   14.67
   5  -5  -1  225.87    8.15
   0   7  -5   29.06    1.34
   0  -7   5   30.64    2.58
   0   7  -5   31.88    2.19
   0  -7   5   35.81    1.90
   0   7  -5   31.43    2.30
   5  -5   2  198.44    6.18
  -5   5  -2  242.26    8.98
   4   5  -4   74.50    4.09
   4   5  -4   73.67    2.77
  -4  -5   4   70.65    2.99
   4   5  -4   73.89    2.90
  -4  -5   4   75.89    3.99
   4   5  -4   73.92    3.18
   3  -3   9  230.54    8.66
   3  -3   9  224.22    7.91
  -3   3  -9  201.45    7.50
   3  -3   9  243.99    8.38
   4  -4   7  258.60    9.16
  -4   4  -7  273.27    9.59
   4  -4   7  275.64    9.70
  -4   4  -7  276.80    9.64
   4  -4   7  270.67    9.46
   1  -7  -8  106.68    4.20
   1  -7  -8  111.28    4.52
  -1   7   8  114.63    5.04
  -1   7   8  121.62    4.92
   1  -7  -8  110.01    4.51
   0  -9  -1   17.00    1.35
   0   9   1   19.13    1.76
   0  -9  -1   19.26    1.78
   6   1  -2  120.89    4.52
  -6  -1   2  120.68    4.68
  -6  -1   2  129.38    5.36
   6   1  -2  123.03    5.10
  -1  -9  -1  127.99    5.35
   1   9   1  130.13    5.40
  -1  -3   9  312.97   10.53
  -1  -3   9  292.59   11.33
   1   3  -9  312.81   10.76
   1   3  -9  327.59   10.75
  -1  -3   9  314.17   10.53
   3   1  11   30.11    1.99
  -3  -1 -11   27.08    2.11
   3   1  11   26.22    2.09
  -3  -1 -11   27.71    2.09
  -3  -1 -11   29.45    2.03
   5   4  -3   46.00    2.04
   5   4  -3   42.93    1.74
  -5  -4   3   44.66    2.13
  -5  -4   3   46.71    2.47
   5   4  -3   44.64    2.34
  -5  -4   3   41.40    3.09
  -6  -2  -7   40.46    2.31
   6   2   7   37.77    2.07
   6   2   7   38.86    2.28
  -6  -2  -7   38.70    2.21
   6   2   7   44.88    2.92
   6   2   7   41.80    2.39
  -6  -2  -7   38.31    1.99
   0   8  -3    3.19    1.14
   0  -8   3    2.68    0.84
   0  -8   3    3.00    1.26
   0   8  -3    1.54    0.72
   0   8  -3    1.17    1.12
   2  -6  -8   91.02    3.79
  -2   6   8   84.76    3.97
   2  -6  -8   83.30    3.91
  -2   6   8   85.39    3.88
   2  -6  -8   85.07    3.86
  -2   6   8   85.57    3.90
   0   9   4   24.37    1.88
   0  -9  -4   22.64    1.73
   0  -9  -4   20.30    1.84
   0  -9  -4   23.62    1.95
  -3   7  -3  113.42    4.31
  -3   7  -3  114.62    4.74
  -3   7  -3  111.67    4.93
   5  -2  -5  128.79    5.07
   5  -2  -5  129.75    5.83
  -5   2   5  132.32    5.47
  -5   2   5  124.93    4.22
  -5   2   5  133.39    5.18
   1  -7   5  149.74    5.54
  -1   7  -5  150.02    5.92
  -1   7  -5  142.50    5.00
   1  -7   5  147.19    6.13
  -1   7  -5  136.00    5.38
   5   1  -5   55.46    2.69
  -5  -1   5   58.96    2.82
  -5  -1   5   55.52    3.00
   5  -4   5   78.86    3.79
  -5   4  -5   69.09    2.61
  -5   4  -5   77.20    3.45
   5  -4   5   77.87    3.78
  -5   4  -5   84.03    3.94
   6  -1  -2    1.24    1.49
   6  -1  -2   -0.86    1.16
  -6   1   2   -0.59    1.17
   6  -1  -2   -0.26    0.98
  -4   2  -9  150.93    6.09
  -4   2  -9  159.43    5.74
  -4   2  -9  156.74    6.13
   4  -2   9  152.13    5.90
  -6  -1  -7  161.25    6.65
  -6  -1  -7  162.04    5.83
   6   1   7  165.00    6.11
   6   1   7  167.76    6.79
   6   1   7  166.43    6.29
  -6  -1  -7  159.91    6.05
   2   7  -4  173.18    6.23
   2   7  -4  153.00    5.02
   2   7  -4  164.07    6.41
  -2  -9  -3    2.70    0.82
   2   9   3    1.19    1.11
  -2  -9  -3    1.31    1.14
   5   3  -4   29.89    1.34
   5   3  -4   29.07    1.71
   5   3  -4   27.20    1.11
  -5  -3   4   29.04    2.00
  -5  -3   4   29.17    1.77
   5   3  -4   28.18    1.82
  -5  -3   4   31.44    2.68
   6   4   6  343.80   11.20
   6   4   6  348.67   11.45
   6   4   6  348.13   11.37
   6   4   6  340.30   10.49
  -6  -4  -6  357.63   11.70
   6   4   6  334.03   11.57
  -6  -4  -6  355.12   11.85
  -6  -4  -6  346.91   11.70
   6   4   6  351.28   12.11
  -5  -6   0   85.97    2.88
   5   6   0  101.09    4.63
   5   6   0  105.97    4.56
   5   6   0   97.38    4.27
   5   6   0   98.28    3.86
  -5  -6   0  104.19    4.50
  -1  -9  -5   51.74    2.92
   1   9   5   47.39    2.77
  -1  -9  -5   52.12    2.92
  -1  -9  -5   49.56    2.48
   2   8  -2  151.93    5.93
   2   8  -2  142.41    5.98
  -3   5  -7   32.13    2.25
   3  -5   7   31.59    2.19
   3  -5   7   34.66    1.99
  -3   5  -7   35.48    2.12
  -3   5  -7   32.03    1.66
   2   9   4    0.78    1.02
  -2  -9  -4    0.91    1.25
  -2  -9  -4    2.16    0.77
   6  -3   1  123.95    4.74
  -6   3  -1  126.88    4.60
   6  -3   1  129.00    5.07
  -6   1  -6  122.29    4.40
   6  -1   6  127.83    5.53
  -6   1  -6  124.94    5.55
  -6   1  -6  127.20    4.96
  -6   1  -6  126.16    5.09
   4   1  -7   11.45    1.35
  -4  -1   7    9.63    1.22
   4   1  -7    7.87    1.93
  -4  -1   7    9.73    1.29
   4   1  -7    9.38    0.87
   6  -3   2  106.34    4.39
   6  -3   2  112.08    4.91
  -6   3  -2  115.78    4.31
  -6   3  -2  108.13    5.16
   6  -3   2  109.03    4.58
  -3  -8  -7   14.54    1.04
   3   8   7   11.01    1.55
  -3  -8  -7   14.22    1.14
   3   8   7   13.66    1.64
  -3  -8  -7   15.76    1.69
   4   3  -6  230.69    7.53
  -4  -3   6  226.72    7.87
  -4  -3   6  246.49    8.98
   4   3  -6  229.12    9.14
  -4  -3   6  221.02    7.61
   5   6   7   18.34    1.71
   5   6   7   17.81    1.73
  -5  -6  -7   17.65    1.73
   5   6   7   18.08    1.97
   5   6   7   15.08    0.73
  -5  -6  -7   19.47    1.82
   6   3  -1  139.53    5.55
   6   3  -1  139.96    4.74
  -6  -3   1  140.43    5.74
   6   3  -1  134.96    4.68
   6   3  -1  135.84    6.01
   6   3  -1  138.38    5.35
   6   3  -1  135.04    5.56
  -2  -9  -2    4.42    0.86
  -2  -9  -2    5.33    0.78
  -2  -9  -2    6.29    1.38
   2   9   2    2.96    1.19
   6   3   7   11.17    1.45
  -6  -3  -7    8.92    1.30
  -6  -3  -7    7.76    1.22
   6   3   7    8.97    1.12
  -6  -3  -7   13.17    1.33
   6   3   7    8.60    1.23
   6   3   7   10.15    1.31
  -4  -6  -9   59.24    3.19
   4   6   9   58.97    2.56
  -4  -6  -9   60.19    3.09
  -4  -6  -9   53.43    3.17
   4   6   9   61.15    3.19
  -4  -6  -9   60.22    2.79
   4   6   9   70.29    3.42
   4  -6  -4   17.38    1.15
   4  -6  -4   21.31    2.00
  -4   6   4   19.46    1.49
  -5  -4  -9  149.53    5.69
   5   4   9  151.80    5.24
  -5  -4  -9  157.71    5.98
   5   4   9  142.08    6.20
   5   4   9  147.13    6.05
   5   4   9  153.55    5.99
   5   4   9  147.79    5.71
  -5  -4  -9  152.13    6.08
   5   4   9  152.36    5.58
  -5   0  -9   91.36    4.23
  -5   0  -9   93.01    3.82
   5   0   9   91.23    4.37
  -5   0  -9   89.39    3.28
   5   0   9   92.24    4.13
  -5   0  -9   94.35    4.19
  -4   3   7   28.24    2.53
  -4   3   7   24.68    1.98
  -4   3   7   23.17    2.06
   4  -3  -7   23.28    1.87
  -4   3   7   25.01    1.51
   2   2  -9    0.80    0.94
   2   2  -9    1.13    0.78
  -2  -2   9    1.06    0.96
  -2  -2   9    0.35    0.83
  -2  -2   9    1.20    0.49
   2   2  -9    0.70    0.99
  -3  -4 -11  321.98   10.69
   3   4  11  320.47   11.28
   3   4  11  328.71   10.81
  -3  -4 -11  289.29   10.87
  -3  -4 -11  320.66   10.78
   0   7   9   17.98    1.91
   0  -7  -9   18.95    1.66
   0   7   9   20.43    1.71
   0  -7  -9   23.51    1.87
   0   7   9   19.28    1.74
   0   7   9   21.67    1.42
   5   5  -2  235.62    8.22
  -5  -5   2  241.14    7.80
  -5  -5   2  243.49    9.15
   5   5  -2  242.42    8.83
  -1   8  -3  161.23    5.96
  -1   8  -3  159.54    5.75
   3   2  -8    4.37    0.77
   3   2  -8    3.71    0.92
  -3  -2   8    4.07    0.73
  -3  -2   8    2.63    1.01
   3   2  -8    4.54    1.10
   1   8   8    3.45    1.02
  -1  -8  -8    3.64    1.05
   1   8   8    2.83    1.22
   1   8   8    5.74    1.05
  -1  -8  -8    5.49    1.27
   4   7  -1    4.44    1.09
  -4  -7   1    4.07    0.62
   4   7  -1    5.04    1.38
   4   7  -1    4.51    1.31
  -4  -7   1    3.79    1.23
  -2   8  -2  333.06   11.33
  -2   8  -2  350.53   11.78
  -2   8  -2  336.29   11.24
   2  -7  -7  131.68    5.31
   2  -7  -7  133.75    5.12
  -2   7   7  136.54    5.56
  -2   7   7  132.35    5.49
   0   0 -11   74.16    3.54
   0   0 -11   72.31    3.35
   0   0  11   65.66    4.05
   0   0  11   78.46    3.59
   0   0 -11   71.35    3.56
  -2   5   9    3.71    1.41
  -2   5   9    6.13    1.15
   2  -5  -9    4.03    1.34
  -2   5   9    5.27    1.32
   2  -5  -9    3.56    1.09
   2  -5  -9    2.61    1.09
  -2   5   9    5.86    1.01
  -6   2  -5    3.23    1.31
  -6   2  -5    5.03    1.22
  -6   2  -5    2.51    0.95
   6  -2   5    3.43    1.33
   6  -2   5    4.05    1.25
  -6   2  -5    3.61    0.53
  -1  -8   3   27.90    1.43
   1   8  -3   28.29    2.17
   1   8  -3   23.71    2.12
  -1  -8   3   25.45    2.19
   5  -5  -2  176.13    6.67
  -5   5   2  175.75    6.23
   5  -5  -2  175.56    7.22
   0  -4 -11    7.51    1.30
   0  -4 -11    9.55    1.35
   0  -4 -11    8.33    1.42
   0   4  11    9.38    1.26
   0   4  11    7.68    1.32
   0   4  11   11.44    1.44
   0  -4 -11    8.66    1.33
   3  -7  -5   14.36    1.65
   3  -7  -5   16.85    1.66
   3  -7  -5   16.95    1.33
   1  -5   8  234.70    8.04
   1  -5   8  222.52    8.49
   1  -5   8  233.24    8.91
  -1   5  -8  236.51    8.51
   6  -3   0  105.31    4.38
   6  -3   0   98.27    5.07
  -3  -7   3   96.78    3.75
   3   7  -3  100.30    3.65
  -3  -7   3  102.57    4.57
   3   7  -3  100.53    4.63
   3   7  -3   96.95    4.26
   3   7  -3   97.95    4.58
   0   9   0    1.31    1.03
   0  -9   0    0.80    1.01
   0  -9   0    1.83    0.99
   5  -5   3  152.23    6.07
   5  -5   3  153.66    5.98
  -5   5  -3  154.62    6.34
   0  -6 -10   72.14    3.41
   0   6  10   65.40    3.23
   0  -6 -10   65.93    3.25
   0   6  10   62.38    3.37
   0   6  10   67.68    3.06
  -3  -6 -10   18.65    1.90
   3   6  10   25.79    2.18
   3   6  10   22.24    1.63
   3   6  10   22.39    2.00
   3   6  10   25.87    1.73
  -3  -6 -10   18.08    1.79
  -3  -6 -10   22.56    1.71
  -2  -8  -8   40.76    2.59
  -2  -8  -8   43.05    2.64
  -2  -8  -8   41.00    2.12
   2   8   8   39.61    2.18
   2   8   8   40.49    2.53
  -2  -8  -8   38.66    2.08
   1  -4   9   19.72    1.96
  -1   4  -9   17.68    1.81
   1  -4   9   17.89    2.15
   1  -4   9   17.39    0.88
   1  -4   9   24.05    1.69
  -1   5  10   22.43    1.91
  -1   5  10   21.76    1.88
  -1   5  10   19.36    1.60
   1  -5 -10   22.71    1.82
   1  -5 -10   20.92    1.90
  -1   5  10   26.89    2.04
   1  -5 -10   21.37    1.80
  -4  -8  -4  306.81   10.82
   4   8   4  299.92   10.41
   2  -8  -5   31.28    2.14
   2  -8  -5   27.79    1.74
  -2   8   5   27.25    1.73
   2  -8  -5   28.67    1.90
   6   2  -2  191.24    6.56
   6   2  -2  195.21    7.17
  -6  -2   2  189.75    6.67
   6   2  -2  192.55    7.80
  -6  -2   2  200.61    7.43
  -3  -7  -9   11.11    1.26
  -3  -7  -9   11.41    1.12
   3   7   9   13.29    1.63
   3   7   9   11.61    1.03
   3   7   9   11.54    1.13
  -4  -6   3  101.61    4.75
  -4  -6   3   98.50    3.72
   4   6  -3  101.09    4.79
   4   6  -3   96.78    3.72
   4   6  -3   97.55    4.02
   4   6  -3   96.09    3.26
   2   5  11    8.91    1.47
   2   5  11   12.60    1.63
   2   5  11    9.22    1.22
  -2  -5 -11   11.51    1.46
   2   5  11    9.55    1.44
   4   8   3  116.69    4.82
  -4  -8  -3  112.26    5.01
   4   8   3  107.78    4.94
   4   8   3  112.73    4.45
   4   8   3  113.98    4.84
   6   5   4   12.62    1.51
   6   5   4   12.58    1.05
   6   5   4   11.93    1.45
   6   5   4   13.56    1.79
   6   5   4   13.17    1.85
   6   5   4   11.33    1.38
   6   5   4   10.78    1.15
  -2   2  10  223.71    8.55
  -2   2  10  224.70    8.23
   2  -2 -10  229.79    8.09
  -2   2  10  227.13    7.92
   2  -2 -10  228.18    8.83
   1  -9  -2    9.06    1.36
   1  -9  -2   13.42    1.54
  -1   9   2   14.22    1.49
   6  -3   3   79.86    3.57
  -6   3  -3   73.21    3.24
  -6   3  -3   76.49    4.02
   6  -3   3   77.77    3.92
   0  -9  -5  130.02    5.00
   0  -9  -5  130.43    5.25
   0  -9  -5  125.22    5.29
   0   9   5  128.29    5.18
   6   5   3   39.32    2.48
   6   5   3   38.39    1.99
   6   5   3   40.45    2.70
   6   5   3   36.97    2.64
   6   5   3   42.15    2.51
   6   5   3   39.49    1.81
  -6   0  -7  185.82    6.93
  -6   0  -7  183.94    7.33
  -6   0  -7  178.28    6.74
   6   0   7  185.31    7.40
   6   0   7  189.02    7.05
  -6   0  -7  187.47    6.39
  -6  -4   0  228.58    8.39
   6   4   0  211.57    6.83
   6   4   0  239.54    8.17
   6   4   0  227.69    7.93
   6   4   0  222.93    8.04
   6   4   0  226.79    8.50
   6   4   0  216.71    6.92
  -1  -7   5   51.60    2.25
  -1  -7   5   51.36    3.26
   1   7  -5   53.40    3.02
   1   7  -5   49.88    2.99
   1   9   0  108.25    4.79
   1   9   0  107.38    4.66
  -1  -9   0  115.62    4.96
   3  -2  10  144.35    6.35
   3  -2  10  158.03    5.87
  -3   2 -10  167.75    6.45
   3  -2  10  167.61    6.18
  -2  -9  -5   35.74    1.87
  -2  -9  -5   39.00    2.63
   2   9   5   31.52    2.46
   2   9   5   38.66    2.50
  -2  -9  -5   42.17    2.60
   1   5  11   97.92    4.31
  -1  -5 -11   95.35    4.23
  -1  -5 -11   92.21    3.99
  -1  -5 -11   92.74    4.38
   1   5  11   94.31    4.45
   1   5  11   96.28    4.17
  -1  -5 -11   96.48    4.07
   5  -4  -4    7.97    1.68
   5  -4  -4   11.27    1.46
   5  -4  -4   10.47    0.83
  -5   4   4   11.78    1.11
  -5   4   4    9.45    1.63
   2  -1 -10  137.47    5.93
  -2   1  10  125.94    5.20
  -2   1  10  127.83    4.93
   2  -1 -10  120.20    5.06
   2  -1 -10  129.72    5.03
   3   0  11   14.25    1.52
  -3   0 -11   14.62    1.56
   3   0  11   15.60    1.60
  -3   0 -11   13.89    1.64
  -4   6  -4   14.29    1.64
  -4  -5 -10  249.91    8.99
   4   5  10  239.17    8.06
   4   5  10  242.30    8.85
  -4  -5 -10  239.62    8.76
   4   5  10  244.32    8.61
  -4  -5 -10  244.87    8.52
   4  -5   6    6.05    1.23
  -4   5  -6    5.43    1.32
  -4   5  -6    5.88    1.36
   4  -5   6    4.91    1.44
   1  -9  -3   -0.31    1.05
   1  -9  -3   -0.54    1.01
  -1   9   3   -0.29    0.89
   0  -5   8   75.75    4.22
   0  -5   8   76.45    3.69
   0  -5   8   71.97    3.21
   0   5  -8   73.63    3.53
  -6   2   2   20.89    1.00
   6  -2  -2   31.95    2.68
   6  -2  -2   21.97    1.83
   6  -2  -2   23.36    1.17
  -6   2   2   22.25    2.10
  -6   2   2   22.56    0.99
   1  -9  -1   10.73    1.43
  -1   9   1    9.48    1.26
   1  -1  11  282.28    9.88
   1  -1  11  286.04   10.43
  -1   1 -11  271.83    9.67
  -1   1 -11  288.99    9.92
   1  -1  11  269.75    9.13
  -1   1 -11  280.63    9.82
   2   9   1    4.53    1.22
  -2  -9  -1    3.35    0.36
   2   9   1    5.48    1.22
  -2  -9  -1    3.97    1.30
  -2  -9  -1    3.50    0.85
  -4  -8  -5  167.02    6.59
   4   8   5  163.64    6.40
  -4  -8  -5  167.17    6.60
  -4  -7  -8    1.98    0.81
   4   7   8    2.60    1.17
   4   7   8    2.98    0.64
   4   7   8    2.95    1.18
  -4  -7  -8    1.70    1.10
  -5  -7  -4    4.45    1.28
   5   7   4    6.09    1.35
   5   7   4    6.58    1.40
   5   7   4    6.53    1.19
   5   7   4    4.90    1.29
   5   7   4    4.67    1.07
   3  -1  -9   92.63    3.89
  -3   1   9   83.08    3.84
  -3   1   9   83.18    3.44
  -3   1   9   75.43    3.60
  -3   1   9   88.92    4.40
  -3   1   9   82.41    3.11
   3  -1  -9   76.72    3.43
   3  -1  -9   85.01    4.49
  -5   3  -7   35.99    2.37
  -5   3  -7   33.84    2.50
  -5   3  -7   34.19    1.77
   5  -3   7   35.46    2.54
   5  -3   7   36.24    2.42
   3   8  -1    0.57    1.13
   3   8  -1    0.64    0.86
   3   8  -1    0.70    1.07
  -3  -8   1    0.32    1.14
  -5   2  -8   47.00    2.94
  -5   2  -8   51.06    2.85
  -5   2  -8   52.00    2.91
  -5   2  -8   48.99    2.36
   5  -2   8   51.92    2.98
   5  -2   8   46.71    2.98
   5  -3  -5   27.24    2.44
  -5   3   5   28.86    2.30
  -5   3   5   25.25    1.36
   5  -3  -5   30.55    2.16
  -5   3   5   24.29    1.97
   6   5   5   45.17    2.56
   6   5   5   41.01    2.49
   6   5   5   45.82    2.09
  -6  -5  -5   40.15    2.49
   6   5   5   40.53    2.31
   6   5   5   43.68    2.87
   6   5   5   40.82    2.88
  -3   2   9   48.17    2.44
  -3   2   9   46.53    3.23
   3  -2  -9   53.34    2.79
   3  -2  -9   43.83    2.38
  -3   2   9   55.06    2.84
   3  -2  -9   48.81    3.35
  -3   2   9   49.22    2.84
   6   5   2    8.12    1.33
   6   5   2    5.82    1.50
   6   5   2    6.82    1.44
   6   5   2    5.98    0.82
   6   5   2    5.89    1.28
   5   7   3   26.48    2.21
   5   7   3   26.74    2.16
   5   7   3   27.46    2.24
   5   7   3   28.26    1.88
  -4  -8  -2  104.02    3.24
  -4  -8  -2   97.99    3.22
   4   8   2  114.09    4.66
   4   8   2  115.81    4.87
   5   2  -5   28.35    1.84
  -5  -2   5   26.32    2.01
  -5  -2   5   30.28    1.90
  -5  -2   5   34.24    2.82
   0   4  -9   50.24    2.77
   0  -4   9   51.86    2.74
   0  -4   9   42.49    3.24
   0   4  -9   45.27    2.62
   0  -4   9   48.33    2.85
  -2   1 -11    4.91    1.27
   2  -1  11    6.67    1.29
   2  -1  11    4.09    1.05
   2  -1  11    4.67    1.66
   2  -1  11    5.75    1.11
  -2   1 -11    4.89    1.24
  -2   1 -11    6.15    1.40
   1  -8  -7  192.27    6.50
  -1   8   7  197.38    7.51
   1  -8  -7  208.87    7.22
   1  -8  -7  186.69    7.07
  -1   8   7  189.82    6.88
   2  -4   9   81.04    4.04
   2  -4   9   80.59    3.12
  -2   4  -9   87.13    4.06
   2  -4   9   82.26    3.70
   2  -3 -10   52.62    2.73
   2  -3 -10   50.44    2.78
  -2   3  10   56.39    2.85
   2  -3 -10   53.02    3.25
  -2   3  10   53.50    3.27
  -2  -5   7  233.38    8.13
   2   5  -7  228.32    8.05
   2   5  -7  232.90    7.86
   1   9   6  109.08    4.69
  -1  -9  -6  110.91    4.38
  -1  -9  -6  115.16    4.88
  -1  -9  -6  113.33    4.87
   1  -6   7  279.71    9.55
  -1   6  -7  253.78    8.14
  -1   6  -7  276.31    9.06
   1  -6   7  286.25   10.40
  -4   1 -10  102.91    4.23
   4  -1  10  100.83    4.49
  -4   1 -10  100.10    4.53
   2  -7   5   76.48    3.52
  -2   7  -5   76.18    3.36
  -2   7  -5   78.00    3.30
  -6   3   1   37.52    2.72
  -6   3   1   37.90    1.81
   6  -3  -1   38.58    2.35
   6  -3  -1   36.64    2.97
   3   5  -6    3.66    0.90
  -3  -5   6    2.74    0.93
   3   5  -6    2.65    0.95
   3   5  -6    2.81    1.09
   3   5  -6    5.71    1.70
   2  -5   8    7.96    1.24
   2  -5   8    9.00    1.54
  -2   5  -8    9.22    1.02
   0   8   8   75.66    3.58
   0   8   8   82.25    3.61
   0  -8  -8   73.37    3.60
   0  -8  -8   80.82    3.52
   0   8   8   70.73    3.83
   4  -5  -6   18.21    1.99
  -4   5   6   13.75    1.39
  -4   5   6   15.48    1.63
  -4   5   6   16.76    1.88
   4  -5  -6   14.07    1.21
   4  -5  -6   14.45    1.67
   5   7   5   75.86    3.91
  -5  -7  -5   79.46    3.87
   5   7   5   75.34    3.65
   5   7   5   76.86    3.50
  -5  -7  -5   78.81    3.94
   5   7   5   85.86    3.94
  -6  -4  -7  193.53    7.01
  -6  -4  -7  186.79    7.07
  -6  -4  -7  203.63    7.20
   6   4   7  189.94    6.96
   6   4   7  191.15    6.14
   6   4   7  180.02    6.88
   6   4   7  193.87    7.21
   6   4   7  198.01    6.78
   3  -6  -7   76.33    3.71
   3  -6  -7   81.93    3.43
  -3   6   7   77.29    3.57
   0  -6   7   53.69    3.49
   0  -6   7   55.36    2.60
   0   6  -7   53.09    3.12
   6   0  -3   58.85    2.85
   6   0  -3   62.14    3.21
  -6   0   3   65.63    3.54
  -6   0   3   62.81    3.04
   1  -9  -4   21.83    1.85
   1  -9  -4   18.66    1.74
   1  -9  -4   21.27    1.79
  -1   9   4   20.40    1.64
   1  -9  -4   19.69    1.18
   1  -3  10    1.90    1.02
  -1   3 -10    2.37    1.27
   1  -3  10    1.65    0.54
   1  -3  10    3.76    1.34
  -1   3 -10    1.66    1.18
   4  -7   0   50.08    2.31
  -4   7   0   51.90    3.09
  -4   7   0   48.10    1.91
  -4   7   0   54.35    2.93
  -2   0  10   28.53    1.89
   2   0 -10   24.47    1.58
   2   0 -10   29.09    1.91
  -2   0  10   28.86    2.10
   2   0 -10   25.73    1.93
   2   0 -10   23.18    2.41
  -2   0  10   28.81    1.81
  -4   7   1  132.16    4.39
  -4   7   1  141.44    5.43
  -4   7   1  140.35    5.82
   3  -8  -1  163.39    6.38
   3  -8  -1  163.08    5.94
  -3   8   1  165.39    6.71
  -3   8   1  165.59    5.86
  -3   8   1  184.32    6.70
  -3   6  -6   78.43    3.05
  -3   6  -6   81.05    3.64
   3  -6   6   79.86    3.74
  -1   9   0   31.55    2.11
   1  -9   0   37.54    2.39
  -1   9   0   35.70    2.48
  -1   2  11    3.93    1.10
   1  -2 -11    6.16    1.36
   1  -2 -11    4.54    1.18
   6  -3   4   63.65    3.41
   6  -3   4   61.62    3.13
  -6   3  -4   59.36    3.56
  -6   3  -4   66.30    3.00
  -1  -2  10  167.52    6.03
  -1  -2  10  165.17    6.06
   1   2 -10  168.51    6.06
   1   2 -10  164.13    6.29
   1   2 -10  164.01    6.24
  -1  -2  10  148.27    5.00
   3   4  -7    0.43    0.87
   3   4  -7   -0.18    1.40
   3   4  -7    0.99    0.91
  -3  -4   7    1.03    0.91
  -3   0   9   66.26    2.94
   3   0  -9   70.83    3.34
  -3   0   9   65.77    2.68
   3   0  -9   64.46    2.96
   3   0  -9   70.29    4.09
  -3   0   9   67.28    3.06
  -3   0   9   69.03    3.38
  -3   0   9   67.64    3.88
   2   4  -8  271.16    9.43
  -2  -4   8  286.09    9.77
   2   4  -8  286.55    9.40
  -3   7  -4    5.90    1.24
  -3   7  -4    4.22    1.45
   5   7   2   16.97    1.86
   5   7   2   18.18    1.54
   5   7   2   19.61    1.88
   5   7   2   16.06    1.85
  -3   5   8    2.66    0.92
  -3   5   8    2.21    1.38
   3  -5  -8    2.43    1.01
  -2  -6   6  218.16    7.60
   2   6  -6  225.36    8.12
   2   9   6    4.75    1.32
  -2  -9  -6    2.96    0.84
  -2  -9  -6    4.89    1.39
   2   9   6    4.93    1.31
  -5  -6   1  101.16    4.73
  -5  -6   1   93.96    3.30
   5   6  -1   84.48    2.78
   5   6  -1   96.28    3.98
   5   6  -1   99.73    4.31
   5   6  -1   99.48    4.46
   5  -5  -3  100.67    3.38
   5  -5  -3  121.94    4.72
  -5   5   3  112.13    5.31
  -5   5   3  125.08    4.53
   5  -5  -3  120.01    5.25
   6  -1  -3    1.19    0.94
  -6   1   3    0.15    1.10
   6  -1  -3    1.25    1.46
  -3   8   2  138.38    4.97
   3  -8  -2  145.32    5.41
  -3   8   2  145.04    5.93
  -3   8   2  144.17    5.70
   3  -8  -2  141.87    5.73
  -4  -2   7   36.69    2.03
  -4  -2   7   34.70    2.19
   4   2  -7   33.98    1.49
   4   2  -7   33.11    1.68
  -3  -5 -11   79.04    3.75
   3   5  11   79.68    3.50
   3   5  11   83.87    3.78
   3   5  11   80.74    4.00
  -3  -5 -11   87.99    4.04
  -3  -5 -11   84.10    4.16
   0   9  -1    6.44    1.28
   0  -9   1    5.18    1.22
   4   8   6   81.21    3.94
  -4  -8  -6   83.33    4.07
  -4  -8  -6   81.53    4.01
   4   2  11   28.80    2.31
  -4  -2 -11   34.82    2.31
   4   2  11   33.73    2.07
   4   2  11   33.61    2.22
  -4  -2 -11   36.39    2.54
   4   2  11   34.42    2.51
   3  -8   0  139.35    5.18
  -3   8   0  149.95    5.91
  -3   8   0  137.74    5.09
  -3   8   0  149.44    5.89
  -6  -2  -8  133.27    5.31
  -6  -2  -8  131.03    5.10
  -6  -2  -8  131.68    4.80
   6   2   8  131.29    5.71
   6   2   8  133.48    5.23
   6   2   8  124.21    5.14
   3  -3  -9   26.06    2.04
   3  -3  -9   21.25    2.35
  -3   3   9   25.11    2.00
  -3   3   9   22.87    2.26
  -3   3   9   19.51    1.66
   5  -5   4   15.83    1.77
   5  -5   4   16.62    1.73
  -5   5  -4   15.20    0.79
  -5   5  -4   17.69    1.94
  -6  -1   3  112.59    4.51
  -6  -1   3  122.77    5.21
   6   1  -3  111.82    4.35
   6   1  -3  116.55    4.83
   1  -1 -11   31.07    2.16
  -1   1  11   34.18    2.18
   1  -1 -11   32.07    2.19
   5  -4   6   37.35    2.50
  -5   4  -6   35.11    1.66
   5  -4   6   30.55    2.24
  -5   4  -6   36.81    2.55
  -5   4  -6   33.47    2.27
  -5  -5  -9  262.46    9.42
  -5  -5  -9  255.76    9.34
   5   5   9  262.83    8.48
  -5  -5  -9  269.78    9.18
   5   5   9  261.27    9.22
   5   5   9  258.52    9.40
   5   5   9  272.84    8.90
   5   5   9  259.70    9.48
   5   5   9  256.31    9.70
   5  -1   9   91.16    4.24
  -5   1  -9   94.45    4.28
  -5   1  -9   92.27    4.21
  -5   1  -9   86.89    3.10
  -5   1  -9   98.17    3.83
   5  -1   9   95.04    4.43
   3   6  -5   45.94    2.05
   3   6  -5   49.99    2.67
  -3  -6   5   48.55    2.40
   3   6  -5   43.76    3.08
  -4   7  -1   63.02    3.42
   4  -7   1   57.64    2.48
  -4   7  -1   61.57    2.37
  -4   7  -1   65.85    3.38
  -4   4   7   -0.42    1.18
  -4   4   7    0.46    0.76
  -4   4   7    0.13    1.07
  -4   4   7    1.13    0.46
   4  -4  -7    0.99    0.84
   4  -4  -7    1.35    1.13
  -6  -5  -6   11.25    1.53
   6   5   6    9.62    1.35
   6   5   6    8.90    1.26
   6   5   6    6.58    1.36
   6   5   6    9.55    1.72
   6   5   6    8.40    1.61
   6   5   6    9.28    1.07
  -6  -5  -6    6.17    1.30
   2  -3  10   67.08    2.85
  -2   3 -10   68.02    3.54
   2  -3  10   69.39    3.33
   2  -3  10   73.92    3.80
  -4  -3 -11   29.79    2.17
  -4  -3 -11   28.50    2.24
   4   3  11   33.31    2.09
  -4  -3 -11   28.14    2.16
   4   3  11   27.57    1.93
   4   3  11   28.30    2.29
   4   3  11   28.86    2.41
  -5  -6  -8   42.62    2.60
   5   6   8   39.39    2.55
  -5  -6  -8   36.28    2.49
   5   6   8   43.02    2.60
   5   6   8   40.14    2.64
   5   6   8   40.82    1.66
   1  -3 -11   48.35    2.77
   1  -3 -11   45.17    2.65
   1  -3 -11   49.02    2.70
  -1   3  11   50.62    2.82
  -4   7   2  128.88    5.60
  -4   7   2  127.67    5.12
   6   5   1   15.02    1.08
   6   5   1   14.42    1.81
   6   5   1   15.72    1.76
   6   5   1   18.04    1.68
   6   5   1   16.48    1.89
   0   9   6  212.88    8.13
   0   9   6  211.11    7.69
   0  -9  -6  223.68    7.98
   0  -9  -6  214.80    7.67
   0  -9  -6  214.63    7.99
   0   1 -11   51.37    2.84
   0   1 -11   50.69    2.88
   0  -1  11   48.51    3.41
   0  -1  11   46.46    2.71
   0   1 -11   45.03    2.60
   0  -1  11   41.22    2.64
  -3  -8  -8   22.68    2.03
  -3  -8  -8   27.89    1.62
   3   8   8   22.31    1.45
   3   8   8   17.97    1.93
   3   8   8   26.35    2.17
  -3  -8  -8   21.88    1.40
  -4  -8  -1    1.13    0.36
  -4  -8  -1    1.16    1.14
   4   8   1    0.95    1.05
   4   8   1   -0.33    1.09
   5   2  10   18.86    2.05
  -5  -2 -10   21.47    1.52
  -5  -2 -10   20.92    1.74
  -5  -2 -10   19.57    1.95
   5   2  10   18.23    1.72
   5   2  10   18.93    1.84
  -6  -1  -8  135.00    4.75
   6   1   8  142.00    6.03
  -6  -1  -8  140.08    5.50
   6   1   8  138.59    5.43
  -6  -1  -8  139.17    5.20
   6   1   8  136.99    5.54
  -2   8  -3  197.00    7.06
  -2   8  -3  193.34    7.52
   0   5  11   57.22    3.15
   0  -5 -11   55.41    2.91
   0  -5 -11   52.39    3.07
   0  -5 -11   52.96    2.96
   0   5  11   56.30    3.06
   0   5  11   55.80    2.92
   6  -2   6   25.63    2.25
   6  -2   6   28.82    2.20
  -6   2  -6   31.67    2.18
  -6   2  -6   29.54    2.04
  -6   2  -6   30.62    2.47
  -6   2  -6   27.21    1.42
  -2  -9   0    1.31    0.24
  -2  -9   0    2.07    0.99
   2   9   0    0.98    0.98
   2   9   0    0.40    1.17
   1   9  -1   68.04    3.61
   1   9  -1   75.07    3.64
  -1  -9   1   71.37    2.73
  -6   1  -7    6.20    0.89
   6  -1   7    7.55    1.61
  -6   1  -7    5.10    1.46
  -6   1  -7    5.85    1.30
  -6   1  -7    6.32    1.36
  -4   6   5   48.91    2.71
  -4   6   5   55.25    3.26
   4  -6  -5   52.18    2.30
   4  -6  -5   50.75    3.05
  -4   6   5   50.94    2.49
   5   7   6    9.77    1.40
   5   7   6    9.14    1.67
  -5  -7  -6   13.46    1.78
   5   7   6   10.13    1.51
  -5  -7  -6   12.50    1.65
   5   7   6   11.04    1.43
   3   9   4    0.14    1.13
  -3  -9  -4    0.35    0.56
  -3  -9  -4    1.02    0.31
   6   3  -2  193.23    7.07
   6   3  -2  185.48    6.15
   6   3  -2  198.86    6.45
  -6  -3   2  189.99    6.51
  -6  -3   2  194.08    7.26
   3   9   3   66.21    3.57
  -3  -9  -3   60.66    2.41
   0   8  -4   32.37    1.63
   0   8  -4   30.81    2.23
   0  -8   4   35.55    2.65
   0   8  -4   35.35    2.51
   0  -8   4   33.69    1.89
  -5   1   6   10.63    1.99
   5  -1  -6   15.51    1.58
  -5   1   6   11.09    1.52
  -5   1   6   13.48    1.63
  -6  -3  -8   20.02    1.83
   6   3   8   21.17    1.92
  -6  -3  -8   20.96    1.57
   6   3   8   22.17    1.79
   6   3   8   19.61    1.62
   6   3   8   20.04    1.73
   6   3   8   19.97    2.10
  -6  -3  -8   16.97    1.67
  -2  -7 -10  127.98    4.99
   2   7  10  122.90    5.21
  -2  -7 -10  135.66    5.10
  -2  -7 -10  133.18    5.49
   2   7  10  133.29    5.01
   5   3  10   90.71    3.82
   5   3  10   80.72    3.41
   5   3  10   83.51    4.05
  -5  -3 -10   83.17    3.52
   5   3  10   82.78    4.24
   5   3  10   75.45    3.86
  -5  -3 -10   81.56    3.79
  -5  -3 -10   82.47    3.98
   0   3 -10  166.27    6.43
   0   3 -10  167.52    6.37
   0  -3  10  164.61    6.59
   0  -3  10  175.04    6.50
   1   7  10  118.53    4.90
   1   7  10  118.81    4.27
  -1  -7 -10  111.09    4.48
  -1  -7 -10  112.52    4.88
   1   7  10  116.80    4.75
   1   7  10  111.32    5.12
   2  -6   7    2.87    1.08
  -2   6  -7    2.42    0.97
  -2   6  -7    0.35    0.78
   2  -6   7    0.14    1.29
   4   1  11   60.99    3.17
  -4  -1 -11   57.86    3.30
   4   1  11   60.75    3.35
   4   1  11   61.06    3.41
  -4  -1 -11   63.91    3.13
   4   1  11   65.71    3.10
   6   4  -1  124.83    5.38
   6   4  -1  142.08    5.51
   6   4  -1  142.30    5.69
  -6  -4   1  130.67    4.55
  -6  -4   1  137.08    5.48
   5   0  -6    1.14    1.02
  -5   0   6    1.12    1.59
  -5   0   6    0.73    0.95
  -5   0   6    2.21    1.13
  -2   8   6   32.62    2.45
   2  -8  -6   32.69    2.26
   2  -8  -6   32.84    2.08
  -2   8   6   34.71    1.95
   3  -8  -3   79.15    3.70
   3  -8  -3   74.18    3.69
  -3   8   3   77.16    3.14
  -3   8   3   86.96    3.86
  -3   8   3   82.90    4.12
   2   8  -3  161.41    5.58
   2   8  -3  161.23    6.58
   2   8  -3  180.69    6.61
  -2  -2 -12  209.81    7.58
   2   2  12  203.35    7.89
  -2  -2 -12  192.74    7.65
  -2  -2 -12  205.56    7.61
   2   2  12  203.98    7.58
   2   2  12  219.85    8.23
   2  -4 -10    0.22    1.13
  -2   4  10    1.38    1.45
   2  -4 -10   -0.10    0.94
  -2   4  10    0.74    0.78
  -2   4  10    1.17    0.92
   2  -4 -10    0.74    1.35
  -4  -7   2   10.81    1.74
  -4  -7   2    8.03    0.85
   4   7  -2   10.11    1.76
   4   7  -2    7.17    1.11
   3  -8   1   91.85    3.74
  -3   8  -1   96.98    4.48
  -3   8  -1  101.16    4.44
  -3   8  -1   91.82    3.74
   1   5  -8  131.33    5.10
  -1  -5   8  128.02    6.04
  -1  -5   8  127.80    5.10
   1   5  -8  132.82    5.26
  -5  -4   4  106.89    5.25
   5   4  -4  106.50    4.18
  -5  -4   4  105.70    4.09
   5   4  -4  113.53    3.93
  -5  -4   4  104.16    4.27
   5   4  -4  102.67    3.64
   3  -7  -6    4.30    0.98
   3  -7  -6    2.02    1.13
   3  -7  -6    3.19    1.18
  -3   7   6    3.94    1.16
  -5  -1 -10  119.15    4.73
   5   1  10  122.23    5.11
   5   1  10  123.71    5.22
  -5  -1 -10  114.15    5.02
  -5  -1 -10  116.55    5.05
   5   1  10  125.64    5.46
  -1  -2 -12  114.74    5.00
   1   2  12  112.50    4.91
   1   2  12  105.03    5.14
   1   2  12  116.53    4.80
   2   3  12  245.27    8.51
   2   3  12  242.23    8.93
  -2  -3 -12  231.41    8.47
  -2  -3 -12  234.65    8.47
   2   3  12  226.92    8.75
  -2  -3 -12  236.93    8.69
  -1   9   5   44.67    2.48
   1  -9  -5   42.74    2.61
   1  -9  -5   42.49    2.52
   1  -9  -5   47.22    2.58
  -6   3   2   70.35    3.81
  -6   3   2   68.38    2.59
   6  -3  -2   74.65    3.19
   6  -3  -2   72.08    3.92
  -3  -9  -5   35.25    1.52
  -3  -9  -5   34.69    2.51
  -3  -9  -5   36.12    1.68
   3   9   5   40.01    2.71
   3   9   5   37.98    2.63
  -1   8  -4  150.51    5.37
   1  -8   4  157.69    5.78
   1  -8   4  154.84    6.36
  -1   8  -4  147.75    5.70
   3  -1  11   79.09    3.62
   3  -1  11   76.67    3.66
  -3   1 -11   75.43    3.73
   5   7   1  107.96    4.70
   5   7   1  114.05    5.00
   5   7   1  103.40    4.35
   5   7   1  111.91    4.94
  -3  -9  -2    5.07    1.54
  -3  -9  -2    4.70    0.95
  -3  -9  -2    6.20    0.83
   3   9   2    9.74    1.56
   3   9   2    7.34    1.50
  -6   2   3   13.24    0.63
   6  -2  -3   13.22    2.01
   6  -2  -3   14.66    1.52
  -6   2   3   18.91    1.96
  -4   1   8    0.23    0.61
   4  -1  -8    0.20    1.43
   4  -1  -8   -0.12    0.67
   4  -1  -8    0.11    1.12
  -4   1   8    0.35    0.95
  -4   1   8   -0.11    1.01
  -4   1   8   -1.07    1.59
   1  -7  -9  107.75    4.42
   1  -7  -9  119.17    4.77
   1  -7  -9  114.70    4.77
  -1   7   9  109.99    4.41
  -1   7   9  113.54    4.94
  -1   7   9  108.59    4.72
  -1  -3 -12   39.39    2.65
   1   3  12   33.61    2.77
   1   3  12   34.14    2.46
   1   3  12   39.09    2.43
  -1  -3 -12   37.61    2.41
  -1   9  -1  153.42    6.13
  -1   9  -1  171.84    6.60
   1  -9   1  167.95    6.36
  -5   2   6    5.98    1.26
  -5   2   6    5.80    1.39
  -5   2   6    7.30    0.67
   5  -2  -6    9.49    1.36
  -4  -4 -11  117.16    4.88
   4   4  11  113.96    4.37
  -4  -4 -11  107.87    4.68
   4   4  11  109.57    5.05
   4   4  11  103.77    4.88
  -4  -4 -11  106.14    4.92
  -3  -3   8    0.66    0.45
  -3  -3   8    0.72    0.97
   3   3  -8    0.24    0.86
   3   3  -8    1.69    1.02
   4  -3   9   45.62    2.64
   4  -3   9   47.26    2.77
  -4   3  -9   45.87    2.80
  -4   3  -9   47.75    2.79
  -4   7  -2    0.91    0.56
  -4   7  -2    0.13    1.21
   4  -7   2    1.21    0.65
  -4   7  -2   -0.26    1.19
   4  -4   8  156.24    6.30
  -4   4  -8  133.34    4.56
   4  -4   8  141.26    5.63
   4  -4   8  148.28    5.95
  -4   4  -8  154.78    5.71
  -4   4  -8  152.81    5.78
   5   5  -3  148.29    5.39
  -5  -5   3  143.52    5.05
   5   5  -3  144.81    5.24
   5   5  -3  140.77    6.04
  -5  -5   3  141.14    6.25
  -1   0  11   17.71    1.71
  -1   0  11   17.75    1.66
  -1   0  11   16.69    1.62
   1   0 -11   18.31    1.72
   1   0 -11   17.17    1.55
   1   0 -11   19.09    1.84
   4   5  -5   58.19    3.74
   4   5  -5   61.16    2.44
  -4  -5   5   51.50    3.41
   4   5  -5   59.38    2.34
   4   5  -5   54.07    2.70
  -4  -5   5   56.75    2.64
   4   5  -5   55.67    2.53
  -6   4  -1   95.47    4.74
   6  -4   1  110.96    4.69
   6  -4   1  106.43    4.87
  -2  -6 -11   37.08    2.22
  -2  -6 -11   39.90    2.40
   2   6  11   33.99    2.60
   2   6  11   38.74    2.59
   2   6  11   40.20    2.36
   2   6  11   39.66    2.28
   0   7  -6   65.35    3.55
   0   7  -6   65.03    3.38
   0  -7   6   62.69    3.80
   0  -7   6   70.11    3.00
  -1  -9  -7  135.83    5.57
   1   9   7  125.93    5.22
  -1  -9  -7  134.50    5.55
  -1  -9  -7  130.29    5.04
   3   1  -9   28.80    2.70
   3   1  -9   28.77    1.82
  -3  -1   9   28.21    2.56
  -3  -1   9   26.85    1.66
  -3  -1   9   28.47    2.07
  -3  -1   9   25.87    1.55
   3   1  -9   30.00    1.57
  -1  -6   7  108.46    5.35
   1   6  -7  114.78    4.94
  -4   6  -5   25.65    2.08
   4  -6   5   28.49    2.30
  -1   7  -6  297.97    9.43
  -1   7  -6  291.96   10.52
  -1   7  -6  293.03   10.08
   1  -7   6  311.10   10.44
   1  -7   6  313.98   11.20
  -2  -3   9    9.21    1.29
   2   3  -9    7.17    1.33
   2   3  -9    7.56    1.25
  -2  -3   9    6.07    1.21
  -6  -2   3  175.18    6.37
   6   2  -3  188.71    6.60
  -6  -2   3  184.62    6.97
   6   2  -3  193.89    7.06
  -4   7   3  113.41    5.25
  -4   7   3  116.72    4.72
   4  -7  -3  114.77    5.08
   2   1 -10    4.49    0.92
  -2  -1  10    3.22    0.79
   2   1 -10    3.91    1.56
  -2  -1  10    2.31    1.12
   2   1 -10    4.87    1.20
  -2  -1  10    3.82    1.03
   2   1 -10    3.03    1.12
  -4   2   8   73.55    4.23
  -4   2   8   77.80    3.11
   4  -2  -8   76.30    3.61
  -4   2   8   78.90    3.75
  -4   2   8   74.75    3.69
   1   8   9   13.24    1.43
   1   8   9   11.34    1.70
  -1  -8  -9   12.52    1.41
   1   8   9   11.39    1.52
  -1  -8  -9   13.41    1.68
   2   1  12  266.26    9.82
   2   1  12  248.31    9.39
   2   1  12  264.14    9.19
   2   1  12  264.38    9.22
  -2  -1 -12  265.22    9.26
  -2  -1 -12  262.26    9.40
  -2  -1 -12  249.98    9.15
  -6   3  -5    9.69    1.38
   6  -3   5   12.09    1.72
   6  -3   5   10.55    1.60
  -6   3  -5   13.58    1.53
  -6   3  -5   13.19    1.80
  -6   3  -5   10.71    0.68
  -4  -4   6  117.85    5.43
   4   4  -6  113.69    5.56
   4   4  -6  108.62    4.12
   4   4  -6  114.26    4.16
  -4  -4   6  105.94    4.33
  -4  -4   6  109.73    3.99
  -1  -6 -11  236.77    8.38
  -1  -6 -11  240.56    8.34
   1   6  11  225.38    8.71
   1   6  11  237.08    8.57
   1   6  11  240.58    8.40
  -1  -6 -11  236.44    8.86
  -1  -6 -11  236.56    8.63
   6  -4   2   30.00    2.09
  -6   4  -2   33.29    2.68
   6  -4   2   31.72    2.37
   6  -4   2   35.79    2.54
  -6   0  -8   20.54    1.99
  -6   0  -8   21.68    2.23
  -6   0  -8   17.44    1.49
   6   0   8   19.13    1.86
  -6   0  -8   20.30    1.84
   6   0   8   25.20    2.34
  -2  -8  -9  152.63    5.74
   2   8   9  157.78    6.22
  -2  -8  -9  168.02    6.43
  -2  -8  -9  159.06    5.72
   2   8   9  160.01    5.85
  -1  -4   9  260.75    9.48
   1   4  -9  266.17    9.46
  -1  -4   9  274.86   10.46
  -1  -4   9  277.20    9.45
   1   4  -9  281.29    9.43
  -1  -1 -12   89.17    4.06
   1   1  12   86.65    4.01
  -1  -1 -12   86.68    4.19
   1   1  12   84.68    4.55
   1   1  12   87.46    4.14
  -5   6   0   15.64    1.96
   5  -6   0   20.94    1.96
  -5   6   0   20.62    1.87
   2   7  -5  184.31    7.63
   2   7  -5  215.14    7.55
   5  -4  -5    4.70    1.52
   5  -4  -5    5.38    0.79
  -5   4   5    3.90    1.27
   5  -4  -5    5.14    1.29
  -5   4   5    5.47    1.46
  -5   4   5    4.05    0.82
   1  -4 -11   31.79    2.30
  -1   4  11   32.65    2.39
   1  -4 -11   30.78    2.16
  -1   4  11   31.55    1.98
  -1   4  11   32.71    2.26
  -1   4  11   30.83    2.31
   1  -4 -11   29.84    2.14
  -1   6  10   28.58    2.11
   1  -6 -10   27.98    2.08
  -1   6  10   28.41    2.24
   1  -6 -10   30.99    2.16
   1  -6 -10   30.76    2.15
  -1   6  10   29.42    2.18
  -4  -6 -10  140.95    5.39
  -4  -6 -10  135.67    5.84
  -4  -6 -10  146.06    5.68
  -4  -6 -10  140.72    5.78
   4   6  10  141.54    5.64
   4   6  10  137.58    5.03
   4   6  10  140.07    5.86
   4   8   7   27.02    2.20
   4   8   7   26.45    1.39
  -4  -8  -7   27.14    1.52
  -4  -8  -7   28.02    2.26
  -4  -8  -7   28.38    2.29
  -2   6   9    3.43    1.25
   2  -6  -9    4.56    1.21
  -2   6   9    3.81    1.19
  -2   6   9    3.92    1.42
   2  -6  -9    3.87    1.17
   2  -6  -9    2.70    1.35
  -1  -8   4   -0.61    1.53
  -1  -8   4    0.21    0.56
   1   8  -4    1.86    1.32
   1   8  -4    1.11    0.48
   1   8  -4    0.26    1.17
   7   1   3  102.72    4.09
  -7  -1  -3  109.91    5.17
   7   1   3  103.20    5.31
   7   1   3  112.22    5.02
   7   1   3  108.53    3.94
   7   1   3  102.01    4.00
  -7  -1  -3  105.92    3.85
   6  -4   0   85.67    3.96
   4   0  -8   23.39    2.54
  -4   0   8   19.86    2.41
   4   0  -8   21.19    1.36
  -4   0   8   19.76    1.77
   4   0  -8   22.14    1.84
  -4   0   8   20.53    1.77
  -5  -3   5   65.45    3.11
  -5  -3   5   69.11    4.05
   5   3  -5   62.91    2.26
  -5  -3   5   63.30    2.97
   3   8  -2    3.81    1.39
   3   8  -2    3.51    0.88
   3   8  -2    7.24    1.49
  -3  -8   2    2.79    1.32
  -5  -1   6    0.31    0.89
   5   1  -6    1.74    0.97
  -5  -1   6   -0.11    0.96
   3  -4   9   39.61    2.46
   3  -4   9   37.12    2.10
   3  -4   9   37.66    2.75
   5   4  10   54.31    2.77
   5   4  10   50.87    3.27
  -5  -4 -10   52.06    3.07
   5   4  10   54.72    2.91
   5   4  10   51.87    2.48
   5   4  10   55.99    3.17
  -5  -4 -10   51.27    2.76
   5   4  10   56.45    3.16
  -5  -4 -10   55.51    3.04
  -5   6  -1    0.75    1.19
   5  -6   1    0.30    0.55
  -2   7   8  208.11    7.92
  -2   7   8  220.92    8.07
   2  -7  -8  209.92    7.57
   2  -7  -8  227.69    7.88
   2  -7  -8  204.32    7.66
  -2  -9  -7    9.68    1.12
   2   9   7    8.44    1.59
  -2  -9  -7    7.16    1.43
   2   9   7   10.84    1.47
  -3   4   9  110.22    4.04
   3  -4  -9  118.36    4.66
   3  -4  -9  117.22    5.43
  -3   4   9  127.37    5.32
  -3   4   9  112.67    4.51
  -3   4   9  100.73    4.72
  -7  -1  -2    4.48    0.58
   7   1   2    4.22    1.76
   7   1   2    5.09    1.07
  -7  -1  -2    3.14    1.42
   7   1   2    3.51    0.92
   7   1   2    4.73    1.56
   7   1   2    3.73    0.83
   6   5   7   15.71    0.77
  -6  -5  -7   16.37    1.69
   6   5   7   16.13    2.02
   6   5   7   17.17    1.55
   6   5   7   13.67    1.63
  -6  -5  -7   18.28    1.71
  -6  -5  -7   17.77    1.74
   6   5   7   16.19    1.38
   6   5   7   18.16    1.72
   4   7   9    6.07    1.32
   4   7   9    4.08    1.31
  -4  -7  -9    2.98    1.15
   4   7   9    3.93    0.77
  -4  -7  -9    6.45    1.42
  -4  -7  -9    4.60    1.07
   6   4   8   90.07    3.89
   6   4   8   87.49    4.16
   6   4   8   86.64    3.20
   6   4   8   88.18    3.73
  -6  -4  -8   84.35    3.95
  -6  -4  -8   86.42    3.80
  -6  -4  -8   90.42    4.01
   6   4   8   84.80    3.96
   1  -2  11  167.30    7.04
  -1   2 -11  158.79    6.25
  -1   2 -11  169.01    6.37
  -1   2 -11  149.54    6.09
   1  -2  11  157.73    6.41
   1  -2  11  156.62    5.47
   2   4  12  133.07    5.80
   2   4  12  138.98    5.69
   2   4  12  141.54    5.45
  -2  -4 -12  127.33    5.29
  -2  -4 -12  128.11    5.55
   2   4  12  133.34    5.74
   2  -9  -2   69.71    3.40
   2  -9  -2   74.50    3.59
  -2   9   2   67.72    3.17
  -5   6   1   23.23    1.88
   5  -6  -1   24.81    2.12
  -5   6   1   21.50    2.19
   6   5   0   22.90    1.26
   6   5   0   22.29    1.93
   6   5   0   24.59    2.09
   6   5   0   25.94    2.17
   3   7  -4  118.87    5.47
   3   7  -4  132.61    5.26
  -3  -7   4  124.45    4.65
   3   7  -4  129.55    5.71
   7   2   3   21.81    1.74
   7   2   3   25.89    1.70
   7   2   3   26.22    2.32
   7   2   3   25.36    2.58
  -7  -2  -3   23.34    1.33
  -7  -2  -3   19.91    2.22
   7   2   3   22.79    1.40
  -5  -7  -7    6.44    1.43
   5   7   7    7.25    1.37
  -5  -7  -7    6.22    1.38
   5   7   7    8.53    1.50
   5   7   7    7.04    1.25
   5   7   7    7.61    1.67
   7   1   4  144.48    5.10
   7   1   4  142.19    5.14
   7   1   4  137.00    6.09
  -7  -1  -4  142.68    6.33
   7   1   4  141.82    5.01
  -7  -1  -4  147.52    5.21
   2  -9  -1  181.29    6.60
  -2   9   1  187.21    6.99
   2  -9  -1  170.62    6.72
  -2   9   1  168.94    6.38
   4   8   0   -0.12    1.18
  -4  -8   0   -1.06    1.23
   4   8   0    0.39    1.00
  -4  -8   0    0.66    0.48
   3  -8  -4   41.78    2.56
  -3   8   4   39.80    2.00
   3  -8  -4   41.83    2.13
   3  -8  -4   40.07    2.60
   7   0   3  266.06    9.14
   7   0   3  268.37    8.89
  -7   0  -3  266.06   10.19
  -7   0  -3  275.37    8.86
   7   0   3  279.56    8.66
  -3  -9  -6    1.53    1.26
   3   9   6    0.99    1.22
  -3  -9  -6    1.21    0.63
  -3  -9  -6    1.38    0.64
  -3  -9  -6    0.56    1.28
   3   9   6    0.56    1.11
   3   7  10  105.36    3.83
  -3  -7 -10   97.44    3.85
  -3  -7 -10   99.20    4.08
   3   7  10   94.59    3.91
   3   7  10   92.77    4.58
  -3   5  -8   50.55    2.33
  -3   5  -8   49.07    2.91
  -3   5  -8   52.83    2.67
   3  -5   8   57.33    3.09
   3  -5   8   55.91    2.67
  -5   5   4   35.59    1.89
   5  -5  -4   33.38    1.50
  -5   5   4   40.91    2.81
   5  -5  -4   37.32    2.80
  -7   0  -2  113.05    3.98
  -7   0  -2  119.90    5.45
   7   0   2  115.58    3.94
   7   0   2  110.66    4.39
   7   0   2  111.13    4.28
   7   0   2  111.96    5.15
   7   0   2  106.15    5.60
   6   6   4   39.50    1.70
   6   6   4   35.66    2.52
   6   6   4   42.36    2.78
   6   6   4   37.83    2.62
   6   6   4   37.65    2.20
   6   6   4   37.66    2.50
   4   0  11  158.54    6.41
  -4   0 -11  153.16    6.31
   4   0  11  158.12    6.32
  -4   0 -11  160.05    6.00
  -4  -6   4   20.30    2.24
   4   6  -4   19.02    1.71
   4   6  -4   19.99    1.12
  -4  -6   4   16.26    1.36
   4   6  -4   19.65    2.32
   4   6  -4   17.97    1.23
  -3  -9  -1   48.40    2.50
   3   9   1   47.73    3.08
   3   9   1   48.07    2.97
   0   9  -2   26.23    2.09
   0   9  -2   25.20    2.00
   0  -9   2   25.60    2.09
   0  -9   2   23.67    1.55
   0   9  -2   19.73    2.17
   1   4  12    9.17    1.45
   1   4  12    9.12    1.49
   1   4  12   10.01    1.80
  -1  -4 -12   10.07    1.52
   1   4  12    8.71    1.42
  -1  -4 -12    9.85    1.44
  -1  -4 -12    8.42    1.57
  -2   2 -11   66.17    3.56
  -2   2 -11   65.66    3.52
   2  -2  11   64.86    3.68
   2  -2  11   76.27    4.23
  -2   2 -11   72.82    3.58
   2  -2  11   70.25    3.04
   2  -2  11   66.71    3.33
   7   2   4   29.84    2.56
   7   2   4   32.82    1.95
   7   2   4   30.05    1.64
  -7  -2  -4   33.47    1.81
  -7  -2  -4   36.89    2.79
   7   2   4   32.02    1.88
   3   2  12    0.86    1.09
  -3  -2 -12    0.12    1.13
  -3  -2 -12    1.26    1.21
   3   2  12    0.79    1.22
  -5   5  -5  102.31    4.78
   5  -5   5   97.76    4.47
  -5   5  -5  103.57    4.46
   5  -5   5  102.15    4.62
  -4   2 -10   51.82    3.07
   4  -2  10   50.74    2.92
   4  -2  10   49.99    2.86
  -4   2 -10   56.55    2.85
  -6   4  -3   11.14    1.41
  -6   4  -3   11.58    1.83
   6  -4   3   15.61    1.75
   6  -4   3   11.35    1.48
   0   7  10    6.39    1.07
   0  -7 -10    5.86    1.32
   0   7  10    9.17    1.40
   0   7  10    6.47    1.35
   0  -7 -10    7.50    1.29
   7   2   2   24.48    1.85
   7   2   2   27.03    1.51
   7   2   2   22.13    2.54
   7   2   2   24.26    1.71
   7   2   2   26.14    2.32
  -7  -2  -2   21.13    2.15
   6   6   3   -0.52    1.23
   6   6   3    1.93    1.15
   6   6   3    0.97    0.44
   6   6   3    1.69    1.24
   6   6   3    1.47    1.33
   6   6   3    2.52    0.89
  -5   0 -10   42.20    2.77
  -5   0 -10   45.55    2.84
  -5   0 -10   46.89    2.54
   5   0  10   43.42    2.94
   5   0  10   47.07    2.73
  -3   8  -2    2.39    1.26
   3  -8   2    0.52    0.85
  -3   8  -2    2.33    0.91
  -3   8  -2    2.72    1.42
   4  -5   7    1.11    1.17
  -4   5  -7    1.31    1.09
  -4   5  -7    1.42    1.12
   4  -5   7   -0.38    1.06
   4  -5   7   -0.44    1.25
   3   3  12  145.67    5.64
  -3  -3 -12  150.55    6.04
  -3  -3 -12  150.65    6.03
   3  -3  10  254.82    8.75
   3  -3  10  235.86    8.24
   3  -3  10  234.22    9.05
   2  -9  -3   51.44    2.91
   2  -9  -3   52.07    2.60
   2  -9  -3   51.89    2.81
  -2   9   3   47.68    2.53
  -1   8   8  205.04    7.62
  -1   8   8  202.08    7.31
  -1   8   8  204.09    7.86
   1  -8  -8  206.89    7.42
   1  -8  -8  197.33    6.78
   1  -8  -8  200.90    7.36
   5  -6   2   16.93    0.92
  -5   6  -2   16.11    1.91
   2   9  -1    4.44    1.35
   2   9  -1    3.35    1.40
   0   9   7  165.19    6.33
   0   9   7  164.91    6.78
   0  -9  -7  169.90    6.31
   0  -9  -7  170.21    6.56
   6  -4  -1  111.50    4.69
   6  -4  -1  102.63    5.28
   6   6   5  144.12    5.95
   6   6   5  146.40    4.96
   6   6   5  139.93    6.10
   6   6   5  142.03    5.50
   6   6   5  152.65    5.95
   7   1   1    5.03    1.56
  -7  -1  -1    3.12    1.41
   7   1   1    6.17    1.14
   7   1   1    3.24    0.91
   7   1   1    3.67    1.85
   7   1   1    3.38    0.86
  -4   3   8  106.22    5.11
  -4   3   8   96.89    4.46
  -4   3   8   98.91    3.90
  -4   3   8  100.59    4.61
   4  -3  -8  101.89    4.45
  -5   3  -8   34.36    2.49
  -5   3  -8   30.27    1.78
   5  -3   8   33.49    2.60
  -5   3  -8   30.24    2.25
   5  -3   8   31.74    2.32
   7   0   4  183.68    6.03
   7   0   4  181.10    5.95
   7   0   4  176.14    6.47
  -7   0  -4  181.67    6.32
   5   6  -2  204.10    7.83
   5   6  -2  198.08    6.25
  -5  -6   2  211.21    8.24
  -5  -6   2  207.63    6.82
   5   6  -2  210.72    7.18
   0   2  12   24.42    2.05
   0   2  12   23.03    1.97
   0  -2 -12   23.74    2.02
   0  -2 -12   25.88    2.05
  -5   3   6    6.94    1.35
  -5   3   6    7.48    1.55
   5  -3  -6    9.00    1.51
  -5   3   6    7.79    0.85
   2  -9   0  221.49    7.87
  -2   9   0  217.76    7.90
  -2   9   0  234.29    8.29
  -2   9   0  229.15    8.50
   7   0   1   45.67    2.49
   7   0   1   50.81    2.34
  -7   0  -1   43.29    1.61
   7   0   1   53.95    3.24
  -7   0  -1   45.15    3.06
   7   0   1   47.48    2.48
   7   0   1   50.90    2.13
  -3  -6 -11    0.29    1.32
  -3  -6 -11    0.84    1.03
  -3  -6 -11    1.74    1.22
   3   6  11    1.88    1.11
   3   6  11    0.28    1.13
   3   6  11    0.70    0.88
   6   0  -4   40.20    2.29
   6   0  -4   38.02    3.08
  -6   0   4   37.47    2.66
  -6   0   4   40.35    2.37
  -3   7  -5   37.03    2.34
  -3   7  -5   35.29    2.59
   1   9  -2   54.08    3.15
   1   9  -2   45.23    2.93
  -1  -9   2   49.67    2.11
   1   9  -2   52.41    3.02
   5   7   0   64.36    3.60
   5   7   0   72.71    3.43
   5   7   0   63.31    3.61
  -5  -7   0   55.55    1.96
  -5  -7   0   67.63    3.54
   4   3  -7  139.63    4.96
  -4  -3   7  143.17    5.41
  -4  -3   7  140.08    6.31
  -4  -3   7  136.69    4.97
   4   3  -7  139.13    6.51
   1  -9  -6   67.62    3.29
  -1   9   6   63.37    3.06
   1  -9  -6   63.51    3.26
  -4   7  -3   16.17    1.92
  -4   7  -3   15.31    1.14
  -4   7  -3   17.28    1.81
   5  -6  -2   43.17    2.68
  -5   6   2   42.28    2.39
   5  -6  -2   39.95    3.03
   1   7  -6    9.71    1.59
  -1  -7   6    5.10    1.66
   1   7  -6   11.34    1.72
  -6   1   4    8.96    1.32
   6  -1  -4   12.98    2.05
   6  -1  -4   10.04    1.39
  -6   1   4    9.35    1.59
  -7  -1  -5  143.24    5.28
   7   1   5  138.87    4.92
   0  -3 -12    4.84    1.33
   0   3  12    2.94    1.27
   0   3  12    1.29    1.16
   0  -3 -12    3.12    1.26
   0  -3 -12    3.04    1.19
  -2   0 -12  113.71    5.02
   2   0  12  127.21    5.73
  -2   0 -12  122.03    5.19
   2   0  12  113.42    5.13
   2   0  12  116.65    4.81
   2   0  12  121.44    5.02
  -2   0 -12  116.12    5.01
  -3  -1 -12   32.69    2.28
  -3  -1 -12   33.83    2.45
   3   1  12   29.16    2.07
   3   1  12   27.04    2.19
  -3  -1 -12   26.73    2.29
   0   8   9   49.78    2.75
   0   8   9   44.22    2.57
   0  -8  -9   49.56    2.72
   0  -8  -9   50.66    2.93
   0   8   9   41.51    2.88
  -1   0 -12   28.30    2.25
   1   0  12   29.58    2.76
   1   0  12   25.69    1.84
  -1   0 -12   29.58    2.29
   1   0  12   29.06    2.17
  -1   0 -12   26.79    2.12
   1   0  12   22.53    2.05
   2  -7   6    8.21    1.34
  -2   7  -6    5.54    1.12
  -2   7  -6    6.58    1.14
   7   2   5   73.61    2.91
   7   2   5   65.68    3.89
   7   2   5   69.72    3.09
   7   2   5   69.77    3.00
  -7  -2  -5   71.66    3.12
  -7  -2  -5   72.56    4.11
   4   1  -8   50.20    2.30
   4   1  -8   56.33    3.78
  -4  -1   8   50.84    2.64
  -4  -1   8   49.81    2.77
   4   1  -8   55.24    2.83
   6   6   2   34.06    1.44
   6   6   2   29.94    2.44
   6   6   2   37.57    1.94
   6   6   2   37.10    2.52
   6   6   2   33.05    2.45
   6   6   2   35.82    2.65
  -5  -6  -9   39.52    2.51
  -5  -6  -9   42.60    2.72
   5   6   9   38.17    2.48
   5   6   9   37.12    1.71
   5   6   9   34.25    2.57
   5   6   9   36.08    2.54
  -5  -6  -9   38.11    2.60
   4   5  11  231.22    8.46
   4   5  11  217.32    7.61
  -4  -5 -11  215.40    8.05
  -4  -5 -11  215.41    7.80
  -4  -5 -11  214.63    8.17
  -5   2  -9   27.77    1.13
  -5   2  -9   36.24    2.52
   5  -2   9   30.94    2.51
  -5   2  -9   37.47    1.99
  -5   2  -9   35.51    2.45
  -5   2  -9   36.94    2.50
   5  -2   9   32.82    2.43
   4  -7  -4   43.14    1.99
  -4   7   4   47.87    2.62
   4  -7  -4   48.37    2.94
  -6   2  -7    7.15    0.90
   6  -2   7    6.57    1.59
   6  -2   7    8.08    1.64
  -6   2  -7    6.95    1.68
  -6   2  -7    5.42    1.31
  -6   2  -7    6.79    1.38
  -6   3   3   15.81    0.80
  -6   3   3   16.86    1.06
   6  -3  -3   12.61    1.96
   6  -3  -3   15.01    0.83
  -6   3   3   16.92    2.03
   6  -3  -3   16.33    1.71
  -2   8  -4    9.95    1.37
  -2   8  -4    7.22    1.68
  -4   5   7    6.49    1.41
  -4   5   7    4.84    1.45
   4  -5  -7    5.38    1.43
  -4   5   7    7.41    1.20
   4  -5  -7    6.88    1.03
   1  -9   2   65.90    3.43
  -1   9  -2   64.01    2.98
  -1   9  -2   52.42    2.99
   7   3   3   56.56    2.84
   7   3   3   56.52    2.27
   7   3   3   56.06    2.91
   7   3   3   57.54    3.45
   7   3   3   59.62    3.78
   7   3   3   54.09    2.22
  -7  -3  -3   63.67    3.65
   7   3   3   57.56    2.74
  -2   5  10   -0.46    0.96
  -2   5  10    0.65    1.20
   2  -5 -10    1.13    1.24
  -2   5  10    0.41    0.86
   2  -5 -10    0.47    1.05
   2  -5 -10    0.31    1.06
  -2   5  10    1.77    1.34
   0  -2  11    1.92    1.17
   0  -2  11    1.17    1.67
   0  -2  11    3.86    1.22
   0   2 -11    5.20    1.29
   0   2 -11    4.61    1.21
   0  -2  11    3.52    0.63
   0   2 -11    3.59    1.37
   7   2   1   42.74    2.84
   7   2   1   39.79    2.27
   7   2   1   41.43    2.51
   7   2   1   42.03    2.02
   7   2   1   42.82    3.27
  -7  -2  -1   43.85    2.97
  -3  -8  -9   44.87    2.20
   3   8   9   44.02    2.75
   3   8   9   39.46    1.62
  -3  -8  -9   47.54    2.88
   3   8   9   46.71    2.88
  -3  -8  -9   46.21    2.36
   3   8   9   50.87    2.26
   3   8   9   38.94    1.60
   0  -1 -12  130.01    5.44
   0   1  12  121.86    5.90
   0  -1 -12  133.90    5.42
   0   1  12  128.92    5.35
  -6  -2  -9   10.37    1.40
   6   2   9   11.81    1.88
  -6  -2  -9   11.72    1.52
  -6  -2  -9   10.64    1.17
   6   2   9    9.80    1.46
   6   2   9   11.91    1.67
   1   1 -11  168.11    6.30
  -1  -1  11  154.45    6.06
   1   1 -11  163.17    6.26
  -1  -1  11  163.99    6.27
   1   1 -11  159.51    6.03
   3   4  12  100.26    4.52
   3   4  12   97.86    4.18
   3   4  12   92.93    4.49
  -3  -4 -12   93.44    4.31
  -3  -4 -12   88.17    4.13
   7   3   4   44.65    2.46
   7   3   4   46.63    1.91
   7   3   4   45.39    2.48
   7   3   4   46.13    2.50
   7   3   4   40.98    2.03
  -7  -3  -4   49.50    3.24
   7   3   4   48.26    3.16
   7   3   4   48.35    3.35
   1   3 -10   -0.44    1.26
  -1  -3  10    1.28    1.12
   1   3 -10    1.15    1.16
  -1  -3  10    0.59    1.05
   7  -1   2  136.14    5.17
  -7   1  -2  137.97    4.96
  -7   1  -2  135.34    6.08
   7  -1   2  134.40    5.01
  -7   1  -2  130.49    4.66
   7  -1   2  131.86    4.76
   6   4  -2   44.56    2.65
  -6  -4   2   42.61    2.02
   6   4  -2   41.49    2.80
  -6  -4   2   42.69    2.63
   5  -4   7    3.31    1.32
  -5   4  -7    3.64    1.33
   5  -4   7    3.26    1.29
  -5   4  -7    4.08    1.26
  -5   4  -7    5.19    0.86
   0   6  11  181.45    6.98
   0   6  11  182.91    6.94
   0   6  11  188.89    6.79
   0  -6 -11  185.17    7.07
   0  -6 -11  187.91    6.94
   0   6  11  184.20    7.22
   6   1  -4  101.03    4.41
   6   1  -4  101.61    4.13
  -6  -1   4   94.23    4.51
  -6  -1   4   98.96    4.10
   2  -9  -4   15.84    1.39
   2  -9  -4   20.51    1.75
  -2   9   4   15.22    1.42
   2  -9  -4   13.75    1.71
  -3   6   8    1.23    1.00
   3  -6  -8    0.71    0.97
   3  -6  -8    0.96    1.21
  -4   6   6    0.51    0.95
   4  -6  -6    2.32    1.44
  -4   6   6    0.94    1.43
   4  -6  -6    0.41    0.81
  -7   1  -3   65.89    3.01
   7  -1   3   61.66    3.05
   7  -1   3   65.20    3.05
   7  -1   3   60.51    2.45
  -7   1  -3   62.34    2.75
   6   6   6   35.92    2.29
   6   6   6   39.14    2.80
  -6  -6  -6   41.18    2.74
   6   6   6   38.23    1.84
  -6  -6  -6   44.73    2.76
   6   6   6   33.80    2.43
   6   6   6   39.47    2.65
   6   6   6   34.44    2.46
   5   2  -6   41.40    1.60
  -5  -2   6   48.42    3.44
   5   2  -6   43.43    2.36
  -5  -2   6   44.11    2.61
  -5  -2   6   45.78    2.54
   6   3  -3   26.62    1.22
  -6  -3   3   29.74    1.83
   6   3  -3   26.81    1.25
  -6  -3   3   28.37    2.75
  -6  -3   3   32.69    2.26
   6   3  -3   32.14    1.75
   6   3  -3   30.94    2.16
  -6   1  -8   70.92    3.99
  -6   1  -8   75.49    3.16
  -6   1  -8   78.87    3.80
  -6   1  -8   74.20    3.64
   6  -1   8   81.99    3.91
   6  -1   8   75.14    4.05
   2  -8  -7   65.16    3.35
   2  -8  -7   64.25    3.19
  -2   8   7   60.68    3.38
   1  -5   9  120.71    5.36
  -1   5  -9  121.76    5.19
   1  -5   9  123.37    5.76
   1  -5   9  119.77    4.83
  -6  -3  -9   25.54    2.04
  -6  -3  -9   21.38    1.65
   6   3   9   20.24    2.26
   6   3   9   27.49    2.03
   6   3   9   27.07    2.08
   6   3   9   27.28    1.92
   6   3   9   26.05    2.17
  -6  -3  -9   20.52    1.84
  -3   6  -7   28.01    1.95
   3  -6   7   25.01    2.04
  -3   6  -7   26.04    1.58
   6  -4   4    3.34    1.36
  -6   4  -4    4.04    1.56
  -6   4  -4    2.99    1.10
   6  -4   4    3.22    1.20
  -5  -5 -10  169.22    6.25
   5   5  10  160.72    6.52
  -5  -5 -10  157.15    6.39
  -5  -5 -10  159.50    6.52
   5   5  10  155.12    5.54
   5   5  10  156.69    6.67
   5   5  10  164.58    6.21
   5   5  10  161.76    6.47
   7   3   2  272.10    9.28
   7   3   2  266.73    8.55
   7   3   2  273.77    9.01
   7   3   2  270.27    9.42
   7   3   2  277.56    9.95
  -7  -3  -2  266.79    9.91
   7   3   2  270.13   10.34
  -5   6  -3    9.42    0.49
  -5   6  -3   12.27    1.77
  -6  -1  -9   21.63    2.03
   6   1   9   21.15    1.90
   6   1   9   20.31    2.28
   6   1   9   20.91    1.93
  -6  -1  -9   18.53    1.28
  -6  -1  -9   20.21    1.84
  -6  -1  -9   17.31    1.59
  -7   1  -1  115.70    3.98
   7  -1   1  118.06    4.39
   7  -1   1  117.20    4.70
  -7   1  -1  121.91    5.54
   7  -1   1  124.15    5.44
   7   0   5   77.04    4.17
  -7   0  -5   69.43    3.14
   1  -5 -11   77.56    3.76
   1  -5 -11   84.82    3.97
   1  -5 -11   80.56    3.80
  -1   5  11   75.58    3.78
  -1   5  11   84.91    3.57
   1  -5 -11   81.20    3.97
  -1   5  11   78.38    3.92
  -1   5  11   70.66    3.69
   2   5  12    0.50    1.31
  -2  -5 -12    0.73    1.31
   2   5  12   -0.32    1.04
   2   5  12    0.27    1.10
  -2  -5 -12    0.23    1.12
   2   5  12    0.44    1.12
  -3  -2   9   13.34    1.09
  -3  -2   9   11.21    1.43
   3   2  -9   12.96    1.33
   3   2  -9   12.33    1.08
   3   2  -9   11.65    1.43
  -4  -8  -8   15.76    1.84
  -4  -8  -8   18.55    1.92
   4   8   8   18.83    1.97
  -4  -8  -8   20.68    1.44
   4   8   8   16.23    1.13
   3   9   7   73.62    3.76
  -3  -9  -7   68.57    2.78
  -3  -9  -7   63.08    3.55
  -3  -9  -7   68.24    2.74
  -3  -9  -7   71.51    3.69
   3   9   7   71.51    3.82
   6  -3   6   -0.28    1.32
   6  -3   6    1.33    1.34
  -6   3  -6    0.74    1.07
  -6   3  -6    0.32    1.29
  -6   3  -6    1.28    1.11
  -6   3  -6    2.04    0.56
   7   1   0    6.79    1.01
   7   1   0    7.26    2.04
  -7  -1   0    6.20    1.54
   7   1   0    6.55    1.11
   7   1   0    5.90    1.58
  -1 -10  -3    7.42    1.24
  -1 -10  -3    8.32    1.60
   1  10   3    9.25    1.61
  -3  -9   0   82.27    3.68
   3   9   0   95.51    4.51
   3   9   0   91.17    4.50
   7   0   0   36.78    1.84
  -7   0   0   38.58    2.84
   7   0   0   43.87    2.92
   7   0   0   38.41    1.76
   7   0   0   39.94    2.23
   7   3   5    8.65    1.10
   7   3   5    7.83    1.80
   7   3   5    9.98    1.31
  -7  -3  -5    8.88    1.70
  -7  -3  -5    7.33    1.08
   7   3   5    9.42    1.37
   7   3   5    8.89    0.87
   7   3   5    7.45    1.22
  -2   9  -1   49.43    3.10
   2  -9   1   43.58    2.54
  -2   9  -1   45.58    2.60
  -2   9  -1   47.24    2.76
  -1  -9  -8   23.34    2.06
   1   9   8   24.72    2.06
  -1  -9  -8   21.11    1.75
   1   9   8   24.97    2.29
   6  -2  -4   -0.18    1.53
  -6   2   4    0.32    1.18
   6  -2  -4    0.83    1.13
  -6   4   2   19.55    2.11
   6  -4  -2   25.37    2.60
   6  -4  -2   23.88    2.07
   3  -8  -5    4.81    0.99
   3  -8  -5    5.35    1.22
   3  -8  -5    5.59    1.38
   6   5   8    2.59    0.95
   6   5   8    1.49    1.13
   6   5   8   -1.05    1.37
  -6  -5  -8    0.59    1.23
  -6  -5  -8   -0.12    1.07
  -6  -5  -8    1.33    1.19
   6   5   8   -0.80    1.22
   6   5   8    1.66    0.51
  -2  -2  10   14.98    1.57
  -2  -2  10   16.84    1.00
  -2  -2  10   15.54    1.69
   2   2 -10   20.52    1.77
   2   2 -10   23.68    1.84
   2   2 -10   18.54    1.48
   2   2 -10   18.32    2.44
  -3   7   7    1.09    0.95
   3  -7  -7    1.72    1.23
   3  -7  -7    1.37    0.97
  -3   7   7    3.11    1.35
   0  -4 -12   16.42    1.88
   0  -4 -12   13.06    1.61
   0  -4 -12   13.45    1.63
   0   4  12   15.99    1.81
   0  -4 -12   15.20    1.70
   0   4  12   13.30    1.48
   0   4  12   17.50    1.77
  -1 -10  -4    4.24    1.40
  -1 -10  -4    3.80    1.09
   1  10   4    4.35    1.27
  -1  -5 -12   43.66    2.88
  -1  -5 -12   40.92    2.64
  -1  -5 -12   41.47    2.64
   1   5  12   46.08    2.86
   1   5  12   43.09    2.65
   1   5  12   48.04    3.01
  -1  -5 -12   43.88    2.55
   1  -4  10   70.84    4.24
  -1   4 -10   72.66    3.68
   1  -4  10   75.05    3.86
   1  -4  10   72.34    3.41
   7  -1   4   31.46    2.15
   7  -1   4   32.88    2.57
  -7   1  -4   32.59    1.93
  -7   1  -4   32.17    2.13
  -3   2 -11  112.37    4.97
   3  -2  11  109.08    4.48
   3  -2  11  103.79    5.02
   3  -2  11  115.36    4.78
   5   7   8   20.38    1.70
   5   7   8   20.27    2.19
   5   7   8   17.03    0.89
  -5  -7  -8   21.07    2.01
  -5  -7  -8   20.99    2.08
   5   7   8   17.20    1.85
   5   7   8   19.26    1.88
   4   7  -3   12.48    1.94
   4   7  -3   13.62    1.64
   4   7  -3   13.86    1.21
  -4  -7   3   13.86    1.95
  -4  -7   3   14.30    1.18
   1  10   2   33.20    2.48
  -1 -10  -2   36.23    2.59
  -1 -10  -2   29.28    2.01
   1  -6   8   60.02    2.96
   1  -6   8   59.18    3.78
  -1   6  -8   62.70    3.40
  -1   6  -8   64.17    3.25
   1  -6   8   61.64    3.47
  -2  -9  -8   56.49    3.19
  -2  -9  -8   50.21    2.47
   2   9   8   54.45    3.14
   6   5  -1   15.17    0.97
   6   5  -1   15.43    1.81
   6   5  -1   15.31    1.97
  -6  -5   1   16.54    1.02
   6   5  -1   18.23    1.82
   0   8  -5   39.95    2.70
   0  -8   5   33.24    1.96
   0  -8   5   34.98    2.77
   0   8  -5   31.58    2.33
   0   8  -5   32.13    1.55
   0   5  -9    0.12    1.17
   0  -5   9   -1.91    1.71
   0  -5   9    0.14    1.25
   0 -10  -3    0.71    1.08
   0 -10  -3    1.29    1.26
   0  10   3   -0.12    1.09
  -3   8  -3   19.07    2.04
  -3   8  -3   15.73    1.75
  -3   8  -3   19.69    1.55
   6   6   1   11.36    1.68
   6   6   1    9.78    0.67
   6   6   1    9.63    1.61
   6   6   1   11.16    1.65
   6   6   1    8.97    1.01
   2   8  -4  156.44    6.49
   2   8  -4  161.53    6.38
  -4  -8   1   -0.52    1.39
   4   8  -1    1.92    1.31
   4   8  -1    2.39    1.11
  -4  -8   1    1.73    0.61
   7   2   6  149.36    5.47
   7   2   6  157.04    5.90
   7   2   6  145.48    5.50
  -7  -2  -6  148.52    5.59
  -7  -2  -6  151.69    5.62
   5   8   4   15.70    1.69
   5   8   4   19.36    2.00
  -5  -8  -4   12.72    1.84
   5   8   4   14.66    1.94
   5   8   4   12.57    1.74
   5  -6  -3   20.53    2.25
  -5   6   3   21.11    1.64
   5  -6  -3   16.77    1.83
   3   5  -7  120.26    5.73
  -3  -5   7  120.72    4.80
   3   5  -7  117.90    4.63
   3   5  -7  118.97    4.49
   0 -10  -2    4.41    1.24
   0 -10  -2    5.79    1.38
   0 -10  -2    3.91    0.83
   0  10   2    3.50    1.26
  -3   5   9  131.78    5.64
  -3   5   9  123.53    5.03
  -3   5   9  124.63    4.61
   3  -5  -9  126.55    5.58
   3  -5  -9  118.89    4.77
  -7  -1  -6   31.42    2.00
   7   1   6   28.69    1.68
   7   1   6   31.04    2.67
  -7  -1  -6   29.39    1.84
  -4   1 -11   78.35    4.03
  -4   1 -11   85.58    3.80
   4  -1  11   85.67    4.06
   2  -5   9  128.71    5.76
  -2   5  -9  124.91    5.32
   2  -5   9  137.16    5.40
  -2   2  11  265.00    9.55
  -2   2  11  242.89    9.00
  -2   2  11  243.20    8.68
   2  -2 -11  244.77    9.51
   2  -2 -11  249.11    8.76
  -4   6  -6    5.21    1.35
   4  -6   6    4.30    1.43
   1  -8   5  162.41    6.09
  -1   8  -5  161.06    6.62
  -1   8  -5  157.66    5.62
  -1   8  -5  164.55    6.16
   1  -8   5  169.90    6.84
  -4   4   8  154.61    6.20
  -4   4   8  151.68    6.45
   4  -4  -8  154.06    5.82
  -4   4   8  145.30    5.98
  -4   4   8  145.13    5.38
  -4   4   8  141.15    4.79
   4  -4  -8  135.92    5.24
  -3   0 -12   73.26    3.81
   3   0  12   78.68    3.85
   3   0  12   79.15    3.74
  -3   0 -12   78.51    3.72
   5  -1  10   65.95    3.53
   5  -1  10   56.02    3.26
  -5   1 -10   67.89    3.57
  -5   1 -10   66.22    3.11
  -5   1 -10   59.53    3.45
   0  -6   8   23.33    2.59
   0   6  -8   26.81    2.12
   0  -6   8   23.93    1.69
  -2  -5   8  347.42   11.66
   2   5  -8  345.12   11.52
   2   5  -8  340.50   11.28
   0   0 -12   53.05    2.80
   0   0  12   58.28    3.11
   0   0 -12   49.54    2.96
   0   0  12   53.80    3.71
   0   0 -12   53.98    3.05
   5   8   3   36.33    2.38
   5   8   3   43.26    2.78
   5   8   3   39.55    2.72
   5   8   3   40.75    2.84
   7   2   0   67.88    3.62
  -7  -2   0   64.68    3.73
   7   2   0   67.26    4.06
   7   2   0   64.42    3.06
   7   2   0   65.63    2.75
   7   2   0   64.81    3.34
  -5  -8  -5  322.44   11.39
   5   8   5  316.99   10.85
   5   8   5  297.39   11.01
   5   8   5  321.31   11.12
   7   3   1  368.76   11.54
   7   3   1  366.01   12.25
   7   3   1  397.60   12.91
   7   3   1  368.69   11.79
   7   3   1  354.66   12.40
  -7  -3  -1  372.76   13.05
   7   3   1  373.52   13.36
   4   9   4  253.35    9.27
   4   9   4  256.94    8.46
  -4  -9  -4  260.86    9.60
   3   6  -6  115.28    4.30
  -3  -6   6  117.75    4.64
   3   6  -6  117.61    4.86
   3   6  -6  121.61    5.61
   3  -2 -10  110.53    5.51
   3  -2 -10  104.93    4.37
  -3   2  10  109.35    4.33
  -3   2  10   99.47    5.17
  -3   2  10  104.15    4.73
   3  -2 -10  111.55    4.72
  -3   2  10  114.45    4.68
   7  -1   0   54.41    2.08
   7  -1   0   53.88    2.30
   7  -1   0   55.70    2.82
  -7   1   0   61.59    3.51
   7  -1   0   58.41    3.38
  -7   1   0   48.19    1.74
   0 -10  -4    3.75    1.21
   0 -10  -4    3.91    1.31
   0  10   4    2.43    1.14
   2  -4  10   76.82    4.02
   2  -4  10   82.10    4.41
   2  -4  10   70.84    2.88
   2  -4  10   74.90    3.55
  -2   4 -10   71.89    3.69
   3  -1 -10  130.65    5.17
  -3   1  10  117.45    4.33
  -3   1  10  114.10    5.60
   3  -1 -10  120.54    4.80
  -3   1  10  128.28    5.21
   3  -1 -10  115.94    5.82
  -3   1  10  117.61    4.85
  -3   1  10  123.12    4.68
  -2   1  11  146.99    5.97
   2  -1 -11  144.25    6.54
  -2   1  11  149.10    5.71
   2  -1 -11  150.61    5.86
   2  -1 -11  143.77    5.66
  -6  -4  -9   97.82    4.35
   6   4   9   93.80    3.97
   6   4   9   90.24    4.03
   6   4   9   87.88    4.56
   6   4   9   91.00    3.48
  -6  -4  -9   92.60    4.23
  -6  -4  -9   89.74    3.97
   6   4   9   97.97    4.28
   6   4   9   92.20    4.41
   2   6  -7  219.89    7.78
   2   6  -7  211.49    7.89
  -2  -6   7  203.95    7.32
  -6  -2   4   75.63    4.42
  -6  -2   4   67.66    3.23
  -6  -2   4   74.93    3.67
   6   2  -4   76.40    3.32
   6   2  -4   76.69    3.60
  -5  -2 -11   41.44    2.56
   5   2  11   49.53    3.11
  -5  -2 -11   49.17    3.00
   5   2  11   41.83    2.39
   5   2  11   41.59    2.76
   5   2  11   41.66    2.56
   3   8  -3   12.41    1.07
   3   8  -3    9.47    1.54
   3   8  -3    9.86    1.72
  -3  -8   3   13.96    1.80
   1  10   5    5.02    1.30
  -1 -10  -5    3.61    1.30
  -1 -10  -5    4.96    1.43
  -1 -10  -5    5.22    1.17
   5  -5  -5   66.88    3.86
  -5   5   5   70.00    2.74
  -5   5   5   68.82    3.82
   5  -5  -5   68.70    3.58
  -5   5   5   60.47    2.95
   5  -5  -5   72.11    2.78
   4   9   3   86.44    3.55
  -4  -9  -3   85.34    4.34
   4   9   3   80.18    4.06
   0   9  -3   41.34    2.18
   0  -9   3   47.48    2.33
   0   9  -3   48.47    2.78
   0  -9   3   47.07    3.05
   0   9  -3   47.90    3.00
   2  -9  -5    4.45    1.35
   2  -9  -5    3.11    1.05
  -2   9   5    3.18    0.97
   2  -9  -5    4.24    0.95
   5   5  -4  108.64    3.96
   5   5  -4  115.49    4.27
  -5  -5   4  106.76    4.16
  -5  -5   4  113.79    5.47
   5   5  -4  106.99    5.58
   5   5  -4  112.71    4.28
   2   7  11   78.96    3.74
  -2  -7 -11   74.86    3.48
  -2  -7 -11   70.51    3.31
  -2  -7 -11   81.33    3.89
   2   7  11   80.17    3.50
   6   6   7  114.49    4.19
   6   6   7  108.28    4.97
  -6  -6  -7  113.71    5.07
   6   6   7  114.16    4.80
  -6  -6  -7  119.96    5.04
   6   6   7  108.93    5.24
   6   6   7  118.48    4.96
   6   6   7  109.12    4.96
   5   3  11    6.90    1.70
  -5  -3 -11    5.11    1.34
   5   3  11    5.53    1.37
   5   3  11    5.78    1.12
   5   3  11    7.67    1.38
  -5  -3 -11    8.39    1.50
   5  -1  -7   67.02    3.34
  -5   1   7   66.71    3.44
  -5   1   7   63.11    3.44
  -5   1   7   71.98    4.22
   2  10   3  104.90    4.86
  -2 -10  -3   98.28    4.55
  -2 -10  -3   88.80    3.67
  -5  -4   5  123.06    4.84
  -5  -4   5  130.33    6.06
   5   4  -5  126.03    4.67
   5   4  -5  127.70    4.45
   5   4  -5  121.86    4.25
  -5  -4   5  129.16    4.87
   5   4  -5  122.15    6.06
   3   5  12  249.56    8.91
  -3  -5 -12  258.85    9.21
   3   5  12  272.43    9.30
   3   5  12  256.93    9.49
  -3  -5 -12  257.38    9.38
  -1 -10  -1   41.38    2.79
   1  10   1   38.60    2.71
  -5   4   6   25.96    1.54
  -5   4   6   20.95    1.95
   5  -4  -6   25.87    2.12
  -5   4   6   23.70    2.30
  -5   4   6   21.02    0.96
   5  -4  -6   25.21    1.51
   5  -4  -6   23.26    2.43
   2   9  -2   14.54    1.82
   2   9  -2   14.61    1.88
   2   9  -2   17.45    1.97
  -2 -10  -4  111.47    4.29
   2  10   4  119.62    5.28
  -2 -10  -4  119.42    5.21
  -4  -9  -5  173.58    5.44
   4   9   5  170.60    5.86
  -4  -9  -5  178.93    7.08
   4   9   5  185.43    7.01
  -6   0  -9   68.89    2.61
   6   0   9   79.50    4.21
  -6   0  -9   74.25    3.75
  -6   0  -9   73.01    3.64
   6   0   9   81.26    3.94
  -6   0  -9   77.81    3.33
  -4   7  -4   20.02    2.02
   2  -3 -11   59.69    2.98
  -2   3  11   53.74    3.36
   2  -3 -11   53.69    3.46
  -2   3  11   53.16    2.91
   2  -3 -11   47.53    2.84
   0  -4  10   39.18    2.44
   0   4 -10   35.88    2.40
   0  -4  10   35.25    2.61
   0   4 -10   33.00    2.40
   0  -4  10   33.41    2.97
   0  10   1    0.39    1.12
   0 -10  -1    0.63    0.89
   0 -10  -1    2.05    1.29
  -7  -3  -6   -0.10    1.06
  -7  -3  -6   -0.18    0.92
   7   3   6    0.25    0.98
   7   3   6    1.09    1.21
   7   3   6    1.59    1.07
   7   3   6    1.35    1.57
   7   3   6    0.99    0.93
  -5   5  -6   31.61    2.51
   5  -5   6   33.40    2.57
  -5   5  -6   34.11    2.33
   5  -5   6   27.39    2.23
   7   4   4    8.65    1.94
   7   4   4    3.23    1.18
   7   4   4    5.73    1.13
   7   4   4    5.46    0.91
   7   4   4    5.18    1.23
   7   4   4    2.80    1.61
   3   4  -8    0.17    0.98
  -3  -4   8    1.46    1.06
   3   4  -8   -0.20    1.70
   3   4  -8    1.45    1.05
   5   7  -1  161.26    6.86
   5   7  -1  165.79    6.17
  -5  -7   1  155.07    5.14
  -5  -7   1  166.11    6.61
   5   7  -1  161.99    6.75
   5   7  -1  163.48    6.67
   7   4   3   -0.18    0.91
   7   4   3    0.46    0.60
   7   4   3    0.23    1.15
   7   4   3    1.59    1.71
   7   4   3   -0.21    1.08
   7   4   3    0.46    1.42
  -2  -8 -10  122.19    4.77
  -2  -8 -10  122.65    5.38
   2   8  10  120.13    4.92
   2   8  10  122.41    4.62
   2   8  10  106.92    3.73
  -2  -8 -10  126.83    4.88
   4   2  -8   56.79    2.25
  -4  -2   8   59.83    2.74
  -4  -2   8   56.54    3.02
   4   2  -8   57.45    2.53
   1   7  11   87.11    4.39
  -1  -7 -11   96.27    4.37
   1   7  11   86.33    3.98
   1   7  11   91.87    3.66
  -1  -7 -11   83.82    3.86
  -1  -7 -11   92.76    4.00
   4   7  10    3.76    0.91
  -4  -7 -10    3.00    1.10
  -4  -7 -10    1.84    1.20
   4   7  10    2.07    1.23
   4   7  10    2.75    1.33
  -4  -7 -10    3.20    1.31
  -1   1 -12    3.18    1.28
   1  -1  12    1.91    1.74
   1  -1  12    1.71    1.30
   1  -1  12    3.31    0.95
  -1   1 -12    4.36    1.47
  -1   1 -12    3.41    1.31
  -4  -2 -12    0.39    1.24
  -4  -2 -12    0.74    1.23
   4   2  12    0.46    1.08
   4   2  12    0.73    1.06
   4   2  12    0.71    1.32
  -4  -2 -12    0.86    1.26
   4   2  12    1.45    1.21
   7  -2   2   42.50    1.88
   7  -2   2   40.53    2.33
  -7   2  -2   37.41    2.15
  -7   2  -2   44.37    2.10
   7  -2   2   40.02    2.51
   5   0  -7   37.95    2.35
  -5   0   7   34.27    2.41
  -5   0   7   38.48    3.18
  -5   0   7   38.26    2.43
   2  -1  12   19.51    1.86
   2  -1  12   18.14    1.63
   2  -1  12   23.32    2.60
  -2   1 -12   21.07    2.00
  -2   1 -12   22.50    2.13
  -2   1 -12   19.78    2.05
   1  -9  -7  109.19    3.90
   1  -9  -7  121.00    4.85
  -1   9   7  120.26    4.84
  -1   9   7  120.71    5.42
   1  -9  -7  115.80    4.80
   4   3  12    1.57    1.33
   4   3  12    3.58    1.09
  -4  -3 -12    4.33    1.40
  -4  -3 -12    4.06    1.37
   4   3  12    5.74    1.48
  -4  -3 -12    4.96    1.36
  -2   6  -8   91.60    3.52
  -2   6  -8   92.02    3.89
   2  -6   8   98.77    4.81
   2  -6   8  101.88    4.38
  -2   6  -8   86.22    4.24
   1   8  10   15.03    1.57
   1   8  10   16.19    1.64
   1   8  10   15.04    1.85
  -1  -8 -10   12.10    1.63
  -1  -8 -10   11.55    1.45
   1   8  10   13.80    0.98
   0   9   8  195.29    7.10
   0   9   8  181.92    7.54
   0  -9  -8  178.04    7.02
   0  -9  -8  189.87    6.81
   7  -1   5   42.39    2.97
  -7   1  -5   37.90    2.22
  -7   1  -5   40.60    2.47
  -7   1  -5   37.63    3.04
   7  -1   5   40.01    2.56
  -4   7   5   32.32    2.09
   4  -7  -5   27.54    2.36
   4  -7  -5   31.69    1.72
  -7   0  -6   30.95    2.22
  -7   0  -6   32.71    2.75
   7   0   6   32.93    2.73
  -7   0  -6   30.47    2.02
  -7   0  -6   29.16    1.69
   5   8   2  227.59    8.61
   5   8   2  237.78    8.71
   5   8   2  225.62    8.36
   5   8   2  221.56    8.10
  -3   3  10   26.70    1.89
   3  -3 -10   26.63    2.57
  -3   3  10   25.42    2.61
  -3   3  10   22.55    2.09
   3  -3 -10   28.42    2.17
   5   8   6   64.27    2.88
   5   8   6   58.16    3.53
  -5  -8  -6   67.98    3.66
   5   8   6   61.52    3.40
   5   8   6   62.62    3.50
  -5  -8  -6   61.11    3.51
  -2  -4   9  107.51    4.56
   2   4  -9  105.88    4.48
   2   4  -9  110.77    4.46
  -2 -10  -2   93.35    3.50
  -2 -10  -2   92.85    3.80
   2  10   2   99.55    4.72
  -2 -10  -2  103.43    4.65
  -5   2   7  274.31    9.58
  -5   2   7  261.99    8.49
   5  -2  -7  270.06    9.45
  -5   2   7  282.73   10.45
  -5   2   7  266.94    9.71
   1   8  -5    1.11    1.38
   1   8  -5    2.92    1.29
  -1  -8   5    1.76    0.75
  -1  -8   5   -0.51    1.70
   1   8  -5    1.32    0.26
  -6   4  -5   69.12    3.11
   6  -4   5   65.12    3.49
   6  -4   5   62.46    3.50
  -6   4  -5   67.01    3.71
   7   0  -1    9.63    1.01
   7   0  -1    9.99    1.75
   7   0  -1    9.32    1.29
  -7   0   1   10.91    1.84
   7   0  -1    6.99    0.58
  -5   6  -4  155.77    6.39
  -5   6  -4  150.48    4.98
   7  -2   3   16.93    1.79
   7  -2   3   21.78    2.27
   7  -2   3   20.90    1.77
  -7   2  -3   21.44    1.57
  -7   2  -3   21.35    1.71
   7  -2   3   19.00    0.97
  -1   7  10    4.50    1.24
   1  -7 -10    6.95    1.29
  -1   7  10    3.34    1.26
  -1   7  10    4.73    1.39
   1  -7 -10    5.58    1.34
   1  -7 -10    7.94    1.38
   7  -2   1   92.23    5.18
  -7   2  -1   95.82    3.71
   7  -2   1   98.34    4.20
   7  -2   1   94.73    3.78
  -7   2  -1   92.45    3.49
  -7   2  -1   94.43    4.85
  -5  -1 -11   52.92    3.17
   5   1  11   50.11    3.10
   5   1  11   49.47    3.17
   5   1  11   53.85    3.00
  -5  -1 -11   54.35    2.94
  -5  -1 -11   51.56    3.18
  -6   5  -1   46.31    3.15
   6  -5   1   51.90    3.07
   7   4   5   17.19    2.13
   7   4   5   15.45    1.38
   7   4   5   16.26    1.51
   7   4   5   17.75    1.69
   7   4   5   14.88    1.61
   7   4   5   15.18    2.10
   7   4   5   16.59    1.64
  -2 -10  -5  106.56    4.12
  -2 -10  -5  106.61    4.91
   2  10   5  111.64    5.02
   3   0 -10   69.01    3.23
  -3   0  10   68.12    3.49
  -3   0  10   68.62    3.17
   3   0 -10   72.75    4.34
  -3   0  10   74.41    4.21
  -3   0  10   70.21    2.91
   3   0 -10   76.47    3.62
   7   1  -1   23.77    2.68
  -7  -1   1   20.28    2.18
   7   1  -1   21.53    2.13
   7   1  -1   21.49    1.61
   7   1  -1   22.81    1.63
   4   9   2    5.39    1.39
   4   9   2    6.31    1.19
  -1   9  -3  121.00    4.65
   1  -9   3  113.35    5.01
  -1   9  -3  118.30    4.80
  -1   9  -3  110.56    4.92
  -1   3 -11    0.78    1.24
   1  -3  11    2.03    0.55
   1  -3  11    0.73    1.33
   1  -3  11    3.58    1.26
  -1   3 -11    0.49    1.21
  -2   9  -2  153.58    6.03
  -2   9  -2  156.79    6.09
  -2   9  -2  165.31    6.60
  -4  -6 -11   88.84    4.47
  -4  -6 -11   93.98    4.07
   4   6  11   91.40    4.24
   4   6  11   89.75    3.74
  -4  -6 -11   87.80    4.31
   4   6  11   96.54    4.56
   0  10   5   33.88    2.36
   0 -10  -5   33.07    2.21
   0 -10  -5   37.96    2.59
   0 -10  -5   34.32    2.42
  -1  -9   3    1.77    0.65
   1   9  -3    0.14    1.36
   1   9  -3    0.14    1.15
  -4   4  -9   60.74    3.37
  -4   4  -9   64.99    3.28
   4  -4   9   68.14    3.55
  -4   4  -9   61.56    2.43
   4  -4   9   64.50    3.20
   6  -5   0   85.17    4.07
  -6   5   0   83.51    4.44
  -2   7   9    3.16    1.32
   2  -7  -9    5.15    1.29
  -2   7   9    3.74    1.30
   2  -7  -9    2.41    1.18
   2  -7  -9    2.41    1.25
   7   4   2   22.39    2.03
  -7  -4  -2   25.04    2.36
   7   4   2   22.92    1.21
   7   4   2   25.31    1.08
   7   4   2   24.09    1.98
   7   4   2   24.79    1.75
   7   4   2   25.97    2.32
   7   4   2   23.06    2.50
  -1   7  -7    1.33    0.51
   1  -7   7    2.53    1.07
  -1   7  -7    0.44    1.10
   1  -7   7    2.39    1.68
  -6   3   4   13.74    1.91
   6  -3  -4   13.59    0.96
  -6   3   4   14.58    0.93
   6  -3  -4   14.90    2.08
   6  -3  -4   15.86    1.66
  -2   0  11   17.07    1.40
  -2   0  11   13.18    1.46
   2   0 -11    9.67    1.96
   2   0 -11   13.01    1.60
   2   0 -11   15.74    1.70
  -2   0  11   13.27    1.64
  -2   0  11   14.34    1.56
  -4  -5   6    6.51    1.17
  -4  -5   6    5.75    1.78
   4   5  -6    8.96    1.13
   4   5  -6    7.80    1.05
   4   5  -6    7.50    1.17
   4   5  -6    7.60    2.02
   5   4  11    3.76    1.40
   5   4  11    2.01    0.94
  -5  -4 -11    5.66    1.57
  -5  -4 -11    4.22    1.37
   5   4  11    5.41    1.64
  -5  -4 -11    6.75    1.27
   5   4  11    5.42    1.22
   4   9   6   57.59    3.33
  -4  -9  -6   61.79    3.50
  -5  -6   3   70.21    4.07
   5   6  -3   68.69    2.98
   5   6  -3   62.22    2.98
   5   6  -3   62.57    3.71
   5   6  -3   60.04    2.29
  -5  -6   3   66.46    2.78
   5   6  -3   65.43    4.04
  -6   5  -2    2.34    1.46
   6  -5   2    1.36    0.25
   6  -4  -3  134.17    5.62
   6  -4  -3  131.35    4.73
  -6   4   3  128.96    5.86
   3   9   8   54.48    3.33
   3   9   8   52.71    3.11
  -3  -9  -8   55.30    2.56
  -3  -9  -8   53.64    3.24
  -3  -9  -8   57.05    2.48
  -3  -9  -8   61.57    3.44
   0   7  -7  101.11    4.69
   0   7  -7   95.96    4.43
   0  -7   7  104.70    4.15
   0  -7   7  100.66    5.19
   4  -8  -1   37.55    2.67
   4  -8  -1   39.56    2.16
  -4   8   1   41.15    2.86
  -4   8   1   34.25    1.60
  -4   8   1   39.04    2.63
  -1   2  12    7.50    1.40
   1  -2 -12    6.63    1.34
   1  -2 -12    7.86    1.44
   0  -5 -12   58.17    3.32
   0   5  12   57.19    3.05
   0  -5 -12   59.39    3.15
   0  -5 -12   55.51    3.17
   0   5  12   56.61    3.28
   0   5  12   55.33    3.17
   0  -5 -12   57.64    3.08
   2   7  -6   99.57    4.88
   2   7  -6  109.92    4.74
   2  -3  11   84.40    3.84
   2  -3  11   77.85    3.24
  -2   3 -11   84.59    4.19
   2  -3  11   83.58    4.24
   3   9  -1   33.17    2.56
   3   9  -1   35.97    2.09
  -3  -9   1   36.65    2.42
   3   9  -1   34.06    2.63
   1   2 -11   36.41    2.46
  -1  -2  11   31.08    1.41
   1   2 -11   37.58    2.48
  -1  -2  11   33.18    2.33
   1   2 -11   35.74    2.20
  -1  -2  11   40.74    2.49
   4   1  12   86.59    4.25
  -4  -1 -12   71.66    3.92
   4   1  12   77.87    3.87
   4   1  12   86.01    3.86
  -4  -1 -12   80.39    4.10
   4   1  12   79.16    4.09
  -4  -1 -12   82.71    3.85
  -1   8   9  148.20    6.30
   1  -8  -9  158.84    6.16
   1  -8  -9  159.00    6.13
  -1   8   9  153.38    6.12
   1  -8  -9  153.04    5.58
   3   7  -5  197.17    7.68
   3   7  -5  182.18    7.76
   3   7  -5  195.72    7.22
  -3  -7   5  189.66    6.72
  -4   8   0    5.48    1.56
  -4   8   0    5.05    1.48
   4  -8   0    6.41    1.04
   4  -8   0    3.89    1.45
  -4   8   0    4.11    0.65
   4  -3  10    6.20    1.38
  -4   3 -10    4.68    1.41
   4  -3  10    4.83    1.29
   6   6   0   27.96    2.35
   6   6   0   27.32    2.39
   6   6   0   26.49    2.23
   6   6   0   29.25    1.63
   5   3  -6   52.02    2.02
   5   3  -6   44.20    3.59
  -5  -3   6   53.01    2.71
  -5  -3   6   53.04    3.68
  -5  -3   6   48.79    2.60
  -4  -4 -12   98.09    4.56
   4   4  12   99.49    4.77
  -4  -4 -12   99.85    4.51
   4   4  12  102.60    4.20
   4   4  12   96.73    4.82
   4   4  12  100.19    4.76
  -4  -4 -12  100.66    4.74
  -1 -10  -6    0.71    0.96
   1  10   6    1.84    1.19
  -1 -10  -6    1.81    1.36
  -1 -10  -6    3.28    1.35
  -1  10   2   44.63    2.64
   1 -10  -2   45.50    2.76
   1 -10  -2   45.81    2.77
  -3   7  -6    0.57    0.70
   3  -7   6    1.21    1.11
  -3   7  -6    0.21    1.03
  -7  -2  -7   18.36    1.60
   7   2   7   17.78    1.56
   7   2   7   16.94    1.71
  -7  -2  -7   15.69    1.63
   7   2   7   16.66    1.45
   7   2   7   19.51    2.25
  -7   1   1   79.41    4.28
   7  -1  -1   77.33    4.64
   7  -1  -1   82.46    4.16
   7  -1  -1   81.26    3.60
   7  -1  -1   79.50    2.95
  -7  -3   0  214.83    8.31
   7   3   0  206.91    7.55
   7   3   0  208.78    6.89
   7   3   0  213.08    7.85
   7   3   0  209.96    8.50
   7   3   0  207.69    6.92
   7   3   0  213.95    8.00
   0  10   0   61.32    3.35
   0 -10   0   70.64    3.57
   0 -10   0   62.88    3.11
   3   7  11   14.71    1.47
   3   7  11   12.65    1.32
  -3  -7 -11   14.63    1.53
   3   7  11   12.51    1.75
  -1  10   3   52.60    2.87
   1 -10  -3   56.54    3.10
   1 -10  -3   53.86    3.00
  -6   2  -8    0.26    1.28
   6  -2   8    1.36    1.55
   6  -2   8   -1.11    1.30
  -6   2  -8    1.09    0.77
   6  -2   8    2.50    1.43
  -6   2  -8    1.12    1.36
  -6   2  -8   -0.24    1.14
   4   6  -5    2.41    1.64
  -4  -6   5    2.24    1.60
  -4  -6   5    2.75    1.00
   4   6  -5    3.14    1.19
   4   6  -5    2.81    0.58
   4   6  -5    1.80    0.72
  -1   3  12   41.62    2.64
   1  -3 -12   51.35    2.86
   1  -3 -12   43.36    2.72
   1  -3 -12   43.70    2.75
  -2   6  10   26.34    2.27
   2  -6 -10   26.54    2.02
   2  -6 -10   25.33    2.25
  -2   6  10   31.86    2.41
  -2   6  10   27.30    2.16
   2  -6 -10   29.04    2.16
  -7   2  -4    0.69    0.93
   7  -2   4    2.33    1.57
   7  -2   4    1.77    1.12
  -7   2  -4    0.53    1.52
  -7   2  -4    2.23    1.12
   5   6  10   22.71    2.30
  -5  -6 -10   23.68    2.18
   5   6  10   25.74    2.07
   5   6  10   22.96    2.11
  -5  -6 -10   25.88    2.05
   5   6  10   21.03    2.13
   5   6  10   24.07    1.44
  -5  -6 -10   23.16    2.15
  -2  -6 -12   18.34    1.84
   2   6  12   18.25    1.90
   2   6  12   16.72    1.77
  -2  -6 -12   16.13    1.59
   2   6  12   15.84    1.70
  -2  -6 -12   18.36    2.16
   2   6  12   20.20    2.06
  -7   2   0  116.71    4.10
   7  -2   0  116.86    4.83
  -7   2   0  106.57    3.88
  -7   2   0  129.65    5.64
   7  -2   0  124.81    5.99
   7  -2   0  116.13    5.35
  -2   8  -5   58.94    2.87
  -2   8  -5   58.66    2.83
   2  -8   5   55.87    2.95
   5  -6  -4   76.38    4.04
  -5   6   4   68.14    2.97
   5  -6  -4   75.06    3.70
  -5   6   4   58.42    3.69
   5  -6  -4   65.92    2.51
   4  -5   8   15.75    1.65
  -4   5  -8   14.02    1.71
  -4   5  -8   14.50    0.89
  -4   5  -8   16.36    1.79
   4  -5   8   13.12    1.74
   4  -5   8   14.33    1.95
  -6   0   5    0.88    1.26
  -6   0   5    2.75    1.07
   6   0  -5    2.92    1.25
   1  10   0   39.00    2.68
  -2   4  11   32.69    2.27
  -2   4  11   35.86    2.77
   2  -4 -11   26.40    2.26
  -2   4  11   33.29    2.01
   2  -4 -11   33.62    2.30
   2  -4 -11   38.74    2.36
   2  -4 -11   31.03    2.68
   3  -8  -6   17.19    1.85
   3  -8  -6   16.14    1.66
  -3   8   6   19.10    1.98
   3  -8  -6   17.04    1.49
  -5  -1   7    1.60    1.14
   5   1  -7    3.30    1.13
   5   1  -7    0.83    0.42
  -5  -1   7    1.45    1.11
  -4   8   2   86.91    4.37
   4  -8  -2   81.31    4.03
  -4   8   2   89.82    4.04
  -4   8   2   80.55    3.01
   4   8   9   24.19    1.45
   4   8   9   25.21    2.25
  -4  -8  -9   27.57    2.24
  -4  -8  -9   27.44    2.29
   4   8   9   28.26    1.53
  -4  -8  -9   26.33    1.76
   6  -1  -5   24.29    1.92
  -6   1   5   21.17    2.14
  -6   1   5   22.81    2.01
  -7  -1  -7   99.73    4.28
  -7  -1  -7  104.13    4.11
   7   1   7   97.61    4.45
  -7  -1  -7   97.40    5.05
   7   1   7  104.54    5.00
   6   4  -3   10.53    0.96
  -6  -4   3   11.35    1.19
  -6  -4   3   14.84    1.64
  -6  -4   3   13.92    2.32
   6   4  -3   12.04    1.50
   6  -5  -1   92.61    4.92
   6  -5  -1   88.49    4.21
   4  -1  -9    1.15    1.20
  -4   1   9    1.59    0.79
  -4   1   9    1.75    1.21
  -4   1   9    0.38    1.12
   4  -1  -9    1.57    0.88
   4  -1  -9   -0.21    1.58
  -4   1   9    0.96    1.79
  -1   1  12    5.41    1.28
   1  -1 -12    4.23    1.27
   1  -1 -12    7.30    1.47
  -4  -4   7   50.94    2.13
   4   4  -7   50.60    2.39
  -4  -4   7   51.60    3.55
  -4  -4   7   45.41    2.59
   4   4  -7   51.79    2.47
   4   4  -7   48.17    3.63
  -1  -5   9  112.55    4.82
   1   5  -9  111.35    4.60
  -1  -5   9  118.63    5.84
   1   5  -9  109.71    4.70
   6   7   4   15.51    1.85
   6   7   4   10.16    1.73
   6   7   4   14.03    1.82
   6   7   4   14.09    1.49
   6   7   4   13.57    1.81
  -2 -10  -1   94.06    3.53
  -2 -10  -1   98.87    4.45
  -2 -10  -1   81.84    2.80
   2  10   1   95.79    4.63
   7   2  -1   53.96    2.43
   7   2  -1   49.92    2.68
   7   2  -1   47.98    2.99
  -7  -2   1   54.32    3.33
   7   2  -1   50.13    3.53
   1   6  -8    1.15    1.17
  -1  -6   8    3.19    1.94
  -6   3  -7    5.34    1.61
  -6   3  -7    4.22    0.74
  -6   3  -7    2.54    1.17
  -6   3  -7    5.64    1.39
   6  -3   7    4.82    1.50
   6  -3   7    2.75    1.51
   7   4   6   88.08    4.00
   7   4   6   88.97    3.73
   7   4   6   88.48    3.67
  -7  -4  -6   87.24    3.97
  -7  -4  -6   84.39    3.71
   7   4   6   87.55    3.86
   7   4   6   87.63    4.56
   7   4   6   81.28    2.92
  -4   2   9    1.93    1.29
   4  -2  -9   -0.20    1.63
   4  -2  -9    0.94    1.26
  -4   2   9    1.12    1.77
  -4   2   9    0.92    1.13
  -4   2   9    0.07    0.80
   3   8  10  119.38    5.23
   3   8  10  118.58    4.21
   3   8  10  130.24    4.74
  -3  -8 -10  127.92    5.46
  -3  -8 -10  127.08    4.72
  -3  -8 -10  124.39    4.90
   3   8  10  121.43    5.52
  -1  10   1   92.18    4.47
   1 -10  -1   88.27    4.07
   1 -10  -1   87.58    4.04
  -1  10   1   86.44    4.05
  -1   6  11    2.86    1.14
  -1   6  11    0.81    1.24
  -1   6  11    1.58    1.25
  -1   6  11    3.55    1.35
   1  -6 -11    3.35    1.35
   1  -6 -11    2.96    1.15
   5   7   9   55.53    3.20
   5   7   9   51.44    3.24
   5   7   9   46.55    3.38
   5   7   9   59.90    3.27
  -5  -7  -9   61.89    3.33
   5   7   9   54.47    2.17
  -5  -7  -9   57.46    3.36
  -2 -10  -6   62.80    3.51
   2  10   6   60.81    3.59
   2  10   6   61.04    3.45
  -2 -10  -6   58.16    2.75
  -2 -10  -6   65.88    3.62
   6   5   9    2.12    1.01
   6   5   9    0.93    1.18
  -6  -5  -9    0.45    1.13
  -6  -5  -9    2.05    1.25
  -6  -5  -9    2.71    1.21
   6   5   9   -0.14    1.28
   6   5   9    1.56    0.65
   6   5   9    1.76    1.13
  -4   8  -1    8.96    1.66
   4  -8   1    8.13    1.07
  -4   8  -1    7.63    0.83
  -4   8  -1    8.31    1.66
  -5   3  -9    0.83    1.26
   5  -3   9    0.97    1.31
  -5   3  -9    0.13    1.21
  -5   3  -9    0.08    0.85
   5  -3   9   -0.75    1.30
  -5   3  -9   -0.52    1.18
   5  -3   9    1.28    1.42
   1   6  12   74.71    3.76
  -1  -6 -12   80.73    4.11
   1   6  12   69.59    3.86
  -1  -6 -12   74.98    3.61
  -1  -6 -12   76.46    3.71
  -1  -6 -12   80.07    3.93
   1   6  12   77.20    3.70
   5   8   1  124.03    5.02
   5   8   1  129.54    5.26
   5   8   1  120.40    5.46
   5   8   1  127.08    5.64
   5   8   1  121.29    5.52
   6   7   5   51.37    2.96
   6   7   5   47.64    2.68
   6   7   5   46.13    3.11
   6   7   5   47.46    3.02
  -3   9   1   90.38    4.33
   3  -9  -1   86.32    4.25
   3  -9  -1   92.31    3.91
  -3   9   1   82.50    3.51
  -3   9   1   88.71    4.29
   0   1 -12   44.65    2.88
   0   1 -12   54.03    3.05
   0   1 -12   50.52    2.77
   0  -1  12   44.09    2.20
   0  -1  12   42.17    2.80
   0  -1  12   46.89    3.59
   0  -1  12   49.80    2.95
  -7  -3  -7   24.11    1.91
  -7  -3  -7   24.10    1.90
   7   3   7   21.21    1.77
   7   3   7   22.21    1.71
   7   3   7   23.67    1.89
  -3   8  -4   35.02    2.72
  -3   8  -4   36.36    2.43
   5  -3  -7  162.20    6.32
  -5   3   7  146.49    6.14
  -5   3   7  156.88    5.34
  -5   3   7  154.69    6.44
  -6   5  -3    1.84    1.50
   6  -5   3    1.80    1.25
   6  -5   3    2.44    1.48
   5   8   7    3.50    1.55
   5   8   7    6.05    1.14
   5   8   7    4.74    1.41
  -5  -8  -7    4.98    1.50
  -5  -8  -7    3.73    1.45
   5   8   7    3.63    1.39
   6   7   3   -0.28    1.34
   6   7   3    0.64    0.94
   6   7   3    1.89    1.40
   6   7   3   -1.29    1.42
  -2   8   8   94.23    4.37
   2  -8  -8   91.97    4.20
  -2   8   8   89.08    4.40
   2  -8  -8   88.75    3.92
   2  -8  -8   93.52    4.10
  -3   9   2  134.17    5.00
  -3   9   2  141.78    5.79
   3  -9  -2  141.27    5.46
   3  -9  -2  141.53    5.85
  -3   9   2  141.13    6.01
   0   3 -11    0.51    1.22
   0  -3  11   -0.38    1.05
   0  -3  11   -0.14    1.14
   0   3 -11    1.07    1.31
  -4   6   7   36.55    2.81
   4  -6  -7   45.11    2.31
  -4   6   7   41.12    2.43
   3  -1  12   98.61    4.40
   3  -1  12   97.91    4.27
  -3   1 -12   94.66    4.48
   3  -1  12   95.81    4.36
   3  -4  10   30.87    2.62
   3  -4  10   33.21    2.31
   3  -4  10   28.03    1.84
   1 -10  -4    5.99    1.36
   1 -10  -4    7.95    1.39
  -1  10   4    6.44    1.25
  -6  -5   2    0.75    0.63
   6   5  -2    0.13    1.11
   6   5  -2    0.79    0.44
  -6  -5   2    0.18    1.70
   6   5  -2    1.36    1.38
   6   5  -2    0.86    1.14
   3  -5   9    2.15    1.19
  -3   5  -9    1.06    0.98
   3  -5   9    0.16    1.36
   3  -5   9    1.31    0.88
  -3   5  -9   -0.07    0.78
   3   3  -9    3.64    1.21
   3   3  -9    5.06    1.14
  -3  -3   9    4.43    1.18
  -3  -3   9    3.57    0.52
   7   4   1   18.35    0.89
  -7  -4  -1   18.68    2.06
   7   4   1   22.56    2.26
   7   4   1   23.21    1.96
   7   4   1   21.43    2.04
   7   4   1   21.01    1.07
   7   4   1   24.51    2.64
   7   4   1   20.56    1.49
   4   9   1   13.43    1.59
  -4  -9  -1   12.17    1.59
   4   9   1   12.03    1.62
   6   2  10   36.32    2.86
  -6  -2 -10   35.11    2.47
  -6  -2 -10   31.86    1.88
  -6  -2 -10   33.75    2.30
   6   2  10   36.03    2.44
   6   2  10   37.93    2.57
   2   2  13   17.63    1.84
  -2  -2 -13   13.05    1.88
  -2  -2 -13   14.41    1.80
   2   2  13   12.86    1.80
  -2  -2 -13   15.63    1.82
   2   2  13   13.49    2.16
   2   3  13   51.18    3.21
  -2  -3 -13   53.10    3.06
   2   3  13   48.70    3.33
   2   3  13   47.57    2.81
  -2  -3 -13   48.74    2.92
  -2  -3 -13   42.73    3.03
  -6  -6  -8   80.59    4.06
  -6  -6  -8   86.66    4.03
   6   6   8   73.88    4.18
   6   6   8   80.56    3.81
   6   6   8   82.26    3.20
   6   6   8   79.42    3.81
   6   6   8   78.89    3.88
   6   6   8   70.08    2.45
  -2   9   6    1.41    0.91
   2  -9  -6    0.81    1.04
   2  -9  -6    1.60    1.25
   0  -8 -10   29.62    2.15
   0   8  10   27.01    2.18
   0   8  10   28.96    2.49
   0  -8 -10   32.78    2.39
   5  -4   8    0.62    1.40
   5  -4   8    0.70    1.21
  -5   4  -8    1.26    1.30
  -5   4  -8    3.01    0.88
   5  -4   8    0.73    1.24
  -5   4  -8    2.53    1.29
  -3   4  10   15.50    1.91
   3  -4 -10   16.81    2.21
  -3   4  10   16.03    2.14
  -3   4  10   17.13    1.61
  -3   4  10   18.87    1.28
   3  -4 -10   18.76    1.68
   0  -7 -11   81.56    3.97
   0   7  11   81.40    3.54
   0   7  11   79.16    3.87
   0   7  11   78.86    4.12
   0  -7 -11   80.11    3.79
   1   9   9    4.20    1.42
   1   9   9    6.85    1.35
  -1  -9  -9    6.80    1.47
   1   9   9    4.71    1.26
  -1  -9  -9    3.59    1.20
   6   3  -4   12.58    1.31
   6   3  -4   10.46    1.48
  -6  -3   4   13.32    2.21
  -6  -3   4   10.31    1.30
  -6  -3   4   12.13    1.56
   2   9   9   72.97    3.41
  -2  -9  -9   75.84    3.97
  -2  -9  -9   76.78    3.34
  -2  -9  -9   75.49    3.30
   2   9   9   79.77    3.89
   7  -1   6   11.65    1.91
  -7   1  -6   11.05    1.63
  -7   1  -6    8.90    1.92
   7  -1   6    8.52    1.67
  -7   1  -6    9.29    1.37
  -7   1  -6   11.03    0.99
  -5   0 -11  101.63    4.83
   5   0  11  106.68    5.00
   5   0  11  109.70    4.85
  -5   0 -11  105.84    4.48
  -5   0 -11  107.96    4.90
   4   8  -2    3.15    1.63
   4   8  -2    0.80    1.52
  -4  -8   2    3.84    1.48
  -4  -8   2    2.40    0.73
   4   8  -2    4.46    1.02
   6  -1   9   26.18    2.24
  -6   1  -9   23.08    2.12
  -6   1  -9   27.45    1.77
  -6   1  -9   26.10    2.45
  -6   1  -9   22.18    2.11
   6  -1   9   27.40    2.44
   4   0  -9   37.78    2.03
  -4   0   9   39.50    3.25
   4   0  -9   42.60    3.40
  -4   0   9   38.73    2.44
   4   0  -9   44.87    2.62
  -4   0   9   46.74    2.69
  -6  -3 -10    2.44    1.17
  -6  -3 -10    0.79    1.26
   6   3  10    0.15    0.80
   6   3  10   -0.13    1.28
  -6  -3 -10    1.31    1.00
   6   3  10    2.91    1.46
   6   3  10    2.58    1.16
   6   1  -5   10.30    1.40
  -6  -1   5    8.96    1.38
  -6  -1   5   10.06    1.55
  -2   7  -7   78.86    3.25
   2  -7   7   75.60    3.60
  -2   7  -7   73.45    3.40
   0 -10  -6   51.97    2.84
   0 -10  -6   52.85    3.12
   0 -10  -6   54.67    3.12
   0  10   6   57.84    3.17
  -5   7   0    8.76    1.63
   5  -7   0    9.37    1.03
   5  -7   0   10.30    1.72
  -5   7   0   10.01    1.79
  -3   9   0   95.61    4.54
  -3   9   0   94.38    3.86
   3  -9   0   93.32    3.96
  -3   9   0  100.67    4.62
   4  -5  -8  148.14    5.90
  -4   5   8  153.07    5.81
   4  -5  -8  142.46    5.35
  -4   5   8  154.86    6.32
  -4   5   8  157.54    6.53
   1   2  13   83.44    4.14
   1   2  13   81.33    3.97
  -1  -2 -13   84.52    4.26
   1   2  13   85.71    4.60
  -6   2   5   37.44    2.51
   6  -2  -5   36.00    2.44
   6  -2  -5   37.54    3.02
  -6   2   5   38.28    2.80
  -3  -1  10   33.59    1.92
  -3  -1  10   35.47    2.43
   3   1 -10   38.02    2.24
   3   1 -10   42.34    3.38
   3   1 -10   38.84    2.38
  -3  -1  10   43.22    3.28
  -3  -1  10   38.31    2.04
   3   1 -10   36.47    1.91
   4   9   7   69.02    3.78
  -4  -9  -7   72.52    3.80
  -4  -9  -7   68.77    2.64
  -4  -9  -7   60.86    2.40
  -1  -3 -13   65.19    3.48
   1   3  13   57.30    3.39
   1   3  13   60.26    3.69
   1   3  13   60.09    3.24
  -1  -3 -13   65.99    3.62
   4  -8  -3  116.31    5.22
   4  -8  -3  118.61    5.16
  -4   8   3  119.68    5.05
  -4   8   3  123.28    5.61
  -2  -3  10  128.50    5.31
   2   3 -10  139.98    5.54
   2   3 -10  141.61    5.50
  -2  -3  10  143.37    5.57
   5  -7  -1   16.25    1.98
  -5   7   1   18.26    1.82
  -5   7   1   18.27    2.16
  -1   4  12   63.17    3.44
   1  -4 -12   65.42    3.38
   1  -4 -12   66.43    3.45
  -1   4  12   66.30    3.18
   1  -4 -12   66.17    3.48
  -1   4  12   71.60    3.64
   3  -9  -3  112.29    5.01
  -3   9   3  124.79    5.20
   3  -9  -3  113.11    4.69
  -3   9   3  110.56    4.40
   3  -9  -3  116.24    4.88
  -3   9   3  130.02    5.56
  -7   0  -7   89.83    3.97
  -7   0  -7   98.01    4.77
  -7   0  -7   87.17    4.13
  -7   0  -7   84.52    3.53
   7   0   7   84.18    4.44
   3  10   4   63.12    3.66
  -3 -10  -4   67.80    2.73
  -5   7  -1   14.05    1.80
  -5   7  -1   15.60    1.95
   5  -7   1   17.78    2.05
   5  -7   1   15.61    1.17
  -3  -6 -12   50.90    3.07
   3   6  12   49.80    3.13
  -3  -6 -12   46.56    2.79
   3   6  12   48.03    2.69
   3   6  12   52.90    2.89
   6   7   6    8.82    1.72
   6   7   6    8.24    1.83
   6   7   6    4.48    1.25
  -6  -7  -6    4.21    1.44
  -6  -7  -6    4.57    1.51
   6   7   6    7.25    1.61
   1   4 -10    1.63    1.22
  -1  -4  10    0.97    1.09
  -1  -4  10    1.67    1.30
   1   4 -10   -0.23    1.08
  -5   2 -10   12.65    1.37
   5  -2  10   13.12    2.07
  -5   2 -10   13.50    1.77
   5  -2  10    9.72    1.70
  -5   2 -10    7.91    1.59
  -4   2 -11   42.30    2.99
  -4   2 -11   50.38    2.77
   4  -2  11   47.87    2.88
   4  -2  11   43.96    2.71
  -6  -1 -10  122.77    5.24
   6   1  10  126.33    5.35
   6   1  10  125.33    5.27
  -6  -1 -10  119.06    4.86
   6   1  10  120.17    5.67
  -6  -1 -10  118.05    4.32
  -6  -1 -10  118.99    5.25
  -4   3   9  112.76    5.11
   4  -3  -9  108.78    4.83
  -4   3   9  111.70    4.41
  -4   3   9  124.42    5.69
   4  -3  -9  116.32    5.69
  -4   3   9  112.58    5.01
   5   5  11   79.04    4.36
  -5  -5 -11   81.10    3.84
  -5  -5 -11   78.13    4.07
   5   5  11   76.68    3.83
   5   5  11   84.56    3.40
  -5  -5 -11   85.36    4.12
   5   5  11   81.08    4.15
  -1  10   0   37.97    2.48
   1 -10   0   42.81    2.42
  -1  10   0   34.57    2.71
   1 -10   0   36.35    2.51
   4   0  12  129.36    5.74
   4   0  12  134.88    5.64
  -4   0 -12  138.23    5.94
  -4   0 -12  139.06    5.95
   4   0  12  134.37    5.42
  -4   0 -12  140.50    5.60
   1   7  -7    4.17    1.35
  -1  -7   7    2.52    1.94
   1   7  -7    6.35    1.63
   3  10   3   70.90    3.88
  -3 -10  -3   76.77    3.99
  -3 -10  -3   69.44    2.84
   6   7   2   10.39    1.27
   6   7   2    9.80    1.77
   6   7   2    9.94    1.75
   6   7   2    9.17    1.60
  -4   7  -5    6.81    1.47
  -7   0   2    4.07    1.45
   7   0  -2    4.19    1.12
   7   0  -2    3.63    1.52
   7   0  -2    3.75    0.91
  -7   2  -5    4.86    1.66
   7  -2   5    5.42    1.40
   7  -2   5    4.57    1.64
  -7   2  -5    6.19    1.28
  -7   2  -5    4.03    1.28
  -3   7   8   22.54    1.98
   3  -7  -8   17.45    1.63
   3  -7  -8   17.64    1.83
  -3   7   8   18.02    2.12
  -7   2   1   32.67    1.36
  -7   2   1   37.53    2.90
   7  -2  -1   35.77    2.40
   7  -2  -1   38.43    2.77
   7  -2  -1   36.65    3.32
   2   1 -11    8.21    1.44
  -2  -1  11    8.10    1.44
   2   1 -11    9.35    1.48
   2   1 -11    9.82    1.25
   2   1 -11    8.90    2.06
  -2  -1  11    9.94    1.05
  -2  -1  11    8.49    1.30
   6  -5  -2   52.48    3.59
   6  -5  -2   55.36    3.16
   3  -6  -9   86.12    4.16
   3  -6  -9   89.35    3.87
  -3   6   9   88.45    4.08
   3  -6  -9   86.88    4.48
   7   5   4   32.05    1.80
   7   5   4   30.66    2.33
   7   5   4   33.42    2.35
   7   5   4   25.01    2.54
   7   5   4   30.95    1.80
   7   5   4   31.16    2.11
   7   5   4   36.15    2.78
  -1   0  12   57.16    3.04
   1   0 -12   57.29    3.14
   1   0 -12   62.94    3.01
   1   0 -12   54.32    3.10
  -1   0  12   55.39    3.15
  -1   0  12   53.76    2.99
  -2  -1 -13    1.04    1.28
   2   1  13   -0.25    1.12
  -2  -1 -13    0.14    1.43
  -2  -1 -13   -0.51    1.30
   2   1  13    0.54    1.78
   2   1  13    0.58    1.33
   2   1  13   -0.12    1.20
  -2  -4 -13   89.71    4.26
   2   4  13   91.90    4.59
   2   4  13   92.75    4.20
   2   4  13   88.62    4.34
   2   4  13   94.33    4.63
  -2  -4 -13   91.80    4.53
  -4  -5 -12  106.02    4.91
  -4  -5 -12   94.29    4.45
  -4  -5 -12  107.35    4.78
   4   5  12   97.71    4.88
   4   5  12   93.05    4.68
   4   5  12   99.12    4.11
   4   5  12  101.86    4.84
   4   7  -4    0.98    1.47
   4   7  -4    0.46    0.63
   4   7  -4    0.53    1.65
   4   7  -4    1.20    1.22
  -4  -7   4    0.98    1.50
  -4  -7   4    1.03    0.86
   5  -6   5   57.62    3.39
  -5   6  -5   59.46    3.43
  -6   4  -6    6.86    1.74
   6  -4   6    3.52    1.50
   6  -4   6    5.49    1.51
  -6   4  -6    3.60    0.61
  -6   4  -6    5.25    1.40
   3  10   5   46.96    3.16
  -3 -10  -5   50.07    1.92
  -3 -10  -5   50.03    2.20
   3  10   5   49.61    3.22
  -4   8  -2    3.04    0.77
   4  -8   2    4.55    0.90
  -4   8  -2    3.27    1.47
  -4   8  -2    4.01    1.59
   3  -3  11  129.08    5.88
   3  -3  11  131.91    5.10
  -3   3 -11  136.25    5.72
   3  -3  11  140.78    5.62
   5   7  -2  100.20    4.13
   5   7  -2   91.90    4.81
   5   7  -2  103.61    5.10
   5   7  -2   98.05    4.74
  -5  -7   2  100.79    4.88
  -5  -7   2   95.51    3.53
   7   5   3   31.73    1.77
   7   5   3   28.80    2.29
   7   5   3   34.11    2.70
   7   5   3   32.66    1.73
   7   5   3   32.08    2.68
   7   5   3   33.64    2.14
   7   5   3   35.06    2.51
  -2   9  -3   46.33    2.67
  -2   9  -3   45.47    2.69
  -2   9  -3   48.95    3.19
   0  10  -1   77.08    3.91
   0 -10   1   69.85    3.48
   7   1  -2   15.25    1.46
  -7  -1   2   11.20    1.82
   7   1  -2   15.61    1.90
   7   1  -2   12.43    1.41
  -3   6  -8    5.29    0.95
  -3   6  -8    5.13    1.15
   3  -6   8    6.31    1.33
  -3   6  -8    2.54    1.36
  -7   3  -2   12.07    1.25
   7  -3   2   12.59    1.47
   7  -3   2   11.65    1.86
   7  -3   2   11.84    0.81
   7  -3   2   11.04    1.61
  -7   3  -2   11.03    1.29
  -1  -1 -13   54.96    2.98
   1   1  13   54.35    3.74
  -1  -1 -13   48.27    3.06
   1   1  13   52.60    3.13
  -1  -1 -13   47.94    3.06
   1   1  13   52.76    3.07
   1  10   7    2.50    1.28
  -1 -10  -7    0.74    1.02
  -1 -10  -7    1.68    1.31
  -1 -10  -7    3.83    1.53
   7   5   5   16.21    1.73
   7   5   5   16.26    1.70
   7   5   5   13.18    1.62
   7   5   5   16.36    1.37
   7   5   5   16.66    2.08
   7   5   5   16.92    2.17
   7   5   5   14.15    1.42
   1 -10  -5    0.70    1.19
  -1  10   5   -0.11    0.98
   1 -10  -5    1.53    1.23
   1 -10  -5    0.23    1.11
   4  -7  -6   62.13    3.40
   4  -7  -6   58.19    2.67
  -4   7   6   69.35    3.90
  -4   7   6   57.68    3.22
   2   9  -3    6.24    1.49
   2   9  -3    7.64    0.95
   2   9  -3    6.58    1.66
   5  -5  -6   51.32    3.03
  -5   5   6   51.26    2.53
  -5   5   6   49.57    2.12
   5  -5  -6   47.18    2.22
   5  -5  -6   48.53    3.31
  -5   5   6   44.10    3.17
   0   9  -4   67.83    3.82
   0  -9   4   62.43    2.89
   0  -9   4   71.07    3.83
   0   9  -4   66.30    3.45
   0   9  -4   62.69    2.72
   2  10   0   70.95    3.96
  -2 -10   0   73.87    3.10
  -2 -10   0   61.54    2.11
   2  10   0   72.56    3.83
  -4   6  -7    5.19    1.40
   4  -6   7    3.76    1.22
  -4   6  -7    3.31    1.29
   4  -6   7    4.30    1.61
  -3  -3 -13  173.34    6.82
  -3  -3 -13  167.86    6.76
   3   3  13  179.00    7.17
   3   3  13  174.09    6.64
   3   3  13  171.09    6.99
  -6  -4 -10    8.39    1.60
   6   4  10   10.94    1.45
   6   4  10    9.64    1.65
  -6  -4 -10   12.24    1.62
  -6  -4 -10   11.09    1.44
   6   4  10   13.32    1.23
   6   4  10    8.93    1.96
   6   4  10   14.08    1.62
   6   4  10   15.35    1.97
   4   3  -8  123.03    4.52
  -4  -3   8  119.41    4.37
   4   3  -8  113.91    6.02
   4   3  -8  119.70    4.67
  -4  -3   8  121.85    5.91
  -4  -3   8  119.58    4.95
   7   4   7  110.09    4.57
   7   4   7  114.02    4.85
   7   4   7  107.40    3.72
   7   4   7  112.13    4.49
   7   4   7  106.43    4.48
  -7  -4  -7  108.40    4.62
   7   4   7  103.02    5.30
  -7  -4  -7  103.44    4.45
  -7   3  -1   19.27    1.49
   7  -3   1   18.25    1.53
   7  -3   1   17.39    1.87
  -7   3  -1   15.99    1.29
   7  -3   1   15.81    2.45
   3   2  13   58.94    3.65
   3   2  13   57.89    3.09
   3   2  13   52.16    3.25
  -3  -2 -13   61.44    3.47
  -3  -2 -13   60.99    3.39
   5  -7  -2   53.77    3.44
  -5   7   2   54.93    2.94
   5  -7  -2   48.45    3.05
  -5   7   2   52.68    3.43
  -3   9  -1    0.94    1.31
  -3   9  -1    2.59    0.97
  -3   9  -1    1.75    1.53
   3  -9   1    2.06    1.01
  -1   9   8   97.95    4.17
   1  -9  -8   92.31    4.13
  -1   9   8   95.21    4.74
   1  -9  -8   87.13    3.30
   1  -9  -8   93.41    4.18
   1   4  13    5.20    1.45
   1   4  13    5.47    1.39
  -1  -4 -13    3.25    1.48
  -1  -4 -13    3.42    1.45
  -1  -4 -13    6.01    1.49
   1   4  13    4.66    1.31
   7  -1  -2   28.15    2.91
   7  -1  -2   32.05    1.69
  -7   1   2   34.57    2.81
   7  -1  -2   36.12    2.26
   7  -1  -2   35.09    2.62
   6  -5   4    0.57    1.31
  -6   5  -4    0.85    1.24
  -6   5  -4    2.52    1.58
   6  -5   4   -0.78    1.39
   1  -2  12   18.61    1.35
   1  -2  12   18.50    2.11
   1  -2  12   17.13    2.41
  -1   2 -12   15.49    1.94
  -1   2 -12   19.62    2.01
  -1   2 -12   17.31    1.79
   7   3  -1  220.87    8.14
   7   3  -1  223.53    8.14
   7   3  -1  209.18    7.76
   7   3  -1  210.98    6.93
   7   3  -1  221.11    8.77
  -7  -3   1  219.27    8.41
   7   3  -1  216.86    7.16
   1  10  -1   68.94    3.72
  -1 -10   1   68.19    2.69
   1  10  -1   73.00    3.93
   1  10  -1   72.35    3.83
   2   8  -5   89.24    4.23
   2   8  -5   80.63    4.26
  -5  -2   7   72.96    3.43
   5   2  -7   69.08    2.63
  -5  -2   7   71.08    3.44
  -5  -2   7   64.98    4.30
   5   2  -7   79.77    3.45
   5  -5   7   10.38    1.63
  -5   5  -7    9.51    1.65
  -5   5  -7   12.06    1.69
   5  -5   7   10.81    1.79
  -3 -10  -2   44.45    2.24
  -3 -10  -2   48.53    3.11
   3  10   2   47.11    3.10
  -3 -10  -2   44.01    2.11
  -5   7  -2    1.10    1.48
   5  -7   2    1.07    0.55
   0  -8   6  116.76    4.51
   0  -8   6  116.03    5.51
   0   8  -6  116.40    4.66
   0   8  -6  120.46    5.03
  -2   2 -12    4.77    1.66
  -2   2 -12    7.82    1.59
   2  -2  12    4.08    1.72
  -2   2 -12    6.64    1.53
   2  -2  12    3.86    1.26
   2  -2  12    5.91    1.50
   2  -2  12    3.84    1.39
   2  -2  12    7.11    1.15
  -2 -10  -7   56.00    3.31
   2  10   7   55.49    3.26
  -2 -10  -7   44.40    3.17
   2  10   7   58.32    3.55
  -2 -10  -7   53.78    2.56
   6  -4  -4   50.00    1.98
  -6   4   4   53.18    2.34
  -6   4   4   48.79    3.30
   6  -4  -4   55.51    3.09
   6  -4  -4   53.89    3.60
   6   6  -1   61.73    3.68
  -6  -6   1   57.91    2.19
   6   6  -1   67.75    3.65
   6   6  -1   63.37    2.65
   6   6  -1   62.43    3.29
   7  -3   3    0.84    1.17
   7  -3   3   -0.16    1.40
  -7   3  -3   -0.73    1.53
   7  -3   3   -0.35    1.34
  -7   3  -3    0.10    0.99
  -7   3  -3   -0.67    0.96
  -1   8  -6   11.24    1.62
   1  -8   6   13.00    2.11
  -1   8  -6   11.19    1.88
  -1   8  -6   12.47    1.09
   1  -8   6   12.10    1.52
   3   8  -4   14.46    1.76
   3   8  -4   16.96    2.06
  -3  -8   4   15.97    1.42
   2  -5 -11   -0.63    1.19
  -2   5  11    1.53    1.43
  -2   5  11    0.61    0.91
  -2   5  11   -0.44    1.50
  -2   5  11   -0.37    1.06
   2  -5 -11    0.61    1.38
   2  -5 -11   -0.23    1.04
   7   2   8   95.55    4.35
   7   2   8   98.85    4.21
  -7  -2  -8   98.97    4.19
  -7  -2  -8   96.72    4.28
   7   2   8   97.80    4.97
   4   1  -9   82.64    3.78
   4   1  -9   79.33    4.72
  -4  -1   9   76.66    4.57
  -4  -1   9   77.18    3.50
  -4  -1   9   85.09    3.91
   4   1  -9   76.36    3.23
   0   9   9  103.53    4.67
   0   9   9  115.64    4.72
   0  -9  -9   98.70    4.33
   0  -9  -9  106.47    4.70
   0   9   9  102.58    5.09
  -7  -4   0   43.97    2.97
   7   4   0   45.98    2.96
   7   4   0   41.27    2.80
   7   4   0   45.53    2.72
   7   4   0   43.52    1.85
   7   4   0   48.34    3.44
   7   4   0   40.78    2.08
  -5  -8   0   80.11    2.72
   5   8   0   91.76    4.63
   5   8   0   86.39    4.46
  -5  -8   0   87.78    4.21
   5   8   0   85.80    4.40
   5   8   0   88.66    4.07
  -3  -9  -9   81.69    4.11
  -3  -9  -9   79.13    3.24
  -3  -9  -9   73.19    4.05
  -3  -9  -9   80.78    3.39
   3   9   9   80.16    4.30
   3   9   9   81.97    4.12
   3  -9  -4   95.49    4.15
   3  -9  -4   88.43    4.32
  -3   9   4   88.42    3.55
   1  -9   4   53.96    3.34
   1  -9   4   53.30    2.76
  -1   9  -4   55.86    2.70
  -1   9  -4   56.66    3.06
   0   6  12  105.65    4.90
   0   6  12  110.26    4.71
   0   6  12   99.65    4.56
   0   6  12  101.38    4.48
   0  -6 -12  106.21    4.75
   0  -6 -12  105.06    4.58
   7   5   2   58.22    3.28
   7   5   2   63.70    3.49
   7   5   2   63.00    2.50
   7   5   2   59.86    2.92
   7   5   2   61.23    3.57
   7   5   2   62.31    3.76
   6   2  -5   11.85    1.38
  -6  -2   5   11.78    2.30
  -6  -2   5   12.34    1.68
  -6  -2   5   13.12    1.53
  -5  -8  -8    1.73    1.43
  -5  -8  -8    0.90    1.34
   5   8   8    0.25    0.92
   5   8   8   -0.14    1.42
   5   8   8    2.23    1.36
   5   8   8   -0.17    1.52
   3   9  -2   61.08    2.81
   3   9  -2   65.16    3.50
   3   9  -2   61.66    3.66
  -3  -9   2   65.40    3.51
   3   9  -2   66.61    3.75
   4   9   0    0.25    1.23
  -4  -9   0   -0.36    1.26
  -4  -9   0    1.81    0.61
   4   9   0    1.60    1.53
   4   9   0    0.42    1.06
   3  10   6    0.47    1.40
  -3 -10  -6    0.64    0.63
  -3 -10  -6   -0.76    1.46
   3  10   6    1.07    1.35
  -3 -10  -6    0.34    0.72
  -7   3   0   38.08    1.97
   7  -3   0   39.65    3.25
  -7   3   0   33.72    2.87
  -7   3   0   37.84    1.85
   7  -3   0   33.55    2.33
   6   7   7   42.52    2.72
   6   7   7   44.67    2.78
  -6  -7  -7   46.57    3.05
   6   7   7   44.80    2.84
   6   7   7   40.04    3.01
  -6  -7  -7   48.33    3.04
  -3  -4 -13  237.49    8.69
   3   4  13  228.98    8.56
   3   4  13  227.77    8.61
   3   4  13  219.39    8.07
  -3  -4 -13  227.55    8.54
  -4   8   4   58.20    3.11
  -4   8   4   57.15    3.62
   4  -8  -4   58.20    3.31
   4  -8  -4   57.70    3.36
   5  -6  -5   22.95    2.30
  -5   6   5   23.78    1.63
  -5   6   5   26.91    2.55
  -5   6   5   24.85    1.86
   5  -6  -5   24.69    2.15
   5  -6  -5   22.63    1.34
   5  -4  -7   60.64    3.30
   5  -4  -7   61.04    2.72
  -5   4   7   57.96    3.37
  -5   4   7   64.19    3.62
  -5   4   7   59.06    2.65
   7   5   6    2.61    1.10
   7   5   6    2.07    1.22
   7   5   6    2.44    1.03
   7   5   6    1.72    1.72
   7   5   6    1.85    1.71
   7   5   6    4.12    1.01
   6  -3  -5   27.16    2.21
   6  -3  -5   28.29    2.71
   6  -3  -5   24.41    1.42
  -6   3   5   26.79    2.47
  -6   3   5   25.44    1.28
  -7  -1  -8    8.75    1.89
  -7  -1  -8   13.97    1.66
   7   1   8   15.61    1.80
   7   1   8   15.47    2.23
  -7  -1  -8   13.34    1.42
  -6   0 -10   55.91    3.26
   6   0  10   60.17    3.65
  -6   0 -10   67.73    3.58
   6   0  10   65.68    3.52
  -6   0 -10   54.03    2.25
  -6   0 -10   58.02    2.90
   7   3   8   10.58    1.49
   7   3   8   12.00    1.45
  -7  -3  -8   10.60    1.56
  -7  -3  -8   13.90    1.59
   7   3   8   12.17    2.00
   7   3   8   13.42    1.59
  -7  -2   2   59.97    3.52
   7   2  -2   59.62    3.89
   7   2  -2   57.29    3.30
   7   2  -2   54.07    2.61
   7   2  -2   57.92    2.95
  -3  -1 -13    2.11    1.48
   3   1  13    2.23    1.27
  -3  -1 -13    1.80    1.37
   3   1  13    2.68    1.44
   3   1  13    3.04    1.82
   3   1  13    3.56    1.37
  -3  -1 -13    2.31    1.35
  -5  -5   5   52.60    2.66
   5   5  -5   56.65    2.61
   5   5  -5   60.33    2.60
   5   5  -5   53.90    2.40
  -5  -5   5   63.18    3.96
   5   5  -5   53.96    3.89
   5   5  -5   57.01    2.41
   6   7   1   15.18    1.86
   6   7   1   13.73    1.94
   6   7   1   15.50    2.07
   6   7   1   12.25    1.26
   4   7  11    1.23    1.47
   4   7  11    0.13    1.23
   4   7  11    0.55    0.88
  -4  -7 -11    0.30    1.40
  -4  -7 -11    0.13    1.24
  -4  -7 -11    0.84    1.12
  -4  -7 -11   -0.31    1.35
   1   9  -4   20.44    2.20
   1   9  -4   22.61    1.26
   1   9  -4   19.00    2.03
  -1  -9   4   21.07    1.33
   1 -10   1  175.40    6.70
  -1  10  -1  169.22    6.57
  -1  10  -1  177.36    6.80
  -1  10  -1  178.64    7.17
   0   2  13   38.53    2.65
   0  -2 -13   39.33    2.68
   0  -2 -13   40.73    2.66
   0  -2 -13   41.85    2.77
   0   2  13   37.92    2.66
   0  10   7   75.34    4.17
   0  10   7   74.99    3.68
   0 -10  -7   71.80    3.74
   0 -10  -7   81.62    4.02
   0 -10  -7   71.97    3.50
   4   9   8   81.69    4.28
  -4  -9  -8   78.10    2.97
  -4  -9  -8   82.29    3.27
  -4  -9  -8   91.74    4.32
   1  -5  10   57.44    3.47
  -1   5 -10   61.73    3.45
   1  -5  10   57.45    3.97
   1  -5  10   64.28    3.13
  -2  -8 -11   48.75    3.10
   2   8  11   49.56    2.72
   2   8  11   46.62    2.90
  -2  -8 -11   50.66    2.66
  -2  -8 -11   50.37    2.72
   0  -3 -13    1.83    1.38
   0  -3 -13    1.03    1.21
   0   3  13    1.47    1.26
   0   3  13   -1.11    1.29
   3  -8  -7    1.03    1.04
  -3   8   7   -0.14    1.15
   3  -8  -7    0.66    1.28
  -4   4   9  100.48    5.08
  -4   4   9   96.86    4.72
   4  -4  -9  101.08    4.18
  -4   4   9   98.93    4.10
  -4   4   9  101.44    4.71
   4  -4  -9  103.12    4.64
  -7   1  -7   -0.13    1.23
  -7   1  -7    0.72    1.61
   7  -1   7    1.98    1.67
  -7   1  -7    0.95    0.77
  -7   1  -7   -0.34    1.07
  -2   0 -13   15.47    1.80
  -2   0 -13   14.94    1.90
  -2   0 -13   13.06    1.86
   2   0  13   16.79    2.46
   2   0  13   15.17    1.67
   2   0  13   16.89    1.86
   2   0  13   13.19    1.83
  -5   1 -11    3.28    1.43
  -5   1 -11    2.92    1.16
   5  -1  11    2.57    1.56
  -5   1 -11    3.18    1.40
  -3   5  10  107.43    4.66
  -3   5  10  110.89    5.28
  -3   5  10  110.71    4.20
   3  -5 -10  109.96    4.54
   3  -5 -10  106.67    5.22
  -7   3  -4    0.91    1.50
  -7   3  -4    5.05    1.19
  -7   3  -4    4.87    1.30
   7  -3   4    3.86    1.35
   7  -3   4    5.67    1.65
   2   5  13   26.04    2.27
   2   5  13   23.50    2.32
   2   5  13   24.67    2.27
  -2  -5 -13   24.57    2.32
   2   5  13   25.74    2.10
  -2  -5 -13   22.08    2.08
  -1   5  12   80.95    3.73
   1  -5 -12   83.22    3.95
  -1   5  12   87.43    4.20
  -1   5  12   79.09    4.03
  -1   5  12   83.32    4.12
   1  -5 -12   77.66    3.86
   1  -5 -12   86.74    4.17
   1  -6   9   44.89    3.07
  -1   6  -9   47.73    3.05
   1  -6   9   43.44    3.49
   1  -6   9   46.00    2.60
   6   6   9   80.19    4.09
   6   6   9   83.54    4.28
   6   6   9   92.55    3.62
   6   6   9   90.18    4.18
   6   6   9   82.46    3.00
  -6  -6  -9   88.32    4.25
  -6  -6  -9   82.01    4.09
  -6  -6  -9   89.11    4.23
   6  -5  -3  100.48    4.60
  -6   5   3  108.30    5.33
   6  -5  -3  102.85    5.27
   5  -7  -3   20.17    2.15
  -5   7   3   26.32    2.04
   5  -7  -3   26.19    2.50
  -5  -4   6   54.99    3.82
   5   4  -6   60.53    4.20
  -5  -4   6   61.00    2.93
  -5  -4   6   57.01    2.72
   5   4  -6   56.84    2.37
  -2  10   2   52.37    2.78
   2 -10  -2   57.22    3.21
  -2  10   2   56.58    3.32
   2 -10  -2   53.78    3.07
  -2   9   7    4.62    1.48
   2  -9  -7    3.25    1.18
   2  -9  -7    2.54    1.29
  -2   9   7    5.60    1.13
  -1   0 -13   20.27    2.10
   1   0  13   14.81    1.86
   1   0  13   18.85    1.91
  -1   0 -13   19.17    2.04
   1   0  13   15.13    2.43
  -1   0 -13   16.70    1.82
   1   0  13   16.52    1.59
  -7   2  -6   78.80    3.00
   7  -2   6   80.50    4.06
   7  -2   6   84.23    4.40
  -7   2  -6   96.61    4.82
  -7   2  -6   89.01    3.93
  -7   2  -6   85.34    4.03
  -3 -10  -1   95.54    3.97
   3  10   1   95.44    4.69
   3  10   1   96.76    4.76
   7  -2  -2  104.24    5.48
  -7   2   2  100.97    5.10
   7  -2  -2  100.64    4.41
   1   3 -11   17.40    1.82
   1   3 -11   20.13    2.02
  -1  -3  11   15.46    1.81
  -1  -3  11   17.67    1.89
   4   8  10    3.93    0.91
  -4  -8 -10    1.69    1.36
   4   8  10    2.79    1.52
  -4  -8 -10    1.37    1.20
  -4  -8 -10    3.93    1.13
   1   8  11    9.79    1.05
  -1  -8 -11    7.80    1.63
   1   8  11    8.52    1.69
  -1  -8 -11    9.11    1.35
   1   8  11    6.42    1.40
   5   6  -4   46.74    2.22
  -5  -6   4   43.29    3.28
   5   6  -4   40.46    1.81
   5   6  -4   41.29    2.33
   5   6  -4   40.30    3.32
  -5  -6   4   36.62    2.08
  -4   8  -3   79.25    4.07
  -4   8  -3   79.51    3.28
  -4   8  -3   87.47    4.31
   3   6  -7  206.33    7.58
   3   6  -7  197.81    7.06
   3   6  -7  213.55    7.43
   3   6  -7  216.73    8.62
  -3  -6   7  194.92    7.07
   0  -2  12   15.24    1.79
   0   2 -12   14.54    1.81
   0  -2  12    7.47    2.07
   0  -2  12   11.89    1.73
   0  -2  12   11.34    0.96
   0   2 -12   10.60    1.56
   0   2 -12   11.33    1.75
  -3   9  -2    4.40    1.66
  -3   9  -2    3.62    1.33
  -3   9  -2    3.96    1.07
  -2  -7 -12   40.16    2.56
  -2  -7 -12   44.36    2.93
  -2  -7 -12   41.45    2.46
   2   7  12   41.13    2.98
   2   7  12   44.17    2.63
   2   7  12   44.28    2.95
  -3  -5   8    8.49    1.43
   3   5  -8   10.55    2.37
   3   5  -8    5.82    1.18
   3   5  -8    8.45    1.36
  -5   7  -3    8.75    1.75
  -5  -3 -12    1.57    1.17
   5   3  12    3.22    1.51
   5   3  12    1.74    1.10
  -5  -3 -12    0.75    1.41
   5   3  12    3.35    1.66
   5   3  12    1.06    1.13
   1 -10  -6    3.54    1.26
  -1  10   6    2.96    1.11
   1 -10  -6    3.83    1.40
   1 -10  -6    3.02    1.29
  -3   8  -5    0.48    1.45
  -3   8  -5    0.11    1.08
   3   2 -10    2.16    0.88
   3   2 -10    0.64    1.78
   3   2 -10    2.91    1.24
  -3  -2  10    3.08    1.17
  -3  -2  10    2.37    0.71
   3   2 -10    1.67    1.01
  -2  10   1   38.25    2.45
  -2  10   1   48.67    3.15
   2 -10  -1   43.01    2.70
   2 -10  -1   44.94    2.84
  -2  10   1   51.80    3.09
   5   2  12   53.77    3.39
   5   2  12   47.19    2.65
   5   2  12   50.55    2.95
  -5  -2 -12   52.47    3.03
  -5  -2 -12   47.88    3.15
   5   2  12   47.91    3.18
   2 -10  -3   69.01    3.40
  -2  10   3   65.27    3.17
   2 -10  -3   56.88    3.32
   2 -10  -3   63.18    2.98
   1   8  -6   23.49    2.29
   1   8  -6   24.51    2.23
  -1  -8   6   18.39    2.53
   1   1 -12   62.93    3.28
   1   1 -12   53.60    2.88
  -1  -1  12   50.13    2.95
  -1  -1  12   58.64    3.20
   1   1 -12   57.30    3.17
  -5  -7 -10   62.62    3.61
   5   7  10   60.65    2.53
   5   7  10   64.98    3.53
   5   7  10   60.04    3.50
   5   7  10   58.49    3.60
  -5  -7 -10   64.94    3.52
  -5   1   8   62.65    3.52
  -5   1   8   69.09    4.30
   5  -1  -8   70.95    3.55
  -5   1   8   63.62    3.43
   0   1  13   91.47    4.35
   0  -1 -13   92.50    4.36
   0  -1 -13   92.90    4.46
  -6   3  -8    0.98    1.41
  -6   3  -8    0.41    1.31
   6  -3   8   -0.43    1.36
  -6   3  -8    0.26    0.72
   6  -3   8   -0.31    1.60
  -6   3  -8    1.39    1.33
   1   5  13    0.39    1.14
  -1  -5 -13    1.74    1.11
  -1  -5 -13    2.46    1.62
  -1  -5 -13   -0.13    1.28
   1   5  13    1.27    1.26
  -1  -5 -13   -0.28    1.30
   1   5  13    2.00    1.28
   2  -5  10   75.23    4.19
   2  -5  10   79.67    3.79
   2  -5  10   80.31    4.65
  -2   5 -10   75.79    3.91
  -6  -5 -10   22.74    2.21
   6   5  10   24.50    1.47
   6   5  10   22.91    2.41
  -6  -5 -10   30.84    2.20
   6   5  10   24.34    2.15
   6   5  10   25.21    2.21
  -6  -5 -10   26.12    2.25
   6   5  10   23.54    1.85
   6   5  10   21.95    2.36
   7   5   1   40.69    2.85
   7   5   1   34.37    2.93
   7   5   1   39.19    2.16
   7   5   1   35.68    2.50
   7   5   1   36.11    2.71
   6  -2   9    0.30    1.29
   6  -2   9    1.15    1.57
  -6   2  -9   -0.13    1.37
  -6   2  -9    1.79    1.51
  -6   2  -9    2.20    1.01
   6  -2   9    0.87    1.42
  -6   2  -9    0.28    1.40
   7  -3  -1   40.52    2.57
  -7   3   1   39.55    1.81
   7  -3  -1   35.10    3.24
  -7   3   1   37.06    3.02
  -7   3   1   36.16    1.73
   3  -2  12   70.16    3.99
   3  -2  12   74.56    3.68
  -3   2 -12   71.35    3.80
   3  -2  12   70.40    3.37
  -4   1 -12   43.27    2.96
   4  -1  12   47.62    2.89
  -4   1 -12   42.13    2.95
  -4   1 -12   47.13    2.72
   0  -6   9   84.45    4.93
   0   6  -9   81.68    4.03
   2   6  -8  250.75    8.75
   2   6  -8  266.01    9.12
  -2  -6   8  263.61    9.25
  -6  -4   4    1.64    1.96
   6   4  -4    0.79    1.07
  -6  -4   4    0.48    0.89
  -6  -4   4    1.94    1.08
   6   4  -4    1.48    0.65
  -2   8  -6   31.30    1.98
  -2   8  -6   31.80    2.07
   2  -8   6   35.01    2.36
  -3   7  -7    1.01    1.09
  -3   7  -7    0.56    0.77
   3  -7   7    1.39    1.22
   0  -5  10    8.94    1.50
   0  -5  10    7.13    2.18
   0   5 -10    8.24    1.58
   0  -5  10    7.16    1.63
   1  -4  11    1.17    1.21
  -1   4 -11    1.22    1.42
   1  -4  11    0.82    1.75
   1  -4  11    2.33    1.44
   7   0   8  114.21    4.99
  -7   0  -8  111.16    4.80
  -7   0  -8  109.15    4.32
  -7   0  -8  112.46    5.46
  -7   0  -8  115.38    5.04
   7   0   8  106.87    5.35
   6   5  -3    8.00    0.67
  -6  -5   3   13.35    2.30
   6   5  -3    9.17    1.95
   6   5  -3    8.16    1.08
   6   5  -3    8.25    1.39
  -6  -5   3    7.21    0.99
   6   5  -3    8.61    0.72
  -5  -6 -11   22.66    2.20
   5   6  11   25.98    2.20
   5   6  11   21.22    1.58
   5   6  11   22.88    2.36
   5   6  11   21.53    2.38
  -5  -6 -11   26.25    2.11
  -5  -6 -11   21.90    2.33
  -1  -7 -12   45.15    2.71
   1   7  12   40.33    2.74
  -1  -7 -12   44.62    2.93
   1   7  12   37.62    2.85
  -1  -7 -12   39.64    2.54
   1   7  12   38.19    2.53
   2  10  -1   52.51    3.37
   2  10  -1   54.81    3.35
   0 -10   2   70.89    3.75
   0 -10   2   70.62    3.06
   0  10  -2   71.60    3.97
   0  10  -2   69.15    3.56
   0  10  -2   69.47    3.74
  -1   8  10    2.43    1.35
   1  -8 -10    1.69    1.29
  -1   8  10    0.81    1.23
   1  -8 -10    0.88    1.13
  -5   2   8  136.69    5.77
  -5   2   8  138.38    5.90
  -5   2   8  144.12    6.67
   5  -2  -8  139.84    5.68
  -5   2   8  138.39    4.80
   7   4   8  108.13    4.94
   7   4   8  110.26    4.68
  -7  -4  -8  116.00    4.77
  -7  -4  -8  105.14    4.50
  -7  -4  -8  106.59    4.70
   7   4   8  108.34    3.87
   7   4   8  112.06    4.66
   7   4   8  114.30    4.61
   4   6  12  237.52    9.06
  -4  -6 -12  234.82    8.55
  -4  -6 -12  234.72    9.03
   4   6  12  238.76    8.25
  -4  -6 -12  241.40    8.93
   4   6  12  239.03    9.11
   6  -5   5   91.36    4.47
  -6   5  -5   88.19    3.72
  -6   5  -5   84.12    4.25
   6  -5   5   93.63    4.51
   0  -4 -13   21.93    2.03
   0  -4 -13   23.21    2.10
   0  -4 -13   20.61    2.11
   0   4  13   17.49    2.01
   0  -4 -13   22.48    2.10
   0   4  13   21.67    2.12
  -2   7  10  104.77    4.82
   2  -7 -10   94.07    4.41
   2  -7 -10  105.48    4.59
   2  -7 -10   99.64    4.35
  -2   7  10  102.90    4.73
  -3 -10  -7   23.48    1.42
   3  10   7   19.92    2.07
  -3 -10  -7   18.78    2.13
   3  10   7   18.84    2.22
  -3 -10  -7   21.05    1.41
  -2  -5   9   24.61    1.97
   2   5  -9   19.52    1.73
   2   5  -9   19.38    1.87
   5   0  -8    3.70    1.42
  -5   0   8    0.13    1.16
  -5   0   8    2.95    1.90
  -5   0   8    0.13    1.15
   7   5   7    0.10    1.08
   7   5   7    1.02    0.94
  -7  -5  -7   -0.64    1.30
   7   5   7   -0.71    1.64
   7   5   7   -0.26    1.26
   7   5   7    0.33    0.21
   7   5   7   -0.71    1.13
  -3   9   5   37.31    2.03
   3  -9  -5   36.77    2.32
   3  -9  -5   37.61    2.67
   3  -9  -5   33.25    2.08
   5   9   4   76.87    3.85
   5   9   4   75.86    3.99
  -5  -9  -4   73.23    4.03
   5   9   4   72.21    4.10
  -2   6  -9   62.91    3.13
   2  -6   9   53.14    3.52
  -2   6  -9   62.55    3.53
   2  -6   9   65.12    3.27
   2  -6   9   61.49    3.97
   1  -7 -11    1.23    1.26
  -1   7  11    0.15    1.18
  -1   7  11    0.82    1.32
  -1   7  11    0.11    1.25
   1  -7 -11    0.38    1.21
   4   8  -3    7.91    1.07
   4   8  -3    6.57    1.66
   4   8  -3    7.73    1.56
   4   8  -3    9.85    2.05
  -4  -8   3    9.28    1.13
  -4  -8   3    9.19    1.75
   2   2 -11   85.01    3.63
   2   2 -11   85.81    3.96
  -2  -2  11   82.67    3.97
  -2  -2  11   80.13    3.65
   2   2 -11   80.04    3.82
  -2  -2  11   74.39    2.81
   7   0  -3    1.39    1.46
  -7   0   3    0.17    1.41
   7   0  -3    0.09    1.04
  -3  -5 -13  189.67    7.25
   3   5  13  189.49    7.04
   3   5  13  194.22    7.40
  -3  -5 -13  187.46    7.37
   3   5  13  186.25    7.57
  -6   1   6   72.40    3.75
   6  -1  -6   77.28    3.69
  -6   1   6   84.45    4.21
   1  10   8   40.74    2.68
  -1 -10  -8   41.96    2.43
  -1 -10  -8   43.44    2.91
  -1 -10  -8   45.17    2.97
   2   9  10   43.63    2.48
   2   9  10   41.17    2.71
  -2  -9 -10   42.28    2.90
  -2  -9 -10   39.29    2.29
  -2  -9 -10   41.00    2.36
  -5  -9  -5   84.75    4.37
   5   9   5   83.68    4.15
   5   9   5   84.21    4.40
   5   9   5   86.35    4.31
   6  -6   1   11.81    0.89
   6  -6   1   14.44    1.96
  -6   6  -1   12.37    2.06
   3   8  11   30.96    2.82
   3   8  11   39.78    2.22
   3   8  11   34.06    2.57
  -3  -8 -11   36.84    2.34
  -3  -8 -11   37.55    2.15
  -6   0   6  152.69    6.29
  -6   0   6  154.15    7.02
   6   0  -6  155.32    5.98
  -6   0   6  145.43    5.93
   5   4  12    3.26    1.69
   5   4  12    2.54    1.49
  -5  -4 -12    3.36    1.54
  -5  -4 -12    2.20    1.36
   5   4  12    4.10    1.18
  -6   6   0   32.95    2.75
   6  -6   0   23.64    2.28
  -2 -10  -8    7.86    1.74
  -2 -10  -8    4.37    1.09
   2  10   8    5.22    1.75
   2  10   8    4.70    1.38
  -2  10   0   35.15    2.82
   2 -10   0   39.67    2.49
  -2  10   0   41.16    2.68
  -2  10   0   37.46    2.37
   2  -4  11   70.97    2.85
   2  -4  11   78.95    4.49
  -2   4 -11   68.49    3.69
   2  -4  11   72.48    4.03
   2  -4  11   70.01    3.55
  -4   4 -10   23.13    2.18
   4  -4  10   26.59    2.04
   4  -4  10   31.82    2.39
   5   1  12  106.60    5.08
  -5  -1 -12  116.54    4.93
   5   1  12  110.04    4.90
   5   1  12  106.80    5.15
  -5  -1 -12  107.14    5.15
   5   1  12  121.22    4.79
   2 -10  -4   36.08    2.51
   2 -10  -4   37.56    2.09
  -2  10   4   39.16    2.32
   2 -10  -4   36.65    2.56
   3   7  -6  201.52    7.31
   3   7  -6  178.99    7.62
  -3  -7   6  194.04    6.99
  -1   7  -8  101.25    4.56
   1  -7   8  108.59    4.47
   1  -7   8  101.33    5.28
  -1   7  -8  109.00    4.87
   2  -8  -9    7.81    1.40
  -2   8   9    8.84    1.66
  -2   8   9    6.59    1.54
   2  -8  -9    9.76    1.49
   2  -8  -9   10.49    1.65
   3  -2 -11   65.71    4.23
  -3   2  11   71.94    3.62
  -3   2  11   71.14    3.34
  -3   2  11   73.54    3.80
   3  -2 -11   79.69    3.73
   3  -2 -11   64.41    3.27
  -3   2  11   72.65    4.26
  -1  -9 -10    0.41    1.07
   1   9  10    1.49    1.15
   1   9  10    1.17    1.38
  -1  -9 -10    1.31    1.45
   1   9  10    1.03    1.12
   6   7   8  160.69    6.30
  -6  -7  -8  161.90    6.36
   6   7   8  144.60    6.44
   6   7   8  141.50    6.07
  -6  -7  -8  142.29    6.21
   6   7   8  145.89    5.94
   6   7   8  140.06    5.96
  -5   6  -6   94.38    4.41
   5  -6   6   85.31    4.42
  -5   6  -6   94.83    4.62
   3   0  13    3.95    1.42
   3   0  13    2.65    1.95
  -3   0 -13    3.96    1.48
   3   0  13    2.23    1.27
  -3   0 -13    3.44    1.34
   3   0  13    2.40    1.44
   5   9   3   66.92    3.49
   5   9   3   84.28    4.18
   5   9   3   76.37    4.16
   5   9   3   73.35    3.72
   5   9   3   73.16    3.82
  -2   9  -4   65.47    3.21
  -2   9  -4   60.07    3.67
  -1 -10   2  114.01    4.08
   1  10  -2  119.19    5.24
   1  10  -2  123.91    5.49
   1  10  -2  109.66    5.24
  -6   4  -7    5.92    1.52
  -6   4  -7    6.29    1.58
   6  -4   7    6.54    1.67
   6  -4   7    2.99    1.35
  -6   4  -7    4.63    0.78
   2  -2 -12  104.37    5.30
  -2   2  12   89.49    4.35
  -2   2  12  110.52    5.23
  -2   2  12  108.44    4.79
   2  -2 -12  100.38    4.53
   4  -6  -8   31.60    1.97
  -4   6   8   34.35    2.86
  -4   6   8   31.22    2.19
  -7   1   3   27.45    2.53
   7  -1  -3   21.77    1.87
   7  -1  -3   24.91    2.76
   4   3  13    0.77    1.20
  -4  -3 -13    1.80    1.52
   4   3  13    2.47    1.55
  -4  -3 -13    0.31    1.37
  -4  -3 -13    2.76    1.39
   4   3  13    0.48    1.41
   7   1  -3   21.56    1.69
   7   1  -3   24.54    2.12
  -7  -1   3   20.03    2.15
   7   4  -1   65.81    3.45
   7   4  -1   66.46    2.62
   7   4  -1   67.73    3.61
   7   4  -1   65.52    2.72
   7   4  -1   63.63    3.60
  -7  -4   1   64.31    3.63
   3   7  12    0.58    1.05
   3   7  12    0.40    1.04
  -3  -7 -12    0.65    1.52
  -3  -7 -12   -0.11    1.26
   3   7  12    2.61    1.48
   4   2  -9  100.82    3.58
  -4  -2   9   94.48    3.86
   4   2  -9   96.08    3.89
  -4  -2   9   99.98    4.37
   3  -1 -11   62.70    3.12
  -3   1  11   67.30    3.29
  -3   1  11   65.27    2.84
  -3   1  11   66.03    3.13
   3  -1 -11   69.69    3.51
  -3   1  11   64.85    3.53
   3  -1 -11   57.08    4.03
  -3   1  11   65.25    4.11
   3   4  -9   10.32    1.41
   3   4  -9   13.08    2.39
   3   4  -9    7.13    1.34
  -3  -4   9    8.95    1.47
  -7   3  -5   38.28    2.38
  -7   3  -5   36.99    2.50
  -7   3  -5   36.16    3.02
   7  -3   5   34.84    2.48
   7  -3   5   32.00    2.72
   4   5  -7    3.54    1.92
  -4  -5   7    4.50    1.29
   4   5  -7    1.76    1.01
   4   5  -7    1.80    0.91
  -4  -5   7    4.84    1.96
  -4   7  -6   13.31    1.72
   4  -5   9   16.30    1.89
  -4   5  -9   12.36    0.96
  -4   5  -9   15.13    1.81
  -4   5  -9   13.19    1.61
   4  -5   9   14.50    1.61
  -7  -3   2  248.41    9.29
   7   3  -2  235.75    8.81
   7   3  -2  249.65    8.21
   7   3  -2  257.59    9.08
   4  -8  -5   68.84    3.02
  -4   8   5   83.22    3.84
   4  -8  -5   76.60    3.87
   4  -8  -5   80.25    3.89
   2   7  -7   79.23    3.87
  -2  -7   7   70.90    3.41
   2   7  -7   66.78    3.92
   4   2  13   70.62    3.47
   4   2  13   68.76    3.75
   4   2  13   60.69    3.76
  -4  -2 -13   62.34    3.58
  -4  -2 -13   69.83    3.79
  -4  -2 -13   65.98    3.57
   4   6  -6   17.25    1.31
   4   6  -6   19.89    2.67
   4   6  -6   17.93    1.48
   4   6  -6   15.21    1.64
  -4  -6   6   18.79    1.63
  -4  -6   6   20.54    2.68
   6   7   0   81.48    4.21
   6   7   0   78.91    3.34
   6   7   0   80.32    3.91
   6   7   0   72.96    4.24
   0   7  -8   79.06    3.89
   0  -7   8   70.17    4.41
   0  -7   8   74.24    3.33
   0   7  -8   66.34    3.70
   6  -6   2    3.48    0.34
  -6   6  -2    6.30    1.78
   5   8  -1   33.84    2.81
   5   8  -1   39.24    2.96
  -5  -8   1   41.54    2.87
   5   8  -1   36.78    2.37
  -5  -8   1   34.92    1.59
  -5  -3   7  117.65    5.93
   5   3  -7  111.83    3.93
  -5  -3   7  117.05    4.64
   5   3  -7  107.42    5.93
  -5  -3   7  116.26    4.85
  -6  -3   5    1.70    1.03
  -6  -3   5    0.21    1.85
   6   3  -5    0.75    0.97
  -6  -3   5    0.12    1.11
   4   9  -1   11.24    1.92
  -4  -9   1   15.08    1.12
   4   9  -1   14.29    1.82
   4   9  -1   15.49    1.57
  -4  -9   1   15.18    1.92
  -6   6   1   54.39    3.64
   6  -6  -1   49.16    3.08
   6  -6  -1   45.48    3.55
  -6  -2 -11   36.40    2.06
  -6  -2 -11   35.62    2.66
   6   2  11   41.97    3.13
   6   2  11   38.79    2.80
   6   2  11   37.16    2.61
  -6  -2 -11   34.19    2.39
  -6   2   6   55.92    3.22
   6  -2  -6   55.32    3.07
  -6   2   6   58.00    3.53
   5   9   6   57.64    3.27
   5   9   6   51.54    3.36
   5   9   6   53.21    3.39
  -5  -9  -6   47.12    3.20
   7   6   4   79.12    4.26
   7   6   4   75.14    3.94
   7   6   4   72.84    3.33
   7   6   4   79.86    3.04
   7   6   4   81.37    3.78
   7   6   4   78.86    3.98
   7   6   4   79.29    4.28
   5   8   9    0.69    0.51
   5   8   9    1.12    1.03
  -5  -8  -9    0.29    1.27
   5   8   9   -0.44    1.41
   5   8   9   -0.18    1.55
   5   8   9   -1.90    1.53
  -5  -8  -9    0.92    1.27
   6   3  11   26.41    2.40
  -6  -3 -11   31.69    2.49
  -6  -3 -11   27.57    1.96
   6   3  11   28.68    2.18
   6   3  11   28.35    1.84
   6   3  11   24.04    2.55
  -6  -3 -11   31.64    2.34
   5  -4   9    0.98    1.28
   5  -4   9   -0.58    1.25
  -5   4  -9    1.59    1.00
  -5   4  -9   -0.68    1.31
   5  -4   9   -0.17    1.57
  -5   4  -9   -0.14    1.40
   2  -3 -12   34.78    2.95
   2  -3 -12   35.82    2.39
   2  -3 -12   31.09    2.32
  -2   3  12   29.51    2.74
  -2   3  12   28.50    2.16
  -2   1  12   43.13    2.81
   2  -1 -12   43.68    2.71
   2  -1 -12   53.62    3.73
  -2   1  12   37.49    2.32
   2  -1 -12   45.72    2.86
  -2   1  12   44.07    2.63
  -6   1 -10   -0.74    0.95
  -6   1 -10    0.29    1.35
  -6   1 -10    1.25    1.39
   6  -1  10    2.72    1.32
   6  -1  10    1.42    1.48
  -6   1 -10    0.31    0.24
  -1  10  -2   72.93    3.35
  -1  10  -2   62.83    3.49
   1 -10   2   67.64    3.61
   3  -3 -11   34.83    2.30
   3  -3 -11   31.48    2.88
  -3   3  11   36.43    3.07
   3  -3 -11   33.97    2.51
  -3   3  11   39.25    2.72
  -3   3  11   41.17    2.43
   6   6  -2    7.97    0.95
  -6  -6   2   13.30    2.31
  -6  -6   2    7.99    0.86
   6   6  -2    6.07    1.78
   6   6  -2    6.36    1.56
   6   6  -2    6.36    1.37
   0   4 -11   41.69    2.85
   0  -4  11   44.42    3.61
   0  -4  11   47.87    2.86
   0   4 -11   47.04    2.88
   0  -4  11   47.52    3.12
   5   7  -3   24.59    2.73
  -5  -7   3   21.51    1.44
   5   7  -3   24.79    1.73
  -5  -7   3   24.26    2.48
   5   7  -3   20.60    1.81
  -5   3 -10   -0.98    1.42
  -5   3 -10    3.40    1.06
   5  -3  10    2.46    1.25
  -5   3 -10    1.29    1.31
  -5   3 -10    1.41    1.34
   5  -3  10    0.77    1.32
   5  -3  10    1.03    1.48
  -4   7   7   36.71    2.91
   4  -7  -7   33.47    2.02
  -4   7   7   33.13    2.37
   7   6   5   94.33    4.02
   7   6   5  100.52    4.85
   7   6   5   94.70    4.46
   7   6   5   99.59    4.88
   7   6   5   95.77    3.62
   7   6   5   93.29    4.35
   7   6   5   90.89    4.38
   0   0  13   58.04    3.30
   0   0 -13   58.50    3.39
   0   0 -13   60.35    3.47
   0   0 -13   63.98    3.26
   0   0  13   55.55    3.97
   5  -7  -4   69.50    2.62
  -5   7   4   84.98    3.75
   5  -7  -4   79.18    3.89
   5  -7  -4   74.58    4.11
   3  10   0  157.34    6.82
   3  10   0  169.73    6.89
  -3 -10   0  171.60    6.41
  -5   3   8  158.05    5.50
  -5   3   8  151.01    6.50
   5  -3  -8  163.62    6.47
  -5   3   8  160.02    6.48
  -5   3   8  156.76    7.08
   4  -3  11   28.52    2.26
  -4   3 -11   26.39    2.40
   4  -3  11   28.42    2.16
   6  -4  -5   74.55    3.78
  -6   4   5   71.68    2.95
  -6   4   5   77.59    4.25
   6  -4  -5   74.05    2.86
   6  -4  -5   76.32    4.38
  -6  -1   6   64.32    3.49
   6   1  -6   55.20    2.92
  -6  -1   6   58.86    3.14
   0  -8 -11   11.59    1.79
   0  -8 -11   10.93    1.55
   0   8  11    8.23    1.22
   0   8  11   10.21    1.78
   0   8  11   12.39    1.70
   7   2   9   30.20    2.86
  -7  -2  -9   37.46    2.31
   7   2   9   39.00    2.52
   7   2   9   33.76    2.43
  -7  -2  -9   33.96    2.48
   4   4  13   21.76    2.21
  -4  -4 -13   19.47    2.11
  -4  -4 -13   15.85    2.00
  -4  -4 -13   18.26    2.15
   4   4  13   15.18    2.15
   4   4  13   17.11    1.75
   4   4  13   18.48    2.15
   7   6   3   38.26    2.00
   7   6   3   36.80    1.73
   7   6   3   39.07    2.97
   7   6   3   32.06    2.58
   7   6   3   42.13    2.97
   7   6   3   30.94    2.62
  -2   6  11   10.00    1.37
   2  -6 -11   11.19    1.74
   2  -6 -11    6.97    1.44
  -2   6  11    9.57    1.76
  -2   6  11   11.37    1.71
  -2   6  11   11.11    1.72
   2  -6 -11    8.43    1.54
   4  10   4   32.91    2.58
  -7   4  -1    4.50    1.00
   7  -4   1    3.52    1.55
   7  -4   1    3.02    1.44
  -5  -1   8    6.84    1.43
   5   1  -8    7.22    2.25
   5   1  -8    4.57    1.38
   5   1  -8    5.77    0.76
  -5  -1   8    6.68    1.39
  -2  -4  10   29.95    2.25
   2   4 -10   29.32    2.17
   2   4 -10   31.20    2.20
  -7   4  -2    0.94    0.96
   7  -4   2   -0.51    1.31
  -7   4  -2    0.38    1.58
   7  -4   2    0.16    1.46
   7  -4   2   -0.10    1.06
   6   8   4    0.78    1.52
   6   8   4   -0.66    1.12
   6   8   4    2.11    1.50
   2   9  -4   30.95    2.60
   2   9  -4   32.01    2.63
   2   9  -4   30.68    1.46
  -5   7  -4  124.35    4.36
  -5   7  -4  133.76    5.73
   5   9   2   54.08    3.46
   5   9   2   51.54    3.09
   5   9   2   53.74    3.06
   5   9   2   46.49    2.86
   5   9   2   46.65    3.28
   1  -9  -9  153.29    6.14
  -1   9   9  155.23    6.76
  -1   9   9  162.37    6.48
   1  -9  -9  153.01    6.09
  -1   9   9  162.66    6.21
   6   8   5    7.84    1.81
   6   8   5    8.29    1.55
   6   8   5    7.95    1.50
   6   8   5    9.49    1.84
  -4 -10  -5   35.46    2.83
  -4 -10  -5   36.82    1.49
   4  10   5   36.82    2.78
  -4  -9  -9   55.59    3.40
  -4  -9  -9   55.94    2.65
   4   9   9   50.14    3.16
   4   9   9   40.32    1.52
   7  -3  -2   72.94    4.43
  -7   3   2   66.71    3.97
   7  -3  -2   65.23    3.41
  -7   3   2   62.18    2.28
  -7   3   2   60.36    2.33
  -7   3   2   57.96    2.34
   7   3   9   24.31    2.54
   7   3   9   20.44    1.94
  -7  -3  -9   19.53    1.88
  -7  -3  -9   21.90    1.69
  -7  -3  -9   21.47    2.02
   7   3   9   19.37    1.92
   7   3   9   22.99    1.83
   2  -1  13   21.47    2.30
   2  -1  13   20.79    2.57
   2  -1  13   18.53    1.75
  -2   1 -13   23.37    2.31
  -2   1 -13   20.11    2.07
  -2   1 -13   20.39    2.18
   2  -1  13   23.04    2.12
  -3   9  -3   27.65    1.95
  -3   9  -3   30.82    2.65
  -3   9  -3   26.47    2.27
   7   5   0   26.10    2.36
   7   5   0   24.52    2.31
   7   5   0   26.03    2.28
   2   6  13   15.93    1.98
   2   6  13   18.07    1.84
  -2  -6 -13   15.55    2.03
  -2  -6 -13   16.82    2.06
  -2  -6 -13   20.71    2.08
   2   6  13   17.08    2.00
   2   6  13   18.45    2.06
   0  -9   5  100.02    5.12
   0   9  -5   97.65    4.52
   0   9  -5   94.52    3.55
   0  -9   5  104.39    4.11
   0   9  -5  106.42    4.94
   0  10   8   80.57    3.89
   0  10   8   79.66    4.35
   0 -10  -8   77.10    3.67
   0 -10  -8   76.07    3.88
  -6   5   4  112.51    4.45
   6  -5  -4   95.92    3.30
   6  -5  -4  114.51    5.39
   6  -5  -4  120.04    4.81
  -6   5   4  122.36    5.71
  -2   7  -8   17.11    1.67
   2  -7   8   17.96    2.64
  -2   7  -8   18.10    1.34
  -2   7  -8   18.30    2.07
   2  -7   8   18.30    1.78
  -5   5   7    4.30    1.49
   5  -5  -7    1.45    1.38
   5  -5  -7    3.21    0.92
  -5   5   7    6.06    1.73
  -5   5   7    3.07    1.01
  -5   5   7    2.29    0.67
  -3  -9 -10   91.85    3.78
  -3  -9 -10   94.27    4.60
   3   9  10   95.05    3.90
   3   9  10   96.82    4.51
  -3  -9 -10   97.80    4.68
   3   9  10   88.65    4.69
  -3  -9 -10   92.50    3.95
  -1 -11  -3   16.42    2.14
   1  11   3   17.11    2.05
  -1 -11  -3   15.60    1.60
  -3   7   9   39.75    2.67
   3  -7  -9   48.20    2.91
   3  -7  -9   45.38    2.60
  -3   7   9   46.81    2.96
  -4  -1 -13   70.69    3.78
   4   1  13   70.83    3.84
  -4  -1 -13   65.30    3.52
   4   1  13   70.50    3.52
   4   1  13   67.84    3.58
  -4  -1 -13   63.09    3.72
  -3   0  11   22.14    2.59
  -3   0  11   15.04    1.56
   3   0 -11   13.81    1.55
  -3   0  11   14.51    1.80
   3   0 -11   21.70    2.60
  -3   0  11   15.81    1.37
  -4  -4   8   17.45    1.70
   4   4  -8   20.49    1.55
  -4  -4   8   14.25    2.42
   4   4  -8   20.47    2.66
   4   4  -8   17.74    1.54
   6   1  11  213.06    8.53
  -6  -1 -11  209.14    7.72
   6   1  11  225.24    8.17
  -6  -1 -11  210.20    8.20
   6   1  11  208.18    8.17
  -6  -1 -11  216.94    8.17
  -6  -1 -11  211.20    7.12
  -4 -10  -3   31.01    1.35
  -2  10  -1    0.67    1.12
   2 -10   1   -0.11    1.14
  -2  10  -1    1.39    1.30
  -2  10  -1    1.75    1.53
  -4   5   9  147.82    6.21
   4  -5  -9  151.28    5.64
   4  -5  -9  144.13    6.01
  -4   5   9  145.18    4.98
  -4   5   9  140.68    6.22
  -4   5   9  141.95    5.54
  -4   8  -4    3.64    1.63
  -4   8  -4    6.04    1.10
  -4   8  -4    8.22    1.67
  -1   1 -13    8.27    1.50
   1  -1  13    7.09    1.55
   1  -1  13   11.62    1.29
   1  -1  13   12.83    2.37
  -1   1 -13   11.04    1.88
  -1   1 -13   11.35    1.80
  -1 -11  -4   32.90    2.16
   1  11   4   35.89    2.62
  -1 -11  -4   39.64    2.86
  -5   6   6   57.55    2.57
  -5   6   6   51.26    3.51
   5  -6  -6   58.28    3.26
   5  -6  -6   56.94    3.55
   5  -6  -6   53.22    2.43
  -5   6   6   53.85    2.84
  -3  -9   3   66.43    3.67
   3   9  -3   63.96    3.86
   3   9  -3   72.43    3.78
   2 -10  -5   31.65    2.12
  -2  10   5   29.93    2.02
   2 -10  -5   27.97    2.25
   2 -10  -5   27.16    2.30
   2 -10  -5   26.58    1.70
   0  -5 -13   68.60    3.55
   0  -5 -13   68.74    3.81
   0   5  13   67.57    3.78
   0   5  13   66.85    3.46
   0   5  13   67.43    3.64
   0  -5 -13   70.98    3.61
   0  -5 -13   66.20    3.60
  -7   2  -7    4.38    1.31
  -7   2  -7    5.30    0.85
  -7   2  -7    5.41    1.45
  -7   2  -7    5.69    1.83
   7  -2   7    4.91    1.69
   7  -2   7    4.58    1.76
   1 -10  -7   11.01    1.60
  -1  10   7   10.32    1.83
  -1  10   7    9.65    1.44
   1 -10  -7    9.14    1.59
   7  -2  -3   74.78    3.59
   7  -2  -3   68.85    2.76
   7  -2  -3   76.00    4.50
  -7   2   3   73.91    4.28
  -7  -1  -9  146.12    5.71
   7   1   9  145.96    6.70
   7   1   9  164.00    6.40
  -7  -1  -9  158.29    6.18
   7   2  -3   72.88    3.29
  -7  -2   3   77.01    4.11
  -7  -2   3   76.65    3.44
   7   2  -3   79.00    3.91
   6   4  11    1.31    0.88
  -6  -4 -11   -0.10    1.01
   6   4  11    0.36    1.47
   6   4  11   -0.33    1.03
  -6  -4 -11   -1.06    1.36
   6   4  11   -0.28    1.40
  -6  -4 -11    0.88    1.38
   6   4  11    0.15    1.47
   4   7  -5    0.22    1.14
   4   7  -5    0.86    0.47
  -4  -7   5    1.25    1.87
   4   7  -5    3.21    2.11
   4   7  -5   -0.35    1.38
  -4  -7   5    0.84    0.96
   7   6   6   96.27    4.92
   7   6   6   98.97    4.89
   7   6   6   95.81    3.69
   7   6   6   87.80    4.40
   7   6   6   95.79    4.12
   7   6   6   93.03    4.41
  -6   6  -3    2.62    1.54
   7  -4   0   11.07    1.71
   7  -4   0   18.16    2.53
  -7   4   0   14.35    1.29
  -7   4   0   13.66    1.31
   6   8   3    1.06    1.15
   6   8   3    1.55    1.59
   6   8   3   -1.11    1.53
   6   8   3   -0.75    1.57
  -1   3 -12   35.66    2.70
   1  -3  12   29.48    2.37
  -1   3 -12   35.77    2.71
   1  -3  12   30.77    2.59
  -1   3 -12   36.71    2.53
   5   5  12   30.22    2.75
   5   5  12   35.85    2.70
   5   5  12   30.21    1.96
  -5  -5 -12   34.02    2.60
  -5  -5 -12   28.77    2.26
  -5  -5 -12   31.25    2.60
  -5   5  -8    7.69    1.60
   5  -5   8    9.43    1.74
   5  -5   8    9.43    1.89
   5  -5   8   10.27    1.60
  -5   5  -8    9.41    1.78
   7  -4   3    8.79    1.77
  -7   4  -3    5.66    1.71
  -7   4  -3    5.83    1.18
   7  -4   3    5.16    1.52
   7  -4   3    7.59    1.55
   7  -1   8    0.51    1.72
  -7   1  -8    0.87    0.81
  -7   1  -8    0.41    1.39
   7  -1   8    0.29    1.41
  -7   1  -8    0.36    1.65
  -7   1  -8    0.62    1.23
   3  -5  10    2.94    0.99
   3  -5  10    1.98    1.39
   3  -5  10    3.09    1.54
  -1   9  -5    1.96    1.54
   1  -9   5    2.66    1.12
  -1   9  -5    1.94    0.88
  -1   9  -5    1.40    1.19
   1  -9   5    2.77    1.61
  -1   6  12   37.29    2.77
  -1   6  12   39.66    2.75
  -1   6  12   43.47    2.58
   1  -6 -12   39.35    2.65
   1  -6 -12   44.71    2.75
  -1   6  12   43.32    2.83
   0   7  12   77.08    4.22
   0  -7 -12   88.13    4.27
   0   7  12   85.72    4.12
   0   7  12   79.34    4.00
   0   7  12   84.07    3.77
   0  -7 -12   84.02    3.97
  -1  -6   9   42.76    3.59
   1   6  -9   45.66    2.84
  -1  -6   9   44.23    2.73
   4  -1 -10    5.81    1.60
  -4   1  10    4.98    0.99
   4  -1 -10    4.94    1.00
  -4   1  10    4.14    1.43
   4  -1 -10    4.18    1.87
  -4   1  10    6.66    2.10
  -4   1  10    5.43    1.42
   4  -2 -10    1.26    1.35
  -4   2  10    0.18    0.37
  -4   2  10   -0.16    0.93
   4  -2 -10   -0.65    1.80
  -4   2  10    0.40    1.26
  -4   2  10    2.01    1.93
  -4   2  10    0.85    1.37
  -4   6  -8   27.15    2.18
   4  -6   8   27.81    2.38
  -4   6  -8   28.45    2.37
   4  -6   8   32.44    2.82
   6  -6  -2   33.34    2.97
   6  -6  -2   27.30    2.38
   2  -3  12   19.12    1.44
   2  -3  12   20.63    1.95
  -2   3 -12   20.48    2.15
   2  -3  12   21.60    2.32
  -2   3 -12   19.87    2.15
  -3 -10  -8   35.91    2.75
  -3 -10  -8   38.83    2.02
  -3 -10  -8   37.53    2.03
  -3 -10  -8   41.13    2.96
   3  10   8   39.30    2.83
   3  10   8   39.84    3.07
  -7  -5  -8    4.43    1.33
   7   5   8    3.76    0.52
   7   5   8    5.15    1.51
   7   5   8    5.87    1.87
   7   5   8    4.92    1.16
   7   5   8    5.15    1.43
   7   5   8    3.61    1.42
  -7  -5  -8    3.41    1.31
  -7  -5  -8    4.79    1.38
  -5   0 -12   62.98    3.29
   5   0  12   61.25    3.56
   5   0  12   63.12    3.45
  -5   0 -12   63.68    3.65
  -1 -11  -2    4.35    1.18
  -1 -11  -2    3.96    0.67
   1  11   2    1.81    1.37
  -1 -11  -2    5.56    1.68
   0 -11  -3  105.77    4.76
   0 -11  -3   91.60    4.26
   6   8   6   -0.25    1.15
   6   8   6    0.55    1.14
   6   8   6    0.33    1.55
  -6  -8  -6    0.76    1.55
   6   8   6    0.15    1.36
   5   9   7   32.51    2.57
  -5  -9  -7   34.77    2.74
  -5  -9  -7   40.44    2.88
   5   9   7   34.94    2.72
   5   9   7   34.90    2.84
   2  -4 -12   19.79    2.03
   2  -4 -12   21.89    2.05
  -2   4  12   24.34    2.08
   2  -4 -12   24.69    2.08
  -2   4  12   26.64    2.48
   2  -4 -12   25.47    2.58
   0  -9 -10  103.92    4.77
   0   9  10  106.53    5.22
   0   9  10  108.47    4.79
   0  -9 -10  100.62    4.45
   0   9  10  108.08    4.70
   1   6  13   81.33    3.95
  -1  -6 -13   77.99    3.88
  -1  -6 -13   77.62    4.24
   1   6  13   81.15    4.03
   1   6  13   77.45    4.21
  -1  -6 -13   90.46    4.23
  -1  -6 -13   76.36    3.79
   7   6   2   55.37    2.27
   7   6   2   62.24    3.50
   7   6   2   53.99    3.24
   7   6   2   54.03    3.52
   7   6   2   55.94    2.48
   7   6   2   57.41    3.42
  -2   0  12   12.67    1.37
   2   0 -12   12.55    1.73
   2   0 -12   11.47    1.53
  -2   0  12   11.73    1.51
  -2   0  12   14.07    1.82
   4  10   6   31.86    2.66
  -4 -10  -6   34.23    2.71
  -4 -10  -6   33.10    1.46
  -5   2 -11   -0.89    1.46
   5  -2  11   -1.09    1.38
  -5   2 -11    0.93    1.07
  -5   2 -11   -1.19    1.38
   5  -2  11    0.18    1.73
   3  -4  11   16.33    1.84
   3  -4  11   19.18    1.54
   3  -4  11   20.32    2.31
   3  -6 -10   91.31    4.74
  -3   6  10   91.02    4.24
   3  -6 -10   94.86    4.20
  -3   6  10   88.79    3.79
   3  -6 -10  101.87    4.52
  -3   6  10   95.35    4.66
   1   5 -10    1.85    1.32
   1   5 -10    2.11    1.34
  -1  -5  10    2.15    1.26
   6   6  10   17.33    2.01
   6   6  10   15.55    2.02
   6   6  10   18.32    2.24
   6   6  10   18.17    1.19
  -6  -6 -10   20.00    2.11
  -6  -6 -10   16.98    1.94
  -6  -6 -10   22.69    2.19
  -1 -11  -5   17.99    1.66
   1  11   5   22.61    2.15
  -1 -11  -5   15.86    2.06
   3  -9  -6   42.18    2.35
   3  -9  -6   38.48    2.76
   3  -9  -6   40.52    2.46
   0 -11  -2   89.49    4.10
   0 -11  -2   93.68    4.48
   0 -11  -4   68.01    3.75
   0 -11  -4   65.81    3.35
   1  -2 -13    7.60    1.51
   1  -2 -13    8.85    1.52
  -6   3   6   28.95    2.43
  -6   3   6   31.91    2.76
   6  -3  -6   30.68    2.40
   2  -9  -8   10.82    1.34
   2  -9  -8   11.01    1.67
   2  -9  -8   12.77    1.57
  -2   9   8   13.49    1.83
   3   8  -5   14.93    2.03
   3   8  -5   14.36    1.90
  -3  -8   5   15.89    1.49
   3  -4 -11    1.21    1.14
  -3   4  11    2.22    1.38
  -3   4  11    1.61    1.73
  -3   4  11    1.33    1.01
  -1  -2  12   84.91    3.94
  -1  -2  12   70.96    2.64
   1   2 -12   79.83    3.98
   1   2 -12   83.33    3.98
  -1  -2  12   72.17    3.71
   1   2 -12   77.31    3.71
  -8  -1  -3   93.98    3.39
   8   1   3   97.65    5.46
   8   1   3   95.37    3.67
   8   1   3   95.83    3.85
   8   1   3   91.83    3.97
   8   1   3  103.40    5.03
  -8  -1  -3   90.51    4.94
   6  -5   6    1.36    1.45
   6  -5   6    3.72    1.54
  -6   5  -6    2.10    0.58
  -6   5  -6    2.70    1.55
  -6   5  -6    3.69    1.35
   4  10   2   23.70    2.09
  -4 -10  -2   23.43    1.22
  -3   8   8    9.16    1.61
   3  -8  -8   13.42    1.50
   3  -8  -8   10.89    1.78
  -3  -6 -13   95.45    4.66
  -3  -6 -13   95.21    4.45
   3   6  13  100.03    4.30
   3   6  13   93.57    4.70
   3   6  13   95.25    4.45
  -2 -11  -4   56.79    2.81
  -2 -11  -4   62.44    3.63
   2  11   4   58.12    3.49
   1  -3 -13    4.66    1.37
   1  -3 -13    5.59    1.58
  -1   3  13    2.44    1.39
   1  -3 -13    4.81    1.36
   1  -3 -13    5.30    1.43
   2   8  -6   37.06    2.88
   2   8  -6   43.03    2.88
   3  -6   9   13.51    2.01
   3  -6   9   14.01    1.74
  -3   6  -9   12.77    1.26
  -3   6  -9   11.71    1.37
   7   4   9  156.34    5.97
   7   4   9  150.68    5.25
   7   4   9  159.79    5.96
   7   4   9  146.80    6.72
  -7  -4  -9  162.52    6.29
  -7  -4  -9  157.14    5.98
   7   4   9  158.37    6.42
  -7  -4  -9  149.39    6.12
   7   4   9  142.55    6.00
   2  10  -2    9.32    1.94
   2  10  -2    5.82    1.65
   2  10  -2    5.18    1.58
   8   1   4   36.71    2.12
   8   1   4   35.03    3.45
   8   1   4   38.65    2.08
  -8  -1  -4   44.97    2.19
  -8  -1  -4   45.20    3.37
   8   1   4   39.54    3.06
   8   1   4   37.60    1.93
  -7   3  -6   79.34    3.60
   7  -3   6   79.55    4.28
   7  -3   6   78.73    4.10
  -7   3  -6   86.75    4.39
  -7   3  -6   77.54    3.73
   2  11   3   97.75    4.81
  -2 -11  -3   95.28    4.70
  -2 -11  -3   89.74    3.82
   1   7  -8    2.65    1.36
  -1  -7   8    1.69    2.15
   1   7  -8    2.91    1.48
  -1   8  -7   85.55    4.00
  -1   8  -7   83.02    3.04
   1  -8   7   89.69    3.99
   1  -8   7   93.20    4.90
  -1   8  -7   81.87    4.40
  -4   9   1   15.97    1.99
  -4   9   1   11.56    1.04
   4  -9  -1   14.16    1.91
   4  -9  -1   14.50    1.49
  -4   9   1   14.65    2.11
  -4  -5 -13  145.66    6.04
   4   5  13  129.35    5.25
  -4  -5 -13  136.05    6.08
  -4  -5 -13  133.63    5.75
   4   5  13  139.14    5.93
   4   5  13  128.94    5.93
   4   5  13  135.64    6.08
   8   2   3    4.60    0.95
   8   2   3    8.43    1.33
  -8  -2  -3    7.18    1.97
   8   2   3    4.82    1.87
   8   2   3    6.51    1.11
   4   0 -10   28.82    2.98
  -4   0  10   26.15    2.84
  -4   0  10   26.87    2.30
  -4   0  10   27.27    2.04
   4   0 -10   27.53    1.81
   4   0 -10   29.65    2.34
   0 -10   3   51.37    2.58
   0 -10   3   60.82    3.48
   0  10  -3   58.17    3.60
   0  10  -3   57.93    3.38
   0  10  -3   58.91    2.76
   0  10  -3   55.48    3.24
   0   8  -7   53.51    3.38
   0  -8   7   54.36    2.67
   0  -8   7   50.86    3.69
   0   8  -7   46.33    3.00
   1   9  -5   24.16    2.47
  -1  -9   5   23.41    1.47
   1   9  -5   20.33    2.13
   1   9  -5   20.14    0.96
   4  -3 -10   32.36    3.07
  -4   3  10   30.22    1.92
  -4   3  10   30.58    2.58
   4  -3 -10   30.38    2.45
  -4   3  10   33.20    2.51
  -4   3  10   30.72    3.03
  -8  -2  -4   84.86    3.33
  -8  -2  -4   82.72    4.63
   8   2   4   81.39    3.31
   8   2   4   91.34    4.66
   8   2   4   85.78    3.66
   8   2   4   81.87    3.49
   8   2   4   81.47    4.96
  -3  -3  10    5.73    1.35
  -3  -3  10    5.33    0.50
   3   3 -10    6.43    1.43
   3   3 -10    7.58    1.33
   3   3 -10    5.94    1.09
   6   7   9  138.26    5.70
   6   7   9  123.99    4.10
  -6  -7  -9  148.05    6.13
   6   7   9  141.33    5.87
   6   7   9  135.74    6.06
   6   7   9  135.44    5.63
  -6  -7  -9  144.56    6.20
   6   8   2    5.47    1.76
   6   8   2    0.80    1.54
   6   8   2    2.29    1.49
   6   8   2    1.82    1.08
   8   1   2   74.99    3.12
   8   1   2   75.95    3.47
   8   1   2   76.00    4.21
  -8  -1  -2   77.72    4.44
   8   1   2   78.37    3.30
   8   1   2   72.70    4.72
  -7   4   1    5.79    1.87
   7  -4  -1    7.30    1.60
   7  -4  -1    7.20    2.14
  -7   4   1    7.79    1.02
  -6  -2   6   16.78    1.83
   6   2  -6   12.39    1.51
  -6  -2   6   12.84    1.59
  -6  -2   6   15.14    2.48
   5   9   1   20.38    2.36
   5   9   1   19.07    2.04
   5   9   1   19.19    1.97
   5   9   1   14.60    2.23
   3  -1  13   19.03    1.89
   3  -1  13   21.04    2.62
   3  -1  13   18.73    1.93
  -3   1 -13   20.12    2.22
   3  -1  13   17.12    1.87
   4  -9   0    3.00    1.06
   4  -9   0    1.90    1.40
  -4   9   0    1.75    1.44
  -4   9   0    3.02    0.73
  -4   9   0    4.51    1.61
  -7   4  -4   17.29    1.72
  -7   4  -4   18.75    1.82
  -7   4  -4   19.40    2.38
   7  -4   4   13.90    1.88
   7  -4   4   17.00    2.20
   4  -9  -2   28.09    1.99
   4  -9  -2   22.77    2.25
  -4   9   2   26.99    2.50
  -4   9   2   22.25    1.35
  -4   9   2   25.00    2.27
  -2 -11  -5  153.01    6.36
  -2 -11  -5  144.06    5.40
   2  11   5  154.26    6.47
   4  -2  12   39.11    3.07
   4  -2  12   37.51    2.51
  -4   2 -12   38.08    2.91
  -4   2 -12   40.87    2.63
  -4   2 -12   40.91    2.92
   4  -2  12   42.23    2.77
   1  -1 -13   25.28    2.24
  -1   1  13   27.80    2.27
   1  -1 -13   26.27    2.24
  -8   0  -3   33.26    1.70
   8   0   3   36.42    3.50
   8   0   3   32.02    1.55
   8   0   3   36.24    2.86
  -8   0  -3   34.30    2.96
   8   0   3   33.44    1.90
   8   0   3   31.06    2.22
   8   0   3   33.50    2.13
  -1 -11  -1    8.14    1.83
   1  11   1    2.33    1.36
  -2 -10  -9   -0.31    1.45
  -2 -10  -9    0.68    0.93
  -2 -10  -9   -0.43    1.01
   2  10   9   -0.14    1.19
  -3   8  -6   12.69    1.63
   3  -8   6   17.45    1.91
  -4  -8 -11   15.66    1.93
  -4  -8 -11   12.07    1.83
   4   8  11   11.41    2.00
   4   8  11   11.66    1.26
  -4  -8 -11   11.83    1.53
   4   8  11   14.85    1.31
   7   6   7   59.54    3.78
  -7  -6  -7   65.25    3.59
   7   6   7   63.81    3.46
   7   6   7   54.26    3.60
   7   6   7   58.55    3.43
   7   6   7   63.05    2.76
   7   6   7   60.04    3.18
   5  -4  -8   79.00    3.95
  -5   4   8   79.02    3.30
  -5   4   8   76.92    4.27
   5  -4  -8   77.63    3.37
  -5   4   8   80.05    4.10
  -1 -10  -9    5.75    1.58
  -1 -10  -9    5.53    1.32
  -1 -10  -9    1.50    1.49
   1  10   9    2.97    1.33
   1  10   9    3.69    1.54
  -7   0  -9   27.38    2.29
   7   0   9   33.99    2.94
   7   0   9   29.47    2.50
  -7   0  -9   27.50    2.41
  -7   0  -9   30.72    2.85
  -7   0  -9   26.87    1.89
   0 -11  -1   91.49    3.89
   0  11   1   91.47    4.41
   0 -11  -1   94.60    4.59
   0 -11  -1  100.43    4.36
   2   3  14   67.69    3.53
  -2  -3 -14   63.96    3.58
  -2  -3 -14   68.00    3.65
   2   3  14   61.76    4.03
  -2  -3 -14   62.37    3.70
   2   3  14   71.60    3.91
   6   7  -1  136.24    5.56
   6   7  -1  131.36    5.02
   6   7  -1  150.87    6.29
   6   7  -1  136.83    6.00
  -6  -7   1  120.85    3.99
   0 -11  -5   33.34    2.60
   0 -11  -5   26.04    2.14
  -6   0 -11   16.59    1.68
  -6   0 -11   18.72    2.07
  -6   0 -11   15.90    1.15
   6   0  11   15.32    2.08
   6   0  11   13.90    1.80
  -6   0 -11   13.98    1.98
  -8   0  -2   96.30    3.37
  -8   0  -2  104.39    5.25
   8   0   2  103.04    4.07
   8   0   2   96.71    3.57
   8   0   2  101.11    4.15
   8   0   2  100.52    5.57
   8   0   2  102.12    4.10
   8   0   2  103.68    5.07
   0   3 -12    3.92    1.60
   0  -3  12    3.82    1.35
   0   3 -12    2.63    1.56
   0  -3  12    3.30    1.32
   0   3 -12    4.76    1.40
   4   7  12   17.49    1.63
  -4  -7 -12   20.72    2.27
   4   7  12   22.91    2.16
   4   7  12   24.57    2.42
   4   7  12   19.56    2.24
  -4  -7 -12   20.59    2.18
   4   7  12   22.50    1.81
  -4  -7 -12   19.03    1.90
  -5  -7 -11   82.60    3.81
   5   7  11   87.13    4.19
   5   7  11   75.15    4.38
   5   7  11   81.63    3.29
  -5  -7 -11   83.45    4.34
  -5  -7 -11   82.48    4.34
  -5  -7 -11   86.81    4.21
   5   7  11   79.56    4.28
  -4   8   6   69.21    3.36
  -4   8   6   65.51    3.64
   4  -8  -6   62.91    2.90
   4  -8  -6   66.54    3.63
   4  -8  -6   65.78    3.57
   6   8   7   14.58    2.03
   6   8   7   14.99    1.70
  -6  -8  -7   13.62    2.00
   6   8   7   11.91    2.02
  -6  -8  -7   16.58    2.09
   6   8   7   15.91    1.87
   8   2   2    2.53    1.08
   8   2   2    2.13    0.87
   8   2   2    2.60    1.27
  -8  -2  -2    3.00    1.66
   8   2   2    3.02    1.73
   8   2   2    3.91    2.24
   2   2  14    5.51    1.52
  -2  -2 -14    3.76    1.57
   2   2  14    2.64    1.87
   2   2  14    3.28    1.46
  -2  -2 -14    6.00    1.51
   2  11   2   82.89    4.34
  -2 -11  -2   70.73    2.91
  -2 -11  -2   79.93    3.42
  -2 -11  -2   82.41    4.21
   8   0   4   68.37    3.19
   8   0   4   66.43    2.71
  -8   0  -4   62.19    4.05
   8   0   4   63.41    2.53
  -8   0  -4   64.15    2.82
  -5   8   0   10.13    1.73
   5  -8   0    7.22    1.03
  -5   8   0    9.79    1.86
   7   4  -2   49.72    3.02
   7   4  -2   59.75    3.15
   7   4  -2   48.21    2.11
  -7  -4   2   54.26    2.50
  -7  -4   2   58.65    3.34
   7   4  -2   45.84    3.13
   4   0  13  100.53    4.77
   4   0  13  108.41    4.70
  -4   0 -13  102.21    4.69
  -4   0 -13  103.88    5.00
  -4   0 -13  114.98    5.11
  -8  -2  -5   41.30    3.16
   8   2   5   37.81    2.05
   8   2   5   43.12    3.26
  -8  -2  -5   39.82    2.14
   8   2   5   41.76    2.18
   8   1   5   35.23    1.84
  -8  -1  -5   36.16    3.12
   8   1   5   33.23    2.04
  -8  -1  -5   36.02    2.07
  -5  -2   8   75.37    3.63
  -5  -2   8   83.50    3.83
   5   2  -8   74.07    2.86
   0  -1  13   49.33    2.40
   0   1 -13   52.88    3.18
   0   1 -13   54.32    3.23
   0   1 -13   51.10    2.95
   0  -1  13   51.38    3.14
   0  -1  13   46.89    3.05
   0  -1  13   50.49    3.85
  -6   6  -4    1.05    1.60
   5  -8  -1    4.14    1.00
  -5   8   1    4.16    1.46
  -5   8   1    1.58    1.47
  -7   0   4   16.52    2.18
  -7   0   4   15.22    1.80
   7   0  -4   13.12    2.48
   7   0  -4   16.24    1.69
  -3 -10   1   77.99    3.78
   3  10  -1   76.39    4.20
   3  10  -1   78.85    3.51
   3  10  -1   75.47    4.26
  -3  -1  11   16.52    2.36
   3   1 -11   19.76    1.95
   3   1 -11   12.66    1.20
  -3  -1  11   15.33    1.44
  -3  -1  11   11.29    1.25
  -3  -1  11   16.74    1.99
   3   1 -11   14.99    1.60
   3   1 -11   10.98    2.34
  -6  -5 -11  123.66    5.07
  -6  -5 -11  119.49    5.33
  -6  -5 -11  120.01    5.40
   6   5  11  112.29    5.27
   6   5  11  119.66    5.48
   6   5  11  121.19    5.16
   6   5  11  115.44    4.41
   6   5  11  121.19    4.84
   6   5  11  110.70    5.56
  -6   3  -9   10.32    1.85
   6  -3   9   11.33    2.07
   6  -3   9    6.46    1.67
  -6   3  -9    7.68    1.71
  -6   3  -9    9.14    1.18
  -6   3  -9   10.45    1.81
  -4 -10  -7   31.23    2.61
   4  10   7   36.30    2.93
  -4 -10  -7   29.80    1.54
  -5  -5   6   34.67    3.09
   5   5  -6   32.72    1.81
   5   5  -6   29.31    1.86
   5   5  -6   32.22    1.74
  -5  -5   6   30.83    2.04
   1  11   6   72.22    3.88
  -1 -11  -6   73.15    4.10
  -1 -11  -6   77.56    4.08
  -1 -11  -6   75.79    3.47
  -5   7   5   82.12    3.87
   5  -7  -5   79.08    4.02
  -5   7   5   79.95    3.59
  -5   7   5   83.35    4.56
   5  -7  -5   76.86    2.99
   5  -7  -5   82.84    4.38
   1  10  -3  145.66    6.24
   1  10  -3  160.44    6.50
  -1 -10   3  148.55    5.12
   1  10  -3  139.23    6.28
  -2  10  -2    3.30    1.25
  -2  10  -2    1.94    1.34
  -2  10  -2    4.25    1.65
  -1   4  13   15.67    1.91
   1  -4 -13   15.93    1.84
   1  -4 -13   15.45    1.81
   1  -4 -13   16.14    1.93
  -1   4  13   15.40    1.88
   1 -10   3   18.00    1.63
  -1  10  -3   14.10    1.84
   1 -10   3   17.65    1.99
  -1  10  -3   18.11    1.65
   7   6   1   33.91    2.81
   7   6   1   33.59    1.71
   7   6   1   32.63    2.61
   7   6   1   32.27    2.59
   6  -6  -3   68.52    3.75
   6  -6  -3   71.04    4.32
   2   3 -11   43.88    2.70
   2   3 -11   41.69    2.40
  -2  -3  11   39.65    2.65
   2   3 -11   42.71    2.71
  -2  -3  11   40.00    2.52
  -2  10   6    4.10    1.13
   2 -10  -6    4.64    1.52
   2 -10  -6    2.68    1.11
   5   6  -5   21.13    1.43
   5   6  -5   21.43    1.73
   5   6  -5   20.22    1.45
   5   6  -5   17.46    2.71
  -5  -6   5   24.23    2.86
   5   6  -5   23.29    1.35
  -5  -6   5   20.57    1.65
   7  -1  -4   58.14    3.95
   7  -1  -4   52.56    2.95
  -7   1   4   57.12    3.67
   2   8  12   29.62    2.55
   2   8  12   33.44    2.77
  -2  -8 -12   32.87    2.30
  -2  -8 -12   35.08    2.67
  -2  -8 -12   32.42    2.23
   2   8  12   32.66    2.28
   4   3  -9   47.19    2.68
  -4  -3   9   51.70    2.29
  -4  -3   9   56.16    3.81
  -4  -3   9   47.49    2.88
   4   3  -9   52.20    2.58
   4   3  -9   58.43    2.39
  -6  -5   4   16.99    1.41
   6   5  -4   19.46    1.37
   6   5  -4   21.17    1.73
   6   5  -4   16.47    0.97
  -6  -5   4   15.66    2.37
  -1  -4  11    0.66    1.25
   1   4 -11    0.96    1.41
   1   4 -11   -0.38    1.19
  -1  -4  11    0.28    1.33
   8   3   4  140.87    5.32
  -8  -3  -4  147.79    6.71
   8   3   4  132.04    6.18
   8   3   4  134.41    4.67
   8   3   4  139.32    5.41
   8   3   4  131.54    6.54
   3  -3  12  141.37    6.30
  -3   3 -12  148.52    6.22
   3  -3  12  136.09    5.31
   3  -3  12  147.56    5.90
   5   8  -2   52.21    3.56
   5   8  -2   47.01    2.63
  -5  -8   2   45.04    3.13
  -5  -8   2   42.86    1.98
   5   8  -2   50.38    3.37
   8   1   1   52.77    2.51
   8   1   1   54.49    2.48
   8   1   1   51.91    2.89
   8   1   1   54.30    3.54
   8   1   1   52.43    2.64
  -8  -1  -1   59.24    3.85
   8   1   1   59.72    4.19
   1   3  14   35.25    2.76
  -1  -3 -14   40.99    2.87
   1   3  14   37.75    3.10
  -1  -3 -14   33.00    2.65
   1   3  14   39.04    2.67
  -4   9  -1    2.64    1.58
   4  -9   1    0.56    0.92
  -4   9  -1    0.15    1.58
  -4  -9   2   30.58    2.52
   4   9  -2   30.37    1.97
   4   9  -2   28.05    2.65
  -4  -9   2   30.76    1.70
   4   9  -2   38.58    2.81
  -5   8  -1    4.46    1.63
  -5   8  -1    3.72    1.67
   5  -8   1    5.03    0.92
   7  -3  -3   73.87    4.40
   7  -3  -3   67.10    3.42
   7  -3  -3   58.26    2.12
  -7   3   3   59.76    2.18
  -7   3   3   67.61    4.04
  -4   9   3   46.81    3.24
  -4   9   3   47.54    2.89
   4  -9  -3   42.96    2.94
   4  -9  -3   47.64    3.06
  -4   9   3   43.54    2.02
  -7  -3   3  157.96    5.86
  -7  -3   3  166.77    6.70
   7   3  -3  164.10    5.93
   7   3  -3  173.10    6.62
   2   4  14   47.20    3.30
   2   4  14   42.08    3.06
   2   4  14   48.19    2.94
  -2  -4 -14   47.01    3.13
  -2  -4 -14   53.03    3.36
   1   2  14   64.99    3.50
   1   2  14   56.09    3.99
   1   2  14   62.59    3.60
  -1  -2 -14   66.89    3.74
   2  -9   5   15.22    1.81
  -2   9  -5   14.74    1.58
  -2   9  -5   17.62    1.67
   8   3   3   46.74    2.71
   8   3   3   38.10    1.85
   8   3   3   45.87    3.21
   8   3   3   40.37    3.47
   8   3   3   39.85    2.41
  -8  -3  -3   39.82    3.12
  -5   6  -7  101.55    4.56
  -5   6  -7   89.13    4.57
   5  -6   7   90.93    4.67
  -5  -9  -8   12.64    1.88
  -5  -9  -8   12.32    1.92
   5   9   8   13.56    2.03
   5   9   8   14.01    2.12
   5   9   8   11.97    1.10
   5   9   8   12.65    1.88
  -5   7  -5   49.79    3.21
   5   8  10   16.35    2.46
   5   8  10   17.21    2.18
   5   8  10   20.20    1.26
  -5  -8 -10   21.00    2.21
  -5  -8 -10   19.40    2.19
   5   8  10   19.18    2.12
   7   5  -1   92.75    4.66
   7   5  -1   94.40    4.43
   7   5  -1   91.01    4.43
  -2 -11  -6   41.84    2.32
  -2 -11  -6   43.21    3.03
   2  11   6   36.98    3.04
   2  11   6   42.72    3.00
   4  10   1   34.10    2.75
  -4 -10  -1   28.51    2.16
   4  10   1   32.61    2.33
  -4 -10  -1   30.93    1.52
  -7  -1   4    6.88    1.78
  -7  -1   4    2.80    1.25
   7   1  -4    5.54    1.23
   4   8  -4   11.61    2.23
   4   8  -4    9.53    1.63
  -4  -8   4   10.95    1.33
   4   8  -4   13.05    1.02
  -4  -8   4   10.06    1.94
   4   8  -4    9.55    1.93
   6  -4   8   31.16    2.58
  -6   4  -8   33.39    1.80
   6  -4   8   34.56    2.81
  -6   4  -8   32.48    2.69
  -6   4  -8   30.84    2.48
   8   0   1   96.17    3.50
   8   0   1  102.22    4.96
   8   0   1   97.03    4.00
  -8   0  -1  102.25    5.31
   8   0   1   90.59    3.65
   8   0   1   94.86    4.01
  -6   2 -10    5.56    1.65
  -6   2 -10    9.42    1.26
  -6   2 -10    9.28    1.81
   6  -2  10    6.37    1.64
   6  -2  10    7.54    1.77
   6  -2  10   10.03    2.10
  -6   2 -10    8.20    1.71
  -6  -4   5    2.32    1.15
   6   4  -5    1.54    0.25
  -6  -4   5    1.74    1.84
  -6  -4   5    0.64    0.95
   6   4  -5    2.81    1.20
  -5   8   2    4.32    1.41
  -5   8   2    3.78    1.73
   5  -8  -2    1.22    1.75
   3   3  14   -1.29    1.50
   3   3  14    0.93    1.52
   3   3  14    0.88    1.31
  -3  -3 -14    2.80    1.51
   3   3  14    1.91    1.73
  -3  -3 -14    2.04    1.35
  -2   8  -7   31.68    1.89
  -2   8  -7   28.42    2.07
   2  -8   7   38.79    2.51
   2  -8   7   31.77    2.98
   1 -11  -3   40.44    1.99
  -1  11   3   46.96    2.90
   1 -11  -3   42.16    2.78
   1 -11  -3   47.38    2.96
   8   3   5  147.42    6.50
  -8  -3  -5  138.00    6.44
  -8  -3  -5  135.22    5.04
   8   3   5  139.04    5.38
   8   3   5  132.54    6.65
   8   3   5  144.38    5.40
   8   3   5  136.98    4.79
  -3   9  -4    0.21    1.04
  -3   9  -4    0.13    1.24
  -3   9  -4   -0.50    1.55
   2  -5 -12    8.38    1.87
  -2   5  12    7.65    1.53
  -2   5  12    6.57    1.87
  -2   5  12    8.80    1.25
  -2   5  12    8.70    1.73
   2  -5 -12    7.51    1.49
   2  -5 -12    5.91    1.43
   3 -10  -2   72.37    3.50
  -3  10   2   70.83    3.21
   3 -10  -2   64.34    3.72
  -3  10   2   74.59    4.02
  -3  10   2   74.39    4.08
   8   0   5    9.73    1.43
  -8   0  -5   13.59    1.40
  -2  -9 -11   55.75    3.41
  -2  -9 -11   52.92    2.86
  -2  -9 -11   53.40    2.80
   2   9  11   54.04    2.91
   2   9  11   53.58    3.13
  -2  -1  12   73.79    3.51
  -2  -1  12   79.11    3.88
   2   1 -12   69.59    3.27
   2   1 -12   73.49    3.63
   2   1 -12   72.25    3.67
  -2  -1  12   70.14    3.00
   1 -11  -2   94.67    4.57
   1 -11  -2   96.29    3.86
   1 -11  -2  102.58    4.54
  -1  11   2  101.19    4.58
  -1  -8 -12   53.90    3.27
  -1  -8 -12   48.33    2.85
  -1  -8 -12   50.66    2.92
   1   8  12   54.38    3.45
   1   8  12   51.25    2.49
   1   8  12   47.56    2.93
  -3  10   1   20.59    2.26
   3 -10  -1   19.91    1.86
  -3  10   1   19.43    1.61
  -3  10   1   19.86    2.25
   3 -10  -1   17.88    2.16
  -2  -1 -14    6.37    1.54
   2   1  14    5.08    1.42
   2   1  14    4.82    1.56
  -2  -1 -14    4.21    1.61
   2   1  14    6.97    2.02
   2   1  14    3.75    1.28
  -2  -1 -14    6.26    1.58
  -5  -6 -12    1.98    1.36
   5   6  12    1.92    1.62
  -5  -6 -12   -0.90    1.35
  -5  -6 -12   -0.16    1.41
   5   6  12    2.50    1.47
   5   6  12    1.47    0.90
  -5  -6 -12    1.82    1.29
   5   6  12    3.33    1.69
   0  -6 -13   92.48    4.49
   0  -6 -13   94.63    4.39
   0   6  13   82.80    4.23
   0  -6 -13   96.00    4.41
   0   6  13   84.97    4.46
   0   6  13   91.62    4.24
   0   6  13   95.59    4.31
   0  -6 -13   97.13    4.74
  -3  -2 -14    8.22    1.83
   3   2  14    7.91    1.57
   3   2  14    8.17    1.67
  -3  -2 -14    9.26    1.80
  -3  -2 -14    9.08    1.67
   3   2  14   10.32    2.11
   3   2  14    8.84    1.85
   8   2   1   -0.13    0.82
  -8  -2  -1   -0.37    1.63
   8   2   1    1.29    1.31
   8   2   1   -0.98    1.72
   8   2   1    0.45    1.08
   8   2   1    4.16    2.25
   8  -1   3   51.91    2.82
  -8   1  -3   50.48    2.34
  -8   1  -3   50.04    3.63
   8  -1   3   49.85    2.22
   8  -1   3   50.19    2.74
  -5  -4   7   60.97    2.81
  -5  -4   7   65.62    4.27
   5   4  -7   58.62    2.53
  -5  -4   7   59.47    3.07
   5   4  -7   62.95    2.84
   5   4  -7   58.58    4.27
   3  -7   8   11.01    1.59
  -3   7  -8    7.17    1.25
  -3   7  -8    9.23    1.16
   6   8   1   66.86    3.15
   6   8   1   64.90    3.57
   6   8   1   61.57    3.82
   6   8   1   72.21    4.03
   4  -7   7   41.84    2.92
  -4   7  -7   42.63    2.72
   4   1 -10   42.38    3.57
   4   1 -10   38.99    2.18
  -4  -1  10   41.04    2.68
  -4  -1  10   42.87    3.45
  -4  -1  10   36.36    2.27
   4  -4 -10   62.57    3.07
  -4   4  10   66.91    3.15
  -4   4  10   65.72    3.73
  -4   4  10   64.55    4.09
   4  -4 -10   56.53    3.35
   4  -4 -10   64.21    4.18
  -4   4  10   57.66    3.54
   8  -1   2   28.85    2.65
  -8   1  -2   30.81    2.84
  -8   1  -2   26.57    1.45
   8  -1   2   26.91    1.67
   8  -1   2   24.54    1.84
   8  -1   2   27.50    2.08
  -6  -6   3   35.29    1.89
   6   6  -3   38.10    2.20
   6   6  -3   38.27    1.67
   6   6  -3   35.99    2.96
  -6  -6   3   40.36    3.33
   1   0 -13   46.49    2.62
   1   0 -13   44.31    2.87
   1   0 -13   41.57    2.86
  -1   0  13   45.64    2.91
  -1   0  13   47.74    2.90
  -1   0  13   44.91    2.87
   1   8  -7   17.22    2.09
   1   8  -7   17.55    2.14
  -1  -8   7   15.41    2.48
  -8  -2  -6   16.69    2.31
  -8  -2  -6   15.13    1.49
   8   2   6   13.84    1.33
   8   2   6   16.04    1.43
   6  -5  -5  127.60    5.31
   6  -5  -5  121.18    5.79
   6  -5  -5  114.53    4.06
  -6   5   5  121.89    4.68
  -6   5   5  127.25    5.97
   0  11   0  210.75    8.13
   0 -11   0  202.09    7.46
   0 -11   0  178.82    6.88
  -4   8  -5   40.05    2.77
   7  -4  -2   26.72    2.33
  -7   4   2   34.04    2.92
  -7   4   2   30.92    1.60
   7  -4  -2   36.75    3.23
  -1  -4 -14   25.43    2.33
   1   4  14   22.30    2.26
   1   4  14   24.02    2.21
  -1  -4 -14   22.86    2.19
  -1  -4 -14   23.82    2.40
  -2 -11  -1   49.18    1.77
   2  11   1   56.75    3.59
  -2 -11  -1   55.67    2.51
  -5   1 -12   11.69    1.85
  -5   1 -12   17.23    1.76
   5  -1  12   14.40    1.88
   8   3   2   21.35    2.04
   8   3   2   25.83    3.05
  -8  -3  -2   21.63    2.40
   8   3   2   22.46    1.37
   8   3   2   27.71    2.59
   7   5   9   24.61    1.31
   7   5   9   26.84    2.44
   7   5   9   26.89    2.25
   7   5   9   25.99    1.93
  -7  -5  -9   28.25    2.16
   7   5   9   25.00    2.23
  -7  -5  -9   25.09    2.25
  -7  -5  -9   28.49    2.29
  -4  -9 -10   29.12    2.59
   4   9  10   28.29    1.31
   4   9  10   33.54    1.82
   4   9  10   31.01    2.68
  -4  -9 -10   31.49    2.04
  -1  10   8   17.67    1.76
  -1  10   8   20.55    2.31
   1 -10  -8   20.66    2.04
   1 -10  -8   18.28    1.97
   3  10   9   39.72    2.86
   3  10   9   37.17    2.95
  -3 -10  -9   41.68    3.00
  -3 -10  -9   34.70    2.08
  -3 -10  -9   36.92    2.77
  -3 -10  -9   37.39    2.07
  -1 -11   0    7.17    0.91
   1  11   0    8.42    1.72
   0  11   6    5.67    1.43
   0 -11  -6    5.95    1.74
   0 -11  -6    7.99    1.53
  -1  -9 -11    2.88    1.49
  -1  -9 -11    3.81    1.25
   1   9  11    5.71    1.37
   1   9  11    3.46    1.52
   1   9  11    4.16    1.40
   8   1   6   48.92    2.58
   8   1   6   48.94    2.33
  -8  -1  -6   49.27    2.65
   7  -4   5    1.79    1.53
  -7   4  -5    4.92    1.36
   7  -4   5    3.39    1.65
  -7   4  -5    1.88    1.66
  -7   4  -5    3.72    1.49
   1 -11  -4   53.82    3.12
   1 -11  -4   45.06    2.86
  -1  11   4   42.97    2.74
   1 -11  -4   41.70    1.81
   3  -5 -11   35.32    2.39
  -3   5  11   43.18    2.68
   3  -5 -11   35.43    2.97
  -3   5  11   42.09    3.23
  -3   5  11   43.40    2.22
   3 -10  -3   82.56    4.03
  -3  10   3   92.01    4.50
  -3  10   3   94.82    4.68
   3 -10  -3   84.63    3.94
   3 -10  -3   86.90    4.30
  -3  10   3   80.52    3.57
  -1   8  11   27.80    2.51
   1  -8 -11   31.91    2.40
  -1   8  11   27.57    2.40
   1  -8 -11   31.34    2.36
  -7  -2 -10   83.57    4.14
   7   2  10   83.91    4.77
  -7  -2 -10   84.02    3.41
   7   2  10   92.79    4.33
  -7  -2 -10   81.33    3.87
  -6   1   7  117.69    6.08
  -6   1   7  116.47    5.07
  -6   1   7  111.23    5.32
   6  -1  -7  113.18    4.86
   0 -10  -9   80.46    4.15
   0  10   9   73.26    4.22
   0 -10  -9   81.49    3.88
   0  10   9   75.52    3.74
  -1  -1 -14   26.55    2.30
  -1  -1 -14   23.72    2.30
   1   1  14   23.61    2.21
   1   1  14   25.00    2.93
  -1  -1 -14   27.11    2.49
   1   1  14   27.36    2.36
  -7   2  -8   14.67    1.28
  -7   2  -8   15.81    1.88
   7  -2   8   16.56    2.29
   7  -2   8   18.30    2.07
  -7   2  -8   15.20    2.06
   7  -2   8   16.04    2.27
  -7   2  -8   12.73    2.17
   3   4  14   87.75    4.49
  -3  -4 -14   85.85    4.36
   3   4  14   88.78    4.11
  -3  -4 -14   87.97    4.39
   3   4  14   80.03    4.44
   3   8  12   19.56    2.19
   3   8  12   20.66    2.08
  -3  -8 -12   19.89    1.89
  -3  -8 -12   22.99    1.77
   3   8  12   23.99    1.88
  -6   4   6    0.29    0.69
   6  -4  -6    1.07    0.74
  -6   4   6    0.73    1.56
   6  -4  -6    0.20    1.65
   6  -4  -6   -0.65    1.36
   7  -2  -4   94.84    5.28
   7  -2  -4  103.40    4.49
  -7   2   4  104.15    5.31
  -2   8  10  122.10    5.43
   2  -8 -10  112.36    4.89
  -2   8  10  115.34    5.28
   2  -8 -10  118.36    4.90
   2  -8 -10  110.50    5.00
  -2   2 -13   97.22    4.74
  -2   2 -13   95.80    4.72
   2  -2  13   88.12    3.75
   2  -2  13   94.57    5.17
   2  -2  13   95.93    4.73
   2  -2  13   87.86    4.38
  -2   2 -13  100.20    4.68
  -5   8  -2   30.95    2.60
  -5   8  -2   29.37    2.67
   1 -11  -1   70.12    3.63
  -1  11   1   59.22    3.44
   1 -11  -1   71.63    3.28
   1 -11  -1   67.39    3.69
  -1  11   1   78.09    4.06
   8  -1   4   25.39    2.05
  -8   1  -4   23.77    1.67
   8  -1   4   24.11    2.02
  -2  -7 -13   25.87    2.23
  -2  -7 -13   28.97    2.15
  -2  -7 -13   26.70    2.45
   2   7  13   27.09    2.63
  -2  -7 -13   27.44    2.60
   2   7  13   34.64    2.40
   2   7  13   27.90    2.52
   5   3  13   30.17    2.29
   5   3  13   23.46    2.51
  -5  -3 -13   24.10    2.41
   5   3  13   29.71    2.63
   5   3  13   22.51    2.02
  -5  -3 -13   22.46    2.18
  -3  10   0    8.72    1.76
  -3  10   0    5.68    1.74
   3 -10   0    6.59    1.32
  -3  10   0    5.64    1.23
   3 -10   0    2.17    1.51
   7   3  10    8.12    1.67
   7   3  10    8.73    1.97
  -7  -3 -10    9.89    1.29
  -7  -3 -10    8.79    1.56
  -7  -3 -10    9.74    1.74
   7   3  10    7.13    1.51
   1  -2  13   10.88    1.83
   1  -2  13   10.27    1.13
  -1   2 -13   11.26    1.87
  -1   2 -13   10.54    1.78
   1  -2  13    9.72    2.29
  -1   2 -13    9.65    1.68
   7   6   8    5.50    1.71
  -7  -6  -8   10.26    1.68
   7   6   8    7.89    1.11
   7   6   8    7.64    1.57
   7   6   8    8.09    1.72
  -7  -6  -8    9.57    1.78
   7   6   8    8.83    2.05
   7   6   8    8.80    2.00
  -4   7   8    0.12    1.19
  -4   7   8   -0.18    1.48
   4  -7  -8   -0.18    0.96
   3   6  -8   38.40    2.26
   3   6  -8   39.16    2.46
  -3  -6   8   38.70    2.49
   5   7  -4   12.08    0.82
  -5  -7   4   11.46    1.24
   5   7  -4   12.18    1.52
   5   7  -4   13.20    2.51
  -5  -7   4   15.74    2.30
   5   7  -4   14.08    1.25
   5   9   0    1.66    1.24
   5   9   0   -0.17    1.53
  -5  -9   0    0.20    0.37
  -5  -9   0    0.72    1.52
   5   9   0   -2.09    1.64
   6   0  -7   87.10    4.00
  -6   0   7   81.74    4.31
  -6   0   7   87.94    4.19
  -6   0   7   97.79    5.35
  -6  -8  -8   51.43    3.30
   6   8   8   46.35    2.80
  -6  -8  -8   47.60    3.22
   6   8   8   48.84    3.19
   6   8   8   43.91    2.99
   6   8   8   42.24    3.25
   1  -6  10  101.96    5.10
   1  -6  10  109.47    4.59
  -1   6 -10  102.14    4.84
   1  -6  10  108.36    5.66
  -3 -11  -4   69.88    3.98
  -3 -11  -4   70.41    2.92
   3  11   4   66.46    3.93
   5   2  13  102.68    4.76
  -5  -2 -13  105.17    4.91
  -5  -2 -13  112.08    5.22
   5   2  13  108.06    4.62
   5   2  13  111.39    5.27
   5   2  13  108.51    5.15
  -5   1   9   23.45    2.92
  -5   1   9   27.10    2.32
   5  -1  -9   24.09    2.15
   5  -1  -9   24.01    2.86
  -5   1   9   24.82    2.27
   8  -1   1   59.66    2.95
  -8   1  -1   57.80    3.89
   8  -1   1   71.24    4.00
  -8   1  -1   59.02    2.14
   8  -1   1   63.31    3.19
   8  -1   1   63.45    2.78
   4  -6  -9   41.09    2.42
  -4   6   9   45.76    3.25
  -4   6   9   47.72    2.78
  -2   7  11   80.23    4.11
   2  -7 -11   86.89    4.20
  -2   7  11   86.24    4.31
   2  -7 -11   89.42    4.19
   2  -7 -11   83.80    4.19
   4   6  13   81.29    3.95
   4   6  13   68.04    4.13
  -4  -6 -13   76.98    4.31
   4   6  13   73.63    4.18
  -4  -6 -13   77.27    3.97
  -4  -6 -13   82.79    4.26
   4   6  13   77.45    3.54
  -4   9  -2    1.98    1.45
  -4   9  -2    0.99    0.81
  -4   9  -2    2.07    1.56
  -8  -3  -6   88.30    3.80
   8   3   6   86.39    4.79
   8   3   6   94.26    3.96
   8   3   6   96.69    3.81
   8   3   6   93.69    4.15
   8   3   6   85.83    3.40
   3  -9  -7   26.15    2.00
   3  -9  -7   29.35    2.45
  -3   9   7   27.31    2.38
   7   7   4   64.57    2.37
   7   7   4   61.78    3.03
   7   7   4   59.51    3.68
   7   7   4   67.73    3.93
   7   7   4   64.90    3.75
   7   7   4   66.50    3.68
   4  -9  -4   37.69    2.75
  -4   9   4   45.72    3.28
  -4   9   4   41.79    2.81
   4  -9  -4   40.44    2.80
   8   1   0   31.39    3.23
  -8  -1   0   29.27    2.80
   8   1   0   27.10    1.77
   8   1   0   24.60    1.80
   8   1   0   28.31    2.20
   8   1   0   27.60    2.68
   7   7   5   63.73    2.48
   7   7   5   57.43    3.73
   7   7   5   65.25    3.75
   7   7   5   65.44    3.15
   7   7   5   66.55    3.87
  -1 -11  -7  135.54    5.38
   1  11   7  141.98    6.02
  -1 -11  -7  138.07    6.03
  -1 -11  -7  141.94    6.02
  -5   8   3    0.37    1.61
   5  -8  -3    2.06    1.71
  -5   8   3    1.41    1.22
   1  -5  11   56.69    3.49
   1  -5  11   52.98    2.95
  -1   5 -11   52.31    3.27
   1  -5  11   55.45    3.97
  -3 -11  -5   76.02    4.15
   3  11   5   71.08    3.98
   3  11   5   71.21    4.07
  -7   3  -7   19.65    1.21
  -7   3  -7   24.48    2.13
  -7   3  -7   22.18    2.46
   7  -3   7   21.39    2.34
   7  -3   7   21.82    2.42
  -7   3  -7   24.62    2.27
   5  -2  -9   99.82    4.59
  -5   2   9   95.31    4.74
  -5   2   9   98.76    3.75
  -5   2   9  103.95    5.56
  -5   2   9  104.92    4.81
   7  -1   9    2.41    1.43
  -7   1  -9    7.48    1.64
  -7   1  -9    5.22    1.83
  -7   1  -9    5.77    1.61
  -7   1  -9    4.17    1.07
   7  -1   9    3.82    1.80
  -4 -10  -8   33.39    1.62
  -4 -10  -8   34.28    2.74
   4  10   8   31.96    2.82
  -4 -10  -8   31.79    1.77
  -6   2   7   37.93    2.80
   6  -2  -7   54.11    3.17
  -6   2   7   49.31    3.25
   8   0   0   67.64    3.10
   8   0   0   64.22    2.65
  -8   0   0   68.59    4.18
   8   0   0   64.19    3.21
   8   0   0   67.68    3.88
   8   0   0   58.74    2.46
  -3 -11  -3   56.00    3.59
  -3 -11  -3   59.87    2.62
   3  11   3   59.07    3.66
  -2  -5 -14   46.56    3.24
  -2  -5 -14   45.17    3.01
   2   5  14   36.14    2.92
   2   5  14   45.69    2.99
   2   5  14   44.92    3.10
   2   5  14   43.28    2.84
  -3  -1 -14   33.27    2.79
   3   1  14   38.56    2.65
   3   1  14   40.16    3.31
   3   1  14   37.03    2.64
   3   1  14   35.76    2.81
  -3  -1 -14   37.58    2.67
  -3  -1 -14   32.29    2.63
  -7  -2   4   13.57    2.07
  -7  -2   4   15.05    1.58
   7   2  -4   11.96    1.43
   7   2  -4   18.42    2.04
   5  -6  -7    2.12    0.87
  -5   6   7    2.03    1.73
  -5   6   7    1.47    0.85
  -5   6   7    2.02    1.04
   5  -6  -7    1.54    1.40
   3   9  11   82.58    3.63
  -3  -9 -11   81.43    3.77
   3   9  11   77.71    4.39
   3   9  11   79.79    4.10
  -3  -9 -11   78.40    4.29
  -3  -9 -11   90.57    3.67
  -3  -9 -11   88.92    4.43
  -1   5  13   46.41    3.03
   1  -5 -13   50.77    3.03
   1  -5 -13   44.36    3.02
  -1   5  13   56.30    3.31
   1  -5 -13   50.48    3.02
  -1   5  13   52.91    3.31
  -1   5  13   46.38    2.77
  -7  -1 -10   35.90    2.32
   7   1  10   39.03    2.70
   7   1  10   38.87    3.13
  -7  -1 -10   36.37    2.70
  -3  -5   9   87.77    4.08
   3   5  -9   90.50    3.91
   3   5  -9   90.04    4.02
  -6  -3   6    4.01    1.24
  -6  -3   6    6.15    1.34
  -6  -3   6    5.44    2.15
  -1   9  10   15.41    1.92
   1  -9 -10   16.17    1.90
  -1   9  10   18.16    2.19
   1  -9 -10   20.89    2.05
  -5  -4 -13   12.10    1.93
   5   4  13   13.29    2.08
   5   4  13    9.70    1.97
   5   4  13   11.96    1.47
  -5  -4 -13   14.73    1.89
  -1  -7 -13   38.75    2.81
   1   7  13   39.08    2.67
   1   7  13   38.74    2.91
  -1  -7 -13   35.90    2.49
  -1  -7 -13   37.72    2.55
   1   7  13   35.88    2.68
   2  11   7   81.73    4.21
  -2 -11  -7   80.21    4.23
   2  11   7   78.49    4.47
  -2 -11  -7   79.84    4.20
  -2 -11  -7   74.39    3.35
   8   4   4   40.58    1.63
   8   4   4   44.84    2.75
   8   4   4   47.52    3.76
   8   4   4   44.92    2.66
   8   4   4   46.93    2.58
   8   4   4   44.65    3.31
   8   4   4   44.96    2.05
   3   7  -7  257.80    8.94
   3   7  -7  263.08    9.21
  -3  -7   7  247.74    8.70
   3   7  -7  233.00    9.59
  -1   7  12    0.38    1.27
  -1   7  12    0.15    1.33
   1  -7 -12    1.57    1.40
   1  -7 -12   -0.68    1.26
  -1   7  12    2.00    1.41
  -1   7  12    0.12    1.13
  -6  -3 -12   41.05    2.40
   6   3  12   37.11    2.31
  -6  -3 -12   38.13    2.93
  -6  -3 -12   42.12    2.79
   6   3  12   37.00    3.13
   6   3  12   37.88    2.93
   6   3  12   48.12    2.76
   3   9  -4   56.30    2.25
   3   9  -4   68.53    3.61
   3   9  -4   52.95    3.57
  -3  -9   4   61.99    3.66
  -7   5  -1    8.28    1.93
   7  -5   1    6.18    1.67
  -6   6  -5   27.34    2.67
   6  -6   5   32.65    2.69
  -6   6  -5   23.54    0.96
  -6   6  -5   35.19    2.42
   2   9  -5   58.04    3.64
   2   9  -5   60.78    3.55
   6  -5   7   53.29    3.40
  -6   5  -7   50.70    3.35
  -6   5  -7   42.93    2.00
  -6   5  -7   51.39    3.10
   6  -5   7   44.58    3.06
   7   6   0   31.21    2.51
   7   6   0   32.55    1.60
   7   6   0   38.81    2.73
   7   6   0   32.40    2.79
  -8   0  -6   36.14    2.24
  -8   0  -6   28.64    3.00
   8   0   6   43.93    3.28
  -6   1 -11    2.94    0.50
  -6   1 -11    2.24    1.41
  -6   1 -11    2.48    1.45
  -6   1 -11    4.77    1.26
   6  -1  11    5.56    1.52
   6   2  12  103.13    5.13
   6   2  12  120.29    5.07
   6   2  12  108.44    5.42
  -6  -2 -12  117.67    5.05
  -6  -2 -12  112.97    5.28
   6   2  12  112.50    4.59
  -6  -2 -12  114.33    4.49
  -5   0   9    1.42    1.26
  -5   0   9    0.27    1.35
   5   0  -9    1.57    1.37
  -5   0   9    0.45    1.87
   5   0  -9   -0.97    1.85
   1 -11  -5   18.84    2.11
   1 -11  -5   18.83    2.01
  -1  11   5   22.70    2.06
   7   7   3   29.50    1.24
   7   7   3   30.99    1.91
   7   7   3   31.46    2.60
   7   7   3   29.43    2.71
   7   7   3   28.19    2.70
   7   7   3   29.38    2.75
   5  -4  10    5.72    1.47
   5  -4  10    8.57    1.94
   5  -4  10    5.01    1.61
  -5   4 -10    5.40    1.66
  -5   4 -10    6.22    1.56
  -5   4 -10    8.37    1.25
  -3  10   4  125.08    4.88
  -3  10   4  137.97    6.08
   3 -10  -4  126.06    5.31
   3 -10  -4  136.74    5.49
  -3  10   4  134.93    5.77
   3 -10  -4  131.49    5.71
  -2  -6   9   10.97    1.66
   2   6  -9    9.42    1.43
   2   6  -9   11.17    1.73
   7  -5   2    5.56    1.67
  -7   5  -2    3.77    1.12
  -7   5  -2    5.87    1.88
   2  -5  11   43.80    2.76
   2  -5  11   38.84    3.39
   2  -5  11   41.24    3.10
  -2   5 -11   46.01    3.11
   8   3   1    2.45    1.79
   8   3   1    1.69    2.14
   8   3   1    2.40    0.76
  -8  -3  -1    2.55    1.60
   8   3   1    1.80    1.21
   8   3   1    3.10    1.47
   2  -6  10   29.19    2.25
  -2   6 -10   25.41    2.37
  -2   6 -10   24.85    2.06
   2  -6  10   26.94    3.00
   2  -6  10   26.35    2.55
   4  -5  10   38.77    2.41
  -4   5 -10   45.71    3.01
   4  -5  10   42.88    2.90
  -4   5 -10   43.39    2.61
  -4   5 -10   41.71    2.03
   3   7  13   23.26    2.41
  -3  -7 -13   24.67    2.20
   3   7  13   21.34    1.94
   3   7  13   20.84    1.94
   8   4   3    0.66    0.51
   8   4   3    1.48    1.03
   8   4   3    3.48    2.17
   8   4   3    0.20    0.41
   8   4   3    1.39    1.65
  -8  -4  -3   -0.38    1.65
   8   4   3    2.13    1.46
   8   4   3    2.27    1.34
  -6  -7 -10   68.73    3.83
  -6  -7 -10   65.94    3.71
   6   7  10   65.84    3.91
   6   7  10   73.33    3.89
   6   7  10   67.89    3.89
   8   4   5   41.06    2.14
   8   4   5   44.17    2.64
   8   4   5   41.90    3.49
   8   4   5   46.50    2.70
   8   4   5   38.87    1.61
   8   4   5   46.63    3.41
   8   4   5   44.96    2.50
   8   4   5   46.00    2.69
   7   7   6  146.08    5.75
   7   7   6  137.29    6.11
   7   7   6  143.09    6.24
   7   7   6  151.68    5.03
   7   7   6  135.16    6.40
   7   7   6  145.84    6.05
   7   4  10   51.16    2.39
   7   4  10   48.08    2.83
   7   4  10   52.73    3.67
   7   4  10   57.69    3.24
  -7  -4 -10   45.21    3.01
   7   4  10   53.25    3.00
  -7  -4 -10   50.91    3.03
  -7  -4 -10   49.29    2.71
   0  -6  10    1.11    2.00
   0   6 -10    3.61    1.66
   1  -7   9  111.66    4.67
  -1   7  -9  110.54    4.89
  -1   7  -9  109.88    5.06
   1  -7   9  106.65    5.73
   8  -1   5   18.05    1.84
   8  -1   5   26.00    2.21
  -8   1  -5   20.12    2.58
  -8   1  -5   23.78    1.92
   8  -1   5   22.66    2.46
  -8   1  -5   21.27    1.75
   2  10  -3    4.48    1.57
   2  10  -3    3.64    0.89
   2  10  -3    3.67    1.72
   2  10  -3    5.90    1.70
  -6   6   4   78.51    4.54
   6  -6  -4   82.20    4.14
   6  -6  -4   72.24    4.45
  -4   4 -11   29.79    2.55
   4  -4  11   37.51    2.41
   4  -4  11   38.17    2.71
   4   6  -7   12.16    2.45
  -4  -6   7   11.06    2.18
   4   6  -7   12.85    1.34
   4   6  -7   14.26    1.62
  -4  -6   7   10.10    1.44
   4   6  -7   13.11    1.42
   0   9  -6    6.94    1.63
   0  -9   6    7.99    1.25
   0  -9   6   10.36    2.08
   0   9  -6    8.45    0.64
   0   9  -6   10.01    2.04
  -4   1 -13   76.35    3.83
   4  -1  13   86.40    4.10
  -4   1 -13   77.57    4.13
  -4   1 -13   73.16    4.00
   4  -1  13   79.80    3.99
  -5   5   8   11.84    1.83
  -5   5   8   10.26    0.81
  -5   5   8   14.27    2.09
   5  -5  -8   15.27    1.98
  -5   5   8   11.16    1.32
   5  -5  -8   12.85    1.38
   7  -5   0   -0.14    1.49
   7  -5   0   -0.22    1.99
   0  -3 -14   55.84    3.21
   0  -3 -14   52.18    3.35
   0   3  14   47.28    3.11
   0   3  14   51.70    3.17
  -8  -2   0    6.70    1.86
   8   2   0    5.65    2.15
   8   2   0    8.74    1.19
   8   2   0    6.99    1.95
   8   2   0    9.33    1.68
   8   2   0    9.33    1.34
   0  -2 -14   78.98    4.03
   0  -2 -14   77.85    4.13
   0   2  14   85.43    4.22
   0  -2 -14   81.10    4.02
   0   2  14   77.91    4.19
  -1  11   0   17.94    2.00
   1 -11   0   19.22    1.87
   1 -11   0   16.14    1.97
  -1  11   0   16.62    2.20
   6   6  11    3.24    1.52
   6   6  11    2.89    1.64
   6   6  11    1.63    1.55
  -6  -6 -11    3.57    1.63
   6   6  11    3.03    0.85
  -6  -6 -11    3.33    1.43
  -6  -6 -11    3.00    1.34
   6   6  11    3.05    1.73
   6  -7   0   51.17    2.30
   6  -7   0   53.48    3.34
  -6   7   0   49.41    3.45
   4  10   0   18.80    1.80
  -4 -10   0   15.82    1.90
   4  10   0   17.12    2.20
  -2  10  -3    0.34    1.54
  -2  10  -3    0.63    1.13
  -2  10  -3   -0.11    1.24
  -3  10  -1   17.87    2.08
  -3  10  -1   13.66    1.52
   3 -10   1   14.11    1.62
  -3  10  -1   16.24    2.13
  -3 -11  -6   82.88    3.35
   3  11   6   88.67    4.66
   3  11   6   85.25    4.49
  -3 -11  -6   86.56    3.12
   5   1  13   73.45    4.16
  -5  -1 -13   70.16    3.83
   5   1  13   73.36    4.13
   5   1  13   77.15    3.78
  -5  -1 -13   76.87    4.16
   5   1  13   77.42    3.85
   2   0  14    9.64    1.64
  -2   0 -14    8.64    1.82
   2   0  14    6.93    2.17
  -2   0 -14    6.40    1.71
   2   0  14    3.65    1.33
   2   0  14    6.59    1.57
  -2   0 -14    7.71    1.88
  -6  -1   7   34.85    2.45
  -6  -1   7   31.81    2.52
   6   1  -7   36.29    2.40
   1  -9   6   13.03    1.55
  -1   9  -6   12.53    2.10
  -1   9  -6   10.11    1.07
   1  -9   6    9.69    2.11
  -1   9  -6    9.25    1.58
  -1  -5 -14    4.49    1.58
  -1  -5 -14    8.52    1.87
  -1  -5 -14    6.00    1.55
   1   5  14    5.77    1.68
   1   5  14    7.15    1.61
   1   5  14    5.42    1.50
  -6   7  -1   66.54    4.01
   6  -7   1   58.14    2.36
   6  -7   1   64.67    3.64
  -3  -2  11   12.42    1.78
   3   2 -11   15.55    1.61
   3   2 -11   11.36    2.41
  -3  -2  11   12.55    1.08
   3   2 -11   10.68    1.74
   3   2 -11   10.93    1.26
   2 -10  -7    5.63    1.36
  -2  10   7    6.16    1.25
  -2  10   7    5.80    1.65
   2  -9  -9    0.61    1.23
   2  -9  -9    0.54    1.26
  -2   9   9    0.81    1.38
   2  -9  -9    0.57    1.01
   8   2   7   16.44    1.92
   8   2   7   19.91    1.63
  -8  -2  -7   16.39    1.66
  -8  -2  -7   15.92    1.61
   0 -10   4   49.69    2.50
   0 -10   4   51.08    3.40
   0  10  -4   46.20    2.98
   0  10  -4   50.15    2.39
   0  10  -4   50.09    3.41
   3  11   2   82.69    4.42
  -3 -11  -2   61.19    2.72
  -2  -7   8   80.51    3.80
   2   7  -8   83.11    3.96
   3   5  14   57.40    3.77
   3   5  14   67.51    3.77
   3   5  14   66.29    3.45
  -3  -5 -14   59.86    3.67
   3   5  14   66.11    3.73
  -3  -5 -14   73.56    3.84
   5   9   9    0.79    1.54
   5   9   9    3.05    0.89
  -5  -9  -9    1.28    1.46
  -5  -9  -9    2.15    1.53
   5   9   9    1.42    1.64
  -1  -3  12   11.59    1.78
   1   3 -12   13.12    1.83
   1   3 -12   12.84    1.61
   1   3 -12   14.60    2.00
  -1  -3  12   11.93    1.73
   8  -1   0   67.41    3.35
   8  -1   0   75.05    4.18
  -8   1   0   73.82    4.42
  -5   3 -11   15.93    1.60
  -5   3 -11   15.25    2.06
  -5   3 -11   13.04    1.92
   5  -3  11   12.16    2.35
   5  -3  11   16.37    1.82
   5  -3  11   17.24    2.02
   4   5  -8    8.46    2.34
  -4  -5   8    5.66    1.30
   4   5  -8    5.45    1.24
  -4  -5   8    8.75    2.24
   4   5  -8    5.81    1.19
   5  -5   9   -0.31    1.31
   5  -5   9   -0.71    1.78
  -5   5  -9    0.86    1.47
  -5   5  -9   -0.29    1.45
   5  -5   9    0.37    1.19
  -6  -7   2  101.94    5.14
   6   7  -2  107.43    5.46
   6   7  -2   97.58    4.31
  -6  -7   2   90.18    3.34
   6   7  -2   92.41    4.82
  -2 -11   0   27.35    1.05
   2  11   0   33.57    2.72
   2  11   0   36.16    2.77
  -2 -11   0   34.57    2.09
   3  -2  13   43.00    2.83
   3  -2  13   45.15    2.87
  -3   2 -13   42.98    2.87
   3  -2  13   42.28    3.56
   3  -2  13   36.04    3.01
  -3   2 -13   31.26    2.74
   3  -2  13   44.33    2.54
  -6  -4 -12    5.67    1.70
   6   4  12    4.89    1.55
  -6  -4 -12    5.92    1.51
   6   4  12    3.78    1.75
   6   4  12    4.74    1.78
   6   4  12    5.00    1.16
  -6  -4 -12    3.97    1.17
   5  -3  -9   80.19    4.06
  -5   3   9   75.28    4.06
  -5   3   9   66.76    3.89
  -5   3   9   75.35    4.64
  -5  -3   8  102.50    4.14
  -5  -3   8  101.95    5.54
   5   3  -8  102.41    3.65
   5   3  -8   95.51    5.60
  -5  -3   8   97.13    4.46
   5   3  -8   93.60    3.37
   0   8  12   -0.14    1.31
   0  -8 -12    0.87    1.25
   0   8  12    0.38    1.10
   0   8  12    0.17    1.38
   0  -8 -12    1.32    1.38
   0  -5  11   55.20    3.18
   0  -5  11   47.04    3.82
   0  -5  11   46.85    3.24
   0   5 -11   49.27    3.20
   3  10  -2   72.99    4.15
   3  10  -2   73.77    3.23
   3  10  -2   68.01    4.08
  -3 -10   2   73.53    3.78
   3  10  -2   74.75    4.07
   2   5 -10   42.70    2.71
  -2  -5  10   44.93    2.88
   2   5 -10   48.31    2.77
  -3   7  10   74.95    3.86
   3  -7 -10   71.72    4.01
   3  -7 -10   74.85    3.91
   3  -7 -10   78.02    3.63
  -3   7  10   75.18    4.08
  -5   8  -3   31.92    2.72
  -2 -10 -10    6.65    1.63
  -2 -10 -10    5.46    1.27
   2  10  10    6.87    1.59
  -2 -10 -10    9.36    1.30
   0 -11   1   94.47    4.37
   0  11  -1   93.40    4.56
   0   7  -9   43.84    3.02
   0   7  -9   47.82    3.07
   0  -7   9   47.79    3.78
   6  -7  -1   50.13    3.65
   6  -7  -1   44.19    3.08
  -6   7   1   46.83    3.41
   4  -8  -7   89.60    4.40
  -4   8   7   94.81    4.83
  -4   8   7   82.77    4.25
   4  -8  -7   88.91    3.75
   7  -5   3   39.16    2.86
  -7   5  -3   38.85    3.15
  -7   5  -3   33.69    2.27
  -8  -1  -7    1.36    0.95
   8   1   7    0.14    1.31
  -8  -1  -7    0.53    1.11
   8   1   7    0.57    1.63
   1   0  14    8.33    1.67
   1   0  14   10.86    1.50
   1   0  14    9.43    1.71
  -1   0 -14   11.31    1.82
  -1   0 -14    7.41    1.80
  -1   0 -14    8.77    1.59
   1   0  14    9.85    2.37
   8  -2   2    3.83    2.17
   8  -2   2    0.98    1.05
   8  -2   2    0.80    1.16
   8  -2   2    1.53    0.72
  -8   2  -2    1.02    1.70
  -8   2  -2    0.64    0.77
  -8   2  -2    0.66    0.97
   5  -7  -6   75.64    4.15
   5  -7  -6   71.64    2.99
  -5   7   6   65.79    3.49
  -5   7   6   76.35    4.27
  -5   7   6   71.43    3.22
   5  -7  -6   73.46    3.95
   6   8   0   50.58    3.59
   6   8   0   57.69    3.56
   6   8   0   57.83    3.62
   6   8   0   48.47    3.02
   6   8   0   52.30    2.70
   0  11   7    1.29    1.40
   0 -11  -7    2.89    1.29
   0  11   7    1.59    1.39
   0 -11  -7    0.46    1.40
   0 -11  -7    1.88    1.46
  -8   2  -3    2.78    1.09
   8  -2   3    3.99    0.61
   8  -2   3    2.57    1.22
  -8   2  -3    2.47    0.94
   8  -2   3    3.10    1.33
   1  -4  12   44.60    3.68
   1  -4  12   44.00    3.13
  -1   4 -12   46.18    3.09
   1  -4  12   41.02    2.82
   0   2 -13    3.85    1.44
   0  -2  13    3.44    0.74
   0  -2  13    3.75    1.40
   0  -2  13    2.33    2.09
   0  -2  13    4.61    1.52
   0   2 -13    3.01    1.51
   0   2 -13    0.84    1.52
   0  -9 -11    0.73    1.23
   0  -9 -11   -0.15    1.31
   0   9  11   -0.69    1.38
   0   9  11   -0.14    1.38
   6   1  12   43.32    3.07
  -6  -1 -12   39.44    2.87
   6   1  12   40.38    2.82
  -6  -1 -12   43.88    2.67
   6   1  12   44.33    3.30
  -6  -1 -12   37.79    2.06
   3  -8  -9   29.80    2.16
   3  -8  -9   32.57    2.57
  -3   8   9   30.51    2.61
  -3   8   9   29.76    2.44
   8   4   2    0.20    2.04
   8   4   2   -1.69    1.61
   8   4   2    1.24    0.93
   8   4   2   -0.53    1.59
  -8  -4  -2   -0.37    1.63
   8   4   2    3.05    1.46
   4   7  -6   45.74    2.77
   4   7  -6   46.39    3.36
   4   7  -6   48.47    2.58
  -4  -7   6   46.19    3.51
  -4  -7   6   48.55    2.58
   4   7  -6   43.44    2.10
   8   4   6   87.09    4.04
   8   4   6   82.05    4.66
   8   4   6   75.77    2.86
   8   4   6   82.54    4.93
   8   4   6   86.49    3.86
   8   4   6   86.18    3.58
   8   4   6   93.95    3.86
   1  10  10    1.39    1.30
  -1 -10 -10    2.34    1.23
  -1 -10 -10    1.87    1.53
   1  10  10   -0.18    1.47
  -7   3   4   81.98    2.72
   7  -3  -4  114.32    5.69
   7  -3  -4   98.67    3.55
   7  -3  -4  111.33    4.79
  -7   3   4  108.21    5.07
   8   3   7   43.01    2.10
   8   3   7   46.05    2.51
  -8  -3  -7   41.03    2.47
  -8  -3  -7   42.50    2.55
   8   3   7   48.07    2.87
   8   3   7   42.38    2.47
   7  -4  -3   44.09    3.64
  -7   4   3   51.13    3.57
  -7   4   3   44.76    2.11
   7  -4  -3   45.15    2.92
  -7   4   3   46.70    1.85
  -4  -3 -14   35.27    2.80
  -4  -3 -14   33.41    2.80
   4   3  14   32.30    2.37
  -4  -3 -14   31.77    2.61
   4   3  14   33.41    2.84
  -1 -11   1   45.10    2.05
   1  11  -1   46.35    3.25
   1  11  -1   44.44    3.10
   7   4  -3   13.07    0.88
   7   4  -3   12.27    0.93
  -7  -4   3   11.31    1.25
   7   4  -3   13.15    1.77
  -7  -4   3   13.66    1.85
   6  -3  -7   37.55    2.64
  -6   3   7   32.85    3.00
  -6   3   7   38.43    2.74
   1   1 -13   80.74    3.76
   1   1 -13   76.69    4.00
  -1  -1  13   74.47    3.85
   1   1 -13   81.31    4.08
  -1  -1  13   70.61    3.70
   4  -6   9   35.23    2.71
  -4   6  -9   38.20    2.52
  -4   6  -9   35.05    2.71
   0  -4 -14    2.04    1.43
   0  -4 -14   -1.09    1.53
   0  -4 -14   -0.43    1.37
   0   4  14   -0.88    1.27
   0   4  14    0.62    1.32
  -6   7  -2   96.47    4.98
   6  -7   2   97.98    4.79
   7   7   2   12.58    2.05
   7   7   2   16.37    1.38
   7   7   2   12.98    0.66
   7   7   2   17.79    2.16
  -2   4 -12   43.99    3.06
   2  -4  12   44.31    3.19
   2  -4  12   43.45    1.99
   2  -4  12   50.41    2.93
   2  -4  12   38.66    3.57
  -1  10  -4   11.41    1.42
   1 -10   4   14.58    1.58
  -1  10  -4   16.00    1.77
   1 -10   4   13.09    2.04
  -1  10  -4   11.94    1.82
   0  -1 -14  128.85    5.47
   0   1  14  117.89    5.31
   0  -1 -14  113.98    5.35
   7  -4   6   87.80    4.47
  -7   4  -6  102.77    4.48
  -7   4  -6   92.69    5.04
  -7   4  -6   98.17    4.62
   7  -4   6   88.88    4.60
   4   2 -10   13.36    1.40
  -4  -2  10   10.97    1.61
   4   2 -10   10.06    1.58
  -4  -2  10   11.37    1.26
   4   2 -10   13.53    1.10
  -2   7  -9   20.78    2.22
   2  -7   9   27.91    2.84
   2  -7   9   23.89    2.02
  -2   7  -9   25.01    1.99
   7  -5  -1    1.37    1.49
   7  -5  -1    2.90    1.97
   4  -5 -10   72.57    3.40
  -4   5  10   72.12    2.83
  -4   5  10   64.78    3.86
   4  -5 -10   70.40    4.33
  -4   5  10   72.72    3.47
  -4   5  10   72.81    4.31
  -4   5  10   71.33    4.00
   4  -5 -10   69.27    3.77
   7   5  -2   11.47    2.01
   7   5  -2   12.47    1.88
  -7  -5   2    9.84    1.03
   7   5  -2   11.87    1.73
  -7   0 -10   25.98    2.33
   7   0  10   30.41    2.50
   7   0  10   24.09    2.62
  -7   0 -10   24.80    1.86
  -7   0 -10   25.32    2.42
   5  10   5  197.70    7.96
  -5 -10  -5  210.77    8.41
   5  10   5  214.44    7.93
   5  10   5  189.94    8.13
   7   7   7   67.61    3.93
   7   7   7   69.70    3.58
   7   7   7   68.85    2.85
   7   7   7   66.51    3.86
   7   7   7   71.92    4.21
   7   7   7   63.94    3.75
  -8   2  -1    1.03    1.59
   8  -2   1    1.57    0.95
   8  -2   1   -0.95    2.05
   8  -2   1    1.13    1.31
   8  -2   1    3.10    1.82
   8  -2   1    1.44    0.90
  -8   2  -1    0.15    0.62
   5  10   4  154.25    6.39
   5  10   4  156.32    6.48
   5  10   4  146.29    6.70
  -4  -2 -14    2.00    1.61
  -4  -2 -14    2.91    1.54
  -4  -2 -14    1.16    1.53
   4   2  14    2.41    1.26
   4   2  14    3.85    1.70
  -5   7  -6   81.74    4.36
   5   5  13    6.68    1.33
  -5  -5 -13    7.25    1.73
  -5  -5 -13    6.89    1.78
   5   5  13    6.70    1.90
   5   5  13    9.11    2.12
  -5   8   4   19.37    2.49
   5  -8  -4   21.07    2.41
  -5   8   4   24.12    1.96
   3  -2 -12  150.82    7.15
  -3   2  12  154.01    5.67
   3  -2 -12  172.25    6.61
  -3   2  12  158.88    6.09
  -3   2  12  156.48    6.28
  -3   2  12  162.71    6.64
  -3   2  12  161.24    7.12
   3  -2 -12  157.40    6.19
   3   4 -10   50.93    3.88
   3   4 -10   42.28    2.58
   3   4 -10   48.17    2.70
  -3  -4  10   47.50    2.86
  -4   9  -3   39.91    3.01
  -4   9  -3   29.37    2.68
  -4   9  -3   34.11    2.01
  -2   6  12    0.56    1.15
   2  -6 -12   -1.28    1.45
  -2   6  12   -0.10    1.00
   2  -6 -12   -0.62    1.46
   2  -6 -12    1.93    1.27
  -2   6  12    0.77    1.42
  -2   6  12    0.16    1.54
   4  -3  12   14.72    2.18
  -4   3 -12   18.33    2.18
  -4   3 -12   16.69    2.06
   4  -3  12   12.68    1.86
   5   1  -9    6.01    1.68
  -5  -1   9    6.19    2.21
   5   1  -9    8.85    0.95
  -5  -1   9    8.59    1.46
   5   1  -9    7.11    2.30
  -5  -1   9    7.45    1.61
  -2  -2  12   38.28    2.51
  -2  -2  12   32.38    1.53
   2   2 -12   40.45    2.39
  -2  -2  12   41.51    2.71
   2   2 -12   44.06    2.82
   2   2 -12   32.69    2.46
  -1 -10   4  100.88    3.77
   1  10  -4   97.42    3.69
   1  10  -4  110.23    5.11
   1  10  -4  102.22    4.90
   4  -9  -5   70.49    3.14
  -4   9   5   73.01    4.34
   4  -9  -5   72.46    3.84
  -4   9   5   72.48    3.68
   4  -9  -5   81.74    4.03
   8  -2   4   25.71    2.16
  -8   2  -4   25.43    1.94
   8  -2   4   27.45    2.19
  -8   2  -4   19.15    2.60
   8  -2   4   23.92    2.51
  -8   2  -4   26.79    1.86
   8   0  -1   74.24    4.20
  -8   0   1   77.88    4.54
   8   0  -1   70.56    3.02
   8   0  -1   74.84    3.41
  -3   0 -14   60.31    3.35
   3   0  14   59.86    3.37
   3   0  14   58.27    3.66
   3   0  14   57.74    4.01
  -3   0 -14   56.09    3.54
  -3   0 -14   56.89    3.46
   3   0  14   56.36    3.24
  -3  -8   6   12.82    1.49
   3   8  -6   14.46    2.23
   3   8  -6   13.04    1.87
   3  -8   7   14.12    1.90
  -3   8  -7   13.53    1.60
  -3   8  -7   14.55    1.38
  -4  -4 -14   81.45    4.24
   4   4  14   90.21    4.63
   4   4  14   86.95    4.05
   4   4  14   80.19    4.57
  -4  -4 -14   89.82    4.42
  -4  -4 -14   79.38    4.41
   8   1  -1    9.86    2.52
   8   1  -1    5.42    1.10
   8   1  -1    8.12    1.23
  -8  -1   1    5.93    1.71
   8   1  -1    9.53    2.00
   1 -11  -6   17.74    2.10
   1 -11  -6   20.48    2.03
   1 -11  -6   16.31    1.95
  -1  11   6   17.49    1.84
   6   8   9  116.01    5.28
   6   8   9  115.50    5.28
   6   8   9  103.30    5.45
  -6  -8  -9  111.66    5.28
  -6  -8  -9  119.97    5.40
   6   8   9  112.18    4.86
   6   8   9  110.11    5.25
  -4  -9   3   54.39    2.54
   4   9  -3   52.94    3.20
   4   9  -3   56.52    2.59
   4   9  -3   60.69    3.81
   4   9  -3   56.72    3.70
  -4  -9   3   53.90    3.46
   7   6   9    4.28    1.96
   7   6   9    4.22    1.70
  -7  -6  -9    6.16    1.62
   7   6   9    3.68    1.68
  -7  -6  -9    4.88    1.50
   7   6   9    3.34    1.58
   7   6   9    2.62    0.39
   7   6   9    3.25    1.04
  -7   0   5   83.03    4.56
  -7   0   5   87.67    4.08
  -5  -8   3    8.96    1.07
   5   8  -3    6.03    2.12
   5   8  -3    9.27    1.63
   5   8  -3    9.96    1.24
   5   8  -3    8.35    2.01
  -5  -8   3   10.55    2.05
   3 -10  -5   41.84    2.89
   3 -10  -5   36.96    2.35
   6   9   5   20.82    2.07
   6   9   5   14.96    2.28
   6   9   5   21.46    2.41
  -3   1  12  158.61    6.05
  -3   1  12  166.30    6.59
  -3   1  12  159.81    7.21
   3  -1 -12  155.29    6.19
  -3   1  12  161.04    6.13
   3  -1 -12  160.95    7.36
   3  -1 -12  171.14    6.60
  -3   1  12  148.78    5.64
   1   9  -6   48.09    3.25
   1   9  -6   36.28    2.91
   6   9   4   65.89    3.97
   6   9   4   76.73    4.22
   6   9   4   71.83    3.71
   6   9   4   70.76    4.03
   3  11   7    5.47    1.65
  -3 -11  -7    4.27    0.94
   3  11   7    3.17    1.82
  -3 -11  -7    4.61    0.87
  -3 -11  -7    6.38    1.70
  -3   9  -5    0.52    1.52
  -3   9  -5    3.05    1.28
   4   8  12    0.51    1.43
   4   8  12   -0.50    1.02
   4   8  12   -0.52    1.58
   4   8  12    0.09    0.95
  -4  -8 -12    0.83    1.44
  -4  -8 -12    1.84    1.30
  -4  -8 -12    0.30    1.47
   6  -7  -2   30.45    3.09
   6  -7  -2   40.31    2.87
  -6   7   2   32.93    2.92
   7  -1  -5   12.46    1.60
  -7   1   5   14.01    1.81
  -7   1   5   13.29    2.13
   8  -1   6    0.73    1.64
  -8   1  -6    0.21    1.10
  -8   1  -6    0.20    1.65
   8  -1   6    6.11    1.80
  -8   1  -6    1.24    1.43
  -3   3  12   92.21    4.56
   3  -3 -12   94.71    4.49
   3  -3 -12   96.09    4.32
   3  -3 -12   91.65    4.24
  -3   3  12   88.48    4.12
   3  -3 -12   90.97    5.12
  -3   3  12   96.20    5.15
  -2   2  13  152.02    6.44
   2  -2 -13  157.24    6.41
  -2   2  13  159.71    7.05
   2  -2 -13  162.45    6.42
  -2   2  13  155.42    6.22
  -5 -10  -6  197.26    8.02
   5  10   6  168.78    5.89
   5  10   6  169.10    6.98
   5  10   6  167.30    7.20
   5  10   6  172.50    7.14
   5   8  11   67.65    4.10
   5   8  11   82.14    4.10
  -5  -8 -11   75.10    3.97
   5   8  11   71.85    2.99
  -5  -8 -11   76.17    4.15
  -5  -8 -11   71.20    3.45
   5   8  11   71.06    4.08
   5  10   3  131.17    5.26
   5  10   3  146.04    6.11
   5  10   3  130.69    5.69
   5  10   3  125.66    5.63
   5  10   3  117.47    5.94
   8   3   0    1.71    2.04
   8   3   0    1.11    1.25
   8   3   0    0.41    1.42
   8   3   0   -0.95    1.76
   8   3   0   -0.06    0.77
  -8  -3   0    1.08    1.69
  -1 -11  -8   94.73    4.67
  -1 -11  -8   86.79    3.97
   1  11   8   83.10    4.18
  -1 -11  -8   87.48    4.55
   5   7  12   54.65    3.29
  -5  -7 -12   53.29    3.34
  -5  -7 -12   46.43    3.31
  -5  -7 -12   50.61    3.18
   5   7  12   47.71    3.50
  -5  -7 -12   46.80    2.83
   5   7  12   46.72    3.31
   5   7  12   47.31    2.46
   5   9  -1    1.06    1.63
  -5  -9   1    0.51    0.55
   5   9  -1   -0.32    1.21
   5   9  -1    1.63    1.67
  -5  -9   1   -0.31    1.52
   3  11   1   71.17    4.11
  -3 -11  -1   72.39    3.07
  -3 -11  -1   68.50    3.21
   3  11   1   74.42    4.18
  -7  -3   4   51.96    2.72
  -7  -3   4   50.86    3.19
   7   3  -4   52.32    3.00
   7   3  -4   48.41    2.54
  -8   0  -7   17.45    1.74
  -8   0  -7   14.03    2.28
   8   0   7   15.57    2.32
  -8   0  -7   15.41    1.35
   2  11   8   88.13    4.47
   2  11   8   89.76    4.79
  -2 -11  -8   93.89    4.68
  -2 -11  -8  100.85    4.77
  -2 -11  -8   82.92    3.73
  -7  -5 -10   14.83    1.76
  -7  -5 -10   17.82    2.07
   7   5  10   16.10    2.04
   7   5  10   21.87    2.61
   7   5  10   17.41    2.18
   7   5  10   14.60    1.82
   7   5  10   17.24    1.68
  -7  -5 -10   14.10    1.92
   7   5  10   16.81    1.19
   4   4  -9    4.54    1.14
   4   4  -9    3.70    2.19
  -4  -4   9    4.10    1.97
  -4  -4   9    4.35    1.38
   4   4  -9    5.45    1.29
  -2  -6 -14    6.50    1.68
  -2  -6 -14    6.18    1.74
   2   6  14    8.51    1.86
   2   6  14    9.11    1.77
   2   6  14    4.45    1.52
  -2  -6 -14    5.91    1.75
  -2  11   2   43.17    3.13
   2 -11  -2   34.54    2.72
   2 -11  -2   38.52    2.63
  -2  11   2   36.02    2.45
  -1  11  -1   64.50    3.44
  -1  11  -1   68.40    4.01
  -1  11  -1   66.55    3.61
   1 -11   1   63.56    3.42
  -4 -10  -9   32.50    1.68
  -4 -10  -9   31.82    1.90
   4  10   9   26.55    2.69
  -4 -10  -9   29.52    2.64
   2  -3 -13  114.47    5.10
   2  -3 -13  118.55    5.10
  -2   3  13  113.43    4.97
  -2   3  13  113.12    5.68
   2  -3 -13  113.21    5.76
   7  -5   4   17.73    2.20
  -7   5  -4   21.58    1.95
   7  -5   4   19.61    2.20
  -7   5  -4   23.85    2.57
   2   8  -7    6.71    1.82
  -2  -8   7    9.01    1.47
   2   8  -7    7.89    1.85
   3  10  10   71.34    4.34
  -3 -10 -10   74.34    3.28
  -3 -10 -10   79.39    4.18
   3  10  10   87.65    4.31
  -3 -10 -10   80.89    4.25
  -3 -10 -10   74.34    3.36
  -3  10  -2   13.15    2.09
  -3  10  -2   13.77    1.87
  -3  10  -2   10.95    1.48
   0   7  13   90.37    4.31
   0   7  13   89.11    4.37
   0  -7 -13   91.26    4.39
   0   7  13   89.24    4.56
   0  -7 -13   98.26    4.62
   0   7  13   88.03    4.13
  -3   6  11   48.44    3.33
  -3   6  11   48.85    2.51
  -3   6  11   49.22    2.98
   3  -6 -11   49.98    3.13
   3  -6 -11   49.49    2.89
   3  -6 -11   52.76    3.46
  -1   8  -8  103.18    4.67
   1  -8   8  100.29    5.38
   1  -8   8  106.08    4.46
  -6  -9  -6   83.89    4.39
   6   9   6   88.27    4.65
   6   9   6   86.48    4.36
   6   9   6   95.73    4.77
  -2   9  -6   41.97    2.34
  -2   9  -6   34.78    2.30
   2  -9   6   38.41    2.52
   2  -9   6   34.02    3.00
   3  -5  11    0.80    0.86
   3  -5  11    1.10    1.40
   3  -5  11    0.18    1.48
  -2  11   3   51.14    2.90
   2 -11  -3   47.92    3.17
   2 -11  -3   53.07    3.12
   2 -11  -3   50.61    2.61
  -2  11   3   57.93    3.52
  -6  -5 -12   51.94    3.02
   6   5  12   62.43    3.65
  -6  -5 -12   55.82    3.36
  -6  -5 -12   54.68    3.44
   6   5  12   53.19    3.55
   6   5  12   49.43    3.66
   6   5  12   53.34    2.62
  -5   2 -12    0.48    1.40
   5  -2  12   -1.26    1.40
  -5   2 -12    1.94    1.21
  -5   2 -12   -0.63    1.53
  -5   6  -8   90.94    4.41
  -5   6  -8   83.17    4.28
   5  -6   8   79.39    3.92
   5  -6   8   82.22    4.54
   5  -6   8   86.88    4.40
  -5   0 -13   26.64    2.46
   5   0  13   28.35    2.51
  -5   0 -13   26.22    2.29
   5   0  13   27.79    2.40
   0  -4  12   67.39    3.57
   0  -4  12   68.26    4.54
   0  -4  12   57.21    3.55
   0   4 -12   65.34    3.64
   0   4 -12   62.01    3.60
  -4   8  -6   76.31    3.92
   6  -3  10   39.72    3.23
  -6   3 -10   35.59    2.16
   6  -3  10   36.17    2.76
  -6   3 -10   36.70    2.81
  -6   3 -10   32.09    2.75
  -6   3 -10   43.14    2.89
  -6  -2   7    2.15    1.28
  -6  -2   7    0.89    1.25
   6   2  -7   -0.63    1.19
  -6  -2   7    2.59    2.19
  -8   1   1  105.54    5.45
   8  -1  -1  103.88    5.04
   8  -1  -1   88.85    5.46
   8  -1  -1   95.62    3.43
   8  -1  -1   96.71    4.26
   1 -10  -9   48.92    3.00
  -1  10   9   46.96    2.82
  -1  10   9   52.22    3.44
   1 -10  -9   52.46    3.14
  -6   5   6   55.62    3.71
   6  -5  -6   55.68    3.28
   6  -5  -6   55.11    3.67
   6  -5  -6   50.52    2.27
  -6   5   6   51.23    2.51
   8  -2   0    0.34    1.67
   8  -2   0   -0.80    1.26
   8  -2   0    0.24    2.07
  -8   2   0    0.03    0.38
  -8   2   0   -0.21    1.60
   8   4   1   15.59    1.83
   8   4   1   12.38    2.53
  -8  -4  -1   16.07    2.25
   8   4   1   14.90    2.15
   8   4   1   14.96    1.36
   8   4   1   14.15    1.98
   8   4   1   15.64    1.00
  -6   7  -3   88.28    4.76
   6   9   3   58.88    3.60
   6   9   3   64.12    3.83
   6   9   3   53.55    3.68
   6   9   3   60.47    3.24
   7   1  -5  124.22    4.99
  -7  -1   5  112.72    4.88
  -7  -1   5  122.01    5.47
   8   4   7   84.20    3.69
   8   4   7   76.56    4.58
   8   4   7   86.75    3.85
   8   4   7   90.43    4.14
   8   4   7   79.04    2.97
   8   4   7   83.69    3.84
  -8  -4  -7   90.35    4.06
  -2   1  13   25.37    2.02
   2  -1 -13   29.97    2.38
  -2   1  13   23.83    2.27
  -2   1  13   25.72    2.13
   2  -1 -13   26.47    2.22
   2   4 -11   71.84    3.65
  -2  -4  11   73.81    3.86
   2   4 -11   75.30    3.68
   4   1  14   26.25    2.43
  -4  -1 -14   26.33    2.45
   4   1  14   25.26    2.20
  -4  -1 -14   21.71    2.39
  -4  -1 -14   25.06    2.32
   6  -4   9   35.95    2.68
  -6   4  -9   35.48    2.64
   6  -4   9   33.03    2.89
   6  -4   9   39.79    2.93
  -6   4  -9   38.34    2.07
  -6   4  -9   36.63    2.91
  -6   4  -9   38.02    2.80
   0  -8   8   25.94    1.88
   0  -8   8   25.55    3.01
   0   8  -8   19.59    2.21
  -1   6  13   30.87    2.33
  -1   6  13   35.75    2.70
   1  -6 -13   29.73    2.51
  -1   6  13   37.34    2.80
   1  -6 -13   34.35    2.51
  -1   6  13   31.74    2.61
  -2  11   1   24.18    2.11
   2 -11  -1   27.86    2.43
   2 -11  -1   29.02    2.29
  -2  11   1   28.47    2.71
  -2  11   1   33.02    2.62
   3  -6  10    2.95    1.64
   3  -6  10    2.89    1.46
  -3   6 -10    1.61    1.07
   6   5  -5   40.08    3.78
  -6  -5   5   36.29    3.46
   6   5  -5   42.44    2.34
   6   5  -5   35.28    1.64
   6   5  -5   39.91    1.98
  -6  -5   5   35.44    2.13
   8   2  -1   21.85    3.04
   8   2  -1   26.17    1.75
   8   2  -1   26.73    2.52
  -8  -2   1   25.07    2.58
   8   2  -1   20.53    2.29
   8   5   4   -0.55    1.84
   8   5   4    2.96    1.87
   8   5   4    1.14    1.33
   8   5   4    0.44    0.77
   8   5   4   -0.16    0.95
   8   5   4    0.88    1.16
   8   5   4    0.13    1.50
  -5   4   9   73.77    3.34
   5  -4  -9   85.64    4.23
  -5   4   9   79.23    4.17
  -5   4   9   83.06    4.38
   5  -4  -9   84.45    3.70
  -4  -9 -11   67.21    3.81
   4   9  11   59.01    2.37
  -4  -9 -11   65.51    3.20
   4   9  11   60.48    2.80
   4   9  11   62.44    3.85
   7   6  -1    4.56    1.70
   7   6  -1    3.03    0.58
   7   6  -1    2.53    1.44
   7   6  -1    3.57    1.74
  -4   2  11   16.46    1.01
  -4   2  11   20.69    2.21
  -4   2  11   21.25    2.10
  -4   2  11   18.20    1.61
   4  -2 -11   22.43    2.20
   4  -2 -11   19.94    2.76
  -4   2  11   19.73    2.72
  -1  -6  10   11.13    1.76
   1   6 -10    7.21    1.71
   8   5   5    0.39    1.89
   8   5   5    0.95    1.02
   8   5   5    0.13    1.42
   8   5   5    2.19    0.99
   8   5   5    1.78    1.32
   8   5   5    1.12    1.39
   8   5   5    1.87    1.82
   4   7  13   52.35    3.67
   4   7  13   61.81    3.21
  -4  -7 -13   55.25    3.72
  -4  -7 -13   66.49    3.46
  -4  -7 -13   58.94    3.63
   4   7  13   60.43    3.66
   4   7  13   59.10    3.01
  -6   6  -6   15.92    1.00
   6  -6   6   18.87    2.30
  -6   6  -6   15.58    2.27
  -6   6  -6   21.11    2.18
   7  -2   9   75.27    4.38
   7  -2   9   84.11    4.51
  -7   2  -9   78.33    4.08
  -7   2  -9   79.82    3.33
  -7   2  -9   72.94    4.35
   7  -2   9   78.42    4.18
  -7   2  -9   78.43    4.16
  -6   0 -12    1.10    1.45
   6   0  12    0.90    1.29
  -6   0 -12    2.04    0.79
  -6   0 -12    1.31    1.23
  -6   0 -12   -0.81    1.49
   6   0  12    1.20    1.64
  -8   2  -5   36.04    3.12
   8  -2   5   35.09    2.63
   8  -2   5   40.86    3.16
  -8   2  -5   38.87    2.34
  -8   2  -5   39.11    2.54
   7  -2  -5    1.33    1.50
  -7   2   5    1.14    1.50
   7  -2  -5    0.66    1.77
  -4   1  11   46.11    2.98
   4  -1 -11   41.35    2.35
  -4   1  11   42.73    3.66
   4  -1 -11   42.22    2.85
   4  -1 -11   43.57    3.64
  -4   1  11   39.60    2.30
  -4   1  11   45.20    2.81
  -7   5   2   10.66    2.03
   7  -5  -2    9.55    1.75
   7  -5  -2    9.34    2.24
   7   7   1   24.71    2.42
   7   7   1   27.36    2.66
   7   7   1   27.20    2.41
   7   7   1   25.79    1.58
  -8  -2  -8   33.92    2.40
   8   2   8   35.37    2.66
   8   2   8   40.69    3.22
  -8  -2  -8   40.69    2.40
   0  -5 -14   12.41    1.82
   0   5  14    8.70    1.54
   0  -5 -14    7.64    1.70
   0   5  14   10.19    1.73
   0  -5 -14   10.00    1.65
   0  -5 -14   10.16    1.91
   0   5  14   13.02    1.86
   7  -3   8  103.00    5.10
  -7   3  -8  106.67    5.39
   7  -3   8   96.97    4.96
  -7   3  -8   99.54    3.81
   7  -3   8  105.94    5.12
  -7   3  -8  107.38    4.93
  -7   3  -8  104.44    4.74
  -4  -8   5   69.54    4.28
   4   8  -5   70.31    4.16
   4   8  -5   69.22    3.58
   4   8  -5   65.30    4.29
  -4  -8   5   70.74    3.24
   6   6  -4   68.29    2.67
   6   6  -4   69.89    4.25
  -6  -6   4   82.22    4.68
  -6  -6   4   62.09    2.92
   6   6  -4   65.75    4.62
   6   6  -4   68.95    3.11
   6   6  -4   67.98    2.72
   3   6  14   70.09    4.00
   3   6  14   69.53    3.56
  -3  -6 -14   71.16    4.03
  -3  -6 -14   72.54    3.92
   3   6  14   72.96    3.86
   1   6  14   45.78    2.94
   1   6  14   44.95    3.15
   1   6  14   43.32    2.99
  -1  -6 -14   44.84    3.03
  -1  -6 -14   45.00    2.89
  -1  -6 -14   41.50    3.16
  -1  -6 -14   42.64    2.83
   0   0 -14   29.55    2.22
   0   0 -14   26.50    2.48
   0   0  14   26.11    2.25
   0   0  14   21.77    2.28
   0   0 -14   30.67    2.54
  -5   8  -4  119.28    5.49
  -5   8  -4  115.52    4.20
   0  10  10  100.45    5.07
   0  10  10   97.67    4.54
   0 -10 -10   89.57    4.27
   0 -10 -10   99.39    4.66
  -3   0  12   87.86    4.36
  -3   0  12   85.47    3.77
   3   0 -12   79.10    3.87
   3   0 -12   90.40    4.16
   3   0 -12   89.11    5.15
  -3   0  12   95.30    5.11
  -3   0  12   81.55    3.56
   2 -11  -4   70.59    3.03
   2 -11  -4   70.86    3.70
  -2  11   4   74.75    3.57
   2 -11  -4   60.69    3.64
   3  -9  -8   13.89    1.99
   3  -9  -8   11.07    1.49
  -3   9   8   12.34    1.95
  -4 -10   1   53.01    2.32
   4  10  -1   52.64    2.86
  -4 -10   1   49.36    3.14
   4  10  -1   54.83    3.55
   8   5   3   39.49    2.40
   8   5   3   44.63    3.01
   8   5   3   37.83    3.16
   8   5   3   41.32    1.88
   8   5   3   45.53    3.72
   8   5   3   45.30    2.87
   1   7  -9    0.67    1.46
  -1  -7   9    1.67    1.33
   5  10   7  127.55    5.60
  -5 -10  -7  135.92    6.17
   5  10   7  121.28    5.74
   5  10   7  115.01    5.62
   2  11  -1   10.96    2.09
   2  11  -1   13.99    2.00
   2  11  -1   14.74    2.09
   5   6  -6   32.43    1.96
   5   6  -6   36.97    2.28
   5   6  -6   41.81    2.02
  -5  -6   6   34.00    2.17
   5   6  -6   37.72    3.41
  -5  -6   6   39.90    3.44
   3  -4  12    8.25    1.65
   3  -4  12    6.30    2.26
   3  -4  12    7.61    1.15
   3  -4  12   10.85    1.91
   5  10   2    7.77    2.09
   5  10   2    6.31    1.53
   5  10   2    7.62    1.74
   5  10   2    6.22    1.70
   4   5  14  130.82    6.15
   4   5  14  132.22    5.97
  -4  -5 -14  132.18    6.10
  -4  -5 -14  132.89    5.82
   4   5  14  130.52    6.12
  -4  -5 -14  135.95    5.96
   4   5  14  134.19    5.44
   4   5  14  137.36    5.92
   7   7   8   62.29    4.01
  -7  -7  -8   64.56    3.68
   7   7   8   66.69    3.81
  -7  -7  -8   59.03    3.57
   7   7   8   66.73    3.49
   7   7   8   59.06    3.71
   7   7   8   59.26    3.56
  -6   6   5   68.06    4.32
   6  -6  -5   83.41    4.62
  -6   6   5   79.68    3.52
   6  -6  -5   70.50    2.66
   6  -6  -5   81.45    4.12
  -2   1 -14   53.26    3.48
  -2   1 -14   57.50    3.38
  -2   1 -14   54.79    3.43
   2  -1  14   56.00    2.98
   2  -1  14   55.13    4.12
   2  -1  14   55.06    3.66
   2  -1  14   61.74    3.45
  -3   4  12    2.37    1.27
  -3   4  12    0.19    2.15
   3  -4 -12    0.79    1.80
   3  -4 -12    1.57    1.31
  -3   4  12    3.01    1.60
   8   3   8   70.33    3.39
   8   3   8   72.92    3.49
  -8  -3  -8   70.60    3.48
  -8  -3  -8   71.34    3.55
   8   3   8   74.09    3.73
   4  -7   8   47.48    3.11
   4  -7   8   48.38    3.49
  -4   7  -8   44.09    3.03
  -4   7  -8   42.24    2.72
  -2  -9 -12   40.00    2.45
  -2  -9 -12   36.86    2.91
   2   9  12   37.06    1.66
  -2  -9 -12   43.23    2.63
   2   9  12   40.39    2.76
   2   9  12   40.13    2.53
   2   9  12   40.43    3.14
   5   5  -7   43.91    2.21
  -5  -5   7   39.50    2.43
   5   5  -7   43.71    2.31
   5   5  -7   44.78    3.91
  -5  -5   7   39.31    3.54
  -7  -3 -11   47.56    2.95
  -7  -3 -11   46.15    3.17
   7   3  11   50.96    3.23
   7   3  11   48.98    3.58
  -7  -3 -11   47.76    2.57
   7   3  11   51.70    2.61
   7   3  11   49.37    3.06
   2  -4 -13   69.84    3.64
   2  -4 -13   68.00    3.71
  -2   4  13   70.97    4.14
   2  -4 -13   68.54    3.73
  -2   4  13   66.23    3.66
  -7  -2 -11   52.12    3.35
   7   2  11   56.40    3.30
   7   2  11   58.95    3.85
  -7  -2 -11   55.31    2.60
  -7  -2 -11   55.27    3.07
   7   2  11   59.18    3.52
   8   1   8    7.92    2.04
   8   1   8    4.82    1.54
  -8  -1  -8    5.24    1.19
  -8  -1  -8   10.13    2.05
  -8  -1  -8    6.05    1.39
  -6  -9  -7   21.30    2.39
   6   9   7   23.92    2.54
   6   9   7   26.42    2.28
   6   9   7   23.81    1.89
   6   9   7   20.81    2.40
   0 -11   2   47.69    3.08
   0  11  -2   52.25    2.83
   0 -11   2   46.43    2.41
   0  11  -2   52.57    3.33
   0  11  -2   55.97    3.60
  -6  -4   6   24.12    3.04
  -6  -4   6   26.94    1.99
  -6  -4   6   26.08    2.00
   6   4  -6   22.08    0.98
  -6   2 -11   41.76    3.00
   6  -2  11   36.31    2.81
  -6   2 -11   35.71    2.31
   6  -2  11   36.02    3.06
  -6   2 -11   41.88    3.03
   4  -3 -11    2.43    1.95
  -4   3  11    6.13    1.63
   4  -3 -11    4.31    1.69
  -4   3  11    4.39    1.14
  -4   3  11    1.04    1.98
  -4   3  11    6.25    1.64
  -2   3 -13   50.54    3.39
   2  -3  13   45.63    3.27
   2  -3  13   49.95    2.31
  -2   3 -13   48.11    3.16
  -1   3 -13   44.08    3.08
  -1   3 -13   41.45    2.98
  -1   3 -13   40.63    2.84
   1  -3  13   40.56    2.79
   1  -3  13   37.61    2.92
   6  -7  -3    3.18    1.77
  -6   7   3    1.67    1.26
   6  -7  -3    1.78    1.52
  -6   4   7    0.75    1.71
  -6   4   7    0.15    1.42
   6  -4  -7    0.84    0.84
   6  -4  -7    0.41    1.34
  -6   4   7    1.01    0.72
   8   5   6   13.74    1.42
   8   5   6   12.55    1.40
   8   5   6   10.90    1.66
   8   5   6   16.53    2.43
   8   5   6   11.05    1.71
   8   5   6   12.97    2.44
   2   8  13   21.82    2.06
  -2  -8 -13   24.38    2.41
  -2  -8 -13   26.25    2.24
   2   8  13   25.73    2.48
   2   8  13   25.70    2.45
  -2  -8 -13   22.99    1.96
  -2  10  -4   10.61    1.60
  -2  10  -4    8.32    1.92
  -2  10  -4    9.66    1.54
   1   5 -11    1.21    1.56
  -1  -5  11   -0.83    1.35
   1   5 -11    1.22    1.29
  -1   1 -14    0.41    1.47
  -1   1 -14    1.52    1.59
   1  -1  14    2.32    1.48
   1  -1  14    0.23    1.99
  -1   1 -14    3.26    1.52
   1  -1  14    2.10    0.99
   0 -11  -8   -0.31    1.45
   0  11   8    2.07    1.70
   0 -11  -8    0.12    1.24
   0  11   8    1.08    1.24
   0 -11  -8    0.45    1.50
   2 -11   0    3.25    1.41
  -2  11   0    2.37    1.27
  -2  11   0    0.17    1.53
  -2  11   0    1.30    1.38
  -2   8  -8   -1.96    1.20
   2  -8   8    1.85    1.36
   2  -8   8   -0.59    1.73
  -2   8  -8    0.33    0.77
   4  11   4   33.16    2.95
  -4 -11  -4   36.74    1.61
   4  11   4   41.27    3.19
   4  11   5    1.15    1.74
   4  11   5   -0.35    1.62
   5   9  10    2.70    0.90
  -5  -9 -10    4.05    1.66
   5   9  10    4.46    1.76
   5   9  10    0.16    1.56
  -5  -9 -10    1.53    1.54
   6   8  -1  127.26    5.60
  -6  -8   1  103.79    3.49
   6   8  -1  109.35    4.52
   6   8  -1  112.14    5.80
   6   8  -1  111.00    5.55
  -6  -8   1  124.44    5.55
   6   9   2  147.09    6.56
   6   9   2  149.37    5.90
   6   9   2  151.49    6.25
   6   9   2  149.27    6.56
   6   9   2  140.56    6.28
   2 -10  -8    0.14    1.43
  -2  10   8    0.17    1.43
   2 -10  -8    1.24    1.20
  -5   8   5   29.37    2.16
   5  -8  -5   25.98    1.49
   5  -8  -5   34.57    2.80
  -5  -6 -13    0.14    1.34
  -5  -6 -13    1.06    1.42
  -5  -6 -13   -1.21    1.61
   5   6  13    0.17    1.72
   5   6  13    2.52    1.75
   5   6  13    0.19    0.98
  -5  -6 -13   -0.65    1.50
  -6   5  -8   44.68    3.24
  -6   5  -8   41.26    2.09
   6  -5   8   39.41    2.82
  -6   5  -8   47.49    3.00
   6  -5   8   42.49    3.05
   6  -5   8   38.07    3.10
  -7   1 -10   31.22    3.01
  -7   1 -10   31.76    2.15
  -7   1 -10   38.79    2.87
   7  -1  10   36.85    3.11
  -7   1 -10   40.09    2.92
   7  -1  10   39.08    2.82
   3  11   8   -0.17    1.39
   3  11   8   -0.73    1.75
  -3 -11  -8    0.71    0.88
  -3 -11  -8    1.03    1.56
  -3 -11  -8    0.34    0.91
  -4   0  11  115.14    4.86
  -4   0  11  120.86    6.20
   4   0 -11  112.01    4.53
  -4   0  11  120.61    5.33
   4   0 -11  116.56    5.06
   4   0 -11  109.19    5.94
  -6  -7 -11   36.76    2.81
   6   7  11   38.41    2.83
   6   7  11   35.07    1.77
   6   7  11   35.66    3.01
  -6  -7 -11   35.25    2.69
   6   7  11   33.14    2.79
   8  -3   2   10.70    0.88
  -8   3  -2   11.73    1.47
   8  -3   2    6.64    2.25
   8  -3   2   12.76    1.58
  -8   3  -2   12.92    1.32
   8  -3   2   12.00    1.91
   1  11  -2   55.43    3.69
   1  11  -2   57.07    3.55
  -1 -11   2   56.65    2.41
   1  11  -2   59.48    3.47
  -5  -2   9   59.74    3.45
  -5  -2   9   65.05    3.18
   5   2  -9   60.39    2.58
   4  -2  13   21.38    2.57
  -4   2 -13   25.17    2.23
   4  -2  13   22.62    2.15
  -4   2 -13   29.66    2.62
   4  -2  13   22.11    2.02
  -4   2 -13   24.80    2.50
  -4   7   9    8.85    2.00
  -4   7   9    6.68    1.41
   4  -7  -9    8.08    1.30
  -1  -9 -12   39.22    2.91
  -1  -9 -12   41.03    2.59
   1   9  12   41.13    3.05
   1   9  12   36.49    2.63
   1   9  12   35.12    1.79
  -7   4   4   50.71    3.62
  -7   4   4   51.07    2.18
   7  -4  -4   55.25    3.88
   7  -4  -4   58.83    3.20
   7  -4  -4   42.68    1.64
  -2   0  13    1.50    1.45
  -2   0  13    1.65    1.07
   2   0 -13   -0.13    1.40
   2   0 -13    0.13    1.21
  -2   0  13    0.87    1.17
  -1  11   7    0.97    1.33
  -1  11   7    0.19    1.60
   1 -11  -7    0.65    1.35
   1 -11  -7    1.80    1.45
   1 -11  -7    0.27    1.21
   3 -10  -6   51.11    2.74
   3 -10  -6   50.24    2.77
  -3  10   6   52.07    2.66
   3 -10  -6   54.40    3.33
   5   7  -5    1.52    0.74
  -5  -7   5    1.53    0.99
   5   7  -5    1.91    1.21
  -5  -7   5    1.43    2.05
   5   7  -5    0.43    1.90
   5   7  -5    1.58    0.64
   3  -7   9   53.55    3.22
   3  -7   9   51.81    3.53
  -3   7  -9   47.11    2.53
  -3   7  -9   48.36    2.55
  -4   9  -4   38.13    2.84
  -4   9  -4   39.61    3.07
  -4   9  -4   36.17    2.18
   8   5   2   63.74    2.45
   8   5   2   80.02    3.87
   8   5   2   75.57    4.50
   8   5   2   73.32    4.15
   8   5   2   70.41    3.85
   8   5   2   69.05    3.20
  -7   5  -5   18.04    1.90
  -7   5  -5   11.49    2.20
   7  -5   5   15.47    2.26
   7  -5   5   14.80    2.21
  -3 -11   0   78.83    3.73
   3  11   0   81.10    4.48
   3  11   0   86.95    4.50
  -7  -2   5   97.80    4.66
   7   2  -5   97.42    4.14
  -7  -2   5   88.22    4.06
   8  -2  -1   19.96    2.93
   8  -2  -1   22.79    2.51
  -8   2   1   18.28    2.51
   8  -2  -1   17.78    1.89
  -8   1  -7    6.30    1.45
  -8   1  -7    4.87    1.53
  -8   1  -7    5.96    0.90
  -8   1  -7    5.76    1.91
   8  -1   7    7.63    2.03
   8  -1   7    7.28    2.07
   8  -3   3   12.87    1.87
  -8   3  -3   11.43    1.39
   8  -3   3   13.73    1.73
  -8   3  -3   11.13    2.32
  -8   3  -3   10.51    1.45
   8  -3   3   12.30    2.18
  -4 -11  -3   22.49    1.22
   4  11   3   20.06    2.41
  -5   6   8    0.62    1.06
   5  -6  -8    0.73    1.40
   5  -6  -8    0.58    0.92
  -5   6   8    0.19    1.50
  -5   6   8   -0.24    0.73
  -5   6   8    0.82    1.41
  -7  -4 -11   95.40    4.18
   7   4  11   92.82    5.03
   7   4  11   91.47    4.54
  -7  -4 -11   91.55    4.46
  -7  -4 -11   97.41    4.76
   7   4  11   91.33    3.72
   7   4  11   94.46    4.29
   8   0  -2   42.73    2.53
   8   0  -2   45.85    2.33
   8   0  -2   45.35    3.30
  -8   0   2   48.19    3.51
   3   3 -11   42.08    2.34
   3   3 -11   40.38    2.63
  -3  -3  11   41.36    2.77
   3   3 -11   41.15    2.55
  -4   9   6   57.77    3.57
   4  -9  -6   55.87    3.30
   4  -9  -6   56.81    2.74
   4  -9  -6   56.22    3.41
  -4   9   6   63.78    3.34
  -7   4  -7   67.93    3.65
   7  -4   7   65.14    3.82
  -7   4  -7   71.20    4.25
  -7   4  -7   72.20    3.58
  -7   4  -7   58.20    2.32
   7   1  11   12.78    1.94
  -7  -1 -11    8.52    1.79
  -7  -1 -11   13.12    1.56
  -7  -1 -11   10.31    1.02
   7   1  11   10.25    2.11
   8  -3   1    4.90    2.20
  -8   3  -1    7.90    1.04
  -8   3  -1    5.33    2.10
  -8   3  -1    8.09    1.17
   2  10  -4   21.32    2.34
   2  10  -4   21.98    2.33
   2  10  -4   17.67    1.10
   2  10  -4   19.83    1.21
   1  -2 -14    0.87    1.54
   1  -2 -14    0.83    1.40
  -1   2  14    2.80    1.45
   4  11   6   34.74    2.95
   4  11   6   38.99    3.04
  -4 -11  -6   35.87    3.02
  -4 -11  -6   37.85    1.66
  -1  -8 -13   36.64    2.59
   1   8  13   36.99    2.75
   1   8  13   37.30    2.95
   1   8  13   36.64    2.25
  -1  -8 -13   38.10    2.61
   1   8  13   32.96    2.52
  -1  -8 -13   36.49    2.84
  -1   3  14   16.68    2.17
   1  -3 -14   20.59    2.07
   1  -3 -14   15.70    1.98
  -1   3  14   16.65    1.90
   1  -3 -14   19.86    2.26
  -6   7  -4   75.73    4.44
   2 -11  -5   75.98    3.93
   2 -11  -5   67.94    3.77
  -2  11   5   68.70    3.40
   2 -11  -5   68.97    2.89
   2  -8 -11  100.12    4.68
  -2   8  11  101.66    4.97
  -2   8  11  103.49    4.94
   2  -8 -11  102.29    4.56
   2  -8 -11  100.02    4.62
  -3  -9 -12   62.21    3.08
   3   9  12   62.00    3.61
  -3  -9 -12   64.64    3.32
  -3  -9 -12   69.57    3.93
   3   9  12   62.40    3.16
   3  10  -3   61.85    3.96
   3  10  -3   75.43    4.03
  -3 -10   3   74.22    3.97
   3  10  -3   66.51    2.89
   3  10  -3   71.81    4.06
   8   1  -2   10.28    1.36
   8   1  -2    7.19    1.27
  -8  -1   2    6.89    1.91
   8   1  -2   10.92    2.69
   8   1  -2    7.22    1.91
  -1  -2  13   52.08    3.07
   1   2 -13   51.89    3.20
   1   2 -13   49.17    2.85
  -1  -2  13   37.56    1.65
  -1  -2  13   47.90    2.93
   1   2 -13   43.38    2.96
   8   3  -1   -0.70    1.32
   8   3  -1   -0.22    2.05
   8   3  -1    0.31    1.74
   8   3  -1   -0.53    0.85
  -8  -3   1    1.07    1.56
   8   3  -1    1.62    1.66
   3   8  13   18.72    1.82
   3   8  13   20.71    2.34
  -3  -8 -13   19.96    2.04
   6   7  -3   94.04    3.98
   6   7  -3   97.36    4.07
  -6  -7   3   90.69    5.09
   6   7  -3   84.02    4.63
  -6  -7   3   88.23    3.44
   6   7  -3   81.76    4.78
   6   7  -3   85.94    5.25
   8   4   0    8.52    2.23
   8   4   0   12.14    1.77
   8   4   0   10.09    2.44
   8   4   0   12.07    1.16
   8   4   0   10.19    2.04
  -8  -4   0   12.23    2.16
   8   4   0   11.24    0.97
  -3   1 -14   50.07    3.28
  -3   1 -14   53.64    3.16
  -3   1 -14   51.32    3.39
   3  -1  14   47.40    2.90
   3  -1  14   52.36    3.64
   3  -1  14   54.98    3.95
   3  -1  14   53.20    3.22
  -6   1   8   60.13    3.38
  -6   1   8   59.42    4.31
   6  -1  -8   59.91    3.36
  -6   1   8   51.59    3.44
  -1  11  -2   20.51    1.88
  -1  11  -2   15.80    1.99
   1 -11   2   22.07    2.17
  -8  -4  -8   38.38    2.60
   8   4   8   43.00    2.59
   8   4   8   40.71    2.53
   8   4   8   37.91    2.49
   8   4   8   42.00    1.82
  -8  -4  -8   38.61    2.55
   8   4   8   37.36    1.82
   1   8  -8   27.65    2.60
   1   8  -8   29.42    2.58
   4   0  14   29.06    2.45
  -4   0 -14   27.16    2.50
  -4   0 -14   26.81    2.30
   4   0  14   32.44    2.53
   3   9  -5   29.70    2.54
   3   9  -5   26.65    2.60
  -3  -9   5   24.58    1.87
  -3  10  -3    1.64    1.38
  -3  10  -3    0.44    1.21
  -3  10  -3    1.76    1.63
   5  -7  -7   59.53    3.49
  -5   7   7   59.98    3.88
  -5   7   7   54.48    3.07
  -5   7   7   56.53    2.75
   5  -7  -7   55.04    2.63
   1  -8 -12   19.19    2.04
  -1   8  12   18.47    2.22
  -1   8  12   19.92    1.97
   1  -8 -12   17.88    2.06
  -1   8  12   17.22    2.11
   8  -2   6   11.22    1.94
   8  -2   6    7.63    2.02
  -8   2  -6   11.99    1.76
  -8   2  -6   10.06    1.61
  -8   2  -6    5.84    1.85
   5   4  -8  101.43    3.84
   5   4  -8   95.71    5.77
   5   4  -8   99.72    4.10
  -5  -4   8  100.76    4.51
  -5  -4   8  100.84    3.93
  -5  -4   8  110.59    5.81
   7  -3  -5   22.89    2.25
   7  -3  -5   22.25    1.36
  -7   3   5   25.24    2.74
   7  -3  -5   25.62    2.86
  -6  -8 -10  101.09    4.95
   6   8  10   98.94    4.67
   6   8  10   98.63    4.85
   6   8  10   84.79    3.00
  -6  -8 -10   96.14    4.79
   6   8  10   90.28    4.17
   6   8  10   95.66    4.65
   6   8  10   90.14    4.91
   0 -10   5   30.27    1.96
   0  10  -5   27.87    1.60
   0  10  -5   31.14    2.58
   0  10  -5   27.61    2.66
   0 -10   5   32.84    2.94
  -1   9  11   68.05    4.03
   1  -9 -11   67.73    3.80
  -1   9  11   72.20    3.91
   1  -9 -11   70.83    3.74
   8   0   8    1.15    1.80
  -8   0  -8    1.21    0.95
   8   0   8    0.30    1.31
  -8   0  -8   -0.74    1.31
  -8   0  -8    1.24    1.62
  -4  -3  10   24.29    2.20
   4   3 -10   23.30    1.52
  -4  -3  10   22.79    2.94
  -4  -3  10   20.44    1.30
   4   3 -10   20.75    1.72
   4   3 -10   24.50    2.07
   4  -8  -8   20.71    1.74
  -4   8   8   19.19    2.04
   4  -8  -8   17.81    2.08
  -4   8   8   21.84    2.51
   8   5   7   12.73    1.75
   8   5   7   15.98    1.69
   8   5   7   12.08    1.46
   8   5   7   10.88    2.38
   8   5   7   15.32    2.04
   8   5   7   13.23    2.55
  -4   6  10   46.95    2.26
   4  -6 -10   45.89    3.51
  -4   6  10   46.08    3.39
  -4   6  10   43.61    2.71
   4  -6 -10   49.37    2.77
  -6  -6 -12    2.54    1.53
   6   6  12    3.26    1.69
   6   6  12    2.99    1.55
  -6  -6 -12    1.47    1.34
   6   6  12    3.77    1.81
   6   6  12    2.98    1.83
   6   6  12    1.91    0.95
  -6  -6 -12    1.33    1.55
   5  10   8   84.00    4.52
  -5 -10  -8   83.22    4.51
   5  10   8   78.11    4.46
  -5 -10  -8   86.09    4.57
  -7  -6 -10    9.11    1.71
   7   6  10   10.98    0.86
  -7  -6 -10    8.52    1.61
   7   6  10   14.48    1.52
   7   6  10   11.40    1.91
   7   6  10   12.63    2.12
  -7  -6 -10   10.61    1.77
   7   6  10    9.55    1.90
   7   8   5   21.07    1.95
   7   8   5   18.98    2.42
   7   8   5   26.23    2.60
   7   8   5   21.70    2.34
   8  -1  -2   74.55    4.84
   8  -1  -2   73.27    2.95
   8  -1  -2   77.51    3.68
   8  -1  -2   77.62    4.27
  -8   1   2   76.03    4.52
  -2 -11  -9   15.43    1.52
   2  11   9   16.37    2.07
  -2 -11  -9   13.73    1.49
  -2 -11  -9   16.30    2.13
  -2  -3 -15   10.75    1.94
  -2  -3 -15    8.75    1.76
   2   3  15    9.87    2.30
   2   3  15    8.11    1.89
  -2  -3 -15   12.32    2.06
   2   3  15   10.58    1.75
   5  10   1    4.35    1.45
   5  10   1    6.38    1.58
  -5 -10  -1    3.76    0.34
   5  10   1    5.88    1.94
  -2 -10 -11   10.62    1.50
  -2 -10 -11   10.30    1.94
   2  10  11   12.00    1.83
   2  10  11   12.91    1.66
  -2 -10 -11   10.66    1.46
   6   0  -8   58.11    3.30
  -6   0   8   61.32    3.39
  -6   0   8   63.96    4.54
  -6   0   8   58.86    3.51
  -8   3  -4   43.50    3.57
  -8   3  -4   57.26    3.03
   8  -3   4   53.88    3.31
   8  -3   4   51.98    3.58
   8  -3   4   55.48    3.15
  -8   3  -4   49.99    2.74
   2   9  -6   31.31    2.77
   2   9  -6   43.68    3.07
   7   8   4    4.77    1.85
   7   8   4    4.81    1.82
   7   8   4    4.52    1.23
   7   8   4    6.62    1.85
  -6   2   8   64.66    3.70
   6  -2  -8   68.94    3.71
  -6   2   8   68.63    4.07
  -1 -11  -9  124.30    5.61
  -1 -11  -9  118.96    4.98
  -1 -11  -9  123.05    5.64
   1  11   9  117.59    5.33
   1  11   9  124.21    5.93
  -7   5   3   20.29    2.57
  -7   5   3   13.83    1.34
   7  -5  -3   15.60    1.99
   7  -5  -3   17.35    2.65
   4  -4 -11   56.97    3.32
  -4   4  11   47.07    3.78
  -4   4  11   53.15    3.34
  -4   4  11   48.84    2.76
  -4   4  11   53.68    3.40
   4  -4 -11   52.15    2.93
   4  -4 -11   52.24    3.86
   7   5  -3    1.68    1.31
   7   5  -3    2.10    0.83
   7   5  -3    3.00    1.60
   7   5  -3    3.17    1.81
  -7  -5   3    1.06    0.84
  -2   9  10   48.68    3.25
   2  -9 -10   47.02    3.03
   2  -9 -10   46.61    2.91
  -2   9  10   50.31    3.37
   2  -9 -10   47.25    2.66
   6   9   8   -0.37    1.70
  -6  -9  -8    0.17    1.47
   6   9   8    1.49    1.22
   6   9   8   -0.17    1.70
  -6  -9  -8   -0.51    1.52
   3  -3  13  103.58    4.58
   3  -3  13   86.94    4.76
  -3   3 -13   80.46    4.44
  -3   3 -13   84.78    4.39
   3  -3  13   84.90    3.78
   1  -1 -14   10.33    1.83
   1  -1 -14   10.51    1.84
  -1   1  14    9.57    1.73
  -1 -12  -4    3.15    1.66
  -1 -12  -4    3.03    1.12
   1  12   4    3.49    1.61
  -3  -1  12    0.53    1.05
  -3  -1  12    3.08    1.51
   3   1 -12    2.07    1.50
  -3  -1  12    2.36    1.02
  -3  -1  12    2.81    2.03
   3   1 -12    1.10    1.18
   3   1 -12    3.76    2.18
  -5   1 -13    3.64    1.62
  -5   1 -13    4.18    1.34
   5  -1  13    1.66    1.41
   7   7   0    1.62    1.49
   7   7   0    0.57    1.51
   7   7   0    0.59    0.81
   7   7   0   -0.35    1.72
  -1 -12  -3   -1.15    1.46
   1  12   3   -0.48    1.45
  -1 -12  -3   -0.64    1.09
   8  -3   0    8.77    1.77
  -8   3   0   10.09    2.17
  -8   3   0    7.68    1.02
  -8   3   0    7.78    0.89
   8  -3   0    8.83    2.11
   8  -3   0    9.77    2.48
   1 -10   5    3.10    1.23
  -1  10  -5    1.27    1.26
  -1  10  -5    2.06    0.97
   1 -10   5    4.57    1.76
  -1  10  -5    1.44    1.62
   0  -3  13    5.82    1.80
   0   3 -13    9.82    1.90
   0   3 -13    5.07    1.73
   0  -3  13    4.78    1.49
   0   3 -13    5.71    1.56
  -2  11  -1   11.29    2.11
  -2  11  -1   13.20    1.86
  -2  11  -1   11.72    1.70
   2   2  15    0.15    1.40
  -2  -2 -15    3.31    1.51
  -2  -2 -15    1.35    1.60
   2   2  15    0.17    1.45
   2   2  15    1.25    1.90
  -5   7  -7   65.64    3.77
  -5   7  -7   63.75    3.65
   5  -7   7   61.20    3.92
  -5   9   1    1.50    1.67
  -5   9   1    2.19    1.48
   5  -9  -1    6.20    1.23
  -1   4  14   58.98    3.46
   1  -4 -14   52.09    3.19
   1  -4 -14   51.44    3.33
   1  -4 -14   55.26    3.31
  -1   4  14   53.81    3.41
  -7  -4   4    4.72    1.51
  -7  -4   4    4.06    1.17
   7   4  -4    2.48    1.34
  -4  10   1    1.10    1.64
   4 -10  -1    0.31    1.09
   4 -10  -1   -0.15    1.40
  -4  10   1   -0.45    0.77
  -4  10   1    0.71    1.48
   4  11   2   42.62    3.28
  -4 -11  -2   43.35    1.91
   4  11   2   44.46    2.94
   4  11   2   50.59    3.36
  -4 -10 -10   45.08    3.16
  -4 -10 -10   38.79    2.30
   4  10  10   44.74    3.44
   5  -9   0   19.81    1.60
  -5   9   0   21.86    2.35
  -5   9   0   20.16    2.47
   7   8   6   88.98    4.39
   7   8   6   87.87    4.13
   7   8   6   84.51    4.68
   7   8   6   91.05    4.67
   6   3  -7   18.50    3.09
  -6  -3   7   23.63    3.07
  -6  -3   7   21.95    1.91
  -6  -3   7   23.55    2.01
   7  -6   1   16.19    0.95
   7  -6   1   18.52    2.12
  -7   6  -1   18.05    2.38
   2  -5 -13   35.43    2.60
   2  -5 -13   36.03    3.02
   2  -5 -13   35.72    2.66
  -2   5  13   37.80    2.64
  -2   5  13   37.36    3.06
  -2   5  13   36.15    2.86
   1  10  11    1.87    1.62
   1  10  11   -0.43    1.29
  -1 -10 -11    0.98    1.46
   1  10  11    0.26    1.41
  -1 -10 -11    0.34    1.18
  -5  -9   2    0.55    0.73
  -5  -9   2    1.20    1.59
   5   9  -2    2.02    1.18
   5   9  -2    1.10    1.77
   5   9  -2    1.40    1.83
   4 -10  -2    0.62    1.49
  -4  10   2    1.17    0.78
  -4  10   2   -0.18    1.60
  -4  10   2   -0.61    1.62
   4 -10  -2    0.53    1.16
   2  -7 -12   37.21    2.70
  -2   7  12   31.99    2.68
  -2   7  12   37.85    2.81
   2  -7 -12   31.05    2.50
   2  -7 -12   36.62    2.74
  -2   7  12   35.10    2.34
  -2   7  12   35.73    2.74
   1  -9   7    4.13    2.11
  -1   9  -7    5.11    1.46
  -1   9  -7    4.86    1.85
  -1   9  -7    4.65    0.70
   1  -9   7    4.38    1.32
  -6  -3 -13   74.01    3.90
   6   3  13   68.15    3.64
   6   3  13   68.63    3.34
   6   3  13   69.92    4.27
  -6  -3 -13   70.65    3.40
  -6  -3 -13   74.35    4.12
   6   3  13   67.50    4.06
  -2  -4 -15   51.25    3.31
   2   4  15   51.86    3.20
   2   4  15   55.49    3.58
   2   4  15   57.43    3.76
  -2  -4 -15   50.13    3.46
   0  -9   7   53.98    4.00
   0   9  -7   54.99    3.74
   0   9  -7   54.85    3.38
   0  -9   7   55.80    2.77
   2   3 -12   32.13    2.57
   2   3 -12   37.56    2.29
   2   3 -12   30.32    2.36
  -2  -3  12   30.88    2.47
  -2  -3  12   33.55    2.44
   2   7  14    3.43    1.47
  -2  -7 -14    2.83    1.62
   2   7  14    3.22    1.56
  -2  -7 -14    2.05    1.38
   2   7  14    0.18    1.52
  -2  -7 -14    2.35    1.56
  -4  -6 -14  143.17    6.22
   4   6  14  145.85    6.19
   4   6  14  147.17    5.83
  -4  -6 -14  153.84    6.70
   4   6  14  153.35    6.56
   4   6  14  145.34    6.67
  -4  -6 -14  156.78    6.61
  -5  -3 -14   49.80    3.43
   5   3  14   46.02    3.42
  -5  -3 -14   48.35    3.18
   5   3  14   50.60    3.45
   5   3  14   41.19    2.79
  -1  -4  12    1.04    1.35
   1   4 -12    3.20    1.46
  -1  -4  12    2.46    1.43
   1   4 -12    1.96    1.67
   4  11   7   15.34    2.15
  -4 -11  -7   16.33    2.23
   4  11   7   14.26    2.27
  -4 -11  -7   13.35    1.02
  -8  -2   2   22.95    2.64
   8   2  -2   26.15    3.15
   8   2  -2   23.06    1.76
   8   2  -2   24.20    2.51
   8   2  -2   23.44    2.00
   0  -6 -14   52.28    3.30
   0  -6 -14   49.62    3.38
   0  -6 -14   51.05    3.11
   0  -6 -14   51.35    3.12
   0   6  14   49.85    3.40
   0   6  14   53.57    3.32
   0   6  14   51.15    3.07
   0   6  14   54.37    3.27
   3  -5 -12   14.00    1.74
   3  -5 -12   13.63    2.18
  -3   5  12   10.82    2.20
  -3   5  12   11.64    1.68
   6   9   1  120.88    5.04
   6   9   1  112.94    5.70
   6   9   1  125.57    5.86
   6   9   1  121.24    5.67
   6   9   1  126.24    5.42
   7   7   9   25.46    2.55
  -7  -7  -9   26.36    2.44
  -7  -7  -9   23.46    2.39
   7   7   9   22.65    2.48
   7   7   9   27.89    2.88
   7   7   9   22.95    2.34
   7   7   9   26.64    2.51
  -5   5   9   19.68    2.29
   5  -5  -9   19.60    1.68
  -5   5   9   21.24    1.68
   5  -5  -9   21.31    2.23
  -5   5   9   15.23    0.91
  -5   5   9   18.39    2.15
   6  -1  12   39.57    3.04
  -6   1 -12   37.75    2.39
   6  -1  12   40.95    2.96
  -6   1 -12   34.32    2.87
  -6   1 -12   36.63    2.84
  -6   1 -12   32.14    1.56
   7  -6   0    5.99    2.20
  -7   6   0    6.43    1.97
   7  -6   0    6.41    1.84
   0  -1  14   10.40    1.80
   0   1 -14   11.13    1.66
   0  -1  14   11.17    1.92
   0  -1  14   10.76    1.21
   0   1 -14    8.75    1.87
   0   1 -14   14.65    2.13
  -1 -12  -5    8.45    1.38
  -1 -12  -5    5.68    1.79
   1  12   5    7.59    1.74
   7   8   3    1.67    1.09
   7   8   3    5.17    1.93
   7   8   3    2.33    1.78
   7   8   3   -0.17    1.88
  -7   6  -2   18.75    2.45
   7  -6   2   21.19    2.32
   6  -7  -4    0.91    1.57
   6  -7  -4    1.18    1.91
  -6   7   4    0.48    1.13
  -6  -2 -13   67.87    3.96
   6   2  13   75.92    3.61
  -6  -2 -13   70.15    3.25
   6   2  13   78.88    3.93
   6   2  13   67.62    4.06
   6   2  13   66.70    4.22
  -6  -2 -13   72.37    3.83
   8   5   1   39.68    2.26
   8   5   1   43.52    3.13
   8   5   1   41.50    3.57
   8   5   1   39.82    3.09
   8   5   1   39.94    2.75
   4 -10   0    0.10    1.09
   4 -10   0    0.47    1.43
  -4  10   0    0.62    0.80
  -4  10   0    0.51    1.49
  -4  10   0   -2.11    1.56
  -3  -3 -15    0.35    1.63
   3   3  15    0.19    1.70
  -3  -3 -15   -1.28    1.65
   3   3  15    0.83    1.41
   3   3  15    0.81    1.47
   3   3  15    0.17    1.65
  -3  -3 -15    0.94    1.46
  -5   4 -11   80.98    4.37
  -5   4 -11   84.13    3.80
   5  -4  11   59.89    4.25
  -5   4 -11   81.18    4.35
   5  -4  11   74.24    3.73
  -5   9   2   14.79    2.24
   5  -9  -2   10.73    1.39
  -5   9   2   13.56    1.91
   5  -9  -2   14.83    2.32
   1   3  15   61.03    3.52
   1   3  15   54.14    3.48
  -1  -3 -15   65.93    3.94
   0  12   3   41.68    2.92
   0 -12  -3   44.87    3.16
   0 -12  -3   44.38    2.80
  -3  -6   9   58.06    3.29
   3   6  -9   66.20    3.22
   3   6  -9   67.25    3.36
   4   1 -11   80.49    3.62
  -4  -1  11   80.42    3.66
  -4  -1  11   80.92    4.13
   4   1 -11   91.37    5.27
  -4  -1  11   87.17    5.14
  -5   1  10    2.56    2.09
  -5   1  10    4.72    1.55
  -5   1  10    3.16    1.47
   5  -1 -10    1.25    2.02
   5  -1 -10    2.67    1.59
  -5   8  -5   63.10    3.74
  -5   8  -5   54.47    2.55
  -1 -12  -2    0.66    1.57
  -1 -12  -2    0.76    1.13
  -1 -12  -2    0.54    0.55
   1  12   2    1.82    1.48
   3  -9   6   12.98    1.98
  -3   9  -6   16.22    1.81
  -5  -2 -14  140.32    6.28
   5   2  14  131.10    6.10
   5   2  14  137.70    5.79
  -5  -2 -14  139.75    6.02
   5   2  14  132.52    6.05
   5   2  14  131.55    5.53
  -8  -2  -9   34.27    2.28
   8   2   9   37.85    3.30
   8   2   9   35.61    2.68
  -8  -2  -9   30.73    2.44
   5  -2 -10   65.78    3.62
   5  -2 -10   56.92    4.32
  -5   2  10   58.82    3.60
  -5   2  10   60.76    2.69
  -5   2  10   65.75    3.65
  -5   2  10   59.82    4.33
   5  -5  10   10.03    1.63
   5  -5  10   12.27    2.31
   5  -5  10   10.72    1.98
  -5   5 -10   10.51    1.95
  -5   5 -10   12.96    1.86
   3  -8 -10   48.89    3.13
  -3   8  10   51.95    3.40
   3  -8 -10   55.07    3.32
  -3   8  10   51.86    3.26
   3  -8 -10   50.01    2.90
  -7  -5 -11   27.45    2.18
  -7  -5 -11   27.10    2.40
   7   5  11   28.17    2.94
   7   5  11   28.56    2.33
  -7  -5 -11   28.06    2.44
   7   5  11   29.38    2.23
   7   5  11   29.04    1.73
   7   5  11   31.11    2.69
   7   5  11   36.81    3.03
   0 -12  -4   24.96    2.56
   0  12   4   19.84    2.22
  -5   9  -1   24.50    1.15
   5  -9   1   27.94    1.76
  -5   9  -1   23.62    2.50
  -5   9  -1   27.72    2.71
   1  10  -5   81.02    4.31
   1  10  -5   77.80    4.03
   1  10  -5   66.90    2.50
  -1 -10   5   70.03    2.93
   7   6  -2    0.90    1.78
   7   6  -2    0.38    0.41
   7   6  -2    1.63    1.32
   7   6  -2    0.79    1.63
  -7  -6   2    0.61    0.64
  -3  -7   8   49.12    2.89
   3   7  -8   49.32    2.85
  -2 -12  -4   37.62    2.98
   2  12   4   35.44    2.91
  -2 -12  -4   33.10    2.13
  -7   0 -11    2.38    1.10
  -7   0 -11    0.15    1.51
  -7   0 -11    0.32    1.64
   7   0  11    2.98    1.82
   7   0  11    1.55    1.34
  -1  -2 -15   25.54    2.54
   1   2  15   28.63    3.10
   1   2  15   32.20    2.54
   1   2  15   29.25    2.65
  -5  -4 -14    9.53    1.79
   5   4  14    9.53    1.54
  -5  -4 -14    7.18    1.86
   5   4  14   10.77    2.12
   5   4  14   10.50    2.10
  -4  -9   4   84.11    4.57
  -4  -9   4   80.87    3.50
   4   9  -4   85.54    4.22
   4   9  -4   77.37    4.48
   6   4  13   20.54    2.51
  -6  -4 -13   21.63    1.90
  -6  -4 -13   16.24    2.15
   6   4  13   19.79    1.73
   6   4  13   18.56    2.50
   6   4  13   19.00    1.95
  -6  -4 -13   22.18    2.22
   8   3   9   46.49    2.84
  -8  -3  -9   43.76    2.81
   8   3   9   45.16    2.88
   8   3   9   44.46    2.60
   8   3   9   42.55    3.43
  -8  -3  -9   46.86    2.78
   3   2  15   11.77    1.88
  -3  -2 -15   13.01    2.01
   3   2  15   12.73    2.43
  -3  -2 -15   11.42    1.97
  -3  -2 -15    8.89    1.89
   3   2  15   10.84    1.88
   3   2  15   12.94    2.09
  -3 -10 -11   91.12    4.73
  -3 -10 -11   88.04    4.73
  -3 -10 -11   93.43    3.90
   3  10  11   95.11    4.60
  -3 -10 -11   93.41    4.04
   3  10  11   93.11    4.01
   3  10  11   87.99    4.89
  -5  -8   4    0.83    0.86
   5   8  -4    0.73    1.27
  -5  -8   4    2.18    2.05
   5   8  -4   -2.22    2.40
   2  11  -2    2.77    1.84
   2  11  -2    2.73    1.54
   4 -10  -3   18.61    2.14
  -4  10   3   16.97    2.37
   4 -10  -3   13.82    1.67
   4 -10  -3   16.96    2.12
  -4  10   3   15.78    1.22
  -4  10   3   16.52    2.20
   1  -6  11   66.53    4.09
   1  -6  11   73.93    3.70
  -1   6 -11   69.16    3.88
   1  -6  11   74.09    4.70
   4  -5  11   54.30    3.35
   4  -5  11   46.48    2.67
  -4   5 -11   49.24    3.25
  -4   5 -11   42.29    2.18
   0 -12  -2   63.26    3.46
   0 -12  -2   76.24    4.04
   0  12   2   74.33    4.04
   3   4  15   -0.18    1.68
  -3  -4 -15    3.72    1.65
  -3  -4 -15    0.63    1.53
   3   4  15    1.05    1.60
   3   4  15    1.35    1.30
  -3  -4 -15    0.89    1.72
   6   1  -8   17.63    2.93
   6   1  -8   13.99    1.88
  -6  -1   8   15.70    1.92
  -6  -1   8   10.03    1.78
   2 -11  -6   36.29    2.44
   2 -11  -6   35.76    2.70
   2 -11  -6   33.44    2.68
  -2  11   6   34.83    2.34
   3   7  14   44.87    2.85
  -3  -7 -14   46.33    2.97
   3   7  14   45.12    2.79
   3   7  14   42.66    3.16
   0  -9 -12    5.73    1.66
   0   9  12    2.91    1.48
   0   9  12    5.38    1.71
  -6   6  -7   14.42    1.10
   6  -6   7   15.50    2.27
  -6   6  -7   17.71    2.32
  -6   6  -7   15.60    2.05
   6  -6   7   14.24    1.91
   8   6   5    7.24    1.18
   8   6   5    5.13    2.25
   8   6   5    5.78    1.76
   8   6   5    2.07    1.89
   8   6   5    4.67    1.46
   8   6   5    2.65    1.67
   8   6   5    2.52    1.00
  -2 -12  -3   32.18    2.77
   2  12   3   30.25    2.74
  -2 -12  -3   27.35    1.99
   8   6   4   13.77    2.11
   8   6   4   18.26    1.43
   8   6   4   18.34    1.38
   8   6   4   19.44    2.34
   8   6   4   23.35    2.71
   8   6   4   13.91    2.46
   8   6   4   17.23    1.84
   1  -7 -13   16.05    1.98
  -1   7  13   11.76    1.93
  -1   7  13   16.96    1.85
  -1   7  13   14.75    2.03
   1  -7 -13   13.97    1.86
  -1   7  13   16.16    2.17
  -6   3   8   34.02    1.65
   6  -3  -8   33.22    2.56
  -6   3   8   38.88    2.87
  -6   3   8   36.23    3.02
   2  12   5   30.11    2.66
  -2 -12  -5   27.85    1.98
  -2 -12  -5   36.26    2.98
  -5  -8 -12   38.72    2.85
   5   8  12   31.09    3.00
  -5  -8 -12   35.54    2.90
  -5  -8 -12   36.90    2.48
   5   8  12   34.50    1.98
   5   8  12   33.10    2.90
   5   8  12   33.75    2.74
   2   1 -13   45.44    2.55
  -2  -1  13   43.42    2.70
  -2  -1  13   43.75    2.95
   2   1 -13   45.09    2.99
   2   1 -13   41.64    2.74
  -2  -1  13   41.72    2.11
   4  10  -2   64.16    3.73
  -4 -10   2   63.07    3.63
   4  10  -2   61.64    3.93
   4  10  -2   62.59    3.02
  -4 -10   2   57.29    2.63
   8  -3   5   42.05    3.29
  -8   3  -5   38.43    2.65
  -8   3  -5   39.95    2.48
  -8   3  -5   44.02    3.44
   8  -3   5   44.43    2.97
   7   8   7   60.87    3.38
   7   8   7   63.89    3.53
   7   8   7   60.70    3.94
   7   8   7   55.32    3.63
   7   8   7   55.89    3.52
   8  -2  -2   37.40    2.61
  -8   2   2   39.02    3.40
   8  -2  -2   37.29    3.51
  -7   1   6   19.20    2.38
  -7   1   6   20.37    2.18
   7  -1  -6   18.23    2.02
   1   4  15   72.20    4.04
  -1  -4 -15   64.91    3.78
  -1  -4 -15   70.35    3.90
  -1  -4 -15   74.16    4.15
   1   4  15   69.03    3.86
   2   1  15    0.79    1.24
   2   1  15    3.74    1.60
   2   1  15    1.34    1.50
   2   1  15   -0.66    2.22
  -2  -1 -15    1.01    1.59
  -2  -1 -15    1.04    1.38
  -3   7  11   41.78    2.79
  -3   7  11   43.20    2.46
   3  -7 -11   34.38    2.84
  -3   7  11   40.45    2.97
   3  -7 -11   34.59    2.71
   3  -7 -11   38.60    2.48
   1   7  14   64.71    3.67
   1   7  14   60.26    3.82
  -1  -7 -14   57.44    3.29
  -1  -7 -14   65.45    3.59
   1   7  14   62.05    3.48
  -1  -7 -14   61.59    3.63
   7  -6  -1   28.80    2.47
   7  -6  -1   18.95    2.72
   4   6  -8   44.22    3.80
  -4  -6   8   46.80    3.70
   4   6  -8   37.87    2.30
  -4  -6   8   40.22    2.58
   4   6  -8   46.37    2.55
  -7   0   6   34.76    2.58
  -7   0   6   41.84    3.12
   7   0  -6   39.52    2.56
  -3 -11  -9    6.21    1.13
   3  11   9    5.06    2.12
  -3 -11  -9    5.27    1.74
  -3 -11  -9    3.47    1.80
   3  11   9    8.11    1.79
  -3 -11  -9    3.78    1.05
  -8  -1  -9    3.78    1.14
  -8  -1  -9    3.81    1.47
   8   1   9    3.97    1.89
   8   1   9    4.88    1.58
   0  11  -3   47.77    2.57
   0  11  -3   47.34    3.26
   0 -11   3   47.99    3.24
   0 -11   3   46.66    2.44
   0  11  -3   44.25    3.04
   0  11  -3   51.28    3.53
  -4   8  -7   57.72    3.34
   4  -8   7   56.64    3.41
   7  -6   3   13.51    2.11
  -7   6  -3   14.18    2.30
  -7   6  -3   15.96    1.82
   5   0 -10   16.74    2.68
   5   0 -10   14.80    1.95
  -5   0  10   15.55    1.84
  -5   0  10   14.83    1.99
  -5   0  10   14.76    2.65
   1 -10 -10    2.32    1.45
  -1  10  10    4.37    1.71
   1 -10 -10    2.68    1.46
  -7  -3   5   73.74    4.01
   7   3  -5   80.18    3.56
  -7  -3   5   90.98    5.21
  -7  -3   5   77.30    3.65
  -7   5  -6   99.98    4.63
  -7   5  -6   95.28    5.20
   7  -5   6   99.54    4.85
   7  -5   6   88.07    4.70
   1  -7  10   54.02    3.03
   1  -7  10   59.35    4.22
  -1   7 -10   52.21    3.17
  -1   7 -10   51.48    3.37
   3  -8   8   38.12    2.70
  -3   8  -8   33.49    2.05
  -3   8  -8   29.07    2.11
   0 -12  -5    5.01    1.80
   0 -12  -5    5.04    1.42
   0  12   5    2.77    1.44
  -8   3   1    3.03    1.82
  -8   3   1    3.49    0.62
   8  -3  -1    4.81    1.65
   8  -3  -1    1.22    1.98
  -8  -5  -8   33.20    2.52
   8   5   8   37.56    2.31
   8   5   8   31.92    1.29
   8   5   8   37.83    3.28
   8   5   8   30.32    2.41
   8   5   8   36.22    2.37
   8   5   8   36.12    2.75
  -6   6   6   81.21    4.73
  -6   6   6   88.41    3.80
   6  -6  -6   92.65    4.98
   6  -6  -6   86.38    3.33
   6  -6  -6   97.22    4.60
   3   5 -10   77.83    3.73
  -3  -5  10   76.68    3.86
   3   5 -10   76.41    3.65
   6  -5  -7   19.89    1.47
  -6   5   7   22.31    1.61
  -6   5   7   25.76    2.75
   6  -5  -7   21.94    2.29
  -4  10  -1    7.40    1.08
   4 -10   1    7.43    1.28
  -4  10  -1    4.72    1.79
  -4  10  -1    5.66    1.70
   4  -4  12    1.64    1.15
  -4   4 -12    3.28    1.67
   4  -4  12    2.32    1.82
   4  -4  12    3.77    1.57
  -4   4 -12    2.84    1.55
   5  -3  12   21.93    2.28
  -5   3 -12   23.64    1.98
  -5   3 -12   15.82    2.30
   5  -3  12   20.62    2.02
  -5   3 -12   21.23    2.40
   0  -8 -13   16.18    1.98
   0   8  13   13.10    1.90
   0   8  13   14.62    2.05
   0   8  13   16.33    1.81
   0   8  13   15.04    2.12
   0  -8 -13   16.33    2.12
   1  12   6   30.25    2.55
  -1 -12  -6   27.99    2.06
  -1 -12  -6   27.95    2.65
   2  -6  11    0.77    1.31
   2  -6  11    1.79    2.09
   2  -6  11    1.88    1.71
  -2   6 -11    0.48    1.53
  -4   6 -10   99.70    3.83
   4  -6  10  111.36    5.18
  -4   6 -10  108.71    5.10
  -4   6 -10  104.40    4.50
   3  11  -1   31.79    2.79
  -3 -11   1   31.02    2.36
   3  11  -1   30.61    2.75
   3  11  -1   32.89    2.21
   4   7  -7   -0.42    0.91
   4   7  -7    0.73    1.31
   4   7  -7    0.58    1.77
  -4  -7   7   -0.21    1.86
  -4  -7   7    0.11    1.16
   4   7  -7    0.22    2.15
   4   7  -7    1.91    1.18
  -6   7  -5  136.61    5.69
  -6   7  -5  101.55    3.37
   1   0 -14   64.57    3.73
  -1   0  14   76.76    4.00
   1   0 -14   74.95    3.86
  -1   0  14   66.40    3.68
   0 -11  -9    4.56    1.77
   0  11   9    1.50    1.28
   0 -11  -9    2.31    1.55
   0 -11  -9    3.42    1.42
   0  11   9    3.45    1.68
   5  -8  -6   31.26    2.71
   5  -8  -6   26.29    1.64
  -5   8   6   29.87    2.89
  -5   8   6   27.62    2.34
  -5   8   6   24.18    1.93
   5  -3 -10   77.66    4.06
  -5   3  10   80.72    3.41
  -5   3  10   79.36    4.31
  -5   3  10   88.89    5.12
   5  -3 -10   86.06    5.16
  -5   3  10   80.21    4.41
   8   6   6    1.62    0.96
   8   6   6    0.78    1.86
   8   6   6    2.31    1.17
   8   6   6    1.48    1.57
   8   6   6    1.89    1.96
   8   6   6    1.39    1.59
   1  -5  12   61.54    3.47
   1  -5  12   51.81    3.55
  -1   5 -12   62.98    3.74
   1  -5  12   56.62    4.24
   6   1  13   30.47    2.86
   6   1  13   33.06    2.89
   6   1  13   31.02    2.57
   6   1  13   30.12    2.39
  -6  -1 -13   36.71    2.05
  -6  -1 -13   36.59    3.01
  -6  -1 -13   33.27    2.44
  -2   2 -14  118.23    5.40
   2  -2  14  110.80    5.54
   2  -2  14  116.04    6.11
   2  -2  14  111.51    5.18
  -2   2 -14  109.09    5.37
   2  -2  14  111.73    4.44
  -2   2 -14  121.15    5.50
  -1  11   8    0.25    1.21
  -1  11   8   -0.19    1.51
   1 -11  -8   -0.53    1.35
   1 -11  -8   -0.28    1.29
  -5   9   3   11.09    2.10
   5  -9  -3   11.33    2.15
  -5   9   3   10.73    1.73
   3 -10  -7   58.56    3.06
  -3  10   7   54.41    3.55
   3 -10  -7   58.06    3.52
   8   6   3   61.59    2.66
   8   6   3   63.89    2.71
   8   6   3   62.92    3.21
   8   6   3   59.94    3.71
   8   6   3   66.08    4.01
   8   6   3   69.81    3.81
   8   6   3   60.57    4.15
  -7   3  -9   73.24    4.39
  -7   3  -9   79.17    4.17
  -7   3  -9   73.56    3.16
   7  -3   9   75.92    4.37
  -7   3  -9   76.49    4.21
   7  -3   9   70.57    4.17
   7  -3   9   75.61    4.28
   2   5  15   21.02    2.47
  -2  -5 -15   20.91    2.44
  -2  -5 -15   22.76    2.38
   2   5  15   21.93    2.12
   2   5  15   19.21    2.18
   2   5  15   22.78    2.52
   7   8   2    0.48    1.72
   7   8   2   -0.17    1.73
   7   8   2    0.55    0.94
   7   8   2    0.17    1.79
  -8   1  -8    9.00    1.59
  -8   1  -8    9.21    1.82
   8  -1   8   11.23    1.91
   8  -1   8    7.24    2.08
  -8   1  -8    8.96    2.17
   8  -1   8    5.69    2.02
  -8   1  -8    9.09    1.14
  -4 -11  -1   70.92    2.86
   4  11   1   82.34    4.50
   4  11   1   76.74    3.86
   4  11   1   77.37    4.36
  -4 -11  -1   76.01    3.58
   2   6 -10    8.69    1.64
  -2  -6  10    9.88    1.66
   2   6 -10    7.20    1.46
  -4  -8 -13   29.74    2.36
   4   8  13   27.79    2.74
  -4  -8 -13   27.87    2.63
   4   8  13   28.06    2.68
   4   8  13   28.99    2.07
   4   8  13   26.64    2.03
   2   7  -9   -0.52    1.29
  -2  -7   9    0.64    1.33
  -1   5  14   85.85    4.43
   1  -5 -14   87.89    4.56
  -1   5  14   84.53    4.38
   1  -5 -14   93.24    4.43
  -1   5  14   91.20    4.61
   1  -5 -14   93.82    4.49
   1  -5 -14   85.65    4.32
  -1 -12  -1   49.76    3.40
  -1 -12  -1   49.86    2.82
   1  12   1   53.88    3.52
  -5  -1 -14   86.04    4.63
  -5  -1 -14   86.03    4.29
   5   1  14   82.92    4.07
   5   1  14   83.51    4.49
   5   1  14   85.29    4.23
   5   1  14   84.71    4.60
  -2   9  -7    6.15    1.17
   2  -9   7    5.44    1.39
  -2   9  -7    6.67    1.40
   2  -9   7    5.80    2.04
   8  -2   7  185.63    7.80
  -8   2  -7  184.67    7.24
   8  -2   7  181.34    7.51
  -8   2  -7  173.47    6.93
  -8   2  -7  184.38    7.91
  -6  -8   2   43.25    3.38
   6   8  -2   39.50    3.73
   6   8  -2   43.28    3.35
   6   8  -2   43.94    3.38
   6   8  -2   43.71    2.66
  -6  -8   2   41.55    1.85
   8   4  -1    4.99    1.57
   8   4  -1    5.40    1.90
   8   4  -1    3.35    1.70
   8   4  -1    4.40    0.87
  -8  -4   1    4.53    1.83
  -1  -1 -15   10.66    1.99
   1   1  15   11.15    2.45
  -1  -1 -15   12.82    1.86
  -1  -1 -15    9.94    1.92
   1   1  15   12.58    1.93
   1   1  15   11.60    1.66
   1   1  15   11.79    1.92
   2  12   2   10.13    1.96
  -2 -12  -2    8.81    0.89
  -2 -12  -2   12.48    2.19
  -2 -12  -2    6.19    1.25
  -2 -12  -2    8.17    0.61
   5   7  13   32.31    2.11
  -5  -7 -13   30.52    2.69
   5   7  13   25.29    2.91
  -5  -7 -13   31.02    2.82
  -5  -7 -13   30.90    2.56
   5   7  13   39.33    3.06
  -5  -7 -13   32.65    2.53
  -4  -9 -12   17.99    1.88
   4   9  12   16.33    1.26
   4   9  12   19.11    1.62
  -4  -9 -12   25.19    2.53
   4   9  12   18.39    2.45
   4   9  12   19.81    2.37
   2  -5  12   20.64    2.89
   2  -5  12   15.49    2.27
   2  -5  12   16.70    1.90
  -2   5 -12   17.16    2.18
  -1   2 -14   17.62    2.18
   1  -2  14   17.21    1.38
   1  -2  14   16.90    2.20
  -1   2 -14   17.18    2.23
  -1   2 -14   18.77    2.15
   1  -2  14   21.42    3.00
  -5 -10  -9   68.87    4.06
  -5 -10  -9   64.79    3.92
   5  10   9   57.61    3.77
   5  10   9   62.60    3.77
  -5   9  -2   39.31    3.02
  -5   9  -2   29.45    2.71
  -8  -4  -9   80.88    4.05
   8   4   9   90.01    4.18
   8   4   9   84.45    4.07
  -8  -4  -9   84.10    4.06
   8   4   9   95.22    4.28
   8   4   9   90.32    3.39
   5   3  -9   74.65    2.80
  -5  -3   9   77.03    3.88
  -5  -3   9   78.91    3.40
  -5  -3   9   79.14    4.93
   5   3  -9   75.48    3.15
   5   3  -9   81.90    3.61
  -7   2 -10   57.29    2.88
   7  -2  10   63.69    3.77
   7  -2  10   60.50    3.82
  -7   2 -10   67.50    3.83
  -7   2 -10   62.44    4.03
  -7   2 -10   60.46    3.58
   7  -2  10   62.23    4.14
   1   9  -7   28.05    2.70
   1   9  -7   27.97    2.62
   5  -6   9   99.48    4.93
  -5   6  -9  103.83    4.87
   5  -6   9   97.23    4.55
   5  -6   9  116.55    5.56
  -5   6  -9   99.40    4.90
   2  12   6   58.35    3.99
  -2 -12  -6   56.36    2.79
  -2 -12  -6   51.66    3.58
   2  12   6   56.05    3.61
  -4  -5   9   14.47    2.68
  -4  -5   9   14.28    1.80
   4   5  -9   14.13    1.54
   4   5  -9   12.09    2.61
   4   5  -9   15.64    1.59
   7  -2  -6    1.65    1.51
  -7   2   6    0.19    1.63
  -7   2   6    0.88    1.41
   0 -12  -1   35.78    2.58
   0 -12  -1   32.92    2.84
   0  12   1   37.35    3.05
   0  12   1   36.69    2.81
   3  -9  -9    0.12    1.10
  -3   9   9   -0.64    1.50
   3  -9  -9   -0.90    1.37
   3  -9  -9   -0.26    1.36
   5  10   0   -0.49    1.30
   5  10   0   -0.56    1.73
  -5 -10   0    0.23    0.44
   5  10   0    0.44    1.49
  -5 -10   0    0.58    1.51
   0   6 -11   42.20    3.00
   0  -6  11   49.73    3.11
   0  -6  11   44.62    3.93
  -4   9  -5   47.80    3.04
  -4   9  -5   41.90    2.51
  -4 -11  -8   56.17    3.61
  -4 -11  -8   57.34    3.66
  -4 -11  -8   51.23    2.32
   4  11   8   56.79    3.60
  -4 -11  -8   52.81    2.25
   4  11   8   51.27    3.73
   6  -8   0   51.34    3.40
   6  -8   0   48.46    2.32
  -6   8   0   48.32    3.53
   5   9  11    7.13    1.75
   5   9  11    7.29    1.01
  -5  -9 -11   10.19    1.96
  -5  -9 -11    8.10    1.42
  -5  -9 -11    8.11    1.80
   5   9  11    8.04    1.20
   5   9  11    9.21    2.00
   2 -10   5    1.92    1.74
   2 -10   5    1.08    1.26
  -2  10  -5    0.53    1.13
  -1 -11   3   45.46    2.10
   1  11  -3   41.57    3.24
   1  11  -3   44.99    2.29
   1  11  -3   40.29    3.13
   1  11  -3   41.10    2.95
  -6  -9  -9    3.48    1.72
  -6  -9  -9    5.54    1.85
   6   9   9    2.04    1.54
   6   9   9    4.32    1.28
   6   9   9    2.67    1.80
   6   9   9    2.92    1.91
  -7  -1   6  113.04    5.32
   7   1  -6  103.22    4.46
  -7  -1   6  106.18    4.80
   3   8  -7   32.71    2.63
  -3  -8   7   31.19    2.24
   3   8  -7   30.47    2.86
   8   0  -3   67.33    3.30
   8   0  -3   62.24    3.00
  -8   0   3   75.26    4.45
  -3  -1 -15   86.88    4.80
   3   1  15   94.02    4.61
   3   1  15   91.53    4.49
   3   1  15   95.29    5.31
   3   1  15   95.98    4.91
  -3  -1 -15  100.01    4.66
  -2  11  -2    0.54    1.80
  -2  11  -2    0.53    1.31
  -2  11  -2   -0.39    1.25
  -5  -5 -14    0.83    1.50
   5   5  14    2.60    1.79
  -5  -5 -14    1.04    1.52
   5   5  14    2.70    1.28
   5   5  14   -0.35    1.80
   5   5  14    0.58    1.66
  -5  -5 -14    2.15    1.73
   4  -9  -7   41.18    3.02
  -4   9   7   44.77    3.14
   4  -9  -7   41.16    2.36
   0  -7  10   72.54    4.71
   0   7 -10   70.38    3.87
   0   7 -10   67.77    3.93
   6  -4  10   55.85    3.51
   6  -4  10   66.49    4.07
   6  -4  10   64.99    3.82
  -6   4 -10   61.53    3.70
  -6   4 -10   63.72    3.75
  -6   4 -10   71.56    3.97
  -6   4 -10   61.68    2.99
   7  -4  -5   50.27    3.76
  -7   4   5   46.84    2.00
  -7   4   5   54.09    3.82
   7  -4  -5   46.81    1.97
   7  -4  -5   45.59    2.99
  -4  10   4    4.89    1.90
   4 -10  -4    7.48    1.43
   4 -10  -4    4.93    1.65
  -4  10   4    6.27    1.64
   4 -10  -4    7.16    1.73
  -8  -3   2    0.53    1.67
   8   3  -2    1.54    1.01
   8   3  -2    0.31    1.72
   8   3  -2    0.37    1.31
   8   3  -2    0.60    1.45
   4  -1  14   21.85    2.11
  -4   1 -14   24.67    2.25
   4  -1  14   21.95    2.61
   4  -1  14   23.72    2.24
  -4   1 -14   23.29    2.48
   4  -1  14   20.16    2.10
  -2   7 -10    0.47    1.18
  -2   7 -10    0.80    1.45
   2  -7  10   -0.22    1.84
   2  -7  10   -0.26    1.31
  -4   5  11  114.98    5.40
   4  -5 -11  103.89    4.54
   4  -5 -11  111.56    5.06
   4  -5 -11   98.48    5.49
  -4   5  11  110.25    5.22
  -4   5  11  104.77    4.63
  -4   5  11  100.93    5.48
   3 -11  -2    0.74    1.29
  -3  11   2    0.37    0.94
  -3  11   2   -0.88    1.50
  -3  11   2    1.17    1.68
   3 -11  -2   -1.37    1.59
  -1  11  -3    8.98    1.83
   1 -11   3    4.57    1.26
  -1  11  -3    6.49    1.38
   1 -11   3    3.73    1.60
   0 -10 -11    1.01    1.27
   0 -10 -11   -1.26    1.52
   0  10  11   -1.12    1.55
   0  10  11    0.72    1.30
  -6  -5 -13   63.00    3.84
   6   5  13   60.47    2.95
  -6  -5 -13   62.37    3.33
  -6  -5 -13   59.34    3.62
   6   5  13   62.05    3.87
   6   5  13   55.13    3.87
   2 -10  -9    1.69    0.95
  -2  10   9    1.59    1.47
   2 -10  -9    3.73    1.46
   2 -10  -9    2.36    1.39
  -3  10  -4    0.27    1.29
  -3  10  -4    1.77    1.25
  -3  10  -4   -0.18    1.70
  -6   8  -1   39.50    3.28
   6  -8   1   32.66    1.66
   6  -8   1   34.19    2.79
   3   5  15   96.84    4.83
   3   5  15   97.60    5.00
  -3  -5 -15  100.21    4.82
  -3  -5 -15   95.89    4.80
   3   5  15   98.48    4.91
  -3  -5 -15   86.75    4.85
   3   5  15   89.55    4.45
   6  -8  -1   15.22    1.42
   6  -8  -1   14.34    2.53
   6  -8  -1   16.74    2.25
  -6   8   1   18.23    2.48
  -8  -1   3   27.94    2.81
   8   1  -3   22.80    1.86
   8   1  -3   29.98    2.65
  -3  11   1   18.46    2.36
   3 -11  -1    9.57    1.85
   3 -11  -1   13.13    1.66
  -3  11   1   11.12    1.40
  -3  11   1   16.54    2.22
  -6   3 -11   50.06    2.77
   6  -3  11   57.76    3.85
   6  -3  11   50.37    3.34
  -6   3 -11   53.68    3.47
  -6   3 -11   53.20    3.48
   7  -4   8   61.70    3.91
  -7   4  -8   53.33    3.31
   7  -4   8   57.45    3.70
  -7   4  -8   58.90    3.47
  -7   4  -8   61.42    3.87
  -7   4  -8   52.03    2.29
   7  -5  -4   28.00    2.51
  -7   5   4   25.10    2.72
  -7   5   4   23.06    1.21
  -7   5   4   25.51    1.60
   7  -5  -4   28.87    3.06
   6   6  -5   30.57    1.97
   6   6  -5   33.23    3.52
  -6  -6   5   29.02    1.95
   6   6  -5   32.39    1.67
   6   6  -5   31.69    1.72
   6   6  -5   35.48    2.03
   6   6  -5   27.51    2.95
  -6  -6   5   33.39    3.31
  -8   4  -2   39.94    2.41
  -8   4  -2   27.99    3.08
   8  -4   2   39.98    3.17
   8  -4   2   35.98    2.79
  -8   4  -2   37.28    2.26
   7  -6  -2    2.72    1.98
   7  -6  -2    4.03    1.77
  -8   1   3  108.33    5.65
   8  -1  -3   91.08    3.64
   8  -1  -3   99.42    5.56
  -6  -5   6   57.34    4.20
  -6  -5   6   54.27    2.90
   6   5  -6   57.79    2.58
   6   5  -6   51.67    2.15
   6   5  -6   49.07    4.16
  -3  11   3    4.29    1.16
  -3  11   3    5.10    1.88
  -3  11   3    6.38    1.87
   3 -11  -3    5.66    1.71
   3 -11  -3    6.38    1.51
   3 -11  -3    3.89    1.40
   8   5   0   45.47    3.31
   8   5   0   51.25    3.41
   8   5   0   57.34    3.33
   8   5   0   46.98    2.44
  -1  -5 -15   10.38    1.88
   1   5  15   15.72    2.22
  -1  -5 -15   12.77    2.05
  -1  -5 -15   12.98    1.98
   1   5  15   14.80    2.04
   6   9   0  174.49    6.54
   6   9   0  178.05    7.47
   6   9   0  164.42    7.33
   6   9   0  173.97    7.36
   6   9   0  166.65    6.74
   8   6   7    6.01    2.04
   8   6   7    7.73    1.19
   8   6   7    3.00    1.77
   8   6   7    3.75    1.29
   8   6   7    6.90    1.85
   8   6   7    4.17    2.07
   0  12   6   -0.29    1.43
   0 -12  -6    0.49    1.58
   0 -12  -6   -1.45    1.29
   7   8   8  121.91    6.07
   7   8   8  136.79    5.92
  -7  -8  -8  119.07    5.58
   7   8   8  132.80    5.85
   7   8   8  123.77    5.57
  -7  -8  -8  127.54    5.69
   7   8   8  131.43    5.72
   8   0   9    4.73    1.93
   8   0   9    8.92    1.76
  -8   0  -9    5.46    1.17
  -8   0  -9    2.53    1.83
  -8   0  -9    4.45    1.47
  -8   4  -1   23.19    1.84
   8  -4   1   21.58    2.98
   8  -4   1   24.21    2.36
  -8   4  -1   21.79    1.66
   7   7  -1   -1.10    1.88
   7   7  -1    1.74    1.47
   7   7  -1    1.07    0.31
   7   7  -1    2.17    1.57
   8   6   2   64.13    4.08
   8   6   2   63.01    3.74
   8   6   2   59.29    3.79
   8   6   2   57.67    2.53
   8   6   2   58.72    3.03
   8   6   2   56.79    3.62
   1 -12  -3   44.78    2.04
  -1  12   3   46.37    2.98
   1 -12  -3   44.93    3.12
   1 -12  -3   45.08    3.03
   1 -12  -3   43.51    2.08
   2   5 -11   20.32    2.05
  -2  -5  11   22.62    2.23
   2   5 -11   19.98    2.02
  -7  -3 -12   44.55    2.55
   7   3  12   52.54    3.07
  -7  -3 -12   44.97    3.24
   7   3  12   41.85    3.12
  -7  -3 -12   47.61    3.01
   7   3  12   45.14    3.50
   7   3  12   44.94    2.53
  -7   6  -4   31.77    3.02
  -7   6  -4   33.21    2.45
  -3  -2  12   -0.15    1.35
  -3  -2  12    0.81    0.70
   3   2 -12    2.70    1.55
   3   2 -12    1.36    1.16
   3   2 -12    1.60    1.01
   3   2 -12    1.70    2.03
   0   5 -12   51.20    3.31
   0  -5  12   52.17    3.21
   0  -5  12   52.37    4.22
   0  -5  12   51.21    3.43
   8  -4   3   37.28    2.57
  -8   4  -3   40.33    2.40
   8  -4   3   35.85    3.06
   8  -4   3   39.08    2.92
  -8   4  -3   38.39    3.30
  -8   4  -3   35.61    2.39
   3  -2  14   42.77    3.82
   3  -2  14   36.15    2.42
  -3   2 -14   42.12    3.03
   3  -2  14   42.78    2.92
   3  -2  14   48.48    3.06
   3  -2  14   48.68    3.53
  -3   2 -14   45.21    3.32
   6   7  12   22.90    1.57
   6   7  12   24.13    2.80
   6   7  12   21.52    2.29
  -6  -7 -12   22.29    2.38
  -6  -7 -12   22.70    2.47
  -6  -7 -12   24.30    2.39
   6   7  12   21.88    2.67
   6   7  12   24.57    2.61
   4   3  15    6.79    1.91
   4   3  15   10.43    1.71
  -4  -3 -15    8.50    1.80
  -4  -3 -15    8.97    1.98
   4   3  15    7.27    2.09
   2   8  -8   21.30    2.05
   2   8  -8   18.60    2.26
  -2  -8   8   19.67    1.93
   2   8  -8   19.20    2.48
   1  -8   9   58.48    4.17
  -1   8  -9   66.22    3.72
   1  -8   9   68.84    3.36
  -1   8  -9   55.44    3.38
  -7  -2 -12   23.99    2.18
   7   2  12   24.02    2.33
   7   2  12   25.05    2.49
   7   2  12   27.38    2.82
  -7  -2 -12   22.46    2.37
  -7  -2 -12   27.02    1.79
   2  11  10    0.63    1.44
  -2 -11 -10    2.77    1.16
  -2 -11 -10    1.68    1.11
  -2 -11 -10    3.29    1.71
   2  -6 -13    0.55    1.32
  -2   6  13    3.97    1.57
  -2   6  13    2.55    1.85
   2  -6 -13    0.15    1.42
  -2   6  13    1.19    1.50
  -4  -8   6   90.00    3.93
  -4  -8   6   87.67    4.96
   4   8  -6   84.05    4.76
   4   8  -6   89.79    4.30
  -1  12   2   36.51    3.00
  -1  12   2   32.65    2.56
   1 -12  -2   33.82    2.67
   1 -12  -2   41.73    2.86
   1 -12  -2   33.56    2.04
  -5  -1  10   49.11    3.11
   5   1 -10   47.33    2.36
   5   1 -10   52.39    4.23
   5   1 -10   61.22    3.31
  -5  -1  10   50.50    2.85
  -5  -1  10   48.41    3.98
   0   3  15   34.87    2.77
   0   3  15   38.75    2.93
   0  -3 -15   37.05    2.90
   0  -3 -15   36.74    2.74
   6  -5   9   36.48    2.82
  -6   5  -9   40.95    2.95
  -6   5  -9   36.82    3.02
  -6   5  -9   36.97    2.06
   6  -5   9   33.96    3.04
   6  -5   9   29.66    2.58
   6   8  11   57.70    3.64
   6   8  11   52.75    3.52
   6   8  11   57.06    3.73
   6   8  11   53.14    2.22
  -6  -8 -11   61.91    3.76
  -6  -8 -11   54.24    3.53
  -4  10  -2   15.32    1.45
  -4  10  -2   12.42    2.23
  -4  10  -2   15.82    2.33
   8  -3   6   27.18    2.66
  -8   3  -6   31.95    3.13
  -8   3  -6   27.77    2.46
   8  -3   6   30.92    3.01
  -8   3  -6   31.13    2.30
  -6  -2   8    0.76    1.26
  -6  -2   8    0.52    1.40
   6   2  -8    2.29    1.46
   1 -12  -4   77.89    4.05
   1 -12  -4   78.22    4.24
  -1  12   4   73.42    3.86
   4  -3  13    2.78    1.71
   4  -3  13    2.70    1.22
   4  -3  13    3.61    1.53
  -4   3 -13    2.61    1.60
  -1 -12  -7   48.11    3.24
   1  12   7   51.95    3.32
  -1 -12  -7   46.37    2.71
  -1 -12  -7   47.07    3.32
   2   0  15   17.08    1.82
  -2   0 -15   21.09    2.27
  -2   0 -15   17.85    2.39
   2   0  15   20.24    2.84
  -2   0 -15   16.62    2.26
   2   0  15   18.92    2.21
  -2   0 -15   15.67    1.99
  -6   8  -2   48.20    3.54
   6  -8   2   38.63    3.00
   0   2  15   69.13    3.93
   0  -2 -15   73.63    3.97
   0  -2 -15   69.55    4.02
   0  -2 -15   76.90    4.12
   0   2  15   71.50    3.93
   6  -7  -5    0.78    1.67
  -6   7   5    1.60    1.20
  -6   7   5   -0.21    1.72
  -6   7   5    1.06    1.05
   6  -7  -5   -0.46    1.61
   6  -7  -5    0.03    0.38
   7   7  10   22.27    2.70
   7   7  10   24.04    2.46
   7   7  10   25.46    2.40
   7   7  10   19.04    2.44
  -7  -7 -10   23.10    2.30
  -7  -7 -10   19.94    2.18
  -6   8   2   55.70    3.24
  -6   8   2   59.71    4.02
   6  -8  -2   55.43    3.51
   6  -8  -2   53.86    3.94
  -6   4   8    2.50    1.81
   6  -4  -8    3.99    1.66
   6  -4  -8    2.19    0.98
  -6   4   8    2.46    1.50
  -4   7  -9   50.33    2.32
  -4   7  -9   59.16    3.65
  -4   7  -9   63.09    3.25
   4  -7   9   62.21    3.68
   5  -9  -4    1.71    1.70
  -5   9   4    1.03    1.24
  -5   9   4    0.20    1.63
   3 -11   0   22.41    2.01
  -3  11   0   23.46    2.52
  -3  11   0   19.68    1.83
  -3  11   0   20.61    2.48
   3 -11   0   21.56    2.33
  -7  -6 -11    1.27    1.52
   7   6  11    2.70    0.76
  -7  -6 -11    3.32    1.61
   7   6  11    3.51    1.75
   7   6  11    2.65    1.58
  -7  -6 -11    3.11    1.42
   7   6  11    3.13    1.97
   7   6  11    3.67    1.26
   7   6  11    4.26    1.93
  -3 -12  -4   81.66    4.59
   3  12   4   79.89    4.51
  -3 -12  -4   83.01    3.39
  -2 -12  -1    2.49    0.95
  -2 -12  -1    3.08    0.35
   2  12   1    5.08    1.81
   4   2 -11   64.22    3.42
  -4  -2  11   61.16    2.85
   4   2 -11   59.95    4.49
  -4  -2  11   71.15    3.74
   4   2 -11   65.57    3.12
   4   2 -11   63.66    2.71
  -1  -3  13    1.91    1.50
  -1  -3  13    1.52    1.35
   1   3 -13   -0.58    1.38
   1   3 -13    1.09    1.29
   1   3 -13   -0.56    1.73
   1  11  10   83.61    4.76
   1  11  10   80.06    4.15
  -1 -11 -10   82.97    3.86
  -1 -11 -10   81.62    4.45
  -1 -11 -10   88.39    4.50
   7  -1  11   51.16    3.61
   7  -1  11   57.91    3.57
  -7   1 -11   54.27    2.88
  -7   1 -11   56.52    3.56
  -7   1 -11   53.35    3.50
   3  10  -4   24.20    1.31
   3  10  -4   28.26    2.69
  -3 -10   4   27.63    2.61
   3  10  -4   24.22    2.50
   3  -6 -12   64.14    3.45
   3  -6 -12   67.04    3.76
  -3   6  12   68.35    3.70
  -3   6  12   68.85    4.15
   3  -6 -12   64.83    3.97
  -3 -12  -5  111.48    5.47
   3  12   5  108.88    5.42
   3  12   5  108.07    5.52
  -5   4  10  111.73    5.31
   5  -4 -10  106.38    4.55
  -5   4  10  111.83    5.44
  -5   4  10  107.58    4.39
  -5   4  10  124.41    6.20
   5  -4 -10  115.57    5.17
   1  -4  13   55.49    3.38
   1  -4  13   53.62    3.53
  -1   4 -13   47.12    3.19
  -1   4 -13   53.07    3.39
  -4  -4 -15    1.60    1.75
   4   4  15    2.93    1.88
   4   4  15    4.28    1.49
  -4  -4 -15    4.63    1.63
   4   4  15    4.49    1.84
   4   2  15   45.61    3.31
  -4  -2 -15   44.20    3.28
   4   2  15   53.11    3.16
  -4  -2 -15   48.81    3.18
   4   2  15   50.90    3.79
  -2 -12  -7   68.60    3.20
   2  12   7   70.38    4.38
  -2 -12  -7   71.29    4.22
   2  12   7   69.74    4.03
  -2   4 -13   19.20    2.23
   2  -4  13   16.59    1.14
  -2   4 -13   18.53    2.29
   2  -4  13   24.01    2.19
   2  -4  13   19.96    2.44
  -4  -7 -14   29.86    2.89
   4   7  14   26.60    2.78
   4   7  14   30.79    2.42
   4   7  14   31.35    2.22
   4   7  14   35.43    3.13
  -4  -7 -14   31.25    2.58
  -4  -7 -14   29.14    2.65
   2 -11  -7   36.48    2.74
   2 -11  -7   34.23    2.50
  -2  11   7   39.38    2.44
  -2  11   7   31.34    2.94
   2   9  13   53.89    3.44
   2   9  13   41.88    2.83
   2   9  13   47.57    2.18
  -2  -9 -13   51.81    2.88
  -2  -9 -13   48.77    2.99
  -2  -9 -13   49.05    3.39
   2   9  13   52.58    3.59
   8  -4   0   31.95    3.43
  -8   4   0   28.16    1.73
   8  -4   0   27.34    2.51
  -8   4   0   25.89    2.85
  -8   4   0   29.51    1.85
   0   8  -9   47.00    3.12
   0  -8   9   44.95    3.77
   0   8  -9   37.99    2.92
   7   4  12  100.20    5.43
  -7  -4 -12   99.88    4.42
   7   4  12  100.61    4.14
   7   4  12  103.56    4.64
  -7  -4 -12  108.09    5.11
  -7  -4 -12  101.22    4.86
   7   4  12  102.41    5.04
   8  -3  -2    4.87    2.07
  -8   3   2    7.67    2.08
   8  -3  -2    8.82    1.77
   3   4 -11   48.60    2.86
   3   4 -11   44.66    2.75
  -3  -4  11   47.13    3.01
  -3  11   4    6.94    1.81
  -3  11   4    7.21    1.93
   3 -11  -4    6.18    1.46
   3 -11  -4    5.75    1.38
  -3  11   4    6.61    1.20
   3 -11  -4    5.80    1.72
   7   8   1   27.56    2.77
   7   8   1   26.54    1.84
   7   8   1   28.45    2.57
   7   8   1   32.30    3.00
   0  12   0   94.14    4.72
  -6   0 -13    1.01    1.70
   6   0  13    2.78    1.52
  -6   0 -13    2.06    1.57
   6   0  13    0.88    1.67
  -6   0 -13    2.32    0.83
  -6   0 -13    1.43    1.35
   1  12   0   33.60    2.77
  -1 -12   0   35.07    1.82
  -5   2 -13   10.07    1.60
   5  -2  13    7.84    1.82
   5  -2  13    9.28    1.60
  -5   2 -13   10.91    1.96
   6   7  -4   46.16    3.89
  -6  -7   4   45.10    3.77
  -6  -7   4   37.04    2.11
   6   7  -4   41.36    2.08
   6   7  -4   43.11    2.45
   6   7  -4   41.03    3.34
   6   7  -4   44.16    2.36
   6   7  -4   35.58    1.66
   2  10  -5   34.08    2.86
   2  10  -5   26.69    2.65
   6  10   5   46.37    3.50
   6  10   5   38.23    3.12
   6  10   5   42.81    3.00
   5   6  -7    4.98    2.33
  -5  -6   7    5.10    1.31
   5   6  -7    3.78    1.04
   5   6  -7    2.56    1.00
  -5  -6   7    5.20    2.24
  -7   3   6   12.59    2.19
   7  -3  -6   11.16    1.12
   7  -3  -6    9.14    1.86
  -5   7   8   28.25    1.85
   5  -7  -8   28.61    2.63
  -5   7   8   24.66    2.13
  -5   7   8   26.52    2.77
   5  -7  -8   24.65    1.77
   8   2  -3    2.77    1.37
   8   2  -3    2.13    1.16
  -8  -2   3    0.74    1.72
   8   2  -3    3.92    1.80
   4  10  11   91.63    4.88
  -4 -10 -11   95.12    4.11
  -4 -10 -11   97.13    4.91
  -5   9  -3   48.04    3.43
  -5   9  -3   46.79    2.08
   0   7  14   66.83    3.75
   0  -7 -14   76.62    3.97
   0   7  14   72.76    3.75
   0   7  14   69.98    4.09
   0  -7 -14   71.10    3.81
   0   7  14   74.58    3.98
   0  -7 -14   75.49    4.08
   0  -4 -15    2.15    1.52
   0   4  15   -0.81    1.57
   0   4  15    1.75    1.46
   0  -4 -15    0.50    1.76
   3  -2 -13  124.52    5.44
  -3   2  13  115.80    4.77
  -3   2  13  128.85    5.30
   3  -2 -13  116.21    5.09
  -3   2  13  131.22    5.43
  -3   2  13  132.69    5.82
   3  -2 -13  121.01    6.23
  -3   2  13  131.83    6.37
  -3 -12  -3   82.49    3.43
  -3 -12  -3   85.98    4.69
   3  12   3   91.33    4.97
   3  -6  11   24.15    2.88
  -3   6 -11   24.58    1.93
   3  -6  11   21.35    2.22
   3  -6  11   22.51    2.53
  -1  12   1   16.73    2.06
   1 -12  -1   17.84    1.69
   1 -12  -1   21.29    2.23
  -1  12   1   18.72    2.47
   1 -12  -1   15.72    2.10
   6   4  -7   26.52    1.23
  -6  -4   7   30.23    2.23
  -6  -4   7   30.93    3.48
  -6  -4   7   28.96    2.06
   6   4  -7   25.19    3.42
   6  10   4   61.43    3.35
   6  10   4   61.81    3.44
   6  10   4   53.30    3.66
   6  10   4   54.75    3.89
   1   0  15   -1.26    1.63
  -1   0 -15   -0.33    1.66
  -1   0 -15   -0.65    1.68
   1   0  15   -0.34    1.75
   1   0  15    0.32    1.14
  -1   0 -15    2.56    1.50
   1   0  15   -0.48    2.23
  -7  -2   6   57.52    3.52
   7   2  -6   60.37    3.12
  -7  -2   6   60.60    3.23
   0  -2  14    4.86    1.52
   0   2 -14    3.09    1.62
   0   2 -14    4.71    1.82
   0  -2  14    1.26    2.17
   0   2 -14    5.07    1.57
   0  -2  14    4.28    1.72
   4   4 -10   -0.49    2.07
  -4  -4  10    1.59    1.47
   4   4 -10    0.96    1.19
   4   4 -10    1.58    1.36
   3  -5  12   17.32    2.02
   3  -5  12   15.52    1.36
   3  -5  12   16.56    2.34
  -6   2 -12  109.58    5.22
  -6   2 -12   97.71    4.44
  -6   2 -12   99.20    4.97
   6  -2  12  103.71    5.08
   5   0  14   10.47    1.99
  -5   0 -14   13.01    2.08
   5   0  14    8.10    1.64
  -5   0 -14   11.57    1.87
   5   0  14   13.14    1.90
   8   5   9   43.34    2.78
   8   5   9   43.18    3.10
   8   5   9   42.23    2.52
   8   5   9   37.98    1.66
  -8  -5  -9   35.76    2.65
  -8  -5  -9   37.47    2.59
   8   5   9   41.88    2.75
  -8   4  -4   30.81    2.34
  -8   4  -4   30.65    3.00
   8  -4   4   34.89    3.14
   8  -4   4   34.23    2.59
  -8   4  -4   33.26    2.24
   8  -4   4   35.11    2.75
   4  -7 -10   14.32    1.70
  -4   7  10   11.45    1.74
   4  -7 -10   14.52    2.32
  -4   7  10   18.04    2.37
  -5   8  -6   51.63    3.40
  -2  -6 -15   14.95    2.41
   2   6  15   21.16    2.25
  -2  -6 -15   19.74    2.30
   2   6  15   18.53    2.00
   2   6  15   20.89    2.44
   8  -2  -3   62.74    4.29
   8  -2  -3   48.47    2.08
   8  -2  -3   49.05    2.98
  -8   2   3   51.96    3.82
  -6 -10  -6  115.25    5.64
   6  10   6  110.18    5.03
   6  10   6  102.44    5.30
   6  10   6  100.28    5.13
  -5   6   9    3.11    1.55
  -5   6   9    2.96    1.25
   5  -6  -9    3.64    1.68
   5  -6  -9    4.40    1.14
  -5   6   9    4.11    1.77
  -5   6   9    4.15    0.75
   4  11   0   55.54    3.17
   4  11   0   55.10    3.78
  -4 -11   0   63.13    3.49
   4  11   0   62.87    3.89
  -7  -1 -12   -0.97    1.77
  -7  -1 -12   -0.30    0.71
   7   1  12    0.31    1.49
   7   1  12   -0.20    1.74
  -7  -1 -12    1.00    1.24
   5   9  -3    6.07    2.03
   5   9  -3    3.98    2.02
  -5  -9   3    4.56    0.99
  -5  -9   3    4.85    2.06
   5   9  -3    4.42    1.10
   5   9  -3    5.76    1.63
  -3 -12  -6   98.59    3.87
   3  12   6   99.74    5.26
   3  12   6   99.54    5.12
  -4   8   9    6.36    1.57
   4  -8  -9    5.52    1.27
  -4   8   9    9.05    2.08
  -3   3  13   80.81    3.96
   3  -3 -13   79.35    3.93
   3  -3 -13   79.41    4.74
  -3   3  13   88.40    5.02
  -3   3  13   89.93    4.34
  -3   3  13   85.23    4.44
   3  -3 -13   83.47    4.07
  -4  10   5   34.75    2.67
   4 -10  -5   28.70    2.58
   4 -10  -5   34.91    2.56
  -4  10   5   32.88    3.06
   7   5  -4    1.11    0.68
  -7  -5   4    1.43    2.20
   7   5  -4    1.93    1.32
   7   5  -4    0.19    1.99
  -7  -5   4    1.16    1.00
  -1  -1  14   68.71    3.89
   1   1 -14   74.39    3.96
   1   1 -14   74.16    4.02
  -1  -1  14   72.60    3.82
   1   1 -14   75.77    3.73
  -1  12   5   77.15    3.91
   1 -12  -5   69.30    3.76
   1 -12  -5   73.34    4.08
  -8  -2 -10   12.89    1.93
   8   2  10   12.83    2.35
  -8  -2 -10   13.83    1.64
   8   2  10   14.70    1.89
   2  -8   9    1.41    1.37
  -2   8  -9   -0.12    1.19
   2  -8   9    1.07    1.81
   5   7  -6    4.30    0.94
  -5  -7   6    5.26    2.30
   5   7  -6    8.36    2.61
   5   7  -6    4.44    1.11
  -5  -7   6    4.14    1.17
   5   7  -6    5.49    1.39
   5  11   5   95.87    4.81
   5  11   5   84.69    4.64
   8   3  10   44.30    2.96
  -8  -3 -10   50.55    2.97
  -8  -3 -10   47.23    3.06
   8   3  10   40.26    3.43
   8   3  10   46.21    2.92
   3   0  15   56.13    4.17
   3   0  15   66.86    3.68
  -3   0 -15   61.53    3.61
  -3   0 -15   58.61    3.66
   0  10  -6   15.39    2.14
   0 -10   6   17.06    1.55
   0  10  -6   14.32    0.89
   0 -10   6   14.70    2.52
   0  10  -6   17.11    2.39
   0  -1 -15   68.60    3.92
   0   1  15   69.17    3.93
   0  -1 -15   66.73    3.86
  -3   1  13  100.49    5.44
  -3   1  13   89.30    4.59
   3  -1 -13  101.66    4.54
  -3   1  13   96.29    4.27
   3  -1 -13  100.30    5.66
  -3   1  13   87.25    3.82
   3  -1 -13  103.72    4.77
  -3   1  13   95.16    4.23
   5   5  -8    6.63    1.29
   5   5  -8    5.26    1.06
  -5  -5   8    2.11    2.18
  -5  -5   8    4.22    1.35
   5   5  -8    2.46    2.36
  -2  -2  13   46.90    3.00
  -2  -2  13   49.16    2.82
  -2  -2  13   35.02    1.61
   2   2 -13   47.26    2.92
   2   2 -13   43.79    2.61
   2   2 -13   45.97    3.17
   5  11   4   41.37    3.09
   5  11   4   43.78    2.34
   3  11  10   25.60    2.51
  -3 -11 -10   28.73    1.88
   3  11  10   25.15    2.87
  -3 -11 -10   24.55    1.90
  -1  -9 -13   17.90    1.97
  -1  -9 -13   18.63    2.29
   1   9  13   17.69    1.47
  -1  -9 -13   19.37    2.08
   1   9  13   16.98    2.12
   1   9  13   18.58    2.36
   2  10  12    2.71    1.91
   2  10  12    4.79    1.41
  -2 -10 -12    2.99    1.71
   2  10  12    5.61    1.68
  -2 -10 -12    2.82    1.21
  -2 -10 -12    2.41    1.36
   3   9  13   28.37    2.19
  -3  -9 -13   28.03    2.01
   3   9  13   29.45    2.80
   3   9  13   35.01    2.78
  -3  -9 -13   27.41    2.36
   5  -7   8   40.47    3.17
   5  -7   8   55.81    3.78
  -5   7  -8   47.27    3.22
  -5   7  -8   47.74    3.23
  -4 -11  -9   73.76    3.13
   4  11   9   76.49    4.46
   4  11   9   67.16    4.09
  -5  -6 -14   -0.69    1.51
   5   6  14    0.41    1.79
  -5  -6 -14   -0.37    1.70
   5   6  14    2.53    1.71
   5   6  14    1.09    1.82
   5   6  14    0.10    1.13
  -5  -6 -14    1.02    1.50
   2   8  14   21.80    2.37
  -2  -8 -14   22.64    2.05
   2   8  14   23.13    2.58
  -2  -8 -14   20.92    2.13
   2   8  14   18.50    2.11
   8   6   8    8.02    2.25
   8   6   8    5.33    2.26
   8   6   8    7.56    2.00
   8   6   8    8.96    1.67
  -8  -6  -8    6.77    1.73
   8   6   8    6.41    1.20
   8   6   8    4.00    1.71
  -1   6  14   78.84    3.78
   1  -6 -14   72.67    4.01
  -1   6  14   72.57    4.07
   1  -6 -14   78.15    4.08
  -1   6  14   77.46    4.15
  -1   6  14   68.60    4.08
  -7   5  -7   49.67    3.63
   7  -5   7   44.21    3.46
   7  -5   7   46.27    3.36
  -7   5  -7   47.63    3.08
   2  11  -3   17.58    1.47
   2  11  -3   20.94    2.40
   2  11  -3   18.45    2.27
   2  11  -3   19.99    2.44
  -1  10  -6    2.24    0.98
   1 -10   6    1.70    1.13
   1 -10   6    0.97    1.65
  -1  10  -6    1.33    1.39
   8   6   1   54.40    3.61
   8   6   1   57.52    3.61
   8   6   1   52.48    3.44
   8   6   1   56.01    2.88
  -6   7  -6   54.47    3.79
  -6   7  -6   56.78    2.38
  -7   6   3    7.21    2.03
   7  -6  -3    7.10    1.79
   7  -6  -3    3.62    2.14
   3   9  -6   10.32    1.95
  -3  -9   6   10.94    1.56
   3   9  -6    7.46    1.97
   5  11   6   71.21    4.26
   5  11   6   73.63    4.24
   3   6  15   45.43    2.96
   3   6  15   52.32    3.37
  -3  -6 -15   52.27    3.39
   3   6  15   48.09    3.32
   7   6  -3    1.80    0.39
   7   6  -3    0.17    1.69
   7   6  -3    2.72    1.00
   7   6  -3    1.88    2.04
  -7  -6   3    2.14    0.89
   0  12   7    1.60    1.66
   0 -12  -7    2.33    1.74
   0 -12  -7    3.27    1.66
   0 -12  -7    0.87    1.30
   0  12   7    0.43    1.30
  -2   2  14   58.24    3.56
   2  -2 -14   52.47    3.22
   2  -2 -14   51.45    3.29
  -2   2  14   55.64    3.99
  -2   2  14   51.49    3.16
  -6   8  -3   61.31    3.97
  -6  -6 -13    4.35    1.68
   6   6  13    4.00    1.08
  -6  -6 -13    4.43    1.73
   6   6  13    4.13    2.00
  -6  -6 -13    4.67    1.55
   6   6  13    3.73    1.91
   6   6  13    5.37    1.95
   6  10   3   98.34    4.85
   6  10   3  101.72    5.12
   6  10   3   92.93    5.05
   6  10   3   89.70    4.48
   6  10   3   95.01    4.54
  -3  11  -1   23.21    2.54
  -3  11  -1   18.58    1.81
  -3  11  -1   18.78    2.33
  -1  -7  10   17.56    2.03
   1   7 -10   19.34    2.16
   4  -2 -12   17.18    2.72
   4  -2 -12   22.15    2.37
  -4   2  12   20.45    1.77
  -4   2  12   19.99    2.80
  -4   2  12   21.58    2.33
  -4   2  12   18.64    2.09
  -6   8   3    4.72    1.46
   6  -8  -3    3.62    1.98
  -6   8   3    3.59    1.88
  -4  -5 -15   13.20    2.07
   4   5  15   17.38    1.94
   4   5  15   12.87    2.32
   4   5  15   10.57    2.11
  -4  -5 -15   15.77    2.17
  -4  -1 -15   54.20    3.41
   4   1  15   56.76    4.05
   4   1  15   53.86    3.23
   4   1  15   52.34    3.40
  -7  -4   5    1.74    2.15
  -7  -4   5    2.98    1.20
  -7  -4   5    2.16    1.39
  -2   3  14   64.05    3.65
   2  -3 -14   61.07    3.47
  -2   3  14   63.00    4.28
   2  -3 -14   59.33    3.50
  -3 -11   2   26.00    2.29
   3  11  -2   28.19    2.78
   3  11  -2   25.53    2.63
   3  11  -2   23.36    1.82
   3  11  -2   28.79    2.78
  -1  -6  11   38.00    2.75
   1   6 -11   34.24    2.70
   3  -7  10   50.55    3.13
   3  -7  10   40.29    3.35
  -3   7 -10   36.26    2.27
  -5 -10 -10   60.94    3.86
   5  10  10   44.60    1.76
   5  10  10   58.28    3.64
   5  10  10   58.79    3.75
   8  -2   8   88.63    4.75
   8  -2   8   93.74    4.71
   8  -2   8   85.31    4.81
  -8   2  -8   83.03    4.14
  -8   2  -8   82.73    4.32
  -8   2  -8   77.29    4.74
  -3 -12  -2  102.88    4.07
   3  12   2   98.20    5.14
  -8   4   1    1.09    0.78
   8  -4  -1    1.49    2.12
  -8   4   1    2.02    1.68
   8  -4  -1    0.14    1.57
  -8   4   1    1.54    0.79
  -2  11  -3   12.94    1.82
  -2  11  -3   13.08    1.84
   2 -11   3   13.96    2.00
   5  10  -1    5.57    1.49
   5  10  -1    3.66    1.88
  -5 -10   1    6.22    1.74
  -5 -10   1    4.53    0.75
  -9  -1  -4   22.12    2.74
   9   1   4   26.22    3.44
   9   1   4   22.58    1.50
   9   1   4   23.54    1.79
   9   1   4   25.26    1.75
  -8  -1 -10    1.83    1.17
  -8  -1 -10    1.87    1.53
   8   1  10    2.93    1.59
   8   1  10    3.26    1.80
  -7   6  -5   28.59    2.45
  -7   6  -5   29.51    2.95
   6   9  10   41.12    3.22
  -6  -9 -10   35.78    2.95
  -6  -9 -10   38.01    2.99
   6   9  10   44.91    3.16
   6   9  10   37.99    3.10
   6   9  10   38.98    2.43
  -6 -10  -7   55.13    3.62
   6  10   7   52.60    3.45
   6  10   7   54.13    3.68
   6  10   7   50.04    3.64
  -2   9  11   83.97    4.50
   2  -9 -11   83.82    4.20
   2  -9 -11   78.40    3.81
   2  -9 -11   91.03    4.36
  -2   9  11   83.70    4.47
  -9  -1  -3   19.81    2.66
   9   1   3   17.08    1.33
   9   1   3   13.97    2.41
   9   1   3   13.63    2.89
   9   1   3   17.01    1.58
   9   1   3   12.11    1.57
  -7  -8  -9   87.33    4.54
   7   8   9   92.65    4.48
   7   8   9   80.19    4.83
   7   8   9   89.69    4.46
   7   8   9   82.47    4.65
   7   8   9   87.93    4.63
  -7  -8  -9   83.38    4.51
  -2   8  12   56.17    3.14
  -2   8  12   53.31    3.46
   2  -8 -12   58.99    3.39
   2  -8 -12   47.52    3.20
  -2   8  12   53.70    3.51
   2  -8 -12   53.20    3.17
   4  10  -3   65.00    4.11
  -4 -10   3   67.78    3.08
   4  10  -3   71.00    3.91
  -4 -10   3   77.12    4.12
   4  10  -3   68.19    2.99
   1  -9 -12   70.83    3.92
  -1   9  12   70.81    3.99
  -1   9  12   71.35    4.18
   1  -9 -12   77.40    4.01
   9   2   4   21.87    1.81
   9   2   4   14.92    2.55
  -9  -2  -4   19.03    2.60
   9   2   4   20.09    1.63
   9   2   4   18.12    1.46
   9   2   4   13.50    2.93
   4  -1 -12   46.45    3.11
  -4   1  12   60.06    4.28
  -4   1  12   51.07    3.04
   4  -1 -12   50.14    4.01
   4  -1 -12   51.93    2.79
  -4   1  12   47.14    3.34
  -1  11   9    0.25    1.36
  -1  11   9    0.96    1.71
   1 -11  -9   -0.44    1.46
   1   6  15    0.91    1.52
   1   6  15    0.36    1.61
  -1  -6 -15    1.32    1.53
  -1  -6 -15    0.73    1.66
   1   6  15   -0.46    1.57
   2   4 -12   31.53    2.57
  -2  -4  12   38.19    2.72
   2   4 -12   33.88    2.59
   2   4 -12   37.68    2.40
   0  -4  13   40.55    2.91
   0   4 -13   39.43    2.93
   0   4 -13   41.28    3.07
   0   4 -13   37.92    2.73
   0  -4  13   39.08    3.07
   1  10  12   28.82    2.47
  -1 -10 -12   30.77    2.76
   1  10  12   24.17    2.77
   1  10  12   31.39    2.53
  -1 -10 -12   31.42    2.38
  -6   6  -8   13.90    1.23
  -6   6  -8   13.45    2.09
   6  -6   8   15.64    2.13
  -6   6  -8    9.67    2.16
   6  -6   8   10.77    2.44
   6  -6   8   10.52    1.86
  -3  10   8   40.21    3.04
   3 -10  -8   41.32    3.01
   3 -10  -8   44.91    2.68
   8   4  -2   19.81    2.16
   8   4  -2   20.09    2.41
   8   4  -2   15.28    1.00
  -8  -4   2   21.22    2.47
   8   4  -2   19.45    2.27
   5  11   3   -0.87    1.23
   5  11   3   -0.91    1.67
   5  11   3   -0.62    1.81
  -3  11   5    8.01    1.33
  -3  11   5    7.95    1.81
   3 -11  -5    5.48    1.54
   3 -11  -5    5.85    1.29
   3 -11  -5    8.62    1.89
   0  11  -4   19.90    2.16
   0 -11   4   19.10    1.63
   0 -11   4   17.25    2.34
   0  11  -4   16.36    1.50
   0  11  -4   18.07    2.17
   7   5  12   58.15    2.74
   7   5  12   57.79    3.84
  -7  -5 -12   55.61    3.17
  -7  -5 -12   54.23    3.53
   7   5  12   61.02    3.26
   7   5  12   55.07    3.62
  -7  -5 -12   58.77    3.50
  -8   1  -9   28.44    2.50
   8  -1   9   29.83    2.87
  -8   1  -9   24.76    1.77
  -8   1  -9   28.73    2.62
  -8   1  -9   19.92    2.72
   8  -1   9   26.36    2.48
   8  -1   9   24.34    2.81
   3  -9   7   36.15    2.73
  -3   9  -7   38.07    2.49
   8   4  10   89.21    4.17
   8   4  10   83.29    3.36
  -8  -4 -10   81.70    4.24
  -8  -4 -10   91.00    4.28
   8   4  10   79.66    4.12
   8   4  10   89.79    4.10
   3  -4  13    0.08    0.90
   3  -4  13    1.02    1.49
   3  -4  13    1.17    1.64
  -3   4 -13    0.80    1.55
   3   8  14    2.48    1.71
   3   8  14    2.93    1.33
  -3  -8 -14    2.77    1.53
   5  -8  -7   56.64    2.68
  -5   8   7   55.63    3.90
  -5   8   7   57.97    3.29
  -5   8   7   56.31    2.94
   9   2   3   53.03    2.64
   9   2   3   53.00    3.72
   9   2   3   49.98    4.32
   9   2   3   52.54    2.95
   9   2   3   50.44    2.47
  -9  -2  -3   61.80    4.16
   1 -12   0   -2.20    1.52
  -1  12   0   -0.15    1.37
   1 -12   0   -0.57    1.25
  -1  12   0    1.12    1.50
  -4  10  -3   52.10    3.65
  -4  10  -3   51.12    3.48
  -4  10  -3   52.27    2.68
  -4   3  12   -0.20    0.63
   4  -3 -12    0.23    1.96
  -4   3  12    0.10    1.13
  -4   3  12    1.01    1.47
  -4   3  12    0.22    2.12
   4  -3 -12    1.76    1.44
  -4   3  12    0.15    1.41
  -3   4  13    7.75    2.15
  -3   4  13    6.80    1.77
  -3   4  13    8.56    1.63
   3  -4 -13   11.33    1.85
   3  -4 -13    9.80    2.37
   0   5  15   28.34    2.60
   0  -5 -15   27.36    2.66
   0   5  15   29.29    2.68
   0  -5 -15   26.59    2.40
   2  12   0    1.67    1.57
  -2 -12   0    0.74    1.14
   6  -1  -9   51.98    3.17
  -6   1   9   56.23    3.59
  -6   1   9   57.58    3.49
   3  12   7   53.89    3.75
   3  12   7   48.94    3.46
  -3 -12  -7   45.83    2.33
   2   9  -7   41.52    3.22
   2   9  -7   40.14    3.12
  -3 -10 -12   54.61    3.04
   3  10  12   47.36    3.26
   3  10  12   45.19    3.66
   3  10  12   53.98    2.85
  -3 -10 -12   57.12    2.90
   0 -11 -10   11.68    1.75
   0  11  10   10.25    1.68
   0 -11 -10   10.60    2.04
   0  11  10    9.88    2.16
   8   7   5   84.39    4.34
   8   7   5   75.06    4.03
   8   7   5   79.16    4.58
   8   7   5   77.89    4.58
   8   7   5   74.83    4.15
   8   7   5   79.75    3.06
  -2   1  14   14.29    1.68
   2  -1 -14   14.36    2.21
  -2   1  14   12.08    1.88
   2  -1 -14   10.38    1.73
  -2   1  14   13.36    1.93
   9   2   5   27.57    3.52
   9   2   5   35.17    1.99
   9   2   5   34.61    2.04
  -9  -2  -5   32.64    1.87
  -9  -2  -5   32.99    3.10
   8   5  -1   60.94    3.82
   8   5  -1   60.18    3.58
   8   5  -1   60.62    3.63
   1   8  14   48.20    3.20
  -1  -8 -14   45.28    3.19
  -1  -8 -14   46.55    2.93
   1   8  14   48.58    3.11
   1   8  14   40.51    2.57
  -1  -8 -14   42.86    2.92
   1   8  14   43.21    3.27
   1  12   8   57.07    3.53
  -1 -12  -8   58.90    3.72
   9   1   5   13.54    1.25
   9   1   5   10.04    1.33
  -9  -1  -5   13.01    1.40
   9   1   5   13.43    2.98
  -9  -1  -5   15.80    2.45
   2  12   8   67.53    3.87
  -2 -12  -8   63.24    3.07
   2  12   8   62.71    4.20
  -2 -12  -8   63.09    3.87
   8  -4   5   41.56    3.01
  -8   4  -5   47.12    2.81
  -8   4  -5   41.95    3.55
  -8   4  -5   42.56    2.90
   8   7   4   79.68    3.93
   8   7   4   80.29    4.32
   8   7   4   74.56    3.37
   8   7   4   73.81    4.47
   8   7   4   79.90    2.97
   8   7   4   82.47    4.31
   5  -9  -5   18.15    2.22
  -5   9   5   16.81    2.50
  -5   9   5   16.55    1.85
  -9  -1  -2   33.48    3.14
   9   1   2   22.57    1.96
   9   1   2   29.31    3.58
   9   1   2   24.73    1.84
   9   1   2   24.51    1.59
   9   1   2   25.60    2.86
   9   1   2   22.70    1.79
   9   0   3    4.70    1.33
   9   0   3    8.52    1.29
  -9   0  -3    8.13    2.21
   9   0   3    5.68    1.25
   9   0   3    4.91    2.54
  -6   6   7   44.06    3.47
   6  -6  -7   39.44    2.05
  -5  -2  10  156.13    5.97
  -5  -2  10  159.56    6.53
   5   2 -10  147.34    5.30
   5  11   7   53.35    3.55
  -4   6  11   77.49    4.45
  -4   6  11   79.09    3.82
  -4   6  11   74.90    3.15
   4  -6 -11   72.20    3.60
   4  -6 -11   74.71    4.50
   1  -8 -13    1.07    1.47
  -1   8  13    0.98    1.56
  -1   8  13   -0.34    1.47
  -1   8  13    0.95    1.35
   1  -8 -13    0.86    1.53
  -1   8  13   -0.13    1.47
  -6   2   9   96.12    4.78
  -6   2   9   95.98    5.76
   6  -2  -9   96.72    4.60
  -6   2   9   98.77    4.96
  -6  -9   1  106.38    5.39
   6   9  -1   92.76    5.13
   6   9  -1   93.70    5.19
   6   9  -1  105.70    4.53
   6   9  -1   95.16    5.11
  -1  12   6   64.45    3.54
   1 -12  -6   62.95    3.48
   1 -12  -6   61.75    3.77
   8  -3   7  118.42    5.82
   8  -3   7  116.05    5.54
  -8   3  -7  116.16    5.40
  -8   3  -7  124.04    5.34
  -8   3  -7  122.60    6.09
  -4  -9   5   73.66    4.50
  -4  -9   5   80.34    3.55
   4   9  -5   75.45    4.52
   4   9  -5   79.18    4.11
  -3   0  13    9.26    1.89
   3   0 -13    8.39    1.52
  -3   0  13    6.37    1.30
   3   0 -13    7.03    2.41
  -3   0  13    6.11    1.26
   3   0 -13    6.63    1.79
   1  10  -6  103.65    5.23
   1  10  -6   99.24    5.02
   9   0   4    0.80    1.14
  -9   0  -4    3.61    1.89
   9   0   4    1.57    0.88
   9   0   4    1.82    2.46
   9   0   4    2.27    1.34
   1   8  -9    9.91    1.92
   1   8  -9    9.83    1.90
   0 -12   1   41.37    2.29
   0  12  -1   38.74    3.00
   0 -12   1   38.63    2.75
  -2   4  14   55.86    3.41
   2  -4 -14   60.21    3.63
  -2   4  14   63.24    4.09
   2  -4 -14   63.21    3.52
  -1   9  -8    6.24    1.62
   1  -9   8    6.20    1.40
   1  -9   8   10.29    2.30
   7   9   5    0.18    1.68
   7   9   5    3.61    1.43
   7   9   5    2.65    1.97
   8   7   6   60.03    2.48
   8   7   6   51.93    3.92
   8   7   6   52.57    3.32
   8   7   6   53.08    3.42
   8   7   6   55.72    2.96
   8   7   6   42.19    3.50
  -4   9  -6   40.87    2.82
   5   8  -5    5.78    1.40
  -5  -8   5    2.11    2.05
  -5  -8   5    5.63    1.20
   5   8  -5    6.66    2.20
   5   8  -5    6.45    2.21
   7  -5  -5   51.77    3.38
  -7   5   5   43.01    3.46
   7  -5  -5   54.73    3.93
  -7   5   5   38.96    2.03
   1 -11   4    0.17    1.66
  -1  11  -4   -0.10    1.07
   1 -11   4    1.77    1.17
  -1  11  -4    0.96    1.56
  -8   0   4   -0.20    1.74
   8   0  -4   -1.04    1.11
   8   0  -4    1.89    1.38
   8   3  -3    2.08    1.45
   8   3  -3    1.76    1.66
   8   3  -3    4.85    1.14
  -8  -3   3    0.53    1.65
   6   8  -3   12.38    2.27
   6   8  -3   13.37    2.81
  -6  -8   3   13.13    1.17
  -6  -8   3   15.76    2.59
   6   8  -3   12.96    1.54
   6   8  -3   14.88    1.76
  -3  10  -5   12.83    1.78
   3 -10   5   12.59    1.88
  -3  10  -5   10.80    1.69
  -6   0   9   39.18    2.76
   6   0  -9   31.92    3.59
   6   0  -9   38.83    2.78
  -6   0   9   33.48    2.71
   9   2   2   48.76    2.64
   9   2   2   50.59    4.29
   9   2   2   50.94    2.49
   9   2   2   53.62    3.83
   9   2   2   57.06    3.10
  -9  -2  -2   57.55    4.03
   9   3   4   64.77    3.36
  -9  -3  -4   61.80    4.15
   9   3   4   64.14    2.64
   9   3   4   72.11    4.38
   9   3   4   60.98    4.61
   9   3   4   61.81    3.13
  -7   0 -12    1.68    1.21
  -7   0 -12    1.64    1.57
   7   0  12    3.53    1.63
  -4   9   8   48.19    3.28
  -4   9   8   42.10    3.43
   4  -9  -8   49.13    2.70
   1  12  -1   56.68    3.69
  -1 -12   1   55.19    2.40
  -1  -5  12   17.91    2.07
   1   5 -12   13.74    1.97
   1   5 -12   13.88    2.02
   0   9  -8   35.49    2.88
   0  -9   8   36.75    3.50
   0  -9   8   39.27    2.36
  -4   2 -14    3.20    1.54
   4  -2  14    5.31    1.64
   4  -2  14    3.49    1.91
   4  -2  14    5.05    1.61
   7   8   0   43.02    2.45
   7   8   0   56.52    3.32
   7   8   0   56.88    3.87
   7   8   0   51.43    3.60
   9   0   2   11.87    2.92
   9   0   2    8.42    1.37
   9   0   2    6.44    1.28
  -9   0  -2    9.25    2.19
   9   0   2    7.17    1.32
   6  10   2   85.84    4.18
   6  10   2   93.08    4.97
   6  10   2   86.13    4.42
   6  10   2   80.96    4.34
   6  10   2   82.51    4.80
   5   8  13   69.14    3.88
   5   8  13   63.28    4.02
   5   8  13   66.43    3.28
  -5  -8 -13   58.11    3.73
  -5  -8 -13   63.79    3.40
   5   8  13   59.91    2.97
   7   9   4    2.86    1.97
   7   9   4    1.95    1.69
   7   9   4    2.99    1.86
   7   9   4    1.54    1.27
   1  11  -4   32.18    2.92
   1  11  -4   44.79    3.24
   1  11  -4   43.40    3.12
  -1 -11   4   36.79    1.87
   1  11  -4   37.70    1.93
   5   4  -9   20.38    1.84
  -5  -4   9   17.81    1.30
   5   4  -9   18.93    1.32
  -5  -4   9   20.43    2.03
   5   4  -9   15.80    1.43
   5   4  -9   20.27    3.11
   7   9   6   21.96    2.18
   7   9   6   25.45    2.83
   7   9   6   22.77    2.77
  -5   5  10   44.49    3.23
  -5   5  10   41.59    2.48
   5  -5 -10   41.21    2.52
  -5   5  10   43.53    3.32
   2  -3  14   29.64    2.78
  -2   3 -14   31.51    2.72
   4  -8   8   44.56    3.02
  -4   8  -8   38.63    2.74
   2  -1  15   51.83    2.84
  -2   1 -15   48.29    3.27
   2  -1  15   53.65    3.39
   2  -1  15   52.45    3.69
   1 -10 -11   65.67    3.75
  -1  10  11   66.33    3.90
  -1  10  11   65.41    4.11
   1 -10 -11   64.94    3.64
  -5   9  -4   46.78    3.28
  -5   9  -4   42.56    2.14
  -7   3 -10   59.31    3.73
  -7   3 -10   52.79    3.48
  -7   3 -10   54.26    2.70
   7  -3  10   60.95    4.03
  -7   3 -10   55.17    3.78
   7  -3  10   45.86    3.43
  -3   8  11   48.28    3.15
  -3   8  11   51.99    3.51
   3  -8 -11   44.06    2.82
   8  -1  -4   17.89    1.95
  -8   1   4   20.13    2.64
   8  -1  -4   18.10    2.80
  -6  -3   8   16.80    1.78
  -6  -3   8   17.19    1.94
   6   3  -8   19.09    3.30
   0   0  15   37.89    2.35
   0   0 -15   40.39    3.13
   0   0 -15   47.40    3.24
   0   0  15   36.91    2.93
  -4   0  12   61.51    3.24
   4   0 -12   59.05    3.07
   4   0 -12   69.87    4.68
  -4   0  12   59.96    3.69
   9   3   5   43.07    4.10
  -9  -3  -5   42.18    3.57
   9   3   5   37.19    2.35
   9   3   5   37.54    1.88
   8  -3  -3   31.78    3.33
  -8   3   3   32.26    3.19
   8  -3  -3   28.31    2.46
  -7   1   7   22.98    2.58
   7  -1  -7   16.17    2.08
  -7   1   7   14.53    2.01
   7   7  -2    5.57    2.09
  -7  -7   2    2.65    0.63
   7   7  -2    6.06    1.94
   7   7  -2    5.84    1.64
   7  -4  -6   24.43    1.49
   7  -4  -6   25.99    2.99
  -7   4   6   25.65    2.89
   7  -4  -6   27.87    2.50
  -5  -9 -12    9.93    2.03
   5   9  12    8.01    1.19
   5   9  12    9.69    2.21
  -5  -9 -12    8.57    1.50
   9   3   3   58.82    3.28
   9   3   3   55.59    2.97
   9   3   3   53.00    3.91
   9   3   3   62.43    4.56
   9   3   3   54.07    2.40
  -9  -3  -3   53.89    3.90
   8   7   3   78.45    4.46
   8   7   3   72.79    3.19
   8   7   3   79.47    4.35
   8   7   3   76.55    4.30
   8   7   3   81.85    3.87
   8   7   3   82.19    4.59
   8   7   3   73.45    2.78
   6   3  14   62.03    3.99
   6   3  14   55.84    4.00
   6   3  14   60.39    3.27
  -6  -3 -14   59.73    3.09
  -6  -3 -14   58.04    3.73
   6   3  14   63.14    3.56
  -6  -3 -14   55.12    3.48
   6  -5  -8    6.08    1.14
  -6   5   8    8.61    1.97
  -6   5   8    8.11    2.03
  -6   5   8    8.07    1.22
   1  -3  14   64.26    3.60
  -1   3 -14   60.58    3.62
  -1   3 -14   48.11    3.42
  -1   3 -14   53.48    3.40
   1  -3  14   52.04    3.59
   8   1  -4   18.71    1.84
  -8  -1   4   24.92    2.77
   9   2   6    5.70    1.20
   9   2   6    3.90    1.09
   9   2   6    4.45    2.57
  -9  -2  -6    4.12    1.10
  -9  -2  -6    6.07    1.94
  -7   7  -1   10.28    2.18
  -2  10  -6   14.45    1.70
   2 -10   6   14.37    1.77
   2 -10   6   14.23    2.38
  -2  10  -6   14.26    1.60
   5  11   2    4.40    1.39
   5  11   2    5.46    1.58
   9   0   5    2.18    1.56
  -9   0  -5    1.32    0.97
   9   0   5    0.92    1.22
  -7   0   7   51.24    3.56
   7   0  -7   53.51    3.14
  -7   0   7   55.69    3.30
   6  10   8   11.29    2.09
  -6 -10  -8   15.40    2.36
   6  10   8   14.18    2.41
   6  10   8   13.03    2.40
   6  -1  13   33.97    2.82
  -6   1 -13   28.79    2.26
  -6   1 -13   29.61    2.75
   6  -1  13   36.12    2.97
  -7   7   0   19.95    2.60
   7  -7   0   16.04    2.78
   3  12   1   86.98    4.77
  -3 -12  -1   71.80    3.21
   5  -5  11   34.30    2.78
   5  -5  11   30.73    3.07
   5  -5  11   29.62    2.29
  -7  -3   6   49.05    3.07
  -7  -3   6   45.71    2.77
   2 -11  -8   25.07    2.26
   2 -11  -8   26.59    2.54
  -2  11   8   23.52    2.01
  -2  11   8   27.40    2.77
  -7   4  -9   40.25    2.95
  -7   4  -9   44.57    3.18
   7  -4   9   37.46    3.10
  -7   4  -9   44.19    3.31
   7  -4   9   47.28    3.52
  -4  10   6   45.20    2.97
  -4  10   6   44.01    3.21
   4 -10  -6   42.17    2.84
   4 -10  -6   40.59    2.35
  -4  10   6   40.91    3.39
   8   0  10   23.98    2.48
   8   0  10   19.70    2.57
  -8   0 -10   24.55    1.88
  -8   0 -10   23.22    2.31
  -6   7   6   15.92    2.62
  -6   7   6   17.62    1.82
   6  -7  -6   17.34    2.43
   9   1   6    9.10    1.43
  -9  -1  -6    8.17    1.26
  -3  11  -2   64.11    3.75
  -6   8  -4   41.86    3.35
  -2  10  10   17.74    2.19
   2 -10 -10   14.82    1.51
   2 -10 -10   15.16    2.07
   2 -10 -10   15.28    1.95
  -4   4  12    6.55    2.48
   4  -4 -12    4.28    2.00
  -4   4  12    8.42    1.91
   4  -4 -12    6.83    1.47
  -4   4  12    5.01    1.63
  -4   4  12    5.89    1.36
  -1   1 -15   17.41    2.22
  -1   1 -15   23.80    2.28
   1  -1  15   26.98    2.75
   3  -9 -10    6.08    1.64
  -3   9  10    9.31    1.91
   3  -9 -10    6.98    1.43
   6   2  14   32.24    2.61
   6   2  14   26.99    2.78
   6   2  14   30.94    2.37
  -6  -2 -14   26.92    2.44
  -9  -1  -1   27.16    3.02
   9   1   1   25.63    1.88
   9   1   1   28.21    2.96
   9   1   1   21.80    2.13
   9   1   1   27.89    3.61
  -3  -3  12   44.18    3.05
   3   3 -12   46.21    2.53
   3   3 -12   43.72    2.73
   3   3 -12   48.03    2.97
  -2  12   3   23.24    2.06
   2 -12  -3   17.98    2.15
  -2  12   3   22.95    2.54
   2 -12  -3   20.26    2.17
   2 -12  -3   19.19    1.64
   5  -4  12   42.94    3.10
   5  -4  12   40.16    2.71
  -5   4 -12   40.57    2.63
   6  -8  -4    2.59    2.01
  -6   8   4    0.23    1.23
  -7  -7 -11   14.22    1.98
   7   7  11   10.99    2.06
   7   7  11    8.68    2.10
   7   7  11    9.86    0.81
  -7  -7 -11    6.90    1.82
   7   7  11   12.27    1.99
   6   4  14   40.67    3.32
  -6  -4 -14   47.45    3.20
  -6  -4 -14   42.53    3.26
   6   4  14   44.53    2.64
   6   4  14   44.35    3.47
  -6  -4 -14   43.85    2.73
  -2  12   2    2.40    1.53
   2 -12  -2    0.29    1.44
  -2  12   2    1.97    1.28
   2 -12  -2   -0.60    1.59
  -2  12   2    3.11    1.85
   8   7   7   43.99    3.10
   8   7   7   42.87    2.72
   8   7   7   44.86    2.21
   8   7   7   39.75    3.15
   8   7   7   43.95    3.57
   8   7   7   39.58    3.29
   8   6   9    7.19    1.94
   8   6   9    8.73    1.40
   8   6   9    8.22    1.93
   8   6   9    7.59    1.75
  -8  -6  -9    6.48    1.70
  -2   7  13   15.80    2.15
  -2   7  13   16.54    2.11
   2  -7 -13   15.79    2.14
  -2   7  13   14.38    1.71
   2  -7 -13   13.95    1.97
  -2   7  13   15.89    2.18
   6  -3  -9   68.19    3.83
  -6   3   9   63.27    2.59
  -6   3   9   65.61    4.03
  -6   3   9   64.13    3.82
  -8   4   2    0.45    1.77
  -8   4   2    0.26    0.62
   8  -4  -2    0.14    1.46
   8  -4  -2    0.50    2.12
   0   9  13    2.02    1.40
   0  -9 -13    3.42    1.64
   0  -9 -13    4.58    1.70
   0   9  13    5.24    1.29
   0   9  13    2.23    1.66
   4  11  -1   86.80    4.76
   4  11  -1   79.99    4.67
  -4 -11   1   80.49    3.27
  -4 -11   1   78.42    4.10
   7  -2  11   59.77    3.91
   7  -2  11   64.20    4.21
   7  -2  11   59.49    3.79
  -7   2 -11   63.17    3.12
  -7   2 -11   67.20    3.90
  -7   7  -2   21.21    2.70
   4   9  13   -0.19    1.60
  -4  -9 -13    2.89    1.73
  -4  -9 -13    0.13    1.41
   4   9  13    2.30    1.94
   4   9  13    0.20    1.11
   5  -1  14    2.74    1.99
  -5   1 -14    4.29    1.43
   5  -1  14    4.81    1.58
   4   6  15   66.19    3.82
  -4  -6 -15   69.84    4.01
   4   6  15   64.21    4.03
   4   6  15   67.18    3.52
   7   9   3    8.73    2.30
   7   9   3    8.10    1.44
   7   9   3   12.81    2.34
   8   6   0   76.84    4.36
   8   6   0   76.24    4.13
   8   6   0   69.03    3.22
   8   6   0   66.50    4.03
   4   0  15   47.15    3.86
   4   0  15   44.19    3.00
   4   0  15   44.37    3.00
  -4   0 -15   44.01    3.04
   7  -2  -7    1.49    1.63
  -7   2   7    2.97    1.59
  -7   2   7    1.57    1.81
   4   3 -11    9.01    1.18
  -4  -3  11    9.77    1.82
   4   3 -11    8.25    1.40
   4   3 -11   10.87    1.82
   2  11  11    0.64    1.43
  -2 -11 -11    0.11    1.09
  -2 -11 -11   -0.42    1.10
   7   9   7    4.12    1.87
   7   9   7    2.22    1.59
   7   9   7    1.94    1.95
   7   9   7    6.00    1.70
   8   5  10   77.10    3.64
  -8  -5 -10   68.07    3.88
  -8  -5 -10   73.70    3.67
   8   5  10   77.20    3.83
  -8  -5 -10   77.37    3.97
   8   5  10   66.92    3.82
   8   5  10   72.01    2.82
  -3   8  -9   59.46    2.94
   3  -8   9   72.08    3.88
  -3   8  -9   60.20    2.93
   9   3   6   34.45    2.25
  -9  -3  -6   34.41    2.08
   9   3   6   36.23    3.75
   9   3   6   39.08    2.64
  -2   0  14    6.70    1.49
  -2   0  14   11.95    1.41
   2   0 -14    9.50    1.91
  -2   0  14    7.97    1.82
   2   0 -14    7.99    1.67
   9   0   1    1.28    0.62
   9   0   1    1.90    1.26
   9   0   1    1.04    1.29
   9   0   1   -1.30    2.53
   9   0   1    1.85    0.87
  -9   0  -1   -0.90    1.93
   9  -1   3   -0.67    1.24
   9  -1   3   -0.18    0.81
   9  -1   3    0.10    1.14
  -9   1  -3    2.30    1.81
   0 -12  -8    8.88    2.03
   0 -12  -8    7.83    1.65
   0  12   8    7.37    2.02
   0  12   8    6.26    1.68
   0 -12  -8    6.41    1.80
  -7   6   4    7.81    2.16
  -7   6   4    5.64    1.17
   7  -6  -4   10.68    2.37
   2   7  15    1.18    1.51
  -2  -7 -15    1.64    1.59
   2   7  15    1.72    1.48
   2   7  15    0.95    1.73
   7  -7  -1   26.79    3.15
  -7   7   1   20.31    2.70
   5   3  15    6.67    1.91
   5   3  15    9.49    1.70
  -5  -3 -15    9.34    1.97
   5   3  15   10.53    2.31
   5  11   8   51.00    3.66
  -1  12  -1    4.23    1.47
  -1  12  -1    5.35    1.61
   1 -12   1    3.43    1.52
  -2   9  -8   10.04    1.16
  -2   9  -8    8.97    1.59
   2  -9   8    8.58    1.60
   2  -9   8   11.52    2.33
  -3 -12  -8   22.81    1.71
   3  12   8   19.24    2.41
   3  12   8   25.35    2.92
  -3  11   6   24.63    1.88
   3 -11  -6   26.49    2.41
   3 -11  -6   24.37    2.51
  -9  -3  -2   47.97    3.65
   9   3   2   41.14    4.02
   9   3   2   43.32    3.45
   9   3   2   45.75    3.00
   9   3   2   43.03    2.59
   9   3   2   42.68    2.06
   3  -1  15   38.26    2.81
   3  -1  15   34.91    2.42
  -3   1 -15   38.75    2.98
  -3   1 -15   33.90    2.66
   3  -1  15   36.10    3.16
   6   8  12   62.74    2.65
   6   8  12   62.41    3.96
   6   8  12   60.19    3.76
  -6  -8 -12   60.94    3.66
   6   8  12   59.35    3.97
   1  -3 -15    2.55    1.67
  -1   3  15    5.04    1.67
  -1   3  15    2.53    1.68
   9   2   1   58.00    4.50
   9   2   1   50.87    2.74
   9   2   1   58.13    3.96
   9   2   1   52.09    3.12
  -9  -2  -1   52.93    3.90
   9   2   1   47.73    2.51
  -2  12   4   14.02    1.74
   2 -12  -4   17.24    2.11
   2 -12  -4   13.43    2.07
  -8   5  -2   28.51    2.07
  -8   5  -2   27.85    2.17
  -8   5  -2   33.85    3.21
   8  -5   2   35.03    2.78
   6   1  -9   -0.83    2.61
   6   1  -9    1.14    1.63
  -6  -1   9   -0.42    1.38
  -6  -1   9    2.89    1.57
   5  -6  10   57.27    3.19
  -5   6 -10   56.45    3.34
   5  -6  10   54.32    3.63
   5  -6  10   55.73    3.95
   2 -12  -1   -0.91    1.60
   2 -12  -1    0.14    1.29
  -2  12   1   -1.01    1.26
  -2  12   1   -0.49    1.58
  -1   2  15   15.18    1.98
   1  -2 -15   14.60    2.08
   4  11  10   77.93    4.56
   4  11  10   73.56    4.22
  -4 -11 -10   74.47    3.33
   3  -7 -12   60.21    3.72
   3  -7 -12   56.49    3.29
  -3   7  12   60.96    3.05
  -3   7  12   63.57    3.82
  -3   7  12   55.54    3.48
   8  -5   1   25.91    2.67
   8  -5   1   29.92    3.42
  -8   5  -1   32.55    2.12
  -8   5  -1   32.36    2.20
  -8   5  -1   29.49    3.10
   9  -1   4    1.81    1.30
   9  -1   4    1.38    1.24
   9  -1   2   -0.11    1.25
  -9   1  -2    0.23    1.83
   9  -1   2    1.35    1.10
   9  -1   2    0.23    1.01
   8  -2  -4   29.21    2.33
  -8   2   4   33.96    3.27
   8  -2  -4   26.14    1.61
   8  -2  -4   32.27    3.45
   3  -5 -13    2.94    1.38
   3  -5 -13    3.20    1.83
  -3   5  13    4.05    1.49
  -3   5  13    5.00    2.11
   4  12   5   34.42    3.03
   0  10  12   15.43    2.01
   0 -10 -12   10.48    1.67
   0  10  12   17.95    2.51
   0 -10 -12   14.68    2.15
   3   7  -9   46.41    2.88
  -3  -7   9   54.07    3.16
  -5   2  11   20.36    2.28
  -5   2  11   19.52    2.31
   5  -2 -11   21.03    3.01
  -5   2  11   19.58    1.55
  -5   2  11   19.36    2.99
   5  -2 -11   18.69    2.21
   1  11  11   69.37    3.89
  -1 -11 -11   68.76    3.55
   1  11  11   74.33    4.48
  -1 -11 -11   70.41    4.10
  -7  -1   7   76.16    4.18
  -7  -1   7   72.17    3.82
   4  12   4   47.28    3.59
   4  12   4   44.16    3.39
  -5  -4 -15    3.40    1.61
   5   4  15    0.39    1.78
   5   4  15    2.20    1.94
   5   4  15    2.00    1.35
   4   8  14   33.58    2.30
  -4  -8 -14   28.59    2.47
   4   8  14   30.81    3.05
   4   8  14   27.93    2.27
   4   8  14   34.15    3.02
   3  -3  14   32.11    2.71
   3  -3  14   34.15    3.10
   3  -3  14   32.41    2.61
   7   6  12   17.72    2.54
  -7  -6 -12   19.68    2.39
  -7  -6 -12   19.54    2.14
   7   6  12   19.24    1.45
   7   6  12   24.63    2.46
  -7  -6 -12   20.73    2.51
   7   6  12   20.01    2.53
  -1  -2  14   55.36    3.48
   1   2 -14   56.36    3.62
   1   2 -14   58.20    3.24
   1   2 -14   56.90    3.45
  -1  -2  14   56.88    3.36
   4  -5  12   67.24    3.26
   4  -5  12   77.08    4.04
  -4   5 -12   62.58    2.90
   4  -5  12   65.84    4.22
   5  -1 -11   -0.85    1.61
  -5   1  11   -0.16    1.42
   5  -1 -11    0.78    2.20
  -5   1  11   -1.02    1.42
   5   7  14   43.57    2.88
  -5  -7 -14   33.74    2.70
   5   7  14   42.14    2.53
   5   7  14   38.97    3.32
  -5  -7 -14   36.87    2.80
   5   7  14   33.32    3.21
  -7   6  -6   29.19    2.48
   7  -6   6   28.02    2.87
  -7   6  -6   33.45    3.10
  -2   5  14   28.31    2.47
   2  -5 -14   25.01    2.38
  -2   5  14   28.31    2.64
  -2   5  14   30.97    2.95
  -8   4  -6   31.40    3.17
  -8   4  -6   29.71    2.35
   8  -4   6   28.87    2.96
   8  -4   6   34.53    2.99
  -8   4  -6   31.06    2.52
   8   7   2   65.15    3.87
   8   7   2   58.41    2.60
   8   7   2   57.93    3.71
   8   7   2   60.82    3.88
   8   7   2   59.46    3.17
   8   7   2   58.20    2.23
  -3  -6  10   74.22    3.81
   3   6 -10   70.32    3.48
   3   6 -10   69.18    3.57
   5   2  15   38.24    3.20
   5   2  15   40.56    2.79
  -5  -2 -15   35.28    2.82
  -6   4 -11   27.29    2.04
   6  -4  11   28.63    2.99
   6  -4  11   35.69    2.94
  -6   4 -11   33.42    2.87
   6  -4  11   29.67    2.51
   3   7  15   30.61    3.15
   3   7  15   34.41    2.56
  -3  -7 -15   33.37    2.74
   3   7  15   36.29    2.94
   3   7  15   35.85    2.78
   9   0   6    6.94    1.44
   9   0   6    4.12    1.74
  -9   0  -6    6.05    1.26
   4  -6  11   69.08    3.92
  -4   6 -11   58.19    2.67
   7   8  10   86.35    4.56
   7   8  10   86.75    4.56
   7   8  10   88.65    4.47
   7   8  10   81.69    4.71
  -7  -8 -10   97.52    4.78
  -7  -8 -10   79.84    4.38
   1 -12  -7   30.88    2.57
  -1  12   7   29.75    2.42
  -1  12   7   25.00    2.83
   1 -12  -7   31.26    2.69
   8   2  -4  133.78    5.57
  -8  -2   4  135.66    6.27
   8   2  -4  135.11    5.26
   0   6  15  104.34    5.20
   0  -6 -15  104.17    5.24
   0   6  15   90.29    4.81
   0   6  15  104.16    4.80
   0   6  15  100.96    4.86
   9   4   4   27.98    2.25
   9   4   4   21.75    3.25
   9   4   4   28.43    2.44
   9   4   4   32.46    3.17
   2   3  16    7.13    2.30
   2   3  16    7.16    1.72
   2   3  16    8.48    1.97
   4   7  -8   11.73    1.56
  -4  -7   8   10.30    2.44
  -4  -7   8   10.80    1.63
   4   7  -8   10.27    1.41
   9   4   5   93.65    5.77
   9   4   5   99.51    4.40
   9   4   5  101.34    4.38
   9   4   5   98.68    4.49
   4  12   6   13.99    2.36
   4  12   6   11.43    2.04
  -6  -7 -13    8.60    1.79
   6   7  13    6.53    2.09
   6   7  13    9.17    1.25
  -6  -7 -13    9.69    2.20
   8  -5   3   38.77    3.00
  -8   5  -3   41.54    3.55
  -8   5  -3   40.21    2.67
  -8   5  -3   45.05    2.62
   4   6  -9   49.80    2.75
   4   6  -9   59.09    4.45
  -4  -6   9   53.61    3.12
   4   6  -9   48.16    2.82
   2  12  -1    7.11    1.92
   2  12  -1    6.68    1.95
  -2 -12   1    7.97    1.59
   1   9  -8   36.03    3.07
   9   2   7    4.27    1.17
  -9  -2  -7    5.99    1.24
   9   2   7    5.65    1.23
   9   2   7    3.82    1.50
  -5   8  -7   31.50    2.68
   5  -8   7   31.52    2.78
  -7   7  -3   19.62    2.68
  -6  -6   6   25.14    1.99
   6   6  -6   25.64    1.67
  -6  -6   6   36.12    3.58
   6   6  -6   26.40    3.38
   6   6  -6   28.93    3.03
  -3  -1  13   -0.32    1.50
   3   1 -13    0.40    1.71
  -3  -1  13    1.33    1.02
  -3  -1  13    1.36    1.13
   3   1 -13    2.18    1.26
   8  -5   0   48.92    3.22
   8  -5   0   41.06    3.83
  -8   5   0   46.21    2.48
  -8   5   0   48.35    2.57
   6  10   1   68.53    4.31
   6  10   1   65.88    3.72
   6  10   1   72.02    4.37
   6  10   1   64.86    3.95
   6  10   1   64.33    3.57
  -1   7  14   36.06    2.85
   1  -7 -14   34.32    2.74
  -1   7  14   31.88    2.83
  -1   7  14   30.21    2.78
  -1   7  14   34.20    2.51
   4  10  12   43.56    2.46
  -4 -10 -12   48.76    2.79
   4  10  12   42.53    3.45
  -4  10  -4   33.63    2.79
  -4  10  -4   31.26    2.13
   6   1  14   14.98    1.96
  -6  -1 -14   15.17    2.04
   6   1  14   17.13    2.46
   6   1  14   18.04    2.15
  -1   4  15   24.60    2.48
   1  -4 -15   23.80    2.39
  -1   4  15   31.69    3.03
   0  -8 -14   16.56    2.26
   0   8  14   17.18    2.22
   0   8  14   16.12    2.21
   0  -8 -14   15.16    2.05
   0   8  14   14.62    1.89
  -6  -5 -14   58.90    3.36
  -6  -5 -14   65.14    3.89
   6   5  14   59.15    3.98
   6   5  14   62.81    3.15
   3  11  11   17.36    2.59
  -3 -11 -11   14.93    1.54
   3  11  11   11.97    1.99
  -3 -11 -11   18.18    1.71
  -6   5 -10   26.94    2.62
  -6   5 -10   27.66    2.51
   6  -5  10   25.40    2.57
  -6   5 -10   22.39    1.75
   6  -5  10   23.48    2.32
  -2 -12  -9   94.39    3.80
   2  12   9   92.84    4.77
  -2 -12  -9   81.40    3.80
   7  -5   8   16.66    2.32
   7  -5   8   24.78    2.66
  -7   5  -8   20.66    2.44
  -7   5  -8   26.18    2.83
  -7   5  -8   16.93    2.20
   8   3  11    9.59    1.78
   8   3  11    9.50    1.34
  -8  -3 -11    8.73    1.64
  -8  -3 -11    5.85    1.62
   8   3  11    8.48    1.86
   7   3  13   20.91    2.81
  -7  -3 -13   21.59    1.80
  -7  -3 -13   21.35    2.26
   7   3  13   17.89    2.40
   7   3  13   18.43    1.71
  -7  -3 -13   18.83    2.46
   7   3  13   22.20    2.15
   5  -3  13   47.31    3.19
   5  -3  13   39.21    2.74
  -5   3 -13   40.51    2.70
  -6   7  -7   30.52    2.61
  -6   7  -7   32.42    2.91
   2   4  16   39.93    3.18
   2   4  16   35.44    2.84
   2   4  16   43.41    3.44
  -3 -10   5    7.16    2.11
   3  10  -5    6.46    1.87
  -3 -10   5    7.08    1.39
   3  10  -5    1.56    1.70
   4  12   3   49.31    3.64
  -8  -2 -11    1.88    1.20
  -8  -2 -11    0.77    1.40
   8   2  11    1.81    1.47
  -2  11  -4    6.98    1.49
  -2  11  -4    5.55    1.53
   2 -11   4    5.17    1.55
   2 -11   4    6.17    1.82
  -4  -1  12   51.03    2.78
   4   1 -12   58.49    3.35
  -4  -1  12   58.93    3.49
   4   1 -12   56.17    4.39
   4   1 -12   60.87    3.07
   2   2  16    4.77    2.32
   2   2  16    5.89    1.68
   2   2  16    7.17    1.89
   2   2  16    7.31    1.71
   9  -1   5   13.00    1.94
   9  -1   5   14.53    1.83
  -9   1  -5   12.40    1.47
  -9   1  -1    2.53    1.88
   9  -1   1    0.64    1.10
   9  -1   1    2.25    0.93
   9  -1   1    0.89    1.23
   9   4   3   20.70    2.70
   9   4   3   29.93    2.40
  -9  -4  -3   26.92    3.03
   9   4   3   22.72    3.26
   9   4   3   23.47    2.20
   0   3 -14   15.75    2.20
   0   3 -14   13.89    2.23
   0  -3  14   17.81    2.23
   0  -3  14   15.21    2.08
   0   3 -14   16.76    2.04
  -5   3  11   57.13    4.24
  -5   3  11   55.63    3.58
  -5   3  11   46.79    2.53
   5  -3 -11   46.37    3.98
  -5   3  11   55.22    3.51
   1   7  15    7.14    1.84
   1   7  15    8.79    1.89
  -1  -7 -15    7.43    1.76
   1   7  15    8.26    2.05
   5  10  11   17.00    2.50
   5  10  11   15.72    2.44
  -5 -10 -11   15.40    1.60
   1  12   9   61.48    4.18
  -1 -12  -9   66.61    3.96
  -1 -12  -9   62.72    3.29
   1  12   9   70.03    3.87
   9   1   7    0.76    1.13
  -9  -1  -7   -0.64    1.08
   9   1   7    1.67    1.54
   7   9   2   21.31    2.47
   7   9   2   22.56    2.74
   7   9   2   24.73    1.95
   1  -6  12   26.30    2.72
   8   7   8    8.32    2.16
   8   7   8    9.67    1.22
   8   7   8   12.85    2.32
   8   7   8    9.48    1.77
   8   7   8   10.81    2.00
   1  -1 -15   23.73    2.40
  -1   1  15   23.11    2.36
  -1   1  15   26.64    2.36
   3   8  -8    9.76    1.71
  -3  -8   8    5.61    1.44
   3   8  -8    6.46    1.73
   3   8  -8    4.56    1.81
   6   9  11   51.27    2.91
   6   9  11   54.59    3.69
   6   9  11   48.52    3.45
  -6  -9 -11   46.65    3.37
  -1  -4  13   15.05    2.12
   1   4 -13   16.34    1.94
   1   4 -13   16.27    2.10
   1   4 -13   16.37    2.24
  -1  -4  13   11.99    2.02
   6  -3  12   89.27    5.07
  -6   3 -12   78.57    3.72
   6  -3  12   81.21    4.42
   5  -9  -6   13.68    2.12
  -5   9   6   13.25    1.71
  -5   9   6   11.66    1.85
   1  -7  11   25.15    2.12
  -8   2  -9   73.56    4.00
   8  -2   9   67.20    4.07
   8  -2   9   70.53    4.34
   8  -2   9   69.23    4.33
  -8   2  -9   70.26    4.54
  -8   2  -9   74.30    4.17
   3   3  16    1.67    1.78
   3   3  16    1.26    1.96
   3   3  16    0.85    1.56
   3   3  16    0.90    1.56
  -2  -3  13   54.01    3.50
   2   3 -13   59.02    3.11
  -2  -3  13   56.74    3.28
   2   3 -13   56.92    3.43
   2   3 -13   62.13    3.55
   7  -7  -2    8.54    2.37
   5  10  -2   11.28    2.39
  -5 -10   2    9.74    1.06
   5  10  -2    8.90    2.39
   5  10  -2    6.86    1.40
   5  10  -2    5.62    1.74
   5  10  -2    7.57    2.20
  -5 -10   2    9.09    1.97
  -9  -3  -7   30.71    2.13
   9   3   7   39.32    3.92
   9   3   7   35.39    2.27
   9   3   7   37.79    2.73
   7   9   8   36.64    2.71
  -7  -9  -8   39.28    3.23
   7   9   8   36.15    2.81
   7   9   8   43.96    3.28
  -5  10   1   24.91    2.57
   5 -10  -1   22.36    1.87
  -5  10   1   19.50    2.58
  -6  -5   7   46.72    2.79
   6   5  -7   46.04    2.43
   6   5  -7   43.39    4.16
   7  -3  -7    4.35    1.06
  -7   3   7    3.93    1.99
   7  -3  -7    4.07    1.70
  -7   3   7    2.79    1.59
   7   2  13    1.36    1.43
  -7  -2 -13    0.17    1.63
   7   2  13    0.16    1.73
  -7  -2 -13   -0.85    1.39
   7   2  13    0.45    1.24
   7   2  13    0.82    2.02
   2 -12  -5   47.13    3.19
   2 -12  -5   48.45    3.22
  -2  12   5   47.88    2.85
  -9  -1   0   35.35    3.28
   9   1   0   33.00    2.00
   9   1   0   31.21    3.03
   9   1   0   32.63    2.13
   9   1   0   32.16    3.70
   9   1   0   29.50    2.46
   0  12  -2   33.04    2.30
   0 -12   2   33.47    2.05
   0 -12   2   28.26    2.54
   0  12  -2   35.63    2.86
  -5   0  11   12.31    1.80
   5   0 -11   16.28    2.06
   5   0 -11   15.12    2.82
  -5   0  11    9.48    1.87
  -2  12   0    2.49    1.63
  -2  12   0    2.88    1.35
   2 -12   0    2.01    1.66
   2 -12   0    3.17    1.42
   9   4   6   62.39    3.27
   9   4   6   64.49    3.34
   9   4   6   62.86    4.70
   4  -4  13    0.21    1.80
   4  -4  13    1.02    1.10
   6  10   9    8.42    2.03
  -5  -9   4   20.12    2.67
   5   9  -4   20.97    2.68
   5   9  -4   16.88    2.04
   5   9  -4   16.09    2.86
   5   9  -4   21.60    2.73
  -5  -9   4   18.30    1.51
   3  11  -3    4.98    1.96
  -3 -11   3    4.19    1.74
   3  11  -3    8.38    2.13
   3  11  -3    5.78    2.04
   5  -7  -9    8.68    1.33
  -5   7   9    8.55    2.09
  -5   7   9    7.47    1.51
   6   7  -5   35.99    2.30
  -6  -7   5   33.15    2.09
  -6  -7   5   34.44    3.60
   6   7  -5   33.75    3.24
   6   7  -5   36.18    3.83
  -9   0   0   39.16    3.54
   9   0   0   29.38    1.63
   9   0   0   33.25    2.24
   9   0   0   29.99    2.31
   2  11  -4   16.00    1.11
   2  11  -4   19.57    2.47
   2  11  -4   17.79    2.46
   2  11  -4   22.87    2.48
  -5  10   0   20.27    2.55
   5 -10   0   17.63    1.63
  -5  10   0   23.37    2.54
  -7  -4 -13   56.80    3.09
  -7  -4 -13   55.81    3.50
   7   4  13   54.19    2.81
   7   4  13   52.28    3.17
  -7  -4 -13   58.17    3.76
   9   3   1   24.14    2.76
   9   3   1   20.89    3.11
   9   3   1   22.95    2.05
  -9  -3  -1   26.23    2.93
   9   3   1   21.39    2.31
   3  12   0   67.96    4.19
   3  12   0   68.07    4.22
   2  -6  12    0.80    1.73
   2  -6  12    0.14    1.35
   3   4  16    9.91    2.01
   3   4  16    6.33    1.95
   3   4  16    5.77    2.05
   3   4  16   10.73    1.81
   7  -1  12   48.38    3.58
  -7   1 -12   38.42    2.57
   7  -1  12   43.22    3.16
  -7   1 -12   43.62    3.14
   7  -1  12   39.72    3.59
   5   5  15   35.05    2.47
  -5  -5 -15   31.24    2.79
   5   5  15   28.26    3.00
   8   5  -2   32.45    2.71
   8   5  -2   41.24    2.99
   8   5  -2   37.62    3.21
   8  -3   8   57.46    3.89
   8  -3   8   62.78    4.06
  -8   3  -8   52.79    3.33
  -8   3  -8   57.81    3.63
  -8   3  -8   60.96    4.20
   5 -10  -2    8.22    1.40
  -5  10   2    6.75    2.11
  -5  10   2    7.52    1.92
   5 -10  -2    7.44    2.01
   2  10  -6   22.60    2.62
   2  10  -6   31.58    3.02
   8   4  -3    3.33    1.69
   8   4  -3   -0.71    1.64
   8   4  -3    1.08    1.80
  -8  -4   3    6.04    1.86
  -6   4   9   16.10    2.22
  -6   4   9   16.95    1.36
  -6   4   9   18.12    2.52
   6  -4  -9   19.13    1.65
   2   7 -10    2.08    1.45
  -2  -7  10    1.67    1.43
   1   3  16   29.32    2.64
   1   3  16   32.09    2.81
   4   8  -7    6.09    1.43
  -4  -8   7    3.47    2.12
   4   8  -7    4.41    1.49
  -4  -8   7    6.37    1.40
   4   8  -7    2.67    1.86
   3   2  16   15.26    2.63
   3   2  16   16.67    2.10
   3   2  16   13.22    1.95
   4  12   7    1.88    1.98
   4  12   7   -2.47    1.92
  -8  -4 -11   31.63    2.68
   8   4  11   30.39    1.87
  -8  -4 -11   33.71    2.26
  -8  -4 -11   33.35    2.59
   8   4  11   29.89    2.44
   8   4  11   29.15    2.64
  -1 -12   2   33.68    1.74
   1  12  -2   38.26    3.06
   0   1 -15    9.77    2.09
   0  -1  15    7.64    1.80
   0   1 -15    8.52    1.67
   0  -1  15   11.71    1.93
   7   5  -5   -0.27    2.60
   7   5  -5    0.54    1.32
  -7  -5   5    3.31    1.16
  -5  -3  10   99.44    4.65
   5   3 -10   98.49    4.33
  -5  -3  10   93.51    3.85
   3   5 -11   53.83    3.16
   3   5 -11   62.85    3.33
  -3  -5  11   61.06    3.56
   4  -5 -12   71.75    3.63
  -4   5  12   70.51    3.63
   4  -5 -12   68.97    4.51
  -4   5  12   70.26    4.16
  -4   5  12   72.40    4.55
  -4   5  12   73.43    4.20
  -8   5  -4   35.88    3.36
  -8   5  -4   33.52    2.51
  -8   5  -4   26.24    2.19
   8  -5   4   30.72    2.82
  -4   7 -10   88.70    4.00
  -4   7 -10   80.08    3.29
   4  -7  10   88.93    4.55
   1 -11 -10    0.99    1.63
   1 -11 -10   -0.46    1.57
  -1  11  10    0.79    1.72
   7   8  -1   25.85    1.82
   7   8  -1   25.64    2.42
   7   8  -1   29.26    2.88
   7   8  -1   23.11    2.90
   7   8  -1   31.13    3.36
   5   1  15   15.38    2.04
  -5  -1 -15   16.37    2.07
   5   1  15   18.40    2.56
   5   1  15   17.08    2.10
   5   1  15   16.99    2.30
   2  -7  11    5.22    1.55
  -2   7 -11    5.24    1.48
   3 -10  -9   12.14    1.62
  -3  10   9   10.56    2.15
   3 -10  -9   11.50    1.68
   7   6  -4    8.49    2.81
   7   6  -4    8.36    2.44
  -7  -6   4    4.67    1.09
  -7  -6   4    5.57    2.43
   7   6  -4    4.89    1.52
  -5   9  -5   28.92    1.79
  -5   9  -5   27.77    2.79
   4   5 -10   25.06    3.40
   4   5 -10   25.77    1.99
  -4  -5  10   21.83    2.13
   4   5 -10   20.51    2.02
   8  -1  10   22.37    2.64
  -8   1 -10   23.05    2.33
   8  -1  10   17.73    2.80
   8  -1  10   26.47    2.70
  -8   1 -10   21.15    2.76
  -8   1 -10   25.13    2.53
  -8  -1 -11    5.46    1.39
  -8  -1 -11    4.06    1.65
   8   1  11    6.22    1.73
  -3  11  -3   35.03    2.75
  -3  11  -3   32.83    2.46
   8  -5  -1   14.46    2.85
   8  -5  -1    8.80    1.94
  -8   5   1   11.39    2.48
  -6  -9   2   32.55    3.00
   6   9  -2   35.57    2.41
   6   9  -2   33.52    3.24
   6   9  -2   31.71    3.28
   6   9  -2   35.06    3.40
   4  -8 -10   -2.50    1.81
  -4   8  10    0.83    1.86
  -4   8  10   -0.58    1.49
   4  -8 -10   -1.26    1.21
  -4   8  10    0.18    1.79
   9   2   0   51.01    3.25
  -9  -2   0   54.31    3.92
   9   2   0   51.97    2.87
   9   2   0   55.20    2.68
   9   2   0   59.22    3.88
   9   2   0   54.03    4.43
   2   6 -11    5.78    1.63
   2   6 -11    3.73    1.57
  -2  -6  11    8.41    1.76
   1   2  16   41.71    3.18
   1   2  16   42.14    3.01
  -6   8  -5   24.80    2.69
  -4  11   2    0.64    0.84
   4 -11  -2    2.95    1.69
  -4  11   2    0.17    1.60
   4 -11  -2    1.07    1.32
  -4  11   2    1.36    1.74
  -4  11   1    5.11    1.98
   4 -11  -1    6.36    1.44
  -4  11   1    6.27    1.14
  -4  11   1    3.66    1.79
   5  -8  -8   25.27    1.82
  -5   8   8   34.05    3.09
  -5   8   8   25.84    2.38
   1   4  16   33.37    2.94
   1   4  16   38.36    2.91
   5  11   9   46.88    3.55
  -8   4   3    0.69    1.97
   8  -4  -3    0.29    1.66
   8  -4  -3   -1.48    2.25
   9   4   2   16.77    2.22
   9   4   2   14.27    2.48
  -9  -4  -2   17.67    2.47
   9   4   2   19.74    2.07
   9   4   2   19.06    3.17
   5  -7   9   43.94    3.27
  -5   7  -9   43.49    3.00
   5  -7   9   40.29    3.42
   6  -8  -5    1.37    1.82
  -6   8   5    0.53    1.24
   0  -7  11   54.66    3.38
   0   7 -11   49.10    3.40
   4  10  -4   69.67    4.50
   4  10  -4   81.61    4.26
  -4 -10   4   63.61    4.09
  -4 -10   4   71.84    3.21
   1  -5  13   38.29    3.13
   1  -5  13   38.37    2.89
   0  11  -5    7.57    1.98
   0  11  -5    5.77    0.96
   0 -11   5    6.90    1.26
   0 -11   5    4.90    2.03
   7   2  -7   39.74    2.58
  -7  -2   7   37.14    2.79
  -7  -2   7   38.29    2.76
   9  -2   3   12.73    1.91
   9  -2   3   16.84    1.81
   2   5  16   53.14    3.74
   2   5  16   61.24    3.52
  -8   3   4   34.80    3.30
   8  -3  -4   35.06    2.71
   8  -3  -4   26.95    3.20
  -5  10  -1   31.72    2.95
  -5  10  -1   34.27    3.09
   4  12   2   50.96    3.71
   4  12   2   55.20    3.35
  -2  -1  14   45.31    2.86
  -2  -1  14   46.58    3.17
   2   1 -14   44.49    3.02
   2   1 -14   48.22    2.74
   2   1 -14   51.20    3.32
   2  -5  13    0.14    1.49
   2  -5  13    0.20    1.70
   2   9  14   46.69    3.30
   2   9  14   41.23    3.46
   2   9  14   39.70    2.81
  -2  -9 -14   46.16    3.10
  -2  -9 -14   48.95    2.91
   8   7   1   35.33    3.02
   8   7   1   29.00    1.58
   8   7   1   30.58    2.88
   8   7   1   33.06    3.01
  -1   8 -10   13.52    2.00
   1  -8  10   13.70    1.70
   2   1  16    9.67    2.00
   2   1  16    9.94    1.68
   2   1  16    9.43    1.85
   2   1  16   11.93    2.77
   9  -2   2    2.98    2.58
   9  -2   2    1.36    1.17
   9  -2   2    4.93    1.59
  -9   2  -2    1.17    1.71
   9   0   7    4.83    2.04
  -9   0  -7    3.22    1.91
  -9   0  -7    2.91    1.35
  -3 -12  -9    2.11    1.00
   3  12   9    3.55    1.73
  -7   7  -4    9.30    1.74
  -7   7  -4   11.99    2.41
   0 -10   7   27.44    3.23
   0 -10   7   29.70    2.04
   0  10  -7   23.70    2.44
   2   8  -9    2.97    1.45
   2   8  -9    6.89    1.95
  -2  -8   9    4.83    1.53
  -2 -10 -13   26.18    2.14
  -2 -10 -13   31.47    2.43
   2  10  13   26.03    2.35
   0  -6  12   51.96    3.33
   0   6 -12   46.20    3.24
   4 -10  -7   26.98    1.97
  -4  10   7   29.06    2.61
  -4  10   7   25.85    2.29
   1 -10   7    4.21    2.23
   1 -10   7    5.31    1.36
  -1  10  -7    5.72    1.63
   5  -6 -10   15.82    1.67
  -5   6  10   16.11    2.32
  -5   6  10   16.17    1.78
  -5   6  10   12.53    2.09
  -1   5  15   76.04    4.39
   1  -5 -15   73.24    4.16
  -1   5  15   73.68    4.17
  -1   5  15   68.89    4.07
   8   6  10   36.69    2.30
  -8  -6 -10   29.17    2.54
   8   6  10   34.04    2.71
   8   6  10   28.91    2.55
   8   6  10   33.66    3.13
  -8  -6 -10   29.67    2.39
   6  -6   9   20.56    2.25
   6  -6   9   22.86    2.77
   6  -6   9   22.84    2.47
  -6   6  -9   21.11    2.46
  -6  -2   9   22.77    2.24
  -6  -2   9   18.13    1.94
   7   1  13    5.73    1.73
   7   1  13   11.06    2.33
  -7  -1 -13   11.60    2.18
  -7  -1 -13    5.98    1.47
   9  -1   6   19.07    2.06
   9  -1   6   25.11    2.46
  -9   1  -6   21.18    1.89
  -9   1  -6   21.25    2.82
  -9   1   0   14.81    2.49
   9  -1   0    9.69    1.67
   9  -1   0   10.04    1.59
   7  -5  -6   51.87    4.07
  -7   5   6   48.57    3.82
   1 -12   2    1.49    1.52
  -1  12  -2   -0.48    1.32
  -1  12  -2    2.85    1.36
   0  11  11   -0.41    1.88
   0 -11 -11    0.34    1.51
   0 -11 -11    2.51    1.49
   0  11  11    2.65    1.58
  -5  10   3   23.57    2.42
   5 -10  -3   24.99    1.99
  -5  10   3   30.76    3.00
   5 -10  -3   26.54    2.68
   9   4   7   44.87    2.81
   9   4   7   43.22    2.70
   9   4   7   46.29    4.09
   9   4   7   49.11    2.58
  -4   7  11   28.89    1.89
  -4   7  11   29.28    2.34
   4  -7 -11   30.46    2.27
  -4   7  11   26.68    2.80
   4  -7 -11   30.46    3.01
   8   6  -1   35.86    3.20
   8   6  -1   46.82    3.11
   8   6  -1   38.40    2.22
   8   6  -1   40.55    3.00
   4 -11  -3    1.11    1.28
  -4  11   3    2.87    0.96
  -4  11   3    3.83    1.86
   4 -11  -3    0.44    1.56
  -4  11   3    0.60    1.89
  -6   9   0   21.04    2.77
  -3  11   7   25.63    2.68
   3 -11  -7   28.02    2.16
  -4  11   0    7.86    1.85
   4 -11   0    7.66    1.45
  -4  11   0    9.15    1.21
  -4  11   0    5.94    1.99
   9  -2   4    8.76    1.68
  -2   2 -15   76.28    4.24
   2  -2  15   76.62    4.14
   2  -2  15   74.60    4.44
  -5   4  11   37.80    3.07
  -5   4  11   44.51    4.03
  -5   4  11   44.87    2.44
   5  -4 -11   42.53    2.60
   5  -4 -11   44.14    3.86
  -5   4  11   40.08    3.21
   4   7  15   15.48    2.29
   4   7  15   13.31    1.83
   4   7  15   16.29    2.02
   3   5  16   35.79    2.68
   3   5  16   27.32    2.79
   3   5  16   31.46    2.97
  -1  11  -5    1.16    1.15
   1 -11   5    0.19    1.81
   1 -11   5    1.71    1.23
  -1  11  -5    2.89    1.53
  -1  11  -5    0.67    1.39
   4  -1  15    1.74    1.47
  -4   1 -15    2.83    1.53
   4  -1  15    1.96    1.32
   4  -1  15    5.77    1.63
   4  -1  15    1.27    1.79
   3 -10   6   25.24    2.41
  -3  10  -6   20.88    2.14
   5   6  -8    3.10    1.15
  -5  -6   8    0.82    1.28
   5   6  -8    1.29    1.07
  -6   9   1   43.13    3.52
   6  -9  -1   36.75    3.34
  -6   9   1   40.11    3.04
  -8  -3   4   56.90    3.72
  -8  -3   4   56.87    2.98
   8   3  -4   56.11    3.40
   8   3  -4   50.22    3.29
  -7  -4   6    0.88    1.24
   7   4  -6    2.50    2.68
  -7  -4   6    2.35    1.47
   5   7  -7    3.84    2.68
  -5  -7   7    1.72    1.21
   5   7  -7    4.01    2.00
   5   7  -7    3.55    1.14
   5   7  -7    2.14    1.24
  -1 -13  -4    2.82    1.15
   1  13   4    2.07    1.63
  -9  -2  -8   16.48    1.79
   9   2   8   15.39    1.54
   9   2   8   18.85    2.16
   6   4  -8   17.64    3.33
  -6  -4   8   21.24    1.81
  -6  -4   8   21.75    2.09
   6   4  -8   20.67    1.85
  -7  -5 -13   66.53    4.07
   7   5  13   63.59    3.05
   7   5  13   68.23    4.09
  -7  -5 -13   65.92    3.48
  -7  -5 -13   59.86    3.75
   7   5  13   66.16    3.54
  -4   9  -7   38.05    2.81
   4  -9   7   40.09    2.96
  -8   0   5    0.20    1.61
   8   0  -5    0.12    1.42
   0  12   9   18.93    2.05
   0  12   9   21.42    2.63
   0 -12  -9   14.91    1.93
   0 -12  -9   13.43    2.14
  -3  -9 -14   13.64    1.92
   3   9  14   17.54    2.43
   3   9  14   14.71    1.83
   2 -11  -9   12.13    1.89
  -2  11   9   15.43    2.34
   6   0  14    6.91    1.99
  -6   0 -14    5.67    1.56
   6   0  14    5.95    1.54
   6   0  14    6.76    1.85
   1   0 -15   57.41    3.57
  -1   0  15   52.55    3.23
  -1   0  15   48.67    3.31
   6  -2  13   61.51    4.42
  -6   2 -13   58.96    3.26
   6  -2  13   66.85    3.87
   2 -12  -6   20.55    2.34
  -2  12   6   23.61    2.07
   2 -12  -6   22.72    2.46
   7  -7  -3    0.69    1.98
  -6   6   8   23.77    1.90
  -6   6   8   28.03    2.94
  -2  12  -1   24.10    2.36
   2 -12   1   21.23    2.16
  -2  12  -1   22.86    2.19
   3  -9   8   29.53    2.53
  -3   9  -8   24.17    1.87
  -3   9  -8   29.24    2.08
   7   7  -3    7.68    1.39
   7   7  -3    5.33    1.53
   7   7  -3    5.93    2.08
   7   7  -3    6.44    2.38
  -7  -7   3    5.55    2.34
   7   7  -3    4.92    2.68
   6   6  14    9.27    1.40
  -6  -6 -14    8.16    1.73
   6   6  14    5.32    2.15
  -7   6   5   47.62    3.81
  -7   6   5   50.65    2.62
   7  -6  -5   53.25    3.96
   1  13   3    9.09    1.96
  -1 -13  -3   10.48    1.53
   0   8 -10   32.67    2.72
  -6   9  -1   45.12    3.65
   9  -2   1    9.20    2.72
   9  -2   1    5.30    1.26
  -9   2  -1   10.60    2.28
   9  -2   1    6.30    1.60
   4  11  -2   82.59    4.54
  -4 -11   2   86.05    4.45
  -4 -11   2   85.95    3.52
   4  11  -2   90.61    4.97
   4  11  -2   85.25    4.91
  -8   1   5   24.58    2.79
   8  -1  -5   19.67    2.08
   3   1  16   61.13    3.64
   3   1  16   57.13    3.41
   3   1  16   54.72    3.72
   8  -4   7   60.86    3.92
  -8   4  -7   61.85    4.18
  -8   4  -7   61.40    3.52
  -8   4  -7   61.14    3.66
  -2   6  14   17.82    1.78
   2  -6 -14   13.84    1.99
  -2   6  14   17.31    2.26
  -2   6  14   14.32    1.98
  -2   6  14   15.82    2.41
   3  -6 -13   12.57    2.22
   3  -6 -13    8.53    1.67
  -3   6  13   12.73    1.95
  -3   6  13   14.56    1.54
  -3   6  13   11.44    2.28
   5   1 -11   42.34    4.02
  -5  -1  11   41.74    2.69
  -5  -1  11   48.52    3.23
  -4   9   9   15.67    2.38
   4  -9  -9   15.67    1.70
   7   9   1   70.27    4.01
   7   9   1   74.60    3.45
   7   9   1   75.99    4.58
   7   9   1   71.85    4.38
   7   9   1   64.76    4.42
   6   8  -4    5.71    2.60
   6   8  -4    8.96    1.59
   6   8  -4    7.71    2.34
  -6  -8   4   11.34    2.51
  -6  -8   4    6.29    1.08
   6   8  -4    6.17    2.22
   9   5   5   39.90    2.72
   9   5   5   41.90    2.96
   9   5   5   43.62    2.50
   9   5   5   41.22    3.85
   9   5   5   45.78    2.96
   3   9  -7   12.02    2.26
  -3  -9   7   14.12    1.80
   3   9  -7   14.16    2.23
   3  10  13   36.49    2.44
  -3 -10 -13   35.31    2.31
  -3 -10 -13   39.14    2.67
   3  10  13   34.83    2.95
  -9  -3  -8    0.58    1.17
   9   3   8    0.55    1.43
   9   3   8    0.80    1.13
   1 -12  -8   36.56    2.67
  -1  12   8   34.70    3.24
   1 -12  -8   32.60    2.72
  -1  12   8   31.48    2.41
  -1   2 -15   42.87    3.09
   1  -2  15   40.68    3.26
  -1 -13  -5   -0.22    1.13
   1  13   5   -0.52    1.50
   9   5   4    8.80    1.51
   9   5   4    5.84    2.59
   9   5   4    8.04    0.91
   9   5   4    5.86    1.36
   7   9   9  105.00    5.24
   7   9   9  102.59    4.65
   7   9   9   96.49    4.91
   7   9   9  100.97    5.23
  -7  -9  -9  102.92    5.17
  -8  -7  -9    8.30    1.85
   8   7   9    4.52    1.93
   8   7   9   11.11    2.32
   8   7   9    9.74    1.34
   8   7   9    9.97    2.05
   8   7   9    6.57    1.78
   2  -8  10   11.66    1.77
   1   1  16   10.91    1.92
   1   1  16    9.71    1.91
   1   1  16    8.89    1.51
   1  10  13    7.62    2.10
   1  10  13    6.15    1.62
  -1 -10 -13    8.23    1.61
  -1 -10 -13    6.46    1.56
  -6   7   7   20.07    2.68
  -6   7   7   21.53    2.00
   6  10   0   34.43    3.21
   6  10   0   32.99    2.50
   6  10   0   34.74    2.66
   6  10   0   34.26    3.01
   6  10   0   28.75    3.14
   4  12   8   10.94    2.14
   4  12   8    8.94    2.26
   1   9  14   16.61    2.18
   1   9  14   20.62    2.58
   1   9  14   20.02    2.31
  -1  -9 -14   22.87    2.26
  -1  -9 -14   20.47    2.13
   8   8   5   68.74    3.85
   8   8   5   67.29    4.15
   8   8   5   64.60    4.28
   8   8   5   71.30    4.27
   8   5  11   48.82    2.33
  -8  -5 -11   52.71    3.03
   8   5  11   55.48    3.29
   8   5  11   55.38    3.43
   8   5  11   54.20    3.03
  -8  -5 -11   53.53    3.42
  -8  -5 -11   53.98    3.34
   1  11  -5   45.50    3.38
  -1 -11   5   43.01    2.14
   2  -9 -12   59.87    3.25
  -2   9  12   61.88    3.88
   2  -9 -12   56.31    3.45
  -9  -1  -8   15.58    1.82
  -9  -1  -8   15.59    2.50
   9   1   8   17.03    2.21
   4  -3  14   -0.63    1.53
   4  -3  14   -0.11    1.11
   4  -3  14    0.21    1.93
   1   5  16   17.66    2.40
   1   5  16   16.00    2.11
   4   3  16   41.39    3.47
   4   3  16   42.71    3.26
   4   3  16   41.16    2.89
   2   5 -12    5.93    1.68
   2   5 -12    4.82    1.69
  -2  -5  12    6.68    1.76
  -5   2 -14   32.67    2.54
   5  -2  14   33.43    2.85
   5  -2  14   42.81    3.59
   5  -2  14   41.02    2.84
  -8   5  -5   32.02    3.21
  -8   5  -5   35.46    2.74
  -8   5  -5   31.81    2.50
   6  -9  -2   26.14    2.95
  -6   9   2   31.85    2.67
  -6   9   2   28.79    3.08
   6  -9  -2   27.97    1.99
   3  -6  12   41.16    2.92
  -3   6 -12   36.99    2.43
   3  -6  12   40.44    3.37
  -9  -3   0   21.60    2.70
   9   3   0   27.64    2.57
   9   3   0   20.85    2.67
   9   3   0   24.51    3.53
   9   3   0   18.86    2.01
   8   1  -5   31.18    2.32
  -8  -1   5   34.52    3.09
  -5 -11   0   15.32    2.04
   5  11   0   16.20    2.60
   5  11   0   18.65    1.97
  -7   6  -7    3.72    1.61
  -7   6  -7    8.72    2.08
   7  -6   7    6.58    1.97
   7  -6   7    6.71    2.21
   8   8   6   86.81    4.70
   8   8   6   82.41    4.00
   8   8   6   87.98    4.77
   8   8   6   91.02    4.48
   9   1  -1   28.35    3.02
  -9  -1   1   25.18    2.95
   9   1  -1   29.32    2.08
   9   1  -1   27.19    1.92
   9   1  -1   28.24    3.41
   9   1  -1   32.52    2.65
  -9   0   1   43.60    3.66
   9   0  -1   42.14    2.12
   9   0  -1   45.33    2.93
   9   0  -1   40.14    2.56
  -5  10  -2   38.46    3.20
  -5  10  -2   31.09    2.86
   5   6  15    2.26    1.85
   5   6  15    4.80    2.34
  -5  -6 -15    4.42    1.95
   5   6  15    3.24    1.32
   5   6  15    1.44    1.67
   7   7  12   -0.22    0.69
  -7  -7 -12    0.52    1.67
   7   7  12   -0.85    1.73
   7   7  12    0.93    1.91
  -7  -7 -12    0.46    1.52
  -2 -13  -4   16.44    1.60
   2  13   4   20.46    2.54
  -7   4   7   12.80    2.39
   4  11  11  108.60    5.40
   4  11  11  112.48    5.77
  -4 -11 -11  110.92    4.58
   9   5   6   49.99    3.13
   9   5   6   51.42    3.09
   9   5   6   43.97    3.94
   9   5   6   52.31    2.82
   9   5   6   45.34    2.48
   8   8   4   33.37    3.00
   8   8   4   35.43    2.26
   8   8   4   37.60    3.28
   8   8   4   39.03    3.30
  -9   2  -5   13.68    2.48
   9  -2   5   16.32    2.07
  -9   2  -5   15.53    1.81
   4   4  16    2.26    1.51
   4   4  16    4.33    2.00
   4   4  16    3.44    1.90
   8  -5  -2    6.34    2.30
  -8   5   2    6.84    2.12
   8  -5  -2    2.72    1.77
   0  13   4   28.50    2.56
   0 -13  -4   27.25    2.36
   0 -13  -4   35.73    3.07
   0 -13  -3   49.63    3.13
   0  13   3   50.53    3.38
   0 -13  -3   50.32    3.55
   9   4   1    4.72    2.64
   9   4   1    4.28    1.97
  -9  -4  -1    5.80    2.01
   9   4   1    5.45    1.58
   9   4   1    0.55    2.09
   8   0  11   20.70    2.36
  -8   0 -11   17.42    1.75
  -8   0 -11   21.48    2.33
   0   5 -13   52.12    3.50
   0  -5  13   63.80    3.65
   0  -5  13   52.53    3.59
   4 -11  -4    1.55    1.30
   4 -11  -4    3.48    1.59
  -4  11   4    1.59    0.87
  -4  11   4    2.92    1.92
  -4  11   4    2.28    1.63
   2  13   5   24.71    2.60
   1  -9 -13   27.38    2.59
  -1   9  13   24.68    2.30
  -1   9  13   33.32    2.94
  -1   9  13   23.09    2.58
   4 -11   1   15.99    1.73
  -4  11  -1   15.00    2.23
  -4  11  -1   16.51    1.53
   0   7  15   80.67    4.29
   0   7  15   76.24    4.43
   0   7  15   71.14    3.99
   0   7  15   80.24    4.12
   3  -2  15   21.42    2.65
   3  -2  15   21.25    2.33
   5   5  -9    5.21    2.76
   5   5  -9    1.15    1.26
  -5  -5   9    0.39    1.38
   5   9  13   28.92    1.92
  -5  -9 -13   30.61    2.42
   5   9  13   32.61    3.13
   5   9  13   25.35    2.72
   2  12  -2   25.94    2.63
   2  12  -2   20.45    2.54
   1  13   2   10.55    2.06
  -1 -13  -2   11.00    1.64
   7   8  11   49.88    3.47
   7   8  11   53.63    3.58
   7   8  11   53.79    3.54
   7   8  11   44.22    3.65
  -7  -8 -11   55.32    3.53
   3   2 -13   13.35    1.75
  -3  -2  13   15.63    2.05
   3   2 -13   15.84    1.63
   3   2 -13   18.48    2.23
   4   9  -6   97.39    4.65
  -4  -9   6   91.91    5.12
  -4  -9   6   87.43    3.94
   4   9  -6   90.16    5.14
   9   5   3    1.40    1.25
   9   5   3    1.75    1.58
   9   5   3    3.12    2.18
   9   5   3    2.53    1.81
   9   5   3    3.60    2.44
   4   2 -12    7.02    1.33
  -4  -2  12    7.95    1.81
   4   2 -12   12.62    2.74
   4   2 -12   10.79    1.89
   2   8  15    6.53    1.81
   2   8  15    4.21    1.57
   2   8  15    5.95    2.10
  -2  -8 -15    3.42    1.81
   6  10  10    1.27    1.88
   6  10  10    0.18    1.83
   7  -4  10   31.33    3.19
   7  -4  10   29.04    2.68
  -7   4 -10   33.78    2.81
  -7   4 -10   28.76    2.93
   7  -3  11   31.70    3.23
  -7   3 -11   32.33    3.14
   7  -3  11   35.01    3.02
  -7   3 -11   31.49    3.01
   1  10  -7   67.57    4.06
  -5  10   4    1.17    1.49
  -5  10   4    0.44    1.79
   5 -10  -4    4.45    1.82
   4   2  16   54.73    3.42
   4   2  16   51.35    3.59
   4   2  16   58.84    4.07
   5   0  15   -1.49    1.47
   5   0  15    0.84    1.62
  -5   0 -15   -0.77    1.51
  -5  -8   6    0.78    1.17
   5   8  -6    0.38    1.38
   5   8  -6    1.47    1.12
  -5  -8   6    0.90    2.27
   5   8  -6   -1.06    1.91
   5   8  -6    1.84    2.37
   3  -5  13    8.72    1.80
   3  -5  13    9.91    2.19
  -2 -13  -3   13.21    1.57
   2  13   3   10.13    2.05
  -6   9  -2   26.09    2.88
  -2 -12 -10   40.31    2.43
   2  12  10   47.90    3.31
   4  12   1   82.24    4.66
   4  12   1   72.06    3.85
   4  12   1   73.00    4.58
  -2  10  -7   37.47    2.22
  -2  10  -7   39.24    2.58
   2 -10   7   35.40    3.32
   2 -10   7   44.19    2.84
  -4  10  -5   30.65    2.22
  -4  10  -5   30.87    2.61
   8  -2  -5   25.77    2.41
   8  -2  -5   25.93    3.24
  -8   2   5   26.05    2.90
  -3   7 -11   40.19    2.47
   3  -7  11   46.37    3.48
   3  -7  11   37.27    2.85
   1  13   6    0.51    1.48
  -1 -13  -6    1.25    1.12
  -2   8  13   68.77    3.94
  -2   8  13   64.23    3.99
  -2   8  13   56.65    3.63
   2  -8 -13   58.48    3.54
  -2   8  13   60.49    3.36
  -1  10  12   64.54    4.08
   1 -10 -12   64.32    3.81
  -1  10  12   67.79    3.92
   4   4 -11    1.05    1.14
   4   4 -11   -1.31    2.72
   4   4 -11   -0.23    1.53
  -4  -4  11    1.30    1.49
   4  -8   9   36.03    2.90
  -4   8  -9   29.53    2.33
   3   4 -12   59.72    3.02
   3   4 -12   54.49    3.36
   3   4 -12   56.60    3.21
  -3  -4  12   56.28    3.46
  -2 -11 -12    3.48    1.41
   3  12  -1   19.74    2.43
   3  12  -1   23.07    2.68
   2   9  -8   28.09    2.47
  -2  -9   8   28.85    2.33
   2   9  -8   18.52    2.40
   0  13   5   18.92    2.21
   0 -13  -5   22.45    2.19
   0  13   2   34.78    2.80
   0 -13  -2   32.23    2.53
   0 -13  -2   36.05    2.97
   5   8  14   48.67    3.71
  -5  -8 -14   44.24    3.21
   5   8  14   51.40    3.71
  -5  -8 -14   45.63    3.01
   5   8  14   43.77    2.61
   0   3  16   30.53    2.70
   0  -3 -16   31.12    2.94
   0   3  16   33.76    2.78
   6  11   5   45.20    3.38
   6  11   5   45.17    3.69
   6  11   5   49.61    3.42
  -9  -4  -8   40.58    2.58
   9   4   8   42.38    4.03
   9   4   8   39.09    2.71
   9   4   8   37.26    2.44
   9  -2   0    2.82    1.21
   9  -2   0    4.33    2.53
  -9   2   0    0.24    1.98
   9  -2   0    2.75    1.59
   2   6  16   62.30    3.62
   2   6  16   54.71    3.90
   2   6  16   62.17    3.76
   2 -10 -11   33.33    2.65
  -2  10  11   37.17    3.08
   1  -4  14   52.43    3.71
   1  -4  14   49.03    3.25
  -1   4 -14   43.63    3.21
   8   8   7   86.19    4.71
   8   8   7   88.59    4.79
   8   8   7   89.12    4.63
   3   8  15    1.21    1.98
   3   8  15    1.48    1.84
   3   8  15    0.67    1.37
   9   2  -1   34.01    2.32
   9   2  -1   27.36    1.95
   9   2  -1   32.20    3.23
  -9  -2   1   30.54    3.07
   9   2  -1   26.04    2.60
   9   2  -1   30.32    3.66
  -1 -12 -10   62.44    3.33
   1  12  10   64.54    4.35
   1  12  10   67.28    3.83
  -9   1  -7   13.71    2.60
  -9   1  -7   12.02    1.66
   9  -1   7   16.78    2.41
  -9   1   1   28.86    3.16
   9  -1  -1   24.36    3.41
  -6   5   9    3.30    1.02
  -6   5   9    2.08    1.90
   6  -5  -9    1.91    1.06
  -6   5   9    2.54    1.70
   7   0  13   25.83    2.82
   7   0  13   25.30    2.56
  -7   0 -13   19.46    2.07
   2  13   6   23.41    3.07
   2  13   6   27.65    2.73
  -2 -13  -6   24.19    1.86
   2   0  16   53.20    3.78
  -2   0 -16   49.58    3.42
   2   0  16   57.95    3.59
  -5   9   7   26.47    3.10
  -5   9   7   32.01    2.63
   6  11   6   82.45    4.70
   6  11   6   92.90    4.68
   6  11   6   85.80    4.91
   8   8   3   50.86    3.71
   8   8   3   48.46    3.51
   8   8   3   47.51    2.48
   8   8   3   41.94    3.43
   0 -12   3   21.65    1.72
   0 -12   3   16.63    2.36
   0  12  -3   20.62    2.45
   0  12  -3   22.56    1.85
  -7   7  -5   10.95    1.75
  -7   7  -5   12.19    2.29
   1   3 -14   -1.24    1.66
   1   3 -14    0.76    1.89
  -1  -3  14   -0.33    1.43
  -1  -3  14   -1.25    1.45
   1   3 -14    1.18    1.25
   1  -9   9    0.35    1.24
  -1   9  -9    1.17    1.58
   1  -9   9    1.63    2.07
   0   2  16   58.50    3.79
   0   2  16   61.15    3.75
   0  -2 -16   56.61    3.71
  -3   2  14   71.36    4.16
   3  -2 -14   73.72    4.85
  -3   2  14   72.73    3.74
  -3   2  14   65.11    3.19
  -3   2  14   71.79    3.66
   3  -2 -14   67.58    3.69
  -7   1   8   44.77    3.09
  -7   1   8   43.88    3.41
   7  -1  -8   46.38    3.13
   6  -1 -10   34.57    2.90
  -6   1  10   29.07    2.72
  -6   1  10   30.82    2.69
   6  -1 -10   30.64    3.64
   6   8  13   31.62    1.88
  -6  -8 -13   32.61    2.82
   6   8  13   31.74    3.15
   6   8  13   30.30    3.05
   6   8  13   30.29    2.84
   6  11   4   35.58    3.03
   6  11   4   36.15    2.53
   6  11   4   34.65    2.79
   9   5   7   32.46    2.62
   9   5   7   32.18    2.23
   9   5   7   26.74    2.39
   9   5   7   31.18    2.13
   9   5   7   31.69    3.39
   3   6  16   47.06    3.65
   3   6  16   45.28    3.38
   3   6  16   43.26    3.00
   3   6  16   43.75    3.28
   8   7   0   53.34    3.54
   8   7   0   52.23    3.83
   8   7   0   55.25    3.66
   3  -9 -11   19.95    2.05
  -3   9  11   15.76    2.32
   3  -9 -11   16.09    2.04
  -3   9  11   20.19    2.35
  -9   0  -8   89.95    4.22
   9   0   8   87.27    4.56
  -9   0  -8   86.85    5.21
  -6   9   3   17.07    2.03
   6  -9  -3   22.39    2.75
  -6   9   3   18.80    2.66
   5  11  10   38.35    3.37
   4   5  16    5.55    2.01
   4   5  16    4.55    1.48
   1   7 -11   26.77    2.62
  -1  -7  11   27.70    2.49
   6  -2 -10   32.76    3.76
  -6   2  10   31.12    2.85
  -6   2  10   34.78    2.90
   3  -3 -14   77.70    3.96
  -3   3  14   73.75    4.75
  -3   3  14   69.30    3.66
   3  -3 -14   80.94    4.13
   3  -3 -14   66.96    4.70
  -3   3  14   71.52    3.92
  -3   3  14   65.31    4.04
   0   4  16    5.86    1.90
   0   4  16    5.17    1.72
  -2  11  -5   19.74    1.97
   2 -11   5   20.50    2.54
  -2  11  -5   18.98    2.21
   2 -11   5   19.87    2.10
  -1   6  15   52.13    3.62
  -1   6  15   61.76    3.88
  -1   6  15   58.98    3.76
  -1   6  15   56.79    3.27
  -3  12   2    9.22    2.18
  -3  12   2    7.80    1.40
   3 -12  -2    9.58    1.80
   4  -6 -12   32.93    2.40
  -4   6  12   37.93    2.69
   4  -6 -12   34.02    3.24
  -4   6  12   44.35    3.61
  -4   6  12   45.54    3.48
  -3   8  12   71.63    3.97
  -3   8  12   67.56    3.37
  -3   8  12   66.68    4.06
   3  -8 -12   64.54    3.51
   3  -8 -12   62.61    3.78
   1  11  12    0.32    1.48
  -1 -11 -12    1.76    1.45
   7   3  -7   29.39    4.01
  -7  -3   7   31.83    2.59
  -7  -3   7   35.74    2.53
  -7   0   8   58.65    3.50
  -7   0   8   56.78    3.74
   7   0  -8   56.84    3.41
  -3  11  -4   34.57    2.68
  -3  11  -4   37.91    2.61
  -2 -13  -2    1.01    1.23
   2  13   2   -0.58    1.92
   9   5   2    0.27    1.12
   9   5   2    0.94    2.04
   9   5   2    0.23    2.51
   9   5   2    1.38    1.66
   5  10  12   15.57    2.52
  -5 -10 -12   21.74    1.95
   5  10  12   23.76    2.83
   0   9  -9   13.81    2.10
   0  -9   9   11.92    2.69
  -6  -9 -12   53.94    3.70
   6   9  12   51.94    3.09
   6   9  12   59.58    3.77
   6   9  12   53.65    3.72
   6   9  12   63.98    4.14
   6  -7   8   15.69    2.31
  -6   7  -8   14.49    2.25
   6  -7   8   18.89    2.68
   8   2  -5   95.94    4.22
  -8  -2   5   92.64    4.34
  -8  -2   5  103.15    5.10
  -7   5  -9   10.07    2.21
   7  -5   9   10.38    2.11
   7  -5   9    9.91    2.44
   7  -5   9    9.03    2.03
  -7   5  -9    9.47    1.96
   3 -12  -3    2.79    1.30
  -3  12   3    3.24    1.14
  -3  12   3    2.54    1.85
   3 -12  -3    3.95    1.55
   1   8  15   25.87    2.55
   1   8  15   22.03    2.37
   1   8  15   22.10    2.70
   7   6  13   37.72    3.36
  -7  -6 -13   33.49    2.68
   7   6  13   30.06    1.89
  -7   2 -12   34.28    2.33
   7  -2  12   37.33    3.05
   7  -2  12   34.53    3.49
   7  -2  12   42.92    3.26
  -1   8  14   -0.14    1.32
  -1   8  14    1.62    1.65
  -1   8  14   -0.14    1.59
  -1   8  14    1.39    1.57
   3  11  12   27.64    2.63
  -3 -11 -12   27.44    2.18
  -3 -11 -12   25.73    1.95
   3  11  12   25.42    3.18
   8  -4  -4   28.51    3.25
   8  -4  -4   28.26    2.66
  -8   4   4   31.84    3.24
   7  -2  -8    9.80    1.94
  -7   2   8    7.98    2.04
  -7   2   8   10.06    1.91
  -6   8  -6    9.50    2.16
  -5   5  11   27.78    2.05
  -5   5  11   27.60    2.84
  -5   5  11   25.68    2.69
   5  -5 -11   26.43    2.12
   5  -5 -11   31.07    3.38
   4   9  14    5.41    2.30
  -4  -9 -14    7.19    1.78
   4   9  14    9.91    2.15
   4   9  14    7.40    1.41
  -1 -13  -1   58.05    3.21
   1  13   1   54.73    3.71
   5  10  -3   28.38    3.00
  -5 -10   3   22.23    1.55
   5  10  -3   21.42    2.85
   5  10  -3   26.79    2.49
   5  10  -3   25.27    3.02
  -5 -10   3   23.54    2.76
  -4   2  13   22.15    2.24
   4  -2 -13   20.01    2.98
  -4   2  13   20.03    1.88
   4  -2 -13   20.22    1.94
  -4   2  13   22.04    2.45
   1  12  -3   31.66    2.02
   1  12  -3   30.39    2.73
   1  12  -3   24.42    2.78
   5  -8   8   40.85    3.17
  -5   8  -8   38.52    2.91
   8  -3   9   33.14    3.13
  -8   3  -9   22.65    2.41
   8  -3   9   17.69    2.45
  -8   3  -9   23.09    2.54
  -8   3  -9   18.12    2.68
   8  -2  10   48.18    3.40
  -8   2 -10   42.81    3.16
  -8   2 -10   50.14    3.77
   8  -2  10   44.42    3.65
   2 -12  -7   31.25    2.78
  -2  12   7   35.04    2.40
  -2  12   7   28.52    3.02
  -9   2  -6   20.23    1.97
  -9   2  -6   19.62    2.85
  -9   2  -6   20.66    2.17
   9  -2   6   18.45    2.52
   9  -2   6   22.01    2.30
  -3  12   1    9.76    2.06
  -3  12   1   10.21    1.47
   3 -12  -1   10.35    1.70
   6  11   7   39.63    3.17
   6  11   7   34.64    3.34
   6  11   7   38.46    3.24
   3   0  16   39.81    3.01
   3   0  16   41.76    2.85
  -6   8   6   22.97    2.91
   6  -8  -6   22.11    2.74
  -6   8   6   21.77    2.10
   1   6 -12   28.41    2.55
  -1  -6  12   26.99    2.50
  -3   1  14   20.95    1.97
  -3   1  14   18.86    1.71
   3  -1 -14   19.66    2.09
  -3   1  14   20.87    2.32
   3  -1 -14   25.43    3.13
  -2  12  -2   16.10    2.05
  -2  12  -2   20.98    2.19
   2 -12   2   18.18    2.21
   3  12  10    0.62    2.10
   3  12  10    1.79    1.79
   0   2 -15    0.50    1.70
   0  -2  15    0.51    1.56
   0   2 -15   -0.71    1.60
   0  -2  15    1.18    1.50
   7   8  -2   51.53    3.08
   7   8  -2   47.95    4.05
   7   8  -2   46.80    3.75
   1   0  16    0.17    1.58
   1   0  16    0.36    1.69
  -1   0 -16   -0.15    1.56
  -7   7   4   -0.47    1.88
   7  -7  -4   -0.90    2.19
  -5   9  -6   10.42    2.12
  -5   9  -6    9.57    1.31
   8   3  12    2.88    1.15
  -8  -3 -12    2.17    1.68
  -8  -3 -12    3.56    1.42
   8   3  12    3.52    1.65
   8   3  12    4.76    1.83
   8   5  -3    9.96    2.32
   8   5  -3   13.38    2.21
   9  -3   2   41.39    3.03
   9  -3   2   48.33    4.30
  -6   0  10   12.03    1.97
  -6   0  10   10.99    2.01
   6   0 -10    9.32    1.83
   6   0 -10    9.39    2.78
   0 -13  -6    1.43    1.42
   0  13   6    4.69    1.64
   9  -3   3   42.13    2.70
   9  -3   3   40.39    2.98
   9  -3   3   38.29    4.01
   0 -13  -1   16.95    2.10
   0  13   1   12.20    2.07
   0 -13  -1   14.45    2.19
  -1  -8  10   30.09    2.61
   1   8 -10   22.80    2.66
   1   8 -10   27.91    2.59
   4   1  16   46.32    3.15
  -4  11   5    2.80    1.96
   4 -11  -5    1.94    1.45
   4 -11  -5    1.77    1.32
  -4  11   5    4.16    1.76
   4  12   9   13.91    2.30
   4  12   9   10.19    2.50
   7  10   5   -0.58    2.09
   7  10   5    3.22    2.20
   7  10   5    2.76    1.58
  -4  11  -2   23.21    1.83
  -4  11  -2   24.23    2.61
   9   2   9   12.02    1.97
  -9  -2  -9   12.11    1.79
  -5  10  -3   20.99    2.42
  -1  12  -3    7.12    1.76
   1 -12   3    5.15    1.79
   1 -12   3    8.66    1.48
  -1  12  -3    7.16    1.49
  -8   6  -1   17.19    2.64
  -8   6  -1   15.21    1.77
   8  -6   1   16.63    3.10
  -6  -3   9   81.19    4.04
  -6  -3   9   76.67    3.67
   6   3  -9   69.82    5.25
  -4 -10 -13   15.13    1.83
   4  10  13   17.16    2.68
   4  10  13   16.67    2.56
   4  10  13   16.04    1.68
   1   6  16    3.83    1.85
   1   6  16    3.47    1.66
   1   6  16    5.65    1.77
  -2  -2  14   48.34    3.04
   2   2 -14   60.15    3.66
   2   2 -14   51.36    3.26
   2   2 -14   56.67    3.09
  -2  -2  14   50.45    3.39
   5  -5  12   11.97    2.10
  -8  -2 -12   -0.33    1.67
  -8  -2 -12   -0.67    1.38
   8   2  12   -0.31    1.59
   4  -3 -13    3.53    1.53
  -4   3  13    1.11    1.63
  -4   3  13    0.36    1.51
  -4   3  13    3.50    1.32
   4  -3 -13    2.43    2.15
   1   1 -15   76.37    4.06
   1   1 -15   67.57    3.62
  -1  -1  15   71.08    3.94
  -1  -1  15   76.29    4.19
  -6   9  -3   26.39    2.81
  -1 -13  -7    9.92    1.62
   1  13   7    9.05    1.97
   6  11   3   22.86    2.83
   6  11   3   27.75    3.14
   6  11   3   25.30    2.30
   6  11   3   29.81    2.71
   6  11   3   29.01    2.67
   7  10   6   -0.57    2.04
   7  10   6    1.30    1.59
   7  10   6    1.96    1.74
   7   9   0   79.13    4.79
   7   9   0   82.45    4.92
   7   9   0   72.94    4.58
   7   9   0   83.81    4.28
  -4   1  13   37.91    2.61
   4  -1 -13   39.52    2.50
  -4   1  13   38.36    3.04
   4  -1 -13   35.77    3.72
   3  11  -4    1.04    1.92
   3  11  -4    0.40    1.72
  -3 -11   4    0.17    1.67
   3  11  -4   -0.90    1.95
  -9  -3  -9    0.65    1.33
  -9  -3  -9    2.10    1.25
   9   3   9   -0.42    1.42
  -8   6  -2   13.99    2.67
   3  -4  14    2.31    1.59
   3  -4  14    3.11    1.92
   6   3  15   57.60    4.07
   6   3  15   62.83    4.12
   6   3  15   57.93    3.26
  -6  -3 -15   62.67    3.89
   8  -5   6   34.90    2.98
  -8   5  -6   31.27    2.46
  -8   5  -6   28.31    2.64
  -8   5  -6   26.83    3.07
   5   2 -11   79.38    3.94
   5   2 -11   79.59    5.33
  -5  -2  11   75.81    4.16
   5  12   5    9.73    2.23
   5  12   5   10.05    2.32
   8   8   8   45.20    3.43
   8   8   8   43.38    3.38
   8   8   8   41.34    3.30
   8   8   8   46.85    3.06
  -2 -13  -7   58.00    2.95
   2  13   7   57.30    4.20
   2  13   7   63.12    3.95
  -2   9  -9    6.97    1.51
   2  -9   9    7.58    1.73
   0  10  13   13.57    2.29
   0  10  13   12.44    1.99
   6  -3 -10   50.70    2.83
  -6   3  10   50.59    3.49
  -6   3  10   48.15    3.54
   7   9  10   73.19    3.83
   7   9  10   75.91    4.49
  -7  -9 -10   80.58    4.45
   7   9  10   73.79    4.39
   7   9  10   67.66    4.08
   3  -8  10   38.83    2.85
  -3   8 -10   34.52    2.30
   0  -1 -16   67.71    4.03
   0   1  16   69.39    4.07
   0   1  16   78.46    4.27
  -8  -6 -11   20.06    2.36
   8   6  11   22.16    2.00
   8   6  11   22.52    2.84
  -8  -6 -11   19.26    2.33
  -8  -6 -11   22.12    2.23
   8   6  11   21.43    2.43
   8   6  11   24.79    2.38
   2  -3 -15   15.51    2.04
  -2   3  15   17.67    2.78
  -2   3  15   17.33    2.05
   3 -11  -8   16.74    1.85
  -3  11   8   15.24    2.41
   3  -4 -14    8.85    2.28
  -3   4  14    6.36    1.59
   3  -4 -14    9.69    1.77
  -3   4  14   11.62    2.07
  -3   4  14    8.29    2.34
  -3  12   4    1.10    1.15
  -3  12   4    4.06    2.03
  -3  12   4    3.95    2.00
   3 -12  -4    2.18    1.42
  -8  -4   4   36.46    2.88
  -8  -4   4   32.47    2.20
   8   4  -4   32.77    3.25
   8   4  -4   39.78    2.98
   8   4  -4   39.61    2.81
  -2   2  15   23.43    2.54
   2  -2 -15   23.87    2.34
  -2   2  15   25.11    2.38
  -2   2  15   22.75    2.06
   6  -1  14   50.45    3.51
  -6   1 -14   50.12    3.12
   6  -1  14   56.66    3.66
   8   7  10    2.28    2.08
  -8  -7 -10   -0.17    1.63
   8   7  10   -0.37    2.06
   8   7  10    0.31    1.66
  -8  -7 -10    0.31    1.38
   8   7  10    1.91    1.82
   7  10   4    8.76    2.30
   7  10   4   10.31    1.86
   7  10   4   11.04    2.58
   9   4   0   -1.20    2.58
   9   4   0    0.81    1.79
   9   4   0   -0.40    1.49
  -9  -4   0    0.20    1.60
   9   4   0   -1.94    2.15
   9  -3   1   65.75    5.04
  -9   3  -1   69.21    4.65
   9  -3   1   64.00    3.67
  -4  10   8   66.84    3.97
   5   4 -10   33.02    2.40
  -5  -4  10   35.25    2.72
   5   4 -10   36.97    4.12
   6   4  15   53.70    3.13
  -6  -4 -15   59.52    3.27
   6   4  15   58.56    4.01
   0   9  14    0.66    1.57
   0   9  14    1.75    1.76
   0   9  14    0.16    1.56
   8   4  12   16.83    1.53
   8   4  12   17.05    2.21
   8   4  12   16.28    2.02
  -8  -4 -12   15.61    2.13
  -8  -4 -12   15.47    2.02
   8  -3  -5   29.61    2.53
  -8   3   5   30.99    3.16
   8  -3  -5   34.13    3.60
   1 -13  -3   26.41    2.49
   1 -13  -3   31.00    2.73
  -1  13   3   27.85    2.46
   3  13   5   28.00    2.87
   3  13   5   29.18    3.08
  -8   6   0   36.69    3.51
   8  -6   0   36.00    3.71
  -9   3  -4   63.86    4.51
   9  -3   4   51.45    3.43
  -9   3  -4   59.42    3.29
   9  -3   4   60.19    3.32
   6   9  -3   12.44    1.87
   6   9  -3    7.75    2.62
  -6  -9   3   11.20    2.50
   8  -5  -3   -1.75    2.19
  -8   5   3    2.16    2.04
   8   8   2   12.60    2.36
   8   8   2   14.17    1.36
   8   8   2   12.57    2.42
   8   8   2    8.92    2.21
   8   6  -2   22.22    2.29
   8   6  -2   22.37    2.55
   8   6  -2   22.24    2.85
   8   6  -2   20.87    1.59
   5  -6  11   51.02    2.97
  -5   6 -11   51.70    3.21
   5  -6  11   58.85    3.67
   5  -6  11   42.46    3.77
   5  12   6   10.57    2.16
   5  12   6    9.04    2.13
   2   4 -13   32.80    2.43
  -2  -4  13   31.39    2.71
   2   4 -13   33.22    2.65
   2   4 -13   31.54    2.71
   6   7  14    3.94    1.22
   6   7  14    5.91    2.08
  -6  -7 -14    4.99    1.71
   3  13   4   35.41    3.26
  -5  10   5   -0.67    1.97
   5 -10  -5   -1.47    1.48
  -5  10   5    1.56    1.49
   5  12   4    0.17    1.75
   5  12   4    4.50    1.92
   2  11  -5   34.82    3.09
   9   3  -1   16.13    2.00
  -9  -3   1   21.99    2.77
   9   3  -1   22.11    2.55
   9   3  -1   17.83    2.39
   9   3  -1   19.84    3.20
   9  -2  -1    2.15    2.54
   9  -2  -1    0.76    1.59
  -9   2   1    1.68    1.95
  -7   8   0   37.59    3.49
   7  -8   0   34.27    3.47
  -7  -1   8   57.81    3.47
   7   1  -8   50.86    3.17
  -7  -1   8   55.24    3.61
  -1  13   4   35.76    2.72
   1 -13  -4   30.88    2.65
   1 -13  -4   33.68    2.88
  -3  12   0   19.86    2.33
  -3  12   0   21.08    1.99
   3 -12   0   23.31    2.15
   0   4 -14   39.57    3.16
   0   4 -14   44.82    3.04
   0  -4  14   41.66    3.26
   0  -4  14   45.42    3.19
   9   1   9   16.95    2.15
  -9  -1  -9   15.07    1.93
   0   5  16    8.02    1.91
   0   5  16    5.91    1.82
  -7   8  -1   24.86    2.95
   6   2  15   21.28    2.18
   6   2  15   19.97    2.71
  -6  -2 -15   21.56    2.38
   6   2  15   23.07    2.38
   6   2  15   21.92    2.67
  -5   4 -13   23.73    2.16
   5  -4  13   30.37    2.75
   5  -4  13   24.71    2.18
   3  10  -6    1.83    1.73
  -3 -10   6    3.15    1.31
   3  10  -6    1.54    1.70
   1 -11 -11   11.82    2.07
  -1  11  11   10.10    2.22
   9   0  -2   63.84    2.94
   9   0  -2   67.80    3.36
  -9   0   2   71.34    4.66
   8  -4   8    6.69    2.28
  -8   4  -8   10.87    2.01
  -8   4  -8    8.05    1.83
  -8   4  -8    5.27    2.27
  -3  10  10    2.69    1.61
   3 -10 -10    1.71    1.35
   3 -10 -10    4.62    1.44
   5   9  -5   47.49    3.75
  -5  -9   5   59.55    4.13
   5   9  -5   50.31    4.01
  -5  -9   5   51.75    2.71
   5   9  -5   57.54    3.30
   6  10  -1   16.89    2.94
   6  10  -1   17.04    2.64
   6  10  -1   22.73    2.88
   9   5   8   33.93    3.43
   9   5   8   32.32    2.49
   9   5   8   33.16    2.37
   9   5   8   37.17    2.43
   1 -13  -2   17.60    2.27
  -1  13   2   20.71    2.26
   1 -13  -2   23.03    2.49
   7  10   7    0.77    2.04
  -8   6  -3   16.55    1.91
  -8   6  -3   12.31    2.58
   8  -1  11   14.07    2.28
   8  -1  11   15.50    2.70
  -8   1 -11   19.25    2.34
   1 -12  -9   18.76    2.25
   1 -12  -9   18.45    2.22
  -1  12   9   21.34    2.71
  -1  12   9   17.21    1.99
   6  -4  12   36.53    2.88
   6  -4  12   41.17    3.11
  -6   5 -11   14.41    2.24
   6  -5  11   14.80    2.30
   6  -5  11   15.09    2.05
   6  -5  11    9.03    2.48
   4  12   0   35.85    3.22
   9   1  -2   31.88    2.12
   9   1  -2   31.01    3.02
   9   1  -2   30.64    3.79
  -9  -1   2   36.93    3.41
   9   6   5   -0.64    1.52
   9   6   5    3.86    1.82
   9   6   5   -0.15    1.66
   9   6   5    1.58    1.01
   9   6   5    2.80    2.25
   0 -12 -10   37.03    2.65
   0 -12 -10   36.29    2.96
   0  12  10   38.94    2.88
   0  12  10   37.36    3.43
   3  13   6   83.85    4.83
   3  13   6   82.21    4.97
  -7   3   8    0.84    1.82
  -7   3   8   -1.38    1.74
  -5  -7 -15   36.61    2.89
   5   7  15   38.15    2.54
   5   7  15   41.88    3.51
   5   7  15   37.46    3.32
   5   7  15   44.37    3.00
  -4  -8 -15   24.89    2.43
   4   8  15   23.90    2.71
   4   8  15   20.35    2.95
   4   8  15   23.97    2.12
  -5 -11   1   24.42    2.57
   5  11  -1   20.72    2.81
   4  -2  15    0.32    1.52
   4  -2  15    0.98    1.59
   4  -2  15    0.44    1.96
  -4   2 -15   -0.30    1.42
   2  13   1    2.16    1.80
  -2 -13  -1    2.42    1.19
   2  -7 -14    1.08    1.55
  -2   7  14    1.46    1.76
  -2   7  14    0.59    1.19
  -2   7  14    1.49    1.46
  -2   7  14    1.05    1.80
  -6   9   4   14.62    1.92
  -6   9   4    8.69    2.30
   6  -9  -4   16.22    2.50
  -6  -6   7   32.09    2.35
   6   6  -7   36.90    4.00
   6  11   8   24.92    2.92
   6  11   8   24.87    2.88
  -2   4  15   29.89    2.66
  -2   4  15   28.74    3.09
   2  -4 -15   27.25    2.58
   3  13   3   21.02    2.71
  -7   8   1   74.03    4.80
   7  -8  -1   64.71    4.47
   8   1  12   22.35    2.33
  -8  -1 -12   14.16    1.77
  -8  -1 -12   17.84    2.40
  -9  -4  -9   29.57    2.34
   9   4   9   33.59    2.44
   9   4   9   34.73    2.59
   9   4   9   27.40    2.26
   9   6   4    8.34    1.60
   9   6   4    8.30    1.19
   9   6   4   13.29    2.20
   9   6   4   12.33    2.63
   9   6   4   11.99    2.04
   7  -6  -6   26.31    3.15
  -7   6   6   21.41    2.96
   7   3  14    9.47    1.85
   7   3  14    8.03    1.55
   7   3  14    8.62    2.14
  -7  -3 -14    8.05    1.87
  -5   8   9   14.64    2.57
  -5   8   9   11.15    1.75
  -5   7  10    3.80    1.84
  -5   7  10    6.01    2.16
   5  -7 -10    5.12    1.32
   2  -1 -15    0.15    1.65
  -2   1  15    0.35    1.58
  -2   1  15   -0.33    1.15
  -2   1  15    0.12    1.27
   7   6  -5   34.33    3.36
   7   6  -5   24.76    3.64
  -7  -6   5   30.37    2.01
   4   6  16   10.87    2.06
   4   6  16    9.93    1.75
   4   6  16   10.29    2.25
   9   6   6    4.32    1.73
   9   6   6    5.34    1.28
   9   6   6    5.00    2.29
   9   6   6    2.48    1.57
   9   6   6    3.79    1.18
   9   5   1   -2.01    2.17
   9   5   1    1.24    1.09
   9   5   1    3.48    2.77
   9   5   1    0.29    1.53
   9   5   1   -0.17    1.80
   3   0 -14    1.96    1.39
  -3   0  14    1.55    1.66
  -3   0  14    2.83    1.15
  -3   0  14    1.09    1.15
   6   7  -6   29.82    3.70
  -6  -7   6   22.18    1.90
   3  -7 -13   35.51    3.07
  -3   7  13   40.32    2.44
   3  -7 -13   38.03    2.74
  -3   7  13   36.63    3.12
  -3   7  13   44.70    3.34
  -3   7  13   41.13    2.91
   5  12   7   15.09    2.60
  -4   4  13    0.92    1.19
   4  -4 -13    4.71    2.44
  -4   4  13    2.55    2.34
   4  -4 -13    1.07    1.40
  -4   4  13    3.79    1.83
  -4   4  13    3.30    1.75
  -7   5   7   20.66    2.86
  -7   8  -2   39.24    3.48
   7  10   3   27.88    2.32
   7  10   3   22.71    2.70
   7  10   3   24.54    3.01
   7  10   3   30.68    3.18
   1   5 -13    8.55    2.02
  -1  -5  13   11.38    2.09
   1   5 -13    9.18    2.01
  -6  -1  10    1.25    1.43
   6   1 -10    2.02    2.72
   6   1 -10    2.85    1.69
  -6  -1  10    2.81    1.67
  -4   0  13   29.24    2.71
  -4   0  13   34.91    2.39
   4   0 -13   29.56    3.49
   1 -13  -5   58.16    3.70
  -1  13   5   54.46    3.33
   1 -13  -5   53.18    3.35
   5  12   3   14.61    2.29
  -4 -11   3   67.90    4.10
   4  11  -3   70.96    4.22
  -4 -11   3   72.45    3.21
   4  11  -3   67.37    4.47
   4  11  -3   73.47    4.52
  -9   1  -8   68.17    4.60
   9  -1   8   70.91    4.23
   9  -1   8   62.66    3.97
  -9   1  -8   65.75    3.61
   9  -1  -2   59.60    4.66
   9  -1  -2   52.31    3.11
  -9   1   2   57.11    4.29
   8  -6  -1   12.43    2.69
   0 -11   6    0.96    1.03
   0  11  -6   -1.13    1.43
   0 -11   6   -1.93    2.11
  -9   3   0   24.57    3.02
   9  -3   0   22.62    3.42
   9  -3   0   19.80    2.39
   2 -11 -10    5.88    1.59
  -2  11  10    1.58    1.75
  -5   1 -15    5.70    1.59
   5  -1  15    6.23    1.75
   5  -1  15    3.81    2.03
   5  -1  15    5.54    1.75
   0  13   7    8.40    1.80
   0 -13  -7    9.65    1.81
   0  13   7    6.76    2.25
   7   4  14   64.17    3.24
   7   4  14   62.11    4.00
   7   4  14   68.55    3.74
  -7  -4 -14   58.50    3.60
   1  13   0   27.73    2.79
   7   5  -6    7.83    2.86
  -7  -5   6   10.11    1.50
   4  10  -5   59.07    3.67
   4  10  -5   51.79    4.00
  -4 -10   5   59.44    4.03
  -4 -10   5   53.92    2.89
   6   5  15  104.17    4.46
   6   5  15   93.64    5.25
  -6  -5 -15  101.15    4.72
   0 -13   0   45.33    3.07
   0  13   0   47.78    3.30
   6  11   2   22.21    2.78
   6  11   2   21.80    2.32
   6  11   2   25.42    2.44
   6  11   2   22.65    2.91
   1   9  -9   27.53    2.79
  -9   3  -5   33.68    3.31
   9  -3   5   28.31    2.61
  -9   3  -5   29.00    2.44
   9  -3   5   26.33    2.57
   4  -6  12   47.23    3.82
   4  -6  12   49.11    3.35
   6  10  11   14.63    2.43
   6  10  11   12.51    2.57
   6  10  11   16.39    2.59
   7   2  14    0.53    2.06
   7   2  14   -0.12    1.30
   7   2  14    0.16    1.42
  -7  -2 -14    0.15    1.43
  -3  12   5    1.50    1.08
   3 -12  -5    0.30    1.53
  -3  12   5    0.84    1.92
  -3  12   5   -1.59    1.74
   2  -3  15   46.63    3.63
   2  10  -7   33.01    3.09
   5   3  16   46.07    3.00
   5   3  16   43.97    3.63
   5   3  16   44.58    3.51
  -1  13   1   12.49    2.08
   1 -13  -1    9.11    1.90
   1 -13  -1   11.15    1.99
  -1  13   1    8.50    1.81
   2   7  16   13.18    2.15
   2   7  16    9.95    1.97
   7  -6   8    7.92    1.95
  -7   6  -8   10.78    2.30
   7  -6   8   10.25    2.44
  -7   7  -6    1.88    1.80
  -7   7  -6    0.75    1.43
   1 -11   6    6.00    2.28
   1 -11   6    7.02    1.37
  -1  11  -6    3.99    1.58
  -3  -7  10   22.12    2.19
   3   7 -10   24.99    2.25
   0 -11 -12   14.02    2.09
   0  11  12   12.66    2.37
   7  -1  13   85.16    4.57
   7  -1  13   83.04    4.68
  -7   1 -13   84.52    4.04
   7  -1  13   78.40    4.93
   4   7  -9   23.89    2.10
  -4  -7   9   26.78    2.27
  -3  10  -7   20.57    2.01
   3 -10   7   19.46    2.24
  -9   2  -7   17.01    2.79
   9  -2   7   10.64    2.14
  -9   2  -7   15.79    2.15
   4  -5  13   50.52    3.96
   4  -5  13   55.30    3.55
  -9  -2   2   49.91    3.75
   9   2  -2   47.11    4.26
   9   2  -2   54.10    3.66
   9   2  -2   43.41    3.34
   9   2  -2   47.07    2.84
  -8  -3   5   46.69    2.75
  -8  -3   5   49.23    3.47
   8   3  -5   55.70    2.94
   8   5  12   41.82    3.17
   8   5  12   39.71    2.13
  -8  -5 -12   41.54    3.02
  -8  -5 -12   39.59    3.11
   8   5  12   43.02    2.78
   9   6   3   14.88    2.23
   9   6   3   11.02    2.02
   9   6   3   12.53    1.70
   9   6   3   14.70    2.85
   9   6   3   11.17    1.23
  -6   3 -13   32.29    2.39
   6  -3  13   42.18    3.22
   6  -3  13   37.22    3.55
   6  -3  13   33.30    2.76
   5   4  16   15.38    2.00
   5   4  16   14.62    2.56
   5   4  16   18.41    2.68
   5   4  16   19.81    2.67
   2  12  -3   17.88    2.48
   2  12  -3   15.72    2.47
   6  -6  10    6.48    2.56
  -6   6 -10    4.98    1.88
   6  -6  10    0.73    1.67
   2  -1  16   41.51    3.10
   2  -1  16   33.83    3.10
   6   5  -8   36.41    4.02
  -6  -5   8   37.55    2.60
   4  -8 -11    1.30    1.77
  -4   8  11    0.47    0.99
  -4   8  11    1.72    1.94
  -4   8  11    1.07    1.99
   4  -8 -11    1.25    1.24
  -4   8  11    0.88    1.42
   7   7  -4   24.98    3.20
   7   7  -4   22.42    3.48
   7   7  -4   25.52    2.88
   3  12  -2    5.34    1.98
   3  12  -2    1.04    1.94
  -5   2  12    3.71    1.81
  -5   2  12    5.15    1.77
   5  -2 -12    6.97    2.51
  -5   7 -10   21.04    2.19
   5  -7  10   24.61    2.58
   5  -7  10   22.71    3.02
   3  13   7   29.89    2.99
   3  13   7   32.13    3.26
  -4  -3  12    1.09    1.46
   4   3 -12    4.82    1.72
  -8   6  -4    6.70    2.37
  -8   6  -4    8.39    1.70
   3   7  16   17.04    2.71
   3   7  16   20.64    2.21
   3   7  16   22.26    2.68
   2  13   8   78.91    4.93
   2  13   8   77.53    4.45
   7  10   8    3.16    1.82
   7  10   8    0.38    2.07
  -6   4  10   10.48    2.23
  -6   4  10   12.77    2.25
   6  -4 -10    9.47    1.49
   4  11  12   92.81    4.96
   4  11  12  104.70    5.47
  -8   0   6    5.91    1.87
  -8   0   6    2.63    1.50
   8   0  -6    4.23    1.69
   6   1  15    1.17    2.01
   6   1  15    2.55    1.48
   6   1  15    5.05    1.94
  -6  -1 -15    0.95    1.47
   1  13   8   10.08    1.87
   1  -3  15   35.38    3.20
  -1   3 -15   36.00    2.89
   1  -3  15   33.82    2.89
   8  -1  -6    5.53    1.81
  -8   1   6    5.78    2.17
   4  -9   8   21.65    2.46
  -4   9  -8   21.20    2.16
  -3  12  -1   30.39    2.80
  -3  12  -1   29.57    2.30
   7   8  12   30.49    3.14
  -7  -8 -12   28.66    2.67
   7   8  12   32.44    2.98
   7   8  12   30.69    2.99
  -4  11   6   19.14    2.81
  -4  11   6   14.95    2.17
   4 -11  -6   14.47    1.86
  -6   7   8    8.60    2.40
  -6   7   8    6.54    1.35
   4   0  16   18.81    2.25
   8   8   9   33.08    3.05
   8   8   9   28.58    2.89
   8   8   9   31.08    2.65
   8   8   9   33.10    2.94
   3  -5 -14    1.27    1.97
  -3   5  14    0.28    1.42
   3  -5 -14   -2.03    1.59
  -3   5  14   -0.21    2.08
  -9   0  -9   27.83    2.47
   9   0   9   29.25    2.75
  -9   0  -9   25.14    3.22
   9   6   7   10.25    1.94
   9   6   7   12.86    2.66
   9   6   7   11.03    1.42
   9   6   7   10.69    1.96
   9   6   7   13.45    1.62
   7  -8  -2   47.59    3.90
  -7   8   2   52.85    4.11
  -6   9  -4    9.43    2.22
   8   7  -1   12.13    2.24
   8   7  -1    9.84    2.42
   3   3 -13   48.46    3.20
  -3  -3  13   44.71    3.11
   3   3 -13   40.84    2.76
  -2 -12 -11   18.33    1.81
   2  12  11   19.89    2.36
  -2 -12 -11   17.36    1.83
  -4  11  -3    7.92    1.41
  -4  11  -3    8.73    1.97
  -5   1  12    2.07    1.53
  -5   1  12    3.63    1.71
   3   8  -9    2.29    1.50
  -3  -8   9    2.13    1.44
   3   8  -9    3.55    2.04
  -4  -6  10   55.59    3.23
   4   6 -10   55.62    3.07
   4   6 -10   54.41    3.08
   3  13   2   19.18    2.65
   0   8  15   49.65    3.56
   0   8  15   47.97    3.38
   0   8  15   50.14    3.25
  -4  10  -6   18.90    1.91
   4 -10   6   20.28    2.38
  -4  10  -6   15.33    2.10
   5   2  16   49.02    3.69
   5   2  16   50.79    3.35
   5   2  16   56.59    3.91
   4  -9 -10    3.81    1.35
  -4   9  10    2.39    1.58
  -4   9  10    4.87    2.02
   4  -9 -10    2.71    1.67
   3   6 -11   32.24    2.44
   3   6 -11   28.71    2.38
  -3  -6  11   34.61    2.74
   1 -10   8    4.65    1.39
   1 -10   8    2.74    2.16
   4   8  -8   23.28    2.04
   4   8  -8   20.73    2.80
  -4  -8   8   22.25    1.99
  -5  10  -4   32.03    2.89
   4  -7  11   45.80    3.24
   5  11  11   42.42    3.52
   8   8   1    5.61    2.40
   8   8   1    5.05    1.98
   8   8   1    5.10    2.09
  -5   3 -14   33.81    2.61
   5  -3  14   33.61    3.44
   5  -3  14   39.56    2.99
  -7   8  -3    9.90    2.39
  -2  12   8   39.35    2.58
   2 -12  -8   34.88    2.64
  -2  12   8   30.57    3.10
   2  10  14   24.70    2.92
  -2 -10 -14   21.21    2.23
  -2 -10 -14   23.37    2.11
   2  10  14   17.51    2.41
   2  10  14   22.70    2.22
  -2  12  -3   15.64    2.08
  -2  12  -3   15.97    1.94
   2 -12   3   17.36    2.35
  -6   6   9   32.27    3.19
  -6   6   9   27.13    1.99
  -6  -8   5   12.00    1.40
   6   8  -5   11.80    2.83
  -5   3  12   18.52    2.39
   5  -3 -12   16.69    1.95
  -5   3  12   13.17    2.17
   5  -3 -12   19.67    3.04
  -5   3  12   15.30    1.56
   0 -10   8    5.78    1.28
   0  10  -8    3.19    1.64
   0 -10   8    6.42    2.39
  -1   7  15   41.90    3.42
  -1   7  15   47.24    2.97
  -1   7  15   53.10    3.59
  -1   7  15   46.15    3.27
   7   7  13    2.88    2.05
  -7  -7 -13    0.31    1.72
   7   7  13    5.43    2.34
   7   7  13    1.63    1.78
   4  12  10   23.23    2.76
   4  12  10   23.45    2.99
  -7  -2   8   12.52    1.92
   7   2  -8   17.54    2.05
  -7  -2   8   14.43    1.90
  -7   7   5    3.34    2.11
   7  -7  -5    4.03    2.11
  -1   1 -16   28.37    2.63
   1  -1  16   25.98    2.72
   1 -13  -6   51.33    3.36
  -1  13   6   55.36    3.37
  -2   5  15   23.08    2.39
  -2   5  15   28.75    3.03
  -2   5  15   28.97    2.77
   7   5  14   40.01    3.34
  -7  -5 -14   41.21    2.79
   7   5  14   36.53    2.31
   1  11  -6   58.57    3.71
   1  12  11   83.55    4.42
  -1 -12 -11   87.57    4.16
   1  12  11   89.67    5.20
   3  -1  16   43.83    3.24
   3  -1  16   49.75    3.79
   0 -12   4    5.09    1.97
   0  12  -4    6.36    1.85
   0  12  -4    9.69    1.78
   0 -12   4    9.35    1.29
   5  12   2   28.66    2.83
   5  12   2   22.98    2.48
   3  -3  15    8.03    2.23
   3  -3  15    4.94    1.83
  -5   9   8   42.89    3.09
  -5   9   8   46.71    3.76
   0   6  16   38.74    3.17
   0   6  16   45.98    3.34
   7  10   2   43.80    3.42
   7  10   2   44.58    3.72
   7  10   2   44.11    2.83
   7  10   2   41.21    3.60
   7  10   2   42.70    3.45
   8   1  -6   23.45    2.25
  -8  -1   6   23.59    2.69
  -8  -1   6   29.51    2.43
   5  -6 -11   11.97    2.59
   5  -6 -11   12.99    1.71
  -5   6  11   16.40    2.39
  -5   6  11   13.77    1.69
  -5   6  11   14.27    2.37
   2   0 -15   23.90    2.42
  -2   0  15   28.11    2.26
  -2   0  15   23.71    2.60
  -7  -1 -14   11.85    1.95
   7   1  14    9.17    1.59
   7   1  14   10.55    2.15
  -8   5  -7   10.11    2.33
  -8   5  -7    8.44    1.85
  -8   5  -7   10.35    1.98
   8  -5   7   15.16    2.48
   6  11   9    7.20    2.22
   6  11   9   12.10    2.42
   5   5  16    2.75    1.52
   5   5  16    6.00    2.18
   5   5  16    1.97    2.11
   9   5   9   31.81    2.46
   9   5   9   25.96    3.25
   9   5   9   30.16    2.36
   9   5   9   28.99    2.40
  -7  -4   7    0.38    1.29
  -7  -4   7   -0.49    1.33
   7   4  -7   -0.58    3.05
   9  -2  -2    8.06    1.81
   9  -2  -2    6.69    2.93
  -9   2   2    9.50    2.43
   8  -2  -6   18.38    2.24
  -8   2   6   16.99    2.76
   1   7  16   14.08    2.36
   1   7  16   11.54    1.93
   1   7  16   11.79    1.94
   8  -6  -2   12.87    2.82
  -8   6   2    5.38    2.33
  -8   0 -12   28.05    2.68
   8   0  12   26.67    2.66
  -3   9  -9   34.97    2.30
   3  -9   9   37.17    2.85
  -1   3  16    2.28    1.68
   1  -3 -16    2.39    1.65
  -1   3  16    4.52    1.96
   3 -11   5   42.96    2.95
  -3  11  -5   40.54    2.80
  -3  11  -5   46.82    2.99
   9   4  -1   -0.17    1.76
   9   4  -1    0.86    1.92
   9   4  -1    0.28    1.53
  -9  -4   1   -0.60    1.85
  -3 -10 -14   38.69    2.47
  -3 -10 -14   36.41    2.80
   3  10  14   35.28    3.24
   3  10  14   40.79    2.69
  -5  10   6    0.69    1.45
   5 -10  -6    1.43    1.50
  -5  10   6    1.52    1.66
  -5  10   6   -0.69    2.06
   2  13   0   14.51    2.38
  -7   4   8    9.93    2.48
  -8   4   5   11.90    2.57
   8  -4  -5   14.48    2.94
  -9   3   1    8.21    2.36
   9  -3  -1    6.09    2.79
   9  -3  -1    9.55    1.82
  -9  -2 -10   16.14    2.03
   9   2  10   20.78    2.32
  -2  -9 -15   46.34    2.95
   2   9  15   38.16    3.21
   2   9  15   39.82    2.87
   2   9  15   45.73    3.67
   9   3  10    0.88    1.43
  -9  -3 -10    1.17    1.26
  -9  -3 -10    0.29    1.43
   7   9  -1   66.82    4.64
   7   9  -1   59.96    4.21
   7   9  -1   73.23    4.73
   4  -4  14    5.39    1.84
   4  -4  14    2.18    2.11
  -1  13   0    0.76    1.46
  -1  13   0    3.04    1.59
   1 -13   0    0.61    1.66
   3  12  11    5.77    2.01
  -6   8  -7   13.70    2.24
   9   6   2   25.96    3.30
   9   6   2   30.58    2.82
   9   6   2   26.43    2.04
  -4   7  12   20.24    2.66
   4  -7 -12   17.11    2.54
   4  -7 -12   17.61    1.96
   8  -5  -4    2.25    2.33
  -8   5   4    1.70    1.99
  -5   0  12   11.87    1.95
   5   0 -12   11.67    2.86
  -5   0  12   10.08    1.70
  -1   2  16   28.61    2.61
   1  -2 -16   34.10    2.92
  -9   3  -6   37.27    2.83
   9  -3   6   33.06    2.84
  -9   3  -6   38.89    3.64
   7   9  11   61.55    4.06
   7   9  11   55.51    3.38
   7   9  11   57.99    3.84
   7   9  11   47.19    3.79
   4  -5 -13   27.33    3.04
  -4   5  13   29.87    3.35
   4  -5 -13   30.33    2.43
  -4   5  13   28.71    2.83
  -4   5  13   33.15    2.91
  -4   5  13   29.62    2.30
   1  -6  13    6.89    1.82
   1  -6  13    7.24    2.10
  -6   8   7    7.63    1.61
  -6   8   7   12.60    2.52
   2  -7  12    5.36    1.64
  -2   7 -12    4.39    1.47
   6  -9  -5    3.89    1.96
  -6   9   5    1.95    1.58
   5   9  14   52.55    2.77
   5   9  14   45.65    3.74
   5   9  14   48.68    3.49
   5   9  14   46.79    3.74
  -2  -7  11    7.10    1.84
   2   7 -11    9.00    1.90
   2   3  17    5.18    2.11
   2   3  17    4.71    1.77
   2   3  17    6.06    1.90
   2   3  17    3.53    2.11
   3 -12  -6    8.99    1.82
  -3  12   6    8.72    2.12
  -7   4 -11   19.01    2.53
   7  -4  11   14.98    2.28
   7  -4  11   14.05    2.68
   2  -6  13    6.25    1.82
   2  -6  13    8.20    2.23
   4   1 -13   12.74    3.02
  -4  -1  13   14.37    2.19
  -1  -2  15   16.39    2.10
  -1  -2  15   18.68    2.39
   1   2 -15   22.83    2.17
   1   2 -15   18.99    2.29
   6   6  15   14.70    1.72
   6   6  15   12.02    2.53
  -6  -6 -15   13.61    2.01
  -8  -7 -11    0.77    1.54
   8   7  11    1.89    1.91
   8   7  11    1.40    1.94
   1 -12   4   15.11    1.67
  -1  12  -4   13.20    2.14
  -1  12  -4   14.53    1.68
   1 -12   4   12.50    2.25
   3   9  15    2.52    1.80
  -3  -9 -15   -0.45    1.63
   3   9  15    1.88    1.50
   9   5   0   14.12    2.37
   9   5   0   12.91    1.98
   9   5   0    8.56    2.19
   6  11   1    4.83    1.85
   6  11   1    1.44    1.52
   6  11   1    6.84    2.37
   6  11   1   -0.30    1.71
  -3  -1  14    3.61    1.82
   3   1 -14    1.58    1.48
   5   7  -8    9.93    3.00
   5   7  -8    7.34    2.48
  -5  -7   8    8.09    1.52
  -1 -10 -14   13.44    1.79
   1  10  14   11.24    1.90
   1  10  14   11.89    2.06
   1  10  14   11.02    2.47
  -1   4  16    5.16    1.90
  -1   4  16    6.23    1.89
   1  -4 -16    5.91    1.90
  -1   4  16    7.12    2.20
   9   6   8   19.68    1.78
   9   6   8   18.14    1.90
   9   6   8   20.25    2.43
   9   6   8   17.73    2.86
   9   6   8   14.98    2.22
  -2 -11 -13   24.44    2.20
   2  11  13   23.58    2.51
  -2 -11 -13   18.31    1.88
   2  11  13   25.12    2.35
   2  11  13   21.02    2.83
   3  13   8   32.69    3.03
   3  13   8   38.53    3.61
  -5  -3  11   51.17    3.22
   5   3 -11   54.21    3.21
   1  12  -4   47.69    3.40
  -2  11  -6   28.60    2.62
   2 -11   6   35.43    3.22
   2 -11   6   29.41    2.36
   9  -4   2   27.99    2.77
   9  -4   2   33.58    3.91
   8   9   5   31.77    2.46
   9   3  -2   24.96    2.78
   9   3  -2   20.37    2.57
  -9  -3   2   20.39    2.65
  -1   8 -11   11.09    1.91
   1  -8  11    7.91    1.60
   2   4  17   29.28    3.26
   2   4  17   23.86    2.82
   2   4  17   27.68    2.62
   0 -13  -8   -0.27    1.53
   0 -13  -8    0.69    1.63
   0  13   8    1.56    1.47
  -6  -2  10   29.74    2.58
  -6  -2  10   32.80    2.40
   7  -8  -3   34.73    3.43
   8   9   6   52.06    3.71
   8   9   6   52.27    3.16
   8   9   6   46.87    3.43
   5  -9   7    2.09    1.78
  -5   9  -7    1.50    1.82
   4  12  -1   42.07    3.71
   4  12  -1   49.81    3.81
   0  13  -1   13.75    2.15
   0  13  -1   16.13    1.87
  -3  -9   8    4.86    1.49
   3   9  -8    5.72    1.73
   3   9  -8    5.35    1.93
   3   9  -8    6.10    1.98
   2   8 -10   13.34    2.06
  -2  -8  10   13.55    1.98
  -8   3 -10    8.24    2.00
   8  -3  10    6.81    2.16
  -8   3 -10    7.88    2.17
   8  -3  10    8.36    2.32
  -7  -8   3   66.61    4.58
   7   8  -3   68.67    4.70
   7   8  -3   67.57    4.35
   7   8  -3   75.29    5.11
  -9   4  -3   26.55    3.17
   9  -4   3   25.62    2.63
   5   1  16    2.53    1.74
   5   1  16    4.01    1.67
  -8   6  -5    4.27    1.63
  -8   6  -5    6.43    2.23
  -2  10  -8   55.38    3.17
   2 -10   8   59.97    3.33
   2 -10   8   50.78    4.10
   4   5 -11   37.49    2.64
  -4  -5  11   33.14    2.68
   3   3  17    4.87    1.80
   3   3  17    5.13    1.90
   3   3  17    4.53    2.11
   3   3  17    4.60    2.43
   7  10   9   21.77    2.69
   7  10   9   21.91    2.90
  -2   9  13   64.32    4.10
  -2   9  13   57.05    3.45
   2  -9 -13   62.31    3.71
  -2   9  13   64.99    3.95
   6   4  -9   52.49    4.67
  -6  -4   9   54.67    3.30
   7  -3  12   15.35    2.79
   7  -3  12   15.97    2.30
   5   6  -9   -0.27    2.85
  -5  -6   9    0.26    1.31
   6   9  13   37.47    3.14
   6   9  13   27.43    3.13
   6   9  13   33.10    3.13
   9   0  -3   15.75    1.91
  -9   0   3   15.56    2.84
   1  13  -1   13.18    2.28
  -9  -1 -10   11.55    1.89
   9   1  10   14.43    2.20
   5  10  13    3.03    2.16
   5  10  13    0.18    2.01
  -5 -10 -13    0.24    1.41
   3 -11  -9   23.33    2.12
  -3  11   9   20.98    2.77
   4   7  16    7.02    1.66
   4   7  16    5.65    2.05
   9   4  10   14.54    1.94
  -9  -4 -10   13.76    2.05
  -9  -4 -10   10.50    1.72
   9   4  10   11.61    1.87
   9   4  10   13.37    1.81
   3  13   1   15.00    2.53
   5  -4 -12   37.00    2.57
   5  -4 -12   32.05    3.59
  -5   4  12   35.33    3.00
  -5   4  12   35.50    2.26
  -5   4  12   34.69    2.99
  -1  -4  14    4.75    1.82
   1   4 -14    6.36    1.67
   1   4 -14    5.83    1.89
   1   4 -14    5.86    2.03
  -1  -4  14    2.83    1.64
   9  -4   1   57.35    3.70
   9  -4   1   63.34    4.96
   3   4  17   -1.59    2.06
   3   4  17   -0.57    1.87
   3   4  17   -0.64    1.45
   3   4  17    0.44    2.11
   2   2  17    1.24    1.46
   2   2  17    1.33    1.92
   2   2  17    2.05    1.69
   3   5 -12   60.95    3.48
  -3  -5  12   58.29    3.55
   3   5 -12   61.75    3.47
  -6   2 -14   33.97    2.51
   2   3 -14   38.21    2.55
  -2  -3  14   43.65    3.23
   2   3 -14   38.47    2.85
   6  -7   9    3.14    1.91
  -6   7  -9    1.61    1.78
   6  -7   9    2.29    2.23
  -4  -9   7   14.82    1.77
   4   9  -7   17.21    2.18
   4   9  -7   18.33    2.02
   4   9  -7   14.80    2.72
  -5 -10   4   47.14    3.81
   5  10  -4   50.24    3.92
   5  10  -4   48.36    3.90
   5  10  -4   53.40    3.39
   8   9   4   25.94    2.17
   8   9   4   30.42    3.15
   8   9   4   27.95    3.00
   8   9   4   29.00    3.02
  -2  10  12   32.70    3.06
   2 -10 -12   32.39    2.66
  -2  10  12   37.97    3.13
   0   3 -15   15.27    2.08
   0  -3  15   13.17    2.26
   0  -3  15   12.21    2.12
  -3  12  -2   39.21    2.63
  -3  12  -2   37.40    2.94
   0  -7  12   59.83    3.71
   8   6  12   36.78    2.53
   8   6  12   44.55    3.07
  -8  -6 -12   35.57    3.02
  -8  -6 -12   38.99    3.01
  -8  -6 -12   35.84    2.72
   8   6  12   31.81    2.93
   8   6  12   35.36    3.23
   8   5  -4   17.89    2.37
   8   5  -4   16.46    2.69
   8   5  -4   19.01    2.19
  -7   5 -10    0.39    1.79
   7  -5  10    0.19    1.70
   7  -5  10    0.83    2.16
   7  -5  10    0.34    1.74
  -7   8  -4    3.28    2.04
   4  13   5   47.69    3.80
   4  13   5   53.53    3.93
   2   6 -12   -0.53    1.74
  -2  -6  12    2.35    1.60
   2   6 -12    1.04    1.57
   8  -2  11   21.73    2.67
   8  -2  11   21.63    2.99
   9   1  -3   -0.42    1.41
   9   1  -3    1.03    1.35
  -9  -1   3    1.77    1.98
   6   8  14   30.77    1.98
   6   8  14   28.12    3.08
  -6  -8 -14   27.98    2.71
  -2  13   3   -0.19    1.81
  -2  13   3   -0.13    1.28
   2 -13  -3   -0.16    1.69
   3  11  13   15.54    1.82
  -3 -11 -13   17.86    1.97
  -6   0 -15   21.76    2.33
   6   0  15   20.74    2.39
   6   0  15   24.24    2.39
  -1  10  13   50.17    3.46
  -1  10  13   37.74    3.26
   6  10  -2    5.66    2.33
  -6 -10   2    4.38    1.95
   6  10  -2    7.04    1.88
   6  10  -2    2.81    2.33
   1   9  15   26.30    2.70
   1   9  15   39.14    3.37
   5   8  -7   16.70    2.80
   5   8  -7   19.34    3.38
  -5  -8   7   14.32    1.67
   1  10  -8   31.18    2.93
  -4   8 -10   27.65    2.24
   4  -8  10   28.22    2.62
   1  -1 -16   46.62    3.24
  -1   1  16   41.64    3.01
   8   6  -3    7.85    1.84
   8   6  -3   11.86    2.19
   2  -8  11   19.38    2.06
  -2   8 -11   16.80    2.00
   8   9   7  104.72    5.16
   8   9   7  108.42    5.37
   8   9   7  111.05    4.98
   8   9   7  105.89    5.53
   2  13   9   62.12    4.42
   2  13   9   58.05    3.83
  -2  13   2    4.86    1.53
  -2  13   2    5.86    1.92
   2 -13  -2    2.19    1.56
  -4  10   9   31.67    2.97
  -4  10   9   34.11    3.33
  -9   2  -8   32.21    2.61
  -9   2  -8   36.17    2.93
   9  -2   8   33.77    3.14
  -9   2  -8   37.49    3.64
   8  -4   9    1.55    2.24
  -8   4  -9    1.76    1.99
   8  -4   9    0.19    1.94
  -8   4  -9    0.16    1.61
   4  13   4   30.29    3.10
   4  13   4   32.06    3.29
   9  -1   9   28.43    2.94
  -9   1  -9   26.54    2.52
  -9   1  -9   31.87    2.79
   9  -1   9   36.01    3.23
  -9   1  -9   23.84    3.26
  -5 -11   2   31.53    2.86
   5  11  -2   38.88    3.48
   5  11  -2   42.06    3.17
  -9   1   3   40.62    3.70
   9  -1  -3   40.61    2.82
   9  -1  -3   42.76    4.06
  -1  12  10   16.70    1.95
  -1  12  10   16.48    2.58
   1 -12 -10   16.20    2.25
   4  13   6   29.52    3.11
   4  13   6   36.29    3.39
   3   2  17   48.98    3.66
   3   2  17   47.62    3.30
   3   2  17   46.71    3.29
  -8  -2   6   98.19    5.04
  -8  -2   6   94.47    4.46
   8   2  -6   98.73    4.41
  -1 -11 -13    0.13    1.45
  -1 -11 -13    4.59    1.57
   1  11  13    3.21    2.22
   1  11  13    2.15    1.63
   9  -4   4   17.51    2.26
  -9   4  -4   17.66    2.93
   5  12   9   27.88    3.02
  -1  13   7   21.65    2.90
  -1  13   7   16.96    2.09
  -5   8  -9   11.69    1.92
   5  -8   9    8.10    1.91
   8   8  10   19.84    2.39
  -8  -8 -10   22.55    2.55
   8   8  10   26.92    2.91
   8   8  10   22.35    2.73
   8   8  10   23.70    2.71
   0   8 -11   13.18    2.04
  -5  -8 -15   72.29    4.03
   5   8  15   70.38    3.52
   5   8  15   84.12    4.89
   5   8  15   66.48    4.42
  -1   9  14   21.21    2.78
  -1   9  14   24.71    2.38
  -1   9  14   20.92    2.55
  -8   3   6   27.95    3.15
   1  13   9   35.82    3.66
  -1 -13  -9   35.51    2.50
   1  13   9   37.47    3.01
  -2  13   4    1.16    1.32
   2 -13  -4    3.43    1.84
   2  -5  14    3.98    1.64
   2  -5  14    3.56    2.16
  -6   5  10    0.21    2.00
  -6   5  10    0.19    1.68
   1   3  17   22.95    2.60
   1   3  17   24.93    2.58
   8   3  13    1.03    1.15
  -8  -3 -13   -0.91    1.57
   8   3  13   -0.50    1.82
   8   3  13    1.52    1.66
  -5  11   1   22.27    2.80
  -5  11   1   24.53    2.77
   7   6  14   35.18    3.15
   7   6  14   29.75    2.04
   7   6  14   32.79    3.14
  -7  -6 -14   34.28    2.70
   0  -6  13   66.90    3.99
   2   5  17   44.94    3.65
   2   5  17   48.11    3.30
   1  -5  14   43.98    3.27
   1  -5  14   42.66    3.40
   5  12   1   20.20    2.88
  -6   9  -5   -0.20    1.77
   5   6  16    7.90    2.38
   5   6  16    5.70    2.14
   5   6  16    4.01    1.87
   5   6  16    6.38    1.59
  -3   6  14    7.27    2.48
   3  -6 -14    5.84    2.10
   3  -6 -14    5.65    1.68
  -3 -11   5   -0.38    1.82
   3  11  -5    0.21    1.88
  -3 -11   5   -0.66    1.23
   3  11  -5    2.38    1.92
   3  -9 -12   21.60    2.15
   3  -9 -12   25.27    2.36
  -3   9  12   25.59    2.72
  -3   9  12   23.11    2.48
  -4  11   7   19.01    2.19
  -4  11   7   16.75    2.76
  -4  11   7   13.39    2.18
   5 -11  -2   14.66    2.40
  -5  11   2   14.58    2.61
  -5  11   2   15.33    2.51
   7  10   1   49.03    3.48
   7  10   1   43.09    3.76
   7  10   1   49.52    3.75
   7  10   1   44.24    3.71
   7  10   1   49.13    2.93
   0  12  11    7.64    2.50
   0 -12 -11    8.19    1.69
   0  12  11    9.80    1.87
   6   9  -4    1.67    2.27
  -6  -9   4   -1.36    2.48
   6   9  -4    1.47    1.46
   6   9  -4    4.57    2.55
   9  -4   0   23.61    3.55
  -9   4   0   18.50    2.92
   8   8   0    5.25    2.33
   8   8   0    7.45    2.24
   8   8   0    4.48    1.98
  -4  11  -4   27.93    2.68
  -4  11  -4   24.95    2.03
  -7   7  -7    0.63    1.84
   1   4  17   56.50    3.66
   1   4  17   44.63    3.53
   9   7   5    9.32    2.55
   9   7   5    7.71    1.75
   9   7   5    6.98    1.95
  -1   5  16   37.00    3.19
  -1   5  16   30.95    2.77
  -1   5  16   34.93    3.01
  -8  -4   5   15.36    2.25
  -8  -4   5   19.35    1.82
  -7   0 -14   21.38    2.12
   7   0  14   23.22    2.64
   3   5  17   18.28    2.69
   3   5  17   21.16    2.37
   0   1 -16    4.10    1.66
   0  -1  16    5.35    1.73
   0  -1  16    1.80    1.80
  -5  11   0   23.99    2.84
   8   2  13    5.97    1.48
   8   2  13    6.49    1.75
  -8  -2 -13    3.86    1.45
  -8   6   3   10.21    2.50
   8  -6  -3    8.42    2.61
  -7   1   9   28.62    2.72
  -7   1   9   29.04    2.88
   9   6   1   48.92    3.53
   9   6   1   44.61    3.41
   9   6   1   51.06    2.69
   9   6   1   43.28    3.23
   2 -13  -1   15.02    2.10
  -2  13   1   14.20    2.28
  -2  13   1   12.26    1.79
   8   9   3    8.64    2.43
   8   9   3    6.24    1.35
   8   9   3   10.81    2.59
   8   9   3   14.37    2.71
  -2   6  15   14.89    2.31
  -2   6  15   14.64    2.16
  -2   6  15   11.92    2.43
   5   1 -12   34.47    3.93
  -5  -1  12   29.85    2.71
   5   1 -12   41.20    2.98
  -8  -4 -13   22.08    2.36
   8   4  13   27.05    2.87
   8   4  13   28.85    2.03
   8   4  13   29.12    2.50
   9   7   6    4.94    2.41
   9   7   6    1.75    1.63
   9   7   6    3.68    1.69
  -1  13  -1    0.43    1.50
  -1  13  -1    1.33    1.57
  -4 -10 -14    4.51    1.67
   4  10  14    4.48    2.05
   4  10  14    5.26    1.45
   4  10  14    4.86    2.32
   4  -1  16    0.51    1.73
   4  -1  16    2.25    2.12
   2   9  -9   44.96    3.64
   2   9  -9   45.14    3.11
  -2  -9   9   41.62    2.88
   1   2  17   24.07    2.57
   1   2  17   25.50    2.81
   3  -6  13   38.12    3.58
  -3   6 -13   38.10    2.58
   3  -6  13   44.08    3.13
  -7   6   7   30.16    3.23
   6  10  12   31.10    3.12
   6  10  12   30.64    3.13
   6  10  12   30.81    3.05
   4  13   3   37.63    3.52
   5  -2  15   26.10    3.19
   5  -2  15   21.84    2.44
   5  -2  15   19.22    2.37
  -5   2 -15   19.33    2.16
   9  -3  -2    4.35    2.72
   9  -3  -2    4.52    1.73
  -9   3   2    4.53    2.20
  -2   8  14   16.85    2.21
  -2   8  14   18.91    1.98
  -2   8  14   18.72    2.50
   6  11  10    8.28    2.23
   6  11  10    7.79    2.29
   5   5 -10    2.47    2.79
  -5  -5  10    1.82    1.54
   4  13   7   20.75    2.80
   4  13   7   16.13    2.50
   9   2  -3   -0.24    1.42
   9   2  -3    0.52    2.06
  -9  -2   3    0.64    1.91
   9   7   4   34.77    2.95
   9   7   4   37.88    3.50
   9   7   4   35.29    2.67
   9   7   4   36.02    2.99
   7  -2  13   47.35    3.49
   7  -2  13   48.98    3.99
   7  -2  13   50.56    3.57
  -5  10  -5    4.72    1.90
   3  -7  12   36.65    2.99
  -3   7 -12   31.07    2.33
   3  -7  12   39.92    3.58
   2   1 -15   67.27    3.83
  -2  -1  15   60.64    3.84
  -2  -1  15   59.27    3.40
   2   8  16    4.39    2.07
   2   8  16    3.76    1.77
   2   8  16    3.31    2.00
  -6  10   1   12.32    2.14
  -6  10   1   13.77    2.59
   6 -10  -1   14.07    2.53
  -7   2   9    4.05    1.89
  -7   2   9    7.17    1.95
  -6  10   0    8.96    2.22
  -6  10   0   11.11    2.50
  -7  -3   8    4.65    1.57
  -7  -3   8    5.56    1.61
   2   1  17   25.85    2.64
   2   1  17   25.03    2.82
  -1   9 -10    3.58    1.65
   1  -9  10    4.37    1.44
  -9   3  -7   25.16    2.48
  -9   3  -7   23.90    3.13
  -9   3  -7   20.39    2.22
   9  -3   7   20.72    2.64
   4   9  15   17.33    2.79
   4   9  15   17.17    2.61
   4   9  15   17.73    1.90
  -4  -9 -15   12.37    2.05
  -7   0   9   22.49    2.60
  -7   0   9   25.60    2.49
   7   0  -9   19.53    3.55
   4  -3  15   12.67    2.07
   4  -3  15   15.81    2.75
   4  -3  15   11.80    2.14
   8   9   8   63.04    4.19
   8   9   8   57.86    3.58
   8   9   8   66.61    3.91
   8   9   8   66.97    4.23
   9   6   9   32.94    2.67
   9   6   9   28.03    2.41
   9   6   9   34.47    3.07
   9   6   9   27.37    2.14
   9   6   9   28.00    3.45
   9   0  10   29.60    2.88
  -9   0 -10   28.12    2.54
  -2  13   5    4.85    1.42
   2 -13  -5    5.70    2.09
  -9  -5 -10   18.69    2.13
   9   5  10   20.92    2.21
   9   5  10   21.84    2.28
   9   5  10   24.43    2.22
  -9  -5 -10   20.89    2.22
  -5  11   3    9.27    2.20
   5 -11  -3   13.74    2.25
  -5  11   3   10.98    2.53
   2  11  -6   31.84    3.09
   8   7  -2    4.48    1.77
   8   7  -2    1.27    1.93
   8   7  -2    3.30    2.47
   1 -11 -12   25.96    2.63
  -1  11  12   29.32    3.17
   3 -10 -11    0.28    1.36
  -3  10  11    1.09    1.68
   3   8  16    0.77    1.82
   3   8  16    0.21    2.02
   3   8  16    0.29    1.45
   2  -2  16   58.36    3.96
   2  -2  16   54.83    3.64
   2  13  -1   31.12    3.18
   8  -1  12   12.82    2.90
   8  -1  12   13.56    2.30
   3  12  -3    1.30    1.98
   3  12  -3    1.02    1.97
  -3   8  13   42.54    3.14
  -3   8  13   39.59    3.28
   3  -8 -13   38.75    3.00
  -3   8  13   40.06    2.55
   3  -8 -13   35.55    2.79
   3  13   9   35.07    3.13
   3  13   9   31.36    3.33
  -2  12   9   18.45    2.72
   2 -12  -9   20.94    2.27
   4  12  11   35.65    3.02
   4  12  11   29.42    3.26
  -9   4  -5   16.01    2.82
  -9   4  -5   19.75    2.19
   9  -4   5   20.77    2.45
   4  11  -4   46.17    3.76
  -4 -11   4   42.16    3.44
   4  11  -4   46.44    3.78
  -4 -11   4   47.24    2.56
   4   3  17   45.29    3.12
   4   3  17   38.77    3.29
   0   7  16   80.89    4.32
   0   7  16   78.87    4.68
   0   7  16   86.04    4.61
   9  -2  -3   30.70    3.62
   9  -2  -3   30.51    2.53
  -9   2   3   36.31    3.60
  -3  12   7   15.07    2.53
   2 -12   4   18.81    2.06
  -2  12  -4   18.82    2.18
  -2  12  -4   19.62    2.01
   2 -12   4   24.44    2.74
   7  -8  -4   31.32    3.22
   7  -6   9    6.58    2.41
   7  -6   9    4.21    1.81
  -7   6  -9    4.45    1.91
   7  -6   9    4.85    2.06
   9   7   7    0.62    1.88
   9   7   7   -0.63    1.73
   9   7   7   -1.17    1.36
   9   7   7   -2.70    2.35
   4   4  17    2.60    1.63
   4   4  17    1.39    1.97
   4   4  17    5.80    2.48
  -6  10   2   33.43    3.47
   6 -10  -2   29.01    3.10
  -6  10   2   36.87    3.02
   3   1  17   46.86    3.75
   3   1  17   46.70    3.42
  -5  11  -1   12.98    2.41
  -6  10  -1   14.85    2.53
  -6   2  11   25.97    2.70
   6  -2 -11   28.84    3.71
  -6   2  11   29.40    2.81
  -6   1  11   11.34    2.07
  -6   1  11   10.29    1.88
   6  -1 -11    8.76    2.84
   2   5 -13   -0.71    1.82
   2   5 -13   -0.15    1.58
  -2  -5  13    1.64    1.75
   2   5 -13   -0.13    1.34
   2  12  -4    9.35    2.05
   2  12  -4   12.28    2.44
   2 -11 -11   -0.31    1.49
   8  -7   1   19.99    3.17
  -8   7  -1   21.05    3.03
  -7   7   6   10.70    2.56
   7  -7  -6   12.57    2.46
  -7   5   8   40.93    3.70
   5   0  16    0.52    1.62
   5   0  16   -0.64    1.47
   1   5  17   14.97    2.25
   1   5  17   12.75    2.37
  -4  12   2   27.05    2.96
   4 -12  -2   31.58    2.78
   5  11  12   41.19    3.61
   0   9 -10    7.73    1.95
  -8   6  -6    2.75    2.16
  -8   6  -6    1.75    1.64
  -8   6  -6   -0.15    1.48
   6  11   0    0.28    1.57
   6  11   0    2.38    1.73
   6  11   0    0.86    2.15
   3  -5  14   33.65    3.27
   3  -5  14   31.26    2.75
  -5  -9   6    9.66    1.48
   5   9  -6    9.19    1.84
   5   9  -6    9.44    2.36
  -8   5  -8    1.72    1.70
   8  -5   8   -0.57    2.25
  -8   5  -8    4.51    2.10
  -4   6  13   35.72    3.24
  -4   6  13   41.66    3.73
  -4   6  13   36.79    2.74
   4  -6 -13   35.89    3.40
   4  -6 -13   33.74    2.58
   7  10  10   56.20    3.83
   7  10  10   55.14    4.12
   7  10  10   63.77    4.19
  -5   8  10   21.65    3.01
   0  10  14    1.24    1.98
   0  10  14    0.17    1.46
   0  10  14    1.03    1.70
   3  13   0    4.27    2.02
  -1   0  16   79.05    4.45
  -1   0  16   74.23    4.07
  -5   5  12   15.96    1.69
  -5   5  12   11.84    2.21
   5  -5 -12   11.25    2.72
  -5   5  12   13.35    2.38
   5  -5 -12   16.12    1.85
  -6  -7 -15   -0.16    1.50
   6   7  15   -0.20    2.32
   6   7  15   -0.52    1.17
   8   1  13   18.16    2.49
  -4  12   1   39.89    3.56
   9   7   3   53.23    3.52
   9   7   3   47.52    2.97
   9   4  -2    2.60    1.64
  -9  -4   2    2.18    1.91
   9   4  -2    0.73    1.92
  -6   9   6   -0.89    1.52
   6  -9  -6   -0.58    1.89
  -8   7  -2    7.02    2.27
   2  12  12   15.20    2.29
  -2 -12 -12   12.94    1.70
  -2 -12 -12   15.89    1.84
   8  -7   0   14.15    2.98
  -8   7   0   18.09    2.88
   9   5  -1    5.91    2.16
   9   5  -1    9.52    2.19
   9   5  -1    7.22    1.97
   1  -2  16   37.60    3.18
  -2  13   0   17.88    2.35
  -2  13   0   15.95    1.99
  -3 -10   7    1.60    1.28
   3  10  -7   -1.96    1.89
   3  10  -7    0.43    1.86
   4   2 -13    7.81    2.95
  -4  -2  13    2.35    1.67
   4   2 -13    0.27    1.75
   7   8  13   17.43    2.69
   7   8  13   22.64    2.67
   7   8  13   18.55    2.76
  -7  -8 -13   11.86    2.12
  -8  -5 -13   20.83    2.37
   8   5  13   18.70    2.01
   8   5  13   15.39    2.46
  -9   4   1   14.12    2.88
   9  -4  -1   15.73    3.26
   2  -9  10   11.21    1.88
  -2   9 -10   11.51    1.80
   4   4 -12   11.77    2.03
  -4  -4  12   11.89    1.97
   0  -5  14   35.07    3.11
   0  -5  14   46.34    3.28
  -7   8  -5   -0.22    2.13
   0  13   9    1.73    1.55
   0 -13  -9   -0.27    1.43
   0  13   9    3.37    2.22
  -4  12   3   27.90    3.10
   4 -12  -3   28.12    2.44
   4   2  17   43.26    3.30
   4   2  17   46.78    3.71
   4   2  17   45.90    3.25
   4  11  13   67.67    4.24
   4  11  13   74.70    4.77
   0  13  -2    8.01    1.93
   0  13  -2    9.52    1.58
   7   6  -6   37.65    4.25
   7   6  -6   38.50    3.73
  -7  -6   6   38.36    2.42
   1   1  17    4.44    1.89
   1   1  17    3.23    1.65
   3  -2  16   11.94    2.60
   3  -2  16   13.40    2.19
   4 -10   7   16.16    2.25
  -4  10  -7   14.71    2.05
   8  -5  -5    3.02    2.18
  -8   5   5    3.72    2.16
  -7   3   9    0.91    1.75
  -7   3   9   -0.21    1.90
   4  13   2   35.74    3.38
   4  13   2   34.30    2.87
  -1   8  15    4.80    1.95
  -1   8  15    4.63    1.59
  -1   8  15    6.98    2.05
   3  -8  11   29.21    2.60
   2   6  17   40.72    3.05
   2   6  17   38.07    3.45
  -9  -3 -11    3.31    1.62
   9   3  11    2.28    1.65
   0 -11   7   -2.33    2.35
   0 -11   7    0.37    1.09
   0  11  -7    0.17    1.56
  -3  12  -3   30.24    2.68
   8   9   2    4.85    2.35
   8   9   2    1.19    2.11
   8   9   2   -2.51    2.51
   5  -5  13    9.54    2.15
   7   9  -2   69.58    4.58
   3   2 -14   24.89    2.29
  -3  -2  14   31.13    2.84
   5  -6  12   17.75    2.33
   6  -5  12    1.33    2.17
   6  -5  12    5.61    1.97
  10   1   4    3.40    1.47
  10   1   4    0.28    3.19
 -10  -1  -4    3.99    2.09
   4  13   8   -0.40    2.00
   4  13   8    2.51    2.12
  10   2   4    1.66    3.12
 -10  -2  -4    0.99    1.99
  10   2   4    0.93    1.27
   1   8  16   37.65    3.00
   1   8  16   40.97    3.38
   1   8  16   39.15    3.14
   1 -11   7   21.71    2.06
   1 -11   7   21.77    3.12
  -1  11  -7   19.33    2.18
  -9  -2 -11   11.11    2.04
   9   2  11   16.18    2.31
  -6   3  11   19.37    2.58
  -6   3  11   24.66    2.68
   6  -3 -11   21.41    2.05
   6  -3 -11   22.47    3.38
   3 -10   8   15.30    2.03
  -3  -4  13   49.52    3.37
   3   4 -13   55.09    3.38
   3   4 -13   39.88    2.92
   3   6  17   43.70    3.76
   3   6  17   50.52    3.62
   3   6  17   49.83    3.28
   4   5  17    1.50    1.57
   4   5  17    1.82    2.09
  -6   0  11    1.54    1.55
   6   0 -11    0.89    2.58
  -6   0  11    3.07    1.77
   4  10  -6   66.68    3.97
  -4 -10   6   58.80    3.20
  -4 -10   6   68.51    4.40
   4  10  -6   58.85    4.26
  -7  -1   9   25.64    2.52
   7   1  -9   29.90    3.86
  -7  -1   9   27.57    2.57
   7   1  -9   32.06    2.68
   7   7  -5   30.72    4.10
   7   7  -5   30.98    3.32
  -1  -7  12   29.57    2.73
   1  13  -2   12.39    2.35
   6   3 -10   48.79    3.00
  -6  -3  10   41.20    2.89
   7   9  12   47.01    3.90
   7   9  12   45.12    3.58
   7   9  12   46.95    3.77
   2  -4  15    1.47    1.81
  10   2   5    2.21    2.91
 -10  -2  -5   -0.75    2.01
  -5  11   4    9.91    2.44
  -5  11   4    8.50    2.03
   5 -11  -4    5.26    1.86
   5  -7 -11   -1.14    2.09
  -5   7  11    0.13    1.34
  -5   7  11   -0.66    1.92
  -5   7  11   -0.20    1.71
  -1  13   8   19.39    2.09
  -1  13   8   22.40    2.89
  10   1   3    0.28    3.02
 -10  -1  -3    5.73    2.27
  -8  -3   6   40.25    2.68
  -8  -3   6   38.60    3.00
  -4  12   0   26.70    2.99
  -6   7   9   29.71    3.28
  -6   7   9   32.39    2.32
   5  12  10   18.65    2.99
   0  11  13   17.49    2.75
   0  11  13   13.53    2.20
   0  12  -5    2.33    1.54
   0  12  -5    0.97    1.82
   6 -10  -3   15.99    2.47
  -6  10   3   19.57    2.84
 -10  -1  -5    3.52    2.23
  10   1   5    2.85    1.64
  10   1   5    3.69    3.07
   6   3  16   10.25    1.76
   6   3  16   11.63    2.51
   1   8 -11   14.97    2.39
  -1  -8  11   23.43    2.42
  -3  11  -6   47.10    3.20
  -3  11  -6   58.28    3.24
   3 -11   6   56.17    3.49
  -6  -7   7    8.44    1.47
   6   7  -7   11.94    3.33
   0   9  15    5.63    1.88
   0   9  15    3.65    1.69
   0   9  15    5.46    2.22
  -2  13   6    6.60    1.47
  -6  10  -2   -0.21    1.74
 -10  -2  -3    4.66    2.25
  10   2   3    3.88    2.84
  10   2   3    3.33    1.48
   1  12  12    6.38    1.88
  -1 -12 -12    4.83    1.54
   1  12  12    5.57    2.22
   6  -4  13   12.16    2.13
   6  -4  13   11.50    2.48
  -8   1   7    0.65    1.72
   8  -1  -7   -1.66    1.79
  -8   1   7   -0.98    1.56
  -8   7  -3    7.21    2.36
  -8   7  -3    9.02    1.75
   3  12  12   11.47    2.52
   3  12  12    8.80    2.06
  -8   4   6   16.50    2.92
   4  12  -2   35.67    3.45
   4  12  -2   40.65    3.47
  -5   9   9   23.03    2.35
  -5   9   9   17.89    2.89
   8  -7  -1   21.10    3.24
  -8   7   1   20.09    2.93
   6   4  16   14.50    2.63
   6   4  16   14.82    1.92
   9   7   8   -0.59    1.42
   9   7   8   -0.16    1.95
   9   7   8   -0.16    1.71
   9   7   8    1.05    2.23
   8   7  12    6.54    2.25
   8   7  12    9.76    2.26
  -8  -7 -12   10.58    1.93
   6  12   5   25.55    2.98
   6  12   5   24.34    2.61
  -1   6  16   33.47    2.91
  -1   6  16   39.76    3.15
  -1   6  16   39.28    3.29
  -8   0   7   15.77    2.53
   8   0  -7   18.14    2.27
  -8   0   7   12.78    1.99
   6  12   6   45.15    3.83
   6  12   6   48.25    3.56
  -7  -5   7   12.55    1.68
   7   5  -7   14.28    3.51
   1  -4  15   22.76    2.49
   1  -4  15   19.55    2.71
   5  12   0   40.78    3.64
  -9  -3   3    4.04    1.91
   9   3  -3    6.53    2.15
   9   3  -3    4.77    1.98
   9   3  -3    4.35    1.63
  -6  -6   8   10.11    1.65
   6   6  -8    9.12    3.26
   7   3  15   -0.16    1.68
   7   3  15    0.56    2.28
   7   3  15    3.25    1.37
   2  13  10   68.38    4.16
   6  -1  15   39.83    3.05
  -6   1 -15   38.22    3.00
   6  -1  15   41.44    3.19
   8   9   9   48.13    3.81
   8   9   9   49.00    3.45
   8   9   9   53.35    3.87
   8   9   9   48.69    3.26
   4  -9   9   10.62    2.08
  -6   8  -8    3.17    1.80
   6  -8   8    2.64    1.94
  -9  -4 -11   18.67    2.09
   9   4  11   17.27    2.17
  -9  -4 -11   15.06    2.16
   9   4  11   19.48    2.16
   6  -6  11   -0.38    1.76
   6  -6  11   -0.44    2.11
  -6   6 -11   -1.53    1.56
  -5  11  -2   10.77    2.27
  -3   2  15   36.94    2.75
   3  -2 -15   39.38    2.89
  -3   2  15   33.17    3.04
   4 -12  -4   29.20    2.56
  -4  12   4   28.63    3.21
  -3   3  15   40.13    3.22
  -3   3  15   38.81    2.79
  -3   3  15   39.75    3.00
   3  -3 -15   41.90    2.92
   7  11   6    0.16    1.67
   7  11   6   -0.21    2.27
   5   7  16    8.56    2.27
   5   7  16    9.24    2.43
   5   7  16    6.75    1.63
   7  11   5   13.60    2.71
   7  11   5   13.81    2.08
   0   3  17   49.02    3.75
   0   3  17   55.34    3.71
   9   6   0   34.93    3.12
   9   6   0   33.42    2.92
   7   4  15   28.77    3.09
   7   4  15   26.04    2.15
  -6   8   8   14.60    1.86
  -6   8   8   16.77    2.72
   4   8  16   23.88    2.92
   4   8  16   30.14    2.46
   7  10   0   89.80    5.08
   7  10   0   72.92    3.75
   7  10   0   83.42    4.97
  10   0   4    9.00    3.26
  10   0   4    7.13    1.63
 -10   0  -4    3.05    2.20
  -8  -8 -11   16.75    2.33
   8   8  11   16.25    2.62
   8   8  11   19.30    2.57
   8   8  11   18.25    2.56
  10   3   4   26.71    2.32
  10   3   4   27.01    2.10
 -10  -3  -4   29.46    3.25
  10   3   4   31.02    3.94
   7   7  14    9.50    2.51
  -7  -7 -14   13.11    2.08
   7   7  14   13.78    2.64
  -1  12  -5   20.00    2.48
   1 -12   5   12.95    2.46
   1 -12   5   15.45    1.71
   4  -9 -11    2.27    1.75
  -4   9  11    6.37    2.32
  -4   9  11    4.38    1.74
  10   3   5   13.93    1.63
 -10  -3  -5   12.66    2.54
  10   3   5   12.63    3.49
  10   0   3    1.16    2.89
 -10   0  -3    1.53    2.06
  -9   4  -6    5.50    1.74
  -9   4  -6    9.12    2.70
   9  -4   6    6.34    2.09
   9  -2   9    6.30    2.20
  -9   2  -9    3.35    1.67
  -9   2  -9    5.29    2.26
   9  -2   9    8.68    2.30
   4  -2 -14   54.66    4.50
  -4   2  14   47.95    2.80
  -4   2  14   45.67    3.10
  -4   2  14   47.27    3.44
 -10  -2  -6    2.52    2.34
  10   2   6   -0.83    3.26
   9   0  -4   14.26    1.92
  -9   0   4   14.94    2.66
   2  10  -8   31.73    3.17
  -2 -10   8   37.78    2.70
   2   0  17   34.47    3.03
   2   0  17   34.57    3.30
  -8   6   4   -1.78    2.18
   8  -6  -4   -1.51    2.09
  -1  -3  15    0.33    1.55
   1   3 -15   -1.54    1.59
  -1  -3  15    1.25    1.60
  10   1   2   -0.28    2.82
 -10  -1  -2    1.00    2.15
  10   1   2    0.22    1.33
   6  12   4   19.48    2.58
   6  12   4   21.20    2.72
   6  12   4   13.29    2.71
   9   7   2   55.96    3.11
   9   7   2   62.95    3.90
   9   7   2   60.73    3.97
  -1 -13 -10   33.51    2.57
   1  13  10   37.09    3.07
   1  13  10   42.92    3.76
  -1  13  -2    6.72    1.75
  -1  13  -2    1.74    1.43
   1 -13   2    4.75    1.33
   6   2  16    0.73    1.53
   6   2  16    0.39    2.05
   5  -4  14   21.65    3.04
  -5   4 -14   22.00    2.23
   5  -4  14   26.80    2.74
  -1  -6  13   35.97    3.03
  -9  -1 -11   26.91    2.53
   9   1  11   34.92    2.98
   5   4 -11    9.35    1.90
  -5  -4  11   11.57    1.88
   5   4 -11    7.95    2.89
  -5   7 -11    2.53    1.42
   5  -7  11    6.49    2.43
   5  -7  11    6.64    1.97
   0   4  17    5.86    1.97
   0   4  17   10.16    2.08
  -8   2   7    7.93    2.43
  -5  -2  12   38.07    3.03
   5   2 -12   45.42    4.34
   6  12   7   48.44    3.74
   6  12   7   56.18    4.15
  -4   3  14   17.10    1.93
  -4   3  14   17.96    2.30
   4  -3 -14   16.31    2.79
  -4   3  14   17.18    2.44
   1  14   4   27.52    2.85
   4  -8 -12    1.53    1.78
   4  -8 -12    4.34    1.51
  -4   8  12    5.50    2.19
  -4   8  12    2.81    2.17
  -4   8  12    3.95    1.55
   7   2  15    0.27    1.33
  -7  -2 -15    0.49    1.44
   7   2  15   -0.19    2.23
   7   2  15    0.17    1.63
   0   2  17   57.63    3.78
   0   2  17   56.73    3.78
  10   1   6   14.45    2.23
  10   1   6   19.68    3.83
 -10  -1  -6   18.77    2.89
  -6   9  -6   -0.79    1.66
   7  -1  14   26.78    2.77
   7  -1  14   24.29    3.19
  -7   1 -14   23.90    2.22
   6   8  -6    4.32    2.74
   7  11   7   17.69    2.23
   7  11   7   20.18    3.01
   8   8  -1    0.57    1.94
   8   8  -1   -0.84    2.51
  10   0   5   12.44    1.91
 -10   0  -5   10.42    2.59
  10   0   5    8.16    3.20
   7  11   4   21.82    2.90
   7  11   4   26.45    2.52
   7  11   4   23.93    3.04
   9  -3  -3   -1.36    2.47
  -9   3   3    0.51    1.93
  10   2   2    4.93    3.07
 -10  -2  -2    1.95    2.09
  -9   1 -10   10.41    2.51
   9  -1  10   11.55    2.34
   9  -1  10   16.95    2.77
  -9   1 -10   10.56    2.04
   1   6  17   -0.35    1.74
  -9   1   4   36.93    3.65
   9  -1  -4   37.35    4.03
   4   1  17   32.90    2.88
   1  12  -5   22.84    2.77
   1  12  -5   21.70    2.57
  -7   9   0   24.38    3.23
   7  -9   0   19.22    2.88
  10   3   3   31.46    4.05
  10   3   3   35.38    2.68
  10   3   3   33.45    2.29
 -10  -3  -3   36.45    3.67
   1  14   5   10.54    2.26
  -6   6  10    6.55    2.08
  -6   6  10    8.31    2.33
   9   1  -4    2.03    1.41
  -9  -1   4    0.66    1.89
   9   6  10   45.28    4.04
   9   6  10   40.10    2.92
   9   6  10   46.73    3.10
   9   6  10   41.53    2.63
  -9  -6 -10   40.03    3.10
   9   6  10   39.13    3.35
   3  -4  15   16.04    2.70
  -6  -5 -16   20.40    2.35
   6   5  16   23.30    2.22
   6   5  16   22.46    3.00
  -3  11  10   12.53    2.30
  -4  11   8   22.10    2.69
   1  11  -7   20.66    2.51
  -2  13  -1   38.05    2.99
  10   3   6   16.24    2.05
  10   3   6   13.64    1.65
   8   1  -7   48.80    3.13
  -8  -1   7   39.80    3.35
  -8  -1   7   45.53    3.05
  -9   5  -2   18.71    2.90
   9  -5   2   11.08    3.08
  -4   1  14   14.79    2.36
   4  -1 -14   20.58    3.36
   5  -9   8    3.38    2.02
  -5   9  -8    1.47    1.70
  -4  12  -1   29.42    2.85
  -3   1  15    8.57    2.01
 -10   0  -2    8.18    2.54
  10   0   2   11.87    3.10
   6  11  11   -1.18    2.11
   6  11  11   -1.17    2.48
  -9   3  -8    4.11    2.32
  -9   3  -8    4.31    1.65
   9  -3   8    1.98    1.92
   3   0  17   32.37    3.44
   3   0  17   39.46    3.17
  -3   7  14   13.46    2.42
  -3   7  14   15.62    2.69
  -3   7  14   18.40    2.22
   3  -7 -14   15.81    2.37
  -4  11  -5   21.24    2.43
   8   0  13   16.37    2.46
  -7   9  -1    7.27    2.26
  -3   4  15   24.58    2.76
  -3   4  15   22.90    2.28
  -3   4  15   26.08    2.60
   7   8  -4   48.58    3.72
   7   8  -4   46.53    3.86
   7   8  -4   41.84    4.31
  -1  -9  10   10.82    1.99
   1   9 -10    6.41    2.02
   1 -10   9    9.41    1.57
  -1  10  -9    8.86    1.82
   6  10  -3   -0.30    1.68
   6  10  -3    0.87    2.13
   6  10  -3    1.07    2.36
  -6 -10   3   -1.07    2.37
  -2   7  15    0.70    1.53
  -2   7  15   -0.39    1.66
  -2   7  15    0.24    1.28
  -8   3 -11    1.77    2.05
   8  -3  11    2.12    2.43
   8  -3  11    3.33    1.92
  -7   9   1   27.01    3.19
   7  -9  -1   24.86    3.20
   2 -11   7   34.97    2.64
   6  -4 -11   13.15    3.06
  -6   4  11   15.20    2.47
  -6   4  11   13.27    2.33
   3  13  10   11.87    2.37
   3  13  10   16.72    2.87
   9  -5   1   16.14    3.23
  -9   4   2   11.67    2.68
   9  -4  -2   17.44    3.35
   5  11  -3   45.53    3.88
   5  11  -3   43.78    3.33
  -8   7  -4   -3.35    2.43
  -8   7  -4    0.14    1.47
   4  13   1   31.27    3.27
   8   6  13   30.84    3.35
  -6  -1  11   12.88    2.19
   6   1 -11    8.10    2.99
  -9   5  -3    5.07    2.32
  -6  -5   9   53.65    3.24
   6   5  -9   52.99    4.81
   7   5  15   47.05    2.71
   7   5  15   39.38    3.52
   8  -7  -2   22.20    3.19
   4  -6  13   38.70    3.52
   4  -6  13   32.21    2.89
   7  -8  -5   14.57    2.69
  -7   8   5   14.30    2.75
  -7   8   5   15.47    1.84
  -7   4   9    8.10    2.27
  -7   4   9    3.04    1.83
   2  14   5    0.20    1.86
  -6   3 -14   26.26    2.48
   6  -3  14   26.00    2.75
   2  14   4   -1.19    1.85
   4   6  17    2.67    1.57
   2  10  15   38.49    3.35
  -2 -10 -15   34.54    2.59
   2  10  15   30.89    2.74
   2  10  15   32.93    3.35
   0  -2  16   -0.18    1.67
   0  -2  16    2.38    1.87
   0   2 -16   -0.15    1.58
  -8   4 -10    3.99    2.15
   8  -4  10    2.68    2.43
   4  13   9    2.02    1.99
  -1  12  11   -0.22    2.13
  -6  10   4   11.60    2.61
   6 -10  -4    9.94    2.10
   1   0  17    0.55    1.65
   1   0  17    2.32    1.95
  -7   7  -8    1.25    1.90
   7  -7   8    1.02    2.40
   7  -7   8    1.59    1.98
   0  10  -9   -2.11    1.62
   2   2 -15   58.33    3.60
  -2  -2  15   57.58    3.81
  -6  10  -3   -0.21    1.90
  -5  11   5    8.75    1.91
   5 -11  -5    6.56    1.82
  -5  11   5    9.74    2.47
   8   6  -4    4.73    2.48
   8   6  -4    2.19    1.79
   8   6  -4    1.15    2.82
   6  12   3   -0.87    2.21
   6  12   3    5.26    2.04
   6  12   3    3.10    1.86
   2  -3 -16    8.21    1.95
  -2   3  16   11.48    1.93
   0 -14  -4   13.38    2.03
   0  14   4   18.50    2.40
   8   9   1   -1.02    1.95
   8   9   1   -1.64    2.26
   8   9   1   -1.38    2.12
   6   9  14   46.86    3.60
  -3  12   8   17.51    2.60
   1  14   6   -0.18    1.92
   2  13  -2   30.58    3.16
  -9  -5 -11    7.45    1.90
   9   5  11    7.85    1.84
  -9  -5 -11    6.70    1.81
   9   5  11    8.72    1.71
  -4  -7  10   19.96    2.15
   5  10  14    5.93    2.33
   5  10  14   10.64    2.33
   5  10  14    3.38    2.49
  -5  10  -6    2.50    1.62
  -4   4  14    5.83    1.87
  -4   4  14    4.09    1.90
   4  -4 -14    3.95    2.40
  -2  -4  14   14.06    2.22
   2   4 -14   13.26    2.13
  10   2   7    5.58    3.43
 -10  -2  -7    4.09    2.34
  10   2   7    5.59    1.78
   4 -12  -5   13.13    2.04
  -4  12   5   13.99    2.73
   0 -14  -3   13.16    2.12
   0  14   3   12.39    2.14
   3  10  15   22.83    2.79
   3  10  15   22.99    2.23
   8   5  -5   14.09    2.30
   8   5  -5   12.28    2.80
  -4  10  10   13.17    2.52
  -4  10  10   11.76    2.13
  -1  -1  16   63.41    3.73
  -1  -1  16   62.21    3.91
   2  -2 -16    1.13    1.65
  -2   2  16    2.28    1.59
  -2   2  16    3.04    2.01
   3  -9  10   20.76    2.32
   2  11  14   16.97    2.16
  -2 -11 -14   15.89    2.08
  -2 -11 -14   21.47    2.08
   2  11  14   18.19    2.69
   8  -6   7    6.40    2.31
  -8   6  -7    4.62    2.11
   4  -7  12   28.36    2.76
   4  -7  12   30.04    3.35
   6  12   8   22.21    2.90
   6  12   8   19.31    2.74
  -7  -2   9    3.51    1.56
   7  -4  12    5.81    2.01
   7  -4  12    3.34    2.33
   7  -4  12    2.57    1.71
   0   5  17    1.49    1.73
   0   5  17   -1.13    1.97
   9   7   9    5.66    1.88
   9   7   9    4.13    2.10
   9   7   9    7.97    2.63
   9   7   9    7.92    1.79
   9   7   9    6.65    1.39
   3  13  -1    3.07    1.96
   3  13  -1    1.31    2.00
 -10  -1  -1    5.24    2.24
  10   1   1    4.75    3.16
  10   1   1    4.62    1.59
  10   0   6   16.43    2.26
  10   0   6   12.01    3.27
   4  -2  16   10.56    2.60
   4  -2  16   10.69    2.07
  -5 -10   5   78.74    4.92
   5  10  -5   75.81    4.92
   5  10  -5   84.99    4.38
   5  10  -5   74.75    4.87
  -7   9  -2    7.20    2.36
  -7  -4   8   16.14    1.94
   7   4  -8   17.81    3.58
  -4  -8   9   19.62    2.15
   4   8  -9   13.63    2.63
   7  10  11   47.62    3.65
   7  10  11   45.53    3.86
  -5  -9 -15   46.88    3.20
   5   9  15   49.25    3.90
   5   9  15   44.33    2.65
   5   9  15   49.02    3.99
   7  11   8    6.71    2.52
 -10   1  -3   17.22    2.91
  10   4   5    9.18    3.20
  10   4   5   11.17    1.72
  10   4   5   11.14    1.74
   7  11   3   27.81    2.63
   7  11   3   27.50    3.37
   7  11   3   30.62    3.40
   7  11   3   31.57    2.61
   2  14   6   -0.39    1.81
   2  14   6   -2.24    2.27
  -2  13   7   26.64    2.19
  -2  13   7   21.87    2.82
   2  14   3    2.82    1.85
   1  14   2   39.41    3.36
   6  -7  10   -0.57    1.81
   6  -7  10   -1.10    2.19
  -6   7 -10    1.05    1.74
  10   3   2   38.97    4.26
 -10  -3  -2   44.04    3.92
  10   3   2   35.75    2.81
  -3  -7  11    8.61    1.92
   3   7 -11    5.92    1.70
  10  -1   4   10.13    3.44
  10  -1   4   11.72    1.76
 -10   1  -4   18.46    3.13
   0 -14  -5   25.51    2.38
   0  14   5   22.88    2.46
   5  -1  16   17.12    2.47
   5  -1  16   18.47    2.98
   4  -5  14   27.86    2.70
   4  -5  14   18.47    2.87
   0   1  17   86.92    4.64
   9  -5   0   28.43    3.83
   8  -2  12   12.84    2.64
   8  -2  12   15.34    2.48
   0  -4  15   39.84    3.23
   0  -4  15   37.82    3.14
  10   4   4   25.79    2.44
  10   4   4   29.19    2.30
  10   4   4   18.02    3.52
   3   8 -10    7.42    1.81
  -3  -8  10    8.80    1.85
   6  11  -1   -1.09    2.09
   6  11  -1    3.13    1.99
  -9   2   4   21.21    3.14
   9  -2  -4   21.30    3.45
   9  -2  -4   22.15    2.44
   6   1  16   -0.40    1.93
   6   1  16    0.15    1.57
   6   1  16    1.38    1.77
  -7   8  -6    7.37    2.33
   7  -5  11    1.18    1.72
   7  -5  11   -2.63    2.57
   7  -5  11   -1.58    1.86
  -7   5 -11    0.39    1.70
   7  -9  -2   25.63    3.16
  -7   9   2   26.96    3.32
  -5   6  12   16.14    2.53
  -5   6  12   11.64    2.21
   5  -6 -12   14.78    2.73
  10   3   7    3.25    2.95
  10   3   7    2.89    1.56
   7   1  15   22.50    2.55
   7   1  15   21.45    2.14
  -7  -1 -15   23.88    2.43
   5   3  17   42.61    3.73
   5   3  17   41.71    3.08
  10   1   7   29.95    2.86
   2   7  17   10.72    2.17
   2   7  17   11.03    2.44
   2   7  17   14.46    2.47
   9   2  -4    1.03    1.53
  -9  -2   4    1.06    1.83
  -8   3   7   39.05    3.71
  -9   5  -4   12.59    2.58
   5   4  17   36.44    3.51
   5   4  17   37.75    2.77
  10   0   1    3.48    2.81
 -10   0  -1    0.26    2.19
  -2   4  16   17.48    2.18
   2  -4 -16   17.95    2.26
  -5  11  -3   10.41    2.34
   6  10  13   20.49    3.01
   6  10  13   13.33    2.75
   3  11  14   36.12    3.12
   3  11  14   35.20    3.34
  -3 -11 -14   39.20    2.82
   3  11  14   40.02    2.79
   0  12  12   35.38    3.50
   3   7  17   48.14    3.69
   3   7  17   50.79    3.92
   3   7  17   48.93    3.28
  10   2   1   29.10    3.87
 -10  -2  -1   28.18    3.35
  10   2   1   20.33    2.39
   5  13   5   -1.12    2.20
   5  13   5   -0.43    2.03
   5  13   5    0.19    2.06
   4  12  12   41.57    3.80
   4  12  12   42.45    3.30
  10   4   6   10.21    3.52
  10   4   6   16.99    1.99
  10   4   6   16.58    1.89
  -5   2  13    0.38    1.81
  -5   2  13    0.98    1.60
   5  -2 -13   -0.28    2.47
  -9   0 -11   25.87    2.58
   9   0  11   24.23    2.79
  -2  10  -9   37.34    2.65
   2 -10   9   41.16    2.80
 -10   1  -2   21.43    2.99
  -3  13   2   20.27    2.73
   5  13   6    2.54    2.35
   5  13   6    1.72    2.10
   8   9  10   44.06    3.27
   8   9  10   41.81    3.68
   8   9  10   44.81    3.61
   2 -12 -10   12.73    2.08
  -4   0  14   19.23    2.54
   4   0 -14   17.84    3.14
   0  14   2    4.61    1.80
   0 -14  -2    7.10    1.87
  -3  13   3   11.88    2.44
   3 -13  -3   11.06    1.95
   0   8  16   31.84    2.75
   0   8  16   30.87    2.96
   0   8  16   30.33    3.08
   8   7  -3   -0.83    3.01
   8   7  -3    0.95    1.98
   9   5  -2    3.94    1.87
   9   5  -2    5.86    2.42
   9   5  -2    5.26    1.95
   2 -12   5   32.41    2.53
  -2  12  -5   31.29    2.83
   1   5 -14   19.34    2.28
  -1  -5  14   18.72    2.36
  -6   9   7    2.71    2.12
  -6   9   7    1.61    1.38
  -4  -6  11   86.53    4.37
   9   7   1   64.31    4.21
   9   7   1   59.17    4.24
   0  13  10    3.83    1.55
   0  13  10    3.68    2.15
  -3  12  -4   33.41    2.75
  -3  12  -4   29.95    2.62
  -5  10   8   10.82    1.94
  -5  10   8   16.03    2.84
  10  -1   5   25.77    3.83
  10  -1   5   25.25    2.42
   7  -3  13    6.39    1.94
   7  -3  13   11.23    2.62
   0  13  -3    1.35    1.93
   6   8  15   20.19    2.95
  -3   0  15   -0.74    1.77
   9   8   5   36.79    2.87
   9   8   5   48.81    3.82
   9   8   5   39.54    3.34
  -7   6   8   61.47    4.46
   1  10  15   24.01    2.98
   1  10  15   24.98    2.76
   1  10  15   21.87    2.50
  -4   7  13   17.16    2.05
   4  -7 -13   14.01    2.46
  -4   7  13   12.31    2.62
   4  -7 -13   12.82    1.90
   1 -13  -9   18.91    2.42
  -1  13   9   14.16    1.97
  -1  13   9   14.74    2.82
   5  -3  15   23.23    2.61
   5  -3  15   26.42    3.21
   9   8   6   36.33    2.97
   9   8   6   39.39    3.47
   9   8   6   28.18    3.06
  10   4   3   26.54    2.54
  10   4   3   28.24    2.33
  10   4   3   25.40    3.90
  -2  10  13   62.34    4.11
  -2  10  13   61.43    4.12
   2   9  16   12.05    2.07
   2   9  16   11.34    2.30
   2   9  16   12.62    2.53
   6   6  16    3.95    1.41
   6   6  16    4.27    2.37
  -6  -6 -16    2.50    1.74
   5  -1 -13    5.41    2.75
  -5   1  13    4.99    1.94
  -5   1  13    6.42    1.69
   6   9  -5    4.60    2.69
   5  13   4   -0.76    1.96
   5  13   4   -0.22    2.04
   5  13   4   -0.88    1.89
   8   2  -7   69.43    3.65
  -8  -2   7   70.15    4.21
  -8  -2   7   76.80    3.95
  -3   5  15   10.07    1.79
   3  -5 -15   11.02    2.35
  -2   1  16    0.19    1.77
   2  -1 -16    0.64    1.65
   5  -8  10    0.72    1.72
  -5   8 -10    0.44    1.52
  -9   4  -7   -1.15    1.92
   9  -4   7   -0.35    1.95
  -9   4  -7   -0.74    2.14
   8  -5   9    2.44    2.49
  -8   5  -9    0.45    2.14
  -7   7   7    2.74    2.39
   5  -3 -13   -1.91    2.53
  -5   3  13    1.54    1.82
  -5   3  13   -2.12    1.79
  -4  12  -2   11.89    2.13
   3  12  -4    4.86    2.09
  -9  -4   3   29.12    2.91
   9   4  -3   26.95    2.58
   9   4  -3   22.76    2.91
   9   4  -3   24.06    2.58
  -8  -3 -14   11.56    1.96
   8   3  14    8.57    1.64
   8   3  14   15.23    2.22
   8   3  14   11.21    2.55
   1  11  14    3.76    2.25
   1  11  14    5.52    1.73
  -3  13   1   20.68    2.68
  -3 -11   6    3.21    1.29
  -3 -11   6   -0.83    2.23
   3  11  -6    2.37    2.12
   3   9  16    0.22    2.08
   3   9  16    0.81    2.01
   3   9  16    1.75    1.53
   5   2  17   23.64    3.03
   5   2  17   19.45    2.39
   0  14   6   17.09    2.26
   0 -14  -6   21.26    2.28
   1  14   7    2.16    1.88
   4   3 -13    4.31    2.02
  -4  -3  13    2.86    1.84
  -3  -6  12   23.74    2.51
   3   6 -12   23.26    2.41
   8  10   6   -0.20    2.19
   8  10   6    1.51    1.56
  -8  -4   6   15.05    1.76
  -8  -4   6   13.80    2.09
   2  14   7    4.25    2.05
   2  14   7    7.07    2.48
   3 -13  -4    5.87    1.95
  -3  13   4    6.05    2.46
   2  -3  16    0.84    1.98
   8  10   5    3.49    1.64
   8  10   5    4.19    2.38
   2  14   2   25.32    2.98
   5  13   7    4.53    2.27
  -1   7  16   27.26    2.84
  -1   7  16   25.59    2.83
   5   5  17   24.89    3.04
   5   5  17   19.88    2.93
   5   5  17   19.18    2.16
  -5  -7   9   11.61    1.84
   5  12  -1   39.17    3.63
   4   9  -8    9.57    2.39
  -4  -9   8   13.01    1.84
  -2   9  14   39.23    2.81
  -2   9  14   38.74    3.30
  -2   9  14   39.88    3.28
   5  11  13   13.65    2.77
   8   4  14    1.06    1.64
   8   4  14    0.18    2.09
   8   4  14    0.21    1.14
   9   8   4   65.44    4.21
   9   8   4   69.00    3.81
   9   8   4   76.04    4.40
  -7   9  -3    0.23    2.08
   6  12   2    3.98    2.27
   6  12   2    7.98    2.67
   6  12   2    8.58    2.04
   3   9  -9   13.67    2.68
  -3  -9   9   13.73    1.88
   3   9  -9   17.93    2.24
   1  13  -3    7.02    2.13
  -8   7  -5    0.74    1.63
  -8   7  -5    0.48    2.14
   4   0  17    7.14    1.88
   4   0  17    6.99    2.39
   7   6  15   37.62    3.62
  -1  10  14   42.14    3.51
  -1  10  14   40.09    3.30
  -1  10  14   33.44    2.85
  -8   5   6    2.03    2.13
   8  -5  -6    7.68    2.88
   9   6  -1   26.08    3.19
   9   6  -1   28.89    2.83
   9   6  -1   31.24    2.86
   9   8   7   23.02    2.14
   9   8   7   17.37    2.62
   9   8   7   26.99    2.86
   9   8   7   26.00    3.01
   8  -7  -3   23.15    3.52
   4  -8  11    8.65    2.06
  10   4   7   -0.79    3.21
  10   4   7    1.35    1.40
  10   4   7    2.12    1.44
  -2  13  -2   24.43    2.36
  -2  13  -2   23.70    2.54
  -9   5   1   31.23    3.42
   9  -5  -1   24.83    3.54
  -8  -2 -14   31.17    2.65
   8   2  14   28.55    2.30
   8   2  14   36.70    3.04
 -10   1  -1    3.41    2.40
   1  14   1   73.28    4.56
  10   0   7   24.53    2.65
   7  -6  10    2.59    1.83
  -7   6 -10    0.20    1.81
   7  -6  10    4.57    2.47
   5   8  -8   18.74    2.95
  -5  -8   8   17.75    1.86
  -3  -3  14   58.90    3.79
   3  14   5    7.93    2.33
   3  14   5    6.94    2.45
   8  10   7   13.91    2.59
   8  10   7   17.87    2.27
   1  -7  13   -1.24    1.67
  -1   7 -13    1.35    1.61
   7  10  -1   38.55    3.65
   7  10  -1   40.72    3.83
   7  10  -1   39.54    3.60
   2  12  -5   30.78    3.13
   2  12  -5   24.84    2.96
   6  12   9    7.49    2.27
   6  12   9   10.25    2.72
   1  10  -9   15.04    2.35
   4  11  -5   29.61    3.29
  -4 -11   5   29.58    3.13
   4  11  -5   31.83    3.33
   7  11   9   -2.03    2.17
   2  13  11   45.65    3.49
   9   3  12    3.64    1.76
  -9  -3 -12    3.25    1.77
  -7   9   3   36.91    3.71
   7  -9  -3   30.82    3.35
  10   2   8   15.65    2.28
   2  -1  17   38.64    3.56
   2  -1  17   35.38    3.12
 -10  -3  -1   37.23    3.68
  10   3   1   28.55    4.20
  10   3   1   32.95    2.86
   7  11   2   20.58    2.68
   7  11   2   18.94    2.97
   7  11   2   23.04    2.41
   7  11   2   27.13    3.24
  -4   5  14    2.20    1.86
  -4   5  14    0.76    1.69
  -4   5  14    0.26    1.35
   4  -5 -14    1.42    2.19
   7   9  -3   32.09    3.79
   7   9  -3   30.00    3.25
   7   9  -3   26.20    3.25
  -9   5  -5    1.26    2.01
   1   7  17    5.70    1.90
   1   7  17    5.01    2.15
   1   7  17    5.60    1.82
   8  10   4    1.40    2.22
   8  10   4   -0.86    1.58
   8  10   4    2.82    2.35
   3  14   4    1.69    2.00
   1  -3  16   37.40    3.24
   1  -3  16   31.86    2.93
   4  10  15    0.22    2.23
   4  10  15   -0.12    1.43
  -4 -10 -15   -0.45    1.69
   4  10  15    1.06    2.19
   6 -10  -5    6.56    2.02
  -6  10   5    9.42    2.47
  -2   5  16   19.09    2.54
  -2   5  16   21.88    2.35
   8  -6  -5    0.76    2.63
  -8   6   5   -2.08    2.29
   0  14   1    0.73    1.64
   0 -14  -1   -0.87    1.57
   6  -5 -11   -2.19    2.51
  -6   5  11    0.44    2.14
  -6   5  11    0.40    1.79
   6   4 -10   28.76    4.06
  -6  -4  10   29.10    2.51
   2  -7  13   27.22    2.58
 -10  -1   0   17.79    2.85
  10   1   0   12.57    2.08
  10   1   0   12.10    3.38
   4  -4  15    5.06    2.30
   4  -4  15    7.04    1.92
   5   8  16   25.44    3.10
   5   8  16   21.61    2.00
   5   8  16   20.39    2.89
   4  13   0   19.46    2.82
   5  13   3    7.78    2.60
   5  13   3    7.44    2.35
  -6  10  -4    2.73    1.91
  -4  12   6    1.18    2.00
   4 -12  -6    2.93    1.73
  10  -1   6   15.72    2.21
  10   3   8    3.00    2.91
  10   3   8    3.73    1.71
  -1   8 -12    0.50    1.54
  -3   9  13   22.86    2.11
   3  -9 -13   23.30    2.45
  -3   9  13   24.37    2.79
  -3   9  13   22.91    2.52
  -6  -2  11   20.17    2.39
   6   2 -11   16.63    3.50
   3  14   6    9.24    2.73
   3  14   6   11.67    2.45
  -5  -6  10    2.82    1.48
   5   6 -10    4.48    3.18
   2  12  13    4.57    2.23
   2  12  13    3.25    1.92
   0   6  17   13.28    2.50
   0   6  17   15.22    2.23
   9  -4  -3   -0.28    2.60
  -9   4   3   -2.11    2.35
   9   2  12   33.81    3.12
   7   9  13   46.46    3.51
   7   9  13   32.68    3.31
   7   9  13   39.13    3.67
  -1  11  13   26.30    2.84
  -1  11  13   28.36    3.16
  -3  10  12    2.04    1.79
   8   8  12    2.75    1.95
   8   8  12    2.68    2.27
   8   8  12    1.76    1.73
   8   8  12    2.40    2.36
  -8  -8 -12    1.54    1.83
  10   4   2   18.27    2.46
  10   4   2   24.05    3.55
 -10  -4  -2   19.98    3.04
  10   4   2   19.88    2.16
   4  12  -3   16.27    2.76
   4  12  -3   12.27    2.50
  -2  11  12    6.33    2.26
   2 -11 -12    3.44    1.76
   8  -1  13    8.13    2.10
   8  -1  13   10.60    2.88
  10   0   0    3.61    1.67
 -10   0   0   -0.26    2.07
   5   0 -13   30.48    3.75
  -5   0  13   29.19    2.84
  -6   2 -15   31.34    2.59
  -2  -8  11   12.29    2.02
   2   8 -11    9.79    2.52
  -5  11   6   -0.38    1.71
  -5  11   6   -0.24    1.88
  -3  13   0   19.18    2.53
   4  13  10    0.40    2.07
   4  13  10    1.54    2.25
   4   7  17    2.41    2.07
   4   7  17    3.97    1.57
   3  -3  16    6.58    1.89
   3  -3  16    6.24    2.28
   9   6  11   44.42    3.05
   9   6  11   47.68    2.84
   9   6  11   44.97    3.20
  -2  -7  12    3.26    1.64
  -1  14   3    3.37    1.55
   2  11  -7   36.46    3.45
   7   8  14    2.88    2.09
   7   8  14    1.19    2.32
   7   8  14    0.84    2.06
  -1  14   4    4.70    1.57
  -5   4  13    2.86    1.86
   5  -4 -13    4.44    1.51
   5  -4 -13    3.98    2.54
  -5   4  13    3.17    1.95
   9   4  12    4.46    1.97
  -9  -4 -12    4.10    1.76
   9   4  12    3.68    1.64
   9  -3  -4    0.82    2.66
  -9   3   4    3.87    2.23
   1   9  16   26.83    3.03
   1   9  16   31.86    2.92
   0   0  17   21.85    2.60
  10   1   8   14.15    2.37
   9  -2  10   -1.42    2.21
   9  -2  10    4.11    2.14
  -9   2 -10    0.82    1.72
  -9   2 -10    1.71    2.23
  -5  -3  12   16.85    2.25
   5   3 -12   21.30    2.41
   1  13  11   47.33    4.05
   1  13  11   52.45    3.62
  -3  13   5    6.49    2.33
   3 -13  -5    3.76    1.78
   3  -1  17    6.51    2.47
   3  -1  17    5.29    1.91
   4 -10   8    2.69    1.70
   2  -6  14   28.12    3.03
   2  -6  14   24.49    2.70
  -7   5   9   13.69    2.68
 -10   2  -3   25.78    3.21
  10  -2   3   18.71    2.27
   9   7  10   10.12    2.55
   9   7  10   12.50    1.60
   9   7  10   11.22    2.77
   9   7  10   12.80    2.24
   9   7  10   12.27    1.97
   9   8   3   78.51    4.62
   9   8   3   68.01    4.37
   1  -6  14    2.53    1.78
   5  13   8    3.62    2.19
   5  13   8    2.06    2.27
   8   7  13   21.80    2.71
   8   7  13   19.70    2.80
   8   7  13   24.98    3.14
   9   3  -4    6.66    2.26
  -9  -3   4    4.59    1.89
   9   3  -4   10.12    1.93
  -1   9  15    6.33    1.74
  -1   9  15    3.82    1.99
  -1   9  15    5.16    2.24
   8   9   0   -1.45    2.64
   8   9   0   -1.50    2.30
   8   9   0   -1.01    2.08
  10   5   5   34.95    2.64
  10   5   5   26.92    3.81
  10   5   5   29.07    2.29
   2  -8  12   23.14    2.32
   8   5  14   30.06    3.14
   8   5  14   32.64    2.62
   4  11  14   31.00    2.97
   4  11  14   34.49    3.41
   4  11  14   25.99    3.27
  10   2   0   36.75    4.20
  10   2   0   25.29    2.58
 -10  -2   0   29.09    3.35
  -7   1  10   11.82    2.16
  -7   1  10   15.19    2.30
   7  -1 -10   17.27    3.61
  -9   3  -9   -0.16    1.57
   9  -3   9    0.80    1.82
   9  -3   9   -0.58    2.06
  -9   3  -9    0.97    2.22
   7   0  15    3.60    1.59
   7   0  15    6.63    1.93
  -7   0 -15    5.10    1.72
   6   0  16    9.30    1.98
   6   0  16   13.87    2.39
   6   0  16   10.63    2.09
   8   8  -2    7.30    2.40
   8   8  -2   10.99    2.75
   8   8  -2   10.88    3.47
   3  14   3    1.07    2.00
   0  14   7   16.73    2.91
   0 -14  -7   14.03    2.08
   0  14   7   15.36    2.11
   9   8   8   12.76    2.44
   9   8   8    9.89    2.63
   9   8   8    8.95    2.35
   9   8   8   10.10    1.90
   3  12  13    7.28    2.05
  10  -2   4   11.58    2.02
  -6   9  -7   -0.78    1.85
  -4  -5  12   57.41    3.56
   3  13  11    2.69    1.92
   3  13  11    0.23    2.25
   3 -11   7   16.87    2.19
   7  -2  14   20.33    2.61
   7  -2  14   24.52    3.29
   1  -1  17   40.27    3.43
  -8   4   7   44.57    4.00
   8  10   8    9.52    2.48
   8  10   8    7.66    2.38
   8  10   8    7.99    1.88
  -1  14   2   -0.32    1.50
  10   5   4   30.79    2.57
  10   5   4   29.81    2.77
  10   5   4   23.15    3.69
   5   1  17   -0.17    1.81
  -2  13   8   43.15    2.75
  -2  13   8   31.81    3.44
  10   5   6   42.14    2.66
  10   5   6   38.81    2.78
  10   5   6   41.07    4.28
 -10   2  -2   45.13    4.06
  10  -2   2   30.14    2.63
  10  -2   2   31.50    3.95
   6  11  12    1.49    2.26
   6  11  12    3.74    2.17
   6  11  12    6.52    2.46
   7  -2 -10    3.11    2.93
  -7   2  10    5.73    2.14
  -7   2  10    6.27    2.08
  -5   8  11    6.31    2.39
  -5   8  11    6.03    1.57
   5  -8 -11    3.94    2.04
   7  -8  -6    2.23    2.12
  -7   8   6    6.15    2.57
  -2   0  16   14.34    2.33
   2   0 -16   14.48    2.26
   0  12  -6    6.01    1.75
   0  12  -6    1.63    1.85
  -1   3  17    2.72    1.88
  -1  14   5    9.88    1.90
   4   1 -14   10.91    3.10
  -4  -1  14    4.55    1.87
   2  14   8   24.15    2.80
   2  14   1   20.23    2.91
   4   9  16   15.58    2.70
   4   9  16   17.54    2.06
   3  14   7   23.02    3.16
   3  14   7   20.35    2.76
  -9   0   5   19.61    2.80
   9   0  -5   17.25    2.12
   8   1  14   45.74    3.41
   7   3  -9    6.56    3.45
  -7  -3   9    2.52    1.56
   5   6  17   23.64    3.03
   5   6  17   18.85    2.13
   1  14   8    0.72    1.78
  -5  11  -4    0.19    1.84
   6  -8   9    0.39    1.67
  -6   8  -9    0.37    1.71
  -4  11   9   30.55    2.98
   1  12  13   10.51    2.63
   8  10   3    3.90    2.28
   8  10   3    1.34    2.26
   8  10   3    4.09    2.39
   0  -7  13   40.05    3.11
  -5   9  10   51.36    4.13
   5   9  -7   33.62    3.55
  -5  -9   7   38.04    2.51
  10   4   8    0.14    1.48
  10   4   8    0.34    1.43
  10   4   8   -1.85    2.87
   0  -8  12    3.77    1.92
   0   8 -12    4.65    1.80
  -4  11  -6    0.95    1.76
   4 -11   6   -1.17    1.63
   9   1  12   24.80    2.79
   2   9 -10   41.48    3.71
  -2  -9  10   41.14    2.98
   9  -1  11    8.94    2.72
   9  -1  11    3.86    2.01
  -9   1   5   34.11    3.62
   9  -1  -5   33.24    2.71
 -10   1   0   -0.53    2.13
   7   0 -10   11.71    3.50
  -7   0  10   15.32    2.28
  -7   0  10   13.57    2.23
  -1  12  -6   17.72    2.47
  -6   8   9   38.97    3.76
  -7   9  -4    2.28    2.17
   2   3  18    3.87    2.09
   2   3  18    3.08    1.70
  -1   2  17   24.53    2.48
  -3  -5  13   38.37    3.10
   3   5 -13   35.15    2.92
  -1   4  17   -0.98    1.72
  -1   4  17    1.59    1.78
  -3  12   9   38.96    3.57
   9   7   0   51.27    3.73
   9   7   0   46.24    3.87
   9   7   0   45.22    3.45
  -3  -1  15    4.43    1.90
   1 -11   8   13.73    1.82
  -1  11  -8    8.82    1.84
   2   4  18   21.73    2.56
   7   7  -6   20.23    3.76
   7   7  -6   23.92    3.30
  -6   7  10    4.52    2.37
  -2  -6  13   -0.68    1.70
   3 -10   9   11.37    1.95
  -4  12  -3   21.65    2.54
   3  13  -2   12.78    2.70
   3  13  -2    8.18    2.39
   7   6  -7   21.65    3.13
   7   6  -7   27.53    3.97
   1  -9  11   11.28    1.91
  -1   9 -11    7.55    1.79
  -8   6  -8    6.71    2.32
   8  -6   8    5.61    2.47
  10  -2   5   12.62    2.15
 -10   2  -5    8.21    2.71
  10  -2   5   13.26    2.14
   3   3  18   12.94    2.57
   3   3  18   15.88    2.37
   0  11  -8    6.03    1.92
   9  -5  -2   22.01    3.50
  -9   5   2   18.51    2.99
   3   4  18    1.55    1.79
   8   9  11   36.56    3.43
   8   9  11   35.46    3.19
   8   9  11   31.56    2.93
  -3   6  15    1.33    2.32
  -3   6  15    1.74    1.50
  -2   8  15    6.20    2.08
  -2   8  15    4.59    1.88
  -2   8  15    7.95    1.60
  -1  -2  16   21.82    2.63
  -1  -2  16   17.65    2.18
   5  13   2    6.80    2.12
   5  13   2    8.14    2.51
  -9  -1   5    1.55    1.92
   7  10  12   35.80    3.51
   7  10  12   30.27    3.24
   7  10  12   28.89    3.02
   6   7  16    6.22    1.61
   6   7  16    5.26    2.45
   6  12   1    1.58    2.21
   6  12   1    1.60    1.73
  10   5   3   18.00    3.58
  10   5   3   11.95    2.18
  10   5   3   12.32    2.06
   2  13  -3   29.80    3.26
   2  13  -3   33.87    3.35
  -3   8  14   42.14    3.14
   3  -8 -14   33.69    2.87
  -3   8  14   39.77    3.44
   8   3  -7   21.83    3.91
  -8  -3   7   25.39    2.57
  -8  -3   7   25.84    2.32
  10   5   7   38.40    2.61
  10   5   7   30.74    2.54
  10   5   7   36.43    4.18
   1  14   0   39.96    3.38
   3  10  -8   11.77    2.67
  -3 -10   8    6.02    1.54
 -10   2  -1    6.44    2.67
  10  -2   1    7.19    1.91
  10  -2   1   12.37    3.50
  -7   8  -7    5.38    2.09
   9   5  12    5.15    1.95
   9   5  12    4.21    1.53
  -9  -5 -12    5.63    1.97
  10  -1   7   13.43    2.25
 -10   1  -7   12.49    2.64
   0  14   0    1.70    1.79
   0  14   0   -0.15    1.50
   0  10  15   -0.88    1.65
   0  10  15    3.26    2.17
   0  10  15    4.49    2.16
  -8   1   8    0.65    1.86
  -8   1   8   -0.87    1.84
   3  -7  13   23.00    2.55
  -4 -10   7    5.22    1.47
   4  10  -7    4.14    2.35
   4  10  -7    2.07    1.83
   7  -9  -4   19.35    2.79
  -7   9   4   18.02    3.14
 -10   0  -8   10.96    2.78
  10   0   8    9.42    2.23
  10   0   8   13.11    2.34
  -3  13  -1   23.63    2.66
   1   4 -15    6.64    1.86
  -1  -4  15    8.21    1.99
  -1  -4  15    8.77    1.99
  -7   3  10    2.39    2.12
  -7   3  10    2.49    1.87
  -1  14   1    0.51    1.59
  -9   5  -6    0.32    1.61
  -9   5  -6   -0.25    2.25
   9  -5   6    2.40    1.97
   0  11  14    3.75    2.11
   0  11  14    2.86    2.22
   5   5 -11    2.03    2.98
  -5  -5  11    2.29    1.63
  -8   7  -6    6.62    2.53
  10   4   1   18.32    2.58
 -10  -4  -1   18.79    2.87
  10   4   1   27.78    3.79
  -3  11  11    1.38    1.91
  -8   8  -1    0.51    2.08
   8  -8   1    1.38    2.58
   6  11  -2    2.48    2.28
   6  11  -2    3.50    1.99
   6  11  -2    5.39    2.33
   2   8  17   -0.17    1.78
   2   8  17    0.76    1.90
   2   8  17    1.98    2.23
   9  -4   8    1.88    2.19
  -9   4  -8    2.72    2.17
  -2  -3  15   45.62    3.38
   2   3 -15   39.68    3.04
   3  14   2    1.97    2.15
   7  11  10    3.53    2.11
   7  11  10    0.20    2.24
   6  12  10   12.67    2.57
   6  12  10   11.64    2.60
   3  -6  14   27.50    2.68
   3  -6  14   19.15    2.97
 -10  -3   0   50.40    4.15
  10   3   0   42.13    4.36
  10   3   0   41.01    3.31
   5 -10   7    2.18    1.94
  -5  10  -7    2.43    1.82
   3   8  17   12.03    2.00
   3   8  17   11.01    2.33
   3   8  17   13.17    2.67
   2  -5  15    0.44    2.09
   2  -5  15    2.04    1.77
   2   2  18    7.08    2.47
   2   2  18    6.61    1.99
   8  -7  -4   13.69    3.09
  -8   7   4    7.18    2.63
  -8   0   8    7.29    1.81
  -8   0   8    8.20    2.18
   6  10  -4    7.09    2.68
   6  10  -4   12.39    2.67
   7  11   1   40.81    3.68
   7  11   1   37.65    3.31
   7  11   1   39.88    3.76
   7  11   1   36.81    2.81
  -1  14   6   22.34    2.32
   8  -8   0    6.25    2.83
  -8   8   0    3.10    2.26
   5  11  -4   53.33    4.16
   7  -7   9   11.88    2.80
   7  -7   9    4.06    2.04
  -7   7  -9    5.39    2.06
   9   8   2   60.31    3.45
   9   8   2   68.05    4.30
   9   8   2   59.22    4.32
   0  -6  14   19.73    2.53
   1  12  -6   13.32    2.36
   1  12  -6   18.42    2.68
  -3  13   6   -0.23    2.13
   0  -3  16   29.88    2.81
   0  -3  16   22.12    2.64
   4  -9  10    4.45    2.00
   5  -2  16   29.39    2.80
   5  -2  16   29.77    2.80
   5  -2  16   23.92    3.19
   7   7  15    5.41    2.32
   7   7  15   16.43    2.89
  10   2   9   60.39    3.75
   6  -5  13   -0.57    1.84
   6  -5  13   -1.65    2.42
   2  -9  11   11.44    1.93
   5   1 -13   14.78    3.33
  -5  -1  13   16.36    2.44
  -2   6  16   34.05    2.83
  -2   6  16   31.79    3.33
  -2   6  16   29.26    3.01
   5  13   9   14.57    2.66
   5  13   9   14.43    2.49
   5  -7 -12    1.88    2.06
  -5   7  12    0.21    1.74
  -5   7  12   -0.45    2.10
   3   2  18   32.18    2.98
   3   2  18   33.46    3.31
  -6   2  12    4.60    1.82
   6  -2 -12    4.79    3.03
  -6   2  12    4.79    1.94
  10   3   9   13.12    2.06
   5  -9   9    4.95    2.18
   0   9 -11   -0.56    1.73
  -9   2   5   21.93    3.23
   2   5  18   30.77    2.85
   2   5  18   27.96    3.14
  -8   2   8    8.02    2.51
  -8   2   8    4.16    1.84
   1  -5  15   -0.19    1.62
   1  -5  15    1.05    2.11
   3   5  18   16.52    2.38
  -8   8  -2   -0.50    2.22
   8  10   9    7.56    2.48
   8  10   9    6.45    2.22
   8  10   9   10.55    2.09
   9   8   9    5.32    2.36
   9   8   9    4.56    1.87
   9   8   9    2.17    2.18
   9   8   9    1.90    2.17
 -10  -1   1   34.17    3.67
  10   1  -1   32.01    4.13
  10   1  -1   33.42    2.75
   3  14   8   26.45    3.02
   3  14   8   21.61    3.16
   7   8  -5   31.26    3.22
   7   8  -5   27.19    3.79
   7   8  -5   29.43    3.52
  -1  13  10    6.70    2.39
  -1  13  10    8.15    1.75
   5  -5 -13    1.03    2.41
  -5   5  13    1.43    1.90
  -5   5  13   -0.21    1.82
  -4   9  12    0.70    2.10
  -4   9  12   -1.25    1.92
   6  -1 -12    0.61    2.60
  -6   1  12    1.35    1.59
  -6   1  12   -0.19    1.92
  10   0  -1    9.88    2.00
 -10   0   1   11.89    2.70
   6  -6  12    0.97    1.82
   6  -6  12   -1.17    2.33
  -1  12  12   -0.22    2.11
   8  -4  11    2.19    2.23
  -8   4 -11    1.79    2.13
  -2  13  -3   14.78    2.14
   2 -13   3   16.47    1.98
  -2  13  -3   15.80    2.07
  -3  12  -5   23.01    2.30
   3 -12   5   25.67    2.52
   8   6  14    6.99    2.40
  -6  -7   8    2.08    1.38
   6   7  -8    4.73    3.19
  -1   1  17   11.94    1.97
   5  -6  13    8.77    2.20
   5  12  12   38.94    3.61
  -4   6  14    0.42    1.39
  -4   6  14    5.51    2.02
   4  -6 -14    4.11    2.13
  -1   5  17   17.36    2.47
  -1   5  17   14.62    2.36
   7   5  -8   44.30    4.58
  -7  -5   8   38.75    2.68
   3  -8  12   21.88    2.45
  -4  12   7    1.22    2.04
   8  -3  12    1.00    1.88
   8  -3  12   -0.90    2.44
   4  -1  17   -0.18    1.88
   4  -1  17    8.54    2.65
   0  13  11    4.93    1.90
   0  13  11    6.80    2.48
  -9   6  -2    3.71    2.47
   9  -6   2    2.69    2.78
  -6  10   6    5.83    1.83
   6 -10  -6    5.69    1.91
   9   5  -3   35.51    3.06
   9   5  -3   33.23    3.40
   7   1 -10   11.81    3.27
  -7  -1  10   13.11    2.14
   1   3  18   45.90    3.47
   1   3  18   47.44    3.69
   0  14   8    2.34    1.65
   0  14   8    3.59    2.37
   0  13  -4   -0.60    1.87
   9  -6   1   19.76    3.51
  -9   6  -1   16.58    2.99
  -6   9   8    0.76    2.29
  -6   9   8   -0.73    1.42
  -8   8   1    9.15    2.62
   8  -8  -1    8.03    2.99
   8  10   2    2.08    2.38
   8  10   2    5.14    2.25
   8   6  -5    2.40    3.16
  -6  10  -5   11.44    2.31
 -10   2  -6   21.12    3.05
  10  -2   6   14.53    2.30
   4  -3  16   21.91    2.56
   4  -3  16   20.80    2.58
   4  -3  16   16.90    2.89
   2 -11   8   36.09    2.64
   1   4  18   35.82    3.18
   1   4  18   38.62    3.48
   4  12  13   37.38    3.30
   4  12  13   33.04    3.62
   5  -5  14   -0.24    2.31
   5  -5  14    3.10    1.95
  10   1   9   49.06    3.68
   0   7  17   36.21    3.14
   0   7  17   31.88    3.19
  -6   3  12    7.91    2.21
  -6   3  12    7.66    2.13
   6  -3 -12    7.94    3.02
  10   5   2    8.67    2.11
  10   5   2    5.10    1.81
  10   5   2    7.18    2.98
   6  -4  14    7.81    2.06
  -9  -2   5    1.47    1.94
   9   2  -5    3.45    1.66
   6   8  -7    4.28    2.98
   5  12  -2   31.57    3.43
  10   5   8   23.16    2.16
  10   5   8   19.71    3.49
  10   5   8   22.26    2.16
   4  13  -1   14.46    2.64
   4  13  -1   15.97    2.75
   7   3  16    0.67    1.82
   7   3  16   -1.22    1.44
   7   3  16   -0.20    2.09
   9   6  -2   12.45    2.78
   9   6  -2   10.32    2.21
  -5  10   9   11.72    2.65
  -5  10   9   11.38    1.99
  -2  12  11    5.43    2.40
   7   4  16   21.96    2.89
   7   4  16   19.06    2.08
 -10   2   0   17.80    3.09
  10  -2   0    6.33    3.15
  -4  10  11   26.85    2.67
  -4  10  11   31.16    3.33
  -6  -6   9   13.77    1.90
   6   6  -9   17.64    3.57
  -8  -1   8   26.94    2.51
  -8  -1   8   19.95    2.49
   2  14   9   23.40    3.27
   2  14   9   27.61    2.91
  -9   6  -3    2.10    2.18
   9   0  12    4.69    2.61
   9   0  12   11.67    2.26
 -10  -2   1   34.35    3.58
  10   2  -1   34.61    3.03
  10   2  -1   38.07    4.31
  -5  11   7    3.75    2.36
  -5  11   7    1.31    1.59
   2  14   0   22.89    2.90
   8   0  14   16.55    2.36
   1  11  -8    5.32    2.09
  -2  12  -6   34.86    2.98
   2 -12   6   36.63    2.68
  -1   8  16    7.41    1.69
  -1   8  16    8.99    2.08
  -1   8  16   10.07    2.32
   4   4  18   21.32    2.36
  10   4   9    7.53    1.76
  10   4   9    7.47    1.64
  10   4   9    8.54    3.33
   5   0  17   13.50    2.26
  -9   4   4    2.14    2.37
   9  -4  -4    1.67    2.74
   5  -7  12    2.02    1.78
   6  10  14   33.58    3.53
   6  10  14   37.11    3.30
   6  -6 -11    3.22    2.42
  -6   6  11    1.15    2.21
  -6   6  11    3.12    2.08
   4   3  18   45.04    3.38
   4   3  18   41.38    3.84
   4  13  11    7.46    2.63
   4  13  11    8.70    2.29
   8   7  -4    7.51    3.38
   8   7  -4    5.01    2.76
   8   7  -4    7.90    2.33
   6   9  15   40.14    3.78
   2  10  -9   26.28    3.07
  -2 -10   9   28.27    2.50
   0  -1  17   10.89    2.18
   0  -1  17   12.49    2.36
   3  -5  15   28.60    3.41
  -8   8  -3   -0.25    2.21
   0   9  16   17.53    2.74
   0   9  16   15.92    2.23
   0   9  16   18.66    2.50
 -10   1   1   -1.86    2.34
  10  -1  -1    2.63    3.05
   6 -11  -1    9.19    2.28
  -6  11   1    8.61    2.50
   8   5  -6    6.40    2.55
   8   5  -6    3.74    3.23
   1   2  18   24.30    2.77
   1   2  18   21.33    2.67
   9  -6   0   11.99    3.07
  -6  -3  11   43.40    3.15
   4  14   5    4.84    2.36
   4  14   5    5.73    2.59
  -5  12   1    5.16    2.26
   9   7  11   25.67    2.65
   9   7  11   27.50    2.19
   9   7  11   27.49    3.40
   9   7  11   29.41    2.85
   9   7  11   26.60    3.32
   9   4  -4   25.46    3.28
  -9  -4   4   24.89    2.73
   8  -5  10    5.60    2.55
  -8   5 -10    1.57    1.97
  -1  14   0    8.89    1.92
  -1  14   0    6.87    1.94
  -6   0  12    4.73    1.79
   6   0 -12    2.46    3.01
   5  10  15   13.53    2.76
   5  10  15    9.86    2.66
   1  14   9    4.68    1.97
  -4   8  13    3.76    1.63
  -4   8  13    4.41    1.98
  -4   8  13    3.85    2.28
   4  -8 -13    1.78    1.70
   7  10  -2   13.95    2.90
   7  10  -2   10.30    2.76
   7  10  -2   10.91    2.73
  -5  12   2   10.36    2.50
   1   8  17   19.15    2.62
   1   8  17   18.98    2.44
   1   8  17   14.49    2.61
   1  13  -4    1.72    2.09
   6   4  17   17.27    2.94
   6   4  17   22.77    2.23
  -6  11   0    7.03    2.37
  -2  -1  16   21.24    2.53
   4  14   6    8.18    2.73
  -7   7   8   26.92    3.47
   6   3  17    2.25    1.58
   6   3  17    3.56    2.37
   5   7  17   -1.23    1.46
   5   7  17   -1.32    2.48
   5   7  17    0.42    2.01
  -1  13  -4   12.68    2.22
   2   1  18   18.66    2.54
  10  -3   3   14.61    3.59
   5  10  -6   19.98    3.06
   0  12  13   54.32    4.22
  -2  -5  14   -0.35    1.84
   4   8  17   13.22    2.58
   4   8  17   12.34    1.87
  -7   4  10    0.69    2.06
  -7   4  10    0.80    1.92
  -8   6   6   -1.06    2.25
   8  -6  -6    0.25    2.48
  10   6   5   14.81    3.04
  10   6   5    8.34    2.06
   5  13   1    6.01    2.24
   5  13   1   -0.46    2.21
  -8   3   8   16.97    2.79
   2  -2  17   31.93    2.99
   2  -2  17   27.15    2.98
  -7   9  -5    4.55    2.36
   8   9  -1    9.41    2.64
   8   9  -1    8.05    2.51
   8   9  -1    8.30    2.97
   7  -1  15   22.73    2.66
   7  -1  15   24.18    3.27
  -1  14   7   12.19    2.58
  -1  14   7    9.31    1.86
  -6  11   2   16.11    2.77
   6 -11  -2   18.80    2.80
  -4  -4  13   30.46    2.81
   7   2  16   10.97    1.87
   7   2  16    9.39    2.09
  10  -3   2   25.66    3.86
 -10   3  -2   19.62    3.03
   2  13  12   34.08    3.05
   4  14   4   -1.11    2.12
  10   6   6   31.19    3.73
   6  -1  16   21.50    2.58
   6  -7  11    1.76    1.82
   6  -7  11   -0.93    2.26
  -6   7 -11    0.17    1.68
   1   5  18   31.95    3.16
   1   5  18   31.44    3.02
   3  14   1    3.13    2.27
  -1  -8  12   41.24    3.22
   1   8 -12   39.42    3.54
   8  -2  13   -0.47    2.27
   8  -2  13    0.40    1.84
   9   6  12   16.16    2.22
   9   6  12   13.59    1.84
   9   6  12   16.41    2.30
   3   1  18   37.72    3.21
  -5  12   0    7.24    2.30
  -9   5   3    7.35    2.61
   9  -5  -3   11.71    3.21
   1 -10  10   21.06    2.06
  -1  10 -10   16.16    2.18
  -2  13   9   22.29    2.99
   3  12  -5   10.68    2.61
   3  12  -5    9.20    2.56
  -3 -12   5    9.07    1.51
  -8   5   7   22.95    3.27
  -3  13  -2    7.27    1.96
  -4  -2  14    1.45    1.73
 -10   3  -4    8.66    2.82
  10  -3   4    8.14    3.33
   2  11  15   18.84    3.06
   2  11  15   14.00    2.61
   2  11  15   21.51    2.43
   4   5  18    0.65    1.68
   4   5  18    4.13    2.51
   7   5  16   49.47    3.02
   7   5  16   52.45    4.06
   7  -5  12    0.40    1.90
   7  -5  12   -1.39    2.36
   8  -8  -2    9.77    2.94
  -8   8   2    9.84    2.54
   3   6  18   29.80    3.27
   3   6  18   24.56    2.71
 -10   1  -8    6.05    2.39
  10  -1   8    4.41    2.20
  10  -1   8    2.65    2.12
   2   6  18   42.62    3.76
   2   6  18   44.58    3.43
  -5  12   3   17.53    2.85
  -1  -7  13   24.07    2.66
  10   6   4    1.22    2.77
  10   6   4    2.12    1.83
  10   6   4    5.04    1.98
   4   2  18   35.57    3.45
   4   2  18   36.15    3.08
  -7   6   9   23.72    3.30
   0  14  -1   -0.20    1.81
   7  -4  13    2.12    2.55
   7  -4  13    2.98    1.95
  -2  14   3    2.41    1.40
  -2  14   3    1.84    1.98
  -9   6  -4   -0.26    2.32
  -5  11  -5    0.76    1.91
   9  -3  -5    6.45    2.99
  -9   3   5    2.88    2.64
   5  11  14   -0.22    2.28
   5  11  14   -0.22    2.26
   1  14  -1   24.01    2.79
   0  -5  15   46.46    3.48
   0  -5  15   44.21    3.65
   4  14   7    7.83    2.21
   4  14   7    5.91    2.43
  -6  11  -1    5.98    2.28
   8   8  13    2.29    2.18
   8   8  13    4.09    2.53
   8   8  13    0.42    2.36
   3  11  15   38.09    3.42
   3  11  15   31.33    2.55
  10   4   0   20.15    2.64
  10   4   0   21.37    3.86
 -10  -4   0   23.88    3.14
   9   8   1   58.80    4.35
   9   8   1   55.38    3.89
   6  12   0    3.22    2.39
   6  12   0    0.47    1.81
   2  10  16   16.10    2.67
   2  10  16   12.55    2.10
   2  10  16   16.72    2.57
   5   9  16   39.19    3.74
   5   9  16   41.15    3.78
   7  -9  -5   25.50    2.98
   6   5  17   50.79    4.07
   6   5  17   49.82    3.14
  -4  12  -4    9.00    2.02
   9  -5   7   11.25    2.40
  -9   5  -7    7.34    2.42
  -3  13   7    1.12    2.04
  -3  13   7    0.96    2.17
   6   2  17    2.31    2.12
   6   2  17   -0.16    1.48
  -2  14   4   -1.28    1.98
   5  -4  15   20.37    2.57
   5  -4  15   15.39    2.86
   3  -2  17    0.76    1.78
   3  -2  17   -1.83    2.21
   3  14   9   23.18    2.85
   3  14   9   27.28    3.33
  -6   4  12    1.02    2.11
  -6   4  12    1.88    1.90
   6  -4 -12    0.29    2.69
   9   3  13   21.72    2.52
  -2  14   2    2.54    1.87
  -2  14   2    4.07    1.52
   3  10  16    9.20    1.81
   3  10  16   11.68    2.67
   3  10  16   10.11    2.42
   9   7  -1   20.34    3.02
   9   7  -1   24.15    2.85
  10   0   9   40.29    3.50
  10   0   9   40.36    3.37
 -10   0  -9   36.20    3.75
  -3  -4  14   46.53    3.39
  10   6   7   24.46    3.57
  10   6   7   24.56    2.47
   0  10 -10   -0.37    1.68
   9  -3  10   -0.82    1.91
   9  -3  10    0.21    2.26
  -9   3 -10    0.25    2.34
   8  10  10    9.80    2.16
   8  10  10   11.29    2.66
   8  10  10    8.81    2.57
   9   9   6    7.46    2.18
   9   9   6    4.99    2.34
 -10   3  -1   13.98    2.86
  10  -3   1   20.31    3.59
   7   9  -4   38.25    3.89
   7   9  -4   43.90    3.74
   7   9  -4   35.29    4.16
   3  -9  11   18.71    2.42
   3  13  12    1.64    2.39
   3  13  12   -1.55    1.91
   5  13  10   24.58    2.98
   5  13  10   22.54    3.19
   6   9  -6    3.58    2.84
   9  -6  -1   13.04    3.31
  -1   0  17   14.21    2.05
  -1   0  17   19.06    2.51
   1  -2  17   24.83    2.84
   9   8  10    2.59    2.55
   9   8  10   -0.86    2.07
   9   8  10   -1.89    2.41
   9   8  10    1.49    1.78
   9   9   5    8.68    2.10
  -3  -2  15    7.96    2.13
   1  13  12   23.60    3.33
   1  13  12   23.02    2.65
  -7   8   7    7.32    2.50
  -1   6  17   24.59    2.85
  -1   6  17   29.44    2.98
  10  -2   7    2.65    1.97
 -10   2  -7   -0.79    2.16
   7  12   6   16.26    2.41
   7  12   6   20.68    3.14
  -9   2 -11    0.25    2.38
   9  -2  11    1.73    2.68
   9  -2  11   -2.43    2.07
   4  12  -4    9.80    2.69
   4  12  -4   16.72    2.86
   2  -4  16    1.33    2.10
  -6  11   3   19.46    3.17
   6 -11  -3   19.44    2.73
   1   9 -11   13.27    2.35
  -1  -9  11   17.43    2.28
 -10  -3   1   54.16    4.20
  10   3  -1   58.28    4.93
  10   3  -1   48.92    3.70
   7  11  11    8.73    2.42
   7  11  11    8.34    2.38
   7  11  11    8.50    2.61
   4  14   3    0.91    2.17
  -6  -5  10   22.48    2.29
   5   4 -12    1.79    3.06
  -5  -4  12    1.48    1.70
   6  12  11   13.17    2.68
   6  12  11    8.93    2.64
  -7  -4   9   18.56    2.16
   7   4  -9   14.75    3.41
   7   9  14   18.08    2.84
   7   9  14   22.95    2.88
   7   9  14   18.88    3.06
   7  11   0   33.21    3.32
   7  11   0   36.74    3.48
   7  11   0   32.88    3.65
   7  12   5   19.01    2.92
   7  12   5   26.76    2.70
   9   4  13    1.83    2.05
   9   4  13    1.07    1.61
   8   8  -3   15.42    2.88
   8   8  -3   13.53    2.75
   8   8  -3   12.44    3.58
  -8   8  -4    1.74    2.03
   6  11  13    3.61    2.39
   6  11  13    0.66    2.27
  -3   7  15   -1.67    1.87
   6  -3  15   21.87    2.60
   9   2  13   33.89    2.44
   9   2  13   39.28    3.26
  10   5   1    6.81    3.43
  10   5   1    2.83    1.85
  10   5   1    6.45    1.90
   1   1  18   12.10    2.20
   8   9  12   13.23    2.43
   8   9  12   17.86    2.75
 -10   3  -5    7.31    2.57
  10  -3   5   16.83    2.37
   2 -10  10   22.45    2.25
  -7   6 -11    5.38    1.89
   7  -6  11    7.19    2.26
   7  -6  11    7.82    2.72
   2  12  -6   22.80    3.02
  10   5   9    2.85    1.50
  10   5   9    2.84    1.46
  10   5   9    0.26    2.70
   9   9   7    5.66    2.27
   9   9   7    3.78    2.21
   9   9   7    5.71    2.17
  -8   7  -7    5.45    2.28
  -6   9  -8    5.19    1.94
   6  -9   8    3.93    1.93
   3  11  -7    4.93    2.35
  -3 -11   7    4.78    1.49
  -5  12  -1    2.15    2.06
  -7  -2  10    0.33    1.62
   5  -8  11    2.61    1.94
   6   8  16   31.58    3.46
   8  10   1   17.71    2.91
   8  10   1   15.95    3.12
   8  10   1   16.58    2.85
   8   4  -7    3.87    3.35
  -8  -2   8   34.45    2.79
   8   3  15   14.86    2.90
   8   3  15   15.88    2.26
   8   3  15   14.65    1.91
  10   6   3    0.25    2.87
  10   6   3    0.15    1.78
  10   6   3    0.17    2.00
   7  12   7   15.76    2.45
   7  12   7   19.83    2.92
  10   3  10   12.55    2.10
   5   2 -13   30.74    3.93
  -5  -2  13   22.69    2.66
   8  -7  -5    3.55    2.41
  -8   7   5    6.77    2.66
  10  -2  -1    4.45    3.06
 -10   2   1    7.34    2.54
  10   2  10   27.70    2.81
   4  -6  14   19.66    3.18
   4  -6  14   23.97    2.53
  -4   2  15   22.88    2.64
   4  -2 -15   23.25    3.58
   4  -7  13    3.35    2.31
   4  -7  13    5.74    1.98
  -3   3  16   24.51    2.32
  -3   3  16   26.53    2.82
  -5  12   4   16.61    3.00
   8   4  15   -1.72    2.22
   8   4  15    1.12    1.73
   4  11  -6   19.78    3.00
   4  11  -6   18.55    2.89
  -9  -3   5    5.50    1.97
   9   3  -5    9.50    2.10
  -4   3  15   20.00    2.33
  -4   3  15   18.06    2.61
   4  -3 -15   18.73    3.17
  -6  -1  12   12.51    2.15
   6   1 -12   15.87    3.66
   1  -4  16    6.51    2.35
   1  -4  16    5.76    2.04
   9   9   4   10.26    2.35
   9   9   4   14.35    2.70
   9   9   4   10.05    2.06
 -10   0   2    7.27    2.55
   8   7  14   16.44    2.95
   8   7  14   14.53    2.88
  -2  14   1   18.69    2.49
   1  11  15    0.59    1.97
   1  11  15   -1.03    1.77
   1  11  15   -1.14    2.12
  -2  10  14   42.63    2.91
  -2  10  14   37.98    3.43
  -2  10  14   38.15    3.44
  -3   2  16   21.94    2.67
   2  12  14    1.88    2.24
   0  14   9    4.84    2.54
   0  14   9    3.35    1.84
  -1  -6  14   36.95    3.07
  -4  -8  10    4.47    1.64
   4   8 -10    3.11    2.47
  -2   7  16    7.97    2.14
  -2   7  16   10.27    2.20
   3  13  -3   11.48    2.54
   3  13  -3    6.47    2.48
   5  -6 -13    3.00    2.36
  -5   6  13    1.05    1.88
  -5   6  13    3.04    2.15
   6  13   6   12.86    2.65
  10   1  -2   17.39    2.64
 -10  -1   2   19.60    3.08
   7   1  16    7.01    1.98
   7   1  16    6.70    1.79
  -3  12  10   26.16    3.04
   7 -10   0   -2.26    2.28
  -7  10   0    3.76    2.31
  -4  13   2   26.50    3.08
   9  -4   9    5.06    2.22
   9  -4   9    1.21    2.30
  -9   4  -9    6.18    2.33
   8  -6   9   11.03    2.48
   8  -6   9    6.82    2.81
  -8   6  -9    7.14    2.35
  -4  11  10   13.73    2.69
  -4  11  10   13.27    2.42
   4  14   8   -0.90    2.44
  -6  11  -2    0.90    2.13
   7  12   4   19.87    3.09
   7  12   4   16.13    2.33
  -4  -7  11   17.00    2.11
   7  10  13   39.22    3.71
   7  10  13   40.82    3.46
   7  10  13   42.17    3.73
  -1  14  -1    4.46    1.67
  -1  14  -1    3.95    1.70
   4 -11   7   -0.85    1.72
   7  -8   8    8.28    2.28
  -7   8  -8   10.52    2.36
   4   6  18    1.76    1.86
   4   6  18    0.88    2.36
  -7  10   1    5.11    2.43
   7 -10  -1    1.71    2.13
   1   6  18    2.67    2.04
  -4  13   3   26.67    3.24
   7   8  15    1.66    2.42
   7   8  15    0.65    2.42
   0   3  18   17.75    2.63
   0   3  18   15.82    2.53
   3  -4  16    2.85    2.06
   7   6  16   44.25    3.88
  -9   6  -5   -0.52    2.45
   8   2  15   27.12    2.34
   8   2  15   30.45    2.82
   3  12  14   38.76    3.35
  -4  13   1   26.50    3.14
  10   6   8   32.81    3.76
  10   6   8   23.19    2.37
   1  10  16   39.03    3.73
   1  10  16   40.45    3.34
   1  10  16   44.68    3.33
  -4  12   8    1.66    1.98
  -4  12   8    2.01    2.34
  -7  10  -1    0.25    2.31
   4   1  18    6.31    2.07
  10  -3   0   21.53    3.81
 -10   3   0   19.36    3.11
   8  -8  -3   11.76    2.76
   6  13   7   23.55    3.01
   4 -10   9    2.23    2.05
  -9   0   6    4.39    2.24
  -2  11  13    5.01    2.21
  10   4  10   10.15    1.91
   3   8 -11    9.96    2.65
  -3  -8  11   13.11    2.09
   2  13  -4   29.36    3.25
   2  13  -4   33.20    3.21
   2  14  10   27.81    2.95
  -3   4  16   13.78    2.37
  -3   4  16   13.78    2.09
  -3   4  16    8.82    1.83
  -4   1  15   14.97    2.41
   4  -1 -15   15.72    3.15
   9  -1  12    3.35    1.99
   9  -1  12    5.21    2.68
  -9   1   6   35.34    3.59
   3 -11   8    8.34    2.04
  -8   4   8   14.02    2.78
   2  14  -1   22.42    2.98
   0   4  18   10.26    2.35
   0   4  18    7.34    2.23
   9   9   8    8.85    2.50
   9   9   8    5.61    2.52
   9   9   8    5.98    2.37
  -1  -3  16    1.22    1.70
  -1  -3  16    2.11    1.79
  -2  13  -4    8.34    1.88
   6   6  17   16.14    2.88
   6   6  17   17.08    1.93
   2   0  18   24.86    2.99
   2   0  18   24.09    2.74
  10   1  10   27.56    2.90
   7  12   8   10.44    2.31
   7  12   8   11.15    2.71
  -1  14   8   17.93    2.17
  -1  14   8   23.94    3.14
 -10   1   2    2.67    2.39
  10  -1  -2   -0.29    2.72
   9   5  13    3.01    1.63
   9   5  13    1.35    1.99
   6   1  17    3.62    1.80
  -6  10  -6    8.85    2.23
   4  11  15   24.42    3.20
   4  11  15   26.57    3.33
   4  -7 -14    2.39    2.06
  -4   7  14    1.52    1.50
  -4   7  14    0.65    1.94
   6  13   4   -0.18    1.95
   9   1  13    9.92    2.16
  -1  11  14   25.19    3.14
  -1  11  14   33.63    3.20
  -3  10  13    1.89    1.93
  -3  10  13    4.56    1.93
  -4   4  15    3.06    1.87
  -4   4  15    3.51    2.08
   8  -1  14   10.25    2.79
   8  -1  14    5.67    2.07
   6  11  -3   20.52    3.12
   4  10  16    1.07    1.37
   4  10  16   -0.46    2.45
   4  10  16    3.07    2.23
  -1  10  15   16.42    2.73
  -1  10  15   14.54    2.51
  -1  10  15   15.58    2.35
   4  -5  15   11.04    2.69
   4  -5  15   19.63    2.43
   8   5  15   11.97    2.71
  -3  -7  12    1.63    1.76
  -6  11   4   27.27    3.55
  -4  -9   9    3.28    1.51
   4   9  -9    4.30    2.47
   3  14   0    5.26    2.25
   4  14   2    3.23    2.37
   0  12  -7    2.49    1.69
  -3   1  16    3.79    1.93
 -10  -2   2    7.23    2.48
  10   2  -2   10.33    2.28
  -6   8 -10    4.96    1.90
   6  -8  10    4.17    2.02
   4  -8  12    1.22    1.84
  -9   6   2   19.46    3.10
   9  -6  -2   21.85    3.55
   0   2  18   19.95    2.44
   0   2  18   20.78    2.72
   0   2  18   18.98    2.54
   3   9  17    3.55    2.42
   3   9  17    4.62    2.37
   3   9  17    4.72    1.73
   2   9  17   20.07    2.97
   2   9  17   17.69    2.53
   5  13   0   -0.23    2.16
  -7   5  10   16.58    2.88
  -7   5  10   14.52    2.53
   3   0  18   20.88    3.22
   3   0  18   17.76    2.50
   7 -10  -2    6.47    2.40
  -7  10   2   10.39    2.73
 -10   3  -6    3.24    2.35
   1  14  10   10.27    2.72
   1  14  10   11.37    2.20
  -1  12  -7   18.61    2.59
  -1  12  -7   15.39    2.13
  -2   9  15   18.78    2.72
  -2   9  15   15.83    2.58
  -2 -11   8   25.77    2.41
   2  11  -8   29.30    3.21
   5  -1  17   26.96    3.55
   5  -1  17   20.15    2.51
  -4  13   4   27.27    3.24
  -1  13  11    1.17    2.47
   5   4  18   19.51    2.43
   9   9   3   10.10    2.01
   9   9   3   16.69    2.77
   9   9   3   16.81    3.04
  -6   8  10   16.81    2.85
   1  12  14   10.83    2.65
   8  11   6    1.05    1.72
   8  11   6   -0.21    2.31
  -2  14   6    0.55    1.29
   3   7  18   32.42    3.45
   3   7  18   30.87    2.87
  -9  -1   6    6.18    2.29
  -5   9  11   16.32    2.09
  -5   9  11   13.60    2.64
   5   8  -9   21.40    3.26
  -5  -8   9   22.63    2.22
  10   6   2   -0.16    1.91
   4  13  -2    3.54    2.22
   4  13  -2    8.76    2.47
  -5  12  -2    1.06    1.87
   5   3  18   20.98    2.47
  -4  13   0   14.29    2.54
   0   8  17   24.54    2.74
   0   8  17   19.28    2.77
   0   8  17   18.99    2.29
   3   9 -10   16.65    2.74
  -3  -9  10   17.08    2.25
   2   7  18   18.79    3.04
   2   7  18   13.84    2.26
  -5  -7  10   17.06    2.20
   5 -10   8   -0.74    1.87
  -5  11   8    2.61    1.70
  -1 -10  10   10.26    1.90
   1  10 -10    6.96    2.29
   5  12  13   17.32    2.88
  -7   9  -6    9.21    2.61
   4  -2  17    1.45    2.31
   4  -2  17    3.94    1.92
  -3  13  -3   22.40    2.41
  -2  14   0   16.41    2.05
  -2  14   0   16.23    2.45
  -7  10  -2    1.70    2.40
   3 -12   6   12.55    2.13
  -3  12  -6   13.22    1.99
   8  11   5    0.21    2.43
  -6   5  12    2.10    2.02
   6  -5 -12   -0.57    2.68
  -6   5  12    0.88    2.34
   5  -2 -14    3.77    3.06
  -5   2  14    0.60    1.81
  -3   9  14   20.93    2.78
  -3   9  14   19.24    2.51
   7  12   3   14.16    2.21
  -4  -6  12   54.49    3.56
  -9   2   6   34.64    3.58
   8  11   7    4.69    2.36
  10  -1   9    6.87    2.16
 -10   1  -9    2.92    2.28
  10  -1   9    6.12    2.40
  -2   3  17    1.31    1.64
   4  13  12    3.95    2.39
   4  13  12    4.67    2.13
  -5  12   5    8.53    2.71
  -9   4   5   -1.63    2.33
   9  -4  -5   -0.56    2.79
   5   8  17   12.47    1.82
   9   7  12   19.68    3.12
   9   7  12   12.77    2.65
   9   7  12   13.09    2.29
  -9   5   4    9.13    2.79
   9  -5  -4    6.72    2.74
  -8   8  -5    6.40    2.63
   5  -3  16   11.32    2.79
   5  -3  16   14.56    2.28
   5  -3  16   14.17    2.27
  -2  -4  15    7.99    2.05
   0   5  18    0.20    1.90
   3  14  10   15.75    2.90
   3  14  10   13.64    2.52
   7  -7  10    1.87    1.99
   7  -7  10    2.51    2.31
  -7   7 -10    1.22    1.92
   9   8   0   33.11    3.51
   9   8   0   33.66    3.30
   5  -8 -12    0.22    1.93
  -5   8  12    2.87    2.18
   0  14  -2   -0.40    1.98
  -2  -2  16   10.72    2.30
  -5   3  14    0.18    1.73
  -5   3  14    1.83    1.83
   5  -3 -14    3.12    3.03
   0  13  12   14.54    2.78
   0  -2  17    4.72    2.00
   0  -2  17    5.65    1.97
 -10   2  -8   -0.53    2.21
  10  -2   8   -1.26    1.98
   9   6  -3   33.84    3.03
   9   6  -3   32.38    3.66
 -10  -4   1   30.39    3.35
  10   4  -1   30.08    3.19
   0  13  -5    0.84    1.87
   5  12  -3   42.86    3.89
   9   5  -4   34.53    3.63
   9   5  -4   33.29    3.06
  -3  13   8    1.58    2.37
   1   0  18   -0.39    1.87
   1   0  18   -0.41    1.97
  -2   2  17    2.44    1.93
  -2   2  17   -0.32    1.56
   6  10  -5    0.47    2.28
   6  10  -5   -0.24    2.33
   5  11  -5   61.09    4.58
   8  10  11   13.82    2.59
   8  10  11   19.10    2.81
   8  10  11   17.55    2.99
   5   5  18   28.29    2.66
   5   5  18   24.99    3.36
   8   1  15    5.37    1.62
   8   1  15    9.10    2.15
  -3  11  12    3.81    1.95
  -5   1  14   12.39    2.34
   4  14   9    1.93    2.16
   4  14   9    1.15    2.45
  -6  11  -3    1.11    2.14
  -6   9   9   17.08    3.03
   6  13   3    0.18    2.05
   1  14  -2   25.54    2.99
  10   5   0    7.81    2.43
  10   5   0    7.46    2.02
   6  -7 -11    8.63    2.73
  -6   7  11    5.83    2.51
  -2   4  17    8.24    1.94
   9   8  11    3.55    2.47
   9   8  11    2.21    2.34
   9   8  11    5.03    2.15
   9   8  11    2.88    2.05
   0  -4  16   34.30    3.24
   0  -4  16   32.98    3.10
   7   7  -7   12.59    3.43
   7   7  -7   15.06    3.06
  -3   5  16    5.43    1.68
  -3   5  16    4.45    1.96
  -7   9   6    7.25    2.65
   7  -9  -6    9.98    2.51
  -9   5  -8   11.14    2.57
  10   5  10    5.87    1.71
  10   5  10    8.62    1.68
  10   5  10    9.64    3.23
  -1  -1  17    0.98    1.73
  -1  -1  17    2.98    1.68
  -4   0  15    3.33    1.90
   8  11   4   -0.22    2.32
  -1  11  -9   30.76    2.70
   8   9  -2   17.04    2.79
   8   9  -2   13.27    2.88
   9   9   9    0.89    1.69
   9   9   9   -2.25    2.12
   9   9   9    0.19    2.25
   7  12   9    2.85    2.04
   7  12   9    3.69    2.25
   5   2  18   15.79    2.26
  10   6   9    7.95    2.86
  10   6   9   14.59    2.09
  -6  -4  11    9.50    1.97
   3 -10  10    2.52    1.79
   6  12  -1   -1.41    2.42
  -1   7  17   35.73    3.18
  -1   7  17   28.51    3.00
 -10   4  -3    1.11    2.41
  10  -4   3    1.91    3.22
   5   9  -8   34.94    3.80
  -3  -6  13   11.34    2.20
 -10   2   2    2.74    2.53
  10  -2  -2   -0.30    2.92
  10  -4   2   15.15    3.52
  10  -3  -1   10.31    3.33
 -10   3   1    8.12    2.77
  -2  13  10   30.48    3.44
   7  -2  15    6.02    2.69
  -7   1  11    4.82    2.02
  -7   1  11    3.99    2.04
   7  -1 -11    9.11    3.35
   7 -10  -3    8.91    2.49
  -7  10   3    7.14    2.50
  10   7   6    3.92    1.83
  10   7   6    2.80    2.61
  10   7   6    4.97    1.89
  10   7   5    0.50    1.86
  10   7   5    1.17    2.65
  -7   2  11    2.68    2.16
  -7   2  11    1.17    1.84
   7  -2 -11   -2.57    3.34
   1  12  -7    6.93    2.48
  -1  -5  15   20.65    2.65
  10   0  10   20.53    3.17
  10   0  10   20.49    2.73
   7  10  -3    8.42    2.93
   7  10  -3    5.23    2.52
   4  12  14   21.95    2.85
   4  12  14   15.92    2.93
   0   1  18    5.37    2.17
   0   1  18    9.18    2.12
  -5  -6  11    5.81    1.75
   8  11   8   -2.75    2.31
   8  11   8    0.83    1.82
  -1  13  -5   12.88    2.34
   7   0  16   12.49    2.27
   7   0  16   12.19    1.99
  -1  12  13    5.22    2.34
  -5  10  10   33.47    2.88
  -5  10  10   32.41    3.51
   0  11  -9    1.48    1.75
   8   3  -8   11.32    3.80
  -8  -3   8   12.94    1.92
   8  -4  12    5.10    2.74
   4 -12   5   -1.36    1.79
  -4  13   5   13.37    2.78
  -5  11  -6    2.79    1.84
   5 -11   6    2.98    1.99
   6  -2  16   16.12    2.35
  -9   6  -6    3.88    2.38
   8  10   0   10.25    2.66
   8  10   0   12.46    2.92
   8  10   0    8.05    2.49
   5  -9  10    2.80    2.02
   7   6  -8   40.50    4.71
  -4  -3  14    0.72    1.89
  -6  -2  12   35.67    3.00
   6   2 -12   36.23    4.44
  -8   1   9   -0.55    1.81
  -8   1   9    0.44    2.04
   4  -5 -15    8.20    2.68
  -4   5  15    6.24    2.10
  -4   5  15    8.25    2.23
  -1   9  16   -0.21    1.87
  -1   9  16    1.41    1.93
  -1   9  16    0.48    1.51
   4   9  17   13.86    2.00
   4   9  17   12.66    2.71
   1   9  17   36.27    3.09
   1   9  17   32.32    3.00
   1   9  17   30.10    3.45
  -1   8 -13    6.32    1.77
   1  -8  13    6.48    1.99
  -8   6   7   12.63    2.79
  10   3  -2   10.11    2.39
 -10  -3   2    4.41    2.34
  -4  13  -1    5.66    2.19
   1  -7  14   -1.69    1.81
  -2  12  12    0.88    2.09
   7  11  12    8.29    2.50
   7  11  12   12.98    2.79
   7  11  12    9.63    2.43
   2  -7  14   13.69    2.32
  -3   0  16    1.19    1.97
   7   8  -6   18.83    3.64
   7   8  -6   25.18    3.40
   4   7  18    2.07    1.68
   9   6  13   18.85    2.72
   9   6  13   14.91    2.05
  -7  -3  10    2.71    1.76
 -10   4  -4   -2.22    2.23
  10  -4   4    4.17    3.43
  -9  -2   6    6.44    2.08
   7  11  -1   11.56    2.82
   7  11  -1   16.48    2.91
   7  11  -1   16.85    2.88
  -2  -8  12   13.54    2.19
   2   8 -12    8.30    2.36
   1  13  -5    2.68    2.24
   1  13  -5    0.39    1.78
   9   7  -2    3.09    2.31
   9   7  -2   12.37    2.42
   6  12  12    3.98    2.21
   6  12  12    0.43    2.26
   8  -8  -4   20.86    3.31
  -2  12  -7   23.75    2.65
   2 -12   7   26.71    2.38
  -7  10  -3    6.98    2.46
  -5   4  14   17.65    2.48
  -5   4  14   13.02    2.47
   5  -4 -14   22.34    3.54
  10  -4   1    9.73    3.47
 -10   4  -1   10.98    2.84
   4  10  -8    2.16    2.33
  -4 -10   8    1.81    1.38
  10   7   7    1.94    1.78
  10   7   7    8.12    2.12
  10   7   7   10.45    2.80
   0  11  15    2.94    2.22
   0  11  15    3.38    2.07
   0  11  15    1.13    1.83
   2  -8  13    9.57    1.94
   9   0  13   10.65    2.35
   9   0  13   10.88    2.86
  10   7   4    8.34    2.98
  10   7   4    3.19    2.03
  10   7   4    5.90    1.97
  -6  11   5    8.36    2.55
   9   9   2    7.96    2.70
   9   9   2    8.23    2.50
   1  15   4   27.50    3.07
   7   7  16   26.93    3.33
   7   7  16   23.36    3.13
   1   7  18    2.09    1.90
   1   7  18    1.52    2.26
   9   4  -5   23.77    2.67
   9   4  -5   25.51    3.39
  -1  14  -2    6.30    1.95
  -8   2   9    2.67    2.01
  -8   2   9    0.46    2.27
   4   0  18    0.37    1.79
   4   0  18   -1.96    2.60
   8   6  -6    0.96    2.68
   8   6  -6    4.37    3.43
   4  14   1    1.41    2.15
   1  15   5   12.62    2.34
  -8   0   9    8.17    2.16
  -8   0   9    8.09    2.12
   4  -4  16   10.86    2.22
   4  -4  16    9.41    2.18
   4  -4  16   11.15    2.72
   2  13  13    3.40    2.57
   2  13  13    3.61    2.14
  -8   5 -11   -2.93    2.26
   8  -5  11    3.65    2.48
   6  13   9   14.50    2.80
   8  -3  13    4.15    2.26
   8  -3  13   -0.48    2.33
  -2   1  17    8.70    2.12
   8   7  -5    9.29    3.59
   8   7  -5    8.06    2.41
   8   7  -5    5.27    2.78
  10   3  11    5.74    2.00
  10  -3   7    0.34    1.97
 -10   3  -7   -0.27    2.22
  -7   0  11    0.55    1.79
   2  -3  17    4.45    2.37
  -2  14   7    6.52    2.39
  -2  14   7    6.56    1.52
  -3 -10   9   15.03    1.98
   3  10  -9   10.44    2.82
   6   7  17    2.43    2.43
   4  -9  11    1.74    1.86
   0  14  10    0.74    2.27
  -8   7  -8   13.04    2.76
   6  10  15   51.70    3.84
   6  10  15   46.58    4.05
   6   0  17   11.02    2.18
   6   0  17    9.70    2.30
   6   0  17   11.08    3.00
  -7   3  11   -0.40    2.03
   7  -3 -11   -1.59    2.93
  -7   3  11    1.10    2.05
  -9   3   6    6.62    2.64
  -7   7   9    8.56    2.59
  -9   6   3   24.58    3.50
   9  -6  -3   23.67    3.67
  -2  -7  13   14.87    2.36
   7  12   2   14.29    2.95
   7  12   2   14.39    2.22
   7  12   2   14.59    2.91
   5  14   6    2.99    2.18
   5  14   6    5.69    2.64
  10   2  11   33.68    2.99
  -5   0  14   12.56    2.27
  10   6   1    4.08    1.90
  10   6   1    2.28    2.31
   5  14   5   18.26    3.10
  -2  14  -1   18.88    2.48
  -2  14  -1   19.15    2.18
   8  -7  -6    5.35    2.65
  -8   7   6    3.86    2.41
 -10   0   3    7.56    2.70
  -2   5  17   15.90    2.55
  -2   5  17   10.90    2.06
   2   9 -11   39.30    3.64
  -2  -9  11   45.14    3.24
  -3  -3  15   14.93    2.38
   2  15   5    9.32    2.78
   2  15   5    0.21    2.22
  -5  12  -3   -1.65    1.94
  -5  -3  13    8.32    2.08
  -4  10  12    7.93    2.41
  -4  10  12    5.59    1.92
   1  15   3   15.72    2.63
   5   6  18   22.40    3.23
   5   6  18   20.35    2.32
  -4   9  13    3.61    2.29
  -4   9  13    2.62    2.19
  -4   9  13    1.19    1.60
   8  11   3    8.78    2.72
   8  11   3    8.58    2.51
  -1  14   9   13.91    2.79
  -1  14   9   12.23    1.97
   0  10  16    0.54    1.99
   0  10  16    3.07    2.04
   0   6  18    0.41    1.91
   0   6  18    2.01    1.92
  -9   7  -1    1.11    2.50
   9  -7   1   -1.20    3.06
   8   9  13    7.60    2.46
   8   9  13    3.00    2.06
   8   9  13    3.03    2.55
   3  13  13    0.59    1.91
   3  13  13    1.45    2.56
  10   1  -3   19.86    2.61
 -10  -1   3   18.62    2.96
   2  15   4   13.59    2.56
   8   8  14    4.33    2.31
   8   8  14    9.59    2.76
  -9   7  -2    1.37    2.43
   9  -7   2    0.91    3.12
   1  15   6    8.38    2.96
  -1   9 -12   18.32    2.35
   2  -6  15    2.55    2.19
   2  -6  15    4.25    1.92
  -9   3 -11    2.49    2.25
   9  -3  11    3.30    2.41
   9  -3  11    6.78    2.25
  -8   5   8   10.75    2.83
  -7   8   8    2.13    2.40
  -3   8  15    1.59    1.57
  -3   8  15    4.31    2.19
  10   4  11   15.57    2.16
   6  -6  13   -0.79    1.93
   6  -6  13   -0.74    2.41
   6  13   2    1.24    2.05
   5  14   7    4.53    2.51
   5  14   7    1.83    2.31
   5  -7 -13    3.62    2.17
  -5   7  13    0.44    1.87
  -5   7  13    2.31    2.15
  -5  12   6    5.42    2.40
  -5  12   6    4.73    2.10
   2  15   6    1.45    2.65
   2  15   6    1.88    2.23
  -4  -5  13   51.07    3.51
   6  -5  14    3.15    1.99
   1  -6  15   -2.22    2.30
   1  -6  15    2.90    1.99
 -10   4  -5   -1.66    2.31
   3  -3  17    2.15    1.97
   3  -3  17   -0.94    2.47
   2  14  11   30.37    3.13
   8  11   9   10.21    2.75
   8  11   9   12.31    2.39
   3  14  -1    8.20    2.58
   2  -1  18   29.21    3.06
   0  15   4   25.49    2.71
   0  -8  13    3.49    1.90
   0   8 -13    0.98    1.71
   5  14   4   24.37    3.09
   5  14   4   21.96    3.09
   1  -3  17   18.61    2.59
   1  -3  17   13.47    2.68
  10  -1  -3   12.18    3.31
 -10   1   3    8.05    2.71
   5   1  18    0.71    1.87
   0  12  14   36.96    3.64
  10   7   8   11.12    2.97
  10   7   8    9.17    2.32
  10   7   8   16.31    2.66
  -2   8  16    1.05    1.87
  -2   8  16    3.45    1.87
   8   5  -7   -1.61    3.17
 -10   4   0   13.97    3.03
  10  -4   0   20.94    3.77
  -9   7   0    1.96    2.33
   9  -7   0    1.49    3.10
  10   7   3   12.76    2.57
  10   7   3   15.37    2.43
   3  12  -6   13.22    2.72
   3  12  -6   14.01    2.87
   1  13  13   36.49    3.76
   1  13  13   34.27    3.23
   7   5  -9   27.40    4.14
   6   7  -9    1.75    3.22
   6  11  14    9.72    2.56
   6  11  14    9.08    2.73
   9  -4  10    3.01    2.10
  -9   4 -10    4.73    2.55
   9  -4  10    0.86    2.42
  -4  12   9    3.53    2.23
   0  15   5   36.72    3.16
   2  -9  12   11.05    2.03
   5  10  16   18.65    3.06
   5  10  16   23.23    3.27
   7 -10  -4   11.73    2.63
  -7  10   4   12.71    2.89
   9  -2  12   -1.61    2.63
   9  -2  12    1.45    2.06
   6   8  -8    0.85    3.14
   6   8  -8    2.02    2.71
  -9   7  -3    5.42    2.56
   0  15   3   19.87    2.67
  -8   8  -6    2.20    2.22
  -8   3   9   10.88    2.61
   5  13  -1    3.03    2.48
   8   0  15    8.62    2.94
   8   0  15    9.37    2.29
   7  12  10   -0.98    2.16
   7  12  10    0.22    2.25
   8   8  -4   22.38    3.38
   8   8  -4   28.18    3.40
   8   8  -4   20.39    3.77
   8   1  -9   13.29    3.81
  -8  -1   9   12.86    2.19
   5  11  15    0.23    2.44
   5  11  15    1.15    2.30
   0  -7  14    2.64    1.93
   9   9  10    5.71    1.98
   9   9  10    5.99    2.43
   9   9  10    4.15    2.37
  -3  14   3   11.29    2.62
   2  15   3   11.40    2.55
   8  -9   0   -1.66    2.66
  -8   9   0    0.80    2.26
   9   3  14   25.96    2.69
  -8   9  -1    1.32    2.24
   8  -9   1    2.53    2.57
   3  -1  18    5.66    2.55
   3  -1  18    3.31    1.99
   4  14  10   -2.15    2.19
   4  14  10    0.94    2.41
  10   1  11   12.25    2.47
   3  -7  14   17.42    3.07
   3  -7  14   13.67    2.24
  -6  11  -4   -2.42    2.30
   5  10  -7   33.92    3.68
  -3  14   2   17.88    2.72
  -4  13   6   12.53    2.78
   7   9  -5   17.66    3.71
   7   9  -5   19.21    3.09
   7   9  -5   18.38    3.18
   4  12  -5    1.65    2.31
   4  12  -5   -0.49    2.18
  -3   6  16    0.33    1.53
   6  -9   9    2.60    2.08
  -6  10   8    0.80    2.18
   3  13  -4   26.70    3.18
   3  13  -4   17.76    2.98
   1  15   2    5.34    2.27
  -7   6  10   29.96    3.54
  -4  -1  15    0.58    1.93
   5  -6  14    1.25    2.50
   5  -6  14    1.50    1.89
   3   8  18   10.33    2.58
   3   8  18   12.28    2.25
   9   4  14    4.11    2.31
   9   4  14    1.59    1.84
  10   6  10    9.76    3.10
  10   6  10    9.48    1.92
   6  -6 -12    2.48    2.73
  -6   6  12    3.75    2.41
  -6   6  12    4.80    2.07
   1  14  11   21.51    2.63
   1  14  11   13.48    3.01
 -10  -2   3    9.13    2.55
  10   2  -3   10.73    2.55
   3 -13   4   15.77    2.21
   8  -6  10   15.35    2.87
  -8   6 -10   20.08    2.95
   8  -6  10   16.47    2.75
  -4  13  -2    9.25    2.19
   0   9 -12   -0.39    1.84
   0  -9  12   -0.54    2.00
  -5  -5  12    9.19    2.08
  -2  13  -5   18.22    2.33
   6 -10   7   10.03    2.38
  -6  10  -7   11.65    2.28
   8  -2  14    4.68    2.05
   8  -2  14    2.48    2.53
  -3  12  11   13.52    2.54
   2   8  18    1.76    2.03
   2   8  18   -0.46    2.19
   2   8  18    0.54    1.92
   6  -7  12    0.80    2.07
   6  -7  12    0.73    2.62
  10  -3  -2    4.52    3.10
 -10   3   2    2.84    2.38
   0   0  18    1.67    1.66
   7   1 -11    0.33    2.94
  -7  -1  11    0.36    1.78
  -3  14   4   13.53    2.80
   7   9  15    7.01    2.85
   7   9  15    9.31    2.76
   1  15   7    4.98    2.02
   3  14  11   12.93    2.98
   3  14  11   11.20    2.35
  -6   2  13   14.57    2.55
   6  -2 -13   17.30    3.56
  10  -2   9    0.41    2.08
  10  -2   9   -0.58    2.26
 -10   2  -9    0.54    2.22
  -7   8  -9   32.08    3.37
   7  -8   9   30.18    3.23
   3  -8  13   13.10    2.10
   2  15   7    0.74    2.73
   2  15   7    2.67    2.17
  -3  -5  14   47.17    3.54
   7  10  14   20.46    3.19
   7  10  14   22.17    3.37
   7  10  14   22.99    3.03
   5  -5 -14   19.49    3.20
  -5   5  14   19.90    2.84
  -5   5  14   23.77    3.00
  -2  -6  14    1.64    1.99
   5  14   8    2.64    2.49
   5  14   8    4.99    2.40
   5  -7  13    3.58    2.08
  -8   9   1    3.82    2.57
   8  -9  -1   -2.98    2.64
  -7  10  -4   12.63    2.76
  -7   9  -7   13.55    2.62
  -8   9  -2    7.87    2.72
   7   4  17   -0.56    1.42
   7   4  17   -1.49    2.24
   9   2  14   12.20    2.41
   7  -5  13   -0.83    2.10
   7  -5  13   -0.73    2.64
  10  -1  10    1.61    1.95
 -10   1 -10    1.61    2.25
  10  -1  10   -1.44    2.57
   9   8  -1   14.97    3.08
   9   8  -1   10.00    2.35
   7  -4 -11    0.94    3.15
  -7   4  11    3.48    2.21
  -7   4  11    2.30    1.93
   0  15   6   40.66    4.08
   0  15   6   37.84    3.14
   7   3  17    0.59    1.43
   7   3  17    7.87    2.55
   3  -6  15   36.62    3.29
   3  -6  15   36.12    3.06
   3  -6  15   29.30    3.61
  -1   3  18    8.39    2.25
  -1   3  18   12.06    2.53
  -3  14   1    7.61    2.44
  -2   0  17   19.59    2.59
   1  -1  18    7.83    2.33
   9  -7  -1    3.23    2.92
  10   5  -1    0.32    1.75
  10   5  -1    2.17    2.11
   6  -4  15   -0.20    2.03
   0  15   2    9.51    2.20
   6  -1 -13    0.63    2.97
  -6   1  13    0.98    1.95
  -4  11  11   38.18    3.81
  -4  11  11   29.25    3.13
   5  14   3   19.61    2.79
  -2 -10  10   20.71    2.44
   2  10 -10   18.10    2.88
  -9   5   5    3.93    2.40
   9  -5  -5    6.47    3.06
   8  10  12    3.65    2.44
   8  10  12    1.73    2.32
   8  10  12   -0.39    2.10
   6  13  10   10.67    2.67
  -4   6  15   14.83    2.55
   0  14  -3    7.45    2.13
  10   5  11    7.24    1.82
  -4   8  14    3.08    2.18
  -4   8  14    0.32    1.47
  -4   8  14    1.39    2.12
   2  11  16   26.15    3.28
   2  11  16   24.72    2.59
   2  11  16   30.50    3.49
   3   4  19    2.96    2.01
   3   4  19    2.67    2.49
   9   3  -6   15.33    2.30
  -9   6  -7    1.30    2.25
  -3  13   9    8.84    2.65
   5  -2  17   36.89    3.15
   5  -2  17   31.67    3.82
   5  -2  17   38.22    3.29
  10   4  -2    0.39    2.31
 -10  -4   2    2.47    2.18
   3  11  16   26.07    2.46
   3  11  16   19.45    2.90
   4 -11   8   -0.52    1.80
  -1   4  18    0.21    1.80
  -1   4  18    2.05    1.96
   9   9   1    7.41    2.59
   9   9   1    5.13    2.52
   2   4  19   24.48    2.78
   2   4  19   22.33    3.05
   6  -3 -13   30.63    4.19
  -6   3  13   32.46    3.02
  -6   3  13   27.56    3.02
   3   3  19   12.33    2.75
   3   3  19   15.59    2.49
   8   7  15   11.76    2.77
   2   3  19    7.59    2.12
   2   3  19    5.15    2.41
  -3  -1  16    7.32    2.17
   8  11   2   18.09    3.01
   8  11   2   19.83    3.20
   5  -5  15    8.60    2.18
   5  -5  15    2.00    2.51
   6   9  -7    6.77    3.21
   6   9  -7    6.58    2.75
   2  13  -5   44.27    3.68
   2  13  -5   40.56    3.92
  -9   7  -4    5.36    2.70
  10  -2  -3    0.60    2.97
 -10   2   3    0.83    2.47
   4  13  -3   -2.43    2.38
   4  13  -3    2.08    2.33
  -5  11   9    0.75    1.74
   9   8  12    1.05    2.11
   7  -4  14   -0.99    2.46
   3  15   5    3.51    2.54
   3  15   5    4.90    2.24
   7  -6  12    3.76    2.28
  -7   6 -12    9.68    2.20
   7  -6  12   11.65    2.83
   5  13  12   31.57    3.30
   5  13  12   27.38    3.40
  10  -4   6    2.82    1.95
 -10   4  -6    8.28    2.63
  -5  -1  14   14.57    2.37
   5   1 -14   13.31    3.47
  -2   6  17   12.97    2.48
  -6  11   6   16.27    2.50
  -6  11   6   17.94    3.17
  -1   2  18   23.53    2.60
   2  15   2   29.85    3.41
  -2  14   8    9.50    2.65
   9  10   6    7.65    2.43
   9  10   6   14.09    2.64
   2  -5  16   15.77    2.81
   4  14   0    1.68    2.53
  10   7   9   11.09    2.48
  10   7   9   14.27    3.14
  10   7   9    8.83    2.05
   6  11  -4   27.50    3.59
   6  11  -4   28.80    3.55
   9   5  14    2.87    1.89
   9   5  14   -0.90    2.28
   9   7  13   14.43    2.95
   9   7  13   11.75    2.60
   9   7  13   12.10    2.41
   7  12   1    6.11    2.45
   7  12   1   13.78    2.98
   3  15   6    3.78    2.23
   3  15   6    5.45    2.60
  10  -3   8   -0.37    2.19
 -10   3  -8    0.27    2.18
   1  14  -3    8.19    2.34
   0  -6  15   13.35    2.35
 -10   4   1   23.12    3.49
  10  -4  -1   23.82    4.04
   7  -1  16   20.88    2.61
   7  -1  16   28.09    3.61
  10   7   2   13.11    2.49
   4  13  13   17.10    2.73
   4  13  13   15.35    3.10
   8  -8  -5    8.61    2.71
  -3  14   5    9.49    2.79
  -9   5  -9   11.08    2.90
   9  -5   9   15.16    3.02
  -1  13  12    1.67    2.35
   0   9  17   10.70    2.44
   0   9  17   11.93    2.24
   0   9  17   10.81    2.51
   3  15   4    2.02    2.27
   2  12  15   -1.31    2.22
   2  12  15    4.17    1.73
   2  12  15   -1.45    2.61
  -9   4   6    1.92    2.53
   9  -1  13   -1.42    2.06
  -9   1   7   13.95    2.83
   5   7  18   -0.60    1.48
   5   7  18   -1.15    2.60
  -1  -2  17    0.20    1.90
  -1  -4  16    3.31    1.75
  -1  -4  16    7.44    2.09
   9  10   5    4.35    2.55
   9  10   5    8.26    2.39
   7   2  17    3.12    1.90
   7   2  17    5.43    1.82
   9  10   7   17.46    2.84
   9  10   7   14.08    2.67
   8  11  10   22.20    3.28
   8  11  10   22.73    2.87
   8  11  10   17.60    2.94
   3   5  19    8.07    2.12
  -9   0   7   -0.69    2.19
   8  10  -1   17.76    3.43
   8  10  -1   19.87    3.26
   4  11  -7    0.24    2.32
  -8   9   2    6.12    2.60
   8  -9  -2    7.20    3.03
  10   6   0    2.79    2.42
  10   6   0    2.70    1.88
  -1   8  17   22.93    2.88
  -1   8  17   23.42    2.85
  -8   9  -3    2.85    2.60
   4   8  18   19.64    2.31
   5  12  14   10.27    2.92
   3  12  15   26.59    3.21
   3  11  -8    6.29    2.60
  -2  -3  16    0.97    1.74
   2   5  19   41.09    3.44
   2   5  19   38.66    3.67
  -6  -3  12   23.97    2.63
   6   4  18    7.57    2.62
   6   4  18    7.78    1.88
   8   4  -8   -0.33    3.18
   6  13   1   10.89    2.32
   1  -5  16    4.42    2.42
   9  -6  -4   12.36    3.40
  -9   6   4    7.75    2.88
   3  10  17   -0.48    1.51
   3  10  17    0.22    2.28
  -5  12  -4    3.64    2.02
   3 -12   7    1.24    1.67
  10   0  11   16.94    3.10
  10   0  11   17.51    2.63
  11   2   5    0.61    3.44
 -11  -2  -5    3.07    2.55
   2  10  17   17.09    2.96
   2  10  17   20.84    2.52
   6   0 -13    2.23    3.01
  -6   0  13    1.74    2.14
   0   7  18   14.37    2.75
   0   7  18   17.65    2.63
   2   2  19    2.56    1.99
   2   2  19    1.71    2.34
   5  -8  12    2.65    2.11
 -11  -2  -4    1.39    2.40
  11   2   4    1.53    3.45
   4  -3  17   10.10    2.86
   4  -3  17    9.17    2.23
   6   3  18    4.65    2.65
   6   3  18    2.11    1.73
   8   3  16   17.35    2.51
   8   3  16   14.64    2.95
   8   3  16   16.39    1.99
   8   4  16    6.70    2.71
  -1  14  -3   13.45    2.40
  -3  14   0    4.54    2.02
   3   2  19   32.43    3.07
   3   2  19   31.90    3.45
  11   1   4   14.73    3.88
 -11  -1  -4   12.03    2.98
   2  15   8   -0.41    2.06
  -8   4   9   13.70    2.81
   3  -9  12    0.16    1.70
   9   1  14   19.13    2.65
   3 -11   9    1.26    1.70
  -8  -2   9   22.63    2.55
   7   8  16    1.52    2.67
   4  -1  18   10.96    2.89
   4  -1  18   13.71    2.46
  -1   5  18    0.57    1.97
   0  -3  17    0.99    1.89
  11   1   5   20.74    4.28
   3  15   7    2.16    2.60
   3  15   7    1.31    2.18
   6   8  17    2.50    2.65
   1   8  18    4.93    2.01
   1   8  18    1.54    1.96
   4 -10  10    0.70    1.78
   9   6  -4   27.44    3.45
   9   6  -4   28.99    3.10
   5  14   9    1.13    2.37
   1  15   8   10.15    2.29
  -1  15   4    2.34    1.74
   0  10 -11    0.58    1.92
   0  15   1    2.93    2.07
   5 -10   9    2.28    1.94
   8   9  -3   22.66    4.03
   8   9  -3   24.73    3.43
   8   9  -3   31.71    3.55
   2 -10  11   15.81    2.13
 -10  -3   3   11.01    2.52
  10   3  -3   12.75    2.79
   4 -12   6    2.93    1.89
   5   0  18    5.36    2.15
   5   0  18    3.61    2.55
   6  -1  17   21.04    2.64
  -1  15   3    0.69    1.67
   5  12  -4   32.73    3.72
   7  11  13   15.30    2.92
   7  11  13   13.61    2.70
   7  11  13   13.97    2.77
  -9   2   7   21.06    3.24
   6  -4 -13   19.04    3.61
  -6   4  13   24.02    2.94
  -6   4  13   25.91    2.99
  -5  12   7    4.72    2.11
   9  10   4   13.49    2.70
   9  10   4   11.79    2.32
   9  10   4   10.42    2.82
   7  11  -2    8.29    2.69
   7  11  -2    7.06    2.64
   4   4  19   16.40    2.49
   3  -5  16   19.14    2.98
 -11  -1  -3   16.99    3.15
  11   1   3   18.86    4.01
   1  11  16    4.73    2.02
   1  11  16    1.83    2.19
   1  11  16    3.55    2.36
   3  15   3   27.59    3.31
  -7  -4  10   14.73    2.10
  -2  11  14    8.96    2.33
   6   5  18   39.85    2.94
   6   5  18   36.81    3.78
   9  10   8   19.34    2.89
   9  10   8   17.63    2.70
   5 -11   7    2.83    1.92
  11   2   6    6.45    3.54
  11   2   6    7.27    2.10
   6  -8  11    1.82    1.98
  -9  -1   7    4.82    2.20
  11   2   3    8.77    3.78
 -11  -2  -3    2.75    2.28
   0  13  -6   10.26    2.51
   0  13  -6    8.53    2.08
   5  14   2   19.65    2.68
  -1  -8  13   12.06    2.34
   1   8 -13    9.94    2.46
  11   3   5    7.48    3.62
   7  12  11    1.02    2.30
  -1  14  10    8.59    1.85
  -1  14  10    4.71    2.42
  -4  13   7    2.92    2.21
   0  12  -8    0.18    1.85
   4   3  19   35.34    3.17
   0  14  11    2.01    2.64
   0  14  11    0.69    1.71
  -2  10  15   28.08    3.17
  -2  10  15   34.18    3.33
  -1  15   5   -0.33    1.63
   4  11  16    2.98    2.39
   9   9  11   19.11    2.81
   9   9  11   16.08    2.45
   9   9  11   19.76    3.20
   1   3  19    2.08    2.05
   1   4  19   23.23    2.91
   1   4  19   18.97    2.98
  10  -5   2    1.29    3.46
  10   3  12   20.84    2.55
   6  -8 -11   14.20    2.83
  -6   8  11   20.24    3.15
 -11  -3  -4    6.31    2.61
  11   3   4   -0.59    3.45
  10   8   6   11.16    3.21
  10   8   6   10.75    2.48
   9   7  -3   17.37    2.64
   9   7  -3   17.05    4.07
   9   7  -3   12.97    2.89
   8   2  16    8.00    1.84
   8   2  16    7.64    2.15
  10  -5   3    1.63    3.22
  11   1   6   23.34    4.12
   8   5  16    1.43    2.46
  -7   7 -11    7.24    2.15
   7  -7  11    2.17    2.51
  -9   7  -5   17.56    3.30
  -6   9  10    5.02    2.52
  -7  -2  11    5.76    1.91
  -4  13  -3    2.30    1.91
  10   8   5   -0.73    2.15
  10   8   5    0.46    2.72
  -6  -5  11    8.93    1.96
   1  12  15    2.66    1.91
   1  12  15    0.42    2.18
   1  12  15    1.21    2.41
   7   6  17   15.68    2.95
  11   3   6    7.19    2.00
  11   3   6    7.47    3.65
  -1  15   2    4.54    1.71
  -1  15   2    4.59    2.12
   6   2  18    3.03    1.89
  -1  13  -6   14.50    2.60
   7  10  -4   13.45    2.86
   7  10  -4   14.20    3.36
   4  14  11    0.96    2.52
  -5   9  12   11.38    2.61
  -3  14   6    3.19    2.32
  -1  -9  12    9.78    2.16
   1   9 -12    4.29    2.07
  -6  11  -5    6.50    2.27
 -10   0   4   12.02    2.94
  -4  -4  14   13.28    2.48
   4   5  19    2.10    1.81
  10   2  12   17.32    2.50
  -8   7  -9   10.58    2.60
   2  15   1   13.02    2.84
  10  -5   1    5.76    3.58
  -1  11  15   15.52    2.65
  -1  11  15   19.28    2.50
  -1  11  15   12.27    2.63
  -8   8  -7   18.55    3.14
   3  14  -2   12.23    2.85
   3  14  -2   12.50    2.70
  -3  10  14    7.19    2.33
  10   8   7   22.74    2.71
  10   8   7   23.02    3.26
   3   6  19   24.25    2.74
  -1  -7  14   30.80    3.11
  -7  10  -5    4.72    2.28
  10   6  11   18.13    2.36
  10   6  11   15.21    3.49
  10   4  12   14.02    2.26
  -2  -5  15    0.95    1.93
   7  -5 -11   12.94    3.28
  -7   5  11   15.12    2.93
  -7   5  11   11.72    2.44
  -8   6   8    2.74    2.49
   9   6  14   22.01    2.97
   4  -7  14   19.63    2.57
   8  -9  -3    3.94    2.54
  -5   6  14   21.10    2.81
   5  -6 -14   20.68    3.23
   7   1  17    6.22    1.81
   2   6  19   45.79    3.59
   2   6  19   48.47    3.93
 -10   3   3    4.31    2.59
 -10  -1   4   22.59    3.18
  -8   9  -4   22.42    3.22
 -10   4  -7    6.32    2.70
  10  -4   7   13.15    2.50
 -11  -1  -2    6.13    2.61
   3  15   8    1.30    2.29
 -11  -3  -3    1.09    2.38
  11   3   3   -1.18    3.33
   2  14  12   38.07    3.33
 -10   1   4    7.83    2.72
   8  11   1   18.70    3.12
  -4  -2  15    2.71    1.94
   1   2  19   -0.21    2.23
   1   5  19   15.84    2.82
   1   5  19   12.53    2.43
   2  14  -3   13.83    2.73
  -3  11  13    2.05    2.16
  -6  12   1   -0.25    2.39
   0  -1  18    7.23    2.11
   4   8 -11    5.77    2.85
  -4  -8  11    1.71    1.67
  10   7  10    8.21    2.35
  10   7  10    7.89    3.15
  11   2   7    9.87    3.51
  11   2   7   10.97    2.29
   1  10  17   30.50    2.88
   1  10  17   26.07    2.96
   2  11  -9    5.60    2.56
  -2 -11   9    9.93    2.04
   4   2  19   15.67    2.45
  10   8   4    0.58    2.18
  10   8   4    0.37    2.02
  -1  15   6    4.09    1.84
   4  -6  15   10.70    2.32
 -11  -2  -2    1.92    2.37
  10   7   1   27.42    3.06
  10   7   1   32.34    3.30
   2   1  19    4.06    2.21
  10  -4  -2   30.82    4.18
   2  -2  18   24.83    3.26
  -5  -4  13   -0.18    1.84
   1  13  -6    0.23    2.20
   1  13  -6    4.43    2.07
  -3  14  -1   -1.33    1.84
   9  10   3    4.65    2.57
   9  10   3    7.99    2.59
   8   9  14    1.93    2.35
   8   9  14   -2.46    2.25
   3   1  19   35.05    3.60
   3   1  19   32.78    3.13
  -6  12   2    0.77    2.44
  -6  12   0    2.71    2.36
   9  10   9    2.58    2.46
   9   9   0    6.72    2.51
   9   9   0    6.12    2.59
   9   9   0    1.91    3.06
  -1  10  16   10.79    1.99
  -1  10  16    7.17    2.44
  -1  10  16   12.19    2.63
   2  13  14    2.98    2.15
  11   3   7   11.41    3.60
  11   3   7   15.19    2.30
   3  15   2   20.23    3.10
  -6  -1  13   16.94    2.50
  -9   3   7    5.35    2.61
   0  -5  16   16.66    2.72
   0  15   8   15.82    2.32
   6   6  18   36.29    2.77
   4  -8  13    2.13    1.96
   1  15   0    2.38    2.04
  11   4   5   -2.02    3.76
  -4  -9  10    3.40    1.60
   4   9 -10   -0.75    2.39
 -10   2 -10   -2.71    2.51
  10  -2  10    5.92    2.26
  10  -2  10    0.42    2.42
  -1   6  18   10.54    2.43
  11   1   7   21.08    2.71
  -1  12  14   12.52    2.85
  10   8   8   21.04    2.91
  10   8   8   18.32    2.78
  10   8   8   19.26    3.15
  -3  -4  15    7.37    2.15
  -5   8  13    3.18    2.60
  -4  -7  12    9.63    2.12
  -4  12  10    4.82    2.15
   3  14  12    6.78    2.32
   9   4  -6   16.92    2.61
   9   4  -6   21.02    3.46
  -1  15   1    9.24    2.18
  -1  15   1    9.95    2.08
   0  15   0    2.01    2.02
   3  -2  18   -0.24    2.47
   9  -6   8    9.91    2.63
  -9   6  -8    5.19    2.57
   8  11  11   27.16    3.35
   8  11  11   24.99    3.51
   3 -13   5    0.46    1.76
  -2   7  17    3.41    1.92
  -5  13   2    9.49    2.81
  -5  -2  14    8.21    2.16
   1  12  -8    0.21    2.05
  11   4   6    2.33    3.64
  10   1  12    8.83    2.12
  -8   5 -12    4.97    2.31
   8  -5  12    2.89    2.82
   6  -7 -12    5.10    2.70
  -6   7  12    5.45    2.37
   9   0  14    0.75    2.84
  -4   7  15   21.88    3.02
   4  -7 -15   19.01    2.99
  -2  14   9   14.95    3.18
   5  14  10    2.77    2.77
  11   4   4    7.75    3.72
  -5  13   1   -0.24    2.24
   7  13   7   39.04    3.55
   9  -3  12    2.80    2.71
  10   5  -2   16.02    2.70
   1  14  12    6.53    2.01
   7  13   5   10.47    2.62
   2  -4  17    1.62    2.40
   5  -9  11    5.93    2.17
  -6  11   7    6.20    2.02
   3   8 -12    4.38    2.69
  -3  -8  12    3.69    1.70
  -3   9  15    4.50    1.81
   8   1  16   15.95    2.24
   1  15   9    0.95    1.99
   3   9  18    1.85    1.87
   3   9  18    2.15    2.24
  -9   4 -11   16.56    3.02
   9  -4  11    8.19    2.53
   8   6  16   13.49    3.03
  -2   9  16    1.61    1.98
   9   8  -2    8.44    2.38
   9   8  -2    8.03    3.58
   8   7  -6    4.35    3.51
   8   7  -6   17.35    3.00
  10   5  12    0.87    1.65
  10   5  12    2.28    1.97
  -3  -2  16   10.11    2.20
  -6   5  13   12.64    2.73
   9  -7  -3   12.24    3.17
   8   8  15    9.09    2.63
   4   6  19   -0.17    1.78
 -10   3  -9    1.36    2.49
  -1 -10  11    3.12    1.80
   1  10 -11    1.28    2.06
 -10  -2   4   13.11    2.71
  10   2  -4   13.10    2.60
  10  -1  11   -1.54    2.60
  10  -1  11   -0.83    2.20
  -7   7  10   19.56    3.22
   3 -10  11    2.24    1.81
   2   9  18   11.45    2.53
   2   9  18    6.72    2.19
  -5  13   3    7.50    2.67
   6  13   0    8.01    2.22
   8  10  13    1.62    2.23
   8  10  13    0.60    2.42
  -7   9  -8   11.02    2.53
  -6  12  -1   -0.48    2.13
 -11  -3  -2    5.95    2.70
 -10   2   4    2.80    2.46
  -3  -9  11   11.76    2.09
   3   9 -11    8.47    2.83
   1  -2  18   10.17    2.52
   6   1  18    4.93    2.03
   4  15   6   19.69    3.10
   4  15   5   11.22    3.01
   6 -10   8   31.40    3.37
  -1  -6  15   31.55    3.06
  10   6  -1    1.05    2.33
  10   6  -1    2.28    1.94
  -5  -7  11   24.00    2.50
  10   8   3    5.15    2.44
   8  -8  -6   10.14    2.77
  -8   5   9    9.32    2.78
   0  14  -4   10.95    2.46
 -11  -1  -1    1.68    2.47
 -10  -4   3    1.99    2.21
  10   4  -3   -1.46    2.56
  -2  13  -6    2.26    1.84
  -9   5   6   -0.28    2.61
  -7  11   0    1.84    2.47
   7 -11   0    0.76    2.45
  -5  13   0    6.04    2.44
  -8   1  10    0.77    1.86
  -8   1  10    0.22    2.01
   7 -11  -1   -0.49    2.58
  -7  11   1    2.41    2.46
  11   4   7    0.87    3.24
   9   8  13   13.96    3.13
   9   8  13    9.24    2.41
   0  11 -10    4.25    2.01
  -9   7  -6   13.28    2.95
  -3  14   7    3.16    2.44
   7  13   8   11.98    2.72
   1   1  19    6.50    2.34
  -3  -7  13    2.82    1.71
   1   6  19    9.13    2.38
   1   6  19    8.72    2.53
   1  -4  17    5.51    2.44
  11   2   8   21.09    2.67
  11   2   8   18.01    4.17
  -1  15   7    7.15    1.91
  11   4   3   14.41    3.87
   3  -4  17   23.14    3.41
   8  12   7    0.85    2.15
   9  -6  -5   13.55    3.31
   7  13   4    8.10    2.39
   8   8  -5   27.60    3.40
   8   8  -5   27.71    4.39
   3  13  -5   23.18    3.35
  -8   2  10    0.93    2.07
  -8   2  10    2.20    1.91
   9  -2  13   -2.19    2.62
 -11  -2  -1    4.37    2.51
   4  -4 -16    7.33    2.83
   4  15   7   29.57    3.54
   4  15   4    0.91    2.63
  11   3   8   24.42    4.33
  11   3   8   28.76    2.83
  -4  10  13    1.83    1.85
   2  15   0   16.13    2.84
  -8   6 -11    4.56    2.40
   8  -6  11    7.88    2.97
   4   1  19    2.70    1.95
   0   8  18   26.14    3.18
   0   8  18   26.28    3.07
  -7  11  -1   10.81    2.81
   8  -9  -4   31.33    3.69
   3   7  19   28.55    2.81
   5   4  19   20.81    2.51
   0  11  16    0.47    2.42
   0  11  16    1.19    1.81
   0  11  16   -0.38    2.02
   8  10  -2   20.83    3.14
   8  10  -2   25.47    3.85
  -7   2  12   18.59    2.75
  -3  12  12   17.78    2.83
  -8   0  10    2.05    1.86
  10   8   9   26.87    3.35
  10   8   9   23.88    2.87
   6  -9  10    6.17    2.46
  -4  13   8    0.90    2.08
  -8   9  -5    8.67    2.75
   1  14  -4    3.20    2.21
   7  10  15   18.77    3.23
  -7   1  12   24.91    2.84
  -9   5 -10   14.63    2.76
   9  -5  10   12.74    2.92
   9  10   2    1.72    2.43
   9  10   2   -0.49    2.76
   9  10   2    5.58    2.91
   6  14   6   -0.41    2.21
  -5  12   8    2.85    1.96
  -5  11  10   18.70    2.59
   7  12  12    2.35    2.53
   3  12  -7   12.52    2.85
   5   3  19    8.03    2.15
   4  -9  12    6.06    2.06
   2   7  19   31.87    3.07
   9   3  15   30.79    2.92
  -1  14  -4   15.54    2.58
   9  10  10    5.78    2.69
   9  10  10    5.43    2.47
  -4  -6  13   35.64    3.02
  11   1   8   10.88    2.27
   4   9  18   31.99    2.81
   9   9  12    9.14    2.46
   9   9  12    5.57    2.62
   5  -2 -15    4.53    3.00
   0   3  19   14.25    2.71
   9   4  15   17.43    2.44
   9   4  15   19.72    3.09
   7   0  17    4.29    1.89
   0  12  15   29.18    3.13
  -1  15   0   10.08    2.17
   6  14   5   -0.81    2.44
   6  14   7    0.84    2.36
   9   7  14   13.86    2.68
   8  12   8   -0.35    2.19
   5  -3 -15    0.29    2.66
   5   5  19   21.46    2.50
  -6  -4  12    7.07    2.09
  -6  12  -2    2.85    2.25
  -4   9  14    0.49    2.34
  10  -4   8    6.79    2.43
  -7  -3  11    5.47    1.95
   9  -8   1   -0.31    2.88
   3  10 -10   16.23    3.35
  -3 -10  10   18.34    2.25
  -5  13  -1    4.32    2.50
   2   0  19   10.50    2.47
  -2  15   3   12.52    2.63
  10   0  12    7.05    2.38
  10   0  12    9.48    3.07
  -7   3  12   15.10    2.79
  -7   3  12   11.47    2.69
   7  -3 -12   14.71    3.74
  10   7  11    9.16    3.15
  10   7  11    9.57    2.37
  -7  10  -6   17.46    2.95
  -2  15   4    5.17    2.49
  -4  11  12   11.73    2.40
  -9   4   7   -0.56    2.59
  -8   3  10   13.21    2.81
  -8   3  10   12.25    2.48
  11   4   8   -1.76    3.47
   3   0  19   11.67    3.00
   9  -8   2    2.18    3.18
   0  15   9   13.15    2.27
  -5  -6  12   14.85    2.24
  10   7   0   22.55    3.19
  10   7   0   20.17    2.76
   1   9  18   15.59    2.55
   1   9  18   13.87    2.45
   4  15   3    4.49    2.74
   2  13  -6   10.10    2.44
  -6  11  -6    1.92    2.05
   7  13   9    6.08    2.50
   4 -11   9    1.06    1.83
   9  -8   0    0.30    2.95
   9   2  15   17.34    2.66
 -11  -3  -1    6.44    2.65
  -7  11  -2    7.63    2.53
  -7   6  11   24.04    3.41
  -7   0  12    7.42    2.29
  10   6  12   11.32    3.51
 -10  -3   4    1.58    2.07
   0  15  -1   -1.45    2.23
   2  15  10    8.13    2.46
  -2  15   2    6.82    2.40
   7  11  14    4.44    2.56
  -6  -2  13   20.23    2.62
  10   8   2   10.70    2.69
  10   8   2    6.08    2.29
   6  14   4    4.76    2.42
   6  13  12    7.73    2.96
  11   5   4   16.52    3.72
  -1   7  18   21.87    3.01
   9   5  15    9.26    2.11
   9   5  15    9.63    2.81
   6  14   8    6.89    2.80
   4 -12   7    2.10    2.01
   7  11  -3    1.19    2.87
   4   7  19   -0.34    1.85
   0   5  19    4.15    2.18
   5   2  19    3.13    1.95
   0  10  17    6.09    2.22
   0  10  17    2.97    1.94
   0  10  17    3.23    2.60
  -8   8  -8    5.83    2.53
   0  14  12    1.80    1.81
   8   0  16   13.36    2.13
  -4   5  16    1.59    1.97
   4  -5 -16    4.69    2.68
  -5   7  14    8.73    2.62
   5  -7 -14    2.98    2.21
  -3  -6  14   13.19    2.42
  -4  14   2    7.71    2.53
  -8  -1  10    1.80    1.93
  -2  15   5   -0.23    2.05
   5  -4 -15    7.99    3.19
 -11  -1   0   -0.28    2.71
  11   5   7    6.81    3.55
   6   8  -9   11.30    3.87
  -2  -8  13   20.06    2.56
   2   8 -13   15.31    2.95
  -4  14   3    7.97    2.65
   8   9  -4   20.43    3.14
   8   9  -4   24.18    3.98
  -2  13  12    7.80    2.54
  10   3  13   17.07    2.48
  -1 -11  10   -0.85    1.69
   1  11 -10   -1.50    2.06
   9  -7  -4    3.68    2.99
   3 -12   8   -1.11    1.73
  -2  -9  12   21.23    2.54
   2   9 -12   23.61    3.19
   5 -11   8   -0.19    1.90
  -2   4  18    6.89    2.09
   1  15  10   -0.95    1.92
   8  11  12   24.29    3.18
   9   9  -1    3.45    2.53
   9   9  -1   -0.57    3.27
   8  12   9    2.59    2.32
  -1  15   8    9.26    2.12
  11   0   8   -0.59    2.18
   9   6  -5   15.76    2.74
  -9   1   8   11.03    2.91
  11   2   9    6.76    2.19
  11   3   9   24.96    4.63
  11   3   9   20.78    2.58
   9  -8  -1   -0.89    2.98
   6   0  18   24.67    2.82
  -4  14   1    5.19    2.42
   0  -2  18    7.70    2.21
  -2 -12   8    7.13    1.82
   2  12  -8    5.87    2.53
  10   4  13   27.07    2.79
   5   6  19   37.73    3.07
  -6   6  13   -0.48    2.36
   6  -6 -13   -0.28    2.53
 -10   0   5   12.79    2.79
   0  -4  17   13.25    2.68
  -4  -3  15    8.14    2.33
 -11  -2   0   10.87    2.90
   9   7  -4    9.27    2.52
   9   7  -4    6.42    3.81
  -9   0   8    1.84    2.32
  10   8  10   25.04    2.93
   1   0  19    6.14    2.27
  10   2  13   11.16    2.35
  -2  15   1   10.27    2.37
  -4  14   4   12.44    2.91
   2  -9  13    6.65    1.89
  -8   7 -10    8.83    2.59
  -3  14   8    0.49    2.60
  11   5   3   20.59    3.77
 -10   1   5   14.91    3.09
  -7   4  12    1.18    2.24
   7  -4 -12    6.12    3.23
  -2  -7  14   12.74    2.28
   2  12  16    6.13    1.86
   2  12  16    4.02    2.60
   2  14  -4    5.44    2.36
  -9   7  -7    9.57    2.74
   5 -10  10    1.54    1.97
   9  -6   9    1.10    2.68
  -9   6  -9    3.34    2.36
  -5  13  -2    0.22    2.07
   2  11  17   23.27    2.65
  -9   2   8   20.14    3.33
  -2   8  17    0.20    2.03
 -10  -1   5   14.74    2.87
   0  13  -7    6.37    2.48
   0  13  -7    1.87    1.91
  -5  -3  14    0.19    1.77
  -6  12  -3    7.70    2.44
   6  14   3   10.18    2.77
  10  -2  11    2.44    2.63
   9  10   1   -1.32    2.69
   9  10   1   -0.51    3.11
  -7  11  -3   24.60    3.38
  11   1   9    1.51    1.98
   9   5  -6   16.06    2.96
  11   5   8    1.14    3.06
  -1  15  -1   20.82    2.68
  10  -3  10    5.76    2.74
   6  14   9   11.26    3.05
   8  -9  -5    9.58    2.87
  11   4   9    3.83    3.44
  10   9   6   -2.94    2.22
   7   4  18    2.41    1.81
  -8   4  10   16.92    3.13
  -1  13  -7   18.35    2.71
   0   8 -14    0.21    2.12
   9  10  11    4.73    2.77
   9  10  11   -0.20    2.54
   9  10  11   -0.18    2.16
   3 -11  10    0.16    1.69
  -7  -1  12    0.19    1.90
   7  13  10    4.19    2.61
  -8   9  -6   15.89    2.93
   8 -10   0    0.56    2.62
  -2   5  18   10.52    2.25
  -4  14   0   -0.66    2.06
  10   5  -3   15.62    2.95
   7   3  18    4.11    1.85
  10   9   7   -1.40    2.23
  10   9   7   -1.93    2.20
   3  -7  15   10.88    2.22
  -4   8  15   13.53    2.86
  -2 -10  11   31.56    2.86
   2  10 -11   35.23    3.65
   3  -8  14    5.79    1.99
   9  11   6    5.62    2.44
   9   6  15    5.86    2.55
   8 -10   1    6.57    2.99
  10   9   5    6.34    2.43
  -4  -5  14    9.52    2.07
  10   6  -2   26.73    3.37
   0   9 -13    2.04    2.06
   4 -10  11    1.43    1.96
  10   5  13   -0.17    2.13
  10   5  13   -0.91    1.71
   9  11   7   14.38    2.71
   3   8  19   10.27    2.28
   8 -10  -1    0.27    2.77
  10  -5   7   15.98    2.79
   5  -5 -15   20.17    3.70
  -5   5  15   19.92    2.90
   8   9  15    3.21    2.78
   9  -8  -2    1.18    2.96
   9   8  -3    2.13    2.47
   9   8  -3    2.77    3.70
 -11  -3   0   16.49    3.08
 -10   2   5   12.70    3.17
  -4  12  11   19.33    2.88
   5 -12   6    2.31    2.15
   1  14  13   21.25    2.64
  -3   6  17    2.46    2.07
  -5  -5  13    4.76    1.98
   8  10  14   -0.43    2.32
   2   8  19    5.19    2.09
   0  12  -9   14.99    2.43
  10   8   1   14.65    2.71
  10   8   1    2.58    2.37
  10  -1  12   -0.94    2.62
  -4  13   9   -0.22    2.03
  -8  -2  10    8.06    2.06
  -2  11  15   11.15    2.59
   7  -1  17   11.34    2.40
  10   9   8    3.05    2.32
  10   9   8    6.42    2.54
  -3  13  11    5.09    2.30
  -5  13   6    8.07    2.43
  11   6   6   10.52    3.58
  -4   6  16   10.03    2.48
   4  -6 -16   13.45    2.87
 -10  -2   5    2.59    2.29
   9  11   8   22.79    3.39
  10  -4   9   14.93    2.91
  11   6   5   13.25    3.50
   0  15  10   14.29    2.25
  -9   3   8   10.25    2.97
   1  13  -7    3.52    2.12
  10   9   4    4.93    2.49
  10   9   4    2.59    2.37
   7  12  13    9.31    2.82
   3  10  18    1.19    1.81
   0  14  -5   10.91    2.54
  10   4  -4    0.88    2.38
   1  12  16    2.36    2.12
   1  12  16    0.56    1.82
   9   8  14    8.24    2.56
   7   2  18    5.48    1.92
   2  -1  19    9.24    2.59
   4 -13   5    1.93    1.93
   1  -3  18    7.49    2.39
  10   7  12   18.32    2.63
   9   9  13   14.17    2.68
  -5  12   9   -0.82    2.01
   2 -10  12   14.48    2.18
   3  -9  13   17.69    2.42
   1  11  17    4.98    2.52
   1  11  17    6.70    2.17
   2  10  18   11.34    2.62
   2  10  18   13.28    2.37
   5   7  19    4.67    2.05
   0  15  -2    1.50    2.20
   8 -10  -2    0.27    2.78
  10   7  -1   20.81    2.99
  10   7  -1   19.80    3.36
  11   0   9    0.20    2.07
   5  15   6   18.11    3.21
   0   9  18   15.80    2.57
  11   6   7   11.92    3.56
  -3  11  14   -0.42    2.02
  11   5   9    2.00    3.23
   4   8  19    9.97    2.16
  -1  15   9   18.47    2.42
  -7  10  -7   10.75    2.53
   1  15  -2    1.15    2.22
  11   3  10   46.69    3.50
   8   2  17   17.32    2.40
  -4  14  -1    1.92    2.18
   6  14   2   11.04    2.54
   5  15   5   20.50    3.38
  -2  12  14    3.42    2.45
  11   6   4   11.17    3.41
   8  10  -3   21.00    3.89
   0  10 -12   13.16    2.45
  -2  10  16    4.03    2.34
  11   2  10   21.13    2.74
  -1  14  -5   11.61    2.56
   6   4  19    4.33    2.09
   7  -5 -12   -1.58    3.15
  -7   5  12   -1.24    2.36
  10   8  11   26.64    3.33
  10   8  11   28.78    3.12
  -3  10  15    3.39    1.90
  -5  13  -3    6.27    2.26
 -11  -2   1   13.25    3.11
  -7  11  -4   13.63    2.89
  -6  -3  13   12.42    2.24
  -1   8  18   14.59    2.91
  -9   5 -11   12.67    2.98
   6  -4 -14   28.19    4.21
  -2   6  18   15.32    2.47
   9  -7  -5    6.49    3.00
  -1  12  15    9.83    2.36
   6   3  19   -0.70    1.91
  -6  12  -4    3.67    2.38
   1  15  11    0.97    1.85
   9  11   9   24.50    3.44
  10   9   9    9.03    2.68
  10   9   9    8.02    2.70
  -1   3  19    7.49    2.32
  11   4  10   17.59    4.22
   6   5  19   20.54    2.38
   1  16   5    8.11    2.32
   5  15   4   33.83    3.80
  -1   4  19    0.39    1.84
   7  13  11   -1.08    2.51
   9  -8  -3   12.01    3.45
  10   9   3   10.39    2.71
   1  16   4    7.86    2.43
  -2 -11  10   19.75    2.46
   2  11 -10   16.11    3.02
   1  12  -9   -1.50    2.10
   8  11  13    8.63    2.88
  -7  -2  12    4.08    1.95
   1  -1  19   25.38    3.16
  11   1  10   11.46    2.51
  11   1  10   12.35    3.10
  -1  15  -2   10.23    2.22
  -8   6 -12    2.04    2.21
 -11  -4   0   20.53    3.14
  -8   8  -9    6.73    2.51
   9   7  15   17.12    3.07
   9  10   0    0.53    3.08
   1  16   6   12.52    2.48
  -6  -5  12    8.24    2.04
   8 -10  -3    0.26    2.54
   9   9  -2    2.93    3.42
  -3  12  13    9.00    2.46
  -9   7  -8    9.82    2.78
   9  10  12    1.32    2.33
   1   8 -14    5.22    2.52
   7   1  18   16.59    2.44
  -5   6  15   30.10    3.38
   1   9 -13   -2.47    2.23
   1  -5  17   -1.38    2.52
   1  16   3    7.94    2.33
   8  12  11   14.08    2.89
   8  -9  -6   18.35    3.37
   1  10  18   21.76    2.84
   1  10  18   21.60    2.92
  10   3  -5    1.34    2.44
   6   2  19    0.54    1.74
  10  -5   8    5.25    2.59
  -8   9  -7    9.27    2.60
  -3  15   3   18.91    3.10
  -1   5  19    0.60    2.10
   8   1  17   14.93    2.20
   7  11  -4    3.28    3.20
 -11  -3   1    7.12    2.77
   3 -10  12    1.31    1.84
  -4  -8  12    0.67    1.74
   4 -12   8    4.79    2.01
  -5  13   7   24.57    3.24
   0  16   5    3.07    1.91
  10   8   0    5.82    2.19
  -3  15   2   18.46    2.93
   5  15   3   15.97    2.96
  10   3  14   10.97    2.33
   0  -3  18   11.96    2.58
   1  16   7    9.93    2.44
  11   5  10    2.30    3.17
  -8   1  11    9.15    2.44
   4   5  20    6.00    2.13
  -9   6 -10    1.28    2.26
  10   4  14   28.29    2.94
  -4  11  13    7.13    2.19
   6  -5 -14   11.03    3.38
  -6   5  14   12.56    2.68
  10  -3  11    8.86    3.08
  11   6   9    3.03    3.54
   8   9  -5   20.40    4.31
  10   9  10   19.23    3.27
  10   9  10   20.91    3.06
 -10   0   6    9.11    2.88
   5 -11   9    8.01    2.36
   4 -11  10    3.21    2.04
   1  10 -12    4.46    2.39
  -4   7  16   21.68    3.07
   0  16   6    6.62    2.15
  -2   9  17    0.84    2.02
   0  12  16   14.05    2.67
   0  12  16   12.83    2.54
 -10   1   6   11.69    3.01
   1  16   2   -1.74    2.32
   3   9  19    8.12    2.19
  -5  -4  14    1.32    1.91
  -3  15   1   11.25    2.63
  10   9   2   14.84    2.75
  11   0  10   -0.62    2.56
  -4  -7  13   11.60    2.30
   9   7  -5   -0.43    2.33
  11   6   2    1.31    2.41
   0  15  11   10.37    2.18
  -8   0  11   19.47    2.81
   0  11  17    0.39    1.91
  -3  -9  12   21.77    2.55
  -7  11  -5   21.30    3.35
   9   6  -6    1.88    2.28
  -3  -8  13    8.29    2.15
   2   9  19    1.16    1.87
  11   3  11   31.28    3.02
  11   7   6   19.00    3.84
  -2   7  18    6.07    2.06
  10  -4  10   17.92    3.43
  -8   3  11   -0.98    2.20
   0  16   2    3.64    2.12
   5 -12   7    5.63    2.20
  10   5  14    3.91    2.28
  10   5  14    4.43    1.91
  11   7   5   24.12    3.87
   0  15  -3    2.65    2.08
  10   8  12   31.18    3.23
  11   2  11    7.67    2.31
   7  -6 -12   11.45    3.46
  11   7   7   24.93    3.70
  -1   6  19    7.56    2.49
   4   6  20   -0.18    1.95
  10   7  -2   39.25    3.72
 -11  -2   2   13.73    3.05
   1   2  20    2.38    2.19
   0  16   7   13.19    2.49
   2   1  20   16.94    3.11
   5  15   2    5.22    2.71
   7  14   6    0.60    2.32
   7  14   7    7.34    2.60
  -3 -10  11    8.65    2.08
  -1  13  -8   20.29    2.88
  11   5   0   22.94    3.22
  -9   2   9   20.43    3.33
 -11  -4   1   10.00    2.80
   7  10  -6    1.41    3.68
   9   5  -7    8.36    2.52
  -7  -3  12    3.83    1.96
  11   7   8   25.16    3.72
   8   0  17    5.32    1.92
  -1  16   4    1.55    2.34
  11   1  11    3.09    2.85
   8  12  12   11.56    2.99
  -8  -1  11   19.16    2.74
   9   8  15    4.68    2.67
  11   6  10    3.60    3.43
   7  14   8    5.03    2.70
  -1  16   3    1.69    2.05
  -6  -4  13    2.76    1.91
   1  11 -11   -0.22    2.15
   0  16   1    8.27    2.33
   9  10  13    3.78    2.59
   8  10  -4   17.10    3.88
  -8   4  11    5.42    2.63
  11   5  11    6.11    3.38
  -1  14  -6   15.78    2.77
  10  -5   9   11.44    2.95
   5   5  20   16.89    2.55
  -5  13   8    8.43    2.62
  11   6   1    4.15    2.63
  -5  -6  13    6.20    2.04
   1  -4  18    1.15    2.44
  -6   6  14    4.84    2.40
   6  -6 -14    6.37    3.08
 -11  -3   2   16.16    3.05
  10  10   8    4.25    2.63
  11  -1  10   -1.66    2.70
  11   7   3    7.11    2.65
  10   8  -1    2.68    2.45
  -9   3   9   21.43    3.41
   1   1  20    7.84    2.58
   0  16   8    4.30    2.00
  -8   9  -8    4.73    2.36
   2  11  18   24.36    2.85
  -9   5 -12    8.63    2.74
   1  14  -6   -1.47    2.06
   4   7  20   -1.10    1.93
  11   7   9    2.36    3.21
   5   6  20   18.69    2.61
  11   0  11    5.98    3.09
   1  12  17   -0.98    2.07
  11   3  12   20.51    2.79
  -2   8  18    0.41    2.25
  -3  11  15    0.85    2.13
   0  16   0    2.34    2.40
  11   7   2    6.22    2.56
  11   6  11    2.79    3.79
  11   5  -1    0.21    2.65
   7  -7 -12   11.18    3.30
   8  13  10    8.17    2.86
   6  15   4   13.87    3.08
  -5  14  -1    4.05    2.53
  11   6   0    2.71    2.70
  10   7  -3   32.99    3.54
   1  12 -10    0.67    2.25
  10   5  15    6.31    2.16
   9  10  -2    7.76    3.70
  -5  13   9    5.33    2.39
  11   8   4    2.78    2.60
   0   0   0    0.00    0.00

_computing_structure_solution     'SHELXT 2014/5 (Sheldrick, 2014)'
;
_shelx_hkl_checksum              14585
loop_
_space_group_symop_id
_space_group_symop_operation_xyz
1 +X,+Y,+Z
2 -X,-Y,-Z
loop_
_atom_site_label
_atom_site_type_symbol
_atom_site_fract_x
_atom_site_fract_y
_atom_site_fract_z
_atom_site_U_iso_or_equiv
_atom_site_adp_type
_atom_site_occupancy
_atom_site_site_symmetry_order
_atom_site_calc_flag
_atom_site_refinement_flags_posn
_atom_site_refinement_flags_adp
_atom_site_refinement_flags_occupancy
_atom_site_disorder_assembly
_atom_site_disorder_group
Zn1 Zn 0.37871(2) 0.08593(2) 0.45931(2) 0.02516(9) Uani 1 1 d . . . . .
O1 O 0.7015(2) 0.07443(13) 0.53177(11) 0.0423(4) Uani 1 1 d . . . . .
O2 O 0.51917(19) 0.20703(14) 0.47412(12) 0.0437(4) Uani 1 1 d . . . . .
O3 O 0.2420(2) 0.08579(18) 0.59155(11) 0.0550(5) Uani 1 1 d . . . . .
O4 O 0.4250(2) -0.04696(19) 0.64589(12) 0.0582(5) Uani 1 1 d . . . . .
C1 C 0.6482(2) 0.17766(18) 0.50378(14) 0.0337(4) Uani 1 1 d . . . . .
C2 C 0.7502(2) 0.27396(17) 0.50499(14) 0.0340(4) Uani 1 1 d . . . . .
C3 C 0.7034(4) 0.3900(2) 0.4768(3) 0.0786(11) Uani 1 1 d . . . . .
H3 H 0.6050 0.4097 0.4579 0.094 Uiso 1 1 calc R U . . .
C4 C 0.7995(4) 0.4775(2) 0.4758(3) 0.0837(13) Uani 1 1 d . . . . .
H4 H 0.7639 0.5551 0.4570 0.100 Uiso 1 1 calc R U . . .
C5 C 0.9469(2) 0.45266(18) 0.50215(15) 0.0361(4) Uani 1 1 d . . . . .
C6 C 0.9908(3) 0.3368(2) 0.5324(2) 0.0573(7) Uani 1 1 d . . . . .
H6 H 1.0884 0.3168 0.5523 0.069 Uiso 1 1 calc R U . . .
C7 C 0.8940(3) 0.2489(2) 0.5343(2) 0.0529(7) Uani 1 1 d . . . . .
H7 H 0.9271 0.1713 0.5559 0.063 Uiso 1 1 calc R U . . .
C8 C 0.2979(3) 0.0171(2) 0.65750(15) 0.0455(6) Uani 1 1 d . . . . .
C9 C 0.2063(3) 0.0110(2) 0.75889(14) 0.0396(5) Uani 1 1 d . . . . .
C10 C 0.0758(3) 0.0872(2) 0.78005(16) 0.0500(6) Uani 1 1 d . . . . .
H10 H 0.0410 0.1421 0.7310 0.060 Uiso 1 1 calc R U . . .
C11 C -0.0044(3) 0.0828(2) 0.87389(16) 0.0500(6) Uani 1 1 d . . . . .
H11 H -0.0919 0.1355 0.8867 0.060 Uiso 1 1 calc R U . . .
C12 C 0.0425(3) 0.0016(2) 0.94934(13) 0.0374(4) Uani 1 1 d . . . . .
C13 C 0.1730(3) -0.0767(2) 0.92643(16) 0.0488(6) Uani 1 1 d . . . . .
H13 H 0.2064 -0.1333 0.9750 0.059 Uiso 1 1 calc R U . . .
C14 C 0.2532(3) -0.0716(2) 0.83310(17) 0.0495(6) Uani 1 1 d . . . . .
H14 H 0.3402 -0.1245 0.8197 0.059 Uiso 1 1 calc R U . . .
N1 N 0.2818(7) 0.1740(6) 0.3483(4) 0.0313(11) Uani 0.488(2) 1 d . . P A 1
C15 C 0.1654(11) 0.1317(10) 0.3202(6) 0.0481(18) Uani 0.488(2) 1 d . . P A 1
H15 H 0.1110 0.0684 0.3612 0.058 Uiso 0.488(2) 1 calc R U P A 1
C16 C 0.1223(8) 0.1762(5) 0.2348(4) 0.0589(16) Uani 0.488(2) 1 d . . P A 1
H16 H 0.0343 0.1479 0.2212 0.071 Uiso 0.488(2) 1 calc R U P A 1
C17 C 0.2093(7) 0.2633(5) 0.1683(4) 0.0523(12) Uani 0.488(2) 1 d . . P A 1
C18 C 0.3364(8) 0.3030(5) 0.1933(4) 0.0618(16) Uani 0.488(2) 1 d . . P A 1
H18 H 0.4011 0.3596 0.1503 0.074 Uiso 0.488(2) 1 calc R U P A 1
C19 C 0.3662(8) 0.2572(5) 0.2830(4) 0.0569(15) Uani 0.488(2) 1 d . . P A 1
H19 H 0.4509 0.2862 0.2994 0.068 Uiso 0.488(2) 1 calc R U P A 1
C20 C 0.1646(8) 0.3095(6) 0.0746(4) 0.0624(15) Uani 0.488(2) 1 d . . P A 1
H20 H 0.0909 0.2691 0.0583 0.075 Uiso 0.488(2) 1 calc R U P A 1
C21 C 0.2224(8) 0.4046(6) 0.0123(4) 0.0623(15) Uani 0.488(2) 1 d D . P A 1
H21 H 0.2957 0.4441 0.0298 0.075 Uiso 0.488(2) 1 calc R U P A 1
C22 C 0.1822(13) 0.4543(7) -0.0818(5) 0.054(4) Uani 0.488(2) 1 d D . P A 1
C23 C 0.0759(10) 0.4028(7) -0.1163(5) 0.079(2) Uani 0.488(2) 1 d D . P A 1
H23 H 0.0291 0.3336 -0.0811 0.094 Uiso 0.488(2) 1 calc R U P A 1
C24 C 0.0403(10) 0.4570(7) -0.2053(5) 0.082(2) Uani 0.488(2) 1 d D . P A 1
H24 H -0.0305 0.4227 -0.2291 0.098 Uiso 0.488(2) 1 calc R U P A 1
C25 C 0.1067(10) 0.5581(7) -0.2574(4) 0.081(2) Uani 0.488(2) 1 d D . P A 1
H25 H 0.0815 0.5927 -0.3162 0.097 Uiso 0.488(2) 1 calc R U P A 1
C26 C 0.2117(10) 0.6093(7) -0.2226(5) 0.083(2) Uani 0.488(2) 1 d D . P A 1
H26 H 0.2583 0.6785 -0.2579 0.099 Uiso 0.488(2) 1 calc R U P A 1
C27 C 0.2468(9) 0.5577(6) -0.1357(5) 0.0757(19) Uani 0.488(2) 1 d D . P A 1
H27 H 0.3164 0.5934 -0.1122 0.091 Uiso 0.488(2) 1 calc R U P A 1
N2 N 0.2329(7) 0.1821(6) 0.3754(4) 0.0358(12) Uani 0.512(2) 1 d . . P A 2
C28 C 0.1117(12) 0.1366(10) 0.3538(8) 0.065(2) Uani 0.512(2) 1 d . . P A 2
H28 H 0.0946 0.0578 0.3799 0.078 Uiso 0.512(2) 1 calc R U P A 2
C29 C 0.0118(9) 0.1969(6) 0.2970(6) 0.080(2) Uani 0.512(2) 1 d . . P A 2
H29 H -0.0730 0.1604 0.2875 0.096 Uiso 0.512(2) 1 calc R U P A 2
C30 C 0.0363(7) 0.3091(5) 0.2546(4) 0.0577(13) Uani 0.512(2) 1 d . . P A 2
C31 C 0.1556(9) 0.3597(5) 0.2771(5) 0.075(2) Uani 0.512(2) 1 d . . P A 2
H31 H 0.1738 0.4385 0.2522 0.090 Uiso 0.512(2) 1 calc R U P A 2
C32 C 0.2491(8) 0.2912(5) 0.3378(5) 0.0658(17) Uani 0.512(2) 1 d . . P A 2
H32 H 0.3295 0.3273 0.3522 0.079 Uiso 0.512(2) 1 calc R U P A 2
C33 C -0.0688(9) 0.3758(6) 0.1892(5) 0.0707(18) Uani 0.512(2) 1 d . . P A 2
H33 H -0.1439 0.3334 0.1761 0.085 Uiso 0.512(2) 1 calc R U P A 2
C34 C -0.0666(8) 0.4865(6) 0.1485(5) 0.0693(16) Uani 0.512(2) 1 d . . P A 2
H34 H 0.0055 0.5293 0.1638 0.083 Uiso 0.512(2) 1 calc R U P A 2
C36 C -0.2652(7) 0.4976(4) 0.0447(4) 0.081(2) Uani 0.512(2) 1 d G . P A 2
H36 H -0.2707 0.4166 0.0614 0.097 Uiso 0.512(2) 1 calc R U P A 2
C37 C -0.3578(6) 0.5645(5) -0.0172(4) 0.097(3) Uani 0.512(2) 1 d G . P A 2
H37 H -0.4253 0.5284 -0.0419 0.116 Uiso 0.512(2) 1 calc R U P A 2
C38 C -0.3496(7) 0.6855(5) -0.0422(4) 0.105(3) Uani 0.512(2) 1 d G . P A 2
H38 H -0.4116 0.7303 -0.0837 0.126 Uiso 0.512(2) 1 calc R U P A 2
C39 C -0.2488(8) 0.7395(4) -0.0054(4) 0.114(3) Uani 0.512(2) 1 d G . P A 2
H39 H -0.2433 0.8204 -0.0221 0.137 Uiso 0.512(2) 1 calc R U P A 2
C40 C -0.1561(8) 0.6725(5) 0.0565(4) 0.091(2) Uani 0.512(2) 1 d G . P A 2
H40 H -0.0886 0.7086 0.0812 0.110 Uiso 0.512(2) 1 calc R U P A 2
C35 C -0.1644(8) 0.5516(4) 0.0816(4) 0.077(6) Uani 0.512(2) 1 d G . P A 2
C44 C 0.5339(19) -0.2216(14) 1.2472(10) 0.157(5) Uani 0.488(2) 1 d D U P A 1
H44A H 0.6444 -0.2132 1.2129 0.235 Uiso 0.488(2) 1 calc R U P A 1
H44B H 0.5313 -0.2687 1.3102 0.235 Uiso 0.488(2) 1 calc R U P A 1
H44C H 0.4827 -0.1458 1.2516 0.235 Uiso 0.488(2) 1 calc R U P A 1
N3 N 0.4503(10) -0.2225(8) 1.0997(8) 0.177(5) Uani 0.488(2) 1 d D U P A 1
C41 C 0.5454(16) -0.1161(9) 1.0520(10) 0.169(6) Uani 0.488(2) 1 d D . P A 1
H41A H 0.6569 -0.1337 1.0561 0.254 Uiso 0.488(2) 1 calc R U P A 1
H41B H 0.5020 -0.0533 1.0833 0.254 Uiso 0.488(2) 1 calc R U P A 1
H41C H 0.5381 -0.0932 0.9861 0.254 Uiso 0.488(2) 1 calc R U P A 1
C42 C 0.3653(11) -0.2923(7) 1.0632(7) 0.093(3) Uani 0.488(2) 1 d D . P A 1
H42A H 0.2523 -0.2676 1.0740 0.140 Uiso 0.488(2) 1 calc DR U P A 1
H42B H 0.3779 -0.3728 1.0950 0.140 Uiso 0.488(2) 1 calc R U P A 1
H42C H 0.4081 -0.2838 0.9959 0.140 Uiso 0.488(2) 1 calc R U P A 1
C43 C 0.4495(13) -0.2765(9) 1.1978(8) 0.104(3) Uani 0.488(2) 1 d D U P A 1
O5 O 0.3435(18) -0.3493(13) 1.2338(10) 0.215(5) Uani 0.488(2) 1 d D U P A 1
C48 C 0.5849(11) -0.2944(10) 1.2950(7) 0.102(3) Uani 0.512(2) 1 d D U P A 2
H48A H 0.6803 -0.2747 1.2459 0.153 Uiso 0.512(2) 1 calc R U P A 2
H48B H 0.6119 -0.3575 1.3444 0.153 Uiso 0.512(2) 1 calc R U P A 2
H48C H 0.5435 -0.2274 1.3214 0.153 Uiso 0.512(2) 1 calc R U P A 2
N4 N 0.3881(10) -0.2351(7) 1.1954(7) 0.179(6) Uani 0.512(2) 1 d D U P A 2
C45 C 0.4249(13) -0.1148(7) 1.1891(9) 0.143(5) Uani 0.512(2) 1 d D . P A 2
H45A H 0.3806 -0.0632 1.1391 0.214 Uiso 0.512(2) 1 calc R U P A 2
H45B H 0.5403 -0.1089 1.1753 0.214 Uiso 0.512(2) 1 calc R U P A 2
H45C H 0.3779 -0.0931 1.2488 0.214 Uiso 0.512(2) 1 calc R U P A 2
C46 C 0.2804(10) -0.2848(6) 1.1571(8) 0.105(4) Uani 0.512(2) 1 d D . P A 2
H46A H 0.1721 -0.2782 1.1942 0.158 Uiso 0.512(2) 1 calc DR U P A 2
H46B H 0.3125 -0.3658 1.1591 0.158 Uiso 0.512(2) 1 calc R U P A 2
H46C H 0.2838 -0.2440 1.0921 0.158 Uiso 0.512(2) 1 calc R U P A 2
C47 C 0.4616(10) -0.3300(6) 1.2542(7) 0.083(2) Uani 0.512(2) 1 d D U P A 2
O6 O 0.4214(13) -0.4397(7) 1.2673(8) 0.162(4) Uani 0.512(2) 1 d D U P A 2
loop_
_atom_site_aniso_label
_atom_site_aniso_U_11
_atom_site_aniso_U_22
_atom_site_aniso_U_33
_atom_site_aniso_U_23
_atom_site_aniso_U_13
_atom_site_aniso_U_12
Zn1 0.02680(13) 0.02684(13) 0.02247(12) -0.00586(8) -0.00382(8) -0.00641(8)
O1 0.0551(9) 0.0306(8) 0.0463(8) -0.0042(6) -0.0185(7) -0.0173(7)
O2 0.0410(8) 0.0368(8) 0.0601(10) -0.0124(7) -0.0174(7) -0.0141(6)
O3 0.0617(11) 0.0733(12) 0.0272(8) -0.0156(8) 0.0078(7) -0.0189(9)
O4 0.0418(9) 0.0966(15) 0.0370(9) -0.0311(9) 0.0106(7) -0.0129(10)
C1 0.0383(10) 0.0339(10) 0.0315(9) -0.0088(8) -0.0051(8) -0.0141(8)
C2 0.0367(10) 0.0298(10) 0.0383(10) -0.0075(8) -0.0093(8) -0.0119(8)
C3 0.0692(18) 0.0348(13) 0.149(3) 0.0017(16) -0.074(2) -0.0151(12)
C4 0.080(2) 0.0274(12) 0.160(4) 0.0083(16) -0.083(2) -0.0150(13)
C5 0.0359(10) 0.0298(10) 0.0457(11) -0.0070(8) -0.0120(8) -0.0113(8)
C6 0.0410(12) 0.0321(11) 0.109(2) -0.0120(13) -0.0379(14) -0.0068(10)
C7 0.0462(13) 0.0256(10) 0.094(2) -0.0093(11) -0.0303(13) -0.0067(9)
C8 0.0444(12) 0.0669(16) 0.0287(10) -0.0212(10) 0.0080(9) -0.0292(11)
C9 0.0393(11) 0.0537(13) 0.0260(9) -0.0148(9) 0.0046(8) -0.0161(9)
C10 0.0562(14) 0.0610(15) 0.0268(10) -0.0073(10) -0.0008(9) -0.0006(12)
C11 0.0521(14) 0.0605(15) 0.0290(10) -0.0094(10) 0.0007(9) 0.0119(11)
C12 0.0361(10) 0.0492(12) 0.0243(9) -0.0101(8) 0.0004(8) -0.0012(9)
C13 0.0461(13) 0.0629(15) 0.0310(11) -0.0105(10) -0.0011(9) 0.0096(11)
C14 0.0394(12) 0.0693(17) 0.0380(12) -0.0215(11) 0.0011(9) 0.0062(11)
N1 0.030(3) 0.036(2) 0.026(3) -0.003(2) -0.007(2) -0.001(2)
C15 0.044(5) 0.052(4) 0.049(4) -0.004(3) -0.019(3) -0.003(4)
C16 0.067(4) 0.053(3) 0.064(4) 0.007(3) -0.041(3) -0.023(3)
C17 0.058(3) 0.052(3) 0.047(3) 0.000(2) -0.021(2) -0.007(2)
C18 0.072(4) 0.059(3) 0.054(3) 0.017(3) -0.031(3) -0.026(3)
C19 0.065(4) 0.053(3) 0.055(3) 0.010(3) -0.029(3) -0.026(3)
C20 0.079(4) 0.064(4) 0.049(3) -0.002(3) -0.032(3) -0.009(3)
C21 0.066(4) 0.069(4) 0.053(3) 0.002(3) -0.027(3) -0.013(3)
C22 0.065(6) 0.063(9) 0.034(5) -0.003(5) -0.019(5) 0.004(5)
C23 0.111(6) 0.073(5) 0.061(4) -0.002(3) -0.044(4) -0.015(4)
C24 0.103(6) 0.095(6) 0.060(4) -0.017(4) -0.043(4) -0.004(4)
C25 0.097(5) 0.100(6) 0.039(3) 0.000(3) -0.026(3) 0.005(4)
C26 0.080(5) 0.094(6) 0.060(4) 0.011(4) -0.019(4) -0.003(4)
C27 0.074(4) 0.079(5) 0.069(4) 0.011(3) -0.028(3) -0.012(3)
N2 0.033(3) 0.043(2) 0.030(3) -0.011(2) -0.0007(19) -0.001(2)
C28 0.065(6) 0.049(4) 0.090(8) -0.007(5) -0.045(5) 0.001(4)
C29 0.076(4) 0.073(4) 0.097(5) 0.006(4) -0.049(4) -0.025(4)
C30 0.056(3) 0.061(3) 0.056(3) -0.006(2) -0.018(2) -0.006(2)
C31 0.091(5) 0.051(3) 0.088(4) 0.015(3) -0.052(4) -0.019(3)
C32 0.078(4) 0.052(3) 0.076(4) 0.002(3) -0.044(4) -0.017(3)
C33 0.074(4) 0.068(4) 0.071(4) 0.007(3) -0.037(3) -0.012(3)
C34 0.072(4) 0.072(4) 0.068(4) -0.008(3) -0.031(3) -0.002(3)
C36 0.070(4) 0.097(5) 0.067(4) 0.010(4) -0.024(3) -0.012(4)
C37 0.071(4) 0.119(7) 0.093(5) 0.012(5) -0.042(4) -0.001(4)
C38 0.096(6) 0.122(7) 0.086(5) 0.001(5) -0.039(5) 0.033(5)
C39 0.158(9) 0.080(5) 0.110(7) -0.012(5) -0.070(7) 0.036(6)
C40 0.115(6) 0.081(5) 0.088(5) -0.022(4) -0.049(5) 0.019(4)
C35 0.069(8) 0.080(12) 0.076(10) -0.001(8) -0.023(7) 0.003(7)
C44 0.186(13) 0.173(13) 0.123(10) -0.045(9) -0.019(9) -0.058(11)
N3 0.100(6) 0.140(8) 0.223(12) 0.021(8) 0.013(7) 0.039(6)
C41 0.172(14) 0.117(10) 0.179(14) 0.025(9) -0.012(11) -0.022(9)
C42 0.103(6) 0.083(5) 0.121(7) -0.042(5) -0.065(6) 0.012(5)
C43 0.097(6) 0.057(5) 0.157(9) -0.033(5) -0.002(6) -0.038(5)
O5 0.254(14) 0.215(12) 0.212(11) -0.106(10) -0.056(10) -0.030(12)
C48 0.092(6) 0.132(9) 0.104(7) -0.042(6) -0.044(5) -0.011(6)
N4 0.123(8) 0.116(8) 0.224(12) 0.032(8) 0.018(7) 0.040(6)
C45 0.114(8) 0.060(5) 0.252(16) -0.013(7) -0.056(9) -0.013(5)
C46 0.089(5) 0.060(4) 0.198(11) -0.016(5) -0.110(7) 0.008(4)
C47 0.072(4) 0.061(5) 0.125(7) -0.023(4) -0.040(5) 0.000(4)
O6 0.181(9) 0.115(7) 0.185(8) -0.045(6) -0.008(7) -0.030(6)
loop_
_atom_type_symbol
_atom_type_description
_atom_type_scat_dispersion_real
_atom_type_scat_dispersion_imag
_atom_type_scat_source
C C 0.0033 0.0016
;
International Tables for Crystallography
(Vol. C, Tables 4.2.6.8 and 6.1.1.4)
;
H H 0.0000 0.0000
;
International Tables for Crystallography
(Vol. C, Table 6.1.1.4)
;
N N 0.0061 0.0033
;
International Tables for Crystallography
(Vol. C, Tables 4.2.6.8 and 6.1.1.4)
;
O O 0.0106 0.0060
;
International Tables for Crystallography
(Vol. C, Tables 4.2.6.8 and 6.1.1.4)
;
Zn Zn 0.2839 1.4301
;
International Tables for Crystallography
(Vol. C, Tables 4.2.6.8 and 6.1.1.4)
;
loop_
_geom_angle_atom_site_label_1
_geom_angle_atom_site_label_2
_geom_angle_atom_site_label_3
_geom_angle
_geom_angle_site_symmetry_1
_geom_angle_site_symmetry_3
N1 Zn1 O3 116.48(16) . .
N2 Zn1 O3 101.60(15) . .
N1 Zn1 O2 101.9(2) . .
N2 Zn1 O2 103.2(2) . .
O3 Zn1 O2 89.91(7) . .
N1 Zn1 O1 97.3(2) . 2_656
N2 Zn1 O1 97.5(2) . 2_656
O3 Zn1 O1 89.12(7) . 2_656
O2 Zn1 O1 158.98(7) . 2_656
N1 Zn1 O4 84.83(16) . 2_656
N2 Zn1 O4 99.70(14) . 2_656
O3 Zn1 O4 158.68(9) . 2_656
O2 Zn1 O4 86.06(7) . 2_656
O1 Zn1 O4 87.26(7) 2_656 2_656
N1 Zn1 Zn1 151.45(15) . 2_656
N2 Zn1 Zn1 165.17(15) . 2_656
O3 Zn1 Zn1 91.17(6) . 2_656
O2 Zn1 Zn1 84.11(5) . 2_656
O1 Zn1 Zn1 74.92(5) 2_656 2_656
O4 Zn1 Zn1 67.60(6) 2_656 2_656
C1 O1 Zn1 133.42(14) . 2_656
C1 O2 Zn1 121.55(14) . .
C8 O3 Zn1 113.75(16) . .
C8 O4 Zn1 142.15(17) . 2_656
O2 C1 O1 125.91(18) . .
O2 C1 C2 117.51(18) . .
O1 C1 C2 116.57(18) . .
C7 C2 C3 117.41(19) . .
C7 C2 C1 120.92(19) . .
C3 C2 C1 121.66(19) . .
C2 C3 C4 121.3(2) . .
C2 C3 H3 119.4 . .
C4 C3 H3 119.4 . .
C5 C4 C3 121.6(2) . .
C5 C4 H4 119.2 . .
C3 C4 H4 119.2 . .
C6 C5 C4 116.8(2) . .
C6 C5 C5 121.8(2) . 2_766
C4 C5 C5 121.4(2) . 2_766
C5 C6 C7 121.7(2) . .
C5 C6 H6 119.1 . .
C7 C6 H6 119.1 . .
C2 C7 C6 121.2(2) . .
C2 C7 H7 119.4 . .
C6 C7 H7 119.4 . .
O4 C8 O3 125.2(2) . .
O4 C8 C9 116.7(2) . .
O3 C8 C9 118.1(2) . .
C10 C9 C14 118.58(19) . .
C10 C9 C8 121.1(2) . .
C14 C9 C8 120.3(2) . .
C9 C10 C11 120.5(2) . .
C9 C10 H10 119.8 . .
C11 C10 H10 119.8 . .
C10 C11 C12 121.7(2) . .
C10 C11 H11 119.1 . .
C12 C11 H11 119.1 . .
C11 C12 C13 117.04(19) . .
C11 C12 C12 121.6(2) . 2_557
C13 C12 C12 121.4(3) . 2_557
C14 C13 C12 121.1(2) . .
C14 C13 H13 119.4 . .
C12 C13 H13 119.4 . .
C13 C14 C9 121.0(2) . .
C13 C14 H14 119.5 . .
C9 C14 H14 119.5 . .
C19 N1 C15 115.6(7) . .
C19 N1 Zn1 118.6(5) . .
C15 N1 Zn1 122.6(6) . .
N1 C15 C16 123.6(8) . .
N1 C15 H15 118.2 . .
C16 C15 H15 118.2 . .
C15 C16 C17 120.0(6) . .
C15 C16 H16 120.0 . .
C17 C16 H16 120.0 . .
C18 C17 C16 117.3(5) . .
C18 C17 C20 122.8(5) . .
C16 C17 C20 119.9(5) . .
C17 C18 C19 118.8(5) . .
C17 C18 H18 120.6 . .
C19 C18 H18 120.6 . .
N1 C19 C18 124.5(5) . .
N1 C19 H19 117.7 . .
C18 C19 H19 117.7 . .
C21 C20 C17 124.5(5) . .
C21 C20 H20 117.7 . .
C17 C20 H20 117.7 . .
C20 C21 C22 126.7(6) . .
C20 C21 H21 116.6 . .
C22 C21 H21 116.6 . .
C27 C22 C23 118.7(6) . .
C27 C22 C21 119.2(8) . .
C23 C22 C21 122.1(7) . .
C22 C23 C24 118.7(7) . .
C22 C23 H23 120.6 . .
C24 C23 H23 120.6 . .
C25 C24 C23 121.5(7) . .
C25 C24 H24 119.3 . .
C23 C24 H24 119.3 . .
C24 C25 C26 119.6(6) . .
C24 C25 H25 120.2 . .
C26 C25 H25 120.2 . .
C27 C26 C25 119.5(7) . .
C27 C26 H26 120.2 . .
C25 C26 H26 120.2 . .
C26 C27 C22 122.0(7) . .
C26 C27 H27 119.0 . .
C22 C27 H27 119.0 . .
C32 N2 C28 114.3(8) . .
C32 N2 Zn1 122.9(5) . .
C28 N2 Zn1 122.7(7) . .
N2 C28 C29 125.0(10) . .
N2 C28 H28 117.5 . .
C29 C28 H28 117.5 . .
C30 C29 C28 119.6(7) . .
C30 C29 H29 120.2 . .
C28 C29 H29 120.2 . .
C29 C30 C31 117.1(5) . .
C29 C30 C33 120.4(5) . .
C31 C30 C33 122.4(6) . .
C30 C31 C32 118.9(6) . .
C30 C31 H31 120.6 . .
C32 C31 H31 120.6 . .
N2 C32 C31 124.9(6) . .
N2 C32 H32 117.5 . .
C31 C32 H32 117.5 . .
C34 C33 C30 127.2(6) . .
C34 C33 H33 116.4 . .
C30 C33 H33 116.4 . .
C33 C34 C35 127.6(6) . .
C33 C34 H34 116.2 . .
C35 C34 H34 116.2 . .
C37 C36 C35 120.0 . .
C37 C36 H36 120.0 . .
C35 C36 H36 120.0 . .
C36 C37 C38 120.0 . .
C36 C37 H37 120.0 . .
C38 C37 H37 120.0 . .
C39 C38 C37 120.0 . .
C39 C38 H38 120.0 . .
C37 C38 H38 120.0 . .
C38 C39 C40 120.0 . .
C38 C39 H39 120.0 . .
C40 C39 H39 120.0 . .
C35 C40 C39 120.0 . .
C35 C40 H40 120.0 . .
C39 C40 H40 120.0 . .
C40 C35 C36 120.0 . .
C40 C35 C34 117.3(4) . .
C36 C35 C34 122.7(4) . .
C43 C44 H44A 109.5 . .
C43 C44 H44B 109.5 . .
H44A C44 H44B 109.5 . .
C43 C44 H44C 109.5 . .
H44A C44 H44C 109.5 . .
H44B C44 H44C 109.5 . .
C42 N3 C43 108.5(8) . .
C42 N3 C41 131.5(11) . .
C43 N3 C41 119.7(9) . .
N3 C41 H41A 109.5 . .
N3 C41 H41B 109.5 . .
H41A C41 H41B 109.5 . .
N3 C41 H41C 109.5 . .
H41A C41 H41C 109.5 . .
H41B C41 H41C 109.5 . .
N3 C42 H42A 109.5 . .
N3 C42 H42B 109.5 . .
H42A C42 H42B 109.5 . .
N3 C42 H42C 109.5 . .
H42A C42 H42C 109.5 . .
H42B C42 H42C 109.5 . .
O5 C43 C44 127.2(13) . .
O5 C43 N3 113.2(11) . .
C44 C43 N3 117.4(10) . .
C47 C48 H48A 109.5 . .
C47 C48 H48B 109.5 . .
H48A C48 H48B 109.5 . .
C47 C48 H48C 109.5 . .
H48A C48 H48C 109.5 . .
H48B C48 H48C 109.5 . .
C46 N4 C47 106.4(7) . .
C46 N4 C45 133.3(8) . .
C47 N4 C45 120.2(9) . .
N4 C45 H45A 109.5 . .
N4 C45 H45B 109.5 . .
H45A C45 H45B 109.5 . .
N4 C45 H45C 109.5 . .
H45A C45 H45C 109.5 . .
H45B C45 H45C 109.5 . .
N4 C46 H46A 109.5 . .
N4 C46 H46B 109.5 . .
H46A C46 H46B 109.5 . .
N4 C46 H46C 109.5 . .
H46A C46 H46C 109.5 . .
H46B C46 H46C 109.5 . .
O6 C47 N4 121.7(9) . .
O6 C47 C48 124.8(9) . .
N4 C47 C48 113.5(8) . .
loop_
_geom_bond_atom_site_label_1
_geom_bond_atom_site_label_2
_geom_bond_distance
_geom_bond_site_symmetry_2
Zn1 N1 2.018(7) .
Zn1 N2 2.023(7) .
Zn1 O3 2.0249(15) .
Zn1 O2 2.0351(14) .
Zn1 O1 2.0419(14) 2_656
Zn1 O4 2.0906(16) 2_656
Zn1 Zn1 2.9795(4) 2_656
O1 C1 1.259(3) .
O1 Zn1 2.0418(14) 2_656
O2 C1 1.257(3) .
O3 C8 1.259(3) .
O4 C8 1.250(3) .
O4 Zn1 2.0906(16) 2_656
C1 C2 1.506(3) .
C2 C7 1.367(3) .
C2 C3 1.374(3) .
C3 C4 1.378(3) .
C3 H3 0.9300 .
C4 C5 1.376(3) .
C4 H4 0.9300 .
C5 C6 1.372(3) .
C5 C5 1.489(4) 2_766
C6 C7 1.382(3) .
C6 H6 0.9300 .
C7 H7 0.9300 .
C8 C9 1.506(3) .
C9 C10 1.375(4) .
C9 C14 1.384(4) .
C10 C11 1.385(3) .
C10 H10 0.9300 .
C11 C12 1.389(3) .
C11 H11 0.9300 .
C12 C13 1.396(3) .
C12 C12 1.495(4) 2_557
C13 C14 1.377(3) .
C13 H13 0.9300 .
C14 H14 0.9300 .
N1 C19 1.334(8) .
N1 C15 1.338(13) .
C15 C16 1.362(12) .
C15 H15 0.9300 .
C16 C17 1.381(7) .
C16 H16 0.9300 .
C17 C18 1.376(7) .
C17 C20 1.481(7) .
C18 C19 1.377(7) .
C18 H18 0.9300 .
C19 H19 0.9300 .
C20 C21 1.326(8) .
C20 H20 0.9300 .
C21 C22 1.476(8) .
C21 H21 0.9300 .
C22 C27 1.377(10) .
C22 C23 1.385(10) .
C23 C24 1.403(8) .
C23 H23 0.9300 .
C24 C25 1.355(9) .
C24 H24 0.9300 .
C25 C26 1.377(10) .
C25 H25 0.9300 .
C26 C27 1.368(8) .
C26 H26 0.9300 .
C27 H27 0.9300 .
N2 C32 1.282(9) .
N2 C28 1.341(13) .
C28 C29 1.358(13) .
C28 H28 0.9300 .
C29 C30 1.336(8) .
C29 H29 0.9300 .
C30 C31 1.368(8) .
C30 C33 1.495(8) .
C31 C32 1.389(8) .
C31 H31 0.9300 .
C32 H32 0.9300 .
C33 C34 1.300(9) .
C33 H33 0.9300 .
C34 C35 1.461(7) .
C34 H34 0.9300 .
C36 C37 1.3900 .
C36 C35 1.3900 .
C36 H36 0.9300 .
C37 C38 1.3900 .
C37 H37 0.9300 .
C38 C39 1.3900 .
C38 H38 0.9300 .
C39 C40 1.3900 .
C39 H39 0.9300 .
C40 C35 1.3900 .
C40 H40 0.9300 .
C44 C43 1.424(13) .
C44 H44A 0.9600 .
C44 H44B 0.9600 .
C44 H44C 0.9600 .
N3 C42 1.417(8) .
N3 C43 1.435(9) .
N3 C41 1.500(8) .
C41 H41A 0.9600 .
C41 H41B 0.9600 .
C41 H41C 0.9600 .
C42 H42A 0.9600 .
C42 H42B 0.9600 .
C42 H42C 0.9600 .
C43 O5 1.247(13) .
C48 C47 1.463(9) .
C48 H48A 0.9600 .
C48 H48B 0.9600 .
C48 H48C 0.9600 .
N4 C46 1.418(8) .
N4 C47 1.426(8) .
N4 C45 1.461(8) .
C45 H45A 0.9600 .
C45 H45B 0.9600 .
C45 H45C 0.9600 .
C46 H46A 0.9600 .
C46 H46B 0.9600 .
C46 H46C 0.9600 .
C47 O6 1.330(8) .
loop_
_geom_torsion_atom_site_label_1
_geom_torsion_atom_site_label_2
_geom_torsion_atom_site_label_3
_geom_torsion_atom_site_label_4
_geom_torsion
_geom_torsion_site_symmetry_1
_geom_torsion_site_symmetry_4
Zn1 O2 C1 O1 -3.8(3) . .
Zn1 O2 C1 C2 175.34(13) . .
Zn1 O1 C1 O2 1.7(3) 2_656 .
Zn1 O1 C1 C2 -177.40(13) 2_656 .
O2 C1 C2 C7 -178.6(2) . .
O1 C1 C2 C7 0.6(3) . .
O2 C1 C2 C3 1.3(3) . .
O1 C1 C2 C3 -179.5(3) . .
C7 C2 C3 C4 1.5(5) . .
C1 C2 C3 C4 -178.4(3) . .
C2 C3 C4 C5 0.7(6) . .
C3 C4 C5 C6 -2.2(6) . .
C3 C4 C5 C5 177.8(3) . 2_766
C4 C5 C6 C7 1.6(5) . .
C5 C5 C6 C7 -178.5(3) 2_766 .
C3 C2 C7 C6 -2.2(4) . .
C1 C2 C7 C6 177.7(2) . .
C5 C6 C7 C2 0.6(5) . .
Zn1 O4 C8 O3 4.4(4) 2_656 .
Zn1 O4 C8 C9 -175.20(17) 2_656 .
Zn1 O3 C8 O4 -0.2(3) . .
Zn1 O3 C8 C9 179.42(14) . .
O4 C8 C9 C10 172.5(2) . .
O3 C8 C9 C10 -7.1(3) . .
O4 C8 C9 C14 -7.0(3) . .
O3 C8 C9 C14 173.3(2) . .
C14 C9 C10 C11 1.4(4) . .
C8 C9 C10 C11 -178.1(2) . .
C9 C10 C11 C12 -0.5(4) . .
C10 C11 C12 C13 -0.9(4) . .
C10 C11 C12 C12 179.0(3) . 2_557
C11 C12 C13 C14 1.3(4) . .
C12 C12 C13 C14 -178.6(3) 2_557 .
C12 C13 C14 C9 -0.4(4) . .
C10 C9 C14 C13 -1.0(4) . .
C8 C9 C14 C13 178.6(2) . .
C19 N1 C15 C16 -6.2(12) . .
Zn1 N1 C15 C16 -165.6(7) . .
N1 C15 C16 C17 5.6(13) . .
C15 C16 C17 C18 -1.1(11) . .
C15 C16 C17 C20 178.5(7) . .
C16 C17 C18 C19 -2.2(10) . .
C20 C17 C18 C19 178.2(6) . .
C15 N1 C19 C18 2.6(11) . .
Zn1 N1 C19 C18 162.8(6) . .
C17 C18 C19 N1 1.5(12) . .
C18 C17 C20 C21 -11.6(11) . .
C16 C17 C20 C21 168.8(7) . .
C17 C20 C21 C22 179.9(7) . .
C20 C21 C22 C27 176.5(8) . .
C20 C21 C22 C23 -0.7(13) . .
C27 C22 C23 C24 1.0(13) . .
C21 C22 C23 C24 178.2(8) . .
C22 C23 C24 C25 -0.4(13) . .
C23 C24 C25 C26 0.0(13) . .
C24 C25 C26 C27 -0.4(13) . .
C25 C26 C27 C22 1.0(13) . .
C23 C22 C27 C26 -1.4(13) . .
C21 C22 C27 C26 -178.7(8) . .
C32 N2 C28 C29 0.4(12) . .
Zn1 N2 C28 C29 -179.1(7) . .
N2 C28 C29 C30 2.9(15) . .
C28 C29 C30 C31 -4.7(12) . .
C28 C29 C30 C33 177.9(8) . .
C29 C30 C31 C32 3.3(11) . .
C33 C30 C31 C32 -179.3(7) . .
C28 N2 C32 C31 -1.9(11) . .
Zn1 N2 C32 C31 177.7(6) . .
C30 C31 C32 N2 0.0(12) . .
C29 C30 C33 C34 174.9(8) . .
C31 C30 C33 C34 -2.4(12) . .
C30 C33 C34 C35 177.4(7) . .
C35 C36 C37 C38 0.0 . .
C36 C37 C38 C39 0.0 . .
C37 C38 C39 C40 0.0 . .
C38 C39 C40 C35 0.0 . .
C39 C40 C35 C36 0.0 . .
C39 C40 C35 C34 -178.7(7) . .
C37 C36 C35 C40 0.0 . .
C37 C36 C35 C34 178.6(7) . .
C33 C34 C35 C40 172.1(7) . .
C33 C34 C35 C36 -6.6(11) . .
C42 N3 C43 O5 -18.0(14) . .
C41 N3 C43 O5 167.3(10) . .
C42 N3 C43 C44 178.0(10) . .
C41 N3 C43 C44 3.3(14) . .
C46 N4 C47 O6 -2.2(12) . .
C45 N4 C47 O6 174.7(8) . .
C46 N4 C47 C48 176.4(8) . .
C45 N4 C47 C48 -6.7(11) . .
