#------------------------------------------------------------------------------
#$Date: 2019-11-03 11:43:39 +0200 (Sun, 03 Nov 2019) $
#$Revision: 221306 $
#$URL: file:///home/coder/svn-repositories/cod/cif/4/12/81/4128168.cif $
#------------------------------------------------------------------------------
#
# This file is available in the Crystallography Open Database (COD),
# http://www.crystallography.net/
#
# All data on this site have been placed in the public domain by the
# contributors.
#
data_4128168
loop_
_publ_author_name
'Cao, Chen-Chen'
'Chen, Cheng-Xia'
'Wei, Zhang-Wen'
'Qiu, Qian-Feng'
'Zhu, Neng-Xiu'
'Xiong, Yang-Yang'
'Jiang, Ji-Jun'
'Wang, Dawei'
'Su, Cheng-Yong'
_publ_section_title
;
 Catalysis through Dynamic Spacer Installation of Multivariate
 Functionalities in Metal-Organic Frameworks.
;
_journal_issue                   6
_journal_name_full               'Journal of the American Chemical Society'
_journal_page_first              2589
_journal_page_last               2593
_journal_paper_doi               10.1021/jacs.8b12372
_journal_volume                  141
_journal_year                    2019
_chemical_formula_moiety         'C98 H46 Cu F24 I N4 O32 Zr6'
_chemical_formula_sum            'C98 H46 Cu F24 I N4 O32 Zr6'
_chemical_formula_weight         2985.15
_chemical_name_common            LIFM-80(Cu)
_space_group_crystal_system      tetragonal
_space_group_IT_number           131
_space_group_name_Hall           '-P 4c 2'
_space_group_name_H-M_alt        'P 42/m m c'
_symmetry_space_group_name_Hall  '-P 4c 2'
_symmetry_space_group_name_H-M   'P 42/m m c'
_atom_sites_solution_hydrogens   mixed
_audit_creation_method           SHELXL-2014/7
_cell_angle_alpha                90
_cell_angle_beta                 90
_cell_angle_gamma                90
_cell_formula_units_Z            2
_cell_length_a                   23.0903(7)
_cell_length_b                   23.0903(7)
_cell_length_c                   18.7380(16)
_cell_measurement_reflns_used    1244
_cell_measurement_temperature    173(2)
_cell_measurement_theta_max      54.6860
_cell_measurement_theta_min      4.2790
_cell_volume                     9990.4(10)
_computing_cell_refinement       'CrysAlisPro 1.171.38.43 (Rigaku OD, 2015)'
_computing_data_collection       'CrysAlisPro 1.171.38.43 (Rigaku OD, 2015)'
_computing_data_reduction        'CrysAlisPro 1.171.38.43 (Rigaku OD, 2015)'
_computing_structure_refinement  'SHELXL-2014/7 (Sheldrick, 2014)'
_computing_structure_solution    'SHELXL-2014/7 (Sheldrick, 2014)'
_diffrn_ambient_temperature      173(2)
_diffrn_detector                 'CCD plate'
_diffrn_detector_area_resol_mean 10.6525
_diffrn_detector_type            Atlas
_diffrn_measured_fraction_theta_full 0.986
_diffrn_measured_fraction_theta_max 0.986
_diffrn_measurement_device       'four-circle diffractometer'
_diffrn_measurement_device_type  'SuperNova, Dual, Cu at zero, Atlas'
_diffrn_measurement_method       '\w scans'
_diffrn_radiation_type           CuK\a
_diffrn_radiation_wavelength     1.54178
_diffrn_reflns_av_R_equivalents  0.1461
_diffrn_reflns_av_unetI/netI     0.1399
_diffrn_reflns_Laue_measured_fraction_full 0.986
_diffrn_reflns_Laue_measured_fraction_max 0.986
_diffrn_reflns_limit_h_max       23
_diffrn_reflns_limit_h_min       -26
_diffrn_reflns_limit_k_max       25
_diffrn_reflns_limit_k_min       -12
_diffrn_reflns_limit_l_max       11
_diffrn_reflns_limit_l_min       -21
_diffrn_reflns_number            14393
_diffrn_reflns_point_group_measured_fraction_full 0.986
_diffrn_reflns_point_group_measured_fraction_max 0.986
_diffrn_reflns_theta_full        62.144
_diffrn_reflns_theta_max         62.144
_diffrn_reflns_theta_min         3.829
_diffrn_source                   'micro-focus sealed X-ray tube'
_diffrn_source_type              'SuperNova (Cu) X-ray Source'
_exptl_absorpt_coefficient_mu    4.388
_exptl_absorpt_correction_T_max  1.00000
_exptl_absorpt_correction_T_min  0.36896
_exptl_absorpt_correction_type   multi-scan
_exptl_absorpt_process_details
;
CrysAlisPro 1.171.38.43 (Rigaku Oxford Diffraction, 2015)
Empirical absorption correction using spherical harmonics,
 implemented in SCALE3 ABSPACK scaling algorithm.
;
_exptl_crystal_colour            Brown
_exptl_crystal_density_diffrn    0.992
_exptl_crystal_description       Block
_exptl_crystal_F_000             2912
_exptl_crystal_size_max          0.1
_exptl_crystal_size_mid          0.1
_exptl_crystal_size_min          0.1
_refine_diff_density_max         1.708
_refine_diff_density_min         -0.806
_refine_diff_density_rms         0.162
_refine_ls_extinction_method     none
_refine_ls_goodness_of_fit_ref   0.973
_refine_ls_hydrogen_treatment    mixed
_refine_ls_matrix_type           full
_refine_ls_number_parameters     298
_refine_ls_number_reflns         4261
_refine_ls_number_restraints     365
_refine_ls_restrained_S_all      1.080
_refine_ls_R_factor_all          0.1621
_refine_ls_R_factor_gt           0.1169
_refine_ls_shift/su_max          0.000
_refine_ls_shift/su_mean         0.000
_refine_ls_structure_factor_coef Fsqd
_refine_ls_weighting_details
'w=1/[\s^2^(Fo^2^)+(0.1800P)^2^+100.0000P] where P=(Fo^2^+2Fc^2^)/3'
_refine_ls_weighting_scheme      calc
_refine_ls_wR_factor_gt          0.3153
_refine_ls_wR_factor_ref         0.3503
_reflns_Friedel_coverage         0.000
_reflns_number_gt                2536
_reflns_number_total             4261
_reflns_threshold_expression     'I > 2\s(I)'
_cod_data_source_file            LIFM-80(Cu)-solved.cif
_cod_data_source_block           LIFM-80-Cu
_cod_database_code               4128168
_shelx_shelxl_version_number     2014/7
_shelx_space_group_comment
;
The symmetry employed for this shelxl refinement is uniquely defined
by the following loop, which should always be used as a source of
symmetry information in preference to the above space-group names.
They are only intended as comments.
;
_shelx_res_file
;

    F:\xray\CAOCHE~1\LIFM-8~1\struct\tmp\1_a_pl_sq.res created by SHELXL-2014/7

REM TRMX  1.000  0.000  0.000  0.000  1.000  0.000  0.000  0.000  1.000 tP  5
REM SPGR P42/mmc
REM  1_a.res in P4(2)/m               New: P42/mmc
REM R1 =  0.2016 for    2536 Fo > 4sig(Fo)  and  0.2578 for all    4261 data
REM    109 parameters refined using      0 restraints
REM Highest difference peak  5.571,  deepest hole -1.636,  1-sigma level  0.365
REM  1_a.res in P4(2)/m               New: P42/mmc
REM R1 =  0.1854 for    2536 Fo > 4sig(Fo)  and  0.2424 for all    4261 data
REM    138 parameters refined using    105 restraints
REM Highest difference peak  3.578,  deepest hole -1.787,  1-sigma level  0.296
REM  1_a.res in P4(2)/m               New: P42/mmc
REM R1 =  0.1159 for    2536 Fo > 4sig(Fo)  and  0.1608 for all    4261 data
REM    298 parameters refined using    333 restraints
REM Highest difference peak  1.760,  deepest hole -0.775,  1-sigma level  0.164
TITL 1_a.res in P4(2)/m               New: P42/mmc
CELL 1.54178 23.0903 23.0903 18.7380 90.000 90.000 90.000
ZERR 2.0000 0.0007 0.0007 0.0016 0.000 0.000 0.000
LATT 1
SYMM -Y, X, 0.5+Z
SYMM -X, -Y, Z
SYMM Y, -X, 0.5+Z
SYMM X, -Y, -Z
SYMM -X, Y, -Z
SYMM Y, X, 0.5-Z
SYMM -Y, -X, 0.5-Z
SFAC C H CU I N O ZR F
UNIT 196 92 2 2 8 64 12 48
MERG 2
FMAP 2
GRID
PLAN 5
TEMP -100
BOND $H
CONF
EQIV $10 1-X, -Y, Z
EQIV $11 1-X, Y, 1-Z
EQIV $12 1-X, Y, -Z
EQIV $13 X, 1-Y, Z
EQIV $14 1-X, 1-Y, Z
EQIV $15 1-X, Y, -Z
EQIV $16 Y, X, 1/2-Z
DFIX 1.50 0.01 C1 C1_$16 C4 C7
FLAT 0.01 C1 C2 C3 C4 C5 C6 C7 C8 C8A
DFIX 1.39 0.01 C1 C2 C2 C3 C3 C4 C4 C5 C5 C6 C6 C1
DFIX 2.40 0.01 C1 C3 C2 C4 C3 C5 C4 C6 C5 C1 C6 C2
DFIX 2.80 0.01 C1 C4 C2 C5 C3 C6
DFIX 1.50 0.01 C2 C8 C6 C8A
SADI C8 C1 C8 C3 C8A C1 C8A C5
DFIX 1.33 0.01 C8 F1 C8 F2 C8 F3
DFIX 1.33 0.01 C8A F1A C8A F2A C8A F3A
DFIX 2.35 0.01 C2 F1 C2 F2 C2 F3
DFIX 2.35 0.01 C6 F1A C6 F2A C6 F3A
SADI F1 F2 F2 F3 F3 F1 F1A F2A F2A F3A F3A F1A
DFIX 1.39 0.01 C10 C11 C11 C12 C12 C13 C13 N1
DFIX 1.39 0.01 N1 C11_$10 C11_$10 C10
DFIX 2.40 0.01 C10 C12 C11 C13 C12 N1 C13 C11_$10
DFIX 2.40 0.01 N1 C10 C11_$10 C11
DFIX 2.80 0.01 C10 C13 C11 N1 C12 C11_$10
DFIX 1.50 0.01 C9 C10 C13 C13_$11
DFIX 1.50 0.01 C14 C15 C18 C19
DFIX 1.39 0.01 C15 C16 C16 C17 C17 C18
DFIX 2.40 0.01 C15 C17 C16 C18 C17 C17_$12 C16 C16_$12
DFIX 2.80 0.01 C15 C18 C16 C17_$12 C17 C16_$12
DFIX 1.39 0.01 C19 C20 C20 C20_$13
DFIX 2.40 0.01 C19 C20_$13 C20 C20_$12
DFIX 2.80 0.01 C19 C19_$14 C20 C20_$15 C20_$13 C20_$12
DFIX 1.50 0.01 C18 C19 C20 N2
FLAT 0.01 C19 C20 N2 C20_$13 C19_$14 H20
SADI N2 C19 N2 C20_$13
DFIX 1.95 0.01 CU1 N3
DFIX 1.130 0.01 N3 C21
DFIX 1.483 0.01 C21 C22
DFIX 3.133 0.01 N3 N3_$11
DFIX 4.753 0.01 C21 C21_$11
DFIX 6.826 0.01 C22 C22_$11
DFIX 0.950 0.001 C20 H20 C11 H11
SADI H20 C19 H20 C20_$13 H11 C12 H11 C10
DELU 0.01 C1 C2 C6 C8 C8A F1 F2 F3 F1A F2A F3A
SIMU 0.01 C1 C2 C6 C8 C8A F1 F2 F3 F1A F2A F3A
DELU 0.01 C6 C5 C4 C3 C7
SIMU 0.01 C6 C5 C4 C3 C7
DELU 0.01 C9 C10 C11 C12 C13 N1
SIMU 0.01 C9 C10 C11 C12 C13 N1
DELU 0.01 CU1 N3 C21 C22
SIMU 0.01 CU1 N3 C21 C22
DELU 0.01 O4 C14 C15 C16 C17 C18 C19 C20 N2
SIMU 0.01 O4 C14 C15 C16 C17 C18 C19 C20 N2
DELU 0.01 O5 ZR1 ZR2
SIMU 0.01 O5 ZR1 ZR2
ISOR 0.01 F3A
DFIX 2.20 0.01 H17 H2B
FREE C12 CU1
ABIN
L.S. 20
ACTA
WGHT    0.180000  100.000000
FVAR       0.20581   0.52007
PART 1
I1    4    0.595263    0.161370    0.500000    10.12500    0.18595    0.20280 =
         0.48170    0.00000    0.00000   -0.09354
PART 0
ZR1   7    0.500000    0.075389    0.093117    10.50000    0.04170    0.03149 =
         0.04403   -0.00938    0.00000    0.00000
ZR2   7    0.392511    0.000000    0.000000    10.25000    0.03103    0.03530 =
         0.04423    0.00000    0.00000    0.00000
CU1   3    0.500000    0.102956    0.500000    10.12500    0.39348    0.15707 =
         0.06983    0.00000    0.00000    0.00000
PART 1
F1    8    0.123247    0.148672    0.203535    21.00000    0.15411    0.28599 =
         0.32150   -0.11778    0.02487    0.02644
F2    8    0.140705    0.214372    0.124472    21.00000    0.17813    0.25057 =
         0.30288   -0.12073   -0.03806    0.05982
F3    8    0.150694    0.124556    0.096561    21.00000    0.16778    0.26245 =
         0.31513   -0.14506   -0.01435    0.04903
PART 2
F1A   8    0.375234    0.234430    0.314694   -21.00000    0.16167    0.23265 =
         0.25249   -0.04732   -0.00688    0.02877
F2A   8    0.290359    0.239580    0.362493   -21.00000    0.21132    0.23334 =
         0.20480   -0.03889    0.04189    0.00787
F3A   8    0.313919    0.299251    0.277887   -21.00000    0.13639    0.16385 =
         0.18380   -0.06330    0.02900    0.00962
PART 0
O1    6    0.415934    0.107519    0.136032    11.00000    0.06812    0.06550 =
         0.06409   -0.00811    0.01359    0.00270
O2    6    0.343737    0.059304    0.071962    11.00000    0.06236    0.08759 =
         0.04949   -0.00723    0.01648    0.01669
O3    6    0.500000    0.049319    0.206846    10.50000    0.07445    0.09150 =
         0.05589   -0.01509    0.00000    0.00000
O4    6    0.500000    0.167464    0.060178    10.50000    0.09963    0.02597 =
         0.17378   -0.01397    0.00000    0.00000
O5    6    0.445755    0.075437    0.000000    10.50000    0.08476    0.09927 =
         0.05927    0.00000    0.00000   -0.05032
O6    6    0.553933    0.000000    0.090916    10.50000    0.08748    0.03630 =
         0.07913    0.00000    0.03996    0.00000
PART 2
N1    5    0.500000   -0.052193    0.423313    10.25000    0.26442    0.20812 =
         0.06109    0.00459    0.00000    0.00000
PART 1
N2    5    0.411830    0.434932    0.079983    10.12500    0.26217    0.08011 =
         0.25335   -0.00789    0.00373    0.00647
AFIX  93
H2A   2    0.384418    0.452077    0.104847    10.12500   -1.20000
H2B   2    0.413578    0.396883    0.078397    10.12500   -1.20000
PART 2
AFIX   0
N3    5    0.432179    0.153583    0.500000    10.12500    0.39606    0.15911 =
         0.07518    0.00000    0.00000    0.00326
PART 0
C1    1    0.239302    0.202672    0.225604    11.00000    0.12609    0.18792 =
         0.24545   -0.10721    0.03201    0.04596
C2    1    0.220809    0.165499    0.171487    11.00000    0.13761    0.20611 =
         0.26807   -0.12502    0.01754    0.05315
PART 2
AFIX  43
H2    2    0.181021    0.164053    0.158707   -21.00000   -1.20000
PART 0
AFIX   0
C3    1    0.260835    0.130462    0.136180    11.00000    0.07584    0.13089 =
         0.19905   -0.07807    0.02692    0.02767
AFIX  43
H3    2    0.248294    0.105151    0.099319    11.00000   -1.20000
AFIX   0
C4    1    0.319096    0.132559    0.154908    11.00000    0.07593    0.12975 =
         0.19182   -0.06586    0.02678    0.02153
C5    1    0.337463    0.169615    0.208822    11.00000    0.09876    0.15674 =
         0.21142   -0.08513    0.02848    0.01572
AFIX  43
H5    2    0.377272    0.171313    0.221458    11.00000   -1.20000
AFIX   0
C6    1    0.297309    0.204238    0.244246    11.00000    0.12472    0.17289 =
         0.22838   -0.08996    0.03655    0.02966
PART 1
AFIX  43
H6    2    0.309826    0.229151    0.281530    21.00000   -1.20000
PART 0
AFIX   0
C7    1    0.363465    0.095699    0.118051    11.00000    0.05326    0.11072 =
         0.16493   -0.04031    0.03099    0.01494
PART 1
C8    1    0.158121    0.162606    0.149951    21.00000    0.14968    0.23416 =
         0.28776   -0.12528    0.00488    0.04816
PART 0
C9    1    0.500000    0.000000    0.232669    10.25000    0.21603    0.18552 =
         0.04305    0.00000    0.00000    0.00000
C10   1    0.500000    0.000000    0.312029    10.25000    0.22606    0.19068 =
         0.04092    0.00000    0.00000    0.00000
C11   1    0.500000    0.052237    0.349023    10.50000    0.24035    0.19901 =
         0.04933   -0.00775    0.00000    0.00000
PART 1
C12   1    0.500000    0.052152    0.423370    10.25000    0.25200    0.20359 =
         0.05221   -0.00830    0.00000    0.00000
AFIX  43
H12   2    0.500000    0.087731    0.448830    10.25000   -1.20000
PART 0
AFIX   0
C13   1    0.500000    0.000000    0.460161    10.25000    0.25963    0.20784 =
         0.05861    0.00000    0.00000    0.00000
C14   1    0.500000    0.189864    0.000000    10.25000    0.13297    0.04639 =
         0.18993    0.00000    0.00000    0.00000
C15   1    0.500000    0.254565    0.000000    10.25000    0.16878    0.05115 =
         0.20722    0.00000    0.00000    0.00000
C16   1    0.500000    0.284546    0.064291    10.50000    0.20119    0.06178 =
         0.22001   -0.01146    0.00000    0.00000
AFIX  43
H16   2    0.500000    0.263914    0.108154    10.50000   -1.20000
AFIX   0
C17   1    0.500000    0.344977    0.064398    10.50000    0.22861    0.06633 =
         0.23372   -0.01034    0.00000    0.00000
AFIX  43
H17   2    0.500000    0.365518    0.108326    10.50000   -1.20000
AFIX   0
C18   1    0.500000    0.375166    0.000000    10.25000    0.24489    0.07282 =
         0.24368    0.00000    0.00000    0.00000
C19   1    0.500000    0.440032    0.000000    10.25000    0.25563    0.07627 =
         0.25008    0.00000    0.00000    0.00000
C20   1    0.455641    0.470618    0.040244    10.50000    0.26357    0.07523 =
         0.25265   -0.00752   -0.00200    0.00454
PART 2
C21   1    0.397079    0.187752    0.500000    10.12500    0.39797    0.16111 =
         0.07876    0.00000    0.00000    0.00520
C22   1    0.352202    0.233808    0.500000    10.12500    0.40290    0.16913 =
         0.09056    0.00000    0.00000    0.01160
AFIX   3
H22A  2    0.314282    0.216588    0.509950    10.12500   -1.50000
H22B  2    0.351352    0.252738    0.453200    10.12500   -1.50000
H22C  2    0.361392    0.262498    0.536850    10.12500   -1.50000
AFIX   0
C8A   1    0.319026    0.244403    0.301793   -21.00000    0.14175    0.17986 =
         0.20908   -0.06624    0.03108    0.01787
H20   2    0.428557    0.446925    0.064816    10.37500   -1.20000
PART 0
H11   2    0.500000    0.087862    0.323655    10.50000   -1.20000
HKLF 4

REM  1_a.res in P4(2)/m               New: P42/mmc
REM R1 =  0.1169 for    2536 Fo > 4sig(Fo)  and  0.1621 for all    4261 data
REM    298 parameters refined using    365 restraints

END

WGHT      0.2000      0.0000

REM Highest difference peak  1.708,  deepest hole -0.806,  1-sigma level  0.162
Q1    1   0.5000  0.0773  0.1460  10.50000  0.05    1.71
Q2    1   0.5000  0.0795  0.0456  10.50000  0.05    1.68
Q3    1   0.3918  0.0000  0.0512  10.50000  0.05    1.47
Q4    1   0.3066  0.3066  0.2500  10.50000  0.05    1.29
Q5    1   0.3587  0.0297  0.0000  10.50000  0.05    0.90
;
_shelx_res_checksum              6475
_shelx_hkl_file
;
   0   0   6  234.19   23.71
   0   0   7  -10.77    6.11
   0   0   8 1058.69   56.43
   0   0   9  185.47   33.25
   0   0  -9  591.92   75.08
   0   0 -10 4382.17  173.59
   0   0 -11  701.42   82.27
   0   0 -12 2271.58  139.44
   0   0 -13  274.47   64.43
   0   0 -14  704.32   87.06
   0   0 -15   55.97   32.51
   0   0 -16    2.35   16.27
   0   0 -17   55.78   30.96
   0   0 -18   25.90   25.50
   0   0 -19  151.27   45.57
   0   0 -20  600.07   81.53
   0   0 -21  173.19   57.82
   0   1   3   72.61    6.82
   1   0   3   76.44   10.34
   1   0   4  648.48   35.25
   0   1   4  649.87   25.81
   1   0   5 2520.43   74.77
   0   1   5 2453.75   57.54
   0   1   6    7.93    3.86
   1   0   6   12.72    6.02
   0   1   7  165.19   17.87
   1   0   7  174.54   23.31
  -1   0   8   40.19   13.77
   1   0   8   41.92   16.30
   0  -1   8   58.56   19.73
   0   1   8   51.71   14.82
   1   0  -9 2328.32  119.50
   0   1  -9 2376.45  121.23
   0  -1   9 2360.55  100.08
  -1   0   9 2261.95   82.58
   1   0   9 2325.85   92.34
   0   1 -10  692.62  104.04
   0   1 -10  867.48   93.42
  -1   0 -10 1040.42   95.55
   1   0 -10 1068.38  104.87
   0  -1 -10  872.97   92.06
   1   0 -11 1473.97  108.70
   0  -1 -11 1514.38  107.59
   0   1 -11 1538.58  109.72
  -1   0 -11 1434.36  102.52
   0  -1 -12  792.46   93.20
   1   0 -12  689.41   93.05
  -1   0 -12  834.23   93.91
   0   1 -12  677.77  100.52
   0   1 -12  716.27   92.86
   0   1 -13  605.63   84.99
   0   1 -13  665.89   79.37
   1   0 -13  624.30   78.88
  -1   0 -13  576.64   72.05
   0  -1 -13  613.13   75.36
   0  -1 -14  258.51   55.07
   0   1 -14  238.91   60.75
  -1   0 -14  223.54   54.80
   1   0 -14  197.27   52.85
   0   1 -15   40.29   23.03
  -1   0 -15   37.57   25.84
   1   0 -15   74.55   39.02
   0  -1 -15  108.73   38.34
  -1   0 -16   91.53   32.57
   1   0 -16    8.58   15.99
   0   1 -16  -12.29   16.21
   0  -1 -16   73.23   36.64
   0  -1 -17   56.86   25.62
  -1   0 -17   74.40   33.46
   0   1 -17  112.03   40.44
   1   0 -17   84.86   34.24
  -1   0 -18   11.67   11.85
   0   1 -18   18.71   29.14
   0  -1 -18  -46.03   28.99
  -1   0 -19  168.28   45.29
   0  -1 -19  130.58   42.20
   1   0 -19  172.17   45.94
   0   1 -19  147.13   45.16
   0   1 -20  459.45   71.65
   1   0 -20  457.32   73.44
  -1   0 -20  389.22   65.20
   0  -1 -20  410.43   66.62
   0   1 -21  180.32   62.02
   1   0 -21  150.62   59.55
   1   1 -21  160.99   61.99
   1   1 -20  397.25   67.39
  -1  -1 -20  309.27   62.02
  -1  -1 -19  117.80   39.27
   1   1 -19  122.47   42.66
  -1  -1 -18  -17.94   24.48
   1   1 -18   76.93   38.19
  -1  -1 -17   57.70   33.93
   1   1 -17  125.34   45.72
   1   1 -16   14.73   16.36
  -1  -1 -16  221.13   56.15
  -1  -1 -15   50.84   31.58
   1   1 -15  -22.60   11.89
  -1  -1 -14  297.78   55.85
   1   1 -14  373.88   65.66
   1   1 -13  172.01   53.65
  -1  -1 -13  193.04   46.99
   1   1 -13  206.50   55.32
   1   1 -12 1470.91  126.48
  -1  -1 -12 1397.84  106.41
   1   1 -12 1406.42  113.85
  -1  -1 -11  433.03   68.53
   1   1 -11  440.90   78.88
   1   1 -11  352.89   68.84
  -1  -1 -10 2341.26  124.13
   1   1 -10 2296.37  146.30
   1   1 -10 2465.73  132.84
   1   1  -9  327.20   55.85
   1  -1   9   98.51   31.67
   1  -1   8  404.32   42.08
  -1   1   8  341.37   25.68
   1  -1   7  -14.66   10.19
  -1   1   7   -4.29    4.94
   1  -1   6  289.42   30.50
   1  -1   5   33.59   13.80
  -1  -1  -2 4720.30   65.14
  -1   1   1   76.13    7.32
   1   1   2 4762.97   65.20
   1   1   3    2.01    2.62
   1   1   4  491.78   26.06
   1   1   5   25.99   10.03
   1   1   6  297.63   24.91
   1   1   7    0.83    5.00
   1   1   8  393.39   33.62
  -1   1  -9  385.89   64.43
   1  -1  -9  341.19   57.88
  -1   1 -10 2339.28  146.61
   1  -1 -10 2463.97  129.84
  -1   1 -10 2492.28  131.57
   1  -1 -11  461.37   70.39
  -1   1 -11  434.76   70.39
  -1   1 -12 1363.51  107.00
   1  -1 -12 1427.41  110.30
  -1   1 -12 1477.36  122.68
  -1   1 -13  220.23   52.48
   1  -1 -13  221.65   52.76
  -1   1 -13  184.92   52.76
   1  -1 -14  270.15   54.36
  -1   1 -14  346.96   62.48
  -1   1 -15    2.41   13.18
   1  -1 -15  143.55   43.68
   1  -1 -16    7.69   14.66
  -1   1 -16   21.24   17.20
   1  -1 -17   13.61   21.36
  -1   1 -17   81.22   37.82
  -1   1 -18   39.95   19.05
   1  -1 -18   37.51   17.69
  -1   1 -19   83.69   35.13
   1  -1 -19  115.49   41.27
   1  -1 -20  457.17   71.78
  -1   1 -20  435.28   70.76
  -2   0   0 2955.78   60.91
  -2   0  -1 2727.18   60.94
  -2   0  -2 9408.04  122.43
   2   0   3  191.59   19.51
  -2   0  -3  183.93   19.42
   2   0   4   42.82    9.79
   2   0   5 1440.38   62.70
   2   0   6  282.41   29.98
   2   0   7   37.85   10.50
   2   0   8   24.05   12.13
   0   2  -9   64.92   26.77
   0  -2   9   53.84   29.45
  -2   0 -10 2008.68  113.91
   0   2 -10 2062.06  140.49
   0  -2 -10 1907.15  113.85
   0   2 -10 2019.55  120.89
   2   0 -10 2039.43  122.09
  -2   0 -11  628.32   75.23
   0  -2 -11  244.56   56.49
   0   2 -11  208.87   54.52
   2   0 -11  479.86   73.41
   0   2 -11  197.51   63.96
   2   0 -12  852.44   89.77
   0  -2 -12  823.52   82.73
   0   2 -12  912.70  102.68
   0   2 -12  792.24   84.56
  -2   0 -12  795.67   80.39
   0   2 -13  154.97   48.25
   2   0 -13  109.19   39.39
  -2   0 -13  134.81   42.60
   0  -2 -13  154.36   39.39
   0   2 -13  158.65   43.90
   0   2 -14  129.29   43.16
   0   2 -14  138.95   40.44
   0  -2 -14  165.31   44.18
  -2   0 -14  182.57   45.07
   2   0 -14  199.12   48.93
  -2   0 -15  241.29   53.22
   0   2 -15  135.22   47.51
   2   0 -15  167.04   48.25
   0  -2 -15  131.88   42.60
   0   2 -15  148.06   45.66
   0   2 -16   46.58   24.08
   0  -2 -16  112.86   40.60
   2   0 -16   26.43   23.89
  -2   0 -16   45.57   24.60
  -2   0 -17  110.86   43.19
   0  -2 -17   81.25   35.32
   2   0 -17  138.39   48.71
   0   2 -17  127.93   48.34
   0  -2 -18  -34.92   23.12
   2   0 -18   42.48   32.69
  -2   0 -18   18.09   15.47
   2   0 -19   66.93   31.74
  -2   0 -19   90.39   35.25
   0  -2 -19  108.20   38.25
   0   2 -19   82.58   37.42
   2   0 -20  326.28   62.54
   0  -2 -20  291.02   53.62
   0   2 -20  284.69   58.84
   0   2 -21  116.85   53.07
   2   0 -21  108.05   51.18
   1   2 -21  117.16   56.80
   2   1 -21  109.56   53.41
   2   1 -20  194.12   50.84
   1   2 -20  137.38   47.97
  -2  -1 -19   98.26   37.51
  -1  -2 -19   95.42   34.39
   1   2 -19   80.85   34.64
   2   1 -19  102.28   41.46
  -1  -2 -18   28.65   19.33
  -2  -1 -18   -1.88   13.77
   2   1 -18   39.61   23.93
   1   2 -18   64.27   35.47
   1   2 -17  150.00   49.46
   2   1 -17  116.17   49.21
  -1  -2 -17   99.50   38.96
  -2  -1 -17  113.27   42.20
   1   2 -16   18.34   29.08
   2   1 -16   94.22   39.14
  -1  -2 -16   33.19   27.14
  -2  -1 -16   67.79   33.99
  -1  -2 -15   63.22   31.80
  -2  -1 -15  102.06   36.98
   2   1 -15  100.39   39.55
   1   2 -15   56.96   33.71
   1   2 -15   59.77   32.20
   1   2 -14   62.73   36.95
   2   1 -14   95.76   40.32
  -2  -1 -14   68.26   29.73
  -1  -2 -14   75.73   31.80
   1   2 -14  116.08   41.68
   1   2 -13  135.59   41.12
  -1  -2 -13  101.53   32.35
  -2  -1 -13  162.66   41.92
   1   2 -13  133.64   43.07
   2   1 -13  135.71   40.63
   2   1 -13  119.56   41.34
   2   1 -12  226.22   59.40
   1   2 -12  157.44   54.86
   2   1 -12  217.58   60.57
  -1  -2 -12  191.15   48.00
  -2  -1 -12  286.45   53.10
   1   2 -12  258.08   62.54
   2   1 -11 1120.74   95.27
  -1  -2 -11 1103.08   92.46
   1   2 -11 1169.15   97.95
  -2  -1 -11 1171.22   91.16
   2   1 -11 1210.58  114.90
  -1  -2 -10  215.20   47.29
   1   2 -10  146.79   41.27
  -2  -1 -10  416.20   58.69
   2   1 -10  361.07   57.82
   1   2  -9 1894.59  110.64
   2   1  -9 1873.56  108.82
   2  -1   9 1849.76   95.55
   1  -2   9 1788.73   95.89
   1  -2   8   18.15    9.57
  -2   1   8   23.12    7.32
   2  -1   8   40.13   16.73
   2  -1   7  220.23   29.61
   1  -2   7  177.26   28.34
   2  -1   6   17.26    7.50
   2  -1   5  312.48   32.29
   2  -1   4   21.15   10.65
   2  -1   3   44.27    9.82
  -2  -1  -3   30.87    7.59
  -1  -2  -3   40.32    6.82
  -2  -1  -2  164.20   17.91
  -2   1   1 6582.44   86.75
  -2   1   0  306.33   19.36
  -2   1  -1 6623.25   99.28
   2   1   3   44.64    8.86
   2   1   4    5.03    6.67
   2   1   5  318.00   27.81
   2   1   6   21.02    6.85
   2   1   7  206.13   24.54
   2   1   8   46.06   14.17
   2   1   9 1752.98   78.17
  -1   2  -9 1950.43  108.14
  -2   1  -9 1861.83  102.74
   2  -1 -10  385.52   59.24
  -1   2 -10  162.63   53.68
  -1   2 -10  200.63   43.16
  -2   1 -10  460.63   62.27
  -2   1 -10  327.14   64.83
   1  -2 -10  236.56   49.30
   1  -2 -11 1198.63   96.32
  -2   1 -11 1183.19   94.03
  -1   2 -11 1240.15  113.33
  -1   2 -11 1248.92   98.97
   2  -1 -11 1205.33   98.66
  -2   1 -11 1257.53  110.98
   2  -1 -12  201.68   47.88
  -2   1 -12  248.11   51.83
  -2   1 -12  219.59   57.33
  -1   2 -12  241.60   55.20
  -1   2 -12  281.57   62.95
   1  -2 -12  269.78   54.24
  -2   1 -13   78.88   32.07
  -1   2 -13   61.34   28.06
  -1   2 -13   90.36   31.98
   2  -1 -13   94.34   33.25
   1  -2 -13  110.52   36.58
  -2   1 -13  132.50   38.59
  -1   2 -14  114.41   39.61
  -2   1 -14   80.48   32.11
  -1   2 -14   44.42   31.49
   2  -1 -14   89.46   35.63
   1  -2 -14   37.91   26.39
  -1   2 -15   67.42   35.50
  -1   2 -15  106.60   37.17
   1  -2 -15   73.75   34.05
   2  -1 -15  154.66   49.83
  -2   1 -15  176.49   50.20
  -1   2 -16   91.81   38.53
   2  -1 -16   14.66   12.93
  -2   1 -16   32.38   22.07
   1  -2 -16   60.20   35.04
   1  -2 -17   82.80   32.97
   2  -1 -17   96.01   40.19
  -1   2 -17  107.93   39.70
  -2   1 -17  145.12   45.53
   1  -2 -18   47.76   19.94
   2  -1 -18   -1.39   20.59
  -2   1 -18   -1.48   11.18
  -1   2 -18   22.32   26.55
   1  -2 -19  137.10   41.89
   2  -1 -19   92.92   36.61
  -1   2 -19   32.11   22.29
  -2   1 -19   16.95   16.21
   1  -2 -20  155.81   48.90
  -1   2 -20  197.88   48.93
   2  -1 -20  266.11   55.41
   2   2 -21   47.70   39.14
   2   2 -20   69.95   40.81
   2   2 -19  -23.89   15.81
  -2  -2 -19   30.87   23.55
   2   2 -18   22.13   17.97
  -2  -2 -18   21.58   26.24
   2   2 -17   27.69   29.73
  -2  -2 -17   22.44   28.15
   2   2 -16  172.97   48.10
  -2  -2 -16  108.08   38.37
   2   2 -15   11.82   23.96
   2   2 -15  -15.65   17.94
   2   2 -14   20.62   28.49
   2   2 -14   39.79   28.40
  -2  -2 -14    3.92   13.68
  -2  -2 -13   51.62   26.12
   2   2 -13   13.71   22.01
   2   2 -13   55.63   29.94
  -2  -2 -12  315.50   49.46
   2   2 -12  299.14   53.90
   2   2 -12  352.92   65.57
  -2  -2 -11  106.41   34.36
   2   2 -11   96.53   49.70
   2   2 -11   64.27   36.92
   2   2 -10  555.77   63.44
   2   2 -10  518.32   71.99
  -2  -2 -10  443.89   54.49
   2   2  -9   41.86   25.87
   2  -2   9    1.42   12.50
   2  -2   8  330.29   40.13
   2  -2   7    4.32    8.21
   2  -2   6  847.78   59.40
  -2   2   5   12.97    3.24
   2  -2   5  -22.84   13.98
  -2  -2  -4  246.29   22.07
   2  -2   4  224.43   27.41
  -2  -2  -3  -13.52    5.83
  -2   2   3    5.03    2.96
  -2   2   2  565.12   23.59
  -2   2   1   -1.61    4.38
  -2   2   0 9999.00  120.49
   2  -2  -1  -11.11    6.36
  -2   2  -9   54.70   25.75
  -2   2 -10  543.52   60.60
  -2   2 -10  601.83   74.40
  -2   2 -11  106.69   39.61
   2  -2 -11  143.37   41.83
  -2   2 -12  334.12   52.57
   2  -2 -12  285.40   47.36
  -2   2 -12  364.56   63.25
  -2   2 -13   73.35   36.12
  -2   2 -13   49.02   28.12
   2  -2 -13   84.83   32.32
  -2   2 -14   23.65   20.96
   2  -2 -14  -12.07   20.31
  -2   2 -14   33.62   27.48
   2  -2 -15   20.59   19.02
  -2   2 -15   70.48   34.36
  -2   2 -15   13.68   21.36
  -2   2 -16  253.48   59.83
   2  -2 -16  119.78   35.32
  -2   2 -17   86.25   39.70
   2  -2 -17   -7.19   18.89
  -2   2 -18   -9.32   16.05
   2  -2 -18  -10.77   24.88
  -2   2 -19   26.33   20.47
   2  -2 -19  162.10   42.94
   2  -2 -20  192.33   46.28
  -3   0   0 1783.08   58.69
  -3   0  -1  443.18   30.69
  -3   0  -2  116.45   16.33
   3   0   3 2270.69   72.98
  -3   0  -3 2253.52   73.23
  -3   0  -4  517.49   38.84
   3   0   4  550.06   38.53
   3   0   5 1184.12   59.52
   3   0   6   41.98   12.78
   3   0   7  313.12   35.81
   3   0   8  271.36   33.90
   3   0   9  673.79   58.16
  -3   0  -9  658.26   60.45
   0   3  -9  686.85   79.83
   0   3  -9  710.68   68.53
   0  -3 -10   31.64   20.59
   0   3 -10   17.97   27.66
   0   3 -10   45.32   24.39
  -3   0 -11  839.63   77.36
   0   3 -11  830.31   81.28
   0   3 -11  890.51   99.34
   3   0 -11  830.96   83.35
   3   0 -11  791.13   90.82
   0  -3 -11  857.66   80.17
   0  -3 -12   41.18   28.25
  -3   0 -12   87.80   31.58
   0   3 -12   32.20   28.71
   0   3 -12   42.08   29.70
   0  -3 -13   -2.38   13.49
   0   3 -13   88.41   35.29
   0   3 -13   40.90   32.11
   3   0 -13  105.89   38.03
  -3   0 -13   97.71   33.43
   3   0 -14   94.87   32.17
   0  -3 -14   54.86   27.20
   0   3 -14   58.72   30.22
   0   3 -14   24.17   13.64
  -3   0 -14   90.27   30.32
   0   3 -15   93.69   46.34
   0  -3 -15  121.29   44.39
   3   0 -15  284.66   68.01
   0   3 -15  136.73   47.42
  -3   0 -15  234.53   51.25
   0  -3 -16  143.09   43.59
   3   0 -16  323.90   68.22
   0   3 -16  136.14   53.44
   0   3 -16  202.73   56.62
  -3   0 -16  138.46   42.20
   0   3 -17   99.71   41.95
  -3   0 -17  218.35   52.79
   3   0 -17  198.25   60.60
   0  -3 -17  120.92   47.02
   0  -3 -18  103.79   35.53
  -3   0 -18   56.83   23.22
   0   3 -18   75.76   37.42
   3   0 -18   85.79   33.40
   0   3 -19   69.12   31.89
  -3   0 -19  132.37   39.85
   3   0 -19  151.05   44.30
   0  -3 -19   72.02   29.57
   3   0 -20  148.77   42.29
   0   3 -20   38.00   33.28
   3   0 -21  401.11   71.99
   3   1 -21  331.89   91.93
   1   3 -21   36.15   37.45
   3   1 -20   99.90   38.06
   1   3 -20   26.73   29.88
   3   1 -19   72.58   29.54
   1   3 -19   39.79   26.95
  -3  -1 -19   20.75   17.94
   3   1 -18    2.32   23.62
   1   3 -18   35.32   24.54
  -1  -3 -18   68.04   36.40
   1   3 -17  140.71   44.39
  -3  -1 -17  173.68   44.61
  -1  -3 -17  238.45   56.19
   3   1 -17  173.99   53.96
   1   3 -16  124.16   45.04
  -1  -3 -16  106.51   42.76
   1   3 -16  151.76   48.25
   3   1 -16  152.69   50.41
  -3  -1 -16  103.39   36.15
  -3  -1 -15  293.12   55.85
  -1  -3 -15  195.04   48.56
   1   3 -15  197.76   56.68
   1   3 -15  258.17   60.20
   3   1 -15  247.65   60.04
  -1  -3 -14   -8.27   12.69
   3   1 -14  -42.57   20.41
   1   3 -14  -12.84   13.24
   1   3 -14  -45.16   20.81
   3   1 -13  132.00   43.25
  -1  -3 -13  125.52   35.44
   1   3 -13   81.47   34.85
   1   3 -13  134.51   43.78
   3   1 -13  134.91   43.22
  -3  -1 -13  114.44   35.72
  -1  -3 -12  256.41   44.33
   1   3 -12  237.92   47.26
  -3  -1 -12  262.06   46.71
   1   3 -12  286.08   61.19
   3   1 -12  238.08   45.50
   3   1 -12  239.00   52.57
   3   1 -11  191.18   49.92
   1   3 -11   20.04   28.68
   1   3 -11   52.70   27.01
   3   1 -11  128.95   42.48
  -3  -1 -11  161.95   44.76
  -1  -3 -11   73.44   29.85
  -1  -3 -10  657.58   65.35
   1   3 -10  726.70   85.27
   3   1 -10  709.60   73.57
  -3  -1 -10  670.18   67.14
   1   3 -10  731.15   76.16
   1  -3   9  -10.62   10.47
   3  -1   9   -6.17    7.44
   1   3  -9    4.72   23.52
   1   3  -9   11.89    8.09
   1  -3   8  -16.18   13.95
   3  -1   8    5.62    7.78
   3  -1   7  208.13   31.36
   3  -1   6  674.19   51.71
   3  -1   5  708.98   49.95
   3  -1   4  398.17   35.72
  -1  -3  -4  340.29   19.33
  -3  -1  -4  383.70   31.55
   3  -1   3  833.89   48.37
  -3  -1  -3  788.20   43.10
  -3   1   2    7.81    3.92
  -3  -1  -2    3.03    4.57
  -3  -1  -1  357.89   29.48
  -3   1   1  373.26   27.81
  -3   1   0 4485.96   89.43
  -3   1  -1  362.52   29.17
  -3   1  -2    6.14    4.57
   3   1   3  840.22   44.76
  -3   1  -3  823.70   47.54
   3   1   4  378.88   31.09
   3   1   5  719.29   46.58
   3   1   6  676.11   47.08
   3   1   7  232.86   30.25
   3   1   8   14.02    6.39
  -1   3  -9    6.14   12.90
  -1   3  -9   -7.44   14.42
  -1   3 -10  688.61   70.32
  -3   1 -10  756.22   70.17
   1  -3 -10  642.24   66.90
   3  -1 -11  148.09   40.60
  -1   3 -11   29.73   27.14
   1  -3 -11   69.86   33.80
  -3   1 -11  165.41   42.36
  -1   3 -11   38.16   29.45
   3  -1 -12  344.18   54.58
   1  -3 -12  262.00   48.25
  -3   1 -12  239.99   42.48
  -1   3 -12  215.76   42.39
  -3   1 -12  274.54   57.05
  -1   3 -12  275.40   61.65
  -1   3 -13  102.12   41.83
  -1   3 -13   93.32   31.77
  -3   1 -13  122.13   36.52
   3  -1 -13   76.59   29.02
   1  -3 -13  127.22   36.74
  -3   1 -13  132.62   43.68
   1  -3 -14   19.26   21.67
  -1   3 -14    6.67   13.74
  -1   3 -14   25.04   25.31
   3  -1 -14   46.62   31.80
  -3   1 -14   20.56   17.04
  -1   3 -15  217.21   55.66
  -3   1 -15  310.16   58.84
   3  -1 -15  325.84   65.01
  -1   3 -15  205.17   58.93
   1  -3 -15  201.77   47.63
   3  -1 -16  267.90   65.72
  -1   3 -16  102.46   46.18
  -3   1 -16  193.04   51.18
   1  -3 -16  158.99   49.05
  -1   3 -16  138.18   45.78
  -1   3 -17  178.34   52.05
  -3   1 -17  286.39   60.57
   3  -1 -17  252.12   58.44
   1  -3 -17  205.54   54.39
   3  -1 -18   60.08   32.75
  -1   3 -18   13.83   25.47
   1  -3 -18   49.02   33.87
  -3   1 -18   10.31   12.56
  -1   3 -19   32.32   25.87
  -3   1 -19   53.16   26.09
   3  -1 -19   76.75   33.37
   1  -3 -19   57.88   27.63
   3  -1 -20  132.59   38.59
  -1   3 -20   69.95   28.43
   2   3 -21   -6.95   16.92
   3   2 -21   14.73   18.71
   3   2 -20   15.28   32.11
   2   3 -20   23.00   31.24
   2   3 -19   21.27   20.99
   3   2 -19   -8.58   14.69
  -3  -2 -18   13.52   17.07
   2   3 -18   11.89   21.83
   3   2 -18  -10.74   22.78
  -2  -3 -17   97.34   41.31
   3   2 -17   69.12   37.17
   2   3 -17   40.93   30.13
  -3  -2 -17   33.80   22.84
   2   3 -16   40.78   29.27
   2   3 -16   51.37   37.72
  -3  -2 -16   63.69   33.00
   3   2 -16   84.80   41.83
  -2  -3 -16   63.90   39.08
  -3  -2 -15  121.26   41.95
   2   3 -15  150.03   49.27
   3   2 -15  120.55   47.66
   3   2 -15  154.85   49.33
  -2  -3 -15  124.78   41.83
   2   3 -15   53.47   32.54
   2   3 -14   13.31   19.39
   3   2 -14   29.67   15.40
   3   2 -14    4.63   18.40
  -3  -2 -14   40.90   26.52
   2   3 -14   20.41   23.00
  -2  -3 -14   93.94   33.34
   3   2 -13   59.77   35.13
  -2  -3 -13   34.02   23.68
   2   3 -13   11.48   20.62
   2   3 -13   23.77   23.77
  -3  -2 -13   35.35   24.64
   3   2 -13   22.50   20.31
   3   2 -12   29.64   29.20
  -3  -2 -12   41.31   26.02
   2   3 -12   -5.12   12.81
   3   2 -12    8.49   10.56
   2   3 -12   -8.92   11.48
  -2  -3 -12   19.42   16.98
   3   2 -11  100.27   34.45
  -2  -3 -11  109.16   28.25
   2   3 -11  104.96   35.56
  -3  -2 -11  127.65   32.88
   2   3 -11  174.88   40.04
   3   2 -11  175.69   42.88
   3   2 -10   26.58   20.44
   3   2 -10   67.51   35.72
   2   3 -10    3.92   19.11
  -3  -2 -10   63.19   27.10
   2   3 -10   32.88   19.45
  -2  -3 -10   -6.08    8.83
   2   3  -9  330.47   47.60
   2  -3   9  287.56   42.42
   3   2  -9  321.06   55.17
   2   3  -9  299.85   52.91
   3  -2   9  305.56   43.96
   2  -3   8  -20.34   16.61
   3  -2   8  -10.40    6.42
   2  -3   7  234.06   35.47
   3  -2   7  260.03   36.34
  -3   2   6   92.40   10.19
   2  -3   6  123.42   23.86
  -3  -2  -5  116.54   19.29
  -3   2   5  102.55   11.39
   3  -2   5  106.97   21.24
  -2  -3  -5  109.78   14.94
  -3   2   4   51.52    7.84
  -2  -3  -4   31.92    6.92
   3  -2   4   59.49   15.28
  -3  -2  -4   29.08    9.23
  -3   2   3  481.09   25.44
  -3  -2  -3  482.39   33.87
  -2  -3  -3  476.77   30.25
  -3  -2  -2   18.24    7.47
  -3   2   2    7.69    4.38
  -3   2   1   56.12   10.56
  -3   2   0  542.74   32.23
   3  -2  -1   46.52    8.89
  -3   2  -1   43.13   10.09
   2  -3  -1   46.37    8.00
   2  -3  -2    9.88    4.41
  -2   3  -9  344.30   57.11
  -3   2  -9  288.80   51.80
  -3   2  -9  428.86   50.07
  -2   3  -9  337.54   48.41
  -2   3 -10  -22.41   19.26
  -3   2 -10   63.41   24.45
  -3   2 -10   60.35   30.53
  -3   2 -11  136.02   38.37
  -2   3 -11  150.50   43.47
   2  -3 -11  139.60   34.30
  -3   2 -11  129.10   31.67
  -2   3 -11   98.23   28.34
  -2   3 -12    8.67   11.55
  -2   3 -12   22.91   18.28
   3  -2 -12   84.96   34.67
  -3   2 -12   64.40   27.63
  -3   2 -12   31.15   24.82
   2  -3 -12    1.61   17.47
  -2   3 -13   -6.36   10.53
  -3   2 -13   74.28   33.25
  -3   2 -13   67.08   33.87
   2  -3 -13   25.16   21.83
   3  -2 -13   44.61   20.81
  -2   3 -13   10.13   12.35
  -3   2 -14   45.81   27.35
  -2   3 -14   33.68   26.36
  -2   3 -14   68.10   27.60
   3  -2 -14   32.14   23.34
  -3   2 -14   67.14   34.45
   2  -3 -14    5.68   12.07
  -2   3 -15   86.59   39.39
  -3   2 -15  196.19   52.05
  -2   3 -15  137.22   43.22
   3  -2 -15  151.67   49.05
  -3   2 -15  103.42   38.03
   2  -3 -15   76.28   32.11
  -2   3 -16  102.86   41.98
   3  -2 -16  122.62   44.95
  -3   2 -16  163.74   54.67
   2  -3 -16  110.39   51.06
  -2   3 -16   62.42   35.87
   2  -3 -17   67.18   35.66
  -2   3 -17   94.25   41.89
  -3   2 -17  163.89   46.49
   3  -2 -17  162.07   47.48
  -2   3 -18   48.78   28.65
   3  -2 -18   19.08   25.22
   2  -3 -18   54.18   26.12
  -3   2 -18   28.40   18.55
  -3   2 -19   91.84   33.40
  -2   3 -19   17.35   18.40
   3  -2 -19   45.72   25.47
   2  -3 -19   54.24   28.62
   2  -3 -20   44.61   22.81
   3  -2 -20   59.21   28.31
   3   3 -21    4.63   17.44
   3   3 -20   -0.77   12.16
   3   3 -19   51.15   29.14
   3   3 -18    3.49   21.55
   3   3 -17   -3.98   21.86
  -3  -3 -16  142.84   51.09
   3   3 -16  153.92   49.92
   3   3 -16  118.98   45.50
  -3  -3 -15    5.87   23.74
   3   3 -15   41.95   32.04
   3   3 -15   16.39   22.38
   3   3 -14  120.80   44.95
  -3  -3 -14  126.48   37.97
   3   3 -14   97.89   40.19
  -3  -3 -13   12.32   23.55
   3   3 -13    4.35   18.68
   3   3 -13  -16.98   27.04
   3   3 -12   64.27   31.36
  -3  -3 -12   61.96   26.52
   3   3 -12   51.89   25.07
   3   3 -11  -31.03   29.94
  -3  -3 -11   -8.06   12.07
   3   3 -11  -25.99   21.52
   3   3 -10   16.64   15.96
   3   3 -10   -6.33   14.05
   3   3  -9   -1.88   10.71
   3  -3   9  -26.36   19.45
   3   3  -9  -37.66   24.94
   3  -3   8   20.00   10.06
   3  -3   7   -8.67   11.82
   3  -3   6   10.00    7.19
   3  -3   5    5.28    8.71
  -3  -3  -5   -3.52    6.70
   3  -3   4   49.76   17.78
  -3  -3  -4   54.80   15.65
  -3  -3  -3   24.45   11.95
  -3   3   3    2.56    3.92
  -3   3   2  260.58   20.10
  -3   3   1   -3.18    5.65
   3  -3  -1    1.05    3.95
   3  -3  -2  249.28   21.58
  -3   3  -9    0.86   13.43
  -3   3  -9  -28.80   17.47
  -3   3 -10   -1.17   14.32
  -3   3 -11   19.63    9.20
  -3   3 -11  -17.60   22.97
  -3   3 -12   51.09   27.35
   3  -3 -12   68.78   31.46
  -3   3 -12   45.35   25.53
  -3   3 -13   15.99   18.92
   3  -3 -13  -30.93   27.07
  -3   3 -13  -18.68   11.76
  -3   3 -14   96.10   35.35
  -3   3 -14   59.21   26.15
   3  -3 -14  100.33   35.53
  -3   3 -15   -7.72   14.60
   3  -3 -15   39.76   30.22
  -3   3 -15   49.02   28.49
  -3   3 -16  120.21   44.39
  -3   3 -16  147.22   45.07
   3  -3 -16  186.37   57.57
  -3   3 -17   36.15   27.26
   3  -3 -17   45.38   36.49
   3  -3 -18   34.39   30.90
  -3   3 -18   84.90   36.21
  -3   3 -19   22.69   19.48
   3  -3 -19   52.54   29.05
   3  -3 -20   -1.27   10.93
  -4   0   0  693.55   42.79
  -4   0  -1  381.63   32.54
  -4   0  -2   76.65   14.63
  -4   0  -3 4082.69  112.93
   4   0   3 4048.36  113.05
   4   0   4  642.64   48.34
  -4   0  -4  627.39   47.63
   4   0   5 3048.54  108.70
   4   0   6  897.48   61.46
   4   0   7  869.17   65.11
   4   0   8  496.84   52.73
  -4   0  -9  171.21   33.59
   0   4  -9  112.46   31.86
   4   0   9  129.01   27.41
   0   4  -9  136.05   37.23
   4   0 -10  288.30   56.65
   0   4 -10  304.73   56.31
   0   4 -10  284.26   45.47
  -4   0 -10  284.75   42.88
   0  -4 -10  231.63   48.16
   0   4 -11   11.11   15.07
  -4   0 -11   55.63   20.93
   0  -4 -11  -18.03   14.82
   0   4 -11   -9.42   18.65
   4   0 -11   41.68   25.68
   0  -4 -12  110.24   29.33
  -4   0 -12  215.23   44.95
   0   4 -12  131.66   37.48
   4   0 -12  109.62   39.24
   0   4 -12  154.32   43.10
   4   0 -12  158.58   43.00
  -4   0 -13  139.20   35.63
   0   4 -13   88.23   35.35
   0   4 -13   94.47   34.02
   4   0 -13   32.41   16.45
   0  -4 -13   72.95   31.18
  -4   0 -14   69.31   22.23
   4   0 -14  121.35   42.54
   0   4 -14   11.76   22.69
   0   4 -14   -0.56   18.03
   0  -4 -14   56.25   33.19
   0  -4 -15  543.76   81.75
   0   4 -15  615.48   87.67
  -4   0 -15  628.60   83.41
   4   0 -15  664.62   94.34
   0   4 -15  545.12   91.10
   4   0 -16  294.39   68.69
  -4   0 -16  308.19   61.06
   0  -4 -16   75.94   41.89
   0   4 -16   65.32   33.03
   0   4 -16  107.09   52.82
   0   4 -17  323.78   66.90
   4   0 -17  511.16   86.44
   0  -4 -17  381.26   68.81
   0   4 -17  343.22   65.45
  -4   0 -17  453.37   74.58
   0   4 -18   49.18   36.92
   4   0 -18  117.28   48.41
  -4   0 -18  130.77   41.68
   4   0 -19   46.68   27.38
   0   4 -19   15.84   17.20
   4   0 -20   44.30   26.83
   0   4 -20   22.72   23.55
   4   0 -21  149.11   91.66
   4   1 -21  -14.02   20.34
   1   4 -21   12.16   17.87
   4   1 -20   20.16   21.27
   1   4 -20   14.23   21.18
   4   1 -19   37.51   32.26
   1   4 -19   34.33   28.90
  -4  -1 -18  133.52   43.50
   1   4 -18   90.27   39.08
   4   1 -18  134.38   43.40
   4   1 -17  264.53   66.80
   1   4 -17  120.46   57.88
  -4  -1 -17  167.85   46.43
  -1  -4 -16  348.10   62.51
   1   4 -16  378.94   70.14
   1   4 -16  270.03   65.20
   4   1 -16  481.71   79.86
  -4  -1 -16  402.87   66.84
  -4  -1 -15  300.07   59.49
  -1  -4 -15  149.38   49.18
   1   4 -15   95.02   43.50
   1   4 -15  173.25   62.36
   4   1 -15  320.35   68.93
   1   4 -14  109.84   36.43
  -4  -1 -14  153.92   41.06
  -1  -4 -14  144.26   40.04
   4   1 -14  174.95   52.82
   1   4 -14   96.81   37.66
   4   1 -14  168.15   47.36
   4   1 -13    4.91   18.00
  -4  -1 -13   61.96   28.22
   4   1 -13   40.16   32.35
   1   4 -13   16.79   21.64
  -1  -4 -13   27.85   23.25
   1   4 -13    4.41   13.03
   4   1 -12   38.43   27.85
   1   4 -12   19.36   25.13
  -1  -4 -12   29.08   19.73
   1   4 -12   26.52   24.11
   4   1 -12   81.65   35.93
   4   1 -11  145.93   40.81
  -1  -4 -11  130.77   33.74
  -4  -1 -11  124.81   31.15
   4   1 -11  174.27   41.40
   1   4 -11  132.81   32.48
   1   4 -11  125.89   40.47
   4   1 -10   75.79   44.58
   1   4 -10   26.92   21.27
  -1  -4 -10   46.74   24.76
   1   4 -10    4.88   15.22
  -4  -1 -10   67.21   30.22
   1   4  -9  132.13   31.43
   1   4  -9  149.11   35.19
   1  -4   9   92.71   24.45
   4  -1   9  124.04   24.26
   4  -1   8   70.26   18.99
   4  -1   7  211.00   31.89
   4  -1   6 1049.12   69.89
   4  -1   5   10.43    8.83
  -4  -1  -5   -0.34    7.93
  -4  -1  -4 1699.85   76.93
   4  -1   4 1754.68   81.93
  -1  -4  -4 1603.32   46.62
  -4  -1  -3  507.18   40.07
  -4  -1  -2  473.41   37.29
  -4   1   2  442.13   32.69
  -4  -1  -1  298.37   28.68
  -4   1   1  405.49   36.15
  -4   1   0   55.04   12.13
  -4   1  -1  278.98   27.04
  -4   1  -2  441.89   36.58
  -4   1  -3  470.72   38.87
   1  -4  -3  353.07   17.94
   4   1   4 1762.21   77.27
   4   1   5   16.82    7.16
   4   1   6 1044.80   65.11
   4   1   7  207.30   28.96
   4   1   8  181.83   32.72
  -4   1  -9  181.92   35.59
  -1   4  -9  155.25   31.86
  -1   4  -9  146.73   36.80
  -1   4 -10   21.95   18.09
  -1   4 -10   20.07   21.89
   1  -4 -10   45.16   33.74
  -4   1 -10   37.38   22.47
  -1   4 -11  151.08   33.59
   1  -4 -11  106.72   29.82
  -4   1 -11  119.10   28.00
  -1   4 -11  108.85   36.86
  -1   4 -12   21.02   19.02
  -4   1 -12   27.07   22.29
   1  -4 -12   38.90   21.61
  -4   1 -12   17.35   17.94
  -1   4 -12   14.54   19.66
   4  -1 -12   58.84   30.44
  -4   1 -13   38.00   27.07
  -4   1 -13   30.90   18.80
  -1   4 -13   31.92   25.31
   1  -4 -13    4.75   17.20
   4  -1 -13   12.56   12.22
  -1   4 -13    4.60   17.69
   4  -1 -14   67.48   32.85
  -1   4 -14  124.90   45.41
  -1   4 -14  161.58   41.46
   1  -4 -14  143.86   42.51
  -4   1 -14   91.41   28.68
  -1   4 -15  156.39   51.22
  -1   4 -15  129.04   49.70
   4  -1 -15  285.99   66.50
   1  -4 -15  113.27   41.77
  -4   1 -15  330.84   66.19
  -1   4 -16  317.17   66.28
  -1   4 -16  313.22   63.35
   1  -4 -16  315.29   59.64
  -4   1 -16  395.83   68.16
   4  -1 -16  450.13   78.35
  -1   4 -17   91.38   49.12
   1  -4 -17   99.68   45.32
   4  -1 -17  255.64   65.26
  -4   1 -17  290.96   62.39
  -1   4 -17   64.77   36.00
  -1   4 -18   60.04   31.92
   4  -1 -18  211.47   56.96
  -4   1 -18  136.64   41.12
   1  -4 -18  146.48   44.49
  -1   4 -19   16.61   12.16
   4  -1 -19   48.34   28.22
   4  -1 -20   24.17   18.06
  -1   4 -20    1.79   10.16
   2   4 -21   33.83   20.56
   4   2 -21    0.00   15.65
   4   2 -20   -1.85   17.10
   2   4 -20   26.15   23.80
   4   2 -19   17.01   20.50
   2   4 -19   29.02   28.56
   4   2 -18  139.85   48.81
   2   4 -18   23.34   26.15
  -4  -2 -17  197.85   46.55
   2   4 -17  177.85   56.22
   4   2 -17  211.68   59.27
   2   4 -17  183.34   57.70
   4   2 -16  195.72   61.43
   2   4 -16   -7.01   27.26
   2   4 -16   69.80   38.19
  -4  -2 -16  202.08   51.68
   2   4 -15  191.71   52.42
   4   2 -15  157.97   52.14
   2   4 -15  193.84   55.91
  -2  -4 -15  162.20   43.93
  -4  -2 -15  200.23   48.96
   4   2 -15  244.28   63.75
  -2  -4 -14   52.85   26.86
  -4  -2 -14   98.29   37.57
   2   4 -14   88.08   37.85
   2   4 -14   48.56   32.51
   4   2 -14   79.03   33.71
   4   2 -14  118.30   48.71
   4   2 -13  108.42   38.16
   2   4 -13  114.50   34.33
  -2  -4 -13  136.91   41.06
   2   4 -13   96.84   39.79
   4   2 -13  128.58   45.20
  -4  -2 -13  102.71   32.69
  -2  -4 -12   19.17   20.99
   4   2 -12   52.88   37.42
   2   4 -12    1.76   11.05
   4   2 -12   29.94   25.59
   2   4 -12    3.80   13.83
  -4  -2 -12   39.51   28.96
  -2  -4 -11   30.16   18.49
   2   4 -11  -15.71   17.97
  -4  -2 -11   57.70   25.44
   2   4 -11    5.59   17.84
   4   2 -11    8.27   12.19
   4   2 -11   25.25   18.18
   2   4 -10  -21.30   16.05
  -2  -4 -10    8.15   16.15
   2   4 -10  -18.77   18.43
   4   2  -9   -4.23   14.57
   4  -2   9  -23.06   17.87
   2   4  -9  -23.06   14.79
   2  -4   9   -7.53    8.58
   2   4  -9   21.55   17.87
   4  -2   8  128.86   29.54
   2  -4   8   94.96   25.13
  -4   2   8   43.87    6.36
   2  -4   7  635.51   61.25
  -4   2   7  516.19   28.28
   4  -2   7  700.09   62.92
  -4   2   6   25.16    7.41
   4  -2   6   31.09   12.19
   4  -2   5  661.20   55.81
  -4   2   5  625.63   35.25
  -4  -2  -5  665.30   49.79
  -2  -4  -5  656.44   36.27
  -2  -4  -4  965.74   44.67
  -4  -2  -4  921.13   53.96
  -4   2   4  935.58   43.56
   4  -2   4  898.59   60.29
  -4   2   3  274.94   24.14
  -4  -2  -3  267.34   28.71
  -4  -2  -2  200.20   25.28
  -4   2   2  224.99   21.42
  -4   2   1  220.70   22.84
  -4   2   0  167.20   21.36
  -4   2  -1  191.22   23.12
   4  -2  -1  211.44   22.69
  -4   2  -2  197.64   25.90
   2  -4  -2  196.43   17.94
   2  -4  -3  210.23   15.65
  -2   4  -8  117.99   27.51
  -2   4  -9   17.53   12.01
  -2   4  -9   22.26   23.52
  -4   2  -9   24.17   16.82
  -4   2  -9   24.39   20.16
  -4   2 -10  -11.21   14.26
  -2   4 -10   28.80   19.82
  -2   4 -11   -8.24   15.10
  -2   4 -11  -15.59   18.65
  -4   2 -11   41.83   23.00
   2  -4 -11    9.76   17.26
   2  -4 -12   24.88   21.55
  -4   2 -12    7.07   11.45
  -2   4 -12   -7.84   12.38
  -4   2 -12   52.14   35.63
   4  -2 -12   -5.77   12.10
  -2   4 -12   -4.88   18.95
  -2   4 -13  128.30   38.22
  -2   4 -13  124.63   41.46
   2  -4 -13  100.45   34.42
  -4   2 -13   96.19   32.23
   4  -2 -13   78.69   33.31
  -2   4 -14  108.08   35.41
   2  -4 -14  100.02   42.85
  -2   4 -14   55.51   30.75
  -4   2 -14   75.88   38.47
   4  -2 -14   84.03   35.59
  -4   2 -14   61.43   25.81
   2  -4 -15  190.38   47.97
  -4   2 -15  182.91   47.76
   4  -2 -15  140.25   46.15
  -4   2 -15  205.79   56.99
  -2   4 -15  164.67   49.27
  -2   4 -15  133.27   41.74
  -2   4 -16   96.47   41.03
  -2   4 -16   85.51   39.08
   4  -2 -16  186.21   54.58
   2  -4 -16  111.07   42.32
  -4   2 -16  205.57   50.94
   2  -4 -17  226.19   55.81
  -2   4 -17   98.48   37.82
  -2   4 -17  167.48   46.68
  -4   2 -17  154.08   43.93
   4  -2 -17  180.29   50.97
  -2   4 -18   52.02   34.36
   2  -4 -18   51.34   38.77
  -4   2 -18   38.47   25.01
   4  -2 -18  110.58   39.98
   4  -2 -19  -25.50   20.19
  -2   4 -19  -13.15   17.72
   2  -4 -19   28.25   14.82
   4  -2 -20   20.65   17.75
   3   4 -21   11.18   25.38
   4   3 -21   35.84   26.06
   4   3 -20   -4.60   20.13
   3   4 -20   12.41   12.53
   4   3 -19   19.54   24.42
   3   4 -19   44.95   25.56
   4   3 -18   48.59   30.19
   3   4 -18   28.74   23.49
   3   4 -17   -2.44   23.59
   3   4 -17   13.21   23.22
   4   3 -17   54.33   34.27
   4   3 -16   27.85   25.62
   4   3 -16   83.44   40.22
   3   4 -16   72.64   26.70
   3   4 -16   36.09   22.69
   3   4 -15   19.79   13.24
   4   3 -15   57.48   26.55
   4   3 -15   42.32   31.61
  -4  -3 -15   78.29   36.83
   3   4 -15   18.65   25.47
   4   3 -14    7.84   20.47
   3   4 -14   -4.35   19.08
  -4  -3 -14  -29.36   20.16
   3   4 -14    3.06   21.36
   4   3 -14   18.12   18.06
   3   4 -13   75.23   26.95
   4   3 -13  112.99   38.13
  -4  -3 -13  145.43   38.96
   4   3 -13  127.44   40.97
   3   4 -13  136.54   46.43
   3   4 -12  -80.33   38.40
   3   4 -12   25.22   12.07
   4   3 -12  -14.60   19.54
   4   3 -12  -45.38   34.70
  -4  -3 -12   25.16   16.73
   3   4 -11  146.82   34.45
   4   3 -11  136.48   36.21
   4   3 -11  135.12   42.17
   3   4 -11  168.03   46.77
  -4  -3 -11  158.80   34.45
   4   3 -10    4.94   17.57
   3   4 -10   13.24    9.35
   3   4 -10    9.66   16.49
   4   3 -10    4.26   21.08
   3  -4   9  -21.05   17.78
   4  -3   9  -25.04   20.99
   4   3  -9    0.06   42.11
   3   4  -9   12.78    9.54
   3   4  -8   46.37   18.92
   3   4  -8   37.17   21.36
   3  -4   8   -2.32    7.35
   4  -3   8    8.18   11.18
   4  -3   7  109.93   28.37
   3  -4   7   93.51   27.07
   3  -4   6   23.34    9.42
  -3  -4  -6   27.10    8.37
  -4   3   6   16.18    4.54
  -4  -3  -6   13.86    7.53
  -4   3   5  264.16   19.26
   4  -3   5  312.69   40.41
   3  -4   5  266.97   37.85
  -4  -3  -5  306.77   32.35
  -3  -4  -5  320.38   30.65
   3  -4   4   57.98   18.21
  -3  -4  -4   47.42   13.46
   4  -3   4   51.34   15.10
  -4   3   4   37.54    8.37
  -4  -3  -4   47.48   12.56
  -4   3   3 1890.60   60.51
  -4  -3  -3 1880.32   79.40
  -4   3   2  576.64   36.06
  -4   3   1  808.11   42.79
  -4   3   0   64.46   13.77
   4  -3   0   72.33   14.51
   3  -4   0   67.79   14.32
  -4   3  -1  740.47   47.85
   4  -3  -1  815.58   45.78
   3  -4  -1  825.68   45.29
   3  -4  -2  562.62   35.47
   4  -3  -2  572.75   39.36
   3  -4  -3 1846.83   58.04
  -3   4  -8   27.07   13.06
  -3   4  -8   43.96   23.80
  -4   3  -8   -2.07    8.89
  -3   4  -9    6.39   12.50
  -4   3  -9  -20.62   18.09
  -3   4 -10    6.70    9.97
  -4   3 -10   15.16   11.11
  -4   3 -10   28.52   19.11
  -3   4 -10    6.45   10.06
  -4   3 -11  177.82   45.13
  -4   3 -11  144.23   36.89
  -3   4 -11  158.03   38.00
  -3   4 -11  163.68   42.57
  -3   4 -12    6.54   12.13
  -4   3 -12   -1.48   13.77
   3  -4 -12  -28.37   23.34
  -3   4 -12  -17.32   18.71
  -4   3 -12    4.04   15.10
  -4   3 -13  166.39   41.65
  -3   4 -13  106.72   34.24
  -4   3 -13  160.78   48.50
  -3   4 -13   92.12   35.13
   4  -3 -13  120.86   38.13
   3  -4 -13   60.54   21.55
  -3   4 -14   -4.23   14.02
  -4   3 -14  -21.67   14.42
   3  -4 -14   38.06   28.37
  -4   3 -14   10.59   23.80
   4  -3 -14   41.65   31.95
  -3   4 -14   29.70   21.92
   3  -4 -15  115.06   44.92
  -4   3 -15   62.92   30.75
  -4   3 -15   84.65   36.43
   4  -3 -15   68.69   39.64
  -3   4 -15  205.48   47.79
  -3   4 -15   62.67   33.28
   3  -4 -16  142.99   49.67
  -3   4 -16   74.34   34.79
  -4   3 -16   79.52   36.43
   4  -3 -16  116.97   44.95
  -3   4 -16   67.24   36.61
   3  -4 -17   51.89   31.86
  -3   4 -17    3.77   20.81
   4  -3 -17   43.93   23.28
  -4   3 -17   19.54   24.85
  -4   3 -18    7.19   20.53
   3  -4 -18   17.29   28.09
  -3   4 -18   35.84   27.41
   4  -3 -19   -9.48   17.72
   3  -4 -19   21.95   19.36
   4  -3 -20   43.81   24.33
   4   4 -20   89.28   47.20
   4   4 -19   24.51   21.61
   4   4 -18   31.30   29.54
   4   4 -17   -0.56   15.93
   4   4 -17  -22.04   20.19
   4   4 -16   14.88   20.81
   4   4 -16  -25.75   25.13
   4   4 -15    3.64   28.62
   4   4 -15  -49.95   35.96
   4   4 -14  128.27   48.71
   4   4 -14   67.02   43.34
   4   4 -13   13.98   20.07
   4   4 -13  -17.87   19.60
   4   4 -12  788.79  105.36
   4   4 -12  729.08   88.41
   4   4 -11  -28.31   27.01
   4   4 -11  -43.71   29.98
   4   4 -10  546.36   68.81
   4   4 -10  449.79   72.61
   4   4  -9   12.72   15.81
   4   4  -9   19.51   18.34
   4   4  -8  215.91   48.71
   4  -4   8  136.36   34.58
   4  -4   7  -13.18   15.40
   4  -4   6  229.03   40.16
  -4  -4  -6  224.28   29.42
  -4  -4  -5   -3.86    7.44
   4  -4   5   -1.14    6.70
   4  -4   4   38.74   16.21
  -4  -4  -4   57.27   15.68
   4  -4   0  224.37   26.36
   4  -4  -1   -9.57    9.48
   4  -4  -2 3647.50  100.73
  -4   4  -8  211.96   37.05
  -4   4  -8  228.91   49.36
  -4   4  -9  -13.46   18.71
  -4   4  -9   16.27   13.58
  -4   4 -10  546.42   66.40
  -4   4 -10  500.17   72.21
  -4   4 -11  -24.85   18.37
  -4   4 -11  -27.69   20.47
  -4   4 -12  796.66   84.65
  -4   4 -12  792.80   98.26
  -4   4 -13    7.47   17.29
  -4   4 -13   31.09   23.59
   4  -4 -13   36.74   17.87
   4  -4 -14  178.22   51.31
  -4   4 -14  134.38   44.70
  -4   4 -14  104.00   34.98
  -4   4 -15  -13.46   22.10
   4  -4 -15   37.32   22.44
  -4   4 -15   37.38   25.50
  -4   4 -16   45.41   32.54
  -4   4 -16  -13.18   12.63
   4  -4 -16   54.64   40.50
  -4   4 -17   37.45   24.73
   4  -4 -17    5.40   14.69
   4  -4 -18   76.00   38.00
   4  -4 -19   47.05   25.13
  -5   0   0 5026.73  131.29
  -5   0   1   19.79    7.81
  -5   0  -1   16.89   10.53
  -5   0  -2   80.36   19.66
   5   0   3 1047.67   61.43
  -5   0  -3 1040.48   61.25
  -5   0  -4 4479.08  136.45
   5   0   4 4626.61  138.92
   5   0   5  101.97   23.06
  -5   0  -5   86.44   21.83
   5   0   6 3319.96  130.92
   5   0   7  471.62   52.82
   0   5  -8  459.89   56.34
   0   5  -8  407.78   60.23
   5   0   8  540.95   57.36
   0   5  -9   22.81   17.50
   5   0   9   28.25   15.13
  -5   0  -9   49.02   18.03
   0   5  -9   -3.58   10.96
   0   5 -10   97.49   31.64
  -5   0 -10  118.92   47.66
   5   0 -10   93.72   30.44
   0   5 -10   49.30   20.41
   0  -5 -10   64.12   22.17
   5   0 -11  117.77   38.13
   0  -5 -11   55.63   22.54
  -5   0 -11  101.57   29.17
   0   5 -11   68.16   31.40
   0   5 -11   76.56   30.90
   5   0 -12   47.05   25.81
   0   5 -12   22.75   24.36
   0   5 -12   70.54   29.98
  -5   0 -12   80.42   31.09
   0  -5 -12   60.57   21.52
   5   0 -12   24.48   19.02
   0  -5 -13  101.94   38.19
  -5   0 -13   73.01   30.13
   5   0 -13  116.97   39.82
   0   5 -13   43.07   33.22
   0   5 -13   43.81   26.52
   0   5 -14  100.70   39.11
   5   0 -14  121.11   39.02
   0   5 -14  153.83   53.13
   0  -5 -14  126.17   36.92
  -5   0 -14  152.26   39.27
   0  -5 -15   85.82   48.07
   5   0 -15  475.66   87.86
  -5   0 -15  377.61   68.87
   0   5 -15  124.87   51.03
   0   5 -15   72.82   38.62
   0   5 -16  546.36   91.72
   0   5 -16  546.36   82.80
  -5   0 -16  558.36   77.89
   5   0 -16  655.14   94.47
  -5   0 -17  270.43   59.77
   0   5 -17   45.84   55.01
   5   0 -17  307.91   78.20
   0   5 -18  169.76   47.05
   0   5 -18  154.51   50.07
   5   0 -18  228.82   55.75
   5   0 -19  104.90   39.92
   0   5 -19    1.73   13.03
   5   0 -20  -21.36   21.36
   0   5 -20    2.25   16.05
   1   5 -20    4.14   16.92
   5   1 -20   -1.91   15.10
   5   1 -19  116.72   40.87
   1   5 -19   29.82   24.82
   1   5 -18    8.37   29.94
   1   5 -18   17.66   22.10
   5   1 -17  497.76   84.80
   1   5 -17  438.86   74.12
  -5  -1 -17  443.71   72.98
   1   5 -17  362.55   71.62
   5   1 -16  315.01   78.20
  -5  -1 -16  245.64   53.65
   1   5 -16   83.54   57.82
   1   5 -16    6.39   29.45
   1   5 -15  421.57   78.78
   1   5 -15  432.50   81.22
  -5  -1 -15  486.68   71.99
   5   1 -15  568.00   88.32
   1   5 -14  -25.35   17.44
  -5  -1 -14   28.43   21.12
   5   1 -14   13.34   25.04
   5   1 -14   35.66   26.80
   1   5 -14   15.19   25.47
  -5  -1 -13  104.19   36.06
   5   1 -13   99.47   39.70
   1   5 -13  131.02   48.34
   1   5 -13  109.65   40.38
   5   1 -13  131.76   47.17
  -5  -1 -12   93.32   40.32
   1   5 -12   46.55   31.55
   1   5 -12  -10.09   13.52
   5   1 -12   17.38   32.45
   5   1 -12   57.36   27.23
  -5  -1 -11   94.50   28.09
   1   5 -11   47.85   25.41
   1   5 -11   35.56   21.15
   5   1 -11   66.87   33.65
   5   1 -10   16.52   18.49
  -5  -1 -10   50.94   20.53
   1   5 -10   22.75   18.83
   1   5 -10  -15.81   11.67
   1   5  -9   31.89   21.67
  -5  -1  -9   12.32    9.76
   5  -1   9    3.95    7.19
   1   5  -8  611.25   63.87
   5  -1   8  686.66   66.90
   1   5  -8  571.48   68.66
   5  -1   7 1765.39  102.86
   5  -1   6  401.57   46.21
  -5  -1  -5 3047.99  115.46
   5  -1   5 3096.33  122.37
   5  -1   4  160.59   26.86
  -5  -1  -4  151.95   23.93
  -5  -1  -3 1825.16   83.10
  -5   1   3 1811.60   75.85
  -5  -1  -2  782.95   52.17
  -5   1   2  795.55   49.61
  -5  -1  -1  330.32   33.34
  -5   1   1  358.04   33.31
  -5   1   0   97.61   16.92
  -5   1  -1  314.64   32.75
  -5   1  -2  764.55   52.42
  -5   1  -3 1816.17   83.81
  -5   1  -4  161.83   27.88
  -1   5  -8  599.79   61.50
  -1   5  -8  560.03   69.27
  -5   1  -9   55.63   22.72
  -5   1  -9   26.52   21.30
  -1   5  -9   26.67   13.09
  -1   5  -9   41.68   24.02
   1  -5 -10  -17.47   15.90
  -1   5 -10   13.24   14.94
  -1   5 -10   11.58   13.43
  -5   1 -10   17.01   20.65
  -5   1 -10    5.62   13.89
  -1   5 -11   11.36   12.22
  -5   1 -11   71.07   26.77
   1  -5 -11   21.02   10.87
  -5   1 -11   75.36   31.03
  -1   5 -11   23.46   19.70
  -1   5 -12   18.92   23.99
   1  -5 -12   47.39   27.04
  -1   5 -12    8.43   19.39
  -5   1 -12   39.61   23.28
   5  -1 -13  119.96   43.10
  -1   5 -13   78.13   35.53
  -5   1 -13  112.28   34.24
  -1   5 -13   79.55   33.12
   1  -5 -13   81.04   36.89
  -1   5 -14   13.86   25.59
   5  -1 -14   67.85   32.51
  -1   5 -14   35.66   27.85
   1  -5 -14   10.62   21.49
  -5   1 -14   94.00   33.06
   1  -5 -15  473.75   74.06
  -1   5 -15  403.36   66.62
   5  -1 -15  614.21   89.28
  -1   5 -15  426.21   80.05
  -5   1 -15  514.68   75.85
  -1   5 -16   42.51   31.18
   1  -5 -16   71.56   47.45
  -5   1 -16  285.53   59.21
  -1   5 -16   67.82   49.18
   5  -1 -16  287.50   68.04
  -1   5 -17  372.18   73.84
  -1   5 -17  417.10   73.13
  -5   1 -17  397.80   67.18
   5  -1 -17  536.35   89.56
  -1   5 -18  -14.48   23.99
  -1   5 -18   30.72   30.53
   5  -1 -19   54.73   29.64
  -1   5 -19   37.60   26.06
   5  -1 -20   -8.40   13.43
   2   5 -21   -2.96   11.51
   2   5 -20   33.28   24.26
   5   2 -20    7.35   19.82
   2   5 -19  -23.93   15.28
   5   2 -19    8.21   18.46
   2   5 -18   39.82   27.88
   2   5 -18   38.71   26.92
   5   2 -18  120.03   41.24
   2   5 -17  -26.67   14.94
   2   5 -17   32.51   42.97
   2   5 -16  275.80   65.72
   2   5 -16  191.83   54.80
   5   2 -16  358.57   73.53
  -5  -2 -16  312.69   56.31
   5   2 -15  155.71   58.22
   2   5 -15  -15.53   13.12
  -5  -2 -15  116.85   40.66
   2   5 -15   -5.71   28.34
   5   2 -15  153.89   58.28
   5   2 -14   74.71   30.22
   5   2 -14   68.07   39.14
  -5  -2 -14   76.99   29.17
   2   5 -14   12.16   20.22
   2   5 -14   47.02   18.12
   2   5 -13   15.28   17.13
   5   2 -13   71.31   36.67
  -5  -2 -13   41.71   27.29
   2   5 -13   19.60   20.56
   5   2 -13   26.21   25.19
   5   2 -12   72.98   34.76
  -5  -2 -12  104.75   31.06
   5   2 -12   84.25   36.64
   2   5 -12   72.49   25.50
   2   5 -12   85.98   33.62
   5   2 -11   30.53   29.14
   2   5 -11   30.78   20.53
   2   5 -11  -11.11   15.99
   5   2 -11   -3.15   15.78
  -5  -2 -11   43.53   22.01
   2   5 -10   74.03   30.41
  -5  -2 -10   95.42   28.28
   5   2 -10   67.51   24.08
   2   5 -10   89.40   27.78
   5  -2   9    8.77   12.01
   2   5  -9   23.25   20.07
   2   5  -8   21.70   13.77
   5  -2   8   -1.23   14.51
   2   5  -8    4.32    8.40
   2  -5   8    5.90    7.81
  -5   2   7   68.72   13.34
   5  -2   7   51.49   16.18
  -5   2   6  838.24   46.03
  -5  -2  -6  907.76   66.77
   5  -2   6  851.08   70.14
  -5  -2  -5   98.45   19.51
   5  -2   5  119.25   23.52
  -5   2   5  105.30   16.42
  -2  -5  -5   95.14   14.17
  -5  -2  -4 1264.08   71.93
  -5   2   4 1274.51   59.09
   5  -2   4 1189.52   74.00
  -5   2   3   84.77   16.70
  -5  -2  -3   64.12   18.43
  -5   2   2   26.21    9.72
  -5  -2  -2   13.77    9.82
  -5   2   1  855.74   50.63
  -5   2   0   74.95   17.47
  -5   2  -1  798.05   54.09
  -5   2  -2   27.10   10.25
   2  -5  -2   14.69    6.76
   2  -5  -3   69.24   12.04
  -5   2  -3   65.51   17.16
  -2   5  -8  -22.72   24.82
  -5   2  -8   31.46   19.79
  -2   5  -8  -10.37   20.19
  -2   5  -9   42.32   22.57
  -2   5  -9   31.15   18.74
  -2   5 -10   80.64   30.25
  -5   2 -10   78.17   24.64
  -2   5 -10   95.58   28.52
  -5   2 -10   21.18   21.58
   2  -5 -11   28.65   15.10
  -5   2 -11   26.27   22.32
  -5   2 -11    9.79   12.38
  -2   5 -11    7.56   12.97
  -2   5 -12   63.72   26.18
   2  -5 -12   57.42   22.17
  -2   5 -12   45.26   24.48
  -5   2 -12   80.67   28.62
  -5   2 -12   68.10   31.24
  -5   2 -13   47.88   34.02
  -2   5 -13   34.98   26.30
   5  -2 -13  102.49   40.66
   2  -5 -13    7.38   14.26
  -5   2 -13   73.94   27.38
  -2   5 -13   18.95   18.18
   2  -5 -14   60.60   24.48
  -2   5 -14   85.48   39.36
  -2   5 -14   86.32   30.41
  -5   2 -14   72.42   27.23
   5  -2 -14   67.58   32.14
  -2   5 -15   19.70   25.44
   2  -5 -15    9.91   20.47
  -5   2 -15  116.04   41.06
  -2   5 -15   33.56   25.68
   5  -2 -15  134.41   45.81
   2  -5 -16  314.64   60.57
  -2   5 -16  263.36   64.18
  -2   5 -16  322.51   61.68
  -5   2 -16  292.44   57.67
   5  -2 -16  419.26   77.55
   2  -5 -17   16.67   39.18
   5  -2 -17  150.90   51.62
  -5   2 -17  133.15   46.99
  -2   5 -17  -21.15   19.76
  -2   5 -17   42.42   34.08
  -2   5 -18   66.16   27.66
   5  -2 -18   91.72   40.53
   5  -2 -19   36.30   24.54
  -2   5 -19   50.41   29.51
   5  -2 -20    6.51   12.04
   5   3 -20   34.51   38.40
   3   5 -20   63.69   42.26
   3   5 -19   14.63   11.55
   5   3 -19   31.61   28.46
   3   5 -18   57.48   30.65
   3   5 -18   16.82   27.32
   5   3 -18   91.75   38.16
   3   5 -17   65.91   29.23
   5   3 -17  116.38   44.08
   3   5 -17  127.22   47.11
   3   5 -16   -9.88   22.01
   5   3 -16   -1.14   14.20
   5   3 -16  -17.97   15.00
   3   5 -16  -52.11   29.48
   5   3 -15   72.36   38.03
   3   5 -15   31.30   23.55
   3   5 -15   29.30   20.10
   5   3 -15   41.31   25.78
   3   5 -14   93.57   36.21
   3   5 -14   14.54   19.42
   5   3 -14  109.13   42.17
   5   3 -14   47.23   36.21
   5   3 -13   56.83   31.61
   3   5 -13   64.34   33.22
   5   3 -13   26.70   19.70
   3   5 -13    2.84   16.73
   5   3 -12  413.15   77.76
   3   5 -12  420.12   67.24
   5   3 -12  419.51   66.90
  -5  -3 -12  356.68   58.41
   3   5 -12  437.13   75.85
   3   5 -11   21.98   15.34
   3   5 -11   31.15   19.76
   5   3 -11   -1.94   20.37
   5   3 -11   56.25   33.71
   3   5 -10  436.02   62.58
   5   3 -10  418.95   68.32
   3   5 -10  441.58   69.89
   3   5  -9   46.55   23.03
   3   5  -9   28.28   13.64
   5   3  -9   23.71   19.20
   3  -5   8  204.12   41.40
   3   5  -8  198.22   41.61
   3   5  -8  238.97   43.10
   5  -3   8  256.35   45.29
   5  -3   7 1102.22   88.32
   3  -5   7  984.17   85.20
   5  -3   6   80.02   19.39
   3  -5   6   57.61   19.11
  -3  -5  -6   58.35   12.38
  -5   3   6   44.15    8.64
   5  -3   5  347.11   44.30
  -5  -3  -5  376.87   39.92
  -3  -5  -5  364.65   34.58
  -5   3   5  345.32   27.54
   3  -5   5  269.66   41.68
  -5  -3  -4  439.11   41.58
  -5   3   4  426.76   31.58
   3  -5   4  422.69   50.44
   5  -3   4  443.74   47.91
  -5   3   3  736.46   44.49
  -5  -3  -3  723.77   53.96
  -5   3   2  223.78   26.86
  -5   3   1   33.68   10.00
  -5   3   0   17.23    6.36
   3  -5   0   -2.28   11.58
   5  -3   0   17.20    8.83
  -5   3  -1   32.41   13.64
   3  -5  -1   43.87   12.60
   5  -3  -1   46.80   13.43
  -5   3  -2  192.45   30.28
   3  -5  -2  208.13   26.18
   3  -5  -3  673.08   37.76
  -5   3  -8  218.51   44.36
  -5   3  -8  283.64   43.93
  -3   5  -8  232.21   45.20
  -3   5  -8  264.75   41.09
  -3   5  -9   32.79   16.95
  -5   3  -9   42.97   16.67
  -5   3  -9   40.56   19.51
  -3   5  -9   50.04   23.18
  -3   5 -10  454.95   60.75
  -5   3 -10  480.17   60.29
  -3   5 -10  442.47   67.64
  -5   3 -10  474.83   71.78
  -5   3 -11   55.63   30.75
  -3   5 -11   52.94   24.02
  -5   3 -11   49.08   21.92
  -3   5 -11   75.05   20.00
  -3   5 -12  389.04   70.97
  -5   3 -12  445.35   64.43
  -5   3 -12  479.33   81.72
  -3   5 -12  434.76   65.69
   3  -5 -12  442.66   62.92
   3  -5 -13   24.97   18.74
  -3   5 -13    4.11   10.96
  -3   5 -13   13.77   16.39
  -5   3 -13   -4.54   11.98
  -5   3 -13   -1.23   16.76
   5  -3 -14   74.21   32.04
  -3   5 -14   73.35   34.79
  -3   5 -14   92.43   33.43
  -5   3 -14   96.78   35.53
  -5   3 -14   87.15   36.86
   3  -5 -14   79.99   32.60
  -3   5 -15   68.47   26.18
  -3   5 -15   23.40   30.65
   3  -5 -15  107.62   40.78
   5  -3 -15    5.77   26.83
  -5   3 -15   84.31   33.50
  -3   5 -16   -9.76   19.82
   3  -5 -16   67.48   37.57
  -3   5 -16  -21.08   21.21
  -5   3 -16    9.14   17.91
   5  -3 -16   58.78   40.56
   5  -3 -17   53.62   25.65
  -3   5 -17   73.75   21.64
  -3   5 -17   81.19   35.35
   3  -5 -17   81.81   28.77
   3  -5 -18    7.25   15.96
  -3   5 -18   26.09   24.36
   5  -3 -18   39.64   30.22
   5  -3 -19   11.79   17.32
   5  -3 -20   82.80   38.09
   4   5 -20    5.09   20.44
   5   4 -20  -22.32   27.14
   4   5 -19   32.75   31.86
   5   4 -19   74.77   37.72
   5   4 -18    1.73   22.75
   4   5 -18   21.39   29.39
   4   5 -18    6.76   16.05
   5   4 -17  -10.25   22.41
   4   5 -17   35.19   27.54
   5   4 -17    4.41   14.32
   4   5 -17   35.47   29.33
   4   5 -16    9.85   21.89
   5   4 -16  -52.33   34.21
   4   5 -16   24.20   22.44
   5   4 -16  -14.66   14.11
   4   5 -15   12.16   20.81
   5   4 -15   -9.11   17.84
   5   4 -15    1.42   17.10
   4   5 -14    7.66   21.55
   5   4 -14    0.74   19.70
   4   5 -14  -29.61   24.79
   5   4 -14  -18.89   26.30
   5   4 -13  140.03   47.11
   4   5 -13  130.15   46.09
   5   4 -13  159.51   50.23
   4   5 -13  135.12   41.58
   4   5 -12  -46.62   33.46
   5   4 -12  -73.32   39.36
   4   5 -12  -26.52   28.71
   5   4 -12  -18.34   25.93
   5   4 -11 1064.71  117.19
   4   5 -11 1073.60  117.25
   5   4 -11 1058.60  101.10
   4   5 -11 1017.91  100.52
   5   4 -10   68.56   32.97
   5   4 -10   38.16   18.71
   4   5 -10   47.39   23.80
   4   5 -10   30.16   14.45
   4   5  -9  226.72   42.82
   5   4  -9  167.29   48.99
   4   5  -9  211.25   48.75
   4   5  -8   21.89   17.66
   4   5  -8   -7.32   17.23
  -5  -4  -7   63.41   17.87
   5  -4   7   64.61   22.78
   4  -5   7   75.45   25.25
  -4  -5  -7   60.17   16.36
   4  -5   6  -20.87   18.15
   5  -4   6  -27.01   19.66
  -5  -4  -6  -16.39    8.64
  -4  -5  -6   -6.21   10.06
  -4  -5  -5   49.67   13.55
   4  -5   5   37.38   14.51
   5  -4   5   49.58   16.82
  -5  -4  -5   38.62   10.34
   4  -5   4   16.21   12.81
  -4  -5  -4   16.98    6.30
  -5  -4  -4   43.71   15.22
  -5   4   4   30.07    9.63
  -5   4   3  164.36   20.50
  -5  -4  -3  150.65   25.59
  -5   4   2   -3.74    8.92
   4  -5   1 3185.92  121.85
  -5   4   1 3169.19  100.24
   4  -5   0  400.24   43.19
   5  -4   0  389.41   41.77
   4  -5  -1 3187.99  107.89
   5  -4  -1 3120.07  106.91
   5  -4  -2   -5.40   10.37
   4  -5  -2   -4.75   10.31
   4  -5  -3  177.63   21.92
  -4   5  -7   48.34   16.55
  -4   5  -7   86.90   22.17
  -5   4  -8    9.88   11.48
  -5   4  -8   41.83   23.28
  -4   5  -8   -1.17   16.42
  -4   5  -8   14.42   14.08
  -4   5  -9  244.99   46.52
  -5   4  -9  262.96   50.41
  -4   5  -9  169.14   44.67
  -5   4  -9  180.01   35.29
  -4   5 -10   12.72   13.52
  -5   4 -10   20.07   15.87
  -4   5 -10   56.74   23.62
  -5   4 -10   54.73   28.06
  -5   4 -11 1023.71   93.42
  -5   4 -11 1061.99  110.58
  -4   5 -11 1082.46  110.55
  -4   5 -11 1055.51   96.63
  -5   4 -12    3.98   14.20
  -4   5 -12  -45.26   24.11
  -5   4 -12   -8.83   17.47
  -4   5 -12  -24.30   27.20
  -4   5 -13  110.12   38.19
   4  -5 -13  126.32   38.80
  -4   5 -13  139.97   35.50
  -5   4 -13  153.80   44.58
  -5   4 -13  138.21   41.15
   5  -4 -13  205.14   49.30
  -5   4 -14   11.33   17.16
  -4   5 -14  -35.78   25.22
  -4   5 -14    5.25   19.11
  -5   4 -14   -6.95   15.22
   4  -5 -14   -2.99   15.53
   5  -4 -14   16.08   24.73
   4  -5 -15   20.75   19.45
  -5   4 -15   42.57   27.51
   5  -4 -15  -38.37   29.27
  -4   5 -15   92.86   40.90
  -4   5 -15  -26.49   23.49
  -4   5 -16   48.13   30.28
  -4   5 -16   -9.17   19.70
   5  -4 -16  -37.91   17.69
   4  -5 -16  -34.08   24.85
  -5   4 -16   67.11   31.58
  -4   5 -17   23.40   19.48
   4  -5 -17   40.69   28.15
   5  -4 -17   -6.02   21.49
   5  -4 -18   -2.01   17.75
   4  -5 -18   -7.69   13.46
   5  -4 -19   70.88   30.32
   5  -4 -20   19.23   16.33
   5   5 -20   73.20   46.52
   5   5 -19   15.78   21.18
   5   5 -18   29.61   27.69
   5   5 -18   60.51   44.89
   5   5 -17   45.91   33.16
   5   5 -17   -1.11   14.57
   5   5 -16   63.04   39.73
   5   5 -16   86.53   41.24
   5   5 -15   40.04   31.33
   5   5 -15   13.40   17.66
   5   5 -14   36.98   30.28
   5   5 -14   75.23   47.39
   5   5 -13   13.15   18.31
   5   5 -13   19.29   16.39
   5   5 -12 1783.45  162.47
   5   5 -12 1446.03  133.80
   5   5 -11   52.91   28.03
   5   5 -11  -43.65   31.74
   5   5 -10 1585.35  143.61
   5   5 -10 1540.99  118.85
   5   5  -9    0.12   14.02
   5   5  -9   -3.49   14.76
  -5  -5  -7   -9.23   11.67
   5  -5   6   19.85   12.29
  -5  -5  -6   31.58    6.98
   5  -5   5   -9.76   17.57
  -5  -5  -5   35.29   19.85
   5  -5   4  263.30   40.07
  -5  -5  -4  299.33   37.42
   5  -5   3   18.00   18.09
   5  -5   2 3282.21  137.50
   5  -5   1   -4.91    8.43
   5  -5   0 2566.18  108.91
   5  -5  -1  -12.75   12.32
   5  -5  -2 3394.39  115.70
   5  -5  -3   -1.05    8.67
  -5   5  -7   -9.54    9.66
  -5   5  -7    3.55   10.62
  -5   5  -8  305.62   47.97
  -5   5  -8  277.59   49.15
  -5   5  -9    5.90   10.93
  -5   5  -9   39.45   23.12
  -5   5 -10 1635.82  132.25
  -5   5 -10 1606.71  116.75
  -5   5 -11  -50.69   23.49
  -5   5 -11   -8.06   11.27
  -5   5 -12 1620.76  126.94
  -5   5 -12 1650.95  144.48
  -5   5 -13   -3.95   13.43
  -5   5 -13   12.93   23.74
  -5   5 -14   23.12   24.33
   5  -5 -14   16.70   20.71
  -5   5 -14   39.76   21.76
  -5   5 -15  -13.61   12.72
   5  -5 -15   10.96   27.88
  -5   5 -16   91.53   33.40
   5  -5 -16  118.05   39.76
   5  -5 -17  -14.48   19.63
   5  -5 -18   28.93   20.34
   5  -5 -19    3.21   11.08
  -6   0   0 8748.79  189.67
  -6   0   1 1832.78   87.12
  -6   0  -1 1766.50   86.22
  -6   0  -2   55.20   19.45
   6   0   3   79.49   19.23
  -6   0  -3   82.18   18.52
  -6   0  -4  569.85   52.08
   6   0   4  540.09   50.97
   6   0   5 4597.16  155.90
  -6   0  -5 4682.42  157.60
   6   0   6  248.82   37.82
   6   0   7 1784.78  106.29
   0   6  -8  348.10   57.45
   6   0   8  370.98   50.10
   0   6  -8  340.63   49.55
  -6   0  -9   22.81   14.14
   0   6  -9    5.99    8.71
  -6   0 -10  135.12   40.50
   0   6 -10   12.78   24.54
   0   6 -10   31.27   25.16
   6   0 -10  103.91   45.94
   6   0 -11  337.14   64.80
   0   6 -11  369.77   69.31
   0   6 -11  338.13   56.19
  -6   0 -11  400.37   58.32
   6   0 -12   98.97   42.48
   0   6 -12   11.73   10.96
  -6   0 -12   90.54   33.22
   0   6 -12   41.09   29.57
   6   0 -13   20.53   20.68
   0   6 -13  -30.72   23.00
  -6   0 -13   41.95   25.72
   0   6 -13   -3.30   17.97
  -6   0 -14   45.57   25.10
   0   6 -14   15.44   17.29
   0   6 -14    0.93   20.10
   6   0 -15  699.63   99.62
  -6   0 -15  564.57   79.12
   0   6 -15  552.62   90.33
   0   6 -15  401.85   81.16
   0   6 -16   31.03   52.51
   0   6 -16   -8.03   11.79
   6   0 -17  536.32   88.26
   0   6 -17  432.19   74.77
   0   6 -17  419.29   80.94
   6   0 -18   57.05   36.21
   0   6 -18   12.66   32.54
   0   6 -18   39.58   35.44
   6   0 -19   22.17   19.42
   0   6 -19    5.50   17.75
   0   6 -19   41.21   24.20
   0   6 -20  -14.14   14.23
   6   0 -20   25.78   26.80
   6   1 -20   14.69   24.39
   1   6 -20    1.85   14.73
   1   6 -19   -6.61   10.59
   1   6 -19  -17.75   13.09
   1   6 -18  127.78   45.84
   6   1 -18  149.42   48.22
   1   6 -18  100.21   35.22
   1   6 -17   71.56   56.96
   1   6 -17   27.51   35.16
   1   6 -16  376.01   73.66
   6   1 -16  502.92   86.41
   1   6 -16  373.79   76.59
  -6  -1 -15  214.37   54.43
   6   1 -15  278.73   71.03
   1   6 -15   -3.83   27.91
   1   6 -15   83.97   58.47
  -6  -1 -14   25.16   21.42
   1   6 -14   94.99   38.03
   1   6 -14   28.28   28.74
   6   1 -14   71.03   39.82
   6   1 -14   98.17   40.26
   6   1 -13   47.91   36.95
   1   6 -13    1.36   18.06
   1   6 -13   39.39   29.39
  -6  -1 -13   -9.20   14.51
   6   1 -13   16.45   19.23
   1   6 -12  137.96   41.24
   1   6 -12  143.74   44.70
  -6  -1 -12  211.22   45.84
   6   1 -12  265.37   61.12
   6   1 -11  118.54   42.14
  -6  -1 -11  109.16   35.10
   1   6 -11   26.64   20.28
   1   6 -11   29.42   26.98
   1   6 -10  330.41   61.80
   6   1 -10  342.54   69.00
   1   6 -10  372.06   57.64
  -6  -1  -9   -1.82   12.66
   1   6  -9   -3.98   16.05
   6  -1   9   -8.43   16.27
   1   6  -9   -4.41   11.98
   1   6  -8  500.26   60.38
   6  -1   8  516.35   61.96
   1   6  -8  481.28   67.55
   6  -1   7  736.15   70.08
   6  -1   6 3118.16  139.10
  -6  -1  -6 3107.23  132.93
  -1  -6  -5    8.37    3.77
  -6  -1  -5    8.06   10.96
   6  -1   4 3234.08  130.83
  -6  -1  -4 3284.40  124.87
  -6   1   4 3311.47  112.31
  -6  -1  -3   16.79    8.49
  -6   1   3    7.66    7.69
   6  -1   3   18.06   10.93
  -6  -1  -2  112.12   21.83
  -6   1   2  142.56   23.62
  -6   1   1   97.09   19.60
  -6  -1  -1  107.40   19.11
  -6  -1   0 2150.78   95.76
  -6   1   0 2159.00   91.10
  -6   1  -1   94.71   18.49
  -6   1  -2  111.48   23.80
  -6   1  -3    7.22    7.29
  -6   1  -4 3257.88  126.11
   1  -6  -4 2365.49   59.83
  -6   1  -5   39.30   17.84
  -6   1  -8  622.85   65.17
  -1   6  -8  498.66   60.32
  -1   6  -8  501.41   67.76
  -6   1  -9    3.36   14.79
  -1   6  -9    8.12   10.28
  -6   1  -9   27.14   23.40
  -1   6  -9   -8.46   20.34
  -6   1 -10  366.47   52.57
  -6   1 -10  361.56   60.72
  -1   6 -10  311.70   51.34
  -1   6 -10  343.38   61.68
  -1   6 -11   12.22   14.63
   1  -6 -11  -33.71   23.18
  -1   6 -11   23.40   20.71
  -1   6 -12  130.62   39.51
  -6   1 -12  147.69   36.95
  -1   6 -12  124.35   37.26
   6  -1 -13  -27.94   26.70
   1  -6 -13    4.45   14.91
  -1   6 -13  -23.62   25.62
  -6   1 -13   13.09   13.77
  -1   6 -13   45.63   28.71
  -6   1 -14   79.55   31.03
  -1   6 -14   40.93   25.75
   6  -1 -14  107.46   40.81
  -1   6 -14  103.11   38.93
   6  -1 -15  318.03   70.17
  -1   6 -15   21.64   26.36
  -6   1 -15  246.23   52.82
  -1   6 -15   49.58   44.70
  -1   6 -16  376.01   75.94
   6  -1 -16  514.06   87.21
  -1   6 -16  380.58   68.63
  -1   6 -17    1.39   26.95
  -1   6 -17    8.52   38.31
  -1   6 -18  153.86   49.79
   6  -1 -18  181.12   53.75
  -1   6 -18  106.91   39.61
   6  -1 -19    5.50   15.25
  -1   6 -19   31.98   21.30
   6  -1 -20   31.77   22.66
   2   6 -20  -14.48   17.26
   6   2 -20    6.85   20.53
   2   6 -19    1.42   13.24
   2   6 -19   29.82   16.08
   6   2 -19   18.12   21.61
   2   6 -18   22.63   32.26
   6   2 -18   52.67   34.85
   2   6 -18  -27.48   16.27
   6   2 -17  301.80   69.55
   2   6 -17  237.86   59.67
   2   6 -17  208.44   59.49
   2   6 -16  -49.89   31.67
   2   6 -16   21.21   39.76
   2   6 -15  221.78   57.67
   6   2 -15  282.10   69.37
   2   6 -15  164.14   57.64
   6   2 -15  342.14   74.12
  -6  -2 -15  242.80   52.88
   6   2 -14   13.31   27.75
  -6  -2 -14   19.23   17.20
   6   2 -14   30.44   30.25
   2   6 -14   56.93   33.59
   2   6 -14    4.51   22.69
   2   6 -13   32.35   23.55
  -6  -2 -13   -5.65   15.53
   6   2 -13  -11.14   26.27
   6   2 -12   74.15   38.31
  -6  -2 -12   66.37   26.98
   2   6 -12   56.25   27.75
   6   2 -12   16.98   15.53
   2   6 -12   32.14   29.94
   2   6 -11  219.31   54.55
   6   2 -11  227.49   58.50
  -6  -2 -11  179.11   42.11
   2   6 -11  194.21   45.07
   2   6 -10  137.10   38.03
   2   6 -10  193.35   42.79
   6   2 -10  202.61   54.61
   2   6  -9   76.07   26.52
   2   6  -9   89.22   31.74
   6  -2   8  222.27   42.45
   2   6  -8  234.06   42.26
   2   6  -8  204.95   46.43
   6  -2   7  802.55   75.14
  -6   2   7  735.26   46.34
   6  -2   6   96.94   26.12
  -6  -2  -6   57.05   16.92
  -6   2   6   77.92   13.98
  -2  -6  -6   46.40    8.58
  -6  -2  -5  664.44   59.18
  -6   2   5  628.50   45.04
   6  -2   5  615.97   59.77
  -2  -6  -5  663.17   41.37
  -6   2   4   11.98    6.11
   6  -2   4    6.82    5.96
  -6  -2  -4    1.27   12.26
  -6  -2  -3  800.95   59.40
   6  -2   3  849.91   65.20
  -6   2   3  784.74   52.30
  -6   2   2    4.35   11.45
  -6  -2  -2   19.79    8.12
  -6   2   1  226.22   32.29
  -6  -2  -1  214.21   32.75
  -6   2   0 1121.45   67.05
   6  -2   0 1094.44   67.18
  -6   2  -1  205.51   33.25
  -6   2  -2   29.23   11.14
   2  -6  -3  688.98   40.69
  -6   2  -3  739.39   59.70
  -6   2  -4   22.07   11.05
   2  -6  -4    9.51    4.11
  -6   2  -8  224.06   46.28
  -6   2  -8  325.81   49.42
  -2   6  -8  235.79   42.51
  -2   6  -8  250.83   47.02
  -6   2  -9  109.78   35.81
  -2   6  -9  108.08   28.31
  -6   2  -9  116.94   31.58
  -2   6  -9   81.50   30.38
  -6   2 -10  199.98   49.30
  -2   6 -10  188.87   45.57
  -2   6 -10  145.87   34.95
  -6   2 -10  233.01   45.78
  -6   2 -11  195.38   49.64
  -6   2 -11  177.14   38.47
  -2   6 -11  249.96   45.23
  -2   6 -11  196.15   48.41
   2  -6 -11  150.22   40.22
   2  -6 -12   61.09   25.72
  -6   2 -12   51.86   18.65
  -2   6 -12   43.50   24.42
  -2   6 -12   63.78   32.82
  -2   6 -13  -22.94   13.52
  -6   2 -13   26.73   13.61
   2  -6 -13  -51.40   25.22
  -2   6 -13   36.43   21.55
   2  -6 -14    3.55   14.54
   6  -2 -14   44.73   27.07
  -6   2 -14   27.29   13.55
  -2   6 -14    4.04   17.69
  -2   6 -15  270.00   58.22
  -6   2 -15  278.67   54.49
   2  -6 -15  236.04   55.32
  -2   6 -15  215.73   55.48
   6  -2 -15  349.83   69.68
  -2   6 -16  -18.71   23.06
  -2   6 -16  -25.99   23.00
  -2   6 -17  191.31   46.92
  -2   6 -17  208.23   55.04
   6  -2 -17  358.26   72.82
  -2   6 -18    5.53   17.10
  -2   6 -18   -6.76   15.03
   6  -2 -19   31.67   24.51
   6  -2 -20   36.80   28.80
   3   6 -20   -6.73   12.87
   6   3 -20   17.78   15.37
   6   3 -19   25.81   28.80
   3   6 -19    0.19   13.89
   3   6 -19   60.54   31.06
   3   6 -18   62.98   35.25
   6   3 -18   30.99   23.89
   3   6 -18   22.81   19.66
   3   6 -17   50.47   38.71
   3   6 -17  -13.77   22.13
   6   3 -17   52.17   30.19
   6   3 -16  109.93   38.50
   6   3 -16  113.57   31.67
   3   6 -16  136.14   49.67
   3   6 -16   84.77   40.13
   3   6 -15   -4.82   22.66
   6   3 -15   46.18   29.70
   3   6 -15    4.29   25.22
   6   3 -15   18.52   31.36
   6   3 -14   58.07   43.53
   3   6 -14   46.77   29.20
   3   6 -14    5.46   17.07
   6   3 -14   -3.24   25.44
   6   3 -13   -0.99   14.54
   6   3 -13   67.73   23.00
   3   6 -13   46.28   27.66
   3   6 -13   43.99   28.09
   6   3 -12   56.43   26.46
   3   6 -12  108.88   38.50
   6   3 -12  122.65   43.99
   3   6 -12   62.85   23.00
   6   3 -11  511.50   71.65
   6   3 -11  509.31   84.31
   3   6 -11  566.05   88.32
   3   6 -11  460.16   65.17
   3   6 -10  322.85   53.90
   6   3 -10  314.51   64.61
   3   6 -10  301.64   61.43
   3   6  -9  279.01   54.80
   3   6  -9  319.30   50.66
   3   6  -8  145.12   34.27
   3   6  -8  131.66   34.36
  -6  -3  -7  160.28   34.70
  -6   3   7  117.59   15.93
   3   6  -7  150.43   42.11
   3  -6   7  111.14   30.50
   6  -3   7  149.82   35.87
  -6  -3  -6  298.83   42.82
   6  -3   6  283.15   46.03
  -6   3   6  233.08   25.47
   3  -6   6  181.58   38.74
  -3  -6  -6  294.48   31.98
  -3  -6  -5   67.39   18.34
  -6   3   5   51.96   13.83
  -6  -3  -5   91.53   26.36
   6  -3   5   50.81   22.54
  -6  -3  -4  110.89   24.05
   6  -3   4   98.63   23.68
  -6   3   4  112.56   19.14
  -6  -3  -3  670.95   56.34
   6  -3   3  627.73   56.34
  -6   3   3  686.20   46.92
  -6   3   2   12.01    9.38
  -6  -3  -2   11.30    9.32
  -6   3   1 1022.08   60.57
   3  -6   0 1881.59   94.43
  -6   3   0 2096.85   92.03
   6  -3   0 2042.33   96.04
   6  -3  -1  965.46   62.88
  -6   3  -1  942.58   63.38
   3  -6  -1  965.89   62.39
   3  -6  -2   10.19    8.64
  -6   3  -2   13.12   11.73
   3  -6  -3  635.63   41.40
   3  -6  -4   82.43   13.83
  -3   6  -7  134.88   28.80
  -3   6  -7  128.67   36.46
  -6   3  -8  196.00   39.39
  -6   3  -8  162.04   39.73
  -3   6  -8  200.20   40.07
  -3   6  -8  137.59   29.30
  -6   3  -9  264.90   54.61
  -3   6  -9  272.65   49.46
  -3   6  -9  266.48   44.21
  -6   3  -9  306.83   45.44
  -3   6 -10  279.60   50.81
  -6   3 -10  327.23   51.83
  -6   3 -10  312.11   59.95
  -3   6 -10  304.39   58.10
  -6   3 -11  527.52   66.50
  -3   6 -11  490.79   79.12
  -3   6 -11  454.73   64.43
  -6   3 -11  514.50   77.70
  -6   3 -12   86.96   35.10
   3  -6 -12   79.62   29.73
  -6   3 -12  149.26   41.55
  -3   6 -12   86.07   35.84
  -3   6 -12   98.85   32.35
   3  -6 -13   40.75   23.74
  -3   6 -13   50.38   31.61
  -3   6 -13   94.47   31.80
  -6   3 -13   53.84   26.06
  -6   3 -14   40.72   26.58
   3  -6 -14   36.98   19.36
   6  -3 -14   28.49   14.48
  -3   6 -14    0.28   14.23
  -3   6 -14   65.11   32.07
   6  -3 -15  129.63   48.44
  -6   3 -15   56.90   32.32
   3  -6 -15   40.07   25.01
  -3   6 -15   55.63   36.12
  -3   6 -15   15.50   20.68
   3  -6 -16  124.75   35.63
  -3   6 -16  134.29   45.57
  -3   6 -16  154.79   44.42
   6  -3 -16  150.37   45.16
  -3   6 -17  -12.16   16.05
  -3   6 -17   15.74   24.82
   6  -3 -18   18.15   20.68
   6  -3 -19   38.13   22.81
   6  -3 -20   25.44   32.66
   4   6 -20   62.36   36.55
   6   4 -20   56.28   36.89
   4   6 -19    2.38   14.85
   6   4 -19   46.55   33.19
   4   6 -18    0.59   16.55
   6   4 -18   51.49   32.32
   4   6 -18   13.24   19.79
   4   6 -17  -23.31   27.41
   6   4 -17   10.13   18.77
   6   4 -17   42.42   35.07
   4   6 -17   46.89   27.10
   4   6 -16   27.69   27.51
   4   6 -16   43.93   24.17
   6   4 -16   64.00   29.39
   6   4 -15  -13.77   19.17
   4   6 -15   -9.85   22.01
   4   6 -15  -26.83   28.00
   6   4 -15    9.91   24.85
   6   4 -14   45.94   32.82
   4   6 -14   55.35   38.65
   6   4 -14    8.43   24.26
   4   6 -14    3.58   14.32
   6   4 -13  -40.66   32.11
   4   6 -13   13.06   19.60
   6   4 -13   -7.72   24.70
   4   6 -13   24.67   22.72
   6   4 -12  937.46  121.88
   4   6 -12  854.76  112.90
   6   4 -12  748.84   98.23
   4   6 -12  752.76   92.89
   4   6 -11   81.19   21.86
   4   6 -11  126.45   43.59
   6   4 -11  133.86   45.84
   6   4 -11  121.66   43.13
   4   6 -10 1351.60  110.39
   6   4 -10 1309.61  134.63
   4   6 -10 1323.56  125.52
   4   6  -9  101.41   37.97
   4   6  -9  111.78   31.98
   4   6  -8  179.82   39.70
   4   6  -8  186.92   44.02
  -6  -4  -7   52.67   20.50
   4   6  -7   90.11   32.26
   6  -4   6  -11.51   18.46
   4  -6   6   -8.83   16.98
  -4  -6  -6   14.20    6.88
  -6  -4  -6   -4.66   12.16
   6  -4   5   28.00   17.57
  -4  -6  -5   12.66    8.61
  -6  -4  -5   24.60   13.55
  -6   4   5   24.45   10.03
   4  -6   5   49.95   24.70
  -6  -4  -4   51.55   15.65
   6  -4   4   61.65   22.81
   4  -6   4   17.63    6.79
  -6   4   4   39.33   10.19
  -6   4   3   -2.28    8.67
   4  -6   3   13.21   10.65
   6  -4   3   10.74   11.89
  -6  -4  -3   -8.34   16.24
   4  -6   2 1114.66   84.74
  -6   4   2 1191.87   64.09
   6  -4   2 1106.91   77.86
   6  -4   1   17.26   12.63
  -6   4   1   24.17    7.84
   4  -6   1   16.15    8.95
   6  -4   0 1093.54   71.22
   4  -6   0 1055.60   72.11
  -6   4   0 1085.70   66.59
  -6   4  -1   22.41   10.22
   4  -6  -1   23.77    9.20
   4  -6  -2 1134.73   65.88
   6  -4  -2 1125.00   71.22
   4  -6  -3  -11.51   10.47
  -6   4  -7   59.92   23.74
  -4   6  -7   48.65   22.75
  -4   6  -7   71.13   28.37
  -6   4  -7   43.93    9.85
  -4   6  -8  162.81   36.74
  -6   4  -8  193.44   38.09
  -6   4  -8  245.39   60.88
  -4   6  -8  151.95   37.17
  -4   6  -9   95.79   31.92
  -6   4  -9  135.25   37.66
  -6   4  -9  111.69   27.85
  -4   6  -9  114.90   32.35
  -4   6 -10 1358.51  119.10
  -4   6 -10 1393.21  109.87
  -6   4 -10 1373.76  104.71
  -6   4 -10 1393.89  123.48
  -6   4 -11  172.60   38.50
  -6   4 -11   95.64   33.19
  -4   6 -11  124.29   33.19
  -4   6 -11  107.83   36.95
  -6   4 -12  888.31  107.65
  -4   6 -12  857.87   94.84
  -4   6 -12  813.70  105.52
  -6   4 -12  847.84   89.99
  -4   6 -13   -5.28   20.41
  -6   4 -13   -2.65   21.61
  -4   6 -13   11.42   13.98
  -6   4 -13   33.62   25.78
   4  -6 -13   24.67   21.79
   4  -6 -14   18.68   22.88
   6  -4 -14   28.19   34.95
  -4   6 -14   -5.68   12.16
  -4   6 -14   29.76   21.30
  -6   4 -14   24.39   23.68
   6  -4 -15  -16.42   18.74
  -6   4 -15   24.11   26.33
   4  -6 -15   -6.45   19.29
  -4   6 -15    3.36   13.58
  -4   6 -15   -5.59   16.36
  -4   6 -16   37.82   23.96
   4  -6 -16   47.82   21.52
  -4   6 -16   71.62   34.70
   4  -6 -17  -12.50   13.89
   6  -4 -17   21.61   19.70
   6  -4 -18  -20.75   16.24
   6  -4 -19   31.58   22.44
   6  -4 -20  103.23   38.09
   5   6 -20   23.93   29.23
   6   5 -20   -9.91   16.36
   5   6 -19   32.79   28.00
   6   5 -19   27.07   21.05
   5   6 -19    5.16   14.02
   6   5 -18    6.79   22.13
   5   6 -18   38.93   35.44
   6   5 -18    3.86   20.90
   5   6 -18   30.16   28.83
   5   6 -17   53.81   27.20
   6   5 -17    8.64   20.47
   5   6 -17   69.86   32.35
   6   5 -17   65.20   39.21
   5   6 -16   10.19   22.91
   6   5 -16  -13.89   25.65
   5   6 -16  -20.71   28.00
   6   5 -16  -10.06   19.88
   6   5 -15  172.75   56.80
   5   6 -15  156.86   56.03
   5   6 -15  127.84   52.17
   6   5 -15   41.65   34.21
   5   6 -14   -5.59   19.02
   6   5 -14   14.57   20.56
   5   6 -14    5.90   14.60
   6   5 -14   47.94   28.09
   5   6 -13  131.02   46.86
   5   6 -13   61.34   32.17
   6   5 -13  138.21   47.33
   6   5 -13  118.30   44.76
   6   5 -12   -6.08   17.75
   5   6 -12  -35.19   29.73
   6   5 -12    0.83   21.79
   5   6 -12    8.12   13.43
   5   6 -11 1585.78  129.41
   6   5 -11 1748.75  160.28
   6   5 -11 1547.07  129.07
   5   6 -11 1642.03  152.41
   5   6 -10   51.65   29.91
   6   5 -10   89.19   36.09
   6   5 -10   86.93   28.31
   5   6 -10   49.05   21.49
   5   6  -9  444.05   72.15
   6   5  -9  429.76   74.49
   5   6  -9  447.17   60.08
   5   6  -8   15.13   13.27
   5   6  -8   21.70   12.90
  -5  -6  -6  239.37   34.73
  -6  -5  -6  235.36   38.53
   6  -5   6  200.08   40.10
   5  -6   5  405.03   59.80
   6  -5   5  417.62   59.36
  -6  -5  -5  451.33   51.37
  -5  -6  -5  453.87   51.03
  -6  -5  -4   15.22   13.55
   5  -6   4    0.03   12.56
   6  -5   4  -17.84   18.71
   5  -6   3   93.14   25.81
   6  -5   3  139.94   31.92
   5  -6   2   33.12   20.78
   6  -5   2   -8.15   10.28
   6  -5   1  998.28   75.11
   5  -6   1  931.50   76.00
   6  -5   0  224.43   33.74
   5  -6   0  228.91   35.66
   6  -5  -1  943.23   68.81
   5  -6  -1  969.13   68.50
   6  -5  -2   -3.03   11.27
   5  -6  -2   -5.50   12.41
   5  -6  -3  118.11   22.50
  -6   5  -6  195.88   41.68
  -5   6  -6  171.24   36.15
  -5   6  -7  398.14   54.24
  -6   5  -7  439.57   57.11
  -5   6  -7  391.69   60.20
  -6   5  -7  340.08   55.97
  -6   5  -8   29.88   18.80
  -5   6  -8   -0.06   14.57
  -5   6  -8    3.98   14.51
  -6   5  -8  -12.04   17.91
  -5   6  -9  436.61   61.00
  -5   6  -9  429.82   66.87
  -6   5  -9  472.97   61.93
  -6   5  -9  463.03   71.31
  -6   5 -10   53.75   23.09
  -5   6 -10   80.45   34.30
  -5   6 -10   76.90   29.94
  -6   5 -10   66.19   33.28
  -5   6 -11 1608.53  123.42
  -6   5 -11 1611.99  139.75
  -6   5 -11 1644.16  122.80
  -5   6 -11 1611.53  138.73
  -5   6 -12  -11.24   17.94
  -6   5 -12   -5.37   17.47
  -6   5 -12   -0.03   11.18
  -5   6 -12    8.71   21.27
  -5   6 -13  124.84   39.36
  -6   5 -13   94.56   35.13
  -6   5 -13  119.72   36.77
  -5   6 -13  132.47   43.22
  -5   6 -14  -22.32   20.59
   6  -5 -14   -8.64   18.37
  -6   5 -14   -9.14   13.95
  -5   6 -14   53.75   29.88
   5  -6 -14   21.08   24.91
   5  -6 -15  110.12   35.38
  -5   6 -15  108.02   39.79
  -5   6 -15  147.75   43.37
   6  -5 -15  101.97   35.50
   5  -6 -16  -32.51   22.01
   6  -5 -16   17.87   27.88
   6  -5 -17   71.71   29.39
   5  -6 -17   78.97   33.22
   5  -6 -18    3.64   13.24
   6  -5 -18   29.23   23.52
   6  -5 -19   50.07   25.31
   6   6 -20   61.25   42.48
   6   6 -19   17.47   25.93
   6   6 -19  -20.75   27.75
   6   6 -18   23.46   22.35
   6   6 -18   41.55   32.51
   6   6 -17   24.73   30.25
   6   6 -17  -38.19   28.40
   6   6 -16  137.59   53.16
   6   6 -16  141.54   58.56
   6   6 -15   17.47   27.66
   6   6 -15  -10.19   19.45
   6   6 -14   26.21   17.87
   6   6 -14   -7.78   16.82
   6   6 -13   18.55   20.99
   6   6 -13    3.06   21.70
   6   6 -12 1023.28  132.25
   6   6 -12  981.79  111.48
   6   6 -11   27.20   23.99
   6   6 -11  -53.93   30.59
   6   6 -10 2312.27  178.00
   6   6 -10 2097.50  143.70
   6   6  -9   24.30   16.02
   6   6  -9   14.73   22.60
   6   6  -8   54.46   25.50
  -6  -6  -6  648.11   64.55
  -6  -6  -5  -14.11   17.20
   6  -6   5  -29.64   21.52
  -6  -6  -4   75.42   20.22
   6  -6   4   64.49   23.40
   6  -6   3  -14.26   13.98
   6  -6   2 1452.27  103.11
   6  -6   1    2.62   10.77
   6  -6   0 4348.74  162.84
   6  -6  -1  -16.92   14.66
   6  -6  -2 1452.94   88.26
   6  -6  -3   -4.23    9.42
  -6   6  -6  589.39   68.07
  -6   6  -7   14.57   12.44
  -6   6  -8   74.37   25.38
  -6   6  -8   18.06   12.16
  -6   6  -9   -8.67   16.42
  -6   6  -9   -0.12   15.93
  -6   6 -10 2197.24  143.12
  -6   6 -10 2229.10  156.73
  -6   6 -11    9.76   18.95
  -6   6 -11  -13.49   13.43
  -6   6 -12  910.63  109.87
  -6   6 -12  985.84  102.89
  -6   6 -13   18.31   18.95
  -6   6 -13    1.39   14.91
   6  -6 -14    8.40   17.44
   6  -6 -15  -20.16   25.65
   6  -6 -16  149.20   44.76
   6  -6 -17   12.87   25.44
   6  -6 -18   15.56   16.52
  -7   0   0 6388.91  179.55
  -7   0   1  248.33   34.73
  -7   0  -1  258.88   36.49
  -7   0  -2  113.88   23.12
  -7   0   2  122.71   25.47
  -7   0  -3   49.42   17.78
  -7   0  -4  764.86   65.66
  -7   0  -5  101.26   26.46
  -7   0  -6 3657.54  158.99
   7   0   6 3220.68  149.26
   0   7  -7   63.87   19.60
   0   7  -8  613.38   66.28
   0   7  -8  623.90   77.73
   0   7  -9   12.13   17.07
   0   7  -9   14.17   20.53
  -7   0 -10  803.91   79.25
   0   7 -10  760.38   82.02
   0   7 -10  764.86   93.88
  -7   0 -11  276.64   56.46
   7   0 -11  191.37   60.08
   0   7 -11  148.18   51.18
   0   7 -12  232.40   56.59
   7   0 -12  205.38   57.14
  -7   0 -12  189.89   43.13
   0   7 -12  177.91   49.39
   0   7 -13   56.90   39.33
  -7   0 -13   45.50   23.86
   0   7 -13   61.25   28.12
   7   0 -13   46.18   29.82
   7   0 -14   93.97   38.47
   0   7 -14   49.18   34.17
   0   7 -14   67.64   30.38
   0   7 -15   44.58   34.05
   0   7 -15   49.89   48.10
   7   0 -15  151.27   52.76
   7   0 -16  486.06   88.11
   0   7 -16  309.11   69.09
   0   7 -16  372.40   77.05
   0   7 -17   -5.37   31.27
   0   7 -17   61.83   48.81
   0   7 -18   85.70   36.46
   0   7 -18   67.98   31.74
   0   7 -19   11.14   21.95
   0   7 -19   48.93   30.41
   7   0 -19  -11.14   13.55
   7   0 -20   26.67   27.54
   7   1 -20   22.72   25.56
   1   7 -20   13.89   27.85
   7   1 -19   -5.50   21.27
   1   7 -19  -24.60   22.32
   1   7 -19   41.74   29.91
   1   7 -18   31.30   23.83
   1   7 -18   36.12   29.45
   1   7 -17  272.56   64.18
   7   1 -17  318.93   72.76
   1   7 -17  237.52   58.13
   1   7 -16   31.95   33.00
   1   7 -16   59.12   52.14
   7   1 -15  328.41   70.63
   1   7 -15  267.96   64.98
   1   7 -15  208.04   61.22
   1   7 -14   56.96   35.38
   1   7 -14   19.23   23.00
   7   1 -14   51.18   32.72
   7   1 -14   96.66   45.75
   7   1 -13   17.41   25.38
   1   7 -13   22.69   28.40
   7   1 -13  -22.10   22.91
   1   7 -13   26.43   27.54
  -7  -1 -13  -15.93   14.32
   1   7 -12   35.22   34.76
   7   1 -12   93.48   40.97
  -7  -1 -12  106.54   38.31
   1   7 -12   44.64   28.22
   1   7 -11  507.30   81.50
   7   1 -11  537.46   89.50
   1   7 -11  527.59   73.94
  -7  -1 -11  536.29   68.16
   1   7 -10    1.79   22.97
   1   7 -10  -13.00   19.05
  -7  -1  -9  247.62   47.88
   1   7  -9  196.22   48.10
   1   7  -9  235.24   45.57
   1   7  -8   -6.76   24.26
   1   7  -8   23.59   19.82
   1   7  -7 1273.34  105.08
  -7   1   7 1334.55   78.91
   7  -1   7 1518.70  109.07
   7  -1   6   35.59   21.39
  -7   1   6   43.90   17.07
  -7  -1  -5 1656.08   99.31
  -7   1   5 1495.21   83.97
   7  -1   5 1535.83   99.34
  -7  -1  -4  192.76   33.19
   7  -1   4  189.18   33.93
  -7   1   4  194.33   30.44
  -7  -1  -3   39.79   17.69
  -7   1   3   18.68    8.61
  -7   1   2   30.56   13.00
  -7  -1  -2   38.09   15.00
   7  -1   2    2.07   12.63
  -7  -1  -1  721.33   61.93
  -7   1   1  750.29   58.90
  -7   1   0   53.19   17.50
  -7  -1   0   40.72   13.18
  -7  -1   1  718.18   61.74
  -7   1  -1  700.43   58.81
  -7   1  -2   20.96   10.53
  -7   1  -3   39.42   14.85
  -7   1  -4  186.46   31.92
  -7   1  -5 1557.44   98.23
  -1   7  -7 1275.28  104.50
  -1   7  -8   14.63   12.60
  -1   7  -8   -8.61   10.71
  -1   7  -9  199.06   47.14
  -1   7  -9  209.24   42.23
  -1   7 -10   10.50   28.34
  -1   7 -10  -21.02   21.24
  -7   1 -11  583.52   70.73
  -1   7 -11  582.75   76.71
   7  -1 -11  543.73   85.08
  -1   7 -11  540.27   82.67
  -1   7 -12   26.64   24.82
  -1   7 -12   30.65   25.44
  -7   1 -13   36.61   23.89
  -1   7 -13   48.93   33.68
  -1   7 -13  -13.00   11.82
   7  -1 -14   51.09   27.10
  -1   7 -14   11.55   15.71
  -1   7 -14   -2.25   24.02
   7  -1 -15  347.36   73.26
  -1   7 -15  224.99   63.53
  -1   7 -15  272.16   68.66
  -1   7 -16   62.17   45.97
  -1   7 -16   13.12   21.76
   7  -1 -17  328.31   73.20
  -1   7 -17  221.99   53.96
  -1   7 -17  192.30   56.93
  -1   7 -18    7.19   18.00
  -1   7 -18   24.30   22.94
   7  -1 -19    2.75   13.98
  -1   7 -19   44.86   25.25
   7  -1 -20   13.03   21.70
   2   7 -20   33.56   24.45
   7   2 -20   51.96   41.43
   2   7 -19   -2.84   12.75
   7   2 -19  -11.11   19.57
   2   7 -19   32.88   28.37
   7   2 -18   19.91   19.82
   2   7 -18   24.48   17.81
   2   7 -18   37.57   30.10
   2   7 -17   30.59   38.68
   2   7 -17   -5.77   12.44
   7   2 -16  264.26   62.79
   2   7 -16  191.59   59.67
   2   7 -16  209.49   62.85
   7   2 -15  111.04   51.34
   7   2 -15  100.45   47.51
   2   7 -15   46.55   27.81
   2   7 -15   21.21   34.95
   7   2 -14   10.90   26.52
   2   7 -14   -4.41   14.32
   7   2 -14    8.64   15.68
   2   7 -14    2.99   15.13
   7   2 -13    8.21   15.40
   7   2 -13   17.20   22.26
   2   7 -13   82.77   37.23
   2   7 -13   22.60   24.85
   2   7 -12  143.77   41.52
   2   7 -12  170.41   49.61
  -7  -2 -12  179.45   43.40
   7   2 -12  197.08   57.61
   7   2 -11  118.61   50.66
   2   7 -11   64.18   31.49
  -7  -2 -11   84.52   29.70
   2   7 -11   29.33   17.94
   2   7 -10  464.11   64.37
   2   7 -10  432.66   73.01
   2   7  -9   10.40   12.41
   2   7  -9   23.40   15.44
   2   7  -8   21.33   19.54
   2   7  -8   66.59   29.36
   7  -2   7  249.41   45.57
  -7  -2  -7  229.40   44.64
   2   7  -7  161.70   37.57
  -7   2   7  234.37   29.57
  -7   2   6  752.54   53.53
   7  -2   6  793.32   76.28
  -2  -7  -6  631.71   38.40
  -7  -2  -6  838.12   73.32
   7  -2   5   38.00   19.88
  -7  -2  -5   12.66    8.83
  -7   2   5   27.94   10.59
   7  -2   4  856.39   73.60
  -7   2   4  848.06   59.30
  -7  -2  -4  871.33   68.72
  -7  -2  -3   14.42    9.51
  -7   2   3    3.46   10.03
  -7  -2  -2    8.09    8.18
  -7   2   2    1.27    6.95
   7  -2   2   26.64   15.22
   7  -2   1  106.51   18.74
  -7  -2  -1  131.39   27.07
  -7   2   1  134.10   23.59
  -7   2   0 3081.45  119.35
  -7   2  -1  146.30   27.01
  -7   2  -2   11.24    8.77
  -7   2  -3    9.14    7.69
   2  -7  -3   -4.54    9.72
  -7   2  -4  818.64   68.69
   2  -7  -4  748.31   41.12
  -2   7  -7  232.67   37.57
  -2   7  -7  192.36   40.50
  -7   2  -8   10.90   10.16
  -2   7  -8   23.28   15.50
  -2   7  -8   10.59    8.92
  -2   7  -9   19.02   16.02
  -7   2  -9   32.48   21.98
  -2   7  -9    6.08   14.23
  -7   2 -10  502.55   64.06
  -2   7 -10  455.96   65.69
  -2   7 -10  439.11   70.66
  -7   2 -11  136.51   43.19
  -2   7 -11   45.87   31.09
  -2   7 -11   84.40   34.02
  -7   2 -12  175.32   41.68
  -2   7 -12  148.40   41.83
  -2   7 -12  131.02   41.80
  -2   7 -13   40.97   28.37
  -7   2 -13    4.66   11.21
  -2   7 -13    4.57   14.45
  -2   7 -14   43.50   30.53
   7  -2 -14   68.04   34.36
  -2   7 -14  -14.57   26.15
  -2   7 -15   33.50   36.64
  -2   7 -15    6.61   13.40
  -2   7 -16  178.03   46.28
  -2   7 -16  237.55   60.20
   7  -2 -16  338.25   72.18
  -2   7 -17    7.38   23.46
  -2   7 -17   10.93   21.39
  -2   7 -18   72.58   36.24
  -2   7 -18   50.17   27.66
   7  -2 -18   83.63   32.82
   7  -2 -19  -20.81   21.79
   7  -2 -20   26.67   29.42
   7   3 -20   45.78   33.93
   3   7 -20   20.31   25.50
   3   7 -19   -3.21   12.53
   3   7 -19   26.18   26.89
   7   3 -19   46.43   32.63
   3   7 -18   -7.04   22.78
   7   3 -18    1.08   13.58
   3   7 -18  -53.01   28.93
   3   7 -17   43.34   22.75
   3   7 -17  -10.84   18.77
   7   3 -17   56.40   35.93
   3   7 -16   24.48   30.62
   3   7 -16  -22.84   32.91
   3   7 -15   21.98   28.00
   3   7 -15   85.45   46.03
   7   3 -15   19.36   14.94
   7   3 -15   23.68   31.06
   3   7 -14  -32.41   23.00
   7   3 -14  -41.55   29.45
   3   7 -14   21.70   25.13
   7   3 -14   39.82   35.04
   7   3 -13   15.99   29.30
   3   7 -13   36.71   27.38
   3   7 -13   32.26   35.66
   7   3 -13    8.98   15.50
   3   7 -12  116.57   42.88
   7   3 -12   77.49   35.50
   7   3 -12   90.39   38.40
   3   7 -12  123.05   35.07
   7   3 -11  200.54   54.92
   3   7 -11  178.56   47.05
   3   7 -11  189.18   42.57
   3   7 -10  355.88   56.28
   3   7 -10  376.35   70.85
   3   7  -9  296.39   56.25
   3   7  -9  313.93   51.40
   3   7  -8   26.43   19.20
   3   7  -8   25.04   16.52
  -7  -3  -7   22.47   13.68
   3   7  -7  -10.31   10.84
  -3  -7  -6   35.32   30.41
  -7  -3  -6   -6.11   13.80
  -7   3   6   27.20   14.42
   7  -3   6   -7.81   12.75
   3  -7   6  -20.93   18.71
  -7   3   5  253.76   31.43
  -7  -3  -5  296.08   41.71
   7  -3   5  242.95   41.55
  -7  -3  -4   35.56   16.67
   7  -3   4   63.10   25.44
  -7   3   4   46.43   16.64
  -7  -3  -3  129.29   25.90
   7  -3   3   92.06   22.63
  -7   3   3  128.95   23.65
  -7  -3  -2   85.36   23.52
  -7   3   2   74.00   15.81
   7  -3   2   76.99   21.24
  -7   3   1  114.04   22.29
   7  -3   1  142.10   32.63
  -7   3   0  187.54   29.42
   7  -3   0  199.24   31.70
  -7   3  -1  115.18   26.21
   3  -7  -1  104.00   21.67
  -7   3  -2   58.93   19.14
   3  -7  -2   75.29   16.33
   3  -7  -3  108.57   20.44
  -7   3  -3  103.23   27.20
   3  -7  -4   28.34    8.83
  -3   7  -7    7.10    8.37
  -3   7  -7   53.99   25.44
  -7   3  -8   15.99   14.29
  -3   7  -8   45.97   25.19
  -3   7  -8   59.98   27.60
  -3   7  -9  357.73   55.48
  -3   7  -9  304.94   55.75
  -7   3  -9  329.58   48.68
  -3   7 -10  415.93   58.78
  -7   3 -10  447.54   59.64
  -3   7 -10  431.30   71.10
  -3   7 -11  217.05   52.14
  -3   7 -11  217.27   48.62
  -7   3 -11  229.87   46.34
   3  -7 -12   90.48   27.57
  -3   7 -12  106.32   36.43
  -3   7 -12   94.99   30.96
  -7   3 -12   84.93   26.70
   3  -7 -13   26.55   22.63
  -7   3 -13   23.89   11.95
  -3   7 -13   22.69   20.47
  -3   7 -13    5.37   20.34
  -3   7 -14    3.89   14.11
  -3   7 -14  -13.24   19.23
   7  -3 -14   22.91   29.88
  -3   7 -15   16.52   18.83
  -3   7 -15   71.25   31.36
  -3   7 -16   25.28   19.91
  -3   7 -16   46.03   25.72
   7  -3 -16   67.67   29.64
  -3   7 -17   63.53   33.09
   7  -3 -17   75.66   39.58
  -3   7 -17   41.86   24.05
   7  -3 -18  -29.76   23.15
   7  -3 -19  -37.05   23.25
   7  -3 -20   50.81   39.45
   4   7 -20   27.85   31.12
   7   4 -20   17.04   22.97
   4   7 -19    5.83   22.94
   4   7 -19   74.09   38.47
   7   4 -19   88.29   38.03
   4   7 -18   18.65   29.17
   7   4 -18   -6.48   13.95
   4   7 -18  -12.16   16.02
   7   4 -17   60.91   39.08
   7   4 -17   46.62   39.18
   4   7 -17   26.06   19.73
   4   7 -17    6.11   22.20
   4   7 -16  -32.85   32.14
   7   4 -16    6.21   20.50
   7   4 -16    7.81   20.44
   4   7 -16   -5.59   22.94
   4   7 -15  179.58   56.86
   4   7 -15   78.04   43.56
   7   4 -15  122.28   51.68
   7   4 -15  127.50   52.23
   7   4 -14  -21.27   22.01
   4   7 -14   39.11   29.11
   7   4 -14   32.63   28.68
   4   7 -14   24.17   21.67
   4   7 -13   -9.08   15.37
   7   4 -13   32.11   25.19
   4   7 -13   64.00   34.76
   7   4 -13  -15.03   28.93
   7   4 -12   78.88   33.16
   4   7 -12  102.65   42.20
   4   7 -12   68.78   23.09
   7   4 -12  113.42   49.05
   4   7 -11  679.01   83.72
   7   4 -11  707.50  104.16
   7   4 -11  679.97   87.06
   4   7 -11  656.84   95.08
   4   7 -10  253.30   46.58
   4   7 -10  236.72   53.84
   7   4 -10  273.36   64.00
   4   7  -9  424.11   69.92
   4   7  -9  415.43   58.69
   4   7  -8  102.12   26.24
   4   7  -8   91.25   33.31
   4   7  -7  166.67   40.56
  -7  -4  -7  193.38   39.92
  -7   4   6   56.90   13.86
  -4  -7  -6   55.32   17.81
   4   7  -6   44.24   25.81
  -7  -4  -6   77.21   22.97
  -7  -4  -5   42.26   15.37
   7  -4   5   43.03   18.15
  -7   4   5   55.72   14.23
   4  -7   5   -0.62   13.40
  -4  -7  -5   53.01   14.05
  -7  -4  -4  221.99   36.77
   7  -4   4  202.88   37.54
  -7   4   4  220.20   29.02
   4  -7   4  219.43   45.16
  -7  -4  -3    7.81    8.67
  -7   4   3   -1.02   10.74
   7  -4   3   25.99   16.02
   4  -7   3    9.17   10.16
   4  -7   2  161.98   36.64
  -7   4   2  174.92   28.22
   7  -4   2  142.90   28.71
   7  -4   1  477.05   52.14
   4  -7   1  408.64   53.62
  -7   4   1  447.14   45.16
   7  -4   0 1381.82   89.50
   4  -7   0 1312.14   89.68
  -7   4   0 1372.74   82.46
  -7   4  -1  429.08   47.76
   7  -4  -1  421.85   47.51
   4  -7  -1  427.41   46.86
   4  -7  -2  158.49   28.31
   4  -7  -3   16.05    5.59
   4  -7  -4  225.88   28.52
  -4   7  -6   51.22   20.50
  -4   7  -7  297.66   47.02
  -4   7  -7  216.34   46.65
  -4   7  -8   85.48   28.96
  -4   7  -8   96.69   31.52
  -7   4  -8  135.80   41.12
  -7   4  -9  417.35   65.72
  -4   7  -9  391.91   56.28
  -4   7  -9  412.13   65.14
  -7   4  -9  466.80   60.75
  -4   7 -10  214.71   49.52
  -4   7 -10  262.93   49.15
  -7   4 -10  250.46   44.79
  -7   4 -10  263.67   55.69
  -4   7 -11  673.17   89.06
  -7   4 -11  694.10   80.05
  -4   7 -11  647.80   80.36
  -7   4 -12  140.90   43.71
  -4   7 -12  114.44   44.21
  -4   7 -12   97.34   35.19
   4  -7 -13   20.10   18.31
  -4   7 -13   61.03   30.10
  -4   7 -13   34.92   31.09
   7  -4 -14   48.62   25.78
   4  -7 -14   63.72   32.32
  -4   7 -14   31.27   28.31
  -4   7 -14   20.59   25.99
  -4   7 -15   59.40   30.90
  -4   7 -15   77.61   35.59
   4  -7 -15  140.03   40.87
  -4   7 -16  -28.09   28.34
   7  -4 -16   -5.71   21.67
  -4   7 -16  -64.92   36.71
   7  -4 -17   79.22   35.32
   7  -4 -18  -23.83   21.36
   7  -4 -19   33.16   22.10
   5   7 -20   46.65   38.19
   7   5 -20   44.67   38.43
   5   7 -19   58.10   26.55
   5   7 -19    2.35   13.46
   7   5 -19   29.85   25.99
   7   5 -18    1.51   23.62
   5   7 -18   45.53   31.12
   7   5 -18  -22.01   27.48
   5   7 -18   19.97   22.94
   5   7 -17  -25.44   30.16
   7   5 -17   -3.03   16.58
   7   5 -17  -11.98   15.16
   5   7 -17   -7.29   15.59
   5   7 -16  138.49   51.00
   7   5 -16   87.46   45.78
   5   7 -16   61.03   44.18
   7   5 -16  161.05   55.85
   5   7 -15   -9.60   25.47
   7   5 -15  -17.44   26.39
   7   5 -15   43.71   29.76
   5   7 -15   29.27   29.70
   7   5 -14   35.53   29.02
   5   7 -14  -17.91   19.60
   5   7 -14   47.36   37.60
   7   5 -14   29.30   27.07
   5   7 -13   54.92   34.27
   7   5 -13   54.77   29.57
   5   7 -13  103.08   42.82
   7   5 -13   69.74   35.07
   5   7 -12  561.11   97.55
   7   5 -12  591.74  102.12
   5   7 -12  530.15   78.54
   7   5 -12  540.89   80.26
   7   5 -11  121.29   33.65
   7   5 -11  114.90   42.14
   5   7 -11  110.30   39.79
   5   7 -11   75.42   23.55
   7   5 -10 1496.13  146.39
   5   7 -10 1423.93  139.94
   7   5 -10 1330.76  115.89
   5   7 -10 1355.11  114.50
   5   7  -9  230.36   43.90
   5   7  -9  273.30   61.22
   5   7  -8  102.55   30.25
  -7   5   8   82.49   29.64
   5   7  -8   70.14   31.06
   5   7  -7  115.92   26.24
   5   7  -7  123.79   38.99
  -7   5   7   98.08   28.56
  -5  -7  -6  877.66   70.73
  -7  -5  -6  946.81   83.14
  -5  -7  -5  190.26   30.19
   7  -5   5  220.82   44.61
  -7  -5  -5  199.74   33.83
   5  -7   4  391.44   61.25
   7  -5   4  383.17   55.75
  -7  -5  -4  474.46   55.78
  -7  -5  -3   96.69   23.34
   7  -5   3  106.72   27.75
   5  -7   3  103.97   32.97
   7  -5   2 1963.98  114.62
  -7   5   2 1966.61   92.71
   5  -7   2 1871.52  120.37
   7  -5   1  212.61   37.79
   5  -7   1  198.66   39.39
   7  -5   0 2232.47  117.83
   5  -7   0 2192.86  119.13
   5  -7  -1  209.95   35.13
   7  -5  -1  200.17   33.68
   5  -7  -2 1939.50  101.10
   7  -5  -2 1975.50  106.88
   5  -7  -3  115.30   24.17
  -5   7  -6  866.67   83.94
  -5   7  -7  133.92   34.51
  -7   5  -7  165.13   41.95
  -5   7  -7  163.83   37.14
  -5   7  -8   76.62   27.41
  -7   5  -8   47.11   16.92
  -5   7  -8   61.50   26.92
  -7   5  -9  265.86   51.46
  -5   7  -9  222.33   42.94
  -5   7  -9  220.30   48.10
  -7   5 -10 1490.42  131.05
  -5   7 -10 1418.43  127.44
  -5   7 -10 1349.13  113.98
  -7   5 -11  111.07   39.42
  -5   7 -11   97.34   38.80
  -5   7 -11   92.64   31.67
  -5   7 -12  595.81   87.12
  -5   7 -12  570.13   80.82
  -5   7 -13   74.62   33.25
  -5   7 -13   21.52   13.24
   5  -7 -14   -2.84   23.03
  -5   7 -14   33.96   26.58
   7  -5 -14   79.03   39.55
  -5   7 -14   13.34   23.80
   5  -7 -15   -7.01   18.31
  -5   7 -15   21.02   18.21
   7  -5 -15  -39.18   27.69
   7  -5 -16  117.74   41.43
   5  -7 -16   99.22   36.74
   7  -5 -17    9.57   15.62
   7  -5 -18   45.10   27.81
   7  -5 -19   39.76   22.78
   7   6 -20   19.85   26.55
   6   7 -20   19.23   23.49
   7   6 -19   -8.71   19.76
   6   7 -19   -6.95   10.00
   6   7 -19   22.94   17.87
   6   7 -18  -13.95   23.99
   7   6 -18    0.00   13.46
   7   6 -18   38.09   31.49
   6   7 -18   14.97   24.30
   6   7 -17  165.07   54.09
   7   6 -17  133.55   52.79
   7   6 -17  155.62   52.67
   6   7 -17  155.03   50.04
   7   6 -16   -4.38   16.39
   7   6 -16   25.13   26.77
   6   7 -16    1.48   23.12
   6   7 -16   -5.50   20.53
   7   6 -15  109.35   44.70
   6   7 -15  122.31   49.61
   6   7 -15   59.21   45.35
   7   6 -15   59.43   44.08
   7   6 -14   40.69   33.31
   6   7 -14   81.22   47.45
   7   6 -14   15.65   19.02
   6   7 -14   10.19   24.26
   6   7 -13   35.16   26.80
   7   6 -13   61.19   40.78
   7   6 -13    5.28   16.21
   6   7 -13   -6.21   21.39
   7   6 -12    8.80   16.21
   6   7 -12  -29.64   32.72
   7   6 -12    0.99   28.40
   6   7 -12  -12.41   21.02
   7   6 -11 1213.60  139.23
   6   7 -11 1193.04  137.53
   6   7 -11 1129.97  113.20
   7   6 -11 1112.99  113.51
   6   7 -10   35.41   18.24
   7   6 -10   43.90   24.08
   6   7 -10   69.24   38.22
   7   6 -10  -16.18   26.30
   6   7  -9  454.27   78.91
   6   7  -9  426.61   61.71
   7   6  -9  438.00   64.06
   6   7  -8   41.37   19.76
  -7   6   8    8.00   13.21
   6   7  -8   37.72   34.11
  -7   6   7  359.49   53.35
  -7  -6  -6   79.43   19.76
  -6   7   6  114.75   30.53
  -7   6   6  101.81   28.00
  -7  -6  -5 3581.01  159.63
  -6  -7  -5 3578.01  154.14
   6  -7   4   13.83   18.12
  -7  -6  -4    0.93    9.14
   7  -6   4   33.83   21.55
   6  -7   3   35.72   25.13
   7  -6   3   66.99   27.81
   6  -7   2  179.98   40.63
   7  -6   2  202.54   41.98
   7  -6   1 1767.06  112.77
   6  -7   1 1787.93  115.86
   6  -7   0  323.71   46.83
   7  -6   0  308.83   45.32
   7  -6  -1 1871.25  110.83
   6  -7  -1 1813.49  106.78
   6  -7  -2  162.69   27.60
   7  -6  -2  174.24   36.06
   6  -7  -3   79.55   27.97
  -6   7  -5 3607.25  169.88
  -6   7  -6  107.59   34.95
  -7   6  -6  106.26   30.04
  -6   7  -7  441.98   61.40
  -7   6  -7  468.50   66.99
  -6   7  -8   39.36   24.33
  -7   6  -8   18.68   17.66
  -6   7  -9  446.49   69.49
  -7   6  -9  466.83   70.94
  -6   7 -10   30.19   23.34
  -6   7 -10   42.39   23.15
  -7   6 -10   17.81   18.43
  -7   6 -11 1115.80  121.32
  -6   7 -11 1110.06  119.53
  -6   7 -11 1245.52  115.86
  -6   7 -12   25.22   22.32
  -6   7 -13   12.60   22.75
   6  -7 -14   29.33   26.98
  -6   7 -14   60.54   37.05
   7  -6 -15   86.90   25.96
   6  -7 -15  140.22   39.42
   7  -6 -16  -11.27   21.15
   6  -7 -16  -10.16   22.20
   6  -7 -17  222.64   48.75
   7  -6 -17  199.58   51.68
   7  -6 -18  -11.79   16.27
   7   7 -19   20.28   26.21
   7   7 -19   -5.59   11.42
   7   7 -18   65.54   41.89
   7   7 -18   43.40   25.56
   7   7 -17    0.25   17.84
   7   7 -17  -52.17   35.41
   7   7 -16  374.25   82.64
   7   7 -16  274.54   71.84
   7   7 -15    2.90   16.64
   7   7 -15    5.96   15.53
   7   7 -14   14.17   20.13
   7   7 -14   70.85   43.50
   7   7 -13   44.15   34.02
   7   7 -13   19.60   20.53
   7   7 -12  270.99   61.37
   7   7 -12  289.97   75.63
   7   7 -11  -29.57   21.15
   7   7 -11  -26.55   32.32
   7   7 -10  921.62  118.92
   7   7 -10  863.37   94.53
   7   7  -9  -22.17   19.66
   7   7  -9    8.00   18.71
   7   7  -8  146.39   37.11
  -7   7   8   61.77   25.62
  -7   7   7  382.46   55.44
  -7   7   6 1546.21  105.86
  -7  -7  -5    7.22   12.10
  -7   7   5   10.62   13.46
  -7   7   4 2061.69  113.27
  -7  -7  -4 2048.57  119.13
   7  -7   3  -22.07   22.72
   7  -7   2  521.72   67.18
   7  -7   1   57.05   29.79
   7  -7   0 5341.55  201.34
   7  -7  -1   26.80   21.58
   7  -7  -2  542.68   61.62
   7  -7  -3  -10.99   15.19
  -7   7  -6 1661.76  123.85
  -7   7  -7   -9.48    9.79
  -7   7  -8  105.02   39.45
  -7   7  -9  -10.50   19.45
  -7   7 -10  847.04  102.43
  -7   7 -11   -2.50   16.33
   7  -7 -14  -19.17   25.10
   7  -7 -15  -31.15   28.00
   7  -7 -16  455.96   76.19
   7  -7 -17  -38.96   25.59
  -8   0   0 1659.66   96.07
  -8   0   1 1101.76   80.36
  -8   0  -1 1017.63   75.88
  -8   0   2  140.62   29.39
  -8   0  -2  137.56   29.05
  -8   0  -3   57.54   16.52
  -8   0   3   48.19   14.32
  -8   0  -4   54.46   15.65
  -8   0   4   53.90   16.82
  -8   0  -5 1143.49   88.32
  -8   0  -6  348.26   56.80
   0   8  -7 1650.21  103.91
   0   8  -7 1778.54  131.02
   0   8  -8  161.52   42.66
   0   8  -8  154.85   37.42
   0   8  -9  216.00   45.44
   0   8  -9  187.23   48.13
   0   8 -10  194.83   48.78
   0   8 -10  247.65   54.15
   8   0 -11  505.48   86.99
   0   8 -11  454.67   78.13
   0   8 -11  426.51   64.52
   8   0 -12  114.10   48.84
   0   8 -12   53.84   35.47
   0   8 -12   47.02   30.56
   8   0 -13   -4.48   19.08
   0   8 -13    3.80   20.62
   0   8 -13   -5.16   17.81
   0   8 -14   57.11   34.67
   8   0 -14   96.07   45.94
   0   8 -14   30.25   28.52
   8   0 -15  306.43   72.33
   0   8 -15  204.92   60.69
   0   8 -15  127.40   51.83
   8   0 -16  158.06   57.27
   0   8 -16   35.47   44.70
   0   8 -16   35.44   35.72
   0   8 -17  168.68   48.81
   0   8 -17  115.86   39.98
   8   0 -17  171.06   52.20
   8   0 -18   57.45   31.95
   0   8 -18  -24.39   16.18
   0   8 -18   44.86   30.04
   0   8 -19   19.70   15.62
   0   8 -19   14.29   18.92
   8   0 -19   16.33   29.20
   8   0 -20   54.09   39.89
   8   1 -20   59.15   38.90
   1   8 -19   44.11   29.94
   1   8 -19   31.03   31.49
   8   1 -19    9.26   16.76
   8   1 -18   59.92   35.44
   1   8 -18   43.03   26.15
   1   8 -18   55.26   25.28
   1   8 -17   24.94   28.62
   1   8 -17   50.26   41.95
   8   1 -17   55.10   37.94
   8   1 -16  184.33   53.35
   1   8 -16  189.55   55.44
   1   8 -16  152.47   54.24
   8   1 -15   88.29   48.96
   1   8 -15   27.01   32.23
   1   8 -15   32.75   31.27
   8   1 -14   35.29   35.04
   1   8 -14   20.71   34.76
   8   1 -14    2.16   22.26
   1   8 -14    6.27   22.04
   8   1 -13   68.04   40.01
   8   1 -13  104.10   43.93
   1   8 -13   59.33   27.94
   1   8 -13   67.39   35.47
   8   1 -12  191.37   62.48
   1   8 -12  190.47   48.65
   1   8 -12  140.59   47.85
   1   8 -11   11.70   16.76
   1   8 -11   36.92   34.70
   1   8 -10  610.54   75.33
   1   8 -10  680.52   90.39
   1   8  -9  216.71   47.08
   1   8  -9  257.50   49.64
   1   8  -8   56.77   24.91
   1   8  -8   86.72   30.78
  -8   1   7  211.25   35.19
   1   8  -7  181.95   37.20
   1   8  -7  193.47   43.59
  -8   1   6 1442.20   89.46
  -8  -1  -6 1435.72  106.20
   8  -1   6 1436.43  105.64
   8  -1   5   73.16   25.47
  -8   1   5   76.96   20.93
  -8  -1  -4  288.92   42.05
  -8   1   4  269.66   43.87
   8  -1   4  267.16   41.15
  -8   1   3    7.72    6.85
  -8  -1  -3  -23.18   15.84
  -8   1   2  324.33   44.21
  -8  -1  -2  339.40   45.72
  -8  -1  -1  158.06   32.60
  -8   1   1  177.20   31.09
  -8  -1   0 3881.29  153.43
  -8   1   0 3951.31  147.07
  -8   1  -1  167.10   31.33
  -8  -1   1  180.13   32.66
  -8  -1   2  337.30   46.37
  -8   1  -2  310.69   43.56
  -8   1  -3    6.21    8.09
  -8   1  -4  283.43   44.70
   1  -8  -5   29.76    6.98
  -8   1  -5   73.32   24.11
  -1   8  -7  204.03   44.89
  -1   8  -7  205.66   40.78
  -1   8  -8   74.06   31.52
  -1   8  -8   91.16   32.66
  -1   8  -9  248.14   51.43
  -1   8  -9  227.95   43.22
  -1   8 -10  686.51   80.67
  -1   8 -10  625.91   85.57
  -1   8 -11   25.62   18.49
   8  -1 -11  106.88   50.69
  -1   8 -11   56.77   33.74
  -1   8 -12  161.98   51.12
  -1   8 -12  183.10   51.46
  -1   8 -13    9.88   15.84
  -1   8 -13   32.94   20.59
   8  -1 -14    1.30   16.79
  -1   8 -14  -10.50   26.95
  -1   8 -14    9.08   18.99
  -1   8 -15   36.43   35.16
  -1   8 -15   37.35   30.78
   8  -1 -16  268.61   66.80
  -1   8 -16  180.13   54.09
  -1   8 -16  243.48   62.45
  -1   8 -17   54.80   40.35
  -1   8 -17  -13.58   15.07
   8  -1 -17   83.14   40.44
  -1   8 -18   15.59   21.12
  -1   8 -18   32.94   21.52
   8  -1 -19   39.21   26.73
   8  -1 -20   40.75   39.30
   8   2 -20   32.41   35.72
   2   8 -19   28.15   24.88
   2   8 -19   44.86   31.55
   8   2 -19   11.33   17.53
   2   8 -18   -5.50   15.22
   8   2 -18   31.06   26.09
   2   8 -17   98.20   42.26
   8   2 -17   72.67   35.25
   2   8 -17   87.27   40.07
   2   8 -16   16.82   22.88
   8   2 -16   73.32   42.82
   2   8 -16   55.17   47.20
   8   2 -15   92.24   44.36
   8   2 -15   95.61   44.42
   2   8 -15   59.58   38.22
   2   8 -15   31.61   30.81
   8   2 -14    3.80   18.31
   2   8 -14    7.38   17.38
   8   2 -14    0.43   21.33
   8   2 -13    1.94   21.86
   8   2 -13   13.55   26.27
   2   8 -13  -17.78   20.31
   2   8 -13  -18.49   30.72
   2   8 -12    6.08   16.55
   2   8 -12   -7.90   17.41
   8   2 -12   11.05   33.90
   2   8 -11  439.29   78.84
   8   2 -11  551.85   95.64
   2   8 -11  440.10   67.45
   2   8 -10  -28.09   28.09
   2   8 -10   10.99   14.60
   2   8  -9  300.22   59.40
   2   8  -9  298.46   51.25
   2   8  -8   92.80   31.30
   2   8  -8  125.46   28.80
  -8  -2  -7   83.85   24.30
   2   8  -7  122.68   36.09
   2   8  -6   27.20   18.09
  -8  -2  -6   16.82   13.09
  -8   2   6   39.67   15.93
  -8  -2  -5  209.03   35.66
   8  -2   5  187.85   36.37
  -8   2   5  182.54   29.79
  -8   2   4  170.78   27.78
  -8  -2  -4  191.62   32.72
   8  -2   4  207.61   39.55
   8  -2   3   -8.27   16.98
  -8  -2  -3   24.17   10.50
  -8   2   3    6.70   11.61
  -8  -2  -2  133.86   28.15
  -8   2   2  140.93   25.72
   8  -2   2  113.39   28.12
  -8   2   1  336.74   43.03
  -8  -2  -1  331.83   45.47
  -8  -2   0   20.93   10.53
  -8   2   0   13.61   10.65
  -8   2  -1  340.04   46.24
  -8   2  -2  140.03   30.69
  -8   2  -3   10.80    8.64
   2  -8  -4  157.01   22.35
  -8   2  -4  160.04   33.56
   2  -8  -5   83.01   11.45
  -2   8  -6   45.84   23.77
  -2   8  -7   75.02   27.97
  -2   8  -7  104.56   30.25
  -2   8  -8  105.27   34.70
  -2   8  -8  129.53   31.77
  -2   8  -9  276.36   56.31
  -2   8  -9  322.51   54.70
  -2   8 -10   31.64   26.21
  -2   8 -10  -17.87   13.40
  -2   8 -11  374.50   64.15
  -2   8 -11  403.79   71.93
  -2   8 -12  -30.99   29.51
  -2   8 -12    5.99   20.13
  -2   8 -13   23.89   22.78
  -2   8 -13   -4.35   18.92
  -2   8 -14  211.96   98.02
   8  -2 -14  155.03   56.52
  -2   8 -14   72.45   37.20
   8  -2 -15   92.21   40.97
  -2   8 -15   47.45   36.00
  -2   8 -15   93.51   39.98
   8  -2 -16   93.08   42.08
  -2   8 -16   52.05   31.30
  -2   8 -16  111.94   46.71
  -2   8 -17   88.11   37.45
  -2   8 -17   56.15   29.76
   8  -2 -17   96.41   43.65
  -2   8 -18   -3.98   11.42
   8  -2 -18   55.35   33.22
   8  -2 -19   27.81   22.13
   8  -2 -20   21.30   28.68
   3   8 -20   24.17   29.76
   8   3 -20   56.52   38.59
   3   8 -19  -16.11   13.34
   8   3 -19    1.48   24.23
   3   8 -19   32.91   27.04
   3   8 -18   -3.83   13.95
   8   3 -18  -25.72   17.94
   3   8 -18    7.69   12.90
   3   8 -17   34.98   29.79
   8   3 -17   37.97   38.06
   3   8 -17   50.41   31.86
   3   8 -16   46.18   31.70
   8   3 -16   52.79   32.63
   3   8 -16   15.37   30.90
   8   3 -16   52.17   31.21
   8   3 -15   27.10   41.98
   3   8 -15  110.36   47.85
   8   3 -15   28.12   23.86
   3   8 -15    2.59   17.10
   3   8 -14   25.16   37.17
   8   3 -14   14.82   20.87
   8   3 -13   12.53   29.64
   3   8 -13   -5.31   19.17
   8   3 -13   41.71   25.16
   3   8 -13   20.81   14.20
   3   8 -12  104.96   38.43
   3   8 -12   91.16   38.59
   8   3 -11    5.93   15.34
   3   8 -11    6.33   19.11
   3   8 -11   50.20   20.84
   3   8 -10  306.70   62.85
   3   8 -10  273.95   51.49
   3   8  -9   69.03   26.12
   3   8  -9   40.26   17.91
   3   8  -8   57.05   20.50
   3   8  -8   80.14   24.60
   3   8  -7   17.35   21.30
  -8  -3  -7    3.46   13.21
   3   8  -7  -12.75    8.37
  -8   3   6  186.18   28.34
   3   8  -6  159.42   42.79
   8  -3   5  219.49   41.03
  -8   3   5  220.20   31.03
  -8  -3  -5  243.57   41.40
  -8   3   4   14.63   13.09
  -8  -3  -4   18.06   17.07
   8  -3   4   22.75   12.97
   8  -3   3    1.82   10.06
  -8  -3  -3    5.09    7.13
   8  -3   2   62.51   17.20
  -8  -3  -2   73.84   21.12
  -8   3   2   84.37   19.26
  -8   3   1  197.73   32.75
  -8  -3  -1  213.20   34.64
   8  -3   1  221.07   38.68
  -8   3   0  925.20   72.76
   3  -8  -1  184.21   32.26
  -8   3  -1  202.64   36.24
  -8   3  -2   68.97   19.88
   3  -8  -2   60.23   16.11
   3  -8  -3   23.65    8.03
  -8   3  -3   16.08    9.85
   3  -8  -4    8.00    8.89
  -3   8  -6  185.69   43.68
  -3   8  -7    0.77   13.77
  -3   8  -7  -20.62   19.54
  -3   8  -8   99.50   28.40
  -3   8  -8   61.34   28.09
  -3   8  -9   50.38   22.54
  -3   8  -9   43.71   21.15
  -3   8 -10  277.22   56.71
  -3   8 -10  285.74   54.46
  -3   8 -11   49.49   30.62
  -3   8 -11   59.98   28.99
  -3   8 -12   97.37   38.56
  -3   8 -12  495.20   96.01
  -3   8 -13   92.98   28.03
  -3   8 -13  -28.65   24.26
  -3   8 -14  -31.40   21.27
  -3   8 -14  255.24   73.81
   8  -3 -15  134.54   51.99
  -3   8 -15   29.76   26.21
  -3   8 -15  109.41   46.24
   8  -3 -16   33.96   28.74
  -3   8 -16   40.38   34.11
  -3   8 -16   22.38   17.38
   8  -3 -17  100.92   43.19
  -3   8 -17   11.05   13.89
   8  -3 -18   13.80   19.23
   8  -3 -19  -32.14   23.28
   8  -3 -20  273.55   81.84
   4   8 -20   19.33   21.58
   8   4 -20   27.44   35.72
   4   8 -19   44.33   38.25
   8   4 -19  101.20   41.00
   4   8 -19   77.39   31.64
   4   8 -18   29.14   25.84
   4   8 -18   29.73   28.62
   8   4 -18   -3.58   15.37
   8   4 -17   22.91   30.72
   8   4 -17   56.40   35.78
   4   8 -17   93.42   53.35
   4   8 -17    7.04   25.59
   4   8 -16   41.98   32.11
   4   8 -16   74.37   36.21
   8   4 -16   83.75   38.77
   8   4 -16    2.69   21.67
   4   8 -15   60.79   41.03
   8   4 -15   -5.43   16.89
   8   4 -15   45.29   32.51
   4   8 -15  -27.63   22.69
   8   4 -14   26.92   18.55
   4   8 -14   -9.94   25.22
   8   4 -14   48.99   43.62
   4   8 -14    5.99   18.95
   4   8 -13   72.30   37.14
   8   4 -13  141.33   55.26
   4   8 -13   65.26   31.92
   8   4 -13   90.82   39.98
   4   8 -12   83.26   40.84
   8   4 -12  102.28   32.97
   8   4 -12   97.24   42.76
   4   8 -12  102.00   36.80
   4   8 -11  226.13   58.99
   8   4 -11  225.64   64.77
   4   8 -11  174.24   42.48
   4   8 -10  398.92   61.96
   4   8 -10  405.98   74.18
   4   8  -9  480.04   78.94
   4   8  -9  487.98   66.50
  -8   4   8   16.89   11.76
   4   8  -8   26.55   13.31
  -8  -4  -7  299.39   57.23
  -8   4   7  234.13   44.89
  -4   8   7  223.69   45.57
   4   8  -7  303.15   48.10
   4   8  -7  254.01   57.42
  -8  -4  -6  738.10   78.44
   4   8  -6  727.75   86.96
  -8   4   6  644.93   64.27
  -8  -4  -5  302.10   47.45
  -8   4   5  257.46   32.97
  -8  -4  -4  163.52   55.85
   8  -4   4  137.62   30.44
   4  -8   4  138.95   35.87
  -8   4   4  169.30   27.63
   4  -8   3  109.01   30.72
  -8   4   3  182.66   29.82
  -8  -4  -3  148.61   28.74
   8  -4   3  195.97   41.15
   4  -8   2   56.65   22.13
  -8   4   2   72.82   20.13
  -8  -4  -2   79.49   24.64
   8  -4   2   50.04   22.07
  -8   4   1  514.00   53.50
   4  -8   1  445.56   61.80
   8  -4   1  520.42   60.26
   8  -4   0 1713.68  104.71
  -8   4   0 1804.35  100.61
   4  -8   0 1648.11  108.45
   4  -8  -1  474.70   55.17
  -8   4  -1  492.86   56.06
  -8   4  -2   56.68   18.95
   4  -8  -2   63.90   19.05
   4  -8  -3  155.62   26.09
   4  -8  -4  159.05   24.05
  -4   8  -6  770.94   81.78
  -4   8  -6  747.14   73.66
  -4   8  -7  268.36   51.15
  -4   8  -7  315.44   49.52
  -4   8  -8   17.23   14.94
  -4   8  -8    6.73   10.90
  -4   8  -9  489.89   74.68
  -4   8  -9  528.48   70.02
  -4   8 -10  430.10   65.51
  -4   8 -10  394.75   67.39
  -4   8 -11  226.56   55.04
  -4   8 -11  164.39   45.60
  -4   8 -12   72.45   35.35
  -4   8 -12   57.08   25.28
  -4   8 -13   87.21   37.79
  -4   8 -13   43.31   28.68
  -4   8 -14   22.57   18.80
  -4   8 -14    6.21   21.12
  -4   8 -15    2.25   12.63
  -4   8 -15    6.24   17.10
  -4   8 -16   45.35   30.87
   8  -4 -16  128.39   44.70
   8  -4 -17   45.13   29.51
   8  -4 -18   71.99   31.70
   8  -4 -19   67.61   30.32
   5   8 -20   20.25   21.33
   8   5 -20   28.00   25.25
   5   8 -19    9.88   21.46
   5   8 -19   15.93   25.99
   8   5 -19   11.24   16.95
   5   8 -18  -14.94   27.17
   8   5 -18   11.85   26.89
   8   5 -18   28.99   30.28
   5   8 -18   21.64   25.04
   8   5 -17   91.50   41.68
   5   8 -17   98.69   41.92
   5   8 -17   94.93   35.56
   8   5 -17  103.42   43.10
   5   8 -16   52.26   36.12
   8   5 -16   45.07   31.06
   5   8 -16   22.38   24.11
   8   5 -16   58.75   27.14
   8   5 -15   49.58   31.70
   8   5 -15   60.38   37.82
   5   8 -15   40.66   34.05
   5   8 -15   79.96   42.66
   8   5 -14  130.43   48.41
   5   8 -14  157.29   56.68
   8   5 -14  229.19   72.39
   5   8 -14  140.74   46.46
   8   5 -13   79.46   36.74
   5   8 -13   33.50   29.42
   5   8 -13   16.61   12.29
   8   5 -13    6.76   36.55
   8   5 -12   84.34   33.71
   5   8 -12   83.78   37.97
   5   8 -12   47.39   28.22
   8   5 -12  101.13   44.79
   8   5 -11  580.71   98.20
   8   5 -11  580.07   82.09
   5   8 -11  477.64   69.09
   5   8 -11  544.23   92.86
   8   5 -10  138.61   50.91
   5   8 -10  100.33   36.34
   5   8 -10  124.81   34.98
   5   8  -9  341.19   62.45
   5   8  -9  237.77   53.56
   5   8  -8  178.40   39.42
  -5   8   8  137.50   38.99
  -8   5   8  145.34   33.74
   5   8  -8  150.22   42.94
  -8   5   7  388.48   53.56
   5   8  -7  355.33   50.26
   5   8  -7  420.56   66.62
  -5   8   7  411.82   60.04
  -8   5   6   57.42   20.96
  -5   8   6   49.42   18.43
  -8  -5  -6   71.03   22.75
  -5   8   5 1320.63   96.66
  -8  -5  -5 1517.93  106.66
  -5  -8  -5 1363.57   90.70
  -8   5   5 1252.41   89.53
  -8  -5  -4  823.39   77.24
  -8   5   4  773.26   59.33
  -8  -5  -3   82.27   22.35
   5  -8   3   73.23   24.48
  -8   5   3   96.22   21.55
   8  -5   3  112.31   33.19
  -8   5   2   35.41   11.18
   5  -8   2   22.94   14.02
   8  -5   2   42.08   10.34
   8  -5   1 1308.34   98.79
   5  -8   1 1266.82  103.17
  -8   5   1 1310.54   84.09
   5  -8   0 2221.14  129.87
   8  -5   0 2267.48  127.44
   5  -8  -1 1297.88   93.14
   8  -5  -1 1279.42   91.78
   5  -8  -2   32.32   12.72
   5  -8  -3   93.51   21.12
   5  -8  -4  770.60   62.02
  -5   8  -5 1333.97  104.16
  -5   8  -6  106.51   36.09
  -5   8  -7  400.09   62.73
  -5   8  -8  182.17   44.05
  -5   8  -8  180.63   42.39
  -5   8  -9  271.45   54.24
  -5   8  -9  245.24   49.39
  -5   8 -10  111.54   36.58
  -5   8 -10  119.07   33.06
  -5   8 -11  527.74   81.78
  -5   8 -11  453.71   73.78
  -5   8 -12   42.39   24.70
  -5   8 -12   33.93   18.09
  -5   8 -13  -29.73   26.89
   5  -8 -13   -4.97   21.83
  -5   8 -13    1.67   12.04
  -5   8 -14   85.88   36.89
   5  -8 -14  136.94   43.62
  -5   8 -15   44.21   31.55
   8  -5 -15   58.35   26.70
   8  -5 -16   78.41   52.48
   8  -5 -17  129.47   43.25
   8  -5 -18   58.01   28.28
   8  -5 -19    3.92   12.38
   6   8 -19   -1.42   10.99
   6   8 -19   16.55   19.11
   8   6 -19   45.38   25.93
   8   6 -18   13.77   25.38
   6   8 -18   18.34   20.47
   6   8 -18   18.77   19.20
   8   6 -18   24.26   20.28
   6   8 -17   66.87   38.93
   6   8 -17   63.38   35.29
   8   6 -17   82.02   37.32
   8   6 -17   30.75   19.23
   8   6 -16  226.47   61.53
   6   8 -16  239.07   69.12
   8   6 -16  304.17   81.87
   6   8 -16  133.61   52.97
   6   8 -15  227.09   69.86
   6   8 -15   50.47   41.89
   8   6 -15   57.76   54.27
   8   6 -15  135.71   47.42
   6   8 -14   34.39   27.88
   8   6 -14   83.91   51.65
   6   8 -14  -10.28   23.83
   8   6 -14   21.49   28.93
   8   6 -13   64.95   36.74
   8   6 -13  104.56   48.71
   6   8 -13   76.87   40.90
   6   8 -13   96.81   40.60
   8   6 -12  149.01   45.01
   8   6 -12  152.53   60.63
   6   8 -12  110.70   42.11
   6   8 -12   96.01   34.88
   8   6 -11   18.06   21.08
   8   6 -11   81.04   41.77
   6   8 -11   42.79   24.39
   6   8 -11   36.37   28.12
   6   8 -10  672.06  100.89
   6   8 -10  579.33   76.96
   8   6 -10  668.67   86.16
   8   6 -10  640.36  102.21
   6   8  -9   71.74   26.92
   6   8  -9   79.28   39.30
  -6   8   9   28.09   18.24
  -8   6   9   21.33   15.68
   6   8  -8   -1.36   17.13
  -6   8   8    7.01    7.66
   6   8  -8   25.53   24.02
  -8   6   8   -4.60   12.93
  -6   8   7  466.58   63.53
  -8   6   7  545.65   63.96
  -6   8   6 1738.63  114.47
  -8   6   6 1737.20  108.57
  -8  -6  -6 1552.07  117.50
  -6   8   5  433.52   59.09
  -6  -8  -5  421.57   52.76
  -8  -6  -5  414.75   58.13
  -8   6   5  412.10   55.60
  -6   8   4 1589.49  101.60
  -8   6   4 1607.82  100.98
  -8  -6  -4 1629.62  110.55
  -8  -6  -3  230.14   39.36
   8  -6   2  268.49   50.60
   6  -8   2  242.86   47.08
   6  -8   1  511.04   68.41
   8  -6   1  521.97   65.94
   8  -6   0 2965.72  153.34
   6  -8   0 2868.01  151.39
   6  -8  -1  540.43   63.53
   8  -6  -1  533.76   64.77
   6  -8  -2  272.28   42.82
   8  -6  -2  276.97   44.15
   6  -8  -3  248.20   38.00
  -6   8  -5  496.68   67.82
  -6   8  -6 1782.71  126.94
  -6   8  -7   93.14   29.45
  -6   8  -8    2.47   10.06
  -6   8  -9   99.93   36.24
  -6   8 -10  620.94   88.45
  -6   8 -11   44.86   27.35
  -6   8 -12  109.62   41.80
  -6   8 -13   56.37   31.15
   6  -8 -14   44.11   28.49
   6  -8 -15  149.79   40.81
   8  -6 -15   99.13   38.09
   8  -6 -16  296.64   63.50
   8  -6 -17   15.71   12.41
   8  -6 -18   24.14   17.63
   8  -6 -19   -9.66   10.40
   7   8 -19   -7.22   15.22
   8   7 -19  -14.85   26.46
   7   8 -19   -6.98   19.48
   8   7 -19   29.85   22.94
   8   7 -18   12.93   26.24
   7   8 -18    2.04   16.55
   8   7 -18   24.60   15.53
   7   8 -18   -6.48   18.18
   8   7 -17  248.73   70.36
   8   7 -17  212.08   60.66
   7   8 -17  286.39   77.58
   7   8 -17  212.11   55.94
   7   8 -16  -39.51   28.12
   8   7 -16    3.86   26.27
   7   8 -16   57.17   44.92
   8   7 -16   19.05   30.56
   8   7 -15  348.13   88.63
   7   8 -15  262.62   76.16
   7   8 -15  176.40   63.07
   8   7 -15  148.64   60.85
   8   7 -14    3.06   20.65
   8   7 -14   51.52   35.38
   7   8 -14   33.96   26.46
   7   8 -14   29.05   31.27
   8   7 -13   91.53   54.43
   7   8 -13   28.09   31.06
   7   8 -13   97.83   61.83
   8   7 -13    5.46   21.39
   8   7 -12   13.77   18.46
   7   8 -12   28.12   27.75
   7   8 -12   30.13   28.62
   8   7 -12   -0.28   21.33
   7   8 -11  408.08   83.23
   8   7 -11  391.48   86.84
   7   8 -11  348.69   62.48
   8   7 -11  384.10   67.27
   8   7 -10   32.17   21.76
   8   7 -10   39.11   36.06
   7   8 -10  -26.89   17.87
   7   8 -10    6.27   21.86
   7   8  -9   64.03   26.39
   7   8  -9   63.93   31.43
   8   7  -9   68.07   33.99
   7   8  -8   -8.52   15.00
  -7   8   8   26.52   18.00
  -8   7   8   15.31   14.05
   7   8  -8   24.30   11.82
   7   8  -7  576.11   67.14
  -7   8   7  602.14   75.29
  -8   7   7  580.93   71.40
  -7   8   6   29.36   15.31
  -8   7   6   43.13   20.34
  -8  -7  -5 1693.03  120.49
  -7  -8  -5 1694.97  117.25
  -7   8   5 2287.11  126.36
  -8   7   5 2102.16  121.91
  -8  -7  -4   -4.20   14.02
  -7   8   4    6.30    9.88
  -8   7   4  -14.79   14.26
  -7   8   3  630.54   64.67
  -8   7   3  641.25   64.46
  -7   8   2  286.54   42.94
  -8   7   2  300.65   42.39
   8  -7   1 1348.38  110.67
   7  -8   1 1419.08  113.36
   8  -7   0  104.25   29.11
   7  -8   0   51.12   21.70
   8  -7  -1 1443.41  110.33
   7  -8  -1 1377.13  104.84
   7  -8  -2  347.52   54.15
   8  -7  -2  330.41   52.64
   7  -8  -3  662.77   71.40
  -7   8  -6   68.53   28.68
  -7   8  -7  624.92   78.01
  -7   8  -8  -33.00   19.26
  -7   8  -9   92.61   39.05
  -7   8 -10   43.90   30.93
  -7   8 -11  369.56   68.75
   7  -8 -14   69.34   32.85
   7  -8 -15  254.72   54.39
   8  -7 -15  276.08   58.56
   8  -7 -16   13.52   14.36
   7  -8 -16  267.74   52.73
   8  -7 -17  343.41   64.03
   8  -7 -18  -32.26   22.63
   8   8 -19   12.29   24.39
   8   8 -18   79.49   47.88
   8   8 -18   93.97   42.17
   8   8 -17    6.14   14.69
   8   8 -17   79.43   39.39
   8   8 -16  563.83  110.70
   8   8 -16  371.10   81.22
   8   8 -15   11.24   17.01
   8   8 -15   22.17   29.48
   8   8 -14  177.82   59.64
   8   8 -14   99.62   40.84
   8   8 -13   52.57   44.11
   8   8 -13  -12.84   13.77
   8   8 -12   21.30   25.13
   8   8 -12   -6.67   17.63
   8   8 -11   39.51   29.91
   8   8 -11   21.21   32.20
   8   8 -10  126.69   48.41
   8   8 -10  219.31   59.03
  -8   8  10   90.98   37.88
   8   8  -9  -15.44   18.68
   8   8  -9   11.76   24.97
  -8   8   9   54.67   27.17
   8   8  -8  273.92   49.92
  -8   8   8  292.87   53.68
   8   8  -7  -16.95   19.66
  -8   8   7   -5.62   13.03
  -8   8   6 1302.11  102.49
  -8   8   5    8.80    9.63
  -8   8   4 2737.83  143.92
  -8   8   3   -6.24    8.92
  -8   8   2   15.47    9.54
  -8   8   1   25.07   18.62
  -8   8   0  835.86   72.08
   8  -8   0 1334.55  128.58
   8  -8  -1    7.47    8.92
   8  -8  -2   19.54   16.15
   8  -8 -15  -12.81   18.58
   8  -8 -16  522.62   74.21
  -9   0   0 1270.40   89.40
  -9   0   1  441.12   55.23
  -9   0  -1  406.11   52.45
  -9   0   2  442.91   54.46
  -9   0  -2  425.34   55.72
  -9   0  -3   76.68   21.18
  -9   0   3   90.24   26.46
  -9   0   4   12.60   13.80
  -9   0  -4  -10.80   14.17
  -9   0   5  189.30   37.48
  -9   0  -5  198.72   40.41
   0   9  -6  739.30   82.73
  -9   0   6  682.99   69.83
   0   9  -7  501.16   72.45
   0   9  -7  450.87   54.67
   0   9  -8   81.59   32.85
   0   9  -8  100.49   35.25
   0   9  -9  731.37   79.99
   0   9  -9  671.97   87.15
   0   9 -10  298.52   63.69
   0   9 -10  309.98   58.62
   0   9 -11  127.87   44.79
   0   9 -11  102.34   41.00
   0   9 -12  102.74   43.96
   9   0 -12  156.02   55.66
   0   9 -12  122.96   40.69
   0   9 -13  109.59   41.74
   9   0 -13  112.59   42.73
   0   9 -13  109.84   42.02
   9   0 -14  -15.28   25.07
   0   9 -14   12.50   27.78
   0   9 -14    1.45   23.93
   0   9 -15   26.30   21.70
   0   9 -15   -2.41   15.31
   9   0 -16  234.87   67.33
   0   9 -16  171.74   55.57
   0   9 -16  107.43   40.81
   0   9 -17   -8.98   11.79
   0   9 -17   11.92   26.70
   9   0 -17   36.83   28.56
   9   0 -18   61.80   38.40
   0   9 -18   29.14   24.48
   0   9 -18   67.14   35.44
   0   9 -19   33.06   28.12
   9   0 -19   37.79   39.95
   9   0 -20   35.78   38.53
   9   1 -20   69.24   40.87
   1   9 -19    5.80   15.50
   9   1 -19   -7.50   16.70
   1   9 -18  -10.59   12.50
   1   9 -18   10.06   22.10
   9   1 -18   14.17   21.79
   1   9 -17   73.13   36.67
   1   9 -17   52.91   29.02
   9   1 -16   66.90   42.17
   1   9 -16   21.18   22.69
   1   9 -16   77.55   43.84
   1   9 -15   71.00   37.32
   1   9 -15   41.71   36.24
   9   1 -15   17.01   16.76
   9   1 -14   46.43   41.89
   9   1 -14    0.96   21.83
   1   9 -14   -2.65   21.95
   1   9 -14   19.73   18.86
   9   1 -13   -1.73   17.35
   1   9 -13   12.69   27.94
   1   9 -13  -12.66   18.00
   1   9 -12   79.06   37.23
   9   1 -12  135.96   53.47
   1   9 -12  101.16   36.95
   1   9 -11  262.56   56.99
   1   9 -11  341.12   68.07
   1   9 -10  293.80   57.45
   1   9 -10  271.94   63.10
   1   9  -9  215.60   49.12
   1   9  -9  179.95   45.81
   1   9  -8  502.24   63.38
   1   9  -8  483.90   73.87
   1   9  -7  371.50   51.55
   1   9  -7  408.86   65.76
   1   9  -6  266.26   53.56
  -9   1   6  246.32   39.89
  -9   1   5  208.29   39.30
  -9  -1  -5  203.19   41.46
  -9  -1  -4   23.71   11.61
  -9   1   4    7.81   10.68
  -9   1   3    6.33    7.25
  -9  -1  -3  -10.68   13.77
  -9  -1  -2  281.64   43.13
  -9   1   2  240.98   37.88
  -9  -1  -1  290.19   47.33
  -9   1   1  288.83   45.04
  -9  -1   0 1585.35  103.57
  -9   1   0 1619.99  101.23
  -9   1  -1  265.80   48.84
  -9  -1   1  263.33   44.82
  -9   1  -2  264.69   42.08
  -9  -1   2  249.47   39.79
  -9   1  -3    8.95   10.34
  -9  -1   3    0.22    9.97
  -9   1  -4   19.88    9.32
  -9   1  -5  155.37   36.40
  -1   9  -6  209.21   50.17
  -1   9  -7  376.53   62.73
  -1   9  -7  452.54   60.04
  -1   9  -8  483.75   61.77
  -1   9  -8  452.48   68.41
  -1   9  -9  231.10   51.65
  -1   9  -9  201.68   48.71
  -1   9 -10  293.18   56.80
  -1   9 -10  299.63   60.17
  -1   9 -11  279.29   56.90
  -1   9 -11  314.85   64.80
  -1   9 -12  152.16   49.18
  -1   9 -12  131.76   42.36
  -1   9 -13   17.84   28.25
  -1   9 -13   19.11   21.58
   9  -1 -14  -17.60   24.54
  -1   9 -14   44.21   30.90
  -1   9 -14   51.99   35.04
  -1   9 -15   37.45   25.90
   9  -1 -15   71.16   39.30
  -1   9 -15   46.43   34.88
  -1   9 -16   35.96   26.43
  -1   9 -16   17.78   28.52
  -1   9 -17   70.39   38.16
  -1   9 -17   86.78   39.05
   9  -1 -17   41.37   25.04
  -1   9 -18    2.62   14.23
   9  -1 -18   27.57   27.51
   9  -1 -19   34.17   33.77
   9  -1 -20   24.20   19.17
   9   2 -20   60.41   36.71
   2   9 -19    9.08   18.74
   2   9 -19   18.49   36.64
   9   2 -19   21.21   33.34
   2   9 -18  -14.85   14.57
   2   9 -18   -3.70   15.78
   9   2 -18   -2.96   17.29
   2   9 -17    8.06   19.88
   2   9 -17  -26.49   14.76
   9   2 -17   25.56   34.95
   2   9 -16   96.35   43.40
   2   9 -16    9.26   12.35
   9   2 -16  115.98   47.20
   9   2 -15   78.60   40.93
   2   9 -15   16.92   28.40
   9   2 -15   23.83   26.58
   2   9 -15   26.73   17.94
   9   2 -14   17.26   33.00
   9   2 -14   11.64   15.87
   2   9 -14  -21.92   19.73
   2   9 -14   -2.28   15.99
   2   9 -13   33.74   31.06
   9   2 -13   22.69   31.74
   2   9 -13   22.10   14.42
   9   2 -13   57.76   39.30
   9   2 -12   82.12   46.31
   2   9 -12  136.14   44.49
   2   9 -12   59.24   28.59
   2   9 -11   48.78   28.22
   2   9 -11   35.63   23.31
   2   9 -10  347.33   64.00
   2   9 -10  288.37   56.28
   2   9  -9   53.68   25.68
   2   9  -9   94.96   33.53
   2   9  -8   80.57   33.96
   2   9  -8   69.71   26.02
   2   9  -7  197.82   47.02
   2   9  -7  177.17   35.13
  -2   9   7  117.03   37.23
   2   9  -6   69.83   30.35
  -9   2   6   39.76   17.20
  -2   9   6   37.60   24.33
  -9  -2  -5   98.88   30.16
  -9   2   5   92.18   22.47
   9  -2   4   82.43   29.94
  -9   2   4   53.41   16.76
  -9  -2  -4   93.97   28.83
  -9  -2  -3    8.64    8.12
  -9   2   3   33.25   21.52
   9  -2   3   -0.93   13.12
  -9   2   2   12.50    9.20
  -9  -2  -2   -2.47   14.11
  -9   2   1   10.13    9.88
  -9  -2  -1   -6.82   14.23
  -9   2   0  411.02   50.54
  -9  -2   0  361.19   51.74
  -9   2  -1  -16.11   15.22
  -9  -2   1  -19.63   22.07
  -9   2  -2   -0.74    9.17
  -9   2  -3   17.41   19.08
  -9   2  -4   58.10   22.69
   2  -9  -4   52.39   16.11
  -2   9  -6   37.57   21.92
  -2   9  -6   24.51   10.16
  -2   9  -7  193.68   47.08
  -2   9  -7  181.74   39.85
  -2   9  -8   90.39   29.23
  -2   9  -8   59.89   31.70
  -2   9  -9   91.29   33.99
  -2   9  -9   78.26   26.89
  -2   9 -10  287.63   57.88
  -2   9 -10  262.96   48.62
  -2   9 -11   81.22   33.80
  -2   9 -11   65.79   32.45
  -2   9 -12   61.65   32.48
  -2   9 -12   84.43   36.12
  -2   9 -13   68.44   33.74
  -2   9 -13    8.06   18.06
  -2   9 -14   12.60   16.52
  -2   9 -14   33.53   30.90
   9  -2 -15   33.59   25.28
  -2   9 -15    5.22   12.41
  -2   9 -15   14.23   30.90
   9  -2 -16   97.12   48.56
  -2   9 -16   65.11   31.83
  -2   9 -16   93.63   36.09
  -2   9 -17   26.06   26.09
   9  -2 -17   36.34   36.00
  -2   9 -18   25.16   20.71
   9  -2 -18  -32.41   25.07
   9  -2 -19   21.42   23.37
   9   3 -20  -18.18   15.99
   3   9 -19   32.54   38.16
   3   9 -19   98.97   35.90
   9   3 -19   51.74   38.59
   3   9 -18  -20.68   21.36
   3   9 -18   22.78   19.66
   9   3 -18   13.18   22.54
   3   9 -17  -16.98   18.77
   3   9 -17   42.88   22.54
   9   3 -17    0.86   20.28
   3   9 -16   45.35   29.70
   9   3 -16   -0.68   18.49
   9   3 -16   89.68   44.02
   3   9 -16   13.52   25.56
   9   3 -15  -34.79   33.83
   3   9 -15   12.35   17.23
   3   9 -15   19.42   25.53
   9   3 -15  -21.36   29.73
   9   3 -14   13.58   34.61
   9   3 -14   45.63   45.13
   3   9 -14    6.76   18.21
   3   9 -14   81.78   35.87
   9   3 -13   48.87   33.00
   9   3 -13   39.67   28.46
   3   9 -13   31.09   23.34
   3   9 -13  -27.38   24.14
   3   9 -12   27.75   30.44
   9   3 -12   11.11   23.18
   3   9 -12   -2.01   17.26
   3   9 -11  254.41   65.35
   9   3 -11  240.61   71.34
   3   9 -11  184.61   41.80
   3   9 -10   27.01   23.86
   3   9 -10  -22.44   20.00
   3   9  -9  481.53   76.65
   3   9  -9  645.95   79.06
   3   9  -8   -6.95   10.25
   3   9  -8   -4.91   15.03
  -9   3   7   87.43   28.03
   3   9  -7  125.74   43.34
  -9   3   6  179.42   34.54
  -3   9   6  185.53   40.87
   3   9  -6  200.20   44.82
  -3   9   5 1236.42  100.05
  -9   3   5 1301.09   83.44
  -9  -3  -5 1291.00  103.11
  -9   3   4  683.30   61.59
  -9  -3  -4  672.99   69.61
   9  -3   3    7.44    7.35
  -9   3   3    4.97   11.67
  -9  -3  -3    2.04   11.48
  -9  -3  -2  169.48   34.79
  -9   3   2  188.47   34.70
   9  -3   2  188.19   36.27
  -9   3   1  924.80   77.86
  -9  -3  -1  876.18   78.07
  -9   3   0    6.02    7.04
  -9  -3   0   14.39   12.87
  -9   3  -1  889.27   78.57
   3  -9  -2  166.46   31.49
  -9   3  -2  172.32   36.15
  -9   3  -3    1.14   11.95
   3  -9  -3    1.42    7.19
   3  -9  -4  576.24   49.18
  -9   3  -4  566.73   70.17
  -3   9  -6  189.24   40.81
  -3   9  -6  195.75   37.57
  -3   9  -7   92.58   27.23
  -3   9  -7  126.82   41.00
  -3   9  -8  -20.16   17.72
  -3   9  -8    8.03   17.87
  -3   9  -9  405.77   68.81
  -3   9  -9  439.42   64.80
  -3   9 -10   15.03   13.55
  -3   9 -10    5.65   16.33
  -3   9 -11  175.87   45.72
  -3   9 -11  218.20   52.70
  -3   9 -12   -1.67   18.40
  -3   9 -12   36.00   25.25
  -3   9 -13   38.22   28.86
  -3   9 -13   -0.37   19.60
  -3   9 -14   34.73   22.72
  -3   9 -14    4.69   13.86
  -3   9 -15   -5.19   11.98
  -3   9 -15   -4.11   15.71
   9  -3 -15   31.06   36.30
   9  -3 -16   70.76   44.64
  -3   9 -16   10.43   16.82
   9  -3 -17   40.93   35.38
  -3   9 -17   18.18   21.27
   9  -3 -18   -5.53   18.52
   9  -3 -19   36.46   29.42
   4   9 -19  -13.71   24.85
   9   4 -19   12.10   20.87
   4   9 -19   46.12   19.94
   4   9 -18   50.88   36.43
   4   9 -18   37.42   26.39
   9   4 -18   64.80   33.06
   4   9 -17   13.06   15.47
   4   9 -17   22.17   15.90
   9   4 -17   28.46   25.13
   9   4 -17  -14.76   18.46
   4   9 -16   32.94   30.59
   9   4 -16   54.27   42.85
   4   9 -16   15.90   19.20
   9   4 -16   63.72   41.80
   4   9 -15   -0.19   21.70
   9   4 -15   15.16   27.63
   9   4 -15   72.67   39.18
   4   9 -15  -24.79   24.70
   9   4 -14   33.09   29.02
   9   4 -14   95.55   51.71
   4   9 -14    6.05   13.21
   4   9 -14   34.82   23.52
   9   4 -13   52.64   42.69
   4   9 -13   30.62   23.43
   9   4 -13   69.46   40.29
   4   9 -13   48.34   24.67
   9   4 -12   43.93   28.12
   4   9 -12   92.80   39.18
   9   4 -12   84.71   49.24
   4   9 -12   87.83   44.39
   9   4 -11   97.89   42.94
   4   9 -11  162.66   53.75
   4   9 -11   89.22   29.64
   4   9 -10  146.11   37.48
   4   9 -10  181.12   50.81
   4   9  -9   29.82   21.52
   4   9  -9   17.78   14.14
   4   9  -8  280.80   57.98
  -4   9   8  246.57   50.47
   4   9  -8  254.47   46.68
   4   9  -7   34.88   21.42
  -9   4   7  146.05   52.85
  -4   9   6  346.84   56.46
   4   9  -6  367.30   65.35
  -9   4   6  371.78   52.33
  -9   4   5  361.50   48.50
  -9  -4  -5  363.14   53.84
   4   9  -5  352.64   58.81
  -9   4   5  336.65   41.27
  -4   9   5  345.76   54.33
  -4   9   4   59.06   28.65
  -9  -4  -4   41.15   18.46
  -9   4   4   55.85   22.32
  -9   4   4   25.10   10.93
  -9  -4  -3   27.69   16.58
   4  -9   3   12.60   19.20
   9  -4   3   10.56   11.73
  -9   4   3    3.21    7.19
  -9  -4  -2   75.70   21.55
   9  -4   2   68.04   20.62
  -9   4   2   80.33   19.66
   4  -9   2   77.73   28.65
   4  -9   1  689.54   82.06
   9  -4   1  731.74   76.31
  -9   4   1  744.02   69.12
  -9  -4  -1  743.16   73.01
  -9   4   0  466.55   57.08
   4  -9   0  441.33   63.75
   4  -9  -1  708.86   73.84
  -9   4  -1  723.49   73.20
   4  -9  -2   79.86   21.46
  -9   4  -2   65.08   24.79
   4  -9  -3    2.19    8.40
   4  -9  -4   41.52   17.23
  -4   9  -5  364.25   56.15
  -4   9  -6  412.16   62.51
  -4   9  -7   53.56   28.19
  -4   9  -8  275.40   56.56
  -4   9  -8  329.30   53.35
  -4   9  -9   45.13   27.78
  -4   9  -9    8.92   11.08
  -4   9 -10  195.63   48.81
  -4   9 -10  176.83   46.06
  -4   9 -11  125.65   42.88
  -4   9 -11  115.70   38.90
  -4   9 -12   64.80   33.43
  -4   9 -12   57.82   34.45
  -4   9 -13   14.48   20.81
  -4   9 -13   18.55   23.00
  -4   9 -14   18.65   19.54
  -4   9 -14   15.65   20.47
   9  -4 -15   -6.36   17.57
  -4   9 -15   22.35   22.72
   9  -4 -16   82.83   40.53
  -4   9 -16   22.13   19.85
   9  -4 -17  -17.50   16.76
   9  -4 -18   74.55   34.08
   9  -4 -19   21.61   20.25
   5   9 -19   39.82   31.92
   5   9 -19   82.36   33.71
   9   5 -19  129.60   38.16
   9   5 -18   -0.40   16.58
   5   9 -18   46.99   26.46
   5   9 -18   12.69   14.82
   9   5 -18   40.84   29.20
   9   5 -17  141.57   47.85
   5   9 -17   90.92   37.69
   5   9 -17  133.98   52.08
   9   5 -17   74.12   28.86
   9   5 -16  127.19   54.61
   5   9 -16   92.37   45.26
   5   9 -16   81.62   44.02
   9   5 -16  114.35   35.59
   5   9 -15  214.06   65.79
   9   5 -15  209.15   69.00
   5   9 -15  130.40   42.60
   9   5 -15  177.42   64.80
   9   5 -14  -19.82   26.30
   5   9 -14   11.14   29.48
   9   5 -14   40.75   33.68
   5   9 -14    5.77   18.77
   9   5 -13  176.55   58.81
   5   9 -13   91.22   42.76
   9   5 -13  106.63   48.68
   5   9 -13   72.11   26.70
   5   9 -12   36.24   22.84
   5   9 -12   24.91   30.56
   9   5 -12    0.71   25.41
   9   5 -12    0.56   20.59
   9   5 -11   28.03   23.40
   5   9 -11   90.27   40.60
   9   5 -11   82.89   48.90
   5   9 -11   54.98   25.28
   5   9 -10  160.62   51.83
   5   9 -10  133.30   31.95
   5   9  -9  256.11   60.23
   5   9  -9  294.82   52.64
   5   9  -8    3.46   12.38
  -5   9   8   -1.48   10.43
  -9   5   8    1.76   14.36
   5   9  -8  -20.19   10.28
   5   9  -7  779.43   96.66
  -5   9   7  689.54   85.08
   5   9  -7  597.14   64.77
  -9   5   7  682.56   75.48
  -9   5   6  534.69   62.45
  -5   9   6  604.98   71.87
   5   9  -6  544.78   74.89
  -5   9   5  802.28   81.68
  -9   5   5  855.47   76.96
  -9  -5  -4 1413.21  106.32
  -5   9   4 1426.77  103.02
  -9   5   4 1403.09   86.41
  -9   5   4 1361.13   96.04
  -9   5   3 1351.72   92.27
  -5   9   3 1361.47   98.88
  -9   5   3 1513.91   92.80
  -9  -5  -3 1491.41  107.49
   5  -9   2   41.61   28.83
  -9   5   2   42.42   14.60
   9  -5   2   25.44   13.46
  -9  -5  -2   38.34   17.07
   5  -9   1  999.36   98.42
  -9   5   1 1030.54   82.18
   9  -5   1 1055.14   95.64
   5  -9   0  383.54   57.20
  -9   5   0  397.71   49.98
   9  -5   0  417.78   58.22
   5  -9  -1 1015.38   90.76
   5  -9  -2   32.23   17.57
   5  -9  -3 1484.93   94.74
   5   9   4 1188.23  119.96
  -5   9  -5  834.10   88.63
  -5   9  -6  550.03   71.00
  -5   9  -7  810.58   91.07
  -5   9  -8    9.17   14.69
  -5   9  -9  246.63   53.90
  -5   9 -10  181.40   48.34
  -5   9 -11   79.06   35.10
  -5   9 -12   34.67   23.03
  -5   9 -13   72.79   32.69
  -5   9 -14   17.29   20.34
   9  -5 -15  250.33   61.74
  -5   9 -15  245.12   62.33
   9  -5 -16  147.04   52.82
   9  -5 -17  139.26   43.53
   9  -5 -18   31.18   23.71
   9  -5 -19    7.29   13.68
   6   9 -19   30.50   25.87
   9   6 -19   23.06   23.65
   6   9 -19    7.29   16.52
   9   6 -18   43.00   27.32
   6   9 -18   33.80   34.21
   9   6 -18   15.96   29.30
   6   9 -18   21.30   16.61
   6   9 -17  190.01   56.65
   6   9 -17  101.41   35.84
   9   6 -17  135.34   49.76
   9   6 -17  177.82   56.28
   6   9 -16  123.55   48.81
   9   6 -16  207.82   64.46
   6   9 -16  114.25   47.45
   9   6 -16  129.38   42.32
   9   6 -15   55.57   42.66
   6   9 -15  118.98   54.33
   9   6 -15  127.22   55.88
   6   9 -15   70.66   33.12
   9   6 -14  269.04   76.65
   6   9 -14  247.49   68.35
   6   9 -14  214.99   54.58
   9   6 -14  196.31   62.58
   9   6 -13   26.06   24.02
   6   9 -13    7.50   17.44
   6   9 -13   21.15   20.47
   9   6 -13   10.62   17.63
   9   6 -12   47.70   25.31
   6   9 -12   56.65   32.54
   6   9 -12   32.48   24.64
   9   6 -12    5.53   24.02
   9   6 -11  171.43   49.36
   9   6 -11  215.51   61.65
   6   9 -11  209.40   61.53
   6   9 -11  196.12   48.22
   9   6 -10   37.17   25.47
   6   9 -10   37.29   15.53
   6   9 -10  -10.28   17.16
  -6   9   9  112.12   36.49
   6   9  -9  142.22   45.44
  -9   6   9  122.31   37.35
   6   9  -9   99.99   26.92
  -9   6   8   63.16   22.72
  -6   9   8   81.81   31.92
   6   9  -8   58.93   31.30
   6   9  -8   49.95   17.81
  -6   9   7  320.78   57.82
   6   9  -7  361.35   68.41
   6   9  -7  297.16   48.00
  -9   6   7  315.01   51.77
  -6   9   6  212.05   45.66
  -9   6   6  210.66   39.48
  -6   9   5  546.23   67.30
  -9   6   5  517.46   62.70
  -6   9   4  308.71   51.06
  -9   6   4  289.38   43.50
  -6   9   3  342.17   51.37
  -9   6   3  348.07   50.07
  -6   9   2  504.22   58.65
  -9   6   2  522.18   57.45
   9  -6   1 1817.32  130.06
  -6   9   1 1592.54  103.54
   6  -9   1 1789.13  132.90
  -9   6   1 1697.63  102.43
   6  -9   0  339.18   57.20
   9  -6   0  369.96   55.91
   6  -9  -1 1761.62  121.05
   9  -6  -1 1811.57  122.84
   6  -9  -2  513.82   61.40
   6  -9  -3  318.34   48.00
  -6   9  -4  284.48   50.88
  -6   9  -5  548.79   71.07
  -6   9  -6  203.78   45.75
  -6   9  -7  317.94   60.29
  -6   9  -8   84.00   35.81
  -6   9  -9  116.72   38.90
  -6   9 -10   -2.65   20.75
  -6   9 -11  172.85   50.04
  -6   9 -12   34.14   28.25
  -6   9 -13   50.20   35.69
   9  -6 -15  102.83   40.69
   9  -6 -16  188.68   55.75
   9  -6 -17  176.92   49.39
   9  -6 -18  123.05   36.92
   9  -6 -19   -4.29   10.77
   7   9 -19   -1.45   10.43
   7   9 -19    3.70   19.51
   9   7 -19    6.24   20.99
   7   9 -18   43.90   37.48
   7   9 -18   57.94   36.18
   9   7 -18   41.98   32.72
   9   7 -18   73.01   48.37
   7   9 -17   66.84   38.65
   9   7 -17   73.78   37.54
   7   9 -17   73.94   39.64
   9   7 -17   45.26   29.88
   7   9 -16  221.22   63.01
   9   7 -16  282.04   69.03
   9   7 -16  429.97   99.34
   7   9 -16  337.70   81.35
   7   9 -15  119.38   41.65
   9   7 -15  155.93   52.97
   7   9 -15  123.42   53.28
   9   7 -15   43.71   37.72
   9   7 -14   80.57   42.85
   7   9 -14   83.81   38.65
   9   7 -14   40.26   30.87
   7   9 -14   13.03   22.63
   9   7 -13   92.52   54.80
   7   9 -13   13.98   27.14
   7   9 -13  112.46   42.97
   9   7 -13  120.52   40.69
   9   7 -12  -14.17   14.66
   7   9 -12   26.70   38.16
   9   7 -12   38.56   37.35
   7   9 -12   40.26   22.97
   9   7 -11   19.26   15.93
   7   9 -11   -9.54   26.43
   9   7 -11   -9.76   22.72
   7   9 -11   11.42   21.33
   9   7 -10  115.80   38.00
  -7   9  10  116.72   45.41
   7   9 -10  163.15   44.27
   7   9 -10  145.37   48.16
   9   7 -10  163.06   54.43
  -9   7  10  142.13   44.70
   9   7  -9   14.45   19.02
  -7   9   9   69.12   35.16
   7   9  -9   -9.60   14.20
   7   9  -9   11.45   21.18
  -9   7   9   40.66   24.82
  -7   9   8  167.41   43.31
  -9   7   8  192.48   39.92
   7   9  -8  206.87   55.38
   7   9  -8  159.29   39.02
  -9   7   7   51.77   20.10
  -7   9   7   33.37   21.30
  -7   9   6 1468.47  115.80
  -9   7   6 1468.35  106.47
  -7   9   5  306.95   51.80
  -9   7   5  296.45   48.68
  -9   7   4 1603.19  108.88
  -7   9   4 1712.72  114.87
  -7   9   3  115.64   26.95
  -9   7   3  127.62   31.15
  -7   9   2  231.38   41.71
  -9   7   2  223.63   37.17
  -9   7   1  708.18   68.29
  -7   9   1  699.41   70.36
   7  -9   0 1496.87  120.12
  -7   9   0 1407.32   96.53
  -9   7   0 1464.00   97.03
   7  -9  -1  661.38   77.42
   9  -7  -1  715.44   82.77
   7  -9  -2  198.10   38.03
   7  -9  -3   87.92   22.38
  -7   9  -6 1461.65  122.03
  -7   9  -7   61.16   29.94
  -7   9  -8  146.54   41.49
  -7   9  -9   10.80   12.87
  -7   9 -10  147.41   45.53
  -7   9 -11   18.86   20.07
   7  -9 -14   18.21   23.86
   9  -7 -15  142.59   44.95
   9  -7 -16  416.76   72.36
   9  -7 -17   59.86   28.00
   9  -7 -18   29.64   20.99
   9   8 -18   17.38   13.71
   9   8 -18  -12.26   17.16
   8   9 -18  -10.59   26.12
   8   9 -18   23.86   21.27
   8   9 -17  247.55   72.73
   8   9 -17  152.87   50.26
   9   8 -17  157.91   50.10
   9   8 -17  253.64   71.71
   9   8 -16   66.25   39.11
   8   9 -16   53.38   33.19
   8   9 -16   23.68   19.17
   9   8 -16   29.05   26.46
   9   8 -15  327.94   84.46
   8   9 -15  268.39   73.84
   8   9 -15  251.10   58.44
   9   8 -15  242.40   61.40
   9   8 -14   46.49   36.67
   8   9 -14  -10.13   20.07
   8   9 -14   21.42   23.03
   9   8 -14   13.37   26.89
   9   8 -13  103.26   52.54
   8   9 -13   87.64   49.70
   8   9 -13   55.48   27.81
   9   8 -13   80.45   34.27
   8   9 -12   -2.13   23.15
   9   8 -12  -18.24   28.22
   8   9 -12   24.48   37.20
   9   8 -12   -5.19   16.49
   9   8 -11   20.75   17.20
   8   9 -11   39.95   35.53
   9   8 -11   16.89   27.69
   8   9 -11   22.35   19.42
   9   8 -10   30.62   23.46
  -8   9  10   -0.31   14.48
   8   9 -10    9.79   24.17
  -9   8  10    1.57    9.60
   9   8 -10   16.55   23.06
   8   9 -10    1.39   11.67
   9   8  -9    8.18   22.07
  -9   8   9    3.92   15.81
  -8   9   9    6.39   11.33
   9   8  -9   25.41   19.57
   8   9  -9   27.14   35.47
   8   9  -9   16.89   22.10
   8   9  -8    9.05   10.84
  -8   9   8   -8.21   18.46
  -9   8   8   -4.04   13.46
   8   9  -8   20.78   17.87
  -8   9   7  804.56   91.01
  -9   8   7  780.27   83.54
  -9   8   6   18.83   14.39
  -8   9   6   13.77   18.21
  -9   8   5  993.68   90.11
  -8   9   5  994.70   93.38
  -8   9   4   51.34   21.42
  -9   8   4   36.09   19.63
  -8   9   3  603.47   67.92
  -9   8   3  604.12   66.56
  -8   9   2   19.05   17.63
  -9   8   2   39.73   21.05
  -8   9   1   99.22   26.12
  -9   8   1  103.02   27.32
  -8   9   0   34.02   13.24
  -9   8   0   22.91    9.11
  -9   8  -1   78.10   24.76
  -8   9  -1   68.38   20.93
  -9   8  -2    6.05   15.13
   8  -9  -2   -4.35   15.28
   9  -8  -2    6.85   14.11
  -9   8  -3  438.96   53.31
   9  -8 -15  277.35   61.68
   8  -9 -15  222.52   48.07
   9  -8 -16  -10.31   12.26
   9  -8 -17  194.30   43.10
   9   9 -18   38.43   35.47
   9   9 -18   49.18   28.59
   9   9 -17   21.15   28.22
   9   9 -17   -5.87   12.29
   9   9 -16  220.82   59.67
   9   9 -16  303.62   78.88
   9   9 -15   18.80   27.44
   9   9 -15    0.77   13.12
   9   9 -14  202.33   66.99
   9   9 -14  188.04   49.46
   9   9 -13   26.02   31.74
   9   9 -13   -2.28   16.18
   9   9 -12   90.73   61.93
   9   9 -12   74.89   34.54
   9   9 -11   33.80   37.69
   9   9 -11   11.27   21.33
  -9   9  10   21.67   21.76
   9   9 -10   15.47   25.90
   9   9 -10   57.54   25.75
   9   9  -9   36.77   29.45
   9   9  -9  -26.21   26.24
  -9   9   9   47.70   23.25
  -9   9   8  132.50   41.92
  -9   9   7    5.65   17.44
  -9   9   6 1241.42  107.71
  -9   9   5   30.47   23.18
  -9   9   4 1076.50   96.75
  -9   9   3    5.68    8.52
  -9   9   2   64.83   22.47
  -9   9   1   19.76   20.65
  -9   9   0  141.11   36.12
  -9   9  -1   -0.40   10.93
  -9   9  -2   53.65   18.43
  -9   9  -3  -14.39   16.95
   9  -9 -15   12.72   29.33
 -10   0   0 3354.69  157.60
 -10   0   1    9.05   13.86
 -10   0  -1   -8.43    8.83
 -10   0  -2  105.24   27.85
 -10   0   2   88.01   23.00
 -10   0   3   -1.64   13.12
 -10   0  -3   -1.14   18.09
   0  10   4  472.26   68.93
 -10   0   4  474.06   63.53
 -10   0   5   80.36   25.19
   0  10   5  114.96   41.00
   0  10  -5  102.86   34.33
 -10   0   6   47.66   18.24
   0  10  -6   72.15   28.28
   0  10   6   72.52   38.34
   0  10  -7  361.68   53.53
   0  10  -7  412.28   67.02
   0  10  -8  691.60   74.86
   0  10  -8  685.98   88.69
   0  10  -9  114.28   36.64
   0  10  -9   -8.06   14.11
   0  10 -10  506.93   72.21
   0  10 -10  504.43   81.84
   0  10 -11  125.92   46.92
   0  10 -11  160.10   48.84
   0  10 -12  203.25   65.94
  10   0 -12  387.03   87.24
   0  10 -12  290.68   57.11
   0  10 -13   22.41   27.91
   0  10 -13   22.47   35.84
  10   0 -13   43.62   35.38
  10   0 -14   71.31   43.16
   0  10 -14   18.28   22.32
   0  10 -14   22.66   16.55
  10   0 -15   90.05   37.88
   0  10 -15   31.89   33.62
   0  10 -15   45.07   27.69
   0  10 -16   23.99   28.77
   0  10 -16  -21.55   23.31
   0  10 -17   68.47   32.41
   0  10 -17   51.28   26.89
  10   0 -17   91.81   52.05
   0  10 -18   -3.64   12.84
  10   0 -18  -24.67   27.32
  10   0 -19  -10.47   14.11
   1  10 -19   16.15   23.40
  10   1 -19  -11.64   25.22
   1  10 -18   10.37   15.00
   1  10 -18    1.76   13.98
  10   1 -18  -27.38   20.44
  10   1 -17    1.76   17.41
   1  10 -17    4.29   18.12
   1  10 -17   24.17   29.02
  10   1 -16  139.97   50.88
   1  10 -16   91.10   39.39
   1  10 -16   16.36   28.80
  10   1 -15   98.73   52.39
   1  10 -15   34.21   30.75
   1  10 -15   24.82   31.24
  10   1 -14  -10.19   17.72
  10   1 -14   21.61   24.11
   1  10 -14   -8.49   16.24
   1  10 -14   -7.59   15.19
   1  10 -13  104.22   46.31
  10   1 -13  112.31   51.09
   1  10 -13  121.57   44.95
   1  10 -12    9.82   22.07
   1  10 -12   13.83   29.73
   1  10 -11  218.13   53.28
   1  10 -11  216.75   61.65
   1  10 -10   99.71   41.55
   1  10 -10   94.09   43.65
   1  10  -9  317.32   54.61
   1  10  -9  324.76   63.66
   1  10  -8   34.82   23.74
   1  10  -8   36.64   29.30
   1  10  -7  149.42   36.55
   1  10  -7  153.92   40.38
   1  10  -6   62.58   29.05
 -10   1   6   60.91   22.32
   1  10  -5    3.83   11.14
  -1  10   5   18.86   26.43
 -10   1   5    1.30   10.16
 -10   1   4   11.67   17.81
  -1  10   4   25.28   21.05
 -10  -1  -3   26.15   18.37
 -10   1   3   10.74    8.98
 -10   1   2   42.97   16.30
 -10  -1  -2   36.61   16.64
 -10  -1  -1  314.73   49.58
 -10   1   1  285.74   47.60
 -10  -1   0  129.60   35.16
 -10   1   0  139.60   36.21
 -10  -1   1  294.48   46.18
 -10   1  -1  291.64   47.82
 -10  -1   2   36.98   18.62
 -10   1  -2   54.70   25.16
 -10  -1   3   18.68   14.02
 -10  -1   4   29.51   21.02
   1  10   4   22.94   29.85
  -1  10  -5    3.95   11.18
   1  10   5   21.12   24.33
 -10  -1   5    9.35   11.89
  -1  10  -6   73.16   28.00
   1  10   6   71.00   35.69
  -1  10  -6   62.21   22.66
  -1  10  -7  158.09   42.57
  -1  10  -7  154.91   38.56
  -1  10  -8   40.41   23.74
  -1  10  -8   73.44   37.97
  -1  10  -9  288.58   58.62
  -1  10  -9  322.79   55.20
  -1  10 -10   99.16   39.58
  -1  10 -10   91.25   39.73
  -1  10 -11  236.44   56.62
  -1  10 -11  214.86   57.85
  10  -1 -12   93.94   53.59
  -1  10 -12   14.63   31.77
  -1  10 -12   56.86   39.36
  -1  10 -13   79.25   39.61
  -1  10 -13   85.82   44.95
  -1  10 -14   13.27   26.27
  -1  10 -14   13.49   15.34
  10  -1 -15   60.97   35.87
  -1  10 -15   -6.85   17.41
  -1  10 -15   13.58   23.22
  -1  10 -16   97.15   37.66
  -1  10 -16   34.82   15.90
  10  -1 -17  106.44   46.77
  -1  10 -17  -17.26   21.05
  -1  10 -18    0.00   11.89
  10  -1 -18   -4.63   17.29
  10  -1 -19   -5.74   27.20
   2  10 -19   17.84   24.91
  10   2 -19   28.65   32.35
   2  10 -18    5.59   13.15
   2  10 -18  -19.94   20.16
  10   2 -18   14.36   14.26
   2  10 -17   -7.66   16.39
   2  10 -17    4.20   18.92
  10   2 -17    3.40   15.81
   2  10 -16  -12.60   19.05
   2  10 -16    4.04   22.01
  10   2 -15    9.38   26.70
   2  10 -15   96.50   46.95
   2  10 -15   25.50   33.99
  10   2 -15   42.82   31.43
  10   2 -14   12.41   27.78
  10   2 -14   42.66   28.06
   2  10 -14   22.72   30.87
   2  10 -14   50.75   32.88
   2  10 -13   14.51   30.07
  10   2 -13   55.51   39.76
   2  10 -13   44.70   35.38
   2  10 -12  114.28   44.86
  10   2 -12  146.27   54.30
   2  10 -12   94.90   33.83
   2  10 -11   50.07   29.23
   2  10 -11   61.99   31.12
   2  10 -10  192.88   56.25
   2  10 -10  222.52   49.27
   2  10  -9  248.17   46.77
   2  10  -9  279.85   63.87
 -10   2   9  236.63   49.08
   2  10  -8   46.77   27.44
   2  10  -8   56.37   22.32
   2  10  -7   11.02   18.86
   2  10  -7   -4.94   14.29
 -10   2   7    9.32   10.99
  -2  10   7   27.66   21.08
   2  10  -6  101.87   33.62
  -2  10   6   88.38   36.03
   2  10  -5  288.77   51.40
 -10   2   5  298.86   44.76
  -2  10   5  328.84   60.38
 -10   2   4   65.45   21.83
  -2  10   4   74.37   29.33
 -10   2   3  -12.47   10.59
  -2  10   3  -33.16   18.62
 -10  -2  -2  284.54   47.48
 -10   2   2  281.76   44.08
 -10  -2  -1   92.92   25.38
 -10   2   1   76.10   23.40
 -10  -2   0  176.37   35.38
 -10   2   0  168.56   33.71
 -10  -2   1   77.55   23.18
 -10   2  -1   90.73   31.09
 -10   2  -2  262.65   46.99
 -10  -2   2  263.61   47.36
 -10  -2   3   -1.14   12.50
   2  10   4   54.24   25.38
   2  10   5  313.50   61.37
  -2  10  -5  296.49   50.63
  -2  10  -6  124.87   36.74
   2  10   6   51.28   28.77
  -2  10  -6   90.05   26.43
  -2  10  -7    5.99   18.52
  -2  10  -7   21.86   23.80
  -2  10  -8   65.17   30.41
  -2  10  -8   96.32   33.90
  -2  10  -9  231.47   48.07
  -2  10  -9  258.70   54.21
  -2  10 -10  169.64   50.17
  -2  10 -10  229.53   47.63
  -2  10 -11   60.38   28.83
  -2  10 -11   15.93   13.18
  -2  10 -12   45.50   30.90
  -2  10 -12  102.21   40.63
  -2  10 -13   46.49   31.27
  -2  10 -13   75.20   35.47
  -2  10 -14   -9.01   19.39
  -2  10 -14   24.48   26.18
  10  -2 -15   54.24   44.67
  -2  10 -15   38.99   27.88
  -2  10 -15    9.11   19.60
  10  -2 -16   25.65   22.13
  -2  10 -16    6.39   15.44
  10  -2 -17  185.10   63.41
  -2  10 -17   -5.99   15.16
  10  -2 -18   19.63   23.74
  10  -2 -19   20.56   27.97
   3  10 -19    2.19    9.69
   3  10 -19   26.46   19.91
  10   3 -19   27.17   34.30
   3  10 -18   19.63   17.20
   3  10 -18   18.89   29.76
  10   3 -18   42.11   28.83
   3  10 -17   52.14   34.92
   3  10 -17   32.04   37.94
  10   3 -17   66.28   40.72
   3  10 -16  -11.89   15.34
   3  10 -16    7.90   21.15
  10   3 -16   38.59   28.15
  10   3 -16   20.78   32.79
  10   3 -15    9.57   16.55
   3  10 -15   33.40   33.06
   3  10 -15  -14.11   21.33
  10   3 -15   -2.19   23.40
  10   3 -14    8.30   23.09
   3  10 -14    9.63   32.07
   3  10 -14    0.15   14.11
  10   3 -14   55.81   39.05
  10   3 -13   76.04   39.95
   3  10 -13   48.78   40.16
  10   3 -13   58.32   37.97
   3  10 -13  110.12   40.78
   3  10 -12   14.42   27.78
  10   3 -12   63.75   44.18
   3  10 -12   -0.40   17.84
   3  10 -11   12.72   24.67
   3  10 -11   -3.70   18.00
   3  10 -10   70.51   26.21
   3  10 -10   74.68   38.09
   3  10  -9  123.45   42.54
   3  10  -9  132.04   41.95
   3  10  -8  252.90   57.08
   3  10  -8  202.05   40.60
 -10   3   8  174.11   40.84
 -10   3   7    0.31   11.02
   3  10  -7   -1.70   13.64
  -3  10   7  -13.68   17.23
   3  10  -6   52.85   25.96
 -10   3   6   44.79   19.63
  -3  10   6   60.04   28.86
  -3  10   5   17.72   39.64
 -10   3   5    5.46    9.88
   3  10  -5  -10.65   17.75
 -10   3   4  233.76   42.85
  -3  10   4  244.07   49.61
  -3  10   3    5.74    8.52
 -10   3   3   27.04   18.28
  -3  10   2   55.14   19.88
 -10  -3  -2   64.15   13.06
 -10   3   2  104.75   29.91
 -10  -3  -1   43.84   25.96
 -10   3   1   27.54   12.10
 -10   3   0  182.57   39.05
 -10  -3   0  184.89   41.65
 -10   3  -1   31.70   14.45
 -10  -3   1   25.87   12.38
   3 -10  -2   82.67   27.04
   3 -10  -3    8.37    9.32
   3  10   3   30.65   20.59
   3  10   4  246.01   60.23
   3  10   5   19.02   16.86
  -3  10  -5   -8.30   10.37
  -3  10  -6   74.49   30.72
  -3  10  -7   33.65   21.76
  -3  10  -7   31.09   21.08
  -3  10  -8  241.07   53.78
  -3  10  -8  218.75   45.87
  -3  10  -9  117.59   42.69
  -3  10  -9   39.55   13.06
  -3  10 -10   89.46   37.45
  -3  10 -10   67.98   31.74
  -3  10 -11  -14.29   23.18
  -3  10 -11  -12.47   15.87
  -3  10 -12   19.05   26.86
  -3  10 -12  -12.01   14.60
  -3  10 -13   33.68   25.47
  -3  10 -13   46.58   41.68
  -3  10 -14   17.47   23.28
  -3  10 -14  -13.92   20.75
  10  -3 -15  -36.34   39.92
  -3  10 -15  -30.19   18.37
  10  -3 -16    4.69   19.33
  -3  10 -16   18.55   20.68
  10  -3 -17  -27.17   29.30
  -3  10 -17   11.33   16.30
  10  -3 -18   75.48   37.54
  10  -3 -19    6.76   20.22
   4  10 -19   21.67   28.99
   4  10 -19   79.34   29.51
  10   4 -19   55.60   34.85
   4  10 -18   18.77   28.37
   4  10 -18  -14.60   17.78
  10   4 -18   15.31   25.31
   4  10 -17  141.05   47.85
  10   4 -17  124.72   46.09
   4  10 -17  156.42   47.48
  10   4 -17  156.86   57.33
  10   4 -16   55.51   38.37
  10   4 -16   44.55   26.49
   4  10 -16   24.94   28.77
   4  10 -16  -12.38   22.60
  10   4 -15  105.64   47.97
  10   4 -15  103.85   46.80
   4  10 -15  146.51   52.79
   4  10 -15  153.00   48.75
  10   4 -14   12.87   18.24
  10   4 -14   24.97   30.32
   4  10 -14   12.93   26.61
   4  10 -14   38.77   28.77
  10   4 -13   22.29   28.62
   4  10 -13   -2.16   15.56
  10   4 -13  -25.16   21.64
   4  10 -12   -4.69   18.21
  10   4 -12   20.65   30.59
  10   4 -12   20.56   32.75
   4  10 -12   -6.17   21.15
   4  10 -11   41.83   33.43
   4  10 -11   62.73   24.45
   4  10 -10    0.96   18.83
   4  10 -10    3.61   14.66
   4  10  -9  389.44   72.42
   4  10  -9  376.47   58.90
 -10   4   9  348.97   62.48
 -10   4   8   23.59   15.07
   4  10  -8   54.36   32.14
   4  10  -8   -4.91   13.52
  -4  10   8    9.94   18.06
  -4  10   7  713.34   93.76
 -10   4   7  681.14   80.02
   4  10  -7  798.94   99.90
  -4  10   6   -1.70   11.51
 -10   4   6  -10.31   12.10
   4  10  -6    3.70   16.39
 -10   4   5 1208.17   97.71
  -4  10   5 1161.95  105.49
   4  10  -5 1085.24  108.23
 -10   4   4  287.22   42.91
  -4  10   4  266.39   49.39
 -10   4   4  270.55   41.43
  -4  10   3  460.13   63.22
 -10   4   3  510.21   58.75
 -10   4   2   76.04   24.51
  -4  10   2   87.58   27.54
  -4  10   1  420.68   56.77
 -10   4   1  548.79   64.27
   4 -10   1  482.39   71.44
   4 -10   0   18.21   20.19
 -10   4   0   -2.81   17.66
   4  10   1  545.15   86.50
   4 -10  -1  441.76   63.25
   4  10   2   12.81   38.06
   4 -10  -2   79.86   23.00
   4  10   3  513.82   82.49
   4 -10  -3  478.07   55.88
   4  10   4  247.37   55.38
  -4  10  -5 1123.86  104.07
   4  10   5 1100.86  120.00
   4  10   6   31.06   34.08
  -4  10  -6  -27.10   27.72
  -4  10  -7  788.29   90.45
  -4  10  -8   37.82   24.76
  -4  10  -9  367.37   67.61
  -4  10 -10   23.83   25.04
  -4  10 -11   44.42   29.54
  -4  10 -11   31.70   27.88
  -4  10 -12   19.20   24.02
  -4  10 -13   14.91   24.60
  -4  10 -14    2.87   24.39
  -4  10 -15  135.77   47.39
  10  -4 -15  157.75   48.22
  10  -4 -16  -37.94   28.28
  -4  10 -16  -22.66   25.87
  10  -4 -17  185.81   55.04
  10  -4 -18   68.50   38.77
  10  -4 -19    8.30   23.15
   5  10 -19   17.44   21.61
   5  10 -19   21.18   26.83
  10   5 -19   36.83   27.20
  10   5 -18   25.16   28.71
   5  10 -18   53.25   38.93
   5  10 -18   64.92   28.93
  10   5 -18   90.54   37.72
  10   5 -17    4.01   16.24
   5  10 -17   25.44   26.61
   5  10 -17   22.97   17.41
  10   5 -17   80.70   36.55
  10   5 -16  195.72   65.08
   5  10 -16  171.55   56.37
   5  10 -16  134.13   46.21
  10   5 -16  226.04   58.72
  10   5 -15  -17.57   34.48
   5  10 -15  -11.73   31.12
   5  10 -15   -5.96   14.51
  10   5 -15    0.31   20.25
  10   5 -14  114.32   49.89
  10   5 -14  192.76   67.70
   5  10 -14  109.04   55.51
   5  10 -14  135.52   44.64
  10   5 -13   21.08   25.72
  10   5 -13   15.99   23.49
   5  10 -13   38.28   42.02
   5  10 -13   14.14   18.34
  10   5 -12   30.35   35.04
   5  10 -12   11.58   28.43
  10   5 -12   -2.35   24.14
   5  10 -12  -17.75   16.21
  10   5 -11   76.16   51.49
   5  10 -11   18.77   28.83
   5  10 -11    4.07   17.10
   5  10 -10  -15.31   17.26
 -10   5  10    0.86   12.47
   5  10 -10   18.31   11.24
 -10   5   9  105.15   33.74
   5  10  -9  142.32   38.34
   5  10  -9  135.62   43.59
  -5  10   9  100.98   37.60
  -5  10   8  294.14   62.08
   5  10  -8  288.64   64.92
   5  10  -8  228.32   43.13
 -10   5   8  272.90   50.10
 -10   5   7   40.97   11.36
  -5  10   7   38.34   19.85
   5  10  -7   76.47   32.04
  -5  10   6  904.09   94.13
   5  10  -6  833.27   99.81
 -10   5   6  868.06   82.18
  -5  10   5   61.19   27.51
   5  10  -5   43.40   23.03
 -10   5   5   69.27   24.39
  -5  10   4  263.02   51.03
   5  10  -4  228.54   51.00
 -10   5   4  221.19   37.42
 -10   5   4  274.94   43.31
 -10   5   3  127.40   31.27
  -5  10   3  135.77   32.60
 -10   5   3   99.93   23.77
 -10   5   2  439.36   54.61
  -5  10   2  432.44   58.10
 -10   5   2  425.96   54.09
 -10   5   1  857.75   73.50
  -5  10   1  810.43   78.35
 -10   5   1  854.32   78.84
 -10   5   0  147.25   31.40
  -5  10   0  166.09   41.86
   5 -10   0  167.63   43.53
   5 -10  -1  782.83   83.14
   5  10   1  994.26  115.27
   5  10   2  496.38   84.77
   5 -10  -2  437.97   59.95
   5  10   3  119.96   43.44
   5 -10  -3  107.62   29.57
   5  10   4  272.16   63.63
  -5  10  -4  267.07   50.20
   5  10   5   51.06   34.48
  -5  10  -5   51.28   20.75
  -5  10  -6  852.07   91.56
  -5  10  -7   73.23   27.10
  -5  10  -8  316.00   61.59
  -5  10  -9  139.07   44.21
  -5  10 -10   -3.27   10.77
  -5  10 -11   28.22   25.25
  -5  10 -12    4.38   18.49
  -5  10 -13   38.65   32.48
  -5  10 -14   69.43   41.31
  10  -5 -15  -30.16   36.74
  -5  10 -15   10.19   19.20
  10  -5 -16  218.38   58.87
  10  -5 -17    0.28   14.32
  10  -5 -18   68.07   31.83
  10  -5 -19   -7.07   12.72
   6  10 -19   44.73   22.10
  10   6 -19   34.08   21.61
  10   6 -18   -5.06   12.84
   6  10 -18   12.10   24.45
   6  10 -18   38.43   30.28
  10   6 -18   11.11   15.68
   6  10 -17  156.05   50.84
  10   6 -17  219.68   68.78
  10   6 -17  181.18   53.72
   6  10 -17  149.42   49.70
   6  10 -16  150.16   57.70
  10   6 -16  136.70   54.80
   6  10 -16   67.85   32.26
  10   6 -16  145.83   50.04
  10   6 -15  283.27   77.02
   6  10 -15  230.08   68.75
   6  10 -15  203.38   51.49
  10   6 -15  190.63   60.20
   6  10 -14   19.39   38.87
  10   6 -14   27.14   39.27
   6  10 -14   31.95   25.13
  10   6 -14   30.01   23.43
  10   6 -13   83.48   35.72
  10   6 -13   84.09   47.02
   6  10 -13   20.16   30.56
   6  10 -13   45.66   28.96
  10   6 -12   48.62   36.64
   6  10 -12    9.29   29.64
  10   6 -12    0.09   28.59
   6  10 -12   11.64   12.32
  10   6 -11   13.00   17.69
   6  10 -11   -6.02   22.01
  10   6 -11   37.38   23.25
   6  10 -11  -21.30   21.27
   6  10 -10   27.48   27.54
 -10   6  10   44.73   22.66
   6  10 -10   11.89   11.73
  -6  10  10   31.36   21.24
  -6  10   9   16.45   17.94
   6  10  -9   -8.24   24.79
 -10   6   9    8.37   16.27
   6  10  -9   31.24   20.28
  -6  10   8   14.57   19.33
 -10   6   8    5.43    8.92
   6  10  -8    0.59   12.10
   6  10  -7  263.33   62.73
 -10   6   7  242.86   47.45
  -6  10   7  220.39   53.96
  -6  10   6  414.26   64.49
   6  10  -6  460.78   76.31
 -10   6   6  428.68   59.03
  -6  10   5  920.02   91.87
 -10   6   5  873.22   82.61
  -6  10   4  854.29   84.65
 -10   6   4  841.17   78.04
  -6  10   3  254.87   47.11
 -10   6   3  274.13   44.98
  -6  10   2   23.93   10.43
 -10   6   2   28.74   16.73
  -6  10   1  396.75   55.85
 -10   6   1  417.96   54.86
  -6  10   0  434.42   59.46
   6 -10   0  439.60   66.16
 -10   6   0  454.67   54.33
   6 -10  -1  357.55   58.72
  -6  10  -1  351.78   52.60
 -10   6  -1  367.80   48.96
   6 -10  -2   30.28    8.61
  -6  10  -4  823.61   87.67
  -6  10  -5  892.60   94.25
  -6  10  -6  404.72   66.00
  -6  10  -7  281.30   56.83
  -6  10  -8  105.70   37.23
  -6  10  -9    9.26   21.98
  -6  10 -10   10.56   16.39
  -6  10 -11   -0.31   18.86
  -6  10 -12   -2.04   14.69
  -6  10 -13    7.22   11.33
  10  -6 -15  314.17   67.64
  10  -6 -16  189.46   53.50
  10  -6 -17  169.48   49.92
  10  -6 -18   58.62   26.33
  10   7 -18   30.07   34.30
   7  10 -18   36.49   34.42
   7  10 -18   53.87   26.33
  10   7 -18   46.74   25.41
   7  10 -17  117.19   53.01
  10   7 -17   99.50   55.91
   7  10 -17   76.50   36.77
  10   7 -17   98.88   42.76
   7  10 -16  167.69   60.04
  10   7 -16  146.21   56.99
  10   7 -16  133.52   50.91
   7  10 -16  111.23   33.96
   7  10 -15   99.44   45.26
  10   7 -15  183.34   71.03
   7  10 -15   63.19   36.21
  10   7 -15   36.12   36.12
  10   7 -14  124.19   57.54
   7  10 -14   67.18   48.07
   7  10 -14   56.65   30.38
  10   7 -14   80.82   34.08
   7  10 -13    2.25   24.36
   7  10 -13  -12.04   23.96
  10   7 -13    2.65   14.97
  10   7 -12  -19.60   26.70
   7  10 -12   60.29   41.71
   7  10 -12  255.52   62.17
  10   7 -12  195.66   66.31
  10   7 -11   28.90   21.92
   7  10 -11   21.70   35.50
  10   7 -11   66.74   39.02
   7  10 -11    8.83   11.95
  -7  10  10   38.74   25.53
  10   7 -10   55.69   28.83
  10   7 -10   88.88   48.34
   7  10 -10   13.52   40.75
 -10   7  10   26.33   21.86
   7  10 -10   75.66   34.54
  -7  10   9   -7.01   13.00
   7  10  -9   -3.27   23.18
 -10   7   9   12.50   17.20
   7  10  -9  -10.50   13.12
  -7  10   8   39.27   24.88
   7  10  -8   48.28   29.57
 -10   7   8   13.92   13.00
  -7  10   7  291.79   57.85
   7  10  -7  335.97   68.16
 -10   7   7  347.39   56.52
 -10   7   6  446.89   65.72
  -7  10   6  468.53   69.27
 -10   7   5  481.99   62.85
  -7  10   5  529.99   73.63
  -7  10   4  326.12   55.29
 -10   7   4  356.25   54.27
  -7  10   3  221.62   42.91
 -10   7   3  227.30   43.34
 -10   7   2    2.78   13.21
  -7  10   2   14.57    7.35
 -10   7   1  157.57   33.87
  -7  10   1  150.65   36.61
 -10   7   0   11.64   13.77
  -7  10   0   14.51   16.58
 -10   7  -1  120.06   30.96
  -7  10  -1  121.05   35.96
  -7  10  -2   23.68   17.57
   7 -10  -2   -2.90   15.16
 -10   7  -2   20.25   14.32
  -7  10  -3  159.05   33.74
  -7  10  -7  327.05   60.94
  -7  10  -8   45.26   27.17
  -7  10  -9   -4.07   11.05
  -7  10 -10   43.50   39.08
  10  -7 -15   64.06   23.68
  10  -7 -16  107.68   36.43
  10  -7 -17  118.85   38.00
  10  -7 -18   62.79   25.87
  10   8 -18   26.89   33.83
   8  10 -18   54.24   40.53
   8  10 -18   45.26   23.65
  10   8 -18   14.11   22.78
   8  10 -17   23.62   23.99
  10   8 -17    5.93   24.94
  10   8 -17   14.85   19.02
   8  10 -17   11.58   10.31
   8  10 -16  236.94   64.27
  10   8 -16  230.82   66.59
   8  10 -16  158.37   44.36
  10   8 -16  154.88   50.10
   8  10 -15   63.81   35.50
  10   8 -15  106.78   51.03
   8  10 -15   32.29   19.97
  10   8 -15   40.90   21.02
   8  10 -14   39.51   39.21
  10   8 -14  170.41   61.22
   8  10 -14   74.00   30.16
  10   8 -14  145.22   42.63
  10   8 -13   50.01   55.35
   8  10 -13   -0.03   15.65
   8  10 -13  -11.24   11.64
  10   8 -13   -8.40   17.20
  10   8 -12   38.62   38.71
   8  10 -12   19.45   40.56
   8  10 -12   30.87   20.10
  10   8 -12    6.30   16.05
  10   8 -11   44.73   29.51
   8  10 -11   -9.14   30.25
  10   8 -11   36.80   29.88
   8  10 -11   35.53   26.27
  10   8 -10   18.89   19.79
   8  10 -10  -10.80   17.16
  -8  10  10   43.44   30.78
  10   8 -10   60.04   43.22
 -10   8  10   -8.77   13.49
   8  10 -10   59.80   28.99
  10   8  -9   59.92   27.75
 -10   8   9   42.57   23.34
  -8  10   9   13.55   11.27
   8  10  -9    5.22   16.11
  10   8  -8  124.26   37.94
  -8  10   8  127.71   37.72
 -10   8   8  166.80   43.40
   8  10  -8   92.27   52.11
   8  10  -7  100.24   38.56
 -10   8   7   70.94   28.46
  -8  10   7   83.94   34.58
  -8  10   6  768.29   90.67
 -10   8   6  744.79   83.04
  -8  10   5  275.93   52.48
 -10   8   5  283.55   48.90
 -10   8   4  582.91   69.43
  -8  10   4  569.45   71.56
  -8  10   3   75.57   24.76
 -10   8   3  106.38   29.08
  -8  10   2  186.80   37.45
 -10   8   2  176.49   34.70
  -8  10   1   58.99   24.45
 -10   8   1   69.21   25.25
  -8  10   0    3.55   14.69
 -10   8   0   30.04   17.23
  -8  10  -1   17.20   14.39
 -10   8  -1   38.13   21.42
  -8  10  -2  178.53   38.43
 -10   8  -2  173.22   34.08
  -8  10  -3   40.41   13.43
  10  -8 -15   90.73   39.30
  10  -8 -16  206.96   48.44
  10  -8 -17   12.47   12.13
   9  10 -18   11.73   20.75
  10   9 -18   -7.87   12.16
  10   9 -18   11.89   23.55
  10   9 -17   69.34   52.02
   9  10 -17   74.12   49.02
   9  10 -17   64.80   33.22
  10   9 -17   64.83   36.27
   9  10 -16   35.87   31.12
   9  10 -16    4.04   16.45
  10   9 -16    3.74   11.89
   9  10 -15   92.00   42.63
  10   9 -15  149.85   57.98
   9  10 -15   98.91   34.51
  10   9 -15  128.02   46.62
   9  10 -14   43.71   42.51
  10   9 -14   23.06   26.89
   9  10 -14  -52.48   27.07
  10   9 -14  -34.70   27.07
  10   9 -13  131.23   76.44
   9  10 -13  140.62   80.42
   9  10 -13  206.43   51.77
  10   9 -13  178.84   46.40
  10   9 -12   -1.14   22.75
   9  10 -12   22.10   34.08
   9  10 -12   13.15   20.96
  10   9 -12    8.49   25.28
  -9  10  11   29.08   26.02
 -10   9  11   44.33   29.14
   9  10 -11    5.77   28.43
  10   9 -11    8.34   26.24
   9  10 -11  -18.24   24.70
  10   9 -11   68.22   42.63
  10   9 -10   39.61   34.05
  -9  10  10   22.10   24.94
   9  10 -10    8.46   25.72
 -10   9  10  -11.21   17.44
  10   9 -10   39.89   35.56
   9  10 -10   16.86   21.52
  10   9  -9   49.58   18.89
  -9  10   9   64.74   30.07
 -10   9   9  100.27   34.88
   9  10  -9    3.70   30.44
  10   9  -9   18.65   31.86
   9  10  -8   18.99   32.26
  -9  10   8   19.94   20.59
 -10   9   8  -13.71   16.55
 -10   9   7  299.05   57.67
  -9  10   7  304.76   61.31
  -9  10   6   47.14   27.91
 -10   9   6   62.33   27.29
  -9  10   5  563.46   76.84
 -10   9   5  524.22   71.13
  -9  10   4   62.67   26.89
 -10   9   4   50.84   20.31
 -10   9   3  498.97   65.20
  -9  10   3  510.11   66.50
  -9  10   2   19.02   14.42
 -10   9   2   17.35   16.30
 -10   9   1  193.16   40.90
  -9  10   1  187.33   40.44
  -9  10   0   64.95   23.99
 -10   9   0   66.56   23.86
  -9  10  -1  154.66   35.35
 -10   9  -1  154.14   34.73
  -9  10  -2  -15.47   17.07
 -10   9  -2   25.44   16.73
  -9  10  -3  365.45   56.00
 -10   9  -3  408.45   55.60
  10  -9 -15  156.15   47.66
  10  -9 -16   50.72   24.26
  10  10 -17    5.80   20.07
  10  10 -17   -1.48    9.54
  10  10 -16  115.52   63.53
  10  10 -16  151.24   47.91
  10  10 -15  160.62   60.63
  10  10 -15  -10.84   17.72
  10  10 -14   96.10   34.11
  10  10 -14  188.75   66.87
  10  10 -13   -2.87   35.75
  10  10 -13   55.75   31.27
  10  10 -12  112.43   73.66
  10  10 -12  222.98   59.18
 -10  10  11   16.15   13.68
  10  10 -11  -18.58   39.79
  10  10 -10    4.63   17.57
 -10  10  10    3.21   12.44
 -10  10   9   -8.37   16.79
  10  10  -9  -42.36   32.07
 -10  10   8  168.56   46.89
  10  10  -8  119.01   65.94
 -10  10   7  -15.65   19.08
 -10  10   6   83.26   35.22
 -10  10   5   -6.92   10.25
 -10  10   4  304.17   56.06
 -10  10   3   -7.63    9.32
 -10  10   2  272.56   48.41
 -10  10   1    3.86    9.51
 -10  10   0  192.60   40.84
 -10  10  -1   -5.06    9.66
 -10  10  -2  247.28   45.94
   0  11   0  784.06  105.67
   0  11   1 2485.27  160.44
   0  11   2  392.86   67.82
   0  11   3  -10.62   19.42
   0  11   4   95.73   35.59
   0  11   5  358.41   66.62
   0  11  -5  364.15   59.98
   0  11  -6   78.66   30.99
   0  11   6   60.17   34.64
   0  11  -6   78.66   27.01
   0  11   7   51.43   34.02
   0  11  -7   17.53   25.93
   0  11  -7   14.29   20.41
   0  11   8   99.96   40.75
   0  11  -8  100.73   32.79
   0  11  -8  123.21   37.05
   0  11  -9  301.55   62.82
   0  11  -9  309.64   53.56
   0  11 -10   16.73   23.65
   0  11 -10   27.29   43.25
   0  11 -11  348.13   83.32
   0  11 -11  487.85   71.34
   0  11 -12    5.37   32.35
  11   0 -12  149.48   66.56
   0  11 -12   68.07   47.91
   0  11 -13   64.74   42.32
   0  11 -13   62.30   28.93
  11   0 -13   86.65   44.05
   0  11 -14   18.46   27.41
   0  11 -14   -8.37   13.03
  11   0 -15    2.69   31.61
   0  11 -15    7.22   24.64
   0  11 -15   23.25   32.48
  11   0 -16  161.89   60.41
   0  11 -16   57.85   36.06
   0  11 -16  102.46   46.80
   0  11 -17  -19.33   18.77
  11   0 -17   65.69   50.13
   0  11 -18   18.40   20.84
  11   0 -18   14.94   21.67
  11   0 -19   28.34   33.28
   1  11 -19    5.62   18.12
  11   1 -19   21.55   27.35
   1  11 -18    5.43   17.26
  11   1 -18   67.14   36.00
   1  11 -17   41.71   26.24
   1  11 -17   15.00   26.46
  11   1 -17   37.35   36.24
  11   1 -16   89.43   43.53
   1  11 -16   61.43   36.86
   1  11 -16   37.42   34.45
  11   1 -15   68.07   47.33
   1  11 -15   38.50   31.46
   1  11 -15    2.41   19.26
   1  11 -14   28.00   21.64
  11   1 -14    6.45   38.87
   1  11 -14   26.92   23.46
   1  11 -13   10.00   30.28
  11   1 -13   15.90   20.62
   1  11 -13    3.61   14.73
  11   1 -12  412.87   98.23
   1  11 -12  134.01   72.58
   1  11 -12  317.85   61.96
   1  11 -11   -7.25   17.50
   1  11 -11   41.83   37.66
   1  11 -10  483.41   69.34
   1  11 -10  237.06   85.70
   1  11  -9   47.66   29.98
 -11   1   9   19.54   22.81
   1  11  -9    9.32   17.66
   1  11  -8   61.83   30.07
   1  11  -8   96.32   30.62
 -11   1   8   80.76   30.16
   1  11  -7   70.05   27.23
  -1  11   7   50.97   26.98
   1  11  -7   70.17   26.18
   1  11  -6   51.46   23.28
  -1  11   6   52.30   28.28
  -1  11   5   12.47   16.76
  -1  11   4   25.53   23.89
  -1  11   3  325.26   56.12
  -1  11   2  748.19   88.23
  -1  11   1  295.10   55.48
   1  11  -1  635.94   99.34
  -1  11   0 4102.64  202.76
   1  11   0 4412.36  217.21
   1  11   1  388.88   67.64
   1  11   2  771.71   92.37
   1  11   3  337.88   61.16
   1  11   4   50.01   61.16
   1  11   5   13.80   20.84
  -1  11  -5    8.40   19.36
  -1  11  -6   37.17   20.99
  -1  11  -6   61.71   24.67
   1  11   6   69.83   36.52
  -1  11  -7   65.08   27.51
  -1  11  -7   86.87   33.62
  -1  11  -8   80.05   27.88
   1  11   8   49.52   30.19
  -1  11  -8   92.52   32.63
  -1  11  -9   82.89   35.22
  -1  11  -9   17.87   30.28
  -1  11 -10  198.93   79.43
  -1  11 -10  465.50   68.69
  -1  11 -11  -23.55   20.65
  -1  11 -11   -2.47   32.04
  -1  11 -12  318.19   62.61
  11  -1 -12  381.66   85.45
  -1  11 -12  154.91   66.59
  -1  11 -13   15.22   23.59
  -1  11 -13   13.27   22.32
  -1  11 -14    9.51   27.91
  -1  11 -14    5.09   14.45
  11  -1 -15   -9.08   31.43
  -1  11 -15   17.78   32.07
  -1  11 -15   24.08   37.42
  11  -1 -16  142.22   56.22
  -1  11 -16   41.37   26.55
  11  -1 -17   70.63   40.78
  -1  11 -17   16.33   20.34
  -1  11 -18   16.73   28.22
  11  -1 -18   -3.46   26.83
  11  -1 -19   11.58   31.70
  11   2 -19   -8.03   17.66
   2  11 -19   21.49   22.69
   2  11 -18   17.57   28.52
  11   2 -18  -36.21   31.43
   2  11 -17   23.52   19.20
   2  11 -17   51.83   33.56
  11   2 -17   58.87   36.64
  11   2 -16   70.51   45.72
   2  11 -16   35.38   30.35
   2  11 -16    4.75   21.39
  11   2 -15   53.38   48.50
  11   2 -15   77.61   43.96
   2  11 -15   23.65   40.38
   2  11 -15   28.56   25.47
  11   2 -14   35.93   38.31
   2  11 -14    1.33   12.78
   2  11 -14   13.92   22.66
  11   2 -14   25.28   15.93
   2  11 -13   74.52   50.72
  11   2 -13   86.56   51.83
   2  11 -13   13.27   18.55
   2  11 -12    8.46   23.68
  11   2 -12   87.18   61.62
   2  11 -12   73.57   35.84
   2  11 -11   72.52   54.49
   2  11 -11  186.18   46.31
   2  11 -10   -6.24   14.88
   2  11 -10   32.88   29.23
   2  11  -9  179.98   52.67
 -11   2   9  128.58   38.53
   2  11  -9  148.06   37.38
   2  11  -8    5.03   13.80
   2  11  -8   -2.10   13.15
   2  11  -7   53.19   21.67
 -11   2   7   65.79   21.36
  -2  11   7   93.63   38.43
   2  11  -7   37.94   17.04
   2  11  -6   49.42   26.18
  -2  11   6   25.22   14.11
   2  11  -5   80.17   31.55
  -2  11   5  108.73   37.23
  -2  11   4   37.76   26.80
  -2  11   3   29.39   20.34
   2  11  -2   87.18   28.83
  -2  11   2   90.21   37.35
  -2  11   1 1323.07  112.28
   2  11  -1 1500.05  141.76
  -2  11   0  571.79   86.10
   2  11   0  677.93  104.37
   2  11   1 1548.49  134.54
   2  11   2  128.82   40.90
   2  11   3   31.64   30.96
  -2  11  -4   -1.91   10.31
   2  11   4  362.64   75.73
  -2  11  -5  102.62   32.82
   2  11   5   93.17   34.14
  -2  11  -6   33.37   19.26
   2  11   6   43.59   31.06
  -2  11  -7   70.79   31.70
   2  11   7   41.80   25.65
  -2  11  -7   95.98   33.25
  -2  11  -8  -10.00   12.44
  -2  11  -8   12.72   16.76
  -2  11  -9  146.21   47.73
  -2  11  -9  110.43   36.24
  -2  11 -10   -0.46   10.84
  -2  11 -10   -1.91   14.54
  -2  11 -11   87.46   44.67
  -2  11 -11  148.03   42.94
  -2  11 -12    0.25   13.40
  -2  11 -12   24.17   26.86
  -2  11 -13   76.53   50.88
  -2  11 -13   73.63   41.09
  -2  11 -14  -16.95   14.82
  -2  11 -14  -13.80   28.65
  11  -2 -15   69.65   43.25
  -2  11 -15   14.36   27.29
  11  -2 -16  110.67   50.32
  -2  11 -16   14.97   20.87
  11  -2 -17   76.50   38.13
  -2  11 -17   35.41   28.37
  11  -2 -18   22.07   30.96
  11  -2 -19    4.20   17.13
   3  11 -19   10.90   22.78
  11   3 -19   -1.14   25.68
   3  11 -18   33.34   34.02
   3  11 -18   32.20   25.41
  11   3 -18   -9.11   18.09
   3  11 -17   31.06   26.24
   3  11 -17   54.33   33.74
  11   3 -17   55.54   38.53
  11   3 -16   26.24   34.54
   3  11 -16   33.90   29.76
   3  11 -16   44.64   23.37
  11   3 -16   50.41   41.06
  11   3 -15   57.67   26.12
  11   3 -15   64.67   46.12
   3  11 -15   48.44   44.30
   3  11 -15   27.38   24.97
  11   3 -14   31.12   32.35
   3  11 -14  -11.14   25.84
   3  11 -14   18.06   20.19
  11   3 -14  -43.50   37.29
  11   3 -13   41.58   44.79
  11   3 -13  109.35   59.49
   3  11 -13    2.47   13.68
   3  11 -13   33.56   26.77
   3  11 -12   50.29   37.63
  11   3 -12  120.00   55.35
   3  11 -12  105.24   40.16
   3  11 -11    1.70   23.55
   3  11 -11   -0.80   20.90
   3  11 -10    0.00   16.45
   3  11 -10   -9.94   19.85
   3  11  -9  173.12   51.28
  -3  11   9  209.55   60.08
   3  11  -9  124.84   33.59
 -11   3   9  223.57   48.44
 -11   3   8    0.43   10.09
   3  11  -8    7.78   11.11
   3  11  -8   37.60   17.78
  -3  11   8   -7.16   13.86
 -11   3   7  220.76   43.44
  -3  11   7  197.48   51.89
   3  11  -7  236.19   55.88
   3  11  -6  318.93   58.53
 -11   3   6  301.21   49.42
  -3  11   6  302.29   61.25
   3  11  -5  175.90   46.89
  -3  11   5  179.73   44.45
  -3  11   4   73.63   32.63
  -3  11   3  283.92   54.18
   3  11  -3  302.20   61.00
   3  11  -2  120.71   37.82
  -3  11   2   69.12   28.03
   3  11  -1  250.67   60.88
  -3  11   1  202.85   49.89
   3  11   0   72.92   39.73
  -3  11   0   56.56   36.58
   3  11   1  237.77   57.23
   3 -11  -1  173.06   37.48
  -3  11  -1  236.07   52.33
   3 -11  -2   49.67   22.44
   3  11   2   81.90   23.43
   3  11   3  332.97   66.19
   3  11   4   92.06   37.08
  -3  11  -4   80.39   30.35
   3  11   5  169.48   48.04
  -3  11  -5  173.59   39.30
  -3  11  -6  345.76   58.38
   3  11   6  278.95   62.73
  -3  11  -7  230.05   50.38
   3  11   7  213.35   52.85
  -3  11  -8    3.67   11.33
  -3  11  -9  117.83   39.61
  -3  11 -10   33.25   35.22
  -3  11 -10   17.57   24.51
  -3  11 -11   -3.86   15.34
  -3  11 -11    7.19   19.91
  -3  11 -12   28.49   41.40
  -3  11 -13    2.47   21.73
  -3  11 -14   -3.52   22.41
  11  -3 -15   18.40   18.86
  -3  11 -15   24.51   17.69
  11  -3 -16   94.13   38.16
  -3  11 -16    2.96   27.44
  11  -3 -17   74.28   41.00
  11  -3 -18  -10.16   14.76
  11  -3 -19   14.20   32.26
   4  11 -19   16.92   20.44
  11   4 -19   10.47   15.78
   4  11 -18   60.72   43.65
   4  11 -18   42.88   24.79
  11   4 -18   69.24   28.77
   4  11 -17   46.89   29.79
  11   4 -17   15.40   31.06
   4  11 -17   69.46   27.10
  11   4 -17   33.56   29.79
   4  11 -16  143.77   53.99
   4  11 -16   68.47   29.64
  11   4 -16  160.87   62.05
  11   4 -16  117.31   45.10
  11   4 -15   14.42   29.33
   4  11 -15   -2.01   20.22
  11   4 -15   46.55   29.48
   4  11 -15    4.26   19.08
  11   4 -14   30.59   24.02
   4  11 -14   44.95   36.34
  11   4 -14  135.06   54.02
   4  11 -14   60.94   25.04
  11   4 -13    2.93   16.30
   4  11 -13   -7.78   26.02
  11   4 -13   12.93   29.54
   4  11 -13   -3.15   16.11
   4  11 -12   17.78   37.42
  11   4 -12  105.55   53.16
   4  11 -12   74.62   32.07
   4  11 -11    0.00   19.88
   4  11 -11   -3.61   19.79
 -11   4  10   -5.50   14.48
   4  11 -10   38.47   24.91
   4  11  -9   22.20   28.71
 -11   4   9   51.74   31.70
   4  11  -9   39.30   22.07
  -4  11   9   13.00   12.38
   4  11  -8  224.28   55.54
  -4  11   8  202.88   55.44
 -11   4   8  209.24   43.53
   4  11  -8  165.41   38.13
   4  11  -7   30.19   19.48
 -11   4   7   59.03   25.50
   4  11  -6  804.16   99.00
  -4  11   6  848.21   98.11
 -11   4   6  792.09   80.76
  -4  11   5   71.16   29.48
 -11   4   5   56.06   19.73
   4  11  -5   69.89   30.72
 -11   4   4  503.14   61.22
   4  11  -4  469.27   67.02
  -4  11   4  542.68   72.18
  -4  11   3  142.78   39.61
  -4  11   2   53.04   24.76
  -4  11   1   12.63   16.36
   4  11  -1   44.70   36.98
  -4  11   0    2.19    9.63
   4 -11   0   -1.70   17.41
   4  11   0   31.49   19.79
   4  11   1   -1.76   15.40
   4 -11  -1   11.98   21.02
  -4  11  -1   -6.30   10.84
   4  11   2   20.07   24.70
   4 -11  -2   31.98   16.39
  -4  11  -2   37.72   24.05
   4  11   3  164.23   75.33
   4  11   4  600.84   92.24
  -4  11  -4  521.13   68.72
   4  11   5   41.77   23.12
  -4  11  -5   38.22   14.29
   4  11   6  842.32  107.96
  -4  11  -6  803.42   91.84
  -4  11  -7   81.53   41.40
  -4  11  -8  232.40   53.68
  -4  11  -9   19.08   22.29
  -4  11 -10  124.41   72.89
  -4  11 -11   -8.67   18.71
  -4  11 -12   15.03   25.25
  -4  11 -13   -9.01   15.16
  -4  11 -14   96.01   41.86
  11  -4 -15   92.71   46.21
  -4  11 -15   55.41   29.98
  11  -4 -16  115.95   42.63
  11  -4 -17   37.48   28.15
  11  -4 -18   63.07   36.92
  11  -4 -19  123.58  100.05
  11   5 -19   22.91   20.93
   5  11 -18    1.85   11.51
   5  11 -18  -24.48   22.13
  11   5 -18   25.68   26.98
  11   5 -17  205.72   78.51
   5  11 -17  149.20   55.01
   5  11 -17  140.40   41.52
  11   5 -17  193.78   56.37
   5  11 -16   -9.45   19.60
   5  11 -16   26.80   23.83
  11   5 -16    1.98   21.98
  11   5 -16  -10.06   15.65
  11   5 -15  190.66   83.72
   5  11 -15  118.58   37.14
   5  11 -15  129.44   54.39
  11   5 -15   98.82   48.71
  11   5 -14   27.66   33.99
   5  11 -14   20.19   26.09
  11   5 -14   12.41   25.22
   5  11 -14   28.62   25.99
  11   5 -13    9.72   22.10
   5  11 -13   -2.65   25.72
  11   5 -13   56.52   46.80
   5  11 -13    2.56   14.51
  11   5 -12   59.06   32.51
   5  11 -12   13.43   20.00
  11   5 -12  -71.59   50.07
   5  11 -12  140.93   55.07
   5  11 -11   19.57   27.32
   5  11 -11    8.00   13.12
 -11   5  10   20.78   13.06
  -5  11  10   28.00   22.29
   5  11 -10   49.21   28.77
   5  11 -10   25.41   94.47
   5  11  -9   27.44   35.38
 -11   5   9   44.92   24.17
   5  11  -9   71.10   31.77
  -5  11   9   74.31   43.19
   5  11  -8   56.37   26.61
 -11   5   8   61.90   24.26
  -5  11   8   42.88   26.55
  -5  11   7  543.21   83.20
 -11   5   7  562.56   69.61
   5  11  -7  540.80   86.04
  -5  11   6  -14.23   13.89
 -11   5   6   18.06   13.80
   5  11  -6  -18.40   22.20
  -5  11   5 1404.08  119.01
   5  11  -5 1307.79  122.68
 -11   5   5 1297.69  103.20
 -11   5   4   -2.78   12.50
   5  11  -4    7.72   14.57
  -5  11   4    7.78    9.69
  -5  11   3   61.59   25.59
 -11   5   3   79.00   25.53
  -5  11   2    9.76   12.75
 -11   5   2    6.64   12.56
  -5  11   1   77.70   28.93
 -11   5   1   69.43   20.96
 -11   5   0  368.08   49.24
  -5  11   0  354.43   56.93
  -5  11  -1   66.53   25.62
   5  11   1   75.79   32.54
 -11   5  -1   43.40   19.17
   5 -11  -1   52.23   25.47
  -5  11  -2   29.88   22.41
   5  11   2    5.59   19.82
   5 -11  -2    3.55   13.58
 -11   5  -2    5.25   15.93
 -11   5  -3   46.65   21.36
  -5  11  -3   42.63   30.28
   5  11   4  -15.34   37.05
   5  11   5 1259.72  133.39
  -5  11  -5 1274.11  111.32
  -5  11  -6  -10.19   15.93
  -5  11  -7  501.10   77.49
  -5  11  -8   58.32   26.64
  -5  11  -9   16.21   23.55
  -5  11 -10   12.53   28.77
  -5  11 -11   12.78   28.96
  -5  11 -12    5.09   25.84
  -5  11 -13    6.45   12.63
  -5  11 -14   18.89   24.20
  11  -5 -15  214.37   63.13
  11  -5 -16   -2.35   16.55
  11  -5 -17  282.25   65.48
  11  -5 -18    5.56   11.51
   6  11 -18   41.27   33.09
  11   6 -18   68.35   45.81
   6  11 -18   61.80   28.96
  11   6 -18   62.92   29.36
   6  11 -17    6.30   19.54
  11   6 -17  -13.43   17.72
   6  11 -17   48.78   26.58
  11   6 -17   14.08   14.94
   6  11 -16  340.94   82.92
   6  11 -16  166.09   45.44
  11   6 -16  214.83   69.43
  11   6 -16  193.25   50.66
   6  11 -15    1.14   17.13
  11   6 -15  -19.36   21.39
   6  11 -15    5.68   16.42
  11   6 -15   18.80   17.07
   6  11 -14   40.47   38.56
  11   6 -14   42.60   45.81
   6  11 -14   69.31   33.28
  11   6 -14   81.90   40.69
  11   6 -13   18.86   17.20
   6  11 -13    1.45   16.27
   6  11 -13    9.79   18.28
  11   6 -13   39.73   34.82
  11   6 -12   21.64   28.40
   6  11 -12  -24.76   33.90
  11   6 -12   38.43   40.60
   6  11 -12   -1.51   13.21
  11   6 -11   42.11   24.08
   6  11 -11   -3.80   28.90
  11   6 -11   58.72   41.52
   6  11 -11   11.39   14.51
 -11   6  10   92.61   32.57
   6  11 -10   69.21   32.04
  -6  11  10   94.99   40.53
   6  11 -10   18.62   38.84
   6  11  -9   17.38   32.35
 -11   6   9   22.17   20.93
  -6  11   9   24.23   27.91
  -6  11   8   98.66   38.99
 -11   6   8   93.29   33.16
   6  11  -8   87.03   41.52
  -6  11   7   -7.78   17.29
   6  11  -7  -25.87   25.62
 -11   6   7   -5.68    8.98
   6  11  -6  813.30  103.76
 -11   6   6  825.37   84.59
  -6  11   6  805.49   96.22
 -11   6   5   50.91   22.04
  -6  11   5   55.20   27.14
   6  11  -5   83.38   33.65
  -6  11   4  981.39   98.17
   6  11  -4  865.16  100.42
 -11   6   4  901.84   87.74
  -6  11   3   17.57   17.23
 -11   6   3    6.61   11.08
 -11   6   2  -13.31   13.46
  -6  11   2    3.52   16.89
  -6  11   1   52.51   23.71
 -11   6   1   22.75   16.58
  -6  11   0   -0.52   14.20
 -11   6   0   -7.04   15.96
  -6  11  -1    4.35   16.58
 -11   6  -1    5.83   12.81
  -6  11  -2   -1.08    7.81
 -11   6  -2    4.45    8.98
 -11   6  -3  -10.84    8.80
  -6  11  -5   55.35   24.11
  -6  11  -6  789.09   92.46
  -6  11  -7   -0.90   14.02
  -6  11  -8   66.84   33.68
  -6  11  -9   18.31   25.78
  -6  11 -10    6.64   12.13
  -6  11 -11    9.60   13.98
  -6  11 -12   -5.31   13.09
  -6  11 -13   -4.69   12.41
  11  -6 -16  208.90   56.19
  11  -6 -17  -44.89   28.68
  11  -6 -18   31.61   29.36
   7  11 -18   -9.38   22.26
   7  11 -18   41.89   22.78
  11   7 -18    6.30   18.24
  11   7 -18   27.91   15.87
   7  11 -17   62.95   46.43
  11   7 -17  104.19   60.38
   7  11 -17   65.72   38.28
  11   7 -17   95.21   34.64
  11   7 -16   54.18   36.27
   7  11 -16   66.40   42.82
   7  11 -16   32.48   19.54
  11   7 -16   29.85   25.75
  11   7 -15  158.18   63.50
   7  11 -15  146.54   54.98
   7  11 -15   78.60   31.30
  11   7 -15  128.02   45.87
   7  11 -14   -5.80   21.33
  11   7 -14   -8.74   31.46
   7  11 -14  -30.62   19.54
  11   7 -14   40.32   24.26
  11   7 -13   29.91   30.41
  11   7 -13  -35.38   38.80
   7  11 -13  -21.02   23.89
   7  11 -13   -9.51   35.72
  11   7 -12   20.50   23.37
   7  11 -12  -33.62   29.85
  11   7 -12  -23.00   30.81
   7  11 -12  -40.01   30.75
  11   7 -11   86.93   32.82
  11   7 -11  148.30   59.33
   7  11 -11   61.96   61.96
   7  11 -11  121.66   39.76
  11   7 -10   49.21   23.15
   7  11 -10   29.73   25.96
 -11   7  10   -0.43   17.07
   7  11 -10   28.96   20.07
  -7  11  10   43.34   33.56
  -7  11   9   83.94   35.78
   7  11  -9  167.23  123.24
 -11   7   9   64.95   22.88
  -7  11   8   30.62   26.18
   7  11  -8   45.26   37.01
 -11   7   8   43.87   22.81
 -11   7   7  235.33   47.14
   7  11  -7  303.43   68.93
  -7  11   7  248.08   57.64
  -7  11   6  192.17   51.28
   7  11  -6  163.77   48.47
 -11   7   6  169.27   40.69
  -7  11   5  692.00   84.15
 -11   7   5  675.12   76.22
   7  11  -5  637.67   92.58
 -11   7   4  144.72   36.24
  -7  11   4  118.24   33.87
 -11   7   3   91.78   27.91
  -7  11   3   96.75   31.95
  -7  11   2   16.42   15.40
 -11   7   2   -2.13    7.59
  -7  11   1  452.91   65.17
 -11   7   1  446.58   57.48
 -11   7   0   10.16   12.69
  -7  11   0    8.15   15.53
  -7  11  -1  440.25   60.82
 -11   7  -1  486.40   60.01
  -7  11  -2    8.06    9.94
 -11   7  -2   21.76   14.91
  -7  11  -3   62.45   29.36
 -11   7  -3   78.01   25.44
  -7  11  -9  291.33   92.49
  11  -7 -15  174.24   53.07
  11  -7 -16   52.26   31.46
  11  -7 -17  128.30   40.44
  11  -7 -18   24.88   23.83
   8  11 -18   18.31   32.11
  11   8 -18   29.91   21.39
  11   8 -17   35.22   49.39
   8  11 -17   15.84   26.89
   8  11 -17   53.96   26.09
  11   8 -17   21.46   23.59
   8  11 -16   69.46   35.84
   8  11 -16  121.97   40.10
  11   8 -16  116.20   51.52
  11   8 -16   45.01   33.99
  11   8 -15   82.67   58.19
   8  11 -15  137.81   55.41
   8  11 -15   30.19   19.29
  11   8 -15   39.82   43.10
  11   8 -14   70.42   43.74
   8  11 -14   80.48   43.03
   8  11 -14   34.48   27.26
  11   8 -14   -8.18   21.73
   8  11 -13   26.89   32.79
  11   8 -13   83.94   50.20
   8  11 -13  105.92   38.16
  11   8 -13   81.44   40.19
   8  11 -12   64.37   56.06
  11   8 -12  139.51   78.29
   8  11 -12  113.42   37.63
  11   8 -12  118.27   42.79
 -11   8  11  -12.78   20.84
  11   8 -11   14.51   39.67
   8  11 -11    1.64   18.99
  -8  11  10  164.85   58.16
  11   8 -10  148.98   46.06
 -11   8  10  158.99   50.41
   8  11 -10   68.97   42.45
  11   8 -10  148.74   73.23
  11   8  -9   24.54   21.24
 -11   8   9   -1.76   17.10
  -8  11   9  -15.71   18.24
   8  11  -9    3.24   18.00
  11   8  -8   21.92   27.78
  -8  11   8  -18.92   16.42
   8  11  -8   -5.09   18.28
 -11   8   8   -5.65   13.21
  -8  11   7  188.68   48.47
   8  11  -7  137.90   52.88
 -11   8   7  165.90   41.00
  -8  11   6  512.18   76.28
 -11   8   6  624.43   73.91
   8  11  -6  445.68   81.44
  -8  11   5  200.69   48.10
 -11   8   5  234.34   46.77
  -8  11   4  104.04   34.76
 -11   8   4   96.60   29.64
  -8  11   3  187.79   41.49
 -11   8   3  189.21   41.31
  -8  11   2   48.99   16.08
 -11   8   2   52.79   21.76
  -8  11   1  121.85   33.90
 -11   8   1  104.96   28.68
  -8  11   0  867.35   87.74
 -11   8   0  862.69   82.18
 -11   8  -1  111.29   29.82
  -8  11  -1  124.16   38.19
  -8  11  -2   51.62   23.86
 -11   8  -2   54.73   26.02
  -8  11  -3  154.45   37.91
  11  -8 -15   84.68   38.65
  11  -8 -16   70.94   30.75
  11  -8 -17   56.62   26.21
   9  11 -18   -4.63   19.60
   9  11 -17    1.45   21.49
  11   9 -17   -0.65   21.83
   9  11 -17   12.16   17.78
  11   9 -17   27.78   25.62
   9  11 -16   21.92   27.20
   9  11 -16   30.04   36.67
  11   9 -16   44.95   43.99
  11   9 -16   30.87   22.54
   9  11 -15  -12.29   23.52
   9  11 -15  -13.61   17.91
  11   9 -15    8.95   20.41
   9  11 -14   38.71   26.46
  11   9 -14   95.02   47.79
   9  11 -14   24.45   24.57
  11   9 -14   45.53   24.67
  11   9 -13   12.84   23.52
   9  11 -13   -8.49   19.94
   9  11 -13    1.48   16.18
  11   9 -13   26.55   21.05
   9  11 -12   98.02   61.71
  11   9 -12   68.07   57.61
   9  11 -12  152.72   47.39
  11   9 -12  122.13   42.76
 -11   9  11  206.62   59.43
   9  11 -11   53.50   71.10
  11   9 -11   89.50   63.66
  -9  11  11  224.99   65.94
  11   9 -11  186.31   45.72
  11   9 -10   24.02   11.89
  -9  11  10   21.18   29.11
 -11   9  10    6.33   13.09
   9  11 -10    0.59   23.80
  11   9 -10   59.36   47.17
  -9  11   9   26.43   20.50
 -11   9   9   22.47   19.33
   9  11  -9   24.64   46.49
  -9  11   8  236.35   61.93
 -11   9   8  169.91   45.50
   9  11  -8  117.80   65.51
  -9  11   7   43.10   21.52
   9  11  -7   40.72   24.67
 -11   9   7   77.67   33.06
  -9  11   6   84.37   34.24
 -11   9   6   65.42   27.44
  -9  11   5   42.82   25.84
 -11   9   5   50.69   26.33
  -9  11   4  190.57   45.87
 -11   9   4  184.33   43.00
  -9  11   3   15.13   14.39
 -11   9   3   22.20   19.14
  -9  11   2  185.20   39.85
 -11   9   2  226.56   44.73
  -9  11   1  358.23   57.85
 -11   9   1  354.65   55.32
  -9  11   0   94.28   29.79
 -11   9   0   83.94   27.38
  -9  11  -1  316.46   55.26
 -11   9  -1  311.18   50.81
 -11   9  -2  184.82   38.50
  -9  11  -2  187.17   41.46
  11  -9 -15   -4.26   13.15
  11  -9 -16   17.63   15.68
  10  11 -17   13.74   21.30
  11  10 -17   17.04   25.78
  10  11 -16  -20.78   32.29
  11  10 -16   -2.47   18.77
  11  10 -16    3.33   14.54
  11  10 -15   18.52   25.68
  10  11 -15   47.76   28.96
  10  11 -15   10.56   19.94
  11  10 -15   -3.77   16.52
  10  11 -14   13.80   26.83
  11  10 -14   20.16   27.75
  10  11 -14   95.89   38.93
  11  10 -14   36.43   29.73
  10  11 -13  139.60   60.14
  11  10 -13  116.57   54.64
  11  10 -13   65.14   29.42
  11  10 -12   -5.80   17.44
  11  10 -12    8.52   17.10
 -10  11  11   76.75   38.47
 -11  10  11  112.22   47.70
  11  10 -11   81.53   52.11
  10  11 -11   31.24   41.34
 -10  11  10   12.69   24.76
 -11  10  10   83.75   36.06
  10  11 -10   79.22  103.23
  10  11  -9   30.22   38.28
  11  10  -9   11.89   17.07
 -10  11   9   13.80   17.44
 -11  10   9   23.83   23.00
 -11  10   8  -19.51   18.46
  10  11  -8  -16.61   30.16
 -10  11   8   -4.72   10.37
 -10  11   7  111.85   41.71
  10  11  -7   70.42   46.49
 -11  10   7   94.68   35.29
 -11  10   6    9.14   11.27
 -10  11   6    2.28   20.87
 -10  11   5   -9.69   10.47
 -11  10   5  -13.92   18.40
 -11  10   4    1.30   12.75
 -10  11   4   -7.69   18.12
 -10  11   3  211.90   46.89
 -11  10   3  230.51   48.25
 -11  10   2  179.76   42.23
 -10  11   2  176.09   43.99
 -11  10   1  354.03   56.68
 -10  11   1  336.31   58.56
 -11  10   0  126.54   33.71
 -10  11   0  138.21   37.01
 -11  10  -1  331.18   53.56
 -10  11  -1  325.87   56.90
 -10  11  -2  153.27   40.38
 -11  10  -2  156.64   39.18
 -11  10  -3  176.89   40.32
  11 -10 -15   21.15   23.59
  11  11 -17   11.08   30.47
  11  11 -16    0.71   19.88
  11  11 -15   -0.12   14.48
  11  11 -14   63.72   44.24
  11  11 -13  -40.22   46.24
  11  11 -12  264.63   78.54
 -11  11  11   -3.18   19.02
  11  11 -11   -1.54   33.93
  11  11 -10   31.15   41.15
 -11  11  10   37.08   29.51
 -11  11   9   13.43   18.06
  11  11  -9   -7.35   19.76
 -11  11   8   17.23   23.15
  11  11  -8   16.79   30.22
 -11  11   7    1.05   13.00
 -11  11   6   -7.25   16.05
 -11  11   5    5.50   20.10
 -11  11   4   -3.30   12.01
 -11  11   3    5.71   16.15
 -11  11   2  292.84   56.62
 -11  11   1   -1.11   15.59
 -11  11   0  257.83   50.60
 -11  11  -1    5.22   11.30
 -11  11  -2  275.96   53.10
 -11  11  -3    6.42   13.31
   0  12   0 4988.97  237.15
   0  12  -1  413.12   92.00
   0  12   1   53.75   29.67
   0  12  -2 1525.15  134.60
   0  12   2 1627.03  135.83
   0  12  -3  329.18   56.96
   0  12   3  372.15   64.40
   0  12   4  333.65   67.11
   0  12  -4  317.05   52.79
   0  12   5  368.48   68.19
   0  12  -6  393.85   65.63
   0  12   6  406.48   73.66
   0  12   7   71.10   37.42
   0  12  -7   54.24   29.85
   0  12  -7   83.48   36.15
   0  12  -8   45.01   30.32
   0  12   8   89.87   39.64
   0  12  -8   61.19   31.12
   0  12  -9   78.35   43.99
   0  12  -9  153.43   46.46
 -12   0   9   91.75   35.75
   0  12   9  133.64   50.84
   0  12 -10  861.15  142.22
   0  12 -10  658.23   80.94
   0  12 -11   53.22   46.86
   0  12 -11  251.26   64.03
   0  12 -12  152.13   77.86
   0  12 -12  325.26   66.99
   0  12 -13    7.16   28.00
  12   0 -13   93.79   47.11
   0  12 -13   59.27   37.01
   0  12 -14   -3.49   18.80
   0  12 -14  -25.44   23.83
  12   0 -15  119.16   58.25
   0  12 -15   56.62   34.42
   0  12 -15   29.23   33.00
  12   0 -16  106.10   50.84
   0  12 -16   55.07   32.88
   0  12 -17   87.77   36.06
  12   0 -17   97.37   44.70
   0  12 -18    0.68   11.48
  12   0 -18   20.68   34.33
  12   0 -19   35.84   27.48
  12   1 -19    7.90   26.52
   1  12 -18   28.03   24.33
  12   1 -18   22.10   31.52
   1  12 -17   43.87   37.60
  12   1 -17  135.43   50.66
  12   1 -16   64.09   37.91
   1  12 -16  -25.56   11.30
  12   1 -15  109.59   55.17
   1  12 -15   57.45   34.76
   1  12 -15   47.51   30.01
   1  12 -14   -1.64   14.88
  12   1 -14    9.08   19.51
   1  12 -14    0.43   14.20
  12   1 -14   39.02   50.29
   1  12 -13   86.53   47.20
  12   1 -13  157.72   61.77
   1  12 -13   89.87   36.64
   1  12 -12   39.08   40.44
   1  12 -12  215.05   57.36
   1  12 -11  240.05   76.19
   1  12 -11  364.93   64.30
   1  12 -10  204.98   55.75
   1  12 -10   62.67   47.48
 -12   1   9  257.37   54.30
   1  12  -9  238.17   47.17
   1  12  -9  172.26   54.73
  -1  12   9  200.69   53.31
   1  12  -8  139.35   47.42
  -1  12   8  169.02   48.96
   1  12  -8  140.22   34.17
 -12   1   8  172.38   46.09
   1  12  -7  375.89   68.75
  -1  12   7  377.43   70.79
   1  12  -7  301.39   49.83
   1  12  -6   20.28   13.27
  -1  12   6   41.83   27.20
  -1  12   5 1024.79  109.16
   1  12  -5  995.19   99.03
   1  12  -4  150.77   48.10
  -1  12   4  219.22   51.34
   1  12  -3   32.57   12.75
  -1  12   3   43.50   15.13
  -1  12   2  528.57   76.44
   1  12  -2  482.39   82.43
  -1  12   1 1597.98  132.25
   1  12  -1 1690.78  142.16
   1  12   0  173.46   72.58
  -1  12   0  121.54   66.50
  -1  12  -1 1501.01  132.13
   1  12   1 1587.48  137.28
   1  12   2  466.58   74.40
  -1  12  -2  501.87   79.43
  -1  12  -3   50.54   23.49
   1  12   3   66.16   26.39
  -1  12  -4  141.85   38.80
   1  12   4  185.63   48.37
  -1  12  -4  181.55   47.39
  -1  12  -5  909.34   94.99
   1  12   5 1000.28  109.01
  -1  12  -6   61.53   26.89
   1  12   6   44.92   21.92
   1  12   7  368.26   71.93
  -1  12  -7  350.57   61.59
  -1  12  -8  146.88   45.44
   1  12   8  119.87   40.69
  -1  12  -8  139.78   38.80
  -1  12  -9  200.23   60.04
  -1  12  -9  213.26   49.92
   1  12   9  151.02   52.23
  -1  12 -10  290.81   91.75
  -1  12 -10  134.88   45.91
  -1  12 -11  238.76   70.85
  -1  12 -11  378.45   67.76
  -1  12 -12   23.71   36.67
  -1  12 -12  153.27   50.94
  -1  12 -13   50.75   41.24
  -1  12 -13  120.89   42.26
  -1  12 -14   -1.27   20.81
  12  -1 -15  116.04   47.23
  -1  12 -15   55.75   33.34
  12  -1 -16  150.53   62.08
  -1  12 -16   33.65   27.51
  12  -1 -17  119.38   53.13
  -1  12 -17   58.25   40.35
  12  -1 -18   36.09   41.74
  12  -1 -19  -12.66   20.75
  12   2 -19   -1.11   12.19
   2  12 -18    6.95   14.57
  12   2 -18   40.97   35.22
   2  12 -17   29.30   34.33
  12   2 -17   80.08   43.03
  12   2 -16  111.85   42.69
   2  12 -16   84.06   36.18
   2  12 -16  151.51   50.01
  12   2 -15   30.10   34.51
  12   2 -15   81.50   40.04
   2  12 -15   -3.67   18.52
   2  12 -15    7.90   25.10
  12   2 -14   21.95   34.95
   2  12 -14   -5.34   12.32
   2  12 -14   22.23   12.10
  12   2 -14  -40.75   41.37
   2  12 -13   10.31   29.98
   2  12 -13   65.17   32.48
  12   2 -12  376.44   93.45
   2  12 -12  334.18   70.02
   2  12 -12  456.89  112.12
   2  12 -11   14.51   29.79
   2  12 -11   59.67   34.73
 -12   2  10  182.85   50.84
   2  12 -10   62.30   53.10
   2  12 -10  137.01   35.96
 -12   2   9   17.94   23.40
   2  12  -9   20.56   17.72
  -2  12   9   34.27   32.79
   2  12  -8   12.07   14.23
 -12   2   8  -11.76   17.47
  -2  12   8   -9.01   21.76
   2  12  -8   19.54   16.95
   2  12  -7   -2.10   13.40
  -2  12   7   13.49   22.41
 -12   2   7   19.26   17.07
  -2  12   6  581.64   86.56
   2  12  -6  617.20   83.14
   2  12  -5   80.97   31.30
  -2  12   5   71.68   29.51
  -2  12   4  302.78   61.62
   2  12  -3   26.98   16.24
  -2  12   3   37.23   20.56
   2  12  -2  107.96   42.57
  -2  12   2   51.96   23.96
  -2  12   1  264.04   50.94
   2  12  -1  424.97   87.18
   2  12   0 1391.85  135.31
  -2  12   0 1288.99  117.62
  -2  12  -1  298.71   62.61
   2  12   1  306.64   59.55
   2  12   2   80.67   31.61
  -2  12  -2   71.07   33.16
   2  12   3   -3.64   23.34
  -2  12  -3   44.36   24.70
  -2  12  -4  257.80   50.57
  -2  12  -4  231.81   52.70
   2  12   4  317.88   65.45
  -2  12  -5   80.05   33.28
   2  12   5   63.35   27.97
  -2  12  -6  619.83   81.72
   2  12   6  516.38   80.02
   2  12   7    4.69   13.09
  -2  12  -7   -1.76   15.84
   2  12   8   26.06   26.39
  -2  12  -8   16.98   19.26
  -2  12  -9   43.07   30.99
  -2  12 -10   86.32   52.36
  -2  12 -11   14.88   25.16
  -2  12 -12  381.01  106.38
  -2  12 -13   33.68   34.08
  -2  12 -14   -4.69   15.10
  12  -2 -15   71.65   53.72
  -2  12 -15   16.82   12.01
  12  -2 -16  263.11   73.13
  -2  12 -16   83.29   33.09
  12  -2 -17   93.20   47.17
  -2  12 -17   30.81   29.05
  12  -2 -18   22.57   28.93
  12  -2 -19    4.75   13.43
   3  12 -18   16.05   22.41
  12   3 -18   41.43   28.68
   3  12 -17   46.43   35.19
   3  12 -17   54.86   28.40
  12   3 -17   66.47   37.23
   3  12 -16   48.25   32.11
  12   3 -16   52.36   35.19
   3  12 -16   58.69   34.70
  12   3 -16   43.13   28.43
  12   3 -15  127.07   51.55
   3  12 -15  100.11   44.45
   3  12 -15   84.59   28.03
  12   3 -15   90.48   57.05
  12   3 -14  -32.60   28.09
  12   3 -14    9.38   18.46
   3  12 -14  -13.74   22.50
   3  12 -14   -6.58   21.58
  12   3 -13  -10.65   20.93
   3  12 -13    9.05   19.17
   3  12 -13   36.71   27.97
  12   3 -13    9.79   19.36
  12   3 -12  109.41   61.50
   3  12 -12  157.50   61.00
   3  12 -11    8.12   26.24
   3  12 -11   78.54   32.63
   3  12 -10    0.77   20.84
   3  12 -10   30.99   40.16
 -12   3  10   22.04   25.19
 -12   3   9   16.39   21.12
   3  12  -9   28.43   24.05
  -3  12   9   -8.21   17.16
   3  12  -9   50.78   30.59
 -12   3   8   -5.83   13.74
   3  12  -8   18.68   24.85
  -3  12   8   14.29   16.18
   3  12  -7  157.29   45.69
 -12   3   7  181.34   40.10
  -3  12   7  147.29   42.79
   3  12  -6  152.04   49.05
 -12   3   6  137.96   35.87
  -3  12   6  133.61   40.72
  -3  12   5  622.70   85.67
   3  12  -4   60.08   26.49
  -3  12   4   53.10   25.56
   3  12  -3   31.36   14.63
  -3  12   3   37.20   22.32
   3  12  -2   48.37   28.68
  -3  12   2   68.90   27.54
   3  12  -1  189.70   63.84
  -3  12   1   87.70   31.43
   3  12   0  650.42   98.02
  -3  12   0  626.62   83.32
   3  12   1   86.04   38.28
   3 -12  -1   47.57   18.43
  -3  12  -1  127.81   44.05
   3  12   2   66.62   33.65
  -3  12  -2   86.78   36.71
  -3  12  -3   45.41   28.68
   3  12   3  -12.35   13.95
   3  12   4   66.09   26.39
  -3  12  -5  589.88   78.04
   3  12   5  557.38   87.36
  -3  12  -6  131.60   39.21
   3  12   6  125.74   41.83
  -3  12  -7  180.47   46.68
   3  12   7  135.83   39.21
  -3  12  -8   53.56   34.92
   3  12   8   42.73   37.23
  -3  12  -9   37.08   28.56
  -3  12 -10    4.85   11.24
  -3  12 -11   40.75   36.67
  -3  12 -12  481.65   97.40
  -3  12 -13    5.09   20.71
  -3  12 -14   -3.27   19.02
  12  -3 -15  219.89   65.88
  -3  12 -15   39.45   26.52
  12  -3 -16  317.57   90.95
  -3  12 -16   62.54   32.79
  12  -3 -17  164.64   58.13
  12  -3 -18   27.97   38.68
   4  12 -18   18.43   22.88
  12   4 -18  123.11   45.04
   4  12 -17   51.93   39.64
  12   4 -17   78.51   46.86
   4  12 -17   55.44   28.40
  12   4 -17   80.97   34.17
  12   4 -16   60.41   40.22
   4  12 -16   75.29   38.25
   4  12 -16   60.85   36.03
  12   4 -16   68.90   45.13
  12   4 -15   86.38   43.50
   4  12 -15   58.87   35.69
  12   4 -15   83.32   44.92
   4  12 -15   47.54   28.56
  12   4 -14  122.43   55.38
   4  12 -14   56.96   43.50
  12   4 -14  154.69   65.57
   4  12 -14   65.72   28.12
  12   4 -13  -30.75   31.15
   4  12 -13    6.33   18.68
  12   4 -13   34.95   50.01
   4  12 -13   -0.62   11.14
   4  12 -12   -0.59   17.69
   4  12 -12   27.48   22.57
   4  12 -11   68.01   42.23
   4  12 -11   49.36   24.97
   4  12 -10    4.26   27.14
  -4  12  10   12.04   14.76
   4  12 -10   13.37   12.84
 -12   4  10   25.44   15.74
   4  12  -9   25.16   26.39
  -4  12   9   20.71   19.94
 -12   4   9   16.92   17.57
 -12   4   8  170.38   44.36
   4  12  -8  203.50   57.36
  -4  12   8  157.66   49.49
  -4  12   7  287.04   63.78
   4  12  -7  256.57   57.76
 -12   4   7  301.46   53.59
   4  12  -6  593.50   87.70
  -4  12   6  432.87   73.75
 -12   4   6  450.07   63.56
 -12   4   5 1072.21   93.57
  -4  12   5 1087.31  112.31
   4  12  -5 1227.93  121.79
 -12   4   4  163.65   36.49
  -4  12   4  153.49   41.95
 -12   4   3  131.91   30.35
  -4  12   3  141.39   39.76
  -4  12   2   35.10   22.26
   4  12  -1  512.12   85.98
  -4  12   1  422.47   65.05
   4  12   0  158.09   54.95
  -4  12   0  137.22   43.34
   4  12   1  489.83   83.69
  -4  12  -1  358.84   61.87
   4  12   2   78.38   33.53
  -4  12  -2   65.51   29.48
   4  12   3  116.26   40.78
 -12   4  -3  112.09   29.02
  -4  12  -3  116.51   38.40
   4  12   4  141.98   41.86
  -4  12  -4  141.23   38.47
  -4  12  -5 1059.65  104.22
   4  12   5  963.79  114.25
  -4  12  -6  466.25   72.45
   4  12   6  455.44   80.57
   4  12   7  254.01   60.45
  -4  12  -7  222.15   50.26
  -4  12  -8  138.24   45.32
  -4  12  -9   18.55   20.28
  -4  12 -10  -15.96   17.91
  -4  12 -11   58.78   37.94
  -4  12 -12   -4.38   18.65
  -4  12 -13    0.09   18.58
  -4  12 -14   58.87   36.06
  -4  12 -15   40.22   26.95
  12  -4 -16  121.66   50.94
  12  -4 -17  127.81   51.52
  12  -4 -18   28.37   32.20
   5  12 -18   32.97   32.60
  12   5 -18   66.34   38.77
   5  12 -17    8.61   11.45
  12   5 -17    2.19   25.99
   5  12 -17   -0.77   11.55
  12   5 -17   29.94   25.56
  12   5 -16  219.03   72.70
   5  12 -16  190.57   60.14
   5  12 -16  131.20   39.58
  12   5 -16  197.42   55.51
   5  12 -15   80.94   40.60
  12   5 -15   59.49   45.04
   5  12 -15   18.74   19.94
  12   5 -15   35.84   32.45
  12   5 -14   38.62   30.04
   5  12 -14    3.86   21.76
   5  12 -14   21.98   15.19
  12   5 -13   -9.60   24.08
  12   5 -13   14.91   21.89
   5  12 -13   29.17   46.83
   5  12 -13   37.88   23.99
  12   5 -12  106.91   41.52
   5  12 -12   26.52   53.62
  12   5 -12  158.49   64.61
   5  12 -12   59.33   22.23
   5  12 -11   80.48   47.73
   5  12 -11   33.68   24.05
   5  12 -10   31.12   39.82
 -12   5  10   98.45   36.18
  -5  12  10   79.22   39.02
   5  12 -10   91.50   33.50
   5  12  -9   26.27   29.20
 -12   5   9   14.11   12.72
  -5  12   9   31.52   22.50
   5  12  -8   31.70   34.92
  -5  12   8   48.04   29.42
 -12   5   8   56.12   26.98
   5  12  -7  220.20   52.70
  -5  12   7  239.87   58.87
 -12   5   7  260.46   48.19
   5  12  -6  900.51  107.46
  -5  12   6 1034.02  111.88
 -12   5   6  981.33   93.35
  -5  12   5  137.68   42.23
 -12   5   5  109.87   29.51
   5  12  -5  113.27   32.54
   5  12  -4  948.42  103.14
  -5  12   4 1050.45  107.25
 -12   5   4 1065.11   94.03
  -5  12   3   18.37   19.05
 -12   5   3   53.01   22.57
  -5  12   2   17.10   12.10
 -12   5   2   22.63   16.89
  -5  12   1  133.36   40.97
 -12   5   1  135.55   37.88
 -12   5   0  340.72   50.57
  -5  12   0  358.72   57.17
 -12   5  -1  113.48   29.82
  -5  12  -1  142.44   38.71
 -12   5  -2   22.41   10.93
   5  12   2   33.34   20.75
  -5  12  -2    8.00   13.15
 -12   5  -3    0.80    9.17
  -5  12  -3    1.94   12.44
   5  12   3  -10.00   17.29
   5  12   4  957.62  121.54
  -5  12  -4  990.62  101.66
   5  12   5   80.33   25.19
  -5  12  -5  105.39   34.11
  -5  12  -6  872.97   97.92
  -5  12  -7  216.90   52.08
  -5  12  -8   37.26   30.41
  -5  12  -9   18.52   26.55
  -5  12 -10   45.60   41.03
  -5  12 -11   26.49   34.79
  -5  12 -12   32.60   35.22
  -5  12 -13    2.41   15.07
  -5  12 -14    6.51   12.04
  12  -5 -16  172.35   53.56
  12  -5 -17   21.15   15.96
  12  -5 -18   26.92   30.96
   6  12 -18    9.14   17.35
  12   6 -18   12.13   25.04
  12   6 -17  116.35   62.36
   6  12 -17   78.32   49.02
   6  12 -17   85.79   28.19
  12   6 -17  104.25   41.21
   6  12 -16  -27.75   25.31
  12   6 -16    5.71   17.75
   6  12 -16    1.61   18.37
  12   6 -16  -11.89   17.01
   6  12 -15   63.87   37.35
  12   6 -15  161.80   66.80
   6  12 -15  111.78   43.47
  12   6 -15   83.10   29.76
  12   6 -14   66.56   40.19
  12   6 -14   69.12   45.29
   6  12 -14   -6.05   21.92
   6  12 -14   62.36   30.50
  12   6 -13   64.74   36.06
   6  12 -13   36.80   43.56
  12   6 -13   61.53   38.19
   6  12 -13   15.16   15.03
  12   6 -12   21.98   22.04
  12   6 -12   61.37   40.63
   6  12 -12   51.46   25.04
   6  12 -12   28.68   42.23
  12   6 -11  238.26   60.82
   6  12 -11  131.70   68.07
  12   6 -11  353.13  105.76
   6  12 -11  187.57   45.47
   6  12 -10   11.08   29.48
 -12   6  10   67.18   27.23
  -6  12  10   80.57   37.82
 -12   6   9   74.28   31.09
  -6  12   9   69.52   33.93
   6  12  -8    8.03   23.34
 -12   6   8    3.09   21.18
  -6  12   8   10.19   11.73
   6  12  -7  359.93   72.45
 -12   6   7  334.98   57.36
  -6  12   7  334.67   68.72
 -12   6   6  107.83   36.83
  -6  12   6  100.39   35.22
   6  12  -6   71.50   34.21
  -6  12   5 1077.12  111.26
   6  12  -5 1049.31  121.32
 -12   6   5 1069.65   97.03
  -6  12   4   -3.18   16.36
 -12   6   4   -1.57   16.49
   6  12  -4    5.46   20.71
  -6  12   3  112.25   37.29
 -12   6   3  110.15   29.91
   6  12  -3   98.20   29.57
  -6  12   2   40.60   24.67
 -12   6   2   18.18    9.79
  -6  12   1  919.22   95.27
 -12   6   1  952.96   86.84
  -6  12   0  143.80   47.88
 -12   6   0  134.32   35.13
  -6  12  -1  855.34   93.76
 -12   6  -1  895.11   82.77
 -12   6  -2   12.38    8.00
  -6  12  -2   52.57   25.96
 -12   6  -3   74.71   25.22
  -6  12  -3   88.35   34.98
  -6  12  -6   64.03   27.14
  -6  12  -7  350.45   65.97
  -6  12  -8  -13.43   18.43
  -6  12  -9   43.56   31.21
  -6  12 -10   24.45   33.83
  -6  12 -11  116.23   48.07
  -6  12 -12   25.96   33.96
  12  -6 -16   38.84   29.70
  12  -6 -17  227.95   54.73
  12  -6 -18   20.19   15.37
   7  12 -18   10.03   15.25
   7  12 -17    8.21   26.30
  12   7 -17   -0.80   14.32
   7  12 -17    0.40   11.55
  12   7 -17   -6.54   17.35
  12   7 -16  187.33   64.12
   7  12 -16  202.27   51.37
  12   7 -16   68.32   36.95
   7  12 -16  112.59   45.63
   7  12 -15  -12.01   27.10
  12   7 -15   42.54   38.74
   7  12 -15  -12.78   24.39
  12   7 -15  -20.44   29.79
   7  12 -14   16.70   27.38
  12   7 -14    7.81   27.88
   7  12 -14   24.26   23.00
  12   7 -14    2.25   18.80
  12   7 -13   32.45   28.80
   7  12 -13   41.31   48.78
  12   7 -13   16.21   25.96
   7  12 -13   18.49   18.09
  12   7 -12  213.16   54.27
   7  12 -12  126.39   73.66
  12   7 -12  262.06   78.54
   7  12 -12  176.34   42.97
  12   7 -11   87.27   39.51
   7  12 -11   10.65   25.19
  12   7 -11   75.05   53.28
 -12   7  11   58.90   30.28
  12   7 -10  273.30   59.70
 -12   7  10  300.50   62.79
   7  12 -10  221.28   78.81
  -7  12  10  220.60   63.56
   7  12  -9   17.91   19.36
 -12   7   9   -0.46   16.33
  -7  12   9   20.44   23.59
  -7  12   8   30.65   19.91
   7  12  -8  -12.69   22.47
 -12   7   8   -7.38   15.84
  -7  12   7   -5.31   12.16
   7  12  -7   15.96   26.80
 -12   7   7   -0.56    9.35
   7  12  -6  764.03  108.17
 -12   7   6  729.14   85.02
  -7  12   6  725.47   99.31
   7  12  -5    4.51   15.84
 -12   7   5  -12.44   20.19
  -7  12   5   -5.19   13.64
  -7  12   4  408.39   69.68
 -12   7   4  431.52   62.73
   7  12  -4  413.52   71.90
 -12   7   3    9.91   10.96
  -7  12   3  -10.06   17.75
   7  12  -3   -4.51   12.13
 -12   7   2  153.24   36.64
  -7  12   2  200.91   46.46
 -12   7   1    2.59   10.96
  -7  12   1   28.25   22.66
  -7  12   0 1187.18  108.42
 -12   7   0 1219.59   99.16
 -12   7  -1   -3.77   15.71
  -7  12  -1   48.22   32.75
 -12   7  -2  138.89   34.79
  -7  12  -2  116.97   36.09
  -7  12  -3   10.99   13.77
  12  -7 -16  156.55   46.83
  12  -7 -17    9.82   14.32
  12   8 -17   26.73   42.63
   8  12 -17   43.31   49.55
  12   8 -17   37.57   27.66
  12   8 -16   52.14   46.18
   8  12 -16   24.54   20.44
   8  12 -15   60.94   47.14
  12   8 -15   92.37   55.41
   8  12 -15   14.97   20.19
  12   8 -15   33.40   25.50
   8  12 -14   79.31   46.28
  12   8 -14  -17.53   25.22
   8  12 -14    8.30   24.30
  12   8 -14   10.19   29.98
  12   8 -13   65.05   39.02
   8  12 -13   66.65   46.74
  12   8 -13   41.68   20.22
  12   8 -12  -14.05   15.10
   8  12 -12    2.56   16.05
  12   8 -12  -14.69   26.52
   8  12 -11  178.93   96.04
  12   8 -11  302.78  111.01
  -8  12  11  435.37   93.88
 -12   8  11  469.21   86.69
  12   8 -11  388.36   65.26
  12   8 -10   23.22   23.71
   8  12 -10   16.24   32.32
  12   8 -10   -2.62   23.55
 -12   8  10   18.28   20.44
  -8  12  10   10.37   13.21
  -8  12   9  104.07   40.81
  12   8  -9   86.13   34.73
 -12   8   9   80.33   28.74
   8  12  -9   50.69   45.16
  -8  12   8   79.03   34.58
 -12   8   8   75.17   29.82
   8  12  -8   18.65   30.62
   8  12  -7  243.08   67.18
 -12   8   7  204.46   47.79
  -8  12   7  210.42   56.96
   8  12  -6   69.68   38.28
  -8  12   6   67.45   33.62
 -12   8   6   95.95   32.91
   8  12  -5  368.04   71.68
  -8  12   5  390.58   70.39
 -12   8   5  394.96   61.80
  -8  12   4   -0.40   10.56
 -12   8   4  -16.18   18.83
  -8  12   3   14.42   19.23
 -12   8   3    1.82   11.48
  -8  12   2  -14.42   18.46
 -12   8   2  -13.98   13.86
  -8  12   1  924.19   95.02
 -12   8   1  927.30   89.00
  -8  12   0   29.33   26.39
 -12   8   0   -2.07    8.80
  -8  12  -1  814.69   90.17
 -12   8  -1  851.79   83.66
  -8  12  -2   90.21   37.82
 -12   8  -2   61.16   28.99
  -8  12  -3   24.42   24.14
  12  -8 -15    5.46   17.35
  12  -8 -16   31.09   24.23
  12  -8 -17   47.05   31.64
   9  12 -17   16.89   18.89
  12   9 -17   26.73   35.66
  12   9 -17   15.62   20.62
   9  12 -16   15.37   28.49
  12   9 -16   41.18   45.29
  12   9 -16   25.56   23.09
   9  12 -15   30.50   28.25
  12   9 -15    9.48   20.53
  12   9 -15   11.42   29.08
   9  12 -14  -32.85   30.47
  12   9 -14  -35.13   35.01
  12   9 -14   31.67   30.75
   9  12 -13   63.59   37.76
  12   9 -13    8.89   36.03
  12   9 -13   60.60   31.95
   9  12 -12  193.99   80.91
  12   9 -12  127.25   83.01
  12   9 -12  180.53   43.40
   9  12 -11   37.97   39.30
  12   9 -11   -5.34   24.73
 -12   9  11   31.24   31.49
  -9  12  11  -11.33   18.24
  12   9 -11  -23.86   14.94
   9  12 -10  241.66   74.58
  -9  12  10  265.06   67.79
 -12   9  10  265.58   64.34
  12   9 -10  201.80   80.11
  -9  12   9  -24.94   25.10
   9  12  -9   12.50   22.35
 -12   9   9   35.44   21.12
 -12   9   8    2.32   17.23
  -9  12   8   -3.95   18.28
   9  12  -8    3.89   28.12
 -12   9   7   82.46   32.88
   9  12  -7   93.69   43.93
  -9  12   7  109.41   40.72
  -9  12   6  155.16   51.49
 -12   9   6  195.14   48.22
   9  12  -6  176.46   61.65
  -9  12   5   12.60   11.45
 -12   9   5   19.97   12.04
  -9  12   4   38.96   21.64
 -12   9   4  -15.40   15.78
  -9  12   3   -8.30   20.56
 -12   9   3   -2.81   15.87
 -12   9   2  620.63   79.12
  -9  12   2  574.82   79.77
  -9  12   1   58.07   25.10
 -12   9   1   38.93   17.29
  -9  12   0  955.71   99.62
 -12   9   0  955.58   91.63
  -9  12  -1   58.69   32.63
 -12   9  -1   38.31   15.74
 -12   9  -2  567.26   70.57
  -9  12  -2  560.43   76.50
  -9  12  -3   34.58   24.45
 -12   9  -3   -2.50   10.25
  12  -9 -15   48.13   27.78
  12  -9 -16   34.24   23.31
  12  10 -17   -2.72   17.16
  10  12 -17  -12.29   15.44
  10  12 -16   39.05   30.07
  12  10 -16   12.10   23.68
  10  12 -15    4.88   28.31
  12  10 -15   29.02   35.38
  10  12 -14   -4.54   16.49
  12  10 -14   -8.71   18.71
  10  12 -13   93.38   44.49
  12  10 -13   86.84   45.35
  12  10 -12  104.59   61.19
  10  12 -12  140.96   59.30
 -12  10  11  122.50   43.31
  12  10 -11  132.04   84.12
  10  12 -11  161.70   73.01
 -10  12  11  108.85   49.05
 -10  12  10   31.55   24.05
  12  10 -10   52.39   53.68
 -12  10  10   32.07   19.73
  10  12 -10  108.57   61.46
 -10  12   9  120.52   45.50
  12  10  -9  205.76  135.86
 -12  10   9   72.55   33.16
  10  12  -9  130.65   58.53
 -10  12   8   82.09   41.92
 -12  10   8  125.46   40.81
  10  12  -8   -2.96   18.99
 -10  12   7   44.64   31.86
 -12  10   7   33.22   20.84
  10  12  -7   25.38   29.51
 -10  12   6  -28.99   19.54
  10  12  -6  -41.74   30.81
 -12  10   6   -5.06    9.38
 -10  12   5   63.93   32.91
 -12  10   5   56.09   33.00
 -10  12   4   23.52   17.63
 -12  10   4   24.14   21.55
 -12  10   3   43.68   26.21
 -10  12   3   13.61   14.60
 -10  12   2  121.26   37.85
 -12  10   2  136.45   36.61
 -10  12   1  467.97   71.65
 -12  10   1  509.50   71.28
 -10  12   0  213.60   49.02
 -12  10   0  183.71   46.37
 -10  12  -1  480.75   71.03
 -12  10  -1  485.48   65.82
 -10  12  -2  114.04   33.65
 -12  10  -2  134.38   35.41
 -10  12  -3   25.72   13.98
 -12  10  -3   39.27   21.64
  12 -10 -15   39.18   18.65
  12  11 -16  -14.36   15.84
  11  12 -16  -15.37   22.94
  12  11 -15   11.79   23.15
  11  12 -15   64.77   42.48
  11  12 -14    9.54   23.18
  12  11 -14    0.31   20.04
  11  12 -13   11.67   21.46
  12  11 -13    1.27   18.77
  11  12 -12   59.58   37.82
  12  11 -12   43.71   28.90
 -12  11  11  104.90   41.49
  11  12 -11  117.77   70.45
  12  11 -11   59.33   60.29
 -11  12  11  107.89   45.84
 -11  12  10   59.12   37.85
 -12  11  10   54.27   36.92
  12  11 -10   32.48   30.22
  11  12 -10    8.00   19.63
 -12  11   9   74.40   40.13
 -11  12   9   51.55   31.89
  11  12  -9   -5.00   28.12
  12  11  -9    6.82   33.31
 -11  12   8  -23.46   22.29
  12  11  -8  -12.44   32.29
 -12  11   8  -21.76   18.03
 -11  12   7  189.89   54.18
 -12  11   7  144.69   46.34
  11  12  -7  186.74   55.20
 -11  12   6  -12.47   19.70
 -12  11   6  -27.20   26.98
 -11  12   5  258.54   60.23
 -12  11   5  214.31   51.15
 -12  11   4   24.88   20.53
 -11  12   4  -18.12   21.61
 -11  12   3   30.25   23.37
 -12  11   3   -6.36    9.79
 -12  11   2   43.47   23.31
 -11  12   2   71.81   32.26
 -11  12   1  168.15   46.34
 -12  11   1  171.30   44.39
 -11  12   0  115.06   38.50
 -12  11   0   98.02   34.76
 -11  12  -1  191.31   51.22
 -12  11  -1  180.94   44.64
 -11  12  -2   39.92   19.14
 -12  11  -2   46.03   19.63
 -11  12  -3   20.34   19.63
 -12  11  -3   21.70   18.37
  12  12 -16   83.60   50.84
  12  12 -15    3.61   29.79
  12  12 -14   77.95   34.88
  12  12 -13   -2.38   17.01
  12  12 -12  111.91   46.52
  12  12 -11  -95.51   50.23
 -12  12  11  -21.61   31.36
 -12  12  10  123.39   46.83
  12  12 -10  101.63   48.68
 -12  12   9   -2.78   21.39
  12  12  -9  -15.74   26.21
 -12  12   8   37.32   31.30
  12  12  -8   28.68   22.26
 -12  12   7   -6.73   14.17
  12  12  -7    2.44   18.18
 -12  12   6  649.25   91.47
 -12  12   5   -3.52   11.14
 -12  12   4  137.75   46.21
 -12  12   3    2.28   20.53
 -12  12   2  658.36   86.28
 -12  12   1    9.51   13.09
 -12  12   0  221.62   50.97
 -12  12  -1   40.47   14.29
 -12  12  -2   34.67   22.57
 -12  12  -3  -14.29   14.91
   0  13   0  266.94   79.74
   0  13  -1 1627.18  138.73
   0  13   1 1642.83  138.67
   0  13  -2  265.92   62.02
   0  13   2  225.67   55.94
   0  13   3   20.07   22.32
   0  13  -3   -7.63   27.41
   0  13  -4  750.72   94.28
   0  13   4  777.83  100.95
   0  13   5 1158.90  120.49
   0  13  -6   99.22   36.30
   0  13   6   89.68   37.97
   0  13   7  461.21   81.72
   0  13  -7  488.72   75.33
   0  13  -8  162.38   50.84
   0  13   8  226.41   59.24
   0  13  -9   75.91   49.79
   0  13   9  235.24   60.29
   0  13  -9  198.10   48.78
 -13   0   9  222.12   50.10
 -13   0  10  191.62   55.17
   0  13 -10  103.17   51.68
   0  13 -10  255.74   59.70
   0  13 -11  394.47   90.30
   0  13 -11  520.08   77.12
   0  13 -12  101.63   64.43
   0  13 -12  242.46   63.66
   0  13 -13   13.89   34.54
  13   0 -13  152.60   67.27
   0  13 -14   35.44   26.70
  13   0 -15  208.75   69.12
   0  13 -15   86.38   41.61
  13   0 -16  171.37   67.82
   0  13 -16    5.31   15.68
  13   0 -17  218.75   63.38
   0  13 -17   54.83   35.87
   0  13 -18   11.05   18.24
  13   0 -18   48.10   35.41
   1  13 -18    8.92   17.50
  13   1 -18   10.96   25.62
   1  13 -17   29.30   26.30
  13   1 -17  149.11   56.12
  13   1 -16  278.39   75.11
   1  13 -16  130.46   42.26
  13   1 -15  107.62   52.70
   1  13 -15  -13.09   17.35
  13   1 -14   45.75   47.26
   1  13 -14   13.80   15.44
  13   1 -14   42.63   31.46
   1  13 -14   40.13   26.06
   1  13 -13   25.22   36.30
   1  13 -13   71.74   34.24
   1  13 -12   89.71   64.24
   1  13 -12  239.99   57.94
   1  13 -11  120.15   53.47
   1  13 -11  267.37   60.04
   1  13 -10  242.52   80.54
   1  13 -10  407.34   65.05
 -13   1  10  494.86   80.30
   1  13  -9   68.84   45.72
 -13   1   9  136.88   42.36
  -1  13   9   79.80   35.81
   1  13  -9  151.45   42.05
  -1  13   8   45.84   30.13
   1  13  -8   10.09   21.55
 -13   1   8    2.35   10.22
   1  13  -7   90.21   35.53
  -1  13   7  105.95   42.66
   1  13  -6 1124.94  114.75
  -1  13   6 1144.27  121.14
   1  13  -5  102.46   31.67
  -1  13   5  148.43   47.54
   1  13  -4  314.42   70.39
   1  13  -4  306.02   53.96
  -1  13   4  392.83   69.09
   1  13  -3  469.70   78.54
  -1  13   3  442.97   75.14
   1  13  -2  229.53   51.43
  -1  13   2  251.51   50.63
  -1  13   1  186.15   46.95
   1  13  -1  499.43   99.37
   1  13   0 2527.75  181.40
  -1  13   0 2621.72  173.71
  -1  13  -1  409.63   88.32
   1  13   1  216.34   53.75
   1  13   2  259.47   55.91
  -1  13  -2  279.54   53.25
   1  13   3  480.72   77.55
  -1  13  -3  493.04   78.17
  -1  13  -4  397.06   69.34
   1  13   4  368.88   69.49
   1  13   5  129.26   44.70
  -1  13  -6 1079.99  109.41
   1  13   6 1080.18  119.93
   1  13   7  116.23   43.68
  -1  13  -7   76.25   33.87
   1  13   8   55.26   33.25
  -1  13  -8   17.38   20.41
   1  13   9  164.48   51.46
  -1  13  -9   77.18   43.78
  -1  13 -10  249.65   77.76
  -1  13 -11  131.39   53.56
  -1  13 -12  122.31   63.66
  -1  13 -13   30.84   40.75
  -1  13 -14   72.49   37.60
  13  -1 -15  185.26   67.67
  -1  13 -15   44.58   31.55
  13  -1 -16  278.67   75.97
  -1  13 -16  202.70   54.61
  13  -1 -17   52.14   49.42
  -1  13 -17   24.20   28.09
  13  -1 -18   30.99   30.22
   2  13 -18   53.10   30.04
  13   2 -18   59.36   43.90
   2  13 -17   30.59   31.64
  13   2 -17  199.55   57.64
  13   2 -16   28.56   40.60
   2  13 -16  -29.54   12.07
  13   2 -15  238.32   72.36
  13   2 -15  244.56   67.21
   2  13 -15  147.53   49.33
   2  13 -15  137.01   45.94
  13   2 -14   52.97   42.39
   2  13 -14   10.84   18.89
  13   2 -14   10.96   24.82
   2  13 -14    7.66   27.07
   2  13 -13   13.40   17.13
  13   2 -13   25.16   28.86
   2  13 -13   25.19   25.38
   2  13 -12   25.41   41.46
   2  13 -12  151.39   48.56
   2  13 -11  153.52   61.00
   2  13 -11  190.81   46.58
 -13   2  10  173.16   52.64
  -2  13  10   91.25   37.51
   2  13 -10  169.70   47.29
   2  13 -10   46.71   38.87
 -13   2   9   41.09   19.51
   2  13  -9    8.40   17.32
  -2  13   9   47.51   31.67
   2  13  -9   50.54   24.08
   2  13  -8   37.82   24.42
 -13   2   8   79.65   30.19
  -2  13   8   77.95   39.61
 -13   2   7  443.03   66.65
   2  13  -7  477.08   77.73
  -2  13   7  449.24   78.20
   2  13  -6   53.56   33.53
  -2  13   6    6.92   17.16
  -2  13   5 1322.33  128.64
   2  13  -4  122.53   49.98
   2  13  -4   77.73   27.57
  -2  13   4    7.44   13.71
   2  13  -3   86.90   36.89
  -2  13   3  106.60   38.43
  -2  13   2  435.28   73.01
   2  13  -2  471.22   82.80
  -2  13   1  439.33   68.90
   2  13  -1  507.98   82.02
   2  13   0  184.61   53.07
  -2  13   0  167.66   50.47
   2  13   1  482.17   80.36
  -2  13  -1  506.04   75.88
   2  13   2  471.49   80.45
  -2  13  -2  468.75   76.25
   2  13   3   97.74   34.21
  -2  13  -3   74.99   32.29
  -2  13  -4   34.95   23.06
   2  13   4   48.50   26.09
  -2  13  -4   18.00   12.75
   2  13   5 1218.14  126.94
  -2  13  -6   20.65   19.42
   2  13   6   23.15   16.73
   2  13   7  410.43   74.80
  -2  13  -7  431.92   70.79
  -2  13  -8  102.62   39.85
   2  13   9   45.69   31.52
  -2  13  -9   40.81   34.79
  -2  13 -10   55.38   38.28
  -2  13 -11  209.27   61.96
  -2  13 -12   45.01   46.80
  -2  13 -13    1.82   17.01
  -2  13 -14   14.76   26.49
  13  -2 -15  346.25   85.61
  -2  13 -15  136.82   46.31
  13  -2 -16  114.65   55.78
  -2  13 -16    6.39   14.69
  13  -2 -17  131.57   61.40
  13  -2 -18   64.77   38.96
   3  13 -18    5.06   10.93
  13   3 -18   98.57   37.29
   3  13 -17    9.69   10.71
  13   3 -17   21.70   28.86
   3  13 -16  140.43   42.26
  13   3 -16  191.31   68.84
  13   3 -16  151.02   55.91
  13   3 -15    6.88   29.88
   3  13 -15   -4.63   23.40
   3  13 -15    7.72   20.04
  13   3 -14  131.51   55.57
   3  13 -14  132.50   46.28
  13   3 -14  192.17   73.41
   3  13 -14   92.52   38.68
  13   3 -13   20.93   16.67
   3  13 -13    8.09   13.00
  13   3 -13    2.13   35.72
   3  13 -13   34.24   23.59
   3  13 -12    1.42   15.37
  13   3 -12   47.70   32.91
   3  13 -12   67.79   36.52
   3  13 -11  145.99   59.03
   3  13 -11  142.38   38.31
   3  13 -10   31.67   37.45
  -3  13  10   29.70   22.17
   3  13 -10   24.88   23.15
 -13   3  10   60.04   27.48
   3  13  -9    8.03   18.58
  -3  13   9   15.62   14.94
 -13   3   9   30.16   23.43
 -13   3   8  115.09   34.17
   3  13  -8  173.56   47.70
  -3  13   8  175.78   49.98
   3  13  -7   -2.84   17.44
 -13   3   7    2.28   19.60
  -3  13   7   -8.58   20.96
 -13   3   6  635.70   76.19
   3  13  -6  663.33   89.12
  -3  13   6  718.18   98.39
   3  13  -5  188.34   48.00
  -3  13   5  172.01   46.71
  -3  13   4  922.92  103.91
  -3  13   3   -2.93   10.06
   3  13  -2   -6.05   21.33
  -3  13   2   12.32   17.26
   3  13  -1  543.92   89.96
  -3  13   1  484.61   73.32
   3  13   0  171.12   59.09
  -3  13   0  117.00   43.53
   3  13   1  545.37   89.22
  -3  13  -1  533.33   77.42
   3  13   2  -16.92   19.63
  -3  13  -2  -18.89   20.93
   3  13   3  -29.11   33.06
  -3  13  -3    0.86   14.54
   3  13   4  909.00  112.99
  -3  13  -4  851.73  105.98
   3  13   5  148.27   46.18
  -3  13  -5  185.72   44.61
   3  13   6  640.94   95.05
  -3  13  -6  607.82   82.21
  -3  13  -7   27.51   15.71
   3  13   7  -15.00   13.21
  -3  13  -8  125.27   42.05
   3  13   8  146.14   48.65
   3  13   9  135.09   78.69
  -3  13  -9   13.86   21.98
  -3  13 -10   16.15   26.86
  -3  13 -11  100.95   44.30
  -3  13 -12   -3.12   17.69
  -3  13 -13   10.77   23.18
  -3  13 -14  122.90   47.14
  13  -3 -15   29.64   31.80
  -3  13 -15    2.32   13.00
  13  -3 -16  288.61   74.65
  -3  13 -16  135.93   43.71
  13  -3 -17   19.36   36.49
  13  -3 -18   49.83   37.97
   4  13 -18   21.49   24.23
  13   4 -18   68.78   34.95
   4  13 -17   14.51   16.89
  13   4 -17  126.88   45.20
   4  13 -16   46.12   33.12
  13   4 -16   94.25   54.83
   4  13 -16   55.01   29.51
  13   4 -16  113.11   41.46
  13   4 -15  204.49   54.49
  13   4 -15  150.31   55.75
   4  13 -15  167.48   54.61
   4  13 -15  134.13   43.44
  13   4 -14   -3.49   26.27
   4  13 -14   23.65   29.67
   4  13 -14   58.78   39.64
  13   4 -13   28.86   27.17
   4  13 -13   14.51   30.04
  13   4 -13   13.40   31.15
   4  13 -13   58.10   27.94
  13   4 -12   81.07   46.52
   4  13 -12   36.92   39.02
   4  13 -12   84.31   34.02
   4  13 -11  -26.12   25.81
   4  13 -11   14.63   18.21
  -4  13  10  142.28   51.65
   4  13 -10  109.50   56.19
 -13   4  10  205.51   49.24
   4  13  -9   12.13   25.19
  -4  13   9   10.90   29.82
 -13   4   9   28.34   23.68
 -13   4   8   11.08   11.39
   4  13  -8   25.10   28.25
  -4  13   8    6.54   15.16
   4  13  -7  262.06   62.54
  -4  13   7  258.08   62.70
 -13   4   7  293.21   54.15
  -4  13   6  304.05   66.74
   4  13  -6  322.51   65.42
 -13   4   6  329.15   57.30
 -13   4   5  603.25   74.21
  -4  13   5  618.90   87.61
 -13   4   4  606.71   71.84
  -4  13   4  649.34   90.98
 -13   4   3  174.48   37.08
  -4  13   3  179.51   48.13
  -4  13   2   83.91   30.81
   4  13  -1  181.86   66.96
  -4  13   1   50.54   24.20
   4  13   0  758.81  107.80
  -4  13   0  747.97   91.04
   4  13   1  -13.12   22.81
  -4  13  -1   84.15   36.46
   4  13   2   81.04   34.58
  -4  13  -2   96.75   33.40
   4  13   3  150.74   46.49
 -13   4  -3  149.42   34.21
  -4  13  -3  185.04   49.39
 -13   4  -4  468.16   60.45
   4  13   4  528.42   90.88
   4  13   5  548.95   88.11
  -4  13  -5  608.13   79.18
  -4  13  -6  284.91   58.62
   4  13   6  263.92   61.53
  -4  13  -7  317.45   62.24
   4  13   7  269.75   66.71
  -4  13  -8   19.82   14.54
  -4  13  -9   21.05   23.68
  -4  13 -10   94.09   50.13
  -4  13 -11    7.66   18.37
  -4  13 -12   35.01   36.18
  -4  13 -13   51.77   43.13
  -4  13 -14   50.38   33.34
  13  -4 -16  113.91   49.64
  13  -4 -17   36.43   37.17
  13  -4 -18   15.28   19.88
   5  13 -18   19.29   21.24
  13   5 -18   29.02   21.49
  13   5 -17   83.23   51.22
   5  13 -17   28.40   27.66
  13   5 -17   88.48   37.32
  13   5 -16   84.43   51.31
  13   5 -16   55.91   23.06
   5  13 -15   50.35   33.34
  13   5 -15   83.04   38.50
   5  13 -15   76.59   32.20
  13   5 -15   77.58   38.34
  13   5 -14   59.52   41.83
   5  13 -14  149.45   62.27
   5  13 -14   72.58   29.54
  13   5 -13   28.77   22.84
   5  13 -13   12.16   24.57
  13   5 -13  -11.42   31.06
   5  13 -13    0.03   16.58
  13   5 -12  118.30   47.45
   5  13 -12   70.29   44.42
  13   5 -12  139.48   64.89
   5  13 -12   31.61   19.82
   5  13 -11  104.13   53.47
   5  13 -10   28.22   30.84
 -13   5  10   32.07   26.46
  -5  13  10   29.27   33.37
   5  13  -9   69.06   54.27
  -5  13   9  155.74   53.56
 -13   5   9  123.21   40.29
   5  13  -8  104.75   41.83
  -5  13   8  114.25   43.96
 -13   5   8  128.21   37.17
   5  13  -7  259.84   64.24
 -13   5   7  234.40   49.58
  -5  13   7  209.86   57.85
   5  13  -6  381.04   73.32
  -5  13   6  404.75   72.82
 -13   5   6  418.70   63.78
  -5  13   5  979.69  111.63
 -13   5   5  956.91   94.56
   5  13  -4  220.88   52.88
  -5  13   4  212.79   52.88
 -13   5   4  244.00   45.78
 -13   5   3   99.37   27.23
  -5  13   3  117.19   43.34
 -13   5   2  251.51   46.92
  -5  13   2  266.39   55.10
 -13   5   1  916.65   87.83
  -5  13   1  904.12  100.58
 -13   5   0  253.05   44.98
  -5  13   0  291.48   63.69
 -13   5  -1  899.98   85.98
  -5  13  -1  889.12   99.10
 -13   5  -2  269.32   45.41
  -5  13  -2  252.00   53.38
   5  13   2  228.23   61.06
 -13   5  -3   92.40   27.26
   5  13   3   28.43   15.22
  -5  13  -3   53.81   20.28
  -5  13  -4  222.30   49.46
   5  13   4  225.76   59.43
  -5  13  -5  870.38   99.59
  -5  13  -6  383.97   68.78
  -5  13  -7  249.72   56.40
  -5  13  -8   85.91   39.24
  -5  13  -9   78.32   48.71
  -5  13 -10   31.74   35.50
  -5  13 -11   85.33   39.51
  -5  13 -12   57.33   37.08
  -5  13 -13   10.50   26.06
  13  -5 -16  114.87   47.42
  13  -5 -17  139.14   47.73
  13  -5 -18  273.58   98.11
   6  13 -18   14.26   22.32
  13   6 -17   51.93   54.67
   6  13 -17    2.69   20.31
  13   6 -17   24.45   25.28
   6  13 -16  104.90   42.91
   6  13 -16  125.03   39.05
  13   6 -16  114.07   63.63
  13   6 -16  159.42   48.78
   6  13 -15   21.02   19.82
  13   6 -15   50.84   39.05
   6  13 -15   21.79   10.90
  13   6 -15   28.68   22.66
  13   6 -14  -45.10   31.40
   6  13 -14   -0.86   16.61
  13   6 -14  -53.25   40.93
   6  13 -14    3.43   12.13
  13   6 -13   52.79   44.24
   6  13 -13   13.49   16.67
  13   6 -13   96.94   45.81
  13   6 -12  242.43   60.38
   6  13 -12  152.56   71.47
  13   6 -12  344.89   99.47
  13   6 -11  158.92   50.41
   6  13 -11  133.36   56.15
 -13   6  11  165.99   55.04
   6  13 -10  186.58   58.81
 -13   6  10  175.13   47.76
  -6  13  10  219.96   63.44
   6  13  -9   58.72   39.18
 -13   6   9   58.50   29.51
  -6  13   9   34.61   28.37
   6  13  -8   23.40   24.45
 -13   6   8  -25.47   19.76
  -6  13   8   26.02   18.43
   6  13  -7  168.12   52.64
  -6  13   7   78.69   32.32
 -13   6   7   78.32   26.89
   6  13  -6  884.24  113.05
  -6  13   6  835.71  109.75
 -13   6   6  916.99   94.53
  -6  13   5  137.35   41.37
 -13   6   5  127.99   34.14
   6  13  -5  139.75   42.45
   6  13  -4  562.01   85.48
  -6  13   4  575.68   84.74
 -13   6   4  626.37   76.16
  -6  13   3  127.93   38.22
 -13   6   3  143.92   37.01
  -6  13   2   71.37   30.19
 -13   6   2   63.90   27.44
  -6  13   1  168.52   45.01
 -13   6   1  179.08   38.59
  -6  13   0 1704.82  136.64
 -13   6   0 1732.76  121.66
  -6  13  -1  216.16   58.84
 -13   6  -1  174.61   38.22
 -13   6  -2  124.13   39.30
  -6  13  -2   91.35   45.41
 -13   6  -3  123.02   32.69
  -6  13  -3  115.74   41.18
  -6  13  -4  556.26   83.14
  -6  13  -7   77.83   34.08
  -6  13  -8   -2.78   13.03
  -6  13  -9  159.48   59.21
  -6  13 -10  187.63   57.94
  -6  13 -11   85.36   52.79
  13  -6 -16  150.53   48.99
  13  -6 -17   -4.35   12.26
   7  13 -17    9.35   18.86
  13   7 -17   79.46   55.51
  13   7 -17   29.82   14.02
   7  13 -16   16.89   23.37
  13   7 -16   24.08   32.48
  13   7 -16   -1.61   17.91
   7  13 -15   12.10   21.73
  13   7 -15   19.91   23.40
  13   7 -15   45.78   24.23
   7  13 -14   38.19   23.40
  13   7 -14   70.76   58.84
  13   7 -14   52.08   36.43
  13   7 -13   97.98   38.34
   7  13 -13   82.33   48.34
  13   7 -13  169.11   68.26
  13   7 -12    3.43   14.14
   7  13 -12  -12.93   31.06
   7  13 -11  573.95  110.67
  13   7 -11  560.40  141.30
 -13   7  11  547.59   92.40
  -7  13  11  504.09   99.62
  13   7 -11  491.71   80.39
  13   7 -10  208.81   63.96
 -13   7  10   70.32   34.39
   7  13 -10  106.20   46.12
  -7  13  10   94.53   42.14
   7  13  -9   76.96   45.47
 -13   7   9   95.98   35.19
  -7  13   9   86.84   41.09
   7  13  -8   54.73   44.30
 -13   7   8   31.24   25.10
  -7  13   8    1.76   15.47
  -7  13   7   76.19   30.44
 -13   7   7   89.59   31.70
   7  13  -7   68.01   34.30
  -7  13   6   -8.12   12.38
   7  13  -6   -5.16   13.06
 -13   7   6   18.95   15.81
   7  13  -5  723.43  101.38
  -7  13   5  746.65  102.99
 -13   7   5  760.45   87.83
 -13   7   4   68.44   24.36
  -7  13   4   89.53   33.37
   7  13  -4   76.68   39.08
 -13   7   3   -3.03   11.24
  -7  13   3   29.61   15.03
  -7  13   2  132.25   38.74
 -13   7   2  184.45   42.73
  -7  13   1 1296.86  120.43
 -13   7   1 1348.79  112.93
  -7  13   0  125.00   46.99
 -13   7   0   97.18   34.02
  -7  13  -1 1268.00  118.45
 -13   7  -1 1300.97  106.75
 -13   7  -2  157.26   35.19
  -7  13  -2  136.64   37.94
  -7  13  -3  -11.92   18.46
 -13   7  -3    0.52   13.55
  13  -7 -16   -8.09   15.22
  13  -7 -17   64.46   36.64
  13   8 -17   25.44   39.14
   8  13 -17   -5.90   13.37
   8  13 -16   29.82   23.77
  13   8 -16   42.42   44.95
  13   8 -16    4.97   10.65
   8  13 -15  -25.56   33.43
  13   8 -15   43.93   37.42
  13   8 -15  -49.27   27.54
  13   8 -14   61.34   49.58
   8  13 -14    7.07   24.85
  13   8 -14   25.78   14.79
  13   8 -13   14.29   21.79
   8  13 -13   -8.58   22.44
  13   8 -13  -45.44   32.97
  13   8 -12  278.86   56.00
  13   8 -12  309.70  102.43
   8  13 -12  400.55   86.04
  13   8 -11  -53.19   28.12
 -13   8  11   -8.09   17.29
   8  13 -11  -50.75   40.47
  13   8 -11   14.05   28.77
  -8  13  11   11.24   24.26
   8  13 -10  623.53  112.03
 -13   8  10  640.05   93.76
  -8  13  10  544.47  103.20
  13   8 -10  557.50   80.97
   8  13  -9   34.11   38.74
 -13   8   9   71.07   37.94
  -8  13   9   -1.54   13.95
  -8  13   8   35.32   27.38
 -13   8   8   -5.53   12.84
   8  13  -8   -1.51   19.73
  -8  13   7    2.99   12.19
   8  13  -7    0.59   15.07
 -13   8   7   11.42    9.26
  -8  13   6  205.94   57.11
   8  13  -6  248.05   63.66
 -13   8   6  219.89   50.44
  -8  13   5   27.29   17.13
   8  13  -5   18.99   19.79
 -13   8   5   28.71   22.10
  -8  13   4  120.00   40.69
   8  13  -4  125.00   35.59
 -13   8   4  144.01   40.32
  -8  13   3   18.71   19.23
 -13   8   3   10.03    9.57
  -8  13   2  677.80   88.88
 -13   8   2  681.91   80.94
  -8  13   1   37.32   24.82
 -13   8   1    6.73   16.15
  -8  13   0 1498.66  128.02
 -13   8   0 1531.05  119.10
  -8  13  -1   79.77   44.02
 -13   8  -1   26.21   21.64
  -8  13  -2  647.61   85.14
 -13   8  -2  645.61   75.97
 -13   8  -3   -4.51   13.34
  -8  13  -3   -3.86   12.97
  -8  13  -4  111.51   38.62
  13  -8 -16   67.85   27.91
  13  -8 -17   -3.33   13.61
   9  13 -17   -3.18   20.34
  13   9 -17   -1.51   18.43
   9  13 -16    7.84   21.86
  13   9 -16   -3.24   23.59
  13   9 -16   13.61   17.01
   9  13 -15  -10.68   26.67
  13   9 -15   24.26   28.22
  13   9 -15   11.48   21.30
   9  13 -14    0.96   15.99
  13   9 -14   -1.27   14.48
   9  13 -13  156.73   56.19
  13   9 -13  139.72   60.14
  13   9 -13  102.92   29.48
   9  13 -12  -20.22   22.41
  13   9 -12  -11.82   29.88
  13   9 -12  -49.24   30.13
   9  13 -11  445.68   96.32
  13   9 -11  463.59  128.45
  -9  13  11  454.58   97.12
 -13   9  11  479.03   87.98
 -13   9  10    1.98   19.70
   9  13 -10  -25.22   31.12
  13   9 -10   14.14   29.45
  -9  13  10    2.19   14.79
   9  13  -9  375.67   88.85
  -9  13   9  310.22   79.03
 -13   9   9  318.03   68.50
  -9  13   8   59.21   40.81
   9  13  -8   29.94   25.93
 -13   9   8   41.80   25.22
  -9  13   7  110.18   42.20
   9  13  -7   93.38   33.06
 -13   9   7   61.03   31.40
  -9  13   6   24.54   15.59
   9  13  -6   31.52   27.48
 -13   9   6  -35.81   20.62
  -9  13   5   60.91   32.63
   9  13  -5   79.77   37.17
 -13   9   5   36.43   22.07
  -9  13   4   44.39   28.71
   9  13  -4   15.68   13.61
 -13   9   4    6.58   15.65
  -9  13   3  113.51   40.41
 -13   9   3   81.10   29.54
  -9  13   2  -13.06   22.23
 -13   9   2    9.26   10.68
  -9  13   1 1192.05  117.87
 -13   9   1 1207.80  107.34
  -9  13   0   41.80   33.71
 -13   9   0   14.11   22.29
  -9  13  -1 1157.82  113.05
 -13   9  -1 1152.26  105.08
  -9  13  -2  -20.50   21.21
 -13   9  -2   12.87   18.09
  -9  13  -3  112.37   40.93
 -13   9  -3   82.06   30.56
  -9  13  -4   14.45   18.55
  13  -9 -15   49.33   26.49
  13  -9 -16   33.50   21.05
  10  13 -16  -12.81   17.44
  13  10 -16   13.43   22.72
  10  13 -15   88.04   34.73
  13  10 -15   14.32   32.75
  10  13 -14   10.00   23.59
  13  10 -14   -5.40   31.33
  10  13 -13   26.55   20.34
  13  10 -13   61.40   42.23
  10  13 -12  209.58   64.95
  13  10 -12  252.37   74.03
 -13  10  11   56.59   35.56
  13  10 -11   54.24   36.58
 -10  13  11   84.59   45.84
  10  13 -11   54.30   27.41
 -13  10  10  256.60   65.82
  10  13 -10  220.85   71.22
  13  10 -10  149.26   79.99
 -10  13  10  227.09   66.50
 -10  13   9   11.58   18.62
 -13  10   9    5.90   12.53
  13  10  -9   36.43   44.98
  10  13  -9   43.62   34.11
 -10  13   8   21.39   22.29
 -13  10   8   16.18   15.03
  10  13  -8   49.36   28.40
 -10  13   7  -13.27   21.18
 -13  10   7    3.80   12.38
  10  13  -7   24.57   23.18
 -10  13   6   15.28   18.58
 -13  10   6   35.44   23.12
  10  13  -6   74.68   45.47
 -10  13   5  137.28   43.22
 -13  10   5  145.09   45.81
  10  13  -5  147.50   52.54
 -13  10   4   63.63   29.42
 -10  13   4   17.97   21.36
 -10  13   3    1.17   10.80
 -13  10   3   14.69   17.23
 -10  13   2  152.84   46.15
 -13  10   2  174.95   48.00
 -10  13   1   50.23   25.47
 -13  10   1   54.02   28.71
 -10  13   0  764.83   96.41
 -13  10   0  795.11   90.73
 -10  13  -1   78.69   35.81
 -13  10  -1   69.80   30.90
 -10  13  -2  194.30   50.81
 -13  10  -2  146.73   38.34
 -10  13  -3   29.88   19.17
 -13  10  -3   25.04   16.11
 -10  13  -4   39.61   24.11
  13 -10 -15   65.38   27.51
  11  13 -16   67.02   42.60
  13  11 -16   82.70   48.84
  13  11 -15   -0.49   18.71
  11  13 -15   44.67   29.48
  11  13 -14  102.49   44.21
  13  11 -14   91.44   41.86
  11  13 -13   19.63   35.35
  13  11 -13   11.21   28.90
  13  11 -12  139.48   59.70
  11  13 -12   73.10   50.60
 -13  11  11   96.35   41.89
  11  13 -11  141.45   54.33
  13  11 -11  147.53   59.80
 -11  13  11   71.84   43.34
 -13  11  10   61.34   30.75
  11  13 -10   69.61   39.67
  13  11 -10   17.10   37.35
 -11  13  10   48.68   29.64
 -11  13   9   25.84   27.29
 -13  11   9   39.30   26.24
  11  13  -9   82.39   41.89
  13  11  -9   37.66   30.07
 -11  13   8   56.37   34.79
 -13  11   8   54.15   33.46
  11  13  -8   91.87   44.02
  13  11  -8   28.71   40.47
 -13  11   7   -6.45   12.87
 -11  13   7   29.67   25.41
  11  13  -7   61.56   35.29
 -13  11   6  368.60   69.46
 -11  13   6  350.05   70.32
  11  13  -6  276.26   70.26
 -11  13   5    8.27   11.39
 -13  11   5   -2.47   11.70
  11  13  -5    3.24   18.77
 -11  13   4  176.46   48.28
 -13  11   4  191.93   51.86
 -13  11   3   73.63   42.14
 -11  13   3   24.20   24.42
 -11  13   2  712.26  101.94
 -13  11   2  542.03   81.96
 -11  13   1   57.42   32.32
 -13  11   1   82.02   32.01
 -11  13   0  196.06   50.57
 -13  11   0  177.26   44.49
 -11  13  -1   92.71   34.14
 -13  11  -1   41.27   18.89
 -11  13  -2   87.67   39.70
 -13  11  -2   32.11   25.19
 -11  13  -3   66.25   29.33
 -13  11  -3   61.22   27.60
  12  13 -15  173.65   67.58
  13  12 -15  149.76   68.41
  12  13 -14   19.02   29.11
  13  12 -14   38.93   38.43
  12  13 -13    6.24   15.40
  13  12 -13   22.01   20.34
  12  13 -12  -27.35   38.16
  13  12 -12   13.03   24.45
 -13  12  11   67.08   38.62
  12  13 -11  119.32   51.59
  13  12 -11  168.06   61.00
 -12  13  11  102.55   43.31
 -13  12  10    9.79   25.16
  12  13 -10  -23.80   32.79
  13  12 -10   56.71   25.10
 -12  13  10   17.35   24.57
 -12  13   9   -7.84   13.61
 -13  12   9   -0.06   13.12
  12  13  -9  -47.54   38.50
  13  12  -9   15.84   22.29
 -12  13   8   17.29   22.84
 -13  12   8   -3.77   12.78
  12  13  -8  -26.39   27.97
  13  12  -8   58.56   42.88
  13  12  -7  434.36   95.08
 -12  13   7  437.72   80.14
 -13  12   7  451.52   80.02
  12  13  -7  411.73   87.06
 -13  12   6    2.16   15.22
 -12  13   6   13.64   21.86
 -12  13   5 1094.72  123.48
 -13  12   5 1015.69  115.09
 -12  13   4   11.27   19.45
 -13  12   4   19.26   21.79
 -13  12   3    0.03   10.13
 -12  13   3   19.39   20.65
 -13  12   2   31.83   21.15
 -12  13   2   20.75   19.54
 -12  13   1   83.51   35.50
 -13  12   1   68.04   33.87
 -12  13   0   -7.25   14.20
 -13  12   0    4.60   20.22
 -12  13  -1  105.24   39.08
 -13  12  -1  102.09   35.29
 -12  13  -2   28.46   13.71
 -13  12  -2   17.10   17.32
 -12  13  -3   53.75   27.85
 -13  12  -3   36.46   21.08
  13  13 -15    5.22   19.97
  13  13 -14  114.56   54.15
  13  13 -13   33.83   30.16
  13  13 -12   26.73   22.10
  13  13 -11   10.43   29.67
 -13  13  11   41.68   25.38
 -13  13  10   41.74   32.69
  13  13 -10   62.58   36.46
 -13  13   9   28.56   18.80
  13  13  -9   47.66   43.71
 -13  13   8  210.36   61.65
  13  13  -8  105.98   53.84
 -13  13   7    1.48   13.09
  13  13  -7   68.50   38.50
  13  13  -6 1145.87  144.17
 -13  13   6 1254.17  135.09
 -13  13   5   13.92   22.38
 -13  13   4  736.58  101.13
 -13  13   3  -14.76   20.44
 -13  13   2   13.49   10.56
 -13  13   1  -16.24   21.89
 -13  13   0  106.84   36.71
 -13  13  -1   13.18   18.24
 -13  13  -2    6.05   18.24
 -13  13  -3    9.54   24.26
   0  14   0 2205.49  171.74
   0  14  -1  617.67  104.41
   0  14   1  238.73   57.73
   0  14  -2  132.28   43.90
   0  14   2   92.64   27.69
   0  14  -3  681.11   98.42
   0  14   3  708.98   98.29
   0  14  -4  520.18   81.35
   0  14   4  525.21   84.15
   0  14   5  258.76   63.07
   0  14  -6 1235.61  118.51
   0  14   6 1277.47  130.89
   0  14  -7  233.91   55.32
   0  14   7  244.62   59.52
   0  14   8   48.37   33.16
   0  14  -8   -3.80   15.34
   0  14  -9  151.55   53.13
   0  14   9  127.13   47.05
 -14   0   9  182.39   54.64
   0  14 -10  414.10   92.21
 -14   0  10  464.79   84.90
   0  14 -11  195.85   57.85
   0  14 -12  126.11   59.15
   0  14 -13  126.66   48.71
  14   0 -13  199.98   68.47
   0  14 -14   10.71   17.35
  14   0 -15  191.09   66.06
   0  14 -15   36.06   26.21
  14   0 -16  254.25   70.63
   0  14 -16  119.53   40.60
   0  14 -17   17.57   25.31
  14   0 -17  158.65   58.69
  14   0 -18   33.65   28.25
   1  14 -18   33.62   33.59
  14   1 -18   20.65   25.90
   1  14 -17   38.99   35.75
  14   1 -17  195.01   59.36
  14   1 -16  208.72   66.34
   1  14 -16   10.74   24.20
  14   1 -15  223.38   70.36
   1  14 -15  171.15   55.07
  14   1 -14   86.81   48.44
  14   1 -14   41.80   40.16
   1  14 -14   30.87   27.04
  14   1 -13   55.97   36.71
   1  14 -13   21.46   31.89
   1  14 -12  114.69   53.78
   1  14 -11  444.26   87.64
   1  14 -10   59.86   40.81
 -14   1  10  148.74   48.25
  -1  14  10   75.23   36.24
   1  14  -9  178.16   54.58
 -14   1   9  216.28   51.93
  -1  14   9  220.48   58.56
   1  14  -8   65.72   39.30
  -1  14   8   39.18   27.91
 -14   1   8   32.32   30.50
   1  14  -7  306.06   63.32
  -1  14   7  276.67   63.01
   1  14  -6  104.10   41.37
  -1  14   6   67.85   29.45
   1  14  -5 1050.82  107.40
  -1  14   5 1208.88  128.98
   1  14  -4  255.18   60.72
  -1  14   4  183.93   46.74
   1  14  -3   35.47   25.01
  -1  14   3   36.21   25.81
   1  14  -2  268.45   71.53
  -1  14   2  222.46   55.17
   1  14  -1 1182.79  127.59
  -1  14   1 1064.56  117.31
   1  14   0  221.75   76.04
  -1  14   0  166.80   66.00
   1  14   1 1145.99  123.64
  -1  14  -1 1123.12  118.92
  -1  14  -2  279.23   67.24
   1  14   2  223.81   61.03
  -1  14  -3   23.99   27.54
   1  14   3   49.64   40.50
  -1  14  -4  207.08   48.84
   1  14   4  220.42   56.03
   1  14   5 1158.00  126.26
  -1  14  -6  119.87   40.44
   1  14   6  128.49   50.91
  -1  14  -7  267.31   59.33
   1  14   7  264.01   61.83
  -1  14  -8   54.49   30.84
   1  14   8   84.62   35.78
  -1  14  -9  170.87   54.70
   1  14   9  243.11   62.82
  -1  14 -10   48.16   40.78
 -14  -1  10   78.07   47.14
  -1  14 -11  460.75   83.85
  -1  14 -12  121.01   53.38
  -1  14 -13  -17.84   14.42
  -1  14 -14   18.06   17.04
  14  -1 -15  209.31   58.13
  -1  14 -15  113.33   41.03
  14  -1 -16  169.73   62.51
  -1  14 -16    4.97   20.22
  14  -1 -17  167.44   65.82
  -1  14 -17   39.79   32.91
  14  -1 -18   26.70   35.78
   2  14 -18   26.64   27.38
  14   2 -18   -1.39   13.37
   2  14 -17    0.03   14.60
  14   2 -17   94.68   43.87
  14   2 -16  273.98   67.70
   2  14 -16  134.78   46.62
  14   2 -15   81.01   54.58
   2  14 -15   66.90   38.50
  14   2 -15  111.38   53.62
  14   2 -14  128.98   52.79
   2  14 -14  112.71   43.74
  14   2 -14  137.96   55.85
   2  14 -13   64.89   40.90
  14   2 -13   70.11   51.83
   2  14 -12   60.26   37.35
   2  14 -12   94.25   43.28
   2  14 -11  190.47   66.77
   2  14 -11  200.79   51.37
 -14   2  10  173.74   50.04
   2  14 -10  124.07   41.86
  -2  14  10  124.50   46.37
 -14   2   9  111.88   42.73
   2  14  -9   70.39   38.16
  -2  14   9   64.00   34.58
   2  14  -8   66.09   33.74
 -14   2   8   52.14   25.16
  -2  14   8   42.79   24.48
   2  14  -7   41.49   27.60
  -2  14   7  108.20   41.71
 -14   2   7   88.23   35.22
  -2  14   6  869.36  111.48
   2  14  -5   26.24   20.90
  -2  14   5   58.19   28.68
  -2  14   4  778.69  103.23
   2  14  -3  366.53   82.77
  -2  14   3  262.16   58.72
   2  14  -2   13.46   27.57
  -2  14   2  -20.44   19.51
   2  14  -1  467.45   86.22
  -2  14   1  381.32   70.73
   2  14   0  536.45   91.13
  -2  14   0  499.77   79.59
   2  14   1  408.21   75.70
  -2  14  -1  452.38   79.89
   2  14   2  -30.22   32.72
  -2  14  -2   -4.32   28.49
  -2  14  -3  267.84   72.76
   2  14   3  235.85   55.63
   2  14   4  709.66  101.69
  -2  14  -4  701.91   96.78
   2  14   5   12.75   17.50
  -2  14  -6  836.57   96.41
   2  14   6  799.19  107.86
  -2  14  -7   37.91   21.58
   2  14   7   57.20   34.05
  -2  14  -8   53.56   31.67
   2  14   8   39.55   25.41
  -2  14  -9   72.86   35.04
   2  14   9  137.96   50.88
  -2  14 -10  178.06   50.47
 -14  -2  10   87.77   33.46
  -2  14 -11  165.01   53.81
  -2  14 -12    0.77   16.52
  -2  14 -13   54.18   31.67
  -2  14 -14  112.31   42.60
  14  -2 -15   45.07   39.42
  -2  14 -15   41.06   32.88
  14  -2 -16  307.10   80.02
  -2  14 -16  156.27   44.82
  14  -2 -17   41.21   41.27
  14  -2 -18   61.74   42.36
   3  14 -18   16.98   19.39
   3  14 -17   44.21   34.27
  14   3 -17  181.09   53.07
   3  14 -16  -11.21   16.95
  14   3 -16  -14.57   26.89
  14   3 -16   37.38   29.64
  14   3 -15  220.70   65.45
  14   3 -15  380.11   93.32
   3  14 -15  191.80   56.86
  14   3 -14  -25.59   25.93
  14   3 -14    8.64   21.08
   3  14 -14   28.99   20.65
  14   3 -13    9.48   37.17
  14   3 -13   71.53   43.03
   3  14 -13   17.97   20.65
   3  14 -13   63.22   41.86
   3  14 -12   21.73   27.26
  14   3 -12   36.09   38.22
   3  14 -12   83.72   34.42
   3  14 -11   38.22   41.86
   3  14 -10  205.66   56.46
  -3  14  10  153.27   54.73
 -14   3  10  182.42   50.69
 -14   3   9   33.19   26.06
   3  14  -9    8.52   19.23
  -3  14   9    1.61   17.44
 -14   3   8   -7.47   13.95
   3  14  -8   37.23   36.12
  -3  14   8   -6.21   24.08
 -14   3   7  327.85   60.08
   3  14  -7  324.86   68.53
  -3  14   7  322.54   69.80
   3  14  -6  143.55   43.25
 -14   3   6  124.69   39.08
  -3  14   6  118.64   38.19
  -3  14   5  633.13   95.95
 -14   3   5  589.20   74.62
  -3  14   4   -1.73   21.33
  -3  14   3  353.07   69.40
   3  14  -2  171.61   52.64
  -3  14   2  115.43   39.45
   3  14  -1  112.56   53.53
  -3  14   1   -0.83   14.05
   3  14   0  355.11   74.99
  -3  14   0  334.06   65.51
   3  14   1  -43.03   28.68
  -3  14  -1   17.10   26.02
   3  14   2  104.90   44.55
  -3  14  -2  138.89   40.97
  -3  14  -3  288.86   63.47
   3  14   3  283.83   66.37
   3  14   4    5.19   18.71
  -3  14  -4    0.99   22.57
  -3  14  -5  522.34   78.26
   3  14   5  532.68   91.93
  -3  14  -6   98.17   38.47
   3  14   6   91.32   36.12
  -3  14  -7  339.49   65.01
   3  14   7  263.64   62.48
  -3  14  -8   21.52   24.02
   3  14   8   10.40   12.53
  -3  14  -9  -14.85   26.30
  -3  14 -10  209.52   57.64
  -3  14 -11    7.75   20.00
  -3  14 -12   63.47   46.86
  -3  14 -13   12.13   24.70
  -3  14 -14   35.81   31.61
  14  -3 -15  306.61   78.88
  -3  14 -15  142.72   45.47
  14  -3 -16   85.36   46.83
  14  -3 -17   74.09   51.18
  14  -3 -18   40.56   35.25
   4  14 -17   -4.60   10.65
  14   4 -17   43.03   32.38
  14   4 -16  127.13   64.37
   4  14 -16  100.39   37.05
  14   4 -16  167.75   50.75
  14   4 -15   -7.53   14.42
   4  14 -15   44.58   30.32
  14   4 -15   94.13   45.94
  14   4 -14  131.76   50.32
   4  14 -14  157.04   51.40
   4  14 -14   69.40   30.87
  14   4 -13   10.13   24.67
   4  14 -13   33.50   31.64
  14   4 -13   52.82   44.98
  14   4 -12   52.51   48.62
   4  14 -12   32.60   33.37
   4  14 -11  123.58   47.05
 -14   4  11  130.68   41.89
   4  14 -10  -35.38   33.16
  -4  14  10    4.69   15.53
 -14   4  10   11.55   19.29
   4  14  -9  206.43   61.09
  -4  14   9  164.76   53.84
 -14   4   9  166.55   47.05
 -14   4   8  149.94   42.17
   4  14  -8  155.00   52.85
  -4  14   8   93.32   39.11
 -14   4   7   41.21   25.65
   4  14  -7   37.14   23.96
  -4  14   7   13.58   19.51
   4  14  -6  564.88   89.19
  -4  14   6  552.81   91.96
 -14   4   6  490.45   73.97
 -14   4   5  440.41   64.89
  -4  14   5  468.90   80.88
 -14   4   4  608.44   76.62
  -4  14   4  688.58   96.26
 -14   4   3   17.50   21.55
  -4  14   3   -2.99   19.20
  -4  14   2  311.49   60.60
 -14   4   2  344.37   54.98
  -4  14   1  607.79   86.07
   4  14   0  131.26   54.15
  -4  14   0   78.01   36.89
   4  14   1  530.83   93.57
  -4  14  -1  593.16   87.55
 -14   4  -2  355.48   57.54
   4  14   2  336.43   75.97
  -4  14  -2  409.20   76.04
   4  14   3    6.54   27.04
 -14   4  -3  -43.16   27.85
  -4  14  -3  -19.11   20.19
 -14   4  -4  507.27   63.63
   4  14   4  601.46   95.48
  -4  14  -4  608.34   88.20
  -4  14  -5  382.86   65.97
   4  14   5  349.06   71.19
  -4  14  -6  455.53   73.97
   4  14   6  432.04   84.15
  -4  14  -7   29.57   23.68
   4  14   7  -11.27   28.96
  -4  14  -8   98.69   37.91
  -4  14  -9  189.18   51.71
  -4  14 -10   28.31   22.29
  -4  14 -11  103.48   42.73
  -4  14 -12   24.54   34.79
  -4  14 -13  -11.89   14.29
  -4  14 -14  145.56   48.75
  14  -4 -16  184.45   70.14
  14  -4 -17   52.33   40.01
  14   5 -17   23.46   30.44
   5  14 -17    0.99   17.78
  14   5 -17   61.90   34.14
   5  14 -16   81.68   33.40
  14   5 -16   90.02   57.61
  14   5 -16  105.64   37.63
   5  14 -15   76.10   35.25
  14   5 -15   56.68   32.54
  14   5 -15   81.90   40.22
  14   5 -14  -34.02   26.06
   5  14 -14   19.36   18.03
  14   5 -14   -7.22   39.21
  14   5 -13   71.59   25.84
   5  14 -13   92.34   46.34
  14   5 -13  113.98   62.70
  14   5 -12   68.50   37.35
   5  14 -12   96.32   45.38
  14   5 -12  185.91   78.91
   5  14 -11   53.81   31.03
 -14   5  11   56.43   27.26
   5  14 -10  204.92   57.54
  -5  14  10  202.54   62.14
 -14   5  10  226.90   55.57
   5  14  -9   65.32   23.46
  -5  14   9   42.85   28.96
 -14   5   9   79.00   29.30
   5  14  -8  -20.00   14.23
  -5  14   8   -9.29   20.47
 -14   5   8   21.46   18.18
 -14   5   7   93.60   30.84
   5  14  -7   83.57   38.34
  -5  14   7  112.86   42.97
   5  14  -6  476.74   82.06
  -5  14   6  476.06   84.68
 -14   5   6  516.66   72.86
   5  14  -5  403.27   69.15
  -5  14   5  420.40   78.47
 -14   5   5  418.67   64.67
  -5  14   4  660.15   93.05
 -14   5   4  681.94   84.15
 -14   5   3  314.88   54.49
  -5  14   3  303.83   65.54
 -14   5   2   87.61   26.49
  -5  14   2   71.10   28.80
 -14   5   1  167.69   40.22
  -5  14   1  148.27   44.02
 -14   5   0 1092.43   98.85
  -5  14   0 1065.30  112.74
  -5  14  -1  235.76   59.92
 -14   5  -1  139.81   32.57
 -14   5  -2   95.61   30.01
  -5  14  -2   53.13   25.10
  -5  14  -3  282.44   64.52
 -14   5  -3  275.55   54.39
  -5  14  -4  560.12   85.94
  -5  14  -5  403.21   70.48
  -5  14  -6  419.51   71.84
  -5  14  -7   57.76   27.88
  -5  14  -8   39.95   26.77
  -5  14  -9   65.23   32.11
  -5  14 -10  217.09   56.09
  -5  14 -11   72.18   34.85
  -5  14 -12   60.63   32.63
  14  -5 -16  126.02   48.34
  14  -5 -17   68.97   42.45
   6  14 -17   42.23   32.14
  14   6 -17   32.57   36.64
  14   6 -17   72.95   28.56
  14   6 -16    3.46   23.65
   6  14 -16   10.84   15.40
  14   6 -16   18.09   14.32
   6  14 -15   29.05   25.93
  14   6 -15   67.18   37.69
  14   6 -15  116.51   39.67
  14   6 -14   86.22   41.27
   6  14 -14   88.60   40.97
  14   6 -14   56.56   49.76
  14   6 -13   50.57   30.44
   6  14 -13   -0.77   22.78
  14   6 -12   11.33   20.00
   6  14 -12   65.79   36.40
  14   6 -12   12.29   24.14
   6  14 -11  357.24   82.73
 -14   6  11  334.58   70.08
  14   6 -11  347.14   72.76
   6  14 -10  150.00   54.33
 -14   6  10  136.20   44.73
  -6  14  10  125.83   47.48
   6  14  -9  179.89   58.90
 -14   6   9  110.21   39.55
  -6  14   9  182.23   54.52
   6  14  -8  141.67   49.73
  -6  14   8  158.24   51.77
 -14   6   8  152.81   44.27
   6  14  -7  -16.86   24.23
  -6  14   7    1.70   24.42
 -14   6   7   21.33   15.71
 -14   6   6  130.55   39.61
   6  14  -6  156.89   48.47
  -6  14   6  100.61   41.15
   6  14  -5  823.98  104.25
  -6  14   5  852.94  114.25
 -14   6   5  908.44   99.34
 -14   6   4  247.99   49.79
  -6  14   4  248.79   58.50
 -14   6   3   41.06   24.42
  -6  14   3   39.39   26.02
  -6  14   2  299.94   61.93
 -14   6   2  278.58   52.79
  -6  14   1 1140.47  119.63
 -14   6   1 1085.18  102.24
  -6  14   0  253.05   62.95
 -14   6   0  220.88   47.17
  -6  14  -1 1065.36  113.20
 -14   6  -1 1029.67   97.52
  -6  14  -2  277.87   58.90
 -14   6  -2  285.62   50.88
 -14   6  -3   36.92   21.15
  -6  14  -3   12.90   24.57
  -6  14  -4  202.42   49.33
 -14   6  -4  181.24   39.98
  14  -6 -16   66.25   31.86
  14  -6 -17   35.19   37.11
   7  14 -17   33.43   27.63
   7  14 -16   35.38   29.48
  14   7 -16   84.03   58.32
  14   7 -16   78.97   34.67
   7  14 -15   47.63   35.75
  14   7 -15   71.16   60.60
  14   7 -15    8.49   20.22
   7  14 -14    1.33   18.03
  14   7 -14  -12.63   31.43
  14   7 -14   35.87   27.10
  14   7 -13   -0.65   15.87
  14   7 -13   -8.46   23.28
   7  14 -13    0.12   20.59
  14   7 -12  241.75   59.06
   7  14 -12  252.28   71.13
  14   7 -12  429.20  104.31
  14   7 -11   16.64   21.73
 -14   7  11   60.04   35.29
   7  14 -11   22.29   20.07
  14   7 -11   28.19   44.36
  -7  14  11   15.31   18.15
   7  14 -10  476.62   93.42
  -7  14  10  474.09   98.57
 -14   7  10  454.92   77.83
  14   7 -10  524.78   84.62
   7  14  -9   43.59   32.35
 -14   7   9   21.73   10.99
  -7  14   9   48.65   25.22
   7  14  -8   58.38   34.61
 -14   7   8    8.18   19.23
  -7  14   8   52.60   38.40
   7  14  -7   27.38   19.88
 -14   7   7   27.41   17.60
  -7  14   7   27.32   24.97
   7  14  -6  238.02   60.72
 -14   7   6  278.98   56.68
  -7  14   6  252.71   62.33
   7  14  -5   59.21   32.07
 -14   7   5   75.91   31.77
  -7  14   5   64.83   33.12
  -7  14   4  265.86   65.45
 -14   7   4  264.35   55.23
  -7  14   3   15.03   13.18
 -14   7   3    0.34    8.95
  -7  14   2  299.08   61.83
 -14   7   2  353.75   58.32
 -14   7   1   70.51   23.31
  -7  14   1  103.76   38.37
  -7  14   0 1830.96  146.98
 -14   7   0 1943.73  137.13
 -14   7  -1  106.01   33.46
  -7  14  -1  197.20   61.09
  -7  14  -2  298.52   58.81
 -14   7  -2  341.90   57.54
  -7  14  -3    3.30   20.50
 -14   7  -3   20.84   16.61
  -7  14  -4  222.92   60.79
 -14   7  -4  225.82   45.87
  14  -7 -16   73.29   36.18
  14  -7 -17  315.78  103.33
   8  14 -17   44.82   36.46
   8  14 -16   -9.01   26.49
  14   8 -16    1.98   27.94
  14   8 -16    3.21    9.32
   8  14 -15   11.89   12.47
  14   8 -15   -9.48   20.65
  14   8 -15   10.80   17.50
  14   8 -14   75.26   47.91
   8  14 -14   42.54   32.88
  14   8 -14    2.75   11.48
   8  14 -13  162.26   58.90
  14   8 -13  186.43   67.39
  14   8 -13   91.84   35.41
   8  14 -12  -34.85   30.69
  14   8 -12  -49.02   46.52
  14   8 -12   22.26   23.86
   8  14 -11  544.23  105.70
  14   8 -11  317.69  136.08
  -8  14  11  543.92  107.49
 -14   8  11  549.97   93.97
  14   8 -11  482.27   77.52
 -14   8  10   23.80   24.64
   8  14 -10  -12.41   15.87
  -8  14  10    6.30   15.90
   8  14  -9  336.19   82.21
  -8  14   9  308.74   77.61
 -14   8   9  284.32   60.69
   8  14  -8   -4.23   14.94
 -14   8   8   39.24   30.13
  -8  14   8   19.17   26.15
   8  14  -7  -15.25   30.81
 -14   8   7    2.65   10.09
  -8  14   7    9.23   19.11
  -8  14   6   21.67   24.36
   8  14  -6   49.33   24.70
 -14   8   6   64.64   28.06
  -8  14   5  131.66   47.48
   8  14  -5  129.84   42.02
 -14   8   5  160.04   41.77
  -8  14   4   16.21   21.46
   8  14  -4   35.90   32.29
 -14   8   4   37.51   23.31
  -8  14   3   22.60   21.61
 -14   8   3   38.59   24.85
  -8  14   2   20.22   21.46
 -14   8   2   19.57   16.86
  -8  14   1 1301.18  127.50
 -14   8   1 1340.17  115.80
  -8  14   0  123.27   49.18
 -14   8   0   28.56   20.81
 -14   8  -1 1243.64  110.86
  -8  14  -1 1240.40  124.13
 -14   8  -2   25.59   13.52
  -8  14  -2    9.60   14.17
 -14   8  -3   43.74   20.41
 -14   8  -4   36.86   27.54
  -8  14  -4    3.83   25.93
  14  -8 -16    0.22   12.97
  14   9 -16    7.25   31.89
   9  14 -16   14.32   20.25
  14   9 -15    4.82   27.44
   9  14 -15   37.01   32.63
  14   9 -14   59.77   43.13
   9  14 -14   49.12   33.40
   9  14 -13  -17.53   23.46
  14   9 -13   34.51   40.07
   9  14 -12  255.64   71.37
  14   9 -12  398.48  101.01
 -14   9  11   -8.09   16.36
   9  14 -11   -6.33   20.34
  14   9 -11   20.10   31.18
  -9  14  11   -6.08   16.70
   9  14 -10  382.58   86.96
  -9  14  10  366.53   86.19
 -14   9  10  364.15   72.98
  14   9 -10  444.64  115.58
 -14   9   9  -23.55   21.24
   9  14  -9   44.21   28.93
  -9  14   9   -4.63   18.83
   9  14  -8   57.42   41.49
 -14   9   8   18.71   15.50
  -9  14   8   81.99   39.48
  -9  14   7    8.37   20.16
   9  14  -7   -3.83   20.96
 -14   9   7   -7.41   11.79
  -9  14   6    2.87   17.97
   9  14  -6   13.58   23.55
 -14   9   6   16.76   18.37
  -9  14   5   81.19   36.61
   9  14  -5   72.61   31.58
 -14   9   5   75.73   29.17
  -9  14   4   -3.18   18.65
   9  14  -4  -46.89   33.93
 -14   9   4   48.16   31.52
  -9  14   3    3.67   19.60
 -14   9   3   19.36   16.33
  -9  14   2  275.96   62.67
 -14   9   2  256.48   63.13
  -9  14   1  -22.91   17.60
 -14   9   1   -2.50   11.33
  -9  14   0 1001.46  112.37
 -14   9   0 1047.15  103.79
  -9  14  -1   59.67   31.92
 -14   9  -1    2.47   15.37
  -9  14  -2  340.38   67.05
 -14   9  -2  350.54   60.14
 -14   9  -3   20.90   12.10
  -9  14  -3   -8.58   16.61
  -9  14  -4   -4.60   18.99
  14  -9 -15  111.10   35.87
  14  -9 -16   47.45   22.07
  14  10 -16   44.92   39.21
  10  14 -16   42.17   31.89
  10  14 -15   13.40   14.08
  14  10 -15    3.83   19.85
  14  10 -14   24.82   31.70
  10  14 -14   -5.09   28.19
  10  14 -13   27.97   28.12
  14  10 -13   40.63   27.91
  10  14 -12   25.31   22.60
  14  10 -12   54.73   39.48
 -10  14  11  352.39   82.18
 -14  10  11  299.02   76.50
  10  14 -11  264.81   71.07
  14  10 -11  423.77   97.52
  10  14 -10   96.66   44.58
  14  10 -10   70.39   46.68
 -14  10  10   74.83   34.30
 -10  14  10   82.83   39.70
 -14  10   9  116.11   42.60
  10  14  -9  269.26   81.72
  14  10  -9  142.01   62.70
 -10  14   9  203.07   61.96
  10  14  -8   16.98   23.52
 -14  10   8  -21.02   26.06
 -10  14   8  -26.98   25.38
 -10  14   7   40.53   28.09
 -14  10   7   31.86   43.74
  10  14  -7   44.15   34.45
 -10  14   6   58.50   26.46
 -14  10   6   54.33   25.13
  10  14  -6   68.69   39.79
 -10  14   5   51.68   31.92
  10  14  -5   -3.83   20.04
 -14  10   5   50.47   28.65
 -10  14   4  114.62   42.69
  10  14  -4   86.13   36.89
 -14  10   4   94.13   33.71
 -10  14   3  109.72   51.43
 -14  10   3  108.82   45.01
 -10  14   2    9.01   17.20
 -14  10   2    9.57   20.65
 -10  14   1  233.79   72.24
 -14  10   1  316.74   62.42
 -10  14   0  107.80   34.73
 -14  10   0   92.95   38.50
 -10  14  -1  327.23   67.14
 -14  10  -1  338.53   59.21
 -10  14  -2    5.03   18.18
 -14  10  -2   -1.73   17.20
 -14  10  -3  162.51   41.86
 -10  14  -3  134.75   45.04
 -10  14  -4  101.01   44.64
  14 -10 -15    2.59   11.08
  11  14 -15   52.05   36.27
  14  11 -15   48.41   47.14
  11  14 -14   26.39   23.40
  14  11 -14    2.32   24.20
  11  14 -13   30.41   34.70
  14  11 -13   42.26   35.81
  11  14 -12   45.57   35.81
  14  11 -12   98.48   52.26
 -14  11  11   57.82   29.51
  14  11 -11   86.72   45.38
  11  14 -11   56.77   41.49
 -11  14  11  121.79   51.22
 -14  11  10  165.31   54.02
  11  14 -10  144.32   54.46
  14  11 -10  159.97   55.54
 -11  14  10  131.11   54.64
 -14  11   9   22.75   23.68
  11  14  -9  -12.72   19.94
  14  11  -9   51.83   40.53
 -11  14   9   24.76   30.04
 -11  14   8   -2.65   20.13
 -14  11   8   17.63   15.00
  11  14  -8  -13.21   33.46
 -11  14   7   35.19   26.21
 -14  11   7   49.83   25.81
  11  14  -7   75.82   45.75
 -11  14   6   51.28   28.83
 -14  11   6   20.13   19.29
  11  14  -6  -25.84   23.46
  11  14  -5  406.91   81.90
 -14  11   5  476.99   76.75
 -11  14   5  476.99   83.04
 -11  14   4   91.50   41.34
 -14  11   4   80.73   29.14
  11  14  -4  -10.71   19.05
 -11  14   3   45.78   34.08
 -14  11   3   38.90   29.02
 -11  14   2    9.11   22.29
 -14  11   2   12.50   19.57
 -11  14   1   91.93   45.78
 -14  11   1   98.17   39.27
 -11  14   0  139.72   46.74
 -14  11   0  113.14   35.50
 -11  14  -1  138.83   42.32
 -14  11  -1   95.82   34.82
 -11  14  -2   14.17   11.45
 -14  11  -2    0.56   14.91
 -14  11  -3   60.20   26.89
 -11  14  -3   56.90   31.30
  12  14 -15   -4.23   18.12
  14  12 -15   16.79   21.24
  12  14 -14   89.46   30.28
  14  12 -14   56.59   47.29
  12  14 -13   32.32   27.69
  14  12 -13  -46.68   39.42
  12  14 -12   45.20   40.19
  14  12 -12   39.05   36.89
 -14  12  11   16.79   27.04
  12  14 -11   26.27   28.12
  14  12 -11   78.91   35.16
 -12  14  11   43.81   29.45
 -14  12  10   72.73   38.40
  12  14 -10   18.12   25.04
  14  12 -10   29.48   36.95
 -12  14  10   51.52   33.56
 -14  12   9   42.69   24.85
  12  14  -9   58.96   39.89
  14  12  -9   51.46   28.49
 -12  14   9   46.49   30.10
 -12  14   8   75.60   36.37
 -14  12   8   33.77   24.17
  12  14  -8   91.93   51.55
  14  12  -8   72.02   45.66
 -12  14   7  -13.34   21.02
 -14  12   7   13.03   19.14
  12  14  -7  -15.50   24.45
  14  12  -7   10.84   22.57
  12  14  -6  727.78  115.06
 -12  14   6  806.14  110.98
 -14  12   6  818.17  106.60
 -12  14   5   -0.59   21.42
 -14  12   5   -5.16   12.90
  12  14  -5   25.38   29.27
 -14  12   4  620.85   91.01
  12  14  -4  530.18   95.92
 -12  14   4  573.43   92.49
 -12  14   3  -19.97   17.69
 -14  12   3  -17.78   25.90
 -12  14   2  -13.27   20.81
 -14  12   2   -9.60   14.08
 -12  14   1  -19.14   25.44
 -14  12   1    6.21   24.85
 -12  14   0  206.74   55.69
 -14  12   0  212.52   49.12
 -12  14  -1   14.29   19.73
 -14  12  -1   31.49   20.19
 -12  14  -2   10.13   16.49
 -14  12  -2   18.55   21.86
 -12  14  -3   43.53   27.07
 -14  12  -3   20.81   22.91
  13  14 -14   20.65   26.55
  14  13 -14  -30.72   28.40
  13  14 -13  -14.97   26.58
  14  13 -13  -21.55   23.49
  13  14 -12   14.63   23.74
  14  13 -12  -20.53   21.67
  14  13 -11   92.89   40.63
  13  14 -11   65.14   39.70
 -13  14  11  126.54   52.26
 -14  13  11   37.82   22.88
 -14  13  10   -9.63   18.03
  13  14 -10  -17.41   28.74
  14  13 -10  -18.28   21.27
 -13  14  10   15.53   17.75
 -14  13   9    1.85   23.09
  13  14  -9   14.51   18.52
  14  13  -9   22.91   33.68
 -13  14   9   -7.16   16.92
 -13  14   8   50.01   29.17
 -14  13   8  -10.37   17.72
  13  14  -8    7.10   19.73
  14  13  -8   -7.47   26.92
  14  13  -7  444.91   95.48
 -13  14   7  508.82   89.46
  13  14  -7  494.37   97.77
 -14  13   7  572.94   93.97
 -13  14   6    9.85   12.78
 -14  13   6   13.89   25.25
  13  14  -6   -8.21   16.42
  14  13  -6  -33.77   30.81
  13  14  -5  837.31  122.28
 -13  14   5 1077.92  128.52
 -14  13   5 1065.36  122.74
 -13  14   4  -18.71   23.25
 -14  13   4   11.64   11.02
  13  14  -4   -4.48   22.17
 -13  14   3  129.44   45.72
 -14  13   3  173.19   54.15
 -13  14   2   17.97   25.41
 -14  13   2    9.23   18.86
 -13  14   1   89.99   37.94
 -14  13   1   63.13   30.53
 -13  14   0   27.01   19.45
 -14  13   0   13.80   18.24
 -13  14  -1   63.56   31.70
 -14  13  -1   48.53   24.57
 -13  14  -2   86.35   48.28
 -14  13  -2   74.68   43.56
 -13  14  -3  194.83   53.72
 -14  13  -3  178.37   49.36
  14  14 -14   71.99   41.55
  14  14 -13   24.14   27.94
  14  14 -12    8.27   23.03
  14  14 -11   -2.53   17.04
 -14  14  11   12.66   31.15
  14  14 -10   27.17   39.45
 -14  14  10   29.14   28.74
 -14  14   9    8.43   20.56
  14  14  -9   -7.01   20.34
 -14  14   8  196.03   55.51
  14  14  -8  180.44   62.48
 -14  14   7  -11.30   18.24
  14  14  -7  -12.50   19.05
  14  14  -6  782.36  119.22
 -14  14   6  984.14  124.41
 -14  14   5   16.27   21.86
  14  14  -5  -47.91   31.24
  14  14  -4  496.62   92.03
 -14  14   4  676.08  100.86
 -14  14   3  -49.79   28.25
 -14  14   2    7.81   16.95
 -14  14   1    1.36   21.30
 -14  14   0   16.52   17.35
 -14  14  -1    0.00   13.09
 -14  14  -2   22.84   12.66
 -14  14  -3   -5.90   11.18
   0  15   0  169.48   68.78
   0  15  -1  947.59  119.38
   0  15   1  970.49  118.33
   0  15  -2  344.00   76.68
   0  15   2  262.93   64.46
   0  15  -3   50.07   34.08
   0  15   3   34.02   29.85
   0  15  -4  123.89   36.83
   0  15   4  119.87   40.90
   0  15   5  320.23   71.50
   0  15  -5  319.64   67.21
   0  15  -6  279.81   61.12
   0  15   6  240.27   63.53
   0  15  -7  178.53   49.12
   0  15   7  116.85   41.27
   0  15  -8   70.05   26.58
   0  15   8   18.34   20.53
 -15   0   9  369.37   71.59
   0  15  -9  342.58   72.76
   0  15   9  268.89   70.69
   0  15 -10   23.03   22.23
   0  15  10   91.78   45.29
 -15   0  10   28.22   32.94
   0  15 -11  362.95   74.31
   0  15 -12   75.82   38.13
   0  15 -13   51.68   30.44
  15   0 -13   88.14   45.50
   0  15 -14   46.43   35.32
  15   0 -15  212.11   69.86
   0  15 -15   69.34   33.65
  15   0 -16  184.45   66.13
   0  15 -16   20.53   20.56
   0  15 -17   37.54   30.50
  15   0 -17   96.26   46.46
   1  15 -17   17.23   24.51
  15   1 -17   62.02   32.41
  15   1 -16  154.88   56.68
   1  15 -16   86.78   32.97
  15   1 -15  148.86   60.66
   1  15 -15   17.41   22.10
   1  15 -14   54.67   36.21
  15   1 -14   29.61   30.75
   1  15 -13  128.89   45.94
  15   1 -13   95.14   50.57
   1  15 -12  182.36   56.74
   1  15 -11   98.45   46.68
   1  15 -10  318.90   71.50
  -1  15  10  276.48   72.49
 -15   1  10  331.46   77.21
   1  15  -9   39.21   28.40
 -15   1   9   44.58   12.32
  -1  15   9   79.68   42.66
   1  15  -8  -18.55   27.35
  -1  15   8   18.92   27.60
 -15   1   8  -19.70   18.80
   1  15  -7  129.47   42.60
  -1  15   7   76.68   31.18
  -1  15   6  485.29   86.84
   1  15  -6  473.59   77.42
  -1  15   5  244.44   64.03
   1  15  -4  301.30   64.61
  -1  15   4  291.67   64.52
   1  15  -3  194.06   54.89
  -1  15   3  233.69   57.57
   1  15  -2   97.43   44.82
  -1  15   2   28.43   20.00
   1  15  -1  287.29   71.50
  -1  15   1  121.85   41.86
   1  15   0  888.22  118.45
  -1  15   0  884.18  109.04
  -1  15  -1  240.21   69.80
   1  15   1  196.71   56.56
   1  15   2  102.28   43.99
  -1  15  -2   73.20   22.78
  -1  15  -3  250.24   60.01
   1  15   3  248.70   56.68
  -1  15  -4  337.73   79.68
   1  15   4  285.90   65.48
   1  15   5  223.23   56.77
  -1  15  -6  469.39   76.28
   1  15   6  451.92   82.95
  -1  15  -7   98.97   38.80
   1  15   7  174.17   55.14
  -1  15  -8   33.90   26.61
   1  15   8  -18.31   20.59
  -1  15  -9   47.97   32.41
   1  15   9   68.38   43.40
 -15  -1   9   85.17   46.03
  -1  15 -10  339.46   70.82
 -15  -1  10  288.43   71.16
  -1  15 -11   97.55   39.73
  -1  15 -12  132.16   52.33
  -1  15 -13   71.44   33.46
  -1  15 -14   70.36   34.30
  15  -1 -15  174.27   66.50
  -1  15 -15  160.87   46.74
  15  -1 -16  202.05   63.38
  -1  15 -16  128.67   41.58
  15  -1 -17   64.49   44.18
   2  15 -17   13.40   15.47
  15   2 -17   87.24   49.95
  15   2 -16   65.01   41.27
   2  15 -16    9.82   21.15
  15   2 -15  160.10   58.50
  15   2 -15   54.46   39.95
   2  15 -15   72.52   34.51
  15   2 -14    9.97   22.66
   2  15 -14   -4.38   14.66
  15   2 -14  -38.06   39.55
   2  15 -13  -26.49   29.57
  15   2 -13   -9.35   25.81
   2  15 -12   79.22   41.34
   2  15 -11  195.63   55.23
 -15   2  10   82.89   40.38
   2  15 -10   -2.87   16.08
  -2  15  10   36.52   32.14
 -15   2   9  123.42   39.67
   2  15  -9  138.27   40.93
  -2  15   9  118.76   49.64
   2  15  -8   25.44   14.42
 -15   2   8   21.12   18.03
  -2  15   8   27.23   29.45
   2  15  -7   87.74   35.41
  -2  15   7   74.74   33.34
 -15   2   7   96.94   36.34
   2  15  -6  -18.68   14.11
 -15   2   6   -0.15   15.93
  -2  15   5  506.59   87.80
  -2  15   4   48.59   31.36
   2  15  -3   44.30   27.69
  -2  15   3   38.16   22.57
   2  15  -2   40.35   26.36
  -2  15   2   72.42   35.10
   2  15  -1  126.17   43.56
  -2  15   1   91.78   49.02
   2  15   0  153.21   63.75
  -2  15   0  118.51   41.03
   2  15   1  102.52   39.11
  -2  15  -1   87.80   39.27
   2  15   2   91.13   42.08
  -2  15  -2   94.71   38.19
   2  15   3   69.80   28.00
  -2  15  -3   31.55   24.88
  -2  15  -4   52.60   25.19
   2  15   4   77.36   36.40
  -2  15  -5  409.04   79.15
   2  15   5  416.42   84.52
  -2  15  -6   19.54   19.54
   2  15   6   22.63   28.62
  -2  15  -7   67.14   32.11
   2  15   7   59.27   34.48
  -2  15  -8  -23.37   18.15
   2  15   8   49.33   30.38
  -2  15  -9  145.00   50.32
   2  15   9   98.48   48.62
  -2  15 -10   48.34   30.01
 -15  -2  10   59.27   53.96
  -2  15 -11  185.84   53.65
  -2  15 -12   50.04   34.85
  -2  15 -13    2.99   18.28
  -2  15 -14   -9.26   17.04
  15  -2 -15  252.43   75.94
  -2  15 -15  118.42   40.13
  15  -2 -16  102.21   56.86
  15  -2 -17   37.94   41.06
   3  15 -17  -18.09   25.99
  15   3 -17   41.34   34.11
   3  15 -16   86.81   37.14
  15   3 -16   84.65   37.76
  15   3 -15   50.91   31.12
   3  15 -15   -8.61   14.51
  15   3 -15    9.94   29.39
  15   3 -14   71.47   41.83
   3  15 -14   70.82   38.00
  15   3 -14  156.86   63.38
  15   3 -13   17.97   27.01
   3  15 -13  -15.47   27.17
  15   3 -13  -29.51   40.97
   3  15 -12   38.09   29.54
   3  15 -11   77.42   31.98
 -15   3  11  497.42  122.53
   3  15 -10  118.17   44.98
  -3  15  10   17.26   28.09
 -15   3  10   59.74   30.10
 -15   3   9  109.25   38.37
  -3  15   9  119.84   43.50
   3  15  -9   91.75   37.79
 -15   3   8   27.94   25.31
   3  15  -8    3.98   17.84
  -3  15   8   11.42   16.98
   3  15  -7  -18.71   21.42
 -15   3   7  -11.61   11.67
  -3  15   7  -38.25   34.54
 -15   3   6  268.95   57.67
   3  15  -6  315.75   63.72
  -3  15   6  315.63   71.84
  -3  15   5   -3.64   21.39
 -15   3   5   20.37   18.71
  -3  15   4  229.99   58.38
 -15   3   4  259.38   50.32
  -3  15   3   89.68   37.82
   3  15  -2  204.89   61.80
  -3  15   2  118.11   39.55
   3  15  -1  165.72   50.20
  -3  15   1  202.54   58.90
   3  15   0  187.82   63.81
  -3  15   0   63.07   32.04
   3  15   1   74.40   34.33
  -3  15  -1  153.86   49.08
   3  15   2   82.36   35.10
  -3  15  -2  122.03   44.08
   3  15   3   52.73   31.33
  -3  15  -3   31.18   15.28
 -15   3  -4  230.27   47.26
   3  15   4  211.19   62.17
  -3  15  -4  260.61   60.35
  -3  15  -5   36.92   28.37
   3  15   5   24.73   32.04
  -3  15  -6  284.14   58.93
   3  15   6  207.58   57.98
  -3  15  -7  -10.31   21.42
   3  15   7   -7.47   17.41
  -3  15  -8   40.29   28.25
   3  15   8   21.52   25.13
  -3  15  -9   97.09   42.11
  -3  15 -10   80.11   36.86
  -3  15 -11   45.26   31.67
  -3  15 -12   23.25   22.84
  -3  15 -13    5.96   13.89
  -3  15 -14   86.53   33.16
  15  -3 -15   46.03   34.33
  15  -3 -16   82.27   60.38
  15  -3 -17   14.02   27.01
   4  15 -17   18.68   22.75
  15   4 -17   30.50   17.78
   4  15 -16   23.55   22.20
  15   4 -16   -1.17   27.97
  15   4 -16   67.51   37.82
  15   4 -15  110.36   42.82
   4  15 -15   96.84   37.38
  15   4 -15  118.42   67.24
  15   4 -14    4.97   14.60
   4  15 -14   46.80   30.65
  15   4 -14   69.09   51.77
  15   4 -13   63.10   28.00
   4  15 -13   23.83   26.33
  15   4 -13   91.35   48.22
   4  15 -12   25.10   31.86
  15   4 -12  -31.06   39.08
   4  15 -11   24.73   24.57
 -15   4  11  101.44   49.39
   4  15 -10   97.55   46.21
  -4  15  10  104.31   45.35
 -15   4  10  132.16   46.77
   4  15  -9   27.26   25.96
  -4  15   9   20.07   17.66
 -15   4   9   -6.48   27.17
 -15   4   8   30.38   23.52
   4  15  -8   16.27   28.12
  -4  15   8   33.40   26.83
 -15   4   7   60.97   26.67
  -4  15   7    8.52   16.55
 -15   4   6  167.23   44.95
   4  15  -6  156.08   48.41
  -4  15   6  187.63   52.05
 -15   4   5  366.62   62.17
   4  15  -5  382.92   71.28
  -4  15   5  361.10   73.75
 -15   4   4  202.42   48.31
  -4  15   4  214.65   59.03
 -15   4   3  421.70   65.48
  -4  15   3  477.36   82.30
 -15   4   2   16.95   14.82
  -4  15   2   13.03   14.02
  -4  15   1  105.52   43.19
 -15   4   1  122.09   34.48
  -4  15   0  270.15   63.10
   4  15   0  241.97   68.10
 -15   4   0  258.42   50.29
   4  15   1  110.52   43.87
  -4  15  -1  135.74   47.60
 -15   4  -1   92.43   30.72
   4  15   2   21.42   24.94
  -4  15  -2   18.89   16.67
 -15   4  -2   28.80   15.59
 -15   4  -3  390.09   60.01
   4  15   3  377.52   81.25
  -4  15  -3  393.33   77.05
   4  15   4  168.56   59.74
  -4  15  -4  160.87   46.31
  -4  15  -5  326.74   62.58
   4  15   5  325.97   75.11
  -4  15  -6  124.75   40.07
   4  15   6  126.82   50.88
  -4  15  -7   45.35   28.28
  -4  15  -8   15.59   12.13
  -4  15  -9   30.47   27.14
  -4  15 -10   95.33   41.03
  -4  15 -11   86.96   38.77
  -4  15 -12   46.55   37.54
  -4  15 -13   24.70   14.29
  15  -4 -16   37.85   38.31
  15  -4 -17   53.65   38.65
   5  15 -17    6.21   15.00
   5  15 -16   26.27   29.79
  15   5 -16   56.93   49.24
  15   5 -16   52.64   34.95
  15   5 -15   32.54   45.01
   5  15 -15   71.93   35.04
  15   5 -15   46.28   25.59
  15   5 -14  110.77   50.66
   5  15 -14  105.21   56.19
  15   5 -14  135.25   61.83
  15   5 -13   18.31   24.70
   5  15 -13    2.93   20.07
  15   5 -13   49.83   43.62
  15   5 -12   61.03   31.49
   5  15 -12   93.60   54.67
  15   5 -12  124.32   59.67
   5  15 -11  114.25   44.36
  -5  15  11   89.16   44.95
 -15   5  11  132.44   45.38
   5  15 -10   90.17   44.45
  -5  15  10  100.27   44.92
 -15   5  10  101.94   35.87
   5  15  -9   71.99   38.47
  -5  15   9  110.89   40.81
 -15   5   9   38.80   19.94
   5  15  -8   30.99   28.09
  -5  15   8   11.70   22.10
 -15   5   7   23.15   20.87
   5  15  -7   32.11   28.80
  -5  15   7   41.09   26.77
   5  15  -6   99.07   38.40
 -15   5   6  103.45   37.51
  -5  15   6   56.28   33.87
   5  15  -5  525.83   83.94
  -5  15   5  543.42   92.89
 -15   5   5  597.57   81.10
  -5  15   4  301.86   68.50
 -15   5   4  320.23   57.88
 -15   5   3  118.36   36.40
  -5  15   3  107.03   44.05
 -15   5   2  309.76   56.19
  -5  15   2  305.13   62.85
 -15   5   1  320.50   57.45
  -5  15   1  323.62   67.27
 -15   5   0   16.36   16.30
  -5  15   0   30.01   25.50
 -15   5  -1  306.36   55.26
  -5  15  -1  297.81   60.82
  -5  15  -2  307.17   65.42
 -15   5  -2  299.26   53.13
 -15   5  -3  116.75   32.54
  -5  15  -3   81.53   35.90
  -5  15  -4  222.83   56.96
 -15   5  -4  244.31   49.18
  -5  15  -7   54.64   26.83
  -5  15  -8   62.85   38.09
  -5  15  -9   56.49   34.45
  -5  15 -10  130.49   44.08
  -5  15 -11   91.25   37.60
  15  -5 -16   17.84   35.13
  15  -5 -17    7.47   29.23
   6  15 -17   -5.31   16.30
   6  15 -16   54.58   30.62
  15   6 -16   64.03   52.85
  15   6 -16   98.14   38.31
   6  15 -15   44.55   29.45
  15   6 -15    5.03   22.63
  15   6 -15   68.75   36.21
   6  15 -14    0.19   21.08
  15   6 -14   15.53   20.25
  15   6 -13   31.09   29.76
   6  15 -13   49.89   27.01
  15   6 -13   23.59   33.99
  15   6 -12  150.77   45.72
   6  15 -12  108.14   42.57
  15   6 -12  189.49   76.47
  15   6 -11   79.68   41.46
 -15   6  11   79.34   43.25
   6  15 -11  102.43   45.78
  -6  15  11   21.30   27.72
  -6  15  10  297.94   75.82
   6  15 -10  282.90   70.48
 -15   6  10  298.68   66.47
   6  15  -9  104.41   44.61
  -6  15   9  136.64   47.97
 -15   6   9   92.15   33.99
   6  15  -8   -0.93   19.08
  -6  15   8   22.63   24.79
 -15   6   8  -13.55   15.40
   6  15  -7   10.65   21.02
  -6  15   7   69.12   40.69
 -15   6   7   49.42   25.47
 -15   6   6  184.79   48.65
   6  15  -6  177.38   53.53
  -6  15   6  136.36   44.36
 -15   6   5   61.77   27.72
   6  15  -5   25.31   20.28
  -6  15   5   36.64   27.20
  -6  15   4  338.90   71.22
 -15   6   4  348.29   63.10
 -15   6   3   78.84   32.63
  -6  15   3   76.07   31.77
 -15   6   2  106.35   39.24
  -6  15   2   75.88   41.58
 -15   6   1  126.88   39.30
  -6  15   1  140.34   46.09
  -6  15   0  936.01  111.35
 -15   6   0  950.30   98.94
  -6  15  -1  221.78   62.58
 -15   6  -1  133.98   37.08
 -15   6  -2  131.36   37.05
  -6  15  -2  137.62   45.41
 -15   6  -3  113.70   33.87
  -6  15  -3   52.76   15.96
  -6  15  -4  353.44   74.89
 -15   6  -4  325.23   59.36
  15  -6 -16   77.64   47.23
   7  15 -16   20.28   23.65
  15   7 -16  -17.20   33.65
  15   7 -16   -2.07   18.34
   7  15 -15   30.35   27.54
  15   7 -15   65.69   52.08
  15   7 -15   31.61   25.47
   7  15 -14   31.18   35.32
  15   7 -14   -9.20   27.66
  15   7 -14   50.10   27.63
   7  15 -13   29.08   17.07
  15   7 -13   28.28   36.09
  15   7 -13   63.81   29.88
  15   7 -12   58.10   31.86
   7  15 -12  -41.95   36.46
  15   7 -12  109.28   56.65
  15   7 -11  336.46  128.15
   7  15 -11  314.98   75.36
 -15   7  11  281.79   66.37
  -7  15  11  204.43   65.88
  15   7 -11  321.46   63.47
  15   7 -10   72.95   36.09
   7  15 -10   23.06   15.74
 -15   7  10   36.27   22.78
  -7  15  10   33.90   32.41
   7  15  -9  230.98   65.54
 -15   7   9  201.34   51.22
  -7  15   9  183.28   61.50
   7  15  -8   40.84   25.93
 -15   7   8   23.68   17.75
  -7  15   8   58.65   35.53
   7  15  -7   28.22   18.52
 -15   7   7   27.85   19.88
  -7  15   7   33.87   27.94
  -7  15   6    8.52   14.60
 -15   7   6   16.11   10.80
   7  15  -5  136.42   46.40
  -7  15   5  189.18   56.49
 -15   7   5  198.10   47.97
 -15   7   4   26.06   19.26
  -7  15   4    1.88   12.32
 -15   7   3   20.47   16.86
  -7  15   3   -2.99   15.34
 -15   7   2   63.66   28.46
  -7  15   2   27.07   30.99
  -7  15   1  448.06   86.69
 -15   7   1  538.70   79.55
 -15   7   0  170.28   43.13
  -7  15   0  203.78   56.43
  -7  15  -1  499.40   81.96
 -15   7  -1  509.62   72.05
  -7  15  -2   67.98   37.82
 -15   7  -2   57.82   25.59
  -7  15  -3    4.35   22.57
 -15   7  -3   18.99   16.55
  -7  15  -4   -8.55   17.16
 -15   7  -4   -6.02   20.19
  15  -7 -16    4.94   20.13
  15   8 -16   60.82   53.68
   8  15 -16   11.58   17.69
   8  15 -15   -5.83   22.41
  15   8 -15   26.06   36.30
   8  15 -14   -8.71   16.05
  15   8 -14   33.56   38.80
   8  15 -13  -20.59   25.96
  15   8 -13  208.26   59.33
   8  15 -12  184.58   54.92
  15   8 -12  319.21   89.71
   8  15 -11  -35.25   29.76
  15   8 -11  -38.71   43.47
  -8  15  11  -10.90   19.05
 -15   8  11    5.99   15.13
   8  15 -10  338.35   83.26
 -15   8  10  320.97   68.41
  -8  15  10  331.06   79.34
   8  15  -9   25.28   29.42
 -15   8   9   -7.01   13.95
  -8  15   9   12.97   16.30
 -15   8   8  138.46   43.90
   8  15  -8   96.81   47.45
  -8  15   8  161.33   57.17
   8  15  -7   61.03   51.74
 -15   8   7   10.71   14.17
  -8  15   7   41.58   28.22
   8  15  -6   22.04   23.52
 -15   8   6   53.99   26.36
  -8  15   6    3.80   12.47
   8  15  -5   35.96   29.85
 -15   8   5  -10.65   15.25
  -8  15   5   -0.86   15.74
 -15   8   4   23.09   22.41
  -8  15   4   38.22   28.06
 -15   8   3   10.19   15.37
  -8  15   3    0.65   12.50
  -8  15   2  664.84  123.73
 -15   8   2  712.90   84.31
 -15   8   1   35.47   21.76
  -8  15   1   37.91   30.38
  -8  15   0  928.35  113.57
 -15   8   0  953.36  100.05
 -15   8  -1   53.78   24.73
  -8  15  -1  131.29   45.20
 -15   8  -2  112.83   34.58
  -8  15  -2   98.02   33.46
 -15   8  -3   -2.22   18.49
  -8  15  -3    3.67   19.70
  -8  15  -4   32.88   21.24
  15  -8 -15   76.78   33.80
  15  -8 -16    2.69   10.37
   9  15 -16   -5.37   19.85
   9  15 -15    5.16   12.97
  15   9 -15  -32.66   31.77
   9  15 -14  -12.84   20.71
  15   9 -14   27.57   40.72
   9  15 -13   34.17   23.46
  15   9 -13    6.08   23.18
   9  15 -12   40.72   33.53
  15   9 -12   24.60   31.77
  -9  15  11  334.98   82.80
 -15   9  11  291.79   77.46
   9  15 -11  239.96   64.83
  15   9 -11  383.45   94.06
 -15   9  10   43.00   29.48
   9  15 -10   -2.47   20.22
  15   9 -10  104.16   57.61
  -9  15  10   71.56   32.57
   9  15  -9  304.73   82.89
 -15   9   9  250.49   58.65
  -9  15   9  212.49   65.35
   9  15  -8   25.31   18.65
 -15   9   8   48.07   37.05
  -9  15   8   53.16   37.23
   9  15  -7   29.73   22.50
 -15   9   7   54.64   25.68
  -9  15   7   97.12   44.70
   9  15  -6  -22.07   26.64
 -15   9   6   43.03   26.12
  -9  15   6    9.69   14.76
   9  15  -5   -6.95   21.18
 -15   9   5  -15.65   19.42
  -9  15   5   -9.57   22.88
  -9  15   4   43.96   31.18
 -15   9   4   33.12   25.90
  -9  15   3   78.84   38.03
 -15   9   3   71.99   34.33
  -9  15   2   26.98   23.34
 -15   9   2   -0.28   12.16
  -9  15   1  243.39   79.80
 -15   9   1  398.08   69.46
 -15   9   0   74.46   33.22
  -9  15   0   30.90   27.78
  -9  15  -1  394.87   73.01
 -15   9  -1  416.36   68.84
 -15   9  -2    1.85    9.48
  -9  15  -2  -24.88   26.77
 -15   9  -3   65.66   26.58
  -9  15  -3  114.28   45.84
  -9  15  -4    8.21   23.55
  15  -9 -15  -24.51   21.89
  10  15 -15   19.29   23.43
  15  10 -15   49.15   42.73
  10  15 -14   12.66   22.97
  15  10 -14   20.50   40.29
  10  15 -13  -57.73   35.10
  15  10 -13   -2.28   28.99
  10  15 -12  -22.47   25.31
  15  10 -12   73.10   43.84
 -15  10  11   65.79   34.76
  10  15 -11   49.05   34.98
  15  10 -11   66.50   34.73
 -10  15  11   62.92   41.15
  10  15 -10  156.64   57.17
 -15  10  10  219.31   56.12
  15  10 -10  260.64   81.31
 -10  15  10  195.01   63.93
 -15  10   9  114.22   42.26
  10  15  -9   95.24   39.42
  15  10  -9   74.09   56.09
 -10  15   9  112.06   47.70
 -15  10   8   37.63   28.49
  10  15  -8   35.10   27.78
 -10  15   8   58.84   32.45
 -15  10   7   -6.51   14.45
  10  15  -7   15.81   18.49
 -10  15   7   -4.32   18.28
 -15  10   6   56.09   30.44
 -10  15   6   96.72   42.51
  10  15  -6   80.94   39.42
 -10  15   5   52.36   32.01
  10  15  -5   81.56   33.93
 -15  10   5   53.16   32.63
 -10  15   4   17.23   17.32
 -15  10   4   -2.99   14.60
 -10  15   3   20.68   17.38
 -15  10   3   -3.03   11.70
 -10  15   2   78.97   41.58
 -15  10   2  118.42   46.46
 -10  15   1    1.27   19.05
 -15  10   1   49.46   30.04
 -10  15   0   48.19   28.93
 -15  10   0   26.21   14.32
 -15  10  -1   61.68   34.21
 -10  15  -1   54.27   31.80
 -15  10  -2  135.59   39.42
 -10  15  -2  187.26   48.31
 -15  10  -3  -12.81   18.49
 -10  15  -3   -7.44   12.41
  15 -10 -15   47.26   27.10
  11  15 -15   22.44   26.09
  15  11 -15    3.61   17.41
  11  15 -14   29.23   26.33
  15  11 -14   32.45   34.24
  11  15 -13   20.44   28.90
  15  11 -13  -26.61   37.79
  11  15 -12   17.47   21.67
  15  11 -12   89.59   45.20
 -15  11  11   26.27   21.05
  11  15 -11   13.77   26.09
  15  11 -11   36.27   28.90
 -11  15  11    5.40   15.53
 -15  11  10   23.40   16.21
  11  15 -10   30.13   26.12
  15  11 -10   76.68   41.46
 -11  15  10   45.16   30.59
 -15  11   9   86.04   38.99
  11  15  -9   60.14   25.75
  15  11  -9  157.84   58.32
 -11  15   9  104.34   47.63
 -15  11   8   20.53   17.53
  11  15  -8   45.13   44.95
 -11  15   8    6.39   19.57
 -15  11   7   45.57   27.35
  11  15  -7   41.09   37.60
 -11  15   7   66.09   31.18
 -11  15   6  163.52   52.91
 -15  11   6  167.60   47.82
  11  15  -6  126.79   49.05
 -11  15   5   95.02   40.29
 -15  11   5   76.90   30.22
  11  15  -5   72.98   36.86
 -11  15   4  172.57   49.08
 -15  11   4  135.59   43.59
 -11  15   3   54.46   32.29
 -15  11   3   29.08   24.88
 -11  15   2   13.15   13.34
 -15  11   2   36.77   28.31
 -11  15   1   24.70   20.16
 -15  11   1    9.60   20.04
 -11  15   0  114.62   39.58
 -15  11   0  121.23   41.86
 -15  11  -1   42.32   21.58
 -11  15  -1   13.77   24.97
 -15  11  -2   14.17   24.45
 -11  15  -2   14.42   28.83
 -15  11  -3   52.42   26.15
 -11  15  -3   22.20   18.55
  12  15 -14  -10.03   20.04
  15  12 -14   -1.08   20.25
  12  15 -13   23.74   29.11
  15  12 -13   41.77   37.48
  12  15 -12  -31.27   27.57
  15  12 -12  -33.34   32.23
 -15  12  11   85.88   39.98
  12  15 -11   65.79   42.29
  15  12 -11   96.75   42.29
 -12  15  11   95.73   41.37
 -15  12  10  -18.65   19.76
  12  15 -10  -10.34   14.36
  15  12 -10  -28.15   32.04
 -12  15  10    8.12   19.57
 -15  12   9    2.25   14.29
  12  15  -9   -1.42   34.51
  15  12  -9   33.00   34.73
 -12  15   9   29.57   22.60
  12  15  -8    9.23   23.22
  15  12  -8    6.08   19.17
 -15  12   8   14.32   26.83
 -12  15   8   55.94   35.32
 -12  15   7  120.21   47.23
 -15  12   7  135.77   44.11
  12  15  -7   77.30   38.00
 -12  15   6  -45.60   30.90
 -15  12   6   -3.43   15.99
  12  15  -6  -37.01   25.19
  12  15  -5  460.41   83.94
 -12  15   5  534.62   91.75
 -15  12   5  506.22   83.69
 -12  15   4   14.60   19.91
 -15  12   4   41.24   22.97
 -12  15   3   58.81   32.57
 -15  12   3   51.74   31.09
 -12  15   2   27.04   20.99
 -15  12   2   -6.92   23.96
 -12  15   1  181.09   54.86
 -15  12   1  138.43   46.92
 -12  15   0   21.73   28.12
 -15  12   0    0.49   12.56
 -12  15  -1  117.87   43.93
 -15  12  -1  141.48   40.50
 -15  12  -2  -26.67   22.26
 -12  15  -2   21.89   20.59
 -15  12  -3  113.98   40.41
 -12  15  -3   85.42   35.41
  13  15 -14   61.80   33.68
  15  13 -14   46.49   41.34
  13  15 -13   -7.53   17.13
  15  13 -13  -11.92   24.45
  15  13 -12   45.63   31.27
  13  15 -12  -11.61   20.78
  13  15 -11   45.57   33.74
  15  13 -11    7.63   17.78
 -13  15  11  -31.36   30.90
 -15  13  11   -1.14   19.05
 -15  13  10   52.79   31.95
  13  15 -10   65.32   44.21
  15  13 -10   19.91   33.80
 -13  15  10   16.18   12.22
 -15  13   9   -1.94   11.21
  13  15  -9   -4.91   21.98
  15  13  -9   -3.33   17.60
 -13  15   9    2.38   23.71
 -15  13   8   98.11   39.85
  13  15  -8  115.83   50.04
  15  13  -8   77.33   43.03
 -13  15   8  108.73   46.37
 -13  15   7  -12.84   19.29
 -15  13   7   18.34   21.33
  13  15  -7   42.23   31.49
  15  13  -7   73.53   32.88
  13  15  -6  534.50  100.52
  15  13  -6  531.72   97.71
 -13  15   6  720.34  111.48
 -15  13   6  641.69   99.90
 -13  15   5   35.44   31.92
 -15  13   5    6.58   10.37
  13  15  -5    9.38   15.56
 -13  15   4  545.80   93.42
 -15  13   4  597.45   93.17
 -13  15   3    0.15   15.34
 -15  13   3    4.48   15.19
 -13  15   2   19.63   27.69
 -15  13   2   18.99   21.18
 -13  15   1   18.00   21.36
 -15  13   1   27.38   27.35
 -13  15   0  118.24   44.98
 -15  13   0   78.66   31.03
 -13  15  -1   60.91   36.37
 -15  13  -1   69.65   32.07
 -15  13  -2   18.92   11.30
 -13  15  -2   36.34   32.72
 -15  13  -3   17.84   26.98
 -13  15  -3    1.23   16.79
  14  15 -13    8.37   12.66
  15  14 -13   50.13   34.85
  14  15 -12   23.09   23.74
  15  14 -12  -21.02   29.11
  14  15 -11    9.32   18.18
  15  14 -11   -8.64   14.82
 -14  15  11   54.09   39.48
 -15  14  11   40.38   36.95
  14  15 -10   54.33   38.16
  15  14 -10    2.50   15.47
 -14  15  10   19.48   30.07
 -15  14  10   28.12   22.17
 -15  14   9   25.84   23.03
  14  15  -9    9.23   23.18
  15  14  -9  -15.74   21.05
 -14  15   9  -14.02   16.76
 -15  14   8   -3.98   15.13
  14  15  -8   39.02   24.91
  15  14  -8   24.88   32.01
 -14  15   8  -11.73   25.38
 -14  15   7  368.85   79.28
 -15  14   7  346.03   78.20
  14  15  -7  265.03   70.51
  15  14  -7  304.14   73.47
 -14  15   6   47.39   36.61
 -15  14   6   16.30   22.63
  14  15  -6   25.99   36.58
  15  14  -6  -49.33   36.77
  14  15  -5  502.33   91.69
  15  14  -5  563.03  101.07
 -15  14   5  632.86   98.48
 -14  15   5  611.31   98.48
 -14  15   4   29.05   29.08
  15  14  -4   -2.72   14.29
 -15  14   4   52.33   28.99
 -14  15   3  192.54   55.81
 -15  14   3  120.67   44.89
 -14  15   2   -9.69   20.19
 -15  14   2  -29.91   26.86
 -14  15   1   21.39   18.03
 -15  14   1  -17.91   23.40
 -14  15   0   31.83   17.23
 -15  14   0   -1.17   11.82
 -14  15  -1   -5.56   15.71
 -15  14  -1   -4.79   17.23
 -15  14  -2   -8.95   12.60
 -14  15  -2   -7.13   12.90
 -15  14  -3  142.72   50.78
 -14  15  -3  131.88   48.53
  15  15 -12  -12.04   21.79
  15  15 -11   -1.39   15.93
 -15  15  11    3.80   27.20
  15  15 -10   24.70   24.39
 -15  15  10   11.30   23.37
  15  15  -9   23.49   26.21
 -15  15   9  130.49   39.85
  15  15  -8    3.98   18.12
 -15  15   8    5.31   16.92
 -15  15   7   22.04   26.58
  15  15  -7  -10.65   18.83
 -15  15   6  369.40   76.71
  15  15  -6  308.40   71.78
 -15  15   5    7.84   16.05
  15  15  -5   -3.15   21.61
 -15  15   4  184.79   54.92
 -15  15   3   48.22   34.79
 -15  15   2   41.37   33.16
 -15  15   1    7.38   25.87
 -15  15   0  -10.43   21.79
 -15  15  -1   39.14   37.17
 -15  15  -2   32.91   27.32
 -15  15  -3   13.49   23.49
   0  16   0 1265.65  138.55
   0  16  -1  236.41   80.02
   0  16   1   40.04   32.29
   0  16  -2   50.13   30.22
   0  16   2   -8.64   19.91
   0  16  -3  107.37   47.94
   0  16   3   78.44   41.89
   0  16  -4    3.95   20.90
   0  16   4   28.19   30.41
   0  16   5  183.19   53.25
   0  16   6   91.13   41.52
   0  16  -6   70.36   31.83
   0  16  -7  151.70   47.39
   0  16   7  116.82   46.89
   0  16  -8   42.20   30.78
   0  16   8   59.33   37.57
 -16   0   8   79.52   35.10
   0  16   9   28.00   28.00
   0  16  -9   13.27   24.45
 -16   0   9   -0.96   23.62
   0  16 -10  266.42   63.90
 -16   0  10  264.07   70.79
   0  16  10  218.38   67.33
   0  16 -11  -41.71   31.74
   0  16 -12  129.32   44.58
   0  16 -13   49.73   23.46
  16   0 -13   78.20   52.79
   0  16 -14   19.11   18.92
  16   0 -15   78.29   47.05
   0  16 -15   52.02   33.87
  16   0 -16   85.91   43.99
   0  16 -16   41.58   22.38
  16   0 -17   86.47   43.90
   1  16 -17    0.19   13.83
  16   1 -17   40.75   38.99
  16   1 -16   84.80   38.93
   1  16 -16   23.28   20.78
  16   1 -15   81.01   48.16
   1  16 -15   45.44   32.72
  16   1 -14  104.56   56.62
   1  16 -14   40.81   32.91
  16   1 -14   58.99   46.77
   1  16 -13  -20.00   33.62
  16   1 -13   21.79   33.96
   1  16 -12    6.24   14.97
   1  16 -11  200.29   62.33
 -16   1  10    4.88   19.17
   1  16 -10  -21.39   14.32
  -1  16  10   31.46   21.52
  -1  16   9  148.46   55.97
 -16   1   9  210.32   55.14
   1  16  -9  164.82   59.83
   1  16  -8   10.03   25.28
  -1  16   8   51.55   29.73
 -16   1   8   60.14   32.17
   1  16  -7    4.26   19.82
  -1  16   7   44.55   36.80
 -16   1   7   11.61   19.66
   1  16  -6  104.44   35.96
  -1  16   6  130.52   46.28
  -1  16   5   45.32   32.79
   1  16  -4   81.41   37.51
  -1  16   4  129.23   45.97
   1  16  -3   -2.41   21.73
  -1  16   3    9.79   26.39
   1  16  -2   92.00   49.08
  -1  16   2   11.24   20.41
   1  16  -1  447.17   85.02
  -1  16   1  427.72   79.12
   1  16   0   97.71   50.44
  -1  16   0   98.73   52.51
   1  16   1  368.29   83.48
  -1  16  -1  435.71   78.81
   1  16   2   30.50   35.01
  -1  16  -2   45.69   30.93
  -1  16  -3   -9.17   13.49
   1  16   3   13.86   29.48
  -1  16  -4  133.27   50.54
   1  16   4   91.50   45.47
  -1  16  -5    3.36   20.93
   1  16   5    4.29   20.44
  -1  16  -6   88.41   35.22
   1  16   6   76.81   37.01
  -1  16  -7   -8.77   13.24
   1  16   7  -23.34   20.37
   1  16   8   29.61   28.62
  -1  16  -8   10.90   18.49
  -1  16  -9  164.97   52.79
   1  16   9  132.10   51.31
 -16  -1   9  164.85   49.67
  -1  16 -10    1.23   13.55
 -16  -1  10   30.50   51.15
  -1  16 -11  186.92   56.83
  -1  16 -12  -15.16   20.25
  -1  16 -13  -14.20   20.44
  -1  16 -14   36.40   25.75
  16  -1 -15   79.34   47.79
  -1  16 -15   28.31   19.08
  16  -1 -16   77.73   43.68
  16  -1 -17    7.07   23.46
   2  16 -17    0.43    8.40
  16   2 -16   56.96   35.41
   2  16 -16   54.24   28.06
  16   2 -15   83.97   44.39
   2  16 -15   26.36   21.52
  16   2 -14   67.61   40.81
   2  16 -14   74.34   33.53
  16   2 -14   36.21   29.94
   2  16 -13  -30.22   37.38
  16   2 -13  -24.91   31.89
   2  16 -12  -23.55   15.03
   2  16 -11   31.27   26.33
 -16   2  11   38.77   31.18
 -16   2  10  240.92   61.03
   2  16 -10  214.62   64.30
  -2  16  10  126.51   47.66
 -16   2   9  -13.86   19.17
   2  16  -9  -48.41   19.23
  -2  16   9  -21.73   24.85
   2  16  -8   48.34   17.87
 -16   2   8   18.49   23.52
  -2  16   8   15.03   26.92
   2  16  -7   39.98   24.51
  -2  16   7   78.91   39.02
 -16   2   7   47.02   26.77
   2  16  -6   43.50   22.07
  -2  16   6    5.99   14.42
 -16   2   6   26.67   17.32
  -2  16   5   44.61   32.14
  -2  16   4   12.07   14.91
   2  16  -3   45.44   31.03
  -2  16   3   46.95   36.27
   2  16  -2  -17.26   19.39
  -2  16   2    3.61   14.26
   2  16  -1   66.47   36.24
  -2  16   1    7.78   16.18
   2  16   0   97.89   44.82
  -2  16   0  102.71   47.70
   2  16   1    8.55   19.66
  -2  16  -1   15.50   26.21
   2  16   2   -8.61   22.69
  -2  16  -2   30.50   35.84
   2  16   3   84.09   43.68
  -2  16  -3   39.98   24.70
   2  16   4   66.71   40.32
  -2  16  -4   75.08   38.22
  -2  16  -5   23.93   16.52
   2  16   5   -5.09   25.44
  -2  16  -6   -9.26   18.74
   2  16   6   49.67   42.69
  -2  16  -7   39.18   27.66
   2  16   7   44.86   32.41
   2  16   8   36.27   33.25
  -2  16  -8   29.30   21.67
  -2  16  -9   -0.96   14.02
   2  16   9    0.96   18.74
  -2  16 -10  121.42   42.39
 -16  -2  10  235.82   62.24
  -2  16 -11   11.21   29.54
  -2  16 -12   35.93   28.19
  -2  16 -13    5.50   22.01
  -2  16 -14   31.86   27.32
  16  -2 -15   55.32   43.53
  16  -2 -16    7.44   25.65
  16  -2 -17   -2.10   23.65
   3  16 -16    8.12   18.31
  16   3 -16   24.17   25.90
  16   3 -15   27.10   21.27
   3  16 -15   32.88   24.02
  16   3 -15   97.15   61.59
   3  16 -14   -1.48   14.51
  16   3 -14  -10.13   15.84
  16   3 -14   15.44   31.92
  16   3 -13   83.01   46.18
   3  16 -13   13.37   11.85
  16   3 -13   87.36   56.71
   3  16 -12   15.68   17.32
  16   3 -12  168.12   77.58
   3  16 -11   25.68   24.97
 -16   3  11   14.73   16.67
   3  16 -10    3.40   13.27
  -3  16  10  -25.31   30.75
 -16   3  10   -5.16   24.82
 -16   3   9   70.29   31.86
   3  16  -9   92.34   40.75
  -3  16   9  107.52   47.08
 -16   3   8   28.56   31.36
   3  16  -8  -12.04   14.60
  -3  16   8    4.17   17.94
   3  16  -7   -6.30   21.89
 -16   3   7    9.17   17.94
   3  16  -6   -2.10   20.65
 -16   3   6   -6.67   16.21
  -3  16   6   34.82   29.48
 -16   3   5   85.79   34.54
  -3  16   5   61.22   29.73
  -3  16   4    6.61   20.78
 -16   3   4   -5.19   17.87
  -3  16   3   88.35   38.87
 -16   3   3   95.95   34.61
  -3  16   2   -0.93   17.75
   3  16  -1   61.03   43.87
  -3  16   1   51.99   33.74
   3  16   0   71.34   43.10
  -3  16   0   62.39   34.45
   3  16   1   24.17   43.19
  -3  16  -1   12.26   17.63
   3  16   2   19.02   22.23
  -3  16  -2   27.35   33.31
   3  16   3  103.60   43.84
  -3  16  -3   61.22   27.23
 -16   3  -3   97.49   33.68
   3  16   4   26.09   27.66
  -3  16  -4   26.43   21.86
 -16   3  -4   18.03   13.95
   3  16   5   90.08   41.06
  -3  16  -6    2.62   13.37
   3  16   6   13.64   25.16
  -3  16  -7   22.94   26.98
   3  16   7   42.97   35.72
  -3  16  -8    7.25   14.76
  -3  16  -9  100.70   38.25
  -3  16 -10  -21.02   17.69
 -16  -3  10   29.54   54.21
  -3  16 -11   -5.09   19.45
  -3  16 -12   22.44   19.26
  -3  16 -13   25.25   27.32
  16  -3 -15   53.65   41.55
  16  -3 -16   17.10   25.84
   4  16 -16    3.89   17.97
  16   4 -16   14.85   21.08
  16   4 -16   32.26   31.06
  16   4 -15   14.11   22.26
  16   4 -15   61.96   59.64
   4  16 -15   80.85   36.15
  16   4 -14   49.27   38.37
   4  16 -14   33.03   28.65
  16   4 -14   14.20   26.52
  16   4 -13   16.24   37.32
  16   4 -13  -26.36   20.68
   4  16 -13  -26.52   33.74
   4  16 -12   17.57   24.57
  16   4 -12  149.57   66.77
   4  16 -11   -0.09   18.52
 -16   4  11    4.60   12.10
   4  16 -10   49.92   31.40
  -4  16  10   15.03   24.54
 -16   4  10   86.53   37.85
   4  16  -9    2.69   12.75
 -16   4   9   29.88   32.41
 -16   4   8   10.19   16.05
  -4  16   8    1.05   15.53
 -16   4   7   -2.81   10.80
   4  16  -7  -31.67   23.93
  -4  16   7   10.31   23.46
 -16   4   6   22.75   15.00
   4  16  -6   33.34   27.75
  -4  16   6   30.28   18.99
 -16   4   5   76.37   33.19
  -4  16   5   52.79   33.16
 -16   4   4   67.24   31.95
  -4  16   4   78.75   43.22
 -16   4   3   55.54   30.01
  -4  16   3   61.40   37.11
 -16   4   2   83.85   40.38
  -4  16   2   50.23   48.65
 -16   4   1   29.70   23.68
  -4  16   1  -39.61   29.08
 -16   4   0   34.76   20.50
  -4  16   0   49.83   29.73
   4  16   1  -31.92   27.51
  -4  16  -1   19.17   25.31
 -16   4  -1  -16.82   21.89
   4  16   2  143.43   53.72
 -16   4  -2  146.64   41.09
  -4  16  -2  125.21   43.34
   4  16   3   21.36   21.86
 -16   4  -3   89.80   30.59
  -4  16  -3   79.28   32.51
   4  16   4   89.68   49.24
 -16   4  -4  112.28   25.47
  -4  16  -4   47.85   24.02
   4  16   5   68.63   39.61
  -4  16  -6   34.02   26.95
  -4  16  -7  -16.36   12.66
  -4  16  -8  110.06   42.42
  -4  16  -9  -36.00   27.23
  -4  16 -10   17.50   13.15
  -4  16 -11   27.07   18.21
  16  -4 -15   31.30   35.13
  16  -4 -16   29.88   34.98
  16   5 -16   49.15   39.61
   5  16 -16    4.57    9.97
  16   5 -16   48.37   31.83
   5  16 -15   39.11   26.70
  16   5 -15   77.49   42.51
  16   5 -15   -4.60   13.15
  16   5 -14   77.73   44.45
   5  16 -14   84.28   38.68
  16   5 -14  135.03   61.46
  16   5 -13   19.26   17.53
   5  16 -13   45.41   25.84
  16   5 -13   70.45   56.12
  16   5 -12  -36.18   33.25
   5  16 -12  -11.58   12.56
  16   5 -12  -49.95   44.76
   5  16 -11   51.46   33.00
  -5  16  11  106.26   52.79
 -16   5  11   97.92   44.18
   5  16 -10   67.48   45.13
  -5  16  10   24.26   30.78
 -16   5  10   28.15   19.17
   5  16  -9   31.74   37.20
  -5  16   9   26.33   33.68
 -16   5   9   22.57   24.36
   5  16  -8   -2.96   19.26
  -5  16   8  -54.30   39.36
 -16   5   8  -16.49   14.76
 -16   5   7    2.59   13.64
   5  16  -7    5.25   15.56
  -5  16   7   12.01   25.04
 -16   5   6  116.04   38.06
   5  16  -6  113.79   47.60
  -5  16   6   83.26   41.12
 -16   5   5   23.18   22.88
  -5  16   5   27.01   20.65
 -16   5   4  203.56   48.78
  -5  16   4  169.23   56.28
 -16   5   3   33.62   24.17
  -5  16   3   40.53   38.13
 -16   5   2  -24.17   19.85
  -5  16   2   -7.84   15.71
 -16   5   1  144.45   43.44
  -5  16   1  138.64   49.24
 -16   5   0   87.83   33.19
  -5  16   0  129.63   48.31
 -16   5  -1  191.12   46.00
  -5  16  -1  174.73   57.79
 -16   5  -2  -11.92   20.04
  -5  16  -2    2.75   12.26
 -16   5  -3  220.05   43.65
  -5  16  -3   75.63   23.93
 -16   5  -4  185.16   42.60
  -5  16  -4  177.42   50.69
  16  -5 -15   25.90   32.57
  16  -5 -16   46.12   41.58
   6  16 -16    8.83   16.52
  16   6 -15   39.02   40.78
   6  16 -15   44.45   25.90
  16   6 -15   56.31   29.42
   6  16 -14  -12.50   19.11
  16   6 -14   24.91   33.00
  16   6 -13   -4.54   23.71
   6  16 -13    0.09   12.69
  16   6 -12   16.76   19.91
   6  16 -12   55.41   40.56
  16   6 -12   13.06   28.90
  16   6 -11  123.24   44.33
   6  16 -11  100.08   48.19
 -16   6  11  116.20   48.28
  -6  16  11   79.80   44.30
   6  16 -10  120.67   52.23
 -16   6  10  156.36   48.28
  -6  16  10  122.06   48.84
   6  16  -9    2.96   21.70
  -6  16   9   -4.29   20.37
   6  16  -8   33.34   30.41
  -6  16   8   37.08   25.81
 -16   6   8   43.31   27.44
   6  16  -7  162.10   69.95
  -6  16   7   88.04   45.01
 -16   6   7   43.16   23.22
 -16   6   6  -40.07   25.13
   6  16  -6    0.49   12.84
  -6  16   6   15.31   21.27
 -16   6   5  140.83   42.45
  -6  16   5  139.14   49.64
 -16   6   4    2.59   15.13
  -6  16   4    4.82   25.35
 -16   6   3   19.17   11.67
  -6  16   3   28.59   27.35
  -6  16   2   25.25   18.18
 -16   6   2  145.93   71.00
 -16   6   1   34.73   26.36
  -6  16   1   28.90   24.76
 -16   6   0  225.61   49.15
  -6  16   0  196.71   53.93
 -16   6  -1   32.88   19.26
  -6  16  -1   63.87   31.52
 -16   6  -2   57.76   26.12
  -6  16  -2   59.92   33.25
 -16   6  -3   80.82   31.46
  -6  16  -3   44.61   26.30
  -6  16  -4   48.96   27.41
 -16   6  -4   10.80   13.68
  16  -6 -15   11.67   26.58
  16  -6 -16   22.63   32.97
   7  16 -16   22.41   22.81
   7  16 -15   13.31   15.10
  16   7 -15   43.84   41.15
  16   7 -15   51.43   27.81
   7  16 -14   12.56   13.83
  16   7 -14  -11.11   34.48
  16   7 -14   29.57   23.03
   7  16 -13  -18.62   26.36
  16   7 -13  -39.89   41.37
  16   7 -13  -34.17   20.65
  16   7 -12  136.23   48.37
   7  16 -12   78.84   39.76
  16   7 -12  175.93   74.62
  16   7 -11   45.50   32.75
 -16   7  11   76.13   41.37
  -7  16  11   84.99   40.75
  16   7 -11   47.85   50.78
   7  16 -11   34.08   29.42
   7  16 -10  208.13   61.40
 -16   7  10  143.43   46.18
  -7  16  10  161.30   60.72
   7  16  -9    6.33   23.31
 -16   7   9  -15.87   22.50
  -7  16   9  -22.44   36.06
   7  16  -8   14.14   15.56
 -16   7   8   33.00   18.43
  -7  16   8  -23.96   20.84
   7  16  -7  -17.91   17.29
 -16   7   7    3.27   14.82
  -7  16   7    9.14   28.15
   7  16  -6   80.36   33.53
  -7  16   6   48.04   27.91
 -16   7   6   56.71   23.06
  -7  16   5   22.84   19.73
 -16   7   5   75.20   31.67
  -7  16   4  -14.20   24.33
 -16   7   4   39.76   22.07
 -16   7   3    2.07   14.08
  -7  16   3  -86.75   38.00
 -16   7   2   53.90   31.43
  -7  16   2   32.35   32.29
 -16   7   1   32.75   26.55
  -7  16   1    5.59   17.23
 -16   7   0  254.13   56.74
  -7  16   0  239.25   60.69
 -16   7  -1   40.41   27.91
  -7  16  -1   85.02   37.72
  -7  16  -2   89.59   39.05
 -16   7  -2   58.07   23.68
  -7  16  -3   13.46   12.60
 -16   7  -3   14.17   16.64
  -7  16  -4   38.87   36.34
 -16   7  -4   17.23   24.20
  16  -7 -15    4.79   15.84
   8  16 -15  -13.77   16.64
  16   8 -15   20.78   35.63
   8  16 -14   17.29   22.01
  16   8 -14   23.18   41.74
   8  16 -13   -2.81   14.60
  16   8 -13   42.23   40.75
   8  16 -12  -40.01   25.59
  16   8 -12   49.98   43.53
 -16   8  11  147.96   53.72
   8  16 -11  109.93   46.18
  16   8 -11  203.72   74.40
  -8  16  11  177.97   60.66
   8  16 -10   16.61   24.23
 -16   8  10  -29.48   29.82
  -8  16  10  -18.06   25.47
   8  16  -9   87.58   40.63
 -16   8   9  172.82   49.89
  -8  16   9  132.44   53.65
   8  16  -8    6.05   14.57
 -16   8   8   13.89   15.53
  -8  16   8   33.74   25.28
   8  16  -7   45.63   35.29
 -16   8   7  -12.10   18.18
  -8  16   7    6.48   24.02
   8  16  -6  122.65   45.81
 -16   8   6  114.47   39.30
  -8  16   6  110.95   45.87
 -16   8   5   28.56   26.30
  -8  16   5   10.59   26.61
 -16   8   4   67.05   32.54
  -8  16   4   73.10   37.14
 -16   8   3   45.63   31.27
  -8  16   3   27.44   25.59
  -8  16   2  -22.44   27.69
 -16   8   2  -13.03   22.13
  -8  16   1  183.16   58.28
 -16   8   1  175.59   49.79
  -8  16   0   28.68   26.24
 -16   8   0   37.91   21.67
  -8  16  -1  194.61   54.18
 -16   8  -1  222.83   49.49
  -8  16  -2   -5.28   21.33
 -16   8  -2   -9.20   14.79
  -8  16  -3   66.65   37.54
 -16   8  -3   49.61   31.64
  -8  16  -4   59.83   30.62
  16  -8 -15   11.76   24.42
   9  16 -15   31.58   25.31
  16   9 -15   79.00   34.11
   9  16 -14   18.06   21.64
  16   9 -14   13.77   38.59
   9  16 -13    5.53   21.02
  16   9 -13   22.57   34.05
   9  16 -12   -6.88   22.23
  16   9 -12  -22.13   32.60
 -16   9  11  -26.95   18.89
   9  16 -11   11.61   14.45
  -9  16  11   18.24   24.79
 -16   9  10  132.07   44.30
   9  16 -10  121.85   43.96
  16   9 -10  203.63   78.75
  -9  16  10  170.81   59.46
   9  16  -9   24.20   15.50
 -16   9   9   23.83   20.19
  -9  16   9   10.40   15.03
   9  16  -8   48.81   29.48
 -16   9   8   73.97   32.54
  -9  16   8   84.25   45.07
   9  16  -7   24.64   16.08
 -16   9   7   45.07   25.44
  -9  16   7   11.58   27.69
   9  16  -6   35.90   30.07
 -16   9   6   -2.65   15.59
  -9  16   6  -23.77   27.88
 -16   9   5   72.33   32.91
  -9  16   5  122.87   48.81
 -16   9   4   20.00   19.88
  -9  16   4    6.36   24.36
 -16   9   3   16.92   21.67
  -9  16   3    2.38   20.22
 -16   9   2   27.69   20.87
  -9  16   2   18.03   18.99
 -16   9   1   11.18   10.40
  -9  16   1   -7.81   23.09
 -16   9   0   45.63   27.04
  -9  16   0  117.09   44.86
 -16   9  -1   20.25   21.61
  -9  16  -1    7.01   14.51
 -16   9  -2   50.63   26.95
  -9  16  -2   70.54   31.03
 -16   9  -3    6.61   15.62
  -9  16  -3   17.81   22.38
  -9  16  -4  -19.60   12.84
  16  -9 -15    2.81   14.08
  16  10 -15    3.40   16.39
  10  16 -14   18.55   14.97
  16  10 -14   -9.76   23.25
  10  16 -13  -39.51   26.80
  16  10 -13   10.53   22.75
  10  16 -12   46.77   35.04
  16  10 -12   -9.11   22.81
 -16  10  11    2.41   14.79
  10  16 -11   38.87   30.93
  16  10 -11   30.35   29.88
 -10  16  11    5.68   17.20
 -16  10  10   46.62   33.40
  10  16 -10   36.40   36.89
  16  10 -10   19.51   28.12
 -10  16  10   19.94   28.65
 -16  10   9   77.18   33.09
  10  16  -9   62.21   33.40
  16  10  -9   95.64   44.39
 -10  16   9  141.73   58.59
 -16  10   8   68.81   31.55
  10  16  -8   25.87   28.03
 -10  16   8   58.04   33.77
  10  16  -7   66.90   41.58
 -16  10   7   72.55   33.53
 -10  16   7   82.83   40.53
  10  16  -6  -31.09   28.15
 -16  10   6    6.54   14.36
 -10  16   6  -15.93   18.03
 -16  10   5   35.35   21.21
 -10  16   5   53.10   28.06
 -16  10   4   10.06   14.97
 -10  16   4    6.95   20.04
 -10  16   3  512.34  101.84
 -16  10   3  527.89   88.72
 -16  10   2   12.19   13.27
 -10  16   2   17.47   28.19
 -16  10   1   27.69   21.95
 -10  16   1    1.82   14.94
 -16  10   0   96.60   34.73
 -10  16   0   68.16   36.06
 -16  10  -1   37.82   27.20
 -10  16  -1   72.52   39.30
 -16  10  -2   16.08   11.36
 -10  16  -2   -8.67   13.43
 -16  10  -3   28.12   20.07
 -10  16  -3   93.88   56.31
  11  16 -14   13.64   21.52
  16  11 -14   17.75   25.47
  11  16 -13  -14.76   24.51
  16  11 -13   10.68   20.56
  11  16 -12   21.83   25.35
  16  11 -12    8.95   24.97
 -16  11  11   46.34   33.25
  11  16 -11   18.06   15.84
  16  11 -11   18.24   26.98
 -11  16  11   84.90   38.43
 -16  11  10    9.45   11.30
  11  16 -10  -32.69   28.71
  16  11 -10   -0.22   21.70
 -11  16  10   21.46   24.57
 -16  11   9   26.86   21.92
  11  16  -9   42.20   33.68
  16  11  -9   47.76   39.02
 -11  16   9   47.11   33.56
 -16  11   8   49.18   26.15
  11  16  -8   67.05   39.30
 -11  16   8   46.68   32.51
 -16  11   7   -6.02   14.94
  11  16  -7   13.61   19.82
 -11  16   7  -14.51   14.69
 -16  11   6   64.18   35.56
  11  16  -6  116.23   45.01
 -11  16   6   70.51   42.60
 -16  11   5   33.83   22.20
 -11  16   5   -0.06   21.24
 -16  11   4   18.99   15.84
 -11  16   4   16.27   15.07
 -16  11   3   38.43   24.85
 -11  16   3   -6.61   14.20
 -16  11   2    8.40   13.68
 -11  16   2   39.79   31.06
 -16  11   1   94.22   35.25
 -11  16   1   89.28   44.42
 -16  11   0   -9.57   13.86
 -11  16   0    6.27   15.03
 -16  11  -1  196.12   46.00
 -11  16  -1  160.31   49.36
 -16  11  -2    1.42   15.37
 -11  16  -2    5.77   18.68
 -16  11  -3  -23.31   19.42
 -11  16  -3  -46.12   33.83
  16  12 -14   -5.16   21.61
  12  16 -13   11.79   21.39
  16  12 -13   36.06   36.92
  12  16 -12   18.09   23.28
  16  12 -12   44.11   27.48
 -16  12  11   26.86   21.15
  12  16 -11   61.06   36.58
  16  12 -11    7.78   18.52
 -12  16  11   19.08   29.02
 -16  12  10   84.09   39.70
  12  16 -10   33.22   28.93
  16  12 -10   80.11   43.44
 -12  16  10   97.37   47.42
 -16  12   9   41.40   28.12
  12  16  -9    5.12   18.34
  16  12  -9   30.13   26.18
 -12  16   9    5.43   17.10
 -16  12   8    1.73   15.28
  12  16  -8  -70.36   46.52
  16  12  -8  -26.58   27.91
 -12  16   8  -20.04   28.28
 -16  12   7   24.17   24.17
  12  16  -7   20.34   25.28
  16  12  -7   17.69   31.83
 -12  16   7   50.32   37.82
 -16  12   6  152.04   45.47
  12  16  -6  127.74   46.95
 -12  16   6  142.38   49.76
 -16  12   5   67.64   34.48
 -12  16   5   90.08   41.92
 -16  12   4  159.36   49.12
 -12  16   4  169.61   54.21
 -16  12   3   32.26   21.73
 -12  16   3   -8.09   15.87
 -16  12   2    5.56   15.07
 -12  16   2  -18.15   24.05
 -16  12   1   54.24   25.10
 -12  16   1    7.35   14.94
 -16  12   0   55.54   29.42
 -12  16   0   52.02   25.81
 -16  12  -1   39.14   20.84
 -12  16  -1   15.16   17.23
 -16  12  -2  -13.37   22.78
 -12  16  -2   13.55   18.34
 -16  12  -3   53.99   30.44
 -12  16  -3   18.95   24.17
  13  16 -13  -10.43   15.96
  16  13 -13   14.45   24.02
  13  16 -12    3.61   20.34
  16  13 -12   87.52   38.90
  13  16 -11   25.35   20.00
  16  13 -11    8.67   13.21
 -13  16  11   41.55   33.80
 -16  13  11   38.03   39.24
 -16  13  10   40.44   25.93
  13  16 -10  124.72   54.73
  16  13 -10   25.41   29.48
 -13  16  10   55.78   33.37
 -16  13   9   10.31   26.49
  13  16  -9  -15.34   22.10
  16  13  -9   23.49   36.06
 -13  16   9   47.97   33.25
 -16  13   8   -7.66   15.37
  13  16  -8   99.31   50.29
  16  13  -8   87.18   45.35
 -13  16   8   52.60   31.55
 -16  13   7  116.66   40.87
  13  16  -7  110.83   39.82
  16  13  -7   66.13   35.81
 -13  16   7  163.77   53.72
 -16  13   6    7.19   14.57
  13  16  -6   -0.37   19.73
  16  13  -6   14.60   33.50
 -13  16   6  -10.37   18.18
 -13  16   5  372.03   80.79
 -16  13   5  380.55   76.13
 -13  16   4   -1.33   26.09
 -16  13   4    3.03   21.15
 -13  16   3   40.53   36.40
 -16  13   3   82.21   37.91
 -13  16   2   29.88   18.43
 -16  13   2   28.49   22.84
 -16  13   1   48.65   23.71
 -13  16   1   26.55   16.24
 -16  13   0   89.59   36.21
 -13  16   0   92.74   39.24
 -16  13  -1   53.90   30.28
 -13  16  -1   29.39   22.50
 -16  13  -2   48.31   28.68
 -13  16  -2   70.85   43.78
 -16  13  -3   29.85   23.34
 -13  16  -3   29.36   26.24
  14  16 -12  144.01   44.33
  16  14 -12   34.70   30.90
  14  16 -11   46.31   33.83
  16  14 -11   18.55   13.15
 -14  16  11   78.51   46.65
 -16  14  11   27.29   27.72
  14  16 -10   35.22   24.23
  16  14 -10   31.64   25.25
 -14  16  10   19.14   22.41
 -16  14  10    6.82   23.86
 -16  14   9   29.67   21.95
  14  16  -9   31.18   24.79
  16  14  -9   42.69   37.82
 -14  16   9   37.51   28.59
 -16  14   8   52.51   23.93
  14  16  -8   29.30   23.68
  16  14  -8   56.12   27.26
 -14  16   8  -26.55   24.67
 -16  14   7   35.44   30.81
  14  16  -7   -4.97   25.10
  16  14  -7   30.19   27.32
 -14  16   7   12.32   22.44
 -14  16   6  262.06   72.21
 -16  14   6  241.75   62.21
  14  16  -6  223.38   62.36
  16  14  -6  230.61   60.75
 -16  14   5   20.10   18.37
  16  14  -5  -20.68   27.07
 -14  16   5   14.94   19.91
 -14  16   4  143.40   50.07
 -16  14   4  185.91   56.31
  16  14  -4  139.81   53.87
 -14  16   3  -18.46   14.88
 -16  14   3   18.40   22.84
 -14  16   2   46.43   27.32
 -16  14   2    2.19   20.47
 -16  14   1   77.27   28.80
 -14  16   1  127.28   63.84
 -16  14   0    8.80   16.70
 -14  16   0   54.70   35.56
 -16  14  -1   98.11   41.77
 -14  16  -1  107.89   44.52
 -16  14  -2    5.53   11.36
 -14  16  -2   35.53   23.59
 -16  14  -3  -13.12   12.56
 -14  16  -3   20.78   24.33
  15  16 -11   40.32   28.31
  16  15 -11  -34.98   23.86
 -15  16  11   26.58   28.59
 -16  15  11   40.07   38.93
  15  16 -10   72.30   40.44
  16  15 -10   22.54   20.71
 -15  16  10   24.39   19.97
 -16  15  10   -5.62   15.37
  15  16  -9  -16.49   15.81
  16  15  -9   36.67   23.71
 -15  16   9   47.36   39.36
 -16  15   9   32.82   29.42
  15  16  -8  -23.00   21.98
  16  15  -8   20.31   17.57
 -15  16   8  -14.54   17.97
 -16  15   8  -19.60   15.37
 -16  15   7   30.41   24.17
  15  16  -7   39.92   32.48
  16  15  -7   33.83   21.24
 -15  16   7   23.15   24.51
 -16  15   6    9.57   17.53
  16  15  -6   -6.02   12.81
 -15  16   6   20.22   22.47
 -16  15   5  120.46   45.72
  16  15  -5  206.13   62.88
 -15  16   5  114.59   47.17
 -15  16   4  -17.16   18.03
 -16  15   4  -14.36   15.74
 -15  16   3  122.96   46.58
 -16  15   3   90.58   37.45
 -15  16   2  -23.15   24.79
 -16  15   2    0.74   22.78
 -16  15   1    6.54   14.76
 -15  16   1  -26.67   24.48
 -16  15   0   40.84   33.31
 -15  16   0   72.02   39.79
 -16  15  -1    1.33   15.74
 -15  16  -1   -2.22   18.52
 -15  16  -2    0.96   18.06
 -16  15  -2   18.68   16.24
  16  16 -10   13.21   16.55
 -16  16  10   -9.35   17.57
  16  16  -9  -23.80   16.11
 -16  16   9   27.78   29.98
  16  16  -8   12.50   12.93
 -16  16   8   19.88   23.77
  16  16  -7  116.48   49.55
 -16  16   7    3.86   17.72
 -16  16   6   21.24   23.31
 -16  16   5  -17.13   18.46
 -16  16   4   -1.14   18.24
 -16  16   3    4.20   18.40
 -16  16   2   55.75   33.77
 -16  16   1  -20.62   17.66
 -16  16   0  -12.63   15.53
 -16  16  -1  -10.19   19.85
 -16  16  -2   35.87   34.88
   0  17   0  219.80   82.95
   0  17  -1  791.78  115.52
   0  17   1 1021.86  150.87
   0  17  -2   73.60   51.89
   0  17   2   -4.51   20.00
   0  17  -3  116.63   50.91
   0  17   3  145.28   56.99
   0  17  -4  114.35   44.05
   0  17   4   52.36   34.11
   0  17   5   66.43   40.10
   0  17   6  118.27   44.21
   0  17  -7   -2.78   15.31
   0  17   7   10.43   23.55
   0  17  -8   -9.45   15.13
   0  17   8   35.90   42.60
 -17   0   8   23.37   26.30
   0  17  -9   69.37   38.99
   0  17   9   51.83   30.56
 -17   0   9   81.31   31.15
 -17   0  10   54.39   36.09
   0  17 -10   25.19   19.45
   0  17  10   40.78   39.21
   0  17 -11  196.52   58.32
   0  17 -12   85.91   40.66
   0  17 -13   41.58   23.46
  17   0 -13   71.99   47.60
  17   0 -14   20.07   27.35
   0  17 -14   34.54   23.86
  17   0 -15  102.55   47.36
   0  17 -15   16.95   24.08
  17   0 -16  175.81   53.96
  17   1 -16   56.22   27.04
   1  17 -16   12.60   25.22
  17   1 -15   96.63   42.48
   1  17 -15   18.15   21.36
  17   1 -14   60.11   37.42
   1  17 -14   17.57   17.84
  17   1 -14    2.44   23.80
   1  17 -13   -6.33   17.91
  17   1 -13   -7.22   25.01
   1  17 -12   46.46   28.80
   1  17 -11   62.67   37.48
 -17   1  11  105.95   49.61
 -17   1  10  128.76   40.72
   1  17 -10  140.12   44.73
  -1  17  10  123.18   50.29
 -17   1   9   69.18   36.12
  -1  17   9   22.81   32.29
   1  17  -9   -7.44   17.47
   1  17  -8   22.94   16.21
  -1  17   8   60.01   42.63
 -17   1   8   43.28   28.49
   1  17  -7    3.03   19.85
  -1  17   7   41.24   34.61
 -17   1   7   43.56   23.52
  -1  17   6   38.65   31.64
 -17   1   6    9.51   12.35
  -1  17   5  136.48   49.98
  -1  17   4   20.78   14.45
   1  17  -3  -27.14   32.75
  -1  17   3   29.61   32.17
   1  17  -2  112.86   43.07
  -1  17   2   70.57   46.80
  -1  17   1  301.36  132.28
   1  17  -1  219.00   69.46
   1  17   0  364.00  102.37
  -1  17   0  407.99   95.45
   1  17   1  -10.59   19.11
  -1  17  -1  123.51   55.60
   1  17   2   54.70   51.80
  -1  17  -2  107.22   39.67
  -1  17  -3   19.70   15.03
   1  17   3   17.69   25.28
  -1  17  -4   37.51   25.28
   1  17   4   30.72   33.37
  -1  17  -5   95.67   45.04
   1  17   5  103.33   50.10
   1  17   6   16.24   19.66
  -1  17  -7   31.15   24.76
   1  17   7   47.70   38.34
  -1  17  -8   27.88   18.89
   1  17   8   35.75   38.84
  -1  17  -9  -11.82   12.44
   1  17   9   25.01   22.72
 -17  -1   9   31.09   23.93
  -1  17 -10  126.48   48.75
 -17  -1  10  244.99   72.92
  -1  17 -11   74.46   37.20
  -1  17 -12   78.94   36.30
  -1  17 -13   24.97   25.59
  -1  17 -14    8.74   14.94
  17  -1 -15   77.49   43.50
  17  -1 -16   17.72   31.03
   2  17 -16  111.54   41.24
  17   2 -16   46.99   35.47
  17   2 -15    1.82   19.26
   2  17 -15  -36.21   24.57
  17   2 -14  -26.95   29.91
   2  17 -14  -22.91   23.59
  17   2 -14   22.63   44.67
   2  17 -13   41.61   28.59
  17   2 -13   95.55   65.88
   2  17 -12   71.59   31.12
   2  17 -11    7.56   28.19
 -17   2  11   21.64   32.01
   2  17 -10   49.98   30.65
  -2  17  10   64.06   32.29
 -17   2  10  105.39   40.35
 -17   2   9  106.63   41.15
   2  17  -9   91.19   38.77
  -2  17   9   38.93   31.06
   2  17  -8  -28.62   28.12
 -17   2   8   43.87   33.22
  -2  17   8    6.14   26.95
   2  17  -7    1.36   12.26
  -2  17   7  -15.96   22.50
  -2  17   6   28.49   26.15
 -17   2   6   37.26   24.02
  -2  17   5   -0.31   23.28
 -17   2   5   22.63   18.24
  -2  17   4  -19.11   34.42
  -2  17   3   36.49   34.61
   2  17  -2   26.73   31.80
  -2  17   2   22.66   33.34
  -2  17   1  953.67  137.38
   2  17  -1  114.78   49.18
   2  17   0  776.00  161.15
  -2  17   0  115.89   53.01
   2  17   1  104.99   47.20
  -2  17  -1  141.27   46.28
   2  17   2   26.24   34.95
  -2  17  -2   35.59   32.07
   2  17   3   13.06   21.08
  -2  17  -3  -24.36   31.09
   2  17   4   -6.61   23.34
  -2  17  -4   -5.31   23.96
  -2  17  -5   69.12   42.48
   2  17   5    9.01   20.75
   2  17   6   45.78   37.48
  -2  17  -7   28.00   16.55
   2  17   7    4.60   15.25
  -2  17  -8  -20.68   14.97
   2  17   8   32.91   32.48
  -2  17  -9   75.26   39.27
 -17  -2   9  146.70   56.59
  -2  17 -10   53.72   33.37
 -17  -2  10   74.77   53.44
  -2  17 -11   38.50   25.53
  -2  17 -12   70.29   30.35
  -2  17 -13  -26.49   11.92
  17  -2 -15  -55.38   35.56
  17  -2 -16   18.71   32.35
   3  17 -16   -8.89   13.37
  17   3 -16   15.44   13.74
  17   3 -15    5.16   20.62
   3  17 -15  -14.69   21.55
  17   3 -15    5.87   27.75
  17   3 -14   -4.85   24.91
   3  17 -14   12.56   10.50
  17   3 -14    9.60   29.39
  17   3 -13   54.02   35.41
   3  17 -13   40.72   31.36
  17   3 -13   64.80   54.46
   3  17 -12   15.50   21.36
  17   3 -12   29.94   53.25
   3  17 -11   87.12   46.34
 -17   3  11   59.40   31.18
  -3  17  10  -19.94   28.28
   3  17 -10  -10.77   15.90
 -17   3  10   -2.53   16.55
 -17   3   9   72.52   42.79
   3  17  -9   33.16   25.13
  -3  17   9   43.50   28.83
 -17   3   8   38.22   28.31
   3  17  -8   13.18   21.24
  -3  17   8   41.12   33.22
 -17   3   7   12.16   13.80
   3  17  -7    4.35   12.16
  -3  17   7   -6.21   27.10
 -17   3   6    2.65   15.31
  -3  17   6  -37.97   19.51
 -17   3   5    3.67   13.40
  -3  17   5  212.21   60.26
  -3  17   4   -4.97   19.36
 -17   3   4   21.79   28.71
  -3  17   3   70.94   40.84
 -17   3   3    7.69   15.65
  -3  17   2   -0.37   12.97
 -17   3   2  -16.52   22.63
  -3  17   1   23.34   35.90
 -17   3   1   26.70   28.83
   3  17   0  268.27  134.01
  -3  17   0  -13.68   24.60
   3  17   1   16.11   29.98
  -3  17  -1   13.52   14.51
 -17   3  -1   54.15   20.50
   3  17   2   49.46   45.94
  -3  17  -2    5.74   13.40
 -17   3  -2   -0.37   12.47
   3  17   3   49.08   28.93
  -3  17  -3   11.70   26.46
 -17   3  -3   52.79   30.32
   3  17   4   30.35   23.09
  -3  17  -4  -14.29   22.57
 -17   3  -4   12.97   22.50
   3  17   5   49.27   26.49
   3  17   6    2.01   23.25
  -3  17  -7   -9.20   17.75
   3  17   7   44.52   30.87
  -3  17  -8   32.88   24.94
  -3  17  -9    3.74   14.82
  -3  17 -10  -10.16   23.03
 -17  -3  10   42.51   43.84
  -3  17 -11   82.21   33.96
  -3  17 -12  -35.38   31.58
  17  -3 -15  -16.70   25.75
  17  -3 -16   33.28   39.45
   4  17 -16   14.29   13.52
   4  17 -15   13.00   20.28
  17   4 -15   27.60   40.38
  17   4 -15    1.85   21.08
  17   4 -14   58.25   30.22
   4  17 -14    3.12   20.34
  17   4 -14   34.88   46.24
  17   4 -13  -19.36   22.81
   4  17 -13  -10.68   22.84
  17   4 -13   -8.89   22.63
  17   4 -12   82.30   48.78
   4  17 -12    9.35   25.96
   4  17 -11   48.16   27.01
  -4  17  11   57.14   34.51
 -17   4  11   81.22   42.48
   4  17 -10   61.03   39.95
  -4  17  10   18.62   22.57
 -17   4  10   37.91   24.97
   4  17  -9   43.19   30.47
  -4  17   9  -18.28   23.71
 -17   4   9    1.42   16.33
 -17   4   8   83.57   37.17
   4  17  -8   23.12   23.65
  -4  17   8   70.45   46.15
 -17   4   7  -13.83   17.38
   4  17  -7   25.81   21.86
  -4  17   7  -41.15   30.96
 -17   4   6   76.81   35.93
  -4  17   6   46.37   33.03
 -17   4   5  -26.67   24.97
  -4  17   5   -3.52   14.08
 -17   4   4  186.71   47.76
  -4  17   4  117.37   49.27
 -17   4   3   -0.31   18.68
  -4  17   3   12.04   28.71
 -17   4   2   98.97   41.27
  -4  17   2   58.62   39.11
 -17   4   1   43.87   32.04
  -4  17   1   29.23   38.03
 -17   4   0  113.94   41.03
  -4  17   0   69.34   41.34
 -17   4  -1   75.45   29.82
  -4  17  -1  129.29   46.68
 -17   4  -2   62.70   23.18
  -4  17  -2  117.71   44.30
 -17   4  -3   14.54   16.24
  -4  17  -3   60.04   56.68
 -17   4  -4  137.93   40.07
  -4  17  -4   48.25   25.35
 -17  -4  10   98.54   51.55
  17  -4 -15   41.09   36.74
  17  -4 -16    8.24   28.52
   5  17 -15    4.63   17.01
  17   5 -15   28.93   37.94
  17   5 -15   78.84   29.82
  17   5 -14   -2.93   13.58
   5  17 -14   43.00   23.15
  17   5 -14  -10.47   31.03
  17   5 -13   24.51   22.81
   5  17 -13   72.82   34.05
  17   5 -13   47.26   40.50
  17   5 -12  127.99   43.10
   5  17 -12   92.80   39.18
  17   5 -12  130.86   64.95
   5  17 -11  -11.48   14.97
 -17   5  11   -0.06   18.12
   5  17 -10   87.89   43.56
  -5  17  10   50.26   30.10
 -17   5  10   72.05   30.13
   5  17  -9   23.74   18.15
  -5  17   9   34.51   27.57
 -17   5   9   90.11   38.50
   5  17  -8   22.50   17.10
  -5  17   8  -40.26   31.83
 -17   5   7  155.99   49.21
   5  17  -7   85.85   38.37
  -5  17   7  146.14   54.80
 -17   5   6   95.45   38.25
  -5  17   6   91.32   51.86
 -17   5   5   84.99   34.17
  -5  17   5   56.37   26.49
 -17   5   4   -3.18   11.02
  -5  17   4    6.45   19.02
 -17   5   3   95.27   38.50
  -5  17   3   94.74   45.81
 -17   5   2   33.09   23.49
  -5  17   2   18.80   24.64
 -17   5   1   33.62   27.07
  -5  17   1   34.82   40.10
 -17   5   0  195.94   48.16
  -5  17   0  166.30   53.01
 -17   5  -1   -1.51   17.75
  -5  17  -1   45.91   35.63
 -17   5  -2   45.63   19.45
  -5  17  -2   47.66   26.24
 -17   5  -3   91.07   24.79
  -5  17  -3   93.42   32.04
 -17   5  -4  -11.39   12.19
  -5  17  -4   17.69   28.62
  17  -5 -15   81.50   66.22
   6  17 -15   63.56   31.12
  17   6 -15   22.07   29.48
   6  17 -14   22.32   23.43
  17   6 -14  -12.10   26.46
  17   6 -14   12.16   16.42
   6  17 -13    1.14   20.31
  17   6 -13  -17.10   32.85
  17   6 -12  -14.76   18.86
   6  17 -12   29.82   15.65
  17   6 -12  -12.75   48.04
  17   6 -11  100.49   39.05
   6  17 -11   96.63   41.55
 -17   6  11   93.76   42.32
  -6  17  11  123.14   59.55
   6  17 -10   51.00   31.06
  -6  17  10   27.01   21.83
 -17   6  10   -6.33   21.67
   6  17  -9   31.03   27.72
  -6  17   9   -0.77   15.19
 -17   6   9   50.94   28.62
   6  17  -8   24.17   13.74
  -6  17   8   44.92   24.82
 -17   6   8   80.08   36.77
   6  17  -7   45.57   30.47
  -6  17   7  108.20   46.74
 -17   6   7   36.09   26.06
  -6  17   6  167.69   57.39
 -17   6   6  194.89   50.50
 -17   6   5   69.83   31.46
  -6  17   5   39.48   28.80
 -17   6   4   42.20   23.77
  -6  17   4    3.33   14.63
 -17   6   3   12.10   11.27
  -6  17   3    3.33   13.46
 -17   6   2   58.07   31.89
  -6  17   2   54.09   39.61
 -17   6   1   18.46   21.76
  -6  17   1   11.82   18.40
 -17   6   0  -20.41   23.77
  -6  17   0   -5.80   17.23
 -17   6  -1   61.19   38.06
  -6  17  -1   52.33   33.99
 -17   6  -2   17.75   17.41
  -6  17  -2   27.66   21.46
 -17   6  -3   -2.50   16.18
  -6  17  -3   14.11   21.61
  -6  17  -4   30.44   26.55
 -17   6  -4   27.51   21.61
  17  -6 -15   38.59   28.77
   7  17 -15   18.86   20.50
  17   7 -15   42.45   47.97
   7  17 -14   10.62   13.21
  17   7 -14   12.63   33.71
   7  17 -13   15.65   18.06
  17   7 -13   25.56   36.92
   7  17 -12   19.73   14.54
  17   7 -12   48.37   43.62
   7  17 -11   26.06   18.09
 -17   7  11   41.92   29.23
  -7  17  11   56.46   36.15
  17   7 -11   64.30   55.60
   7  17 -10  105.58   42.97
 -17   7  10   69.55   34.73
  -7  17  10   78.94   41.09
   7  17  -9  -33.87   38.47
 -17   7   9   12.66   21.76
  -7  17   9  -18.77   28.86
   7  17  -8   10.53   22.01
 -17   7   8    2.62   12.60
  -7  17   8   14.73   22.97
   7  17  -7   48.81   33.90
  -7  17   7   46.92   28.03
 -17   7   7   50.20   25.47
  -7  17   6   69.15   30.19
 -17   7   6  112.28   39.27
  -7  17   5   39.64   33.34
 -17   7   5   85.91   34.17
  -7  17   4  156.49   53.28
 -17   7   4  114.69   37.32
  -7  17   3   10.00   14.97
 -17   7   3   15.07   36.09
 -17   7   2   11.92   13.24
  -7  17   2   23.62   32.79
 -17   7   1    8.37   18.95
  -7  17   1   17.35   31.58
 -17   7   0   86.22   34.67
  -7  17   0   74.74   44.64
  -7  17  -1   16.02   28.93
 -17   7  -1  -10.99   20.10
  -7  17  -2   11.11   20.00
 -17   7  -2    9.91   11.21
  -7  17  -3   25.50   23.15
 -17   7  -3   -8.64   15.84
  -7  17  -4   96.94   43.62
  17  -7 -15   23.62   25.31
   8  17 -14   89.56   43.00
  17   8 -14   47.70   46.92
   8  17 -13   32.32   24.88
  17   8 -13   32.57   49.24
   8  17 -12   57.39   43.87
  17   8 -12   28.31   25.47
 -17   8  11   25.16   27.85
   8  17 -11   57.73   41.00
  -8  17  11   39.33   31.40
  17   8 -11  -31.58   29.98
   8  17 -10   17.81   17.53
 -17   8  10   44.95   29.73
  -8  17  10   63.75   42.54
   8  17  -9    2.41   19.91
 -17   8   9   13.21   17.97
   8  17  -8   -5.19   24.73
 -17   8   8  -18.37   23.34
  -8  17   8    3.64   32.01
   8  17  -7   85.73   42.23
 -17   8   7   86.47   35.25
  -8  17   7   34.39   32.48
 -17   8   6    8.30   18.31
  -8  17   6    3.33   23.37
 -17   8   5  288.92   60.04
  -8  17   5  251.44   68.41
 -17   8   4    5.19   15.13
  -8  17   4   -0.09   20.37
 -17   8   3  276.82   82.52
  -8  17   3  142.84   59.03
  -8  17   2   28.62   35.22
 -17   8   2   34.05   25.93
  -8  17   1  -28.62   27.94
 -17   8   1  -32.07   22.29
  -8  17   0   12.66   24.79
 -17   8   0   17.75   20.56
  -8  17  -1   -1.88   12.16
 -17   8  -1   14.20   11.39
  -8  17  -2   22.10   14.51
 -17   8  -2   17.81   22.13
  -8  17  -3  126.66   66.80
 -17   8  -3   62.24   22.84
  -8  17  -4   19.79   21.27
   9  17 -14   26.98   22.20
  17   9 -14   31.89   34.51
   9  17 -13    7.84   13.89
  17   9 -13   11.39   28.83
   9  17 -12   60.11   26.43
  17   9 -12    6.21   37.32
 -17   9  11  -12.32   19.94
   9  17 -11    1.05   16.86
  17   9 -11   15.28   28.96
  -9  17  11    1.73   13.40
 -17   9  10   17.44   18.18
   9  17 -10   21.24   26.36
  17   9 -10  -16.05   18.55
  -9  17  10   10.56   13.40
   9  17  -9   24.70   28.09
 -17   9   9   60.66   38.47
  -9  17   9   59.15   38.19
   9  17  -8   34.58   31.89
 -17   9   8   58.90   31.49
  -9  17   8   51.09   37.45
   9  17  -7   41.15   38.00
 -17   9   7   14.11   16.33
  -9  17   7   38.93   34.88
 -17   9   6  208.07   51.18
  -9  17   6  189.58   60.54
 -17   9   5   -2.10    9.26
  -9  17   5   56.34   28.80
 -17   9   4  208.72   53.28
  -9  17   4  245.86   67.92
 -17   9   3   15.68   17.78
  -9  17   3   10.96   25.44
 -17   9   2   14.23   19.79
  -9  17   2   22.75   23.46
 -17   9   1   36.95   21.58
  -9  17   1   17.26   20.16
 -17   9   0    6.30   11.30
  -9  17   0   18.21   25.99
 -17   9  -1   13.18   13.37
  -9  17  -1   32.14   32.32
 -17   9  -2  108.23   45.72
  -9  17  -2   37.97   33.77
 -17   9  -3   16.61   10.25
  -9  17  -3  -18.62   20.75
  10  17 -14   -7.90   17.01
  17  10 -14   22.72   33.77
  10  17 -13   26.64   20.59
  17  10 -13   35.10   48.31
  10  17 -12   -1.73   13.03
  17  10 -12    8.21   29.02
 -17  10  11   43.74   36.64
  10  17 -11   50.32   36.09
  17  10 -11   50.72   35.35
 -10  17  11   36.43   32.07
 -17  10  10    4.69   24.48
  10  17 -10    1.73   14.02
  17  10 -10   44.64   41.74
 -10  17  10   -2.50   21.70
 -17  10   9   32.35   25.47
  10  17  -9  -19.05   26.49
  17  10  -9    2.04   28.00
 -10  17   9   -7.90   16.39
 -17  10   8   36.06   21.52
  10  17  -8   13.09   21.73
 -10  17   8   31.09   29.48
  10  17  -7   58.72   34.27
 -17  10   7   76.87   34.48
 -10  17   7  121.85   46.86
 -17  10   6   13.37   14.82
 -10  17   6   68.75   43.81
 -17  10   5   54.06   26.49
 -10  17   5   82.58   38.53
 -17  10   4   25.44   23.77
 -10  17   4    8.24   24.33
 -17  10   3   95.36   36.15
 -10  17   3   54.06   39.58
 -17  10   2   19.23   20.25
 -10  17   2    7.41   15.90
 -17  10   1   28.06   22.57
 -10  17   1   28.03   26.86
 -17  10   0   25.44   19.66
 -10  17   0   27.94   37.32
 -17  10  -1   39.61   29.98
 -10  17  -1   42.05   23.31
 -17  10  -2   17.94   10.93
 -10  17  -2    4.57   16.79
 -17  10  -3  110.06   36.95
 -10  17  -3   96.35   39.45
  11  17 -13  -20.71   16.95
  17  11 -13   32.11   41.40
  11  17 -12   58.35   33.25
  17  11 -12   18.62   21.73
 -17  11  11   62.82   36.86
  11  17 -11   61.59   28.68
  17  11 -11   17.87   15.68
 -11  17  11   55.75   37.69
 -17  11  10   99.44   40.66
  11  17 -10   18.71   19.51
 -11  17  10   60.82   36.49
 -17  11   9   12.26   19.20
  11  17  -9   79.25   40.78
  17  11  -9   38.50   37.63
 -11  17   9   31.83   33.59
 -17  11   8   28.83   22.01
  11  17  -8   33.96   31.40
  17  11  -8   94.25   47.88
 -11  17   8   79.59   42.17
 -17  11   7   81.84   37.57
  11  17  -7   37.88   36.37
 -11  17   7   44.67   28.15
 -17  11   6   -0.15   10.34
 -11  17   6  -30.04   26.36
 -17  11   5   -0.71   11.24
 -11  17   5   40.66   27.81
 -17  11   4   26.49   19.26
 -11  17   4   40.78   33.65
 -17  11   3   -1.36   13.00
 -11  17   3    8.98   23.83
 -17  11   2   47.39   30.38
 -11  17   2   31.89   25.99
 -17  11   1   72.79   38.40
 -11  17   1   75.63   41.98
 -17  11   0   65.91   34.58
 -11  17   0   40.47   31.33
 -17  11  -1   46.15   25.62
 -11  17  -1   83.69   42.05
 -17  11  -2   46.34   28.90
 -11  17  -2   90.48   45.38
 -17  11  -3   78.75   37.48
 -11  17  -3   53.90   37.45
  17  12 -13   14.91   30.47
  12  17 -12  101.57   36.03
  17  12 -12   91.56   38.84
  12  17 -11    4.45   17.41
  17  12 -11   23.71   18.58
 -12  17  11   36.15   30.04
 -17  12  11   18.46   30.59
 -17  12  10   71.03   42.02
  12  17 -10   71.19   32.82
  17  12 -10   86.75   39.21
 -12  17  10  106.07   46.18
 -17  12   9   15.16   24.67
  12  17  -9   58.87   34.61
  17  12  -9  -15.96   20.62
 -12  17   9   51.15   35.84
 -17  12   8   22.20   19.76
  12  17  -8   18.15   20.28
  17  12  -8   53.87   38.74
 -12  17   8   16.30   16.64
 -17  12   7   20.75   18.37
  12  17  -7   68.56   47.26
  17  12  -7   43.96   34.11
 -12  17   7  -21.08   28.68
 -17  12   6   56.90   28.80
 -12  17   6   28.52   27.69
 -17  12   5   19.94   19.63
 -12  17   5   64.43   36.83
 -17  12   4   25.59   26.39
 -12  17   4   22.78   26.73
 -17  12   3  -24.60   24.45
 -12  17   3   15.16   29.82
 -17  12   2   93.51   36.18
 -12  17   2   89.46   42.11
 -17  12   1   54.15   23.62
 -12  17   1   71.84   33.25
 -17  12   0  138.21   48.90
 -12  17   0   84.71   37.38
 -17  12  -1   73.60   36.03
 -12  17  -1   95.24   41.31
 -17  12  -2   78.07   32.07
 -12  17  -2   77.02   33.93
 -17  12  -3   22.38   25.41
 -12  17  -3   38.28   35.22
  13  17 -12   50.13   30.81
  17  13 -12   21.24   24.08
 -13  17  11  164.30   64.18
  13  17 -11  165.93   52.57
  17  13 -11  124.41   50.75
 -17  13  11  109.41   48.22
 -17  13  10   14.60   19.76
  13  17 -10   41.37   31.52
  17  13 -10    0.00   18.31
 -13  17  10   24.76   25.59
 -17  13   9   80.91   36.86
  13  17  -9  199.15   68.41
  17  13  -9  107.86   46.28
 -13  17   9   57.11   30.44
 -17  13   8   -0.96   11.18
  13  17  -8   24.20   27.38
  17  13  -8  -20.93   28.56
 -13  17   8   15.25   20.84
 -17  13   7   15.40   16.27
 -13  17   7   12.38   17.69
 -17  13   6  116.32   43.07
  17  13  -6   95.98   45.66
 -13  17   6  116.04   48.84
 -17  13   5   35.87   26.67
 -13  17   5   15.00   17.38
 -17  13   4   72.27   32.38
 -13  17   4   77.39   38.09
 -17  13   3   14.20   16.02
 -13  17   3    5.37   14.48
 -17  13   2  -11.48   21.42
 -13  17   2  -36.24   29.20
 -17  13   1  263.92   62.30
 -13  17   1  278.86   68.32
 -17  13   0  104.84   39.42
 -13  17   0  106.78   42.39
 -17  13  -1  271.76   62.17
 -13  17  -1  237.95   60.41
 -17  13  -2   -7.87   14.32
 -13  17  -2    9.14   23.40
 -17  13  -3   35.66   15.74
 -13  17  -3   74.28   37.76
  14  17 -11   29.14   25.96
  17  14 -11   32.85   31.46
 -14  17  11   13.74   13.61
 -17  14  11   73.72   42.29
  14  17 -10  114.07   44.08
  17  14 -10   96.47   40.32
 -14  17  10  166.46   55.60
 -17  14  10  150.93   50.20
  14  17  -9   14.08   21.49
  17  14  -9  -39.36   34.54
 -14  17   9   23.28   26.77
 -17  14   9    0.56   13.71
 -17  14   8   43.31   26.95
  14  17  -8   78.07   47.54
  17  14  -8   29.73   21.92
 -14  17   8   88.91   41.55
 -17  14   7   27.72   21.39
  17  14  -7   50.20   37.51
 -14  17   7   20.65   32.60
 -17  14   6   19.08   23.03
  17  14  -6   21.73   28.71
 -14  17   6    7.22   13.98
 -17  14   5  112.03   41.12
  17  14  -5  117.68   49.95
 -14  17   5  104.07   37.17
 -17  14   4    6.73   24.57
  17  14  -4   35.84   35.35
 -14  17   4   18.09   19.05
 -17  14   3   42.17   28.52
 -14  17   3   36.80   22.10
 -17  14   2  114.41   40.29
 -14  17   2   98.63   44.21
 -17  14   1    2.69   12.60
 -14  17   1   -6.14   26.73
 -14  17   0  429.17   83.51
 -17  14   0  432.81   80.60
 -17  14  -1    0.25   20.81
 -14  17  -1   26.36   21.52
 -17  14  -2  125.98   40.66
 -14  17  -2  119.53   41.12
  15  17 -10   -4.07   12.47
  17  15 -10    6.17   11.79
 -17  15  10   -1.11   15.99
  15  17  -9   47.33   30.96
  17  15  -9   81.44   40.75
 -15  17   9   60.88   38.80
 -17  15   9   52.51   37.05
  17  15  -8   11.02   15.68
 -15  17   8   30.72   29.17
 -17  15   8    4.51   13.06
 -17  15   7   13.46   10.84
 -15  17   7   -2.75   14.20
 -17  15   6  -27.32   14.42
  17  15  -6   16.27   18.21
 -15  17   6   17.53   20.13
 -17  15   5    9.69   12.29
 -15  17   5  -35.16   30.96
 -17  15   4   58.22   33.46
 -15  17   4   50.44   32.45
 -17  15   3  -10.65   10.87
 -15  17   3    0.37   15.81
 -17  15   2  -35.96   21.21
 -15  17   2   16.58   26.21
 -17  15   1  197.70   57.20
 -15  17   1  196.06   57.48
 -17  15   0   18.89   18.40
 -15  17   0   13.43   26.83
 -17  15  -1  172.29   52.42
 -15  17  -1  178.90   55.66
 -15  17  -2   22.57   18.77
 -17  15  -2   -9.45   13.49
 -16  17   9   -4.32   14.29
 -17  16   9   -5.83   12.63
  17  16  -8   -1.98   13.06
 -16  17   8    1.27   18.28
 -17  16   8   11.92   21.83
 -16  17   7   11.42   11.55
 -17  16   7   19.42   19.63
 -16  17   6  -23.40   15.47
 -17  16   6   21.05   25.84
 -16  17   5    7.75   20.04
 -17  16   5   20.31   23.43
 -16  17   4   30.01   22.04
 -17  16   4   56.93   31.98
 -16  17   3   27.63   21.55
 -17  16   3    4.11   16.24
 -16  17   2   28.86   25.22
 -17  16   2   52.33   34.73
 -16  17   1    3.55   18.58
 -17  16   1    4.23   13.40
 -16  17   0   38.03   24.23
 -17  16   0   74.24   32.26
 -16  17  -1   36.80   24.57
 -17  16  -1   44.98   30.32
 -16  17  -2   23.96   22.04
 -17  16  -2   60.91   32.17
 -17  17   8   13.77   20.50
 -17  17   7   -2.72   20.31
 -17  17   6   19.20   24.73
 -17  17   5   27.10   25.28
 -17  17   4   18.89   13.55
 -17  17   3   23.25   20.31
 -17  17   2    8.89   15.99
 -17  17   1    6.88   20.34
 -17  17   0   38.87   28.49
 -17  17  -1   -3.61   37.88
   0  18   0  362.33  119.78
   0  18  -1  449.91   95.61
   0  18   1   81.16   49.02
   0  18  -2  324.08   78.91
   0  18   2  222.33   69.95
   0  18  -3   84.34   31.89
   0  18   3   -5.00   19.08
   0  18   4   50.20   31.49
   0  18   5  141.54   65.32
   0  18   6   33.80   35.29
   0  18   7   89.40   38.65
 -18   0   7   74.18   36.64
   0  18  -8   23.06   35.10
   0  18   8   -4.60   14.97
 -18   0   8   28.40   23.89
   0  18  -9   35.69   34.11
   0  18   9   51.31   32.23
 -18   0   9   34.67   33.59
 -18   0  10  159.51   62.54
   0  18 -10  171.52   56.96
   0  18  10   85.73   42.79
   0  18 -11  178.90   53.90
   0  18 -12   82.67   40.29
   0  18 -13   26.09   21.42
  18   0 -14   52.85   38.09
   0  18 -14   78.01   35.44
  18   0 -15  211.10   61.90
  18   1 -15   82.12   43.90
   1  18 -15   21.21   14.14
  18   1 -14   -6.30   16.70
   1  18 -14    7.81   16.86
   1  18 -13   35.04   24.54
  18   1 -13  185.53   76.62
   1  18 -12  142.28   47.79
   1  18 -11   71.25   33.06
 -18   1  11   62.51   54.73
 -18   1  10  146.92   49.58
   1  18 -10  117.06   47.45
  -1  18  10   83.57   44.55
 -18   1   9   98.69   46.62
   1  18  -9   70.23   39.61
  -1  18   9   11.55   20.34
   1  18  -8   76.37   44.39
  -1  18   8   37.17   28.25
 -18   1   8   47.94   32.94
  -1  18   7   33.03   35.87
 -18   1   7   63.84   38.87
  -1  18   6  163.31   59.92
 -18   1   6  169.88   49.18
  -1  18   5  126.32   57.64
  -1  18   4  -21.98   15.59
  -1  18   3   15.59   25.07
   1  18  -2   85.17   48.96
  -1  18   2   10.37   23.31
   1  18  -1  402.40   86.01
  -1  18   1  155.31   71.68
   1  18   0  214.80   85.27
  -1  18   0  219.86   81.38
  -1  18  -1  398.27   83.69
   1  18   1  198.35   76.22
   1  18   2  -38.06   32.11
  -1  18  -2  120.49   42.57
  -1  18  -3   64.09   29.02
   1  18   3   71.65   42.45
  -1  18  -4   11.70   16.05
   1  18   4   -8.49   27.41
   1  18   5  138.92   61.83
   1  18   6  120.95   51.59
   1  18   7    1.45   15.71
  -1  18  -8   33.28   33.87
   1  18   8   12.90   16.30
 -18  -1   8   11.27   25.01
  -1  18  -9   49.86   31.83
   1  18   9   -4.20   25.25
 -18  -1   9   96.32   48.16
  -1  18 -10  114.38   42.29
 -18  -1  10  145.37   62.51
  -1  18 -11   43.96   24.67
  -1  18 -12   88.48   35.66
  -1  18 -13   35.35   27.48
  18  -1 -14   52.05   38.87
  18  -1 -15   43.84   42.02
  18   2 -15   39.67   35.81
   2  18 -15   -6.42    9.97
  18   2 -14   15.59   14.94
   2  18 -14  -10.34   21.12
  18   2 -14   19.33   27.10
  18   2 -13   95.79   47.17
   2  18 -13    4.35   14.20
  18   2 -13   71.71   65.29
   2  18 -12   -8.00   28.68
  18   2 -12   49.52   39.14
   2  18 -11  130.12   45.10
 -18   2  11  160.96   60.23
   2  18 -10  -40.50   18.65
  -2  18  10   -9.66   21.08
 -18   2  10   -7.07   15.25
 -18   2   9   77.86   37.05
   2  18  -9   63.19   32.38
  -2  18   9   26.39   21.36
 -18   2   8   95.82   43.25
   2  18  -8  123.98   46.92
  -2  18   8   -0.40   17.35
 -18   2   7  119.50   37.76
  -2  18   7   40.75   34.17
  -2  18   6   18.15   30.87
 -18   2   6   47.05   32.97
  -2  18   5   37.32   33.53
 -18   2   5   10.13   12.93
  -2  18   4   74.99   43.00
 -18   2   4   74.65   31.21
  -2  18   3   29.94   25.99
  -2  18   2    4.26   17.75
   2  18  -1  304.17   77.92
  -2  18   1   91.53   61.37
   2  18   0  258.51   76.22
  -2  18   0  143.27   59.77
   2  18   1  203.32   65.57
  -2  18  -1  235.27   68.01
   2  18   2   24.23   28.86
  -2  18  -2    3.09   26.12
   2  18   3   19.33   18.65
  -2  18  -3   40.19   35.10
 -18   2  -3   42.63   20.41
   2  18   4   51.71   39.36
  -2  18  -4   79.71   38.50
 -18   2  -4   95.76   35.56
  -2  18  -5  -32.35   32.97
   2  18   5  196.25   69.34
   2  18   6   15.10   27.01
   2  18   7   97.03   41.49
  -2  18  -8  106.94   40.38
  -2  18  -9   30.65   19.60
 -18  -2   9  137.10   57.76
  -2  18 -10   -9.08   22.13
 -18  -2  10   59.92   49.33
  -2  18 -11  173.93   53.41
  -2  18 -12   31.49   22.84
  18  -2 -15    1.27   22.88
  18   3 -15   75.29   38.65
   3  18 -15   31.58   21.36
  18   3 -14   24.79   27.35
   3  18 -14    5.22   11.82
  18   3 -14   13.00   33.12
  18   3 -13   -5.40   24.02
   3  18 -13  -48.78   32.79
  18   3 -13  -10.84   21.21
   3  18 -12   59.49   27.01
  18   3 -12  199.49   82.21
   3  18 -11   20.34   18.92
 -18   3  11   41.46   42.97
   3  18 -10  135.99   43.31
  -3  18  10  121.45   48.47
 -18   3  10  184.89   60.57
   3  18  -9  -17.66   29.30
  -3  18   9   -1.82   19.33
 -18   3   9   -6.85   11.98
 -18   3   8   62.88   32.69
   3  18  -8   22.91   18.86
  -3  18   8   38.43   24.64
 -18   3   7   68.41   38.19
  -3  18   7   29.67   24.57
 -18   3   6   32.35   30.04
  -3  18   6   12.16   30.01
 -18   3   5   48.90   28.77
  -3  18   5   72.42   37.91
 -18   3   4   11.27   12.78
  -3  18   4  -17.97   18.62
  -3  18   3  -47.20   32.79
 -18   3   3   -7.63   17.63
 -18   3   2  192.05   56.65
  -3  18   2  126.76   67.08
  -3  18   1   18.03   34.48
 -18   3   1    8.58   14.11
 -18   3   0  361.41   67.76
  -3  18   0  154.17   65.51
   3  18   1   30.41   37.76
  -3  18  -1   93.32   48.65
 -18   3  -1    6.88   13.95
 -18   3  -2  242.00   54.24
   3  18   2  151.73   78.97
  -3  18  -2  204.92   57.64
   3  18   3   29.17   27.81
  -3  18  -3  -22.07   30.22
 -18   3  -3    1.94   13.37
   3  18   4   25.78   31.46
  -3  18  -4  -26.21   34.21
 -18   3  -4   -0.65   15.25
   3  18   5    8.95   18.49
 -18  -3   9    4.69   22.44
 -18  -3  10  158.55   65.79
  18  -3 -15   26.58   45.44
   4  18 -15   19.79   19.36
  18   4 -14   22.84   17.69
   4  18 -14  -14.48   17.66
  18   4 -14  -21.92   37.91
  18   4 -13  115.27   49.61
   4  18 -13   19.91   10.13
  18   4 -13   59.86   51.71
  18   4 -12   37.45   32.45
   4  18 -12   25.38   16.79
   4  18 -11   15.25   14.73
  -4  18  11   81.25   42.60
 -18   4  11  101.23   48.99
   4  18 -10   25.99   11.79
  -4  18  10  -31.52   31.52
   4  18  -9  147.19   47.39
  -4  18   9  159.91   57.70
 -18   4   9  210.23   56.49
   4  18  -8    1.67   11.95
  -4  18   8   13.52   28.74
 -18   4   8    3.03   15.25
 -18   4   7   88.14   34.79
  -4  18   7  109.99   47.82
 -18   4   6  117.77   39.76
  -4  18   6   79.93   41.43
 -18   4   5   18.95   18.77
  -4  18   5   18.34   14.32
 -18   4   4   15.65   16.86
  -4  18   4    2.84   23.31
 -18   4   3   95.33   37.91
  -4  18   3   74.31   47.17
 -18   4   2   31.74   27.60
  -4  18   2    6.33   23.31
 -18   4   1  303.99   71.90
  -4  18   1  110.89   70.66
 -18   4   0  149.38   42.11
  -4  18   0   46.77   46.06
  -4  18  -1  301.05   69.83
 -18   4  -1  346.81   63.07
 -18   4  -2    2.84   17.38
  -4  18  -2   44.45   26.83
 -18   4  -3   82.58   25.84
  -4  18  -3   96.16   38.99
 -18   4  -4   23.96   13.40
  -4  18  -4   18.99   18.06
 -18  -4  10  122.28   77.27
  18  -4 -15   -4.57   17.23
   5  18 -14   14.94   12.53
  18   5 -14   24.23   42.08
  18   5 -14   27.14   21.36
  18   5 -13  -14.66   11.30
   5  18 -13  -20.87   21.58
  18   5 -13   17.10   42.85
  18   5 -12   32.04   31.46
   5  18 -12   63.22   35.84
  18   5 -12   74.24   58.22
  18   5 -11  177.23   56.56
   5  18 -11  116.26   42.54
  -5  18  11   77.39   47.57
 -18   5  11  143.58   56.03
   5  18 -10  -13.61   21.46
  -5  18  10   11.11   15.84
 -18   5  10   20.07   11.64
   5  18  -9   34.45   26.83
  -5  18   9  -18.00   22.41
 -18   5   9   39.67   29.94
   5  18  -8  115.64   44.70
  -5  18   8  175.69   66.40
 -18   5   8  205.72   53.07
  -5  18   7   25.62   16.79
 -18   5   7   31.80   24.17
 -18   5   6  149.91   46.03
  -5  18   6  116.85   49.02
 -18   5   5  134.47   44.36
  -5  18   5  141.98   53.01
 -18   5   4   17.23   20.93
  -5  18   4   14.66   20.04
 -18   5   3  -15.25   23.40
  -5  18   3   67.79   48.93
 -18   5   2   71.68   32.38
  -5  18   2  102.86   49.55
 -18   5   1   84.31   38.37
  -5  18   1   77.61   47.33
  -5  18   0  269.16   79.46
 -18   5   0  418.52   73.07
 -18   5  -1  107.00   37.60
  -5  18  -1  149.69   52.64
 -18   5  -2  134.01   43.00
  -5  18  -2   63.59   31.06
 -18   5  -3   24.82   40.29
  -5  18  -3   -2.01   18.77
 -18   5  -4    5.50   13.37
  -5  18  -4   29.45   28.68
 -18  -5  10   40.16   54.49
  18  -5 -15   51.43   39.79
   6  18 -14   34.08   24.45
  18   6 -14    8.37   22.17
   6  18 -13   18.71   17.69
  18   6 -13   19.66   44.82
   6  18 -12  132.10   47.66
  18   6 -12  120.86   67.85
   6  18 -11  -13.27   17.63
 -18   6  11    1.94   22.13
   6  18 -10   97.58   48.34
  -6  18  10   81.25   43.74
 -18   6  10   58.44   32.17
   6  18  -9   28.22   23.62
  -6  18   9   90.11   49.21
 -18   6   9  102.99   40.84
   6  18  -8   -9.08   14.02
  -6  18   8   -2.10   18.74
 -18   6   8   -6.54   14.51
  -6  18   7  200.08   65.76
 -18   6   7  202.51   51.59
  -6  18   6  107.83   46.80
 -18   6   6  171.21   47.60
  -6  18   5  115.27   49.49
 -18   6   5  117.68   39.76
 -18   6   4  155.53   42.54
  -6  18   4  147.81   56.00
  -6  18   3  -18.71   21.24
 -18   6   3  189.18   67.36
 -18   6   2   20.47   21.67
  -6  18   2  128.11   86.90
 -18   6   1  127.90   40.22
  -6  18   1   71.50   45.47
 -18   6   0  125.03   38.16
  -6  18   0   50.47   41.24
 -18   6  -1  108.70   38.59
  -6  18  -1   95.24   39.55
 -18   6  -2    1.85   13.95
  -6  18  -2   86.35   37.26
  -6  18  -3   58.56   53.28
 -18   6  -3    3.67   19.14
  -6  18  -4  111.60   53.53
 -18   6  -4  127.93   37.63
   7  18 -14   22.50   23.59
  18   7 -14   10.19   37.91
   7  18 -13   -8.92   11.45
  18   7 -13    5.00   26.49
   7  18 -12   16.08   24.08
  18   7 -12  -14.05   30.10
   7  18 -11   24.11   19.94
 -18   7  11   70.08   43.50
  -7  18  11   40.81   37.38
  18   7 -11  123.48   61.96
   7  18 -10   11.64   13.09
 -18   7  10  -27.35   24.97
  -7  18  10   47.29   35.35
   7  18  -9    7.22   22.23
 -18   7   9   14.48   16.73
  -7  18   9  -30.90   21.36
   7  18  -8   44.73   26.39
  -7  18   8   33.06   28.74
 -18   7   8    8.52   13.64
  -7  18   7   62.67   40.13
 -18   7   7  116.66   43.44
  -7  18   6   34.17   22.78
 -18   7   6   57.42   24.70
  -7  18   5  464.58   93.51
 -18   7   5  489.09   77.52
  -7  18   4   56.25   38.84
 -18   7   4   36.24   19.63
  -7  18   3   21.83   33.90
 -18   7   3   40.07   29.08
  -7  18   2    8.43   13.92
 -18   7   2   18.89   19.39
  -7  18   1  107.86   44.55
 -18   7   1   61.62   28.28
  -7  18   0   18.06   30.84
 -18   7   0   12.81   24.05
  -7  18  -1  108.20   60.35
 -18   7  -1   83.51   33.46
  -7  18  -2  -38.09   27.72
 -18   7  -2   17.10   15.44
  -7  18  -3   42.69   24.94
 -18   7  -3   89.12   33.19
  -7  18  -4   39.24   30.96
  18   8 -14   12.84   35.81
   8  18 -13   15.00   17.38
  18   8 -13   10.77   35.19
   8  18 -12   14.94   17.66
  18   8 -12   17.10   34.51
 -18   8  11   17.94   19.73
   8  18 -11  -15.81   22.88
  -8  18  11   26.55   27.14
  18   8 -11   33.59   24.73
   8  18 -10   38.25   33.28
 -18   8  10   21.12   11.42
  -8  18  10   18.95   16.98
  18   8 -10   26.02   36.61
   8  18  -9   -6.98   13.09
 -18   8   9   24.57   25.31
  -8  18   9   13.18   16.21
   8  18  -8   65.14   29.70
 -18   8   8   53.84   27.48
  -8  18   8   54.86   38.93
 -18   8   7   -1.11   11.55
  -8  18   7   -0.65   25.59
  -8  18   6  328.44   80.54
 -18   8   6  423.03   74.21
  -8  18   5  -37.51   29.73
 -18   8   5   -2.56    9.60
  -8  18   4  531.29   95.92
 -18   8   4  549.10   83.10
  -8  18   3  -22.35   31.15
 -18   8   3    3.86   15.37
  -8  18   2   20.81   32.48
 -18   8   2    5.96   15.93
  -8  18   1   17.81   18.49
 -18   8   1   -4.07   13.40
  -8  18   0   41.34   34.67
 -18   8   0   59.15   33.40
  -8  18  -1    4.14   20.71
 -18   8  -1   25.53   18.89
  -8  18  -2   28.06   22.20
 -18   8  -2   46.95   23.83
  -8  18  -3  -26.86   29.64
 -18   8  -3    7.47   19.23
  -8  18  -4  415.52   80.91
   9  18 -13   13.00   19.76
  18   9 -13    5.83   17.63
   9  18 -12    0.03   13.15
  18   9 -12    3.33   26.15
 -18   9  11   17.91   25.38
   9  18 -11   28.31   14.29
  -9  18  11   30.56   27.97
  18   9 -11   85.79   36.98
 -18   9  10   26.27   25.81
   9  18 -10   -6.82   20.71
  18   9 -10  -14.73   35.07
  -9  18  10   42.11   28.49
   9  18  -9   35.07   26.95
 -18   9   9   14.45   18.40
  -9  18   9   -9.76   17.63
   9  18  -8   31.89   33.59
 -18   9   8   21.58   18.28
  -9  18   8    6.42   23.52
 -18   9   7  261.54   58.19
  -9  18   7  177.82   60.48
 -18   9   6    6.70   14.17
  -9  18   6   -7.66   18.95
  -9  18   5  415.03   87.58
 -18   9   5  422.01   71.81
 -18   9   4    1.14   10.43
  -9  18   4  -16.30   27.94
 -18   9   3  223.91   55.29
  -9  18   3  189.80   59.09
 -18   9   2   16.27   22.29
  -9  18   2   -9.76   17.53
 -18   9   1   15.68   11.73
  -9  18   1   -1.91   20.87
 -18   9   0    8.83   16.36
  -9  18   0   -6.05   19.66
 -18   9  -1   24.14   21.55
  -9  18  -1   11.61   34.36
 -18   9  -2    3.61    8.98
  -9  18  -2    7.50   14.66
 -18   9  -3  226.32   57.45
  -9  18  -3  209.18   60.91
  18  10 -13    6.21   17.47
  10  18 -12   92.89   35.19
  18  10 -12    0.19   22.94
 -18  10  11   89.53   46.80
  10  18 -11   63.47   35.16
  18  10 -11   33.90   33.16
 -10  18  11   71.74   41.92
 -18  10  10   13.03   15.47
  10  18 -10   85.14   38.96
  18  10 -10   37.85   30.22
 -10  18  10   25.47   23.55
 -18  10   9   25.19   23.93
  10  18  -9    1.17   22.69
  18  10  -9   11.48   24.88
 -10  18   9    8.74   15.25
 -18  10   8   66.43   31.86
 -10  18   8   57.30   36.64
 -18  10   7   29.45   20.22
 -10  18   7   46.89   33.77
 -18  10   6  327.23   66.40
 -10  18   6  284.75   72.45
 -18  10   5   23.12   18.49
 -10  18   5  -10.65   15.34
 -10  18   4  284.01   77.79
 -18  10   4  254.28   60.01
 -18  10   3   18.86   18.34
 -10  18   3   -9.88   23.59
 -18  10   2   85.33   35.93
 -10  18   2   57.51   34.61
 -18  10   1    7.56   14.42
 -10  18   1   14.54   15.56
 -18  10   0   18.68   13.27
 -10  18   0   -1.08   16.61
 -18  10  -1   -2.28   16.95
 -10  18  -1    7.75   26.27
 -18  10  -2   98.02   34.54
 -10  18  -2  165.84   45.63
 -18  10  -3   29.45   18.95
 -10  18  -3   17.57   22.23
  11  18 -12   82.58   36.71
  18  11 -12  111.78   59.86
 -18  11  11   18.28   23.00
  11  18 -11   16.08   11.18
  18  11 -11   40.22   28.43
 -11  18  11   10.90   20.07
 -18  11  10   52.42   31.74
  11  18 -10   63.56   35.01
  18  11 -10  114.96   51.93
 -11  18  10   62.33   37.54
 -18  11   9   13.86   15.50
  11  18  -9   36.67   14.36
  18  11  -9   24.08   25.16
 -11  18   9   39.48   23.89
 -18  11   8   -6.58   17.78
  18  11  -8  -48.31   41.65
 -11  18   8  -11.05   22.44
 -18  11   7   56.00   29.33
 -11  18   7   40.16   27.81
 -18  11   6  179.18   48.53
 -11  18   6   99.28   43.68
 -18  11   5   33.40   17.97
 -11  18   5   18.43   20.34
 -18  11   4    9.17   17.23
 -11  18   4   48.75   39.08
 -18  11   3   54.30   33.77
 -11  18   3   16.61   22.57
 -18  11   2  125.09   43.16
 -11  18   2   52.73   35.81
 -18  11   1   29.61   19.85
 -11  18   1   27.60   26.89
 -18  11   0  176.92   49.42
 -11  18   0  144.38   51.03
 -18  11  -1   24.11   22.57
 -11  18  -1   42.48   34.58
 -18  11  -2   45.01   30.75
 -11  18  -2   47.73   21.36
 -18  11  -3   34.05   27.78
 -11  18  -3   20.90   21.02
  18  12 -12   38.40   30.44
 -12  18  11  172.91   63.04
  12  18 -11  171.64   47.36
  18  12 -11  280.22   62.51
 -18  12  11  164.94   56.00
 -18  12  10    2.44   22.10
  12  18 -10   10.68   18.03
  18  12 -10  -13.64   22.20
 -12  18  10   29.67   24.88
 -18  12   9   86.07   34.58
  12  18  -9   84.43   37.35
  18  12  -9   52.70   27.10
 -12  18   9   98.79   41.95
 -18  12   8    7.69   16.52
  18  12  -8  -29.14   32.23
 -12  18   8    8.34   16.79
 -18  12   7   80.48   33.43
  18  12  -7  -10.13   18.68
 -18  12   6    1.48   10.77
 -12  18   6    0.77   21.27
 -18  12   5   28.06   20.53
 -12  18   5    4.82   13.98
 -18  12   4    0.00   13.52
 -12  18   4  -25.25   24.73
 -18  12   3   19.36   25.10
 -12  18   3  -27.94   34.45
 -18  12   2  -14.66   22.94
 -12  18   2   10.25   17.94
 -12  18   1  456.00   90.02
 -18  12   1  426.24   78.51
 -18  12   0  137.93   47.54
 -12  18   0  130.49   53.84
 -12  18  -1  416.57   84.80
 -18  12  -1  385.83   72.76
 -18  12  -2   16.64   21.79
 -12  18  -2    4.63   17.41
 -12  18  -3   42.57   23.18
  18  13 -11   63.29   33.31
  13  18 -10  239.31   56.52
 -13  18  10  177.11   66.31
 -18  13  10  194.46   60.48
  18  13 -10  169.98   56.15
 -18  13   9   24.91   31.49
  18  13  -9   -7.04   17.16
 -13  18   9   -8.37   15.03
 -18  13   8   68.56   35.75
  18  13  -8   52.60   44.79
 -13  18   8   58.13   34.51
 -18  13   7   36.03   26.21
  18  13  -7   11.24   24.73
 -13  18   7    9.01   15.87
 -18  13   6   15.40   21.46
  18  13  -6    2.32   30.81
 -13  18   6   46.06   32.35
 -18  13   5    6.30   16.11
 -13  18   5  -12.29   24.17
 -18  13   4   42.97   30.62
 -13  18   4   30.69   32.29
 -18  13   3   -1.82   12.97
 -13  18   3    8.71   20.31
 -18  13   2  233.66   56.86
 -13  18   2  210.45   63.93
 -18  13   1   -5.65   23.71
 -13  18   1   25.81   26.21
 -13  18   0  570.28   98.88
 -18  13   0  595.38   91.32
 -18  13  -1   37.85   31.55
 -13  18  -1   98.60   35.04
 -18  13  -2  214.34   54.30
 -13  18  -2  237.89   63.10
  18  14 -10   51.89   35.32
 -14  18  10    4.75   17.29
 -18  14  10    4.79   16.08
  18  14  -9   83.35   35.01
 -14  18   9  132.25   47.70
 -18  14   9  132.00   43.62
 -18  14   8   21.67   21.02
  18  14  -8  -20.37   13.12
 -14  18   8  -17.81   25.72
 -18  14   7    7.69   18.09
 -14  18   7  -16.61   15.84
 -18  14   6   -5.56   12.29
  18  14  -6   43.03   37.48
 -14  18   6  -13.31   26.49
 -18  14   5   23.06   24.45
  18  14  -5   24.17   17.35
 -14  18   5  -20.34   14.51
 -18  14   4   11.48   17.26
  18  14  -4   -8.06   20.81
 -14  18   4   36.30   30.59
 -18  14   3   71.16   35.35
 -14  18   3   61.22   40.56
 -18  14   2  -32.57   21.12
 -14  18   2   -4.94   22.04
 -14  18   1  459.02   89.46
 -18  14   1  453.68   78.84
 -18  14   0   62.92   35.32
 -14  18   0  117.12   46.52
 -14  18  -1  473.68   89.90
 -18  14  -1  433.31   79.52
 -18  14  -2   22.50   29.05
 -14  18  -2   48.68   23.77
  18  15  -9    7.72   21.58
 -15  18   9   14.45   19.17
 -18  15   9   32.60   24.64
  18  15  -8   90.05   38.62
 -15  18   8   26.80   21.83
 -18  15   8   28.65   25.59
  18  15  -7    2.07   19.82
 -15  18   7   14.94   19.23
 -18  15   7   18.09   22.75
 -18  15   6   38.62   25.62
  18  15  -6   40.47   29.36
 -15  18   6   10.90   19.20
 -18  15   5   -1.85   10.56
 -15  18   5   -6.33   16.89
 -18  15   4  -15.65   23.34
 -15  18   4   27.54   22.75
 -18  15   3  -32.45   16.86
 -15  18   3  -44.86   32.82
 -18  15   2  156.73   48.62
 -15  18   2  203.75   59.80
 -18  15   1   -2.69   16.58
 -15  18   1    0.56   21.89
 -15  18   0  454.85   88.54
 -18  15   0  386.69   77.95
 -15  18  -1   27.97   23.43
 -18  15  -1   45.47   35.41
 -15  18  -2  181.00   54.95
 -18  15  -2  139.63   41.43
 -16  18   8  -13.68   22.01
 -18  16   8   18.89   24.64
 -16  18   7    3.06   15.07
 -18  16   7   17.63   22.38
 -16  18   6   31.61   27.26
 -18  16   6   12.01   10.06
 -16  18   5   12.44   21.95
 -18  16   5   18.15    9.82
 -16  18   4   11.61   20.62
 -18  16   4   -5.68   18.80
 -16  18   3   -0.28   13.15
 -18  16   3    2.87   17.38
 -16  18   2  -16.11   16.89
 -18  16   2  -25.35   24.36
 -16  18   1  175.04   52.76
 -18  16   1  141.17   43.53
 -16  18   0   26.33   22.41
 -18  16   0    5.71   19.11
 -16  18  -1  265.21   71.81
 -18  16  -1  277.01   74.40
 -17  18   7    6.70    9.66
 -18  17   7   26.67   31.09
 -17  18   6   11.27   18.43
 -18  17   6   38.40   24.73
 -17  18   5   98.42   36.64
 -18  17   5  155.13   42.57
 -17  18   4  -11.61   24.33
 -18  17   4  -12.13   13.98
 -17  18   3    5.37   15.74
 -18  17   3   58.41   18.62
 -17  18   2   -1.23   15.47
 -18  17   2   -1.79   11.05
 -17  18   1   19.54   20.41
 -18  17   1   -0.43   10.68
 -17  18   0   39.42   23.83
 -18  17   0   48.07   32.17
 -17  18  -1   80.54   33.83
 -18  17  -1   35.90   24.88
 -18  18   5  -23.74   22.38
 -18  18   4  147.50   47.26
 -18  18   3  -28.71   15.34
 -18  18   2   28.80   30.72
 -18  18   1   26.21   26.92
 -18  18   0   95.95   38.96
   0  19   0  284.63   80.79
   0  19  -1  272.50   81.65
   0  19   1  121.42   55.88
   0  19  -2   93.42   51.18
   0  19   2   16.76   27.07
   0  19  -3  101.75   40.10
   0  19   3  110.39   44.18
   0  19   4   77.79   39.89
   0  19   5  147.50   58.93
   0  19   6  337.45   81.56
 -19   0   6  389.65   78.01
   0  19   7   35.90   37.20
 -19   0   7   15.71   29.02
   0  19   8   50.38   34.48
 -19   0   8   -5.87   25.47
   0  19  -9   88.23   39.79
 -19   0   9  128.58   42.23
   0  19   9   79.99   39.45
 -19   0  10  186.21   71.65
   0  19 -10  131.11   45.20
   0  19 -11   99.74   48.28
   0  19 -12  136.91   47.57
  19   0 -12  122.62   80.17
   0  19 -13   53.65   28.99
  19   0 -14   41.43   24.17
  19   1 -14   62.82   32.32
   1  19 -14   40.90   21.52
  19   1 -13   45.44   36.77
   1  19 -13   39.55   25.35
  19   1 -13   46.12   47.70
   1  19 -12   64.46   39.51
  19   1 -12  101.16   74.03
   1  19 -11  182.26   52.76
 -19   1  11  306.67   85.64
   1  19 -10   54.15   33.00
  -1  19  10   55.07   33.71
 -19   1  10  130.15   61.34
   1  19  -9   45.60   30.07
  -1  19   9  -18.77   31.36
 -19   1   8   68.66   35.25
  -1  19   8    2.10   18.55
  -1  19   7  141.76   54.98
 -19   1   7  180.75   53.68
  -1  19   6   40.16   39.21
 -19   1   6  106.17   45.69
  -1  19   5  129.75   53.81
 -19   1   5  175.84   51.28
  -1  19   4  146.42   54.49
 -19   1   4  264.32   61.46
  -1  19   3  -13.74   21.64
  -1  19   2  244.75   79.12
   1  19  -1  532.65  102.21
  -1  19   1  281.79   78.66
   1  19   0  437.20  101.66
  -1  19   0  383.54   90.82
  -1  19  -1  428.37   90.45
   1  19   1  280.90   76.93
   1  19   2   93.54   49.58
  -1  19  -2  281.82   68.26
  -1  19  -3   26.73   20.44
   1  19   3  -45.87   35.87
   1  19   4  153.15   58.35
 -19   1  -4  167.17   42.85
   1  19   5  151.76   58.93
   1  19   6   66.09   40.90
   1  19   7  157.72   58.28
 -19  -1   7  195.32   58.22
   1  19   8   13.98   33.83
 -19  -1   8   46.06   22.60
  -1  19  -9   18.89   23.86
 -19  -1   9   75.57   43.78
  -1  19 -10   73.01   33.83
 -19  -1  10   87.40   57.11
  -1  19 -11  220.57   57.67
  19  -1 -14   84.62   40.72
  19   2 -14   17.84   24.05
   2  19 -14  -12.72    9.54
  19   2 -13   72.45   38.09
   2  19 -13   18.46   12.19
  19   2 -13   38.16   56.71
   2  19 -12  116.72   41.43
  19   2 -12  173.22   83.23
   2  19 -11    0.96   27.04
 -19   2  11   74.37   57.30
   2  19 -10  194.58   57.27
  -2  19  10   94.28   42.45
 -19   2  10  241.97   63.13
 -19   2   9   33.19   52.11
   2  19  -9   38.03   31.33
  -2  19   9  -33.37   26.18
 -19   2   8  -28.22   26.21
  -2  19   8  -15.19   22.35
 -19   2   7  118.76   46.06
  -2  19   7   87.27   39.45
 -19   2   6  193.90   55.69
  -2  19   6  163.96   64.40
  -2  19   5   32.41   27.29
 -19   2   5   57.98   32.57
  -2  19   4   27.66   20.37
 -19   2   4   34.73   24.42
  -2  19   3   58.99   36.27
 -19   2   3   38.77   19.94
 -19   2   2  471.25   94.59
  -2  19   2  798.32  127.44
  -2  19   1   40.22   39.39
 -19   2   1   45.38   26.67
   2  19   0  407.07   95.18
  -2  19   0  281.76   86.65
 -19   2   0  446.43   74.31
   2  19   1  287.07  116.94
  -2  19  -1  162.35   64.43
   2  19   2   27.60   24.26
  -2  19  -2  181.34   60.63
 -19   2  -2  187.20   44.95
   2  19   3   29.30   26.21
  -2  19  -3   63.81   39.79
 -19   2  -3   31.09   23.12
   2  19   4   15.37   28.15
  -2  19  -4   45.69   20.19
 -19   2  -4   28.56   14.02
   2  19   5   24.97   22.01
   2  19   6  149.82   58.78
 -19  -2   8  -29.45   16.70
 -19  -2   9   29.39   39.05
 -19  -2  10  229.77   77.98
  19  -2 -14   -6.85   25.13
  19   3 -14   32.20   25.62
   3  19 -14   11.27   16.33
  19   3 -14   10.25   14.42
  19   3 -13   73.38   40.84
   3  19 -13   37.14   23.86
  19   3 -13   73.66   64.52
  19   3 -12    8.43   29.23
   3  19 -12   13.18   18.28
  19   3 -12   24.48   48.87
   3  19 -11   87.83   38.16
 -19   3  11  221.62   67.36
   3  19 -10   -4.54   13.49
  -3  19  10   -1.36   23.00
 -19   3  10   12.84   20.56
   3  19  -9  121.08   44.11
  -3  19   9  123.39   51.34
 -19   3   9  152.29   43.50
 -19   3   8   24.94   35.19
  -3  19   8    9.66   28.56
 -19   3   7   15.53   22.04
  -3  19   7   -8.37   20.53
 -19   3   6  235.42   59.06
  -3  19   6  146.67   53.99
 -19   3   5   68.78   33.80
  -3  19   5   19.17   21.24
 -19   3   4   57.42   28.49
  -3  19   4   -1.57   22.94
  -3  19   3   45.13   34.05
 -19   3   3   18.83   21.24
  -3  19   2   10.43   85.42
 -19   3   2  -23.06   25.13
 -19   3   1  666.38   94.28
  -3  19   1  485.35   96.87
  -3  19   0  107.71   58.84
 -19   3   0  -15.25   10.68
 -19   3  -1  663.14   93.69
  -3  19  -1  547.68   97.61
  -3  19  -2   82.49   50.10
 -19   3  -2  -20.78   24.70
  -3  19  -3   50.20   41.31
 -19   3  -3   14.42   15.84
 -19   3  -4   24.08   17.87
  -3  19  -4   59.77   31.27
 -19  -3   9  176.43   59.58
 -19  -3  10  106.63   67.61
   4  19 -14   40.90   24.02
  19   4 -14   10.22   21.67
  19   4 -13   29.08   25.13
   4  19 -13   -0.40   17.78
  19   4 -13   21.61   41.21
  19   4 -12  145.96   50.72
   4  19 -12   80.73   34.92
  19   4 -12   44.08   39.95
   4  19 -11   63.50   33.83
  -4  19  11   15.78   20.19
 -19   4  11   86.96   48.47
   4  19 -10   87.55   34.92
  -4  19  10   61.16   35.07
 -19   4  10  107.34   45.16
   4  19  -9   38.03   32.20
  -4  19   9  -16.61   24.14
 -19   4   9    0.12   19.91
  -4  19   8   99.16   49.49
 -19   4   8  113.42   38.47
 -19   4   7   89.28   42.14
  -4  19   7   90.27   42.23
 -19   4   6   25.22   23.40
  -4  19   6  -13.09   16.82
  -4  19   5  168.12   63.29
 -19   4   5  244.99   58.99
 -19   4   4   32.11   21.15
  -4  19   4  -37.35   39.67
 -19   4   3   11.76   17.60
  -4  19   3   11.33   24.51
 -19   4   2  209.06   51.34
  -4  19   2  167.32   63.10
 -19   4   1   94.06   39.58
  -4  19   1   57.57   37.35
  -4  19   0  448.03  105.08
 -19   4   0  743.53  100.39
 -19   4  -1   70.36   30.99
  -4  19  -1  189.83   68.75
 -19   4  -2  158.80   44.08
  -4  19  -2  132.47   47.48
 -19   4  -3   -9.60    9.20
  -4  19  -3   12.19   23.31
 -19   4  -4   39.45   22.35
  -4  19  -4   24.91   35.72
 -19  -4   9   30.32   45.38
 -19  -4  10  114.44   71.74
  19   5 -14  352.15  136.45
   5  19 -13   26.21   22.78
  19   5 -13   29.14   43.31
  19   5 -12   94.93   35.32
   5  19 -12   94.28   38.74
  19   5 -12   89.25   64.89
  19   5 -11  109.50   40.66
   5  19 -11   47.20   23.59
  -5  19  11   18.86   28.83
 -19   5  11   81.01   49.70
   5  19 -10   68.72   29.23
  -5  19  10   81.75   40.22
 -19   5  10  112.68   39.27
   5  19  -9   41.12   26.64
  -5  19   9   40.87   34.48
 -19   5   9  112.68   40.16
  -5  19   8   32.51   36.43
 -19   5   8    9.63   18.58
  -5  19   7  169.05   63.13
 -19   5   7  192.88   56.40
  -5  19   6  187.51   64.58
 -19   5   6  173.74   50.47
 -19   5   5    9.54   18.24
  -5  19   5    8.61   22.38
 -19   5   4  161.39   45.87
  -5  19   4  120.30   45.69
 -19   5   3    0.96   12.32
  -5  19   3  -53.25   33.09
 -19   5   2   83.07   36.52
  -5  19   2   25.90   20.93
  -5  19   1  229.96   78.72
 -19   5   1  405.00   72.70
 -19   5   0  204.74   53.59
  -5  19   0  101.20   67.48
  -5  19  -1  410.74   85.23
 -19   5  -1  410.24   72.45
 -19   5  -2   74.62   24.17
  -5  19  -2  134.72   43.16
 -19   5  -3   -1.17   14.73
  -5  19  -3   46.68   31.74
  -5  19  -4  127.59   50.75
 -19  -5  10  124.19   70.69
   6  19 -13   34.51   26.95
  19   6 -13   23.34   37.57
   6  19 -12    7.81   16.45
  19   6 -12   35.96   54.80
   6  19 -11  216.07   60.79
  -6  19  11  142.87   58.81
 -19   6  11  172.88   61.83
  19   6 -11  267.25   83.69
   6  19 -10   -7.16   15.47
  -6  19  10   14.42   17.81
 -19   6  10   32.82   22.91
  -6  19   9   -5.03   19.05
 -19   6   9   18.03   16.64
  -6  19   8   80.20   40.63
 -19   6   8   69.15   29.42
  -6  19   7   94.28   38.65
 -19   6   7  111.60   37.38
  -6  19   6   23.89   18.40
 -19   6   6   55.07   28.83
  -6  19   5  342.08   81.10
 -19   6   5  505.27   82.77
  -6  19   4   14.54   13.61
 -19   6   4   61.77   32.20
 -19   6   3   28.68   22.81
  -6  19   3   18.62   26.77
 -19   6   2   37.23   16.08
  -6  19   2   11.67   14.91
  -6  19   1  184.92   61.53
 -19   6   1  266.14   59.40
 -19   6   0  109.81   36.58
  -6  19   0   99.68   47.23
  -6  19  -1  215.05   59.95
 -19   6  -1  286.39   59.64
  -6  19  -2   56.19   30.28
 -19   6  -2    8.77   13.71
  -6  19  -3  -11.18   16.86
 -19   6  -3    0.49   19.70
  -6  19  -4   83.78   42.29
 -19  -6  10   85.17   65.42
   7  19 -13    8.83   19.42
  19   7 -13  -13.68   20.50
   7  19 -12   24.26   22.07
  19   7 -12   20.65   32.82
   7  19 -11    2.84   12.38
 -19   7  11  -15.10   23.40
  -7  19  11  -22.13   29.17
  19   7 -11    7.16   27.23
 -19   7  10   87.67   33.19
  -7  19  10   30.81   27.07
  -7  19   9   51.25   34.70
 -19   7   9   15.53   17.29
  -7  19   8   47.08   28.56
 -19   7   8   16.33   17.78
  -7  19   7  -27.78   35.04
 -19   7   7   35.69   27.32
  -7  19   6  461.03   94.40
 -19   7   6  507.55   81.84
  -7  19   5  -13.37   21.12
 -19   7   5   40.66   25.16
  -7  19   4  402.40   89.03
 -19   7   4  464.95   75.97
  -7  19   3   -5.37   22.88
 -19   7   3   54.39   27.66
  -7  19   2   36.34   36.30
 -19   7   2   -2.10   13.58
  -7  19   1   35.10   28.15
 -19   7   1   25.56   25.44
  -7  19   0  269.63   71.93
 -19   7   0  317.94   63.47
  -7  19  -1  110.64   50.23
 -19   7  -1   25.65   23.46
  -7  19  -2   40.53   26.61
 -19   7  -2   -7.84   14.73
  -7  19  -3   26.43   26.06
 -19   7  -3   47.70   24.73
  -7  19  -4  343.96   74.92
  19   8 -13    3.89   16.33
   8  19 -12   37.01   24.82
  19   8 -12   28.59   39.73
 -19   8  11   28.12   29.76
   8  19 -11   23.99   24.48
  -8  19  11  -10.87   23.93
  19   8 -11   10.74   29.98
   8  19 -10   -5.80   14.60
 -19   8  10   13.43   23.09
  -8  19  10   22.91   26.02
  19   8 -10   -7.93   23.65
 -19   8   9  -31.36   17.01
  -8  19   9  -27.10   26.49
 -19   8   8    6.88   18.18
  -8  19   8   -4.69   18.03
 -19   8   7  328.81   64.67
  -8  19   7  270.34   72.92
  -8  19   6   17.94   17.60
 -19   8   6    8.21   19.45
  -8  19   5  541.17  101.75
 -19   8   5  564.35   86.69
  -8  19   4  -25.41   30.35
 -19   8   4   35.66   38.37
  -8  19   3  170.44   48.25
 -19   8   3  196.74   50.41
  -8  19   2   15.84   25.75
 -19   8   2  -35.63   27.38
  -8  19   1  143.06   61.65
 -19   8   1  158.77   46.12
  -8  19   0    4.72   20.00
 -19   8   0  -17.69   18.58
  -8  19  -1  108.57   42.73
 -19   8  -1  163.31   46.83
  -8  19  -2   38.53   31.27
 -19   8  -2   26.73   15.65
  -8  19  -3  207.11   59.70
 -19   8  -3  178.25   47.23
  19   9 -13    9.42   27.32
   9  19 -12   31.64   21.89
  19   9 -12    2.41   26.86
 -19   9  11   31.77   28.31
   9  19 -11   89.16   34.79
  -9  19  11   17.94   30.41
  19   9 -11   58.13   48.13
 -19   9  10   -6.17   19.08
   9  19 -10   -3.43    9.57
  -9  19  10  -13.31   20.62
  19   9 -10    2.69   30.13
 -19   9   9  -29.39   21.39
  -9  19   9   28.06   18.83
 -19   9   8   88.57   35.47
  -9  19   8  127.53   51.55
 -19   9   7   30.28   29.14
  -9  19   7   10.93   21.27
  -9  19   6  572.87  105.39
 -19   9   6  609.21   90.17
 -19   9   5   29.70   15.84
  -9  19   5   26.58   23.83
  -9  19   4  531.88  100.24
 -19   9   4  659.65   93.42
 -19   9   3  -19.57   21.27
  -9  19   3   -4.07   20.65
 -19   9   2   25.41   17.04
  -9  19   2   41.06   33.03
 -19   9   1   18.99   20.07
  -9  19   1  -34.76   37.76
 -19   9   0   88.57   33.31
  -9  19   0   81.41   38.71
 -19   9  -1    1.88   10.65
  -9  19  -1   43.74   28.15
 -19   9  -2   32.29   24.26
  -9  19  -2    1.30   18.31
 -19   9  -3    0.19   17.20
  -9  19  -3  -10.90   29.42
  19  10 -12   49.02   49.21
 -19  10  11   22.50   25.44
  10  19 -11   51.09   29.88
 -10  19  11    6.73   20.90
  19  10 -11  -14.82   27.51
 -19  10  10   62.79   34.73
 -10  19  10   51.83   31.49
  19  10 -10   93.69   47.17
 -19  10   9   34.61   27.20
  19  10  -9   25.84   29.82
 -10  19   9   23.03   23.40
 -19  10   8    5.16   18.86
 -10  19   8  -14.26   14.08
 -19  10   7  187.94   51.49
 -10  19   7  171.37   52.64
 -19  10   6   96.90   34.61
 -10  19   6   70.29   38.09
 -10  19   5  408.27   87.74
 -19  10   5  415.83   72.58
 -19  10   4   40.41   28.03
 -10  19   4   82.55   38.56
 -19  10   3  182.32   46.03
 -10  19   3   91.75   44.30
 -19  10   2   43.81   31.55
 -10  19   2   40.50   29.54
 -19  10   1    6.48   12.19
 -10  19   1   49.52   32.69
 -19  10   0   51.46   30.35
 -10  19   0   16.76   14.29
 -19  10  -1    0.93   16.42
 -10  19  -1   33.28   27.94
 -19  10  -2    6.51   16.33
 -10  19  -2   51.18   27.41
 -19  10  -3   90.14   35.04
 -10  19  -3  122.74   48.25
 -19  11  11  198.87   61.62
 -11  19  11  165.38   53.93
  19  11 -11   83.44   49.52
 -19  11  10    2.90   13.52
  19  11 -10  -22.32   15.62
 -11  19  10   14.20   17.66
 -19  11   9   39.30   27.35
  19  11  -9   70.45   46.71
 -11  19   9   15.78   18.37
 -19  11   8   54.27   27.66
  19  11  -8   71.93   33.37
 -11  19   8   31.40   21.89
 -19  11   7   18.31   23.15
 -11  19   7   29.54   31.86
 -19  11   6   95.89   38.25
 -11  19   6  135.99   51.00
 -19  11   5   74.15   36.61
 -11  19   5  108.30   43.47
 -19  11   4  123.18   44.05
 -11  19   4  115.03   44.05
 -19  11   3   10.93   18.77
 -11  19   3   -6.54   22.66
 -19  11   2   34.33   25.16
 -11  19   2   41.37   31.52
 -19  11   1  279.72   62.33
 -11  19   1  270.03   70.20
 -19  11   0  -28.12   19.66
 -11  19   0   64.52   28.56
 -19  11  -1  241.07   56.37
 -11  19  -1  216.22   64.21
 -19  11  -2    5.19   23.83
 -11  19  -2   28.06   26.27
 -11  19  -3   12.44   26.80
  19  12 -11  -30.47   25.38
 -19  12  10  153.46   52.14
  19  12 -10  153.21   51.40
 -12  19  10  156.73   55.78
 -19  12   9   30.28   28.93
  19  12  -9   82.36   42.39
 -12  19   9   13.46   21.30
 -19  12   8   -2.13   13.21
 -12  19   8   -8.46   15.47
 -19  12   7   14.66   11.33
  19  12  -7   30.38   30.53
 -12  19   7   26.09   26.02
 -19  12   6   45.26   27.97
 -12  19   6   57.02   34.08
 -19  12   5   -3.77   12.13
 -12  19   5   52.76   28.06
 -19  12   4   46.28   23.99
 -12  19   4   24.76   32.41
 -19  12   3  -16.64   13.12
 -12  19   3    9.48   24.23
 -19  12   2  137.16   45.72
 -12  19   2  165.90   55.32
 -19  12   1  -20.62   20.87
 -12  19   1    1.11   18.09
 -12  19   0  569.76   96.60
 -19  12   0  615.14   92.86
 -19  12  -1   32.48   29.39
 -12  19  -1   97.09   39.61
 -19  12  -2  155.62   46.34
 -12  19  -2  190.07   62.54
 -19  13  10  569.20  105.95
  19  13 -10   33.83   29.94
 -19  13   9  169.48   55.81
  19  13  -9   91.63   39.45
 -13  19   9  122.53   48.99
 -19  13   8    4.35   15.53
  19  13  -8  -13.80   28.19
 -13  19   8   -5.22   11.61
 -19  13   7   -5.99   14.11
  19  13  -7   18.15   38.40
 -13  19   7    6.76   21.27
 -19  13   6   21.58   14.66
  19  13  -6   25.04   18.65
 -13  19   6  -28.15   25.81
 -19  13   5   33.25   25.72
  19  13  -5   74.00   39.02
 -13  19   5   40.81   31.77
 -19  13   4   16.27   17.87
 -13  19   4   14.48   22.63
 -19  13   3   29.76   26.89
 -13  19   3   26.06   27.48
 -19  13   2  -30.65   18.06
 -13  19   2   34.14   27.72
 -13  19   1  617.39  104.84
 -19  13   1  548.45   86.87
 -19  13   0   50.88   29.05
 -13  19   0  119.78   44.89
 -13  19  -1  547.25   94.16
 -19  13  -1  548.15   86.10
 -19  13  -2    5.16   11.64
 -13  19  -2   -0.83   16.73
  19  14  -9   -9.29   16.67
 -14  19   9   -2.25   14.63
 -19  14   9    4.20   21.52
  19  14  -8   70.14   37.63
 -14  19   8   24.57   32.29
 -19  14   8   40.53   30.32
 -19  14   7   17.16   15.84
  19  14  -7   25.04   17.13
 -14  19   7   44.33   33.25
 -19  14   6   32.94   21.33
 -14  19   6   28.77   14.91
 -19  14   5   -5.59    9.63
  19  14  -5  -11.33   20.00
 -14  19   5    4.04   21.02
 -19  14   4   18.06   17.01
 -14  19   4   13.12   15.37
 -19  14   3    4.79   16.58
 -14  19   3    5.22   13.03
 -14  19   2  262.84   70.42
 -19  14   2  274.20   62.30
 -19  14   1    5.28   18.40
 -14  19   1  -23.55   19.57
 -14  19   0  572.94   94.90
 -19  14   0  558.02   87.24
 -19  14  -1   29.39   25.87
 -14  19  -1  100.49   48.65
 -19  14  -2  274.97   57.64
 -14  19  -2  245.58   58.75
 -15  19   8    3.15   19.26
 -19  15   8   19.63   24.17
 -15  19   7    8.52   16.98
 -19  15   7   15.00   20.87
 -15  19   6    2.93   15.13
 -19  15   6   16.98   12.81
 -19  15   5   54.70   30.28
 -15  19   5   -5.59   22.91
 -19  15   4  -11.18   28.03
 -15  19   4   15.37   22.10
 -19  15   3   63.81   32.26
 -15  19   3   36.95   28.40
 -19  15   2  -19.63   20.04
 -15  19   2  -18.92   14.08
 -15  19   1  403.14   79.12
 -19  15   1  383.73   73.20
 -15  19   0   57.39   30.01
 -19  15   0   43.93   34.11
 -15  19  -1  551.60   95.36
 -19  15  -1  513.20   85.54
 -16  19   7   11.58   15.47
 -19  16   7   30.16   30.44
 -16  19   6   34.85   22.54
 -19  16   6    8.80   12.56
 -16  19   5   37.85   20.00
 -19  16   5   62.92   37.79
 -16  19   4   28.43   25.16
 -19  16   4   14.79   16.98
 -16  19   3    2.32   11.45
 -19  16   3   29.85   14.42
 -16  19   2  106.91   44.05
 -19  16   2   96.60   40.22
 -16  19   1   26.30   20.87
 -19  16   1   -6.70   14.02
 -16  19   0  304.76   64.67
 -19  16   0  305.90   62.48
 -16  19  -1   82.30   37.88
 -19  16  -1   64.71   34.17
 -17  19   5   27.35   19.02
 -19  17   5    0.28   15.68
 -17  19   4   98.11   41.21
 -19  17   4  131.42   45.78
 -17  19   3   13.34   27.29
 -19  17   3    1.76   17.29
 -17  19   2   12.69   22.44
 -19  17   2   34.98   26.39
 -17  19   1   89.65   41.03
 -19  17   1  114.41   39.98
 -17  19   0   32.32   26.39
 -19  17   0    5.43   14.91
   0  20   0  251.41   74.62
   0  20  -1  316.06   78.78
   0  20   1  280.77   78.97
   0  20  -2  159.05   59.33
   0  20   2   54.02   41.52
   0  20   3  -12.97   15.34
   0  20   4   67.33   33.19
 -20   0   5  471.93   86.01
   0  20   5  361.99   88.17
   0  20   6    5.87   35.75
 -20   0   6   18.43   21.70
   0  20   7  183.22   61.16
 -20   0   7  285.77   68.87
   0  20   8    5.37   16.39
 -20   0   8  136.94   54.06
 -20   0   9   26.89   27.97
 -20   0  10   70.63   46.18
  20   0 -12   97.18   59.46
  20   0 -13   73.53   38.31
  20   1 -13   56.74   27.88
   1  20 -12   68.75   27.97
  20   1 -12  130.77   73.20
   1  20 -11  124.16   52.85
 -20   1  11  134.35   70.88
 -20   1  10  162.07   55.78
 -20   1   9   -3.64   13.24
  -1  20   9   24.91   35.04
 -20   1   8   38.47   35.47
  -1  20   8  -43.19   32.32
  -1  20   7  -10.22   20.59
 -20   1   7   34.14   24.76
 -20   1   6  411.51   79.49
  -1  20   6  301.27   79.52
  -1  20   5   13.77   31.30
 -20   1   5   23.99   26.92
  -1  20   4   56.77   31.64
 -20   1   4   75.51   29.64
  -1  20   3    5.62   15.13
 -20   1   3   69.61   30.96
  -1  20   2   56.46   39.51
 -20   1   2   93.23   34.95
  -1  20   1   73.97   46.95
   1  20   0  329.52   88.01
  -1  20   0  290.34   74.40
   1  20   1   31.15   35.75
  -1  20  -1  251.29   72.73
   1  20   2  115.49   50.66
  -1  20  -2   97.37   42.57
 -20   1  -2   97.55   36.03
  -1  20  -3   55.26   36.06
   1  20   3    6.79   26.21
 -20   1  -3   59.80   31.52
   1  20   4   48.81   31.80
 -20   1  -4   87.06   32.20
   1  20   5   24.26   18.86
   1  20   6  280.06   75.14
 -20  -1   6  446.55   83.29
   1  20   7   44.55   30.59
 -20  -1   7   33.62   28.09
 -20  -1   8    1.33   23.83
 -20  -1   9    6.36   23.12
 -20  -1  10  167.97   69.92
  20   2 -13   45.10   33.00
   2  20 -13   -4.14   12.26
  20   2 -13   35.78   49.18
   2  20 -12   16.89   25.75
  20   2 -12   38.25   83.88
   2  20 -11  208.97   54.36
 -20   2  11  215.85   71.07
  -2  20  10    0.90   14.20
 -20   2  10   13.98   21.15
  -2  20   9   42.76   36.06
 -20   2   9  112.34   42.97
 -20   2   8  -31.89   28.62
  -2  20   8   18.18   26.33
 -20   2   7   55.91   32.32
  -2  20   7   56.74   40.10
 -20   2   6  126.73   43.31
  -2  20   6  156.36   60.75
  -2  20   5  180.19   64.34
 -20   2   5  210.94   53.90
  -2  20   4   38.34   32.57
 -20   2   4   -6.82   23.99
  -2  20   3   10.56   42.42
 -20   2   3   -1.30   15.44
  -2  20   2    2.32   14.42
 -20   2   2   20.37   22.29
 -20   2   1  378.97   71.81
  -2  20   1  222.12   74.68
  -2  20   0   83.04   36.06
 -20   2   0   31.49   26.73
 -20   2  -1  368.04   69.83
  -2  20  -1  304.02   73.41
  -2  20  -2   59.36   39.67
 -20   2  -2    0.43   11.30
   2  20   3  -29.76   22.78
  -2  20  -3    8.24   20.53
 -20   2  -3   -3.46   15.74
   2  20   4   40.35   34.67
 -20   2  -4    8.24   17.10
 -20  -2   7   88.63   43.74
 -20  -2   8  -31.12   27.60
 -20  -2   9   13.15   16.61
 -20  -2  10   14.29   49.42
  20   3 -13   47.14   30.32
   3  20 -13   -9.32   12.04
  20   3 -13   11.30   39.18
  20   3 -12   81.59   42.79
   3  20 -12   75.82   32.35
  20   3 -12  124.44   77.58
   3  20 -11   70.36   43.47
 -20   3  11   38.13   42.45
  -3  20  10   61.06   32.32
 -20   3  10  170.84   59.92
  -3  20   9   -5.31   13.95
 -20   3   9   46.00   39.79
  -3  20   8   15.71   21.52
 -20   3   8   32.57   23.86
 -20   3   7   13.43   22.47
  -3  20   7   70.91   34.17
 -20   3   6   31.58   18.89
  -3  20   6   40.75   32.17
 -20   3   5  232.24   56.09
  -3  20   5  184.89   63.13
 -20   3   4    3.70   12.93
  -3  20   4   97.03   52.57
 -20   3   3   -6.76   10.13
  -3  20   3   21.83   20.13
 -20   3   2  131.11   44.61
  -3  20   2   82.80   40.75
  -3  20   1  -26.70   33.43
 -20   3   1   47.08   32.26
  -3  20   0  450.07   89.37
 -20   3   0  527.28   84.96
  -3  20  -1  158.31   52.33
 -20   3  -1   60.57   30.56
  -3  20  -2   96.94   44.73
 -20   3  -2  103.85   34.21
 -20   3  -3   -5.87    8.80
  -3  20  -3    3.43   20.84
 -20   3  -4   29.11   12.60
  -3  20  -4   56.56   27.54
 -20  -3   8   41.95   26.58
 -20  -3   9   -0.71   16.55
 -20  -3  10  130.40   64.34
  20   4 -13   64.06   56.09
  20   4 -12   54.89   31.95
   4  20 -12   61.43   28.06
  20   4 -12   47.11   52.73
  20   4 -11  103.54   39.36
 -20   4  11  111.17   46.15
  -4  20  10   35.90   21.92
 -20   4  10   97.46   42.11
  -4  20   9   94.28   40.69
 -20   4   9  120.15   46.46
  -4  20   8  -28.28   25.84
 -20   4   8    0.65   16.02
  -4  20   7   -7.75   21.83
 -20   4   7   15.25   15.87
 -20   4   6  136.60   40.78
  -4  20   6   79.40   40.10
 -20   4   5  -34.27   26.52
  -4  20   5   -6.67   16.11
 -20   4   4  101.97   41.49
  -4  20   4  117.40   50.97
 -20   4   3  -20.84   22.10
  -4  20   3   -8.83   15.84
 -20   4   2   94.84   36.00
  -4  20   2  100.24   47.33
  -4  20   1  255.15   79.37
 -20   4   1  372.80   73.47
 -20   4   0  201.65   54.52
  -4  20   0  264.29   67.92
  -4  20  -1  351.84   75.14
 -20   4  -1  363.57   66.53
 -20   4  -2  117.31   37.69
  -4  20  -2  178.93   61.77
 -20   4  -3   22.04   22.69
  -4  20  -3   66.74   45.01
  -4  20  -4  105.61   42.14
 -20  -4   9   91.47   48.16
 -20  -4  10   41.89   65.63
  20   5 -13  519.16  150.99
   5  20 -12   47.05   25.90
  20   5 -12   60.32   56.09
 -20   5  11  163.80   59.46
  20   5 -11  129.87   89.53
  -5  20  10   39.14   28.83
 -20   5  10   40.38   36.27
  -5  20   9   50.01   33.80
 -20   5   9   68.56   32.82
  -5  20   8   91.47   46.89
 -20   5   8   52.20   29.48
  -5  20   7   19.11   23.03
 -20   5   7   84.83   35.84
  -5  20   6   32.26   35.10
 -20   5   6   28.34   25.10
 -20   5   5  216.00   51.80
  -5  20   5  236.63   69.98
 -20   5   4   38.80   35.96
  -5  20   4  -25.31   30.41
 -20   5   3   11.67   11.95
  -5  20   3   56.74   46.58
 -20   5   2   94.96   38.50
  -5  20   2   60.20   42.51
  -5  20   1  290.10   82.12
 -20   5   1  430.96   75.42
 -20   5   0  201.06   53.78
  -5  20   0  283.83   69.43
  -5  20  -1  401.45   82.46
 -20   5  -1  375.42   70.79
 -20   5  -2   91.78   33.40
  -5  20  -2  156.92   55.01
  -5  20  -3  -14.45   25.31
 -20   5  -3    4.69   14.51
  -5  20  -4   19.73   31.64
 -20  -5   9   86.53   56.74
 -20  -5  10  123.18   77.49
  20   6 -13   12.29   29.05
  20   6 -12   90.17   63.50
  -6  20  11  -19.29   30.93
 -20   6  11   18.18   23.03
  20   6 -11   -6.33   18.95
  -6  20  10   64.06   37.20
 -20   6  10  139.29   51.15
  -6  20   9   56.62   35.63
 -20   6   9   14.57   21.76
  -6  20   8   26.95   34.45
 -20   6   8   18.46   11.18
  -6  20   7   53.44   40.01
 -20   6   7   41.55   26.55
  -6  20   6  217.46   64.77
 -20   6   6  307.26   64.55
  -6  20   5   13.46   18.06
 -20   6   5   -8.95   16.27
  -6  20   4  216.75   62.67
 -20   6   4  248.67   59.64
  -6  20   3   28.59   29.05
 -20   6   3   23.86   17.63
  -6  20   2   42.79   29.64
 -20   6   2   42.08   24.91
  -6  20   1   44.39   25.44
 -20   6   1   55.29   27.57
  -6  20   0  523.08  101.66
 -20   6   0  593.43   88.04
  -6  20  -1  207.21   65.32
 -20   6  -1   56.22   31.61
  -6  20  -2   16.24   16.79
 -20   6  -2   51.03   22.78
  -6  20  -3   87.70   44.76
 -20   6  -3   59.77   29.54
  -6  20  -4  143.74   48.44
  20   7 -12    0.62   18.89
 -20   7  11  141.85   53.16
  -7  20  11   45.87   38.90
  20   7 -11   72.36   61.59
 -20   7  10    4.97   18.21
  -7  20  10    9.45   27.78
  20   7 -10  -23.22   38.09
  -7  20   9    4.72   16.02
 -20   7   9   24.94   26.21
  -7  20   8   39.08   37.57
 -20   7   8   11.48   20.19
  -7  20   7   97.40   42.97
 -20   7   7  166.06   46.77
  -7  20   6   11.92   22.72
 -20   7   6   12.10   20.10
  -7  20   5  375.64   85.08
 -20   7   5  451.43   77.18
  -7  20   4   90.05   50.35
 -20   7   4    4.69   16.82
  -7  20   3   55.91   39.30
 -20   7   3   64.86   32.85
  -7  20   2   21.58   23.25
 -20   7   2   23.93   23.77
  -7  20   1  247.18   66.37
 -20   7   1  270.12   57.45
  -7  20   0   71.71   34.24
 -20   7   0   10.50   22.72
  -7  20  -1  187.45   59.12
 -20   7  -1  221.62   52.94
  -7  20  -2   20.53   18.89
 -20   7  -2   17.26   15.96
  -7  20  -3   36.18   25.44
 -20   7  -3   39.95   32.48
  20   8 -12  -12.63   28.77
 -20   8  11   18.83   17.97
  -8  20  11  -15.62   19.26
  20   8 -11   -1.54   16.89
 -20   8  10   14.51   28.74
  -8  20  10   32.48   31.18
  20   8 -10   -1.02   19.08
 -20   8   9   45.26   28.40
  -8  20   9    4.38   21.64
 -20   8   8   19.82   19.26
  -8  20   8    2.56   21.95
 -20   8   7    5.00   12.84
  -8  20   7   30.47   28.09
  -8  20   6  514.53   98.76
 -20   8   6  534.47   85.98
  -8  20   5    8.21   21.89
 -20   8   5    8.80   17.66
  -8  20   4  367.12   82.80
 -20   8   4  350.51   67.58
  -8  20   3  -27.60   31.15
 -20   8   3   -5.62   10.77
  -8  20   2   22.94   25.68
 -20   8   2    5.90   12.72
  -8  20   1  -20.65   18.43
 -20   8   1   -6.64   15.84
  -8  20   0  207.36   59.77
 -20   8   0  213.84   54.33
  -8  20  -1  110.02   49.05
 -20   8  -1   17.44   18.55
  -8  20  -2   19.45   25.62
 -20   8  -2    4.51   11.08
  -8  20  -3   24.79   18.34
 -20   8  -3    6.76   19.17
  20   9 -12    3.70   23.80
 -20   9  11   51.86   37.54
  20   9 -11    7.25   14.97
 -20   9  10   22.84   29.54
  -9  20  10   11.48   13.34
  20   9 -10   24.30   19.85
 -20   9   9   -3.46   13.27
  -9  20   9  -23.06   32.17
  20   9  -9   -8.58   35.22
 -20   9   8   15.40   17.60
  -9  20   8   10.59   20.71
 -20   9   7  213.13   54.09
  -9  20   7  213.63   62.08
 -20   9   6   64.30   31.03
  -9  20   6   66.40   40.72
  -9  20   5  474.49   93.26
 -20   9   5  543.73   82.55
 -20   9   4   49.76   25.68
  -9  20   4   50.20   37.63
 -20   9   3   75.23   31.40
  -9  20   3   57.94   36.06
 -20   9   2  -13.80   16.86
  -9  20   2   -2.65   21.08
 -20   9   1   48.50   31.92
  -9  20   1   20.65   32.29
 -20   9   0   31.86   23.18
  -9  20   0   16.27   25.78
 -20   9  -1   44.55   23.77
  -9  20  -1   29.36   22.35
 -20   9  -2    4.75   13.18
  -9  20  -2  -15.68   17.57
 -20   9  -3   91.44   31.52
  -9  20  -3   93.45   37.48
  20  10 -11   36.58   43.84
 -20  10  10   17.66   20.50
 -10  20  10   10.43   13.34
  20  10 -10  -18.65   26.89
 -20  10   9   22.32   27.48
 -10  20   9   23.77   25.50
  20  10  -9   -6.05   24.76
 -20  10   8   41.06   25.16
 -10  20   8   65.79   35.56
  20  10  -8   93.01   41.31
 -20  10   7   43.07   24.64
 -10  20   7   52.39   32.32
 -20  10   6  213.38   50.01
 -10  20   6  204.34   63.35
 -20  10   5  131.17   40.81
 -10  20   5   71.25   38.09
 -20  10   4  250.33   56.96
 -10  20   4  243.63   71.37
 -20  10   3  -15.00   23.43
 -10  20   3    3.98   24.17
 -20  10   2   -4.94   10.19
 -10  20   2   30.62   28.49
 -20  10   1   90.79   40.16
 -10  20   1   39.92   34.21
 -20  10   0    3.64   14.05
 -10  20   0   56.03   34.42
 -20  10  -1   45.50   27.51
 -10  20  -1   29.48   25.68
 -20  10  -2   21.76   23.74
 -10  20  -2  -21.39   27.35
 -10  20  -3    7.69   14.32
 -20  11  10   64.80   36.86
 -11  20  10   46.86   32.79
  20  11 -10   74.00   40.22
 -20  11   9   15.07   13.95
 -11  20   9    8.77   17.04
 -20  11   8    6.67   23.00
  20  11  -8  -17.41   28.90
 -11  20   8   23.28   23.46
 -20  11   7   20.56   16.15
  20  11  -7   88.60   45.23
 -11  20   7   52.17   37.11
 -20  11   6  122.40   43.71
 -11  20   6   93.11   41.77
 -20  11   5   96.29   39.14
 -11  20   5   95.79   42.82
 -20  11   4   91.59   37.57
 -11  20   4   86.50   44.61
 -20  11   3   53.47   27.44
 -11  20   3   -0.06   27.01
 -20  11   2   71.16   26.21
 -11  20   2   57.73   38.53
 -20  11   1  -16.86   20.28
 -11  20   1    4.85   53.75
 -20  11   0  228.23   54.83
 -11  20   0  199.95   60.85
 -20  11  -1  -10.34   14.94
 -11  20  -1    8.92   16.76
 -20  11  -2   58.62   26.67
 -11  20  -2   46.28   30.62
 -20  12   9   39.55   27.78
  20  12  -9   37.14   27.04
 -12  20   9   69.65   32.48
 -20  12   8   -1.73    9.48
  20  12  -8   -1.67   17.20
 -12  20   8  -15.31   26.18
 -20  12   7   16.02   19.79
  20  12  -7   -2.53   22.38
 -12  20   7   -3.40   15.90
 -20  12   6   18.83   16.70
  20  12  -6   -1.02   14.23
 -12  20   6   -4.97   27.38
 -20  12   5  129.10   40.69
 -12  20   5  123.45   41.58
 -20  12   4   14.57   16.18
 -12  20   4   -3.30   12.29
 -20  12   3    9.35   18.28
 -12  20   3   49.39   33.59
 -20  12   2    3.06   12.93
 -12  20   2   -4.48   13.80
 -20  12   1  319.61   65.97
 -12  20   1  289.63   69.12
 -20  12   0   14.60   30.04
 -12  20   0   53.78   35.56
 -12  20  -1  303.37   73.60
 -20  12  -1  366.01   73.69
 -20  12  -2    1.05   14.76
 -12  20  -2   33.34   28.49
 -20  13   9   -7.16   16.64
 -20  13   8    8.61   15.84
  20  13  -8   20.28   10.84
 -13  20   8   -0.96   17.23
 -20  13   7    6.36   12.04
 -13  20   7   10.16   19.79
 -20  13   6  115.15   40.72
  20  13  -6   39.45   22.97
 -13  20   6  107.46   42.51
  20  13  -5    0.80   19.45
 -13  20   5  -16.52   14.17
 -20  13   4   58.47   31.70
  20  13  -4   21.83   18.89
 -13  20   4   19.70   23.22
 -20  13   3  -17.29   19.48
 -13  20   3   42.82   30.81
 -20  13   2  188.31   52.05
 -13  20   2  200.35   61.12
 -20  13   1   46.37   31.89
 -13  20   1   65.45   37.82
 -13  20   0  582.20   94.74
 -20  13   0  589.33   88.91
 -20  13  -1    6.33   20.04
 -13  20  -1  142.50   49.76
 -13  20  -2  181.74   52.08
 -14  20   8   26.52   26.77
 -20  14   8   36.77   30.81
 -20  14   7   12.66   23.65
 -14  20   7  -23.93   22.60
 -20  14   6  -12.81   18.65
  20  14  -6   34.98   24.11
 -14  20   6   21.49   21.86
 -20  14   5   66.68   27.97
 -14  20   5   75.05   37.20
 -20  14   4    0.56   15.10
 -14  20   4   -6.92   14.20
 -20  14   3   34.70   22.63
 -14  20   3   51.06   24.36
 -20  14   2  -25.31   24.45
 -14  20   2   -4.41   23.28
 -14  20   1  432.35   82.64
 -20  14   1  502.55   80.45
 -20  14   0   45.41   32.85
 -14  20   0  136.08   48.07
 -14  20  -1  439.29   77.61
 -20  14  -1  415.55   74.00
 -15  20   7   13.77   17.94
 -20  15   7  -11.98   20.34
 -15  20   6   23.40   17.32
 -20  15   6   37.45   20.56
 -15  20   5   21.18   19.91
 -20  15   5   26.27   31.43
 -20  15   4   14.97   17.32
 -15  20   4   22.20   29.85
 -20  15   3   15.62   13.31
 -15  20   3   51.00   26.30
 -20  15   2  116.32   42.97
 -15  20   2  165.01   52.02
 -15  20   1   20.50   21.02
 -20  15   1  -19.45   17.10
 -15  20   0  338.35   69.71
 -20  15   0  345.76   66.00
 -15  20  -1   93.54   35.90
 -20  15  -1   40.72   27.14
 -16  20   5   57.30   31.09
 -20  16   5   85.14   34.98
 -16  20   4   30.13   22.57
 -20  16   4   -1.27   16.02
 -16  20   3   29.64   26.89
 -20  16   3  -12.81   17.66
 -16  20   2   35.22   28.46
 -20  16   2  -43.93   28.03
 -16  20   1  100.89   34.48
 -20  16   1  123.89   38.87
 -16  20   0   60.04   35.53
 -20  16   0   36.67   25.96
   0  21   0  231.32   68.13
   0  21   1   99.78   50.26
   0  21   2   60.48   46.74
 -21   0  -2   33.28   20.68
 -21   0  -3   35.56   16.86
 -21   0   3   34.85   27.60
 -21   0  -4  230.27   51.40
 -21   0   4  317.94   67.67
   0  21   4  252.80   71.99
   0  21   5    6.14   22.41
 -21   0   5   62.64   45.72
 -21   0   6  481.99   86.90
   0  21   6  323.90   77.70
   0  21   7   50.57   33.80
 -21   0   7   44.61   35.07
 -21   0   8    8.37   25.04
 -21   0   9   -8.77   19.76
 -21   0  10   42.08   37.69
  21   1 -12   75.79   55.97
 -21   1  10   41.46   32.82
 -21   1   9    1.88   19.26
 -21   1   8   29.48   25.53
  -1  21   8   19.88   21.24
 -21   1   7  130.40   48.28
  -1  21   7  196.25   61.65
  -1  21   6   34.02   30.35
 -21   1   6   33.31   29.36
  -1  21   5  369.06   86.01
 -21   1   5  423.24   79.40
  -1  21   4  -36.71   22.94
 -21   1   4  -16.11   20.37
  -1  21   3    9.63   23.31
 -21   1   3   91.29   39.67
  -1  21   2  -13.00   19.45
 -21   1   2   32.07   20.90
  -1  21   1   82.33   50.29
 -21   1   1  136.85   48.07
  -1  21   0   93.23   48.59
 -21   1   0  113.88   39.55
  -1  21  -1  137.75   57.08
 -21   1  -1   99.99   37.91
  -1  21  -2   36.58   13.80
 -21   1  -2   10.84    9.23
   1  21   3   29.73   19.02
 -21   1  -3   51.62   25.41
   1  21   4    8.24   23.99
 -21   1  -4   49.64   25.22
 -21  -1   5  501.13   89.34
 -21  -1   6   70.39   43.74
 -21  -1   7  133.02   50.10
 -21  -1   8   45.13   39.45
 -21  -1   9    4.97   17.35
 -21  -1  10   29.05   36.40
  21   2 -12   62.11   36.64
  21   2 -12   60.66   57.42
 -21   2  11   87.06   50.10
 -21   2  10   72.79   47.51
  -2  21   9    1.42   22.07
 -21   2   9    6.39   20.65
 -21   2   8   29.88   26.73
  -2  21   8   -3.09   21.08
 -21   2   7   38.03   24.64
  -2  21   7  -37.79   29.33
 -21   2   6  209.34   58.93
  -2  21   6  187.66   63.38
 -21   2   5   87.61   37.88
  -2  21   5   -5.59   18.46
  -2  21   4   77.58   39.11
 -21   2   4  164.64   51.25
  -2  21   3    1.42   15.28
 -21   2   3   43.44   26.80
  -2  21   2   18.65   20.00
 -21   2   2   12.38   13.18
  -2  21   1   -5.99   15.03
 -21   2   1    6.36   23.46
  -2  21   0  122.87   50.84
 -21   2   0  183.28   48.04
  -2  21  -1   91.78   48.28
 -21   2  -1    0.31   18.21
  -2  21  -2   -3.06   23.03
 -21   2  -2   19.02   20.71
 -21   2  -3   22.41   17.91
 -21   2  -4   82.80   28.43
 -21  -2   6  270.58   65.79
 -21  -2   7   17.35   24.26
 -21  -2   8    8.30   16.30
 -21  -2   9  -12.22   26.83
 -21  -2  10   98.60   49.33
  21   3 -12   11.27   32.07
  21   3 -11   48.90   28.40
 -21   3  11   48.99   45.35
  21   3 -11   58.99   53.53
  -3  21  10   44.49   38.93
 -21   3  10   30.87   39.08
  -3  21   9   -7.84   17.78
 -21   3   9   30.44   19.88
  -3  21   8   32.11   24.02
 -21   3   8   37.85   24.54
 -21   3   7   20.34   14.79
  -3  21   7  -18.65   26.24
 -21   3   6    4.85   12.29
  -3  21   6   -0.59   20.31
 -21   3   5   94.43   40.84
  -3  21   5  105.05   52.23
 -21   3   4   60.01   29.23
  -3  21   4    4.32   28.77
 -21   3   3   -2.81   15.37
  -3  21   3    3.86   14.63
 -21   3   2   79.68   32.14
  -3  21   2   36.12   22.13
 -21   3   1  139.07   45.72
  -3  21   1   72.92   34.85
 -21   3   0  120.21   41.31
  -3  21   0  141.30   50.29
 -21   3  -1  130.74   48.00
  -3  21  -1  100.55   48.50
 -21   3  -2   89.50   33.06
  -3  21  -2   95.14   41.77
 -21   3  -3   -3.24   14.60
  -3  21  -3   -2.93   13.58
 -21  -3   7   16.67   22.29
 -21  -3   8   14.82   14.54
 -21  -3   9   20.84   25.41
 -21  -3  10   86.19   58.41
  21   4 -12    6.30   24.64
 -21   4  11  115.46   47.82
  21   4 -11   67.42   55.10
  -4  21  10   15.56   31.43
 -21   4  10   49.05   35.69
  -4  21   9   51.46   32.66
 -21   4   9   91.93   37.91
  -4  21   8   12.26   27.10
 -21   4   8  -14.73   24.85
  -4  21   7   -1.88   13.80
 -21   4   7  -13.55   20.93
  -4  21   6   21.21   26.49
 -21   4   6   -6.64   20.34
 -21   4   5   71.44   32.45
  -4  21   5   60.48   46.77
 -21   4   4   -5.71   15.99
  -4  21   4   -0.90   23.77
 -21   4   3   -8.49   13.52
  -4  21   3   52.79   37.91
 -21   4   2   55.26   29.79
  -4  21   2   65.11   38.34
  -4  21   1  204.30   62.17
 -21   4   1  303.22   65.51
 -21   4   0  105.70   38.09
  -4  21   0  196.25   60.14
  -4  21  -1  240.24   68.78
 -21   4  -1  284.38   59.83
 -21   4  -2   63.01   33.19
  -4  21  -2   61.03   36.64
 -21   4  -3    5.59   15.50
  -4  21  -3  -21.05   19.85
  -4  21  -4   -0.62   13.15
 -21  -4   8   33.40   35.66
 -21  -4   9   77.02   44.67
 -21  -4  10   56.25   56.34
  21   5 -12   77.79   54.12
 -21   5  11   12.22   23.28
  21   5 -11   -3.95   29.42
  -5  21  10   71.81   48.75
 -21   5  10  145.77   59.40
  -5  21   9   70.97   29.33
 -21   5   9   24.14   18.03
  -5  21   8   13.92   14.02
 -21   5   8   33.93   23.09
  -5  21   7  -10.09   16.36
 -21   5   7   31.40   24.14
  -5  21   6   77.30   33.31
 -21   5   6   97.95   39.24
  -5  21   5   -5.74   16.64
 -21   5   5   -8.92    9.91
  -5  21   4   77.73   38.56
 -21   5   4   58.50   29.94
 -21   5   3   30.38   25.31
  -5  21   3   57.33   39.61
 -21   5   2   80.26   30.16
  -5  21   2   79.62   37.54
 -21   5   1   56.43   26.15
  -5  21   1   37.20   18.21
  -5  21   0  543.61   97.43
 -21   5   0  586.12   87.30
  -5  21  -1  203.56   61.99
 -21   5  -1   40.04   24.02
  -5  21  -2   85.79   46.68
 -21   5  -2   64.15   28.86
  -5  21  -3   63.44   38.43
 -21   5  -3   39.24   20.10
  -5  21  -4   49.76   31.33
 -21  -5   8   19.66   27.63
 -21  -5   9   42.82   37.26
 -21  -5  10  176.49   78.04
  21   6 -12   43.37   39.70
 -21   6  11  160.44   49.33
  21   6 -11  177.05   81.38
  -6  21  10   25.87   25.99
 -21   6  10    9.63   12.84
  21   6 -10  -12.38   34.14
  -6  21   9   61.56   45.97
 -21   6   9   95.95   33.46
  -6  21   8  -11.82   15.44
 -21   6   8   11.82   13.27
  -6  21   7  -21.02   21.24
 -21   6   7   35.22   38.77
  -6  21   6  -35.75   21.95
 -21   6   6  -22.60   19.66
  -6  21   5  139.57   54.02
 -21   6   5  178.19   50.32
  -6  21   4    5.68   15.59
 -21   6   4    6.27   15.00
  -6  21   3   33.74   27.17
 -21   6   3  -10.09   16.89
  -6  21   2   23.83   52.14
 -21   6   2    9.60   17.53
  -6  21   1  246.29   67.85
 -21   6   1  332.11   65.20
  -6  21   0   82.39   40.66
 -21   6   0    5.19   14.29
  -6  21  -1  290.53   66.56
 -21   6  -1  288.67   61.19
  -6  21  -2   94.31   36.67
 -21   6  -2   10.43   22.91
  -6  21  -3  -29.23   22.10
 -21   6  -3   -8.43   12.75
 -21  -6   9  104.22   55.07
  21   7 -11   39.21   43.90
 -21   7  10  141.82   49.58
  -7  21  10   69.98   40.22
  21   7 -10   54.98   50.07
  -7  21   9   20.71   21.08
 -21   7   9   27.04   30.28
  -7  21   8   -1.54   12.22
 -21   7   8  -21.73   17.91
  -7  21   7  -36.67   22.63
 -21   7   7    7.63   13.74
  -7  21   6  252.86   70.57
 -21   7   6  216.34   52.33
  -7  21   5  -19.79   26.73
 -21   7   5   30.41   25.62
  -7  21   4  112.46   46.65
 -21   7   4  162.84   49.76
  -7  21   3  -23.06   20.13
 -21   7   3    2.38   12.72
  -7  21   2   28.34   23.06
 -21   7   2   69.74   30.44
  -7  21   1  -18.03   21.52
 -21   7   1   -3.36   21.02
  -7  21   0  184.49   57.79
 -21   7   0  221.04   53.84
  -7  21  -1   29.02   21.46
 -21   7  -1    1.67   19.05
  -7  21  -2   59.06   29.30
 -21   7  -2   60.32   28.65
  -7  21  -3  -11.36   13.55
 -21   7  -3  -54.33   28.65
 -21  -7   9   69.21   48.22
  21   8 -11   65.14   49.86
 -21   8  10    5.99   10.19
  -8  21  10   -7.59   16.33
  21   8 -10   35.75   49.76
 -21   8   9   42.08   31.12
  -8  21   9    8.43   22.50
  21   8  -9   24.94   35.75
 -21   8   8    7.04   13.86
  -8  21   8    4.63   21.49
  -8  21   7   58.38   38.77
 -21   8   7   82.27   28.22
  -8  21   6   55.07   35.72
 -21   8   6   33.65   24.85
 -21   8   5  296.64   58.96
  -8  21   5  261.38   70.39
  -8  21   4  -17.10   21.24
 -21   8   4   17.04   18.40
  -8  21   3   -0.03   15.93
 -21   8   3   15.03   16.79
  -8  21   2  -60.48   41.68
 -21   8   2    9.91   16.55
  -8  21   1  100.64   44.82
 -21   8   1   94.09   33.87
  -8  21   0   26.27   30.04
 -21   8   0   22.69   26.86
  -8  21  -1  115.74   46.68
 -21   8  -1   96.13   31.27
  -8  21  -2   12.26   16.82
 -21   8  -2   -2.44   16.21
  -8  21  -3   31.43   33.12
 -21  -8   9    2.13   27.29
 -21   9  10   30.59   23.40
  -9  21  10    0.49   15.25
  21   9 -10   30.81   32.85
 -21   9   9    8.40   17.84
  -9  21   9  -14.48   22.38
 -21   9   8   -0.28   13.52
  -9  21   8   36.89   29.76
 -21   9   7   31.80   25.47
  -9  21   7   25.59   27.57
 -21   9   6  180.72   51.62
  -9  21   6  160.50   56.19
 -21   9   5  105.76   37.79
  -9  21   5  101.53   46.74
 -21   9   4  144.57   43.10
  -9  21   4  121.51   48.07
 -21   9   3   59.12   28.71
  -9  21   3   20.65   30.22
 -21   9   2   -8.46   20.41
  -9  21   2    9.45   26.98
 -21   9   1   15.34   14.88
  -9  21   1   -8.67   26.58
  -9  21   0  102.06   46.80
 -21   9   0   78.44   36.09
  -9  21  -1   36.34   26.52
 -21   9  -1   -9.91   15.96
 -21   9  -2    2.13   10.40
  -9  21  -2   10.90   18.83
  -9  21  -3   83.23   55.57
  21  10 -10    7.66   23.83
 -21  10   9   23.18   23.28
 -10  21   9    7.69   29.20
  21  10  -9   35.63   32.60
 -21  10   8   24.26   26.18
 -10  21   8   12.22   16.05
  21  10  -8   10.25   19.76
 -21  10   7   42.79   26.73
 -10  21   7   22.29   28.09
 -21  10   6  150.25   46.55
 -10  21   6  107.93   43.65
 -21  10   5  106.63   36.64
 -10  21   5   83.29   39.55
 -21  10   4  125.65   38.43
 -10  21   4   89.00   42.14
 -21  10   3   27.85   20.28
 -10  21   3   38.71   28.15
 -21  10   2   -6.05   16.08
 -10  21   2    5.59   23.12
 -21  10   1   18.77   17.38
 -10  21   1   51.28   33.00
 -21  10   0   16.05   18.43
 -10  21   0   21.42   25.13
 -21  10  -1    5.43   13.09
 -10  21  -1   10.80   22.54
 -21  10  -2   16.27   17.94
 -10  21  -2   23.49   20.41
 -21  11   9  -19.91   16.86
  21  11  -9  -13.74   22.94
 -21  11   8   18.34   20.53
 -11  21   8    6.54   15.78
  21  11  -8    4.20   12.97
 -21  11   7   55.97   29.91
 -11  21   7   36.34   31.49
  21  11  -7  127.56   48.59
 -21  11   6   18.74   19.57
 -11  21   6   28.86   25.41
 -21  11   5  190.20   51.25
 -11  21   5  177.97   52.97
 -21  11   4  -19.33   11.36
 -11  21   4    7.69   26.95
 -21  11   3   29.48   27.20
 -11  21   3   23.62   21.24
 -21  11   2    8.80   12.01
 -11  21   2   46.52   38.93
 -21  11   1   58.75   27.88
 -11  21   1   76.81   42.42
 -21  11   0   -0.12   15.65
 -11  21   0   16.55   21.24
 -21  11  -1   78.51   33.09
 -11  21  -1   70.85   31.46
 -21  11  -2   21.76   19.76
 -11  21  -2   73.44   37.42
 -21  12   8   -6.42   11.61
 -12  21   8    7.13   11.14
  21  12  -8   33.00   23.46
 -21  12   7    6.33   22.60
 -12  21   7   30.35   30.87
  21  12  -7    2.10   26.49
 -21  12   6  116.35   38.40
 -12  21   6  126.02   47.33
  21  12  -6  114.56   45.29
 -21  12   5  -16.86   13.83
 -12  21   5   15.84   21.86
 -21  12   4  119.50   36.89
 -12  21   4  114.41   45.66
 -21  12   3    3.15   12.81
 -12  21   3  -18.46   16.82
 -21  12   2   47.42   24.88
 -12  21   2   76.65   38.87
 -21  12   1    0.59   11.02
 -12  21   1   10.56   14.14
 -12  21   0  294.08   68.13
 -21  12   0  255.43   55.81
 -21  12  -1  134.69   48.62
 -12  21  -1   78.17   34.54
 -12  21  -2   82.77   37.85
 -21  13   7   24.20   22.60
 -13  21   7   22.54   22.69
 -21  13   6   14.39   15.28
  21  13  -6    7.25   15.34
 -13  21   6    1.51   13.06
 -21  13   5  131.11   39.33
  21  13  -5  118.17   42.26
 -13  21   5   94.84   37.32
 -21  13   4    0.49   12.63
 -13  21   4   34.98   28.46
 -21  13   3   -5.16   14.82
 -13  21   3   11.55   21.55
 -21  13   2  -19.29   20.93
 -13  21   2    7.16   22.69
 -13  21   1  255.49   62.79
 -21  13   1  255.67   55.81
 -21  13   0    2.13   13.03
 -13  21   0  127.84   45.72
 -13  21  -1  257.74   61.68
 -21  13  -1  251.10   56.09
 -21  14   6   47.85   30.75
 -14  21   6   79.03   37.57
 -21  14   5   19.08   10.90
 -14  21   5   21.15   25.31
 -21  14   4   -1.39    8.92
 -14  21   4   61.50   31.64
 -21  14   3   18.21   19.66
 -14  21   3   17.38   18.52
 -21  14   2   90.30   34.79
 -14  21   2   67.64   30.59
 -21  14   1   42.51   28.80
 -14  21   1   31.15   27.01
 -14  21   0  258.98   59.15
 -21  14   0  298.77   60.08
 -14  21  -1  145.77   45.44
 -21  14  -1   45.29   23.31
 -15  21   4   21.67   22.72
 -21  15   4   26.95   23.03
 -15  21   3   31.43   23.68
 -21  15   3   68.41   31.61
 -15  21   2    9.82   21.92
 -21  15   2  -13.77   14.02
 -15  21   1  171.77   49.42
 -21  15   1  156.95   46.34
 -15  21   0   61.59   29.08
 -21  15   0   86.78   35.53
 -22   0   0   57.39   35.10
 -22   0  -1   47.63   22.69
 -22   0   1   30.96   22.57
   0  22   2    3.83   21.76
 -22   0  -2   12.16   13.31
 -22   0   2   -4.04   14.17
   0  22   3   92.92   39.42
 -22   0  -3  102.12   33.90
 -22   0   3  165.28   49.21
   0  22   4   28.90   29.91
 -22   0  -4   -0.83   23.00
 -22   0   4   -0.28   24.30
 -22   0   5  471.25   84.56
 -22   0   6   16.82   18.80
 -22   0   7  124.75   50.97
 -22   0   8   27.41   25.13
 -22   0   9  -13.64   18.49
 -22   0  10   49.33   41.95
  22   0 -11   58.99   41.00
  22   1 -11    8.15   27.72
 -22   1  10   12.01   30.59
 -22   1   9   39.95   33.25
 -22   1   8    9.57   22.88
 -22   1   7   37.45   33.68
 -22   1   6  249.35   60.97
  -1  22   6  144.32   55.20
  -1  22   5  -27.63   20.53
 -22   1   5    4.04   27.69
 -22  -1  -4  190.88   46.28
  -1  22   4  221.84   66.90
 -22   1   4  281.51   63.56
  -1  22   3    2.19   34.82
 -22   1   3    0.93   14.66
 -22  -1  -3    4.07   12.81
  -1  22   2  -25.50   31.55
 -22   1   2    2.53   15.81
 -22  -1  -2  -16.73   10.65
  -1  22   1  -12.16   19.17
 -22   1   1   10.09   23.93
  -1  22   0   67.24   34.82
 -22   1   0   61.09   28.86
 -22   1  -1    4.26   11.98
 -22   1  -2   -5.77   19.73
 -22  -1   2    1.70   10.00
 -22   1  -3   -4.01   14.94
 -22  -1   3   39.02   29.27
 -22  -1   4  287.69   65.48
 -22  -1   5    0.93   27.44
 -22  -1   6  286.45   67.05
 -22  -1   7   24.02   32.97
 -22  -1   8  -14.63   21.27
 -22  -1   9    1.76   18.15
 -22  -1  10   45.47   40.16
  22   2 -11    7.25   38.31
 -22   2  10    1.30   19.76
 -22   2   9    8.71   21.24
  -2  22   8   45.60   28.28
 -22   2   8   26.58   25.68
 -22   2   7   76.50   32.29
  -2  22   7   74.37   38.99
 -22   2   6  129.69   56.65
  -2  22   6   58.93   48.47
 -22   2   5  197.02   51.31
  -2  22   5  144.63   56.77
 -22   2   4   -3.09   23.06
  -2  22   4  -41.37   33.25
 -22  -2  -4    1.70   19.39
 -22   2   3   81.56   33.12
  -2  22   3   26.95   35.93
  -2  22   2   23.93   15.37
 -22   2   2   15.62   10.87
  -2  22   1   12.56   18.40
 -22   2   1   34.45   23.71
  -2  22   0   48.71   33.22
 -22   2   0    4.60   18.65
  -2  22  -1    0.49   24.02
 -22   2  -1    6.27   15.25
 -22   2  -2   35.22   22.57
 -22   2  -3   33.68   26.86
 -22  -2   5  158.49   48.04
 -22  -2   6   96.90   54.64
 -22  -2   7   52.26   34.14
 -22  -2   8   -1.45   28.59
 -22  -2   9    1.57   18.46
 -22  -2  10    4.01   35.22
  22   3 -11   70.73   53.96
 -22   3  10   27.54   28.43
 -22   3   9   52.73   28.52
  -3  22   8   10.47   16.98
 -22   3   8    0.34   10.84
  -3  22   7   -8.67   28.12
 -22   3   7   40.66   26.89
 -22   3   6   43.03   38.43
  -3  22   6  127.96   54.18
 -22   3   5  -18.06   20.28
  -3  22   5   11.45   29.51
 -22   3   4   13.03   20.65
  -3  22   4   46.00   34.39
 -22   3   3   53.62   31.36
  -3  22   3    6.17   16.89
 -22   3   2  -11.05   24.60
  -3  22   2   14.57   23.22
 -22   3   1   89.25   36.95
  -3  22   1  155.34   56.15
 -22   3   0   38.96   25.25
  -3  22   0  103.85   54.73
 -22   3  -1   94.43   31.24
  -3  22  -1  103.42   42.69
 -22   3  -2   16.76   22.23
  -3  22  -2   29.39   22.07
 -22   3  -3   14.82   17.29
 -22  -3   6   54.55   42.60
 -22  -3   7    2.04   17.01
 -22  -3   8   -2.87   24.94
 -22  -3   9   43.87   41.27
 -22  -3  10   49.76   39.24
  22   4 -11    5.12   24.08
 -22   4  10  125.77   52.26
  -4  22   9   33.80   33.40
 -22   4   9   -5.09   24.17
  -4  22   8   16.18   16.02
 -22   4   8   70.32   34.36
  -4  22   7   21.89   25.78
 -22   4   7   13.31   27.81
  -4  22   6   44.05   25.87
 -22   4   6   -2.56   15.13
  -4  22   5   79.22   43.10
 -22   4   5   18.58   20.65
 -22   4   4   31.77   23.34
  -4  22   4  -40.16   32.91
 -22   4   3   11.92   17.53
  -4  22   3   40.75   33.74
 -22   4   2  151.48   48.59
  -4  22   2  108.54   46.37
 -22   4   1   25.47   25.04
  -4  22   1   41.68   30.87
  -4  22   0  357.05   85.98
 -22   4   0  412.65   73.10
 -22   4  -1   20.10   22.81
  -4  22  -1  124.13   46.49
  -4  22  -2   52.79   33.83
 -22   4  -2   91.41   31.40
  -4  22  -3  -10.03   19.97
 -22   4  -3   23.40   20.47
 -22  -4   7   27.60   23.99
 -22  -4   8   47.23   31.49
 -22  -4   9   20.78   29.23
 -22  -4  10   54.83   49.02
  22   5 -11  166.92   71.90
  -5  22  10    1.61   12.84
  22   5 -10   10.96   41.37
  -5  22   9   48.75   40.22
 -22   5   9  165.10   52.91
  -5  22   8  -12.66   18.83
 -22   5   8  -12.69   15.71
  -5  22   7   44.45   29.23
 -22   5   7   40.22   23.99
  -5  22   6   -2.81   14.54
 -22   5   6    3.49   15.90
  -5  22   5    6.17   23.49
 -22   5   5   -4.97   25.78
  -5  22   4  -11.36   29.98
 -22   5   4   32.29   29.98
  -5  22   3   51.62   42.54
 -22   5   3   32.07   21.33
  -5  22   2    2.84   21.46
 -22   5   2  -12.44   17.78
  -5  22   1  311.92   75.63
 -22   5   1  369.19   68.78
  -5  22   0  106.01   44.70
 -22   5   0  -13.43   13.18
  -5  22  -1  263.48   70.17
 -22   5  -1  312.60   58.01
  -5  22  -2   76.81   35.59
 -22   5  -2   13.86   16.55
  -5  22  -3   58.41   35.56
 -22   5  -3   30.84   18.18
 -22  -5   7   33.03   25.04
 -22  -5   8    3.95   23.93
 -22  -5   9  121.20   56.37
 -22   6  10  167.94   57.67
  22   6 -10  182.85   80.85
  -6  22   9  -31.83   25.78
 -22   6   9    5.28   16.82
  -6  22   8   20.07   13.55
 -22   6   8   36.12   28.99
  -6  22   7    3.95   13.80
 -22   6   7   -3.83   11.92
  -6  22   6   21.95   12.69
 -22   6   6   21.55   10.59
  -6  22   5   34.08   31.83
 -22   6   5   -3.52   15.31
  -6  22   4   -7.93   23.71
 -22   6   4   11.92   13.68
  -6  22   3    6.64   14.26
 -22   6   3   30.13   10.84
  -6  22   2  117.53   51.59
 -22   6   2  144.01   40.97
  -6  22   1   19.85   23.86
 -22   6   1   37.38   21.95
  -6  22   0  306.36   69.37
 -22   6   0  326.62   66.13
  -6  22  -1  155.37   57.11
 -22   6  -1   -2.62   10.65
  -6  22  -2  122.84   54.21
 -22   6  -2  111.69   36.18
  -6  22  -3   24.60   25.90
 -22  -6   8   35.44   41.15
 -22  -6   9   47.76   52.85
  22   7 -10   30.35   31.61
  -7  22   9   34.54   27.85
 -22   7   9   83.69   39.89
  -7  22   8   26.33   20.00
 -22   7   8   40.19   29.85
  -7  22   7   20.53   26.73
 -22   7   7   27.48   22.10
  -7  22   6   18.68   13.77
 -22   7   6   13.64   17.44
  -7  22   5   71.84   34.76
 -22   7   5   80.02   34.05
  -7  22   4   36.67   32.69
 -22   7   4   -5.06   10.99
  -7  22   3  -10.16   16.61
 -22   7   3   18.06   19.11
  -7  22   2   20.19   13.09
 -22   7   2   -3.89   14.11
  -7  22   1  191.06   57.61
 -22   7   1  219.55   52.97
  -7  22   0   66.71   35.75
 -22   7   0   21.39   20.41
  -7  22  -1  159.76   52.42
 -22   7  -1  180.66   46.80
  -7  22  -2   67.58   37.29
 -22   7  -2   12.69   18.40
  -7  22  -3  -16.08   23.37
 -22  -7   8   33.83   33.87
 -22  -7   9   46.03   52.08
  22   8 -10   41.89   38.90
 -22   8   9   28.68   25.22
  -8  22   9   42.97   34.42
  22   8  -9   31.40   41.92
 -22   8   8  -18.52   14.94
  -8  22   8   14.26   19.08
  -8  22   7    0.49   11.39
 -22   8   7   24.85   20.84
  -8  22   6   33.06   31.67
 -22   8   6   55.97   33.96
  -8  22   5   62.02   34.88
 -22   8   5   11.08   12.04
  -8  22   4   54.24   22.13
 -22   8   4   20.07   16.02
  -8  22   3   67.42   33.83
 -22   8   3   32.32   24.02
  -8  22   2   57.17   38.19
 -22   8   2   45.13   28.77
  -8  22   1   62.64   40.16
 -22   8   1   47.23   30.81
  -8  22   0   75.91   36.49
 -22   8   0  122.50   39.98
  -8  22  -1   68.60   35.93
 -22   8  -1   28.68   20.62
  -8  22  -2   39.89   31.95
 -22   8  -2   14.45   20.34
 -22   9   9   -0.93   15.50
  22   9  -9  -13.61   28.46
 -22   9   8   24.76   22.81
  -9  22   8   27.97   28.65
  22   9  -8   61.16   36.21
 -22   9   7   18.28   24.33
  -9  22   7   13.89   21.46
 -22   9   6   76.22   32.07
  -9  22   6   31.06   25.96
 -22   9   5   35.96   23.99
  -9  22   5   66.65   35.04
 -22   9   4  126.32   35.69
  -9  22   4  110.27   44.70
 -22   9   3  -11.36   15.31
  -9  22   3  -10.87   13.77
  -9  22   2   23.89   31.15
 -22   9   2   50.01   28.43
  -9  22   1  -32.41   29.51
 -22   9   1   21.36   23.15
  -9  22   0   -1.02   14.94
 -22   9   0   18.89   17.53
  -9  22  -1   21.98   25.04
 -22   9  -1  -10.53   14.32
 -22   9  -2   35.04   23.96
  -9  22  -2   38.59   31.21
 -22  10   8    8.71   14.88
 -10  22   8   -2.84   13.95
  22  10  -8   -6.36   21.83
 -22  10   7   45.04   31.21
 -10  22   7   40.44   28.15
  22  10  -7   49.15   35.10
 -22  10   6    0.09   13.37
 -10  22   6   15.40   23.49
 -22  10   5  181.80   49.61
 -10  22   5  127.07   48.00
 -22  10   4   18.40   12.87
 -10  22   4   16.02   12.35
 -22  10   3   72.92   34.92
 -10  22   3   54.86   32.41
 -22  10   2    9.85   18.21
 -10  22   2  -12.22   16.05
 -22  10   1    7.50   17.72
 -10  22   1    6.58   24.70
 -22  10   0   11.48   15.90
 -10  22   0   31.49   23.37
 -22  10  -1   92.27   48.68
 -10  22  -1    1.91   10.74
 -10  22  -2  119.35   58.87
 -22  11   7   11.42   10.40
 -11  22   7   22.72   19.70
  22  11  -7   60.94   27.29
 -22  11   6  127.53   42.17
 -11  22   6   84.34   42.14
  22  11  -6  150.77   54.89
 -22  11   5   14.42   11.58
 -11  22   5   38.31   25.75
 -22  11   4  124.47   41.86
 -11  22   4  106.78   43.84
 -22  11   3    1.11   13.21
 -11  22   3  -13.68   13.18
 -22  11   2   -4.97   12.81
 -11  22   2    6.27   21.79
 -22  11   1    1.51    8.86
 -11  22   1   -4.17   13.06
 -22  11   0   37.35   21.55
 -11  22   0   75.76   34.88
 -22  11  -1   27.78   22.50
 -11  22  -1   65.94   31.46
 -11  22  -2   10.56   21.67
 -22  12   6    6.21   11.70
 -12  22   6   50.94   30.93
 -22  12   5  164.88   47.48
 -12  22   5   93.29   39.89
  22  12  -5   82.61   34.17
 -22  12   4    5.62    9.91
 -12  22   4   -3.33   17.01
 -22  12   3   -3.18   10.99
 -12  22   3   -8.43   19.17
 -22  12   2  -28.74   25.56
 -12  22   2   -3.09   11.05
 -22  12   1   67.64   30.69
 -12  22   1   66.56   39.45
 -22  12   0   -4.72   12.07
 -12  22   0   74.37   35.22
 -22  12  -1   55.32   27.01
 -12  22  -1   52.51   32.94
 -22  13   5   14.97    9.66
 -13  22   5   55.44   29.30
 -22  13   4   55.35   29.91
 -13  22   4   55.32   36.83
 -22  13   3   22.01   24.91
 -13  22   3    3.30   11.02
 -22  13   2   58.32   31.36
 -13  22   2   30.84   29.70
 -22  13   1   24.57   18.03
 -13  22   1   35.29   19.20
 -22  13   0  153.31   44.11
 -13  22   0  120.06   46.86
 -13  22  -1   79.12   36.27
 -14  22   3  -23.12   28.96
 -22  14   2    9.51   13.77
 -14  22   2   -2.07   11.08
 -14  22   1   73.91   29.67
 -23   0   0    4.14   17.13
 -23   0  -1   80.45   36.24
 -23   0   1   82.18   34.76
 -23   0  -2   60.23   28.65
 -23   0   2   67.76   29.70
 -23   0  -3  -16.55    9.08
 -23   0   3   21.15   28.96
 -23   0   4  287.38   63.59
 -23   0   5   59.40   33.22
 -23   0   6  217.64   57.79
 -23   0   7    5.25   14.94
 -23   0   8   51.55   33.06
 -23   0   9   16.67   26.83
 -23   1   9   26.21   20.19
 -23   1   8   11.70   23.06
 -23   1   7   68.69   33.19
 -23   1   6   89.16   39.55
 -23   1   5  263.27   60.32
 -23   1   4  -10.87   18.00
 -23   1   3  142.07   45.72
 -23  -1  -3   82.98   29.98
 -23   1   2  -13.09   13.77
 -23  -1  -2   49.42   28.25
 -23   1   1   -1.23   13.58
 -23  -1  -1   -5.46   10.77
 -23   1   0   33.22   27.29
 -23  -1   0   21.33   13.37
 -23   1  -1   14.39   20.53
 -23  -1   1   -9.76   10.71
 -23   1  -2   -6.21   18.31
 -23  -1   2   -3.89   13.40
 -23   1  -3   71.44   28.40
 -23  -1   3  145.74   47.17
 -23  -1   4    3.98   23.52
 -23  -1   5  271.60   66.13
 -23  -1   6   74.31   40.87
 -23  -1   7   77.58   38.25
 -23  -1   8    6.17   21.98
 -23  -1   9   20.87   28.09
 -23   2   9   15.59   23.71
 -23   2   8   -2.50   13.49
 -23   2   7   79.62   33.96
 -23   2   6   94.62   41.34
  -2  23   6   16.05   30.56
 -23   2   5   47.17   26.55
  -2  23   5   54.95   43.93
 -23   2   4  143.83   44.21
  -2  23   4   51.62   34.17
 -23   2   3   -1.08   11.33
  -2  23   3    1.05   22.26
 -23  -2  -3   -7.35   16.76
 -23   2   2   55.10   27.63
  -2  23   2  -28.52   17.57
 -23  -2  -2   54.92   25.93
 -23   2   1    5.68   20.93
  -2  23   1  -15.84   15.78
 -23  -2  -1   13.46   21.86
 -23   2   0   34.79   24.48
 -23  -2   0   -5.56   16.45
 -23   2  -1   18.37   19.33
 -23  -2   1  -15.87   18.40
 -23   2  -2    9.35   15.34
 -23  -2   2   50.63   31.77
 -23   2  -3   39.42   23.49
 -23  -2   3   29.57   29.05
 -23  -2   4  106.44   37.60
 -23  -2   5   59.98   41.83
 -23  -2   6   67.85   34.42
 -23  -2   7   69.43   38.74
 -23  -2   8   15.28   21.76
 -23  -2   9    1.61   20.75
 -23   3   9    4.26   17.91
 -23   3   8   72.76   41.37
  -3  23   7   -7.01   25.90
 -23   3   7    7.35   21.55
  -3  23   6  -18.00   27.57
 -23   3   6   58.72   28.56
  -3  23   5   41.00   41.34
 -23   3   5  -19.76   17.69
 -23   3   4   57.67   29.20
  -3  23   4   33.83   25.22
 -23  -3  -4    1.76   15.34
 -23   3   3   22.47   21.61
  -3  23   3  -21.49   19.79
 -23  -3  -3   27.10   14.39
 -23   3   2   58.84   29.51
  -3  23   2   28.59   35.96
 -23   3   1   40.19   22.50
  -3  23   1  -16.02   15.87
 -23   3   0   48.07   24.48
  -3  23   0   17.07   24.33
 -23   3  -1   -7.93   11.42
  -3  23  -1   12.97   18.18
 -23   3  -2   30.78   20.71
 -23   3  -3   34.27   19.54
 -23  -3   4   58.22   31.92
 -23  -3   5   24.45   21.58
 -23  -3   6   48.56   30.78
 -23  -3   7    2.25   32.11
 -23  -3   8   66.99   37.97
 -23  -3   9  -32.01   29.91
 -23   4   9   45.23   27.63
  -4  23   8    9.85   16.42
 -23   4   8   -1.30   13.74
  -4  23   7   51.49   33.99
 -23   4   7   30.56   23.00
  -4  23   6   59.77   38.74
 -23   4   6   25.35   22.81
  -4  23   5   48.90   37.45
 -23   4   5   11.33   22.47
  -4  23   4   -4.48   15.74
 -23   4   4   10.13   12.19
  -4  23   3   56.03   38.03
 -23   4   3   41.18   34.05
  -4  23   2   33.87   17.38
 -23   4   2   33.71   27.72
  -4  23   1   85.39   35.69
 -23   4   1  127.13   42.54
  -4  23   0   26.15   22.29
 -23   4   0   32.82   18.49
  -4  23  -1   62.54   34.33
 -23   4  -1  103.76   36.12
 -23   4  -2   28.68   23.65
 -23  -4   5   33.74   25.72
 -23  -4   6   14.51   22.84
 -23  -4   7   79.06   39.27
 -23  -4   8   18.99   28.86
 -23  -4   9  109.87   47.60
 -23   5   9    8.34   15.68
  -5  23   8   70.51   37.51
 -23   5   8   83.66   42.20
  -5  23   7   11.11   22.01
 -23   5   7  -12.04   14.42
  -5  23   6   26.52   25.38
 -23   5   6   25.16   20.71
  -5  23   5   44.45   20.44
 -23   5   5   28.99   21.58
  -5  23   4  -21.83   27.97
 -23   5   4    5.28   12.56
  -5  23   3   10.65   13.18
 -23   5   3   -7.07   10.96
  -5  23   2  117.59   44.67
 -23   5   2  147.69   39.61
  -5  23   1   94.06   43.07
 -23   5   1   36.67   21.30
  -5  23   0  133.33   47.51
 -23   5   0  152.60   40.93
  -5  23  -1   96.01   39.64
 -23   5  -1   35.93   26.43
  -5  23  -2  125.31   48.28
 -23   5  -2  126.66   33.59
 -23  -5   6   29.36   27.72
 -23  -5   7  -20.41   16.30
 -23  -5   8  123.27   50.10
 -23  -5   9   -4.20   27.97
 -23   6   9  406.48   97.89
  23   6  -9   73.87   58.41
  -6  23   8   22.69   22.88
 -23   6   8   -6.64   13.55
  -6  23   7   18.83   25.99
 -23   6   7   -2.41   10.28
  -6  23   6   -1.98   11.48
 -23   6   6   53.90   32.41
  -6  23   5  -18.77   23.00
 -23   6   5   -1.30   11.21
  -6  23   4    3.09   12.63
 -23   6   4   23.25   16.02
  -6  23   3   -7.29   25.31
 -23   6   3   54.39   25.31
  -6  23   2  -29.82   28.46
 -23   6   2    0.62   17.20
  -6  23   1  127.87   53.90
 -23   6   1  163.43   42.45
  -6  23   0  161.58   49.49
 -23   6   0   77.30   34.02
  -6  23  -1  166.52   51.40
 -23   6  -1  148.55   40.60
  -6  23  -2   51.74   30.81
 -23   6  -2  -10.28    8.40
 -23  -6   7   37.42   30.84
 -23  -6   8   46.28   42.20
  -7  23   8   41.58   32.45
 -23   7   8   42.29   28.09
  -7  23   7   -4.82   18.31
 -23   7   7   -4.91   15.90
  -7  23   6   34.17   29.54
 -23   7   6    5.12   19.29
  -7  23   5   21.12   23.37
 -23   7   5   10.50   10.06
  -7  23   4  -30.38   22.66
 -23   7   4   10.68   18.80
  -7  23   3   26.39   23.28
 -23   7   3   22.26   19.05
  -7  23   2   87.58   40.56
 -23   7   2   45.53   25.07
  -7  23   1  100.55   41.80
 -23   7   1   77.39   32.60
  -7  23   0  168.46   56.65
 -23   7   0  178.37   46.80
  -7  23  -1  174.21   56.22
 -23   7  -1   92.34   32.54
  -7  23  -2  185.23   58.19
 -23   7  -2  101.29   44.79
 -23  -7   7   47.91   40.44
 -23  -7   8    7.66   23.15
 -23   8   8    5.90   22.07
  -8  23   8  -20.47   23.31
  23   8  -8   14.14   22.26
  -8  23   7    2.96   14.79
 -23   8   7   -8.12   19.79
  -8  23   6   12.35   29.30
 -23   8   6   19.70   19.17
  -8  23   5   63.35   36.49
 -23   8   5   -0.52   10.28
  -8  23   4   -1.61   13.43
 -23   8   4   37.32   25.44
  -8  23   3   -4.29   14.57
 -23   8   3   -6.82   11.24
  -8  23   2   78.32   36.71
 -23   8   2   77.39   36.03
  -8  23   1   98.69   39.70
 -23   8   1   43.37   28.40
  -8  23   0   73.35   33.16
 -23   8   0   87.12   33.03
  -8  23  -1   63.19   32.04
 -23   8  -1   22.10   18.62
  -8  23  -2   40.66   26.36
 -23   8  -2   42.48   23.09
 -23  -8   7    3.40   15.50
 -23   9   7   25.65   28.52
  -9  23   7    8.64   25.38
 -23   9   6   -0.12   13.61
  -9  23   6   -4.66   10.96
 -23   9   5   65.69   29.64
  -9  23   5   82.12   37.97
 -23   9   4    6.45   13.12
  -9  23   4    3.80   13.31
 -23   9   3   70.91   29.79
  -9  23   3   51.31   32.23
  -9  23   2   -0.59   16.58
 -23   9   2   -0.99   12.87
  -9  23   1   57.45   32.41
 -23   9   1   45.53   23.37
  -9  23   0   49.83   31.92
 -23   9   0   -6.92   13.95
  -9  23  -1   72.95   33.46
 -23   9  -1   81.01   33.65
  -9  23  -2   55.75   29.30
 -23  10   6   86.62   34.51
 -10  23   6   -2.99   15.40
 -23  10   5   21.64   24.67
 -10  23   5   -3.12   13.71
 -23  10   4   82.33   30.25
 -10  23   4   55.81   26.46
 -23  10   3  -22.94   16.30
 -10  23   3  -41.77   28.34
 -23  10   2   27.14   24.91
 -10  23   2   15.87   23.83
 -23  10   1   13.68   17.47
 -10  23   1   21.05   31.12
 -23  10   0   15.37    8.40
 -10  23   0   43.25   29.82
 -23  10  -1   -6.54   11.48
 -10  23  -1   16.67   13.43
 -23  11   5   82.12   34.36
 -11  23   5   90.79   38.47
 -23  11   4   75.08   33.19
 -11  23   4    1.48   16.52
 -23  11   3   90.17   36.86
 -11  23   3   62.27   34.08
 -23  11   2   32.20   27.60
 -11  23   2  -37.57   23.52
 -23  11   1   63.47   27.23
 -11  23   1   -0.74   12.44
 -23  11   0   10.06   20.00
 -11  23   0   11.51   20.41
 -11  23  -1   14.94   18.09
 -23  12   4   65.60   32.66
 -12  23   4   33.19   20.53
 -23  12   3    7.41    7.93
 -12  23   3   16.79   21.42
 -23  12   2   37.57   20.50
 -12  23   2    1.48   14.69
 -23  12   1   32.23   19.42
 -12  23   1   81.25   31.98
 -12  23   0   -1.94   17.91
 -24   0   0  183.44   49.08
 -24   0  -1   92.21   37.94
 -24   0   1   43.74   27.20
 -24   0  -2   22.78   20.10
 -24   0   2   19.57   15.13
 -24   0  -3   82.92   32.32
 -24   0   3  103.70   38.71
 -24   0   4   17.16   25.62
 -24   0   5  101.53   42.23
 -24   0   6   70.14   34.64
 -24   0   7   57.17   38.62
 -24   0   8   39.95   28.12
 -24   1   8   11.95   20.68
 -24   1   7   26.09   24.85
 -24   1   6   39.08   24.94
 -24   1   5   64.55   33.09
 -24   1   4  101.16   35.78
 -24   1   3   14.73   28.15
 -24  -1  -3   50.94   32.17
 -24   1   2   39.45   19.82
 -24  -1  -2   43.99   20.07
 -24   1   1   50.41   26.55
 -24  -1  -1  131.54   43.22
 -24   1   0   32.48   26.89
 -24  -1   0   -7.32    9.26
 -24   1  -1   82.33   36.06
 -24  -1   1   73.10   32.97
 -24   1  -2   73.69   38.62
 -24  -1   2   45.23   24.26
 -24   1  -3    0.22   12.53
 -24  -1   3  -18.99    9.05
 -24  -1   4   58.84   31.06
 -24  -1   5  102.40   42.11
 -24  -1   6   53.75   35.93
 -24  -1   7   47.11   37.32
 -24  -1   8   19.51   21.95
 -24   2   8   43.87   27.44
 -24   2   7    9.63   18.43
 -24   2   6  120.61   43.71
 -24   2   5   39.42   31.61
 -24   2   4   41.55   26.77
 -24   2   3   36.95   29.23
 -24  -2  -3   50.54   33.83
 -24   2   2    5.71   11.98
 -24  -2  -2    9.94   16.79
 -24   2   1   58.16   28.28
 -24  -2  -1   31.52   19.85
 -24   2   0   54.83   30.35
 -24  -2   0   61.25   28.40
 -24   2  -1   20.44   18.31
 -24  -2   1   35.93   20.96
 -24  -2   2  -12.13   20.75
 -24   2  -2  114.10   41.98
 -24  -2   3   34.17   24.88
 -24  -2   4   66.71   32.75
 -24  -2   5   13.27   24.17
 -24  -2   6  125.52   46.46
 -24  -2   7   68.66   40.10
 -24  -2   8   28.03   30.47
 -24   3   8    4.94   12.60
 -24   3   7   47.97   34.51
 -24   3   6    8.06   23.93
 -24   3   5  102.89   39.24
  -3  24   4  -36.95   30.81
 -24   3   4   36.18   22.35
  -3  24   3   55.17   33.74
 -24  -3  -3   12.35   22.75
 -24   3   3   37.42   23.03
 -24  -3  -2   59.86   28.96
 -24   3   2   16.64   15.19
 -24  -3  -1   21.33   16.33
 -24   3   1   27.54   20.75
 -24  -3   0   41.34   25.13
 -24   3   0   65.66   25.31
 -24  -3   1   -5.53   15.84
 -24   3  -1    0.12   12.13
 -24  -3   2   14.36    9.76
 -24   3  -2    8.27   13.58
 -24  -3   3   66.68   30.28
 -24  -3   4   25.16   25.19
 -24  -3   5   93.63   43.10
 -24  -3   6   -8.95   20.93
 -24  -3   7  122.84   51.34
 -24  -3   8   26.43   29.17
 -24   4   8   70.29   38.25
 -24   4   7   27.10   23.31
  -4  24   6   45.75   39.64
 -24   4   6   81.81   38.34
  -4  24   5    9.35   12.41
 -24   4   5   50.78   26.70
  -4  24   4  119.53   47.79
 -24   4   4   74.40   35.81
  -4  24   3  -12.32   12.47
 -24  -4  -3  -15.37   17.57
 -24   4   3  -11.98    9.01
  -4  24   2   17.38   17.07
 -24  -4  -2   43.62   22.10
 -24   4   2   37.29   22.63
  -4  24   1   24.08   23.15
 -24   4   1   30.72   11.11
 -24   4   0   18.80   15.59
 -24   4  -1  149.51   37.97
 -24   4  -2    7.16   16.05
 -24  -4   2   39.36   24.85
 -24  -4   3    2.38   12.75
 -24  -4   4  113.05   45.60
 -24  -4   5   78.94   38.03
 -24  -4   6   68.35   35.47
 -24  -4   7    2.07   14.73
 -24  -4   8  730.32  123.21
  -5  24   7   19.48   29.30
 -24   5   7   54.92   32.63
  -5  24   6   70.69   43.37
 -24   5   6   48.34   28.74
  -5  24   5   35.47   34.54
 -24   5   5   25.35   21.83
  -5  24   4   70.94   39.76
 -24   5   4   43.78   23.96
  -5  24   3    8.09   12.63
 -24   5   3   56.71   30.84
  -5  24   2    0.06   13.92
 -24   5   2   43.10   23.22
  -5  24   1   52.94   29.57
 -24   5   1   53.35   27.23
  -5  24   0   66.34   28.90
 -24   5   0   60.75   24.26
 -24   5  -1   57.61   25.47
 -24   5  -2    6.02   13.00
 -24  -5   4   54.21   29.42
 -24  -5   5   56.74   33.28
 -24  -5   6   54.61   34.21
 -24  -5   7   55.51   35.10
  -6  24   7   20.00   21.73
 -24   6   7   13.00   11.42
  -6  24   6    2.75   15.68
 -24   6   6   17.44   20.31
  -6  24   5   64.12   35.87
 -24   6   5   42.26   27.14
  -6  24   4   40.90   27.75
 -24   6   4   19.57   21.18
  -6  24   3   17.60   23.09
 -24   6   3    7.41    9.14
  -6  24   2   50.60   23.93
 -24   6   2   44.39   21.92
  -6  24   1   58.72   33.68
 -24   6   1  110.52   40.32
  -6  24   0   51.31   22.81
 -24   6   0   43.31   22.88
  -6  24  -1  102.68   40.07
 -24   6  -1   72.27   28.83
 -24  -6   5   85.64   43.53
 -24  -6   6   44.42   30.99
 -24  -6   7    3.52   17.72
 -24   7   7   -5.62   10.71
  -7  24   6   31.21   23.09
 -24   7   6   21.86   23.06
  -7  24   5   14.05   26.83
 -24   7   5    4.79    8.61
  -7  24   4   42.45   27.38
 -24   7   4   -2.81   13.55
  -7  24   3   52.20   35.78
 -24   7   3   -5.71   14.54
  -7  24   2   35.90   29.27
 -24   7   2   34.11   19.05
  -7  24   1  129.04   45.87
 -24   7   1   34.76   20.87
  -7  24   0  187.45   59.27
 -24   7   0  179.73   44.45
  -7  24  -1  126.66   43.34
 -24   7  -1   53.01   27.85
 -24  -7   6    9.88   13.24
  -8  24   6    4.82    9.94
 -24   8   6   19.11   24.85
  -8  24   5   -8.89   16.21
 -24   8   5    0.99   10.68
  -8  24   4   32.17   23.18
 -24   8   4   55.69   48.28
  -8  24   3   75.20   46.55
 -24   8   3   24.36   19.20
  -8  24   2   25.31   26.73
 -24   8   2    9.88   11.73
  -8  24   1  173.43   49.64
 -24   8   1  161.52   39.02
  -8  24   0   89.46   37.42
 -24   8   0   15.71   15.50
  -8  24  -1  131.14   49.15
 -24   8  -1  147.69   38.80
 -24  -8   6   -3.95   17.13
 -24   9   5   39.33   24.70
  -9  24   5   17.32   14.85
 -24   9   4   27.88   20.44
  -9  24   4   -3.83   15.37
 -24   9   3   -4.20   11.73
  -9  24   3   -9.82   18.37
  -9  24   2  107.65   38.06
 -24   9   2   99.71   37.14
  -9  24   1   40.26   18.99
 -24   9   1   -3.77    9.79
  -9  24   0  154.23   48.16
 -24   9   0  155.00   38.31
  -9  24  -1   50.66   31.92
 -24  10   3   49.46   28.86
 -10  24   3   70.76   30.56
 -24  10   2   11.48   17.20
 -10  24   2   -8.09   15.56
 -24  10   1   95.11   33.12
 -10  24   1   89.09   39.39
 -10  24   0   68.32   37.94
 -25   0   0   61.25   41.92
 -25   0   1  136.17   43.00
 -25   0  -1  183.68   45.63
 -25   0  -2   24.36   19.29
 -25   0   2   11.51   16.73
 -25   0   3  -27.26   19.88
 -25   0   4   75.08   31.89
 -25   0   5   67.27   29.33
 -25   0   6   44.02   32.97
 -25   0   7   42.02   30.41
 -25   1   6   79.86   33.83
 -25   1   5    9.26   24.02
 -25   1   4   42.79   26.15
 -25   1   3   17.91   13.86
 -25   1   2   46.95   26.21
 -25  -1  -2   37.01   20.65
 -25   1   1   27.85   28.77
 -25  -1  -1   46.28   28.77
 -25   1   0  242.92   56.80
 -25  -1   0  224.09   51.25
 -25   1  -1   37.48   24.51
 -25  -1   1   33.31   31.24
 -25  -1   2   25.41   20.22
 -25   1  -2   33.34   17.16
 -25  -1   3   40.87   20.62
 -25  -1   4   12.41   21.98
 -25  -1   5   10.25   16.15
 -25  -1   6  101.87   43.25
 -25   2   6   13.74   19.57
 -25   2   5  101.35   42.97
 -25   2   4   23.93   25.81
 -25   2   3   16.15   22.20
 -25  -2  -2   66.13   29.08
 -25   2   2   15.25   18.40
 -25  -2  -1   85.61   35.10
 -25   2   1   88.17   36.00
 -25  -2   0   52.82   30.59
 -25   2   0   48.07   27.75
 -25  -2   1  154.45   42.17
 -25   2  -1   87.67   38.00
 -25  -2   2    1.30   12.84
 -25   2  -2   15.47   13.80
 -25  -2   3    6.24   14.23
 -25  -2   4   -7.13   13.98
 -25  -2   5   94.87   38.84
 -25  -2   6   32.38   34.39
 -25   3   6   96.38   45.63
 -25   3   5   37.38   24.60
 -25   3   4   88.32   32.11
 -25   3   3    7.38   16.33
 -25  -3  -2   14.20   22.69
 -25   3   2    2.32   20.10
 -25  -3  -1   37.57   25.50
 -25   3   1   43.84   23.40
 -25  -3   0   50.69   27.35
 -25   3   0   51.31   26.55
 -25  -3   1   52.88   28.19
 -25   3  -1  113.39   36.30
 -25  -3   2  -24.39   20.99
 -25   3  -2   22.69   25.10
 -25  -3   3   12.90   15.10
 -25  -3   4   98.26   38.65
 -25  -3   5   57.82   35.69
 -25  -3   6  137.10   48.68
 -25   4   6   80.73   38.77
 -25   4   5   51.93   23.62
 -25   4   4   79.74   30.72
 -25   4   3   37.38   24.14
 -25  -4  -2   10.80   10.93
 -25   4   2   11.55   13.89
 -25  -4  -1   -5.40    7.72
 -25   4   1    2.56   11.89
 -25  -4   0  109.75   32.48
 -25   4   0   45.07   25.01
 -25  -4   1   12.66   17.44
 -25   4  -1   19.57   14.57
 -25  -4   2   19.63   20.13
 -25  -4   3   69.03   32.17
 -25  -4   4   65.14   31.15
 -25  -4   5   71.19   32.51
 -25  -4   6  107.34   44.27
 -25   5   5  124.22   40.47
 -25   5   4   25.04   21.30
 -25   5   3  104.44   35.84
 -25  -5  -2   11.64   15.07
 -25   5   2   57.17   28.80
 -25   5   1   33.16   21.83
 -25  -5  -1   59.12   25.84
 -25   5   0   46.89   25.81
 -25  -5   0   -3.92    9.05
 -25   5  -1   70.36   25.90
 -25  -5   1   63.90   28.15
 -25  -5   2   29.51   24.67
 -25  -5   3   15.84   10.71
 -25  -5   4   13.58   19.11
 -25  -5   5   81.01   42.20
  -6  25   5    8.18   15.40
 -25   6   5    8.89    8.18
  -6  25   4   78.23   36.30
 -25   6   4   56.19   28.15
  -6  25   3   68.41   33.68
 -25   6   3   -2.59   12.53
  -6  25   2   -4.88   16.82
 -25   6   2   18.74   13.77
 -25  -6  -2   16.55   12.69
 -25   6   1   39.61   21.39
 -25  -6  -1   11.55    7.07
 -25   6   0   78.57   29.23
 -25  -6   0   65.29   29.02
 -25   6  -1   23.59   18.43
 -25  -6   1   35.59   21.95
 -25  -6   2    8.64    9.29
 -25  -6   3  -10.56   10.62
 -25  -6   4   73.94   35.93
 -25  -6   5   40.97   36.95
  -7  25   4   12.38   22.60
 -25   7   4   29.27   23.71
  -7  25   3   15.81   23.65
 -25   7   3   -3.83   16.39
  -7  25   2   -0.12   20.34
 -25   7   2    5.46    9.17
  -7  25   1   98.02   37.38
 -25   7   1  113.36   35.53
 -25   7   0   18.74   16.82
 -25  -7   3   -7.87    8.89
 -25  -7   4    1.73   13.12
 -26   0   0  288.21   54.18
 -26   0   1   62.70   37.42
 -26   0   2   73.10   30.65
 -26   0   3   -7.87   13.77
 -26   0   4   21.15   22.63
 -26   1   4    5.53   13.83
 -26   1   3    0.46   11.27
 -26   1   2   13.40   17.04
 -26   1   1  187.48   44.15
 -26  -1   0   54.92   33.12
 -26   1   0   41.06   28.80
 -26  -1   1  200.23   47.05
 -26  -1   2   18.71   22.50
 -26  -1   3   22.72   20.22
 -26  -1   4   -6.42   14.32
 -26   2   3    1.51   13.89
 -26   2   2   45.13   24.30
 -26   2   1   10.09   15.16
 -26  -2   0  151.70   38.87
 -26  -2   1   25.90   23.89
 -26  -2   2    9.35   16.86
 -26  -2   3    5.50   12.01
 -26   3   3   24.88   14.36
 -26   3   2   13.18   21.58
 -26   3   1   16.42    9.76
 -26  -3   0    4.60    7.22
 -26  -3   1   19.88   14.36
 -26  -3   2    1.91    9.38
 -26  -3   3   -1.73   15.19
 -26  -4   1   17.75   16.76
 -26  -4   2   -8.43   10.96
   0   0   0    0.00    0.00

_computing_structure_solution     'SHELXT 2014/5 (Sheldrick, 2014)'
;
_shelx_hkl_checksum              9565
_shelx_fab_file
;
    0    0    6     11.52      0.00
    0    0    8    -17.23      0.00
    0    0   10     65.13      0.00
    0    0   12      0.99      0.00
    0    0   14      9.78      0.00
    0    0   16     32.54      0.00
    0    0   18      5.14      0.00
    0    0   20    -11.00      0.00
    0    1    3     51.98      0.00
    0    1    4    -22.82      0.00
    0    1    5     -6.80      0.00
    0    1    6     10.66      0.00
    0    1    7     19.90      0.00
    0    1    8     39.10      0.00
    0    1    9      2.11      0.00
    0    1   10    -95.07      0.00
    0    1   11     -1.67      0.00
    0    1   12     68.53      0.00
    0    1   13     14.22      0.00
    0    1   14     23.51      0.00
    0    1   15    -20.39      0.00
    0    1   16      2.06      0.00
    0    1   17      2.49      0.00
    0    1   18      7.19      0.00
    0    1   19      7.56      0.00
    0    1   20    -42.91      0.00
    0    1   21    -11.26      0.00
    1    1   20     -4.55      0.00
    1    1   18      1.58      0.00
    1    1   16      2.64      0.00
    1    1   14     -0.24      0.00
    1    1   12     -2.03      0.00
    1    1   10     23.79      0.00
    1    1    8     -4.55      0.00
    1    1    6     12.06      0.00
    1    1    2    -32.11      0.00
    1    1    4     53.11      0.00
    0    2    0     65.49      0.00
    0    2    1     89.89      0.00
    0    2    2   -130.27      0.00
    0    2    3    -56.18      0.00
    0    2    4     35.92      0.00
    0    2    5     75.30      0.00
    0    2    6     -2.83      0.00
    0    2    7    -54.42      0.00
    0    2    8     -7.84      0.00
    0    2    9     30.87      0.00
    0    2   10     -9.52      0.00
    0    2   11     38.41      0.00
    0    2   12      0.68      0.00
    0    2   13    -29.23      0.00
    0    2   14     10.77      0.00
    0    2   15      4.75      0.00
    0    2   16     -0.39      0.00
    0    2   17     -0.11      0.00
    0    2   18     -5.49      0.00
    0    2   19     37.15      0.00
    0    2   20     -4.24      0.00
    0    2   21     -0.76      0.00
    1    2   21      6.92      0.00
    1    2   20     20.77      0.00
    1    2   19      1.49      0.00
    1    2   18     -3.74      0.00
    1    2   17      1.77      0.00
    1    2   16      1.66      0.00
    1    2   15     -3.07      0.00
    1    2   14     -8.02      0.00
    1    2   13     12.58      0.00
    1    2   12    -24.57      0.00
    1    2   11     -4.71      0.00
    1    2   10     41.03      0.00
    1    2    9    -12.11      0.00
    1    2    8    -16.33      0.00
    1    2    7     18.96      0.00
    1    2    6     -2.85      0.00
    1    2    5    -31.54      0.00
    1    2    4    -24.93      0.00
    1    2    3     30.21      0.00
    1    2    2      7.77      0.00
    1    2    1    -82.05      0.00
    1    2    0     42.84      0.00
    2    2   20     12.74      0.00
    2    2   18      4.12      0.00
    2    2   16     -9.30      0.00
    2    2   14      1.54      0.00
    2    2   12     -6.53      0.00
    2    2   10    -27.21      0.00
    2    2    8     30.71      0.00
    2    2    6    -25.68      0.00
    2    2    4    -19.49      0.00
    2    2    2     52.05      0.00
    2    2    0   -308.96      0.00
    0    3    0    160.24      0.00
    0    3    1   -105.87      0.00
    0    3    2    -26.58      0.00
    0    3    3    -12.76      0.00
    0    3    4    -14.21      0.00
    0    3    5    -66.60      0.00
    0    3    6    -40.57      0.00
    0    3    7     10.58      0.00
    0    3    8     48.18      0.00
    0    3    9    -19.28      0.00
    0    3   10    -21.70      0.00
    0    3   11     -2.13      0.00
    0    3   12     15.36      0.00
    0    3   13     17.85      0.00
    0    3   14    -13.84      0.00
    0    3   15      3.75      0.00
    0    3   16     -5.77      0.00
    0    3   17      0.94      0.00
    0    3   18      5.35      0.00
    0    3   19      1.24      0.00
    0    3   20    -11.65      0.00
    0    3   21     10.31      0.00
    1    3   21     26.58      0.00
    1    3   20      0.62      0.00
    1    3   19     -4.57      0.00
    1    3   18     -4.59      0.00
    1    3   17      2.45      0.00
    1    3   16     -1.54      0.00
    1    3   15      1.41      0.00
    1    3   14      9.43      0.00
    1    3   13     -0.65      0.00
    1    3   12      3.95      0.00
    1    3   11    -10.88      0.00
    1    3   10    -19.81      0.00
    1    3    9     10.60      0.00
    1    3    8     -0.31      0.00
    1    3    7     14.55      0.00
    1    3    6      2.08      0.00
    1    3    5      9.42      0.00
    1    3    4     -5.36      0.00
    1    3    3     20.16      0.00
    1    3    2    -32.23      0.00
    1    3    1     66.61      0.00
    1    3    0    -34.44      0.00
    2    3   21      6.79      0.00
    2    3   20     33.07      0.00
    2    3   19     -3.70      0.00
    2    3   18     -2.75      0.00
    2    3   17     -1.07      0.00
    2    3   16      6.33      0.00
    2    3   15     12.38      0.00
    2    3   14      2.53      0.00
    2    3   13    -16.43      0.00
    2    3   12    -27.94      0.00
    2    3   11      3.59      0.00
    2    3   10     14.82      0.00
    2    3    9     -4.05      0.00
    2    3    8    -12.43      0.00
    2    3    7    -22.20      0.00
    2    3    6     27.04      0.00
    2    3    5     -5.73      0.00
    2    3    4     34.81      0.00
    2    3    3    -24.75      0.00
    2    3    2    -43.27      0.00
    2    3    1     66.81      0.00
    2    3    0     42.44      0.00
    3    3   20      6.82      0.00
    3    3   18      7.45      0.00
    3    3   16      1.89      0.00
    3    3   14    -13.79      0.00
    3    3   12     -7.78      0.00
    3    3   10      8.75      0.00
    3    3    8     -5.15      0.00
    3    3    6    -75.69      0.00
    3    3    4    -46.81      0.00
    3    3    2    -92.95      0.00
    0    4    0    135.09      0.00
    0    4    1     52.52      0.00
    0    4    2      2.13      0.00
    0    4    3      5.32      0.00
    0    4    4      8.43      0.00
    0    4    5     63.16      0.00
    0    4    6     14.67      0.00
    0    4    7    -17.06      0.00
    0    4    8    -34.03      0.00
    0    4    9     16.32      0.00
    0    4   10     -2.95      0.00
    0    4   11      2.82      0.00
    0    4   12      6.20      0.00
    0    4   13    -10.06      0.00
    0    4   14      1.29      0.00
    0    4   15     -1.09      0.00
    0    4   16      9.14      0.00
    0    4   17     -6.52      0.00
    0    4   18     -3.44      0.00
    0    4   19      3.09      0.00
    0    4   20     -8.15      0.00
    0    4   21    -11.28      0.00
    1    4   21      0.97      0.00
    1    4   20     -3.55      0.00
    1    4   19     -2.65      0.00
    1    4   18     -3.48      0.00
    1    4   17     -1.17      0.00
    1    4   16      2.15      0.00
    1    4   15      2.85      0.00
    1    4   14      1.27      0.00
    1    4   13    -11.58      0.00
    1    4   12      9.01      0.00
    1    4   11      7.95      0.00
    1    4   10      7.09      0.00
    1    4    9      1.39      0.00
    1    4    8     -1.62      0.00
    1    4    7    -13.41      0.00
    1    4    6     -3.21      0.00
    1    4    5    -19.13      0.00
    1    4    4     18.58      0.00
    1    4    3     -9.51      0.00
    1    4    2    -29.58      0.00
    1    4    1      6.00      0.00
    1    4    0      3.43      0.00
    2    4   21     -1.80      0.00
    2    4   20      8.02      0.00
    2    4   19    -10.16      0.00
    2    4   18     -3.06      0.00
    2    4   17     -3.64      0.00
    2    4   16     -3.85      0.00
    2    4   15     -5.13      0.00
    2    4   14     -6.33      0.00
    2    4   13      9.42      0.00
    2    4   12      1.77      0.00
    2    4   11    -14.85      0.00
    2    4   10      8.42      0.00
    2    4    9     -0.99      0.00
    2    4    8     17.41      0.00
    2    4    7     -1.39      0.00
    2    4    6     -2.64      0.00
    2    4    5    -23.28      0.00
    2    4    4    -42.04      0.00
    2    4    3      3.41      0.00
    2    4    2     12.65      0.00
    2    4    1    -86.84      0.00
    2    4    0   -100.16      0.00
    3    4   21     -2.28      0.00
    3    4   20      0.47      0.00
    3    4   19      3.22      0.00
    3    4   18     -7.72      0.00
    3    4   17      3.55      0.00
    3    4   16     -8.89      0.00
    3    4   15     -8.39      0.00
    3    4   14     -4.10      0.00
    3    4   13     -5.06      0.00
    3    4   12      9.80      0.00
    3    4   11     -2.90      0.00
    3    4   10    -20.05      0.00
    3    4    9      1.61      0.00
    3    4    8     14.24      0.00
    3    4    7      1.81      0.00
    3    4    6     23.21      0.00
    3    4    5      7.93      0.00
    3    4    4      4.58      0.00
    3    4    3    -11.12      0.00
    3    4    2    -12.17      0.00
    3    4    1     24.25      0.00
    3    4    0    -87.61      0.00
    4    4   20      3.86      0.00
    4    4   18      2.23      0.00
    4    4   16     -3.71      0.00
    4    4   14     -1.83      0.00
    4    4   12     -2.59      0.00
    4    4   10     19.63      0.00
    4    4    8    -16.35      0.00
    4    4    6    -11.47      0.00
    4    4    4     -3.86      0.00
    4    4    0     96.75      0.00
    4    4    2    -49.53      0.00
    0    5    0    -20.76      0.00
    0    5    1    -26.87      0.00
    0    5    2    -65.75      0.00
    0    5    3     44.62      0.00
    0    5    4     43.55      0.00
    0    5    5    -27.95      0.00
    0    5    6    -14.72      0.00
    0    5    7     28.30      0.00
    0    5    8     -3.56      0.00
    0    5    9     -0.84      0.00
    0    5   10    -12.20      0.00
    0    5   11     -0.35      0.00
    0    5   12      5.28      0.00
    0    5   13      7.43      0.00
    0    5   14     11.09      0.00
    0    5   15     -3.55      0.00
    0    5   16      4.03      0.00
    0    5   17     -8.04      0.00
    0    5   18      1.28      0.00
    0    5   19      1.06      0.00
    0    5   20     -8.93      0.00
    1    5   20     11.26      0.00
    1    5   19     -6.83      0.00
    1    5   18     -1.71      0.00
    1    5   17      0.10      0.00
    1    5   16      0.27      0.00
    1    5   15      5.12      0.00
    1    5   14     -4.57      0.00
    1    5   13     -7.86      0.00
    1    5   12      2.08      0.00
    1    5   11     -2.48      0.00
    1    5   10      0.65      0.00
    1    5    9     -4.12      0.00
    1    5    8     20.79      0.00
    1    5    7    -16.66      0.00
    1    5    6     12.99      0.00
    1    5    5      6.94      0.00
    1    5    4     -2.62      0.00
    1    5    3    -15.21      0.00
    1    5    2     73.57      0.00
    1    5    1    -18.17      0.00
    1    5    0    -12.42      0.00
    2    5   21      7.89      0.00
    2    5   20      2.53      0.00
    2    5   19      4.12      0.00
    2    5   18     -8.81      0.00
    2    5   17     -3.08      0.00
    2    5   16      2.15      0.00
    2    5   15     -2.20      0.00
    2    5   14      1.46      0.00
    2    5   13     -9.60      0.00
    2    5   12    -14.58      0.00
    2    5   11     -1.92      0.00
    2    5   10     30.13      0.00
    2    5    9      2.27      0.00
    2    5    8    -30.30      0.00
    2    5    7     21.41      0.00
    2    5    6    -13.43      0.00
    2    5    5      5.46      0.00
    2    5    4     12.16      0.00
    2    5    3     12.65      0.00
    2    5    2    -16.33      0.00
    2    5    1     18.65      0.00
    2    5    0     49.58      0.00
    3    5   20      5.25      0.00
    3    5   19     -3.66      0.00
    3    5   18     -5.79      0.00
    3    5   17      0.80      0.00
    3    5   16     -1.12      0.00
    3    5   15      6.20      0.00
    3    5   14      4.14      0.00
    3    5   13      3.03      0.00
    3    5   12      3.26      0.00
    3    5   11      9.84      0.00
    3    5   10     -9.57      0.00
    3    5    9      3.07      0.00
    3    5    8     10.30      0.00
    3    5    7    -47.08      0.00
    3    5    6      3.19      0.00
    3    5    5     19.86      0.00
    3    5    4     23.29      0.00
    3    5    3    -44.01      0.00
    3    5    2    -38.82      0.00
    3    5    1      1.55      0.00
    3    5    0    -22.89      0.00
    4    5   20     -1.96      0.00
    4    5   19     -4.63      0.00
    4    5   18     -2.84      0.00
    4    5   17      1.56      0.00
    4    5   16      1.19      0.00
    4    5   15     -2.94      0.00
    4    5   14      5.28      0.00
    4    5   13      9.20      0.00
    4    5   12      5.66      0.00
    4    5   11     -6.02      0.00
    4    5   10      5.28      0.00
    4    5    9    -10.76      0.00
    4    5    8     -9.76      0.00
    4    5    7     42.78      0.00
    4    5    6     -2.44      0.00
    4    5    5    -22.80      0.00
    4    5    4    -14.24      0.00
    4    5    3     45.25      0.00
    4    5    2     12.30      0.00
    4    5    1    -16.50      0.00
    4    5    0     -9.70      0.00
    5    5   20     -7.91      0.00
    5    5   18     -3.08      0.00
    5    5   16     -8.66      0.00
    5    5   14     -3.86      0.00
    5    5   12      4.05      0.00
    5    5   10    -10.43      0.00
    5    5    6     -4.40      0.00
    5    5    4     33.17      0.00
    5    5    2     60.53      0.00
    5    5    0      4.29      0.00
    5    5    8     39.39      0.00
    0    6    0    163.16      0.00
    0    6    1     38.18      0.00
    0    6    2     32.32      0.00
    0    6    3    -13.38      0.00
    0    6    4     13.80      0.00
    0    6    5      7.63      0.00
    0    6    6      8.49      0.00
    0    6    7    -17.97      0.00
    0    6    8      1.66      0.00
    0    6    9     -4.40      0.00
    0    6   10     25.14      0.00
    0    6   11      3.76      0.00
    0    6   12     -4.38      0.00
    0    6   13      1.45      0.00
    0    6   14    -14.18      0.00
    0    6   15      7.41      0.00
    0    6   16      6.66      0.00
    0    6   17     -0.70      0.00
    0    6   18      4.71      0.00
    0    6   19     -2.13      0.00
    0    6   20     -3.90      0.00
    1    6   20      4.31      0.00
    1    6   19      1.68      0.00
    1    6   18     -0.90      0.00
    1    6   17    -11.20      0.00
    1    6   16      0.96      0.00
    1    6   15     21.17      0.00
    1    6   14      4.71      0.00
    1    6   13     -2.41      0.00
    1    6   12     -5.79      0.00
    1    6   11     -2.20      0.00
    1    6   10     -5.81      0.00
    1    6    9     -2.92      0.00
    1    6    8    -11.90      0.00
    1    6    7     10.75      0.00
    1    6    6    -11.37      0.00
    1    6    5     -7.95      0.00
    1    6    4     -2.42      0.00
    1    6    3      7.28      0.00
    1    6    2    -11.58      0.00
    1    6    1     10.22      0.00
    1    6    0    -25.02      0.00
    2    6   20      3.42      0.00
    2    6   19     -2.77      0.00
    2    6   18     -6.08      0.00
    2    6   17      0.47      0.00
    2    6   16      3.29      0.00
    2    6   15     -1.84      0.00
    2    6   14      1.79      0.00
    2    6   13      0.70      0.00
    2    6   12     -2.27      0.00
    2    6   11     -5.40      0.00
    2    6   10    -16.75      0.00
    2    6    9      6.21      0.00
    2    6    8      2.17      0.00
    2    6    7      6.15      0.00
    2    6    6     12.34      0.00
    2    6    5    -23.86      0.00
    2    6    4      5.62      0.00
    2    6    3    -10.04      0.00
    2    6    2     18.48      0.00
    2    6    1    -25.40      0.00
    2    6    0    -68.28      0.00
    3    6   20     -2.37      0.00
    3    6   19     -2.01      0.00
    3    6   18      2.37      0.00
    3    6   17     -4.80      0.00
    3    6   16     -3.94      0.00
    3    6   15     -3.64      0.00
    3    6   14    -17.78      0.00
    3    6   13      5.42      0.00
    3    6   12     -3.83      0.00
    3    6   11      0.14      0.00
    3    6   10      5.43      0.00
    3    6    9     -4.07      0.00
    3    6    8     14.88      0.00
    3    6    7     28.08      0.00
    3    6    6    -16.33      0.00
    3    6    5      2.57      0.00
    3    6    4    -22.11      0.00
    3    6    3     47.40      0.00
    3    6    2     11.86      0.00
    3    6    1     10.22      0.00
    3    6    0     52.19      0.00
    4    6   20      0.48      0.00
    4    6   19    -11.19      0.00
    4    6   18     -0.45      0.00
    4    6   17     -3.54      0.00
    4    6   16     -0.61      0.00
    4    6   15      5.77      0.00
    4    6   14      4.88      0.00
    4    6   13     -8.61      0.00
    4    6   12      4.17      0.00
    4    6   11     -3.98      0.00
    4    6   10     -2.68      0.00
    4    6    9     -0.50      0.00
    4    6    8     -2.29      0.00
    4    6    7    -23.46      0.00
    4    6    6      7.29      0.00
    4    6    5      3.23      0.00
    4    6    4     22.05      0.00
    4    6    3    -31.49      0.00
    4    6    2     -9.30      0.00
    4    6    1      3.17      0.00
    4    6    0      1.84      0.00
    5    6   20     -5.54      0.00
    5    6   19     -1.33      0.00
    5    6   18     -7.04      0.00
    5    6   17     -6.83      0.00
    5    6   16      5.81      0.00
    5    6   15      3.60      0.00
    5    6   14     -0.59      0.00
    5    6   13     -0.96      0.00
    5    6   12     -7.72      0.00
    5    6   11     -0.22      0.00
    5    6   10      9.62      0.00
    5    6    9     -0.52      0.00
    5    6    8    -17.80      0.00
    5    6    6      5.23      0.00
    5    6    5     -0.31      0.00
    5    6    4     13.78      0.00
    5    6    3     -4.03      0.00
    5    6    2    -38.52      0.00
    5    6    1      4.40      0.00
    5    6    0     18.55      0.00
    5    6    7      0.66      0.00
    6    6   20     -3.25      0.00
    6    6   18    -18.66      0.00
    6    6   16     -5.71      0.00
    6    6   14    -11.03      0.00
    6    6   12     -0.95      0.00
    6    6   10     -1.20      0.00
    6    6    8     18.53      0.00
    6    6    6    -15.58      0.00
    6    6    4    -18.71      0.00
    6    6    2     40.21      0.00
    6    6    0     28.78      0.00
    0    7    0   -114.04      0.00
    0    7    1     -2.98      0.00
    0    7    2     19.21      0.00
    0    7    3      2.79      0.00
    0    7    4    -31.66      0.00
    0    7    5     19.69      0.00
    0    7    6     13.19      0.00
    0    7    7     -3.80      0.00
    0    7    8     25.19      0.00
    0    7    9      6.88      0.00
    0    7   10    -13.17      0.00
    0    7   11      7.85      0.00
    0    7   12      9.64      0.00
    0    7   13      0.27      0.00
    0    7   14      3.42      0.00
    0    7   15     16.90      0.00
    0    7   16     -1.74      0.00
    0    7   17     -3.14      0.00
    0    7   18     -1.40      0.00
    0    7   19      1.76      0.00
    0    7   20     -0.73      0.00
    1    7   20     -3.57      0.00
    1    7   19     -6.57      0.00
    1    7   18     -1.60      0.00
    1    7   17     -3.68      0.00
    1    7   16      1.71      0.00
    1    7   15      0.91      0.00
    1    7   14     -6.21      0.00
    1    7   13      2.67      0.00
    1    7   12     -9.64      0.00
    1    7   11      1.38      0.00
    1    7   10     23.17      0.00
    1    7    9      2.15      0.00
    1    7    8    -30.88      0.00
    1    7    7     23.76      0.00
    1    7    6      9.35      0.00
    1    7    5    -21.30      0.00
    1    7    4      5.18      0.00
    1    7    3     17.00      0.00
    1    7    2     -0.42      0.00
    1    7    1     -8.85      0.00
    1    7    0     26.85      0.00
    2    7   20      2.77      0.00
    2    7   19     -4.89      0.00
    2    7   18      0.34      0.00
    2    7   17     -6.41      0.00
    2    7   16      3.52      0.00
    2    7   15     10.31      0.00
    2    7   14     -4.30      0.00
    2    7   13     -5.30      0.00
    2    7   12     -6.14      0.00
    2    7   11      2.71      0.00
    2    7   10      0.64      0.00
    2    7    9     -2.16      0.00
    2    7    8     -7.02      0.00
    2    7    7    -33.26      0.00
    2    7    6      6.13      0.00
    2    7    5     18.54      0.00
    2    7    4     -7.53      0.00
    2    7    3    -20.17      0.00
    2    7    2     22.94      0.00
    2    7    1     24.59      0.00
    2    7    0      2.33      0.00
    3    7   20      0.73      0.00
    3    7   19     -3.72      0.00
    3    7   18     -1.92      0.00
    3    7   17      1.93      0.00
    3    7   16     10.30      0.00
    3    7   15     -3.44      0.00
    3    7   14      6.46      0.00
    3    7   13      0.82      0.00
    3    7   12      2.13      0.00
    3    7   11     -6.02      0.00
    3    7   10      3.28      0.00
    3    7    9      3.08      0.00
    3    7    8    -26.30      0.00
    3    7    7     -5.89      0.00
    3    7    6     20.20      0.00
    3    7    5      6.62      0.00
    3    7    4    -11.77      0.00
    3    7    3     -9.21      0.00
    3    7    2    -11.62      0.00
    3    7    1    -15.15      0.00
    3    7    0     31.68      0.00
    4    7   20      4.83      0.00
    4    7   19     -9.18      0.00
    4    7   18      0.70      0.00
    4    7   17     -7.86      0.00
    4    7   16     -9.50      0.00
    4    7   15     -3.14      0.00
    4    7   14     -7.14      0.00
    4    7   13     -2.82      0.00
    4    7   12      4.60      0.00
    4    7   11      1.72      0.00
    4    7   10      2.25      0.00
    4    7    9     -0.58      0.00
    4    7    8     18.21      0.00
    4    7    7      2.42      0.00
    4    7    6     -3.84      0.00
    4    7    5    -14.48      0.00
    4    7    4     -5.65      0.00
    4    7    3      1.04      0.00
    4    7    2     -3.07      0.00
    4    7    1      9.05      0.00
    4    7    0     -5.10      0.00
    5    7   20     -2.99      0.00
    5    7   19      4.53      0.00
    5    7   18     -7.09      0.00
    5    7   17     -4.66      0.00
    5    7   16     -1.87      0.00
    5    7   15     -9.23      0.00
    5    7   14     -5.28      0.00
    5    7   13      6.39      0.00
    5    7   12      2.11      0.00
    5    7   11     -2.27      0.00
    5    7   10     -1.36      0.00
    5    7    9      4.42      0.00
    5    7    8     -3.48      0.00
    5    7    7     12.99      0.00
    5    7    6      4.08      0.00
    5    7    5    -16.70      0.00
    5    7    4    -16.80      0.00
    5    7    3     17.64      0.00
    5    7    2     20.85      0.00
    5    7    1    -23.01      0.00
    5    7    0    -22.34      0.00
    6    7   20     -1.87      0.00
    6    7   19      4.66      0.00
    6    7   18     -0.87      0.00
    6    7   17      3.37      0.00
    6    7   16     -1.06      0.00
    6    7   15     -1.10      0.00
    6    7   14     -2.28      0.00
    6    7   13     -2.18      0.00
    6    7   12      5.10      0.00
    6    7   11     -3.00      0.00
    6    7   10    -11.07      0.00
    6    7    9     -0.63      0.00
    6    7    8     -3.03      0.00
    6    7    7    -12.81      0.00
    6    7    6      0.51      0.00
    6    7    5     34.10      0.00
    6    7    4      6.22      0.00
    6    7    3     -5.34      0.00
    6    7    2    -20.23      0.00
    6    7    1     14.01      0.00
    6    7    0    -14.26      0.00
    7    7   18      0.18      0.00
    7    7   16      4.33      0.00
    7    7   14      3.13      0.00
    7    7   12     -7.48      0.00
    7    7   10     10.19      0.00
    7    7    8    -23.74      0.00
    7    7    6      4.21      0.00
    7    7    4      1.79      0.00
    7    7    2     15.18      0.00
    7    7    0     65.17      0.00
    0    8    0     21.51      0.00
    0    8    1     25.33      0.00
    0    8    2    -54.98      0.00
    0    8    3     -5.08      0.00
    0    8    4     42.45      0.00
    0    8    5     16.42      0.00
    0    8    6      6.67      0.00
    0    8    7     -8.33      0.00
    0    8    8    -16.20      0.00
    0    8    9     -1.75      0.00
    0    8   10      3.84      0.00
    0    8   11      3.70      0.00
    0    8   12     -7.01      0.00
    0    8   13     -6.05      0.00
    0    8   14      0.02      0.00
    0    8   15      6.59      0.00
    0    8   16      3.34      0.00
    0    8   17      3.48      0.00
    0    8   18     -5.78      0.00
    0    8   19    -11.92      0.00
    0    8   20      5.44      0.00
    1    8   20      3.40      0.00
    1    8   19     -3.38      0.00
    1    8   18      0.19      0.00
    1    8   17     -5.23      0.00
    1    8   16      1.29      0.00
    1    8   15      4.56      0.00
    1    8   14      3.90      0.00
    1    8   13     -5.27      0.00
    1    8   12     -5.53      0.00
    1    8   11     -2.13      0.00
    1    8   10     11.78      0.00
    1    8    9     -5.09      0.00
    1    8    8     -0.19      0.00
    1    8    7      2.86      0.00
    1    8    6     10.86      0.00
    1    8    5     -8.66      0.00
    1    8    4     -1.74      0.00
    1    8    3     -4.57      0.00
    1    8    2     33.19      0.00
    1    8    1    -13.00      0.00
    1    8    0      0.92      0.00
    2    8   20      9.14      0.00
    2    8   19      1.12      0.00
    2    8   18     -4.75      0.00
    2    8   17      0.77      0.00
    2    8   16     -3.05      0.00
    2    8   15      0.60      0.00
    2    8   14     -1.14      0.00
    2    8   13      0.79      0.00
    2    8   12      3.42      0.00
    2    8   11      1.67      0.00
    2    8   10     -2.40      0.00
    2    8    9      2.19      0.00
    2    8    8      5.77      0.00
    2    8    7     13.42      0.00
    2    8    6     -9.91      0.00
    2    8    5     -2.58      0.00
    2    8    4    -29.94      0.00
    2    8    3      7.24      0.00
    2    8    2      6.41      0.00
    2    8    1     -1.73      0.00
    2    8    0    -37.70      0.00
    3    8   20      4.20      0.00
    3    8   19     -5.85      0.00
    3    8   18      2.43      0.00
    3    8   17     -0.84      0.00
    3    8   16     -0.43      0.00
    3    8   15    -13.33      0.00
    3    8   14     10.18      0.00
    3    8   13     -3.02      0.00
    3    8   12      1.39      0.00
    3    8   11     -2.29      0.00
    3    8   10     -8.92      0.00
    3    8    9      1.50      0.00
    3    8    8      1.47      0.00
    3    8    7      0.82      0.00
    3    8    6     13.84      0.00
    3    8    5    -16.82      0.00
    3    8    4     23.92      0.00
    3    8    3      6.93      0.00
    3    8    2    -33.33      0.00
    3    8    1    -19.17      0.00
    3    8    0     22.48      0.00
    4    8   20      1.87      0.00
    4    8   19     -6.14      0.00
    4    8   18      4.85      0.00
    4    8   17     -6.93      0.00
    4    8   16     -3.03      0.00
    4    8   15      7.38      0.00
    4    8   14      0.19      0.00
    4    8   13     -1.79      0.00
    4    8   12      0.71      0.00
    4    8   11     -2.88      0.00
    4    8   10     -5.30      0.00
    4    8    9      1.46      0.00
    4    8    8     -6.27      0.00
    4    8    7      2.29      0.00
    4    8    6      6.09      0.00
    4    8    5     19.20      0.00
    4    8    4     -7.28      0.00
    4    8    3      6.53      0.00
    4    8    2     20.22      0.00
    4    8    1     15.05      0.00
    4    8    0     -9.00      0.00
    5    8   20     -4.69      0.00
    5    8   19      5.59      0.00
    5    8   18     -6.57      0.00
    5    8   17      0.90      0.00
    5    8   16     -1.64      0.00
    5    8   15      3.23      0.00
    5    8   14      3.87      0.00
    5    8   13      6.20      0.00
    5    8   12     -1.00      0.00
    5    8   11     -0.75      0.00
    5    8   10      8.40      0.00
    5    8    9     -1.58      0.00
    5    8    8     -5.56      0.00
    5    8    7    -11.37      0.00
    5    8    6    -15.36      0.00
    5    8    5      5.63      0.00
    5    8    4     14.64      0.00
    5    8    3    -10.95      0.00
    5    8    2     -9.03      0.00
    5    8    1     -0.68      0.00
    5    8    0     64.38      0.00
    6    8   19      3.10      0.00
    6    8   18     -7.80      0.00
    6    8   17     -1.66      0.00
    6    8   16      1.53      0.00
    6    8   15     -0.89      0.00
    6    8   14      0.15      0.00
    6    8   13      0.88      0.00
    6    8   12      4.56      0.00
    6    8   11      0.58      0.00
    6    8   10     -2.16      0.00
    6    8    9      4.53      0.00
    6    8    8      2.86      0.00
    6    8    7    -14.14      0.00
    6    8    6      8.61      0.00
    6    8    5    -12.78      0.00
    6    8    4     -0.60      0.00
    6    8    3     11.89      0.00
    6    8    2     -6.21      0.00
    6    8    1      6.41      0.00
    6    8    0    -20.31      0.00
    7    8   19     -3.13      0.00
    7    8   18      1.97      0.00
    7    8   17     -5.02      0.00
    7    8   16      4.41      0.00
    7    8   15     -2.00      0.00
    7    8   14      3.15      0.00
    7    8   13     -7.61      0.00
    7    8   12     11.70      0.00
    7    8   11     -3.10      0.00
    7    8   10     -7.62      0.00
    7    8    9     -2.99      0.00
    7    8    8      3.97      0.00
    7    8    7     16.95      0.00
    7    8    6     -4.08      0.00
    7    8    5     -0.55      0.00
    7    8    4     -5.25      0.00
    7    8    3      3.52      0.00
    7    8    2     15.12      0.00
    7    8    1    -20.73      0.00
    7    8    0    -23.52      0.00
    8    8   18      4.67      0.00
    8    8   16      2.20      0.00
    8    8   14     -1.47      0.00
    8    8   12      1.20      0.00
    8    8   10     -4.28      0.00
    8    8    8     -1.56      0.00
    8    8    6    -19.16      0.00
    8    8    4      3.29      0.00
    8    8    2    -20.68      0.00
    8    8    0     16.78      0.00
    0    9    0     26.92      0.00
    0    9    1    -34.62      0.00
    0    9    2     44.04      0.00
    0    9    3    -12.48      0.00
    0    9    4    -22.16      0.00
    0    9    5    -35.47      0.00
    0    9    6     -7.61      0.00
    0    9    7     10.96      0.00
    0    9    8      1.96      0.00
    0    9    9     -4.06      0.00
    0    9   10      8.66      0.00
    0    9   11     -1.40      0.00
    0    9   12     -1.17      0.00
    0    9   13      0.81      0.00
    0    9   14     -8.33      0.00
    0    9   15     -1.93      0.00
    0    9   16     -4.43      0.00
    0    9   17     -9.15      0.00
    0    9   18      4.63      0.00
    0    9   19      3.73      0.00
    0    9   20      1.14      0.00
    1    9   20      3.25      0.00
    1    9   19     -0.54      0.00
    1    9   18      0.52      0.00
    1    9   17      2.45      0.00
    1    9   16     -7.17      0.00
    1    9   15      4.00      0.00
    1    9   14      9.26      0.00
    1    9   13     -1.78      0.00
    1    9   12     -1.12      0.00
    1    9   11     -0.53      0.00
    1    9   10     -5.29      0.00
    1    9    9      0.24      0.00
    1    9    8      6.15      0.00
    1    9    7     -2.58      0.00
    1    9    6     -0.31      0.00
    1    9    5     21.00      0.00
    1    9    4      6.07      0.00
    1    9    3     -2.16      0.00
    1    9    2    -12.92      0.00
    1    9    1     26.51      0.00
    1    9    0    -54.37      0.00
    2    9   20      0.01      0.00
    2    9   19      5.58      0.00
    2    9   18      0.02      0.00
    2    9   17      7.70      0.00
    2    9   16      3.36      0.00
    2    9   15      5.28      0.00
    2    9   14      5.83      0.00
    2    9   13     -2.34      0.00
    2    9   12     -6.15      0.00
    2    9   11     -9.04      0.00
    2    9   10      0.39      0.00
    2    9    9     -0.58      0.00
    2    9    8    -16.62      0.00
    2    9    7     -5.90      0.00
    2    9    6     20.46      0.00
    2    9    5      4.07      0.00
    2    9    4     26.05      0.00
    2    9    3     -5.69      0.00
    2    9    2     -7.99      0.00
    2    9    1    -14.08      0.00
    2    9    0     34.81      0.00
    3    9   20      1.22      0.00
    3    9   19      0.34      0.00
    3    9   18      2.17      0.00
    3    9   17      4.24      0.00
    3    9   16     -1.90      0.00
    3    9   15      3.11      0.00
    3    9   14      0.26      0.00
    3    9   13     -0.62      0.00
    3    9   12     -3.36      0.00
    3    9   11     -3.24      0.00
    3    9   10     -2.12      0.00
    3    9    9      0.64      0.00
    3    9    8      5.37      0.00
    3    9    7    -19.48      0.00
    3    9    6    -18.35      0.00
    3    9    5     10.50      0.00
    3    9    4    -40.39      0.00
    3    9    3     -9.05      0.00
    3    9    2     14.61      0.00
    3    9    1     24.37      0.00
    3    9    0      2.34      0.00
    4    9   19    -10.38      0.00
    4    9   18      0.59      0.00
    4    9   17     -7.42      0.00
    4    9   16      0.69      0.00
    4    9   15     -3.47      0.00
    4    9   14      8.18      0.00
    4    9   13      5.85      0.00
    4    9   12      2.28      0.00
    4    9   11     -0.05      0.00
    4    9   10      0.07      0.00
    4    9    9      7.88      0.00
    4    9    8      6.15      0.00
    4    9    7      8.79      0.00
    4    9    6     -0.70      0.00
    4    9    5    -26.01      0.00
    4    9    4     22.59      0.00
    4    9    3      5.33      0.00
    4    9    2     -7.12      0.00
    4    9    1    -18.51      0.00
    4    9    0     31.27      0.00
    5    9   19      3.91      0.00
    5    9   18     -1.56      0.00
    5    9   17      0.09      0.00
    5    9   16     -1.66      0.00
    5    9   15      0.75      0.00
    5    9   14     -2.14      0.00
    5    9   13     -3.07      0.00
    5    9   12     -0.38      0.00
    5    9   11     -7.46      0.00
    5    9   10     -9.11      0.00
    5    9    9      5.38      0.00
    5    9    8      7.95      0.00
    5    9    7      7.61      0.00
    5    9    6      4.67      0.00
    5    9    5     14.97      0.00
    5    9    4     -6.52      0.00
    5    9    3     11.66      0.00
    5    9    2     -1.07      0.00
    5    9    1     11.33      0.00
    5    9    0    -65.61      0.00
    6    9   19      8.11      0.00
    6    9   18     -0.27      0.00
    6    9   17      5.97      0.00
    6    9   16     -1.81      0.00
    6    9   15     -1.04      0.00
    6    9   14     -3.70      0.00
    6    9   13      5.29      0.00
    6    9   12     -7.49      0.00
    6    9   11     -5.05      0.00
    6    9   10     -4.87      0.00
    6    9    9     -3.91      0.00
    6    9    8      5.11      0.00
    6    9    7     -2.02      0.00
    6    9    6     -3.91      0.00
    6    9    5     -4.75      0.00
    6    9    4     -2.63      0.00
    6    9    3    -11.05      0.00
    6    9    2      5.62      0.00
    6    9    1    -16.26      0.00
    6    9    0     35.74      0.00
    7    9   19     -5.41      0.00
    7    9   18      0.02      0.00
    7    9   17     -6.25      0.00
    7    9   16     -0.40      0.00
    7    9   15      0.66      0.00
    7    9   14      6.50      0.00
    7    9   13     10.78      0.00
    7    9   12      1.62      0.00
    7    9   11     -1.62      0.00
    7    9   10      2.10      0.00
    7    9    9      9.25      0.00
    7    9    8     -0.86      0.00
    7    9    7    -13.15      0.00
    7    9    6     -2.55      0.00
    7    9    5      4.06      0.00
    7    9    4      5.73      0.00
    7    9    3     -5.65      0.00
    7    9    2    -10.75      0.00
    7    9    1     22.37      0.00
    7    9    0     -4.66      0.00
    8    9   18     -3.18      0.00
    8    9   17     -1.20      0.00
    8    9   16      4.10      0.00
    8    9   15      0.34      0.00
    8    9   14      3.65      0.00
    8    9   13      4.05      0.00
    8    9   12      5.90      0.00
    8    9   11     -4.82      0.00
    8    9   10     -7.44      0.00
    8    9    9      1.12      0.00
    8    9    8     -8.11      0.00
    8    9    7      6.92      0.00
    8    9    6      0.56      0.00
    8    9    5     -3.61      0.00
    8    9    4     -1.93      0.00
    8    9    3     -1.67      0.00
    8    9    2      1.47      0.00
    8    9    1    -16.21      0.00
    8    9    0     -4.50      0.00
    9    9   18      6.24      0.00
    9    9   16      7.62      0.00
    9    9   14     -1.76      0.00
    9    9   12      1.66      0.00
    9    9   10    -13.99      0.00
    9    9    8     16.64      0.00
    9    9    6     -9.85      0.00
    9    9    4    -15.43      0.00
    9    9    2      2.41      0.00
    9    9    0    -30.26      0.00
    0   10    0     29.28      0.00
    0   10    1     -2.32      0.00
    0   10    2    -27.90      0.00
    0   10    3     -5.39      0.00
    0   10    4     33.44      0.00
    0   10    5     24.17      0.00
    0   10    6     -6.67      0.00
    0   10    7     -0.75      0.00
    0   10    8    -21.90      0.00
    0   10    9     -9.29      0.00
    0   10   10      9.57      0.00
    0   10   11     -3.57      0.00
    0   10   12      0.05      0.00
    0   10   13      5.09      0.00
    0   10   14     12.94      0.00
    0   10   15     -2.16      0.00
    0   10   16      1.01      0.00
    0   10   17      7.11      0.00
    0   10   18     -1.34      0.00
    0   10   19     -3.16      0.00
    1   10   19      4.96      0.00
    1   10   18      4.27      0.00
    1   10   17      4.84      0.00
    1   10   16      1.29      0.00
    1   10   15     15.04      0.00
    1   10   14     -0.94      0.00
    1   10   13      2.16      0.00
    1   10   12      6.78      0.00
    1   10   11      6.92      0.00
    1   10   10      2.16      0.00
    1   10    9     -1.95      0.00
    1   10    8     -1.49      0.00
    1   10    7     -4.36      0.00
    1   10    6     -3.24      0.00
    1   10    5      2.40      0.00
    1   10    4     -8.82      0.00
    1   10    3     -4.85      0.00
    1   10    2     10.54      0.00
    1   10    1      9.27      0.00
    1   10    0    -11.10      0.00
    2   10   19      8.79      0.00
    2   10   18      5.62      0.00
    2   10   17      4.11      0.00
    2   10   16     -2.55      0.00
    2   10   15     -2.34      0.00
    2   10   14      3.61      0.00
    2   10   13      9.03      0.00
    2   10   12      0.06      0.00
    2   10   11      2.94      0.00
    2   10   10      5.85      0.00
    2   10    9     -0.39      0.00
    2   10    8      2.92      0.00
    2   10    7      5.64      0.00
    2   10    6      5.14      0.00
    2   10    5    -20.63      0.00
    2   10    4    -16.55      0.00
    2   10    3     12.92      0.00
    2   10    2      6.54      0.00
    2   10    1     -4.76      0.00
    2   10    0      0.27      0.00
    3   10   19     -7.85      0.00
    3   10   18     -0.55      0.00
    3   10   17      6.98      0.00
    3   10   16     -5.19      0.00
    3   10   15      0.85      0.00
    3   10   14     -0.07      0.00
    3   10   13     -1.75      0.00
    3   10   12      8.63      0.00
    3   10   11     -4.10      0.00
    3   10   10     -4.91      0.00
    3   10    9      0.09      0.00
    3   10    8      3.11      0.00
    3   10    7     -5.10      0.00
    3   10    6     -0.39      0.00
    3   10    5     11.83      0.00
    3   10    4     10.97      0.00
    3   10    3     -9.07      0.00
    3   10    2     -9.32      0.00
    3   10    1     -6.18      0.00
    3   10    0     -4.97      0.00
    4   10   19      0.94      0.00
    4   10   18     11.58      0.00
    4   10   17     -0.35      0.00
    4   10   16      3.61      0.00
    4   10   15      0.10      0.00
    4   10   14      6.84      0.00
    4   10   13      3.87      0.00
    4   10   12    -15.91      0.00
    4   10   11     -0.98      0.00
    4   10   10      7.35      0.00
    4   10    9     -5.52      0.00
    4   10    8     -9.13      0.00
    4   10    7      2.53      0.00
    4   10    6     -3.83      0.00
    4   10    5    -10.46      0.00
    4   10    4     -6.44      0.00
    4   10    3     11.51      0.00
    4   10    2     -2.84      0.00
    4   10    1     -3.21      0.00
    4   10    0     16.33      0.00
    5   10   19      3.92      0.00
    5   10   18     -1.17      0.00
    5   10   17      1.65      0.00
    5   10   16     -2.41      0.00
    5   10   15      0.31      0.00
    5   10   14     -1.64      0.00
    5   10   13     12.17      0.00
    5   10   12      1.20      0.00
    5   10   11     -2.41      0.00
    5   10   10     -6.69      0.00
    5   10    9      5.67      0.00
    5   10    8      2.88      0.00
    5   10    7    -18.03      0.00
    5   10    6      3.33      0.00
    5   10    5      6.30      0.00
    5   10    4      0.23      0.00
    5   10    3     -4.59      0.00
    5   10    2     10.07      0.00
    5   10    1     20.68      0.00
    5   10    0     -3.86      0.00
    6   10   19     -4.41      0.00
    6   10   18     -4.53      0.00
    6   10   17     -0.21      0.00
    6   10   16      0.63      0.00
    6   10   15     -2.92      0.00
    6   10   14      8.75      0.00
    6   10   13      8.96      0.00
    6   10   12      1.47      0.00
    6   10   11     -1.52      0.00
    6   10   10      7.55      0.00
    6   10    9      0.57      0.00
    6   10    8    -11.00      0.00
    6   10    7     13.88      0.00
    6   10    6     -2.70      0.00
    6   10    5      6.18      0.00
    6   10    4      8.57      0.00
    6   10    3      7.75      0.00
    6   10    2     -3.00      0.00
    6   10    1     -8.75      0.00
    6   10    0      1.51      0.00
    7   10   18      6.02      0.00
    7   10   17      0.63      0.00
    7   10   16      1.03      0.00
    7   10   15      4.92      0.00
    7   10   14     -4.25      0.00
    7   10   13      9.06      0.00
    7   10   12    -16.34      0.00
    7   10   11      0.05      0.00
    7   10   10     -1.07      0.00
    7   10    9     -4.62      0.00
    7   10    8      5.10      0.00
    7   10    7     -5.75      0.00
    7   10    6      4.10      0.00
    7   10    5     -9.36      0.00
    7   10    4    -13.95      0.00
    7   10    3      0.60      0.00
    7   10    2     11.78      0.00
    7   10    1     -3.73      0.00
    7   10    0    -22.01      0.00
    8   10   18      1.41      0.00
    8   10   17      4.76      0.00
    8   10   16     -0.81      0.00
    8   10   15     -1.44      0.00
    8   10   14      2.96      0.00
    8   10   13      4.87      0.00
    8   10   12     -4.14      0.00
    8   10   11     -3.67      0.00
    8   10   10     -8.61      0.00
    8   10    9      6.64      0.00
    8   10    8      2.58      0.00
    8   10    7      2.65      0.00
    8   10    6     -0.62      0.00
    8   10    5     -2.83      0.00
    8   10    4      3.77      0.00
    8   10    3      1.00      0.00
    8   10    2     -3.19      0.00
    8   10    1      5.55      0.00
    8   10    0     -6.13      0.00
    9   10   18      2.69      0.00
    9   10   17     -1.39      0.00
    9   10   16      0.02      0.00
    9   10   15      3.46      0.00
    9   10   14      4.61      0.00
    9   10   13     -0.77      0.00
    9   10   12     -4.13      0.00
    9   10   11      0.41      0.00
    9   10   10      9.39      0.00
    9   10    9     -5.09      0.00
    9   10    8      2.32      0.00
    9   10    7     -1.88      0.00
    9   10    6     14.08      0.00
    9   10    5      9.77      0.00
    9   10    4     15.06      0.00
    9   10    3     -2.68      0.00
    9   10    2     -3.98      0.00
    9   10    1     -0.34      0.00
    9   10    0      9.86      0.00
   10   10   16      8.96      0.00
   10   10   14     -0.52      0.00
   10   10   12     -6.13      0.00
   10   10   10     -6.19      0.00
   10   10    8     -4.25      0.00
   10   10    6     -8.18      0.00
   10   10    4     -7.08      0.00
   10   10    2      3.78      0.00
   10   10    0      9.55      0.00
    0   11    0    -51.56      0.00
    0   11    1     11.12      0.00
    0   11    2     -6.59      0.00
    0   11    3      4.59      0.00
    0   11    4      4.38      0.00
    0   11    5     -8.50      0.00
    0   11    6     -1.22      0.00
    0   11    7     20.56      0.00
    0   11    8      5.90      0.00
    0   11    9      8.41      0.00
    0   11   10     -0.86      0.00
    0   11   11      3.10      0.00
    0   11   12      8.77      0.00
    0   11   13     -8.46      0.00
    0   11   14     -0.80      0.00
    0   11   15      2.29      0.00
    0   11   16      2.17      0.00
    0   11   17      3.11      0.00
    0   11   18     -4.05      0.00
    0   11   19      6.14      0.00
    1   11   19      8.33      0.00
    1   11   18      5.81      0.00
    1   11   17     -2.20      0.00
    1   11   16      3.94      0.00
    1   11   15      1.87      0.00
    1   11   14     -4.14      0.00
    1   11   13     -1.44      0.00
    1   11   12     -1.28      0.00
    1   11   11     -1.81      0.00
    1   11   10      8.74      0.00
    1   11    9     -9.32      0.00
    1   11    8     -2.01      0.00
    1   11    7      1.30      0.00
    1   11    6      4.87      0.00
    1   11    5     -2.92      0.00
    1   11    4      4.91      0.00
    1   11    3     -4.23      0.00
    1   11    2     10.52      0.00
    1   11    1    -24.13      0.00
    1   11    0     25.12      0.00
    2   11   19      2.65      0.00
    2   11   18     -2.98      0.00
    2   11   17      0.51      0.00
    2   11   16      6.42      0.00
    2   11   15      4.58      0.00
    2   11   14      2.55      0.00
    2   11   13     -4.47      0.00
    2   11   12      0.57      0.00
    2   11   11      0.01      0.00
    2   11   10     -0.63      0.00
    2   11    9     -4.03      0.00
    2   11    8    -10.62      0.00
    2   11    7     -6.71      0.00
    2   11    6    -11.18      0.00
    2   11    5     27.80      0.00
    2   11    4    -18.65      0.00
    2   11    3      8.63      0.00
    2   11    2     -6.86      0.00
    2   11    1     22.81      0.00
    2   11    0    -11.33      0.00
    3   11   19     -3.03      0.00
    3   11   18     -0.26      0.00
    3   11   17     -0.92      0.00
    3   11   16      3.23      0.00
    3   11   15     -1.78      0.00
    3   11   14      6.45      0.00
    3   11   13     -0.45      0.00
    3   11   12      0.11      0.00
    3   11   11      0.72      0.00
    3   11   10     -2.77      0.00
    3   11    9      1.72      0.00
    3   11    8     -3.22      0.00
    3   11    7     -0.73      0.00
    3   11    6      6.59      0.00
    3   11    5    -29.10      0.00
    3   11    4     20.37      0.00
    3   11    3      3.99      0.00
    3   11    2    -11.92      0.00
    3   11    1     -8.93      0.00
    3   11    0     20.50      0.00
    4   11   19     -2.55      0.00
    4   11   18     -2.78      0.00
    4   11   17     -8.52      0.00
    4   11   16     -0.72      0.00
    4   11   15      1.73      0.00
    4   11   14     -6.21      0.00
    4   11   13     -2.32      0.00
    4   11   12      3.68      0.00
    4   11   11     -0.30      0.00
    4   11   10     -0.81      0.00
    4   11    9     -3.17      0.00
    4   11    8      3.53      0.00
    4   11    7      3.67      0.00
    4   11    6     -7.81      0.00
    4   11    5      8.85      0.00
    4   11    4    -24.54      0.00
    4   11    3      5.70      0.00
    4   11    2     10.15      0.00
    4   11    1      1.52      0.00
    4   11    0    -43.75      0.00
    5   11   19     -3.82      0.00
    5   11   18     -8.05      0.00
    5   11   17     -2.84      0.00
    5   11   16     -1.37      0.00
    5   11   15     -2.16      0.00
    5   11   14     -6.27      0.00
    5   11   13      4.67      0.00
    5   11   12     -3.24      0.00
    5   11   11      8.82      0.00
    5   11   10      6.61      0.00
    5   11    9     -4.21      0.00
    5   11    8      5.01      0.00
    5   11    7      6.52      0.00
    5   11    6     -0.41      0.00
    5   11    5    -12.11      0.00
    5   11    4     19.28      0.00
    5   11    3     -3.93      0.00
    5   11    2     -2.31      0.00
    5   11    1    -24.02      0.00
    5   11    0     38.72      0.00
    6   11   18      0.46      0.00
    6   11   17      0.33      0.00
    6   11   16      2.76      0.00
    6   11   15     -0.17      0.00
    6   11   14      2.26      0.00
    6   11   13     -1.92      0.00
    6   11   12      1.11      0.00
    6   11   11      7.36      0.00
    6   11   10     -2.91      0.00
    6   11    9      0.29      0.00
    6   11    8      0.68      0.00
    6   11    7     -5.28      0.00
    6   11    6      6.28      0.00
    6   11    5      4.76      0.00
    6   11    4     -3.13      0.00
    6   11    3     -2.95      0.00
    6   11    2      1.54      0.00
    6   11    1     15.97      0.00
    6   11    0    -24.19      0.00
    7   11   18     -3.03      0.00
    7   11   17      4.90      0.00
    7   11   16      2.04      0.00
    7   11   15      3.66      0.00
    7   11   14      1.61      0.00
    7   11   13      7.37      0.00
    7   11   12     -4.73      0.00
    7   11   11     -4.02      0.00
    7   11   10      0.78      0.00
    7   11    9     -3.98      0.00
    7   11    8     -4.90      0.00
    7   11    7     -3.08      0.00
    7   11    6     -2.23      0.00
    7   11    5     -2.24      0.00
    7   11    4     11.45      0.00
    7   11    3     -0.86      0.00
    7   11    2      1.43      0.00
    7   11    1     -6.01      0.00
    7   11    0     17.01      0.00
    8   11   18     -7.98      0.00
    8   11   17     -0.21      0.00
    8   11   16     -1.88      0.00
    8   11   15      1.45      0.00
    8   11   14     -3.27      0.00
    8   11   13      0.47      0.00
    8   11   12     -3.21      0.00
    8   11   11      8.34      0.00
    8   11   10      3.91      0.00
    8   11    9     -6.61      0.00
    8   11    8      1.65      0.00
    8   11    7     -4.64      0.00
    8   11    6    -14.26      0.00
    8   11    5      6.42      0.00
    8   11    4     -5.17      0.00
    8   11    3      5.74      0.00
    8   11    2     -2.59      0.00
    8   11    1     12.37      0.00
    8   11    0      6.30      0.00
    9   11   18      2.46      0.00
    9   11   17     -2.81      0.00
    9   11   16      3.15      0.00
    9   11   15     -0.07      0.00
    9   11   14     -5.28      0.00
    9   11   13      3.20      0.00
    9   11   12      0.29      0.00
    9   11   11      3.15      0.00
    9   11   10     -8.21      0.00
    9   11    9     -0.23      0.00
    9   11    8      1.07      0.00
    9   11    7     -1.85      0.00
    9   11    6      6.85      0.00
    9   11    5    -20.88      0.00
    9   11    4     -5.09      0.00
    9   11    3     -1.26      0.00
    9   11    2      5.08      0.00
    9   11    1     -4.00      0.00
    9   11    0    -15.33      0.00
   10   11   17      4.40      0.00
   10   11   16     -1.52      0.00
   10   11   15     -2.81      0.00
   10   11   14     12.00      0.00
   10   11   13     -5.32      0.00
   10   11   12     -5.51      0.00
   10   11   11      0.91      0.00
   10   11   10     -2.04      0.00
   10   11    9     -2.78      0.00
   10   11    8      5.89      0.00
   10   11    7      6.97      0.00
   10   11    6     -1.45      0.00
   10   11    5      9.59      0.00
   10   11    4     -4.67      0.00
   10   11    3      1.21      0.00
   10   11    2     -7.77      0.00
   10   11    1     -2.27      0.00
   10   11    0     -9.86      0.00
   11   11   16     -6.15      0.00
   11   11   14     -8.49      0.00
   11   11   12     -9.39      0.00
   11   11   10      6.90      0.00
   11   11    8      3.57      0.00
   11   11    6     -5.87      0.00
   11   11    4      4.47      0.00
   11   11    2     -0.59      0.00
   11   11    0     28.84      0.00
    0   12    0     31.36      0.00
    0   12    1     12.94      0.00
    0   12    2     19.67      0.00
    0   12    3    -18.45      0.00
    0   12    4      1.74      0.00
    0   12    5     20.57      0.00
    0   12    6      2.66      0.00
    0   12    7    -14.89      0.00
    0   12    8     -5.75      0.00
    0   12    9     -0.83      0.00
    0   12   10      4.16      0.00
    0   12   11      3.18      0.00
    0   12   12     -4.88      0.00
    0   12   13      3.14      0.00
    0   12   14     -8.25      0.00
    0   12   15      4.68      0.00
    0   12   16      3.98      0.00
    0   12   17      8.24      0.00
    0   12   18      3.43      0.00
    0   12   19      8.84      0.00
    1   12   19      0.60      0.00
    1   12   18     -6.97      0.00
    1   12   17     -6.99      0.00
    1   12   16      1.62      0.00
    1   12   15     -9.42      0.00
    1   12   14      4.81      0.00
    1   12   13     -2.55      0.00
    1   12   12     -2.47      0.00
    1   12   11      0.04      0.00
    1   12   10     -3.58      0.00
    1   12    9     -2.89      0.00
    1   12    8     -8.28      0.00
    1   12    7      8.31      0.00
    1   12    6     -2.78      0.00
    1   12    5      2.91      0.00
    1   12    4      0.65      0.00
    1   12    3     10.57      0.00
    1   12    2     -8.15      0.00
    1   12    1      3.13      0.00
    1   12    0    -21.91      0.00
    2   12   19     -1.80      0.00
    2   12   18      0.64      0.00
    2   12   17    -15.85      0.00
    2   12   16      3.33      0.00
    2   12   15    -10.24      0.00
    2   12   14     -2.76      0.00
    2   12   13    -10.10      0.00
    2   12   12     12.40      0.00
    2   12   11     -5.76      0.00
    2   12   10     -0.31      0.00
    2   12    9      4.50      0.00
    2   12    8      2.55      0.00
    2   12    7      2.57      0.00
    2   12    6     15.24      0.00
    2   12    5     -4.81      0.00
    2   12    4     -4.07      0.00
    2   12    3     -8.20      0.00
    2   12    2      9.63      0.00
    2   12    1    -14.55      0.00
    2   12    0    -22.41      0.00
    3   12   18      2.46      0.00
    3   12   17     -0.52      0.00
    3   12   16      6.79      0.00
    3   12   15     -4.20      0.00
    3   12   14     -1.72      0.00
    3   12   13     -7.44      0.00
    3   12   12    -11.20      0.00
    3   12   11      7.22      0.00
    3   12   10      4.45      0.00
    3   12    9      2.91      0.00
    3   12    8      5.35      0.00
    3   12    7      4.30      0.00
    3   12    6     -4.36      0.00
    3   12    5      2.67      0.00
    3   12    4    -17.96      0.00
    3   12    3      2.12      0.00
    3   12    2      8.96      0.00
    3   12    1      7.95      0.00
    3   12    0      5.37      0.00
    4   12   18     -7.00      0.00
    4   12   17      0.41      0.00
    4   12   16     -1.42      0.00
    4   12   15      0.31      0.00
    4   12   14      0.19      0.00
    4   12   13     -3.07      0.00
    4   12   12     -6.30      0.00
    4   12   11     -7.10      0.00
    4   12   10     -4.12      0.00
    4   12    9     -2.19      0.00
    4   12    8      3.70      0.00
    4   12    7    -10.03      0.00
    4   12    6     -1.51      0.00
    4   12    5     -7.99      0.00
    4   12    4     11.99      0.00
    4   12    3     -2.49      0.00
    4   12    2     -4.24      0.00
    4   12    1      0.20      0.00
    4   12    0      3.69      0.00
    5   12   18     -4.91      0.00
    5   12   17     -5.59      0.00
    5   12   16      1.19      0.00
    5   12   15     -3.19      0.00
    5   12   14     -1.61      0.00
    5   12   13     -0.35      0.00
    5   12   12      3.43      0.00
    5   12   11     -0.50      0.00
    5   12   10     -6.82      0.00
    5   12    9      5.10      0.00
    5   12    8     -8.75      0.00
    5   12    7      9.83      0.00
    5   12    6      2.68      0.00
    5   12    5      7.76      0.00
    5   12    4     -4.97      0.00
    5   12    3      4.71      0.00
    5   12    2      7.88      0.00
    5   12    1      1.91      0.00
    5   12    0    -13.64      0.00
    6   12   18     -8.09      0.00
    6   12   17      4.52      0.00
    6   12   16     -2.18      0.00
    6   12   15      0.33      0.00
    6   12   14     -6.38      0.00
    6   12   13      7.60      0.00
    6   12   12      0.48      0.00
    6   12   11      8.05      0.00
    6   12   10      0.46      0.00
    6   12    9     -2.63      0.00
    6   12    8     14.24      0.00
    6   12    7     -5.80      0.00
    6   12    6      0.93      0.00
    6   12    5     -3.10      0.00
    6   12    4      2.46      0.00
    6   12    3     -6.47      0.00
    6   12    2     11.42      0.00
    6   12    1      2.72      0.00
    6   12    0      6.76      0.00
    7   12   18     -3.68      0.00
    7   12   17      2.46      0.00
    7   12   16     -0.12      0.00
    7   12   15     -2.37      0.00
    7   12   14      5.05      0.00
    7   12   13      2.14      0.00
    7   12   12      1.14      0.00
    7   12   11      2.59      0.00
    7   12   10      3.19      0.00
    7   12    9      1.27      0.00
    7   12    8     -4.05      0.00
    7   12    7      5.84      0.00
    7   12    6     -4.01      0.00
    7   12    5     -8.93      0.00
    7   12    4     -1.51      0.00
    7   12    3      0.01      0.00
    7   12    2     -8.64      0.00
    7   12    1     -7.84      0.00
    7   12    0     -8.19      0.00
    8   12   17     -3.53      0.00
    8   12   16      4.42      0.00
    8   12   15      0.87      0.00
    8   12   14      1.94      0.00
    8   12   13     -0.78      0.00
    8   12   12      0.24      0.00
    8   12   11     -6.56      0.00
    8   12   10     -1.09      0.00
    8   12    9     -1.29      0.00
    8   12    8      9.57      0.00
    8   12    7     -4.36      0.00
    8   12    6     13.00      0.00
    8   12    5      9.74      0.00
    8   12    4     -3.36      0.00
    8   12    3     -3.78      0.00
    8   12    2     13.72      0.00
    8   12    1     -7.51      0.00
    8   12    0    -15.44      0.00
    9   12   17     10.25      0.00
    9   12   16      3.95      0.00
    9   12   15     -0.79      0.00
    9   12   14     -1.97      0.00
    9   12   13      0.31      0.00
    9   12   12     -2.75      0.00
    9   12   11      6.08      0.00
    9   12   10     -0.12      0.00
    9   12    9     -1.87      0.00
    9   12    8      4.18      0.00
    9   12    7      6.14      0.00
    9   12    6     -4.63      0.00
    9   12    5      3.98      0.00
    9   12    4      9.60      0.00
    9   12    3      3.74      0.00
    9   12    2     -3.54      0.00
    9   12    1      7.88      0.00
    9   12    0     25.97      0.00
   10   12   17      0.86      0.00
   10   12   16     -5.19      0.00
   10   12   15     12.84      0.00
   10   12   14     -2.95      0.00
   10   12   13      5.18      0.00
   10   12   12      2.86      0.00
   10   12   11      1.91      0.00
   10   12   10      4.75      0.00
   10   12    9      5.33      0.00
   10   12    8      1.31      0.00
   10   12    7    -14.54      0.00
   10   12    6      6.64      0.00
   10   12    5     -3.85      0.00
   10   12    4     -1.60      0.00
   10   12    3     -3.65      0.00
   10   12    2     -5.54      0.00
   10   12    1     13.08      0.00
   10   12    0     -4.59      0.00
   11   12   16     -3.36      0.00
   11   12   15     -5.68      0.00
   11   12   14      5.20      0.00
   11   12   13      8.64      0.00
   11   12   12    -10.54      0.00
   11   12   11      0.94      0.00
   11   12   10     -4.24      0.00
   11   12    9     -1.13      0.00
   11   12    8      2.86      0.00
   11   12    7      8.50      0.00
   11   12    6     -5.10      0.00
   11   12    5      6.85      0.00
   11   12    4     -9.56      0.00
   11   12    3      8.90      0.00
   11   12    2      4.39      0.00
   11   12    1     -5.04      0.00
   11   12    0    -11.01      0.00
   12   12   16      0.92      0.00
   12   12   14     -9.65      0.00
   12   12   12     -2.83      0.00
   12   12   10      5.17      0.00
   12   12    8      6.86      0.00
   12   12    6     -0.24      0.00
   12   12    4     -3.00      0.00
   12   12    2     10.74      0.00
   12   12    0     -0.76      0.00
    0   13    0      5.46      0.00
    0   13    1    -19.30      0.00
    0   13    2     -9.18      0.00
    0   13    3      2.34      0.00
    0   13    4     15.91      0.00
    0   13    5     -2.37      0.00
    0   13    6     -2.30      0.00
    0   13    7      2.83      0.00
    0   13    8     11.30      0.00
    0   13    9     -7.60      0.00
    0   13   10     -1.23      0.00
    0   13   11      3.72      0.00
    0   13   12      3.85      0.00
    0   13   13      7.02      0.00
    0   13   14      6.14      0.00
    0   13   15     -5.49      0.00
    0   13   16    -15.28      0.00
    0   13   17     -1.90      0.00
    0   13   18    -10.91      0.00
    1   13   18     -1.71      0.00
    1   13   17     -4.53      0.00
    1   13   16      3.77      0.00
    1   13   15     -6.51      0.00
    1   13   14     -1.23      0.00
    1   13   13      3.54      0.00
    1   13   12      5.28      0.00
    1   13   11      2.88      0.00
    1   13   10      3.75      0.00
    1   13    9      7.75      0.00
    1   13    8     -4.28      0.00
    1   13    7      9.48      0.00
    1   13    6      1.20      0.00
    1   13    5      2.77      0.00
    1   13    4    -10.34      0.00
    1   13    3      2.31      0.00
    1   13    2     -3.72      0.00
    1   13    1      8.89      0.00
    1   13    0      3.23      0.00
    2   13   18     14.97      0.00
    2   13   17     -2.22      0.00
    2   13   16      2.61      0.00
    2   13   15     -2.85      0.00
    2   13   14      6.29      0.00
    2   13   13      3.72      0.00
    2   13   12     -8.07      0.00
    2   13   11      5.92      0.00
    2   13   10     -3.55      0.00
    2   13    9     -2.86      0.00
    2   13    8      5.06      0.00
    2   13    7     -9.07      0.00
    2   13    6      6.53      0.00
    2   13    5    -10.24      0.00
    2   13    4      8.87      0.00
    2   13    3    -10.53      0.00
    2   13    2      3.41      0.00
    2   13    1      2.30      0.00
    2   13    0     11.78      0.00
    3   13   18     -0.09      0.00
    3   13   17     -2.55      0.00
    3   13   16      1.23      0.00
    3   13   15     -3.08      0.00
    3   13   14      4.97      0.00
    3   13   13      0.85      0.00
    3   13   12      4.56      0.00
    3   13   11     -6.81      0.00
    3   13   10     -5.36      0.00
    3   13    9      0.72      0.00
    3   13    8     -5.73      0.00
    3   13    7      3.02      0.00
    3   13    6     -4.81      0.00
    3   13    5      5.27      0.00
    3   13    4      2.70      0.00
    3   13    3     18.38      0.00
    3   13    2    -14.87      0.00
    3   13    1     -7.25      0.00
    3   13    0     -1.87      0.00
    4   13   18     -2.11      0.00
    4   13   17     -0.89      0.00
    4   13   16     -6.68      0.00
    4   13   15     -1.61      0.00
    4   13   14     -3.48      0.00
    4   13   13      3.23      0.00
    4   13   12     -4.44      0.00
    4   13   11     10.56      0.00
    4   13   10      2.07      0.00
    4   13    9      6.43      0.00
    4   13    8      8.41      0.00
    4   13    7      6.94      0.00
    4   13    6      1.97      0.00
    4   13    5    -10.39      0.00
    4   13    4     -2.20      0.00
    4   13    3      2.77      0.00
    4   13    2     16.56      0.00
    4   13    1     -1.80      0.00
    4   13    0    -13.84      0.00
    5   13   18      1.14      0.00
    5   13   17     -2.17      0.00
    5   13   16      0.69      0.00
    5   13   15     -2.36      0.00
    5   13   14     -0.78      0.00
    5   13   13     -2.52      0.00
    5   13   12     -0.58      0.00
    5   13   11      2.67      0.00
    5   13   10     -1.78      0.00
    5   13    9     -1.20      0.00
    5   13    8     -1.14      0.00
    5   13    7      3.96      0.00
    5   13    6     -4.60      0.00
    5   13    5     -1.29      0.00
    5   13    4     -4.35      0.00
    5   13    3     -1.40      0.00
    5   13    2    -12.08      0.00
    5   13    1      0.07      0.00
    5   13    0     -1.67      0.00
    6   13   18      2.83      0.00
    6   13   17      0.03      0.00
    6   13   16     -5.12      0.00
    6   13   15      3.51      0.00
    6   13   14      3.16      0.00
    6   13   13     -3.13      0.00
    6   13   12      2.36      0.00
    6   13   11     -9.88      0.00
    6   13   10     -3.29      0.00
    6   13    9     -2.88      0.00
    6   13    8     -4.18      0.00
    6   13    7     -0.98      0.00
    6   13    6      4.05      0.00
    6   13    5      2.88      0.00
    6   13    4     10.19      0.00
    6   13    3     -5.96      0.00
    6   13    2     -7.47      0.00
    6   13    1    -12.15      0.00
    6   13    0      8.07      0.00
    7   13   17     -2.60      0.00
    7   13   16     -1.85      0.00
    7   13   15      3.36      0.00
    7   13   14      3.71      0.00
    7   13   13      0.23      0.00
    7   13   12     -6.38      0.00
    7   13   11      1.56      0.00
    7   13   10      8.32      0.00
    7   13    9      4.43      0.00
    7   13    8      8.41      0.00
    7   13    7      2.69      0.00
    7   13    6     -5.86      0.00
    7   13    5      1.59      0.00
    7   13    4     -3.21      0.00
    7   13    3      8.32      0.00
    7   13    2      6.33      0.00
    7   13    1      4.66      0.00
    7   13    0     -0.41      0.00
    8   13   17      3.33      0.00
    8   13   16      8.32      0.00
    8   13   15      1.28      0.00
    8   13   14     -0.75      0.00
    8   13   13      8.95      0.00
    8   13   12     -1.46      0.00
    8   13   11      7.54      0.00
    8   13   10     -0.92      0.00
    8   13    9      5.61      0.00
    8   13    8      6.26      0.00
    8   13    7     -5.62      0.00
    8   13    6      0.96      0.00
    8   13    5    -10.33      0.00
    8   13    4      9.54      0.00
    8   13    3     -6.45      0.00
    8   13    2     -8.06      0.00
    8   13    1     -1.28      0.00
    8   13    0      4.33      0.00
    9   13   17     -2.50      0.00
    9   13   16     -0.65      0.00
    9   13   15      8.04      0.00
    9   13   14      5.33      0.00
    9   13   13     -0.17      0.00
    9   13   12      8.38      0.00
    9   13   11     -4.87      0.00
    9   13   10      1.56      0.00
    9   13    9     -5.28      0.00
    9   13    8     -3.50      0.00
    9   13    7      9.46      0.00
    9   13    6      1.87      0.00
    9   13    5      2.60      0.00
    9   13    4     -5.67      0.00
    9   13    3      3.32      0.00
    9   13    2     -0.88      0.00
    9   13    1    -14.14      0.00
    9   13    0     -8.24      0.00
   10   13   16     -6.22      0.00
   10   13   15     -1.02      0.00
   10   13   14     -6.94      0.00
   10   13   13     11.11      0.00
   10   13   12     -2.55      0.00
   10   13   11      0.51      0.00
   10   13   10     -0.16      0.00
   10   13    9      2.87      0.00
   10   13    8      3.47      0.00
   10   13    7      2.33      0.00
   10   13    6     -1.08      0.00
   10   13    5     -5.75      0.00
   10   13    4     -0.72      0.00
   10   13    3      4.18      0.00
   10   13    2      1.91      0.00
   10   13    1      1.41      0.00
   10   13    0      1.91      0.00
   11   13   16      1.07      0.00
   11   13   15     -5.83      0.00
   11   13   14      5.78      0.00
   11   13   13      6.03      0.00
   11   13   12      0.36      0.00
   11   13   11     10.18      0.00
   11   13   10      4.76      0.00
   11   13    9      2.62      0.00
   11   13    8      8.27      0.00
   11   13    7     -7.88      0.00
   11   13    6     -4.90      0.00
   11   13    5     -0.05      0.00
   11   13    4      1.66      0.00
   11   13    3     -3.70      0.00
   11   13    2    -15.61      0.00
   11   13    1     11.03      0.00
   11   13    0      6.64      0.00
   12   13   15      4.81      0.00
   12   13   14      5.85      0.00
   12   13   13     15.04      0.00
   12   13   12      3.94      0.00
   12   13   11     -2.58      0.00
   12   13   10      8.42      0.00
   12   13    9     -4.52      0.00
   12   13    8      1.88      0.00
   12   13    7      6.30      0.00
   12   13    6      3.17      0.00
   12   13    5      1.69      0.00
   12   13    4      0.92      0.00
   12   13    3      4.83      0.00
   12   13    2      3.19      0.00
   12   13    1     -6.97      0.00
   12   13    0     -7.97      0.00
   13   13   14      6.37      0.00
   13   13   12      4.66      0.00
   13   13   10    -14.70      0.00
   13   13    8      1.32      0.00
   13   13    6      2.05      0.00
   13   13    4     11.34      0.00
   13   13    2      9.79      0.00
   13   13    0      9.80      0.00
    0   14    0     12.57      0.00
    0   14    1      7.85      0.00
    0   14    2    -17.42      0.00
    0   14    3      7.71      0.00
    0   14    4      3.29      0.00
    0   14    5     -5.02      0.00
    0   14    6      1.85      0.00
    0   14    7     -2.58      0.00
    0   14    8     -2.44      0.00
    0   14    9      6.82      0.00
    0   14   10      2.72      0.00
    0   14   11     -2.92      0.00
    0   14   12     -6.25      0.00
    0   14   13     -1.00      0.00
    0   14   14      4.83      0.00
    0   14   15      2.13      0.00
    0   14   16      0.59      0.00
    0   14   17     10.32      0.00
    0   14   18     -3.70      0.00
    1   14   18      2.69      0.00
    1   14   17     -1.05      0.00
    1   14   16      0.39      0.00
    1   14   15      3.87      0.00
    1   14   14      1.59      0.00
    1   14   13      1.93      0.00
    1   14   12      1.83      0.00
    1   14   11    -10.69      0.00
    1   14   10     -0.32      0.00
    1   14    9     -3.90      0.00
    1   14    8      6.43      0.00
    1   14    7     -8.09      0.00
    1   14    6      4.43      0.00
    1   14    5      2.90      0.00
    1   14    4      1.74      0.00
    1   14    3     -3.34      0.00
    1   14    2     20.26      0.00
    1   14    1     -8.90      0.00
    1   14    0      3.67      0.00
    2   14   18      2.64      0.00
    2   14   17     -2.52      0.00
    2   14   16      1.80      0.00
    2   14   15      7.55      0.00
    2   14   14     -3.42      0.00
    2   14   13      4.02      0.00
    2   14   12     -2.93      0.00
    2   14   11      2.77      0.00
    2   14   10     -5.26      0.00
    2   14    9     -0.01      0.00
    2   14    8     -2.73      0.00
    2   14    7      6.48      0.00
    2   14    6     -1.28      0.00
    2   14    5     -0.76      0.00
    2   14    4     -3.63      0.00
    2   14    3     14.24      0.00
    2   14    2     -6.84      0.00
    2   14    1     -2.90      0.00
    2   14    0     -3.59      0.00
    3   14   18      6.36      0.00
    3   14   17      5.48      0.00
    3   14   16     -0.01      0.00
    3   14   15      2.17      0.00
    3   14   14     -2.45      0.00
    3   14   13     -0.89      0.00
    3   14   12     -2.84      0.00
    3   14   11      2.66      0.00
    3   14   10      1.09      0.00
    3   14    9      6.77      0.00
    3   14    8      9.41      0.00
    3   14    7     -4.87      0.00
    3   14    6      8.99      0.00
    3   14    5    -10.36      0.00
    3   14    4     -3.33      0.00
    3   14    3     -4.83      0.00
    3   14    2      0.32      0.00
    3   14    1     -4.49      0.00
    3   14    0    -16.36      0.00
    4   14   17      3.55      0.00
    4   14   16     -0.75      0.00
    4   14   15      4.09      0.00
    4   14   14      2.13      0.00
    4   14   13     -2.37      0.00
    4   14   12     -0.23      0.00
    4   14   11     -5.42      0.00
    4   14   10      0.18      0.00
    4   14    9      6.00      0.00
    4   14    8      0.07      0.00
    4   14    7      8.94      0.00
    4   14    6     -6.26      0.00
    4   14    5      8.51      0.00
    4   14    4     -1.26      0.00
    4   14    3      5.15      0.00
    4   14    2     -4.93      0.00
    4   14    1     -3.41      0.00
    4   14    0     -2.19      0.00
    5   14   17     -5.23      0.00
    5   14   16      2.78      0.00
    5   14   15     -2.17      0.00
    5   14   14      1.82      0.00
    5   14   13      3.58      0.00
    5   14   12      5.45      0.00
    5   14   11     -1.04      0.00
    5   14   10     -1.76      0.00
    5   14    9     -5.05      0.00
    5   14    8      5.66      0.00
    5   14    7     -3.39      0.00
    5   14    6      0.48      0.00
    5   14    5      2.61      0.00
    5   14    4      4.25      0.00
    5   14    3     -5.33      0.00
    5   14    2      8.11      0.00
    5   14    1     -5.33      0.00
    5   14    0      4.60      0.00
    6   14   17      5.22      0.00
    6   14   16      4.32      0.00
    6   14   15     -3.15      0.00
    6   14   14     -4.15      0.00
    6   14   13     -5.96      0.00
    6   14   12      6.41      0.00
    6   14   11      3.68      0.00
    6   14   10     -5.00      0.00
    6   14    9      5.82      0.00
    6   14    8     -1.99      0.00
    6   14    7     10.54      0.00
    6   14    6     -5.88      0.00
    6   14    5     -9.00      0.00
    6   14    4     -4.03      0.00
    6   14    3      5.11      0.00
    6   14    2     -4.10      0.00
    6   14    1      1.15      0.00
    6   14    0     -7.80      0.00
    7   14   17     15.23      0.00
    7   14   16     -0.85      0.00
    7   14   15      0.45      0.00
    7   14   14     -4.21      0.00
    7   14   13     -5.80      0.00
    7   14   12     -0.02      0.00
    7   14   11     -4.16      0.00
    7   14   10      0.95      0.00
    7   14    9     -1.58      0.00
    7   14    8      4.28      0.00
    7   14    7     -0.82      0.00
    7   14    6      4.95      0.00
    7   14    5      8.59      0.00
    7   14    4      0.59      0.00
    7   14    3     -9.18      0.00
    7   14    2      4.61      0.00
    7   14    1     -6.25      0.00
    7   14    0     -5.83      0.00
    8   14   17     -3.84      0.00
    8   14   16      4.81      0.00
    8   14   15     -3.56      0.00
    8   14   14     -1.92      0.00
    8   14   13      0.10      0.00
    8   14   12     -8.64      0.00
    8   14   11      1.69      0.00
    8   14   10      3.94      0.00
    8   14    9     -2.32      0.00
    8   14    8      0.35      0.00
    8   14    7      8.90      0.00
    8   14    6     -2.98      0.00
    8   14    5      1.06      0.00
    8   14    4     -1.56      0.00
    8   14    3      7.31      0.00
    8   14    2     -1.34      0.00
    8   14    1     -1.19      0.00
    8   14    0      8.83      0.00
    9   14   16      6.48      0.00
    9   14   15     -1.95      0.00
    9   14   14    -12.15      0.00
    9   14   13     -4.34      0.00
    9   14   12      4.24      0.00
    9   14   11      3.73      0.00
    9   14   10     -1.82      0.00
    9   14    9      9.50      0.00
    9   14    8      3.04      0.00
    9   14    7     -4.82      0.00
    9   14    6     -0.20      0.00
    9   14    5      2.51      0.00
    9   14    4     -4.38      0.00
    9   14    3     -5.19      0.00
    9   14    2      7.28      0.00
    9   14    1     16.04      0.00
    9   14    0     -5.81      0.00
   10   14   16     -1.43      0.00
   10   14   15     -7.30      0.00
   10   14   14      6.82      0.00
   10   14   13     -4.46      0.00
   10   14   12      0.94      0.00
   10   14   11      0.69      0.00
   10   14   10      2.52      0.00
   10   14    9     -1.66      0.00
   10   14    8     -8.68      0.00
   10   14    7      4.35      0.00
   10   14    6     -4.34      0.00
   10   14    5     -0.31      0.00
   10   14    4      5.41      0.00
   10   14    3      1.17      0.00
   10   14    2    -11.88      0.00
   10   14    1     -4.18      0.00
   10   14    0     17.52      0.00
   11   14   15     -3.18      0.00
   11   14   14     -0.82      0.00
   11   14   13     11.51      0.00
   11   14   12      1.41      0.00
   11   14   11     -1.56      0.00
   11   14   10     -0.79      0.00
   11   14    9     -2.32      0.00
   11   14    8      4.22      0.00
   11   14    7     -7.93      0.00
   11   14    6     -5.30      0.00
   11   14    5     -4.80      0.00
   11   14    4     -8.52      0.00
   11   14    3     -1.16      0.00
   11   14    2     10.79      0.00
   11   14    1     -2.80      0.00
   11   14    0    -15.08      0.00
   12   14   15     -2.08      0.00
   12   14   14      2.53      0.00
   12   14   13      0.50      0.00
   12   14   12     -5.05      0.00
   12   14   11     10.83      0.00
   12   14   10      3.36      0.00
   12   14    9      5.29      0.00
   12   14    8     -2.10      0.00
   12   14    7      0.40      0.00
   12   14    6     -1.32      0.00
   12   14    5     -6.04      0.00
   12   14    4     -1.05      0.00
   12   14    3     -6.11      0.00
   12   14    2      5.44      0.00
   12   14    1      9.19      0.00
   12   14    0     -2.05      0.00
   13   14   14     -8.54      0.00
   13   14   13     -9.04      0.00
   13   14   12     -0.35      0.00
   13   14   11     -2.15      0.00
   13   14   10      1.84      0.00
   13   14    9      5.96      0.00
   13   14    8      0.67      0.00
   13   14    7      1.67      0.00
   13   14    6      0.31      0.00
   13   14    5      6.77      0.00
   13   14    4     -0.22      0.00
   13   14    3     -0.13      0.00
   13   14    2      8.36      0.00
   13   14    1     -2.54      0.00
   13   14    0      3.21      0.00
   14   14   14      5.62      0.00
   14   14   12     -8.79      0.00
   14   14   10     -1.53      0.00
   14   14    8     -2.70      0.00
   14   14    6      9.61      0.00
   14   14    4     10.35      0.00
   14   14    2     11.05      0.00
   14   14    0      3.19      0.00
    0   15    0     15.80      0.00
    0   15    1     -1.74      0.00
    0   15    2      3.26      0.00
    0   15    3     14.18      0.00
    0   15    4     -7.95      0.00
    0   15    5      5.82      0.00
    0   15    6     -0.30      0.00
    0   15    7      1.93      0.00
    0   15    8      0.64      0.00
    0   15    9     -0.52      0.00
    0   15   10      3.60      0.00
    0   15   11     -3.97      0.00
    0   15   12      1.21      0.00
    0   15   13     -0.10      0.00
    0   15   14    -13.96      0.00
    0   15   15      1.64      0.00
    0   15   16     -2.99      0.00
    0   15   17     -2.92      0.00
    1   15   17      5.58      0.00
    1   15   16     -4.38      0.00
    1   15   15      0.22      0.00
    1   15   14     -1.89      0.00
    1   15   13      1.73      0.00
    1   15   12      3.65      0.00
    1   15   11      0.46      0.00
    1   15   10     -0.26      0.00
    1   15    9     -6.40      0.00
    1   15    8      6.58      0.00
    1   15    7     -0.90      0.00
    1   15    6      4.72      0.00
    1   15    5     -6.02      0.00
    1   15    4      8.35      0.00
    1   15    3      2.85      0.00
    1   15    2     -2.38      0.00
    1   15    1      3.29      0.00
    1   15    0     -2.85      0.00
    2   15   17      3.60      0.00
    2   15   16      8.99      0.00
    2   15   15     -0.35      0.00
    2   15   14     -2.74      0.00
    2   15   13     -0.21      0.00
    2   15   12      9.34      0.00
    2   15   11     -7.75      0.00
    2   15   10     -1.08      0.00
    2   15    9     -0.56      0.00
    2   15    8     -4.09      0.00
    2   15    7      7.45      0.00
    2   15    6      4.36      0.00
    2   15    5     -2.50      0.00
    2   15    4     -1.57      0.00
    2   15    3      1.23      0.00
    2   15    2      0.94      0.00
    2   15    1     -6.30      0.00
    2   15    0     14.74      0.00
    3   15   17      6.34      0.00
    3   15   16     -5.63      0.00
    3   15   15      9.89      0.00
    3   15   14     -4.57      0.00
    3   15   13      1.03      0.00
    3   15   12     -4.67      0.00
    3   15   11     -1.04      0.00
    3   15   10     -2.52      0.00
    3   15    9     -6.06      0.00
    3   15    8     10.89      0.00
    3   15    7     -5.92      0.00
    3   15    6      5.43      0.00
    3   15    5     -2.80      0.00
    3   15    4     -3.68      0.00
    3   15    3     -1.25      0.00
    3   15    2      9.47      0.00
    3   15    1      5.29      0.00
    3   15    0     -8.17      0.00
    4   15   17      3.72      0.00
    4   15   16      3.00      0.00
    4   15   15     -9.75      0.00
    4   15   14      0.48      0.00
    4   15   13      0.05      0.00
    4   15   12      6.42      0.00
    4   15   11     -3.10      0.00
    4   15   10      5.02      0.00
    4   15    9     -3.93      0.00
    4   15    8      1.40      0.00
    4   15    7     10.29      0.00
    4   15    6     -0.63      0.00
    4   15    5     -3.42      0.00
    4   15    4     -0.62      0.00
    4   15    3      5.70      0.00
    4   15    2     -0.71      0.00
    4   15    1     -9.24      0.00
    4   15    0     -1.96      0.00
    5   15   17     -4.56      0.00
    5   15   16     -0.91      0.00
    5   15   15     -1.40      0.00
    5   15   14     -3.71      0.00
    5   15   13     -9.89      0.00
    5   15   12      6.48      0.00
    5   15   11      2.83      0.00
    5   15   10     -5.28      0.00
    5   15    9      1.21      0.00
    5   15    8      0.58      0.00
    5   15    7     10.06      0.00
    5   15    6      6.79      0.00
    5   15    5      1.01      0.00
    5   15    4     -7.67      0.00
    5   15    3     -7.10      0.00
    5   15    2      6.98      0.00
    5   15    1      0.09      0.00
    5   15    0    -17.78      0.00
    6   15   17      7.29      0.00
    6   15   16     -1.34      0.00
    6   15   15     -0.13      0.00
    6   15   14      4.59      0.00
    6   15   13     -2.63      0.00
    6   15   12     -4.77      0.00
    6   15   11      0.84      0.00
    6   15   10     -1.52      0.00
    6   15    9     -2.63      0.00
    6   15    8     -6.81      0.00
    6   15    7      2.76      0.00
    6   15    6     -4.48      0.00
    6   15    5      8.77      0.00
    6   15    4     -4.90      0.00
    6   15    3     -0.42      0.00
    6   15    2     -3.84      0.00
    6   15    1      4.05      0.00
    6   15    0      9.11      0.00
    7   15   16     -0.53      0.00
    7   15   15      3.85      0.00
    7   15   14      5.51      0.00
    7   15   13     -2.51      0.00
    7   15   12     -2.85      0.00
    7   15   11     -2.31      0.00
    7   15   10      0.26      0.00
    7   15    9      0.84      0.00
    7   15    8     -1.79      0.00
    7   15    7      0.62      0.00
    7   15    6     -2.02      0.00
    7   15    5     -6.42      0.00
    7   15    4      4.47      0.00
    7   15    3      7.13      0.00
    7   15    2      7.56      0.00
    7   15    1      3.31      0.00
    7   15    0     -4.29      0.00
    8   15   16     11.85      0.00
    8   15   15    -11.66      0.00
    8   15   14      1.78      0.00
    8   15   13    -16.81      0.00
    8   15   12      1.46      0.00
    8   15   11     -1.01      0.00
    8   15   10     -0.22      0.00
    8   15    9     -8.38      0.00
    8   15    8      0.90      0.00
    8   15    7      4.64      0.00
    8   15    6      8.14      0.00
    8   15    5     13.38      0.00
    8   15    4     -8.18      0.00
    8   15    3     -1.04      0.00
    8   15    2     15.71      0.00
    8   15    1     -8.75      0.00
    8   15    0     -7.36      0.00
    9   15   16     -0.54      0.00
    9   15   15     -0.43      0.00
    9   15   14      0.40      0.00
    9   15   13     -0.19      0.00
    9   15   12     -3.71      0.00
    9   15   11     -2.01      0.00
    9   15   10     -0.41      0.00
    9   15    9     -3.97      0.00
    9   15    8     -3.72      0.00
    9   15    7      8.21      0.00
    9   15    6     12.02      0.00
    9   15    5     -2.52      0.00
    9   15    4      2.68      0.00
    9   15    3      5.84      0.00
    9   15    2     -1.24      0.00
    9   15    1      2.05      0.00
    9   15    0     -6.76      0.00
   10   15   15      1.45      0.00
   10   15   14      5.59      0.00
   10   15   13     -1.55      0.00
   10   15   12      2.23      0.00
   10   15   11      8.18      0.00
   10   15   10      0.07      0.00
   10   15    9      4.75      0.00
   10   15    8     -2.46      0.00
   10   15    7     -0.84      0.00
   10   15    6      2.64      0.00
   10   15    5     -0.25      0.00
   10   15    4     -7.26      0.00
   10   15    3     -1.34      0.00
   10   15    2      8.40      0.00
   10   15    1      8.43      0.00
   10   15    0     -7.41      0.00
   11   15   15     -8.04      0.00
   11   15   14     -0.60      0.00
   11   15   13     -4.81      0.00
   11   15   12    -10.08      0.00
   11   15   11      3.50      0.00
   11   15   10      4.26      0.00
   11   15    9      4.06      0.00
   11   15    8     -6.19      0.00
   11   15    7      0.13      0.00
   11   15    6     -2.40      0.00
   11   15    5      3.01      0.00
   11   15    4     -7.69      0.00
   11   15    3      1.27      0.00
   11   15    2     -2.84      0.00
   11   15    1     -3.14      0.00
   11   15    0      0.07      0.00
   12   15   14      3.16      0.00
   12   15   13     -8.19      0.00
   12   15   12     -4.77      0.00
   12   15   11     -0.69      0.00
   12   15   10     -6.82      0.00
   12   15    9      6.57      0.00
   12   15    8      0.66      0.00
   12   15    7      1.30      0.00
   12   15    6     -7.64      0.00
   12   15    5      1.29      0.00
   12   15    4      2.15      0.00
   12   15    3      3.28      0.00
   12   15    2      3.74      0.00
   12   15    1     -1.49      0.00
   12   15    0    -10.56      0.00
   13   15   14      0.13      0.00
   13   15   13     -0.78      0.00
   13   15   12      5.71      0.00
   13   15   11      0.14      0.00
   13   15   10      2.39      0.00
   13   15    9     -7.44      0.00
   13   15    8      0.39      0.00
   13   15    7     -5.19      0.00
   13   15    6      3.02      0.00
   13   15    5     -5.22      0.00
   13   15    4      0.60      0.00
   13   15    3      1.94      0.00
   13   15    2      4.80      0.00
   13   15    1      6.67      0.00
   13   15    0    -11.58      0.00
   14   15   13     -8.93      0.00
   14   15   12      2.10      0.00
   14   15   11     -3.23      0.00
   14   15   10     -5.55      0.00
   14   15    9      3.87      0.00
   14   15    8     -7.16      0.00
   14   15    7     -0.84      0.00
   14   15    6      1.40      0.00
   14   15    5     -3.95      0.00
   14   15    4      4.29      0.00
   14   15    3     -3.45      0.00
   14   15    2      8.87      0.00
   14   15    1    -10.38      0.00
   14   15    0      1.32      0.00
   15   15   12     -0.98      0.00
   15   15   10      1.80      0.00
   15   15    8     -1.43      0.00
   15   15    6      3.62      0.00
   15   15    4      2.72      0.00
   15   15    2     -0.34      0.00
   15   15    0     -0.05      0.00
    0   16    0     32.18      0.00
    0   16    1      9.12      0.00
    0   16    2      0.97      0.00
    0   16    3     -1.19      0.00
    0   16    4      3.61      0.00
    0   16    5     -1.89      0.00
    0   16    6     -8.14      0.00
    0   16    7     -2.14      0.00
    0   16    8      0.45      0.00
    0   16    9    -16.73      0.00
    0   16   10     -0.22      0.00
    0   16   11     -5.54      0.00
    0   16   12      5.47      0.00
    0   16   13     -0.10      0.00
    0   16   14     -1.59      0.00
    0   16   15     -2.08      0.00
    0   16   16      1.57      0.00
    0   16   17     -0.10      0.00
    1   16   17     -3.36      0.00
    1   16   16      3.33      0.00
    1   16   15      5.04      0.00
    1   16   14     -6.99      0.00
    1   16   13      7.76      0.00
    1   16   12      0.05      0.00
    1   16   11     -0.73      0.00
    1   16   10      0.73      0.00
    1   16    9      2.45      0.00
    1   16    8     -4.04      0.00
    1   16    7      4.23      0.00
    1   16    6      2.53      0.00
    1   16    5     -6.56      0.00
    1   16    4     -3.16      0.00
    1   16    3      3.93      0.00
    1   16    2     -7.24      0.00
    1   16    1     10.00      0.00
    1   16    0     19.87      0.00
    2   16   17     -8.35      0.00
    2   16   16      1.23      0.00
    2   16   15      1.76      0.00
    2   16   14     -3.54      0.00
    2   16   13      3.05      0.00
    2   16   12      8.79      0.00
    2   16   11     11.14      0.00
    2   16   10      1.33      0.00
    2   16    9     -5.75      0.00
    2   16    8     10.46      0.00
    2   16    7      5.02      0.00
    2   16    6      7.00      0.00
    2   16    5     -5.83      0.00
    2   16    4      3.29      0.00
    2   16    3     -2.50      0.00
    2   16    2     -3.73      0.00
    2   16    1      7.10      0.00
    2   16    0      2.01      0.00
    3   16   16      3.01      0.00
    3   16   15     -4.01      0.00
    3   16   14     -6.66      0.00
    3   16   13      1.17      0.00
    3   16   12      8.32      0.00
    3   16   11      0.90      0.00
    3   16   10      3.31      0.00
    3   16    9     -7.15      0.00
    3   16    8     -6.43      0.00
    3   16    7      8.97      0.00
    3   16    6     -4.24      0.00
    3   16    5      0.65      0.00
    3   16    4      1.12      0.00
    3   16    3      7.30      0.00
    3   16    2    -12.97      0.00
    3   16    1      2.12      0.00
    3   16    0      9.79      0.00
    4   16   16      3.98      0.00
    4   16   15     -3.78      0.00
    4   16   14      1.28      0.00
    4   16   13     -1.65      0.00
    4   16   12     -6.51      0.00
    4   16   11     -2.84      0.00
    4   16   10     -6.00      0.00
    4   16    9     -7.07      0.00
    4   16    8     -3.19      0.00
    4   16    7     -2.08      0.00
    4   16    6     -1.73      0.00
    4   16    5     -2.17      0.00
    4   16    4     -6.68      0.00
    4   16    3     -5.96      0.00
    4   16    2      6.34      0.00
    4   16    1      1.31      0.00
    4   16    0     -1.33      0.00
    5   16   16     -4.00      0.00
    5   16   15      3.09      0.00
    5   16   14      5.35      0.00
    5   16   13      4.03      0.00
    5   16   12      3.91      0.00
    5   16   11      4.74      0.00
    5   16   10     -4.56      0.00
    5   16    9     -8.41      0.00
    5   16    8     -4.81      0.00
    5   16    7      6.02      0.00
    5   16    6     -4.62      0.00
    5   16    5     -3.40      0.00
    5   16    4      5.90      0.00
    5   16    3     -0.68      0.00
    5   16    2     -6.96      0.00
    5   16    1      5.50      0.00
    5   16    0      9.15      0.00
    6   16   16      1.12      0.00
    6   16   15     -0.39      0.00
    6   16   14      4.37      0.00
    6   16   13     -1.24      0.00
    6   16   12     14.77      0.00
    6   16   11     -3.28      0.00
    6   16   10     -0.59      0.00
    6   16    9     -7.05      0.00
    6   16    8     -1.46      0.00
    6   16    7      3.91      0.00
    6   16    6     -1.97      0.00
    6   16    5     -0.34      0.00
    6   16    4     -3.37      0.00
    6   16    3      6.81      0.00
    6   16    2      3.47      0.00
    6   16    1     -2.14      0.00
    6   16    0     -4.64      0.00
    7   16   16     -4.21      0.00
    7   16   15     -4.14      0.00
    7   16   14      1.49      0.00
    7   16   13     -6.65      0.00
    7   16   12    -12.78      0.00
    7   16   11      5.32      0.00
    7   16   10     -2.59      0.00
    7   16    9    -13.46      0.00
    7   16    8     -4.75      0.00
    7   16    7      5.89      0.00
    7   16    6     -1.05      0.00
    7   16    5     -6.37      0.00
    7   16    4     -5.44      0.00
    7   16    3      3.78      0.00
    7   16    2     -0.37      0.00
    7   16    1     -6.86      0.00
    7   16    0     -1.73      0.00
    8   16   15      2.43      0.00
    8   16   14      9.64      0.00
    8   16   13     -1.97      0.00
    8   16   12      0.50      0.00
    8   16   11      0.72      0.00
    8   16   10     -0.45      0.00
    8   16    9      0.39      0.00
    8   16    8      5.38      0.00
    8   16    7     -4.72      0.00
    8   16    6      1.04      0.00
    8   16    5     -5.46      0.00
    8   16    4      3.18      0.00
    8   16    3     -0.13      0.00
    8   16    2     -3.01      0.00
    8   16    1      0.11      0.00
    8   16    0     -4.96      0.00
    9   16   15     -5.00      0.00
    9   16   14      5.77      0.00
    9   16   13     -3.84      0.00
    9   16   12      6.06      0.00
    9   16   11     -0.88      0.00
    9   16   10      7.70      0.00
    9   16    9     -2.41      0.00
    9   16    8     -1.80      0.00
    9   16    7      5.31      0.00
    9   16    6      3.96      0.00
    9   16    5     -3.09      0.00
    9   16    4     -0.20      0.00
    9   16    3      8.66      0.00
    9   16    2      3.29      0.00
    9   16    1     -4.93      0.00
    9   16    0     -0.50      0.00
   10   16   15      0.55      0.00
   10   16   14     -4.59      0.00
   10   16   13     -0.38      0.00
   10   16   12     -4.51      0.00
   10   16   11      2.03      0.00
   10   16   10     -4.38      0.00
   10   16    9     -3.61      0.00
   10   16    8     -1.22      0.00
   10   16    7      1.12      0.00
   10   16    6     -7.14      0.00
   10   16    5      1.36      0.00
   10   16    4     -0.60      0.00
   10   16    3     13.25      0.00
   10   16    2     -5.02      0.00
   10   16    1     -1.20      0.00
   10   16    0     -4.54      0.00
   11   16   14     12.72      0.00
   11   16   13      9.77      0.00
   11   16   12     10.81      0.00
   11   16   11      5.36      0.00
   11   16   10     -7.81      0.00
   11   16    9     -2.62      0.00
   11   16    8     -1.65      0.00
   11   16    7     -4.96      0.00
   11   16    6     -4.77      0.00
   11   16    5     -9.40      0.00
   11   16    4      4.37      0.00
   11   16    3      7.27      0.00
   11   16    2     -6.60      0.00
   11   16    1     -0.60      0.00
   11   16    0     -5.81      0.00
   12   16   14      3.18      0.00
   12   16   13     -2.27      0.00
   12   16   12      5.02      0.00
   12   16   11     -0.34      0.00
   12   16   10      0.62      0.00
   12   16    9     -6.93      0.00
   12   16    8     -1.18      0.00
   12   16    7     -1.32      0.00
   12   16    6      0.08      0.00
   12   16    5      6.70      0.00
   12   16    4     -3.21      0.00
   12   16    3     -0.99      0.00
   12   16    2     -2.47      0.00
   12   16    1     -1.04      0.00
   12   16    0     -7.68      0.00
   13   16   13     -4.76      0.00
   13   16   12     -1.93      0.00
   13   16   11     -0.26      0.00
   13   16   10     -5.00      0.00
   13   16    9      0.21      0.00
   13   16    8     11.48      0.00
   13   16    7      2.98      0.00
   13   16    6      9.08      0.00
   13   16    5     -3.05      0.00
   13   16    4     15.19      0.00
   13   16    3     -3.49      0.00
   13   16    2     -4.15      0.00
   13   16    1     -5.52      0.00
   13   16    0      4.73      0.00
   14   16   12     12.49      0.00
   14   16   11      1.92      0.00
   14   16   10     -0.48      0.00
   14   16    9      5.29      0.00
   14   16    8      0.55      0.00
   14   16    7     -0.06      0.00
   14   16    6     -0.27      0.00
   14   16    5      7.11      0.00
   14   16    4      6.86      0.00
   14   16    3      0.66      0.00
   14   16    2     -3.18      0.00
   14   16    1      3.82      0.00
   14   16    0      2.19      0.00
   15   16   11     -0.73      0.00
   15   16   10      1.03      0.00
   15   16    9     -5.70      0.00
   15   16    8     -5.58      0.00
   15   16    7      0.79      0.00
   15   16    6     -2.17      0.00
   15   16    5      0.96      0.00
   15   16    4      7.01      0.00
   15   16    3      3.64      0.00
   15   16    2     -6.29      0.00
   15   16    1     -5.52      0.00
   15   16    0      1.84      0.00
   16   16   10     -3.69      0.00
   16   16    8      9.79      0.00
   16   16    6     -0.72      0.00
   16   16    4     17.69      0.00
   16   16    2    -15.02      0.00
   16   16    0    -10.67      0.00
    0   17    0    -15.11      0.00
    0   17    1      8.88      0.00
    0   17    2      4.26      0.00
    0   17    3      1.41      0.00
    0   17    4     -3.78      0.00
    0   17    5    -11.43      0.00
    0   17    6      3.57      0.00
    0   17    7     -6.00      0.00
    0   17    8     -7.13      0.00
    0   17    9      4.85      0.00
    0   17   10      5.84      0.00
    0   17   11     -1.28      0.00
    0   17   12    -11.07      0.00
    0   17   13     -5.64      0.00
    0   17   14     -3.97      0.00
    0   17   15     11.00      0.00
    0   17   16      7.27      0.00
    1   17   16     13.98      0.00
    1   17   15      0.79      0.00
    1   17   14     -4.57      0.00
    1   17   13      1.03      0.00
    1   17   12     -4.79      0.00
    1   17   11      1.86      0.00
    1   17   10     -3.33      0.00
    1   17    9     -4.00      0.00
    1   17    8     -6.53      0.00
    1   17    7     -1.37      0.00
    1   17    6     -8.36      0.00
    1   17    5     -1.65      0.00
    1   17    4     -1.27      0.00
    1   17    3      1.58      0.00
    1   17    2      0.00      0.00
    1   17    1      1.17      0.00
    1   17    0     19.30      0.00
    2   17   16     10.96      0.00
    2   17   15      6.93      0.00
    2   17   14     -6.59      0.00
    2   17   13     11.24      0.00
    2   17   12     -1.40      0.00
    2   17   11     -0.60      0.00
    2   17   10     -3.15      0.00
    2   17    9     -0.30      0.00
    2   17    8     -4.19      0.00
    2   17    7     -2.91      0.00
    2   17    6      3.68      0.00
    2   17    5     -2.42      0.00
    2   17    4     -2.50      0.00
    2   17    3      5.49      0.00
    2   17    2     -3.92      0.00
    2   17    1     15.99      0.00
    2   17    0     -9.18      0.00
    3   17   16      8.12      0.00
    3   17   15     -2.00      0.00
    3   17   14      6.48      0.00
    3   17   13      5.12      0.00
    3   17   12     -1.14      0.00
    3   17   11      4.96      0.00
    3   17   10     -0.72      0.00
    3   17    9      6.14      0.00
    3   17    8     -2.49      0.00
    3   17    7      9.49      0.00
    3   17    6     -0.80      0.00
    3   17    5      7.54      0.00
    3   17    4     -4.62      0.00
    3   17    3     -1.90      0.00
    3   17    2     -0.99      0.00
    3   17    1      0.33      0.00
    3   17    0     -4.63      0.00
    4   17   16      2.56      0.00
    4   17   15     -3.85      0.00
    4   17   14      1.82      0.00
    4   17   13     13.70      0.00
    4   17   12      6.08      0.00
    4   17   11     -1.52      0.00
    4   17   10      0.38      0.00
    4   17    9     -2.02      0.00
    4   17    8     -1.98      0.00
    4   17    7     -1.16      0.00
    4   17    6     -5.72      0.00
    4   17    5     -1.11      0.00
    4   17    4     -1.78      0.00
    4   17    3     -2.49      0.00
    4   17    2     -3.22      0.00
    4   17    1     -0.63      0.00
    4   17    0     -8.74      0.00
    5   17   15     -0.04      0.00
    5   17   14      0.79      0.00
    5   17   13     11.13      0.00
    5   17   12      6.91      0.00
    5   17   11      1.41      0.00
    5   17   10     -4.30      0.00
    5   17    9     -6.42      0.00
    5   17    8     -3.98      0.00
    5   17    7     -0.41      0.00
    5   17    6     -7.35      0.00
    5   17    5     -6.03      0.00
    5   17    4     -2.69      0.00
    5   17    3     -1.92      0.00
    5   17    2     -0.54      0.00
    5   17    1     -1.98      0.00
    5   17    0      2.88      0.00
    6   17   15      1.68      0.00
    6   17   14      6.88      0.00
    6   17   13      5.49      0.00
    6   17   12     -3.38      0.00
    6   17   11     -5.64      0.00
    6   17   10      0.52      0.00
    6   17    9      7.43      0.00
    6   17    8      3.47      0.00
    6   17    7      1.63      0.00
    6   17    6     -2.31      0.00
    6   17    5     -1.92      0.00
    6   17    4      1.24      0.00
    6   17    3     -1.29      0.00
    6   17    2     -2.23      0.00
    6   17    1      9.28      0.00
    6   17    0     -1.37      0.00
    7   17   15     -2.43      0.00
    7   17   14      8.59      0.00
    7   17   13      5.28      0.00
    7   17   12     -1.94      0.00
    7   17   11     -4.66      0.00
    7   17   10      4.36      0.00
    7   17    9      2.28      0.00
    7   17    8      6.86      0.00
    7   17    7      2.81      0.00
    7   17    6     -5.17      0.00
    7   17    5      0.78      0.00
    7   17    4      3.40      0.00
    7   17    3      3.53      0.00
    7   17    2      0.64      0.00
    7   17    1     -6.47      0.00
    7   17    0     13.82      0.00
    8   17   14    -12.18      0.00
    8   17   13      5.44      0.00
    8   17   12      7.35      0.00
    8   17   11     -5.33      0.00
    8   17   10      0.64      0.00
    8   17    9     -8.04      0.00
    8   17    8      0.93      0.00
    8   17    7      1.57      0.00
    8   17    6      4.02      0.00
    8   17    5     -6.37      0.00
    8   17    4     -1.62      0.00
    8   17    3      9.29      0.00
    8   17    2      2.49      0.00
    8   17    1      4.22      0.00
    8   17    0     -1.56      0.00
    9   17   14      1.04      0.00
    9   17   13      2.26      0.00
    9   17   12     -4.03      0.00
    9   17   11     -5.79      0.00
    9   17   10     -2.21      0.00
    9   17    9     -3.41      0.00
    9   17    8     -3.89      0.00
    9   17    7     -2.30      0.00
    9   17    6      2.01      0.00
    9   17    5     -0.07      0.00
    9   17    4     -0.63      0.00
    9   17    3      0.14      0.00
    9   17    2      3.15      0.00
    9   17    1      3.35      0.00
    9   17    0      5.15      0.00
   10   17   14     -3.41      0.00
   10   17   13      5.04      0.00
   10   17   12      6.30      0.00
   10   17   11     -3.91      0.00
   10   17   10      4.87      0.00
   10   17    9     -7.10      0.00
   10   17    8     -4.64      0.00
   10   17    7     -1.49      0.00
   10   17    6      0.34      0.00
   10   17    5     -1.15      0.00
   10   17    4     -1.92      0.00
   10   17    3      3.77      0.00
   10   17    2     -8.07      0.00
   10   17    1      2.22      0.00
   10   17    0      7.68      0.00
   11   17   13     -1.15      0.00
   11   17   12     -3.06      0.00
   11   17   11      2.92      0.00
   11   17   10      7.25      0.00
   11   17    9      4.09      0.00
   11   17    8     -9.79      0.00
   11   17    7     -3.90      0.00
   11   17    6     -0.72      0.00
   11   17    5      0.96      0.00
   11   17    4     -4.13      0.00
   11   17    3      3.39      0.00
   11   17    2     -1.01      0.00
   11   17    1      6.04      0.00
   11   17    0      1.92      0.00
   12   17   13      4.72      0.00
   12   17   12     -0.39      0.00
   12   17   11     -3.71      0.00
   12   17   10     -1.42      0.00
   12   17    9      1.53      0.00
   12   17    8      4.56      0.00
   12   17    7     -4.96      0.00
   12   17    6     -4.16      0.00
   12   17    5     -4.02      0.00
   12   17    4      3.83      0.00
   12   17    3      5.37      0.00
   12   17    2      0.88      0.00
   12   17    1      3.08      0.00
   12   17    0     -1.47      0.00
   13   17   12      3.23      0.00
   13   17   11     -1.08      0.00
   13   17   10      0.80      0.00
   13   17    9     -3.32      0.00
   13   17    8      1.08      0.00
   13   17    7      3.93      0.00
   13   17    6     -1.16      0.00
   13   17    5      3.25      0.00
   13   17    4      7.42      0.00
   13   17    3     -3.41      0.00
   13   17    2      8.65      0.00
   13   17    1     -5.31      0.00
   13   17    0      5.79      0.00
   14   17   11      0.13      0.00
   14   17   10      1.40      0.00
   14   17    9     -4.69      0.00
   14   17    8     -0.84      0.00
   14   17    7     -1.06      0.00
   14   17    6      9.55      0.00
   14   17    5     -4.19      0.00
   14   17    4      1.93      0.00
   14   17    3     -0.63      0.00
   14   17    2      1.22      0.00
   14   17    1     -2.26      0.00
   14   17    0     -5.64      0.00
   15   17   10      4.62      0.00
   15   17    9      0.16      0.00
   15   17    8     -5.85      0.00
   15   17    7     -0.72      0.00
   15   17    6      0.61      0.00
   15   17    5     -0.87      0.00
   15   17    4      2.74      0.00
   15   17    3     -4.06      0.00
   15   17    2     -9.81      0.00
   15   17    1     -1.55      0.00
   15   17    0     -2.03      0.00
   16   17    9     -5.70      0.00
   16   17    8      8.47      0.00
   16   17    7      1.47      0.00
   16   17    6      1.10      0.00
   16   17    5      5.09      0.00
   16   17    4     10.94      0.00
   16   17    3     -4.08      0.00
   16   17    2     -9.20      0.00
   16   17    1      3.32      0.00
   16   17    0      5.53      0.00
   17   17    8     -2.96      0.00
   17   17    6      8.60      0.00
   17   17    4      7.92      0.00
   17   17    2     -9.77      0.00
   17   17    0     -1.87      0.00
    0   18    0    -15.41      0.00
    0   18    1     -2.34      0.00
    0   18    2     -5.71      0.00
    0   18    3     -6.19      0.00
    0   18    4     -3.05      0.00
    0   18    5     -2.67      0.00
    0   18    6     -8.61      0.00
    0   18    7     -6.95      0.00
    0   18    8      0.99      0.00
    0   18    9     -4.92      0.00
    0   18   10     -6.73      0.00
    0   18   11      4.96      0.00
    0   18   12     -5.09      0.00
    0   18   13     -0.39      0.00
    0   18   14     -8.23      0.00
    0   18   15      8.99      0.00
    1   18   15     -1.69      0.00
    1   18   14      3.77      0.00
    1   18   13     -1.06      0.00
    1   18   12     -5.84      0.00
    1   18   11      1.57      0.00
    1   18   10      1.20      0.00
    1   18    9      2.21      0.00
    1   18    8     -7.80      0.00
    1   18    7      2.10      0.00
    1   18    6     -0.32      0.00
    1   18    5     -8.40      0.00
    1   18    4      2.95      0.00
    1   18    3     10.78      0.00
    1   18    2     -5.71      0.00
    1   18    1     -1.14      0.00
    1   18    0     -8.00      0.00
    2   18   15     -0.86      0.00
    2   18   14     -6.67      0.00
    2   18   13      2.04      0.00
    2   18   12      1.14      0.00
    2   18   11      7.81      0.00
    2   18   10     -8.49      0.00
    2   18    9      3.19      0.00
    2   18    8     -2.65      0.00
    2   18    7      9.14      0.00
    2   18    6     -1.50      0.00
    2   18    5     -0.93      0.00
    2   18    4      3.27      0.00
    2   18    3      0.50      0.00
    2   18    2     -1.20      0.00
    2   18    1     -1.88      0.00
    2   18    0      0.17      0.00
    3   18   15     -5.91      0.00
    3   18   14      1.62      0.00
    3   18   13     -3.78      0.00
    3   18   12      1.31      0.00
    3   18   11      7.36      0.00
    3   18   10      0.31      0.00
    3   18    9     -1.41      0.00
    3   18    8      1.82      0.00
    3   18    7      2.32      0.00
    3   18    6     -3.02      0.00
    3   18    5     -2.25      0.00
    3   18    4     -2.08      0.00
    3   18    3     -3.75      0.00
    3   18    2     -4.86      0.00
    3   18    1     -5.05      0.00
    3   18    0     -8.07      0.00
    4   18   15      0.82      0.00
    4   18   14     -1.12      0.00
    4   18   13      7.70      0.00
    4   18   12     -2.92      0.00
    4   18   11      2.31      0.00
    4   18   10      8.18      0.00
    4   18    9     -0.01      0.00
    4   18    8      1.00      0.00
    4   18    7      4.49      0.00
    4   18    6      0.45      0.00
    4   18    5     -4.99      0.00
    4   18    4      3.31      0.00
    4   18    3     -6.31      0.00
    4   18    2     -0.72      0.00
    4   18    1     -3.45      0.00
    4   18    0     -4.62      0.00
    5   18   14     -4.31      0.00
    5   18   13     -1.37      0.00
    5   18   12      0.27      0.00
    5   18   11     -7.14      0.00
    5   18   10     -4.51      0.00
    5   18    9      4.25      0.00
    5   18    8     -3.72      0.00
    5   18    7      4.54      0.00
    5   18    6     -0.65      0.00
    5   18    5      1.61      0.00
    5   18    4     -2.61      0.00
    5   18    3     -2.72      0.00
    5   18    2     -0.85      0.00
    5   18    1      2.51      0.00
    5   18    0     -2.25      0.00
    5   18   15     -2.65      0.00
    6   18   14     -3.61      0.00
    6   18   13      2.15      0.00
    6   18   12     -6.06      0.00
    6   18   11      3.43      0.00
    6   18   10     -2.90      0.00
    6   18    9     -8.10      0.00
    6   18    8     -2.73      0.00
    6   18    7     -0.75      0.00
    6   18    6     -4.39      0.00
    6   18    5     -2.34      0.00
    6   18    4      1.60      0.00
    6   18    3     -2.03      0.00
    6   18    2      5.60      0.00
    6   18    1     -0.36      0.00
    6   18    0     -2.39      0.00
    7   18   14      0.66      0.00
    7   18   13     -5.28      0.00
    7   18   12      2.94      0.00
    7   18   11      1.77      0.00
    7   18   10      8.14      0.00
    7   18    9     -2.49      0.00
    7   18    8     -4.77      0.00
    7   18    7      4.52      0.00
    7   18    6     -1.40      0.00
    7   18    5     -2.78      0.00
    7   18    4     -0.82      0.00
    7   18    3      7.84      0.00
    7   18    2     -2.23      0.00
    7   18    1      5.77      0.00
    7   18    0      5.15      0.00
    8   18   14     -9.06      0.00
    8   18   13     -3.69      0.00
    8   18   12     -8.07      0.00
    8   18   11    -12.73      0.00
    8   18   10     -0.80      0.00
    8   18    9     -2.82      0.00
    8   18    8      0.43      0.00
    8   18    7      6.20      0.00
    8   18    6      4.46      0.00
    8   18    5      3.64      0.00
    8   18    4      2.16      0.00
    8   18    3     -3.68      0.00
    8   18    2      9.17      0.00
    8   18    1      0.34      0.00
    8   18    0      9.45      0.00
    9   18   13      2.25      0.00
    9   18   12     -5.47      0.00
    9   18   11    -11.32      0.00
    9   18   10      1.14      0.00
    9   18    9      0.59      0.00
    9   18    8     -3.96      0.00
    9   18    7      0.34      0.00
    9   18    6      6.58      0.00
    9   18    5     -1.29      0.00
    9   18    4     -1.81      0.00
    9   18    3      0.20      0.00
    9   18    2     -1.55      0.00
    9   18    1      0.90      0.00
    9   18    0      8.28      0.00
   10   18   13      7.37      0.00
   10   18   12      4.16      0.00
   10   18   11      3.20      0.00
   10   18   10      4.26      0.00
   10   18    9     -1.75      0.00
   10   18    8      1.21      0.00
   10   18    7      3.44      0.00
   10   18    6      3.95      0.00
   10   18    5    -15.33      0.00
   10   18    4      0.76      0.00
   10   18    3      0.08      0.00
   10   18    2      4.10      0.00
   10   18    1      4.30      0.00
   10   18    0      3.86      0.00
   11   18   12      1.27      0.00
   11   18   11     -9.99      0.00
   11   18   10     -4.72      0.00
   11   18    9      3.93      0.00
   11   18    8     -0.26      0.00
   11   18    7      6.55      0.00
   11   18    6     -8.79      0.00
   11   18    5     10.30      0.00
   11   18    4     -7.29      0.00
   11   18    3      4.11      0.00
   11   18    2      0.99      0.00
   11   18    1      1.81      0.00
   11   18    0      3.73      0.00
   12   18   12     -1.44      0.00
   12   18   11     -3.09      0.00
   12   18   10     -2.61      0.00
   12   18    9      1.46      0.00
   12   18    8     -5.86      0.00
   12   18    7      6.44      0.00
   12   18    6      2.43      0.00
   12   18    5     -4.16      0.00
   12   18    4     -3.73      0.00
   12   18    3     -3.90      0.00
   12   18    2     -6.41      0.00
   12   18    1     -3.10      0.00
   12   18    0      2.67      0.00
   13   18   11     -2.86      0.00
   13   18   10     -1.90      0.00
   13   18    9      3.90      0.00
   13   18    8      3.15      0.00
   13   18    7      3.28      0.00
   13   18    6     -5.99      0.00
   13   18    5     -0.84      0.00
   13   18    4     -4.92      0.00
   13   18    3     -6.10      0.00
   13   18    2     -2.40      0.00
   13   18    1      5.63      0.00
   13   18    0      0.77      0.00
   14   18   10     -3.50      0.00
   14   18    9      6.14      0.00
   14   18    8      0.81      0.00
   14   18    7      1.95      0.00
   14   18    6      2.11      0.00
   14   18    5     -8.28      0.00
   14   18    4      3.75      0.00
   14   18    3     -5.24      0.00
   14   18    2     12.08      0.00
   14   18    1     -7.81      0.00
   14   18    0     14.33      0.00
   15   18    9     -3.35      0.00
   15   18    8     -1.43      0.00
   15   18    7      1.99      0.00
   15   18    6     -2.55      0.00
   15   18    5     -2.01      0.00
   15   18    4     -0.83      0.00
   15   18    3     -4.66      0.00
   15   18    2     -4.56      0.00
   15   18    1      5.74      0.00
   15   18    0     -3.70      0.00
   16   18    8     -3.44      0.00
   16   18    7     -0.36      0.00
   16   18    6     -2.14      0.00
   16   18    5     -6.51      0.00
   16   18    4     -5.63      0.00
   16   18    3      3.28      0.00
   16   18    2     -9.47      0.00
   16   18    1      0.64      0.00
   16   18    0     -0.05      0.00
   17   18    7      3.07      0.00
   17   18    6    -14.10      0.00
   17   18    5     -3.48      0.00
   17   18    4      5.44      0.00
   17   18    3      0.08      0.00
   17   18    2     -9.81      0.00
   17   18    1      4.52      0.00
   17   18    0      1.92      0.00
   18   18    4     -1.81      0.00
   18   18    2      0.76      0.00
   18   18    0     18.67      0.00
    0   19    0     22.49      0.00
    0   19    1     -8.08      0.00
    0   19    2      5.33      0.00
    0   19    3      2.84      0.00
    0   19    4      5.25      0.00
    0   19    5     -9.71      0.00
    0   19    6     -1.41      0.00
    0   19    7     -5.77      0.00
    0   19    8      2.77      0.00
    0   19    9     -1.68      0.00
    0   19   10      8.24      0.00
    0   19   11      5.76      0.00
    0   19   12      3.51      0.00
    0   19   13     -5.33      0.00
    0   19   14      7.13      0.00
    1   19   14     -6.16      0.00
    1   19   13     -0.65      0.00
    1   19   12      4.23      0.00
    1   19   11     -0.66      0.00
    1   19   10     -0.08      0.00
    1   19    9      1.60      0.00
    1   19    8      3.54      0.00
    1   19    7     -1.79      0.00
    1   19    6     -0.12      0.00
    1   19    5     -5.56      0.00
    1   19    4      0.55      0.00
    1   19    3     -9.58      0.00
    1   19    2     -4.98      0.00
    1   19    1      6.85      0.00
    1   19    0     -5.36      0.00
    2   19   14     -4.46      0.00
    2   19   13      0.47      0.00
    2   19   12      0.10      0.00
    2   19   11      1.82      0.00
    2   19   10     -6.13      0.00
    2   19    9      6.32      0.00
    2   19    8     -3.47      0.00
    2   19    7      5.66      0.00
    2   19    6     -3.10      0.00
    2   19    5      0.63      0.00
    2   19    4      2.34      0.00
    2   19    3     -3.00      0.00
    2   19    2    -11.11      0.00
    2   19    1      1.86      0.00
    2   19    0      2.37      0.00
    3   19   14      1.24      0.00
    3   19   13      1.68      0.00
    3   19   12     12.57      0.00
    3   19   11      2.04      0.00
    3   19   10      2.61      0.00
    3   19    9     -3.62      0.00
    3   19    8      0.66      0.00
    3   19    7      0.68      0.00
    3   19    6      5.77      0.00
    3   19    5      8.79      0.00
    3   19    4      2.69      0.00
    3   19    3      1.10      0.00
    3   19    2      2.83      0.00
    3   19    1      2.49      0.00
    3   19    0      3.69      0.00
    4   19   14     -2.57      0.00
    4   19   13     -0.04      0.00
    4   19   12     -3.61      0.00
    4   19   11      8.72      0.00
    4   19   10     -3.57      0.00
    4   19    9     -0.17      0.00
    4   19    8     -1.90      0.00
    4   19    7      3.06      0.00
    4   19    6      3.08      0.00
    4   19    5      4.02      0.00
    4   19    4      7.88      0.00
    4   19    3     -9.76      0.00
    4   19    2      4.24      0.00
    4   19    1     -4.08      0.00
    4   19    0      5.70      0.00
    5   19   14    -32.43      0.00
    5   19   13     -3.22      0.00
    5   19   12      2.58      0.00
    5   19   11     -2.93      0.00
    5   19   10      1.28      0.00
    5   19    9     -4.61      0.00
    5   19    8     -2.95      0.00
    5   19    7      4.38      0.00
    5   19    6     -0.54      0.00
    5   19    5     -4.43      0.00
    5   19    4      6.90      0.00
    5   19    3     -7.50      0.00
    5   19    2     -3.32      0.00
    5   19    1      2.29      0.00
    5   19    0     -5.89      0.00
    6   19   13     -5.90      0.00
    6   19   12     -2.70      0.00
    6   19   11     -0.62      0.00
    6   19   10      8.44      0.00
    6   19    9     -0.80      0.00
    6   19    8      1.17      0.00
    6   19    7     -2.59      0.00
    6   19    6      3.48      0.00
    6   19    5      2.69      0.00
    6   19    4      2.05      0.00
    6   19    3     -2.36      0.00
    6   19    2      3.66      0.00
    6   19    1     -5.56      0.00
    6   19    0     10.46      0.00
    7   19   13     -4.86      0.00
    7   19   12     -2.69      0.00
    7   19   11      1.86      0.00
    7   19   10     -0.23      0.00
    7   19    9     -5.28      0.00
    7   19    8      4.43      0.00
    7   19    7      1.23      0.00
    7   19    6      1.34      0.00
    7   19    5     -0.95      0.00
    7   19    4      5.33      0.00
    7   19    3     -0.79      0.00
    7   19    2      5.65      0.00
    7   19    1      5.20      0.00
    7   19    0     -3.75      0.00
    8   19   13     -2.06      0.00
    8   19   12     -3.32      0.00
    8   19   11      3.46      0.00
    8   19   10      0.00      0.00
    8   19    9      1.67      0.00
    8   19    8     -6.53      0.00
    8   19    7      6.61      0.00
    8   19    6     -1.40      0.00
    8   19    5     -6.01      0.00
    8   19    4      2.47      0.00
    8   19    3      4.04      0.00
    8   19    2     -1.98      0.00
    8   19    1      2.10      0.00
    8   19    0      2.15      0.00
    9   19   13      4.16      0.00
    9   19   12      9.57      0.00
    9   19   11      0.64      0.00
    9   19   10      2.92      0.00
    9   19    9      5.28      0.00
    9   19    8      2.05      0.00
    9   19    7      0.47      0.00
    9   19    6     -0.35      0.00
    9   19    5      0.99      0.00
    9   19    4     -1.72      0.00
    9   19    3     -0.55      0.00
    9   19    2      5.31      0.00
    9   19    1     -4.90      0.00
    9   19    0     -6.05      0.00
   10   19   12     -3.31      0.00
   10   19   11      8.72      0.00
   10   19   10     -3.15      0.00
   10   19    9     -1.14      0.00
   10   19    8     -2.11      0.00
   10   19    7      3.03      0.00
   10   19    6     -1.21      0.00
   10   19    5      0.67      0.00
   10   19    4      5.27      0.00
   10   19    3     -2.09      0.00
   10   19    2     -5.42      0.00
   10   19    1     -3.94      0.00
   10   19    0      5.71      0.00
   11   19   11      0.18      0.00
   11   19   10     -2.52      0.00
   11   19    9      0.92      0.00
   11   19    8      2.09      0.00
   11   19    7     -0.50      0.00
   11   19    6     -1.81      0.00
   11   19    5      0.21      0.00
   11   19    4     -0.98      0.00
   11   19    3     -4.99      0.00
   11   19    2     -1.50      0.00
   11   19    1     -0.97      0.00
   11   19    0      0.13      0.00
   12   19   11     -4.39      0.00
   12   19   10     -1.12      0.00
   12   19    9      8.77      0.00
   12   19    8      1.51      0.00
   12   19    7      4.42      0.00
   12   19    6     -7.43      0.00
   12   19    5     -0.63      0.00
   12   19    4     -0.37      0.00
   12   19    3     -1.42      0.00
   12   19    2     -0.98      0.00
   12   19    1     -4.15      0.00
   12   19    0      1.16      0.00
   13   19   10    -33.82      0.00
   13   19    9     -2.35      0.00
   13   19    8     10.01      0.00
   13   19    7      1.88      0.00
   13   19    6     -8.39      0.00
   13   19    5     -2.07      0.00
   13   19    4     -0.14      0.00
   13   19    3     -2.72      0.00
   13   19    2      3.31      0.00
   13   19    1      1.95      0.00
   13   19    0     -0.43      0.00
   14   19    9     -3.87      0.00
   14   19    8     -5.94      0.00
   14   19    7      8.92      0.00
   14   19    6     -1.60      0.00
   14   19    5      1.73      0.00
   14   19    4     -1.91      0.00
   14   19    3     -0.99      0.00
   14   19    2      0.58      0.00
   14   19    1      2.41      0.00
   14   19    0      6.94      0.00
   15   19    8      3.40      0.00
   15   19    7      7.69      0.00
   15   19    6     -2.07      0.00
   15   19    5      7.38      0.00
   15   19    4     -2.21      0.00
   15   19    3      5.29      0.00
   15   19    2     -0.92      0.00
   15   19    1      2.38      0.00
   15   19    0     -8.32      0.00
   16   19    7      1.95      0.00
   16   19    6     -3.42      0.00
   16   19    5      1.45      0.00
   16   19    4      4.07      0.00
   16   19    3      8.01      0.00
   16   19    2     -6.87      0.00
   16   19    1     11.80      0.00
   16   19    0      1.57      0.00
   17   19    5      5.13      0.00
   17   19    4     -0.88      0.00
   17   19    3      1.41      0.00
   17   19    2      5.26      0.00
   17   19    1      9.43      0.00
   17   19    0      5.27      0.00
    0   20    0     -1.66      0.00
    0   20    1      0.89      0.00
    0   20    2     -0.02      0.00
    0   20    3     -4.08      0.00
    0   20    4     -7.15      0.00
    0   20    5     -2.36      0.00
    0   20    6      3.75      0.00
    0   20    7     -1.40      0.00
    0   20    8     -1.24      0.00
    0   20    9      1.36      0.00
    0   20   10      0.66      0.00
    0   20   12     -8.17      0.00
    0   20   13    -19.48      0.00
    1   20   13      2.67      0.00
    1   20   12     -4.53      0.00
    1   20   11    -14.26      0.00
    1   20   10      1.26      0.00
    1   20    9      2.59      0.00
    1   20    8      4.03      0.00
    1   20    7     -3.14      0.00
    1   20    6      3.63      0.00
    1   20    5     -0.27      0.00
    1   20    4      2.09      0.00
    1   20    3     -3.89      0.00
    1   20    2      4.71      0.00
    1   20    1     -0.29      0.00
    1   20    0     -1.31      0.00
    2   20   13      9.38      0.00
    2   20   12     12.32      0.00
    2   20   11     -4.07      0.00
    2   20   10      3.76      0.00
    2   20    9      1.50      0.00
    2   20    8     -1.64      0.00
    2   20    7      2.89      0.00
    2   20    6      6.62      0.00
    2   20    5     -2.80      0.00
    2   20    4     -0.53      0.00
    2   20    3      4.62      0.00
    2   20    2     -2.61      0.00
    2   20    1      3.31      0.00
    2   20    0      3.18      0.00
    3   20   13      9.44      0.00
    3   20   12     -1.24      0.00
    3   20   11     -3.65      0.00
    3   20   10      0.02      0.00
    3   20    9      1.71      0.00
    3   20    8      5.84      0.00
    3   20    7     -5.61      0.00
    3   20    6     -1.56      0.00
    3   20    5      0.87      0.00
    3   20    4     -3.19      0.00
    3   20    3    -11.75      0.00
    3   20    2      2.79      0.00
    3   20    1     -2.13      0.00
    3   20    0      6.53      0.00
    4   20   13     -2.22      0.00
    4   20   12      4.42      0.00
    4   20   11     -7.35      0.00
    4   20   10      3.14      0.00
    4   20    9      4.97      0.00
    4   20    8     -6.97      0.00
    4   20    7      7.17      0.00
    4   20    6      3.99      0.00
    4   20    5      4.40      0.00
    4   20    4     -0.91      0.00
    4   20    3      0.26      0.00
    4   20    2     -2.90      0.00
    4   20    1     -1.43      0.00
    4   20    0     -3.05      0.00
    5   20   13     44.05      0.00
    5   20   12      6.90      0.00
    5   20   11     -5.64      0.00
    5   20   10      1.77      0.00
    5   20    9      9.62      0.00
    5   20    8      2.52      0.00
    5   20    7     -1.60      0.00
    5   20    6      8.04      0.00
    5   20    5      4.06      0.00
    5   20    4      4.64      0.00
    5   20    3     -3.21      0.00
    5   20    2      0.72      0.00
    5   20    1      0.65      0.00
    5   20    0     -6.59      0.00
    6   20   13     -0.33      0.00
    6   20   12      3.33      0.00
    6   20   11      5.58      0.00
    6   20   10      1.68      0.00
    6   20    9      0.20      0.00
    6   20    8      5.21      0.00
    6   20    7     -3.32      0.00
    6   20    6     -2.38      0.00
    6   20    5     -3.24      0.00
    6   20    4     -7.79      0.00
    6   20    3     -4.93      0.00
    6   20    2      3.73      0.00
    6   20    1      1.60      0.00
    6   20    0      1.65      0.00
    7   20   12     -5.95      0.00
    7   20   11     -2.39      0.00
    7   20   10      5.88      0.00
    7   20    9      0.82      0.00
    7   20    8      6.81      0.00
    7   20    7     -4.10      0.00
    7   20    6      6.29      0.00
    7   20    5     -5.22      0.00
    7   20    4     11.91      0.00
    7   20    3     -5.86      0.00
    7   20    2      1.65      0.00
    7   20    1     -2.57      0.00
    7   20    0      7.88      0.00
    8   20   12      9.88      0.00
    8   20   11      2.49      0.00
    8   20   10      4.57      0.00
    8   20    9      7.69      0.00
    8   20    8     -0.33      0.00
    8   20    7      4.86      0.00
    8   20    6      6.31      0.00
    8   20    5      4.26      0.00
    8   20    4     -1.36      0.00
    8   20    3      7.89      0.00
    8   20    2     -6.55      0.00
    8   20    1     -0.30      0.00
    8   20    0     -7.34      0.00
    9   20   12     -5.21      0.00
    9   20   11      4.42      0.00
    9   20   10      1.89      0.00
    9   20    9      4.51      0.00
    9   20    8     -1.97      0.00
    9   20    7     -1.84      0.00
    9   20    6      7.32      0.00
    9   20    5     -3.47      0.00
    9   20    4     -0.54      0.00
    9   20    3     -5.64      0.00
    9   20    2     -1.14      0.00
    9   20    1      0.33      0.00
    9   20    0      5.04      0.00
   10   20   11      2.02      0.00
   10   20   10     -5.27      0.00
   10   20    9     -1.58      0.00
   10   20    8      2.48      0.00
   10   20    7      0.65      0.00
   10   20    6     -2.25      0.00
   10   20    5      3.46      0.00
   10   20    4     -0.63      0.00
   10   20    3      4.53      0.00
   10   20    2     -5.09      0.00
   10   20    1     -0.86      0.00
   10   20    0     -2.81      0.00
   11   20   10      0.39      0.00
   11   20    9     -5.73      0.00
   11   20    8     -6.19      0.00
   11   20    7     -3.19      0.00
   11   20    6      1.63      0.00
   11   20    5     -8.97      0.00
   11   20    4      2.35      0.00
   11   20    3      2.15      0.00
   11   20    2     -0.89      0.00
   11   20    1     -5.97      0.00
   11   20    0    -10.19      0.00
   12   20    9     -0.96      0.00
   12   20    8     -1.41      0.00
   12   20    7     -6.00      0.00
   12   20    6     -8.04      0.00
   12   20    5      4.61      0.00
   12   20    4     -0.29      0.00
   12   20    3     -6.74      0.00
   12   20    2     -0.70      0.00
   12   20    1     -1.80      0.00
   12   20    0      3.51      0.00
   13   20    9      2.44      0.00
   13   20    8     -2.23      0.00
   13   20    7      3.69      0.00
   13   20    6      1.91      0.00
   13   20    5     -7.11      0.00
   13   20    4      0.77      0.00
   13   20    3      5.14      0.00
   13   20    2     -4.03      0.00
   13   20    1    -17.43      0.00
   13   20    0      3.73      0.00
   14   20    8     13.86      0.00
   14   20    7     -2.89      0.00
   14   20    6    -11.65      0.00
   14   20    5      2.77      0.00
   14   20    4      1.70      0.00
   14   20    3     -3.30      0.00
   14   20    2      4.75      0.00
   14   20    1      3.13      0.00
   14   20    0    -25.47      0.00
   15   20    7     -0.70      0.00
   15   20    6      1.72      0.00
   15   20    5     -3.79      0.00
   15   20    4     -2.55      0.00
   15   20    3     12.23      0.00
   15   20    2     -1.07      0.00
   15   20    1      6.67      0.00
   15   20    0      4.64      0.00
   16   20    5      9.01      0.00
   16   20    4     -1.99      0.00
   16   20    3      4.88      0.00
   16   20    2     -6.19      0.00
   16   20    1      3.06      0.00
   16   20    0    -12.91      0.00
    0   21    0     -7.10      0.00
    0   21    1      7.76      0.00
    0   21    2     -5.73      0.00
    0   21    3     10.87      0.00
    0   21    4      1.07      0.00
    0   21    5      5.47      0.00
    0   21    6      0.88      0.00
    0   21    7      8.36      0.00
    0   21    8      3.46      0.00
    0   21    9     -8.32      0.00
    0   21   10      6.03      0.00
    1   21   12    -15.43      0.00
    1   21   10     -3.15      0.00
    1   21    9     -0.99      0.00
    1   21    8     -1.77      0.00
    1   21    7      3.66      0.00
    1   21    6     -5.18      0.00
    1   21    5     -4.37      0.00
    1   21    4     -1.21      0.00
    1   21    3      1.07      0.00
    1   21    2     -2.96      0.00
    1   21    1     -0.44      0.00
    1   21    0     -1.05      0.00
    2   21   12     -7.05      0.00
    2   21   11    -20.68      0.00
    2   21   10     -0.92      0.00
    2   21    9     -1.19      0.00
    2   21    8      3.99      0.00
    2   21    7      3.05      0.00
    2   21    6      0.26      0.00
    2   21    5     -1.74      0.00
    2   21    4     -1.66      0.00
    2   21    3     -7.53      0.00
    2   21    2     -1.37      0.00
    2   21    1     -6.07      0.00
    2   21    0      3.80      0.00
    3   21   12     -5.19      0.00
    3   21   11     -1.82      0.00
    3   21   10     -0.44      0.00
    3   21    9     -3.27      0.00
    3   21    8      9.20      0.00
    3   21    7      5.45      0.00
    3   21    6     10.64      0.00
    3   21    5      0.33      0.00
    3   21    4      5.64      0.00
    3   21    3      1.57      0.00
    3   21    2      0.39      0.00
    3   21    1     -7.19      0.00
    3   21    0      0.76      0.00
    4   21   12      7.21      0.00
    4   21   11     -3.53      0.00
    4   21   10      7.69      0.00
    4   21    9     -1.56      0.00
    4   21    8      1.92      0.00
    4   21    7      0.56      0.00
    4   21    6     -4.67      0.00
    4   21    5     -0.38      0.00
    4   21    4     -6.49      0.00
    4   21    3     -5.41      0.00
    4   21    2      0.51      0.00
    4   21    1      5.39      0.00
    4   21    0     -5.22      0.00
    5   21   12     -5.15      0.00
    5   21   11      2.83      0.00
    5   21   10     -1.48      0.00
    5   21    9      3.14      0.00
    5   21    8     -4.72      0.00
    5   21    7      3.95      0.00
    5   21    6     -6.18      0.00
    5   21    5     -4.38      0.00
    5   21    4     -7.78      0.00
    5   21    3      0.11      0.00
    5   21    2     -5.19      0.00
    5   21    1      2.58      0.00
    5   21    0      1.97      0.00
    6   21   12    -10.19      0.00
    6   21   11     -1.48      0.00
    6   21   10     -1.10      0.00
    6   21    9     -2.46      0.00
    6   21    8     -1.53      0.00
    6   21    7     -4.17      0.00
    6   21    6      5.05      0.00
    6   21    5      7.13      0.00
    6   21    4      1.28      0.00
    6   21    3      0.95      0.00
    6   21    2     -1.75      0.00
    6   21    1     -0.57      0.00
    6   21    0     -4.97      0.00
    7   21   11     13.46      0.00
    7   21   10     -3.29      0.00
    7   21    9     -9.08      0.00
    7   21    8      3.08      0.00
    7   21    7     -0.54      0.00
    7   21    6     -3.24      0.00
    7   21    5     -4.67      0.00
    7   21    4     -3.18      0.00
    7   21    3      1.13      0.00
    7   21    2     -3.32      0.00
    7   21    1      5.46      0.00
    7   21    0     -2.76      0.00
    8   21   11     -2.14      0.00
    8   21   10      3.26      0.00
    8   21    9     -2.84      0.00
    8   21    8     -2.65      0.00
    8   21    7     -3.03      0.00
    8   21    6      3.51      0.00
    8   21    5     -5.31      0.00
    8   21    4     -3.22      0.00
    8   21    3     -1.87      0.00
    8   21    2     -2.08      0.00
    8   21    1      3.87      0.00
    8   21    0      8.62      0.00
    9   21   10     -7.43      0.00
    9   21    9     -1.63      0.00
    9   21    8      2.58      0.00
    9   21    7     -1.02      0.00
    9   21    6      3.80      0.00
    9   21    5     -3.52      0.00
    9   21    4      6.31      0.00
    9   21    3      5.82      0.00
    9   21    2     -3.13      0.00
    9   21    1      2.21      0.00
    9   21    0      4.75      0.00
   10   21   10     -7.01      0.00
   10   21    9    -10.21      0.00
   10   21    8      2.33      0.00
   10   21    7      0.68      0.00
   10   21    6     -0.22      0.00
   10   21    5     -4.42      0.00
   10   21    4     -0.81      0.00
   10   21    3     -0.82      0.00
   10   21    2     -9.75      0.00
   10   21    1      3.70      0.00
   10   21    0      4.61      0.00
   11   21    9     -7.32      0.00
   11   21    8      3.78      0.00
   11   21    7     -1.85      0.00
   11   21    6     -4.25      0.00
   11   21    5      2.52      0.00
   11   21    4      3.56      0.00
   11   21    3     -6.16      0.00
   11   21    2    -11.43      0.00
   11   21    1     -3.79      0.00
   11   21    0      7.41      0.00
   12   21    8      4.36      0.00
   12   21    7      1.69      0.00
   12   21    6      3.78      0.00
   12   21    5     -9.87      0.00
   12   21    4      5.77      0.00
   12   21    3      7.58      0.00
   12   21    2      1.36      0.00
   12   21    1     -6.84      0.00
   12   21    0      2.47      0.00
   13   21    7      3.87      0.00
   13   21    6    -12.44      0.00
   13   21    5     -5.17      0.00
   13   21    4      4.23      0.00
   13   21    3     -4.55      0.00
   13   21    2     -6.96      0.00
   13   21    1     -1.38      0.00
   13   21    0      9.85      0.00
   14   21    6     -1.52      0.00
   14   21    5     -7.19      0.00
   14   21    4      0.31      0.00
   14   21    3     -3.53      0.00
   14   21    2      0.39      0.00
   14   21    1    -10.67      0.00
   14   21    0     -1.14      0.00
   15   21    4      9.60      0.00
   15   21    3      8.74      0.00
   15   21    2    -10.21      0.00
   15   21    1      3.77      0.00
   15   21    0      0.37      0.00
    0   22    0      0.83      0.00
    0   22    1     -3.15      0.00
    0   22    2     -3.51      0.00
    0   22    3     -5.40      0.00
    0   22    4      6.90      0.00
    0   22    5     -4.51      0.00
    0   22    6     -7.30      0.00
    0   22    7     -8.04      0.00
    0   22    8     14.37      0.00
    0   22    9     -3.54      0.00
    0   22   10      8.84      0.00
    0   22   11     -8.16      0.00
    1   22   11     -2.46      0.00
    1   22   10      1.62      0.00
    1   22    9     -1.07      0.00
    1   22    8      4.33      0.00
    1   22    7     11.54      0.00
    1   22    6     -4.48      0.00
    1   22    5     -0.74      0.00
    1   22    4      2.30      0.00
    1   22    3      2.10      0.00
    1   22    2     -0.83      0.00
    1   22    1      0.47      0.00
    1   22    0      0.57      0.00
    2   22   11      0.79      0.00
    2   22   10      1.02      0.00
    2   22    9      0.14      0.00
    2   22    8      6.02      0.00
    2   22    7      6.11      0.00
    2   22    6    -13.76      0.00
    2   22    5     -0.13      0.00
    2   22    4      4.18      0.00
    2   22    3      0.28      0.00
    2   22    2     -1.12      0.00
    2   22    1      2.42      0.00
    2   22    0      1.19      0.00
    3   22   11      6.60      0.00
    3   22   10      2.67      0.00
    3   22    9     -0.88      0.00
    3   22    8      0.06      0.00
    3   22    7      3.97      0.00
    3   22    6     -9.22      0.00
    3   22    5     -2.41      0.00
    3   22    4     -0.98      0.00
    3   22    3      3.70      0.00
    3   22    2     -7.03      0.00
    3   22    1     -1.53      0.00
    3   22    0      1.07      0.00
    4   22   11      4.71      0.00
    4   22   10      6.70      0.00
    4   22    9      0.39      0.00
    4   22    8      5.53      0.00
    4   22    7      4.69      0.00
    4   22    6      7.48      0.00
    4   22    5      9.05      0.00
    4   22    4      9.45      0.00
    4   22    3     -3.59      0.00
    4   22    2      4.95      0.00
    4   22    1     -7.68      0.00
    4   22    0     -4.28      0.00
    5   22   11     -2.57      0.00
    5   22   10      2.52      0.00
    5   22    9     -1.72      0.00
    5   22    8      1.80      0.00
    5   22    7     11.02      0.00
    5   22    6      0.30      0.00
    5   22    5      7.11      0.00
    5   22    4      1.32      0.00
    5   22    3      3.45      0.00
    5   22    2      0.28      0.00
    5   22    1     -0.47      0.00
    5   22    0     -6.68      0.00
    6   22   10      2.78      0.00
    6   22    9     -7.79      0.00
    6   22    8      6.13      0.00
    6   22    7     -9.14      0.00
    6   22    6     -5.58      0.00
    6   22    5      1.17      0.00
    6   22    4     -1.68      0.00
    6   22    3     -6.42      0.00
    6   22    2     -2.18      0.00
    6   22    1      4.25      0.00
    6   22    0     -9.00      0.00
    7   22   10     -2.13      0.00
    7   22    9     -7.32      0.00
    7   22    8     -4.24      0.00
    7   22    7     -1.33      0.00
    7   22    6     -9.09      0.00
    7   22    5      2.89      0.00
    7   22    4     -3.87      0.00
    7   22    3      0.06      0.00
    7   22    2     -5.66      0.00
    7   22    1      0.67      0.00
    7   22    0     -3.51      0.00
    8   22   10      2.92      0.00
    8   22    9      0.01      0.00
    8   22    8     -0.20      0.00
    8   22    7     -5.98      0.00
    8   22    6     -1.70      0.00
    8   22    5     -4.91      0.00
    8   22    4      5.14      0.00
    8   22    3     -1.18      0.00
    8   22    2     -2.50      0.00
    8   22    1      2.90      0.00
    8   22    0     -3.02      0.00
    9   22    9     -6.26      0.00
    9   22    8     -7.36      0.00
    9   22    7      1.50      0.00
    9   22    6     -0.78      0.00
    9   22    5      1.09      0.00
    9   22    4     -5.76      0.00
    9   22    3      2.98      0.00
    9   22    2     -6.96      0.00
    9   22    1     -0.65      0.00
    9   22    0     -3.71      0.00
   10   22    8      4.22      0.00
   10   22    7     -3.86      0.00
   10   22    6     -8.79      0.00
   10   22    5      2.79      0.00
   10   22    4      1.85      0.00
   10   22    3     -3.58      0.00
   10   22    2     -4.11      0.00
   10   22    1      4.42      0.00
   10   22    0      0.30      0.00
   11   22    7      6.45      0.00
   11   22    6     -2.35      0.00
   11   22    5    -10.77      0.00
   11   22    4     -0.60      0.00
   11   22    3      0.23      0.00
   11   22    2      6.15      0.00
   11   22    1      3.01      0.00
   11   22    0      7.08      0.00
   12   22    6      8.21      0.00
   12   22    5     -5.00      0.00
   12   22    4      4.11      0.00
   12   22    3    -12.03      0.00
   12   22    2      2.23      0.00
   12   22    1     -9.04      0.00
   12   22    0      7.22      0.00
   13   22    5     -3.77      0.00
   13   22    4      3.53      0.00
   13   22    3     -0.70      0.00
   13   22    2      4.63      0.00
   13   22    1     -4.84      0.00
   13   22    0      2.29      0.00
   14   22    3      4.85      0.00
   14   22    2     12.32      0.00
   14   22    1      5.44      0.00
    0   23    0      7.37      0.00
    0   23    1      8.90      0.00
    0   23    2      3.09      0.00
    0   23    3     -0.66      0.00
    0   23    4      4.00      0.00
    0   23    5     -6.38      0.00
    0   23    6      2.83      0.00
    0   23    7      5.38      0.00
    0   23    8      4.69      0.00
    0   23    9     -0.18      0.00
    1   23    9     -4.16      0.00
    1   23    8     -1.80      0.00
    1   23    7      1.75      0.00
    1   23    6     -0.47      0.00
    1   23    5     -3.04      0.00
    1   23    4     -3.42      0.00
    1   23    3     -0.59      0.00
    1   23    2      3.21      0.00
    1   23    1     -1.98      0.00
    1   23    0      8.25      0.00
    2   23    9      0.74      0.00
    2   23    8      1.02      0.00
    2   23    7     -1.18      0.00
    2   23    6     -1.70      0.00
    2   23    5     -3.80      0.00
    2   23    4     -0.08      0.00
    2   23    3     -0.40      0.00
    2   23    2      0.48      0.00
    2   23    1     -5.75      0.00
    2   23    0      4.06      0.00
    3   23    9      1.24      0.00
    3   23    8     -6.98      0.00
    3   23    7      9.43      0.00
    3   23    6     -2.82      0.00
    3   23    5      4.34      0.00
    3   23    4     -2.79      0.00
    3   23    3      1.82      0.00
    3   23    2      2.60      0.00
    3   23    1      3.47      0.00
    3   23    0      4.04      0.00
    4   23    9      1.87      0.00
    4   23    8     -4.57      0.00
    4   23    7      3.08      0.00
    4   23    6     -7.36      0.00
    4   23    5     -2.37      0.00
    4   23    4     -0.67      0.00
    4   23    3      2.16      0.00
    4   23    2      3.98      0.00
    4   23    1     -2.04      0.00
    4   23    0      4.62      0.00
    5   23    9     -1.55      0.00
    5   23    8     -5.81      0.00
    5   23    7     -8.74      0.00
    5   23    6      5.88      0.00
    5   23    5      2.55      0.00
    5   23    4     -2.09      0.00
    5   23    3     -5.07      0.00
    5   23    2      3.11      0.00
    5   23    1     -1.37      0.00
    5   23    0     -3.63      0.00
    6   23    9     -8.73      0.00
    6   23    8      7.74      0.00
    6   23    7      3.65      0.00
    6   23    6      2.76      0.00
    6   23    5     -0.75      0.00
    6   23    4      2.28      0.00
    6   23    3      3.20      0.00
    6   23    2     -4.26      0.00
    6   23    1      0.56      0.00
    6   23    0     -2.30      0.00
    7   23    8     -4.33      0.00
    7   23    7     -1.74      0.00
    7   23    6     -3.87      0.00
    7   23    5      6.82      0.00
    7   23    4     -2.64      0.00
    7   23    3     -7.40      0.00
    7   23    2      3.38      0.00
    7   23    1     -6.79      0.00
    7   23    0     -6.28      0.00
    8   23    8    -10.53      0.00
    8   23    7      2.48      0.00
    8   23    6      3.11      0.00
    8   23    5     -7.12      0.00
    8   23    4     -3.07      0.00
    8   23    3      2.70      0.00
    8   23    2     -1.35      0.00
    8   23    1     -0.70      0.00
    8   23    0     -3.39      0.00
    9   23    7     -1.51      0.00
    9   23    6      1.64      0.00
    9   23    5     -0.08      0.00
    9   23    4     -3.66      0.00
    9   23    3      1.51      0.00
    9   23    2      1.06      0.00
    9   23    1      4.81      0.00
    9   23    0     -2.31      0.00
   10   23    6     -1.33      0.00
   10   23    5      3.23      0.00
   10   23    4     -2.61      0.00
   10   23    3      3.50      0.00
   10   23    2     -6.20      0.00
   10   23    1     -2.23      0.00
   10   23    0     -4.10      0.00
   11   23    5      2.43      0.00
   11   23    4      3.85      0.00
   11   23    3     -4.23      0.00
   11   23    2      4.93      0.00
   11   23    1     -3.82      0.00
   11   23    0    -11.33      0.00
   12   23    4     -0.54      0.00
   12   23    3      0.34      0.00
   12   23    2     10.35      0.00
   12   23    1    -12.37      0.00
   12   23    0      7.58      0.00
    0   24    0      4.25      0.00
    0   24    1      4.41      0.00
    0   24    2     -3.59      0.00
    0   24    3      1.36      0.00
    0   24    4     -2.91      0.00
    0   24    5      5.03      0.00
    0   24    6      8.51      0.00
    0   24    7      1.70      0.00
    0   24    8    -12.14      0.00
    1   24    8     -1.13      0.00
    1   24    7     -2.38      0.00
    1   24    6      5.92      0.00
    1   24    5      5.68      0.00
    1   24    4      1.30      0.00
    1   24    3     -1.14      0.00
    1   24    2      7.97      0.00
    1   24    1      1.41      0.00
    1   24    0     10.89      0.00
    2   24    8     -7.17      0.00
    2   24    7      4.23      0.00
    2   24    6      4.10      0.00
    2   24    5     -3.68      0.00
    2   24    4     -3.92      0.00
    2   24    3      1.69      0.00
    2   24    2      8.87      0.00
    2   24    1      2.64      0.00
    2   24    0     11.08      0.00
    3   24    8     -6.89      0.00
    3   24    7     -7.34      0.00
    3   24    6     -3.14      0.00
    3   24    5     -3.75      0.00
    3   24    4     -4.03      0.00
    3   24    3     -0.48      0.00
    3   24    2     -1.72      0.00
    3   24    1      4.93      0.00
    3   24    0      6.50      0.00
    4   24    8    -19.56      0.00
    4   24    7      5.30      0.00
    4   24    6      3.88      0.00
    4   24    5      0.43      0.00
    4   24    4    -10.53      0.00
    4   24    3      3.81      0.00
    4   24    2      5.84      0.00
    4   24    1     -2.08      0.00
    4   24    0      3.77      0.00
    5   24    7     -4.07      0.00
    5   24    6      5.03      0.00
    5   24    5      0.17      0.00
    5   24    4      2.45      0.00
    5   24    3     -6.96      0.00
    5   24    2      5.15      0.00
    5   24    1     -5.59      0.00
    5   24    0     -0.42      0.00
    6   24    7     -4.63      0.00
    6   24    6     -0.64      0.00
    6   24    5     -2.75      0.00
    6   24    4     -3.20      0.00
    6   24    3     -1.54      0.00
    6   24    2      0.32      0.00
    6   24    1      1.09      0.00
    6   24    0      5.08      0.00
    7   24    7     -2.17      0.00
    7   24    6     -3.61      0.00
    7   24    5      4.08      0.00
    7   24    4     -1.88      0.00
    7   24    3      2.04      0.00
    7   24    2      4.08      0.00
    7   24    1      8.58      0.00
    7   24    0      6.60      0.00
    8   24    6      0.54      0.00
    8   24    5      1.39      0.00
    8   24    4      6.95      0.00
    8   24    3      7.82      0.00
    8   24    2     -3.88      0.00
    8   24    1     -0.47      0.00
    8   24    0      3.18      0.00
    9   24    5     -4.70      0.00
    9   24    4      2.32      0.00
    9   24    3      3.94      0.00
    9   24    2     -0.86      0.00
    9   24    1      3.35      0.00
    9   24    0      0.98      0.00
   10   24    3      3.18      0.00
   10   24    2     -2.01      0.00
   10   24    1      2.75      0.00
   10   24    0     16.84      0.00
    0   25    0      3.88      0.00
    0   25    1      0.16      0.00
    0   25    2     -5.66      0.00
    0   25    3     -0.65      0.00
    0   25    4      6.40      0.00
    0   25    5      3.08      0.00
    0   25    6      1.09      0.00
    0   25    7     -3.00      0.00
    1   25    6      0.39      0.00
    1   25    5     -1.51      0.00
    1   25    4     -0.70      0.00
    1   25    3     -4.08      0.00
    1   25    2      1.27      0.00
    1   25    1     -0.69      0.00
    1   25    0      1.93      0.00
    2   25    6     -6.27      0.00
    2   25    5      4.76      0.00
    2   25    4     -1.89      0.00
    2   25    3     -0.23      0.00
    2   25    2     -3.21      0.00
    2   25    1      2.87      0.00
    2   25    0     -2.81      0.00
    3   25    6      2.52      0.00
    3   25    5      0.20      0.00
    3   25    4      5.46      0.00
    3   25    3      8.06      0.00
    3   25    2     -6.12      0.00
    3   25    1     -1.54      0.00
    3   25    0     -8.93      0.00
    4   25    6     -1.89      0.00
    4   25    5      3.47      0.00
    4   25    4     -0.43      0.00
    4   25    3     -3.18      0.00
    4   25    2      5.75      0.00
    4   25    1     -4.98      0.00
    4   25    0     -1.46      0.00
    5   25    5     -4.26      0.00
    5   25    4     -2.90      0.00
    5   25    3     -1.21      0.00
    5   25    2      2.74      0.00
    5   25    1     -1.39      0.00
    5   25    0      2.59      0.00
    6   25    5      3.40      0.00
    6   25    4      2.90      0.00
    6   25    3      2.10      0.00
    6   25    2     -2.06      0.00
    6   25    1     -1.23      0.00
    6   25    0     -9.42      0.00
    7   25    4      8.10      0.00
    7   25    3      4.69      0.00
    7   25    2      0.06      0.00
    7   25    1     -1.12      0.00
    7   25    0      3.73      0.00
    0   26    0      3.07      0.00
    0   26    1      6.03      0.00
    0   26    2     -5.96      0.00
    0   26    3     -5.22      0.00
    0   26    4     -0.72      0.00
    1   26    4      0.26      0.00
    1   26    3     -2.16      0.00
    1   26    2     -7.75      0.00
    1   26    1      0.97      0.00
    1   26    0     -4.35      0.00
    2   26    3     -2.14      0.00
    2   26    2     -0.94      0.00
    2   26    1     -0.04      0.00
    2   26    0     -4.15      0.00
    3   26    3      0.34      0.00
    3   26    2     -1.98      0.00
    3   26    1      6.46      0.00
    3   26    0      5.28      0.00
    4   26    1     -2.02      0.00
    4   26    2      1.79      0.00
    0    1    0    -53.56      0.00
    1    1    0    185.21      0.00
    3    3    0     24.58      0.00
   18   19    0     -4.43      0.00
   19   19    0     -0.85      0.00
   17   20    0     -1.24      0.00
   18   20    0      1.95      0.00
   19   20    0      8.95      0.00
   20   20    0    -17.28      0.00
   16   21    0      0.81      0.00
   17   21    0      5.50      0.00
   18   21    0      2.75      0.00
   19   21    0     -4.02      0.00
   20   21    0      6.81      0.00
   21   21    0      2.33      0.00
   14   22    0      5.03      0.00
   15   22    0    -10.19      0.00
   16   22    0      1.67      0.00
   17   22    0     -0.28      0.00
   18   22    0      9.38      0.00
   19   22    0     -2.81      0.00
   20   22    0      0.83      0.00
   13   23    0      2.42      0.00
   14   23    0     -9.88      0.00
   15   23    0     -7.17      0.00
   16   23    0     -0.87      0.00
   17   23    0     -1.08      0.00
   18   23    0     -2.94      0.00
   19   23    0     -1.59      0.00
   11   24    0      3.50      0.00
   12   24    0      4.05      0.00
   13   24    0      4.77      0.00
   14   24    0      2.16      0.00
   15   24    0     -1.29      0.00
   16   24    0      0.88      0.00
   17   24    0      3.08      0.00
   18   24    0     -0.67      0.00
    8   25    0     -3.05      0.00
    9   25    0      8.13      0.00
   10   25    0     -1.68      0.00
   11   25    0      9.18      0.00
   12   25    0     -5.11      0.00
   13   25    0      0.34      0.00
   14   25    0      0.52      0.00
   15   25    0     -5.91      0.00
   16   25    0     -5.70      0.00
    4   26    0     -2.48      0.00
    5   26    0     -8.05      0.00
    6   26    0      0.46      0.00
    7   26    0      0.95      0.00
    8   26    0     -5.16      0.00
    9   26    0     -8.87      0.00
   10   26    0     -1.22      0.00
   11   26    0     -6.71      0.00
   12   26    0     -7.32      0.00
   13   26    0     -4.77      0.00
   14   26    0     -8.78      0.00
   15   26    0      1.93      0.00
    0    1    1   -124.09      0.00
   18   19    1     -5.82      0.00
   17   20    1     -1.61      0.00
   18   20    1     13.07      0.00
   19   20    1    -10.13      0.00
   16   21    1      8.45      0.00
   17   21    1     -1.18      0.00
   18   21    1     -2.81      0.00
   19   21    1      0.77      0.00
   20   21    1     -2.68      0.00
   15   22    1      6.14      0.00
   16   22    1     -4.43      0.00
   17   22    1      1.95      0.00
   18   22    1     -2.08      0.00
   19   22    1      1.36      0.00
   20   22    1     -5.22      0.00
   13   23    1     -4.55      0.00
   14   23    1      1.68      0.00
   15   23    1     -3.05      0.00
   16   23    1      2.39      0.00
   17   23    1     -1.41      0.00
   18   23    1     -5.17      0.00
   19   23    1     -4.85      0.00
   11   24    1     -3.41      0.00
   12   24    1     -4.01      0.00
   13   24    1     -2.15      0.00
   14   24    1     -6.00      0.00
   15   24    1      3.81      0.00
   16   24    1      3.96      0.00
   17   24    1     -5.57      0.00
   18   24    1      0.47      0.00
    8   25    1     10.14      0.00
    9   25    1      2.06      0.00
   10   25    1      3.02      0.00
   11   25    1     -1.45      0.00
   12   25    1      1.38      0.00
   13   25    1     -2.28      0.00
   14   25    1      1.06      0.00
   15   25    1      1.43      0.00
   16   25    1      4.46      0.00
    5   26    1      1.97      0.00
    6   26    1      5.95      0.00
    7   26    1     -3.16      0.00
    8   26    1     -1.01      0.00
    9   26    1      3.42      0.00
   10   26    1      2.50      0.00
   11   26    1     -0.68      0.00
   12   26    1     -1.85      0.00
   13   26    1     -1.95      0.00
   14   26    1      0.53      0.00
   15   26    1      5.94      0.00
    0    0    2    -81.05      0.00
    0    1    2     73.22      0.00
   18   19    2     -2.29      0.00
   19   19    2      4.13      0.00
   17   20    2     -9.87      0.00
   18   20    2     -1.49      0.00
   19   20    2      3.24      0.00
   20   20    2     -2.65      0.00
   16   21    2     -2.22      0.00
   17   21    2     -3.43      0.00
   18   21    2     -2.01      0.00
   19   21    2     -1.86      0.00
   20   21    2     -0.93      0.00
   21   21    2     -2.33      0.00
   15   22    2      7.89      0.00
   16   22    2      0.67      0.00
   17   22    2      8.36      0.00
   18   22    2      3.83      0.00
   19   22    2      3.94      0.00
   20   22    2      3.26      0.00
   13   23    2     14.00      0.00
   14   23    2      6.20      0.00
   15   23    2      0.83      0.00
   16   23    2      9.16      0.00
   17   23    2      5.56      0.00
   18   23    2     -2.75      0.00
   19   23    2      7.96      0.00
   11   24    2      0.63      0.00
   12   24    2     -3.61      0.00
   13   24    2     -2.76      0.00
   14   24    2     -0.77      0.00
   15   24    2     -2.69      0.00
   16   24    2     -6.40      0.00
   17   24    2      0.22      0.00
   18   24    2     -0.44      0.00
    8   25    2      7.09      0.00
    9   25    2    -10.04      0.00
   10   25    2      3.45      0.00
   11   25    2     -2.33      0.00
   12   25    2     -1.54      0.00
   13   25    2     -2.64      0.00
   14   25    2     -2.26      0.00
   15   25    2     -0.79      0.00
   16   25    2     -4.88      0.00
    5   26    2     -0.61      0.00
    6   26    2     -2.39      0.00
    7   26    2      6.77      0.00
    8   26    2      0.56      0.00
    9   26    2      0.46      0.00
   10   26    2     -3.89      0.00
   11   26    2      4.22      0.00
   12   26    2      6.56      0.00
   13   26    2     -3.89      0.00
   14   26    2      2.53      0.00
   15   26    2     -0.10      0.00
   18   19    3      4.84      0.00
   17   20    3      6.81      0.00
   18   20    3     -4.64      0.00
   19   20    3     -0.52      0.00
   16   21    3      2.55      0.00
   17   21    3      1.52      0.00
   18   21    3      6.36      0.00
   19   21    3      0.69      0.00
   20   21    3     -1.75      0.00
   15   22    3      1.70      0.00
   16   22    3      8.36      0.00
   17   22    3     -5.55      0.00
   18   22    3      2.64      0.00
   19   22    3     -2.33      0.00
   20   22    3      0.59      0.00
   13   23    3     -0.50      0.00
   14   23    3      4.37      0.00
   15   23    3      5.71      0.00
   16   23    3     -4.23      0.00
   17   23    3      0.01      0.00
   18   23    3     -3.27      0.00
   19   23    3     -3.04      0.00
   11   24    3      1.08      0.00
   12   24    3      5.49      0.00
   13   24    3      0.11      0.00
   14   24    3      3.71      0.00
   15   24    3      4.52      0.00
   16   24    3      3.26      0.00
   17   24    3      0.08      0.00
    8   25    3     -0.89      0.00
    9   25    3     10.95      0.00
   10   25    3     -3.50      0.00
   11   25    3      0.28      0.00
   12   25    3     -0.40      0.00
   13   25    3      2.66      0.00
   14   25    3     -0.50      0.00
   15   25    3      4.74      0.00
   16   25    3      4.67      0.00
    4   26    3      4.10      0.00
    5   26    3      3.74      0.00
    6   26    3      2.06      0.00
    7   26    3     -4.19      0.00
    8   26    3      3.44      0.00
    9   26    3      4.28      0.00
   10   26    3     -0.82      0.00
   11   26    3      0.75      0.00
   12   26    3      1.24      0.00
   13   26    3     -3.22      0.00
   14   26    3      0.66      0.00
    0    0    4    174.43      0.00
   18   19    4      3.16      0.00
   19   19    4     -2.57      0.00
   17   20    4      4.04      0.00
   18   20    4      0.45      0.00
   19   20    4     -7.24      0.00
   20   20    4      6.19      0.00
   16   21    4     -4.41      0.00
   17   21    4      5.78      0.00
   18   21    4      7.12      0.00
   19   21    4      1.58      0.00
   20   21    4      0.61      0.00
   21   21    4      3.18      0.00
   14   22    4     -2.77      0.00
   15   22    4     -4.05      0.00
   16   22    4      5.52      0.00
   17   22    4      4.27      0.00
   18   22    4     -1.69      0.00
   19   22    4      4.26      0.00
   20   22    4     -0.91      0.00
   13   23    4     -4.65      0.00
   14   23    4      2.81      0.00
   15   23    4     -8.89      0.00
   16   23    4     -4.07      0.00
   17   23    4     -3.51      0.00
   18   23    4     -2.58      0.00
   10   24    4      6.97      0.00
   11   24    4      6.08      0.00
   12   24    4      3.12      0.00
   13   24    4      4.71      0.00
   14   24    4      0.73      0.00
   15   24    4     -1.08      0.00
   16   24    4      0.58      0.00
   17   24    4      0.24      0.00
    8   25    4     -4.23      0.00
    9   25    4      2.83      0.00
   10   25    4      5.97      0.00
   11   25    4      5.10      0.00
   12   25    4      0.50      0.00
   13   25    4     -0.50      0.00
   14   25    4     -3.80      0.00
   15   25    4     -1.33      0.00
   16   25    4      0.62      0.00
    2   26    4     -1.96      0.00
    3   26    4     -1.13      0.00
    4   26    4      1.67      0.00
    5   26    4      3.41      0.00
    6   26    4     -3.83      0.00
    7   26    4      2.54      0.00
    8   26    4      5.51      0.00
    9   26    4     -5.06      0.00
   10   26    4     -2.65      0.00
   11   26    4      2.52      0.00
   12   26    4     -1.32      0.00
   13   26    4     -3.35      0.00
   14   26    4     -1.91      0.00
   18   19    5     -3.39      0.00
   17   20    5      1.01      0.00
   18   20    5      2.95      0.00
   19   20    5     -0.50      0.00
   15   21    5     -5.47      0.00
   16   21    5      2.39      0.00
   17   21    5     -2.95      0.00
   18   21    5      0.95      0.00
   19   21    5     -3.14      0.00
   20   21    5     -0.77      0.00
   14   22    5     -5.30      0.00
   15   22    5      1.65      0.00
   16   22    5     -6.95      0.00
   17   22    5      1.08      0.00
   18   22    5     -1.89      0.00
   19   22    5      0.67      0.00
   12   23    5    -13.75      0.00
   13   23    5     -4.32      0.00
   14   23    5     -2.54      0.00
   15   23    5     -1.70      0.00
   16   23    5      1.79      0.00
   17   23    5     -3.02      0.00
   18   23    5     -1.82      0.00
   10   24    5     -0.04      0.00
   11   24    5     -3.83      0.00
   12   24    5     -6.59      0.00
   13   24    5      0.61      0.00
   14   24    5     -3.79      0.00
   15   24    5     -0.51      0.00
   16   24    5      1.50      0.00
   17   24    5     -0.75      0.00
    7   25    5     -1.12      0.00
    8   25    5     -4.01      0.00
    9   25    5     -4.99      0.00
   10   25    5      8.00      0.00
   11   25    5    -10.81      0.00
   12   25    5      1.21      0.00
   13   25    5     -6.10      0.00
   14   25    5     -2.04      0.00
   15   25    5      1.79      0.00
    0   26    5      1.38      0.00
    1   26    5     -3.03      0.00
    2   26    5     -4.68      0.00
    3   26    5     -5.13      0.00
    4   26    5      0.38      0.00
    5   26    5      3.78      0.00
    6   26    5     -1.44      0.00
    7   26    5     -1.66      0.00
    8   26    5     -0.42      0.00
    9   26    5     -0.28      0.00
   10   26    5     -2.71      0.00
   11   26    5      0.85      0.00
   12   26    5     -2.02      0.00
   13   26    5      1.25      0.00
   14   26    5      0.62      0.00
   18   18    6      5.72      0.00
   17   19    6     -2.93      0.00
   18   19    6     -2.24      0.00
   19   19    6     -1.15      0.00
   16   20    6     -5.47      0.00
   17   20    6     -0.70      0.00
   18   20    6     -4.71      0.00
   19   20    6      2.12      0.00
   20   20    6     -6.07      0.00
   15   21    6      0.21      0.00
   16   21    6     -5.74      0.00
   17   21    6     -6.49      0.00
   18   21    6     -3.09      0.00
   19   21    6     -4.18      0.00
   20   21    6     -1.14      0.00
   13   22    6     -1.30      0.00
   14   22    6     -4.56      0.00
   15   22    6     -4.15      0.00
   16   22    6      6.91      0.00
   17   22    6     -4.46      0.00
   18   22    6      2.32      0.00
   19   22    6      4.06      0.00
   11   23    6      7.03      0.00
   12   23    6      2.07      0.00
   13   23    6     -4.52      0.00
   14   23    6      0.64      0.00
   15   23    6      5.08      0.00
   16   23    6     -0.45      0.00
   17   23    6      3.48      0.00
   18   23    6      1.05      0.00
    9   24    6      6.22      0.00
   10   24    6     -7.59      0.00
   11   24    6      2.85      0.00
   12   24    6     -1.39      0.00
   13   24    6     -5.83      0.00
   14   24    6     -2.35      0.00
   15   24    6     -3.06      0.00
   16   24    6     -1.65      0.00
    5   25    6     -1.66      0.00
    6   25    6      0.33      0.00
    7   25    6     -0.49      0.00
    8   25    6     -4.83      0.00
    9   25    6     -4.26      0.00
   10   25    6     -4.35      0.00
   11   25    6      1.05      0.00
   12   25    6      0.83      0.00
   13   25    6     -1.58      0.00
   14   25    6     -9.17      0.00
   15   25    6     -0.20      0.00
    0   26    6      4.01      0.00
    1   26    6     -1.71      0.00
    2   26    6     -3.53      0.00
    3   26    6     -4.55      0.00
    4   26    6      1.93      0.00
    5   26    6      1.47      0.00
    6   26    6     -1.91      0.00
    7   26    6     -4.64      0.00
    8   26    6      6.27      0.00
    9   26    6     -1.96      0.00
   10   26    6     -1.80      0.00
   11   26    6     -0.71      0.00
   12   26    6      5.03      0.00
   13   26    6     -2.10      0.00
   17   19    7     -1.25      0.00
   18   19    7      2.69      0.00
   16   20    7      4.23      0.00
   17   20    7      5.32      0.00
   18   20    7      2.25      0.00
   19   20    7     -4.18      0.00
   14   21    7      2.55      0.00
   15   21    7     -2.26      0.00
   16   21    7     -3.96      0.00
   17   21    7      2.22      0.00
   18   21    7     -1.84      0.00
   19   21    7     -3.38      0.00
   12   22    7     -6.47      0.00
   13   22    7      7.32      0.00
   14   22    7      7.66      0.00
   15   22    7     -4.00      0.00
   16   22    7     -2.66      0.00
   17   22    7     -2.63      0.00
   18   22    7     -1.52      0.00
   10   23    7      9.57      0.00
   11   23    7     -2.36      0.00
   12   23    7     -0.37      0.00
   13   23    7      1.31      0.00
   14   23    7      4.05      0.00
   15   23    7      1.68      0.00
   16   23    7     -2.95      0.00
   17   23    7      0.59      0.00
    8   24    7      3.06      0.00
    9   24    7     -1.76      0.00
   10   24    7     12.83      0.00
   11   24    7      1.53      0.00
   12   24    7      2.05      0.00
   13   24    7      5.47      0.00
   14   24    7      7.90      0.00
   15   24    7     -2.71      0.00
   16   24    7      2.13      0.00
    1   25    7     -0.30      0.00
    2   25    7      4.20      0.00
    3   25    7      2.82      0.00
    4   25    7      3.13      0.00
    5   25    7      0.43      0.00
    6   25    7      0.65      0.00
    7   25    7      3.02      0.00
    8   25    7     -2.81      0.00
    9   25    7      5.33      0.00
   10   25    7     -0.97      0.00
   11   25    7      6.18      0.00
   12   25    7      0.45      0.00
   13   25    7      6.10      0.00
   14   25    7      4.57      0.00
    0   26    7      0.56      0.00
    1   26    7      4.69      0.00
    2   26    7     -1.48      0.00
    3   26    7      6.14      0.00
    4   26    7      5.13      0.00
    5   26    7      6.98      0.00
    6   26    7     -3.20      0.00
    7   26    7      2.82      0.00
    8   26    7     -1.40      0.00
    9   26    7      5.57      0.00
   10   26    7      6.22      0.00
   11   26    7      1.28      0.00
   12   26    7     -0.90      0.00
   17   18    8      3.72      0.00
   18   18    8     -7.75      0.00
   16   19    8     -0.41      0.00
   17   19    8      0.24      0.00
   18   19    8      4.42      0.00
   19   19    8     -4.86      0.00
   15   20    8     -3.13      0.00
   16   20    8      3.16      0.00
   17   20    8      4.48      0.00
   18   20    8      1.38      0.00
   19   20    8      0.04      0.00
   20   20    8      1.82      0.00
   13   21    8     16.04      0.00
   14   21    8      2.47      0.00
   15   21    8      3.52      0.00
   16   21    8      6.83      0.00
   17   21    8      5.47      0.00
   18   21    8     -2.17      0.00
   19   21    8      2.03      0.00
   11   22    8      1.61      0.00
   12   22    8      2.90      0.00
   13   22    8      4.88      0.00
   14   22    8      4.57      0.00
   15   22    8      4.90      0.00
   16   22    8     -3.01      0.00
   17   22    8     -0.98      0.00
   18   22    8      5.02      0.00
    9   23    8      0.82      0.00
   10   23    8     -2.94      0.00
   11   23    8     -8.22      0.00
   12   23    8      0.77      0.00
   13   23    8     -2.44      0.00
   14   23    8     -0.99      0.00
   15   23    8     -2.42      0.00
   16   23    8      4.46      0.00
    5   24    8     -0.45      0.00
    6   24    8     -8.69      0.00
    7   24    8      0.71      0.00
    8   24    8     -9.67      0.00
    9   24    8     -2.35      0.00
   10   24    8      9.72      0.00
   11   24    8      7.85      0.00
   12   24    8     -2.91      0.00
   13   24    8      7.30      0.00
   14   24    8      2.38      0.00
   15   24    8      6.53      0.00
    0   25    8     -1.06      0.00
    1   25    8      1.44      0.00
    2   25    8     -2.47      0.00
    3   25    8     -0.86      0.00
    4   25    8     -3.23      0.00
    5   25    8     -4.19      0.00
    6   25    8      2.52      0.00
    7   25    8     -2.54      0.00
    8   25    8      1.76      0.00
    9   25    8     -1.18      0.00
   10   25    8      0.28      0.00
   11   25    8      1.99      0.00
   12   25    8     10.86      0.00
   13   25    8      0.83      0.00
    0   26    8      8.06      0.00
    1   26    8     -1.78      0.00
    2   26    8      0.91      0.00
    3   26    8     -3.10      0.00
    4   26    8     -3.13      0.00
    5   26    8     -3.71      0.00
    6   26    8      7.27      0.00
    7   26    8     -1.30      0.00
    8   26    8     -4.56      0.00
    9   26    8      1.16      0.00
   10   26    8      1.58      0.00
   11   26    8     -0.30      0.00
   16   18    9     -1.72      0.00
   17   18    9     -0.29      0.00
   15   19    9      6.88      0.00
   16   19    9      2.40      0.00
   17   19    9      1.99      0.00
   18   19    9     -2.21      0.00
   14   20    9      2.65      0.00
   15   20    9      0.77      0.00
   16   20    9      2.90      0.00
   17   20    9      1.20      0.00
   18   20    9      3.38      0.00
   19   20    9      1.17      0.00
   12   21    9      4.32      0.00
   13   21    9      0.12      0.00
   14   21    9     -2.99      0.00
   15   21    9     -8.74      0.00
   16   21    9      5.29      0.00
   17   21    9     -0.69      0.00
   18   21    9      0.83      0.00
   10   22    9     -4.42      0.00
   11   22    9    -11.58      0.00
   12   22    9     -7.57      0.00
   13   22    9     -1.75      0.00
   14   22    9     -1.71      0.00
   15   22    9     -0.89      0.00
   16   22    9    -10.56      0.00
   17   22    9     -1.35      0.00
    7   23    9     -1.98      0.00
    8   23    9     -1.54      0.00
    9   23    9      6.09      0.00
   10   23    9    -11.97      0.00
   11   23    9     -0.54      0.00
   12   23    9     -1.61      0.00
   13   23    9      0.57      0.00
   14   23    9     -1.24      0.00
   15   23    9      4.53      0.00
   16   23    9      0.84      0.00
    0   24    9     -1.98      0.00
    1   24    9     -4.66      0.00
    2   24    9     -1.67      0.00
    3   24    9     -2.70      0.00
    4   24    9      0.12      0.00
    5   24    9     -6.83      0.00
    6   24    9     -3.43      0.00
    7   24    9     -1.93      0.00
    8   24    9      1.93      0.00
    9   24    9      0.19      0.00
   10   24    9      1.79      0.00
   11   24    9     -1.94      0.00
   12   24    9      1.90      0.00
   13   24    9      5.49      0.00
   14   24    9      8.43      0.00
    0   25    9     -5.07      0.00
    1   25    9      0.58      0.00
    2   25    9      1.66      0.00
    3   25    9      4.54      0.00
    4   25    9      4.84      0.00
    5   25    9      6.29      0.00
    6   25    9     -4.52      0.00
    7   25    9      3.45      0.00
    8   25    9      8.90      0.00
    9   25    9      0.99      0.00
   10   25    9      2.95      0.00
   11   25    9     -3.54      0.00
   12   25    9      4.64      0.00
    0   26    9     -2.60      0.00
    1   26    9     -2.88      0.00
    2   26    9     -5.73      0.00
    3   26    9      4.30      0.00
    4   26    9      4.15      0.00
    5   26    9      1.18      0.00
    6   26    9      0.33      0.00
    7   26    9      1.37      0.00
    8   26    9      3.61      0.00
    9   26    9      3.70      0.00
   10   26    9     -3.03      0.00
   16   17   10      8.88      0.00
   17   17   10      1.70      0.00
   15   18   10     -1.54      0.00
   16   18   10      1.75      0.00
   17   18   10     -9.04      0.00
   18   18   10      6.75      0.00
   14   19   10     -5.53      0.00
   15   19   10      0.66      0.00
   16   19   10     -7.80      0.00
   17   19   10     -1.53      0.00
   18   19   10     -3.48      0.00
   19   19   10     -4.56      0.00
   12   20   10    -14.34      0.00
   13   20   10      1.77      0.00
   14   20   10     -4.02      0.00
   15   20   10      1.75      0.00
   16   20   10     -5.30      0.00
   17   20   10      1.46      0.00
   18   20   10     -2.79      0.00
   11   21   10     -2.16      0.00
   12   21   10     -1.74      0.00
   13   21   10     -6.92      0.00
   14   21   10     -0.02      0.00
   15   21   10      7.61      0.00
   16   21   10      0.96      0.00
   17   21   10     -1.52      0.00
    9   22   10      4.23      0.00
   10   22   10     -6.96      0.00
   11   22   10      0.37      0.00
   12   22   10      1.10      0.00
   13   22   10     -9.00      0.00
   14   22   10      5.59      0.00
   15   22   10     -1.76      0.00
   16   22   10     -0.41      0.00
    0   23   10      2.40      0.00
    1   23   10     11.13      0.00
    2   23   10     -8.13      0.00
    3   23   10      5.02      0.00
    4   23   10     -5.31      0.00
    5   23   10     10.45      0.00
    6   23   10      3.20      0.00
    7   23   10      4.32      0.00
    8   23   10      2.37      0.00
    9   23   10      1.50      0.00
   10   23   10      1.57      0.00
   11   23   10      2.05      0.00
   12   23   10      2.92      0.00
   13   23   10     -0.93      0.00
   14   23   10      2.65      0.00
   15   23   10      6.09      0.00
    0   24   10     -8.49      0.00
    1   24   10      0.83      0.00
    2   24   10     -0.69      0.00
    3   24   10     -5.13      0.00
    4   24   10      1.63      0.00
    5   24   10     -3.51      0.00
    6   24   10      0.22      0.00
    7   24   10     -0.14      0.00
    8   24   10      1.12      0.00
    9   24   10     -0.88      0.00
   10   24   10     -4.75      0.00
   11   24   10     -1.01      0.00
   12   24   10     -1.34      0.00
   13   24   10     -2.22      0.00
    0   25   10     11.03      0.00
    1   25   10     -5.86      0.00
    2   25   10      2.54      0.00
    3   25   10     -2.09      0.00
    4   25   10      4.67      0.00
    5   25   10      1.46      0.00
    6   25   10      1.52      0.00
    7   25   10      2.63      0.00
    8   25   10      4.39      0.00
    9   25   10      3.38      0.00
   10   25   10     -8.67      0.00
   11   25   10      5.87      0.00
    0   26   10      0.26      0.00
    1   26   10      1.50      0.00
    2   26   10     -0.97      0.00
    3   26   10      0.71      0.00
    4   26   10      2.21      0.00
    5   26   10      2.17      0.00
    6   26   10      1.33      0.00
    7   26   10     -0.85      0.00
    8   26   10      6.52      0.00
    9   26   10     -1.98      0.00
   15   17   11      4.24      0.00
   16   17   11     -3.37      0.00
   14   18   11     -8.88      0.00
   15   18   11      1.68      0.00
   16   18   11     -2.48      0.00
   17   18   11     -0.26      0.00
   13   19   11     -4.37      0.00
   14   19   11      1.52      0.00
   15   19   11      0.29      0.00
   16   19   11      5.74      0.00
   17   19   11     -4.51      0.00
   18   19   11     -0.86      0.00
    0   20   11    -19.08      0.00
   11   20   11     10.71      0.00
   12   20   11      0.61      0.00
   13   20   11     -3.13      0.00
   14   20   11      3.73      0.00
   15   20   11     -1.90      0.00
   16   20   11      2.90      0.00
   17   20   11      1.79      0.00
   18   20   11     -1.91      0.00
    0   21   11    -14.22      0.00
    1   21   11     -9.15      0.00
    9   21   11     -3.01      0.00
   10   21   11      9.58      0.00
   11   21   11      1.33      0.00
   12   21   11     -4.29      0.00
   13   21   11      6.75      0.00
   14   21   11     -2.02      0.00
   15   21   11      2.31      0.00
   16   21   11     -1.14      0.00
    6   22   11      5.92      0.00
    7   22   11     10.43      0.00
    8   22   11     -3.29      0.00
    9   22   11      7.06      0.00
   10   22   11      7.89      0.00
   11   22   11      5.10      0.00
   12   22   11     -3.99      0.00
   13   22   11      1.02      0.00
   14   22   11     -0.70      0.00
   15   22   11     -1.38      0.00
    0   23   11      6.12      0.00
    1   23   11     -9.77      0.00
    2   23   11     -0.78      0.00
    3   23   11      1.09      0.00
    4   23   11      7.41      0.00
    5   23   11    -10.11      0.00
    6   23   11      1.80      0.00
    7   23   11     -2.32      0.00
    8   23   11     -1.04      0.00
    9   23   11     -7.44      0.00
   10   23   11      3.23      0.00
   11   23   11     -0.46      0.00
   12   23   11     -3.83      0.00
   13   23   11     -5.26      0.00
   14   23   11      1.93      0.00
    0   24   11    -10.52      0.00
    1   24   11     -2.89      0.00
    2   24   11     -0.32      0.00
    3   24   11     -0.33      0.00
    4   24   11     -6.81      0.00
    5   24   11     -3.37      0.00
    6   24   11     -3.88      0.00
    7   24   11      1.08      0.00
    8   24   11     -8.52      0.00
    9   24   11     -6.32      0.00
   10   24   11      2.88      0.00
   11   24   11     -6.83      0.00
   12   24   11     -1.71      0.00
    0   25   11      3.71      0.00
    1   25   11      2.29      0.00
    2   25   11     -3.07      0.00
    3   25   11     11.93      0.00
    4   25   11      3.86      0.00
    5   25   11     -6.11      0.00
    6   25   11      3.05      0.00
    7   25   11      2.87      0.00
    8   25   11     -0.97      0.00
    9   25   11      0.87      0.00
   10   25   11      2.24      0.00
    0   26   11      1.22      0.00
    1   26   11     -3.18      0.00
    2   26   11      6.01      0.00
    3   26   11      4.10      0.00
    4   26   11      1.81      0.00
    5   26   11      4.93      0.00
    6   26   11     -1.48      0.00
    7   26   11     -0.95      0.00
   15   16   12      7.02      0.00
   16   16   12     10.54      0.00
   14   17   12      5.15      0.00
   15   17   12     -1.13      0.00
   16   17   12     12.24      0.00
   17   17   12     -3.96      0.00
   13   18   12      0.04      0.00
   14   18   12     -7.76      0.00
   15   18   12      3.47      0.00
   16   18   12      3.33      0.00
   17   18   12      3.99      0.00
   18   18   12     -2.99      0.00
   11   19   12     10.96      0.00
   12   19   12     -1.92      0.00
   13   19   12      6.83      0.00
   14   19   12     -7.06      0.00
   15   19   12      8.10      0.00
   16   19   12     -2.02      0.00
   17   19   12      0.29      0.00
   18   19   12      0.45      0.00
   10   20   12      6.35      0.00
   11   20   12     -2.08      0.00
   12   20   12      2.55      0.00
   13   20   12     -5.43      0.00
   14   20   12     -0.46      0.00
   15   20   12     -5.93      0.00
   16   20   12      4.16      0.00
   17   20   12     -1.69      0.00
    0   21   12     -6.64      0.00
    7   21   12     -0.62      0.00
    8   21   12      4.18      0.00
    9   21   12      1.50      0.00
   10   21   12      4.35      0.00
   11   21   12     -4.81      0.00
   12   21   12      1.64      0.00
   13   21   12      5.22      0.00
   14   21   12      1.06      0.00
   15   21   12     -3.66      0.00
    0   22   12    -11.47      0.00
    1   22   12      3.53      0.00
    2   22   12     -2.87      0.00
    3   22   12      3.94      0.00
    4   22   12    -11.34      0.00
    5   22   12      7.37      0.00
    6   22   12     -5.08      0.00
    7   22   12     -3.31      0.00
    8   22   12     -2.76      0.00
    9   22   12     11.98      0.00
   10   22   12      3.68      0.00
   11   22   12      4.20      0.00
   12   22   12      9.23      0.00
   13   22   12      1.63      0.00
   14   22   12     -1.73      0.00
    0   23   12      1.83      0.00
    1   23   12      2.93      0.00
    2   23   12      2.64      0.00
    3   23   12     -1.71      0.00
    4   23   12     11.74      0.00
    5   23   12      1.11      0.00
    6   23   12     -1.64      0.00
    7   23   12      2.58      0.00
    8   23   12      3.84      0.00
    9   23   12     -1.71      0.00
   10   23   12      3.71      0.00
   11   23   12      2.20      0.00
   12   23   12     -3.62      0.00
    0   24   12     -1.57      0.00
    1   24   12     -5.48      0.00
    2   24   12     10.68      0.00
    3   24   12     -6.15      0.00
    4   24   12     -4.59      0.00
    5   24   12      2.32      0.00
    6   24   12      1.04      0.00
    7   24   12     -5.36      0.00
    8   24   12      2.15      0.00
    9   24   12      5.52      0.00
   10   24   12     -1.57      0.00
    0   25   12      0.24      0.00
    1   25   12      3.84      0.00
    2   25   12     -6.36      0.00
    3   25   12      2.92      0.00
    4   25   12      0.27      0.00
    5   25   12     -2.93      0.00
    6   25   12     -4.24      0.00
    7   25   12      0.50      0.00
    8   25   12      3.18      0.00
    0   26   12     -6.54      0.00
    1   26   12     -0.19      0.00
    2   26   12     -0.42      0.00
    3   26   12     -4.92      0.00
    4   26   12     -1.81      0.00
   14   16   13      3.72      0.00
   15   16   13     -5.39      0.00
   13   17   13      1.27      0.00
   14   17   13     -1.21      0.00
   15   17   13      3.60      0.00
   16   17   13     -4.51      0.00
   11   18   13      0.06      0.00
   12   18   13      4.55      0.00
   13   18   13      2.24      0.00
   14   18   13     -1.83      0.00
   15   18   13      0.55      0.00
   16   18   13      6.80      0.00
   17   18   13     -3.77      0.00
   10   19   13      0.97      0.00
   11   19   13      0.62      0.00
   12   19   13      0.58      0.00
   13   19   13     -1.14      0.00
   14   19   13      3.79      0.00
   15   19   13     -2.63      0.00
   16   19   13     -1.51      0.00
   17   19   13      0.19      0.00
    7   20   13      4.92      0.00
    8   20   13     18.03      0.00
    9   20   13      6.95      0.00
   10   20   13     -7.04      0.00
   11   20   13      8.06      0.00
   12   20   13     -1.63      0.00
   13   20   13     -4.85      0.00
   14   20   13     -2.89      0.00
   15   20   13      1.74      0.00
    0   21   13     -6.98      0.00
    1   21   13    -11.50      0.00
    2   21   13     -2.77      0.00
    3   21   13     -1.18      0.00
    4   21   13      7.61      0.00
    5   21   13      0.67      0.00
    6   21   13      9.92      0.00
    7   21   13      0.25      0.00
    8   21   13      4.79      0.00
    9   21   13      0.44      0.00
   10   21   13     -0.61      0.00
   11   21   13      2.36      0.00
   12   21   13     -2.17      0.00
   13   21   13      0.14      0.00
   14   21   13      0.36      0.00
    0   22   13      1.29      0.00
    1   22   13    -11.50      0.00
    2   22   13      6.52      0.00
    3   22   13    -15.30      0.00
    4   22   13      3.36      0.00
    5   22   13     -2.06      0.00
    6   22   13     -3.18      0.00
    7   22   13    -16.44      0.00
    8   22   13      4.50      0.00
    9   22   13     -5.84      0.00
   10   22   13     -1.01      0.00
   11   22   13     -4.55      0.00
   12   22   13      0.61      0.00
   13   22   13     -0.90      0.00
    0   23   13     -2.66      0.00
    1   23   13      6.05      0.00
    2   23   13      2.61      0.00
    3   23   13     14.20      0.00
    4   23   13      1.85      0.00
    5   23   13     11.81      0.00
    6   23   13     -3.84      0.00
    7   23   13      4.91      0.00
    8   23   13     -2.64      0.00
    9   23   13     -2.67      0.00
   10   23   13     -0.65      0.00
   11   23   13      0.87      0.00
    0   24   13     -1.75      0.00
    1   24   13      8.05      0.00
    2   24   13      1.32      0.00
    3   24   13      7.27      0.00
    4   24   13      0.00      0.00
    5   24   13      4.06      0.00
    6   24   13      2.29      0.00
    7   24   13     -2.98      0.00
    8   24   13     -0.27      0.00
    0   25   13      3.94      0.00
    1   25   13     -2.78      0.00
    2   25   13      2.97      0.00
    3   25   13      0.51      0.00
    4   25   13      2.88      0.00
    5   25   13     -3.77      0.00
   14   15   14     -0.09      0.00
   15   15   14     -9.51      0.00
   13   16   14     -4.58      0.00
   14   16   14     -0.21      0.00
   15   16   14      0.28      0.00
   16   16   14    -15.65      0.00
   11   17   14      1.53      0.00
   12   17   14     -2.98      0.00
   13   17   14      0.85      0.00
   14   17   14     -2.86      0.00
   15   17   14     -0.12      0.00
   16   17   14     -7.14      0.00
   17   17   14      3.73      0.00
    9   18   14     -2.96      0.00
   10   18   14     -2.40      0.00
   11   18   14      0.65      0.00
   12   18   14      4.64      0.00
   13   18   14     -2.84      0.00
   14   18   14     -1.39      0.00
   15   18   14     -0.38      0.00
   16   18   14     -0.98      0.00
   17   18   14     -1.84      0.00
    6   19   14     10.57      0.00
    7   19   14     -6.21      0.00
    8   19   14    -19.87      0.00
    9   19   14     -9.75      0.00
   10   19   14      6.02      0.00
   11   19   14     -6.75      0.00
   12   19   14      6.40      0.00
   13   19   14     -7.80      0.00
   14   19   14     -1.71      0.00
   15   19   14     -3.30      0.00
    0   20   14     -0.58      0.00
    1   20   14     -7.00      0.00
    2   20   14      1.62      0.00
    3   20   14     -3.70      0.00
    4   20   14      6.14      0.00
    5   20   14      1.49      0.00
    6   20   14      3.94      0.00
    7   20   14     -5.37      0.00
    8   20   14      0.78      0.00
    9   20   14     -2.27      0.00
   10   20   14     -8.66      0.00
   11   20   14      1.65      0.00
   12   20   14     -3.95      0.00
   13   20   14      0.80      0.00
   14   20   14      1.21      0.00
    0   21   14     -4.59      0.00
    1   21   14      5.55      0.00
    2   21   14     -8.27      0.00
    3   21   14     15.64      0.00
    4   21   14      1.81      0.00
    5   21   14     -3.62      0.00
    6   21   14      3.51      0.00
    7   21   14      9.69      0.00
    8   21   14    -16.35      0.00
    9   21   14      7.50      0.00
   10   21   14      4.20      0.00
   11   21   14     -2.79      0.00
   12   21   14      0.37      0.00
   13   21   14      3.10      0.00
    0   22   14     -3.71      0.00
    1   22   14      8.48      0.00
    2   22   14     -4.84      0.00
    3   22   14      0.86      0.00
    4   22   14      2.17      0.00
    5   22   14     -9.76      0.00
    6   22   14     -2.44      0.00
    7   22   14     -3.00      0.00
    8   22   14     -8.93      0.00
    9   22   14     -0.13      0.00
   10   22   14     -1.29      0.00
   11   22   14     -2.24      0.00
    0   23   14      6.38      0.00
    1   23   14     -2.79      0.00
    2   23   14      6.55      0.00
    3   23   14      0.62      0.00
    4   23   14      1.40      0.00
    5   23   14     -6.03      0.00
    6   23   14      5.64      0.00
    7   23   14      0.78      0.00
    8   23   14     -5.82      0.00
    9   23   14     -4.76      0.00
    0   24   14      3.78      0.00
    1   24   14      2.46      0.00
    2   24   14      5.71      0.00
    3   24   14      3.64      0.00
    4   24   14      3.76      0.00
    5   24   14     -0.96      0.00
    6   24   14     -0.62      0.00
   13   14   15      4.13      0.00
   12   15   15     -4.51      0.00
   13   15   15      3.35      0.00
   14   15   15     -8.48      0.00
   11   16   15     -6.24      0.00
   12   16   15     -3.42      0.00
   13   16   15     -5.01      0.00
   14   16   15      0.70      0.00
   15   16   15     -4.64      0.00
    8   17   15     -0.91      0.00
    9   17   15     -8.93      0.00
   10   17   15     -1.18      0.00
   11   17   15     -4.74      0.00
   12   17   15     -1.35      0.00
   13   17   15      1.01      0.00
   14   17   15     -1.13      0.00
   15   17   15     -7.94      0.00
   16   17   15      1.41      0.00
    6   18   15     -2.35      0.00
    7   18   15      4.27      0.00
    8   18   15      0.58      0.00
    9   18   15      6.61      0.00
   10   18   15      4.92      0.00
   11   18   15      0.52      0.00
   12   18   15      1.85      0.00
   13   18   15      2.48      0.00
   14   18   15     -4.50      0.00
   15   18   15      4.00      0.00
    0   19   15     -0.22      0.00
    1   19   15      0.90      0.00
    2   19   15     -4.03      0.00
    3   19   15     -5.51      0.00
    4   19   15    -15.12      0.00
    5   19   15     -0.89      0.00
    6   19   15     -8.81      0.00
    7   19   15      1.51      0.00
    8   19   15     -2.30      0.00
    9   19   15     -0.04      0.00
   10   19   15      5.57      0.00
   11   19   15      2.56      0.00
   12   19   15     -2.89      0.00
   13   19   15      3.99      0.00
   14   19   15     -1.29      0.00
    0   20   15     -9.12      0.00
    1   20   15      3.62      0.00
    2   20   15     -1.93      0.00
    3   20   15     -9.03      0.00
    4   20   15     -6.61      0.00
    5   20   15     -2.90      0.00
    6   20   15     -4.29      0.00
    7   20   15     -8.78      0.00
    8   20   15      6.21      0.00
    9   20   15     -5.62      0.00
   10   20   15    -10.82      0.00
   11   20   15      1.55      0.00
   12   20   15     -0.16      0.00
   13   20   15     -7.12      0.00
    0   21   15     12.76      0.00
    1   21   15     -1.15      0.00
    2   21   15      4.41      0.00
    3   21   15     -1.21      0.00
    4   21   15      0.80      0.00
    5   21   15      2.29      0.00
    6   21   15      4.04      0.00
    7   21   15      2.12      0.00
    8   21   15      2.57      0.00
    9   21   15     -2.75      0.00
   10   21   15      1.01      0.00
   11   21   15     -1.79      0.00
    0   22   15      2.85      0.00
    1   22   15      6.37      0.00
    2   22   15     -0.18      0.00
    3   22   15     -6.22      0.00
    4   22   15      0.67      0.00
    5   22   15      1.48      0.00
    6   22   15     -8.38      0.00
    7   22   15     -0.91      0.00
    8   22   15      0.63      0.00
    9   22   15      1.77      0.00
    0   23   15     -2.11      0.00
    1   23   15     -0.56      0.00
    2   23   15     -3.09      0.00
    3   23   15     -1.56      0.00
    4   23   15     -6.37      0.00
    5   23   15     -4.27      0.00
    6   23   15     -5.04      0.00
   12   13   16     -4.35      0.00
   13   13   16     -2.32      0.00
   11   14   16      5.89      0.00
   12   14   16      0.08      0.00
   13   14   16     -1.50      0.00
   14   14   16      4.37      0.00
   10   15   16     -0.63      0.00
   11   15   16      3.68      0.00
   12   15   16     -3.08      0.00
   13   15   16     -3.48      0.00
   14   15   16      5.91      0.00
   15   15   16     -2.93      0.00
    8   16   16      1.56      0.00
    9   16   16     -1.33      0.00
   10   16   16     -8.55      0.00
   11   16   16     -0.59      0.00
   12   16   16     -4.95      0.00
   13   16   16     -3.23      0.00
   14   16   16     -0.11      0.00
   15   16   16     -0.51      0.00
   16   16   16      0.93      0.00
    5   17   16      6.68      0.00
    6   17   16     -5.49      0.00
    7   17   16      0.10      0.00
    8   17   16      5.76      0.00
    9   17   16     -3.24      0.00
   10   17   16     -3.69      0.00
   11   17   16      0.95      0.00
   12   17   16      0.09      0.00
   13   17   16      1.37      0.00
   14   17   16      4.11      0.00
   15   17   16      1.96      0.00
    0   18   16      0.55      0.00
    1   18   16      7.65      0.00
    2   18   16      1.63      0.00
    3   18   16      8.20      0.00
    4   18   16     -2.25      0.00
    5   18   16     -6.53      0.00
    6   18   16      1.96      0.00
    7   18   16      3.55      0.00
    8   18   16     -2.98      0.00
    9   18   16      2.38      0.00
   10   18   16      2.99      0.00
   11   18   16     -0.27      0.00
   12   18   16      3.56      0.00
   13   18   16     -0.08      0.00
   14   18   16      0.18      0.00
    0   19   16     -2.22      0.00
    1   19   16     -5.03      0.00
    2   19   16      3.52      0.00
    3   19   16      1.51      0.00
    4   19   16     -4.69      0.00
    5   19   16     -1.70      0.00
    6   19   16     -6.74      0.00
    7   19   16      2.30      0.00
    8   19   16      1.98      0.00
    9   19   16     -4.73      0.00
   10   19   16     -2.40      0.00
   11   19   16      4.65      0.00
   12   19   16     -1.93      0.00
    0   20   16      6.96      0.00
    1   20   16     -2.92      0.00
    2   20   16      2.42      0.00
    3   20   16     -0.85      0.00
    4   20   16      1.20      0.00
    5   20   16     -0.07      0.00
    6   20   16     -0.33      0.00
    7   20   16     -4.41      0.00
    8   20   16      2.72      0.00
    9   20   16      0.76      0.00
   10   20   16     -2.70      0.00
   11   20   16     -2.13      0.00
    0   21   16     -4.76      0.00
    1   21   16     -2.52      0.00
    2   21   16      0.13      0.00
    3   21   16     -2.22      0.00
    4   21   16      0.31      0.00
    5   21   16      5.33      0.00
    6   21   16     -1.06      0.00
    7   21   16     -4.14      0.00
    8   21   16      7.45      0.00
    9   21   16     -0.12      0.00
    0   22   16     -2.19      0.00
    1   22   16     -2.66      0.00
    2   22   16     -3.11      0.00
    3   22   16      0.74      0.00
    4   22   16     -0.62      0.00
    5   22   16      0.05      0.00
    6   22   16     -4.41      0.00
   11   12   17      7.16      0.00
   10   13   17      8.69      0.00
   11   13   17     -2.93      0.00
   12   13   17     -4.92      0.00
    9   14   17      0.60      0.00
   10   14   17      4.35      0.00
   11   14   17     -7.13      0.00
   12   14   17      8.23      0.00
   13   14   17      0.94      0.00
    7   15   17      4.72      0.00
    8   15   17     -0.61      0.00
    9   15   17      1.98      0.00
   10   15   17      6.70      0.00
   11   15   17      1.93      0.00
   12   15   17     -2.97      0.00
   13   15   17      4.03      0.00
   14   15   17      1.10      0.00
    3   16   17      1.68      0.00
    4   16   17     -2.72      0.00
    5   16   17      0.06      0.00
    6   16   17     -2.22      0.00
    7   16   17      1.66      0.00
    8   16   17     -7.04      0.00
    9   16   17     -1.92      0.00
   10   16   17     -1.65      0.00
   11   16   17      0.55      0.00
   12   16   17     -3.14      0.00
   13   16   17      3.56      0.00
   14   16   17     -0.23      0.00
    0   17   17      0.10      0.00
    1   17   17      0.04      0.00
    2   17   17      2.12      0.00
    3   17   17     -1.98      0.00
    4   17   17      2.76      0.00
    5   17   17     -2.13      0.00
    6   17   17      1.07      0.00
    7   17   17      6.14      0.00
    8   17   17     -1.81      0.00
    9   17   17      0.82      0.00
   10   17   17      1.83      0.00
   11   17   17     -0.39      0.00
   12   17   17      3.33      0.00
   13   17   17      3.37      0.00
    0   18   17     18.28      0.00
    1   18   17     -2.13      0.00
    2   18   17     -0.75      0.00
    3   18   17      8.82      0.00
    4   18   17      0.51      0.00
    5   18   17     -3.88      0.00
    6   18   17      7.43      0.00
    7   18   17      1.97      0.00
    8   18   17      2.17      0.00
    9   18   17      2.13      0.00
   10   18   17     10.21      0.00
   11   18   17     -0.70      0.00
   12   18   17      3.07      0.00
    0   19   17    -13.64      0.00
    1   19   17      1.79      0.00
    2   19   17     -0.48      0.00
    3   19   17     -0.31      0.00
    4   19   17      3.38      0.00
    5   19   17     -2.25      0.00
    6   19   17     -0.16      0.00
    7   19   17      2.83      0.00
    8   19   17      2.22      0.00
    9   19   17     -0.48      0.00
   10   19   17      2.54      0.00
    0   20   17      5.14      0.00
    1   20   17     -6.86      0.00
    2   20   17     -3.55      0.00
    3   20   17      6.04      0.00
    4   20   17     -8.09      0.00
    5   20   17     -2.41      0.00
    6   20   17      2.05      0.00
    7   20   17      3.93      0.00
    8   20   17     -4.96      0.00
    0   21   17     -4.14      0.00
    1   21   17     -0.31      0.00
    2   21   17     -0.50      0.00
    3   21   17     -3.27      0.00
    4   21   17     -0.47      0.00
    5   21   17     -3.15      0.00
   10   10   18     13.86      0.00
   10   11   18      8.06      0.00
   11   11   18     -0.68      0.00
    8   12   18      3.45      0.00
    9   12   18     -1.79      0.00
   10   12   18     -4.23      0.00
   11   12   18     -3.42      0.00
   12   12   18      4.46      0.00
    7   13   18     -0.78      0.00
    8   13   18     -2.01      0.00
    9   13   18     -1.70      0.00
   10   13   18      4.61      0.00
   11   13   18      2.56      0.00
   12   13   18     -2.06      0.00
   13   13   18     -0.07      0.00
    4   14   18     -0.60      0.00
    5   14   18     -0.62      0.00
    6   14   18     -2.30      0.00
    7   14   18     -3.04      0.00
    8   14   18     -0.73      0.00
    9   14   18      1.05      0.00
   10   14   18     -3.01      0.00
   11   14   18     -1.91      0.00
   12   14   18     -1.65      0.00
   13   14   18     -1.96      0.00
   14   14   18     -3.62      0.00
    0   15   18     -8.53      0.00
    1   15   18     -0.18      0.00
    2   15   18      6.63      0.00
    3   15   18     -0.40      0.00
    4   15   18     -8.22      0.00
    5   15   18      5.76      0.00
    6   15   18     -1.50      0.00
    7   15   18     -1.10      0.00
    8   15   18      2.68      0.00
    9   15   18      0.76      0.00
   10   15   18     -1.92      0.00
   11   15   18      4.13      0.00
   12   15   18     -2.60      0.00
   13   15   18     -4.14      0.00
    0   16   18     -7.59      0.00
    1   16   18    -10.57      0.00
    2   16   18     -0.97      0.00
    3   16   18     -1.55      0.00
    4   16   18      0.26      0.00
    5   16   18      2.24      0.00
    6   16   18     -4.10      0.00
    7   16   18      1.17      0.00
    8   16   18      4.50      0.00
    9   16   18     -1.75      0.00
   10   16   18      2.53      0.00
   11   16   18      1.63      0.00
   12   16   18      3.82      0.00
    0   17   18    -15.17      0.00
    1   17   18     -0.26      0.00
    2   17   18      0.50      0.00
    3   17   18     -2.43      0.00
    4   17   18     -1.86      0.00
    5   17   18     -5.53      0.00
    6   17   18      0.46      0.00
    7   17   18     -4.64      0.00
    8   17   18     -1.19      0.00
    9   17   18     -1.18      0.00
   10   17   18     -3.20      0.00
   11   17   18     -1.08      0.00
    0   18   18      1.81      0.00
    1   18   18     -2.17      0.00
    2   18   18      9.34      0.00
    3   18   18      1.47      0.00
    4   18   18     -5.32      0.00
    5   18   18     -0.75      0.00
    6   18   18     -4.43      0.00
    7   18   18      2.32      0.00
    8   18   18      0.88      0.00
    9   18   18     -3.20      0.00
    0   19   18    -10.46      0.00
    1   19   18     -2.08      0.00
    2   19   18      4.27      0.00
    3   19   18      0.15      0.00
    4   19   18      2.91      0.00
    5   19   18     -6.54      0.00
    6   19   18      2.28      0.00
    7   19   18      3.34      0.00
    0   20   18     -6.64      0.00
    1   20   18      0.22      0.00
    2   20   18     -4.71      0.00
    3   20   18      1.52      0.00
    4   20   18     -1.28      0.00
    8    9   19     -1.79      0.00
    7   10   19      3.87      0.00
    8   10   19      3.49      0.00
    9   10   19     -2.56      0.00
    6   11   19      2.86      0.00
    7   11   19     -7.14      0.00
    8   11   19     -7.00      0.00
    9   11   19     -2.23      0.00
   10   11   19     -5.90      0.00
    3   12   19     -4.53      0.00
    4   12   19     -6.01      0.00
    5   12   19      2.66      0.00
    6   12   19     -8.38      0.00
    7   12   19     -9.17      0.00
    8   12   19      6.80      0.00
    9   12   19     -6.59      0.00
   10   12   19      1.01      0.00
   11   12   19     -2.76      0.00
    0   13   19     -4.26      0.00
    1   13   19      0.57      0.00
    2   13   19     -3.76      0.00
    3   13   19     -9.28      0.00
    4   13   19     -0.44      0.00
    5   13   19      6.85      0.00
    6   13   19     -4.17      0.00
    7   13   19      3.87      0.00
    8   13   19     -2.30      0.00
    9   13   19      5.22      0.00
   10   13   19     -2.82      0.00
   11   13   19      2.00      0.00
   12   13   19      2.34      0.00
    0   14   19     -1.22      0.00
    1   14   19      6.01      0.00
    2   14   19      3.57      0.00
    3   14   19      4.04      0.00
    4   14   19     -1.92      0.00
    5   14   19     -0.73      0.00
    6   14   19     -0.67      0.00
    7   14   19     -5.11      0.00
    8   14   19      3.48      0.00
    9   14   19     -1.32      0.00
   10   14   19     -5.95      0.00
   11   14   19     -1.35      0.00
   12   14   19      0.14      0.00
    0   15   19      2.07      0.00
    1   15   19      4.68      0.00
    2   15   19      6.38      0.00
    3   15   19     -1.31      0.00
    4   15   19      0.93      0.00
    5   15   19      1.46      0.00
    6   15   19      0.03      0.00
    7   15   19      0.30      0.00
    8   15   19     -0.61      0.00
    9   15   19     -2.74      0.00
   10   15   19     -0.46      0.00
   11   15   19     -4.22      0.00
    0   16   19     -4.71      0.00
    1   16   19     -1.54      0.00
    2   16   19      1.96      0.00
    3   16   19     -3.56      0.00
    4   16   19      5.13      0.00
    5   16   19     -2.01      0.00
    6   16   19     -0.03      0.00
    7   16   19     -2.71      0.00
    8   16   19      1.76      0.00
    9   16   19      4.68      0.00
   10   16   19     -3.83      0.00
    0   17   19      1.23      0.00
    1   17   19     -1.35      0.00
    2   17   19     -2.85      0.00
    3   17   19     -1.61      0.00
    4   17   19     -3.06      0.00
    5   17   19     -0.15      0.00
    6   17   19     -2.15      0.00
    7   17   19     -2.61      0.00
    8   17   19     -1.58      0.00
    0   18   19     -7.25      0.00
    1   18   19      3.13      0.00
    2   18   19     -0.11      0.00
    3   18   19      0.66      0.00
    4   18   19      0.88      0.00
    5   18   19     -0.98      0.00
    6   18   19     -3.93      0.00
    0   19   19      1.76      0.00
    1   19   19     -4.16      0.00
    7    7   20     11.19      0.00
    6    8   20      4.39      0.00
    7    8   20      0.28      0.00
    8    8   20      0.91      0.00
    4    9   20      0.04      0.00
    5    9   20      2.42      0.00
    6    9   20     -1.38      0.00
    7    9   20      1.22      0.00
    8    9   20      7.34      0.00
    9    9   20      2.01      0.00
    0   10   20    -14.67      0.00
    1   10   20      1.38      0.00
    2   10   20     -3.57      0.00
    3   10   20     -4.04      0.00
    4   10   20     -4.23      0.00
    5   10   20     -1.21      0.00
    6   10   20     -0.22      0.00
    7   10   20      0.75      0.00
    8   10   20     -5.18      0.00
    9   10   20      5.02      0.00
   10   10   20     -0.12      0.00
    0   11   20     10.69      0.00
    1   11   20     -4.18      0.00
    2   11   20     -1.78      0.00
    3   11   20      2.83      0.00
    4   11   20      2.10      0.00
    5   11   20     -2.21      0.00
    6   11   20     -2.82      0.00
    7   11   20     -5.67      0.00
    8   11   20     -4.23      0.00
    9   11   20      3.16      0.00
   10   11   20     -2.88      0.00
   11   11   20     -4.47      0.00
    0   12   20     -1.24      0.00
    1   12   20      4.44      0.00
    2   12   20      6.32      0.00
    3   12   20      2.69      0.00
    4   12   20     -0.14      0.00
    5   12   20      1.94      0.00
    6   12   20      4.97      0.00
    7   12   20      0.46      0.00
    8   12   20      3.95      0.00
    9   12   20      3.89      0.00
   10   12   20     -1.45      0.00
   11   12   20      0.36      0.00
   12   12   20      1.53      0.00
    0   13   20     -3.85      0.00
    1   13   20     -3.17      0.00
    2   13   20     -2.12      0.00
    3   13   20      4.18      0.00
    4   13   20     -2.55      0.00
    5   13   20     -2.47      0.00
    6   13   20      1.55      0.00
    7   13   20     -0.06      0.00
    8   13   20     -3.26      0.00
    9   13   20     -0.48      0.00
   10   13   20     -0.60      0.00
   11   13   20     -5.03      0.00
    0   14   20     -4.34      0.00
    1   14   20     -5.92      0.00
    2   14   20      2.29      0.00
    3   14   20      0.43      0.00
    4   14   20     -0.26      0.00
    5   14   20     -5.64      0.00
    6   14   20     -1.16      0.00
    7   14   20     -7.31      0.00
    8   14   20     -3.88      0.00
    9   14   20      1.01      0.00
   10   14   20     -1.22      0.00
    0   15   20      2.17      0.00
    1   15   20      0.39      0.00
    2   15   20      1.02      0.00
    3   15   20      1.13      0.00
    4   15   20      3.91      0.00
    5   15   20      3.58      0.00
    6   15   20      1.11      0.00
    7   15   20      1.64      0.00
    8   15   20      1.80      0.00
    0   16   20     -5.41      0.00
    1   16   20      4.39      0.00
    2   16   20     -3.65      0.00
    3   16   20      0.54      0.00
    4   16   20      2.55      0.00
    5   16   20      3.53      0.00
    6   16   20      2.94      0.00
    0   17   20      3.64      0.00
    1   17   20     -5.48      0.00
    2   17   20      0.69      0.00
    3   17   20      1.68      0.00
    0    5   21      2.29      0.00
    1    5   21      2.10      0.00
    3    5   21     -6.84      0.00
    4    5   21      0.57      0.00
    0    6   21      2.59      0.00
    1    6   21     -0.14      0.00
    2    6   21      9.36      0.00
    3    6   21     -1.65      0.00
    4    6   21     -1.89      0.00
    5    6   21     -4.90      0.00
    0    7   21     -6.31      0.00
    1    7   21      3.40      0.00
    2    7   21     -3.66      0.00
    3    7   21     -3.52      0.00
    4    7   21     -4.87      0.00
    5    7   21     -1.53      0.00
    6    7   21     -5.38      0.00
    0    8   21      0.51      0.00
    1    8   21      6.61      0.00
    2    8   21      8.32      0.00
    3    8   21      7.54      0.00
    4    8   21     -5.52      0.00
    5    8   21     -2.35      0.00
    6    8   21     -1.99      0.00
    7    8   21     -2.60      0.00
    0    9   21     -1.58      0.00
    1    9   21     -1.64      0.00
    2    9   21      3.80      0.00
    3    9   21      3.42      0.00
    4    9   21      5.00      0.00
    5    9   21     -1.13      0.00
    6    9   21      1.64      0.00
    7    9   21     12.63      0.00
    8    9   21      5.26      0.00
    0   10   21     -6.86      0.00
    1   10   21      0.37      0.00
    2   10   21      2.62      0.00
    3   10   21     -2.54      0.00
    4   10   21      2.54      0.00
    5   10   21     -4.10      0.00
    6   10   21      8.24      0.00
    7   10   21      8.26      0.00
    8   10   21      6.68      0.00
    9   10   21      1.00      0.00
    0   11   21      1.21      0.00
    1   11   21     -0.36      0.00
    2   11   21     -3.73      0.00
    3   11   21      1.53      0.00
    4   11   21     -0.64      0.00
    5   11   21     -4.72      0.00
    6   11   21     -5.24      0.00
    7   11   21      5.08      0.00
    8   11   21      4.21      0.00
    9   11   21     -2.88      0.00
   10   11   21      1.95      0.00
    0   12   21     -5.45      0.00
    1   12   21      1.83      0.00
    2   12   21     -4.90      0.00
    3   12   21     -0.43      0.00
    4   12   21      3.76      0.00
    5   12   21     -0.41      0.00
    6   12   21     -0.37      0.00
    7   12   21      5.91      0.00
    8   12   21     -0.51      0.00
    9   12   21      6.62      0.00
    0   13   21     10.73      0.00
    1   13   21     -1.06      0.00
    2   13   21     -0.28      0.00
    3   13   21      2.87      0.00
    4   13   21      2.95      0.00
    5   13   21      1.28      0.00
    6   13   21      0.72      0.00
    7   13   21      2.09      0.00
    8   13   21      7.07      0.00
    0   14   21      0.74      0.00
    1   14   21      0.68      0.00
    2   14   21      3.28      0.00
    3   14   21     -2.57      0.00
    4   14   21      2.06      0.00
    5   14   21      0.66      0.00
    6   14   21      0.93      0.00
    0   15   21     -0.38      0.00
    1   15   21      1.42      0.00
    2   15   21     -0.70      0.00
    3   15   21      4.65      0.00
    4   15   21      2.51      0.00
    0    0    0      0.00      0.00
# SQUEEZE RESULTS (Version = 150216)
# Note: Data are Listed for all Voids in the P1 Unit Cell
# i.e. Centre of Gravity, Solvent Accessible Volume,
# Recovered number of Electrons in the Void and
# Details about the Squeezed Material
loop_
  _platon_squeeze_void_nr
  _platon_squeeze_void_average_x
  _platon_squeeze_void_average_y
  _platon_squeeze_void_average_z
  _platon_squeeze_void_volume
  _platon_squeeze_void_count_electrons
  _platon_squeeze_void_content
   1  0.000  0.000 -0.018      2657       369 ' '
   2  0.500  0.500 -0.032      2121       478 ' '
# Missing Reflections Below sin(th)/lambda = 0.25
loop_
  _platon_missing_refln_index_h
  _platon_missing_refln_index_k
  _platon_missing_refln_index_l
  _platon_missing_refln_theta
    0    1    0     1.913
    1    1    0     2.706
    3    3    0     8.143
    0    1    1     3.037
    0    0    2     4.720
    0    1    2     5.094
    0    0    4     9.472
_platon_squeeze_void_probe_radius                  1.20
_platon_squeeze_details
)
TITL 1_a.res in P4(2)/m               New: P42/mmc
CELL   23.0903   23.0903   18.7380     90.00     90.00     90.00
SPGR P42/mmc
# Solvent Accessible Volume =      4756
# Electrons Found in S.A.V. =       845
# Note: Atoms in Void as Cxxx and Qxxx all others
C101 0.500 0.781 0.298 !       5.71 eA-3
C102 0.518 0.320 0.502 !       3.59 eA-3
Q103 0.207 0.504 0.062 !       3.05 eA-3
Q104 0.922 0.501 0.453 !       2.64 eA-3
Q105 0.656 0.683 0.386 !       2.54 eA-3
Q106 0.375 0.375 0.252 !       2.50 eA-3
Q107 0.220 0.500 0.000 !       2.19 eA-3
C108 0.500 0.672 0.311 !       2.17 eA-3
Q109 0.077 0.495 0.359 !       2.09 eA-3
C110 1.000 0.626 0.273 !       2.08 eA-3
Q111 1.000 0.402 0.431 !       1.91 eA-3
Q112 0.500 0.997 0.250 !       1.84 eA-3
C113 1.000 0.707 0.222 !       1.77 eA-3
C114 0.024 1.001 0.297 !       1.76 eA-3
Q115 0.500 0.424 0.303 !       1.72 eA-3
C116 1.000 0.662 0.143 !       1.66 eA-3
C117 1.000 1.000 0.250 !       1.63 eA-3
C118 1.000 0.133 0.505 !       1.60 eA-3
Q119 0.500 0.109 0.002 !       1.58 eA-3
C120 1.000 0.848 0.014 !       1.56 eA-3
C121 0.679 0.999 0.234 !       1.53 eA-3
Q122 0.594 0.156 0.497 !       1.52 eA-3
Q123 0.454 0.722 0.394 !       1.52 eA-3
Q124 0.306 0.305 0.253 !       1.51 eA-3
C125 0.636 0.180 0.003 !       1.50 eA-3
Q126 0.327 0.102 0.498 !       1.45 eA-3
C127 0.321 0.504 0.109 !       1.45 eA-3
Q128 1.000 0.503 0.406 !       1.44 eA-3
Q129 0.030 0.367 0.501 !       1.42 eA-3
C130 0.235 0.482 0.108 !       1.41 eA-3
C131 0.500 0.412 0.724 !       1.41 eA-3
C132 0.977 0.125 0.060 !       1.39 eA-3
C133 0.937 0.943 0.246 !       1.39 eA-3
C134 0.743 0.495 0.063 !       1.38 eA-3
C135 0.843 0.023 0.005 !       1.36 eA-3
C136 0.476 0.748 0.409 !       1.36 eA-3
C137 0.659 0.341 0.043 !       1.32 eA-3
C138 0.271 0.498 0.125 !       1.31 eA-3
Q139 0.203 0.500 0.500 !       1.30 eA-3
C140 0.471 0.653 0.297 !       1.30 eA-3
Q141 0.383 0.996 0.172 !       1.25 eA-3
C142 0.727 0.499 0.953 !       1.24 eA-3
C143 0.297 0.023 0.328 !       1.23 eA-3
C144 1.000 0.225 0.463 !       1.23 eA-3
Q145 0.437 0.776 0.387 !       1.23 eA-3
C146 0.500 0.385 0.282 !       1.20 eA-3
C147 0.562 0.313 0.498 !       1.19 eA-3
C148 0.794 0.031-0.002 !       1.19 eA-3
Q149 0.308 0.686 0.390 !       1.19 eA-3
Q150 0.247 0.477-0.002 !       1.19 eA-3
Q151 0.592 0.705 0.293 !       1.19 eA-3
C152 1.000 0.955 0.297 !       1.18 eA-3
Q153 0.041 0.523 0.408 !       1.18 eA-3
Q154 0.337 0.312 0.503 !       1.18 eA-3
C155 1.000 0.719 0.125 !       1.17 eA-3
Q156 0.440 1.001 0.156 !       1.16 eA-3
C157 1.000 0.115 0.316 !       1.16 eA-3
Q158 0.500 0.608 0.348 !       1.16 eA-3
C159 1.000 0.709 0.316 !       1.16 eA-3
C160 1.000 0.052 0.251 !       1.16 eA-3
Q161 0.500 1.000 0.500 !       1.15 eA-3
C162 0.350 0.502 0.234 !       1.15 eA-3
Q163 0.933 0.133-0.005 !       1.15 eA-3
Q164 0.401 0.468 0.204 !       1.15 eA-3
C165 0.306 0.958 0.372 !       1.15 eA-3
Q166 1.000 0.659 0.440 !       1.14 eA-3
C167 0.008 0.245 0.229 !       1.14 eA-3
C168 0.188 0.211 0.503 !       1.14 eA-3
C169 0.306 0.536 0.142 !       1.13 eA-3
C170 0.468 0.691 0.357 !       1.13 eA-3
C171 0.306 0.527 0.861 !       1.13 eA-3
Q172 0.420 0.297 0.360 !       1.12 eA-3
C173 0.828 1.001 0.422 !       1.11 eA-3
C174 0.219 0.026 0.265 !       1.10 eA-3
Q175 0.255 0.031 0.003 !       1.10 eA-3
C176 0.443 0.671 0.318 !       1.10 eA-3
Q177 0.197 0.531 0.106 !       1.09 eA-3
Q178 0.305 0.678 0.469 !       1.09 eA-3
Q179 0.945 0.133 0.466 !       1.09 eA-3
C180 0.307 0.359 0.497 !       1.09 eA-3
C181 0.974 0.267 0.252 !       1.08 eA-3
Q182 0.922 0.383 0.498 !       1.08 eA-3
Q183 0.369 0.070 0.500 !       1.08 eA-3
C184 0.307 0.036 0.266 !       1.08 eA-3
Q185 0.540 0.141 0.002 !       1.08 eA-3
C186 1.000 0.078 0.001 !       1.07 eA-3
C187 1.000 0.106 0.221 !       1.06 eA-3
Q188 0.056 0.886 0.172 !       1.06 eA-3
C189 0.814 1.003 0.219 !       1.06 eA-3
Q190 0.429 0.336 0.500 !       1.05 eA-3
Q191 0.085 0.172-0.002 !       1.05 eA-3
Q192 0.256 0.149 0.002 !       1.04 eA-3
Q193 0.103 0.516 0.408 !       1.04 eA-3
C194 1.000 0.157 0.459 !       1.04 eA-3
C195 0.038 0.707 0.059 !       1.03 eA-3
C196 0.038 0.293 0.941 !       1.02 eA-3
C197 0.514 0.679 0.219 !       1.02 eA-3
C198 0.296 1.001 0.422 !       1.01 eA-3
C199 0.478 0.701 0.294 !       1.01 eA-3
)
;
_shelx_fab_checksum              36276
loop_
_space_group_symop_operation_xyz
'x, y, z'
'-y, x, z+1/2'
'-x, -y, z'
'y, -x, z+1/2'
'x, -y, -z'
'-x, y, -z'
'y, x, -z+1/2'
'-y, -x, -z+1/2'
'-x, -y, -z'
'y, -x, -z-1/2'
'x, y, -z'
'-y, x, -z-1/2'
'-x, y, z'
'x, -y, z'
'-y, -x, z-1/2'
'y, x, z-1/2'
loop_
_atom_site_label
_atom_site_type_symbol
_atom_site_fract_x
_atom_site_fract_y
_atom_site_fract_z
_atom_site_U_iso_or_equiv
_atom_site_adp_type
_atom_site_occupancy
_atom_site_site_symmetry_order
_atom_site_calc_flag
_atom_site_refinement_flags_posn
_atom_site_refinement_flags_adp
_atom_site_refinement_flags_occupancy
_atom_site_disorder_assembly
_atom_site_disorder_group
I1 I 0.5953(8) 0.1614(8) 0.5000 0.290(11) Uani 0.25 2 d S T P A 1
Zr1 Zr 0.5000 0.07539(6) 0.09312(7) 0.0391(5) Uani 1 2 d S TU P . .
Zr2 Zr 0.39251(8) 0.0000 0.0000 0.0369(6) Uani 1 4 d S TU P . .
Cu1 Cu 0.5000 0.1030(8) 0.5000 0.207(10) Uani 0.5 4 d DS TU P . .
F1 F 0.1232(7) 0.1487(14) 0.2035(12) 0.254(10) Uani 0.520(10) 1 d D U P B 1
F2 F 0.1407(9) 0.2144(9) 0.1245(16) 0.244(10) Uani 0.520(10) 1 d D U P B 1
F3 F 0.1507(9) 0.1246(11) 0.0966(13) 0.248(10) Uani 0.520(10) 1 d D U P B 1
F1A F 0.3752(8) 0.2344(12) 0.3147(14) 0.216(9) Uani 0.480(10) 1 d D U P B 2
F2A F 0.2904(12) 0.2396(11) 0.3625(8) 0.216(9) Uani 0.480(10) 1 d D U P B 2
F3A F 0.3139(11) 0.2993(6) 0.2779(11) 0.161(6) Uani 0.480(10) 1 d D U P B 2
O1 O 0.4159(4) 0.1075(4) 0.1360(5) 0.066(3) Uani 1 1 d . . . . .
O2 O 0.3437(4) 0.0593(5) 0.0720(5) 0.066(3) Uani 1 1 d . . . . .
O3 O 0.5000 0.0493(7) 0.2068(7) 0.074(4) Uani 1 2 d S T P . .
O4 O 0.5000 0.1675(5) 0.0602(11) 0.100(5) Uani 1 2 d S TU P . .
O5 O 0.4458(7) 0.0754(7) 0.0000 0.081(5) Uani 1 2 d S TU P . .
O6 O 0.5539(6) 0.0000 0.0909(7) 0.068(4) Uani 1 2 d S T P . .
N1 N 0.5000 -0.0522(3) 0.4233(5) 0.178(11) Uani 0.5 2 d DS TU P A 2
N2 N 0.4118(4) 0.4349(8) 0.0800(12) 0.199(14) Uani 0.125 1 d D U P C 1
H2A H 0.3844 0.4521 0.1048 0.238 Uiso 0.125 1 calc R U P C 1
H2B H 0.4136 0.3969 0.0784 0.238 Uiso 0.125 1 calc DR U P C 1
N3 N 0.4322(2) 0.1536(11) 0.5000 0.210(11) Uani 0.25 2 d DS TU P A 2
C1 C 0.2393(5) 0.2027(4) 0.2256(6) 0.186(5) Uani 1 1 d D U . . .
C2 C 0.2208(4) 0.1655(5) 0.1715(6) 0.204(6) Uani 1 1 d D U . . .
H2 H 0.1810 0.1641 0.1587 0.245 Uiso 0.480(10) 1 calc R U P B 2
C3 C 0.2608(5) 0.1305(4) 0.1362(6) 0.135(5) Uani 1 1 d D U . . .
H3 H 0.2483 0.1052 0.0993 0.162 Uiso 1 1 calc R U . . .
C4 C 0.3191(5) 0.1326(5) 0.1549(6) 0.132(4) Uani 1 1 d D U . . .
C5 C 0.3375(4) 0.1696(5) 0.2088(7) 0.156(5) Uani 1 1 d D U . . .
H5 H 0.3773 0.1713 0.2215 0.187 Uiso 1 1 calc R U . . .
C6 C 0.2973(5) 0.2042(5) 0.2442(6) 0.175(5) Uani 1 1 d D U . . .
H6 H 0.3098 0.2292 0.2815 0.210 Uiso 0.520(10) 1 calc R U P B 1
C7 C 0.3635(7) 0.0957(7) 0.1181(10) 0.110(5) Uani 1 1 d D U . . .
C8 C 0.1581(6) 0.1626(8) 0.1500(9) 0.224(7) Uani 0.520(10) 1 d D U P B 1
C9 C 0.5000 0.0000 0.2327(7) 0.148(10) Uani 1 4 d DS TU P . .
C10 C 0.5000 0.0000 0.3120(5) 0.153(9) Uani 1 4 d DS TU P . .
C11 C 0.5000 0.05224(17) 0.3490(4) 0.163(9) Uani 1 2 d DS TU P . .
C12 C 0.5000 0.0522(3) 0.4234(5) 0.169(9) Uani 0.5 2 d DS TU P A 1
H12 H 0.5000 0.0877 0.4488 0.203 Uiso 0.5 2 calc R U P A 1
C13 C 0.5000 0.0000 0.4602(3) 0.175(10) Uani 1 4 d DS TU P A .
C14 C 0.5000 0.1899(6) 0.0000 0.123(6) Uani 1 4 d DS TU P . .
C15 C 0.5000 0.2546(5) 0.0000 0.142(7) Uani 1 4 d DS TU P . .
C16 C 0.5000 0.2845(5) 0.0643(2) 0.161(7) Uani 1 2 d DS TU P . .
H16 H 0.5000 0.2639 0.1082 0.193 Uiso 1 2 calc R U P . .
C17 C 0.5000 0.3450(5) 0.0644(2) 0.176(7) Uani 1 2 d DS TU P . .
H17 H 0.5000 0.3655 0.1083 0.211 Uiso 1 2 calc DR U P . .
C18 C 0.5000 0.3752(3) 0.0000 0.187(8) Uani 1 4 d DS TU P . .
C19 C 0.5000 0.4400(2) 0.0000 0.194(9) Uani 1 4 d DS TU P C .
C20 C 0.4556(3) 0.47062(18) 0.0402(5) 0.197(10) Uani 0.5 1 d D U P . .
C21 C 0.3971(2) 0.1878(13) 0.5000 0.213(12) Uani 0.25 2 d DS TU P A 2
C22 C 0.3522(2) 0.2338(14) 0.5000 0.221(16) Uani 0.25 2 d DS TU P A 2
H22A H 0.3143 0.2166 0.5099 0.331 Uiso 0.125 1 d R U P A 2
H22B H 0.3514 0.2527 0.4532 0.331 Uiso 0.125 1 d R U P A 2
H22C H 0.3614 0.2625 0.5368 0.331 Uiso 0.125 1 d R U P A 2
C8A C 0.3190(7) 0.2444(7) 0.3018(8) 0.177(6) Uani 0.480(10) 1 d D U P B 2
H20 H 0.4286(6) 0.4469(6) 0.0648(8) 0.212 Uiso 0.375 1 d D U P D 2
H11 H 0.5000 0.0879(4) 0.3237(9) 0.212 Uiso 1 2 d DS U P . .
loop_
_atom_site_aniso_label
_atom_site_aniso_U_11
_atom_site_aniso_U_22
_atom_site_aniso_U_33
_atom_site_aniso_U_23
_atom_site_aniso_U_13
_atom_site_aniso_U_12
I1 0.186(14) 0.203(16) 0.48(3) 0.000 0.000 -0.094(13)
Zr1 0.0417(9) 0.0315(8) 0.0440(8) -0.0094(6) 0.000 0.000
Zr2 0.0310(11) 0.0353(11) 0.0442(11) 0.000 0.000 0.000
Cu1 0.39(3) 0.157(15) 0.070(8) 0.000 0.000 0.000
F1 0.154(14) 0.29(2) 0.32(2) -0.118(16) 0.025(16) 0.026(18)
F2 0.178(18) 0.251(18) 0.30(2) -0.121(15) -0.038(17) 0.060(16)
F3 0.168(18) 0.262(19) 0.32(2) -0.145(17) -0.014(15) 0.049(17)
F1A 0.162(12) 0.233(18) 0.252(19) -0.047(17) -0.007(12) 0.029(13)
F2A 0.211(17) 0.233(19) 0.205(13) -0.039(12) 0.042(14) 0.008(18)
F3A 0.136(9) 0.164(9) 0.184(10) -0.063(8) 0.029(8) 0.010(8)
O1 0.068(7) 0.065(6) 0.064(6) -0.008(5) 0.014(5) 0.003(5)
O2 0.062(6) 0.088(7) 0.049(5) -0.007(5) 0.016(5) 0.017(5)
O3 0.074(10) 0.091(11) 0.056(8) -0.015(8) 0.000 0.000
O4 0.100(10) 0.026(7) 0.174(15) -0.014(6) 0.000 0.000
O5 0.085(11) 0.099(11) 0.059(8) 0.000 0.000 -0.050(9)
O6 0.087(10) 0.036(7) 0.079(9) 0.000 0.040(8) 0.000
N1 0.26(2) 0.21(3) 0.061(14) 0.005(8) 0.000 0.000
N2 0.26(3) 0.08(2) 0.25(3) -0.01(2) 0.004(15) 0.006(19)
N3 0.40(3) 0.159(18) 0.075(12) 0.000 0.000 0.003(8)
C1 0.126(9) 0.188(11) 0.245(12) -0.107(9) 0.032(9) 0.046(9)
C2 0.138(10) 0.206(13) 0.268(14) -0.125(10) 0.018(10) 0.053(10)
C3 0.076(8) 0.131(11) 0.199(13) -0.078(10) 0.027(9) 0.028(9)
C4 0.076(7) 0.130(9) 0.192(11) -0.066(8) 0.027(8) 0.022(7)
C5 0.099(8) 0.157(9) 0.211(11) -0.085(8) 0.028(8) 0.016(8)
C6 0.125(8) 0.173(9) 0.228(10) -0.090(7) 0.037(8) 0.030(8)
C7 0.053(8) 0.111(10) 0.165(12) -0.040(9) 0.031(9) 0.015(8)
C8 0.150(11) 0.234(15) 0.288(16) -0.125(12) 0.005(11) 0.048(12)
C9 0.22(2) 0.19(3) 0.043(12) 0.000 0.000 0.000
C10 0.23(2) 0.19(2) 0.041(11) 0.000 0.000 0.000
C11 0.24(2) 0.20(2) 0.049(10) -0.008(6) 0.000 0.000
C12 0.25(2) 0.20(2) 0.052(11) -0.008(6) 0.000 0.000
C13 0.26(2) 0.21(2) 0.059(12) 0.000 0.000 0.000
C14 0.133(12) 0.046(9) 0.190(16) 0.000 0.000 0.000
C15 0.169(13) 0.051(9) 0.207(17) 0.000 0.000 0.000
C16 0.201(15) 0.062(9) 0.220(17) -0.011(6) 0.000 0.000
C17 0.229(16) 0.066(10) 0.234(18) -0.010(6) 0.000 0.000
C18 0.245(18) 0.073(11) 0.24(2) 0.000 0.000 0.000
C19 0.26(2) 0.076(12) 0.25(2) 0.000 0.000 0.000
C20 0.26(2) 0.075(14) 0.25(2) -0.008(9) -0.002(9) 0.005(8)
C21 0.40(3) 0.16(2) 0.079(16) 0.000 0.000 0.005(10)
C22 0.40(4) 0.17(3) 0.09(2) 0.000 0.000 0.012(16)
C8A 0.142(9) 0.180(10) 0.209(10) -0.066(8) 0.031(8) 0.018(9)
loop_
_atom_type_symbol
_atom_type_description
_atom_type_scat_dispersion_real
_atom_type_scat_dispersion_imag
_atom_type_scat_source
C C 0.0181 0.0091 'International Tables Vol C Tables 4.2.6.8 and 6.1.1.4'
H H 0.0000 0.0000 'International Tables Vol C Tables 4.2.6.8 and 6.1.1.4'
Cu Cu -1.9646 0.5888 'International Tables Vol C Tables 4.2.6.8 and 6.1.1.4'
I I -0.3257 6.8362 'International Tables Vol C Tables 4.2.6.8 and 6.1.1.4'
N N 0.0311 0.0180 'International Tables Vol C Tables 4.2.6.8 and 6.1.1.4'
O O 0.0492 0.0322 'International Tables Vol C Tables 4.2.6.8 and 6.1.1.4'
Zr Zr -0.1862 2.2449 'International Tables Vol C Tables 4.2.6.8 and 6.1.1.4'
F F 0.0727 0.0534 'International Tables Vol C Tables 4.2.6.8 and 6.1.1.4'
loop_
_geom_angle_atom_site_label_1
_geom_angle_atom_site_label_2
_geom_angle_atom_site_label_3
_geom_angle
_geom_angle_site_symmetry_1
_geom_angle_site_symmetry_3
O6 Zr1 O6 71.1(7) 3_655 .
O6 Zr1 O5 108.9(6) 3_655 13_655
O6 Zr1 O5 69.2(5) . 13_655
O6 Zr1 O5 69.2(5) 3_655 .
O6 Zr1 O5 108.9(6) . .
O5 Zr1 O5 71.3(7) 13_655 .
O6 Zr1 O3 78.3(5) 3_655 .
O6 Zr1 O3 78.3(5) . .
O5 Zr1 O3 141.4(3) 13_655 .
O5 Zr1 O3 141.4(3) . .
O6 Zr1 O4 140.9(4) 3_655 .
O6 Zr1 O4 140.9(4) . .
O5 Zr1 O4 76.9(6) 13_655 .
O5 Zr1 O4 76.9(6) . .
O3 Zr1 O4 122.0(6) . .
O6 Zr1 O1 76.8(4) 3_655 .
O6 Zr1 O1 141.7(4) . .
O5 Zr1 O1 143.2(4) 13_655 .
O5 Zr1 O1 77.6(5) . .
O3 Zr1 O1 75.1(3) . .
O4 Zr1 O1 77.3(3) . .
O6 Zr1 O1 141.7(4) 3_655 13_655
O6 Zr1 O1 76.8(4) . 13_655
O5 Zr1 O1 77.6(5) 13_655 13_655
O5 Zr1 O1 143.2(4) . 13_655
O3 Zr1 O1 75.1(3) . 13_655
O4 Zr1 O1 77.3(3) . 13_655
O1 Zr1 O1 121.2(5) . 13_655
O6 Zr1 Zr1 35.6(3) 3_655 3_655
O6 Zr1 Zr1 35.6(3) . 3_655
O5 Zr1 Zr1 90.0(4) 13_655 3_655
O5 Zr1 Zr1 90.0(4) . 3_655
O3 Zr1 Zr1 74.2(4) . 3_655
O4 Zr1 Zr1 163.8(5) . 3_655
O1 Zr1 Zr1 109.4(3) . 3_655
O1 Zr1 Zr1 109.4(3) 13_655 3_655
O6 Zr1 Zr1 88.9(4) 3_655 11
O6 Zr1 Zr1 88.9(4) . 11
O5 Zr1 Zr1 35.7(3) 13_655 11
O5 Zr1 Zr1 35.7(3) . 11
O3 Zr1 Zr1 164.2(4) . 11
O4 Zr1 Zr1 73.8(5) . 11
O1 Zr1 Zr1 111.2(2) . 11
O1 Zr1 Zr1 111.2(2) 13_655 11
Zr1 Zr1 Zr1 90.0 3_655 11
O6 Zr1 Zr2 89.9(4) 3_655 9_655
O6 Zr1 Zr2 34.2(3) . 9_655
O5 Zr1 Zr2 35.0(4) 13_655 9_655
O5 Zr1 Zr2 90.5(4) . 9_655
O3 Zr1 Zr2 110.2(3) . 9_655
O4 Zr1 Zr2 109.8(3) . 9_655
O1 Zr1 Zr2 164.6(3) . 9_655
O1 Zr1 Zr2 74.2(2) 13_655 9_655
Zr1 Zr1 Zr2 60.15(2) 3_655 9_655
Zr1 Zr1 Zr2 60.08(2) 11 9_655
O6 Zr1 Zr2 34.2(3) 3_655 .
O6 Zr1 Zr2 89.9(4) . .
O5 Zr1 Zr2 90.5(4) 13_655 .
O5 Zr1 Zr2 35.0(4) . .
O3 Zr1 Zr2 110.2(3) . .
O4 Zr1 Zr2 109.8(3) . .
O1 Zr1 Zr2 74.2(3) . .
O1 Zr1 Zr2 164.6(3) 13_655 .
Zr1 Zr1 Zr2 60.15(2) 3_655 .
Zr1 Zr1 Zr2 60.08(2) 11 .
Zr2 Zr1 Zr2 90.40(5) 9_655 .
O6 Zr2 O6 108.0(9) 3_655 9_655
O6 Zr2 O5 70.2(3) 3_655 .
O6 Zr2 O5 70.2(3) 9_655 .
O6 Zr2 O5 70.2(3) 3_655 5
O6 Zr2 O5 70.2(3) 9_655 5
O5 Zr2 O5 109.6(10) . 5
O6 Zr2 O2 141.9(3) 3_655 5
O6 Zr2 O2 78.9(4) 9_655 5
O5 Zr2 O2 142.5(3) . 5
O5 Zr2 O2 77.8(5) 5 5
O6 Zr2 O2 78.9(4) 3_655 14
O6 Zr2 O2 141.9(3) 9_655 14
O5 Zr2 O2 142.5(3) . 14
O5 Zr2 O2 77.8(5) 5 14
O2 Zr2 O2 74.5(5) 5 14
O6 Zr2 O2 141.9(3) 3_655 11
O6 Zr2 O2 78.9(4) 9_655 11
O5 Zr2 O2 77.8(5) . 11
O5 Zr2 O2 142.5(3) 5 11
O2 Zr2 O2 75.9(5) 5 11
O2 Zr2 O2 119.3(5) 14 11
O6 Zr2 O2 78.9(4) 3_655 .
O6 Zr2 O2 141.9(3) 9_655 .
O5 Zr2 O2 77.8(5) . .
O5 Zr2 O2 142.5(3) 5 .
O2 Zr2 O2 119.3(5) 5 .
O2 Zr2 O2 75.9(5) 14 .
O2 Zr2 O2 74.5(5) 11 .
O6 Zr2 Zr1 34.9(2) 3_655 3_655
O6 Zr2 Zr1 89.2(4) 9_655 3_655
O5 Zr2 Zr1 89.9(4) . 3_655
O5 Zr2 Zr1 35.3(2) 5 3_655
O2 Zr2 Zr1 110.8(3) 5 3_655
O2 Zr2 Zr1 75.6(3) 14 3_655
O2 Zr2 Zr1 165.2(3) 11 3_655
O2 Zr2 Zr1 111.3(3) . 3_655
O6 Zr2 Zr1 89.2(4) 3_655 11
O6 Zr2 Zr1 34.9(2) 9_655 11
O5 Zr2 Zr1 35.3(2) . 11
O5 Zr2 Zr1 89.9(4) 5 11
O2 Zr2 Zr1 111.3(3) 5 11
O2 Zr2 Zr1 165.2(3) 14 11
O2 Zr2 Zr1 75.6(3) 11 11
O2 Zr2 Zr1 110.8(3) . 11
Zr1 Zr2 Zr1 89.60(5) 3_655 11
O6 Zr2 Zr1 89.2(4) 3_655 9_655
O6 Zr2 Zr1 34.9(2) 9_655 9_655
O5 Zr2 Zr1 89.9(4) . 9_655
O5 Zr2 Zr1 35.3(2) 5 9_655
O2 Zr2 Zr1 75.6(3) 5 9_655
O2 Zr2 Zr1 110.8(3) 14 9_655
O2 Zr2 Zr1 111.3(3) 11 9_655
O2 Zr2 Zr1 165.2(3) . 9_655
Zr1 Zr2 Zr1 59.85(5) 3_655 9_655
Zr1 Zr2 Zr1 59.69(5) 11 9_655
O6 Zr2 Zr1 34.9(2) 3_655 .
O6 Zr2 Zr1 89.2(4) 9_655 .
O5 Zr2 Zr1 35.3(2) . .
O5 Zr2 Zr1 89.9(4) 5 .
O2 Zr2 Zr1 165.2(3) 5 .
O2 Zr2 Zr1 111.3(3) 14 .
O2 Zr2 Zr1 110.8(3) 11 .
O2 Zr2 Zr1 75.6(3) . .
Zr1 Zr2 Zr1 59.69(5) 3_655 .
Zr1 Zr2 Zr1 59.85(5) 11 .
Zr1 Zr2 Zr1 89.60(5) 9_655 .
N1 Cu1 N1 101.6(11) 3_655 9_656
N1 Cu1 N3 112.2(4) 3_655 6_656
N1 Cu1 N3 112.2(4) 9_656 6_656
N1 Cu1 N3 112.2(4) 3_655 .
N1 Cu1 N3 112.2(4) 9_656 .
N3 Cu1 N3 106.5(10) 6_656 .
C12 Cu1 C13 68.2(7) 11_556 .
N1 Cu1 C13 33.4(4) 3_655 .
N1 Cu1 C13 68.2(7) 9_656 .
N3 Cu1 C13 124.8(4) 6_656 .
N3 Cu1 C13 124.8(4) . .
C12 Cu1 C13 33.3(4) 11_556 6_656
N1 Cu1 C13 68.2(7) 3_655 6_656
N1 Cu1 C13 33.4(4) 9_656 6_656
N3 Cu1 C13 124.8(4) 6_656 6_656
N3 Cu1 C13 124.8(4) . 6_656
C13 Cu1 C13 34.9(3) . 6_656
C12 Cu1 I1 109.3(3) 11_556 .
C13 Cu1 I1 119.9(6) . .
C13 Cu1 I1 119.9(6) 6_656 .
C12 Cu1 I1 109.3(3) 11_556 13_655
C13 Cu1 I1 119.9(6) . 13_655
C13 Cu1 I1 119.9(6) 6_656 13_655
I1 Cu1 I1 117.0(12) . 13_655
F3A F3A C8A 127.2(17) 7 .
C7 O1 Zr1 130.9(9) . .
C7 O2 Zr2 128.9(8) . .
C9 O3 Zr1 128.8(11) . .
C14 O4 Zr1 130.8(13) . .
Zr2 O5 Zr1 109.6(5) . .
Zr2 O5 Zr1 109.6(5) . 11
Zr1 O5 Zr1 108.7(7) . 11
Zr2 O6 Zr1 110.9(4) 9_655 3_655
Zr2 O6 Zr1 110.9(4) 9_655 .
Zr1 O6 Zr1 108.8(6) 3_655 .
C13 N1 C11 119.9(5) . 3_655
C13 N1 Cu1 99.4(7) . 9_656
C11 N1 Cu1 140.8(7) 3_655 9_656
C20 N2 H2A 120.0 . .
C20 N2 H2B 120.0 . .
H2A N2 H2B 120.0 . .
C21 N3 Cu1 172.5(10) . .
C6 C1 C2 119.7(5) . .
C6 C1 C1 112.1(9) . 7
C2 C1 C1 127.9(8) . 7
C3 C2 C1 119.9(5) . .
C3 C2 C8 119.0(7) . .
C1 C2 C8 121.1(7) . .
C3 C2 H2 120.0 . .
C1 C2 H2 120.0 . .
C2 C3 C4 120.1(5) . .
C2 C3 H3 120.0 . .
C4 C3 H3 120.0 . .
C5 C4 C3 120.0(5) . .
C5 C4 C7 118.4(12) . .
C3 C4 C7 121.6(12) . .
C4 C5 C6 119.8(5) . .
C4 C5 H5 120.1 . .
C6 C5 H5 120.1 . .
C1 C6 C5 120.6(5) . .
C1 C6 C8A 121.2(8) . .
C5 C6 C8A 118.2(8) . .
C1 C6 H6 119.7 . .
C5 C6 H6 119.7 . .
O1 C7 O2 130.3(10) . .
O1 C7 C4 113.7(16) . .
O2 C7 C4 115.9(15) . .
F1 C8 F3 109.1(11) . .
F1 C8 F2 107.6(11) . .
F3 C8 F2 106.2(11) . .
F1 C8 C2 113.1(9) . .
F3 C8 C2 110.6(9) . .
F2 C8 C2 110.0(9) . .
O3 C9 O3 134.0(17) . 3_655
O3 C9 C10 113.0(8) . .
O3 C9 C10 113.0(8) 3_655 .
C11 C10 C11 120.2(5) . 3_655
C11 C10 C9 119.9(3) . .
C11 C10 C9 119.9(3) 3_655 .
C10 C11 N1 119.8(5) . 3_655
C10 C11 C12 119.8(5) . .
C10 C11 H11 120.1(12) . .
N1 C11 H11 120.1(12) 3_655 .
C12 C11 H11 120.1(11) . .
C13 C12 C11 119.9(5) . .
C13 C12 H12 120.1 . .
C11 C12 H12 120.1 . .
C12 C13 C12 120.4(6) 3_655 .
N1 C13 N1 120.4(6) . 3_655
C12 C13 C13 119.8(3) 3_655 6_656
C12 C13 C13 119.8(3) . 6_656
N1 C13 C13 119.8(3) . 6_656
N1 C13 C13 119.8(3) 3_655 6_656
C12 C13 Cu1 47.2(4) 3_655 9_656
C12 C13 Cu1 167.6(4) . 9_656
N1 C13 Cu1 47.2(4) . 9_656
N1 C13 Cu1 167.6(4) 3_655 9_656
C13 C13 Cu1 72.57(17) 6_656 9_656
C12 C13 Cu1 167.6(4) 3_655 .
C12 C13 Cu1 47.2(4) . .
N1 C13 Cu1 167.6(4) . .
N1 C13 Cu1 47.2(4) 3_655 .
C13 C13 Cu1 72.57(17) 6_656 .
Cu1 C13 Cu1 145.1(3) 9_656 .
O4 C14 O4 130.7(18) . 11
O4 C14 C15 114.6(9) . .
O4 C14 C15 114.6(9) 11 .
C16 C15 C16 120.2(7) . 6_655
C16 C15 C14 119.9(3) . .
C16 C15 C14 119.9(3) 6_655 .
C15 C16 C17 120.0(5) . .
C15 C16 H16 120.0 . .
C17 C16 H16 120.0 . .
C18 C17 C16 119.9(5) . .
C18 C17 H17 120.0 . .
C16 C17 H17 120.0 . .
C17 C18 C17 120.0(7) 6_655 .
C17 C18 C19 120.0(3) 6_655 .
C17 C18 C19 120.0(3) . .
C20 C19 C20 0.0(5) 6_655 6_655
C20 C19 C20 121.9(4) 6_655 .
C20 C19 C20 121.9(4) 6_655 .
C20 C19 C20 62.4(8) 6_655 13_655
C20 C19 C20 62.4(8) 6_655 13_655
C20 C19 C20 89.5(7) . 13_655
C20 C19 C20 89.5(7) 6_655 11
C20 C19 C20 89.5(7) 6_655 11
C20 C19 C20 62.4(8) . 11
C20 C19 C20 121.9(4) 13_655 11
C20 C19 C18 119.0(2) 6_655 .
C20 C19 C18 119.0(2) 6_655 .
C20 C19 C18 119.0(2) . .
C20 C19 C18 119.0(2) 13_655 .
C20 C19 C18 119.0(2) 11 .
C20 C20 C19 119.0(2) 14_565 .
C20 C20 N2 123.3(8) 14_565 .
C19 C20 N2 117.7(9) . .
C20 C20 C20 90.001(1) 14_565 11
C19 C20 C20 58.8(4) . 11
N2 C20 C20 119.7(6) . 11
C20 C20 C20 48.0(4) 14_565 5_565
C19 C20 C20 86.5(5) . 5_565
N2 C20 C20 137.3(3) . 5_565
C20 C20 C20 42.0(4) 11 5_565
C20 C20 H20 125.2(11) 14_565 .
C19 C20 H20 115.8(12) . .
C20 C20 H20 119.0(7) 11 .
C20 C20 H20 138.2(6) 5_565 .
N3 C21 C22 178.5(10) . .
C21 C22 H22A 109.5 . .
C21 C22 H22B 109.5 . .
H22A C22 H22B 109.5 . .
C21 C22 H22C 109.5 . .
H22A C22 H22C 109.5 . .
H22B C22 H22C 109.5 . .
F2A C8A F1A 108.4(11) . .
F2A C8A F3A 108.8(11) . .
F1A C8A F3A 107.8(11) . .
F2A C8A C6 113.4(10) . .
F1A C8A C6 110.2(9) . .
F3A C8A C6 108.1(9) . .
loop_
_geom_bond_atom_site_label_1
_geom_bond_atom_site_label_2
_geom_bond_distance
_geom_bond_site_symmetry_2
I1 Cu1 2.580(17) .
Zr1 O6 2.141(9) 3_655
Zr1 O6 2.141(9) .
Zr1 O5 2.148(9) 13_655
Zr1 O5 2.148(9) .
Zr1 O3 2.214(14) .
Zr1 O4 2.214(14) .
Zr1 O1 2.228(9) .
Zr1 O1 2.228(9) 13_655
Zr1 Zr1 3.481(3) 3_655
Zr1 Zr1 3.490(3) 11
Zr1 Zr2 3.4978(16) 9_655
Zr1 Zr2 3.4978(16) .
Zr2 O6 2.105(12) 3_655
Zr2 O6 2.105(12) 9_655
Zr2 O5 2.132(13) .
Zr2 O5 2.132(13) 5
Zr2 O2 2.227(9) 5
Zr2 O2 2.227(9) 14
Zr2 O2 2.227(9) 11
Zr2 O2 2.227(9) .
Zr2 Zr1 3.4978(16) 3_655
Zr2 Zr1 3.4978(16) 11
Zr2 Zr1 3.4978(16) 9_655
Cu1 C12 1.854(14) 11_556
Cu1 N1 1.854(14) 3_655
Cu1 N1 1.854(14) 9_656
Cu1 N3 1.954(10) 6_656
Cu1 N3 1.954(10) .
Cu1 C13 2.492(18) .
Cu1 C13 2.492(18) 6_656
Cu1 I1 2.580(17) 13_655
F1 C8 1.327(9) .
F2 C8 1.348(9) .
F3 C8 1.342(9) .
F1A C8A 1.340(9) .
F2A C8A 1.321(9) .
F3A F3A 1.15(4) 7
F3A C8A 1.348(9) .
O1 C7 1.29(2) .
O2 C7 1.29(2) .
O3 C9 1.237(16) .
O4 C14 1.24(2) .
O5 Zr1 2.148(9) 11
O6 Zr2 2.105(12) 9_655
O6 Zr1 2.141(9) 3_655
N1 C13 1.389(8) .
N1 C11 1.392(8) 3_655
N1 Cu1 1.854(14) 9_656
N2 C20 1.502(10) .
N2 H2A 0.8800 .
N2 H2B 0.8800 .
N3 C21 1.131(10) .
C1 C6 1.385(8) .
C1 C2 1.395(7) .
C1 C1 1.506(9) 7
C2 C3 1.395(8) .
C2 C8 1.504(9) .
C2 H2 0.9500 .
C3 C4 1.391(8) .
C3 H3 0.9500 .
C4 C5 1.390(8) .
C4 C7 1.500(9) .
C5 C6 1.393(8) .
C5 H5 0.9500 .
C6 C8A 1.508(9) .
C6 H6 0.9500 .
C9 O3 1.237(16) 3_655
C9 C10 1.487(10) .
C10 C11 1.391(5) .
C10 C11 1.391(5) 3_655
C11 N1 1.392(8) 3_655
C11 C12 1.393(7) .
C11 H11 0.9501(10) .
C12 C13 1.388(7) .
C12 H12 0.9500 .
C13 C12 1.387(7) 3_655
C13 N1 1.389(8) 3_655
C13 C13 1.493(10) 6_656
C13 Cu1 2.492(18) 9_656
C14 O4 1.24(2) 11
C14 C15 1.494(10) .
C15 C16 1.389(6) .
C15 C16 1.389(6) 6_655
C16 C17 1.395(8) .
C16 H16 0.9500 .
C17 C18 1.394(6) .
C17 H17 0.9500 .
C18 C17 1.394(6) 6_655
C18 C19 1.498(7) .
C19 C20 1.455(4) 6_655
C19 C20 1.455(4) 6_655
C19 C20 1.455(4) .
C19 C20 1.455(4) 13_655
C19 C20 1.455(4) 11
C20 C20 1.357(8) 14_565
C20 C20 1.508(17) 11
C20 C20 2.029(15) 5_565
C20 H20 0.9499(10) .
C21 C22 1.485(10) .
C22 H22A 0.9795 .
C22 H22B 0.9800 .
C22 H22C 0.9801 .
loop_
_geom_torsion_atom_site_label_1
_geom_torsion_atom_site_label_2
_geom_torsion_atom_site_label_3
_geom_torsion_atom_site_label_4
_geom_torsion
_geom_torsion_site_symmetry_1
_geom_torsion_site_symmetry_4
C6 C1 C2 C3 -0.4(3) . .
C1 C1 C2 C3 -173.6(13) 7 .
C6 C1 C2 C8 179.9(4) . .
C1 C1 C2 C8 6.7(13) 7 .
C1 C2 C3 C4 0.0(3) . .
C8 C2 C3 C4 179.7(4) . .
C2 C3 C4 C5 0.0(6) . .
C2 C3 C4 C7 -179.8(4) . .
C3 C4 C5 C6 0.5(9) . .
C7 C4 C5 C6 -179.8(5) . .
C2 C1 C6 C5 0.9(6) . .
C1 C1 C6 C5 175.1(11) 7 .
C2 C1 C6 C8A 179.2(4) . .
C1 C1 C6 C8A -6.6(11) 7 .
C4 C5 C6 C1 -0.9(9) . .
C4 C5 C6 C8A -179.3(5) . .
Zr1 O1 C7 O2 4(3) . .
Zr1 O1 C7 C4 -172.9(6) . .
Zr2 O2 C7 O1 -1(3) . .
Zr2 O2 C7 C4 175.9(6) . .
C5 C4 C7 O1 -7.2(14) . .
C3 C4 C7 O1 172.6(12) . .
C5 C4 C7 O2 175.4(13) . .
C3 C4 C7 O2 -4.8(14) . .
C3 C2 C8 F1 122.3(14) . .
C1 C2 C8 F1 -58.0(14) . .
C3 C2 C8 F3 -0.4(15) . .
C1 C2 C8 F3 179.3(14) . .
C3 C2 C8 F2 -117.4(14) . .
C1 C2 C8 F2 62.3(14) . .
Zr1 O3 C9 O3 0.000(1) . 3_655
Zr1 O3 C9 C10 180.000(1) . .
O3 C9 C10 C11 0.000(1) . .
O3 C9 C10 C11 180.000(0) 3_655 .
O3 C9 C10 C11 180.000(1) . 3_655
O3 C9 C10 C11 0.000(0) 3_655 3_655
C11 C10 C11 N1 0.000(1) 3_655 3_655
C9 C10 C11 N1 180.000(1) . 3_655
C11 C10 C11 C12 0.000(1) 3_655 .
C9 C10 C11 C12 180.000(1) . .
C10 C11 C12 C13 0.000(1) . .
C11 C12 C13 C12 0.000(2) . 3_655
C11 C12 C13 C13 180.000(1) . 6_656
C11 C12 C13 Cu1 0.000(4) . 9_656
C11 C12 C13 Cu1 180.000(1) . .
C11 N1 C13 N1 0.000(2) 3_655 3_655
Cu1 N1 C13 N1 180.000(1) 9_656 3_655
C11 N1 C13 C13 180.000(1) 3_655 6_656
Cu1 N1 C13 C13 0.000(1) 9_656 6_656
C11 N1 C13 Cu1 180.000(1) 3_655 9_656
C11 N1 C13 Cu1 0.000(5) 3_655 .
Cu1 N1 C13 Cu1 180.000(4) 9_656 .
Zr1 O4 C14 O4 0.000(1) . 11
Zr1 O4 C14 C15 180.000(1) . .
O4 C14 C15 C16 0.000(1) . .
O4 C14 C15 C16 180.000(1) 11 .
O4 C14 C15 C16 180.000(1) . 6_655
O4 C14 C15 C16 0.000(0) 11 6_655
C16 C15 C16 C17 0.000(1) 6_655 .
C14 C15 C16 C17 180.000(1) . .
C15 C16 C17 C18 0.000(1) . .
C16 C17 C18 C17 0.000(1) . 6_655
C16 C17 C18 C19 180.000(1) . .
C17 C18 C19 C20 -53.6(5) 6_655 6_655
C17 C18 C19 C20 126.4(5) . 6_655
C17 C18 C19 C20 -53.6(5) 6_655 6_655
C17 C18 C19 C20 126.4(5) . 6_655
C17 C18 C19 C20 126.4(5) 6_655 .
C17 C18 C19 C20 -53.6(5) . .
C17 C18 C19 C20 -126.4(5) 6_655 13_655
C17 C18 C19 C20 53.6(5) . 13_655
C17 C18 C19 C20 53.6(5) 6_655 11
C17 C18 C19 C20 -126.4(5) . 11
C20 C19 C20 C20 0.000(2) 6_655 14_565
C20 C19 C20 C20 0.000(2) 6_655 14_565
C20 C19 C20 C20 56.6(5) 13_655 14_565
C20 C19 C20 C20 -70.3(3) 11 14_565
C18 C19 C20 C20 180.000(2) . 14_565
C20 C19 C20 N2 179.99(11) 6_655 .
C20 C19 C20 N2 179.99(11) 6_655 .
C20 C19 C20 N2 -123.4(5) 13_655 .
C20 C19 C20 N2 109.7(3) 11 .
C18 C19 C20 N2 -0.01(11) . .
C20 C19 C20 C20 70.3(3) 6_655 11
C20 C19 C20 C20 70.3(3) 6_655 11
C20 C19 C20 C20 126.9(4) 13_655 11
C18 C19 C20 C20 -109.7(3) . 11
C20 C19 C20 C20 36.85(14) 6_655 5_565
C20 C19 C20 C20 36.85(14) 6_655 5_565
C20 C19 C20 C20 93.5(5) 13_655 5_565
C20 C19 C20 C20 -33.5(3) 11 5_565
C18 C19 C20 C20 -143.15(14) . 5_565
F3A F3A C8A F2A -128(3) 7 .
F3A F3A C8A F1A 115(3) 7 .
F3A F3A C8A C6 -5(3) 7 .
C1 C6 C8A F2A 52.7(15) . .
C5 C6 C8A F2A -128.9(15) . .
C1 C6 C8A F1A 174.4(14) . .
C5 C6 C8A F1A -7.2(15) . .
C1 C6 C8A F3A -68.0(13) . .
C5 C6 C8A F3A 110.4(13) . .
