#------------------------------------------------------------------------------
#$Date: 2019-11-03 13:37:05 +0200 (Sun, 03 Nov 2019) $
#$Revision: 221539 $
#$URL: file:///home/coder/svn-repositories/cod/cif/4/12/84/4128435.cif $
#------------------------------------------------------------------------------
#
# This file is available in the Crystallography Open Database (COD),
# http://www.crystallography.net/
#
# All data on this site have been placed in the public domain by the
# contributors.
#
data_4128435
loop_
_publ_author_name
'Ebrahim, Fatmah Mish'
'Nguyen, Tu N.'
'Shyshkanov, Serhii'
'G\/ladysiak, Andrzej'
'Favre, Patrick'
'Zacharia, Anna'
'Itskos, Grigorios'
'Dyson, Paul J.'
'Stylianou, Kyriakos C.'
_publ_section_title
;
 Selective, Fast-Response, and Regenerable Metal-Organic Framework for
 Sampling Excess Fluoride Levels in Drinking Water.
;
_journal_issue                   7
_journal_name_full               'Journal of the American Chemical Society'
_journal_page_first              3052
_journal_page_last               3058
_journal_paper_doi               10.1021/jacs.8b11907
_journal_volume                  141
_journal_year                    2019
_chemical_formula_moiety
'[Eu1 (C33 H36 B1 O6) (H2 O1)].2(C3 H7 N1 O1)'
_chemical_formula_sum            'C39 H52 B Eu N2 O9'
_chemical_formula_weight         855.59
_space_group_crystal_system      monoclinic
_space_group_IT_number           15
_space_group_name_Hall           '-C 2yc'
_space_group_name_H-M_alt        'C 1 2/c 1'
_atom_sites_solution_hydrogens   geom
_atom_sites_solution_primary     dual
_audit_creation_date             2018-06-01
_audit_creation_method
;
Olex2 1.2
(compiled 2018.05.29 svn.r3508 for OlexSys, GUI svn.r5506)
;
_cell_angle_alpha                90
_cell_angle_beta                 115.022(5)
_cell_angle_gamma                90
_cell_formula_units_Z            8
_cell_length_a                   32.1523(12)
_cell_length_b                   8.6704(2)
_cell_length_c                   32.0714(15)
_cell_measurement_reflns_used    15801
_cell_measurement_temperature    100.0
_cell_measurement_theta_max      31.9530
_cell_measurement_theta_min      2.4430
_cell_modulation_dimension       1
_cell_volume                     8101.5(6)
_computing_cell_refinement       'CrysAlisPro 1.171.38.43 (Rigaku OD, 2015)'
_computing_data_collection       'CrysAlisPro 1.171.38.43 (Rigaku OD, 2015)'
_computing_data_reduction        'CrysAlisPro 1.171.38.43 (Rigaku OD, 2015)'
_computing_molecular_graphics    'Olex2 (Dolomanov et al., 2009)'
_computing_publication_material  'Olex2 (Dolomanov et al., 2009)'
_computing_structure_refinement  'XL (Sheldrick, 2008)'
_computing_structure_solution    'ShelXT (Sheldrick, 2015)'
_diffrn_ambient_temperature      100.0
_diffrn_detector                 'CCD plate'
_diffrn_detector_type            PILATUS2M
_diffrn_measured_fraction_theta_full 0.889
_diffrn_measured_fraction_theta_max 0.756
_diffrn_measurement_details
;
List of Runs (angles in degrees, time in seconds):

  # Type    Start    End  Width  t~exp~   \w     \q     \k     \f   Frames
--------------------------------------------------------------------------
  1  \w      0.00 360.00   1.00    1.00    --    0.00   0.00   0.00  360
;
_diffrn_measurement_device       'abstract diffractometer'
_diffrn_measurement_device_type  PILATUS@SNBL
_diffrn_measurement_method       '\w scans'
_diffrn_orient_matrix_type
'CrysAlisPro convention (1999,Acta A55,543-557)'
_diffrn_orient_matrix_UB_11      -0.0178369000
_diffrn_orient_matrix_UB_12      0.0149379000
_diffrn_orient_matrix_UB_13      0.0071701000
_diffrn_orient_matrix_UB_21      0.0003132000
_diffrn_orient_matrix_UB_22      0.0797288000
_diffrn_orient_matrix_UB_23      -0.0054483000
_diffrn_orient_matrix_UB_31      -0.0168125000
_diffrn_orient_matrix_UB_32      -0.0143606000
_diffrn_orient_matrix_UB_33      -0.0228655000
_diffrn_radiation_monochromator  'Si (111)'
_diffrn_radiation_probe          x-ray
_diffrn_radiation_wavelength     0.7142
_diffrn_reflns_av_R_equivalents  0.0395
_diffrn_reflns_av_unetI/netI     0.0364
_diffrn_reflns_Laue_measured_fraction_full 0.889
_diffrn_reflns_Laue_measured_fraction_max 0.756
_diffrn_reflns_limit_h_max       45
_diffrn_reflns_limit_h_min       -45
_diffrn_reflns_limit_k_max       12
_diffrn_reflns_limit_k_min       -12
_diffrn_reflns_limit_l_max       42
_diffrn_reflns_limit_l_min       -42
_diffrn_reflns_number            29535
_diffrn_reflns_point_group_measured_fraction_full 0.889
_diffrn_reflns_point_group_measured_fraction_max 0.756
_diffrn_reflns_theta_full        25.374
_diffrn_reflns_theta_max         30.673
_diffrn_reflns_theta_min         1.511
_diffrn_source
'European Synchrotron Radiation Facility, BM01 beamline'
_exptl_absorpt_coefficient_mu    1.602
_exptl_absorpt_correction_T_max  1.00000
_exptl_absorpt_correction_T_min  0.87079
_exptl_absorpt_correction_type   multi-scan
_exptl_absorpt_process_details
;
CrysAlisPro 1.171.38.43 (Rigaku Oxford Diffraction, 2015)
Empirical absorption correction using spherical harmonics,
 implemented in SCALE3 ABSPACK scaling algorithm.
;
_exptl_crystal_colour            colourless
_exptl_crystal_colour_primary    colourless
_exptl_crystal_density_diffrn    1.403
_exptl_crystal_description       block
_exptl_crystal_F_000             3520
_exptl_crystal_size_max          0.11
_exptl_crystal_size_mid          0.06
_exptl_crystal_size_min          0.03
_refine_diff_density_max         5.183
_refine_diff_density_min         -7.584
_refine_diff_density_rms         0.226
_refine_ls_extinction_method     none
_refine_ls_goodness_of_fit_ref   1.072
_refine_ls_hydrogen_treatment    constr
_refine_ls_matrix_type           full
_refine_ls_number_parameters     391
_refine_ls_number_reflns         9366
_refine_ls_number_restraints     159
_refine_ls_restrained_S_all      1.075
_refine_ls_R_factor_all          0.1340
_refine_ls_R_factor_gt           0.1294
_refine_ls_shift/su_max          0.001
_refine_ls_shift/su_mean         0.000
_refine_ls_structure_factor_coef Fsqd
_refine_ls_weighting_details
'w=1/[\s^2^(Fo^2^)+(0.0482P)^2^+364.9518P] where P=(Fo^2^+2Fc^2^)/3'
_refine_ls_weighting_scheme      calc
_refine_ls_wR_factor_gt          0.2641
_refine_ls_wR_factor_ref         0.2665
_reflns_Friedel_coverage         0.000
_reflns_number_gt                8895
_reflns_number_total             9366
_reflns_threshold_expression     'I > 2\s(I)'
_iucr_refine_instructions_details
;

    a.res created by SHELXL-2014/7

TITL a_a.res in C2/c
REM Old TITL a in C2/c
REM SHELXT solution in C2/c
REM R1 0.455, Rweak 0.043, Alpha 0.139, Orientation as input
REM Formula found by SHELXT: C92 B2 O7 Eu2
CELL 0.7142 32.1523 8.6704 32.0714 90 115.022 90
ZERR 8 0.0012 0.0002 0.0015 0 0.005 0
LATT 7
SYMM -X,+Y,0.5-Z
SFAC C H B Eu O N
UNIT 312 416 8 8 72 16
FLAT C12 C13 C14 C15 C16 C17 C18 C19 C21 C22
FLAT C23 C24 C25 C26 C27 C28 C29 C30 C32 C33
FLAT C1 C2 C3 C4 C5 C6 C7 C8 C10 C11
RIGU C12 > C17
RIGU C1 > C6
RIGU C23 > C28
RIGU C2 C7
RIGU Eu1 O1
ISOR 0.005 0.01 C14
ISOR 0.005 0.01 B1
ISOR 0.001 0.002 C7
ISOR 0.005 0.01 O1
 
L.S. 30
PLAN  20
SIZE 0.03 0.06 0.11
TEMP -173.15
MPLA 3 C9 C20 C31 B1
MPLA C1 C2 C3 C4 C5 C6
MPLA 3 C9 C20 C31 B1
MPLA C12 C13 C14 C15 C16 C17
MPLA 3 C9 C20 C31 B1
MPLA C23 C24 C25 C26 C27 C28
BOND $H
list 4
ABIN
fmap 2
acta
SHEL 999 0.7
REM <olex2.extras>
REM <HklSrc "%.\\a.hkl">
REM </olex2.extras>
 
WGHT    0.048200  364.951782
FVAR       0.14422
B1    3    0.655350    0.262295    0.346077    11.00000    0.01922    0.01495 =
         0.02728   -0.00314    0.01035   -0.00334
C1    1    0.623824    0.295269    0.373082    11.00000    0.01747    0.02118 =
         0.02701    0.00154    0.00853    0.00549
C2    1    0.610503    0.171104    0.393309    11.00000    0.02100    0.02087 =
         0.02209    0.00070    0.00641    0.00455
C3    1    0.583319    0.195734    0.417432    11.00000    0.02669    0.02405 =
         0.02115    0.00212    0.00988    0.00442
C4    1    0.570350    0.345507    0.420958    11.00000    0.01909    0.02391 =
         0.02751    0.00509    0.01227    0.00243
C5    1    0.582270    0.468795    0.400884    11.00000    0.03750    0.01947 =
         0.05263    0.00467    0.03184    0.00476
C6    1    0.608913    0.448200    0.376538    11.00000    0.03444    0.01164 =
         0.04871    0.00630    0.02941    0.00424
C7    1    0.622755    0.007855    0.388222    11.00000    0.03342    0.03246 =
         0.03358    0.00095    0.01466    0.00165
AFIX 137
H7A   2    0.634168   -0.043941    0.418164    11.00000   -1.50000
H7B   2    0.646636    0.006801    0.376831    11.00000   -1.50000
H7C   2    0.595485   -0.046197    0.366340    11.00000   -1.50000
AFIX   0
C8    1    0.567123    0.062757    0.437184    11.00000    0.05451    0.03734 =
         0.06008    0.01696    0.04085    0.00808
AFIX 137
H8A   2    0.543241    0.005389    0.412140    11.00000   -1.50000
H8B   2    0.554594    0.102512    0.458114    11.00000   -1.50000
H8C   2    0.593023   -0.005920    0.454116    11.00000   -1.50000
AFIX   0
C9    1    0.543990    0.379377    0.450481    11.00000    0.02256    0.02312 =
         0.04604    0.00281    0.01756    0.00564
C10   1    0.566612    0.633448    0.405751    11.00000    0.10421    0.03553 =
         0.12150    0.00792    0.09767    0.01389
AFIX 137
H10A  2    0.566168    0.697734    0.380432    11.00000   -1.50000
H10B  2    0.587982    0.677678    0.435156    11.00000   -1.50000
H10C  2    0.535743    0.629474    0.404754    11.00000   -1.50000
AFIX   0
C11   1    0.622602    0.583177    0.356145    11.00000    0.06174    0.02065 =
         0.07672    0.00536    0.05392    0.00287
AFIX 137
H11A  2    0.646774    0.551864    0.346905    11.00000   -1.50000
H11B  2    0.634085    0.665957    0.379016    11.00000   -1.50000
H11C  2    0.595920    0.620198    0.329145    11.00000   -1.50000
AFIX   0
C12   1    0.705085    0.186103    0.372092    11.00000    0.02567    0.02223 =
         0.02923    0.00591    0.01468    0.00479
C13   1    0.717575    0.061399    0.350532    11.00000    0.02205    0.03475 =
         0.03669   -0.00240    0.01387    0.00481
C14   1    0.762880    0.007111    0.367421    11.00000    0.02566    0.03162 =
         0.03960   -0.00352    0.01460    0.00369
C15   1    0.796339    0.083589    0.405683    11.00000    0.02575    0.03023 =
         0.04014    0.00173    0.01722    0.00367
C16   1    0.785085    0.198256    0.428962    11.00000    0.02552    0.03077 =
         0.03744   -0.00039    0.01119    0.00419
C17   1    0.739346    0.250841    0.411797    11.00000    0.02399    0.03456 =
         0.03212   -0.00151    0.01309    0.00082
C18   1    0.681884   -0.025295    0.309592    11.00000    0.02911    0.02939 =
         0.05127   -0.01523    0.01639    0.00708
AFIX 137
H18A  2    0.682881   -0.135213    0.317076    11.00000   -1.50000
H18B  2    0.688601   -0.011989    0.282716    11.00000   -1.50000
H18C  2    0.651262    0.015673    0.302708    11.00000   -1.50000
AFIX   0
C19   1    0.775311   -0.127125    0.345965    11.00000    0.02373    0.05332 =
         0.06451   -0.01469    0.01945    0.00759
AFIX 137
H19A  2    0.758655   -0.120616    0.312413    11.00000   -1.50000
H19B  2    0.767038   -0.223025    0.356777    11.00000   -1.50000
H19C  2    0.808416   -0.126016    0.354594    11.00000   -1.50000
AFIX   0
C20   1    0.846711    0.043034    0.420001    11.00000    0.02499    0.02497 =
         0.03671   -0.00601    0.01337    0.00551
C21   1    0.822275    0.271004    0.472146    11.00000    0.02751    0.04004 =
         0.03390   -0.00599    0.00587    0.00225
AFIX 137
H21A  2    0.827119    0.378343    0.465699    11.00000   -1.50000
H21B  2    0.850976    0.213251    0.481126    11.00000   -1.50000
H21C  2    0.812532    0.267974    0.497250    11.00000   -1.50000
AFIX   0
C22   1    0.729824    0.382764    0.437295    11.00000    0.02694    0.04479 =
         0.03517   -0.00720    0.00358    0.01128
AFIX 137
H22A  2    0.746730    0.366513    0.470512    11.00000   -1.50000
H22B  2    0.696855    0.387507    0.429240    11.00000   -1.50000
H22C  2    0.739709    0.479845    0.428670    11.00000   -1.50000
AFIX   0
C23   1    0.637882    0.314056    0.294436    11.00000    0.02154    0.02119 =
         0.03305    0.00234    0.01191    0.00544
C24   1    0.595546    0.256062    0.260497    11.00000    0.02410    0.02491 =
         0.03619    0.00558    0.01245   -0.00191
C25   1    0.579567    0.294997    0.213574    11.00000    0.02819    0.04024 =
         0.03821    0.00307    0.01469   -0.00156
C26   1    0.606865    0.398887    0.201293    11.00000    0.03159    0.03348 =
         0.03389    0.00283    0.01445    0.00010
C27   1    0.647622    0.457833    0.233329    11.00000    0.03616    0.01123 =
         0.03645    0.00111    0.02047   -0.00122
C28   1    0.664121    0.412822    0.279919    11.00000    0.02729    0.02946 =
         0.03580   -0.00308    0.01579   -0.00214
C29   1    0.566608    0.146681    0.273965    11.00000    0.02620    0.06011 =
         0.03968    0.00243    0.01136   -0.01074
AFIX 137
H29A  2    0.539260    0.200812    0.272487    11.00000   -1.50000
H29B  2    0.584565    0.109554    0.305388    11.00000   -1.50000
H29C  2    0.557264    0.058867    0.252738    11.00000   -1.50000
AFIX   0
C30   1    0.535504    0.232397    0.177790    11.00000    0.03744    0.06711 =
         0.03056    0.00313    0.00625   -0.01600
AFIX 137
H30A  2    0.526806    0.290780    0.149159    11.00000   -1.50000
H30B  2    0.511311    0.241942    0.188605    11.00000   -1.50000
H30C  2    0.539564    0.123509    0.172194    11.00000   -1.50000
AFIX   0
C31   1    0.590671    0.437666    0.151435    11.00000    0.02223    0.06761 =
         0.03140    0.00150    0.01364    0.00327
C32   1    0.675236    0.570310    0.218886    11.00000    0.05329    0.05391 =
         0.02715   -0.00363    0.01532   -0.02314
AFIX 137
H32A  2    0.661693    0.577711    0.185244    11.00000   -1.50000
H32B  2    0.706968    0.533756    0.230076    11.00000   -1.50000
H32C  2    0.674885    0.672116    0.232007    11.00000   -1.50000
AFIX   0
C33   1    0.709698    0.475166    0.313574    11.00000    0.03500    0.04072 =
         0.04436   -0.00495    0.02047   -0.01551
AFIX 137
H33A  2    0.734332    0.429312    0.307307    11.00000   -1.50000
H33B  2    0.714329    0.449286    0.344984    11.00000   -1.50000
H33C  2    0.710103    0.587481    0.310338    11.00000   -1.50000
AFIX   0
EU1   4    0.440429    0.482302    0.445154    11.00000    0.01983    0.12913 =
         0.03348   -0.02469    0.00900    0.01507
O1    5    0.505307    0.697812    0.479968    11.00000    0.12323    0.15623 =
         0.11123   -0.01069    0.08736    0.02147
O2    5    0.502082    0.375750    0.431485    11.00000    0.02283    0.14609 =
         0.03512   -0.02820    0.01115    0.01137
O3    5    0.566590    0.408103    0.490969    11.00000    0.02456    0.17963 =
         0.02506   -0.02315    0.00079    0.03430
O4    5    0.862109   -0.084679    0.438702    11.00000    0.03836    0.05792 =
         0.05089    0.01355    0.02722    0.02302
O5    5    0.870725    0.138514    0.410163    11.00000    0.02809    0.06550 =
         0.03646   -0.00437    0.01659   -0.00260
O6    5    0.597982    0.338803    0.125720    11.00000    0.02874    0.05099 =
         0.03291   -0.00554    0.01401    0.00059
O7    5    0.570309    0.560794    0.134980    11.00000    0.04551    0.06531 =
         0.04500    0.01637    0.02912    0.01862
HKLF 4
 
REM  a_a.res in C2/c
REM R1 =  0.1294 for    8895 Fo > 4sig(Fo)  and  0.1340 for all    9366 data
REM    391 parameters refined using    159 restraints
 
END  
     
WGHT      0.0465    368.8959 

REM Highest difference peak  5.183,  deepest hole -7.584,  1-sigma level  0.226
Q1    1   0.4489  0.5435  0.4399  11.00000  0.05    4.85
Q2    1   0.5122  0.7962  0.4816  11.00000  0.05    4.03
Q3    1   0.4919  0.6501  0.4710  11.00000  0.05    2.89
Q4    1   0.4754  0.7825  0.4500  11.00000  0.05    2.55
Q5    1   0.5278  0.6590  0.5023  11.00000  0.05    2.24
Q6    1   0.5479  0.7565  0.5197  11.00000  0.05    2.04
Q7    1   0.4207  0.3966  0.4625  11.00000  0.05    0.96
Q8    1   0.4123  0.3652  0.4233  11.00000  0.05    0.94
Q9    1   0.5837  0.2790  0.4211  11.00000  0.05    0.91
Q10   1   0.4199  0.4974  0.4095  11.00000  0.05    0.90
Q11   1   0.5661  0.4341  0.4124  11.00000  0.05    0.86
Q12   1   0.8222 -0.0990  0.3205  11.00000  0.05    0.84
Q13   1   0.9046 -0.1258  0.4705  11.00000  0.05    0.83
Q14   1   0.6059  0.3623  0.3715  11.00000  0.05    0.74
Q15   1   0.5172  0.1250  0.4212  11.00000  0.05    0.72
Q16   1   0.4566  0.6497  0.4282  11.00000  0.05    0.71
Q17   1   0.7123  0.0973  0.3798  11.00000  0.05    0.70
Q18   1   0.6152  0.4595  0.2221  11.00000  0.05    0.70
Q19   1   0.4879  0.6184  0.4311  11.00000  0.05    0.70
Q20   1   0.6722  0.5972  0.1710  11.00000  0.05    0.68

  REM The information below was added by Olex2.
  REM
  REM R1 = 0.1294 for 8895 Fo > 4sig(Fo) and 0.1340 for all 31340 data
  REM n/a parameters refined using n/a restraints
  REM Highest difference peak 5.18, deepest hole -7.58
  REM Mean Shift 0, Max Shift -0.001.

  REM +++ Tabular Listing of Refinement Information +++
  REM R1_all = 0.1340
  REM R1_gt = 0.1294
  REM wR_ref = 0.2665
  REM GOOF = 1.072
  REM Shift_max = -0.001
  REM Shift_mean = 0
  REM Reflections_all = 31340
  REM Reflections_gt = 8895
  REM Parameters = n/a
  REM Hole = -7.58
  REM Peak = 5.18
  REM Flack = n/a

  
;
_cod_data_source_file            ja8b11907_si_002.cif
_cod_data_source_block           SION-105
_cod_database_code               4128435
_shelx_shelxl_version_number     2014/7
_shelx_space_group_comment
;
The symmetry employed for this shelxl refinement is uniquely defined
by the following loop, which should always be used as a source of
symmetry information in preference to the above space-group names.
They are only intended as comments.
;
_shelx_estimated_absorpt_t_max   0.954
_shelx_estimated_absorpt_t_min   0.844
_reflns_odcompleteness_completeness 69.74
_reflns_odcompleteness_iscentric 1
_reflns_odcompleteness_theta     31.95
_olex2_refinement_description
;
1. Fixed Uiso
 At 1.5 times of:
  All C(H,H,H) groups
2. Restrained planarity
 C12, C13, C14, C15, C16, C17, C18, C19, C21, C22
 with sigma of 0.1
 C23, C24, C25, C26, C27, C28, C29, C30, C32, C33
 with sigma of 0.1
 C1, C2, C3, C4, C5, C6, C7, C8, C10, C11
 with sigma of 0.1
3. Uiso/Uaniso restraints and constraints
Uanis(C14) \\sim Ueq: with sigma of 0.005 and sigma for terminal atoms of 0.01
Uanis(B1) \\sim Ueq: with sigma of 0.005 and sigma for terminal atoms of 0.01
Uanis(C7) \\sim Ueq: with sigma of 0.001 and sigma for terminal atoms of 0.002
Uanis(O1) \\sim Ueq: with sigma of 0.005 and sigma for terminal atoms of 0.01
4. Rigid body (RIGU) restrains
 C12, C13, C14, C15, C16, C17
 with sigma for 1-2 distances of 0.004 and sigma for 1-3 distances of 0.004
 C1, C2, C3, C4, C5, C6
 with sigma for 1-2 distances of 0.004 and sigma for 1-3 distances of 0.004
 C23, C24, C25, C26, C27, C28
 with sigma for 1-2 distances of 0.004 and sigma for 1-3 distances of 0.004
 C2, C7
 with sigma for 1-2 distances of 0.004 and sigma for 1-3 distances of 0.004
 Eu1, O1
 with sigma for 1-2 distances of 0.004 and sigma for 1-3 distances of 0.004
5.a Idealised Me refined as rotating group:
 C7(H7A,H7B,H7C), C8(H8A,H8B,H8C), C10(H10A,H10B,H10C), C11(H11A,H11B,H11C),
 C18(H18A,H18B,H18C), C19(H19A,H19B,H19C), C21(H21A,H21B,H21C), C22(H22A,H22B,
 H22C), C29(H29A,H29B,H29C), C30(H30A,H30B,H30C), C32(H32A,H32B,H32C), C33(H33A,
 H33B,H33C)
;
_shelx_fab_file
;
-45 1 15 -3.7273 -0.2572
-45 1 16 0.3862 1.0126
-45 1 17 2.8457 -0.5391
-45 1 18 -0.1805 -0.0058
-45 1 19 -2.1472 -0.5869
-45 1 20 -0.8339 -0.9678
-45 1 22 -0.9203 -1.4367
-45 1 23 -1.9092 0.0021
-45 1 24 -4.3290 -0.9943
-45 1 25 0.8386 0.2625
-45 1 26 -0.0239 -0.2605
-44 0 14 1.4781 -3.5589
-44 0 16 0.7489 0.3592
-44 0 18 4.4839 4.1108
-44 0 20 -2.6555 5.6879
-44 0 22 3.6776 4.6321
-44 0 24 4.0127 1.4717
-44 0 26 -4.3702 -1.9471
-44 0 28 -4.2264 -4.4743
-44 0 30 1.5059 -4.3968
-44 2 13 1.8483 -0.0937
-44 2 14 -0.2906 1.5277
-44 2 15 -0.5865 0.3111
-44 2 16 -1.5106 0.6865
-44 2 17 -0.5482 0.3678
-44 2 18 -1.0747 -0.7906
-44 2 19 0.8759 0.0802
-44 2 20 0.3382 -1.9635
-44 2 21 -0.6822 -0.0258
-44 2 22 -0.3532 -1.9665
-44 2 23 -1.9717 -0.0362
-44 2 24 0.3845 -1.2450
-44 2 25 2.2995 -0.0003
-44 2 26 -2.3081 -0.1355
-44 2 27 -4.4480 0.3623
-44 2 28 -2.2875 0.7141
-43 1 12 -0.0589 2.1224
-43 1 13 -2.5972 -0.1670
-43 1 14 -0.1183 0.5690
-43 1 15 0.9584 -0.4014
-43 1 17 -1.2220 -0.3195
-43 1 18 -0.3587 -2.0733
-43 1 19 1.0827 -0.0992
-43 1 20 -0.0755 -2.0924
-43 1 21 -1.0326 0.0098
-43 1 22 -4.3449 -0.9182
-43 1 23 -0.6821 0.2736
-43 1 24 3.7998 0.0608
-43 1 25 -1.1211 0.5716
-43 1 26 3.3999 0.9714
-43 1 28 1.7343 1.0769
-43 1 29 -1.1671 0.2841
-43 1 30 0.7271 0.9486
-43 1 31 -0.9784 0.4196
-43 1 32 1.1677 0.8518
-43 3 12 -0.4952 -0.2722
-43 3 13 4.8639 0.3676
-43 3 14 0.4400 0.1493
-43 3 15 1.2759 0.4882
-43 3 16 1.6751 0.5802
-43 3 17 -0.3817 0.2845
-43 3 18 -0.2125 0.8589
-43 3 19 -1.9179 -0.0365
-43 3 20 0.4306 0.5196
-43 3 21 -0.3406 -0.2487
-43 3 22 -0.5289 0.0056
-43 3 23 1.5013 -0.3494
-43 3 24 0.8264 -0.5302
-43 3 25 -2.0006 -0.3852
-43 3 26 -1.8796 -0.7740
-43 3 27 -4.0719 0.1652
-43 3 28 -4.0466 -0.7795
-42 0 12 -1.0369 -4.0885
-42 0 14 7.0027 0.5966
-42 0 16 4.2781 5.3532
-42 0 18 2.1537 7.1653
-42 0 20 4.4740 5.8667
-42 0 22 4.2021 1.9088
-42 0 26 -0.1214 -5.8750
-42 0 28 -0.5010 -5.5512
-42 0 32 -0.3151 0.6100
-42 0 34 0.8323 3.2470
-42 2 10 -8.0216 2.0487
-42 2 11 2.6056 -0.0444
-42 2 12 -1.5376 1.0267
-42 2 13 0.6098 -0.0750
-42 2 14 -3.0874 -0.4159
-42 2 15 -2.7786 -0.0603
-42 2 16 -2.0412 -1.1066
-42 2 17 0.0959 0.0258
-42 2 18 -3.5631 -1.9469
-42 2 19 -0.7298 -0.0876
-42 2 20 -0.2224 -1.6909
-42 2 21 -1.6183 -0.0136
-42 2 22 -3.8569 -0.4616
-42 2 23 -0.3788 0.1350
-42 2 24 -5.9449 0.4851
-42 2 25 -0.6128 -0.3382
-42 2 26 1.6315 1.6130
-42 2 27 0.5476 0.1435
-42 2 28 -1.9250 1.4230
-42 2 29 1.9743 -0.1406
-42 2 30 6.8583 1.3466
-42 2 31 3.3029 0.3902
-42 2 32 -4.6932 0.3680
-42 2 33 0.8383 0.5763
-42 4 11 -3.4881 -0.2985
-42 4 12 3.7708 -0.2881
-42 4 13 -0.9416 -0.3572
-42 4 14 -0.2129 0.2040
-42 4 15 -2.4761 0.2083
-42 4 16 -0.3282 0.7345
-42 4 17 -1.0263 -0.0695
-42 4 18 -2.2115 0.9654
-42 4 19 2.4245 -0.4197
-42 4 20 0.5250 1.0398
-42 4 21 0.5614 0.0710
-42 4 22 0.5197 0.3055
-42 4 23 -2.2426 -0.2394
-42 4 24 -1.7002 0.0307
-42 4 25 1.8776 0.1962
-42 4 26 -1.8567 -0.2568
-42 4 27 0.0548 0.3569
-41 1 9 2.1209 0.2632
-41 1 10 -0.7243 1.4728
-41 1 11 -5.0079 0.1607
-41 1 12 -1.2161 0.2391
-41 1 13 4.8677 -0.0861
-41 1 14 -1.9057 -1.0207
-41 1 15 2.6913 -0.4339
-41 1 16 -0.4645 -2.0554
-41 1 17 3.9856 -0.2700
-41 1 18 2.3103 -1.5534
-41 1 19 1.9194 0.0168
-41 1 20 -2.0600 -0.5880
-41 1 21 5.7795 0.2983
-41 1 22 4.3482 0.6741
-41 1 23 6.3212 0.3356
-41 1 25 3.7254 0.6902
-41 1 26 -1.1296 2.1050
-41 1 27 0.0205 0.0270
-41 1 28 -1.7723 1.4593
-41 1 29 3.3900 -0.1019
-41 1 30 -1.9324 0.8224
-41 1 31 0.8246 -0.4073
-41 1 33 3.0077 -0.4461
-41 1 34 1.3323 -0.8613
-41 1 35 -0.1281 -0.6771
-41 3 9 -1.9230 0.5025
-41 3 10 4.1540 -0.4285
-41 3 11 0.3634 0.3515
-41 3 12 3.3669 -0.0736
-41 3 13 0.0834 0.1611
-41 3 14 2.7963 0.7238
-41 3 15 -1.5628 0.1665
-41 3 16 4.1519 1.4249
-41 3 17 -2.3501 0.0481
-41 3 18 1.6340 1.3538
-41 3 19 -0.5361 -0.2755
-41 3 20 -2.0294 0.6236
-41 3 21 -3.2887 -0.3367
-41 3 22 -1.4960 -0.0038
-41 3 23 -4.1947 -0.3881
-41 3 24 0.0517 -0.6819
-41 3 25 1.1128 -0.7595
-41 3 26 -0.9554 -0.8490
-41 3 27 0.5235 -0.0266
-41 3 28 -3.6006 -0.6434
-41 3 29 2.9052 -0.2031
-41 3 30 2.6044 -0.0641
-41 3 31 -0.4122 0.2747
-41 3 32 0.9335 0.3068
-41 3 33 2.0046 0.5006
-41 5 10 -1.3001 -0.2423
-41 5 11 0.1150 0.3208
-41 5 12 -0.9324 -0.6182
-41 5 13 3.7918 0.2323
-41 5 15 1.5685 0.1943
-41 5 16 1.5448 -1.0583
-41 5 17 0.2065 0.2661
-41 5 18 -3.6603 -0.7046
-41 5 19 -3.7945 -0.0167
-41 5 20 -1.1358 -0.2561
-41 5 21 1.7238 -0.2660
-41 5 22 -1.9083 0.3293
-41 5 23 -0.4305 -0.1033
-41 5 24 -2.4509 0.5672
-41 5 25 -4.5044 -0.2719
-40 0 8 1.9086 -8.2568
-40 0 10 1.2053 -4.4504
-40 0 16 1.5176 7.9458
-40 0 18 -5.1534 6.1540
-40 0 20 -4.6602 1.7652
-40 0 24 -1.4210 -6.5285
-40 0 26 -0.6692 -6.4956
-40 0 28 -2.8952 -3.7900
-40 0 30 4.2585 0.3726
-40 0 32 -3.1256 3.8544
-40 0 36 -5.8727 3.5762
-40 2 8 -3.5707 1.3099
-40 2 9 -2.1269 -0.2718
-40 2 10 -4.9779 0.9755
-40 2 11 -3.4321 -0.2589
-40 2 12 2.4868 -0.7344
-40 2 13 -3.0423 -0.4682
-40 2 14 -0.0172 -1.9587
-40 2 15 -2.6899 -0.2796
-40 2 16 -2.9148 -2.1034
-40 2 17 -1.7146 -0.0985
-40 2 18 -1.1046 -1.8175
-40 2 19 0.9604 0.0259
-40 2 20 6.0795 -0.6287
-40 2 21 -1.9445 0.2881
-40 2 22 0.8412 0.7846
-40 2 23 1.1512 -0.1071
-40 2 24 1.6448 1.7488
-40 2 26 4.9453 1.8196
-40 2 27 1.0436 -0.2294
-40 2 28 7.1503 0.9969
-40 2 29 -7.0826 -0.3222
-40 2 30 0.1413 -0.0425
-40 2 31 -0.4806 -0.1907
-40 2 32 -1.2081 -0.8043
-40 2 34 -1.8422 -1.4761
-40 2 35 -1.6432 -0.4384
-40 2 36 -0.3183 -0.3838
-40 4 8 -1.7415 -1.3173
-40 4 9 1.7473 0.6290
-40 4 10 -0.9434 -0.7791
-40 4 12 -0.4291 -0.1995
-40 4 13 2.8171 -0.1689
-40 4 14 -2.8065 0.8742
-40 4 15 0.9994 0.1089
-40 4 16 -2.2368 1.1832
-40 4 17 2.5462 -0.1788
-40 4 18 -0.0277 0.8256
-40 4 19 -0.5143 -0.1697
-40 4 20 2.1613 0.5630
-40 4 21 -1.6818 0.0569
-40 4 22 -0.1641 -0.3441
-40 4 23 4.1335 0.1233
-40 4 24 2.9830 -1.0669
-40 4 25 1.6674 -0.1259
-40 4 26 3.5669 -0.9583
-40 4 27 2.7881 0.1407
-40 4 28 4.0953 -0.6888
-40 4 29 0.4942 0.2610
-40 4 30 -0.3693 0.7151
-40 4 31 -0.0340 0.2421
-40 4 32 0.7220 1.2461
-40 6 14 2.8902 -0.6915
-40 6 15 0.1753 0.0957
-40 6 16 2.3470 -0.7465
-40 6 17 -1.3234 0.2432
-40 6 18 4.3220 -0.7847
-40 6 19 -0.8256 0.2268
-40 6 20 1.6420 -0.2831
-39 1 7 1.1298 -0.0018
-39 1 8 4.7004 1.7889
-39 1 9 -0.2982 0.0497
-39 1 10 -1.5162 0.2520
-39 1 11 1.8267 0.0744
-39 1 12 -0.4988 -0.9988
-39 1 13 1.2247 -0.3656
-39 1 14 0.7858 -2.0136
-39 1 15 6.4361 -0.3254
-39 1 16 0.6453 -1.8247
-39 1 17 -3.7705 -0.0470
-39 1 18 0.0400 -1.0022
-39 1 19 -0.5443 0.4902
-39 1 20 6.0442 0.5377
-39 1 21 -0.7429 0.5437
-39 1 22 2.3053 1.8070
-39 1 23 -1.7186 0.4660
-39 1 24 -0.2082 2.1234
-39 1 25 -3.0546 0.3536
-39 1 26 -1.1558 1.6878
-39 1 27 -1.0483 0.0339
-39 1 28 -1.4875 0.4264
-39 1 30 4.6784 -1.0133
-39 1 31 0.7668 -0.2911
-39 1 32 -0.2168 -1.6006
-39 1 33 1.4318 -0.2692
-39 1 34 3.9745 -1.6405
-39 1 35 -0.8312 -0.4205
-39 1 36 1.3466 -0.4667
-39 1 37 0.9562 0.0843
-39 1 38 1.1955 0.2259
-39 3 6 -0.8634 -1.1995
-39 3 7 1.7475 -0.6505
-39 3 8 1.8242 -0.7764
-39 3 9 1.6005 -0.1058
-39 3 10 -0.6699 0.3753
-39 3 11 2.1059 -0.0431
-39 3 12 0.7317 0.6724
-39 3 13 1.9068 -0.0588
-39 3 14 -0.1979 1.2849
-39 3 15 -2.2449 0.2476
-39 3 16 4.4765 1.0888
-39 3 17 -1.5702 0.2273
-39 3 18 -2.4299 0.6097
-39 3 19 2.1418 0.0382
-39 3 20 -1.0106 -0.2155
-39 3 21 -1.4372 -0.0509
-39 3 22 1.9884 -0.9083
-39 3 23 -1.9095 -0.0310
-39 3 24 -0.7583 -0.8325
-39 3 26 -2.4312 -0.7921
-39 3 27 0.5280 0.1857
-39 3 28 -8.9562 -0.2786
-39 3 29 3.5779 0.1535
-39 3 30 3.9060 0.6376
-39 3 31 -3.6463 -0.0091
-39 3 32 -3.6619 1.0725
-39 3 33 2.0482 0.3026
-39 3 34 3.7255 0.7072
-39 3 35 -3.8160 0.0093
-39 5 7 -5.1697 -0.2950
-39 5 8 -1.7465 0.4405
-39 5 9 -1.3611 0.1209
-39 5 10 -0.0296 0.2413
-39 5 11 1.9392 -0.0448
-39 5 12 0.1945 -0.5321
-39 5 13 -2.1439 0.2385
-39 5 14 -1.1609 -0.8806
-39 5 15 -3.4287 -0.1554
-39 5 16 1.0303 -0.9716
-39 5 17 -5.0423 0.2145
-39 5 18 -5.5504 -0.4982
-39 5 19 1.7574 0.2356
-39 5 20 -1.7438 0.0907
-39 5 21 -1.5297 0.3958
-39 5 22 1.8017 0.1436
-39 5 23 2.9029 0.3153
-39 5 24 3.0853 0.7966
-39 5 25 -5.1771 -0.0194
-39 5 26 4.4553 0.0231
-39 5 27 -1.1345 -0.0937
-39 5 28 -2.3014 0.3744
-39 5 29 2.4864 -0.5444
-39 5 30 6.2955 -0.1370
-38 0 6 0.9119 -7.6088
-38 0 8 3.2745 -4.2054
-38 0 10 0.4773 2.0170
-38 0 12 -1.3319 6.6363
-38 0 14 -0.7093 8.4191
-38 0 16 5.8598 6.4863
-38 0 18 -2.3875 1.2422
-38 0 22 4.0235 -7.2676
-38 0 24 -5.7094 -7.2507
-38 0 26 2.4092 -3.9708
-38 0 28 -8.0507 1.0274
-38 0 30 -4.8295 4.6621
-38 0 32 -0.2277 5.9164
-38 0 34 -1.4074 4.3817
-38 0 36 -0.5151 0.9795
-38 0 38 0.8500 -2.1737
-38 2 5 2.8981 -0.0876
-38 2 6 -7.4894 2.2027
-38 2 7 -0.2599 -0.3389
-38 2 8 -1.8647 1.0928
-38 2 9 1.6650 0.0296
-38 2 10 -3.8507 -0.2510
-38 2 11 -2.9845 -0.3702
-38 2 12 0.5027 -2.0439
-38 2 13 0.5465 -0.2865
-38 2 14 -0.5511 -2.5507
-38 2 15 -3.0767 0.0645
-38 2 16 0.9841 -1.8777
-38 2 17 3.4155 -0.2210
-38 2 18 1.6460 -0.7105
-38 2 19 -3.0042 -0.0493
-38 2 20 -1.7482 0.8125
-38 2 21 -0.3826 0.0318
-38 2 22 -2.5910 1.7901
-38 2 23 -0.0268 -0.1629
-38 2 24 -0.1004 1.6002
-38 2 25 0.1758 -0.0603
-38 2 26 4.2106 0.9550
-38 2 27 -1.1186 -0.1658
-38 2 28 -0.9479 -0.5396
-38 2 30 -3.3170 -1.4446
-38 2 31 1.9444 -0.2503
-38 2 32 2.0051 -1.8758
-38 2 33 -1.7372 0.2113
-38 2 34 -1.0811 -1.7070
-38 2 35 0.9636 -0.1679
-38 2 36 3.5806 -0.5576
-38 2 37 3.1548 -0.0055
-38 2 38 1.3368 0.3450
-38 4 5 3.2313 0.2451
-38 4 6 3.2747 -0.9927
-38 4 7 -0.3054 0.0553
-38 4 8 2.3615 -0.8516
-38 4 9 1.8055 0.0606
-38 4 10 1.1912 0.1435
-38 4 11 -0.7556 -0.2975
-38 4 12 6.2807 0.7915
-38 4 13 5.9287 0.1052
-38 4 14 -1.5956 1.4582
-38 4 15 2.9493 0.0001
-38 4 16 4.3090 0.9388
-38 4 17 6.1474 -0.1331
-38 4 18 3.5023 0.3080
-38 4 19 4.8050 0.0023
-38 4 20 3.5642 -0.3033
-38 4 21 6.2884 0.0646
-38 4 22 -2.3513 -1.2407
-38 4 23 4.5033 0.0812
-38 4 24 -2.5212 -0.8186
-38 4 25 1.8239 0.0398
-38 4 26 5.1137 -0.5153
-38 4 27 -0.9676 0.0750
-38 4 28 -1.0608 -0.0099
-38 4 29 -4.4437 0.0998
-38 4 30 -1.1325 0.4022
-38 4 31 -1.4049 -0.0710
-38 4 32 -1.9026 0.7982
-38 4 33 -1.5321 -0.0474
-38 4 34 -1.2240 -0.2560
-38 4 35 5.3365 -0.1920
-38 6 7 7.2073 -0.4543
-38 6 8 -2.0376 0.8600
-38 6 9 -0.1196 -0.1241
-38 6 10 2.5260 0.1800
-38 6 11 -1.4074 -0.0546
-38 6 12 1.6649 -0.3129
-38 6 13 0.7246 -0.1227
-38 6 14 -1.7077 -0.7245
-38 6 15 -1.8059 -0.1745
-38 6 16 -2.8448 -0.8078
-38 6 17 -4.6888 0.0077
-38 6 18 -5.4487 -0.1213
-38 6 19 -6.2146 0.0082
-38 6 20 -4.0350 0.2279
-38 6 21 -3.8000 -0.1619
-38 6 22 -3.5460 0.8005
-38 6 23 -3.2142 -0.0589
-38 6 24 -5.4144 0.9033
-38 6 25 13.7828 -0.0420
-38 6 26 -3.4802 0.2685
-38 6 27 -9.2770 -0.1103
-37 1 4 -0.6031 2.0936
-37 1 5 5.1928 0.1717
-37 1 6 -2.5506 1.1276
-37 1 7 2.2706 -0.1437
-37 1 8 0.7977 -0.0469
-37 1 9 1.3703 -0.0864
-37 1 10 -1.7534 -1.0677
-37 1 11 0.1215 -0.4922
-37 1 12 2.5592 -1.9816
-37 1 13 5.4265 -0.4988
-37 1 14 -2.8404 -2.1743
-37 1 15 1.5389 -0.0926
-37 1 16 -3.0209 -0.9484
-37 1 17 0.1917 0.3400
-37 1 18 4.3273 0.4013
-37 1 19 3.9398 0.6732
-37 1 20 3.8498 1.5804
-37 1 21 2.1659 0.7390
-37 1 22 0.1917 2.0289
-37 1 24 0.7081 1.3515
-37 1 25 1.4340 0.2784
-37 1 26 -1.3575 0.2241
-37 1 27 -4.1764 -0.3404
-37 1 28 2.8424 -1.1416
-37 1 29 0.6669 -0.3201
-37 1 30 2.4881 -1.4953
-37 1 31 0.2594 -0.2242
-37 1 32 -0.0956 -1.6410
-37 1 33 -0.0503 -0.1383
-37 1 34 2.1135 -0.9149
-37 1 35 -2.7130 0.3563
-37 1 36 -1.3745 0.0032
-37 1 37 -2.2521 0.2836
-37 1 38 -1.2040 0.7073
-37 1 39 -5.9921 0.5405
-37 3 4 2.0143 -0.2812
-37 3 5 -0.9651 0.1584
-37 3 6 3.5924 -0.9566
-37 3 7 0.5188 -0.5033
-37 3 8 1.0024 0.3024
-37 3 9 -1.7577 0.2195
-37 3 10 -3.7026 0.7885
-37 3 11 -5.1970 0.3374
-37 3 12 -0.3783 1.2422
-37 3 13 -2.9599 0.3710
-37 3 14 -2.1565 1.2483
-37 3 15 -2.9597 0.1326
-37 3 16 -1.7824 0.6988
-37 3 17 -1.3004 -0.0868
-37 3 18 -8.3288 -0.2838
-37 3 19 -2.1190 -0.2598
-37 3 20 -0.6211 -0.9692
-37 3 21 -5.9799 -0.2045
-37 3 22 -2.8890 -1.2342
-37 3 23 1.7024 0.0814
-37 3 24 -7.2314 -0.8145
-37 3 25 -3.3516 0.1606
-37 3 26 -4.5652 -0.0837
-37 3 27 4.8999 0.4991
-37 3 28 2.9475 0.3671
-37 3 30 2.5433 0.9776
-37 3 31 0.9426 0.1197
-37 3 32 -1.5165 0.6167
-37 3 33 -0.2366 0.3761
-37 3 34 -4.2718 0.0852
-37 3 35 -1.0818 -0.3360
-37 3 36 -3.0696 -0.4010
-37 3 37 0.4120 0.1366
-37 3 38 -2.2334 -0.2519
-37 5 5 -5.7323 0.2905
-37 5 6 -4.6499 0.0631
-37 5 7 0.1735 -0.1058
-37 5 8 2.3393 0.1880
-37 5 9 1.4077 0.2523
-37 5 10 -3.3009 -0.5738
-37 5 11 -0.9771 -0.0277
-37 5 12 -0.3860 -1.0059
-37 5 13 3.5310 -0.2086
-37 5 14 -0.6084 -0.6881
-37 5 15 1.4957 -0.0699
-37 5 16 4.0235 -0.3284
-37 5 17 2.8316 0.0939
-37 5 18 1.9984 0.2237
-37 5 19 4.1311 0.2278
-37 5 20 7.4872 0.6962
-37 5 21 -0.1132 -0.1091
-37 5 22 3.5467 1.0018
-37 5 23 -4.0278 -0.1590
-37 5 24 3.2334 0.6154
-37 5 25 -1.3442 -0.0926
-37 5 26 2.0106 0.0568
-37 5 27 5.1165 -0.3861
-37 5 28 3.6620 -0.6128
-37 5 29 6.3200 0.0806
-37 5 31 2.1228 -0.2337
-37 5 32 4.2782 -1.3993
-37 5 33 4.7844 0.1507
-37 7 9 4.2285 0.2354
-37 7 10 3.6682 0.2469
-37 7 11 8.0141 -0.0225
-37 7 12 1.7094 0.1977
-37 7 13 6.9659 0.3526
-37 7 14 1.8954 0.5438
-37 7 15 5.3272 0.1764
-37 7 16 -0.0728 0.1948
-37 7 17 -0.8936 -0.1247
-37 7 18 0.4779 0.0466
-37 7 19 1.7858 -0.4746
-37 7 20 -0.7894 -0.2566
-37 7 21 -1.7076 -0.3675
-37 7 22 -7.6816 -0.1601
-37 7 23 -11.0593 -0.3538
-36 0 4 0.6578 -5.3790
-36 0 6 0.8647 -3.3856
-36 0 12 -2.3822 9.2110
-36 0 14 2.1336 6.5773
-36 0 16 0.5998 1.1781
-36 0 20 -4.1895 -7.9909
-36 0 22 3.5181 -7.4252
-36 0 24 -0.0475 -3.7183
-36 0 28 -8.0287 5.3784
-36 0 30 -4.9276 6.6871
-36 0 32 -0.4757 4.9499
-36 0 34 -12.6704 1.1526
-36 0 36 0.3410 -2.6706
-36 0 38 1.8643 -4.3013
-36 2 3 -1.2523 -0.1985
-36 2 4 1.0647 2.3004
-36 2 5 -6.4464 -0.2335
-36 2 6 -3.2766 1.3912
-36 2 7 -0.5055 0.0250
-36 2 8 2.5105 -0.4025
-36 2 9 0.9517 0.1869
-36 2 10 -0.0763 -2.1332
-36 2 11 -1.0896 -0.0380
-36 2 12 4.6527 -2.8282
-36 2 13 -0.7429 0.0343
-36 2 14 1.9328 -1.9090
-36 2 15 -3.5585 0.2495
-36 2 16 1.2914 -0.4233
-36 2 17 -0.7651 0.0598
-36 2 18 -2.3784 1.1403
-36 2 19 -0.0335 0.1312
-36 2 20 -0.1786 2.1945
-36 2 21 2.7742 -0.0495
-36 2 22 1.1696 1.8964
-36 2 23 3.9979 -0.2947
-36 2 25 0.5625 -0.4498
-36 2 26 0.0311 -0.4774
-36 2 27 1.0135 -0.2535
-36 2 28 4.0350 -1.6297
-36 2 29 6.2995 -0.3843
-36 2 30 2.3195 -1.7766
-36 2 31 -0.6419 0.1557
-36 2 32 -3.5286 -1.1061
-36 2 34 0.0454 -0.6415
-36 2 35 2.6226 0.0805
-36 2 36 -3.1924 0.8859
-36 2 37 2.8286 -0.0556
-36 2 38 -3.5578 0.9116
-36 2 39 3.4082 0.6271
-36 2 40 -0.8189 0.9495
-36 4 3 -1.4965 -0.1147
-36 4 4 3.8060 -1.5577
-36 4 5 2.4729 0.2117
-36 4 6 2.3066 -0.7962
-36 4 7 -3.3849 0.1163
-36 4 8 0.3293 -0.0372
-36 4 9 1.4195 -0.2667
-36 4 10 1.0321 1.0677
-36 4 11 2.7327 -0.1110
-36 4 12 -1.7053 1.6070
-36 4 13 1.1567 0.0019
-36 4 14 -4.2385 1.1385
-36 4 15 -0.0095 -0.1360
-36 4 16 6.4581 0.0643
-36 4 17 -1.4814 -0.1858
-36 4 18 -3.3437 -0.7026
-36 4 19 -0.2517 0.1039
-36 4 20 -0.6230 -1.2484
-36 4 21 2.4075 -0.0666
-36 4 22 1.2602 -1.2773
-36 4 23 -4.5991 0.2531
-36 4 24 4.6607 -0.6581
-36 4 25 -3.7124 0.1992
-36 4 26 -1.2302 -0.0201
-36 4 27 -5.2850 -0.0262
-36 4 29 4.5033 -0.0575
-36 4 30 -2.7608 0.8824
-36 4 31 -4.2015 -0.0382
-36 4 32 -3.6489 0.5105
-36 4 33 -1.5793 -0.3151
-36 4 34 1.6342 0.0885
-36 4 35 -3.1943 0.1719
-36 4 36 -2.9224 -0.6887
-36 4 37 -4.3134 -0.5715
-36 6 10 0.2300 -0.5757
-36 6 11 -4.7415 0.2226
-36 6 12 -3.3545 -1.0229
-36 6 13 -7.9899 -0.0039
-36 6 14 -0.6431 -0.9310
-36 6 15 -0.8043 -0.0931
-36 6 16 1.7359 -0.0552
-36 6 17 -3.4911 -0.1368
-36 6 18 0.1515 0.7622
-36 6 19 1.3679 0.0210
-36 6 20 1.8696 0.8826
-36 6 21 0.4974 -0.1727
-36 6 22 -1.1351 0.6410
-36 6 23 8.4843 0.2431
-36 6 24 -0.6350 0.5274
-36 6 25 4.7453 -0.0086
-36 6 26 6.5117 -0.3695
-36 6 28 3.2184 -0.5350
-36 6 29 6.5730 0.4534
-36 6 30 5.5554 -0.5729
-36 6 31 2.9386 -0.0889
-35 1 2 -0.0109 -1.6136
-35 1 3 2.7015 1.1709
-35 1 4 1.6198 1.4079
-35 1 5 3.3994 -0.3699
-35 1 6 -1.4449 -0.9025
-35 1 7 1.6884 -0.6917
-35 1 8 2.3314 -2.0033
-35 1 9 1.8995 -0.3658
-35 1 10 0.6516 -2.6332
-35 1 11 0.9901 -0.6336
-35 1 13 4.1408 -0.2796
-35 1 14 -2.5764 -1.2331
-35 1 15 4.4384 0.2187
-35 1 16 2.5697 0.5350
-35 1 17 4.7361 0.5111
-35 1 18 5.6675 1.8101
-35 1 19 -1.3678 0.5658
-35 1 20 2.3630 2.1515
-35 1 21 2.6417 0.3718
-35 1 22 -3.9221 1.6277
-35 1 23 -0.8504 -0.1292
-35 1 24 -3.8136 0.2850
-35 1 25 0.4854 -0.4355
-35 1 26 1.4225 -0.8669
-35 1 28 -1.4884 -1.6895
-35 1 29 -5.6931 -0.5094
-35 1 30 -0.6803 -1.6667
-35 1 31 1.6075 -0.1096
-35 1 32 0.2262 -0.4901
-35 1 33 -15.4075 0.2193
-35 1 34 1.4009 0.4278
-35 1 35 -0.0422 0.4253
-35 1 36 1.4848 1.3336
-35 1 37 -3.4354 0.2591
-35 1 38 0.2161 1.7892
-35 1 39 -0.7081 0.4237
-35 1 40 -3.4379 0.6074
-35 1 41 1.9619 -0.0042
-35 3 2 0.4480 -0.2308
-35 3 3 2.3042 0.4076
-35 3 4 1.9839 -0.0812
-35 3 5 -0.4615 -0.2071
-35 3 6 -0.4875 -0.2751
-35 3 7 0.4361 -0.0311
-35 3 8 -0.3803 1.1600
-35 3 9 0.4021 0.2836
-35 3 10 -3.2209 1.5140
-35 3 11 -2.3238 0.2967
-35 3 12 1.8497 1.2699
-35 3 13 5.6475 0.1867
-35 3 14 -5.1739 0.5369
-35 3 15 -4.6654 -0.1121
-35 3 16 -1.5913 -0.2224
-35 3 17 -0.5398 -0.2229
-35 3 18 -0.1989 -1.0450
-35 3 19 -3.2570 -0.1651
-35 3 20 1.1296 -1.2979
-35 3 21 -2.8693 -0.2138
-35 3 22 -2.5933 -0.8205
-35 3 24 -3.2213 0.0596
-35 3 25 3.3282 0.4260
-35 3 26 6.1059 0.8351
-35 3 27 6.1966 0.1220
-35 3 28 -2.6831 1.1451
-35 3 29 -1.7356 0.2743
-35 3 30 -0.5702 1.2755
-35 3 31 5.6199 0.1717
-35 3 32 4.8193 0.7600
-35 3 33 0.8343 -0.1819
-35 3 34 1.4689 -0.1869
-35 3 35 -0.1970 -0.1038
-35 3 36 6.8854 -0.1686
-35 3 37 0.9019 -0.2615
-35 3 38 0.7487 -0.9165
-35 3 39 4.3944 -0.1019
-35 5 2 -7.1681 0.0631
-35 5 3 1.2244 -0.2222
-35 5 4 -1.8657 0.1761
-35 5 5 2.0327 0.1028
-35 5 6 -1.1621 -0.1631
-35 5 7 4.6906 0.0175
-35 5 8 1.7149 -0.2927
-35 5 9 1.5897 -0.1260
-35 5 10 -0.9727 -0.8350
-35 5 11 2.5392 -0.3499
-35 5 12 3.8919 -0.8187
-35 5 13 1.4661 0.0740
-35 5 14 -2.6282 -0.2802
-35 5 16 0.5069 0.2066
-35 5 17 -0.8292 0.2138
-35 5 18 0.3385 0.7502
-35 5 19 -0.3923 0.0587
-35 5 20 5.1956 0.7712
-35 5 21 -0.1747 0.1927
-35 5 22 -2.9063 0.5629
-35 5 23 2.1268 -0.1070
-35 5 24 -1.2116 0.2115
-35 5 25 4.9725 -0.3652
-35 5 27 -4.5243 -0.1992
-35 5 28 -0.4200 -0.5807
-35 5 29 -0.8157 -0.1611
-35 5 30 -1.5869 -0.4136
-35 5 31 -1.6617 -0.4463
-35 5 32 -4.6119 -0.0383
-35 5 33 -4.1860 0.6063
-35 5 34 -5.9037 0.3736
-35 5 35 -5.6549 -0.0294
-35 7 4 2.3588 -0.2227
-35 7 5 -2.3666 -0.0071
-35 7 6 3.7970 0.1339
-35 7 7 0.5780 -0.2625
-35 7 8 4.2086 0.3815
-35 7 9 4.0802 0.2014
-35 7 10 3.1412 0.6220
-35 7 11 7.2255 -0.0334
-35 7 12 7.4000 0.5020
-35 7 13 5.4207 0.2331
-35 7 14 0.4886 0.2385
-35 7 15 1.6032 0.0833
-35 7 16 -1.8564 -0.4925
-35 7 17 3.8396 0.0521
-35 7 18 0.0334 -0.8136
-35 7 19 -1.7293 0.2716
-35 7 20 -7.0143 -0.9844
-35 7 21 -6.1234 0.2913
-35 7 22 -4.1468 -0.6015
-35 7 23 -6.1030 0.1216
-35 7 24 -1.1111 -0.4282
-35 7 25 11.3686 0.2859
-35 7 26 -6.2540 0.3826
-35 7 27 1.2217 0.1818
-34 0 2 -1.9876 -6.9792
-34 0 4 1.7240 -1.2476
-34 0 6 -2.3705 3.8134
-34 0 8 -2.1102 8.8593
-34 0 10 -6.0238 10.3863
-34 0 12 -0.8143 6.7861
-34 0 14 -1.2871 1.0601
-34 0 18 -8.8948 -8.4998
-34 0 20 -4.4049 -7.6336
-34 0 22 7.9555 -3.4043
-34 0 24 -1.3455 2.0331
-34 0 26 0.0679 6.0672
-34 0 28 1.1691 7.1195
-34 0 32 15.1097 0.8104
-34 0 34 4.5867 -3.1968
-34 0 36 3.8351 -5.2330
-34 0 38 4.9148 -4.9011
-34 0 40 -2.0793 -2.1867
-34 0 42 8.1290 0.5791
-34 2 1 -4.4745 0.6155
-34 2 2 -5.2228 2.5649
-34 2 3 -3.7654 -0.1735
-34 2 4 -1.3901 1.2504
-34 2 5 -0.7296 0.0306
-34 2 6 -2.5321 -0.6549
-34 2 7 0.7418 0.6283
-34 2 8 3.7878 -2.1428
-34 2 9 -1.4105 -0.0808
-34 2 10 -2.3128 -3.0733
-34 2 11 -3.5676 0.0102
-34 2 12 2.2245 -1.9701
-34 2 13 -1.6608 0.3717
-34 2 14 3.0793 0.0901
-34 2 16 2.4606 1.5684
-34 2 17 0.3959 0.0161
-34 2 18 -2.7502 2.7370
-34 2 19 0.2386 0.2757
-34 2 20 4.4520 2.5083
-34 2 21 0.9515 -0.0789
-34 2 22 9.1437 1.1768
-34 2 23 2.7086 -0.1307
-34 2 24 -3.1286 -0.4587
-34 2 25 -1.5744 -0.1489
-34 2 26 0.9242 -1.6607
-34 2 27 7.0656 -0.0245
-34 2 29 0.8695 -0.1773
-34 2 30 -0.9935 -1.3455
-34 2 31 -3.9584 0.0180
-34 2 32 -7.4962 -0.1381
-34 2 33 1.6166 0.2031
-34 2 34 2.2267 1.0779
-34 2 35 0.0297 0.0956
-34 2 36 -4.0747 1.5174
-34 2 37 2.4005 -0.0281
-34 2 38 2.1416 1.8325
-34 2 39 -5.0813 0.2569
-34 2 40 5.6029 0.1369
-34 2 41 2.7176 -0.3628
-34 4 1 0.2832 0.2038
-34 4 2 -2.0034 -1.7215
-34 4 3 1.1735 0.0967
-34 4 4 1.8944 -0.7416
-34 4 5 1.3696 0.1397
-34 4 6 2.4975 0.3540
-34 4 7 -0.0907 -0.0130
-34 4 8 1.2363 1.1191
-34 4 9 5.3362 -0.3146
-34 4 10 0.3665 1.4550
-34 4 11 0.4070 0.0470
-34 4 12 2.7210 1.3311
-34 4 13 4.9621 -0.1183
-34 4 14 1.2958 -0.0547
-34 4 15 0.7951 -0.3139
-34 4 16 2.2076 -1.0089
-34 4 17 3.6028 -0.0317
-34 4 18 -5.1222 -1.2729
-34 4 19 1.8601 -0.0182
-34 4 20 -2.6676 -1.4361
-34 4 21 -2.6513 -0.1739
-34 4 22 0.0430 -0.7103
-34 4 23 -5.7381 0.1707
-34 4 24 -2.6008 0.3492
-34 4 25 2.7851 -0.1109
-34 4 26 -1.5120 1.0492
-34 4 27 -3.3823 -0.1121
-34 4 28 -0.4378 0.9711
-34 4 29 -5.1217 0.0585
-34 4 30 4.3548 0.8704
-34 4 31 -2.3866 -0.1962
-34 4 32 3.5694 0.0403
-34 4 33 0.4380 -0.0967
-34 4 34 3.3657 -0.9297
-34 4 35 2.7824 -0.2596
-34 4 36 3.4142 -0.7018
-34 4 37 -1.8743 0.0704
-34 4 38 2.8586 -0.4770
-34 6 2 -5.0092 1.3746
-34 6 3 -2.3437 0.0685
-34 6 4 0.8458 0.6384
-34 6 5 -2.3386 -0.0766
-34 6 6 -6.1092 -0.2019
-34 6 7 -4.7010 0.2069
-34 6 8 -4.2207 -0.9633
-34 6 9 -9.0271 0.3603
-34 6 10 -0.9151 -1.1333
-34 6 11 -12.5803 0.1054
-34 6 12 -3.4048 -0.8351
-34 6 13 -3.4580 0.0282
-34 6 14 -1.5324 -0.2924
-34 6 15 -3.0843 0.1051
-34 6 16 -1.4365 0.5698
-34 6 17 2.6653 0.1894
-34 6 18 -5.6292 0.9879
-34 6 19 2.3207 -0.2608
-34 6 20 2.1402 0.8967
-34 6 21 9.6261 -0.1955
-34 6 22 -3.4789 0.7473
-34 6 23 -3.6294 -0.1612
-34 6 24 0.1114 0.0101
-34 6 25 -0.4079 -0.0472
-34 6 26 -2.6780 -0.6767
-34 6 27 -1.6285 -0.0388
-34 6 28 -1.6430 -0.4227
-34 6 29 3.9961 0.0410
-34 6 30 0.6630 -0.5370
-34 6 31 -1.3752 0.0717
-34 6 32 0.0728 0.1420
-34 6 33 2.5775 -0.1230
-34 8 7 11.3896 -0.3779
-34 8 8 -3.3308 0.7442
-34 8 9 -11.4294 -0.1770
-34 8 10 -4.1055 0.7398
-34 8 11 3.1098 -0.1092
-34 8 12 -3.6085 0.7367
-34 8 13 -0.8616 -0.0141
-34 8 14 3.9433 0.2704
-34 8 15 -1.1427 0.0029
-34 8 16 1.2259 -0.2683
-34 8 17 0.9667 -0.2650
-34 8 18 -3.3784 -0.6010
-34 8 19 -0.3396 -0.1533
-34 8 20 4.1290 -0.5591
-34 8 21 -2.4318 -0.0697
-34 8 22 -5.1728 -0.2874
-33 1 1 0.4073 -2.8222
-33 1 2 2.3297 -0.7071
-33 1 3 4.9322 1.2148
-33 1 4 1.3858 -0.1243
-33 1 5 0.2617 -0.8119
-33 1 6 -2.5625 -3.0999
-33 1 7 1.1934 -0.6605
-33 1 8 6.1446 -3.0377
-33 1 9 3.0712 -0.3811
-33 1 10 2.8894 -2.3904
-33 1 11 2.2202 -0.5151
-33 1 12 1.1495 -1.2127
-33 1 13 4.9461 -0.0963
-33 1 14 0.8812 0.4197
-33 1 15 0.5736 0.3650
-33 1 16 7.4220 2.0579
-33 1 17 -0.8650 0.2816
-33 1 19 -1.8080 0.0607
-33 1 20 -6.9396 1.4649
-33 1 21 -2.3677 -0.3127
-33 1 22 -3.7943 0.1523
-33 1 23 -3.3900 -0.7055
-33 1 24 1.9961 -1.1893
-33 1 25 -2.0971 -0.6584
-33 1 26 2.4281 -2.0137
-33 1 27 -7.9760 -0.4909
-33 1 28 0.1410 -1.7170
-33 1 29 3.2975 -0.1385
-33 1 30 2.8535 -0.7946
-33 1 32 1.4318 0.3988
-33 1 33 -0.7104 0.3373
-33 1 34 -3.7201 1.1602
-33 1 35 -2.0851 0.4631
-33 1 36 -0.6249 1.8818
-33 1 37 -1.0616 0.1794
-33 1 38 -4.3760 0.9200
-33 1 39 -4.0501 -0.1530
-33 1 40 -2.1740 0.3905
-33 1 41 3.6443 -0.1058
-33 1 42 -0.1390 -0.2015
-33 3 1 -3.1622 0.2847
-33 3 2 -0.1782 -0.2145
-33 3 3 -3.4170 0.3037
-33 3 4 0.1677 0.1270
-33 3 5 -8.2101 -0.5185
-33 3 6 -2.5770 1.0104
-33 3 7 -0.8991 0.3015
-33 3 8 -3.1245 1.6703
-33 3 9 -6.6771 0.1271
-33 3 10 -2.6513 1.1706
-33 3 11 -4.3388 -0.0842
-33 3 12 -4.2924 0.7526
-33 3 13 -3.4496 0.0883
-33 3 14 -4.2588 -0.2990
-33 3 15 -4.6707 -0.3927
-33 3 16 -4.2323 -1.1097
-33 3 17 1.5657 -0.2736
-33 3 18 -0.1558 -1.2726
-33 3 19 1.2738 -0.1119
-33 3 20 -0.9919 -0.8743
-33 3 21 3.6906 0.0129
-33 3 22 -1.3779 -0.0719
-33 3 23 0.1370 0.3324
-33 3 24 2.1027 0.7233
-33 3 25 -0.2660 0.4234
-33 3 26 6.3905 1.1220
-33 3 27 1.5239 0.2576
-33 3 28 5.2884 0.9603
-33 3 29 -0.1773 0.1042
-33 3 30 4.6010 0.4917
-33 3 31 1.1465 -0.1783
-33 3 32 3.5634 0.0244
-33 3 33 0.6767 -0.3065
-33 3 34 2.1357 -0.6298
-33 3 35 -1.5605 0.0248
-33 3 36 2.7738 -0.8241
-33 3 37 0.9109 -0.4217
-33 3 38 -0.5431 0.0122
-33 3 39 2.3828 0.4346
-33 3 40 -1.7225 0.2169
-33 5 1 2.0100 -0.6236
-33 5 2 -2.8048 -0.1044
-33 5 3 2.8783 -0.0547
-33 5 4 1.0120 0.1071
-33 5 5 3.1294 0.0499
-33 5 6 3.8729 -0.7380
-33 5 7 1.1136 -0.0222
-33 5 8 3.8213 -0.7754
-33 5 9 3.1251 -0.1939
-33 5 10 4.5287 -0.7762
-33 5 11 1.7592 -0.1346
-33 5 12 1.5811 -0.3597
-33 5 13 0.1444 0.0381
-33 5 14 -4.1002 0.2749
-33 5 15 2.9841 0.0620
-33 5 16 6.9155 1.0131
-33 5 17 -5.0010 0.0702
-33 5 18 -3.2110 0.9893
-33 5 19 -1.0858 0.0352
-33 5 20 2.9339 0.6427
-33 5 21 2.4874 -0.0884
-33 5 22 -5.2692 0.2831
-33 5 23 1.1829 -0.2427
-33 5 24 8.2429 -0.6053
-33 5 25 -4.7619 -0.2414
-33 5 26 -2.6105 -0.6791
-33 5 27 -1.8518 -0.0347
-33 5 28 2.0853 -0.6158
-33 5 29 -1.0933 0.0186
-33 5 30 -5.6747 -0.0738
-33 5 31 -2.2418 0.1162
-33 5 32 -5.1938 -0.1242
-33 5 33 -1.0126 0.1113
-33 5 34 -1.7373 0.6988
-33 5 35 0.9406 0.2587
-33 5 36 -4.1843 1.0941
-33 5 37 -4.8301 -0.2253
-33 7 1 -2.0377 0.3731
-33 7 2 -2.0520 0.2906
-33 7 9 6.8228 0.0839
-33 7 10 -3.1460 0.3718
-33 7 11 4.8118 0.0125
-33 7 12 -6.9254 0.2776
-33 7 13 -4.1898 -0.0100
-33 7 14 -3.3311 -0.1352
-33 7 15 -0.9225 -0.0683
-33 7 16 0.5711 -0.6551
-33 7 17 -8.6526 -0.1289
-33 7 18 3.5622 -0.7504
-33 7 19 -3.5327 0.1450
-33 7 20 5.3639 -0.6988
-33 7 21 0.5739 0.2865
-33 7 22 4.2270 -0.1210
-33 7 23 -5.1271 0.0468
-33 7 24 4.4365 0.4748
-33 7 25 8.4313 0.0544
-33 7 26 6.9602 0.6221
-33 7 28 1.4138 0.1777
-33 7 29 1.6275 -0.0396
-33 7 30 2.1581 0.1188
-32 0 2 -3.9970 -4.2290
-32 0 4 0.8434 4.2572
-32 0 6 -5.6351 9.5800
-32 0 8 -4.3956 10.6055
-32 0 10 -11.1409 6.9641
-32 0 12 0.2702 0.2625
-32 0 14 -4.0193 -5.8698
-32 0 16 -11.1257 -9.3623
-32 0 18 -7.7893 -7.8920
-32 0 20 11.3842 -3.0903
-32 0 24 -8.7357 7.1462
-32 0 26 -1.9414 7.8021
-32 0 28 -1.9906 5.0058
-32 0 30 -4.6494 0.4735
-32 0 32 3.0023 -3.7947
-32 0 34 2.4284 -5.9884
-32 0 36 5.0100 -5.2878
-32 0 38 9.2592 -2.1759
-32 0 42 1.5473 3.0738
-32 2 1 1.6343 0.4462
-32 2 2 0.9656 1.1372
-32 2 3 1.9409 -0.1603
-32 2 4 4.2311 -0.9071
-32 2 5 -0.9299 -0.3007
-32 2 6 1.5288 -2.2252
-32 2 7 -0.2325 0.6681
-32 2 8 4.9350 -2.6088
-32 2 9 -2.7160 -0.0063
-32 2 10 1.8857 -2.0042
-32 2 11 -2.2086 0.2294
-32 2 12 11.4213 0.1108
-32 2 13 -0.1805 0.4573
-32 2 14 3.7568 2.0597
-32 2 15 2.4497 0.2291
-32 2 16 0.3150 2.7395
-32 2 17 2.1528 0.3607
-32 2 18 -2.7504 2.5323
-32 2 20 9.3862 1.1436
-32 2 21 6.0022 -0.0391
-32 2 22 -3.6809 -0.6155
-32 2 23 -1.0357 0.0150
-32 2 24 -0.6955 -1.9192
-32 2 25 2.6686 -0.0805
-32 2 26 -7.4351 -2.0958
-32 2 27 -3.3221 -0.0463
-32 2 28 -2.7294 -1.3965
-32 2 29 -2.7804 0.2821
-32 2 30 -8.2326 -0.0771
-32 2 31 -1.4020 0.1323
-32 2 32 -5.9471 1.2737
-32 2 33 3.1896 0.4040
-32 2 34 0.1797 1.4343
-32 2 35 1.8468 -0.0469
-32 2 36 -2.3257 1.4927
-32 2 37 -2.5936 0.2200
-32 2 38 3.5532 0.6851
-32 2 39 4.0399 -0.1252
-32 2 40 0.3065 -0.4993
-32 2 41 0.4168 0.1629
-32 2 42 -2.1739 -0.5937
-32 4 2 -4.7652 -0.9467
-32 4 3 1.2212 0.1797
-32 4 4 -1.6057 0.6132
-32 4 5 3.0899 0.0796
-32 4 6 -2.6293 1.3727
-32 4 7 -0.9548 -0.1788
-32 4 8 -3.2718 1.4852
-32 4 9 2.7916 -0.3722
-32 4 10 -1.3975 1.0436
-32 4 11 1.7016 0.2117
-32 4 12 0.8294 0.2523
-32 4 13 2.7733 -0.0198
-32 4 14 -1.3133 -1.2727
-32 4 15 -4.7068 -0.2995
-32 4 16 4.1382 -1.6730
-32 4 17 1.1628 0.1711
-32 4 18 -2.7344 -1.2833
-32 4 19 -2.4163 0.0843
-32 4 20 0.4991 -0.8270
-32 4 21 -6.8953 -0.0112
-32 4 22 0.4086 0.2746
-32 4 23 -1.4659 0.1807
-32 4 24 -2.3553 1.2410
-32 4 25 1.1420 0.0227
-32 4 27 -1.8071 -0.1345
-32 4 28 -2.4348 0.7307
-32 4 29 9.1840 -0.1270
-32 4 30 8.0550 0.0182
-32 4 31 6.9162 -0.0633
-32 4 32 -0.5239 -0.8337
-32 4 33 2.5155 0.0148
-32 4 34 3.6690 -0.8954
-32 4 35 5.7792 -0.1166
-32 4 36 -1.5791 -0.7904
-32 4 37 2.4334 0.0756
-32 4 38 1.6127 -0.3821
-32 4 39 2.4066 -0.2615
-32 4 40 -2.7669 -0.6007
-32 6 1 -5.0315 0.0634
-32 6 2 3.0143 0.5941
-32 6 3 -0.6445 -0.0057
-32 6 4 4.5316 -0.1860
-32 6 5 1.5605 0.0349
-32 6 6 1.2448 -1.1498
-32 6 7 -3.3259 0.2422
-32 6 8 -2.9709 -0.9763
-32 6 9 -5.1496 0.3211
-32 6 10 2.6385 -0.8048
-32 6 11 1.3246 -0.0052
-32 6 12 5.6234 -0.0807
-32 6 13 -2.0609 -0.0537
-32 6 14 1.4148 0.5579
-32 6 15 2.2266 0.0911
-32 6 16 -0.2986 1.1895
-32 6 17 -0.8091 0.0693
-32 6 18 0.0480 1.0413
-32 6 19 -3.4981 -0.1664
-32 6 20 1.3881 0.3526
-32 6 21 -4.0450 0.0569
-32 6 22 2.0860 -0.1308
-32 6 23 -6.7342 0.0981
-32 6 24 6.0433 -0.9195
-32 6 25 7.5979 -0.0837
-32 6 26 5.8532 -0.7817
-32 6 27 4.1782 0.2657
-32 6 28 1.4266 -0.4959
-32 6 29 0.4217 0.1001
-32 6 30 3.4627 -0.0570
-32 6 31 2.3355 -0.1258
-32 6 32 3.2341 0.8120
-32 6 33 -0.6150 -0.0214
-32 6 34 -0.7514 0.9203
-32 6 35 -1.8756 -0.1222
-32 8 1 0.0417 0.0523
-32 8 2 -0.2641 -0.8088
-32 8 3 3.4970 -0.2294
-32 8 4 1.8799 0.2743
-32 8 5 10.0059 -0.1352
-32 8 6 4.2311 0.9279
-32 8 7 6.0267 -0.1724
-32 8 8 -4.1737 0.8267
-32 8 9 -5.8804 -0.0571
-32 8 10 7.7863 0.5505
-32 8 11 7.6640 -0.0753
-32 8 12 4.0023 0.1613
-32 8 13 0.4635 0.1058
-32 8 14 0.6584 -0.4161
-32 8 15 6.7525 0.0012
-32 8 16 4.5956 -0.8763
-32 8 17 22.5839 -0.1355
-32 8 18 6.1026 -0.7143
-32 8 19 -3.9643 -0.0657
-32 8 20 5.1561 -0.2357
-32 8 22 6.8901 0.2758
-32 8 23 -4.5562 -0.1430
-32 8 24 2.6764 0.3780
-32 8 25 4.0806 0.1628
-32 8 26 -5.8281 0.3246
-31 1 1 -2.0796 -1.2386
-31 1 2 -0.4185 0.9507
-31 1 3 2.6475 0.7511
-31 1 4 1.1955 -1.5621
-31 1 5 -1.6795 -0.7261
-31 1 6 -2.5978 -3.3675
-31 1 7 3.6666 -0.4460
-31 1 8 10.5649 -2.5014
-31 1 9 -4.0023 -0.4177
-31 1 10 -0.1651 -0.7167
-31 1 11 -0.2523 -0.0157
-31 1 12 -3.1686 0.7067
-31 1 13 1.0327 0.2585
-31 1 14 0.7548 2.0752
-31 1 15 -5.8454 0.3272
-31 1 16 6.7955 2.2533
-31 1 17 -4.9285 0.0845
-31 1 18 -8.9089 1.3269
-31 1 19 -4.9337 -0.3102
-31 1 20 -9.8067 -0.3504
-31 1 21 -4.9228 -0.7452
-31 1 22 6.1130 -1.8025
-31 1 24 1.8558 -2.2604
-31 1 25 -1.3683 -0.5494
-31 1 26 7.0902 -1.9926
-31 1 27 2.1879 -0.2216
-31 1 28 -2.4799 -0.9230
-31 1 29 10.6918 0.1469
-31 1 30 2.6700 0.4247
-31 1 31 0.2072 0.5483
-31 1 32 -3.7485 1.4177
-31 1 33 -4.0363 0.4515
-31 1 35 3.6347 0.2918
-31 1 36 -4.7609 0.6824
-31 1 37 6.8697 -0.3323
-31 1 38 1.4148 0.2904
-31 1 39 -1.6128 -0.4820
-31 1 40 -2.3274 -0.8756
-31 1 42 4.3930 -1.1645
-31 3 1 0.6578 0.3289
-31 3 2 0.7739 -0.0152
-31 3 3 1.3086 -0.1552
-31 3 4 -0.7962 0.3652
-31 3 5 0.7473 -0.7219
-31 3 6 -2.7458 1.6682
-31 3 7 4.7727 0.6853
-31 3 8 -5.3593 1.1678
-31 3 9 -0.6764 0.0264
-31 3 10 -5.5161 0.1647
-31 3 11 3.7386 -0.0612
-31 3 12 -7.2779 -0.5640
-31 3 13 -0.7529 -0.1004
-31 3 14 -1.9725 -1.3367
-31 3 15 1.9161 -0.2949
-31 3 16 1.4189 -1.4604
-31 3 17 1.6545 -0.2656
-31 3 19 0.8507 0.1090
-31 3 20 2.8814 -0.1224
-31 3 21 -0.4576 0.2820
-31 3 22 1.3620 0.7513
-31 3 23 3.8361 0.2366
-31 3 24 0.7580 1.1653
-31 3 25 5.8823 0.1399
-31 3 26 3.3780 0.8987
-31 3 27 2.0817 -0.0483
-31 3 28 -9.9895 0.4065
-31 3 29 -8.8213 -0.2043
-31 3 30 -2.3595 -0.5000
-31 3 31 -3.4077 -0.2409
-31 3 32 -0.1647 -1.0066
-31 3 33 0.0071 -0.3827
-31 3 34 2.3174 -1.0719
-31 3 35 1.3473 0.0557
-31 3 36 -3.4530 -0.3921
-31 3 37 1.0676 0.1795
-31 3 38 0.1330 -0.1545
-31 3 39 -0.3700 0.3325
-31 3 40 2.5503 0.3978
-31 3 41 -0.5007 -0.2035
-31 3 42 -0.1484 0.3654
-31 5 1 0.3533 -0.4961
-31 5 2 1.0800 -0.1274
-31 5 3 -1.5248 0.2744
-31 5 4 2.7093 -0.5739
-31 5 5 0.5448 0.0870
-31 5 6 3.9999 -0.8823
-31 5 7 2.3290 -0.0160
-31 5 8 4.1757 -0.7391
-31 5 9 -0.5753 -0.3586
-31 5 10 4.0733 -0.3797
-31 5 11 -3.9617 -0.0636
-31 5 12 -1.9348 0.4680
-31 5 13 4.7703 0.2725
-31 5 14 6.7894 0.8108
-31 5 15 -1.2883 0.1607
-31 5 16 1.0336 1.1171
-31 5 17 -0.0650 0.1451
-31 5 18 7.1572 0.6901
-31 5 19 2.6884 -0.0623
-31 5 20 0.0275 0.0764
-31 5 21 7.1129 -0.1155
-31 5 22 0.7326 -0.5131
-31 5 25 -1.5024 -0.2129
-31 5 26 -0.5580 -0.8270
-31 5 27 -1.1884 0.0477
-31 5 28 1.0292 -0.3257
-31 5 29 0.8519 0.0558
-31 5 30 -4.7830 0.1255
-31 5 31 -3.0846 0.1521
-31 5 32 -1.9436 0.7562
-31 5 33 3.2669 0.1831
-31 5 34 4.1687 0.4695
-31 5 35 -5.6639 0.4928
-31 5 36 -1.5387 0.3365
-31 5 37 0.8977 -0.7374
-31 5 38 4.0326 -0.2803
-31 7 1 -0.0383 0.5301
-31 7 2 -4.9340 0.2524
-31 7 3 -0.4087 -0.0176
-31 7 4 -3.3024 0.2725
-31 7 5 1.5146 -0.1907
-31 7 6 -5.4452 0.4870
-31 7 7 11.7247 0.0875
-31 7 8 -1.1608 0.4987
-31 7 9 4.9502 0.0469
-31 7 10 -8.6596 0.1530
-31 7 11 0.9074 0.0562
-31 7 12 -1.5869 -0.1190
-31 7 13 -1.0605 -0.0493
-31 7 14 -4.4454 -0.8055
-31 7 15 -6.7702 -0.2053
-31 7 16 -4.7480 -0.7688
-31 7 17 0.6372 -0.1486
-31 7 18 -4.7131 -0.5154
-31 7 19 -7.8953 -0.0181
-31 7 20 -3.0088 0.0257
-31 7 21 6.5306 0.1732
-31 7 23 1.4717 0.0670
-31 7 24 -2.7453 0.5749
-31 7 25 6.1850 0.2846
-31 7 26 -5.1817 0.6819
-31 7 27 -10.2131 0.0283
-31 7 28 -1.5914 0.1488
-31 7 29 3.8280 -0.3083
-31 7 30 1.4351 0.2801
-31 7 31 -3.2722 -0.0758
-31 7 32 -1.3828 -0.6555
-31 9 8 11.6605 -0.0853
-31 9 9 1.6541 0.0050
-31 9 10 -0.7682 -0.2337
-31 9 11 0.2988 0.1046
-31 9 12 3.5321 0.1128
-31 9 13 -1.9105 0.0234
-31 9 14 -3.6238 0.4276
-31 9 15 -10.6025 -0.0392
-31 9 16 4.1021 0.8495
-31 9 17 -4.9223 -0.1280
-31 9 18 -3.6357 0.6409
-30 0 2 -4.1660 0.9875
-30 0 4 5.5646 8.0577
-30 0 8 -1.8887 6.4426
-30 0 10 -3.2694 -0.9712
-30 0 12 -0.1732 -7.0560
-30 0 14 -4.5933 -10.1539
-30 0 16 3.8311 -8.6767
-30 0 18 14.0233 -2.8036
-30 0 20 5.7087 3.6736
-30 0 22 1.1524 7.9724
-30 0 24 -8.6202 8.7297
-30 0 28 -11.2995 0.0573
-30 0 30 7.7337 -4.5112
-30 0 32 0.6846 -6.4736
-30 0 34 0.1913 -5.4699
-30 0 38 -0.2811 1.5909
-30 0 40 -3.1271 3.9932
-30 2 1 -5.7318 -0.3180
-30 2 2 -4.8958 -0.7907
-30 2 3 -2.2005 -0.1996
-30 2 4 3.0096 -2.3930
-30 2 5 -4.1185 0.0034
-30 2 6 -2.1148 -2.6350
-30 2 7 3.6562 0.3573
-30 2 8 0.4224 -1.9064
-30 2 9 1.4282 0.0090
-30 2 10 1.8974 0.0531
-30 2 11 2.6319 0.4047
-30 2 12 7.8774 2.3175
-30 2 13 5.4207 0.5072
-30 2 14 -4.1303 3.0054
-30 2 15 0.2593 0.0686
-30 2 16 -4.9120 2.5173
-30 2 17 0.2095 0.2961
-30 2 18 7.7178 1.1527
-30 2 19 3.0951 0.0799
-30 2 20 -3.9148 -0.8826
-30 2 21 4.4749 -0.0858
-30 2 22 -5.9191 -2.1664
-30 2 25 0.4258 0.1127
-30 2 26 -1.3902 -1.4571
-30 2 27 3.4796 0.1623
-30 2 28 17.0299 0.0420
-30 2 29 4.4850 0.4013
-30 2 30 -2.2046 1.3701
-30 2 31 4.3835 0.2411
-30 2 32 -3.4648 1.9083
-30 2 33 2.4236 0.0997
-30 2 34 0.8882 1.4496
-30 2 35 -1.6415 -0.0796
-30 2 36 0.5647 0.3883
-30 2 37 -1.2959 0.1980
-30 2 38 -5.6190 -0.1617
-30 2 39 -3.8244 -0.0102
-30 2 40 2.1117 -1.5744
-30 2 41 -1.6285 0.0269
-30 4 1 2.0139 -0.0533
-30 4 2 -1.0225 0.4904
-30 4 3 1.8494 0.2570
-30 4 4 1.2762 1.5593
-30 4 5 -2.4196 -0.1477
-30 4 6 3.2843 1.5704
-30 4 7 -2.2852 -0.2469
-30 4 8 1.8743 1.1512
-30 4 9 3.0918 -0.0340
-30 4 10 6.0604 0.0487
-30 4 11 -1.9898 0.1499
-30 4 12 0.0467 -1.1669
-30 4 13 -3.5109 -0.0480
-30 4 14 -1.7919 -1.9512
-30 4 15 -0.7542 -0.1906
-30 4 16 -0.9783 -1.4125
-30 4 17 -1.5158 0.3076
-30 4 18 -10.2435 -0.5473
-30 4 19 -0.2981 -0.0151
-30 4 20 0.6122 0.3869
-30 4 21 -2.1996 0.0614
-30 4 22 -0.1751 1.3076
-30 4 23 2.9559 0.2216
-30 4 24 5.0411 1.2111
-30 4 25 -1.1089 0.0287
-30 4 26 -5.6721 0.8094
-30 4 27 -2.0388 0.0255
-30 4 28 5.2761 -0.0256
-30 4 29 1.9162 -0.0154
-30 4 30 1.4295 -0.8485
-30 4 31 -1.3437 -0.1141
-30 4 32 -3.4038 -1.0359
-30 4 33 0.5764 0.1902
-30 4 34 2.3956 -1.2657
-30 4 35 0.4026 0.0789
-30 4 36 -2.0677 -0.0300
-30 4 37 -1.6038 0.0594
-30 4 38 -0.5369 0.0377
-30 4 39 1.3834 0.0788
-30 4 40 -0.9445 0.8885
-30 6 1 3.1881 -0.1398
-30 6 2 -3.5931 -0.2717
-30 6 3 -2.6385 -0.1467
-30 6 4 0.9180 -0.7997
-30 6 5 -2.3759 0.1590
-30 6 6 -4.8967 -1.3737
-30 6 7 -1.2930 0.1779
-30 6 8 -4.6790 -0.5817
-30 6 9 1.1407 0.1623
-30 6 10 3.1479 -0.1816
-30 6 11 0.0457 -0.2332
-30 6 12 2.3803 0.7464
-30 6 13 2.4988 -0.0423
-30 6 14 -3.4762 1.3899
-30 6 15 4.9756 0.2518
-30 6 16 0.4490 1.0845
-30 6 17 1.9704 -0.0662
-30 6 18 2.0084 0.3911
-30 6 20 -0.4370 -0.3650
-30 6 21 8.1716 0.1634
-30 6 22 1.6815 -0.7891
-30 6 23 7.8543 0.0724
-30 6 24 -3.9440 -1.0661
-30 6 25 9.2610 0.0393
-30 6 26 -2.4290 -0.5797
-30 6 27 0.9593 0.2138
-30 6 28 -0.2280 0.0541
-30 6 29 -1.6888 0.1415
-30 6 30 1.4427 0.5373
-30 6 31 0.6071 0.1002
-30 6 32 0.9285 0.5264
-30 6 33 -4.7657 0.1422
-30 6 34 -3.3076 0.4480
-30 6 35 6.1173 -0.4183
-30 6 36 2.8364 -0.3296
-30 8 1 2.9999 -0.0593
-30 8 2 1.1526 0.2259
-30 8 3 4.8932 -0.0734
-30 8 4 16.9972 1.0293
-30 8 5 -1.5298 -0.1322
-30 8 6 11.1189 0.9191
-30 8 7 -17.3389 -0.3823
-30 8 8 6.9017 0.6597
-30 8 9 -1.8668 0.0171
-30 8 10 11.4113 0.0990
-30 8 11 -3.1483 0.0125
-30 8 12 -1.8300 -0.3601
-30 8 13 2.5663 0.1139
-30 8 14 10.0341 -0.8555
-30 8 15 1.6609 -0.0423
-30 8 16 -0.1218 -0.9508
-30 8 17 -0.7778 0.1642
-30 8 18 -8.1861 -0.3952
-30 8 19 -5.4009 0.1609
-30 8 20 1.2201 0.2419
-30 8 21 -5.4314 0.0043
-30 8 22 -7.5653 0.6651
-30 8 23 -16.8276 -0.2256
-30 8 24 5.0014 0.7854
-30 8 25 13.9454 -0.0897
-30 8 26 -3.1147 0.6094
-30 8 27 2.6759 -0.0071
-30 8 28 -1.7101 0.0481
-30 8 29 3.0100 -0.0278
-29 1 1 5.8873 1.0810
-29 1 2 3.7366 2.0563
-29 1 3 8.9408 -0.2434
-29 1 4 -0.5920 -2.5702
-29 1 5 7.7823 -0.4157
-29 1 6 -1.3448 -1.6243
-29 1 7 7.1614 0.0894
-29 1 8 6.2104 -0.3473
-29 1 9 1.8665 -0.1598
-29 1 10 -10.1673 1.3119
-29 1 11 0.5423 0.4618
-29 1 12 -2.8257 2.3988
-29 1 13 -3.2714 0.5928
-29 1 14 3.3040 2.6638
-29 1 15 -0.3778 0.1784
-29 1 16 -2.6749 1.4320
-29 1 17 0.9452 -0.1672
-29 1 18 -7.2489 -0.4324
-29 1 19 -2.5930 -0.5295
-29 1 20 4.8806 -1.9485
-29 1 21 -0.4255 -0.7408
-29 1 22 2.1003 -2.6715
-29 1 23 -6.9627 -0.3862
-29 1 24 5.8714 -2.0711
-29 1 25 4.4050 -0.0106
-29 1 26 -7.6208 -0.8516
-29 1 28 -6.6636 0.6306
-29 1 29 2.7491 0.4604
-29 1 30 -7.3361 1.8200
-29 1 31 -11.8936 0.5397
-29 1 32 -3.3890 1.5795
-29 1 33 0.3904 0.1465
-29 1 34 -6.2829 1.0348
-29 1 35 -2.5287 -0.1787
-29 1 36 -0.2656 -0.1389
-29 1 38 3.6667 -0.9595
-29 1 39 3.6607 -0.6214
-29 1 40 -2.9822 -1.5265
-29 1 41 2.0386 -0.2041
-29 3 1 -5.6247 0.2625
-29 3 2 -5.1676 0.3178
-29 3 3 -0.3176 -0.4205
-29 3 4 -1.8033 0.4939
-29 3 5 -1.4984 -0.0869
-29 3 6 -6.7643 1.3656
-29 3 7 1.5567 0.6990
-29 3 8 -6.6750 0.0638
-29 3 9 -6.9261 -0.2009
-29 3 10 -7.8645 -0.9333
-29 3 11 2.4569 -0.2330
-29 3 12 2.5121 -1.3780
-29 3 13 -0.1556 -0.2656
-29 3 14 -0.2210 -1.7412
-29 3 15 1.5874 -0.3016
-29 3 16 3.6711 -1.0987
-29 3 17 3.1515 -0.0712
-29 3 18 -2.5130 -0.0966
-29 3 19 -0.0059 0.1274
-29 3 20 11.2315 0.9023
-29 3 21 2.6692 0.2392
-29 3 24 6.2226 1.0728
-29 3 25 -0.5606 -0.0566
-29 3 26 0.7092 0.4031
-29 3 27 -4.0732 -0.2997
-29 3 28 -2.6820 -0.4015
-29 3 29 -7.1722 -0.3412
-29 3 30 7.1585 -0.9109
-29 3 31 -4.9885 -0.5035
-29 3 32 0.2775 -1.1199
-29 3 33 -3.5400 -0.2775
-29 3 34 0.7911 -0.4299
-29 3 35 -5.1842 0.0187
-29 3 36 -7.2391 -0.4471
-29 3 37 -5.4790 -0.0745
-29 3 38 1.0656 0.5326
-29 3 39 -4.0542 0.1756
-29 3 41 -3.1985 -0.0107
-29 5 1 -0.0826 0.0930
-29 5 2 -0.3230 -0.1781
-29 5 3 4.3660 0.3325
-29 5 4 3.3139 -0.6663
-29 5 5 7.0076 -0.0590
-29 5 6 0.5424 -0.4208
-29 5 7 -0.4191 -0.1531
-29 5 8 2.8903 -0.2394
-29 5 9 0.2840 -0.4037
-29 5 10 -2.2665 0.6188
-29 5 11 6.9747 0.2249
-29 5 12 1.8563 1.1015
-29 5 13 -0.7533 0.1286
-29 5 14 1.2005 0.9180
-29 5 15 0.9819 0.1958
-29 5 16 6.7807 0.7820
-29 5 17 -2.5497 0.0217
-29 5 18 -0.5872 -0.0707
-29 5 19 1.1302 -0.0783
-29 5 20 -1.9507 -0.7237
-29 5 21 -0.6730 -0.0884
-29 5 22 -5.3025 -1.0331
-29 5 23 -6.0969 -0.2197
-29 5 24 5.1536 -0.8758
-29 5 25 2.1100 0.0820
-29 5 26 -2.1752 -0.3251
-29 5 27 -4.1811 0.1632
-29 5 28 -5.0969 0.1142
-29 5 29 -0.3566 0.1342
-29 5 30 -1.7602 0.7678
-29 5 31 -3.3665 0.1456
-29 5 32 -0.2349 0.4714
-29 5 33 0.8999 0.0175
-29 5 34 0.2734 0.5795
-29 5 35 -5.7766 -0.2088
-29 5 36 -1.7641 -0.0088
-29 5 37 4.3195 -0.0633
-29 5 38 -1.8602 0.0922
-29 7 1 -4.3853 0.1319
-29 7 2 -7.3197 0.1991
-29 7 3 0.8192 -0.2418
-29 7 4 -2.6458 0.3063
-29 7 5 -6.3701 -0.1053
-29 7 6 2.7913 0.3936
-29 7 7 -1.3373 0.2949
-29 7 8 -5.0849 0.0904
-29 7 9 -10.3925 0.0202
-29 7 10 -0.8290 -0.3842
-29 7 11 8.0365 0.0264
-29 7 12 -6.5407 -0.6951
-29 7 13 -11.5075 -0.1550
-29 7 14 0.0678 -0.9592
-29 7 15 9.0517 -0.1248
-29 7 16 -4.3886 -0.5757
-29 7 17 0.1240 0.0848
-29 7 18 -0.3950 -0.0667
-29 7 19 -3.1488 0.2664
-29 7 20 -1.3772 0.3948
-29 7 21 16.6602 0.2677
-29 7 22 1.0599 0.6502
-29 7 23 -14.0581 0.0305
-29 7 24 -0.4343 0.7802
-29 7 25 -6.3163 -0.0797
-29 7 26 1.3809 0.0849
-29 7 27 -2.1323 -0.0602
-29 7 28 -0.8839 -0.3329
-29 7 29 -4.4415 -0.0800
-29 7 30 -3.4475 -0.7522
-29 7 31 7.0008 -0.1593
-29 7 32 -6.5289 -0.3339
-29 7 33 -1.0973 0.0005
-29 7 34 1.1695 -0.7124
-29 9 1 0.6887 -0.2082
-29 9 2 -6.7557 -0.1586
-29 9 8 -0.8027 0.0075
-29 9 9 -0.0679 -0.2553
-29 9 10 -5.0294 0.2611
-29 9 11 3.0139 0.0165
-29 9 12 -3.8808 0.6443
-29 9 13 -3.0100 -0.0257
-29 9 14 -1.7952 0.5957
-29 9 15 -0.8093 0.1162
-29 9 16 2.7258 0.6165
-29 9 17 7.5363 -0.0495
-29 9 18 -3.9345 -0.2519
-29 9 19 2.7114 -0.0946
-29 9 20 -6.7038 -0.5131
-29 9 21 13.1452 -0.0272
-29 9 22 1.9563 -0.6446
-29 9 23 7.3703 0.1000
-28 0 2 -13.5188 6.3371
-28 0 4 -8.1168 7.4390
-28 0 6 -21.8624 5.7269
-28 0 8 -10.3386 -1.7876
-28 0 10 -2.9203 -9.0387
-28 0 14 -1.0735 -9.0323
-28 0 16 0.0615 -2.9199
-28 0 18 -5.0287 4.3883
-28 0 20 -1.5401 9.0201
-28 0 22 -3.9819 9.1411
-28 0 24 -4.9006 5.5452
-28 0 26 23.5192 -0.3545
-28 0 28 5.7390 -5.4345
-28 0 30 16.9274 -7.2977
-28 0 32 2.4300 -5.5974
-28 0 34 12.2949 -1.8494
-28 0 36 0.4456 2.1604
-28 0 38 -0.6235 4.9029
-28 0 40 -0.3261 4.8225
-28 2 1 2.3055 -0.8392
-28 2 2 8.8844 -2.6536
-28 2 3 -1.3442 0.1601
-28 2 4 14.4944 -2.9848
-28 2 5 -5.2392 0.2643
-28 2 6 4.8462 -1.7996
-28 2 7 6.2929 -0.0263
-28 2 8 20.8868 0.0808
-28 2 9 -3.8905 0.0183
-28 2 10 9.8812 2.3767
-28 2 11 -3.1635 0.1815
-28 2 12 1.3826 3.5271
-28 2 13 5.4729 0.1422
-28 2 14 0.4965 2.4877
-28 2 15 -0.5381 -0.1761
-28 2 16 7.6305 1.0810
-28 2 17 4.1606 -0.0635
-28 2 18 -6.8523 -0.9244
-28 2 19 -3.1079 -0.2131
-28 2 20 -4.0577 -2.3339
-28 2 21 3.2383 -0.2042
-28 2 22 -3.4789 -2.4125
-28 2 23 -1.8951 0.1132
-28 2 24 -0.1820 -1.3280
-28 2 25 -0.1046 0.1190
-28 2 26 2.4893 0.0971
-28 2 28 0.1614 1.5831
-28 2 29 -0.7259 0.4133
-28 2 30 -3.9336 2.0994
-28 2 31 -1.7321 0.1755
-28 2 32 -1.2450 1.8295
-28 2 33 -4.6067 0.0379
-28 2 34 14.7950 0.5405
-28 2 35 1.4611 0.0063
-28 2 36 -6.8467 -0.4485
-28 2 37 1.8765 -0.0302
-28 2 38 11.3903 -1.4079
-28 2 39 3.7707 -0.2035
-28 2 40 3.5088 -1.5263
-28 2 41 -0.8514 0.2164
-28 4 1 3.6711 0.0057
-28 4 2 -3.4364 1.5639
-28 4 3 -8.0576 0.2030
-28 4 4 -2.9141 1.8876
-28 4 5 -2.8505 -0.2405
-28 4 6 4.4139 0.9750
-28 4 7 0.1017 -0.1179
-28 4 8 -3.9169 0.1599
-28 4 9 -1.3261 0.1910
-28 4 10 -0.1532 -1.2288
-28 4 11 -3.7988 -0.0012
-28 4 12 -8.0961 -1.9238
-28 4 13 -2.7161 -0.2646
-28 4 14 -0.5852 -1.5149
-28 4 15 -2.7812 0.0214
-28 4 16 -6.3429 -0.3886
-28 4 17 -4.0450 0.1082
-28 4 18 0.6901 0.5606
-28 4 19 -4.4919 0.0265
-28 4 22 1.2087 1.6547
-28 4 23 -1.1288 0.0400
-28 4 24 -7.4434 1.0179
-28 4 25 3.3653 -0.0610
-28 4 26 4.8840 0.1225
-28 4 27 5.7386 -0.1580
-28 4 28 0.6296 -0.7516
-28 4 29 8.3438 -0.1237
-28 4 30 -1.1695 -1.0594
-28 4 31 2.9503 0.0356
-28 4 32 -4.0186 -0.7508
-28 4 33 -0.5474 0.1733
-28 4 34 5.3982 -0.1261
-28 4 35 -1.9188 0.1802
-28 4 36 -3.6061 0.4774
-28 4 37 -2.7790 -0.0279
-28 4 38 -0.4745 0.9329
-28 4 39 -2.5884 0.4500
-28 4 40 0.9419 0.7761
-28 4 41 -1.1566 -0.0765
-28 6 1 -0.2682 -0.0564
-28 6 2 -3.8426 -1.3050
-28 6 3 -12.0715 0.0530
-28 6 4 0.1625 -1.2070
-28 6 5 1.4984 0.1846
-28 6 6 -6.5529 -1.0039
-28 6 7 4.3175 0.0982
-28 6 8 0.3190 0.0569
-28 6 9 0.3595 0.0078
-28 6 10 -0.2647 0.7777
-28 6 11 2.0367 -0.2008
-28 6 12 -0.5241 1.2482
-28 6 13 5.9892 0.0847
-28 6 14 -5.6175 1.2027
-28 6 15 1.1673 -0.0575
-28 6 16 1.8544 0.4079
-28 6 17 10.2959 -0.2082
-28 6 18 2.3076 -0.4344
-28 6 19 0.3319 -0.2243
-28 6 20 1.0249 -0.7432
-28 6 21 2.2816 0.0118
-28 6 22 0.9000 -0.9349
-28 6 23 2.9036 -0.1828
-28 6 24 -0.7360 -0.6110
-28 6 25 -1.9642 -0.0734
-28 6 26 0.2276 0.0022
-28 6 27 3.3694 0.1995
-28 6 28 5.7213 0.6384
-28 6 29 1.2416 -0.0753
-28 6 30 1.6875 0.7722
-28 6 31 -1.3110 -0.0946
-28 6 32 3.8276 0.8227
-28 6 33 6.8579 -0.1309
-28 6 34 -0.2708 0.0254
-28 6 35 -7.4986 0.0907
-28 6 36 1.9834 0.1024
-28 8 1 2.8912 0.0349
-28 8 2 6.9618 0.7719
-28 8 3 7.9247 -0.1179
-28 8 4 12.7440 1.1260
-28 8 5 2.0926 -0.1574
-28 8 6 -5.0665 0.6396
-28 8 7 7.7738 -0.1118
-28 8 8 -2.7510 0.1634
-28 8 9 -0.0142 0.2388
-28 8 10 0.3401 -0.7002
-28 8 11 -3.6922 0.1012
-28 8 12 4.5574 -0.9505
-28 8 13 1.8303 0.0906
-28 8 14 -2.2371 -0.8926
-28 8 15 -7.6540 0.0366
-28 8 16 -8.0355 -0.5109
-28 8 17 2.6481 0.0518
-28 8 18 4.7082 0.4478
-28 8 20 2.6592 0.8033
-28 8 21 -12.5769 -0.0143
-28 8 22 1.7418 0.7385
-28 8 23 4.2991 0.0387
-28 8 24 1.2149 0.4003
-28 8 25 8.6627 0.1115
-28 8 26 -4.1659 0.0666
-28 8 27 -7.6310 -0.0962
-28 8 28 -14.1077 -0.1832
-28 8 29 -0.8367 -0.0662
-28 8 30 7.2978 -0.5383
-27 1 1 -15.8937 3.2595
-27 1 2 -3.6797 2.0604
-27 1 3 -9.4424 -1.2787
-27 1 4 6.9068 -2.1410
-27 1 5 -16.1494 0.4744
-27 1 6 2.0630 0.7648
-27 1 7 -22.2458 0.6393
-27 1 8 4.5524 2.0382
-27 1 9 -10.9744 0.2673
-27 1 10 -1.4802 3.1917
-27 1 11 -3.2568 0.7280
-27 1 12 2.7763 3.0960
-27 1 13 -11.4803 0.5562
-27 1 15 -7.5263 -0.2662
-27 1 16 4.6110 -0.2505
-27 1 17 -7.8327 -0.4146
-27 1 18 2.0537 -1.9498
-27 1 19 -4.1032 -0.5424
-27 1 20 5.4407 -2.6851
-27 1 21 -5.9292 -0.3573
-27 1 22 5.4372 -2.1318
-27 1 23 -3.4026 0.0565
-27 1 24 -3.9253 -0.6149
-27 1 25 2.1114 0.6088
-27 1 26 -5.8602 0.8591
-27 1 27 3.2960 0.4532
-27 1 28 1.9637 1.9912
-27 1 29 8.3280 0.5698
-27 1 31 0.7246 0.2173
-27 1 32 0.9811 1.0790
-27 1 33 2.6952 -0.1540
-27 1 34 2.2513 -0.1035
-27 1 35 3.8184 -0.4328
-27 1 36 1.2692 -1.0269
-27 1 37 -1.6490 -0.4974
-27 1 38 -2.9838 -1.0948
-27 1 39 -2.2865 -0.2387
-27 1 40 1.1144 -1.3513
-27 1 41 2.8292 0.0815
-27 3 1 1.9829 -0.0708
-27 3 2 -5.0886 0.4343
-27 3 3 11.1868 -0.4236
-27 3 4 -2.5055 0.1310
-27 3 5 -4.1439 0.3502
-27 3 6 -9.7089 0.4757
-27 3 7 5.4995 0.4013
-27 3 8 -11.6303 -1.3116
-27 3 9 2.4947 -0.3573
-27 3 10 -0.9949 -1.6183
-27 3 11 5.7867 -0.2304
-27 3 12 7.6043 -1.5820
-27 3 13 1.9122 -0.3249
-27 3 14 -4.9855 -0.8781
-27 3 15 0.6505 -0.0599
-27 3 16 5.1918 0.1229
-27 3 17 3.8617 0.1795
-27 3 18 7.8618 1.0882
-27 3 19 10.5282 0.2118
-27 3 20 8.0550 1.5208
-27 3 21 3.6785 0.1101
-27 3 22 1.5763 1.1309
-27 3 23 2.2748 -0.2066
-27 3 24 -0.9098 0.2626
-27 3 25 0.3921 -0.4079
-27 3 26 -5.2152 -0.5855
-27 3 27 -7.9309 -0.2927
-27 3 28 -0.3350 -1.1676
-27 3 29 2.8204 -0.3983
-27 3 30 4.0094 -1.0749
-27 3 31 0.8383 -0.2287
-27 3 32 -1.2307 -0.8298
-27 3 33 10.7943 0.0127
-27 3 34 1.0760 -0.0017
-27 3 35 1.5408 0.1715
-27 3 36 6.8901 0.5666
-27 3 37 2.9311 0.1760
-27 3 38 0.1668 0.8774
-27 3 39 0.8508 -0.1450
-27 3 40 7.5149 0.6298
-27 3 41 2.6462 -0.1098
-27 5 1 9.9193 0.4333
-27 5 2 5.0899 0.0423
-27 5 3 6.0270 0.1776
-27 5 4 8.5085 -0.4698
-27 5 5 0.9610 -0.3274
-27 5 6 5.8924 0.1763
-27 5 7 -5.2201 -0.0899
-27 5 8 4.6147 0.4413
-27 5 9 0.9574 -0.2273
-27 5 10 2.7733 1.1933
-27 5 11 -0.2932 0.4722
-27 5 12 2.5493 1.2080
-27 5 13 -3.6002 0.1463
-27 5 14 1.9659 0.6993
-27 5 15 -0.2926 0.0493
-27 5 16 -6.6811 -0.0432
-27 5 18 -6.3195 -0.7239
-27 5 19 -0.3319 -0.2184
-27 5 20 -0.8152 -1.1078
-27 5 21 -0.1658 -0.0442
-27 5 22 3.2206 -0.9970
-27 5 23 -2.6911 0.0272
-27 5 24 4.9712 -0.2115
-27 5 25 0.4239 0.2636
-27 5 26 -6.3869 0.3244
-27 5 27 -2.3968 0.2698
-27 5 28 4.0648 0.6403
-27 5 29 -9.4875 0.1888
-27 5 30 -2.3322 0.7727
-27 5 31 -0.3654 0.0989
-27 5 32 0.0688 0.5651
-27 5 33 1.1640 0.0749
-27 5 34 1.0302 0.0130
-27 5 35 3.3871 -0.2039
-27 5 36 1.1509 -0.3060
-27 5 37 0.7778 -0.1522
-27 5 38 -2.6234 -0.6490
-27 5 39 1.5209 -0.3014
-27 5 40 3.8677 -0.5127
-27 7 1 0.0369 -0.2655
-27 7 2 -10.8216 0.1182
-27 7 3 0.6433 -0.1986
-27 7 4 -2.8615 -0.0362
-27 7 5 -6.1087 0.1313
-27 7 6 -3.9108 -0.0237
-27 7 7 -3.6610 0.3387
-27 7 8 -3.0284 -0.5563
-27 7 9 -2.7828 -0.0363
-27 7 10 5.1349 -0.7288
-27 7 11 -0.6819 -0.0217
-27 7 12 -3.1147 -0.8666
-27 7 13 -5.8292 -0.3350
-27 7 14 7.9419 -0.6867
-27 7 15 3.7854 0.0813
-27 7 16 4.4259 0.1832
-27 7 17 -6.1043 0.1117
-27 7 18 12.2062 0.5697
-27 7 19 -2.3017 0.0824
-27 7 20 2.2453 0.8049
-27 7 21 5.6913 0.0480
-27 7 22 6.3022 0.6338
-27 7 23 -18.6529 -0.0642
-27 7 24 -0.1122 0.2988
-27 7 25 7.7390 -0.3632
-27 7 26 11.2275 -0.2177
-27 7 27 1.2905 -0.3521
-27 7 28 -0.2097 -0.4977
-27 7 29 4.6833 -0.3600
-27 7 30 1.7868 -0.3796
-27 7 31 13.7398 0.0603
-27 7 32 4.5842 -0.6208
-27 7 33 -5.2872 0.0726
-27 7 34 -8.6892 -0.2894
-27 7 35 5.5063 0.2268
-27 9 1 -1.6331 0.1967
-27 9 2 -22.5470 -0.0579
-27 9 3 1.8332 0.2872
-27 9 4 -3.1839 -0.1569
-27 9 5 6.0582 0.0415
-27 9 6 3.8004 0.0218
-27 9 7 4.5761 -0.0468
-27 9 8 12.1026 0.1420
-27 9 9 12.1080 -0.0168
-27 9 10 -11.6129 0.5155
-27 9 11 2.7209 0.2018
-27 9 12 1.2179 0.5812
-27 9 13 -2.4923 0.1023
-27 9 14 16.2350 0.4701
-27 9 15 -2.4796 -0.0172
-27 9 16 1.8576 0.1853
-27 9 17 2.4383 -0.2417
-27 9 18 7.4941 -0.4956
-27 9 19 8.3353 -0.1558
-27 9 20 6.4401 -0.4969
-27 9 21 6.6463 0.0012
-27 9 22 3.8664 -0.5718
-27 9 23 -7.8694 0.0401
-27 9 24 4.6854 -0.0666
-27 9 25 -4.5978 0.2048
-27 9 26 3.4739 0.0617
-26 0 2 5.2097 8.5232
-26 0 4 8.8620 2.5204
-26 0 6 9.7734 -2.8771
-26 0 8 13.3808 -9.7997
-26 0 10 -2.5663 -12.8137
-26 0 12 3.7678 -9.3194
-26 0 14 3.3342 -2.6894
-26 0 16 -1.2622 4.8822
-26 0 20 0.9124 9.6952
-26 0 22 11.5862 5.2643
-26 0 24 11.3916 -1.0784
-26 0 26 5.2850 -6.2923
-26 0 28 -4.9933 -8.3190
-26 0 30 7.3094 -6.1388
-26 0 34 -3.2702 2.8797
-26 0 36 -7.0899 5.4540
-26 0 38 2.1437 5.5447
-26 0 40 -2.1869 3.0788
-26 2 1 -1.1221 -1.0151
-26 2 2 -9.2297 -3.2348
-26 2 3 4.3641 0.1324
-26 2 4 -3.4674 -1.6713
-26 2 5 9.9969 0.0324
-26 2 6 -7.9983 0.2278
-26 2 7 16.7209 -0.5414
-26 2 8 3.7813 2.3328
-26 2 9 -0.8376 0.0053
-26 2 10 -17.8575 3.5561
-26 2 11 7.4519 0.0395
-26 2 12 -7.0661 2.7764
-26 2 13 11.9019 -0.4255
-26 2 15 2.6042 -0.1727
-26 2 16 -15.7687 -1.3218
-26 2 17 -1.6548 -0.1944
-26 2 18 -12.6034 -2.6491
-26 2 19 2.4263 -0.3173
-26 2 20 -7.0404 -2.9036
-26 2 21 4.1873 -0.0881
-26 2 22 -8.0506 -1.5372
-26 2 23 3.3817 0.1566
-26 2 24 2.9972 0.2694
-26 2 25 5.0610 0.1206
-26 2 26 4.8266 1.7577
-26 2 27 -0.8362 0.1951
-26 2 28 -2.6623 2.2429
-26 2 29 1.6366 0.1948
-26 2 30 -4.6584 1.9345
-26 2 31 -0.1210 0.0252
-26 2 32 -4.8681 0.5042
-26 2 33 1.4030 -0.1875
-26 2 34 -1.6459 -0.7127
-26 2 35 -0.9770 -0.0065
-26 2 36 -4.8003 -1.5347
-26 2 37 -2.3396 0.0213
-26 2 38 2.5484 -1.2308
-26 2 39 -1.8004 0.0698
-26 2 40 -4.8424 -0.6585
-26 4 1 -11.8547 -0.0618
-26 4 2 -4.1856 2.0590
-26 4 3 -8.0553 0.0895
-26 4 4 -2.0446 1.2198
-26 4 5 -4.1533 -0.2091
-26 4 6 0.5021 -0.2204
-26 4 7 -8.5741 -0.0193
-26 4 8 1.2207 -1.1322
-26 4 9 -6.8593 0.3426
-26 4 10 -10.1311 -1.9654
-26 4 11 -6.4683 -0.1997
-26 4 12 0.3326 -1.7895
-26 4 13 -4.2484 0.0615
-26 4 14 -3.4767 -0.3293
-26 4 15 0.0036 0.3114
-26 4 16 6.7326 0.9241
-26 4 17 -1.3918 0.0952
-26 4 18 -3.4353 1.3412
-26 4 19 -6.8294 0.0816
-26 4 20 4.1597 1.6976
-26 4 21 4.7461 0.2296
-26 4 22 2.6147 0.9623
-26 4 23 0.3815 -0.0812
-26 4 24 8.3835 -0.1940
-26 4 25 3.7111 -0.1223
-26 4 26 3.3700 -0.6891
-26 4 27 6.6812 -0.0013
-26 4 28 8.3517 -1.0418
-26 4 29 3.6913 -0.0037
-26 4 30 1.4806 -0.8676
-26 4 31 -1.2836 0.1081
-26 4 32 4.3462 -0.0610
-26 4 33 0.4857 0.1583
-26 4 34 2.2980 0.6126
-26 4 35 1.1529 -0.0012
-26 4 36 -4.3843 0.8979
-26 4 37 5.1346 -0.0842
-26 4 38 1.7387 1.1043
-26 4 39 0.8119 -0.0680
-26 6 1 -4.1199 -0.0275
-26 6 2 -4.2671 -1.5031
-26 6 3 6.5916 0.0624
-26 6 4 2.8260 -0.8917
-26 6 5 13.4518 0.1562
-26 6 6 -0.5295 -0.0409
-26 6 7 7.1565 -0.1041
-26 6 8 3.4294 0.9235
-26 6 9 -8.3552 -0.1470
-26 6 10 1.7693 1.2394
-26 6 11 7.0964 -0.0980
-26 6 12 2.3617 1.1209
-26 6 13 -3.4898 0.0780
-26 6 14 3.6029 0.4313
-26 6 15 0.9103 -0.0606
-26 6 16 2.8896 -0.6167
-26 6 17 -3.4143 -0.2393
-26 6 18 2.7868 -1.1447
-26 6 19 -3.7610 -0.0757
-26 6 20 -4.6098 -0.9670
-26 6 21 2.5349 -0.0203
-26 6 22 -0.2343 -0.7005
-26 6 23 1.1959 -0.0949
-26 6 24 1.2665 0.0357
-26 6 25 -5.6128 0.2384
-26 6 26 -0.4895 0.7124
-26 6 27 2.4141 -0.0048
-26 6 28 -4.5351 0.8360
-26 6 29 -6.8154 0.0719
-26 6 30 -6.2781 0.7197
-26 6 31 -2.4968 -0.0732
-26 6 32 -4.0658 0.0198
-26 6 33 2.1203 -0.1009
-26 6 34 -0.3937 -0.3606
-26 6 35 -2.8168 -0.1177
-26 6 36 -4.3226 -0.6082
-26 6 37 2.7651 -0.2611
-26 6 38 3.0412 -0.9493
-26 8 1 8.7707 -0.1057
-26 8 2 12.2468 1.2864
-26 8 3 -2.8617 -0.1421
-26 8 4 5.3621 0.8844
-26 8 5 -0.8793 -0.1119
-26 8 6 -2.4262 0.0376
-26 8 7 -4.8551 0.0392
-26 8 8 -4.1697 -0.6713
-26 8 9 -0.5329 0.1717
-26 8 10 3.9500 -0.9840
-26 8 11 -4.4940 0.0195
-26 8 12 -9.4710 -0.7812
-26 8 13 -4.1948 0.0040
-26 8 14 6.4036 -0.3454
-26 8 15 -2.9803 -0.0006
-26 8 16 -5.5378 0.3174
-26 8 17 2.6110 0.2086
-26 8 18 -0.4634 0.8340
-26 8 19 -7.2952 0.1737
-26 8 20 1.3113 0.8393
-26 8 21 5.9903 0.0113
-26 8 22 -5.8579 0.4794
-26 8 23 8.8832 0.0165
-26 8 24 1.8405 0.0238
-26 8 25 0.7379 0.0125
-26 8 26 0.4976 -0.5555
-26 8 27 6.9666 0.1152
-26 8 28 10.7730 -0.8011
-26 8 29 -8.2696 -0.0152
-26 8 30 12.6046 -0.5037
-26 8 31 -2.4655 0.0564
-26 8 32 1.9190 -0.0762
-26 10 5 -0.5316 0.0410
-26 10 6 -4.4498 -0.1025
-26 10 7 -6.6489 -0.0526
-26 10 8 5.7063 0.5264
-26 10 9 -6.5162 -0.1952
-26 10 10 14.1340 0.8831
-26 10 11 6.2769 -0.1879
-26 10 12 -4.1313 0.7573
-26 10 13 9.0215 -0.1198
-26 10 14 0.5934 0.4498
-26 10 15 -1.9095 -0.0230
-26 10 16 3.4061 -0.3177
-26 10 17 8.0501 -0.0341
-25 1 1 7.0000 3.6779
-25 1 2 -0.3361 1.0584
-25 1 3 9.6114 -1.6044
-25 1 4 0.1387 -0.5374
-25 1 5 3.1960 0.9389
-25 1 6 -15.4817 3.2225
-25 1 7 9.4816 0.8458
-25 1 8 2.3434 3.6647
-25 1 9 4.0581 0.3931
-25 1 10 1.0163 3.1973
-25 1 11 -7.2018 0.6341
-25 1 12 -4.1862 2.1339
-25 1 13 -3.2799 0.1721
-25 1 14 4.4987 -0.1845
-25 1 15 -0.8330 -0.4964
-25 1 16 8.2090 -2.1146
-25 1 17 6.1113 -0.5180
-25 1 20 4.9159 -1.9213
-25 1 21 13.5787 0.0978
-25 1 22 -10.6496 -0.4009
-25 1 23 3.1328 0.5050
-25 1 24 -6.3359 1.3270
-25 1 25 7.5692 0.6984
-25 1 26 2.9816 2.3864
-25 1 27 3.9017 0.5136
-25 1 28 1.1477 2.0496
-25 1 29 8.8946 0.2026
-25 1 30 -6.8430 1.2638
-25 1 31 3.4720 0.0013
-25 1 32 0.7730 -0.2381
-25 1 33 0.2139 -0.3547
-25 1 34 4.1458 -1.2899
-25 1 35 0.8543 -0.5291
-25 1 36 1.3831 -1.6566
-25 1 37 -2.1520 -0.4373
-25 1 38 5.1310 -1.2200
-25 1 39 4.8796 -0.0406
-25 1 40 4.7887 -0.3895
-25 3 1 0.6479 -0.4360
-25 3 2 3.9729 0.2662
-25 3 3 1.1894 -0.3630
-25 3 4 4.1446 -0.1616
-25 3 5 -5.7442 0.6725
-25 3 6 -2.0591 -0.8651
-25 3 7 8.8838 -0.1738
-25 3 8 6.6027 -1.9979
-25 3 9 -1.2803 -0.3150
-25 3 11 -0.5134 -0.0763
-25 3 12 6.3123 -0.9776
-25 3 13 -2.0041 -0.1099
-25 3 14 0.8752 0.3149
-25 3 15 -2.1151 0.3246
-25 3 16 14.5454 1.3647
-25 3 17 9.0289 0.3812
-25 3 18 7.3824 1.6902
-25 3 19 -2.8428 0.1624
-25 3 20 3.5749 1.2707
-25 3 21 -12.2462 -0.1174
-25 3 22 -3.1744 0.3722
-25 3 23 -5.2981 -0.3007
-25 3 24 -7.3057 -0.6744
-25 3 25 -6.6219 -0.3905
-25 3 26 -3.3379 -1.3715
-25 3 27 -4.5029 -0.3545
-25 3 28 -0.2271 -1.1802
-25 3 29 -3.1115 -0.1101
-25 3 30 -1.1941 -0.8293
-25 3 31 -6.8559 0.0411
-25 3 32 -1.8277 -0.1513
-25 3 33 0.9256 0.1334
-25 3 34 2.6789 0.6325
-25 3 35 -1.3583 0.3443
-25 3 36 -6.8337 0.9174
-25 3 37 -1.0686 0.0494
-25 3 38 0.1662 0.5799
-25 3 39 2.0718 -0.0771
-25 3 40 -7.2566 0.0225
-25 5 1 10.0030 0.6416
-25 5 2 3.0832 0.2283
-25 5 3 -6.9102 -0.0740
-25 5 4 0.4549 -0.0179
-25 5 5 -1.1134 -0.2988
-25 5 6 -2.2426 0.7518
-25 5 7 -1.4667 -0.1300
-25 5 8 2.0584 0.9869
-25 5 9 3.3874 0.1240
-25 5 10 1.2016 1.3306
-25 5 11 -0.9908 0.4015
-25 5 12 -4.1268 0.6028
-25 5 13 -2.7751 -0.0091
-25 5 14 -9.1519 -0.1768
-25 5 15 0.2963 -0.0818
-25 5 16 0.0509 -0.8843
-25 5 17 7.6199 -0.1363
-25 5 18 2.2423 -1.1022
-25 5 19 6.0716 -0.0156
-25 5 20 2.2141 -0.8318
-25 5 22 -4.0241 -0.2564
-25 5 23 -0.7210 0.2734
-25 5 24 -8.7303 0.5378
-25 5 25 2.0451 0.2119
-25 5 26 -1.0460 0.7870
-25 5 27 0.9301 0.4112
-25 5 28 -8.9184 0.6856
-25 5 29 7.6766 -0.1030
-25 5 30 5.8714 0.5498
-25 5 31 12.4868 -0.0909
-25 5 32 -3.8528 -0.0109
-25 5 33 3.5023 -0.2460
-25 5 34 0.8751 -0.6481
-25 5 35 2.0960 -0.4032
-25 5 36 1.4530 -0.6978
-25 5 37 4.0842 -0.1017
-25 5 39 2.0439 0.4655
-25 7 1 -4.5190 -0.4191
-25 7 2 -7.2772 -0.1804
-25 7 3 -4.9483 -0.0787
-25 7 4 6.8056 -0.1641
-25 7 5 -11.2491 0.2397
-25 7 6 -9.5730 -0.2998
-25 7 7 4.8721 0.1563
-25 7 8 -3.9626 -0.8128
-25 7 9 0.0096 -0.2829
-25 7 10 0.3219 -0.6937
-25 7 11 13.2570 -0.1677
-25 7 12 -0.3854 -0.5571
-25 7 13 -11.1167 -0.2777
-25 7 14 -3.9541 0.0734
-25 7 15 10.3711 0.1700
-25 7 16 -3.8434 0.7399
-25 7 17 -9.3498 0.0395
-25 7 18 -4.6045 0.9000
-25 7 19 8.0173 -0.0269
-25 7 20 -5.6030 0.6729
-25 7 21 -0.2667 -0.0647
-25 7 22 -1.8583 0.1911
-25 7 23 2.2407 -0.1605
-25 7 24 -9.0650 -0.2199
-25 7 25 -0.0934 -0.3848
-25 7 26 -2.0391 -0.6985
-25 7 27 0.0925 -0.2167
-25 7 28 -4.4061 -0.6428
-25 7 29 -1.9969 -0.0233
-25 7 30 -1.8915 -0.3139
-25 7 31 -5.1100 -0.1609
-25 7 32 0.5871 -0.0570
-25 7 33 -2.5745 0.0253
-25 7 34 2.1527 0.5409
-25 7 36 8.8939 0.8208
-25 9 1 -5.2996 0.2713
-25 9 2 -17.4212 0.0505
-25 9 3 6.1881 0.0645
-25 9 4 12.9748 0.2529
-25 9 5 -0.6964 -0.1910
-25 9 6 7.1003 0.3961
-25 9 7 12.1557 -0.1085
-25 9 8 7.9013 0.5100
-25 9 9 -9.0820 0.0247
-25 9 10 -2.0186 0.6492
-25 9 11 -1.4488 0.1669
-25 9 12 5.3814 0.3379
-25 9 13 6.2132 0.0456
-25 9 14 -14.9933 0.0455
-25 9 15 -1.7441 0.0091
-25 9 16 -0.5506 -0.5602
-25 9 17 12.7139 -0.2926
-25 9 18 -5.6023 -0.7740
-25 9 19 -1.7265 0.0144
-25 9 20 -15.7152 -0.5697
-25 9 21 3.2705 -0.0699
-25 9 22 6.4372 -0.0934
-25 9 23 -3.7318 0.1823
-25 9 24 -2.2761 0.2224
-25 9 25 -3.3015 0.0801
-25 9 26 -7.0380 0.4577
-25 9 27 -5.5763 0.2066
-24 0 2 -17.4759 6.3280
-24 0 4 -1.2758 -4.1589
-24 0 6 -16.6073 -10.7765
-24 0 8 2.0169 -12.9757
-24 0 10 -4.9511 -9.8045
-24 0 12 14.8622 -2.2079
-24 0 14 -6.9950 5.5490
-24 0 16 7.6695 10.4827
-24 0 18 -3.0208 9.9719
-24 0 20 -3.4213 5.0620
-24 0 24 -12.6497 -7.3164
-24 0 26 -15.2783 -9.0351
-24 0 28 0.1372 -6.6606
-24 0 30 -2.3971 -1.6154
-24 0 32 -3.9611 3.3866
-24 0 34 0.8261 6.1404
-24 0 36 -1.4593 5.7928
-24 0 38 -2.2477 3.1672
-24 2 1 -3.6209 -0.7627
-24 2 2 4.0577 -1.6953
-24 2 3 5.1295 0.0512
-24 2 4 22.5889 0.5924
-24 2 5 -7.1847 0.0525
-24 2 6 9.0657 2.3416
-24 2 7 -4.9928 -0.7605
-24 2 8 1.4143 3.3133
-24 2 9 -7.2129 0.0923
-24 2 10 -10.2547 2.7585
-24 2 11 7.0231 -0.2783
-24 2 12 7.9446 0.2562
-24 2 13 4.4750 -0.6018
-24 2 14 -9.4627 -2.0692
-24 2 15 -2.3388 -0.3333
-24 2 16 -10.5732 -3.1498
-24 2 17 -5.6690 -0.3988
-24 2 20 8.1694 -1.6832
-24 2 21 -2.7863 0.1389
-24 2 22 12.5633 0.3206
-24 2 23 0.0287 0.1650
-24 2 24 2.9289 1.9259
-24 2 25 -0.6058 0.1421
-24 2 26 -0.4690 2.3993
-24 2 27 -2.7848 0.0673
-24 2 28 1.1036 1.6111
-24 2 29 3.1500 -0.0569
-24 2 30 10.7144 0.3407
-24 2 31 -1.7524 -0.2163
-24 2 32 -6.4064 -1.0406
-24 2 33 -0.2326 -0.2900
-24 2 34 5.6065 -1.6738
-24 2 35 1.1901 -0.1570
-24 2 36 -2.4280 -1.7407
-24 2 37 4.2664 0.0496
-24 2 38 -2.3302 -0.7186
-24 2 39 1.0428 0.0221
-24 2 40 11.9787 0.0537
-24 4 1 -3.2589 0.0739
-24 4 2 -8.7770 1.2180
-24 4 3 1.9460 0.0010
-24 4 4 2.5448 -0.2504
-24 4 5 -2.0608 -0.0123
-24 4 6 6.8951 -1.4555
-24 4 7 -3.7781 0.2594
-24 4 8 -6.8034 -1.8452
-24 4 9 3.0571 0.3118
-24 4 10 -6.1919 -1.6278
-24 4 11 -0.8228 -0.1834
-24 4 12 12.3018 -0.6081
-24 4 13 2.1625 0.1029
-24 4 14 3.2048 1.1857
-24 4 15 -7.4340 0.4837
-24 4 16 -8.0408 1.6976
-24 4 17 -15.3692 -0.1006
-24 4 18 -7.5358 1.5356
-24 4 19 0.0384 0.0541
-24 4 20 -7.2153 1.0740
-24 4 21 -0.9488 0.0565
-24 4 22 9.1699 -0.2121
-24 4 23 1.5266 -0.2093
-24 4 24 0.9285 -1.1647
-24 4 25 7.1634 -0.0669
-24 4 26 3.3464 -1.3576
-24 4 27 3.0466 -0.0203
-24 4 28 -2.5139 -1.0369
-24 4 29 -6.3648 0.0353
-24 4 30 -14.9740 -0.2627
-24 4 31 -4.4245 0.1125
-24 4 32 2.5484 0.6622
-24 4 33 -3.0006 0.2153
-24 4 34 -3.8581 1.0214
-24 4 35 -4.1804 0.2060
-24 4 36 -2.6888 1.0190
-24 4 37 -5.5982 0.1315
-24 4 38 -3.1560 0.4582
-24 4 39 -2.4447 0.0371
-24 6 1 6.2951 0.0263
-24 6 2 -3.1583 -0.9705
-24 6 3 10.0429 0.0702
-24 6 4 8.2497 -0.0320
-24 6 5 13.2026 -0.1059
-24 6 6 2.3633 1.0859
-24 6 7 2.9334 -0.0184
-24 6 8 3.5090 1.2680
-24 6 9 0.5264 -0.1985
-24 6 10 -4.4891 1.0236
-24 6 11 1.1722 0.1165
-24 6 12 11.8830 0.3845
-24 6 13 1.5853 0.0871
-24 6 14 3.1542 -0.6631
-24 6 15 -4.0235 -0.1882
-24 6 17 2.8955 -0.2121
-24 6 18 -2.7201 -1.1935
-24 6 19 -4.4878 0.0978
-24 6 20 -4.4980 -0.6728
-24 6 21 1.5223 -0.0079
-24 6 22 5.5003 -0.0146
-24 6 23 0.5608 0.0550
-24 6 24 1.1944 0.7100
-24 6 25 -1.2895 0.1377
-24 6 26 1.3155 0.9356
-24 6 27 -0.9272 -0.0054
-24 6 28 12.3566 0.6287
-24 6 29 -3.4385 -0.0035
-24 6 30 2.2252 0.1504
-24 6 31 -7.8961 -0.0252
-24 6 32 8.0161 -0.5305
-24 6 33 0.7338 -0.1341
-24 6 34 -1.3801 -0.8617
-24 6 36 4.3133 -0.6389
-24 6 37 -1.7777 0.2455
-24 6 38 -1.9785 -0.1274
-24 6 39 3.6662 -0.2226
-24 8 1 -7.2439 -0.0713
-24 8 2 1.2257 0.8991
-24 8 3 -5.9521 -0.0163
-24 8 4 -1.8720 -0.0267
-24 8 5 -13.6096 -0.0435
-24 8 6 -3.1854 -0.7152
-24 8 7 -6.4444 0.1278
-24 8 8 4.3239 -1.0777
-24 8 9 -2.5530 0.1653
-24 8 10 -1.8637 -0.7764
-24 8 11 -4.0580 0.0427
-24 8 12 -8.2457 -0.3308
-24 8 13 3.2801 -0.0318
-24 8 14 4.1183 0.3809
-24 8 15 -6.4619 0.1387
-24 8 16 -30.2928 0.9477
-24 8 17 6.6928 0.2398
-24 8 18 15.9827 1.0273
-24 8 19 -10.5221 0.0672
-24 8 20 -6.2071 0.5454
-24 8 21 -4.0818 -0.0994
-24 8 22 -0.7478 -0.0493
-24 8 23 -4.8412 -0.1022
-24 8 24 6.3734 -0.5385
-24 8 25 8.7103 0.1094
-24 8 26 7.7236 -0.7936
-24 8 27 -4.1082 -0.1559
-24 8 28 -3.9207 -0.3938
-24 8 29 -6.4279 0.2909
-24 8 30 -3.3644 -0.0147
-24 8 31 4.0208 0.2544
-24 8 32 -2.8041 0.1691
-24 8 33 -0.4447 0.0399
-24 10 1 -5.5885 0.2297
-24 10 2 3.0523 -0.6708
-24 10 3 6.5469 0.0171
-24 10 6 -3.4930 0.7840
-24 10 7 -0.7702 -0.1885
-24 10 8 -1.1432 0.8923
-24 10 9 13.4359 -0.2191
-24 10 10 -4.5271 0.6921
-24 10 11 1.0563 -0.1186
-24 10 12 0.9438 0.2893
-24 10 13 -0.5752 0.0583
-24 10 14 1.5221 -0.2451
-24 10 15 4.3294 -0.0390
-24 10 16 -7.9423 -0.7119
-24 10 17 -5.3317 -0.1088
-24 10 18 7.6278 -0.8227
-24 10 19 2.0385 -0.0259
-24 10 20 10.2612 -0.5260
-24 10 21 1.4086 0.1353
-23 1 1 -17.2102 2.0887
-23 1 2 -7.5316 -0.7265
-23 1 3 -12.7339 -1.0576
-23 1 4 0.0708 1.5017
-23 1 5 -16.1529 0.9528
-23 1 6 5.0493 4.0587
-23 1 7 3.2741 0.6575
-23 1 8 13.8934 3.3175
-23 1 9 -11.9276 0.3700
-23 1 10 -4.2393 1.4807
-23 1 11 0.1095 0.2347
-23 1 12 -5.5833 -0.3442
-23 1 13 -5.4740 -0.2452
-23 1 14 0.1162 -2.1746
-23 1 15 3.8920 -0.3780
-23 1 16 -1.4914 -2.8960
-23 1 17 6.3490 -0.1818
-23 1 18 4.2883 -1.8250
-23 1 19 3.1239 0.3774
-23 1 20 -12.9642 -0.3419
-23 1 21 -1.3493 0.6325
-23 1 22 -5.9286 1.6341
-23 1 24 3.5938 2.5224
-23 1 25 -3.1755 0.6053
-23 1 26 4.0710 2.3870
-23 1 27 -2.2379 0.2396
-23 1 28 -15.5702 1.3711
-23 1 29 -4.0074 -0.3408
-23 1 30 -4.7873 -0.2218
-23 1 31 -2.2077 -0.4537
-23 1 32 2.9307 -1.4371
-23 1 33 3.3769 -0.5617
-23 1 34 -5.3286 -1.9265
-23 1 35 1.0927 -0.3224
-23 1 36 -5.0185 -1.2005
-23 1 37 0.0716 0.1926
-23 1 38 -0.3054 -0.4902
-23 1 39 -0.9136 0.3522
-23 3 1 3.1066 -0.4552
-23 3 2 -5.3454 -0.0396
-23 3 3 11.0538 0.1265
-23 3 4 -14.8357 -0.5288
-23 3 5 2.3760 0.6794
-23 3 6 -8.6742 -2.0273
-23 3 7 12.1075 -0.6378
-23 3 8 11.1667 -1.8059
-23 3 9 -4.6059 -0.0874
-23 3 10 3.0255 -0.5470
-23 3 11 -1.9673 0.1217
-23 3 12 -3.7518 0.2758
-23 3 13 1.0703 0.1265
-23 3 14 13.2437 1.4594
-23 3 15 4.6869 0.4065
-23 3 16 20.5716 1.7540
-23 3 19 -4.9076 0.0040
-23 3 20 -6.3030 0.2460
-23 3 21 2.1663 -0.2404
-23 3 22 -7.0828 -0.7906
-23 3 23 -7.5417 -0.1738
-23 3 24 -2.7515 -1.4451
-23 3 25 -8.1948 -0.2196
-23 3 26 5.2291 -1.3257
-23 3 27 -3.3929 0.0653
-23 3 28 2.7040 -0.6212
-23 3 29 0.0180 0.1008
-23 3 30 6.1090 0.1691
-23 3 31 -2.7806 0.3121
-23 3 32 2.5116 0.8618
-23 3 33 3.5297 0.3057
-23 3 34 -0.7722 0.8879
-23 3 35 0.3933 0.2280
-23 3 36 6.2890 0.9794
-23 3 37 -3.4377 -0.1296
-23 3 38 -5.4204 0.1188
-23 3 39 -1.4001 -0.2292
-23 5 1 -9.7684 0.4409
-23 5 2 -3.8425 0.2947
-23 5 3 -5.5110 -0.2933
-23 5 4 -5.2129 0.4753
-23 5 5 1.5705 -0.2059
-23 5 6 -4.2151 1.0354
-23 5 7 0.6269 0.0114
-23 5 8 2.6192 1.0780
-23 5 9 1.7931 0.3688
-23 5 10 -8.5053 0.5930
-23 5 11 2.2387 0.1191
-23 5 12 -15.6854 -0.3921
-23 5 13 0.0418 -0.1420
-23 5 14 -2.3902 -0.8695
-23 5 15 8.5116 -0.1106
-23 5 16 -2.8052 -1.2708
-23 5 17 2.5569 -0.1006
-23 5 18 0.2773 -0.9470
-23 5 19 -3.9030 0.1206
-23 5 20 -9.2866 -0.2810
-23 5 21 -1.7415 0.2020
-23 5 22 -9.4352 0.4786
-23 5 23 -3.8122 0.2597
-23 5 24 0.9082 0.9936
-23 5 25 -5.5665 0.1222
-23 5 26 -4.9505 0.8927
-23 5 27 -5.7664 0.0469
-23 5 28 5.3544 0.3689
-23 5 29 -4.4856 -0.1353
-23 5 30 4.5671 -0.0886
-23 5 31 2.1557 -0.1487
-23 5 32 -2.2303 -0.5823
-23 5 33 -2.6524 -0.1034
-23 5 34 3.4155 -0.7673
-23 5 35 1.4291 -0.0285
-23 5 36 1.0745 -0.5153
-23 5 37 -4.2029 -0.0620
-23 5 38 -2.3584 -0.3326
-23 5 39 -3.2588 0.3334
-23 7 1 -6.7599 -0.3127
-23 7 2 -0.0612 -0.2536
-23 7 3 -1.2417 0.2010
-23 7 4 -1.0591 -0.3796
-23 7 5 0.1101 0.3586
-23 7 6 -0.9432 -0.6324
-23 7 7 -0.0127 -0.1106
-23 7 8 2.1446 -0.7041
-23 7 9 -3.2760 -0.2456
-23 7 10 3.7949 -0.3149
-23 7 11 3.0510 -0.1921
-23 7 12 -7.4587 0.1083
-23 7 13 3.7383 -0.0502
-23 7 14 1.5588 0.8341
-23 7 15 14.0624 0.1755
-23 7 16 10.4072 0.9934
-23 7 17 -5.8486 0.1140
-23 7 18 3.8827 0.7678
-23 7 19 0.4249 -0.0702
-23 7 20 9.0531 0.1298
-23 7 21 2.7600 -0.0559
-23 7 22 3.6706 -0.3595
-23 7 23 -9.8050 0.0344
-23 7 24 6.8526 -0.6890
-23 7 25 -1.6055 -0.2884
-23 7 26 2.8874 -0.7542
-23 7 27 11.8234 0.1033
-23 7 28 -1.8800 -0.3653
-23 7 29 -1.8918 0.3443
-23 7 30 5.0291 0.1404
-23 7 31 5.9082 0.1597
-23 7 32 0.0702 0.1655
-23 7 33 1.3877 0.3921
-23 7 34 -9.1950 0.7479
-23 7 35 7.7666 0.0996
-23 7 36 -3.3835 0.7041
-23 9 1 5.7039 0.1599
-23 9 2 -16.8633 0.3135
-23 9 3 4.6161 -0.0660
-23 9 5 9.2316 -0.1565
-23 9 6 -6.8591 0.3225
-23 9 7 -3.9607 -0.0062
-23 9 8 -1.3790 0.4512
-23 9 9 -2.1762 0.2238
-23 9 10 -2.1834 0.3058
-23 9 11 0.3365 0.0973
-23 9 12 -8.4318 -0.1608
-23 9 13 -7.0358 0.0935
-23 9 14 -1.2874 -0.5765
-23 9 15 -21.2470 -0.1002
-23 9 16 16.2034 -0.9639
-23 9 17 0.0641 -0.1106
-23 9 19 0.7058 0.1224
-23 9 20 1.0861 -0.2721
-23 9 21 -8.0394 0.1981
-23 9 22 -6.7895 0.2064
-23 9 23 -2.5178 0.2180
-23 9 24 -15.3476 0.4420
-23 9 25 -12.6536 0.1202
-23 9 26 -11.9861 0.5446
-23 9 27 2.8482 0.0748
-23 9 28 -1.5717 0.3303
-23 9 29 -2.9745 -0.2923
-22 0 4 9.0358 -9.0083
-22 0 6 -21.2550 -13.1910
-22 0 8 6.1700 -9.1221
-22 0 10 -0.6583 -1.0356
-22 0 12 6.1910 6.6068
-22 0 14 12.4251 11.2387
-22 0 16 -7.6473 10.5887
-22 0 18 -6.6038 4.7071
-22 0 20 16.4543 -2.5569
-22 0 22 6.2908 -8.1389
-22 0 24 -6.7598 -9.8456
-22 0 28 19.3257 -1.3284
-22 0 30 -5.0812 4.0097
-22 0 32 -7.3389 6.7733
-22 0 34 -0.9038 6.2157
-22 0 36 -4.8533 3.0536
-22 2 1 -4.0100 0.1736
-22 2 2 1.5367 0.7409
-22 2 3 17.1719 0.0500
-22 2 4 7.0860 2.7421
-22 2 5 1.5193 0.1357
-22 2 6 -20.2737 3.3047
-22 2 7 6.9595 -0.4368
-22 2 8 -5.5577 2.6252
-22 2 9 11.1634 -0.0089
-22 2 10 -7.7630 0.3324
-22 2 11 5.8965 -0.4060
-22 2 12 -2.8916 -2.4275
-22 2 13 -3.3092 -0.5845
-22 2 14 -16.9208 -3.5117
-22 2 15 -14.9577 -0.1803
-22 2 16 -9.8252 -3.2541
-22 2 17 -7.2881 -0.3376
-22 2 18 2.7064 -1.7870
-22 2 19 -6.9338 -0.1865
-22 2 20 16.8494 0.5005
-22 2 21 -1.2915 0.1185
-22 2 22 0.3072 2.0559
-22 2 23 1.6637 -0.0067
-22 2 24 -7.6018 2.5583
-22 2 25 -0.2867 -0.0232
-22 2 26 5.6094 1.8055
-22 2 27 -4.1050 -0.1789
-22 2 28 15.8242 0.2436
-22 2 29 -4.0056 -0.1895
-22 2 30 -8.7921 -1.2759
-22 2 31 -4.0156 -0.2998
-22 2 32 5.6640 -1.8371
-22 2 33 -6.4904 -0.2329
-22 2 34 2.3389 -1.9105
-22 2 35 -2.8956 -0.1388
-22 2 36 1.0915 -0.9144
-22 2 37 -2.8498 0.1361
-22 2 38 11.2789 0.1245
-22 2 39 1.8318 -0.0057
-22 4 1 -5.1499 0.1716
-22 4 2 3.0924 -0.2580
-22 4 3 -10.9097 -0.1319
-22 4 4 5.0634 -1.6417
-22 4 5 -10.7811 0.0832
-22 4 6 -4.7490 -1.8257
-22 4 7 -2.2069 0.2694
-22 4 8 -11.6377 -1.4796
-22 4 9 6.2504 0.0677
-22 4 10 3.1570 -0.2322
-22 4 11 -1.5106 -0.2224
-22 4 12 10.7346 0.9966
-22 4 13 3.4516 0.1818
-22 4 15 1.6901 0.2615
-22 4 16 -2.2771 1.7280
-22 4 17 11.8944 -0.2276
-22 4 18 1.3955 0.7816
-22 4 19 15.2043 -0.0357
-22 4 20 15.8204 -0.1878
-22 4 21 4.5379 -0.0688
-22 4 22 8.1921 -1.2854
-22 4 23 16.4011 -0.2388
-22 4 24 -9.5054 -1.5163
-22 4 25 6.3383 -0.1223
-22 4 26 5.0134 -0.9510
-22 4 27 5.9098 0.0140
-22 4 28 -14.7849 -0.0828
-22 4 29 3.4256 0.1506
-22 4 30 -2.1768 0.5977
-22 4 31 1.6051 0.1139
-22 4 32 1.0818 1.1414
-22 4 33 2.3704 0.0315
-22 4 34 0.5880 0.9695
-22 4 35 1.5297 0.0512
-22 4 36 -2.6307 0.4295
-22 4 37 2.9263 -0.0434
-22 4 39 2.6638 -0.0487
-22 6 1 8.9634 -0.0518
-22 6 2 4.4047 0.1110
-22 6 3 7.7583 -0.0370
-22 6 4 7.6383 0.9664
-22 6 5 -0.5794 -0.0501
-22 6 6 -1.7422 1.5934
-22 6 7 -5.8687 -0.1683
-22 6 8 8.9852 0.8758
-22 6 9 2.2661 -0.1063
-22 6 10 7.5329 0.2803
-22 6 11 4.2819 0.1769
-22 6 12 10.6807 -0.6302
-22 6 13 -3.5659 -0.0737
-22 6 14 -8.6092 -1.4696
-22 6 15 -6.3966 -0.2297
-22 6 16 0.1452 -1.4247
-22 6 17 -3.9685 -0.0404
-22 6 18 3.6526 -0.5871
-22 6 19 0.3477 0.1724
-22 6 20 3.1474 0.2175
-22 6 21 -11.2334 -0.0557
-22 6 22 5.7797 0.6964
-22 6 23 -4.0998 0.1336
-22 6 24 -9.3388 1.1047
-22 6 25 -8.6489 0.1364
-22 6 26 -1.9864 0.6454
-22 6 27 2.5190 -0.1704
-22 6 28 -3.4463 0.1224
-22 6 29 -3.5144 -0.1214
-22 6 30 -6.2536 -0.4477
-22 6 31 -2.0752 -0.0492
-22 6 32 -0.6332 -0.7323
-22 6 33 1.6029 -0.1188
-22 6 34 -2.5381 -0.5528
-22 6 35 3.0219 -0.0370
-22 6 36 -6.1681 -0.3177
-22 6 37 9.4530 0.1353
-22 6 38 1.1405 0.1685
-22 8 1 0.9915 -0.0057
-22 8 2 -0.0061 0.0482
-22 8 3 -0.9083 0.0664
-22 8 4 2.3971 -0.8426
-22 8 5 -2.8288 0.0773
-22 8 6 -1.8703 -1.0956
-22 8 7 15.6297 0.1925
-22 8 8 -3.8721 -0.8615
-22 8 9 0.8050 0.0049
-22 8 10 -0.4240 -0.1670
-22 8 11 8.0308 -0.0603
-22 8 12 14.4961 0.4925
-22 8 13 0.7569 0.0237
-22 8 14 16.1998 0.9700
-22 8 15 18.4848 0.1507
-22 8 16 -0.9316 1.1577
-22 8 18 11.7849 0.5545
-22 8 19 7.2372 -0.1232
-22 8 20 -3.7302 -0.2237
-22 8 21 5.6561 -0.1779
-22 8 22 -2.9676 -0.5073
-22 8 23 34.8963 -0.1000
-22 8 24 9.1419 -0.7447
-22 8 25 -2.2871 0.0121
-22 8 26 0.0411 -0.6569
-22 8 27 4.7032 0.0028
-22 8 28 -2.6825 0.0414
-22 8 29 11.3336 0.1462
-22 8 30 -13.4925 0.3706
-22 8 31 -1.7513 -0.1783
-22 8 32 6.4266 0.3774
-22 8 33 13.4171 -0.1356
-22 10 1 -2.5879 -0.0051
-22 10 2 -4.4495 -0.0649
-22 10 3 1.5296 -0.0375
-22 10 4 -8.8166 0.6404
-22 10 5 -9.8341 -0.1902
-22 10 6 -12.2425 0.9712
-22 10 7 -2.3152 -0.0859
-22 10 8 -1.4945 0.6325
-22 10 9 -3.3210 -0.0486
-22 10 10 2.6072 0.2317
-22 10 11 -4.2167 -0.0401
-22 10 12 21.5495 -0.2492
-22 10 13 10.3104 -0.0481
-22 10 14 -17.4196 -0.6205
-22 10 15 1.7341 -0.1939
-22 10 16 7.8804 -0.8935
-22 10 17 -14.0352 -0.1330
-22 10 18 9.9510 -0.5177
-22 10 19 -0.2796 0.0900
-22 10 20 -8.0748 0.0995
-22 10 21 -6.7310 0.0933
-22 10 22 0.4787 0.6041
-22 10 23 -4.8793 0.1610
-21 1 1 -4.7366 -0.8681
-21 1 2 -27.9238 -2.1276
-21 1 3 -6.2301 0.1074
-21 1 5 -8.3587 0.4754
-21 1 6 1.9301 2.5862
-21 1 7 -1.2084 0.0093
-21 1 8 -6.4112 1.1916
-21 1 9 -21.9615 0.2352
-21 1 10 -12.3338 -1.1076
-21 1 11 -0.1201 -0.3399
-21 1 12 4.1864 -2.5084
-21 1 13 9.1322 -0.4883
-21 1 14 4.6084 -3.0538
-21 1 15 6.5123 -0.1628
-21 1 16 18.5669 -1.9906
-21 1 17 0.5916 0.2707
-21 1 18 -7.3760 -0.0229
-21 1 19 2.0208 0.7281
-21 1 20 -11.3720 1.7506
-21 1 21 7.4397 0.8686
-21 1 22 9.4871 2.8119
-21 1 23 2.9596 0.6360
-21 1 24 4.3837 2.5103
-21 1 25 -3.6955 0.1680
-21 1 26 -10.9178 1.2999
-21 1 27 4.2364 -0.1253
-21 1 28 -4.4083 -0.4081
-21 1 29 -0.0414 -0.5287
-21 1 30 10.6595 -1.6005
-21 1 31 -4.1437 -0.3548
-21 1 32 6.4350 -1.9838
-21 1 33 -0.6276 -0.1959
-21 1 34 5.2094 -1.3111
-21 1 35 -6.8649 0.1237
-21 1 36 2.0130 -0.2441
-21 1 37 -2.1289 0.4330
-21 1 38 4.1156 0.6998
-21 1 39 -2.3406 0.4586
-21 3 1 6.4797 -0.2541
-21 3 2 -0.7475 -0.4020
-21 3 3 9.1346 0.5174
-21 3 4 10.1001 -0.7224
-21 3 5 0.8834 0.2695
-21 3 6 14.1495 -2.0280
-21 3 7 5.6109 -0.7997
-21 3 8 18.7340 -0.4803
-21 3 9 -12.1994 0.1617
-21 3 10 3.9682 0.7880
-21 3 11 1.9980 0.2304
-21 3 12 8.2644 1.4789
-21 3 13 3.3757 0.2742
-21 3 14 8.3753 1.9234
-21 3 15 4.5930 0.3805
-21 3 16 3.3780 1.3691
-21 3 17 -2.0522 0.1256
-21 3 18 -25.1625 0.2801
-21 3 19 -2.4394 -0.1224
-21 3 20 -16.6872 -0.9201
-21 3 21 -4.1572 -0.2619
-21 3 22 -0.0429 -1.2922
-21 3 23 -7.7864 -0.0598
-21 3 24 -1.2562 -1.2588
-21 3 25 6.2774 0.1375
-21 3 26 -4.3026 -0.5479
-21 3 27 8.5448 0.3519
-21 3 28 -5.2951 0.3187
-21 3 29 3.9398 0.4435
-21 3 30 1.0202 1.1281
-21 3 31 5.2964 0.4296
-21 3 32 -5.6890 1.0017
-21 3 33 4.6180 0.1687
-21 3 34 -1.1979 0.8700
-21 3 35 1.5833 -0.0421
-21 3 36 -4.3463 0.3366
-21 3 37 -2.3052 -0.1839
-21 3 38 -11.4177 -0.4306
-21 3 39 -1.0558 -0.1806
-21 5 1 -6.0162 -0.0123
-21 5 2 -11.1094 0.1927
-21 5 3 0.0311 -0.5322
-21 5 4 1.8188 0.7930
-21 5 5 7.1829 -0.0174
-21 5 6 1.9269 0.7318
-21 5 7 -9.5060 0.1454
-21 5 8 -6.5008 0.4979
-21 5 9 0.4356 0.4203
-21 5 10 -20.4727 -0.3944
-21 5 11 5.3699 -0.1660
-21 5 12 -3.6369 -1.1636
-21 5 13 10.0355 -0.2241
-21 5 14 7.2540 -1.1899
-21 5 15 2.1367 -0.1963
-21 5 16 3.4646 -1.0244
-21 5 17 -1.9607 0.0019
-21 5 18 1.8532 -0.1773
-21 5 19 -2.1655 0.0750
-21 5 20 -4.3116 0.6185
-21 5 21 6.9817 0.1242
-21 5 22 9.7851 1.1221
-21 5 23 -6.5853 0.1542
-21 5 24 9.6764 0.9825
-21 5 25 5.8738 -0.1064
-21 5 26 3.4126 0.3648
-21 5 27 -4.9712 -0.1919
-21 5 28 8.5437 -0.1334
-21 5 29 9.1509 -0.2658
-21 5 30 3.9037 -0.6533
-21 5 31 -2.3261 -0.4383
-21 5 32 4.6095 -0.8390
-21 5 33 3.9551 -0.0218
-21 5 34 0.1995 -0.6618
-21 5 36 1.5261 -0.2964
-21 5 37 0.9636 0.0042
-21 5 38 -5.3419 0.2511
-21 7 1 -8.2299 -0.0391
-21 7 2 -6.8846 -0.2760
-21 7 3 4.5671 0.3180
-21 7 4 -4.2822 -0.3977
-21 7 5 -8.7650 0.2766
-21 7 6 -13.1875 -0.5547
-21 7 7 4.6282 -0.2831
-21 7 8 0.6435 -0.1121
-21 7 9 -6.5529 -0.1049
-21 7 10 -3.8958 0.2265
-21 7 11 7.4193 -0.1379
-21 7 12 3.0673 0.7991
-21 7 13 -12.7074 0.3032
-21 7 14 -8.6156 1.1616
-21 7 15 1.2494 0.0836
-21 7 16 2.6579 0.8288
-21 7 17 -4.2292 0.0619
-21 7 18 -0.8614 0.2933
-21 7 19 5.1975 -0.1023
-21 7 20 -10.5796 -0.5104
-21 7 21 7.7951 -0.0929
-21 7 22 -10.4002 -0.7349
-21 7 23 -11.9058 -0.0384
-21 7 24 -9.0889 -0.7510
-21 7 25 12.0544 -0.1127
-21 7 26 -10.7671 -0.4062
-21 7 27 -5.3908 0.2542
-21 7 28 -1.2920 0.2189
-21 7 29 7.9702 0.3202
-21 7 30 -1.7631 0.4959
-21 7 31 0.3814 0.1125
-21 7 32 -9.4324 0.6256
-21 7 34 7.7319 0.4420
-21 7 35 -15.2040 0.0267
-21 7 36 8.3410 0.3634
-21 7 37 -2.9259 -0.2090
-21 9 1 5.6761 0.0542
-21 9 2 -3.1261 0.2629
-21 9 3 6.6230 -0.2281
-21 9 4 17.3728 0.2525
-21 9 5 5.3023 -0.0865
-21 9 6 6.1870 0.1889
-21 9 7 -4.6819 0.1340
-21 9 8 10.0124 0.0760
-21 9 9 0.2750 0.3233
-21 9 10 2.2443 -0.2979
-21 9 11 -4.3092 0.0688
-21 9 12 0.1100 -0.5794
-21 9 13 1.1687 0.0385
-21 9 14 19.4674 -0.8998
-21 9 15 0.1820 -0.2259
-21 9 16 8.0117 -0.7979
-21 9 17 13.5881 0.0021
-21 9 18 -0.7700 -0.0686
-21 9 19 -1.9556 -0.0110
-21 9 20 10.5457 0.2755
-21 9 21 -13.4554 0.1259
-21 9 22 9.4872 0.6659
-21 9 23 -2.1217 0.0897
-21 9 24 -3.1212 0.4816
-21 9 25 -4.9255 -0.0599
-21 9 26 -0.7184 0.5122
-21 9 27 -6.0497 -0.0405
-21 9 28 14.3105 -0.2275
-21 9 29 3.4041 -0.3706
-21 9 30 12.9041 -0.3130
-21 11 7 -7.8290 -0.0261
-21 11 8 1.4426 -0.0073
-21 11 9 2.0239 -0.1178
-21 11 10 -3.5727 0.1537
-20 0 2 17.2510 -6.3315
-20 0 4 -5.4648 -9.2971
-20 0 6 7.0755 -8.4296
-20 0 10 12.9756 8.9297
-20 0 12 16.7352 12.2932
-20 0 14 -5.8997 11.0100
-20 0 16 -0.0160 4.8255
-20 0 18 21.8736 -3.3645
-20 0 20 7.7560 -9.1896
-20 0 22 2.2119 -10.3690
-20 0 24 5.3404 -7.1420
-20 0 26 16.9946 -1.0806
-20 0 30 -8.6521 7.5683
-20 0 32 3.5467 6.6563
-20 0 34 3.8130 3.0072
-20 0 36 -8.5021 -1.3758
-20 0 38 7.2747 -4.5856
-20 2 1 -16.7799 1.0002
-20 2 2 0.6091 2.9879
-20 2 3 8.9892 -0.1391
-20 2 4 -17.9380 3.5670
-20 2 5 -15.5768 -0.0967
-20 2 6 -15.1981 2.4691
-20 2 7 1.7433 0.0479
-20 2 8 -13.0558 0.4343
-20 2 9 -2.9659 0.0433
-20 2 10 -10.2241 -2.1980
-20 2 11 -2.5053 -0.3943
-20 2 12 -16.9720 -3.9166
-20 2 13 -14.4261 -0.2385
-20 2 14 -15.3011 -3.0843
-20 2 15 2.8914 0.0619
-20 2 16 -3.0834 -1.5384
-20 2 17 5.6986 -0.0183
-20 2 18 24.8614 0.6069
-20 2 19 -2.3271 0.1356
-20 2 20 5.4867 2.4935
-20 2 21 4.1546 0.1389
-20 2 22 3.5704 2.7779
-20 2 23 1.1690 -0.1061
-20 2 24 -8.7830 1.7695
-20 2 25 -2.2913 -0.2099
-20 2 26 20.9183 0.1053
-20 2 27 -3.8133 -0.3709
-20 2 28 -11.0560 -1.5025
-20 2 29 3.7471 -0.4215
-20 2 30 -6.0748 -2.3786
-20 2 31 0.4297 -0.3017
-20 2 32 -4.7569 -1.7517
-20 2 33 2.4051 -0.3091
-20 2 34 -3.1267 -0.9703
-20 2 35 6.8327 0.0427
-20 2 36 5.1933 0.4801
-20 2 37 5.0858 -0.0237
-20 2 38 -1.9341 1.1672
-20 4 1 -8.8451 0.0825
-20 4 2 0.5765 -1.6105
-20 4 3 -5.6502 -0.4349
-20 4 4 -2.5369 -2.1540
-20 4 5 -0.5887 0.2220
-20 4 6 -6.4574 -1.2129
-20 4 7 9.3867 0.1175
-20 4 8 0.9360 -0.3150
-20 4 9 7.7277 -0.2345
-20 4 10 -0.7930 1.2651
-20 4 11 -10.0358 -0.0089
-20 4 12 0.0286 2.1998
-20 4 13 -0.9295 0.2045
-20 4 14 -9.2248 2.0548
-20 4 15 -1.1594 0.0335
-20 4 16 -3.8877 0.7662
-20 4 17 -3.3770 -0.2390
-20 4 18 14.7770 -0.4035
-20 4 19 -0.0011 -0.0951
-20 4 20 1.1046 -1.3618
-20 4 21 1.2120 -0.1364
-20 4 22 -0.2560 -1.7594
-20 4 23 5.7173 -0.0596
-20 4 24 -2.5944 -1.0690
-20 4 25 -3.9135 0.0505
-20 4 26 1.4714 -0.1548
-20 4 27 -3.3863 0.0040
-20 4 28 -2.2106 0.7869
-20 4 29 -7.2442 0.1397
-20 4 30 -4.1341 1.0561
-20 4 31 -6.5827 -0.0117
-20 4 32 6.1581 0.9538
-20 4 33 -3.2371 -0.0732
-20 4 34 -2.4760 0.3126
-20 4 35 1.3922 -0.1221
-20 4 36 2.9528 -0.3011
-20 4 37 -5.0949 -0.0711
-20 4 38 1.0114 -0.7761
-20 6 1 5.2968 0.0313
-20 6 2 2.8134 1.0884
-20 6 3 8.0139 -0.0121
-20 6 4 5.6389 1.3617
-20 6 5 2.1159 -0.2177
-20 6 6 6.2902 1.1381
-20 6 7 0.0386 -0.0688
-20 6 8 18.3676 -0.0545
-20 6 9 -1.5850 0.0144
-20 6 10 5.2395 -0.7331
-20 6 11 -28.1351 0.1608
-20 6 12 7.9854 -1.4673
-20 6 13 4.4605 -0.1735
-20 6 14 4.4887 -1.5272
-20 6 15 -6.3533 -0.2087
-20 6 16 2.5571 -0.6802
-20 6 17 5.0184 0.1453
-20 6 18 -1.7775 0.4035
-20 6 19 -0.0463 0.1423
-20 6 20 -0.0182 0.9303
-20 6 21 -5.2338 0.0718
-20 6 22 -1.8548 1.1171
-20 6 23 23.9492 0.0809
-20 6 24 0.2465 0.8356
-20 6 25 -7.1944 0.0173
-20 6 26 5.2178 0.0098
-20 6 27 7.8393 -0.1821
-20 6 28 1.3705 -0.4489
-20 6 29 -6.4022 0.0663
-20 6 30 -8.1567 -0.8497
-20 6 31 1.7011 -0.1179
-20 6 32 -1.2687 -0.5892
-20 6 33 0.1909 -0.0720
-20 6 34 2.8185 -0.2294
-20 6 35 0.5743 -0.1267
-20 6 36 -1.4431 0.3753
-20 6 37 -7.3118 0.1541
-20 8 1 -9.5121 0.0803
-20 8 2 6.1679 -0.8942
-20 8 3 -3.4618 0.0843
-20 8 4 -12.0959 -1.1348
-20 8 5 2.6178 0.0607
-20 8 6 0.8966 -0.8221
-20 8 7 -0.4155 0.0661
-20 8 8 -5.9861 -0.1332
-20 8 9 -5.4342 -0.0920
-20 8 10 -4.2805 0.5605
-20 8 11 -5.0706 -0.1169
-20 8 12 0.3383 1.0254
-20 8 13 -20.7602 0.0026
-20 8 14 -18.8447 1.0643
-20 8 15 -5.4090 0.2132
-20 8 16 -12.9313 0.5810
-20 8 17 0.0197 -0.0541
-20 8 18 3.3012 -0.2865
-20 8 19 2.9322 -0.1897
-20 8 20 11.4636 -0.8081
-20 8 21 -3.1940 -0.2138
-20 8 22 1.2176 -0.8022
-20 8 23 2.1283 0.0042
-20 8 24 19.2236 -0.5769
-20 8 25 -12.2617 -0.0249
-20 8 26 1.8059 -0.2308
-20 8 27 -0.5726 0.0345
-20 8 28 -8.2984 0.6210
-20 8 29 -23.7631 0.0737
-20 8 30 5.7106 0.6071
-20 8 31 -11.1953 0.1094
-20 8 32 8.9283 0.4310
-20 8 33 4.8358 -0.2897
-20 10 1 2.5757 -0.1356
-20 10 2 -16.3467 0.6074
-20 10 3 6.4024 -0.1049
-20 10 4 16.4231 0.9682
-20 10 5 4.9308 -0.1542
-20 10 6 2.0386 0.7950
-20 10 7 6.6920 -0.0285
-20 10 8 4.1708 0.1395
-20 10 9 7.9212 0.0285
-20 10 10 -5.7620 -0.4178
-20 10 11 9.9513 0.0886
-20 10 12 -4.0075 -0.7841
-20 10 13 20.0362 0.0219
-20 10 14 -21.3015 -0.9024
-20 10 15 -0.9914 -0.1251
-20 10 16 4.6698 -0.4887
-20 10 17 1.1688 0.0671
-20 10 18 7.3492 0.1427
-20 10 19 17.9500 0.2277
-20 10 20 -2.0063 0.6781
-20 10 21 1.1786 0.1733
-20 10 22 5.3252 0.7328
-20 10 23 6.4257 0.0072
-20 10 24 -4.7206 0.6078
-19 1 1 -2.7985 -3.6124
-19 1 2 -7.5229 -2.4674
-19 1 3 6.1816 1.2386
-19 1 4 24.2398 2.7857
-19 1 5 13.6421 -0.3015
-19 1 6 -22.9297 -0.4343
-19 1 7 31.1404 -0.7127
-19 1 8 -10.0405 -1.7816
-19 1 11 33.8992 -0.8142
-19 1 12 13.3380 -3.4679
-19 1 13 13.7555 -0.6007
-19 1 14 2.3195 -2.2663
-19 1 15 7.6188 0.1427
-19 1 16 -10.4615 -0.0701
-19 1 17 6.9586 0.5149
-19 1 18 -22.7935 1.9703
-19 1 19 12.0355 0.5758
-19 1 20 -1.7108 2.8913
-19 1 21 12.0683 0.4646
-19 1 22 3.0425 2.5960
-19 1 23 1.6204 -0.0147
-19 1 24 -8.1104 1.1222
-19 1 25 8.4037 -0.4314
-19 1 26 -6.1642 -0.6452
-19 1 27 10.8900 -0.5009
-19 1 28 11.7470 -1.7751
-19 1 29 0.6547 -0.5162
-19 1 30 -0.4956 -2.0329
-19 1 31 7.5634 -0.1677
-19 1 32 8.6019 -1.3870
-19 1 33 0.6871 0.1413
-19 1 34 -6.4486 -0.0593
-19 1 35 -2.1595 0.5072
-19 1 36 -2.1013 1.0483
-19 1 37 0.5139 0.6274
-19 1 38 -1.8734 1.4519
-19 3 1 3.4680 0.0844
-19 3 2 0.5866 -0.3859
-19 3 3 1.1308 0.7815
-19 3 4 8.6791 -0.4477
-19 3 5 -4.9704 -0.3629
-19 3 6 5.4121 -0.8244
-19 3 7 -11.6902 -0.5417
-19 3 8 16.8327 1.0892
-19 3 9 -6.2359 0.3603
-19 3 10 5.6458 1.7870
-19 3 11 -6.8321 0.2607
-19 3 12 9.5939 1.8399
-19 3 13 1.7061 0.3412
-19 3 14 15.2816 1.3642
-19 3 15 -7.8208 0.0401
-19 3 16 -4.7635 0.3038
-19 3 17 -2.2979 -0.1283
-19 3 18 -18.2390 -0.9034
-19 3 19 -3.0609 -0.2672
-19 3 20 5.6403 -1.5876
-19 3 21 -8.5673 -0.0961
-19 3 22 -3.3901 -1.3481
-19 3 23 -5.4965 0.1236
-19 3 24 -3.9543 -0.5196
-19 3 25 4.4195 0.3771
-19 3 26 -2.6375 0.4426
-19 3 27 -2.8705 0.4894
-19 3 28 7.1713 1.2452
-19 3 29 3.9729 0.3944
-19 3 30 1.4448 1.4088
-19 3 31 -2.4557 0.3294
-19 3 32 2.4383 0.9848
-19 3 33 3.7359 0.0958
-19 3 34 -3.3088 0.2986
-19 3 35 0.4690 -0.0986
-19 3 36 -1.4582 -0.2245
-19 3 37 -4.2477 -0.1921
-19 3 38 0.3543 -0.8340
-19 5 1 -0.6149 -0.4719
-19 5 2 -5.1152 0.0971
-19 5 3 5.1669 -0.3211
-19 5 4 4.5657 0.6051
-19 5 5 -7.4740 0.1933
-19 5 6 -11.7215 0.0218
-19 5 7 -21.0691 0.2253
-19 5 8 -11.3000 -0.2935
-19 5 9 -0.3415 0.1903
-19 5 10 -5.3662 -1.3294
-19 5 11 7.2177 -0.4589
-19 5 12 -3.1764 -1.3870
-19 5 15 -6.3857 -0.1280
-19 5 16 -3.4089 -0.1372
-19 5 17 -2.8939 0.0722
-19 5 18 -1.9342 0.6962
-19 5 19 7.8279 0.0726
-19 5 20 0.1100 1.1397
-19 5 21 -5.0870 0.0749
-19 5 22 2.8579 1.1714
-19 5 23 -8.8021 0.0254
-19 5 24 1.9810 0.4451
-19 5 25 -1.9878 -0.2492
-19 5 26 0.7273 -0.2784
-19 5 27 1.1069 -0.2382
-19 5 28 3.9251 -0.7760
-19 5 29 2.2798 -0.2060
-19 5 30 4.0721 -0.8104
-19 5 31 7.7545 -0.3044
-19 5 32 -5.6159 -0.6631
-19 5 33 -3.3664 0.1777
-19 5 34 2.2261 -0.0034
-19 5 35 1.8377 0.1102
-19 5 36 -3.3327 0.3389
-19 7 1 -11.1453 0.3175
-19 7 2 -0.5919 -0.1010
-19 7 3 5.3690 0.3870
-19 7 4 1.0989 -0.1446
-19 7 5 0.5084 -0.0628
-19 7 6 -1.2668 -0.1564
-19 7 7 6.7861 -0.3476
-19 7 8 4.1144 0.5524
-19 7 9 4.4408 -0.0834
-19 7 10 -2.1219 0.6513
-19 7 11 23.0733 0.0725
-19 7 12 10.8144 1.1973
-19 7 13 14.8893 0.3473
-19 7 14 -0.4225 0.7841
-19 7 15 14.3773 -0.0666
-19 7 17 -11.7852 0.0453
-19 7 18 -4.8926 -0.4872
-19 7 19 9.4666 -0.1431
-19 7 20 -0.9473 -0.8934
-19 7 21 -10.1269 -0.0121
-19 7 22 9.2297 -0.7345
-19 7 23 -5.1021 0.0217
-19 7 24 -1.1751 -0.4222
-19 7 25 2.0492 0.0815
-19 7 26 5.4155 0.2580
-19 7 27 3.5884 0.2481
-19 7 28 5.1246 0.5693
-19 7 29 3.8246 0.2050
-19 7 30 10.3714 0.6570
-19 7 31 -14.5856 0.0147
-19 7 32 0.8474 0.4285
-19 7 33 2.3153 -0.0090
-19 7 35 -6.9838 0.0733
-19 7 36 -10.3596 -0.0665
-19 9 1 5.0609 -0.2029
-19 9 2 15.7320 0.2146
-19 9 3 -10.0505 -0.3430
-19 9 4 13.8850 -0.0095
-19 9 5 -6.8529 0.1188
-19 9 6 -2.6366 -0.1148
-19 9 7 -8.8020 0.1162
-19 9 8 -2.1545 -0.2111
-19 9 9 0.5403 0.2134
-19 9 10 -13.1588 -0.5766
-19 9 11 7.5013 -0.0845
-19 9 12 -29.1001 -0.7534
-19 9 13 -5.6821 -0.1080
-19 9 14 5.5998 -0.7705
-19 9 15 1.9324 -0.2358
-19 9 16 -0.3754 -0.0917
-19 9 17 -18.9388 0.0858
-19 9 18 -16.0298 0.5134
-19 9 19 5.3987 -0.0325
-19 9 20 -0.9199 0.7259
-19 9 21 -10.7507 0.1355
-19 9 22 -3.6906 0.6903
-19 9 23 14.3471 -0.0903
-19 9 24 -5.6944 0.3496
-19 9 25 -8.6876 -0.0820
-19 9 26 8.2440 -0.0536
-19 9 27 4.4620 -0.3087
-19 9 28 8.9985 -0.5890
-19 9 30 -9.1088 -0.4542
-19 11 1 3.5169 0.1349
-19 11 2 23.3544 0.0514
-19 11 3 18.7886 0.1239
-19 11 4 4.4704 -0.0133
-19 11 5 9.8870 -0.0662
-19 11 6 1.8197 0.1989
-19 11 7 -0.4234 -0.2367
-19 11 8 5.3888 0.2658
-19 11 9 -3.9150 -0.1491
-19 11 10 4.4876 0.4118
-19 11 11 -6.3355 -0.1346
-19 11 12 20.7624 0.6261
-19 11 13 -16.2627 0.1639
-19 11 14 4.7995 0.5742
-19 11 15 10.4821 0.1073
-19 11 16 9.3728 0.0878
-18 0 2 -19.6655 -9.9912
-18 0 4 -6.6319 -4.2684
-18 0 6 13.2564 1.2842
-18 0 8 -12.1854 9.8286
-18 0 10 -38.5121 14.4519
-18 0 14 -12.4270 4.6341
-18 0 16 7.3941 -3.7883
-18 0 18 -11.2562 -9.9111
-18 0 20 -21.5600 -10.9843
-18 0 22 -2.9636 -6.9346
-18 0 24 -18.0835 -0.3911
-18 0 26 -16.2735 5.5765
-18 0 28 -14.9660 8.4701
-18 0 30 -13.6783 7.1404
-18 0 34 11.9949 -1.9740
-18 0 36 -2.1113 -5.1084
-18 2 1 -2.5482 1.3217
-18 2 2 -7.4846 3.5799
-18 2 3 10.6486 -0.2463
-18 2 4 10.4779 2.4767
-18 2 5 -18.9442 -0.2204
-18 2 6 6.9439 0.2756
-18 2 7 -4.4989 0.6025
-18 2 8 11.3071 -2.1744
-18 2 9 -14.6317 -0.0147
-18 2 10 2.2204 -3.8899
-18 2 11 -7.8892 -0.0886
-18 2 12 -5.7452 -3.5057
-18 2 13 -15.7337 0.3092
-18 2 14 8.1850 -1.0659
-18 2 15 2.1015 0.2589
-18 2 16 30.1242 0.9775
-18 2 17 -8.9498 0.2677
-18 2 18 17.2797 2.7203
-18 2 19 -12.3955 0.2732
-18 2 20 3.2614 3.1914
-18 2 21 0.6475 0.0561
-18 2 22 10.7189 2.0520
-18 2 23 -1.1289 -0.1516
-18 2 24 6.4062 0.0391
-18 2 25 -1.7825 -0.2883
-18 2 26 9.7559 -1.5895
-18 2 27 2.0941 -0.3595
-18 2 28 -3.1281 -2.3901
-18 2 29 1.2282 -0.2040
-18 2 30 1.9135 -2.0561
-18 2 31 -1.2713 -0.1827
-18 2 32 2.8211 -0.7706
-18 2 33 1.7659 0.0431
-18 2 34 10.1183 0.5424
-18 2 35 1.4317 0.0012
-18 2 36 2.4917 1.3014
-18 2 37 -3.6576 0.0384
-18 4 1 -11.1325 0.0430
-18 4 2 -10.6525 -2.2347
-18 4 3 -4.9687 -0.2347
-18 4 4 1.4724 -1.4967
-18 4 5 17.1812 0.3571
-18 4 6 1.0407 0.0838
-18 4 7 20.6970 -0.0638
-18 4 8 7.7246 1.0668
-18 4 9 4.8363 -0.3064
-18 4 10 0.4729 2.2874
-18 4 11 5.4771 0.1789
-18 4 12 15.0459 2.0961
-18 4 13 19.5072 0.1101
-18 4 14 -10.1356 0.7182
-18 4 15 7.6483 -0.2679
-18 4 16 8.8310 -0.6872
-18 4 17 -2.2333 -0.1141
-18 4 18 2.3497 -1.5005
-18 4 19 7.3424 -0.2117
-18 4 20 -9.7363 -1.8910
-18 4 21 3.1922 -0.1485
-18 4 22 2.9771 -1.2256
-18 4 23 4.9494 0.0196
-18 4 24 -11.8741 -0.1520
-18 4 25 -8.6761 0.0507
-18 4 26 0.8105 0.8002
-18 4 27 -3.6921 0.0123
-18 4 28 -4.3380 1.3327
-18 4 29 -4.5208 0.1665
-18 4 30 -4.5535 0.9588
-18 4 31 -2.1524 -0.0162
-18 4 32 12.0069 0.3424
-18 4 33 -1.5951 -0.1749
-18 4 34 1.4832 -0.4667
-18 4 35 0.7979 -0.0889
-18 4 36 -1.1656 -0.9305
-18 4 37 -3.9939 -0.0126
-18 6 1 -0.8553 0.0598
-18 6 2 3.3189 1.5121
-18 6 3 -1.7260 -0.0786
-18 6 4 1.9781 1.1030
-18 6 5 -4.4678 -0.0933
-18 6 6 -1.2649 0.1087
-18 6 7 -6.0428 0.0438
-18 6 8 2.4441 -0.9877
-18 6 9 -17.2220 0.1719
-18 6 10 -18.5062 -1.3852
-18 6 11 -13.3452 0.0970
-18 6 12 -15.7336 -1.4333
-18 6 13 5.4726 -0.2073
-18 6 14 -10.9037 -0.7624
-18 6 15 -9.5573 0.1190
-18 6 16 -3.6319 0.5015
-18 6 17 -6.9538 0.2760
-18 6 18 1.1115 1.1160
-18 6 19 -8.6865 0.0883
-18 6 20 -2.5905 1.2138
-18 6 21 0.7992 -0.0000
-18 6 22 -3.3753 0.8397
-18 6 23 1.6577 0.1193
-18 6 24 -2.4203 0.0495
-18 6 25 -3.6154 -0.1102
-18 6 26 0.1450 -0.6449
-18 6 27 0.2800 -0.1187
-18 6 28 -2.0514 -0.8233
-18 6 29 5.6666 -0.0635
-18 6 30 3.7344 -0.8024
-18 6 31 -7.5851 0.0568
-18 6 32 0.2541 -0.2291
-18 6 34 6.2741 0.4247
-18 6 35 -4.8881 0.0284
-18 6 36 -3.0571 0.5043
-18 8 1 -11.2654 -0.0112
-18 8 2 -1.3772 -1.2382
-18 8 3 1.7939 0.0797
-18 8 4 -3.2122 -0.8613
-18 8 5 -5.1515 0.0420
-18 8 6 1.5036 -0.0801
-18 8 7 3.6737 -0.0528
-18 8 8 -13.0154 0.6463
-18 8 9 -3.4042 -0.2100
-18 8 10 4.8693 1.0652
-18 8 11 1.7035 -0.0519
-18 8 12 14.5538 1.0442
-18 8 13 -11.7393 0.1176
-18 8 14 -17.2494 0.5329
-18 8 15 16.3961 -0.0111
-18 8 16 11.9228 -0.3207
-18 8 17 -4.3800 -0.1802
-18 8 18 1.7491 -0.9977
-18 8 19 -11.9387 -0.2256
-18 8 20 -1.6208 -1.0349
-18 8 21 4.8524 -0.0470
-18 8 22 -3.5275 -0.6301
-18 8 23 6.6720 -0.0449
-18 8 24 -1.1572 -0.0975
-18 8 25 -3.7743 0.0704
-18 8 26 -10.5079 0.3806
-18 8 27 -13.2307 0.0812
-18 8 28 -0.8564 0.7523
-18 8 29 18.0892 0.0806
-18 8 31 7.9780 0.0257
-18 8 32 -0.1240 0.0331
-18 8 33 9.4474 -0.1827
-18 8 34 -2.7937 -0.2102
-18 10 1 -2.3679 -0.0787
-18 10 2 -31.4260 0.9180
-18 10 3 5.5864 -0.1458
-18 10 4 0.6811 0.8812
-18 10 5 -3.5398 0.0211
-18 10 6 -10.4910 0.1582
-18 10 7 0.5489 0.0587
-18 10 8 6.2512 -0.5765
-18 10 9 -13.5200 0.1314
-18 10 10 6.1731 -0.8215
-18 10 11 -13.6038 0.0228
-18 10 12 13.0991 -0.7971
-18 10 15 -13.8811 0.0137
-18 10 16 6.7381 0.2166
-18 10 17 -5.0926 0.1617
-18 10 18 -4.8537 0.6999
-18 10 19 -7.7326 0.2457
-18 10 20 -10.3892 0.7737
-18 10 21 -15.5225 0.0048
-18 10 22 -2.4114 0.6141
-18 10 23 -1.3685 -0.0221
-18 10 24 -5.7414 -0.0556
-18 10 25 -0.7405 -0.1168
-17 1 1 -19.0057 -4.5567
-17 1 2 4.3527 -1.5154
-17 1 3 2.5610 1.8931
-17 1 4 -7.2555 1.0871
-17 1 5 -1.3398 -1.0217
-17 1 6 -18.1270 -3.4235
-17 1 7 -3.6571 -0.9921
-17 1 8 21.0293 -4.0124
-17 1 9 -17.1461 -0.4327
-17 1 10 13.8404 -3.8206
-17 1 11 0.8957 -0.7120
-17 1 12 18.7425 -2.6923
-17 1 15 -6.0461 0.3666
-17 1 16 -13.0361 2.0566
-17 1 17 -7.8830 0.4571
-17 1 18 5.5053 2.8503
-17 1 19 5.3301 0.0933
-17 1 20 4.3135 2.4786
-17 1 21 -4.5867 -0.1994
-17 1 22 1.4644 0.8936
-17 1 23 -18.5079 -0.5940
-17 1 24 -0.3047 -0.9223
-17 1 25 -11.3969 -0.7864
-17 1 26 10.0634 -2.1382
-17 1 27 -15.4461 -0.6413
-17 1 28 3.4120 -2.2345
-17 1 29 -8.0096 -0.2802
-17 1 30 5.5701 -1.5339
-17 1 31 -7.8541 0.1270
-17 1 32 -1.4562 -0.1124
-17 1 33 -2.8454 0.3610
-17 1 34 -7.5559 1.2050
-17 1 35 -3.4339 0.6694
-17 1 36 -1.8905 1.7137
-17 1 37 -0.6259 0.3850
-17 3 1 8.6323 0.3849
-17 3 2 13.7640 -0.2476
-17 3 3 6.3893 0.5047
-17 3 4 -3.3866 -0.1226
-17 3 5 -1.1072 -0.7349
-17 3 6 1.0959 0.7211
-17 3 7 -1.0663 0.0024
-17 3 8 1.5939 2.2342
-17 3 9 3.8367 0.4263
-17 3 10 -4.3183 1.8418
-17 3 11 -2.8483 0.1289
-17 3 12 -2.8850 1.3478
-17 3 13 4.7474 0.1614
-17 3 14 -11.6657 0.0011
-17 3 15 1.2657 -0.2993
-17 3 16 -28.4744 -1.0746
-17 3 17 6.8064 -0.2893
-17 3 18 -11.5380 -1.7912
-17 3 19 0.5046 -0.1626
-17 3 20 -7.9944 -1.5092
-17 3 21 4.7381 0.0971
-17 3 22 -3.8143 -0.6392
-17 3 23 7.7249 0.2841
-17 3 24 5.4335 0.6031
-17 3 25 12.4738 0.4201
-17 3 26 5.3117 1.1443
-17 3 27 4.1442 0.3200
-17 3 28 4.8562 1.4155
-17 3 29 8.2445 0.1569
-17 3 30 -2.3389 0.9804
-17 3 31 -5.5836 0.0130
-17 3 32 -2.7119 0.0123
-17 3 33 4.1390 -0.1013
-17 3 34 -6.0123 -0.4486
-17 3 35 3.0472 -0.2750
-17 3 36 2.7069 -0.8066
-17 3 37 2.8906 -0.1134
-17 5 1 -2.4070 -0.7953
-17 5 2 -4.4884 -0.1629
-17 5 3 -4.1890 -0.0064
-17 5 4 2.5735 0.0709
-17 5 5 -4.3341 0.2977
-17 5 6 -3.1125 -0.7060
-17 5 7 3.4084 0.2977
-17 5 8 4.0138 -1.0361
-17 5 9 33.3409 -0.1546
-17 5 10 3.3491 -1.5624
-17 5 11 0.0591 -0.4252
-17 5 12 10.0155 -0.7477
-17 5 13 -2.1437 0.0708
-17 5 14 14.0415 -0.2021
-17 5 15 4.6253 0.0530
-17 5 16 0.8426 0.8311
-17 5 17 1.6158 0.3255
-17 5 18 5.9501 1.1634
-17 5 19 -8.1429 0.0629
-17 5 20 5.2979 1.0709
-17 5 21 -14.3833 -0.0116
-17 5 22 2.6177 0.5695
-17 5 23 0.1234 -0.1868
-17 5 24 3.3437 -0.3516
-17 5 25 2.5601 -0.3787
-17 5 26 -4.2761 -0.8582
-17 5 27 1.0619 -0.1357
-17 5 28 0.2033 -0.8325
-17 5 29 -1.2320 -0.0102
-17 5 30 -0.9337 -0.5748
-17 5 31 5.5410 -0.0017
-17 5 32 -8.6614 -0.1015
-17 5 33 -7.6806 0.2906
-17 5 34 -2.0561 0.4986
-17 5 35 -0.0077 0.2749
-17 5 36 -10.0052 0.7093
-17 5 37 -8.4220 0.0556
-17 7 1 -2.4026 0.4871
-17 7 2 -2.4930 0.1159
-17 7 3 12.4314 0.2110
-17 7 4 0.6514 0.1082
-17 7 5 8.2833 -0.3280
-17 7 6 -2.0263 0.3452
-17 7 7 10.1535 -0.2182
-17 7 8 15.1003 0.8577
-17 7 9 10.0015 0.0264
-17 7 10 0.2137 0.8152
-17 7 11 4.0474 0.2771
-17 7 12 15.0876 0.8930
-17 7 13 -5.8532 0.1294
-17 7 14 -10.4714 0.0408
-17 7 15 -3.8904 -0.1438
-17 7 16 3.2296 -0.5507
-17 7 17 4.1808 -0.0623
-17 7 18 4.1025 -1.0527
-17 7 19 10.2973 -0.0624
-17 7 20 -8.7482 -0.8737
-17 7 21 -13.3870 0.1041
-17 7 22 -5.1486 -0.3751
-17 7 23 6.6707 -0.0143
-17 7 24 3.9934 0.1952
-17 7 25 5.7772 0.2965
-17 7 26 -1.9390 0.7401
-17 7 27 7.2669 0.1909
-17 7 28 1.7014 0.6665
-17 7 29 -0.4480 0.0617
-17 7 30 0.4864 0.4813
-17 7 31 -5.3735 -0.1139
-17 7 32 2.8866 0.0604
-17 7 33 4.7070 -0.0554
-17 7 34 -5.6809 -0.3006
-17 9 1 2.3645 -0.3594
-17 9 2 -4.0995 -0.1012
-17 9 3 -9.5638 -0.1717
-17 9 4 -1.9678 -0.1881
-17 9 5 2.3833 0.2322
-17 9 6 -2.0656 -0.3444
-17 9 7 -0.1683 0.1866
-17 9 8 2.8252 -0.3798
-17 9 9 0.1727 0.0539
-17 9 10 -12.2421 -0.7123
-17 9 11 3.4715 -0.1750
-17 9 12 10.8887 -0.5298
-17 9 15 -8.7235 -0.0414
-17 9 16 -22.3471 0.5931
-17 9 17 1.8862 0.1025
-17 9 18 -6.5551 0.9075
-17 9 19 14.4849 0.0417
-17 9 20 9.3876 0.7152
-17 9 21 -3.0629 0.0003
-17 9 22 1.4607 0.3166
-17 9 23 -0.6511 -0.0382
-17 9 24 2.3492 -0.1203
-17 9 25 13.9507 -0.1418
-17 9 26 10.5674 -0.5061
-17 9 27 12.1747 -0.2397
-17 9 28 9.9022 -0.6216
-17 9 29 0.9652 0.0233
-17 9 31 3.2558 0.0847
-17 11 1 -15.7841 0.3216
-17 11 2 -10.9067 0.2612
-17 11 3 -0.4965 -0.0012
-17 11 4 -9.1225 0.1864
-17 11 5 -11.0662 -0.1085
-17 11 6 -12.0146 0.3132
-17 11 7 -6.5580 -0.2528
-17 11 8 -11.4080 0.3578
-17 11 9 4.5574 -0.0323
-17 11 10 7.1557 0.4295
-17 11 11 -2.1158 0.0234
-17 11 14 -19.7046 0.0384
-17 11 15 4.6513 0.1036
-17 11 16 1.5727 -0.4559
-17 11 17 -1.3508 -0.0384
-17 11 18 -16.7474 -0.7926
-16 0 2 -5.2337 -8.3826
-16 0 4 40.3101 3.4515
-16 0 6 10.1562 10.9571
-16 0 8 5.9344 14.7565
-16 0 10 -5.1550 12.3748
-16 0 12 32.6661 4.4746
-16 0 14 15.0035 -4.5180
-16 0 18 -29.0746 -11.2455
-16 0 20 -2.8258 -6.8326
-16 0 22 13.0760 0.4012
-16 0 24 -13.0370 6.7702
-16 0 26 6.9610 9.3377
-16 0 28 1.7732 7.6090
-16 0 30 -11.5610 2.7841
-16 0 32 13.4151 -2.5959
-16 0 34 -0.0330 -5.9172
-16 0 36 -0.9487 -6.2081
-16 2 1 -12.8197 0.8689
-16 2 2 -10.7285 2.2897
-16 2 3 -4.2215 -0.3396
-16 2 4 -1.9682 -0.0952
-16 2 5 -17.1736 -0.1544
-16 2 6 -23.7051 -2.2932
-16 2 7 9.8522 0.7156
-16 2 8 -24.3697 -3.8403
-16 2 9 -2.9099 0.0587
-16 2 10 -20.0256 -3.3772
-16 2 11 16.5163 0.1751
-16 2 14 27.2474 1.6296
-16 2 15 10.1848 0.4144
-16 2 16 10.5663 3.1761
-16 2 17 -7.6901 0.4322
-16 2 18 2.2579 3.3989
-16 2 19 -4.6542 0.2167
-16 2 20 -2.6034 2.1550
-16 2 21 8.0059 0.0779
-16 2 22 -11.5945 0.1485
-16 2 23 -0.9132 -0.0996
-16 2 24 -20.7130 -1.8128
-16 2 25 3.1403 -0.0710
-16 2 26 -16.8391 -2.5348
-16 2 27 -0.2634 -0.1465
-16 2 28 -10.9946 -2.0362
-16 2 29 0.9322 0.0007
-16 2 30 -7.3416 -0.7416
-16 2 31 2.2164 0.1159
-16 2 32 -0.6130 0.6684
-16 2 33 -2.5346 0.1959
-16 2 34 -4.4160 1.7386
-16 2 35 3.1371 0.0528
-16 2 36 -7.5813 1.6159
-16 2 37 -3.1409 0.0613
-16 4 1 5.6613 0.0898
-16 4 2 0.3903 -1.5889
-16 4 3 12.3727 -0.0048
-16 4 4 12.5717 0.0052
-16 4 5 23.3361 0.1960
-16 4 6 -12.4513 1.4066
-16 4 7 -3.2054 -0.1431
-16 4 8 2.7422 1.9474
-16 4 9 -1.0007 -0.3281
-16 4 10 -8.6846 2.0496
-16 4 11 5.4040 0.2373
-16 4 12 -2.6628 0.7977
-16 4 13 2.2115 -0.2278
-16 4 14 5.5997 -1.0361
-16 4 15 -5.3804 -0.4494
-16 4 16 7.9904 -1.8666
-16 4 17 1.0128 -0.0625
-16 4 18 8.9566 -1.8732
-16 4 19 14.6045 -0.1432
-16 4 20 9.9780 -1.3655
-16 4 21 -2.7512 -0.1454
-16 4 22 3.2539 -0.0043
-16 4 23 -1.2168 0.1695
-16 4 24 -2.6318 0.9727
-16 4 25 -8.2518 0.0381
-16 4 26 3.1688 1.4043
-16 4 27 -0.9028 0.0280
-16 4 28 4.3601 1.0341
-16 4 29 -1.7096 0.0684
-16 4 30 -5.7485 0.3091
-16 4 31 -3.7262 -0.1449
-16 4 32 11.3541 -0.5193
-16 4 33 3.3876 -0.1396
-16 4 34 1.3626 -0.9857
-16 4 36 2.1362 -0.9801
-16 6 1 -0.7174 0.0485
-16 6 2 -9.8219 1.2115
-16 6 3 -3.4331 -0.0379
-16 6 4 -0.1820 0.1959
-16 6 5 1.3767 -0.0355
-16 6 6 2.9034 -0.9356
-16 6 7 -16.6216 0.1974
-16 6 8 2.1982 -1.4127
-16 6 9 -5.7195 0.2265
-16 6 10 -7.7124 -1.2559
-16 6 11 6.3545 0.0219
-16 6 12 9.1174 -0.6723
-16 6 13 4.9460 -0.0559
-16 6 14 -1.7817 0.6138
-16 6 15 0.3089 0.3591
-16 6 16 -4.9745 1.3390
-16 6 17 -3.7156 0.2178
-16 6 18 -14.8226 1.3366
-16 6 19 16.7458 -0.0065
-16 6 20 -2.8187 0.7788
-16 6 21 6.8003 0.0802
-16 6 22 -2.2589 0.1492
-16 6 23 0.7501 0.0000
-16 6 24 -4.5033 -0.8818
-16 6 25 -8.8447 -0.1304
-16 6 26 0.9779 -0.9359
-16 6 27 -2.4807 -0.0324
-16 6 28 -6.2571 -0.6826
-16 6 29 -0.9853 0.0341
-16 6 30 -0.1574 -0.2682
-16 6 31 -0.1018 0.1509
-16 6 32 -4.9034 0.3532
-16 6 33 6.1173 0.0536
-16 6 35 -12.4682 0.0056
-16 6 36 -10.3651 0.4866
-16 8 1 -6.9737 0.0348
-16 8 2 8.7648 -1.0314
-16 8 3 7.4286 0.0005
-16 8 4 3.0801 -0.1883
-16 8 5 -6.6670 -0.0421
-16 8 6 -2.6683 0.7325
-16 8 7 14.1567 -0.1301
-16 8 8 5.9359 1.1036
-16 8 9 -10.2944 -0.1667
-16 8 10 14.7457 0.9788
-16 8 11 4.1488 0.1263
-16 8 12 -0.9041 0.4021
-16 8 13 10.3963 0.0220
-16 8 14 13.8249 -0.3763
-16 8 15 28.5677 -0.0534
-16 8 16 16.5237 -1.0794
-16 8 17 -5.2049 -0.1992
-16 8 18 -0.1238 -1.1415
-16 8 19 7.5030 -0.0730
-16 8 20 0.1639 -0.6040
-16 8 21 0.5297 0.0519
-16 8 22 5.5601 -0.0088
-16 8 23 6.1687 0.0152
-16 8 24 -15.2979 0.5070
-16 8 25 -24.6718 0.1630
-16 8 26 8.7899 0.7917
-16 8 27 0.9571 0.0318
-16 8 28 -19.1841 0.5056
-16 8 29 -2.7800 -0.0844
-16 8 30 -2.6876 0.2227
-16 8 32 7.7745 -0.4787
-16 8 33 -0.0408 -0.3972
-16 8 34 1.8651 -0.5560
-16 10 1 16.5212 -0.0267
-16 10 2 1.4656 0.7101
-16 10 3 9.0931 -0.0019
-16 10 4 20.4972 0.1722
-16 10 5 12.0386 0.1551
-16 10 6 21.6567 -0.6004
-16 10 7 -12.3338 0.1473
-16 10 8 11.9074 -0.9067
-16 10 9 9.2246 0.0985
-16 10 10 15.1519 -0.7549
-16 10 11 27.8730 -0.0381
-16 10 12 -1.5550 -0.3536
-16 10 13 28.3663 -0.0907
-16 10 14 -3.2809 0.2474
-16 10 15 -7.4415 0.0441
-16 10 16 15.0202 0.8657
-16 10 17 1.0530 0.2368
-16 10 18 0.4391 0.9089
-16 10 19 7.1506 0.0860
-16 10 20 -0.9533 0.6004
-16 10 21 1.7400 0.0079
-16 10 22 -6.8578 0.0358
-16 10 23 0.6097 -0.0458
-16 10 24 -8.7542 -0.4090
-16 10 25 2.0592 -0.1054
-16 10 26 6.1998 -0.5772
-15 1 1 7.0332 -2.8585
-15 1 2 -5.7034 0.4593
-15 1 3 29.3366 1.7135
-15 1 4 0.1238 -1.1653
-15 1 5 31.8394 -0.9669
-15 1 6 6.9193 -4.7569
-15 1 7 17.5402 -0.6754
-15 1 8 17.9766 -4.2068
-15 1 9 23.2315 -0.3878
-15 1 10 -7.0123 -2.2092
-15 1 11 17.2522 -0.2658
-15 1 12 -18.2157 -0.3478
-15 1 13 -11.4651 0.1900
-15 1 14 -18.6969 1.8484
-15 1 15 19.4512 0.4222
-15 1 16 13.6569 3.1061
-15 1 17 2.2811 0.2033
-15 1 19 7.6559 -0.3984
-15 1 20 1.3028 0.6997
-15 1 21 -5.5324 -0.7319
-15 1 22 7.1179 -1.4200
-15 1 23 -4.3430 -0.8098
-15 1 24 9.0098 -2.5477
-15 1 25 6.7590 -0.7173
-15 1 26 2.7089 -2.6646
-15 1 27 -1.7047 -0.2962
-15 1 28 5.8278 -1.4963
-15 1 29 5.9262 0.1701
-15 1 30 -4.2144 -0.0016
-15 1 31 1.6845 0.4653
-15 1 32 -6.3569 1.1991
-15 1 33 0.2003 0.4101
-15 1 34 1.9789 1.8983
-15 1 35 6.5143 0.4292
-15 1 36 -3.1924 1.3819
-15 3 1 -5.3941 0.4527
-15 3 2 -16.8340 -0.0488
-15 3 3 -12.8291 -0.0084
-15 3 4 -3.7851 0.4443
-15 3 5 -18.0633 -0.8724
-15 3 6 15.2752 2.0189
-15 3 7 -7.0416 0.4763
-15 3 8 7.7777 2.1646
-15 3 11 -14.2558 -0.0869
-15 3 12 -6.7448 0.0939
-15 3 13 -0.1253 -0.1099
-15 3 14 -22.1612 -1.3399
-15 3 15 6.7942 -0.4763
-15 3 16 -19.2075 -1.8988
-15 3 17 -6.7913 -0.2702
-15 3 18 -13.9449 -1.6044
-15 3 19 -10.3067 0.0223
-15 3 20 -0.6424 -0.5548
-15 3 21 -7.5933 0.2389
-15 3 22 7.5560 0.6174
-15 3 23 -1.6605 0.3473
-15 3 24 3.2901 1.3435
-15 3 25 -8.9932 0.2469
-15 3 26 -0.2037 1.3480
-15 3 27 -0.1424 0.1271
-15 3 28 -4.3117 0.8315
-15 3 29 -3.9369 -0.2165
-15 3 30 -6.8323 -0.0857
-15 3 31 -2.5973 -0.3289
-15 3 32 -1.5678 -0.7598
-15 3 33 -2.1079 -0.2873
-15 3 34 2.6517 -1.0603
-15 3 35 -3.6447 -0.2735
-15 3 36 2.2518 -0.8773
-15 5 1 6.3487 -0.7231
-15 5 2 0.1188 -0.1732
-15 5 3 -6.4903 0.4452
-15 5 4 1.0762 -0.5494
-15 5 5 -6.9344 0.2679
-15 5 6 -8.7461 -1.0044
-15 5 7 9.1780 0.1063
-15 5 8 -3.9761 -1.2855
-15 5 9 -4.1604 -0.3964
-15 5 10 -0.8325 -0.9803
-15 5 11 -15.2324 -0.0161
-15 5 12 1.5944 0.0738
-15 5 13 5.7588 0.1576
-15 5 14 0.5070 0.7064
-15 5 15 8.0378 0.2835
-15 5 16 9.4284 1.5414
-15 5 17 8.0489 0.2076
-15 5 18 14.0976 1.1184
-15 5 19 0.1652 0.0049
-15 5 20 -9.0056 0.5095
-15 5 21 7.5033 -0.0356
-15 5 22 6.0067 -0.3377
-15 5 23 11.0833 -0.1902
-15 5 24 -1.0531 -0.9355
-15 5 25 4.3338 -0.1341
-15 5 26 2.6691 -0.9945
-15 5 27 4.9080 0.0011
-15 5 28 0.5795 -0.5326
-15 5 29 2.3332 0.0903
-15 5 30 -2.9590 0.0124
-15 5 31 -3.6137 0.2276
-15 5 32 -4.3722 0.5119
-15 5 33 0.2173 0.2945
-15 5 34 -0.9040 0.7440
-15 5 35 2.9823 0.2234
-15 5 36 -3.4025 0.6768
-15 7 1 1.7952 0.3668
-15 7 2 -2.0841 0.2860
-15 7 3 9.7423 -0.0462
-15 7 4 7.4450 0.3773
-15 7 5 5.3175 -0.4333
-15 7 6 1.7454 0.5937
-15 7 7 -5.8254 -0.0608
-15 7 8 8.2714 0.7426
-15 7 9 4.6071 0.1701
-15 7 10 -1.6823 0.6259
-15 7 11 10.2822 0.2425
-15 7 12 -9.5416 0.1362
-15 7 13 -4.1477 -0.1094
-15 7 14 -18.5783 -0.7187
-15 7 15 -4.1332 -0.1771
-15 7 16 -0.4410 -0.9662
-15 7 17 -10.3097 -0.1814
-15 7 18 0.4610 -0.9743
-15 7 19 -10.7294 0.0435
-15 7 20 -0.8463 -0.3098
-15 7 21 -7.8638 0.0767
-15 7 22 0.8841 0.2138
-15 7 23 2.9601 0.1535
-15 7 24 1.4456 0.7608
-15 7 25 7.8210 0.2124
-15 7 26 -10.4798 0.8027
-15 7 27 -4.1030 0.0762
-15 7 28 8.8308 0.4171
-15 7 29 -5.5750 -0.1883
-15 7 31 -8.1591 -0.1902
-15 7 32 -4.9005 -0.3575
-15 7 33 4.0522 -0.1389
-15 7 34 -8.3357 -0.6812
-15 7 35 -11.2959 -0.2124
-15 9 1 -10.6719 -0.3135
-15 9 2 -10.0674 -0.2690
-15 9 3 -14.3884 0.0524
-15 9 4 -20.3611 -0.3188
-15 9 5 -6.1838 0.3066
-15 9 6 14.0535 -0.4218
-15 9 7 -3.9614 0.0927
-15 9 8 -32.0867 -0.4820
-15 9 9 -2.1678 -0.1235
-15 9 10 -12.5549 -0.4945
-15 9 11 -14.4501 -0.0736
-15 9 12 2.0633 -0.0956
-15 9 13 -4.3091 -0.0546
-15 9 14 -11.1033 0.4358
-15 9 15 19.7390 0.1048
-15 9 16 17.9834 1.0054
-15 9 17 14.9068 0.1079
-15 9 18 5.3773 0.7271
-15 9 19 -1.2613 0.0148
-15 9 20 4.7639 0.2915
-15 9 21 -0.7613 -0.0215
-15 9 22 11.4990 -0.2643
-15 9 23 1.9751 -0.0785
-15 9 24 -3.5225 -0.5155
-15 9 25 7.1843 -0.0687
-15 9 26 3.5667 -0.6728
-15 9 27 -12.2968 -0.1401
-15 9 28 1.9142 -0.3887
-15 9 29 2.9236 0.1669
-15 9 30 -5.0504 0.0938
-15 11 1 -9.6848 0.2420
-15 11 2 -6.3546 0.3280
-15 11 3 8.5749 -0.0882
-15 11 4 -2.2983 0.2537
-15 11 5 -2.1542 -0.1521
-15 11 6 -30.3175 0.2503
-15 11 7 9.4911 -0.0853
-15 11 8 6.1726 0.3056
-15 11 9 0.2749 0.0973
-15 11 10 10.6397 0.2221
-15 11 11 12.0462 0.1652
-15 11 12 12.1531 0.0624
-15 11 13 4.0709 0.1706
-15 11 14 10.5628 -0.5360
-15 11 15 21.3826 0.0790
-15 11 16 15.0071 -0.8432
-15 11 17 -1.7672 -0.1110
-15 11 18 -3.4658 -0.7537
-15 11 19 -4.9176 -0.1323
-14 0 2 -10.5023 -2.3036
-14 0 4 -14.1021 9.7177
-14 0 6 -16.6832 15.1580
-14 0 8 -34.9418 11.7160
-14 0 10 8.1866 3.4443
-14 0 12 18.5175 -5.4602
-14 0 14 -38.3684 -11.5460
-14 0 16 -11.7741 -11.8764
-14 0 18 -30.3064 -6.4811
-14 0 22 -1.9604 7.8150
-14 0 24 -3.0242 10.4042
-14 0 26 5.1590 8.0382
-14 0 28 -13.5981 2.5329
-14 0 30 15.9885 -3.0743
-14 0 32 1.1905 -6.6793
-14 0 34 0.5004 -6.6720
-14 2 1 -0.1536 0.0796
-14 2 2 16.0385 -0.3776
-14 2 3 -2.6026 -0.1534
-14 2 4 14.7697 -2.6178
-14 2 5 -21.0106 -0.1482
-14 2 6 -15.0668 -3.5588
-14 2 7 1.9056 0.5247
-14 2 8 17.8540 -3.1963
-14 2 9 -22.1233 0.1498
-14 2 10 4.8692 -0.9329
-14 2 11 1.5401 0.4251
-14 2 12 30.2272 2.1603
-14 2 13 -6.2579 0.6610
-14 2 14 28.7486 3.6343
-14 2 15 -7.6563 0.4018
-14 2 16 12.8784 3.7505
-14 2 17 4.6208 0.4545
-14 2 18 11.6342 2.2105
-14 2 19 9.0308 0.1813
-14 2 20 -4.1772 -0.0557
-14 2 21 8.6300 -0.0360
-14 2 22 0.6122 -1.8773
-14 2 23 3.4035 0.0608
-14 2 24 0.8179 -2.7171
-14 2 25 6.8979 0.0024
-14 2 26 0.7917 -2.1611
-14 2 27 3.1870 0.2637
-14 2 28 18.7907 -0.5195
-14 2 29 3.5359 0.3067
-14 2 30 2.5111 0.9772
-14 2 31 -3.3198 0.3304
-14 2 32 4.3030 1.8645
-14 2 33 0.3115 0.2068
-14 2 34 6.1878 1.9337
-14 2 35 0.4569 0.0685
-14 2 36 0.1802 0.9637
-14 4 1 -2.2009 0.0272
-14 4 2 3.5151 -0.0681
-14 4 3 13.6957 0.1457
-14 4 4 -4.4675 1.4841
-14 4 5 13.9536 -0.0263
-14 4 6 -7.9943 2.0670
-14 4 7 -6.0770 -0.3300
-14 4 8 1.8535 1.7886
-14 4 9 20.2482 -0.1473
-14 4 10 -5.9482 0.6937
-14 4 11 9.2814 0.1126
-14 4 12 13.5909 -0.9688
-14 4 13 -11.8864 -0.3542
-14 4 14 12.5168 -2.2469
-14 4 15 -15.0845 -0.3457
-14 4 16 -10.4131 -1.9428
-14 4 17 0.2321 0.0578
-14 4 18 -1.2253 -1.1765
-14 4 19 -4.6387 -0.0512
-14 4 20 -7.7981 -0.0633
-14 4 21 -13.4144 0.0826
-14 4 22 -8.5623 1.2552
-14 4 23 -5.5870 0.1814
-14 4 24 -7.2543 1.4680
-14 4 25 -8.6717 0.0039
-14 4 26 1.6397 1.2238
-14 4 27 -6.9344 -0.1002
-14 4 28 0.8752 0.3418
-14 4 29 -0.8740 -0.1207
-14 4 30 8.0126 -0.5768
-14 4 31 -2.1857 -0.1947
-14 4 32 3.2345 -1.1698
-14 4 33 3.7329 -0.0798
-14 4 34 -0.7265 -0.9909
-14 4 35 -4.5405 -0.0826
-14 4 36 -2.7944 -0.5208
-14 6 1 -13.3498 -0.0370
-14 6 2 -13.5513 0.2874
-14 6 3 -19.5937 -0.1070
-14 6 4 -0.1911 -0.8851
-14 6 5 -8.4480 0.1078
-14 6 6 4.1883 -1.5320
-14 6 7 -28.5116 0.2064
-14 6 8 -7.4286 -1.1614
-14 6 9 1.2675 0.0617
-14 6 10 -15.3414 -0.3322
-14 6 13 -1.4352 0.0592
-14 6 14 -2.1769 1.5749
-14 6 15 12.0493 0.2736
-14 6 16 5.0488 1.5158
-14 6 17 1.4115 0.0327
-14 6 18 9.8263 0.7452
-14 6 19 5.5530 -0.1357
-14 6 20 12.5870 0.0037
-14 6 21 -6.3428 0.0330
-14 6 22 3.0661 -0.8033
-14 6 23 -2.9005 -0.1567
-14 6 24 2.2031 -1.2819
-14 6 25 8.6544 -0.0747
-14 6 26 2.9363 -0.7633
-14 6 27 1.2852 0.0065
-14 6 28 6.8025 -0.2241
-14 6 29 8.7122 0.0411
-14 6 30 -1.3722 0.3686
-14 6 31 -5.6584 0.1823
-14 6 32 12.0683 0.7440
-14 6 33 -1.4370 0.0259
-14 6 34 -1.3664 0.8661
-14 6 35 -9.4599 -0.1527
-14 8 1 2.3808 0.0139
-14 8 2 9.8461 -0.2559
-14 8 3 14.2967 -0.0525
-14 8 4 -1.1378 0.7384
-14 8 5 -4.7989 -0.0756
-14 8 6 -20.4495 1.1866
-14 8 7 16.9782 -0.1493
-14 8 8 10.1845 0.9420
-14 8 9 -11.4436 -0.1017
-14 8 10 -0.4633 0.2771
-14 8 13 -15.5374 -0.0894
-14 8 14 -13.0992 -1.0416
-14 8 15 -18.0437 -0.1438
-14 8 16 -16.6278 -1.2310
-14 8 17 -6.3825 -0.0669
-14 8 18 -5.9267 -0.7103
-14 8 19 4.6608 0.0162
-14 8 20 -2.2829 0.0922
-14 8 21 1.0114 0.0249
-14 8 22 -4.4409 0.6036
-14 8 23 -6.6382 0.0102
-14 8 24 9.2709 0.8093
-14 8 25 -25.2937 0.1542
-14 8 26 -1.0532 0.7280
-14 8 27 11.6993 -0.0235
-14 8 28 -8.2944 0.0672
-14 8 29 -11.6350 -0.1045
-14 8 30 1.0519 -0.2788
-14 8 31 -5.0676 -0.0491
-14 8 33 -3.7484 -0.1856
-14 10 1 4.6113 0.0583
-14 10 2 -6.3948 0.1953
-14 10 3 -9.2895 0.0812
-14 10 4 18.0309 -0.5716
-14 10 5 7.1125 0.1655
-14 10 6 -12.9091 -1.0406
-14 10 7 -12.6150 0.1251
-14 10 8 -3.4230 -0.7921
-14 10 9 12.2365 -0.0597
-14 10 10 -19.5923 -0.2485
-14 10 11 -12.7440 -0.0559
-14 10 12 -3.4407 0.4067
-14 10 13 -18.1883 -0.0809
-14 10 14 -17.2029 0.8494
-14 10 15 -22.6968 0.1274
-14 10 16 7.9474 1.0559
-14 10 17 -2.9255 0.1184
-14 10 18 -10.5519 0.5643
-14 10 19 -4.6662 -0.0179
-14 10 20 -5.7476 -0.0306
-14 10 21 -3.7280 -0.0582
-14 10 22 -2.1099 -0.4660
-14 10 23 5.1762 -0.1048
-14 10 25 0.2718 -0.0710
-14 10 26 -6.2687 -0.5001
-13 1 1 -10.8799 0.3273
-13 1 2 -14.3372 2.2057
-13 1 3 24.8096 0.6260
-13 1 4 10.5279 -2.7518
-13 1 5 7.9931 -0.3592
-13 1 6 -4.8916 -3.4562
-13 1 7 -6.3897 0.0073
-13 1 8 23.8139 -2.1042
-13 1 9 7.5015 -0.1228
-13 1 10 -10.7097 0.5601
-13 1 11 -3.7966 0.3053
-13 1 12 7.6829 2.3227
-13 1 13 -20.7555 0.6363
-13 1 14 18.3704 3.0692
-13 1 15 14.3869 0.1762
-13 1 16 7.3033 2.4789
-13 1 17 -20.3486 -0.2316
-13 1 18 1.3586 0.4373
-13 1 19 -2.0122 -0.7007
-13 1 20 -0.5362 -1.6339
-13 1 21 -2.5665 -0.9223
-13 1 22 9.0807 -2.9785
-13 1 23 -0.2856 -0.5627
-13 1 24 -1.9026 -2.8944
-13 1 25 -7.2421 -0.2491
-13 1 26 8.3225 -1.6518
-13 1 27 -5.8405 0.0977
-13 1 28 0.3017 0.1450
-13 1 29 1.7193 0.4952
-13 1 30 -5.4414 1.4010
-13 1 31 -0.1836 0.4550
-13 1 32 6.3656 1.9829
-13 1 33 -3.8231 0.2400
-13 1 34 -3.6287 1.6471
-13 1 35 6.3622 -0.0141
-13 3 1 -8.7712 0.1433
-13 3 2 -6.3024 0.4025
-13 3 3 -10.0597 -0.6467
-13 3 4 15.0898 0.7161
-13 3 5 4.1443 -0.4754
-13 3 6 11.6027 2.2299
-13 3 7 -1.4711 0.7143
-13 3 8 -10.7484 0.9392
-13 3 9 -8.7621 -0.1386
-13 3 10 -18.2567 -0.4724
-13 3 11 -1.1464 -0.1935
-13 3 12 -44.5696 -1.3816
-13 3 13 16.1409 -0.3203
-13 3 14 -16.2937 -2.0423
-13 3 15 9.7702 -0.4161
-13 3 16 -8.5464 -1.6359
-13 3 17 -7.9971 -0.1335
-13 3 18 14.9602 -0.6121
-13 3 19 8.6520 0.1118
-13 3 20 15.3182 0.7013
-13 3 21 13.9579 0.2267
-13 3 22 11.7398 1.4293
-13 3 23 10.6153 0.0716
-13 3 24 9.8410 1.4512
-13 3 25 6.2863 -0.1158
-13 3 26 8.0096 0.8526
-13 3 27 12.6891 -0.3316
-13 3 28 -8.9426 -0.1577
-13 3 29 0.9593 -0.4213
-13 3 30 1.5885 -0.9238
-13 3 31 0.6237 -0.3374
-13 3 32 2.6504 -1.2380
-13 3 33 3.8127 -0.1948
-13 3 34 -2.7922 -0.9322
-13 3 35 4.4361 -0.1270
-13 5 1 13.2604 -0.0933
-13 5 2 7.5738 -0.2150
-13 5 3 -17.7758 0.5285
-13 5 4 8.1909 -0.8759
-13 5 5 6.0882 0.3290
-13 5 6 2.4619 -0.8159
-13 5 7 4.4372 -0.1745
-13 5 8 18.4950 -0.9746
-13 5 9 -7.8435 -0.3658
-13 5 10 10.5804 0.2280
-13 5 11 -4.0463 0.1648
-13 5 12 -1.2674 0.9329
-13 5 13 8.1056 0.1529
-13 5 14 1.3069 1.3539
-13 5 15 -16.7772 0.3012
-13 5 16 8.6949 1.2073
-13 5 17 -6.9535 0.0024
-13 5 18 -12.0320 0.4182
-13 5 19 -0.7250 -0.0462
-13 5 20 -1.2900 -0.5071
-13 5 21 7.7084 -0.1767
-13 5 22 4.5501 -1.0044
-13 5 23 -0.9819 -0.1637
-13 5 24 -5.0853 -1.0594
-13 5 25 -2.4573 0.0427
-13 5 26 -6.0279 -0.6061
-13 5 27 0.2462 0.2396
-13 5 28 -6.6816 0.0853
-13 5 29 2.8671 0.2254
-13 5 30 -4.8679 0.5814
-13 5 31 1.7766 0.2504
-13 5 32 -2.1108 0.8696
-13 5 34 0.1761 0.7425
-13 5 35 -1.5785 0.0240
-13 7 1 -0.2794 -0.0161
-13 7 2 -8.2243 0.2080
-13 7 3 4.4870 -0.3015
-13 7 4 8.1733 0.3912
-13 7 5 9.3567 -0.2968
-13 7 6 -9.6332 0.6422
-13 7 7 6.4540 0.1130
-13 7 8 9.9397 0.3655
-13 7 9 -3.2092 0.2588
-13 7 10 -17.1543 0.1682
-13 7 11 -1.6564 0.0404
-13 7 12 3.0165 -0.7668
-13 7 13 -6.6441 -0.2998
-13 7 14 10.6304 -1.0744
-13 7 15 9.6110 -0.1399
-13 7 16 4.6162 -1.0139
-13 7 17 1.0591 -0.1529
-13 7 18 -8.4691 -0.3616
-13 7 19 6.1130 0.1720
-13 7 20 -5.9220 0.4226
-13 7 21 7.5440 0.0006
-13 7 22 2.1951 0.7788
-13 7 23 10.3481 0.0607
-13 7 24 15.0766 0.9203
-13 7 25 4.4310 -0.0149
-13 7 26 3.2672 0.4268
-13 7 27 1.9667 -0.1022
-13 7 28 7.3212 -0.0362
-13 7 29 5.4087 -0.3169
-13 7 30 2.0973 -0.4493
-13 7 32 1.9066 -0.5473
-13 7 33 -1.9968 -0.1895
-13 7 34 1.5755 -0.5505
-13 9 1 -2.2933 -0.0812
-13 9 2 -4.4358 -0.3596
-13 9 3 -2.8245 0.3256
-13 9 4 1.1339 -0.2629
-13 9 5 6.4850 0.1675
-13 9 6 15.9567 -0.3238
-13 9 7 2.1847 -0.0115
-13 9 8 -25.6719 -0.2736
-13 9 9 -5.3852 -0.2277
-13 9 10 22.3327 -0.0180
-13 9 11 6.6821 -0.0147
-13 9 12 -7.1009 0.4653
-13 9 13 14.9387 -0.0043
-13 9 14 22.7462 0.9092
-13 9 15 -0.4126 0.2233
-13 9 16 7.3535 0.9457
-13 9 17 3.8279 0.0090
-13 9 18 14.6242 0.3092
-13 9 19 -2.4665 -0.0255
-13 9 20 11.3308 -0.3490
-13 9 21 0.8104 -0.0720
-13 9 22 -1.9395 -0.6220
-13 9 23 10.2753 -0.0522
-13 9 24 -28.9575 -0.6772
-13 9 25 17.4036 -0.0430
-13 9 27 -0.0284 0.0878
-13 9 28 -21.7334 -0.0146
-13 9 29 3.1186 0.2481
-13 9 30 7.6162 0.4748
-13 9 31 -5.7216 0.3058
-13 11 1 4.5837 0.1089
-13 11 2 -18.6274 0.2305
-13 11 3 14.3758 -0.1714
-13 11 4 -14.1197 0.2199
-13 11 5 -11.0715 -0.1278
-13 11 6 -0.3701 0.1879
-13 11 7 -6.4488 0.0106
-13 11 8 14.1546 0.1709
-13 11 9 -5.6146 0.1151
-13 11 10 -7.3372 -0.0152
-13 11 11 -5.8623 0.1813
-13 11 12 1.4428 -0.3480
-13 11 13 -6.7968 0.0874
-13 11 14 -21.5890 -0.8376
-13 11 15 -3.6704 -0.0206
-13 11 16 -1.4609 -0.7546
-13 11 17 -4.0506 -0.1909
-13 11 18 -4.4791 -0.3049
-13 11 19 -1.0988 -0.0811
-13 11 20 14.8219 0.3801
-12 0 2 -28.8948 5.2756
-12 0 4 5.6361 10.5741
-12 0 6 -6.5836 10.9964
-12 0 8 -37.4183 2.0345
-12 0 10 -9.8961 -7.7793
-12 0 12 -28.6087 -12.7235
-12 0 14 -48.4606 -12.5964
-12 0 16 13.9815 -6.6531
-12 0 18 -8.0118 1.8447
-12 0 20 -4.2729 8.7711
-12 0 22 -5.2001 11.0331
-12 0 26 -16.2460 2.3508
-12 0 28 14.9567 -3.8390
-12 0 30 -0.5058 -7.2959
-12 0 32 3.7192 -7.1055
-12 0 34 5.3099 -3.7846
-12 2 1 -22.9582 -0.8751
-12 2 2 8.0148 -2.7350
-12 2 3 -30.1659 0.1315
-12 2 4 -9.7207 -3.8442
-12 2 5 -31.1968 0.1286
-12 2 6 -6.9393 -2.9169
-12 2 7 21.6769 0.0417
-12 2 8 3.1612 -0.7804
-12 2 9 -0.0173 0.1668
-12 2 10 27.2225 2.1355
-12 2 11 41.7514 0.5079
-12 2 12 8.3081 4.2256
-12 2 13 -1.6937 0.1377
-12 2 14 16.8440 3.6198
-12 2 15 11.5638 0.0657
-12 2 16 -1.6242 2.2056
-12 2 17 9.9497 0.0919
-12 2 18 -24.8135 -0.2068
-12 2 19 -3.6474 -0.1448
-12 2 20 -16.0950 -2.3171
-12 2 21 -8.1249 -0.1078
-12 2 22 -10.3176 -2.7731
-12 2 23 -0.1603 0.0926
-12 2 24 -15.0127 -2.1329
-12 2 25 -0.8018 0.2734
-12 2 26 -2.3011 -0.4774
-12 2 27 1.6400 0.3699
-12 2 28 7.3805 1.2700
-12 2 29 -1.8788 0.4897
-12 2 30 -5.1198 2.1814
-12 2 31 1.8900 0.2894
-12 2 32 -4.7162 1.9998
-12 2 33 -1.6203 0.2023
-12 2 34 5.5595 1.1313
-12 2 35 1.4143 0.0914
-12 4 1 24.3155 0.1222
-12 4 2 -9.6605 1.5927
-12 4 3 26.2195 0.2361
-12 4 4 -4.2285 2.2715
-12 4 5 14.1771 -0.2791
-12 4 6 -11.6356 1.5796
-12 4 8 4.6728 0.6609
-12 4 9 10.7570 0.1721
-12 4 10 15.9946 -1.1298
-12 4 11 -24.8118 -0.0561
-12 4 12 17.0758 -2.2096
-12 4 13 -19.5204 -0.1482
-12 4 14 2.3870 -2.1519
-12 4 15 6.3977 0.0401
-12 4 16 -13.5645 -1.0470
-12 4 17 12.9011 0.1092
-12 4 18 8.4576 0.1199
-12 4 19 -8.9112 0.0698
-12 4 20 -6.5494 1.3195
-12 4 21 -8.5317 0.2198
-12 4 22 6.0552 1.8018
-12 4 23 2.1654 0.0157
-12 4 24 2.3502 1.2257
-12 4 25 -1.7833 0.0449
-12 4 26 7.8327 0.3808
-12 4 27 -4.1900 -0.0351
-12 4 28 12.2307 -0.5842
-12 4 29 3.3447 -0.2002
-12 4 30 -6.7646 -1.0794
-12 4 31 -1.0040 -0.0438
-12 4 32 2.7628 -1.0382
-12 4 33 -0.3812 0.0147
-12 4 34 6.9993 -0.4471
-12 4 35 3.7875 -0.1259
-12 6 1 -9.4483 -0.0327
-12 6 2 -16.4419 -0.9264
-12 6 3 3.4235 -0.1503
-12 6 4 9.0153 -1.5358
-12 6 5 -4.1537 0.0972
-12 6 6 -5.6265 -1.3013
-12 6 7 -7.8327 0.0681
-12 6 8 -15.5978 -0.1918
-12 6 9 12.9025 -0.0744
-12 6 10 -2.3962 0.7218
-12 6 11 -1.2236 -0.0771
-12 6 12 1.3948 1.4627
-12 6 13 1.8066 0.1385
-12 6 14 -17.8698 1.6857
-12 6 15 7.1429 0.1569
-12 6 16 -3.6230 0.8321
-12 6 17 0.8495 -0.1844
-12 6 18 3.8749 -0.2111
-12 6 19 -3.0217 -0.1416
-12 6 20 -6.0064 -0.7207
-12 6 21 -2.5205 -0.1041
-12 6 22 -8.7682 -1.2454
-12 6 23 -0.8779 -0.1563
-12 6 24 -2.8597 -0.9363
-12 6 25 0.2837 -0.0073
-12 6 26 4.0695 -0.1618
-12 6 27 -2.9081 0.0330
-12 6 28 -1.2183 0.4276
-12 6 29 -3.0772 0.0682
-12 6 30 -0.0632 0.7633
-12 6 31 -3.6830 0.1259
-12 6 32 0.7752 0.7281
-12 6 33 7.1306 0.0359
-12 6 34 -3.0687 0.3025
-12 8 1 5.7416 -0.0043
-12 8 2 -5.6331 0.7287
-12 8 3 1.7128 -0.0728
-12 8 4 -18.5337 1.2713
-12 8 5 -0.6726 -0.0761
-12 8 6 14.9221 1.0144
-12 8 7 7.3258 -0.0591
-12 8 8 9.4619 0.2625
-12 8 9 -5.0516 0.0632
-12 8 10 10.7364 -0.5875
-12 8 11 -7.0137 0.1602
-12 8 12 -3.6103 -1.1353
-12 8 13 -8.6556 -0.1263
-12 8 14 -11.5783 -1.2179
-12 8 15 5.6407 -0.0777
-12 8 16 6.4779 -0.7063
-12 8 17 -10.3167 0.0774
-12 8 18 5.7914 0.0839
-12 8 19 -10.4661 0.1523
-12 8 20 -1.0674 0.8003
-12 8 21 -5.8723 0.0462
-12 8 22 13.0832 0.8717
-12 8 23 -5.6942 0.1045
-12 8 24 -15.4442 0.7418
-12 8 25 -15.1968 0.0673
-12 8 26 -3.4601 0.1416
-12 8 27 17.1690 -0.1117
-12 8 28 6.3633 -0.3336
-12 8 29 -4.5583 -0.0955
-12 8 30 -0.2915 -0.6709
-12 8 31 27.1113 0.0229
-12 10 1 -0.8514 0.1030
-12 10 2 6.6867 -0.5194
-12 10 3 3.0637 0.0958
-12 10 4 24.6829 -1.0744
-12 10 5 8.8722 0.0831
-12 10 6 13.2929 -0.8721
-12 10 7 -20.1242 0.0134
-12 10 8 3.9200 -0.1253
-12 10 9 15.1682 -0.1445
-12 10 10 3.6562 0.4426
-12 10 11 -10.6527 -0.0385
-12 10 12 2.5532 0.8570
-12 10 13 14.0227 -0.0128
-12 10 14 -18.6232 0.9837
-12 10 15 -1.8278 0.0930
-12 10 16 7.4016 0.6036
-12 10 17 13.9537 0.0404
-12 10 18 -23.5367 -0.0647
-12 10 19 -0.8131 -0.1174
-12 10 20 -9.5987 -0.6148
-12 10 21 -5.2334 -0.1486
-12 10 22 29.3736 -0.8221
-12 10 23 -8.1415 -0.0990
-12 10 24 -3.0343 -0.5733
-12 10 26 2.8717 -0.0977
-12 10 27 4.1021 0.0467
-11 1 1 15.3045 3.3437
-11 1 2 13.6316 2.6681
-11 1 3 45.8033 -0.9167
-11 1 4 24.7826 -3.0020
-11 1 5 11.0866 0.3594
-11 1 6 9.2192 -0.2464
-11 1 7 -25.3439 0.4228
-11 1 8 25.6468 1.0496
-11 1 9 -17.7244 0.0547
-11 1 10 -27.2317 3.2308
-11 1 11 -36.2346 0.6145
-11 1 12 8.1331 3.7930
-11 1 13 -28.6997 0.6265
-11 1 14 -17.7309 2.8248
-11 1 15 -4.1662 -0.1626
-11 1 16 1.7685 0.5382
-11 1 17 -6.1738 -0.5566
-11 1 18 5.8691 -1.6294
-11 1 19 9.9488 -0.6176
-11 1 20 12.6911 -2.9942
-11 1 21 1.7470 -0.5434
-11 1 22 -2.8646 -2.9849
-11 1 23 -4.1594 -0.0538
-11 1 24 6.8543 -1.6442
-11 1 25 -7.8157 0.2866
-11 1 26 1.0366 0.2692
-11 1 27 0.3262 0.4743
-11 1 28 -10.9253 1.6540
-11 1 29 3.3033 0.4928
-11 1 30 2.9506 2.1158
-11 1 31 5.7882 0.2147
-11 1 32 -5.5723 1.5879
-11 1 33 1.7135 -0.1591
-11 1 34 -0.5148 0.3905
-11 3 1 -2.0469 -0.1390
-11 3 2 -29.0805 0.3383
-11 3 3 8.7263 -1.0717
-11 3 4 -10.8609 0.7603
-11 3 5 -7.0937 0.3185
-11 3 6 -11.0015 1.1551
-11 3 7 -9.6910 0.5338
-11 3 8 -22.2039 -0.8726
-11 3 9 -10.9824 -0.2248
-11 3 10 -17.6822 -1.6099
-11 3 11 9.4110 -0.3358
-11 3 12 -4.7401 -2.2005
-11 3 13 14.4183 -0.4162
-11 3 14 -1.8491 -1.7076
-11 3 15 -13.6320 -0.0609
-11 3 16 5.0505 -0.5518
-11 3 17 -12.1111 0.1066
-11 3 18 12.3318 0.8356
-11 3 19 4.1798 0.2945
-11 3 20 2.6576 1.6083
-11 3 21 1.0069 0.0688
-11 3 22 5.1155 1.6298
-11 3 23 -3.8794 -0.1201
-11 3 24 3.6685 0.6600
-11 3 25 -4.1055 -0.3943
-11 3 26 -6.3488 -0.1854
-11 3 27 2.1405 -0.4400
-11 3 28 -4.5515 -1.0241
-11 3 29 -3.7112 -0.4989
-11 3 30 4.6445 -1.3891
-11 3 31 -8.2110 -0.2213
-11 3 32 -0.7986 -0.9313
-11 3 34 0.3390 -0.3871
-11 5 1 0.1893 0.5164
-11 5 2 8.2238 -0.2058
-11 5 3 -23.7644 0.5165
-11 5 4 9.7197 -0.5892
-11 5 5 16.3259 0.1003
-11 5 6 11.0633 -0.3852
-11 5 7 3.1826 -0.6136
-11 5 8 12.6095 0.0158
-11 5 9 3.6187 -0.0806
-11 5 10 -9.3071 1.2771
-11 5 11 20.7480 0.2615
-11 5 12 -1.1228 1.2397
-11 5 13 5.2582 0.1765
-11 5 14 12.7438 1.3337
-11 5 15 -7.2398 0.1679
-11 5 16 2.7497 0.3048
-11 5 17 8.9004 -0.2204
-11 5 18 -5.9626 -0.5518
-11 5 19 7.5537 -0.1265
-11 5 20 -0.0500 -1.1814
-11 5 21 6.9137 -0.1307
-11 5 22 -7.9999 -1.2068
-11 5 23 -9.8297 0.0351
-11 5 24 -8.4205 -0.5692
-11 5 25 3.8825 0.2566
-11 5 26 -5.3172 0.1584
-11 5 27 3.2762 0.3216
-11 5 28 -5.9457 0.6521
-11 5 29 -0.4889 0.1638
-11 5 30 0.9834 0.8712
-11 5 31 -3.4029 0.2469
-11 5 32 -2.9846 0.6779
-11 5 33 1.4330 -0.0709
-11 7 1 5.7072 -0.4251
-11 7 2 11.4592 0.1640
-11 7 3 13.0179 -0.4069
-11 7 4 -6.7438 0.2407
-11 7 5 0.9415 -0.0087
-11 7 6 -0.8543 0.2869
-11 7 7 -6.8485 0.2542
-11 7 8 -2.1043 -0.3068
-11 7 9 -2.1698 0.2216
-11 7 10 -10.5416 -0.5150
-11 7 11 7.9558 -0.0732
-11 7 12 -4.2576 -1.2821
-11 7 13 -10.0926 -0.2684
-11 7 14 -6.6018 -0.9573
-11 7 15 -14.5104 -0.0853
-11 7 16 -10.1638 -0.4212
-11 7 17 -6.3080 -0.0078
-11 7 18 0.7573 0.4593
-11 7 19 -1.5609 0.1600
-11 7 20 5.4036 0.8515
-11 7 21 0.9043 0.0206
-11 7 22 6.0547 0.8895
-11 7 23 2.5960 -0.0159
-11 7 24 3.7854 0.5699
-11 7 25 1.6746 -0.1615
-11 7 26 -12.5355 -0.1358
-11 7 27 2.2076 -0.3448
-11 7 28 -0.3127 -0.4968
-11 7 29 -10.4624 -0.2157
-11 7 30 -4.8174 -0.7232
-11 7 31 -10.1195 -0.0946
-11 7 33 -7.2971 0.0405
-11 9 1 -10.8246 0.1351
-11 9 2 -0.6521 -0.1613
-11 9 3 -25.6886 0.3899
-11 9 4 14.8872 -0.1147
-11 9 5 -9.6848 -0.0259
-11 9 6 4.9629 -0.0449
-11 9 7 2.5651 -0.1372
-11 9 8 -3.9300 -0.0212
-11 9 9 -0.4695 -0.2433
-11 9 10 -9.2356 0.5210
-11 9 11 24.7777 0.0502
-11 9 12 20.1360 0.7783
-11 9 13 0.7636 0.0909
-11 9 14 -6.4063 0.9262
-11 9 15 1.4290 0.1681
-11 9 16 -0.3093 0.4151
-11 9 17 12.6431 -0.1197
-11 9 18 -17.1741 -0.4086
-11 9 19 -0.1978 -0.0659
-11 9 20 -9.7608 -0.7502
-11 9 21 3.5933 -0.0320
-11 9 22 -31.7866 -0.7116
-11 9 23 11.2600 -0.0196
-11 9 24 18.2583 -0.4329
-11 9 25 -7.3769 0.0158
-11 9 26 -9.5986 0.0103
-11 9 27 -4.9953 0.2052
-11 9 28 -12.8102 0.5147
-11 9 29 -1.1264 0.1593
-11 9 30 14.8666 0.5247
-11 9 31 -4.4413 0.1893
-11 11 1 1.7477 -0.2248
-11 11 2 4.8390 0.0884
-11 11 3 0.4335 -0.2242
-11 11 4 4.7729 0.1862
-11 11 5 9.6715 -0.0997
-11 11 6 0.3438 0.0335
-11 11 7 5.7142 0.0930
-11 11 8 6.1596 -0.0594
-11 11 9 3.3038 0.0829
-11 11 10 -2.0754 -0.2994
-11 11 11 -7.2910 0.1067
-11 11 12 8.0507 -0.6637
-11 11 13 -11.2905 -0.0951
-11 11 14 -7.7633 -0.7564
-11 11 15 -4.6685 -0.0730
-11 11 16 6.7321 -0.3433
-11 11 17 -16.2997 -0.1101
-11 11 18 4.9766 0.3370
-11 11 19 1.9082 -0.0001
-11 11 20 -18.4434 0.7495
-10 0 6 -42.9142 0.7737
-10 0 8 -17.5014 -9.0545
-10 0 10 44.6167 -14.9548
-10 0 12 31.6065 -13.2064
-10 0 14 8.8683 -6.7318
-10 0 16 6.0290 2.3133
-10 0 18 -24.7232 9.3797
-10 0 20 -4.2578 11.6485
-10 0 22 6.5439 8.4016
-10 0 24 -15.2374 1.9092
-10 0 26 0.3177 -4.5548
-10 0 30 -6.7048 -7.5716
-10 0 32 -0.8878 -3.7578
-10 0 34 -2.9823 1.0265
-10 2 1 -13.9215 -1.3865
-10 2 2 21.5203 -3.8558
-10 2 3 -4.7626 0.2993
-10 2 4 13.4954 -3.2384
-10 2 5 25.4477 0.1293
-10 2 6 -13.5494 -0.7404
-10 2 7 39.3444 -0.4683
-10 2 8 30.8061 2.1112
-10 2 9 1.6316 0.0555
-10 2 10 4.3949 3.9849
-10 2 11 2.1453 0.0147
-10 2 12 -2.2031 3.8671
-10 2 13 -1.0400 -0.3107
-10 2 14 11.4863 1.7809
-10 2 15 13.0153 -0.3250
-10 2 16 -15.1210 -0.5903
-10 2 17 -1.5587 -0.2704
-10 2 18 -10.3587 -2.5804
-10 2 19 -8.3469 -0.3861
-10 2 20 -8.7238 -3.2311
-10 2 21 1.2236 -0.1110
-10 2 22 -5.6047 -2.2046
-10 2 23 8.3088 0.1231
-10 2 24 -14.1873 -0.3946
-10 2 25 0.8808 0.2246
-10 2 26 4.9437 1.3780
-10 2 27 0.8111 0.2751
-10 2 28 -0.7597 2.3738
-10 2 29 -3.1898 0.3301
-10 2 30 0.4097 2.1331
-10 2 31 -5.8562 0.0343
-10 2 32 -1.1637 1.0432
-10 2 33 -8.1350 0.1795
-10 2 34 5.8752 -0.1556
-10 4 1 8.3698 0.2054
-10 4 2 4.8888 2.3717
-10 4 3 -2.8947 0.3071
-10 4 4 -1.9286 1.8625
-10 4 5 -9.2910 -0.2837
-10 4 6 -4.9798 0.2443
-10 4 7 -9.1722 0.0566
-10 4 8 5.9071 -0.7898
-10 4 9 -9.0381 0.3151
-10 4 10 5.9824 -2.4052
-10 4 11 -12.3438 -0.1297
-10 4 12 -11.0916 -2.2143
-10 4 13 -1.7699 -0.0084
-10 4 14 -10.9245 -0.9563
-10 4 15 6.0202 0.2312
-10 4 16 -14.8612 0.3992
-10 4 17 -6.2578 0.1229
-10 4 18 -2.1934 1.3791
-10 4 19 -11.6479 0.2806
-10 4 20 -7.8554 1.9379
-10 4 21 -0.1630 0.2609
-10 4 22 6.0570 1.3220
-10 4 23 6.7691 -0.1461
-10 4 24 -8.4197 0.2590
-10 4 25 -5.8515 -0.0166
-10 4 26 6.5017 -0.7143
-10 4 27 -1.6185 -0.0208
-10 4 28 -2.3159 -1.1799
-10 4 29 7.9126 -0.1414
-10 4 30 -2.2186 -1.1143
-10 4 31 -0.5070 0.1157
-10 4 32 1.5758 -0.4182
-10 4 33 9.6874 0.0066
-10 4 34 -2.2597 0.3373
-10 6 1 -2.4287 -0.0644
-10 6 2 -20.8979 -1.6034
-10 6 3 -0.2682 -0.1188
-10 6 4 14.0793 -1.3687
-10 6 5 -10.2636 0.2684
-10 6 6 -16.7420 -0.3229
-10 6 7 9.0139 -0.0523
-10 6 8 0.5335 0.8479
-10 6 9 12.2206 -0.1441
-10 6 10 6.0464 1.4818
-10 6 11 6.6514 -0.0636
-10 6 12 13.9529 1.6033
-10 6 13 18.1104 0.1567
-10 6 15 14.9526 -0.0749
-10 6 16 15.0211 -0.2760
-10 6 17 -9.3014 -0.2171
-10 6 18 -0.5592 -1.0551
-10 6 19 -10.2538 -0.1194
-10 6 20 -0.2773 -1.2089
-10 6 21 1.5172 -0.1332
-10 6 22 0.1427 -1.0394
-10 6 23 3.5346 -0.0416
-10 6 24 11.3446 -0.1375
-10 6 25 -3.3125 0.0970
-10 6 26 2.8124 0.5670
-10 6 27 -5.3126 0.1161
-10 6 28 7.4696 0.8643
-10 6 30 -1.0612 0.7637
-10 6 31 -5.6024 0.0448
-10 6 32 3.5807 0.2192
-10 6 33 -3.2353 -0.0162
-10 8 1 2.8429 0.0300
-10 8 2 0.7712 1.3485
-10 8 3 -5.3466 -0.0153
-10 8 4 10.4684 1.0755
-10 8 5 4.9183 -0.0278
-10 8 6 2.8214 0.2507
-10 8 7 -5.9967 0.0864
-10 8 8 11.9941 -0.6747
-10 8 9 -11.0636 0.1338
-10 8 10 -8.3916 -1.0926
-10 8 11 -20.4882 0.0377
-10 8 12 0.7891 -1.1782
-10 8 13 3.6106 -0.0901
-10 8 14 -11.3277 -0.6481
-10 8 15 -2.4456 0.0024
-10 8 16 4.9961 0.1110
-10 8 17 6.7956 0.2424
-10 8 18 6.6645 0.8204
-10 8 19 -0.2837 0.2330
-10 8 20 -0.6860 1.0825
-10 8 21 4.0322 0.0502
-10 8 22 3.6800 0.6840
-10 8 23 -14.6121 0.1458
-10 8 24 -3.2314 0.1862
-10 8 25 2.1848 0.0735
-10 8 27 7.8390 -0.0998
-10 8 28 -10.1359 -0.6069
-10 8 29 -3.4531 0.0093
-10 8 30 0.7518 -0.7302
-10 8 31 2.6404 -0.0426
-10 10 1 -14.8790 0.1548
-10 10 2 -26.6109 -1.0360
-10 10 3 7.2863 0.0305
-10 10 4 -25.9167 -0.9739
-10 10 5 -1.3580 0.0000
-10 10 6 -9.0007 -0.2544
-10 10 7 -1.0135 -0.0797
-10 10 8 -20.8961 0.5447
-10 10 9 0.3728 -0.1455
-10 10 10 10.6553 0.7990
-10 10 11 -8.9289 -0.0103
-10 10 12 -6.3657 0.9262
-10 10 13 5.5414 0.0394
-10 10 14 0.3902 0.5413
-10 10 15 -6.2062 0.0225
-10 10 16 18.3541 -0.0906
-10 10 17 -1.4836 -0.0468
-10 10 18 -0.5535 -0.7323
-10 10 19 -4.2649 -0.1348
-10 10 20 35.2144 -0.8434
-10 10 21 3.2762 -0.1392
-10 10 22 15.3035 -0.6499
-10 10 23 9.6810 0.0003
-10 10 24 -20.9819 -0.0500
-10 10 25 -2.8322 0.0451
-10 12 1 16.2022 -0.1339
-10 12 2 -13.4682 0.9226
-10 12 3 9.1163 -0.0877
-10 12 4 -0.8886 0.7254
-10 12 5 2.4276 0.1288
-10 12 6 -1.5175 0.1242
-10 12 7 10.4503 0.1527
-10 12 8 0.3723 -0.4120
-10 12 9 11.5939 0.1716
-9 1 1 -18.1297 4.9366
-9 1 2 -10.2582 1.8493
-9 1 4 27.6718 -1.4070
-9 1 5 -60.2962 0.7276
-9 1 6 10.8146 3.0618
-9 1 7 -26.4980 0.5399
-9 1 8 -5.6343 3.7768
-9 1 9 6.4540 0.2746
-9 1 10 -19.1770 4.1703
-9 1 11 10.7795 0.8062
-9 1 12 -2.3291 3.3416
-9 1 13 -11.8054 0.2137
-9 1 14 5.2847 0.8948
-9 1 15 7.2632 -0.3350
-9 1 16 23.2560 -1.6896
-9 1 17 2.1278 -0.6568
-9 1 18 8.8278 -2.8253
-9 1 19 -5.1407 -0.1858
-9 1 20 -7.3237 -2.8597
-9 1 21 -7.9148 0.0892
-9 1 22 2.3764 -1.4223
-9 1 23 -6.0416 0.4482
-9 1 24 -0.2956 0.4470
-9 1 25 -10.9162 0.7059
-9 1 26 -4.6983 2.0273
-9 1 27 0.8287 0.5392
-9 1 28 5.8850 2.2817
-9 1 29 2.4438 0.2189
-9 1 30 1.3951 1.6223
-9 1 31 8.3733 -0.1330
-9 1 32 -1.6858 0.3994
-9 1 33 3.3043 -0.4460
-9 3 1 9.3363 -0.4914
-9 3 2 -20.9118 -0.0062
-9 3 3 -5.1650 -0.8532
-9 3 4 22.5333 0.5553
-9 3 5 -8.5410 1.0279
-9 3 6 -0.2070 -0.7399
-9 3 7 9.1252 0.0731
-9 3 8 -31.0250 -2.1249
-9 3 9 11.9546 -0.1107
-9 3 10 0.4522 -1.9848
-9 3 11 22.0846 -0.3455
-9 3 12 -8.6870 -1.9828
-9 3 13 -5.3557 -0.0892
-9 3 14 10.3879 -0.3158
-9 3 15 -0.9328 0.3801
-9 3 16 19.3486 0.8560
-9 3 17 11.2264 0.3159
-9 3 18 13.6825 1.7286
-9 3 19 14.3803 0.2386
-9 3 20 12.0250 1.6724
-9 3 21 1.5531 -0.0358
-9 3 22 5.1654 0.8284
-9 3 23 0.6566 -0.2489
-9 3 24 3.5779 -0.3583
-9 3 25 6.6420 -0.3655
-9 3 26 -4.5023 -1.2000
-9 3 27 -1.4235 -0.4397
-9 3 28 -4.2505 -1.4240
-9 3 29 -2.0704 -0.2144
-9 3 30 -5.0331 -1.1161
-9 3 31 0.4375 0.0152
-9 3 32 0.3569 -0.2320
-9 3 33 3.2412 0.1088
-9 5 1 -2.9369 0.8183
-9 5 2 -1.3699 -0.0461
-9 5 3 -5.5956 0.0808
-9 5 4 15.7139 -0.0234
-9 5 5 19.4463 -0.3254
-9 5 6 11.3538 0.2778
-9 5 7 -2.5408 -0.5483
-9 5 8 -0.5601 1.0450
-9 5 9 -2.9971 0.2404
-9 5 10 -7.3876 1.5320
-9 5 11 -12.1469 0.1543
-9 5 12 2.4301 1.0974
-9 5 13 -20.8563 0.2023
-9 5 14 7.2751 0.5086
-9 5 15 -7.4776 -0.1688
-9 5 16 -0.2333 -0.7544
-9 5 17 10.2911 -0.2614
-9 5 18 1.0386 -1.1389
-9 5 19 -5.2371 -0.0621
-9 5 20 -4.7135 -1.1953
-9 5 21 -2.2357 -0.0016
-9 5 22 -7.2832 -0.6603
-9 5 23 -11.7166 0.1736
-9 5 24 -0.2187 0.1960
-9 5 25 4.0014 0.3313
-9 5 26 -2.5765 0.8677
-9 5 27 2.5920 0.2615
-9 5 28 1.8883 0.9037
-9 5 29 -6.0955 0.0612
-9 5 30 5.3354 0.7086
-9 5 31 5.6856 0.0418
-9 5 32 3.4217 0.1147
-9 5 33 3.7838 -0.1967
-9 7 1 -7.4056 -0.5801
-9 7 2 -15.8122 -0.0680
-9 7 3 -2.3789 -0.2922
-9 7 4 -24.0530 -0.0498
-9 7 5 -8.1933 0.3723
-9 7 6 7.7421 -0.2148
-9 7 7 -6.1125 0.2669
-9 7 8 -8.4641 -0.7809
-9 7 9 -5.3223 0.0695
-9 7 10 7.1279 -0.9188
-9 7 11 1.1676 -0.2342
-9 7 12 8.2379 -1.1476
-9 7 13 -9.7320 -0.2287
-9 7 14 3.0340 -0.2949
-9 7 15 7.4499 0.1217
-9 7 16 -4.5440 0.4261
-9 7 17 4.0085 0.1645
-9 7 18 5.0111 0.9783
-9 7 19 8.1210 0.1215
-9 7 20 8.9899 0.8831
-9 7 21 -3.8019 0.0187
-9 7 22 5.1934 0.5714
-9 7 23 -1.7640 -0.0630
-9 7 24 -9.0549 -0.1671
-9 7 25 -5.7365 -0.2082
-9 7 26 -3.4536 -0.6823
-9 7 27 -5.9697 -0.2291
-9 7 28 0.7000 -0.7102
-9 7 29 -6.5639 -0.0498
-9 7 30 2.9971 -0.4939
-9 7 31 2.9528 -0.0239
-9 7 32 -0.3510 -0.1773
-9 9 1 17.2374 0.3594
-9 9 2 -6.2119 -0.0002
-9 9 3 6.8725 0.2474
-9 9 4 -2.7669 0.1164
-9 9 5 15.5102 -0.2451
-9 9 6 -15.4322 0.2746
-9 9 7 17.5037 -0.2117
-9 9 8 -1.2473 0.4148
-9 9 9 3.5421 -0.0721
-9 9 10 2.1509 0.8252
-9 9 11 9.1977 0.1481
-9 9 12 10.2139 0.7259
-9 9 13 -14.1988 0.1650
-9 9 14 2.3897 0.4750
-9 9 15 -1.3738 0.0411
-9 9 16 -4.8947 -0.4230
-9 9 17 9.8854 -0.1769
-9 9 18 1.7522 -0.8399
-9 9 19 -17.6964 -0.1068
-9 9 20 -23.0308 -0.8205
-9 9 21 3.1831 0.0289
-9 9 22 8.8840 -0.4084
-9 9 23 0.5817 0.0055
-9 9 24 -2.0567 0.0731
-9 9 25 -2.2737 0.1262
-9 9 26 0.6464 0.4675
-9 9 28 9.1560 0.7229
-9 9 29 -14.0382 0.0354
-9 9 30 -3.1646 0.2957
-9 11 1 2.8600 -0.3518
-9 11 2 -11.3068 -0.0999
-9 11 3 -5.8539 -0.0817
-9 11 4 -10.8978 -0.0884
-9 11 8 -9.1226 -0.2941
-9 11 9 5.9392 0.0920
-9 11 10 -13.4327 -0.4683
-9 11 11 -3.9056 0.0100
-9 11 12 17.9844 -0.6852
-9 11 13 19.0694 -0.0830
-9 11 14 -9.6687 -0.3317
-9 11 15 7.1693 -0.0592
-9 11 16 10.3368 0.2817
-9 11 17 11.9814 -0.0148
-9 11 18 -2.3518 0.8304
-9 11 19 15.0333 0.1074
-9 11 20 -0.8548 0.7501
-9 11 21 -3.1455 0.0257
-8 0 2 -56.2450 10.5924
-8 0 4 18.9342 -2.7684
-8 0 10 12.4221 -14.1283
-8 0 12 -6.6787 -6.5278
-8 0 14 -49.1852 2.9046
-8 0 16 -0.7725 10.1189
-8 0 18 11.6937 11.9299
-8 0 20 27.5404 8.2395
-8 0 22 11.1798 1.3039
-8 0 24 18.1367 -5.6283
-8 0 26 6.7131 -8.9420
-8 0 28 -5.4135 -8.0561
-8 0 30 6.0638 -3.8155
-8 0 32 -5.3237 1.5314
-8 2 1 -13.6918 -1.0778
-8 2 2 -10.6737 -2.7948
-8 2 3 27.7791 0.3481
-8 2 4 -38.4151 -0.8200
-8 2 5 27.8833 0.0190
-8 2 6 1.6153 1.7044
-8 2 7 22.0054 -0.6699
-8 2 8 27.0418 3.9703
-8 2 9 -14.8778 -0.0999
-8 2 10 -5.8020 3.7218
-8 2 11 30.3143 -0.1053
-8 2 12 10.9675 1.5584
-8 2 13 15.5527 -0.5866
-8 2 14 -20.6985 -1.0543
-8 2 15 -4.8455 -0.3798
-8 2 16 -21.8732 -3.0468
-8 2 17 -15.1174 -0.4918
-8 2 18 -21.3278 -3.5684
-8 2 19 -8.1040 -0.2771
-8 2 20 -10.8762 -2.3575
-8 2 21 6.7230 -0.0911
-8 2 22 -11.1843 -0.4771
-8 2 23 -2.6148 0.0693
-8 2 24 -3.0056 1.5365
-8 2 25 2.3413 0.2340
-8 2 26 4.8281 2.5545
-8 2 27 0.9563 0.1505
-8 2 28 2.3653 2.2034
-8 2 29 -0.9465 -0.0099
-8 2 30 4.7845 1.0074
-8 2 31 -8.7247 -0.0611
-8 2 32 -8.8173 -0.3871
-8 2 33 -0.6719 -0.2614
-8 4 1 4.9239 0.1140
-8 4 2 -4.8692 1.9176
-8 4 3 -6.7220 0.1032
-8 4 4 -21.1965 0.4757
-8 4 5 -26.1808 -0.3137
-8 4 6 -2.8235 -1.2981
-8 4 7 -24.7117 0.2353
-8 4 8 23.5885 -1.9073
-8 4 9 -13.6464 0.2822
-8 4 10 8.8158 -2.3582
-8 4 11 -15.6539 -0.2072
-8 4 12 5.2626 -1.0819
-8 4 13 3.3377 0.1628
-8 4 14 -5.4714 0.8740
-8 4 15 -3.3076 0.3382
-8 4 16 -0.6991 1.6235
-8 4 17 1.8912 0.0460
-8 4 18 7.4622 1.9712
-8 4 19 -1.0205 0.2579
-8 4 20 5.3682 1.5467
-8 4 21 1.6126 0.0981
-8 4 22 8.5548 0.1950
-8 4 23 1.0574 -0.1683
-8 4 24 3.3473 -0.8542
-8 4 25 -7.9412 -0.0825
-8 4 26 -0.4430 -1.3961
-8 4 27 2.0700 0.0168
-8 4 28 3.1399 -1.1933
-8 4 29 4.2020 -0.0789
-8 4 30 -4.6906 -0.4619
-8 4 32 -3.3545 0.3590
-8 4 33 6.8427 0.2720
-8 6 1 14.6376 -0.0994
-8 6 2 -5.2139 -1.4257
-8 6 3 16.7782 0.1087
-8 6 4 4.3003 -0.3895
-8 6 5 7.6298 0.1706
-8 6 6 -7.4445 0.8865
-8 6 7 23.6735 -0.1330
-8 6 8 13.5125 1.5586
-8 6 9 1.5592 -0.1105
-8 6 10 3.9618 1.4676
-8 6 11 16.5071 0.1060
-8 6 12 -8.2956 0.7976
-8 6 13 11.7827 0.1435
-8 6 14 -7.4309 -0.3620
-8 6 15 -3.3073 -0.2285
-8 6 16 -3.1791 -1.2799
-8 6 17 -0.6349 -0.2159
-8 6 18 -6.1281 -1.3298
-8 6 19 -0.4012 -0.0283
-8 6 20 0.8881 -0.9933
-8 6 21 11.7883 -0.1343
-8 6 22 3.1680 -0.2717
-8 6 23 5.2807 0.0748
-8 6 24 1.9437 0.6800
-8 6 25 -0.3736 0.1059
-8 6 26 9.9983 0.9088
-8 6 27 12.2045 0.0603
-8 6 28 -9.8620 0.8492
-8 6 29 -4.6305 -0.0524
-8 6 31 -4.5563 0.0621
-8 6 32 -6.8409 -0.2048
-8 8 1 -9.1195 0.0761
-8 8 2 2.9535 1.2299
-8 8 3 -0.0188 -0.0871
-8 8 4 0.2042 0.3187
-8 8 5 -2.0364 -0.0366
-8 8 6 8.1627 -0.6415
-8 8 7 -18.1088 0.0884
-8 8 8 -3.4209 -1.1571
-8 8 9 11.7223 0.1157
-8 8 10 -12.4551 -1.0310
-8 8 11 3.0574 -0.0435
-8 8 12 6.2968 -0.5656
-8 8 13 17.0449 -0.0797
-8 8 14 0.2301 0.2323
-8 8 15 -8.6550 0.1161
-8 8 16 4.5849 0.9809
-8 8 17 -6.5838 0.2466
-8 8 18 1.4816 1.1505
-8 8 19 5.9964 0.1174
-8 8 20 -11.9303 0.8000
-8 8 21 3.9656 -0.0550
-8 8 22 -5.1274 0.1255
-8 8 23 4.7372 0.0779
-8 8 24 -5.6572 -0.4243
-8 8 25 -5.8838 -0.0525
-8 8 26 -10.0620 -0.7864
-8 8 28 -3.7300 -0.5890
-8 8 29 7.3242 0.0529
-8 8 30 -0.2094 -0.3136
-8 10 1 7.2660 0.0267
-8 10 2 -9.6797 -0.9524
-8 10 3 3.3312 0.0615
-8 10 4 16.6417 -0.3665
-8 10 5 5.3410 -0.1023
-8 10 8 -14.8719 0.9594
-8 10 9 -0.4473 -0.0921
-8 10 10 0.6150 0.8075
-8 10 11 12.1196 -0.0078
-8 10 12 -19.8710 0.4469
-8 10 13 1.6043 0.0544
-8 10 14 -13.9849 -0.1186
-8 10 15 3.6335 -0.1280
-8 10 16 10.8390 -0.8097
-8 10 17 -4.7143 -0.1480
-8 10 18 -16.3924 -1.0003
-8 10 19 4.6519 -0.0908
-8 10 20 9.9946 -0.6869
-8 10 21 -3.6924 -0.1301
-8 10 22 -15.7092 -0.1662
-8 10 23 10.2000 0.1463
-8 10 24 10.5885 0.4049
-8 10 25 -5.7329 0.0753
-8 12 1 -12.0229 -0.0633
-8 12 2 -10.4243 0.7927
-8 12 3 -17.4073 -0.0146
-8 12 4 9.5718 0.2053
-8 12 5 -0.3330 0.2294
-8 12 6 -1.5796 -0.4957
-8 12 7 2.7244 0.1299
-8 12 8 16.9897 -0.7993
-8 12 9 -6.9281 0.0151
-8 12 10 -16.5449 -0.7652
-7 1 1 -32.2056 3.9571
-7 1 2 16.5768 0.0557
-7 1 3 8.9780 -2.1181
-7 1 4 39.4186 1.2364
-7 1 5 -8.6820 1.0133
-7 1 9 8.5241 0.4459
-7 1 10 -27.3318 2.8835
-7 1 11 -44.0853 0.3250
-7 1 12 17.9249 0.8907
-7 1 13 -17.6933 -0.2467
-7 1 14 21.4870 -1.5540
-7 1 15 19.3597 -0.3894
-7 1 16 16.3161 -3.1698
-7 1 17 12.3625 -0.2018
-7 1 18 -5.5871 -2.7146
-7 1 19 10.7393 0.2624
-7 1 20 2.0512 -1.1404
-7 1 21 6.3727 0.7599
-7 1 22 10.9878 0.7833
-7 1 23 8.4986 0.6889
-7 1 24 -7.6548 2.2450
-7 1 25 7.6313 0.7310
-7 1 26 10.9520 2.6591
-7 1 27 5.1198 0.3424
-7 1 28 -5.2068 1.7362
-7 1 29 13.8236 -0.1518
-7 1 30 2.5097 0.3481
-7 1 31 3.9208 -0.3785
-7 1 32 -3.8420 -1.0766
-7 3 1 -17.9328 -0.6976
-7 3 2 29.8870 -0.3015
-7 3 3 0.6125 0.3362
-7 3 4 49.0193 0.1645
-7 3 5 0.3338 0.9099
-7 3 6 -21.1694 -2.2574
-7 3 7 12.5504 -0.2093
-7 3 8 7.8645 -2.0013
-7 3 9 -13.3787 0.0368
-7 3 10 19.5638 -1.4431
-7 3 11 -7.5040 -0.1402
-7 3 12 4.2189 -0.5654
-7 3 13 -13.3479 0.2657
-7 3 14 24.5395 1.1132
-7 3 15 4.8630 0.6092
-7 3 16 6.3812 1.7551
-7 3 17 0.7886 0.2664
-7 3 18 11.1397 1.6772
-7 3 19 -5.6220 0.0186
-7 3 20 11.2918 0.7703
-7 3 21 -9.8439 -0.1971
-7 3 22 6.0979 -0.4199
-7 3 23 2.3073 -0.3691
-7 3 24 1.5472 -1.3382
-7 3 25 -3.5742 -0.2050
-7 3 26 2.7138 -1.4384
-7 3 27 -3.3012 -0.1186
-7 3 28 -6.1955 -1.0686
-7 3 29 -1.3691 0.1552
-7 3 30 3.1095 -0.2493
-7 3 31 -7.4612 0.2553
-7 3 32 1.2638 0.5156
-7 5 1 8.8903 0.7350
-7 5 2 -3.6189 0.0361
-7 5 3 -6.5948 -0.3871
-7 5 4 6.9293 0.5608
-7 5 5 8.0659 -0.5109
-7 5 6 -21.6646 0.7422
-7 5 7 -8.8504 -0.1805
-7 5 8 -33.5377 1.5131
-7 5 9 -2.9690 0.4027
-7 5 10 -11.1942 1.0995
-7 5 11 9.4534 0.0842
-7 5 12 -2.4523 0.2602
-7 5 13 0.6482 -0.0508
-7 5 14 -1.1337 -0.6587
-7 5 15 14.6849 -0.3359
-7 5 16 -9.3362 -1.4125
-7 5 17 -0.6484 -0.2167
-7 5 18 -9.1893 -1.2199
-7 5 19 1.6364 -0.0263
-7 5 20 -14.9236 -0.6030
-7 5 21 4.7190 0.0728
-7 5 22 -9.7329 0.2281
-7 5 23 -1.5924 0.1895
-7 5 24 -4.7750 0.9276
-7 5 25 -1.1127 0.2108
-7 5 26 -3.3785 1.0327
-7 5 27 0.1930 -0.0546
-7 5 28 3.5077 0.6479
-7 5 29 1.9524 -0.1169
-7 5 30 3.5292 0.0958
-7 5 31 1.6157 -0.1767
-7 5 32 8.2553 -0.4516
-7 7 1 -9.9998 -0.3017
-7 7 2 2.9359 -0.2051
-7 7 3 -3.2890 0.0619
-7 7 4 17.3057 -0.3288
-7 7 8 -0.4080 -0.9211
-7 7 9 -0.3430 -0.1708
-7 7 10 -1.6951 -0.8635
-7 7 11 -12.8994 -0.2731
-7 7 12 -2.4599 -0.3748
-7 7 13 -7.3428 0.0415
-7 7 14 -1.6449 0.4597
-7 7 15 11.6742 0.1401
-7 7 16 7.3486 1.0378
-7 7 17 2.6668 0.2321
-7 7 18 7.3926 0.9483
-7 7 19 -3.8860 -0.0754
-7 7 20 -0.6534 0.4594
-7 7 21 -0.1236 -0.0380
-7 7 22 -3.2564 -0.1538
-7 7 23 5.3716 -0.1483
-7 7 24 -1.3978 -0.7707
-7 7 25 6.7645 -0.2208
-7 7 26 -5.1450 -0.8824
-7 7 27 -3.4053 -0.0405
-7 7 28 -4.5605 -0.4491
-7 7 29 7.9349 0.1038
-7 7 30 -1.0234 -0.2162
-7 7 31 1.6445 0.1614
-7 9 1 7.0873 0.2852
-7 9 2 20.5183 0.2423
-7 9 3 -4.7718 -0.0364
-7 9 4 -11.6838 0.2899
-7 9 5 5.9962 -0.2632
-7 9 6 14.2596 0.4453
-7 9 7 18.7565 -0.1520
-7 9 8 22.6509 0.5512
-7 9 9 -9.8778 0.1526
-7 9 10 -9.6033 0.6734
-7 9 11 10.7304 0.1684
-7 9 12 24.4964 0.2602
-7 9 13 4.2639 0.1707
-7 9 14 -31.6896 -0.2709
-7 9 15 9.2170 -0.1532
-7 9 16 -11.2224 -0.9510
-7 9 17 6.5736 -0.2004
-7 9 18 -8.8486 -0.9103
-7 9 19 -11.3437 -0.0482
-7 9 20 -1.8227 -0.4169
-7 9 21 4.1935 0.1117
-7 9 22 -2.3319 0.1660
-7 9 23 -10.2601 -0.0115
-7 9 24 -13.0043 0.5581
-7 9 25 12.3136 0.1792
-7 9 26 10.7792 0.7604
-7 9 28 -8.5756 0.4665
-7 9 29 -3.8545 -0.0490
-7 11 1 -6.9774 -0.2384
-7 11 2 33.2336 -0.2079
-7 11 3 -5.7977 0.0446
-7 11 4 13.5991 -0.2654
-7 11 5 -7.8886 0.1688
-7 11 6 6.2019 -0.3257
-7 11 7 -4.2237 0.1570
-7 11 8 15.3252 -0.3938
-7 11 9 5.1324 0.0415
-7 11 10 35.9593 -0.4386
-7 11 11 -4.2150 -0.0760
-7 11 12 11.3483 -0.3110
-7 11 13 -15.2295 -0.0548
-7 11 14 6.4254 0.3127
-7 11 15 -2.6234 0.0221
-7 11 16 8.4483 0.7748
-7 11 19 6.7603 0.0380
-7 11 20 1.8757 0.3555
-6 0 2 -152.6092 4.7778
-6 0 4 15.9615 -9.6061
-6 0 6 20.0653 -15.6535
-6 0 8 -11.1107 -12.8067
-6 0 14 -25.2166 11.0223
-6 0 16 17.7172 12.4340
-6 0 18 5.7435 8.0449
-6 0 20 -6.4118 0.5034
-6 0 22 -5.4691 -6.4252
-6 0 24 -16.7109 -9.9692
-6 0 26 -9.4805 -8.5430
-6 0 28 -14.8991 -3.6894
-6 0 30 19.1943 1.8727
-6 2 1 -7.6345 -0.3543
-6 2 2 -61.9280 -0.1060
-6 2 3 13.3349 0.5260
-6 2 4 22.2509 1.9835
-6 2 5 -18.5405 -0.0112
-6 2 6 48.9411 3.5810
-6 2 7 -15.1739 -0.2977
-6 2 8 23.1516 3.8209
-6 2 9 2.5007 -0.2855
-6 2 10 -8.7874 1.4619
-6 2 11 34.6883 -0.2273
-6 2 12 -12.4314 -1.6223
-6 2 13 -10.4347 -0.4645
-6 2 14 -24.3657 -3.3042
-6 2 15 -14.1186 -0.3561
-6 2 16 -1.7112 -3.9226
-6 2 17 -3.6112 -0.4068
-6 2 18 0.9140 -2.6390
-6 2 19 1.2654 -0.0131
-6 2 20 -6.5382 -0.2099
-6 2 21 2.5610 0.0723
-6 2 22 9.3252 1.5729
-6 2 23 -6.7989 0.0454
-6 2 24 7.0750 2.6871
-6 2 25 -3.1322 0.0283
-6 2 26 6.3874 2.3802
-6 2 27 -2.4943 -0.1271
-6 2 28 14.4868 0.8570
-6 2 29 -6.3145 -0.2322
-6 2 30 4.4745 -0.6957
-6 2 31 -2.6813 -0.2380
-6 2 32 4.9437 -1.5789
-6 4 1 -1.3628 -0.3225
-6 4 2 -46.7126 0.3444
-6 4 3 -6.5398 -0.1659
-6 4 4 -8.1134 -1.2030
-6 4 5 -6.9159 -0.1831
-6 4 6 32.5945 -2.1385
-6 4 7 33.7835 0.2040
-6 4 8 -2.5339 -1.9260
-6 4 9 1.8306 0.0042
-6 4 10 -13.4142 -0.9658
-6 4 11 6.0586 -0.2158
-6 4 12 -11.4896 0.7539
-6 4 13 8.0692 0.2868
-6 4 14 -12.7342 2.2189
-6 4 15 -3.4843 0.1962
-6 4 16 -0.2204 2.0160
-6 4 17 5.0474 0.0147
-6 4 18 -1.5829 1.4082
-6 4 19 4.8967 0.1419
-6 4 20 -0.7320 0.3031
-6 4 21 2.2713 -0.1291
-6 4 22 2.8236 -1.0416
-6 4 23 2.3816 -0.1232
-6 4 24 1.3102 -1.4618
-6 4 25 5.0753 -0.0726
-6 4 26 -0.6650 -1.2402
-6 4 27 4.8317 0.0763
-6 4 28 -1.6201 -0.4554
-6 4 29 1.5931 0.0669
-6 4 30 -4.1794 0.4396
-6 4 31 2.9524 0.1192
-6 6 1 2.5278 -0.0000
-6 6 2 -14.4403 -0.4327
-6 6 3 -1.5494 0.2006
-6 6 4 2.1837 0.7837
-6 6 5 -7.2500 0.0227
-6 6 6 5.7061 1.6045
-6 6 7 -9.9642 -0.1967
-6 6 8 10.4368 1.3812
-6 6 9 4.1943 -0.0532
-6 6 10 -8.2166 0.5629
-6 6 11 1.3755 0.1972
-6 6 12 5.0564 -0.3816
-6 6 13 -13.9137 0.0279
-6 6 14 -0.3077 -1.4725
-6 6 15 -15.8193 -0.2994
-6 6 16 4.3139 -1.5786
-6 6 17 -1.8305 0.0133
-6 6 18 7.3793 -0.8811
-6 6 19 -7.0461 0.0257
-6 6 20 16.2441 -0.2904
-6 6 21 -3.1474 -0.0190
-6 6 22 6.2567 0.6627
-6 6 23 -5.5192 0.1427
-6 6 24 0.2026 1.1499
-6 6 25 -1.1564 0.0733
-6 6 26 4.0337 0.7955
-6 6 27 -10.1341 0.0451
-6 6 28 -9.0629 0.3610
-6 6 29 -10.1836 -0.0938
-6 6 30 1.6618 -0.2960
-6 8 1 -8.8305 -0.1224
-6 8 2 -9.8011 0.4674
-6 8 3 7.5487 -0.0644
-6 8 4 -6.6085 -0.7066
-6 8 5 -17.7910 -0.0094
-6 8 6 -20.3953 -1.2272
-6 8 7 2.7970 0.1383
-6 8 8 -9.8302 -1.0745
-6 8 9 -10.4198 0.0436
-6 8 10 -10.8104 -0.4001
-6 8 11 -5.4269 -0.2296
-6 8 12 2.5149 0.3228
-6 8 13 -7.8078 -0.0043
-6 8 14 7.1415 1.0546
-6 8 15 4.2294 0.1605
-6 8 16 -0.8293 1.3190
-6 8 17 11.0203 0.1843
-6 8 18 6.6347 0.9053
-6 8 19 12.7339 -0.0073
-6 8 20 1.0646 0.1756
-6 8 21 0.7570 -0.1159
-6 8 22 11.2289 -0.4605
-6 8 23 -2.1556 -0.0930
-6 8 24 12.2730 -0.8368
-6 8 25 -10.3763 -0.1052
-6 8 26 6.3664 -0.6627
-6 8 28 6.8688 -0.2459
-6 8 29 -9.5411 0.0515
-6 10 1 -4.9364 -0.0116
-6 10 2 -16.3483 -0.3982
-6 10 3 -0.2296 -0.0087
-6 10 4 10.7528 0.5200
-6 10 5 9.6111 -0.1228
-6 10 6 -13.8556 1.0183
-6 10 7 -17.4624 -0.0829
-6 10 8 -14.0491 0.8141
-6 10 9 -7.2682 -0.0063
-6 10 10 -4.1515 0.3268
-6 10 11 -14.5195 0.0483
-6 10 12 17.7599 -0.2014
-6 10 13 -9.9715 0.0074
-6 10 14 19.6342 -0.7798
-6 10 15 -15.2614 -0.1672
-6 10 16 22.8987 -1.0866
-6 10 17 4.6508 -0.1460
-6 10 18 12.0724 -0.7642
-6 10 21 0.9191 -0.0226
-6 10 22 9.1790 0.4269
-6 10 23 -17.2097 0.2149
-6 10 24 1.9741 0.6410
-6 10 25 -18.8654 0.1454
-6 12 1 13.2568 -0.0613
-6 12 2 -4.7731 0.2591
-6 12 3 21.3229 0.0612
-6 12 4 -17.9744 -0.4269
-6 12 5 -0.7949 0.2012
-6 12 6 23.3379 -0.8784
-6 12 7 19.0980 -0.0140
-6 12 8 -22.1238 -0.7555
-6 12 9 7.7155 0.0145
-6 12 10 0.5109 -0.3155
-6 12 11 7.7560 -0.0427
-5 1 1 -78.8990 0.3735
-5 1 2 34.7777 -1.9345
-5 1 3 -19.8073 -0.6182
-5 1 4 -34.8641 2.7669
-5 1 5 -73.6606 -0.0156
-5 1 6 -44.9437 3.7489
-5 1 7 -50.1351 0.4681
-5 1 8 34.6613 2.9670
-5 1 9 -53.7817 0.2318
-5 1 10 7.1610 -0.0377
-5 1 11 -28.7609 -0.3946
-5 1 12 35.7712 -1.9594
-5 1 13 8.6886 -0.5479
-5 1 14 1.2161 -3.0694
-5 1 15 11.6649 -0.1414
-5 1 16 -12.0688 -2.8276
-5 1 17 -4.1565 0.2632
-5 1 18 -9.0279 -1.0897
-5 1 19 -5.2860 0.6895
-5 1 20 -4.0739 1.1217
-5 1 21 -7.4860 0.8966
-5 1 22 0.2158 2.6332
-5 1 23 -2.3168 0.5814
-5 1 24 0.8140 2.7719
-5 1 25 -5.4371 0.3001
-5 1 26 1.1689 1.8600
-5 1 27 -6.4794 -0.0658
-5 1 28 0.6738 0.3171
-5 1 29 10.0891 -0.4381
-5 1 30 2.4705 -1.1747
-5 1 31 0.7383 -0.4261
-5 3 1 39.9934 -0.2117
-5 3 2 50.0549 -0.1242
-5 3 3 20.2829 1.1748
-5 3 4 -46.3308 -0.6345
-5 3 5 16.1947 0.0125
-5 3 6 -51.5843 -2.4309
-5 3 7 6.5984 -0.3486
-5 3 8 -5.2270 -1.1374
-5 3 9 3.5609 -0.1285
-5 3 10 13.7979 -0.0997
-5 3 11 -4.7578 0.1368
-5 3 12 3.8017 1.1827
-5 3 13 7.2093 0.3347
-5 3 14 23.4267 2.0210
-5 3 15 13.2457 0.4465
-5 3 16 4.9509 1.8179
-5 3 17 -4.3267 0.0323
-5 3 18 3.4427 0.7562
-5 3 19 0.6564 -0.2183
-5 3 20 7.2418 -0.3916
-5 3 21 8.1008 -0.2665
-5 3 22 -13.6993 -1.5206
-5 3 23 6.8589 -0.2384
-5 3 24 -5.0152 -1.4719
-5 3 25 -1.8658 0.0950
-5 3 26 -8.9515 -1.0052
-5 3 27 -3.5825 0.1541
-5 3 28 -4.4447 -0.1942
-5 3 29 0.5232 0.3433
-5 3 30 -1.3279 0.8731
-5 3 31 -1.3582 0.3328
-5 5 1 -6.5611 0.1474
-5 5 5 4.4894 -0.3534
-5 5 6 -13.5317 0.9390
-5 5 7 -2.7661 0.3145
-5 5 8 14.1490 1.1287
-5 5 9 7.1680 0.2686
-5 5 10 13.2531 0.0008
-5 5 11 0.8172 -0.1491
-5 5 12 10.2336 -0.6981
-5 5 13 -4.9292 -0.2621
-5 5 14 2.0397 -1.4312
-5 5 15 -2.5943 -0.3580
-5 5 16 -4.5078 -1.3020
-5 5 17 -2.4202 -0.0516
-5 5 18 -4.8106 -0.6295
-5 5 19 -9.3348 0.1129
-5 5 20 -10.8952 0.3291
-5 5 21 3.3845 0.1967
-5 5 22 4.0747 1.0142
-5 5 23 0.6431 0.1682
-5 5 24 3.7393 1.0531
-5 5 25 0.2678 -0.0498
-5 5 26 15.0684 0.6989
-5 5 27 16.8233 -0.2394
-5 5 28 2.6656 0.0813
-5 5 29 0.7443 -0.2681
-5 5 30 10.5763 -0.5551
-5 5 31 4.9055 -0.2521
-5 7 1 -6.4414 0.0682
-5 7 2 -3.7249 -0.2439
-5 7 3 5.2635 0.2636
-5 7 4 -8.9869 -0.3998
-5 7 5 7.9740 0.3553
-5 7 6 -9.9473 -0.7096
-5 7 7 3.1267 -0.1961
-5 7 8 16.0298 -0.5407
-5 7 9 -15.8826 -0.2674
-5 7 10 1.2054 -0.3074
-5 7 11 2.7222 -0.1472
-5 7 12 7.2161 0.6155
-5 7 13 6.5864 0.1933
-5 7 14 -8.0247 1.1031
-5 7 15 4.9766 0.1690
-5 7 16 -2.9379 1.0590
-5 7 17 -12.9635 0.0460
-5 7 18 -4.1003 0.4595
-5 7 19 3.6028 -0.1466
-5 7 20 -1.5623 -0.2692
-5 7 21 7.9260 -0.0589
-5 7 22 -2.1963 -0.6942
-5 7 23 -7.1243 -0.1188
-5 7 24 -5.9306 -1.0151
-5 7 26 -3.3341 -0.5618
-5 7 27 2.5829 0.1784
-5 7 28 -0.2047 0.0256
-5 7 29 9.0405 0.2011
-5 7 30 1.9778 0.4133
-5 9 1 6.7929 0.1060
-5 9 2 -4.0670 0.3525
-5 9 3 -10.4514 -0.3040
-5 9 4 -10.0836 0.3142
-5 9 5 3.4608 -0.2121
-5 9 6 27.6623 0.3680
-5 9 7 -8.2341 0.0415
-5 9 8 -4.8884 0.4886
-5 9 9 6.3366 0.2717
-5 9 10 4.4105 0.1240
-5 9 11 -5.2042 0.1057
-5 9 12 -7.2642 -0.3507
-5 9 13 -2.2274 0.0065
-5 9 14 -3.1080 -0.8406
-5 9 15 -11.3010 -0.1790
-5 9 16 8.3120 -0.9605
-5 9 17 -15.6206 -0.0313
-5 9 18 16.9397 -0.4160
-5 9 19 1.1958 0.1329
-5 9 20 -2.0480 0.2139
-5 9 21 -6.1472 0.0662
-5 9 22 15.0004 0.6057
-5 9 23 24.8205 0.0629
-5 9 24 8.9445 0.6489
-5 9 25 -4.1146 0.0369
-5 9 26 6.7029 0.6319
-5 9 27 -10.9639 -0.1479
-5 9 28 -1.4977 -0.0773
-5 11 1 -11.9959 -0.0630
-5 11 2 -19.0578 -0.2699
-5 11 3 0.6579 0.1901
-5 11 4 -1.9708 -0.2838
-5 11 5 -3.2736 0.1650
-5 11 6 -15.6744 -0.2586
-5 11 7 -4.5358 0.0084
-5 11 8 -0.6324 -0.2072
-5 11 9 -2.4822 -0.0936
-5 11 10 -27.4144 -0.1471
-5 11 11 11.4099 -0.1288
-5 11 12 -11.5708 0.2003
-5 11 13 -0.7407 0.0087
-5 11 14 -15.0482 0.7715
-5 11 15 10.9134 0.0608
-5 11 16 -18.3618 0.8554
-5 11 19 13.0421 -0.0128
-5 11 20 -2.3391 -0.1830
-4 0 2 10.6969 -3.8916
-4 0 4 264.9084 -12.3344
-4 0 6 65.3326 -13.5919
-4 0 8 52.0085 -4.1033
-4 0 10 33.7264 5.4923
-4 0 12 7.6258 11.7850
-4 0 18 3.2562 -0.1431
-4 0 20 9.6606 -7.3918
-4 0 22 -2.0894 -10.6649
-4 0 24 4.8873 -8.9819
-4 0 26 2.2537 -3.5581
-4 0 28 -12.8159 2.5623
-4 0 30 -5.8407 6.4351
-4 2 1 -33.2815 0.5813
-4 2 2 -30.2508 2.7452
-4 2 6 -28.4396 3.2640
-4 2 7 73.3372 0.2277
-4 2 8 -48.1604 1.4336
-4 2 9 30.9203 -0.2989
-4 2 10 -54.5618 -1.7355
-4 2 11 28.2243 -0.3550
-4 2 12 -22.9010 -3.9534
-4 2 13 -32.2877 -0.1471
-4 2 14 -29.6698 -3.8473
-4 2 15 -7.0776 -0.2768
-4 2 16 -0.7833 -2.6623
-4 2 17 2.4576 -0.1478
-4 2 18 -22.6422 -0.1572
-4 2 19 -3.1111 0.1107
-4 2 20 -8.3501 2.0000
-4 2 21 -3.0220 0.1882
-4 2 22 -5.6355 2.8217
-4 2 23 -1.2539 -0.1191
-4 2 24 -0.5443 2.3055
-4 2 25 4.3682 -0.1019
-4 2 26 5.0015 0.9212
-4 2 27 5.3551 -0.2518
-4 2 28 -6.6770 -0.9205
-4 2 29 -2.4016 -0.3917
-4 2 30 -2.3672 -1.9811
-4 4 1 -2.4671 -0.5295
-4 4 2 -1.6934 -1.4250
-4 4 3 -31.1847 -0.2234
-4 4 4 51.1412 -2.2464
-4 4 5 -14.8677 0.1934
-4 4 6 7.3631 -1.9458
-4 4 7 -33.0494 0.1981
-4 4 8 -10.2593 -0.8086
-4 4 9 -23.7176 -0.1899
-4 4 10 -5.5381 0.8451
-4 4 11 -4.7755 0.0435
-4 4 12 -1.2662 2.1794
-4 4 13 5.8402 0.1959
-4 4 14 -5.4763 2.3566
-4 4 15 -1.7595 0.0186
-4 4 16 3.1302 1.4021
-4 4 17 14.8096 0.0355
-4 4 18 13.8237 0.0808
-4 4 19 9.0257 -0.1099
-4 4 20 0.4124 -1.0274
-4 4 21 -10.0628 -0.1800
-4 4 22 5.7469 -1.7362
-4 4 23 3.4756 -0.0503
-4 4 24 -5.7080 -1.2959
-4 4 25 -5.0055 0.0225
-4 4 26 -11.9124 -0.4056
-4 4 27 -1.8634 0.0807
-4 4 28 -4.0213 0.4622
-4 4 29 -2.2968 0.2450
-4 4 30 1.2640 1.1384
-4 4 31 6.0524 0.0413
-4 6 1 10.6865 0.1570
-4 6 2 -11.3915 0.7679
-4 6 3 14.4193 0.2826
-4 6 4 16.4267 1.5939
-4 6 5 4.0444 -0.1852
-4 6 6 12.5916 1.2877
-4 6 7 15.9836 -0.2092
-4 6 8 1.4283 0.4462
-4 6 9 6.5219 0.2286
-4 6 10 -2.1390 -0.5532
-4 6 11 -4.2895 0.1249
-4 6 12 1.9894 -1.4492
-4 6 13 2.2351 -0.0905
-4 6 14 2.7781 -1.7835
-4 6 15 3.7764 -0.2388
-4 6 16 7.9914 -0.9760
-4 6 17 -0.8773 0.1303
-4 6 18 -4.5998 -0.0215
-4 6 19 -8.8174 0.1002
-4 6 20 3.0915 0.6604
-4 6 21 -1.3380 0.0872
-4 6 22 -5.3433 1.2465
-4 6 23 1.1665 0.1924
-4 6 24 2.2658 1.0119
-4 6 25 -8.9149 0.0753
-4 6 26 -0.7869 0.2878
-4 6 27 -12.6775 -0.0823
-4 6 28 -7.7986 -0.3391
-4 6 29 0.2402 -0.1021
-4 6 30 6.1602 -0.6729
-4 8 1 -10.2167 -0.1171
-4 8 2 2.9170 -0.5752
-4 8 3 -0.6533 0.0199
-4 8 4 -1.6991 -1.3140
-4 8 5 -13.6637 0.1095
-4 8 6 -0.3831 -1.0543
-4 8 7 9.6929 0.0911
-4 8 8 -6.8043 -0.3069
-4 8 9 5.2321 -0.1179
-4 8 10 4.1653 0.4031
-4 8 11 12.3478 -0.2379
-4 8 12 15.9888 1.0834
-4 8 13 -9.9687 0.1229
-4 8 14 1.8523 1.2706
-4 8 15 0.1480 0.1104
-4 8 16 -4.5322 0.8758
-4 8 17 1.5446 0.0070
-4 8 18 -1.9721 0.1319
-4 8 19 0.3107 -0.1535
-4 8 20 -3.7253 -0.6334
-4 8 21 -8.3292 -0.1209
-4 8 22 -7.7846 -0.8429
-4 8 23 -5.0488 -0.1255
-4 8 24 7.7358 -0.7292
-4 8 25 5.5515 -0.0941
-4 8 26 2.7491 -0.1955
-4 8 28 1.4535 0.2977
-4 10 1 18.2356 -0.0207
-4 10 2 6.1142 0.4276
-4 10 3 -0.7959 -0.0218
-4 10 4 -21.6960 1.1108
-4 10 5 -1.3928 -0.0683
-4 10 6 12.2867 0.9382
-4 10 7 11.7075 -0.1112
-4 10 8 0.8319 0.2401
-4 10 9 3.1575 0.1426
-4 10 10 -1.9661 -0.3166
-4 10 11 13.7799 0.0513
-4 10 12 23.6465 -0.8558
-4 10 13 9.0437 -0.0650
-4 10 14 -15.9554 -1.0075
-4 10 15 21.6808 -0.1964
-4 10 16 9.6938 -0.8566
-4 10 17 1.0632 -0.0722
-4 10 18 -1.9535 -0.1352
-4 10 19 6.0718 0.1212
-4 10 21 21.1029 0.0957
-4 10 22 4.9980 0.7583
-4 10 23 0.5916 0.1758
-4 10 24 -8.4908 0.4934
-4 10 25 13.5742 0.1053
-4 12 1 -5.5645 0.0434
-4 12 2 -7.4884 -0.4433
-4 12 4 19.5441 -0.8443
-4 12 5 0.6617 0.1201
-4 12 6 -5.3058 -0.7560
-4 12 7 3.2902 -0.0195
-4 12 8 1.1639 -0.2871
-4 12 9 -13.3329 -0.0565
-4 12 10 10.8507 0.3121
-4 12 11 -4.5094 -0.0439
-3 1 1 -24.6503 -3.7870
-3 1 2 -179.2015 -1.5076
-3 1 3 83.0752 0.9075
-3 1 4 -87.0878 3.3240
-3 1 5 12.3194 -1.0567
-3 1 6 -37.0157 1.0810
-3 1 7 42.0983 0.2654
-3 1 8 -4.3146 0.0847
-3 1 9 51.1698 -0.2065
-3 1 10 -26.4670 -2.7766
-3 1 11 28.5478 -0.7904
-3 1 12 10.6067 -3.6872
-3 1 13 44.2924 -0.3009
-3 1 14 -19.3209 -2.7652
-3 1 15 22.7646 0.1514
-3 1 16 -11.5141 -0.8816
-3 1 17 8.4500 0.5633
-3 1 18 4.2619 1.1332
-3 1 19 17.8470 0.7367
-3 1 20 -4.3181 2.8518
-3 1 21 9.4455 0.5099
-3 1 22 4.1753 2.9932
-3 1 23 7.7753 0.1996
-3 1 24 -10.2598 1.7859
-3 1 25 3.5774 -0.2357
-3 1 26 1.9809 0.2419
-3 1 27 4.7470 -0.4025
-3 1 28 3.8222 -1.2730
-3 1 29 10.2555 -0.4545
-3 1 30 1.9843 -1.9632
-3 3 1 -31.6009 0.5052
-3 3 2 -33.8742 0.1233
-3 3 3 -41.3430 0.9984
-3 3 4 -14.9486 -1.4652
-3 3 5 -17.2347 -0.8511
-3 3 6 57.9423 -1.0510
-3 3 7 -23.5227 -0.2658
-3 3 8 59.0860 0.2985
-3 3 9 -26.9639 0.0327
-3 3 10 42.3343 1.3449
-3 3 11 -10.2038 0.3619
-3 3 12 10.5226 2.3286
-3 3 13 3.8244 0.2295
-3 3 14 19.4737 1.7847
-3 3 15 -12.7363 0.0483
-3 3 16 -7.7966 0.9073
-3 3 17 -28.4825 -0.1788
-3 3 18 2.0823 -0.5373
-3 3 19 -2.1575 -0.3313
-3 3 20 -0.7014 -1.3703
-3 3 21 -10.0995 -0.1515
-3 3 22 -6.6724 -1.6125
-3 3 23 -3.3469 0.0710
-3 3 24 -5.2558 -0.8810
-3 3 25 -3.7275 0.2690
-3 3 26 1.7966 -0.0095
-3 3 27 -0.4279 0.4433
-3 3 28 -0.8107 0.7750
-3 3 29 -4.5831 0.3216
-3 3 30 -5.2429 1.3386
-3 5 1 16.0243 -0.4262
-3 5 4 -31.3413 0.8111
-3 5 5 -7.9560 0.1752
-3 5 6 -21.7062 0.7192
-3 5 7 11.1788 0.5712
-3 5 8 -4.6889 0.0478
-3 5 9 6.7164 -0.0475
-3 5 10 -9.4038 -1.0125
-3 5 11 -6.2841 -0.1377
-3 5 12 -2.6752 -1.4202
-3 5 13 -8.6768 -0.3213
-3 5 14 -11.6356 -1.3939
-3 5 15 0.6227 -0.0164
-3 5 16 -5.4240 -0.5380
-3 5 17 1.1711 0.1363
-3 5 18 -7.1448 0.2951
-3 5 19 2.5055 0.1264
-3 5 20 -0.6723 1.0826
-3 5 21 14.5299 0.1642
-3 5 22 7.8069 1.1882
-3 5 23 -9.0938 -0.0190
-3 5 24 4.8677 0.6680
-3 5 25 7.9387 -0.2176
-3 5 26 14.3750 -0.0168
-3 5 28 -4.8965 -0.5508
-3 5 29 2.1880 -0.1886
-3 5 30 10.2108 -0.9632
-3 7 1 -10.4199 0.4185
-3 7 2 -0.2611 -0.1403
-3 7 3 7.9274 0.3978
-3 7 4 11.6825 -0.3587
-3 7 5 -5.4844 -0.1518
-3 7 6 1.4508 -0.4593
-3 7 7 -6.3802 -0.2091
-3 7 8 15.5364 0.1128
-3 7 9 -10.3205 -0.2373
-3 7 10 -27.7047 0.4583
-3 7 11 2.4259 0.1115
-3 7 12 10.7811 1.2422
-3 7 13 -3.4324 0.3081
-3 7 14 -5.2465 1.0378
-3 7 15 5.2931 0.0332
-3 7 16 -2.5341 0.5254
-3 7 17 -4.2076 -0.1010
-3 7 18 3.3427 -0.2723
-3 7 19 3.8522 -0.1169
-3 7 20 -9.1707 -0.8203
-3 7 21 0.9194 -0.0799
-3 7 22 -5.3103 -0.8829
-3 7 23 -1.3921 0.0196
-3 7 24 -12.1614 -0.6045
-3 7 26 -6.1346 0.0341
-3 7 27 1.6418 0.2229
-3 7 28 2.8567 0.5188
-3 9 4 12.7638 0.1776
-3 9 5 5.1823 0.0046
-3 9 6 -3.4419 0.2045
-3 9 7 4.8921 0.1794
-3 9 8 1.5139 0.0856
-3 9 9 -3.6447 0.2221
-3 9 10 -19.3488 -0.4967
-3 9 11 -10.0799 0.0512
-3 9 12 -18.8884 -0.7503
-3 9 13 -2.6125 -0.0593
-3 9 14 -17.3815 -0.9650
-3 9 15 -3.3544 -0.0896
-3 9 16 -2.9912 -0.5258
-3 9 17 -9.7360 0.0969
-3 9 18 -3.0973 0.1963
-3 9 20 2.0694 0.7029
-3 9 21 -7.0051 0.0625
-3 9 22 -12.1236 0.7255
-3 9 23 5.0945 0.0343
-3 9 24 1.9455 0.4760
-3 9 25 -5.9538 -0.0439
-3 9 26 -0.6904 0.0320
-3 9 27 3.4892 -0.2361
-3 11 1 -7.9458 0.1194
-3 11 2 19.9280 -0.1289
-3 11 3 5.9916 0.1482
-3 11 4 -17.8374 -0.1749
-3 11 5 2.5931 0.0277
-3 11 6 7.3704 -0.1252
-3 11 7 -10.8743 -0.1166
-3 11 8 -3.1105 0.0811
-3 11 9 10.2995 -0.1637
-3 11 10 4.7883 0.2622
-3 11 11 -2.0546 -0.0740
-3 11 12 4.6182 0.6254
-3 11 13 -16.5242 0.0836
-3 11 14 -17.8316 0.8425
-3 11 15 12.2055 0.0935
-3 11 16 -9.6466 0.5779
-3 11 18 6.4123 -0.1950
-3 11 19 4.1763 -0.1089
-3 11 20 13.3582 -0.6226
-2 0 2 22.8389 -10.9681
-2 0 4 19.5140 -8.2172
-2 0 6 -138.2072 -4.0011
-2 0 8 -33.6476 6.9425
-2 0 10 -31.2767 13.9220
-2 0 12 -25.8555 13.3870
-2 0 14 9.0748 8.2604
-2 0 16 6.4623 -0.8062
-2 0 18 -14.1846 -8.2733
-2 0 24 -12.5701 -3.3159
-2 0 26 -19.6602 3.1875
-2 0 28 -18.4579 7.2269
-2 2 1 56.1126 0.7971
-2 2 2 200.9726 4.0390
-2 2 3 40.7928 -0.2121
-2 2 4 18.0588 3.4312
-2 2 5 -33.2125 -0.4162
-2 2 6 12.2857 1.0142
-2 2 7 -24.7808 0.4202
-2 2 8 -1.1041 -1.5802
-2 2 9 -42.2002 -0.2398
-2 2 10 15.8978 -4.0601
-2 2 11 -29.8890 -0.2802
-2 2 12 11.8047 -4.1048
-2 2 13 -40.2749 0.2956
-2 2 14 12.0381 -2.3471
-2 2 15 0.0453 -0.0650
-2 2 16 17.9758 -0.0250
-2 2 17 -0.5216 0.0798
-2 2 18 10.2716 2.1803
-2 2 19 -13.7986 0.1904
-2 2 20 15.4330 3.1132
-2 2 21 2.5319 0.0497
-2 2 22 12.3781 2.3749
-2 2 23 4.9890 -0.1446
-2 2 24 17.3328 0.7487
-2 2 25 -1.1209 -0.3539
-2 2 26 -3.3445 -1.0405
-2 2 27 2.3644 -0.2792
-2 2 28 10.8746 -2.1529
-2 2 29 -6.3446 -0.3087
-2 2 30 8.9469 -2.1162
-2 4 1 -13.8537 -0.5150
-2 4 2 16.9033 -2.3570
-2 4 3 -6.6995 0.0029
-2 4 4 9.0650 -1.9089
-2 4 5 16.2076 0.4498
-2 4 6 -43.5928 -0.6395
-2 4 7 10.3556 -0.1020
-2 4 8 -18.1806 0.6838
-2 4 9 37.8243 -0.2824
-2 4 10 -11.9085 2.1987
-2 4 11 17.9253 0.3003
-2 4 12 -2.2131 2.4991
-2 4 13 25.6780 0.1337
-2 4 14 -0.4712 1.1616
-2 4 15 16.2035 -0.1619
-2 4 16 4.6814 0.0176
-2 4 17 14.8462 0.0426
-2 4 18 -6.2420 -1.2541
-2 4 19 -3.7871 -0.2650
-2 4 20 -13.1293 -1.9251
-2 4 21 -7.2641 -0.1644
-2 4 22 -1.2325 -1.4641
-2 4 23 4.1633 0.0385
-2 4 24 -3.0061 -0.5030
-2 4 25 -2.4586 0.0322
-2 4 26 -2.1922 0.5693
-2 4 27 5.8688 0.0251
-2 4 28 -4.2266 1.1038
-2 4 29 -2.0667 0.1742
-2 6 1 1.6000 0.1972
-2 6 2 1.4796 1.5764
-2 6 3 -1.1280 -0.0171
-2 6 4 13.8572 1.4666
-2 6 5 2.1070 -0.2941
-2 6 6 -7.4385 0.3267
-2 6 7 -1.7556 0.0616
-2 6 8 6.1698 -0.5735
-2 6 9 4.9021 0.2407
-2 6 10 -3.0055 -1.4655
-2 6 11 0.4355 -0.0188
-2 6 12 6.1641 -1.6683
-2 6 13 -2.3843 -0.2133
-2 6 14 -1.4343 -1.0613
-2 6 15 -9.1523 -0.0556
-2 6 16 5.9711 0.1650
-2 6 17 -4.1718 0.2405
-2 6 18 7.9374 0.9176
-2 6 19 -5.0502 0.0882
-2 6 20 11.3191 1.2646
-2 6 21 3.7592 0.1296
-2 6 22 -6.3326 1.1008
-2 6 23 5.3570 0.0463
-2 6 24 6.3646 0.2547
-2 6 25 3.2356 -0.0520
-2 6 26 -3.9555 -0.3614
-2 6 27 1.7192 -0.0730
-2 6 28 10.0326 -0.8391
-2 6 29 13.0953 -0.0954
-2 8 1 9.9385 -0.1211
-2 8 2 0.3309 -1.3323
-2 8 3 -1.9708 0.1019
-2 8 4 -21.4660 -1.1858
-2 8 5 1.3586 0.1572
-2 8 6 -10.2251 -0.2795
-2 8 7 12.6874 -0.0577
-2 8 8 3.3577 0.5432
-2 8 9 2.8931 -0.1147
-2 8 10 0.1444 0.9792
-2 8 11 9.5108 -0.1592
-2 8 12 2.0612 1.2857
-2 8 13 2.3573 0.2249
-2 8 14 -6.9270 0.8429
-2 8 15 2.3344 0.0602
-2 8 16 -3.1768 -0.0163
-2 8 17 5.8706 -0.1807
-2 8 18 -9.1928 -0.7220
-2 8 19 -9.5768 -0.2114
-2 8 20 6.1952 -1.0612
-2 8 21 -3.3123 -0.1209
-2 8 22 -1.2647 -0.7387
-2 8 23 -8.0869 -0.1775
-2 8 24 5.8740 -0.3268
-2 8 25 -3.3312 0.0645
-2 8 26 -9.9034 0.2810
-2 10 1 -2.0706 -0.0987
-2 10 2 -35.0394 1.0495
-2 10 3 6.1325 -0.0583
-2 10 4 8.1301 1.0353
-2 10 5 -2.8854 0.0048
-2 10 6 7.8274 0.2571
-2 10 7 -2.7499 0.0195
-2 10 8 -13.8235 -0.4887
-2 10 9 -9.6500 0.1802
-2 10 10 -0.3804 -0.7793
-2 10 11 3.2769 -0.0063
-2 10 12 16.1797 -0.9977
-2 10 13 1.8560 -0.1751
-2 10 14 -7.4828 -0.7144
-2 10 15 -1.7604 -0.1400
-2 10 16 -6.2800 -0.1315
-2 10 17 -0.8118 0.0654
-2 10 18 -23.9779 0.6136
-2 10 20 -19.3384 0.8505
-2 10 21 -12.7470 0.1554
-2 10 22 -2.8818 0.6614
-2 10 23 -8.0262 0.0920
-2 10 24 -4.3812 0.1664
-2 10 25 -5.7560 -0.0621
-2 12 4 -2.1629 -0.8015
-2 12 5 5.4585 -0.0411
-2 12 6 2.3597 -0.2534
-2 12 7 -1.9225 -0.1138
-2 12 8 5.3794 0.3154
-2 12 9 1.5959 -0.0618
-2 12 10 -13.8762 0.7528
-1 1 1 -283.0148 -2.7863
-1 1 2 -201.4007 2.0056
-1 1 3 -32.2151 1.7538
-1 1 4 112.8908 1.4685
-1 1 5 -114.5668 -0.8295
-1 1 6 28.3156 -1.5509
-1 1 7 -6.4985 -0.3977
-1 1 8 42.2129 -2.9047
-1 1 9 -27.1578 -0.2347
-1 1 10 13.7608 -3.8822
-1 1 11 8.5795 -0.7030
-1 1 12 27.6059 -3.6428
-1 1 13 18.4793 0.0803
-1 1 14 -12.3645 -0.8411
-1 1 15 -5.5452 0.5648
-1 1 16 9.5322 1.3899
-1 1 17 0.3879 0.5753
-1 1 18 4.0815 2.7664
-1 1 19 6.0491 0.4663
-1 1 20 -5.9236 3.0155
-1 1 21 -9.5333 -0.0692
-1 1 22 -2.9488 1.7733
-1 1 23 -8.5285 -0.3483
-1 1 24 15.1026 0.1130
-1 1 25 -9.7402 -0.5531
-1 1 26 11.6884 -1.5806
-1 1 27 -5.1772 -0.4925
-1 1 28 5.9929 -2.0419
-1 1 29 -2.2966 -0.2009
-1 3 1 33.4064 0.8503
-1 3 2 -27.8969 -0.3400
-1 3 3 12.9012 0.2406
-1 3 4 31.8658 -1.3829
-1 3 5 48.4011 -0.8720
-1 3 6 30.1192 1.0189
-1 3 7 1.9773 0.1840
-1 3 8 -18.5468 1.6413
-1 3 9 14.2876 0.1683
-1 3 10 -14.9664 2.2005
-1 3 11 6.4652 0.3117
-1 3 12 -22.8799 2.0803
-1 3 13 -5.9353 0.0783
-1 3 14 -12.2968 0.6264
-1 3 15 -9.4618 -0.2925
-1 3 16 -8.4549 -0.5853
-1 3 17 2.9467 -0.2036
-1 3 18 -1.4060 -1.4974
-1 3 19 20.2516 -0.1688
-1 3 20 5.1572 -1.6040
-1 3 21 0.3499 0.0324
-1 3 22 -7.9115 -0.8366
-1 3 23 4.9749 0.3752
-1 3 24 -2.6811 0.1343
-1 3 26 3.0091 0.9953
-1 3 27 -0.4027 0.3905
-1 3 29 -2.1314 0.2791
-1 5 1 20.8601 -0.6516
-1 5 2 -38.3920 0.4096
-1 5 3 -0.0608 0.0895
-1 5 4 13.3568 0.2797
-1 5 5 -1.1432 0.4014
-1 5 6 -2.1765 0.0586
-1 5 7 -0.0738 0.4279
-1 5 8 15.3064 -1.0480
-1 5 9 -17.2424 -0.2072
-1 5 10 -3.1364 -1.5364
-1 5 11 -16.7563 -0.0993
-1 5 12 7.9894 -1.2123
-1 5 13 -0.6158 -0.1183
-1 5 14 -0.1448 -0.6967
-1 5 15 -10.4050 0.1792
-1 5 16 0.7493 0.4629
-1 5 17 -4.6365 0.2504
-1 5 18 3.1087 1.0030
-1 5 19 -6.2942 0.0749
-1 5 20 1.1507 1.2065
-1 5 21 0.9277 0.0461
-1 5 22 -0.5488 0.7709
-1 5 23 -6.7568 -0.1924
-1 5 24 -2.2584 -0.1513
-1 5 25 -1.6876 -0.3467
-1 5 26 6.0619 -0.6754
-1 5 27 -10.4974 -0.1497
-1 7 1 -27.1961 0.5163
-1 7 2 -1.9535 -0.0313
-1 7 3 3.5692 0.1408
-1 7 4 8.0390 -0.2133
-1 7 5 -17.5063 -0.4303
-1 7 6 -0.5025 0.0396
-1 7 7 -8.9335 -0.1343
-1 7 8 2.1265 0.7169
-1 7 9 8.1582 -0.0413
-1 7 10 2.0414 0.9438
-1 7 11 15.5633 0.2054
-1 7 12 9.4802 1.1314
-1 7 13 15.1515 0.1880
-1 7 14 3.3247 0.5501
-1 7 15 22.6296 -0.0728
-1 7 16 2.8822 -0.3376
-1 7 17 -0.6192 -0.1834
-1 7 18 1.9065 -0.8599
-1 7 19 15.9465 0.0053
-1 7 20 -2.6863 -0.9041
-1 7 21 -1.1669 0.0438
-1 7 22 5.8648 -0.6312
-1 7 23 3.0007 0.0805
-1 7 24 -2.4797 0.0680
-1 7 26 8.7327 0.5780
-1 7 27 5.8727 0.1125
-1 9 3 2.6524 -0.1487
-1 9 4 7.4694 -0.0025
-1 9 5 4.2241 0.1859
-1 9 6 3.8647 -0.1547
-1 9 7 0.5135 0.2516
-1 9 8 13.5640 -0.3488
-1 9 9 -0.1072 0.0550
-1 9 10 -8.2530 -0.8392
-1 9 11 -0.2805 -0.0869
-1 9 12 8.7205 -0.8392
-1 9 13 4.4984 -0.1272
-1 9 14 -0.9782 -0.5948
-1 9 15 7.3830 -0.0421
-1 9 16 6.7999 0.2219
-1 9 17 -11.4776 0.2216
-1 9 18 7.6357 0.8065
-1 9 20 -9.6569 0.7716
-1 9 21 7.3238 0.0242
-1 9 22 -0.4113 0.5153
-1 9 23 8.1637 -0.0161
-1 9 24 2.9238 0.0145
-1 9 25 -2.4181 -0.0772
-1 11 1 2.3056 0.2678
-1 11 2 16.7194 0.0098
-1 11 3 -1.5800 0.0975
-1 11 4 -15.0660 -0.0015
-1 11 5 -1.0533 -0.1089
-1 11 6 17.8457 0.1129
-1 11 7 -5.6710 -0.1446
-1 11 8 -4.1604 0.3717
-1 11 9 6.6843 -0.1109
-1 11 10 6.7654 0.4897
-1 11 11 3.6559 0.0275
-1 11 12 10.7158 0.7102
-1 11 13 0.2463 0.0963
-1 11 14 3.0934 0.4960
-1 11 15 4.2057 0.0179
-1 11 16 26.7733 -0.1202
-1 11 18 14.4485 -0.8000
-1 11 19 -9.9737 -0.1324
0 0 6 26.8822 7.6199
0 0 8 54.4808 14.3557
0 0 10 -15.7343 14.7920
0 0 12 1.6717 7.9119
0 0 14 -2.2688 -1.3722
0 0 16 -5.9616 -8.8517
0 0 18 0.3171 -11.8620
0 0 20 13.6743 -8.9586
0 0 22 -12.0052 -2.8689
0 0 24 -12.1507 3.9316
0 0 26 -2.2297 7.9906
0 0 28 17.7198 7.9185
0 2 0 13.1188 4.2720
0 2 1 13.6782 0.4317
0 2 2 -40.8217 2.7049
0 2 3 11.3603 -0.5225
0 2 4 -161.1847 1.3388
0 2 5 -26.0406 -0.1295
0 2 6 -42.5983 -1.7241
0 2 7 27.0658 0.3850
0 2 8 -24.1531 -3.8332
0 2 9 0.4174 -0.0922
0 2 10 -5.1812 -4.2134
0 2 11 2.3809 -0.1463
0 2 12 2.4152 -2.0656
0 2 13 -0.0285 0.4900
0 2 14 1.5239 0.3548
0 2 15 13.5850 0.2341
0 2 16 2.9988 2.4909
0 2 17 -8.9405 0.2695
0 2 18 2.2338 3.3272
0 2 19 -4.5669 0.1817
0 2 20 4.1218 2.5663
0 2 21 1.0358 -0.0621
0 2 22 3.7454 0.6492
0 2 23 -0.4885 -0.1887
0 2 24 -0.8525 -1.2044
0 2 25 3.2154 -0.2918
0 2 26 0.4852 -2.4410
0 2 27 3.7961 -0.1435
0 2 28 0.1205 -2.2393
0 4 0 32.9852 -2.4057
0 4 1 -12.8672 -0.1382
0 4 2 -0.8106 -2.0442
0 4 3 -8.4827 0.1273
0 4 4 -13.9512 -0.5913
0 4 5 1.5407 0.2216
0 4 6 -7.6731 0.7892
0 4 7 -6.7214 -0.3190
0 4 8 16.5089 1.8468
0 4 9 16.0307 -0.2063
0 4 10 16.7567 2.4460
0 4 11 -0.5927 0.3488
0 4 12 12.6383 1.3190
0 4 13 19.8243 -0.1743
0 4 14 11.6823 -0.6707
0 4 15 5.3149 -0.2315
0 4 16 3.0549 -1.3716
0 4 17 -0.5875 0.0362
0 4 18 5.2354 -2.0230
0 4 19 -3.5844 -0.3319
0 4 20 7.0034 -1.7091
0 4 21 0.0680 -0.0425
0 4 22 7.5002 -0.4124
0 4 23 0.1240 0.1311
0 4 24 -1.3465 0.6281
0 4 25 0.9777 0.0094
0 4 26 -1.9807 1.2315
0 4 27 5.1132 -0.0027
0 4 28 4.0948 1.0730
0 6 0 58.1610 1.6711
0 6 1 -0.2705 0.0305
0 6 2 5.9438 1.4960
0 6 3 7.7752 -0.1730
0 6 4 13.0333 0.5540
0 6 5 -0.8031 -0.2007
0 6 6 1.1801 -0.7288
0 6 7 0.4290 0.1546
0 6 8 -0.0924 -1.2771
0 6 9 -11.0666 0.1256
0 6 10 -21.6812 -1.5691
0 6 11 -17.0525 -0.2182
0 6 12 -6.3856 -1.0524
0 6 13 -15.6365 -0.1901
0 6 14 -17.2468 0.2004
0 6 15 -3.5385 0.2417
0 6 16 5.4424 1.1856
0 6 17 -3.8160 0.1667
0 6 18 -9.0047 1.3233
0 6 19 0.8203 0.0289
0 6 20 -1.6644 1.1060
0 6 21 -0.5332 0.0750
0 6 22 -5.4000 0.3967
0 6 23 -4.2021 -0.0663
0 6 24 -2.3915 -0.5047
0 6 25 -4.3333 -0.1173
0 6 26 -11.4550 -0.8240
0 6 27 3.2119 -0.0730
0 8 0 -25.2019 -1.2490
0 8 1 -0.3013 0.0235
0 8 2 -19.7651 -1.3178
0 8 3 -5.5737 0.1235
0 8 4 -17.1131 -0.3702
0 8 5 -0.5080 0.0475
0 8 6 1.3533 0.5189
0 8 7 5.9967 -0.1926
0 8 8 9.3102 1.1022
0 8 9 -4.7681 -0.1115
0 8 10 -2.0140 1.0795
0 8 11 -3.4099 0.1456
0 8 12 18.7289 0.7971
0 8 13 -6.3658 0.2121
0 8 14 4.2332 -0.0628
0 8 15 6.7791 -0.0585
0 8 16 1.1087 -0.9376
0 8 17 19.0345 -0.3097
0 8 18 6.1950 -1.1229
0 8 19 -3.2229 -0.0437
0 8 20 4.1909 -0.8985
0 8 21 2.3666 -0.1598
0 8 22 -2.7065 -0.3163
0 8 23 -1.3253 -0.0632
0 8 24 17.2833 0.2441
0 8 25 2.8963 0.0316
0 8 26 -3.3222 0.6924
0 10 0 -32.0167 1.0052
0 10 1 -17.7860 -0.0837
0 10 2 29.7124 1.0559
0 10 3 2.3418 -0.0258
0 10 4 -9.3387 0.3683
0 10 5 -9.7092 0.0884
0 10 6 13.2448 -0.4803
0 10 7 6.8424 0.0685
0 10 8 -5.8819 -0.9054
0 10 9 -2.3886 0.1235
0 10 10 15.2856 -0.8615
0 10 11 -6.5256 -0.1132
0 10 12 16.7140 -0.5863
0 10 13 -12.7763 -0.2030
0 10 14 2.6534 0.0143
0 10 15 -0.8323 0.0697
0 10 16 2.0359 0.7437
0 10 17 -10.5202 0.2135
0 10 18 10.6097 0.9443
0 10 20 28.2966 0.7752
0 10 21 -2.1960 0.1349
0 10 22 -0.8406 0.2643
0 10 23 -1.7155 -0.0345
0 10 24 10.2033 -0.1902
0 12 2 -8.7053 -0.8836
0 12 3 -1.5247 -0.0198
0 12 4 -1.6974 -0.3549
0 12 5 11.7551 -0.1498
0 12 6 -1.1237 0.4135
0 12 7 -5.6201 -0.0676
0 12 8 12.6447 0.7526
0 12 9 9.6826 -0.0178
0 12 10 6.4470 0.7424
1 1 0 -205.9375 -2.6289
1 1 1 2.8649 -0.0054
1 1 2 81.1444 2.0962
1 1 3 215.6890 0.7739
1 1 4 78.7894 -1.9572
1 1 5 45.8014 -0.3140
1 1 6 -51.5120 -3.8954
1 1 7 64.6891 -0.7046
1 1 8 -1.2413 -4.3552
1 1 9 21.8227 -0.1094
1 1 10 -4.4096 -3.0823
1 1 11 28.7343 -0.1821
1 1 12 0.9505 -1.5562
1 1 13 -4.3454 0.2771
1 1 14 -3.4281 1.3367
1 1 15 0.7520 0.4774
1 1 16 -7.2298 2.9874
1 1 17 1.9268 0.2493
1 1 18 -9.7794 2.8146
1 1 19 1.0058 -0.1520
1 1 20 -6.0666 1.5299
1 1 21 -7.7737 -0.5788
1 3 0 16.5822 0.3481
1 3 1 -8.4576 0.5348
1 3 2 44.4468 -0.2847
1 3 3 -39.0976 -0.5443
1 3 4 57.4387 -0.2058
1 3 5 -6.2935 -0.1294
1 3 6 20.0520 2.3173
1 3 7 -42.7608 0.1237
1 3 8 -15.7091 2.0532
1 3 9 -15.9024 0.0881
1 3 10 6.7619 1.7646
1 3 11 -30.3825 0.1524
1 3 12 -9.1022 0.8584
1 3 13 -14.1258 -0.1475
1 3 14 2.7879 -0.7248
1 3 15 -8.9588 -0.4726
1 3 16 -5.5010 -1.6606
1 3 17 6.6699 -0.1979
1 3 18 -2.7628 -1.5986
1 3 19 -2.4508 0.1060
1 3 20 -12.7391 -0.9938
1 3 21 1.7024 0.2365
1 3 22 -13.9423 0.2484
1 3 23 5.3310 0.4512
1 3 24 -0.3568 1.0339
1 3 25 -0.8978 0.2798
1 3 26 -8.8404 1.4571
1 3 27 1.0584 0.2050
1 3 28 -6.9728 1.2115
1 5 0 -31.2908 -0.3466
1 5 1 2.2243 -0.5083
1 5 2 0.7725 0.3599
1 5 3 -18.0456 0.4504
1 5 4 9.8265 -0.4817
1 5 5 -3.3113 0.2960
1 5 6 -8.8788 -0.6519
1 5 7 -8.0156 0.0666
1 5 8 15.5625 -1.6414
1 5 9 12.8263 -0.3141
1 5 10 1.3168 -1.2188
1 5 11 7.5754 -0.0382
1 5 12 11.9927 -0.4751
1 5 13 2.8332 0.0200
1 5 14 2.0779 0.4665
1 5 15 5.0383 0.2229
1 5 16 1.2992 1.2226
1 5 17 11.0332 0.2229
1 5 18 -2.3104 1.2346
1 5 19 11.0933 -0.0685
1 5 20 3.4269 0.6850
1 5 21 5.3938 -0.0825
1 5 22 8.5115 -0.0645
1 5 23 -0.5756 -0.2856
1 5 24 10.6412 -0.7584
1 5 25 4.7383 -0.1752
1 5 26 9.1637 -1.0021
1 5 27 5.4816 -0.0511
1 7 0 -2.5525 0.2199
1 7 1 4.6633 0.2409
1 7 2 8.0786 0.1123
1 7 3 11.4874 -0.0781
1 7 4 20.2008 0.0861
1 7 5 -0.3645 -0.4698
1 7 6 -15.4537 0.6326
1 7 7 -1.8898 0.0019
1 7 8 13.1369 0.9197
1 7 9 6.2367 0.0790
1 7 10 -11.2586 0.9453
1 7 11 -9.9299 0.1920
1 7 12 2.0133 0.5449
1 7 13 -3.5896 0.0468
1 7 14 -9.9916 -0.3051
1 7 15 -8.1617 -0.2147
1 7 16 -18.2032 -1.0158
1 7 17 -14.1652 -0.1376
1 7 18 2.8239 -0.9396
1 7 19 -0.5406 0.0897
1 7 20 1.0185 -0.6023
1 7 21 -6.2257 0.1123
1 7 22 -10.7841 0.0231
1 7 23 0.9438 0.1798
1 7 24 -2.0231 0.6595
1 7 26 0.2383 0.7554
1 9 1 -10.8253 -0.2974
1 9 2 -10.9097 -0.1277
1 9 3 7.4872 0.0700
1 9 4 -2.2779 -0.1631
1 9 5 -3.9495 0.1805
1 9 6 -10.6757 -0.3944
1 9 7 3.5014 0.1316
1 9 8 1.3727 -0.6555
1 9 9 -10.8020 -0.1593
1 9 10 -12.8321 -0.7084
1 9 11 3.8201 -0.1356
1 9 12 -0.7396 -0.4571
1 9 13 -9.6202 -0.0795
1 9 14 1.1765 0.2132
1 9 15 -5.8294 0.1662
1 9 16 40.0010 0.8847
1 9 17 -6.9533 0.1470
1 9 18 -6.4185 0.8451
1 9 20 9.6534 0.5119
1 9 21 3.0409 -0.0986
1 9 22 -6.1839 -0.0402
1 9 23 0.2931 -0.0898
1 9 24 -1.8031 -0.4427
1 11 0 -4.2471 0.1892
1 11 1 19.5648 0.2490
1 11 2 -8.2040 0.1791
1 11 3 -7.0661 -0.0159
1 11 4 -14.5841 0.2006
1 11 5 1.3496 -0.1474
1 11 6 -1.6177 0.3556
1 11 7 -12.5510 -0.1145
1 11 8 -10.8704 0.4380
1 11 9 9.3447 -0.0410
1 11 10 -16.9698 0.5213
1 11 11 5.4545 0.0523
1 11 12 5.4197 0.3839
1 11 13 8.0594 0.0806
1 11 14 -17.6687 -0.1847
1 11 15 11.5804 -0.1044
1 11 18 -14.6632 -0.8980
2 0 10 -32.1627 7.8072
2 0 12 10.1041 -1.6011
2 0 14 -2.4738 -9.7625
2 0 16 14.2886 -12.0492
2 0 18 13.8302 -8.9723
2 0 20 -12.3568 -2.1191
2 0 22 -17.0912 4.8464
2 2 0 15.3402 3.8044
2 2 1 -12.1253 0.1156
2 2 2 -6.4520 0.3164
2 2 3 -40.9875 -0.3973
2 2 4 -12.0324 -1.2746
2 2 5 -45.9128 0.4312
2 2 6 76.4904 -3.5090
2 2 7 4.3545 0.2017
2 2 8 15.7039 -4.3733
2 2 9 -34.9272 0.2755
2 2 10 16.8757 -1.8430
2 2 11 -2.1655 0.1443
2 2 12 -2.5693 0.9441
2 2 13 -1.2261 0.3828
2 2 14 9.1752 2.8737
2 2 15 -1.8668 0.4912
2 2 16 7.7837 3.7540
2 2 17 -9.4712 0.2496
2 2 18 8.0847 2.6922
2 2 19 8.8688 0.1309
2 2 20 3.5892 0.6563
2 2 21 10.4472 -0.1329
2 2 22 -7.5117 -1.3255
2 2 23 5.2609 0.0386
2 2 24 8.0454 -2.5250
2 2 25 3.7466 -0.1212
2 2 26 6.9506 -2.3826
2 2 27 -7.5457 -0.0536
2 4 0 -14.3832 -2.1250
2 4 1 7.7851 0.1836
2 4 2 -33.9892 -0.6242
2 4 3 28.6608 0.1687
2 4 4 -5.0719 0.8311
2 4 5 34.6334 -0.0924
2 4 6 -14.4791 1.8692
2 4 7 18.4062 -0.2821
2 4 8 -1.9960 2.0344
2 4 9 33.5691 0.1465
2 4 10 -18.7768 1.3306
2 4 11 13.4847 0.1857
2 4 12 -12.3600 -0.4994
2 4 13 14.4730 -0.3786
2 4 14 -18.8119 -2.0012
2 4 15 -6.4079 -0.2383
2 4 16 -6.0440 -2.0140
2 4 17 -11.3227 -0.0442
2 4 18 -9.7962 -1.5564
2 4 19 -9.0830 -0.1414
2 4 20 -2.0907 -0.6072
2 4 21 -12.2524 0.0537
2 4 22 -7.4180 0.8038
2 4 23 -3.0991 0.1792
2 4 24 -3.8893 1.4169
2 4 25 -6.4051 -0.0047
2 4 26 -2.4417 1.1768
2 4 27 -1.7829 -0.0177
2 6 0 18.6171 1.5703
2 6 1 7.8089 -0.0321
2 6 2 -35.7679 0.6061
2 6 3 -0.4111 -0.1853
2 6 4 -4.0087 -0.6811
2 6 5 -4.0341 0.0406
2 6 6 -8.2067 -1.3194
2 6 7 -3.8937 0.3260
2 6 8 0.2101 -1.3629
2 6 9 -11.6091 -0.1504
2 6 10 2.3730 -0.8806
2 6 11 -0.4363 -0.2440
2 6 12 9.9704 0.2701
2 6 13 13.4891 0.0375
2 6 14 12.0017 1.3563
2 6 15 4.1948 0.2802
2 6 16 23.2279 1.5523
2 6 17 1.3117 0.0438
2 6 20 9.6243 0.4436
2 6 21 10.2215 0.0763
2 6 22 -4.8469 -0.5235
2 6 23 9.3122 -0.1694
2 6 24 4.7412 -0.9948
2 6 25 5.2282 -0.0932
2 6 26 4.8124 -0.8503
2 8 0 1.7078 -1.2873
2 8 1 9.2040 0.1025
2 8 2 -9.9596 -0.5748
2 8 3 1.6554 0.0696
2 8 4 6.7721 0.6124
2 8 5 5.9502 0.0283
2 8 6 -9.8388 1.0480
2 8 7 -4.3739 -0.1162
2 8 8 -1.7515 1.1309
2 8 9 -3.5848 0.1038
2 8 10 -6.6122 0.5744
2 8 11 4.6709 0.2043
2 8 12 0.3367 -0.1549
2 8 13 -8.6358 -0.0556
2 8 14 -10.2063 -0.9436
2 8 15 -1.6837 -0.2099
2 8 16 -12.4007 -1.2897
2 8 17 -11.0173 -0.2123
2 8 18 1.1422 -0.9924
2 8 19 -5.8089 -0.0869
2 8 20 -2.4353 -0.1774
2 8 21 -1.8110 0.0046
2 8 22 17.7138 0.2593
2 8 23 -4.4367 -0.0311
2 8 24 2.0828 0.6989
2 8 25 8.7802 0.1359
2 10 0 -6.3151 1.0399
2 10 1 -12.8936 0.0574
2 10 2 11.1785 0.5303
2 10 3 2.9628 0.0138
2 10 4 8.4137 -0.5032
2 10 5 -0.3453 0.0826
2 10 6 15.2046 -0.9479
2 10 7 -4.3504 0.0790
2 10 8 -11.6396 -0.8292
2 10 9 4.6582 -0.0262
2 10 10 -5.3466 -0.4796
2 10 11 -10.4993 -0.1134
2 10 12 2.2808 0.1582
2 10 13 22.7930 -0.0535
2 10 14 -24.9814 0.6984
2 10 15 -0.7918 0.2221
2 10 16 -18.1349 1.1008
2 10 17 4.8049 0.1924
2 10 19 2.4191 0.1399
2 10 20 -8.1672 0.2736
2 10 21 1.2590 0.0350
2 10 22 -0.3317 -0.1872
2 12 0 -10.9498 -0.9063
2 12 1 -16.4293 -0.0151
2 12 2 6.3486 -0.3073
2 12 3 2.4047 -0.0635
2 12 4 -15.5909 0.3776
2 12 5 1.2392 -0.1107
2 12 6 19.0904 0.8460
2 12 7 2.7954 0.0226
2 12 8 -12.7228 0.7394
2 12 9 -4.0548 0.0406
3 1 0 147.9609 1.1029
3 1 1 -186.2757 0.9200
3 1 2 108.0666 -0.8300
3 1 3 46.8712 -1.2871
3 1 4 18.5887 -3.9328
3 1 5 -80.1943 0.0784
3 1 6 -13.7065 -4.5099
3 1 7 21.2068 -0.4852
3 1 8 46.6344 -3.3949
3 1 9 14.7713 -0.1915
3 1 10 0.3080 -0.8360
3 1 11 21.2820 0.3649
3 1 12 8.1226 1.2258
3 1 13 -2.8703 0.2171
3 1 14 -18.7542 2.7141
3 1 15 3.5397 0.1212
3 1 16 -14.1031 2.9725
3 1 17 3.7238 -0.3347
3 1 18 -4.7666 1.3640
3 1 19 -7.6204 -0.6486
3 1 20 6.8971 -0.7067
3 1 21 -8.3573 -0.7640
3 1 22 9.6995 -2.0938
3 1 23 -4.5415 -0.5702
3 1 24 2.8130 -2.5084
3 1 25 -4.7583 -0.2721
3 1 26 2.9214 -1.9657
3 1 27 11.1055 0.0326
3 3 0 49.6767 -0.2558
3 3 1 9.8385 -0.0185
3 3 2 -11.7646 0.2638
3 3 3 5.8550 -0.9586
3 3 4 -37.8375 1.2186
3 3 5 14.2919 0.4017
3 3 6 -37.7604 2.4616
3 3 7 -18.8196 -0.0888
3 3 8 -47.9722 1.5464
3 3 9 5.1897 0.0338
3 3 10 1.2783 0.4219
3 3 11 -6.3162 -0.0744
3 3 12 -11.7098 -0.8014
3 3 13 6.6726 -0.3229
3 3 14 4.7180 -1.6946
3 3 15 16.0421 -0.3830
3 3 16 -6.0294 -1.8457
3 3 17 13.4627 -0.0130
3 3 18 3.8091 -0.8906
3 3 19 8.7588 0.2563
3 3 20 4.9062 0.2158
3 3 21 8.4908 0.2581
3 3 22 3.8020 1.1427
3 3 23 -1.6065 0.1519
3 3 24 3.7520 1.4862
3 3 25 3.5819 0.0323
3 3 26 1.7195 1.0498
3 3 27 3.4159 -0.0699
3 5 0 10.8122 -0.2827
3 5 1 9.8626 -0.0148
3 5 2 8.4304 0.0466
3 5 3 -11.0932 0.5220
3 5 4 19.5699 -1.0389
3 5 5 -1.3674 0.1621
3 5 6 7.0390 -1.1065
3 5 7 -5.3976 -0.1938
3 5 8 17.4638 -1.2260
3 5 9 -9.3819 -0.2606
3 5 10 2.9075 -0.3529
3 5 11 -34.5234 0.0288
3 5 12 3.1669 0.5550
3 5 13 -20.3238 0.2478
3 5 14 -7.5867 1.2750
3 5 15 -11.4473 0.2065
3 5 16 -13.1402 1.2526
3 5 17 -10.2758 0.0079
3 5 18 0.3691 0.8028
3 5 19 -10.9834 -0.1263
3 5 20 0.6789 -0.1662
3 5 21 -4.2708 -0.2645
3 5 22 5.5757 -0.7402
3 5 23 -4.9132 -0.0829
3 5 24 -1.2660 -1.0376
3 5 25 -1.4519 -0.0229
3 5 26 5.8191 -0.8449
3 7 0 21.9667 0.2448
3 7 1 -24.9789 -0.0734
3 7 2 13.9101 0.1922
3 7 3 5.5647 -0.2677
3 7 4 3.6077 0.4364
3 7 5 2.4472 -0.2374
3 7 6 -0.0696 0.8173
3 7 7 20.0809 0.1149
3 7 8 8.4891 0.7219
3 7 9 15.4581 0.2347
3 7 10 -3.6394 0.4454
3 7 11 14.9152 0.1215
3 7 12 11.5008 -0.4519
3 7 13 -0.9240 -0.2624
3 7 14 -2.1460 -1.0315
3 7 15 13.1792 -0.1673
3 7 16 6.4839 -1.1066
3 7 17 -2.9109 -0.0185
3 7 18 -1.8736 -0.5582
3 7 19 2.4699 0.2007
3 7 20 -11.9591 0.0616
3 7 21 -8.4880 0.1314
3 7 22 -0.7588 0.5771
3 7 23 1.6440 0.1922
3 7 24 -2.9471 0.9257
3 9 0 6.2891 -0.2099
3 9 1 -4.0142 -0.1771
3 9 2 1.6219 -0.2877
3 9 3 -7.3992 0.2219
3 9 4 -0.3913 -0.3012
3 9 5 -15.4185 0.1077
3 9 6 14.3321 -0.4559
3 9 7 -1.8875 -0.0408
3 9 8 -5.8630 -0.5602
3 9 9 -2.1301 -0.1935
3 9 10 2.5696 -0.2623
3 9 11 -12.5514 -0.0895
3 9 12 -8.4469 0.1855
3 9 13 -3.5967 0.0625
3 9 14 23.8148 0.8855
3 9 15 -1.1884 0.1570
3 9 16 -17.0161 1.0051
3 9 17 -2.2241 -0.0093
3 9 19 6.6054 -0.0982
3 9 20 -2.9619 -0.0509
3 9 21 3.0491 -0.1555
3 9 22 -14.4872 -0.4709
3 9 23 8.9378 -0.0840
3 11 0 9.4743 0.3218
3 11 1 17.5831 0.0537
3 11 2 17.0179 0.1691
3 11 3 3.9259 -0.1418
3 11 4 -1.6312 0.2614
3 11 5 8.5045 -0.1646
3 11 6 -3.9268 0.3466
3 11 7 -4.9019 -0.0112
3 11 8 16.9330 0.3164
3 11 9 12.4873 0.0349
3 11 10 -2.4226 0.3067
3 11 11 6.8362 0.1099
3 11 12 20.0807 -0.1356
3 11 13 -10.8899 0.0098
3 11 14 -20.9738 -0.6915
3 11 15 1.9015 -0.1032
3 11 17 -8.4274 -0.0433
4 0 0 42.3068 -3.2607
4 0 2 -95.7981 8.1919
4 2 0 -142.0366 1.1712
4 2 1 44.7819 -0.0742
4 2 2 -6.6059 -1.8164
4 2 3 22.7400 -0.2296
4 2 4 2.1244 -3.1385
4 2 5 23.1823 0.6475
4 2 6 35.1996 -3.1341
4 2 7 36.8536 -0.1674
4 2 8 -2.2361 -2.2514
4 2 9 -19.4865 0.4948
4 2 10 18.2248 1.4783
4 2 11 16.3283 0.5257
4 2 12 8.0201 3.4943
4 2 13 -11.3655 0.0999
4 2 14 14.8168 3.7677
4 2 15 -3.5477 0.5479
4 2 16 9.7397 2.9259
4 2 17 -7.1658 0.2348
4 2 18 1.3311 0.6931
4 2 19 4.8619 -0.1799
4 2 20 -5.2262 -1.5045
4 2 21 -0.1275 0.0773
4 2 22 -1.8816 -2.5373
4 2 23 -3.4528 0.1482
4 2 24 -0.1873 -2.3404
4 2 25 2.7446 0.1647
4 2 26 -2.2920 -1.2019
4 4 0 -14.9613 -0.6810
4 4 1 -5.0341 0.4660
4 4 2 14.6876 1.0975
4 4 3 -9.2124 0.0844
4 4 4 3.7745 1.8106
4 4 5 -2.1380 -0.3607
4 4 6 0.4835 2.1507
4 4 7 -6.1278 -0.0900
4 4 8 11.8464 1.0002
4 4 9 21.8039 0.3317
4 4 10 6.1339 -0.4357
4 4 11 6.4987 -0.1299
4 4 12 13.9251 -2.0380
4 4 13 11.3762 -0.2841
4 4 14 16.8644 -2.2582
4 4 15 -7.7322 -0.0131
4 4 16 15.3950 -1.4995
4 4 17 -3.5233 -0.0613
4 4 18 1.9744 -0.3468
4 4 19 -0.7102 -0.0063
4 4 20 0.8417 0.8411
4 4 21 -3.7225 0.0802
4 4 22 -1.3558 1.5336
4 4 23 3.7219 0.0679
4 4 24 3.3511 1.3611
4 4 25 1.7203 0.0097
4 4 26 2.6896 0.5818
4 6 0 3.5045 0.6419
4 6 1 -5.6857 -0.1840
4 6 2 -27.1733 -0.5834
4 6 3 -11.5013 -0.0735
4 6 4 13.2224 -1.4990
4 6 5 -6.0209 0.1255
4 6 6 -18.9672 -1.3051
4 6 7 -21.6763 0.0570
4 6 8 -7.7920 -0.7502
4 6 9 -0.5447 -0.2277
4 6 10 -23.6319 0.3474
4 6 11 1.3610 -0.0458
4 6 12 -2.7456 1.3525
4 6 13 -4.7992 0.2631
4 6 14 -3.0811 1.8213
4 6 15 -7.5355 0.2876
4 6 16 -5.9297 1.1464
4 6 17 7.4696 -0.0477
4 6 18 -6.0543 0.2705
4 6 19 12.8414 0.0070
4 6 20 -6.0571 -0.5093
4 6 21 0.7261 -0.0730
4 6 22 -9.6120 -1.0760
4 6 23 1.3272 -0.1804
4 6 24 5.0166 -0.9512
4 6 25 4.9392 -0.0931
4 8 0 -18.8482 -0.6175
4 8 1 5.0102 0.1661
4 8 2 2.4286 0.5014
4 8 3 7.2140 0.0797
4 8 4 8.8843 1.1874
4 8 5 -0.6365 -0.1050
4 8 6 6.2150 1.0361
4 8 7 16.4568 0.0075
4 8 8 16.2060 0.4630
4 8 9 6.7301 0.1029
4 8 10 8.2913 -0.2547
4 8 11 6.2269 0.1737
4 8 12 -5.8031 -1.0210
4 8 13 -0.8770 -0.2271
4 8 14 -8.5891 -1.3029
4 8 15 8.7307 -0.1533
4 8 16 7.4258 -0.9846
4 8 17 -7.0237 -0.0851
4 8 18 -0.7616 -0.2340
4 8 19 -4.1711 0.0685
4 8 20 15.1721 0.5122
4 8 21 -4.5526 0.1447
4 8 22 -9.9938 0.7673
4 8 23 -7.3554 0.1271
4 10 0 -6.7953 0.4266
4 10 1 -3.7553 0.0918
4 10 2 -0.9872 -0.3328
4 10 3 3.6129 -0.0181
4 10 4 -21.5994 -1.0893
4 10 5 11.1069 0.0399
4 10 6 0.5998 -0.8775
4 10 7 -4.8839 0.0905
4 10 8 -19.3131 -0.3180
4 10 9 2.9076 -0.1509
4 10 10 0.1101 0.1615
4 10 11 6.2663 -0.0144
4 10 12 4.1754 0.7655
4 10 13 9.6648 0.0848
4 10 14 -27.3052 1.0017
4 10 15 -10.5988 0.2590
4 10 16 20.2213 0.8791
4 10 19 -7.3929 0.0041
4 10 20 2.0492 -0.3127
4 10 21 0.9438 -0.1252
4 12 0 9.1818 -0.4377
4 12 1 9.0911 -0.0249
4 12 2 -3.2609 0.4205
4 12 3 1.7856 -0.0667
4 12 4 -2.5813 0.8567
4 12 5 -4.5442 0.0133
4 12 6 -2.6003 0.7834
4 12 7 2.0545 0.1002
5 1 0 77.4726 2.1237
5 1 1 -54.2633 1.3586
5 1 2 -68.9991 -2.3908
5 1 3 87.1156 -0.8016
5 1 4 -25.8285 -3.9389
5 1 5 -61.7212 0.1462
5 1 6 -5.1492 -2.7037
5 1 7 18.3809 -0.2447
5 1 8 22.1840 -0.8089
5 1 9 -38.0233 -0.1450
5 1 10 -12.8298 1.6438
5 1 11 -9.0006 0.5842
5 1 12 -7.3097 3.2290
5 1 13 -18.4808 0.1027
5 1 14 -13.5021 2.5268
5 1 15 -8.6912 -0.3632
5 1 16 -1.0681 1.3248
5 1 17 -11.6493 -0.5909
5 1 18 7.3357 -0.6791
5 1 19 -16.6895 -0.7621
5 1 20 16.1603 -2.5208
5 1 21 -5.7361 -0.5572
5 1 22 23.9825 -2.7924
5 1 23 -4.1911 -0.2247
5 3 0 62.3567 -0.1312
5 3 1 -20.3410 -0.4876
5 3 2 -8.0146 0.5773
5 3 3 -14.9979 -0.7979
5 3 4 13.6963 2.0882
5 3 5 -3.2455 0.7698
5 3 6 13.4675 1.3346
5 3 7 -20.2889 -0.1451
5 3 8 -12.5141 0.1990
5 3 9 8.8881 -0.2718
5 3 10 7.0698 -1.0773
5 3 11 -10.2970 -0.1448
5 3 12 -23.9085 -2.0670
5 3 13 5.7861 -0.4197
5 3 14 -7.3139 -1.7952
5 3 15 17.1375 -0.0975
5 3 16 -11.8930 -1.0402
5 3 17 -1.3862 0.1108
5 3 18 0.6727 0.2781
5 3 19 3.9678 0.2764
5 3 20 -5.9035 1.1706
5 3 21 0.3080 0.1206
5 3 22 -11.6728 1.5325
5 3 23 -4.0367 -0.1552
5 3 24 -3.5618 1.0175
5 3 25 0.3120 -0.2299
5 5 0 19.1461 -0.1855
5 5 1 18.2421 0.4259
5 5 2 -1.2987 -0.3657
5 5 3 -5.8059 0.3297
5 5 4 15.8576 -0.9671
5 5 5 7.4917 0.0444
5 5 6 9.2554 -0.9485
5 5 7 4.2724 -0.3596
5 5 8 16.7993 -0.2107
5 5 9 -6.4766 -0.0768
5 5 10 7.1730 0.7309
5 5 11 4.8946 0.2938
5 5 12 2.0108 1.3075
5 5 13 14.1001 0.2398
5 5 14 -4.6702 1.3904
5 5 15 16.5734 -0.0697
5 5 16 -0.6930 0.6195
5 5 17 1.3079 -0.1292
5 5 18 9.8647 -0.0732
5 5 19 4.6761 -0.1428
5 5 20 7.0701 -0.9286
5 5 21 7.7483 -0.1733
5 5 22 3.8279 -1.1678
5 5 23 2.0597 0.0615
5 5 24 -0.8233 -0.6509
5 5 25 -2.8892 0.2186
5 7 0 12.3521 0.2229
5 7 1 -3.1677 -0.4013
5 7 2 -26.9955 0.1865
5 7 3 13.2452 -0.3494
5 7 4 -7.9520 0.5982
5 7 5 -5.9074 0.0736
5 7 6 -32.8280 0.5467
5 7 7 -1.4064 0.2150
5 7 8 -6.2537 0.1016
5 7 9 -12.8446 0.1984
5 7 10 -12.5448 -0.3546
5 7 11 8.4966 -0.1072
5 7 12 -6.1238 -1.1010
5 7 13 -3.0323 -0.2211
5 7 14 -15.1828 -1.0825
5 7 15 4.4114 -0.0173
5 7 16 -5.6722 -0.6652
5 7 17 -8.5502 0.1011
5 7 18 -5.0672 0.1040
5 7 19 -7.9171 0.1359
5 7 20 -3.9998 0.6219
5 7 21 0.5103 0.0752
5 7 22 3.7654 0.8253
5 7 23 5.1838 0.0450
5 9 0 0.1105 -0.1372
5 9 1 1.6257 0.1661
5 9 2 -19.6874 -0.2484
5 9 3 4.4156 0.2621
5 9 4 3.8799 -0.2616
5 9 5 4.7994 0.0958
5 9 6 3.4989 -0.2694
5 9 7 -2.4892 -0.2315
5 9 8 4.5209 -0.2539
5 9 9 -5.8591 -0.1438
5 9 10 -7.5171 0.3560
5 9 11 -12.4564 -0.0059
5 9 12 8.3293 0.7351
5 9 13 13.5355 0.1070
5 9 14 -4.3799 0.9915
5 9 15 -5.0357 0.1033
5 9 16 -18.0548 0.5920
5 9 18 4.8777 -0.1289
5 9 19 2.1916 -0.1720
5 9 20 -12.9217 -0.5010
5 9 21 6.8723 -0.1442
5 9 22 7.2482 -0.6806
5 11 0 -14.0436 0.2527
5 11 1 -18.1179 -0.1015
5 11 2 -11.8482 0.1415
5 11 3 -5.3369 -0.1723
5 11 4 -7.7635 0.1666
5 11 5 -2.9890 -0.1116
5 11 6 14.5722 0.1992
5 11 7 -10.3081 0.0391
5 11 8 -5.2345 0.0549
5 11 9 12.8998 0.0699
5 11 10 -1.2839 -0.1168
5 11 11 -10.2937 0.0263
5 11 12 3.9462 -0.6460
5 11 13 -4.5029 -0.0349
5 11 16 -3.0171 -0.5581
6 0 0 63.6849 3.7411
6 0 2 -56.2466 10.8700
6 0 4 73.7021 12.6828
6 0 6 -57.9477 6.3846
6 2 0 -5.3164 -1.7427
6 2 1 -42.0968 -0.1476
6 2 2 64.0397 -3.4715
6 2 3 -36.8513 -0.0395
6 2 4 -13.1297 -3.6079
6 2 5 -26.5381 0.4421
6 2 6 15.9184 -1.4105
6 2 7 -11.6456 -0.4256
6 2 8 -17.9628 1.1714
6 2 9 -21.1531 0.5204
6 2 10 14.4827 3.8094
6 2 11 17.1867 0.4701
6 2 12 -1.2329 4.1757
6 2 13 -2.0327 -0.1748
6 2 14 -5.7851 2.6357
6 2 15 8.1295 0.3302
6 2 16 1.3346 0.6203
6 2 17 10.0934 0.0704
6 2 18 -10.0591 -1.6792
6 2 19 12.9834 -0.1779
6 2 20 -10.6129 -2.7677
6 2 21 7.6691 0.0784
6 2 22 -0.5784 -2.3059
6 2 23 1.2679 0.2075
6 2 24 1.1724 -0.9907
6 4 0 -16.2371 0.9094
6 4 1 13.5097 0.4913
6 4 2 -8.2213 2.1693
6 4 3 19.1546 -0.1261
6 4 4 -10.0081 1.7551
6 4 5 23.2383 -0.3299
6 4 6 -10.9230 1.1050
6 4 7 7.8370 0.2035
6 4 8 0.3337 -0.6527
6 4 9 14.4074 0.2620
6 4 10 -8.3207 -2.0261
6 4 11 -13.8065 -0.3790
6 4 12 2.6829 -2.4197
6 4 13 -17.5822 -0.1490
6 4 14 3.3258 -1.4489
6 4 15 -20.5941 0.1567
6 4 18 -5.4874 1.0119
6 4 19 -18.6513 0.2345
6 4 20 -3.7931 1.7566
6 4 21 -9.7439 0.1012
6 4 22 2.3656 1.4274
6 4 23 -5.5524 0.0066
6 4 24 -2.5825 0.6708
6 6 0 11.6200 -0.6476
6 6 1 2.9542 -0.3240
6 6 2 -6.7226 -1.3848
6 6 3 0.9542 0.0964
6 6 4 14.1203 -1.6062
6 6 5 1.5278 0.0713
6 6 6 -5.4306 -0.4057
6 6 7 9.5115 -0.0180
6 6 8 2.3423 0.3936
6 6 9 15.9846 -0.2221
6 6 10 5.4125 1.2748
6 6 11 1.4374 0.0918
6 6 12 15.8689 1.7481
6 6 13 10.2281 0.2528
6 6 14 9.4116 1.1807
6 6 15 9.6823 0.0807
6 6 16 10.6211 0.0882
6 6 17 11.5109 -0.1720
6 6 18 4.4308 -0.7065
6 6 19 4.8028 -0.0710
6 6 20 -0.5630 -1.0890
6 6 21 -8.9991 -0.1727
6 6 22 -1.9273 -1.1447
6 6 23 1.6320 -0.1809
6 8 0 4.3895 0.4694
6 8 1 -6.1760 0.1026
6 8 2 13.2766 1.2542
6 8 3 -6.5321 0.0123
6 8 4 -2.3892 1.0840
6 8 5 -14.4909 -0.1709
6 8 6 16.3518 0.4646
6 8 7 -5.2778 0.1199
6 8 8 -13.5402 -0.3549
6 8 9 -8.0812 0.0956
6 8 10 19.3829 -0.9091
6 8 11 -0.2122 0.0428
6 8 12 -8.0895 -1.3234
6 8 13 -4.5217 -0.3175
6 8 15 2.7352 -0.0506
6 8 16 0.0052 -0.0984
6 8 17 -14.3898 0.0597
6 8 18 10.1636 0.5098
6 8 19 4.2084 0.1592
6 8 20 3.3719 0.9981
6 8 21 -8.2208 0.1784
6 8 22 8.9728 0.7433
6 10 0 12.7432 -0.4049
6 10 1 7.3284 0.0256
6 10 2 3.2312 -0.9710
6 10 3 -0.7042 0.0008
6 10 4 4.5766 -1.0168
6 10 5 0.2529 -0.0169
6 10 6 -4.2809 -0.3688
6 10 7 5.6457 0.0397
6 10 8 -9.8941 0.2811
6 10 9 9.2226 -0.1966
6 10 10 6.4188 0.6458
6 10 11 -0.7905 0.1036
6 10 12 10.9350 1.0175
6 10 13 -11.8672 0.1837
6 10 14 -4.0492 0.7520
6 10 15 -7.2981 0.1727
6 10 17 9.1809 0.0362
6 10 18 -10.8929 -0.5053
6 10 19 0.1097 -0.1699
6 10 20 13.6122 -0.6524
6 12 0 -25.5957 0.2921
6 12 1 -17.2699 -0.0421
6 12 2 0.3809 0.8841
6 12 3 -6.6088 -0.0109
6 12 4 -11.8829 0.8267
6 12 5 15.3005 0.0509
6 12 6 14.8104 0.3148
7 1 0 22.4349 2.7220
7 1 1 -12.7898 -0.1386
7 1 2 -8.7599 -2.9932
7 1 3 66.8872 0.3508
7 1 4 51.3468 -1.5301
7 1 5 -14.6939 0.7306
7 1 6 26.5707 0.3821
7 1 7 55.7085 0.1388
7 1 8 12.7297 2.2451
7 1 9 1.5588 0.2385
7 1 10 -26.9166 3.3747
7 1 11 23.2695 0.4880
7 1 12 -9.4820 3.3136
7 1 13 -8.5458 -0.1297
7 1 14 -3.1125 1.0284
7 1 15 -2.9775 -0.5639
7 1 16 -5.8493 -0.9768
7 1 17 -6.5793 -0.5747
7 1 18 10.3252 -2.2288
7 1 19 6.0500 -0.5273
7 1 20 27.6134 -2.9990
7 3 0 -30.3362 -0.2262
7 3 1 11.6214 -0.7764
7 3 2 -53.0010 0.5863
7 3 3 -3.2777 -0.2324
7 3 4 -29.4209 1.6542
7 3 5 -2.8423 0.7393
7 3 6 -24.7780 -0.4664
7 3 7 -6.6149 -0.0674
7 3 8 -32.6385 -1.3127
7 3 9 3.4817 -0.3877
7 3 10 2.5265 -1.9648
7 3 11 0.3236 -0.1907
7 3 12 1.5334 -2.0380
7 3 13 5.7322 -0.0931
7 3 14 19.9972 -0.9114
7 3 15 13.9054 0.1289
7 3 16 13.3334 0.2287
7 3 17 -0.2842 0.1585
7 3 18 13.7104 1.1871
7 3 19 11.0289 0.1060
7 3 20 3.1441 1.5196
7 3 21 -4.4722 -0.1112
7 3 22 3.0236 0.9836
7 3 23 7.5664 -0.3422
7 3 24 0.4443 0.0419
7 5 0 8.5550 0.0795
7 5 1 -4.3988 0.6926
7 5 2 9.0871 -0.5128
7 5 3 -19.2001 0.0488
7 5 4 27.1595 -0.4503
7 5 5 -6.5569 -0.1838
7 5 6 10.1603 -0.2410
7 5 7 -24.3091 -0.2935
7 5 8 9.7146 1.0341
7 5 9 -22.4884 0.2247
7 5 10 -10.0475 1.3877
7 5 11 -3.6469 0.2095
7 5 12 -10.9103 1.2608
7 5 13 -12.5691 0.1254
7 5 14 -8.6112 0.7796
7 5 15 -7.2450 -0.2040
7 5 16 0.9725 -0.2658
7 5 17 -4.2731 -0.1718
7 5 18 3.5323 -0.8211
7 5 19 4.4845 -0.0241
7 5 20 1.1869 -1.2373
7 5 21 6.8917 -0.0368
7 5 22 4.1328 -0.8053
7 5 23 -11.5487 0.2250
7 7 0 15.3638 0.0243
7 7 1 -7.3021 -0.4655
7 7 2 -18.4430 0.0440
7 7 3 14.5298 -0.2854
7 7 4 8.9439 0.4786
7 7 5 -0.8329 0.3978
7 7 6 8.0472 -0.0579
7 7 7 15.0185 0.1106
7 7 8 18.9284 -0.5728
7 7 9 5.4971 0.0280
7 7 10 -3.1460 -0.8700
7 7 11 6.6321 -0.1760
7 7 12 7.2276 -1.2232
7 7 13 -11.9423 -0.1091
7 7 14 -0.4086 -0.5829
7 7 15 4.9853 0.1534
7 7 16 4.4145 0.1169
7 7 17 -2.4459 0.1942
7 7 18 -1.4451 0.7143
7 7 19 0.5059 0.0002
7 7 20 -6.2002 0.8357
7 7 21 -0.0283 0.0228
7 7 22 -3.6736 0.6732
7 9 0 1.0842 -0.0012
7 9 1 8.1485 0.4202
7 9 2 4.8216 -0.1400
7 9 3 -4.7373 0.1422
7 9 4 1.0334 -0.0479
7 9 5 5.2035 -0.1120
7 9 6 0.4668 -0.0112
7 9 7 -7.8847 -0.2538
7 9 8 0.8121 0.3103
7 9 9 2.4393 -0.0031
7 9 10 0.9068 0.7877
7 9 11 3.4250 0.0393
7 9 12 17.8405 0.8930
7 9 13 15.2326 0.0790
7 9 14 -5.4727 0.6587
7 9 15 -2.1626 -0.0945
7 9 17 13.1566 -0.1435
7 9 18 0.6572 -0.5542
7 9 19 -3.1661 -0.1245
7 9 20 -7.4128 -0.7709
7 11 0 30.5394 0.0439
7 11 1 12.8471 -0.2713
7 11 2 13.9029 -0.0035
7 11 3 7.6651 -0.1986
7 11 4 -7.9112 0.0066
7 11 5 -12.2347 0.0293
7 11 6 10.8587 0.0009
7 11 7 -7.2377 0.0352
7 11 8 1.7123 -0.2180
7 11 9 13.5223 0.1014
7 11 10 8.2640 -0.4878
7 11 11 -2.3948 -0.0296
7 11 12 -4.0477 -0.7599
7 11 14 -8.6654 -0.5804
7 11 15 3.4356 -0.0541
8 0 0 18.4180 9.6264
8 0 2 -100.2485 7.4053
8 0 4 -33.0822 3.8403
8 0 6 -100.8319 -5.5026
8 0 8 0.2875 -12.9960
8 0 10 -21.1372 -13.8216
8 2 0 32.2914 -3.4842
8 2 1 -1.8318 0.1457
8 2 2 37.3304 -3.2435
8 2 3 30.8598 0.2413
8 2 4 -1.9179 -1.6931
8 2 5 18.5869 -0.2968
8 2 6 32.7184 1.1024
8 2 7 23.4934 -0.2717
8 2 8 16.7635 3.6868
8 2 9 -5.4703 0.0924
8 2 10 22.0923 4.0774
8 2 11 8.1522 0.1100
8 2 12 -13.8049 2.5334
8 2 13 -7.5845 -0.4473
8 2 14 -7.1952 0.2668
8 2 15 3.4222 -0.0921
8 2 16 -1.9532 -1.9223
8 2 17 -4.8550 0.0212
8 2 18 -10.6591 -2.9773
8 2 19 -2.3067 -0.2577
8 2 20 -8.4020 -2.5624
8 2 21 3.4103 0.0733
8 4 0 21.4853 2.0571
8 4 1 -2.8595 0.2702
8 4 2 -1.9113 2.0833
8 4 3 -8.1684 -0.1789
8 4 4 -0.3464 0.6839
8 4 5 1.2426 -0.1063
8 4 6 7.1610 -0.5701
8 4 7 -3.1575 0.2225
8 4 8 20.8743 -1.9621
8 4 9 8.9946 0.0838
8 4 10 15.6945 -2.5438
8 4 11 -2.9564 -0.2588
8 4 12 13.3949 -1.4957
8 4 13 8.8133 0.0477
8 4 14 -3.2463 0.1663
8 4 16 -2.1953 1.0507
8 4 17 -4.6507 0.0756
8 4 18 7.1741 1.8011
8 4 19 2.5081 0.2856
8 4 20 -3.5229 1.7321
8 4 21 10.8995 0.1903
8 4 22 10.1332 0.5945
8 4 23 5.4663 -0.0060
8 6 0 5.6341 -1.4990
8 6 1 11.8961 -0.0885
8 6 2 -20.6538 -1.4842
8 6 3 0.8270 0.2426
8 6 4 -6.5110 -0.7397
8 6 5 2.6633 0.0048
8 6 6 -35.3436 0.6433
8 6 7 2.1005 -0.1893
8 6 8 -15.3004 1.1582
8 6 9 -0.4587 -0.0924
8 6 10 -4.4390 1.5646
8 6 11 1.2414 0.1620
8 6 12 -8.5309 1.1778
8 6 13 4.1380 0.1004
8 6 14 -3.4116 -0.0372
8 6 15 8.0294 -0.1271
8 6 16 -10.1807 -0.9230
8 6 17 12.7248 -0.2410
8 6 18 1.0589 -1.2763
8 6 19 8.5829 -0.0887
8 6 20 -3.5101 -1.0908
8 6 21 3.3478 -0.2238
8 6 22 -4.2974 -0.5034
8 8 0 -2.9297 1.1921
8 8 1 -10.5856 -0.0256
8 8 2 8.8212 1.2843
8 8 3 6.7836 -0.0533
8 8 4 10.7737 0.4154
8 8 5 7.5720 -0.0187
8 8 6 4.4500 -0.3173
8 8 7 4.6311 0.1315
8 8 8 4.7556 -0.9789
8 8 9 -9.2418 0.0604
8 8 10 3.0506 -1.1158
8 8 11 -11.6110 -0.1293
8 8 12 -2.4138 -0.8368
8 8 13 -5.1704 -0.1891
8 8 14 1.5785 -0.1219
8 8 15 -3.4988 0.0633
8 8 16 0.3134 0.7326
8 8 17 -2.8879 0.1998
8 8 18 10.6845 0.9581
8 8 19 6.4415 0.2294
8 8 20 12.4221 0.8615
8 8 21 6.5490 0.1796
8 10 0 10.1686 -0.9295
8 10 1 -16.6417 0.0164
8 10 2 -5.5474 -1.0274
8 10 3 10.2053 0.0283
8 10 4 0.3223 -0.4905
8 10 5 -0.2149 -0.0378
8 10 6 9.5595 0.3668
8 10 7 10.2527 0.0148
8 10 8 -13.3061 0.7789
8 10 9 -10.2230 -0.0429
8 10 10 13.2386 0.9032
8 10 11 7.7416 0.1986
8 10 12 -6.0135 0.6882
8 10 13 -0.5679 0.2537
8 10 14 1.6218 0.1758
8 10 16 13.3508 -0.5432
8 10 17 4.0758 -0.1570
8 10 18 -20.6622 -0.8661
8 12 0 23.8829 0.8207
8 12 1 15.7010 -0.0469
8 12 2 9.9433 0.8115
8 12 3 -7.7175 -0.0108
9 1 0 11.2195 2.1008
9 1 1 -41.0346 -1.5762
9 1 2 -8.2965 -2.0509
9 1 3 -5.0064 0.7728
9 1 4 18.3576 1.8751
9 1 5 -58.7481 0.9929
9 1 6 -4.4067 3.1366
9 1 7 -10.5331 0.4300
9 1 8 -12.5939 3.9978
9 1 9 -32.9415 0.5306
9 1 10 -10.0535 3.3029
9 1 11 3.8684 0.2662
9 1 12 13.2189 1.8396
9 1 13 -17.4681 -0.2234
9 1 14 5.1335 -0.9867
9 1 15 -3.9736 -0.5139
9 1 16 10.7342 -2.5567
9 1 17 -6.7345 -0.1771
9 1 18 38.2343 -2.5807
9 3 0 -23.9586 -0.1116
9 3 1 12.5023 -0.7393
9 3 2 -9.4259 0.1773
9 3 3 -4.8330 0.3559
9 3 4 -5.9602 0.1141
9 3 5 9.1155 0.2879
9 3 6 -5.6772 -1.9697
9 3 7 -4.4124 -0.1253
9 3 8 -25.9680 -2.0437
9 3 9 3.4037 -0.1806
9 3 10 4.0631 -1.8218
9 3 11 -5.2300 -0.0673
9 3 12 -5.2913 -0.8994
9 3 13 2.2385 0.2870
9 3 14 6.7800 0.3695
9 3 15 6.2128 0.2580
9 3 16 -12.1308 1.3740
9 3 17 3.4050 0.2043
9 3 18 -8.7108 1.4567
9 3 19 -3.7946 -0.2145
9 3 20 -7.8846 0.9507
9 3 21 -4.7862 -0.1904
9 3 22 0.0622 -0.0573
9 5 0 17.6506 0.2697
9 5 1 -0.1786 0.3878
9 5 2 7.1002 -0.4329
9 5 3 0.2401 -0.2974
9 5 4 21.0465 0.4210
9 5 5 7.6350 -0.3058
9 5 6 7.8674 0.6492
9 5 7 7.3151 -0.0569
9 5 8 -0.6605 1.6035
9 5 9 14.7820 0.2212
9 5 10 -11.3280 1.3977
9 5 11 10.4517 0.0922
9 5 12 2.7768 0.6359
9 5 13 -1.4487 -0.0445
9 5 14 -0.8416 -0.1806
9 5 15 8.6739 -0.2909
9 5 16 -6.9086 -0.9360
9 5 17 1.1552 -0.0949
9 5 18 2.3030 -1.1007
9 5 19 -4.6941 0.1196
9 5 20 6.0606 -0.7670
9 5 21 -1.5398 0.1264
9 5 22 -6.8728 -0.0969
9 7 0 10.3822 -0.0971
9 7 1 -6.9264 -0.3847
9 7 2 -22.9022 -0.1296
9 7 3 -3.0458 -0.0091
9 7 4 -0.0275 0.0474
9 7 5 -15.0505 0.4595
9 7 6 3.0071 -0.6724
9 7 7 -2.6161 0.0333
9 7 8 -3.2217 -0.9087
9 7 9 -15.7769 -0.1175
9 7 10 0.2339 -1.0319
9 7 11 -6.9805 -0.1698
9 7 12 3.1243 -0.6373
9 7 13 -14.0193 0.1101
9 7 14 -6.0937 0.1502
9 7 15 -10.7171 0.1748
9 7 16 3.3918 0.7854
9 7 17 -19.5715 0.1013
9 7 18 -10.1469 0.9328
9 7 19 -5.5492 -0.0113
9 7 20 -6.0779 0.6382
9 7 21 -8.0106 -0.0874
9 9 0 8.7598 0.0872
9 9 1 8.8800 0.4474
9 9 2 -14.5847 0.0767
9 9 3 -7.1710 -0.0636
9 9 4 2.1033 0.1861
9 9 5 -10.0002 -0.1940
9 9 6 -0.9481 0.3302
9 9 7 -8.4004 -0.1776
9 9 8 -6.1893 0.5456
9 9 9 3.3607 0.0631
9 9 10 -18.7827 0.8097
9 9 11 6.7176 0.0800
9 9 12 -11.3579 0.5604
9 9 13 -2.9782 -0.0452
9 9 16 -8.0754 -0.6702
9 9 17 15.8777 -0.1598
9 9 18 13.4458 -0.7922
9 9 19 4.7014 -0.0993
9 11 0 -35.2755 -0.1664
9 11 1 -2.7107 -0.2921
9 11 2 -3.4745 -0.1133
9 11 3 -12.2149 -0.0414
9 11 4 -15.1763 -0.1413
9 11 5 4.0963 0.0810
9 11 6 19.4496 -0.2578
9 11 8 -17.0284 -0.3848
9 11 9 7.9430 0.0332
9 11 10 -8.1813 -0.6337
9 11 12 2.7629 -0.5451
9 11 13 0.8104 -0.0508
10 0 0 -1.1351 10.4675
10 0 2 -32.1795 0.3124
10 0 4 10.4389 -7.0635
10 0 6 4.5046 -13.7849
10 0 8 53.9956 -14.6630
10 0 10 -0.8138 -8.8136
10 2 0 18.2892 -3.0313
10 2 1 -5.8515 0.3160
10 2 2 7.9707 -1.2453
10 2 3 20.2005 0.2932
10 2 4 -11.6546 1.3449
10 2 5 6.6365 -0.7588
10 2 6 10.5124 3.3354
10 2 7 11.9578 -0.1926
10 2 8 -3.3180 4.1453
10 2 9 -2.5412 -0.1898
10 2 10 -9.0388 2.2663
10 2 11 22.1823 -0.3341
10 2 12 -15.1582 -0.4653
10 2 13 3.1492 -0.4667
10 2 14 -2.0674 -2.1857
10 2 15 14.4934 -0.4437
10 2 16 -1.3442 -3.3572
10 2 17 3.2879 -0.1567
10 2 18 -5.2101 -2.6562
10 2 19 12.4732 -0.1425
10 2 20 -1.3754 -0.9787
10 2 22 -2.0451 0.8332
10 4 0 6.8867 2.2082
10 4 1 2.4207 -0.1373
10 4 2 -8.3484 0.7927
10 4 3 -7.5514 -0.2237
10 4 4 1.8839 -0.8137
10 4 5 1.4302 0.1875
10 4 6 -5.1252 -1.7435
10 4 7 -14.1322 0.3400
10 4 8 5.0260 -2.0965
10 4 9 0.0418 -0.1391
10 4 10 -8.7752 -1.6401
10 4 11 -14.8544 -0.0138
10 4 12 -4.3763 0.2176
10 4 13 -10.9556 0.2618
10 4 15 -22.3844 0.2189
10 4 16 8.0061 1.7606
10 4 17 -12.6944 0.0721
10 4 18 0.7645 1.6087
10 4 19 -2.6871 0.2931
10 4 20 -5.0628 0.7503
10 4 21 -0.0948 0.0115
10 4 22 6.8836 -0.4538
10 6 0 -8.9557 -1.5556
10 6 1 11.4866 0.1469
10 6 2 -10.3895 -0.6535
10 6 3 4.8624 0.1233
10 6 4 -11.8935 0.4350
10 6 5 4.1411 -0.1110
10 6 6 -8.9999 1.2495
10 6 7 7.1648 -0.2008
10 6 8 15.5291 1.4323
10 6 9 4.5114 0.1032
10 6 10 2.3322 0.9366
10 6 11 8.6301 0.1039
10 6 12 8.9305 -0.0488
10 6 14 6.6281 -1.0459
10 6 15 3.8848 -0.2883
10 6 16 6.5684 -1.4927
10 6 17 9.4427 -0.1436
10 6 18 -5.4987 -1.1068
10 6 19 -5.9506 -0.1469
10 6 20 -10.5317 -0.5425
10 6 21 -6.4390 -0.1075
10 8 0 4.2704 1.3505
10 8 1 -6.2142 -0.1192
10 8 2 11.3452 0.5926
10 8 3 -3.3198 -0.1083
10 8 4 1.2398 -0.4712
10 8 5 0.5568 0.0647
10 8 6 0.9004 -0.8804
10 8 7 -7.8158 0.0575
10 8 8 -9.2652 -1.1074
10 8 9 10.3923 -0.0453
10 8 10 -9.1115 -0.7221
10 8 11 5.4647 -0.2450
10 8 12 -1.6346 -0.0098
10 8 13 0.2255 -0.0889
10 8 14 -6.1378 0.7165
10 8 15 2.2968 0.1789
10 8 16 -6.9669 1.2288
10 8 17 -22.6548 0.3467
10 8 18 5.1793 0.9444
10 8 19 -0.0048 0.1639
10 10 0 8.0919 -0.9617
10 10 1 -7.6977 0.0271
10 10 2 -1.9312 -0.4653
10 10 3 11.7168 0.0796
10 10 4 -9.3863 0.3895
10 10 5 0.5663 0.0438
10 10 6 -20.1843 0.8427
10 10 7 9.1366 0.0107
10 10 8 -7.2863 0.9000
10 10 9 -7.5265 0.1580
10 10 10 9.4088 0.5596
10 10 11 -7.2232 0.2423
10 10 12 -5.5289 0.0665
10 10 14 8.4497 -0.5834
10 10 15 -10.9878 -0.1882
10 10 16 -4.8378 -0.9510
10 10 17 -0.5732 -0.2956
10 12 0 13.5727 0.9110
11 1 0 28.6313 0.6496
11 1 1 -28.1969 -1.9483
11 1 2 1.5667 0.1182
11 1 3 -15.9568 0.7490
11 1 4 15.9961 4.3556
11 1 5 -16.8268 0.6018
11 1 6 -19.8815 4.3287
11 1 7 20.1799 0.2648
11 1 8 -7.2460 3.4226
11 1 9 -9.6195 0.3035
11 1 10 -5.7826 1.5468
11 1 11 1.6953 0.0661
11 1 12 0.1805 -0.6534
11 1 13 -15.9903 -0.2374
11 1 14 -10.1521 -2.2439
11 1 15 -6.5841 -0.0424
11 1 16 14.9124 -2.7267
11 1 17 -8.9250 0.3486
11 3 0 -15.0623 0.1423
11 3 1 -0.6999 -0.1702
11 3 2 -1.9171 -0.2388
11 3 3 -14.1282 0.8103
11 3 4 -5.2291 -1.4362
11 3 5 -1.1136 -0.1659
11 3 6 -0.0837 -2.4477
11 3 7 0.6578 -0.1076
11 3 8 -4.9028 -1.7171
11 3 9 3.4751 -0.0082
11 3 10 30.2623 -0.8164
11 3 11 3.0122 0.0281
11 3 12 10.7198 0.4953
11 3 13 13.7309 0.4725
11 3 14 14.9683 1.3393
11 3 15 8.6524 0.2632
11 3 16 -0.2885 1.6941
11 3 17 4.1041 -0.0315
11 3 18 8.4473 0.9964
11 3 19 -1.1523 -0.2433
11 3 20 0.3967 -0.0569
11 3 21 -1.1395 -0.2507
11 5 0 27.7196 0.2206
11 5 1 0.0929 -0.0516
11 5 2 9.4187 0.1277
11 5 3 -1.3191 -0.4896
11 5 4 20.0619 1.1037
11 5 5 -4.4438 -0.2391
11 5 6 -10.4461 1.1281
11 5 7 -9.8675 0.1190
11 5 8 -10.6230 1.3873
11 5 9 -7.5400 0.2603
11 5 10 -12.2802 0.6239
11 5 11 -3.0956 -0.2830
11 5 12 -6.9565 -0.2913
11 5 13 -0.3046 -0.1816
11 5 14 -11.7311 -1.0245
11 5 15 4.2830 -0.2348
11 5 16 -7.5464 -1.0930
11 5 17 5.6501 -0.0479
11 5 18 16.8206 -0.7970
11 5 19 2.5192 0.1294
11 5 20 -3.2812 0.0520
11 7 0 2.3852 -0.2280
11 7 1 -7.1164 0.0119
11 7 2 -12.2368 -0.2453
11 7 3 -8.8526 0.3132
11 7 4 15.9967 -0.4312
11 7 5 4.3555 0.2940
11 7 6 6.3607 -0.8140
11 7 7 0.7039 -0.0646
11 7 8 4.5982 -0.8478
11 7 9 -0.3670 -0.1213
11 7 10 6.0851 -0.5174
11 7 11 0.4930 -0.0029
11 7 12 7.4291 0.2723
11 7 13 -5.0137 0.2718
11 7 14 2.4560 0.7750
11 7 15 -2.3819 0.1049
11 7 16 4.7416 1.0854
11 7 17 -1.2347 0.0423
11 7 18 -2.2203 0.5671
11 7 19 -0.8107 -0.1959
11 9 0 6.3954 0.1625
11 9 1 8.5797 0.1863
11 9 2 -22.8358 0.1876
11 9 3 6.2929 -0.2968
11 9 4 5.4292 0.3225
11 9 5 5.8093 -0.2336
11 9 6 -5.6040 0.3978
11 9 7 15.1912 -0.0226
11 9 8 12.3111 0.6407
11 9 9 -0.7765 0.0970
11 9 10 -0.6886 0.4525
11 9 11 12.9206 0.0181
11 9 14 -0.4896 -0.7239
11 9 15 20.5996 -0.2417
11 9 16 -10.1366 -0.9265
11 9 17 5.9770 -0.0810
11 11 0 -10.2733 -0.3169
11 11 1 5.8073 -0.1065
11 11 2 -1.5068 -0.2059
11 11 3 -7.0143 0.1207
11 11 4 5.5706 -0.2311
11 11 5 -2.8877 0.1117
11 11 6 20.6640 -0.2938
11 11 7 -17.3281 0.0590
11 11 8 -10.4953 -0.4021
11 11 10 3.9187 -0.3955
11 11 11 -16.8476 -0.0984
12 0 0 15.1141 5.9340
12 0 4 14.0079 -13.7639
12 0 6 5.9370 -14.1305
12 0 8 14.0925 -8.2358
12 0 10 -10.7422 0.5262
12 0 12 26.6214 7.8716
12 2 0 -4.3166 -0.9770
12 2 1 5.4350 0.4383
12 2 2 1.2423 1.5158
12 2 3 25.1653 0.1440
12 2 4 -5.4030 3.2300
12 2 5 -7.4699 -0.8296
12 2 6 17.6395 3.6354
12 2 7 -0.5116 -0.0507
12 2 8 -17.8101 2.3691
12 2 9 -9.2208 -0.3221
12 2 10 -9.9523 -0.6166
12 2 11 1.7927 -0.5794
12 2 12 -9.4836 -2.9376
12 2 13 -8.1468 -0.2570
12 2 14 -6.4027 -3.3797
12 2 15 1.2347 -0.6069
12 2 16 -7.6301 -2.8713
12 2 17 -4.3831 -0.2221
12 2 18 -5.4618 -1.0523
12 2 19 -2.1025 -0.0201
12 4 0 -7.9274 1.0407
12 4 1 -8.8221 -0.2701
12 4 2 -15.7696 -0.9300
12 4 3 -10.6167 -0.0910
12 4 4 1.5730 -1.7432
12 4 5 2.9285 0.3432
12 4 6 22.2960 -1.9496
12 4 7 -5.2434 0.1446
12 4 8 15.1121 -1.2114
12 4 9 10.6445 -0.2498
12 4 10 2.1550 0.1898
12 4 11 -11.0750 0.1647
12 4 12 6.7561 1.7137
12 4 13 0.7123 0.3383
12 4 14 4.4559 2.1891
12 4 15 -6.6961 0.0518
12 4 16 1.5355 1.4976
12 4 17 -1.9359 0.2099
12 4 18 -3.5032 0.5473
12 4 19 0.3680 0.0594
12 4 20 -0.7490 -0.4284
12 6 0 6.1299 -0.6727
12 6 1 13.8516 0.2389
12 6 2 -9.9763 0.3480
12 6 3 6.8544 0.0110
12 6 4 -5.3666 1.4026
12 6 5 1.7509 -0.0813
12 6 6 3.4317 1.2036
12 6 7 1.6505 -0.1439
12 6 8 9.0098 0.8474
12 6 9 5.0198 0.2381
12 6 10 -1.0937 -0.1969
12 6 11 0.3046 0.1431
12 6 13 6.6280 -0.2238
12 6 14 4.9085 -1.6091
12 6 15 2.9801 -0.2615
12 6 16 5.8273 -1.2440
12 6 17 7.8512 -0.1283
12 6 18 -0.6611 -0.4031
12 6 19 -5.2452 0.0037
12 8 0 15.0079 0.6986
12 8 1 1.1055 -0.1230
12 8 2 5.8692 -0.4248
12 8 3 5.6122 -0.0918
12 8 4 -3.2179 -1.0194
12 8 5 2.4819 0.1273
12 8 6 -1.1800 -1.0159
12 8 7 -6.2353 -0.0930
12 8 8 -5.1584 -0.5985
12 8 9 3.1829 -0.1836
12 8 10 -1.1072 0.1010
12 8 11 -0.3412 -0.1746
12 8 12 3.4267 0.8537
12 8 13 2.6746 0.2006
12 8 14 -9.3209 1.2706
12 8 15 5.2435 0.2824
12 8 16 10.9334 0.9765
12 8 17 -1.8964 0.1776
12 8 18 2.6736 0.4657
12 10 0 15.3072 -0.4263
12 10 1 -6.9442 0.0366
12 10 2 6.1085 0.2638
12 10 3 8.8987 0.0196
12 10 4 -9.4449 0.8856
12 10 5 -1.1668 0.0323
12 10 6 25.2585 0.8710
12 10 7 4.5124 0.0615
12 10 8 9.6590 0.4590
12 10 9 -7.3337 0.2358
12 10 10 23.1935 -0.0779
12 10 12 2.1985 -0.6495
12 10 13 2.6859 -0.0558
12 10 14 13.7770 -0.8587
12 10 15 -5.5478 -0.2778
13 1 0 -0.6693 -1.5424
13 1 1 -5.4296 -1.4875
13 1 2 -9.3677 2.0972
13 1 3 8.3456 0.3966
13 1 4 -2.5332 4.3211
13 1 5 -1.0956 0.0862
13 1 6 -10.5803 3.3509
13 1 7 6.6362 0.0968
13 1 8 17.9418 1.0331
13 1 9 -14.5716 -0.1321
13 1 10 -4.2898 -0.9153
13 1 11 5.7853 -0.2557
13 1 13 -9.7926 0.0322
13 1 14 8.3496 -2.4506
13 1 15 0.1670 0.2543
13 1 16 15.8435 -1.4015
13 1 17 4.0357 0.6267
13 3 0 8.5498 0.0412
13 3 1 15.2266 0.5762
13 3 2 10.2919 -0.6253
13 3 3 -3.4332 0.7896
13 3 4 -8.9346 -2.2271
13 3 5 7.6761 -0.5564
13 3 6 -3.4106 -1.6602
13 3 7 -9.7190 0.1614
13 3 8 6.7359 -0.4471
13 3 9 2.3212 0.1927
13 3 10 12.8448 0.6561
13 3 11 3.9779 0.1885
13 3 12 -4.4982 1.5613
13 3 13 0.0970 0.3506
13 3 14 4.6335 1.5834
13 3 15 0.9895 0.1499
13 3 16 0.2464 1.0239
13 3 17 1.0550 -0.1369
13 3 18 1.8366 -0.0503
13 3 19 -4.2164 -0.2200
13 5 0 8.3808 0.1769
13 5 1 -2.7390 -0.5426
13 5 2 -1.1440 0.5027
13 5 3 -6.1349 -0.4234
13 5 4 -0.3483 1.0628
13 5 5 7.4001 -0.0258
13 5 6 -23.7704 1.1366
13 5 7 -2.6093 0.3145
13 5 8 -5.0611 0.3866
13 5 9 5.6681 -0.0557
13 5 10 -13.9029 -0.4397
13 5 11 -4.8383 -0.2851
13 5 12 -8.8877 -1.0618
13 5 13 1.8323 -0.2289
13 5 14 -5.8069 -1.3040
13 5 15 -4.8424 -0.0394
13 5 16 -2.5143 -0.6548
13 5 17 2.1467 0.0489
13 5 18 0.7147 -0.0130
13 5 19 -7.7118 0.1496
13 7 0 -4.1951 -0.2454
13 7 1 -7.8573 0.4127
13 7 2 3.2950 -0.2535
13 7 3 4.5636 0.5056
13 7 4 -2.4399 -0.5636
13 7 5 1.4104 0.0364
13 7 6 1.0995 -0.5544
13 7 7 1.6011 -0.0855
13 7 8 11.1975 -0.3317
13 7 9 -8.6455 -0.0312
13 7 10 -4.4215 0.1951
13 7 11 4.3900 0.0966
13 7 12 2.0250 0.9669
13 7 13 -4.0546 0.3379
13 7 14 -7.4309 1.0466
13 7 15 3.9477 0.0567
13 7 16 2.3394 0.6846
13 7 17 -0.7399 -0.1136
13 7 18 0.8809 0.0427
13 9 0 -7.2512 0.1275
13 9 1 6.1287 -0.1964
13 9 2 -2.2073 0.3247
13 9 3 -13.7732 -0.3094
13 9 4 12.7830 0.2123
13 9 5 2.6361 -0.1507
13 9 6 -16.3248 0.3753
13 9 7 -17.2010 0.0650
13 9 8 9.0864 0.2533
13 9 11 4.6220 -0.1045
13 9 12 11.2106 -0.6650
13 9 13 -4.3477 -0.1872
13 9 14 7.2100 -1.0588
13 9 15 13.1376 -0.1529
13 9 16 -7.8055 -0.6050
13 11 0 -6.1402 -0.2897
13 11 1 -7.3214 0.0857
13 11 2 24.2598 -0.1583
13 11 3 6.0311 0.2192
13 11 4 15.0012 -0.1571
13 11 5 -5.6835 0.0638
13 11 7 0.7878 -0.0461
13 11 8 -11.1493 -0.2208
13 11 9 4.4555 -0.1530
14 0 0 -6.6625 -1.4713
14 0 2 -17.8610 -10.4351
14 0 4 16.0008 -13.2880
14 0 8 12.2100 2.3156
14 0 10 14.7902 9.0124
14 0 12 23.2454 11.3303
14 2 0 -1.2380 1.5006
14 2 1 -7.2018 0.2339
14 2 2 5.2629 3.2612
14 2 3 8.6094 0.0146
14 2 4 7.2168 3.3043
14 2 5 -7.2002 -0.3135
14 2 6 -0.4398 1.8965
14 2 7 10.4550 0.0258
14 2 8 -25.9204 -0.6846
14 2 9 -2.6992 -0.3425
14 2 10 4.3356 -3.0991
14 2 11 8.6656 -0.4582
14 2 12 -7.1062 -3.6374
14 2 13 7.4854 -0.0220
14 2 14 -11.8459 -2.7666
14 2 15 4.3235 -0.3046
14 2 16 -10.8015 -0.8458
14 2 17 1.4021 -0.2228
14 2 18 4.7832 1.0960
14 4 0 4.5295 -0.6176
14 4 1 5.1711 -0.2215
14 4 2 0.4566 -1.9808
14 4 3 -0.1516 0.0325
14 4 4 16.0521 -1.7863
14 4 5 3.9455 0.2014
14 4 6 3.4430 -1.0325
14 4 7 -4.0939 -0.1096
14 4 8 -7.4819 0.4119
14 4 9 -1.0925 -0.2172
14 4 10 1.3867 1.6360
14 4 11 -11.3898 0.2354
14 4 12 2.7024 2.2944
14 4 13 3.3475 0.3225
14 4 14 -4.8445 1.6739
14 4 15 -5.5082 -0.1082
14 4 16 -1.3963 0.4531
14 4 17 6.3605 0.0935
14 4 18 5.3480 -0.6270
14 6 0 -2.5160 0.4926
14 6 1 6.2288 0.1418
14 6 2 -14.7616 1.1677
14 6 3 6.1383 -0.1634
14 6 4 5.2821 1.4346
14 6 5 -0.7239 -0.0262
14 6 6 -1.9186 0.4389
14 6 7 -2.4389 0.0184
14 6 8 1.3932 -0.1895
14 6 9 2.7736 0.2297
14 6 10 2.7749 -1.1994
14 6 11 -0.1716 -0.1563
14 6 12 9.2034 -1.7912
14 6 13 3.3886 -0.3256
14 6 14 -4.3079 -1.2885
14 6 15 -3.8659 -0.1646
14 6 16 -7.7478 -0.3412
14 6 17 1.2693 0.1056
14 6 18 -8.7333 0.3393
14 8 0 12.8939 -0.3177
14 8 1 -8.7588 -0.0716
14 8 2 -1.4250 -1.0698
14 8 3 -13.2163 -0.0849
14 8 4 7.3967 -1.0032
14 8 5 -1.4361 0.0891
14 8 6 4.2984 -0.5417
14 8 7 -2.5733 -0.1109
14 8 8 -17.5103 0.2931
14 8 9 5.2397 -0.1907
14 8 10 -9.9328 0.8421
14 8 11 -13.1505 0.0493
14 8 12 -0.0822 1.2259
14 8 13 -3.5431 0.3223
14 8 14 2.8640 0.9725
14 8 15 -2.0232 0.1529
14 8 16 1.2839 0.2922
14 10 0 19.5790 0.2464
14 10 1 -0.1961 -0.0769
14 10 2 -35.8150 0.7835
14 10 3 2.0506 -0.0065
14 10 4 13.5121 0.8838
14 10 5 3.1542 0.0682
14 10 6 -6.5794 0.3918
14 10 9 -0.8570 0.1739
14 10 10 9.5974 -0.6439
14 10 11 6.7288 -0.0085
14 10 12 -13.2646 -0.8843
14 10 13 -0.5036 -0.1787
14 10 14 14.7944 -0.6853
15 1 0 18.4485 -2.6246
15 1 1 -24.9880 -0.1426
15 1 2 -7.5304 2.7977
15 1 3 -2.4628 -0.3029
15 1 4 -10.1109 2.0029
15 1 5 -7.9261 -0.3371
15 1 6 0.4949 0.5865
15 1 7 8.7887 0.0447
15 1 8 -0.9121 -1.7967
15 1 9 -5.6641 -0.3926
15 1 10 -23.1197 -2.7113
15 1 11 6.4743 -0.4258
15 1 12 -1.5319 -2.8326
15 1 14 11.4600 -1.3004
15 1 15 4.4824 0.4550
15 1 16 2.2767 0.5116
15 1 17 -2.9181 0.5234
15 3 0 2.2328 -0.1680
15 3 1 -1.5457 0.9505
15 3 2 -6.2402 -0.6189
15 3 3 -2.0710 0.3337
15 3 4 -14.2578 -1.7843
15 3 5 4.8852 -0.7175
15 3 6 18.1526 -0.0992
15 3 7 1.4273 0.2549
15 3 8 12.2446 1.0579
15 3 9 10.0838 0.3572
15 3 10 9.8366 1.6616
15 3 11 -5.9967 0.2240
15 3 12 9.7909 1.7618
15 3 13 -2.7319 0.1110
15 3 14 15.8278 1.0289
15 3 15 -4.3870 0.0031
15 3 16 1.2663 -0.1388
15 3 17 -9.0557 -0.2017
15 3 18 -7.4633 -1.1094
15 5 0 6.1829 -0.0633
15 5 1 3.6758 -0.7583
15 5 2 -4.4321 0.6157
15 5 3 -1.9632 -0.0773
15 5 4 -13.1824 0.5180
15 5 5 5.8824 0.0968
15 5 6 -6.7264 0.3467
15 5 7 -4.1797 0.2634
15 5 8 -4.2142 -0.7067
15 5 9 5.3214 -0.2540
15 5 10 -18.3170 -1.1571
15 5 11 -1.4441 -0.2009
15 5 12 -3.0385 -1.1392
15 5 13 1.4909 -0.0992
15 5 14 0.5128 -0.8740
15 5 15 2.5470 0.2271
15 5 16 -1.4451 0.1075
15 5 17 7.4904 0.0833
15 7 0 12.5624 -0.1558
15 7 1 -3.9911 0.5538
15 7 2 8.7510 -0.1324
15 7 3 -5.6445 0.3204
15 7 4 6.4601 -0.4685
15 7 5 -5.1538 -0.3112
15 7 6 7.9724 -0.0572
15 7 7 -1.1207 -0.0932
15 7 8 9.7846 0.2951
15 7 9 6.4458 0.0334
15 7 10 -4.6241 0.9130
15 7 11 2.3999 0.2230
15 7 12 -7.8754 1.1808
15 7 13 -3.1910 0.1140
15 7 14 1.8416 0.6834
15 7 15 -4.2441 -0.0100
15 9 0 -13.5095 0.1002
15 9 1 0.7243 -0.4271
15 9 2 2.6929 0.1237
15 9 3 8.6621 -0.1249
15 9 4 -27.6204 0.0650
15 9 7 -17.7598 0.2175
15 9 8 12.6614 -0.1822
15 9 9 1.8694 -0.0042
15 9 10 -11.4206 -0.6648
15 9 11 -3.0417 -0.1279
15 9 12 1.8954 -0.8967
15 9 13 -6.9482 -0.1546
15 9 14 -11.6668 -0.7274
15 11 0 22.4062 -0.1030
15 11 4 -25.7285 -0.0963
15 11 5 -18.1355 -0.0674
15 11 6 0.6990 -0.1097
15 11 7 0.6670 -0.1536
16 0 0 17.0623 -7.8379
16 0 2 14.6596 -7.9775
16 0 4 26.3638 -5.8980
16 0 6 -8.5057 3.2734
16 0 8 25.0719 10.8447
16 0 12 6.9233 8.7008
16 2 0 -25.8906 3.1454
16 2 1 7.3377 -0.1445
16 2 2 1.1458 3.1828
16 2 3 14.9925 -0.0456
16 2 4 -10.2529 1.6635
16 2 5 -1.5123 0.2544
16 2 6 -18.7743 -0.7164
16 2 7 2.9976 0.1331
16 2 8 -6.6729 -3.1570
16 2 9 -6.2365 -0.2088
16 2 10 6.2991 -3.9470
16 2 11 4.2149 -0.0862
16 2 12 -8.2748 -2.5980
16 2 13 -7.4294 0.2009
16 2 14 -6.3081 -0.6393
16 2 15 -4.5400 -0.0837
16 2 16 7.3272 1.3108
16 2 17 -1.0343 0.0524
16 4 0 -1.1972 -1.8363
16 4 1 -7.4161 -0.1899
16 4 2 7.3458 -1.8944
16 4 3 -5.0195 0.2136
16 4 4 8.6975 -0.7624
16 4 5 1.4034 0.0793
16 4 6 0.2631 0.3596
16 4 7 -2.5058 -0.1986
16 4 8 0.5887 1.7734
16 4 9 9.2066 -0.0198
16 4 10 3.1896 2.2769
16 4 11 4.2667 0.2332
16 4 12 -7.2506 1.6312
16 4 13 10.7118 0.0821
16 4 14 -3.7552 0.2044
16 4 15 1.7921 -0.1807
16 4 16 -1.1489 -0.7136
16 4 17 5.7493 -0.1693
16 6 0 -0.3241 1.3219
16 6 1 -5.3934 0.0788
16 6 2 -1.7712 1.2670
16 6 3 1.6967 -0.1647
16 6 4 9.3666 0.7390
16 6 5 0.2596 0.0701
16 6 6 -5.8240 -0.4641
16 6 7 -2.2575 0.0070
16 6 8 10.7569 -1.1877
16 6 9 3.0721 0.0167
16 6 10 6.4064 -1.4974
16 6 11 -0.1748 -0.2117
16 6 12 4.0621 -1.2708
16 6 13 2.6069 -0.2740
16 6 14 -0.8779 -0.2523
16 6 15 -5.3757 0.0218
16 6 16 -7.0340 0.6141
16 8 0 -2.1844 -0.9915
16 8 1 5.1970 0.0650
16 8 2 -1.8404 -1.0679
16 8 3 12.6255 -0.0384
16 8 4 -14.2844 -0.4160
16 8 5 1.3726 0.0464
16 8 6 -11.4693 0.2613
16 8 7 1.4913 -0.1397
16 8 8 -8.2813 0.9350
16 8 9 -5.9415 -0.0352
16 8 10 9.9377 1.0216
16 8 11 2.0639 0.1514
16 8 12 3.7143 0.8434
16 8 13 0.0877 0.3622
16 8 14 -7.8127 0.3743
16 10 0 -8.1319 0.7488
16 10 1 4.7986 0.0025
16 10 2 18.4723 0.9108
16 10 5 14.2805 0.1816
16 10 6 -24.9802 -0.2500
16 10 7 8.0934 0.1591
16 10 8 16.2894 -0.7176
16 10 9 -1.3212 0.0626
16 10 10 -29.4645 -0.6995
16 10 11 -2.6225 -0.1485
16 10 12 -4.4986 -0.6531
17 1 0 -1.0038 -2.3086
17 1 1 -6.7484 1.1943
17 1 2 -24.8086 2.1579
17 1 3 9.8431 -0.7260
17 1 4 -2.4968 -1.1877
17 1 5 -4.6822 -0.7181
17 1 6 -5.2764 -2.3445
17 1 7 3.0603 -0.0224
17 1 8 -13.2348 -3.3875
17 1 9 -9.2690 -0.4104
17 1 10 -1.3351 -3.2147
17 1 11 6.6206 -0.3313
17 1 12 10.7751 -1.6863
17 1 13 -1.3115 0.2729
17 1 15 14.1477 0.3712
17 1 16 -24.6526 1.9274
17 3 0 18.0613 -0.2250
17 3 1 -7.9391 0.7482
17 3 2 7.4258 -0.2815
17 3 3 -6.7142 -0.2808
17 3 4 16.4699 -0.4352
17 3 5 -4.0209 -0.5055
17 3 6 20.2455 1.4277
17 3 7 -3.9640 0.2317
17 3 8 -2.7449 1.7580
17 3 9 -1.1030 0.1995
17 3 10 6.7941 1.7516
17 3 11 -5.0867 0.0870
17 3 12 2.5458 0.9317
17 3 13 0.6272 -0.1313
17 3 14 -2.3600 -0.1771
17 3 15 -2.4023 -0.2315
17 3 16 -6.4900 -1.0179
17 5 0 -3.6769 -0.1651
17 5 1 5.8825 -0.5066
17 5 2 -18.0087 0.3639
17 5 3 0.1603 0.2963
17 5 4 -6.8707 -0.1759
17 5 5 6.6003 0.3005
17 5 6 -9.7378 -0.4017
17 5 7 -6.9623 0.2583
17 5 8 -8.6410 -1.4188
17 5 9 0.6645 -0.3654
17 5 10 -4.2790 -1.3523
17 5 11 -6.7825 -0.0092
17 5 12 6.2144 -0.6856
17 5 13 0.1262 0.0523
17 5 14 7.4664 0.0487
17 5 15 0.7052 0.2677
17 5 16 6.2306 0.6892
17 7 0 -5.3993 0.0632
17 7 1 -11.7948 0.3229
17 7 2 2.4501 0.0557
17 7 3 4.4974 0.0371
17 7 4 6.2591 -0.1105
17 7 5 4.6625 -0.4453
17 7 6 10.0595 0.4282
17 7 7 -1.3856 0.0021
17 7 8 7.4557 0.8404
17 7 9 -3.8310 0.1371
17 7 10 -5.7369 1.0213
17 7 11 -7.4419 0.2116
17 9 0 9.0655 -0.0594
17 9 1 -12.1120 -0.4178
17 9 2 -15.1636 -0.0007
17 9 3 -24.1792 0.1489
17 9 4 -3.7686 -0.0877
17 9 5 -5.8354 0.1293
17 9 6 9.3409 -0.1268
17 9 7 -21.4994 0.1746
17 9 8 -6.3702 -0.5317
17 9 9 23.7163 -0.1257
17 9 10 5.3570 -0.8272
17 9 11 2.2427 -0.1491
17 9 12 4.8081 -0.6371
17 11 0 17.9800 0.1510
17 11 1 10.3887 0.1901
17 11 2 -31.4382 0.0430
17 11 3 8.2745 0.0228
17 11 4 9.3112 0.0282
18 0 0 28.2142 -9.6770
18 0 2 12.9668 -1.4426
18 0 4 24.6120 4.1263
18 0 6 19.5519 11.0484
18 0 8 17.4769 13.3993
18 0 10 -8.5245 8.8010
18 0 12 -2.9109 1.7870
18 0 14 -11.2692 -5.2210
18 2 0 7.8960 3.0526
18 2 1 -9.4999 -0.4347
18 2 2 2.9649 1.5857
18 2 3 -7.5676 -0.1905
18 2 4 -17.9511 -0.7875
18 2 5 -16.4087 0.7105
18 2 6 -1.7279 -2.8079
18 2 7 0.6182 0.0683
18 2 8 -8.4995 -3.7611
18 2 9 0.4847 -0.0297
18 2 10 -9.0023 -2.6329
18 2 11 4.6937 0.3543
18 2 12 -13.0100 -0.1111
18 2 13 3.2027 0.3878
18 2 14 2.3085 1.5487
18 2 15 -0.3672 0.3677
18 4 1 6.4850 -0.0956
18 4 2 2.6292 -0.8519
18 4 3 7.6296 0.2487
18 4 4 -2.8994 0.5625
18 4 5 7.3780 -0.1190
18 4 6 2.4941 1.4669
18 4 7 1.2133 -0.1531
18 4 8 4.4702 2.2212
18 4 9 5.1059 0.2602
18 4 10 -1.6242 1.6035
18 4 11 0.4085 0.0688
18 4 12 -1.0849 0.0953
18 4 13 0.9740 -0.2175
18 4 14 8.6887 -1.1447
18 4 15 0.6655 -0.2104
18 6 0 14.2956 1.3260
18 6 1 -7.6259 -0.0837
18 6 2 4.9434 0.7087
18 6 3 -5.4817 -0.1572
18 6 4 4.4741 -0.2567
18 6 5 -15.9217 0.0787
18 6 6 9.2719 -1.1533
18 6 7 -4.4736 0.1284
18 6 8 13.9393 -1.2858
18 6 9 -6.8022 -0.1291
18 6 10 7.3078 -1.0054
18 6 11 1.0801 -0.2575
18 6 12 -2.5757 -0.2057
18 6 13 -4.5548 0.0082
18 6 14 3.2142 0.7485
18 8 0 -3.8786 -1.1943
18 8 1 0.7632 0.0475
18 8 2 7.1715 -0.5914
18 8 3 3.1207 -0.0254
18 8 4 2.0207 0.2180
18 8 5 9.8320 -0.0462
18 8 6 -4.3824 0.8010
18 8 7 10.2199 -0.0699
18 8 8 -0.0042 0.9515
18 8 9 6.4578 0.0993
18 8 10 -9.6225 0.6978
18 8 11 0.7862 0.3419
18 8 12 -16.5467 0.1118
18 8 13 5.1557 0.1270
18 10 0 -12.7565 0.8137
18 10 1 5.8383 0.0604
18 10 2 10.4678 0.5257
18 10 3 0.2485 0.0512
18 10 4 -26.8177 -0.1783
18 10 5 6.5042 0.1197
18 10 6 -14.5172 -0.7634
18 10 7 -13.8571 0.0146
18 10 8 16.2902 -0.7174
18 10 9 -2.3008 -0.1382
18 10 10 7.2377 -0.4865
19 1 0 -9.5152 -0.8315
19 1 1 -2.6964 1.7406
19 1 2 -3.8195 0.4689
19 1 3 29.0698 -0.7853
19 1 4 6.1100 -3.5047
19 1 5 10.4135 -0.6881
19 1 6 -12.3049 -3.6661
19 1 7 9.0294 0.0590
19 1 8 5.9247 -3.1329
19 1 9 5.0885 -0.2870
19 1 10 -0.3496 -1.8135
19 1 11 14.5247 -0.0228
19 1 12 -1.4107 0.1716
19 1 13 -2.2783 0.1709
19 1 14 -13.4987 1.8487
19 3 0 -5.7855 -0.1796
19 3 1 -9.1363 0.2211
19 3 2 0.0367 0.0622
19 3 3 0.2955 -0.8039
19 3 4 -0.0793 1.1411
19 3 5 -3.9851 -0.1673
19 3 6 0.9214 1.9953
19 3 7 -7.5976 0.0423
19 3 8 3.6385 1.6380
19 3 9 -9.0713 -0.0038
19 3 10 11.5350 0.9713
19 3 11 -12.8208 -0.1019
19 3 12 -4.6449 -0.1848
19 3 15 -6.2778 -0.1443
19 5 0 -7.6858 -0.2408
19 5 1 -2.3287 -0.0081
19 5 2 -3.6208 0.0329
19 5 3 0.8267 0.5041
19 5 4 -1.4715 -0.7273
19 5 5 -0.4432 0.2516
19 5 6 -9.5000 -1.0561
19 5 7 -5.4524 -0.1585
19 5 8 -3.7556 -1.3349
19 5 9 6.2755 -0.1812
19 5 10 -3.9118 -0.7275
19 5 11 -1.2718 0.1376
19 5 12 -2.7085 0.0349
19 7 0 3.0475 0.1917
19 7 1 0.9124 0.0797
19 7 2 1.1403 0.1833
19 7 3 6.6034 -0.2434
19 7 4 -8.3165 0.2795
19 7 5 4.8492 -0.3211
19 7 7 0.1530 0.1160
19 7 10 5.8630 0.7288
19 7 11 5.5983 0.1086
19 7 12 -5.0821 0.0008
19 7 13 -3.9119 -0.3396
19 9 0 -10.4698 -0.1077
19 9 1 1.9967 -0.1794
19 9 2 -3.0012 -0.1932
19 9 3 2.2298 0.2461
19 9 4 15.9687 -0.2314
19 9 5 6.6663 0.1232
19 9 6 14.9676 -0.3883
19 9 7 -7.3651 0.0130
19 9 8 11.4186 -0.6125
19 9 9 -3.8741 -0.2225
19 9 10 8.6764 -0.6191
19 9 11 -2.7176 -0.1489
19 11 0 0.7006 0.3147
20 0 0 18.0778 -6.3105
20 0 2 -21.5732 5.3809
20 0 4 3.2121 11.4820
20 0 6 0.4288 12.5276
20 0 8 -12.9789 8.7272
20 0 10 -11.0681 1.2112
20 2 0 3.4666 1.2350
20 2 1 -5.3987 -0.3256
20 2 2 -3.0067 -0.7603
20 2 3 0.2529 -0.1395
20 2 4 7.1677 -2.5432
20 2 5 -2.6863 0.6538
20 2 6 7.1412 -3.3134
20 2 7 5.0343 -0.0050
20 2 8 -4.8476 -2.3196
20 2 9 -7.7827 0.1832
20 2 10 14.2155 -0.0062
20 2 11 -0.9929 0.5428
20 2 12 13.1609 2.1639
20 2 13 -4.4306 0.4416
20 2 14 17.2708 2.8689
20 4 0 5.7672 -1.0059
20 4 1 0.0150 0.0942
20 4 2 -0.9781 0.4718
20 4 3 5.8307 0.1109
20 4 4 2.2213 1.5475
20 4 5 8.1982 -0.1625
20 4 6 1.2529 1.7722
20 4 7 5.1245 -0.2008
20 4 8 -9.4411 1.3041
20 4 9 10.2409 0.3004
20 4 10 -7.5529 0.1728
20 4 11 3.6738 -0.1537
20 4 12 -3.1007 -1.3718
20 4 13 3.5137 -0.3869
20 6 0 0.4252 0.8024
20 6 1 -9.4798 -0.1746
20 6 2 -4.3735 -0.2154
20 6 3 -1.8509 -0.1151
20 6 4 0.1988 -1.0215
20 6 5 7.7138 0.1247
20 6 6 -0.1326 -1.1394
20 6 7 0.6524 -0.0389
20 6 8 0.2783 -0.8387
20 6 9 -6.6952 -0.3571
20 6 10 -7.1392 -0.0935
20 6 11 0.2185 -0.0782
20 6 12 2.9334 0.9969
20 6 13 -5.1625 0.2204
20 8 0 -0.4786 -0.6892
20 8 1 0.5396 0.0149
20 8 2 5.8855 0.1394
20 8 3 8.2296 0.0617
20 8 4 -15.6242 0.8582
20 8 5 -8.1167 -0.0536
20 8 6 -8.6765 0.8249
20 8 7 1.8139 0.0782
20 8 8 -4.9555 0.5484
20 8 9 -5.8866 0.3022
20 10 0 36.8996 0.5092
20 10 1 6.9958 0.0198
20 10 2 -5.2159 -0.1365
20 10 3 4.4823 -0.0309
20 10 4 8.9176 -0.7344
20 10 5 14.7177 -0.0342
20 10 6 -14.0128 -0.8104
20 10 7 1.6059 -0.1378
21 1 0 7.6711 0.8319
21 1 1 -3.2557 1.4398
21 1 2 -0.9093 -1.3271
21 1 3 2.1867 -0.2530
21 1 4 -6.6427 -3.8330
21 1 5 -8.5923 -0.2566
21 1 6 2.1412 -3.1714
21 1 7 -1.2436 -0.0578
21 1 8 8.6351 -1.1044
21 1 9 -8.1250 0.1169
21 1 10 1.9724 0.1889
21 1 11 2.4514 0.0074
21 1 12 -5.3822 1.7917
21 1 13 -8.1282 0.0528
21 3 0 8.8913 -0.0593
21 3 1 -1.5398 -0.3776
21 3 2 1.7823 0.3052
21 3 3 2.4287 -0.7491
21 3 4 2.0847 1.8814
21 3 5 -2.7154 0.3276
21 3 6 8.7941 1.6934
21 3 7 -4.7011 -0.0158
21 3 8 1.5966 0.5852
21 3 9 2.6593 -0.2395
21 3 10 -6.8559 -0.1388
21 3 11 1.0640 -0.2112
21 3 12 -10.4403 -1.1478
21 3 13 4.1630 -0.3598
21 5 0 0.2176 -0.1224
21 5 1 10.0988 0.4286
21 5 2 1.7201 -0.4733
21 5 3 2.6877 0.3676
21 5 4 -3.4167 -0.9851
21 5 5 -1.3739 0.0369
21 5 6 -0.1885 -1.1255
21 5 7 2.8380 -0.2408
21 5 8 6.4003 -0.6055
21 5 9 3.6968 -0.0182
21 5 10 3.8428 0.0987
21 5 11 -1.2525 0.3864
21 5 12 1.7208 0.8119
21 7 0 -3.1200 0.2201
21 7 1 -3.9799 -0.2746
21 7 2 -5.1856 0.2460
21 7 3 0.4861 -0.3675
21 7 4 12.9293 0.4939
21 7 5 -0.5668 0.0641
21 7 6 2.5611 0.6505
21 7 7 -3.3842 0.1964
21 7 8 2.3892 0.5860
21 7 9 1.5973 0.0906
21 7 10 4.7959 -0.0016
21 7 11 -3.4611 -0.1795
21 9 0 -10.5312 -0.1939
21 9 1 -8.8428 0.1207
21 9 2 8.5157 -0.1559
21 9 3 -16.4947 0.2425
21 9 4 -1.8704 -0.2391
21 9 5 -0.4859 0.0800
21 9 6 5.8217 -0.4125
21 9 7 -4.9745 -0.2389
22 0 0 4.7839 -0.1939
22 0 2 6.8371 8.8744
22 0 4 17.9263 12.2339
22 0 6 4.0383 7.3872
22 0 8 0.3852 0.0327
22 0 10 5.9779 -6.2993
22 2 0 -10.8312 -1.0825
22 2 1 -13.4533 -0.1013
22 2 2 -6.9601 -2.5804
22 2 3 -4.1382 -0.0861
22 2 4 -7.1713 -2.9333
22 2 5 -3.5080 0.4012
22 2 6 -10.3803 -2.1237
22 2 7 4.9444 0.0997
22 2 8 -2.3590 0.1543
22 2 9 8.0552 0.2201
22 2 10 6.7875 2.3387
22 2 11 6.6608 0.4351
22 2 12 -0.4142 3.1512
22 4 0 -1.6496 0.3657
22 4 1 -7.2380 0.2509
22 4 2 0.2797 1.5320
22 4 3 7.0570 -0.0164
22 4 4 -7.2034 1.6175
22 4 5 2.2734 -0.0145
22 4 6 -6.7633 1.0681
22 4 7 -2.3114 0.0406
22 4 8 -4.0183 -0.0118
22 4 9 -0.0218 0.2046
22 4 10 2.5226 -1.2647
22 4 11 -3.7062 -0.2629
22 4 12 1.2879 -1.9819
22 6 0 7.9065 -0.1920
22 6 1 -10.7800 -0.1353
22 6 2 5.2162 -0.9144
22 6 3 -1.9815 -0.0153
22 6 4 8.2066 -1.2930
22 6 5 -5.7853 -0.0569
22 6 6 11.4092 -0.5524
22 6 7 -2.2703 -0.1140
22 6 8 6.4869 0.0546
22 6 9 -8.8259 -0.1666
22 6 10 0.9538 1.0131
22 6 11 5.1979 0.0876
22 8 0 10.4841 0.0712
22 8 1 -2.0109 0.0697
22 8 2 0.8019 0.8319
22 8 3 1.1232 0.0880
22 8 7 -0.8874 0.2324
22 8 8 3.0371 -0.1868
22 8 9 -0.6331 0.2056
22 10 0 4.8311 -0.0843
22 10 1 6.9311 -0.1191
22 10 2 -5.5040 -0.7292
22 10 5 -1.4560 -0.0640
23 1 0 9.4409 2.1257
23 1 1 16.8843 0.4680
23 1 2 -9.0885 -2.3743
23 1 3 19.5820 0.1840
23 1 4 1.3106 -2.1853
23 1 5 14.9021 0.2161
23 1 6 -1.9006 -1.1473
23 1 7 0.3648 0.0132
23 1 8 -10.7733 1.0840
23 1 9 5.4869 0.2776
23 1 10 -5.1580 2.0750
23 1 11 10.8773 0.2608
23 3 0 3.5065 0.1425
23 3 1 -6.5205 -0.7595
23 3 2 -3.4018 0.5422
23 3 3 3.5159 -0.2631
23 3 4 9.4108 1.7811
23 3 5 -5.3660 0.6020
23 3 6 8.2670 0.4352
23 3 7 -1.1235 -0.2801
23 3 8 0.2005 -0.6350
23 3 9 -1.4513 -0.2228
23 3 10 1.2206 -1.2920
23 3 11 -7.2650 -0.1646
23 5 0 0.6422 -0.0751
23 5 1 -0.5061 0.6429
23 5 2 -2.3525 -0.5681
23 5 3 -15.0047 0.0933
23 5 4 -3.6900 -0.6138
23 5 5 -1.2000 -0.1001
23 5 6 -3.7318 -0.6269
23 5 7 -1.8366 -0.2286
23 5 8 2.9711 0.2458
23 5 9 1.6919 0.3297
23 5 10 -2.5509 0.9563
23 7 0 -7.7478 0.1135
23 7 1 -0.2408 -0.3420
23 7 2 0.7370 0.1770
23 7 3 6.2540 -0.3268
23 7 4 -1.3191 0.4391
23 7 5 8.8552 0.2915
23 7 6 -3.7631 0.3061
23 7 7 1.2287 0.1161
23 7 8 -3.3746 -0.0705
23 7 9 1.1569 -0.1010
23 9 0 -10.5274 -0.0691
23 9 1 -3.8648 0.3188
23 9 5 -3.6182 -0.1014
23 9 6 1.6174 -0.2609
23 9 7 -1.0616 -0.2203
24 0 0 -9.7571 5.6858
24 0 4 -13.0747 6.6452
24 0 6 1.8071 -1.0823
24 0 8 -9.7369 -8.0059
24 0 10 -22.1705 -9.8950
24 2 0 14.6895 -2.6020
24 2 1 -11.3189 0.0744
24 2 2 9.7203 -3.1116
24 2 3 -5.4743 -0.0357
24 2 4 3.2404 -1.6879
24 2 5 -7.6239 -0.1771
24 2 6 6.6736 0.0559
24 2 7 -2.6363 -0.0159
24 2 8 10.7328 2.2229
24 2 9 -6.6385 0.3416
24 2 10 10.0693 3.3467
24 4 0 -2.8159 1.4908
24 4 1 8.6262 0.3657
24 4 2 1.5012 1.6953
24 4 3 11.4734 -0.1348
24 4 4 -6.6454 0.9522
24 4 5 7.8036 0.0777
24 4 6 -0.7884 -0.0174
24 4 7 2.4817 0.1411
24 4 8 -0.2790 -1.3785
24 4 9 5.7704 -0.0869
24 4 10 -2.6749 -1.7858
24 6 0 3.1852 -0.9828
24 6 1 8.5973 -0.1548
24 6 2 -4.6556 -1.1365
24 6 3 -1.3052 0.0760
24 6 4 -0.6462 -0.6895
24 6 5 0.7896 -0.0250
24 6 6 3.3635 0.3327
24 6 7 -3.5867 -0.1045
24 6 8 -2.1179 0.8712
24 8 0 8.3476 0.8422
24 8 1 3.2772 0.0596
24 8 2 -3.7566 0.9174
24 8 3 -0.0202 0.1408
24 8 4 3.2472 0.4185
24 8 5 0.4362 0.0313
24 8 6 -1.6763 -0.2230
24 8 7 4.6341 0.0371
24 10 0 10.4661 -0.5525
24 10 1 -1.5153 0.0473
25 1 0 0.6603 2.0564
25 1 1 -12.8574 -0.7468
25 1 2 1.4226 -2.1025
25 1 3 -2.7279 0.7106
25 1 4 2.7351 0.4411
25 1 5 -7.8241 0.6926
25 1 6 -2.7899 1.3665
25 1 7 -11.8240 0.0238
25 1 8 1.1725 2.5703
25 1 9 -10.9170 0.4056
25 3 0 -2.2345 0.1860
25 3 1 1.8964 -0.8761
25 3 2 -0.2144 0.3944
25 3 3 0.9301 0.2110
25 3 4 -1.7554 0.4897
25 3 5 -1.5236 0.3696
25 3 6 -9.5847 -0.8401
25 3 7 0.2308 -0.2506
25 3 8 -9.5710 -1.4814
25 3 9 0.3461 -0.2235
25 5 0 1.9865 0.1607
25 5 1 -9.5492 0.4348
25 5 2 4.1530 -0.5037
25 5 3 -4.5418 -0.2187
25 5 4 5.2242 -0.2717
25 5 5 -2.2865 -0.2142
25 5 6 4.2244 0.2397
25 5 7 -2.7365 -0.0115
25 5 8 6.8774 0.9975
25 7 0 0.7518 -0.1516
25 7 1 -0.7433 -0.3518
25 7 2 0.1411 0.2125
25 7 3 -1.7256 0.0030
25 7 4 -2.3132 0.2445
25 7 5 -1.9616 0.3282
25 7 6 -5.0544 -0.1962
25 7 7 1.7073 -0.0318
25 9 0 2.0592 -0.0138
25 9 1 -2.5357 0.3059
25 9 2 -7.6719 -0.0456
25 9 3 -0.8044 -0.1633
25 9 4 3.4042 -0.0264
25 9 5 0.6305 0.0795
26 0 0 17.6383 8.2009
26 0 2 3.4131 2.1665
26 0 4 10.3478 -1.8779
26 0 8 -10.8938 -11.0899
26 2 0 -5.0814 -2.6445
26 2 1 -5.4334 0.2354
26 2 2 -9.5301 -1.7307
26 2 3 2.2900 0.0159
26 2 4 -2.2114 0.2958
26 2 5 6.3424 -0.5605
26 2 6 2.3163 2.0714
26 2 7 8.1785 -0.0644
26 2 8 -0.9309 2.9810
26 4 0 2.4070 1.7116
26 4 1 2.0494 0.3074
26 4 2 -4.8384 0.9977
26 4 3 -1.6780 -0.2315
26 4 4 -1.1870 -0.2574
26 4 5 -1.4618 0.0329
26 4 6 -1.9730 -1.0318
26 4 7 -3.4242 0.2019
26 4 8 3.1302 -1.7656
26 6 0 2.5242 -1.1674
26 6 1 -0.3515 -0.0471
26 6 2 -3.0439 -0.5199
26 6 3 -0.7462 0.0853
26 6 4 1.1083 0.1358
26 6 5 4.2009 -0.1230
26 6 6 -3.8688 0.8225
26 6 7 2.8143 -0.0433
26 8 0 4.7868 0.8243
26 8 1 3.7174 -0.0378
26 8 2 -4.4180 0.4184
26 8 3 -1.2822 -0.0314
26 8 4 -2.7045 -0.2485
26 8 5 0.9899 0.0087
27 1 0 2.4206 1.1914
27 1 1 11.5967 -1.3483
27 1 2 -0.4969 -0.5572
27 1 3 12.0601 0.6069
27 1 4 -3.9222 2.8372
27 1 5 2.0166 0.6329
27 1 6 -2.3618 2.9396
27 1 7 -4.1748 0.1462
27 3 0 0.0418 0.0967
27 3 1 -0.0244 -0.3865
27 3 2 5.2852 0.0740
27 3 3 -0.2044 0.5168
27 3 4 0.2225 -0.6683
27 3 5 0.8180 0.1337
27 3 6 6.1478 -1.5662
27 3 7 -3.6281 -0.1875
27 5 0 6.5193 0.0756
27 5 1 6.0082 -0.0557
27 5 2 4.1450 -0.0657
27 5 3 0.5391 -0.3377
27 5 4 -1.7313 0.4085
27 5 5 0.7936 -0.1760
27 5 6 4.1203 0.7065
27 5 7 4.5354 -0.0028
27 7 0 -0.6207 -0.0494
27 7 1 7.5946 -0.0011
27 7 2 -5.8552 -0.0007
27 7 3 0.3466 0.1805
27 9 0 8.0392 0.1184
27 9 1 -3.6388 0.2238
27 9 2 -1.1087 0.1160
27 9 3 2.4731 0.0184
28 0 0 -13.7363 6.1922
28 0 2 -11.8838 -3.6409
28 0 4 -3.4231 -8.7329
28 0 6 -12.6837 -10.3842
28 2 0 6.5168 -1.2875
28 2 1 -9.5096 0.3717
28 2 2 7.5781 0.2534
28 2 3 0.1610 0.1567
28 2 4 5.6472 1.9524
28 2 5 -5.6655 -0.7067
28 2 6 1.9479 2.9932
28 4 0 -3.2138 0.9519
28 4 1 0.0528 -0.0613
28 4 2 -2.7035 -0.2249
28 4 3 -1.2944 -0.0552
28 4 4 -0.9381 -1.0940
28 4 5 3.7273 0.1535
28 4 6 -6.8101 -1.2379
28 6 0 -0.0236 -0.7592
28 6 1 1.1229 0.1937
28 6 2 4.1423 0.0346
28 6 3 -0.6154 0.1169
28 6 4 3.7086 0.8700
28 6 5 2.3705 -0.0741
28 8 0 6.4257 0.5290
28 8 1 -6.7680 -0.1295
29 1 0 6.4870 -0.3648
29 1 1 -6.6758 -1.4464
29 1 2 -3.2023 0.9794
29 1 3 -7.7175 0.2215
29 1 4 3.5688 3.3453
29 1 5 -13.9435 0.1697
29 3 0 -2.5585 0.0560
29 3 1 2.6335 0.2026
29 3 2 -5.5681 -0.1874
29 3 3 4.5734 0.7152
29 3 4 -6.5950 -1.6413
29 3 5 3.2169 -0.1230
29 5 0 4.1714 0.0423
29 7 0 1.0133 -0.1777
29 7 1 -1.8627 -0.0602
29 7 2 -4.6594 -0.1259
29 7 3 1.0162 0.3601
30 0 0 3.7723 1.2346
30 0 2 9.7254 -7.0828
30 0 4 -2.3888 -10.2460
30 2 0 0.1159 0.4540
30 2 1 1.2115 0.2828
30 2 2 -0.9634 1.8766
30 4 0 0.8567 -0.1330
30 4 1 0.4752 -0.0771
30 4 2 4.7686 -0.9723
30 4 3 -1.8228 -0.0303
30 4 4 2.2270 -1.4462
30 6 0 3.5598 -0.0437
30 6 1 3.8308 0.1650
30 6 2 -5.3402 0.7165
30 6 3 8.0639 0.1654
30 8 0 0.4915 0.1842
30 8 1 -2.5656 0.0654
31 1 0 -2.8030 -1.6913
31 1 1 -2.2353 -0.7450
31 1 2 -8.2709 1.6883
31 1 3 -11.4823 -0.4189
31 3 0 2.0257 -0.1342
31 3 1 0.0629 0.6682
31 3 2 5.5795 -0.3909
31 3 3 0.7486 0.4137
31 5 0 1.9563 -0.0162
31 5 1 0.4000 -0.5998
31 5 2 -0.7608 0.4332
31 7 0 -1.6970 -0.1258
31 7 1 -2.3676 0.2878
32 2 0 0.9942 1.8271
32 2 1 -4.2520 -0.0437
32 2 2 -6.4772 2.2233
32 6 0 3.3343 0.6638
32 6 1 9.5622 0.3321
33 1 0 0.4439 -1.8359
33 1 1 -9.3511 0.2269
33 3 0 1.3634 -0.0358
33 3 1 -0.6642 0.6973
33 5 0 -1.2261 -0.0909
34 2 0 -7.9886 2.1545
0 0 0 0.0 0.0
;
_olex2_submission_special_instructions 'No special instructions were received'
_oxdiff_exptl_absorpt_empirical_details
;
Empirical correction (ABSPACK) includes:
- Absorption correction using spherical harmonics
- Frame scaling
;
_oxdiff_exptl_absorpt_empirical_full_max 1.192
_oxdiff_exptl_absorpt_empirical_full_min 0.876
loop_
_space_group_symop_operation_xyz
'x, y, z'
'-x, y, -z+1/2'
'x+1/2, y+1/2, z'
'-x+1/2, y+1/2, -z+1/2'
'-x, -y, -z'
'x, -y, z-1/2'
'-x+1/2, -y+1/2, -z'
'x+1/2, -y+1/2, z-1/2'
loop_
_atom_site_label
_atom_site_type_symbol
_atom_site_fract_x
_atom_site_fract_y
_atom_site_fract_z
_atom_site_U_iso_or_equiv
_atom_site_adp_type
_atom_site_occupancy
_atom_site_site_symmetry_order
_atom_site_calc_flag
_atom_site_refinement_flags_posn
_atom_site_refinement_flags_adp
B1 B 0.6554(3) 0.2623(8) 0.3461(3) 0.0203(15) Uani 1 1 d . U
C1 C 0.6238(2) 0.2953(8) 0.3731(3) 0.0222(15) Uani 1 1 d . U
C2 C 0.6105(2) 0.1711(8) 0.3933(2) 0.0222(15) Uani 1 1 d . U
C3 C 0.5833(3) 0.1957(8) 0.4174(3) 0.0240(15) Uani 1 1 d . U
C4 C 0.5703(2) 0.3455(8) 0.4210(3) 0.0227(15) Uani 1 1 d . U
C5 C 0.5823(3) 0.4688(8) 0.4009(3) 0.0321(19) Uani 1 1 d . U
C6 C 0.6089(3) 0.4482(7) 0.3765(3) 0.0275(18) Uani 1 1 d . U
C7 C 0.6228(3) 0.0079(10) 0.3882(3) 0.0330(17) Uani 1 1 d . U
H7A H 0.6342 -0.0439 0.4182 0.049 Uiso 1 1 calc GR .
H7B H 0.6466 0.0068 0.3768 0.049 Uiso 1 1 calc GR .
H7C H 0.5955 -0.0462 0.3663 0.049 Uiso 1 1 calc GR .
C8 C 0.5671(4) 0.0628(11) 0.4372(4) 0.045(3) Uani 1 1 d . .
H8A H 0.5432 0.0054 0.4121 0.067 Uiso 1 1 calc GR .
H8B H 0.5546 0.1025 0.4581 0.067 Uiso 1 1 calc GR .
H8C H 0.5930 -0.0059 0.4541 0.067 Uiso 1 1 calc GR .
C9 C 0.5440(3) 0.3794(8) 0.4505(3) 0.0295(19) Uani 1 1 d . .
C10 C 0.5666(5) 0.6334(12) 0.4058(5) 0.070(4) Uani 1 1 d . .
H10A H 0.5662 0.6977 0.3804 0.105 Uiso 1 1 calc GR .
H10B H 0.5880 0.6777 0.4352 0.105 Uiso 1 1 calc GR .
H10C H 0.5357 0.6295 0.4048 0.105 Uiso 1 1 calc GR .
C11 C 0.6226(4) 0.5832(9) 0.3561(4) 0.045(3) Uani 1 1 d . .
H11A H 0.6468 0.5519 0.3469 0.067 Uiso 1 1 calc GR .
H11B H 0.6341 0.6660 0.3790 0.067 Uiso 1 1 calc GR .
H11C H 0.5959 0.6202 0.3291 0.067 Uiso 1 1 calc GR .
C12 C 0.7051(3) 0.1861(8) 0.3721(3) 0.0247(14) Uani 1 1 d . U
C13 C 0.7176(3) 0.0614(9) 0.3505(3) 0.0307(17) Uani 1 1 d . U
C14 C 0.7629(3) 0.0071(9) 0.3674(3) 0.0320(16) Uani 1 1 d . U
C15 C 0.7963(3) 0.0836(9) 0.4057(3) 0.0309(16) Uani 1 1 d . U
C16 C 0.7851(3) 0.1983(9) 0.4290(3) 0.0320(17) Uani 1 1 d . U
C17 C 0.7393(3) 0.2508(9) 0.4118(3) 0.0298(16) Uani 1 1 d . U
C18 C 0.6819(3) -0.0253(9) 0.3096(4) 0.037(2) Uani 1 1 d . .
H18A H 0.6829 -0.1352 0.3171 0.055 Uiso 1 1 calc GR .
H18B H 0.6886 -0.0120 0.2827 0.055 Uiso 1 1 calc GR .
H18C H 0.6513 0.0157 0.3027 0.055 Uiso 1 1 calc GR .
C19 C 0.7753(3) -0.1271(12) 0.3460(4) 0.047(3) Uani 1 1 d . .
H19A H 0.7587 -0.1206 0.3124 0.070 Uiso 1 1 calc GR .
H19B H 0.7670 -0.2230 0.3568 0.070 Uiso 1 1 calc GR .
H19C H 0.8084 -0.1260 0.3546 0.070 Uiso 1 1 calc GR .
C20 C 0.8467(3) 0.0430(8) 0.4200(3) 0.0288(18) Uani 1 1 d . .
C21 C 0.8223(3) 0.2710(11) 0.4721(3) 0.036(2) Uani 1 1 d . .
H21A H 0.8271 0.3783 0.4657 0.054 Uiso 1 1 calc GR .
H21B H 0.8510 0.2133 0.4811 0.054 Uiso 1 1 calc GR .
H21C H 0.8125 0.2680 0.4973 0.054 Uiso 1 1 calc GR .
C22 C 0.7298(3) 0.3828(11) 0.4373(4) 0.039(2) Uani 1 1 d . .
H22A H 0.7467 0.3665 0.4705 0.058 Uiso 1 1 calc GR .
H22B H 0.6969 0.3875 0.4292 0.058 Uiso 1 1 calc GR .
H22C H 0.7397 0.4798 0.4287 0.058 Uiso 1 1 calc GR .
C23 C 0.6379(3) 0.3141(8) 0.2944(3) 0.0251(14) Uani 1 1 d . U
C24 C 0.5955(3) 0.2561(7) 0.2605(3) 0.0285(15) Uani 1 1 d . U
C25 C 0.5796(3) 0.2950(10) 0.2136(3) 0.0353(18) Uani 1 1 d . U
C26 C 0.6069(3) 0.3989(10) 0.2013(3) 0.0328(17) Uani 1 1 d . U
C27 C 0.6476(3) 0.4578(7) 0.2333(3) 0.0262(15) Uani 1 1 d . U
C28 C 0.6641(3) 0.4128(9) 0.2799(3) 0.0300(16) Uani 1 1 d . U
C29 C 0.5666(3) 0.1467(12) 0.2740(4) 0.043(2) Uani 1 1 d . .
H29A H 0.5393 0.2008 0.2725 0.064 Uiso 1 1 calc GR .
H29B H 0.5846 0.1096 0.3054 0.064 Uiso 1 1 calc GR .
H29C H 0.5573 0.0589 0.2527 0.064 Uiso 1 1 calc GR .
C30 C 0.5355(4) 0.2324(14) 0.1778(4) 0.048(3) Uani 1 1 d . .
H30A H 0.5268 0.2908 0.1492 0.072 Uiso 1 1 calc GR .
H30B H 0.5113 0.2419 0.1886 0.072 Uiso 1 1 calc GR .
H30C H 0.5396 0.1235 0.1722 0.072 Uiso 1 1 calc GR .
C31 C 0.5907(3) 0.4377(13) 0.1514(3) 0.040(2) Uani 1 1 d . .
C32 C 0.6752(4) 0.5703(13) 0.2189(4) 0.045(2) Uani 1 1 d . .
H32A H 0.6617 0.5777 0.1852 0.068 Uiso 1 1 calc GR .
H32B H 0.7070 0.5338 0.2301 0.068 Uiso 1 1 calc GR .
H32C H 0.6749 0.6721 0.2320 0.068 Uiso 1 1 calc GR .
C33 C 0.7097(3) 0.4752(11) 0.3136(4) 0.039(2) Uani 1 1 d . .
H33A H 0.7343 0.4293 0.3073 0.058 Uiso 1 1 calc GR .
H33B H 0.7143 0.4493 0.3450 0.058 Uiso 1 1 calc GR .
H33C H 0.7101 0.5875 0.3103 0.058 Uiso 1 1 calc GR .
Eu1 Eu 0.44043(2) 0.48230(9) 0.44515(2) 0.0616(3) Uani 1 1 d . U
O1 O 0.5053(5) 0.6978(18) 0.4800(5) 0.117(4) Uani 1 1 d . U
O2 O 0.5021(2) 0.3757(13) 0.4315(3) 0.068(3) Uani 1 1 d . .
O3 O 0.5666(3) 0.4081(15) 0.4910(3) 0.080(3) Uani 1 1 d . .
O4 O 0.8621(2) -0.0847(9) 0.4387(3) 0.0462(18) Uani 1 1 d . .
O5 O 0.8707(2) 0.1385(9) 0.4102(2) 0.0423(16) Uani 1 1 d . .
O6 O 0.5980(2) 0.3388(8) 0.1257(2) 0.0372(14) Uani 1 1 d . .
O7 O 0.5703(3) 0.5608(9) 0.1350(3) 0.0485(18) Uani 1 1 d . .
loop_
_atom_site_aniso_label
_atom_site_aniso_U_11
_atom_site_aniso_U_22
_atom_site_aniso_U_33
_atom_site_aniso_U_23
_atom_site_aniso_U_13
_atom_site_aniso_U_12
B1 0.019(3) 0.015(3) 0.027(4) -0.003(2) 0.010(3) -0.003(2)
C1 0.017(3) 0.021(3) 0.027(4) 0.002(2) 0.009(3) 0.005(2)
C2 0.021(3) 0.021(3) 0.022(4) 0.001(2) 0.006(3) 0.005(2)
C3 0.027(4) 0.024(3) 0.021(4) 0.002(2) 0.010(4) 0.004(2)
C4 0.019(3) 0.024(3) 0.028(4) 0.005(2) 0.012(4) 0.002(2)
C5 0.037(4) 0.019(3) 0.053(6) 0.005(3) 0.032(5) 0.005(3)
C6 0.034(4) 0.012(2) 0.049(5) 0.006(3) 0.029(4) 0.004(2)
C7 0.033(2) 0.032(2) 0.034(2) 0.0010(17) 0.0147(18) 0.0016(16)
C8 0.055(6) 0.037(4) 0.060(7) 0.017(4) 0.041(6) 0.008(4)
C9 0.023(4) 0.023(3) 0.046(6) 0.003(3) 0.018(4) 0.006(3)
C10 0.104(10) 0.036(5) 0.121(12) 0.008(6) 0.098(10) 0.014(6)
C11 0.062(6) 0.021(3) 0.077(8) 0.005(4) 0.054(6) 0.003(4)
C12 0.026(3) 0.022(3) 0.029(4) 0.006(2) 0.015(3) 0.005(2)
C13 0.022(3) 0.035(4) 0.037(5) -0.002(3) 0.014(3) 0.005(3)
C14 0.026(3) 0.032(3) 0.040(4) -0.004(3) 0.015(3) 0.004(2)
C15 0.026(3) 0.030(3) 0.040(4) 0.002(3) 0.017(3) 0.004(3)
C16 0.026(4) 0.031(3) 0.037(5) 0.000(3) 0.011(3) 0.004(3)
C17 0.024(3) 0.035(4) 0.032(4) -0.002(3) 0.013(3) 0.001(3)
C18 0.029(4) 0.029(4) 0.051(6) -0.015(4) 0.016(5) 0.007(3)
C19 0.024(4) 0.053(6) 0.065(8) -0.015(5) 0.019(5) 0.008(4)
C20 0.025(4) 0.025(3) 0.037(5) -0.006(3) 0.013(4) 0.006(3)
C21 0.028(4) 0.040(4) 0.034(6) -0.006(4) 0.006(4) 0.002(3)
C22 0.027(4) 0.045(5) 0.035(6) -0.007(4) 0.004(5) 0.011(4)
C23 0.022(3) 0.021(3) 0.033(4) 0.002(3) 0.012(3) 0.005(2)
C24 0.024(3) 0.025(3) 0.036(4) 0.006(3) 0.012(3) -0.002(3)
C25 0.028(4) 0.040(4) 0.038(4) 0.003(3) 0.015(3) -0.002(3)
C26 0.032(4) 0.033(4) 0.034(4) 0.003(3) 0.014(3) 0.000(3)
C27 0.036(4) 0.011(3) 0.036(4) 0.001(2) 0.020(3) -0.001(2)
C28 0.027(4) 0.029(3) 0.036(4) -0.003(3) 0.016(3) -0.002(3)
C29 0.026(5) 0.060(6) 0.040(6) 0.002(5) 0.011(5) -0.011(4)
C30 0.037(5) 0.067(7) 0.031(6) 0.003(5) 0.006(5) -0.016(5)
C31 0.022(4) 0.068(6) 0.031(6) 0.001(5) 0.014(5) 0.003(4)
C32 0.053(6) 0.054(6) 0.027(6) -0.004(4) 0.015(5) -0.023(5)
C33 0.035(5) 0.041(5) 0.044(6) -0.005(4) 0.020(5) -0.016(4)
Eu1 0.0198(3) 0.1291(6) 0.0335(4) -0.0247(3) 0.0090(3) 0.0151(3)
O1 0.123(5) 0.156(6) 0.111(5) -0.011(4) 0.087(4) 0.021(4)
O2 0.023(3) 0.146(9) 0.035(5) -0.028(5) 0.011(4) 0.011(4)
O3 0.025(4) 0.180(11) 0.025(5) -0.023(5) 0.001(4) 0.034(5)
O4 0.038(4) 0.058(4) 0.051(5) 0.014(3) 0.027(4) 0.023(3)
O5 0.028(3) 0.066(4) 0.036(4) -0.004(3) 0.017(3) -0.003(3)
O6 0.029(3) 0.051(4) 0.033(4) -0.006(3) 0.014(3) 0.001(3)
O7 0.046(4) 0.065(5) 0.045(5) 0.016(4) 0.029(4) 0.019(3)
loop_
_atom_type_symbol
_atom_type_description
_atom_type_scat_dispersion_real
_atom_type_scat_dispersion_imag
_atom_type_scat_source
C C 0.0033 0.0016 'International Tables Vol C Tables 4.2.6.8 and 6.1.1.4'
H H 0.0000 0.0000 'International Tables Vol C Tables 4.2.6.8 and 6.1.1.4'
B B 0.0013 0.0007 'International Tables Vol C Tables 4.2.6.8 and 6.1.1.4'
Eu Eu -0.1578 3.6682 'International Tables Vol C Tables 4.2.6.8 and 6.1.1.4'
O O 0.0106 0.0060 'International Tables Vol C Tables 4.2.6.8 and 6.1.1.4'
N N 0.0061 0.0033 'International Tables Vol C Tables 4.2.6.8 and 6.1.1.4'
loop_
_cell_wave_vector_seq_id
_cell_wave_vector_x
_cell_wave_vector_y
_cell_wave_vector_z
1 0(3e-004) 0.46180(18) 0(4e-004)
loop_
_geom_angle_atom_site_label_1
_geom_angle_atom_site_label_2
_geom_angle_atom_site_label_3
_geom_angle
_geom_angle_site_symmetry_1
_geom_angle_site_symmetry_3
C12 B1 C1 120.6(7) . .
C23 B1 C1 119.3(6) . .
C23 B1 C12 120.0(6) . .
C2 C1 B1 119.5(6) . .
C2 C1 C6 119.6(6) . .
C6 C1 B1 120.9(6) . .
C1 C2 C7 121.7(6) . .
C3 C2 C1 121.1(6) . .
C3 C2 C7 117.2(7) . .
C2 C3 C8 121.3(7) . .
C4 C3 C2 117.8(6) . .
C4 C3 C8 120.9(7) . .
C3 C4 C5 122.4(7) . .
C3 C4 C9 119.5(6) . .
C5 C4 C9 118.1(6) . .
C4 C5 C6 121.3(6) . .
C4 C5 C10 120.1(7) . .
C6 C5 C10 118.6(7) . .
C1 C6 C11 121.4(6) . .
C5 C6 C1 117.9(6) . .
C5 C6 C11 120.6(6) . .
C2 C7 H7A 109.5 . .
C2 C7 H7B 109.5 . .
C2 C7 H7C 109.5 . .
H7A C7 H7B 109.5 . .
H7A C7 H7C 109.5 . .
H7B C7 H7C 109.5 . .
C3 C8 H8A 109.5 . .
C3 C8 H8B 109.5 . .
C3 C8 H8C 109.5 . .
H8A C8 H8B 109.5 . .
H8A C8 H8C 109.5 . .
H8B C8 H8C 109.5 . .
O2 C9 C4 117.7(8) . .
O3 C9 C4 117.3(7) . .
O3 C9 O2 124.9(8) . .
C5 C10 H10A 109.5 . .
C5 C10 H10B 109.5 . .
C5 C10 H10C 109.5 . .
H10A C10 H10B 109.5 . .
H10A C10 H10C 109.5 . .
H10B C10 H10C 109.5 . .
C6 C11 H11A 109.5 . .
C6 C11 H11B 109.5 . .
C6 C11 H11C 109.5 . .
H11A C11 H11B 109.5 . .
H11A C11 H11C 109.5 . .
H11B C11 H11C 109.5 . .
C13 C12 B1 118.9(7) . .
C17 C12 B1 122.4(6) . .
C17 C12 C13 118.0(7) . .
C12 C13 C18 121.7(7) . .
C14 C13 C12 121.7(8) . .
C14 C13 C18 116.5(7) . .
C13 C14 C15 117.6(7) . .
C13 C14 C19 121.4(8) . .
C15 C14 C19 121.0(8) . .
C14 C15 C20 118.4(7) . .
C16 C15 C14 122.1(8) . .
C16 C15 C20 119.4(8) . .
C15 C16 C17 119.4(8) . .
C15 C16 C21 120.2(8) . .
C17 C16 C21 120.4(7) . .
C12 C17 C16 121.0(7) . .
C12 C17 C22 122.3(7) . .
C16 C17 C22 116.7(8) . .
C13 C18 H18A 109.5 . .
C13 C18 H18B 109.5 . .
C13 C18 H18C 109.5 . .
H18A C18 H18B 109.5 . .
H18A C18 H18C 109.5 . .
H18B C18 H18C 109.5 . .
C14 C19 H19A 109.5 . .
C14 C19 H19B 109.5 . .
C14 C19 H19C 109.5 . .
H19A C19 H19B 109.5 . .
H19A C19 H19C 109.5 . .
H19B C19 H19C 109.5 . .
C15 C20 Eu1 177.3(6) . 3_545
O4 C20 C15 120.0(7) . .
O4 C20 Eu1 62.7(4) . 3_545
O4 C20 O5 122.6(8) . .
O5 C20 C15 117.3(7) . .
O5 C20 Eu1 60.0(4) . 3_545
C16 C21 H21A 109.5 . .
C16 C21 H21B 109.5 . .
C16 C21 H21C 109.5 . .
H21A C21 H21B 109.5 . .
H21A C21 H21C 109.5 . .
H21B C21 H21C 109.5 . .
C17 C22 H22A 109.5 . .
C17 C22 H22B 109.5 . .
C17 C22 H22C 109.5 . .
H22A C22 H22B 109.5 . .
H22A C22 H22C 109.5 . .
H22B C22 H22C 109.5 . .
C24 C23 B1 120.2(6) . .
C28 C23 B1 121.6(7) . .
C28 C23 C24 118.2(8) . .
C23 C24 C29 120.4(8) . .
C25 C24 C23 121.9(7) . .
C25 C24 C29 117.6(8) . .
C24 C25 C26 117.2(8) . .
C24 C25 C30 122.0(8) . .
C26 C25 C30 120.7(9) . .
C25 C26 C31 117.5(8) . .
C27 C26 C25 122.1(8) . .
C27 C26 C31 120.4(8) . .
C26 C27 C28 120.0(7) . .
C26 C27 C32 120.4(8) . .
C28 C27 C32 119.6(8) . .
C23 C28 C27 120.5(8) . .
C23 C28 C33 121.2(8) . .
C27 C28 C33 118.4(7) . .
C24 C29 H29A 109.5 . .
C24 C29 H29B 109.5 . .
C24 C29 H29C 109.5 . .
H29A C29 H29B 109.5 . .
H29A C29 H29C 109.5 . .
H29B C29 H29C 109.5 . .
C25 C30 H30A 109.5 . .
C25 C30 H30B 109.5 . .
C25 C30 H30C 109.5 . .
H30A C30 H30B 109.5 . .
H30A C30 H30C 109.5 . .
H30B C30 H30C 109.5 . .
C26 C31 Eu1 174.8(7) . 2_655
O6 C31 C26 117.6(9) . .
O6 C31 Eu1 57.7(5) . 2_655
O7 C31 C26 121.9(9) . .
O7 C31 Eu1 62.9(5) . 2_655
O7 C31 O6 120.5(9) . .
C27 C32 H32A 109.5 . .
C27 C32 H32B 109.5 . .
C27 C32 H32C 109.5 . .
H32A C32 H32B 109.5 . .
H32A C32 H32C 109.5 . .
H32B C32 H32C 109.5 . .
C28 C33 H33A 109.5 . .
C28 C33 H33B 109.5 . .
C28 C33 H33C 109.5 . .
H33A C33 H33B 109.5 . .
H33A C33 H33C 109.5 . .
H33B C33 H33C 109.5 . .
C20 Eu1 C31 82.7(3) 3_455 2_655
C20 Eu1 Eu1 138.88(18) 3_455 5_666
C31 Eu1 Eu1 137.51(17) 2_655 5_666
O1 Eu1 C20 122.7(3) . 3_455
O1 Eu1 C20 123.9(3) 5_666 3_455
O1 Eu1 C31 113.7(3) . 2_655
O1 Eu1 C31 131.8(3) 5_666 2_655
O1 Eu1 Eu1 44.3(3) . 5_666
O1 Eu1 Eu1 42.2(3) 5_666 5_666
O1 Eu1 O1 86.4(5) . 5_666
O2 Eu1 C20 152.7(3) . 3_455
O2 Eu1 C31 71.6(3) . 2_655
O2 Eu1 Eu1 68.15(18) . 5_666
O2 Eu1 O1 71.0(3) . 5_666
O2 Eu1 O1 77.6(3) . .
O2 Eu1 O4 141.1(3) . 3_455
O2 Eu1 O5 143.1(3) . 3_455
O2 Eu1 O6 76.3(2) . 2_655
O2 Eu1 O7 71.7(3) . 2_655
O3 Eu1 C20 71.9(3) 5_666 3_455
O3 Eu1 C31 151.9(3) 5_666 2_655
O3 Eu1 Eu1 67.00(18) 5_666 5_666
O3 Eu1 O1 72.5(4) 5_666 .
O3 Eu1 O1 74.4(3) 5_666 5_666
O3 Eu1 O2 135.1(3) 5_666 .
O3 Eu1 O4 72.7(3) 5_666 3_455
O3 Eu1 O5 76.7(3) 5_666 3_455
O3 Eu1 O6 145.7(3) 5_666 2_655
O3 Eu1 O7 138.7(3) 5_666 2_655
O4 Eu1 C20 26.5(2) 3_455 3_455
O4 Eu1 C31 90.0(2) 3_455 2_655
O4 Eu1 Eu1 130.59(17) 3_455 5_666
O4 Eu1 O1 141.0(3) 3_455 .
O4 Eu1 O1 100.5(3) 3_455 5_666
O4 Eu1 O7 106.1(2) 3_455 2_655
O5 Eu1 C20 26.5(2) 3_455 3_455
O5 Eu1 C31 75.2(3) 3_455 2_655
O5 Eu1 Eu1 135.83(17) 3_455 5_666
O5 Eu1 O1 145.8(3) 3_455 5_666
O5 Eu1 O1 101.9(4) 3_455 .
O5 Eu1 O4 52.9(2) 3_455 3_455
O5 Eu1 O7 71.4(2) 3_455 2_655
O6 Eu1 C20 76.6(2) 2_655 3_455
O6 Eu1 C31 26.5(3) 2_655 2_655
O6 Eu1 Eu1 142.15(15) 2_655 5_666
O6 Eu1 O1 138.6(3) 2_655 .
O6 Eu1 O1 114.0(3) 2_655 5_666
O6 Eu1 O4 73.0(2) 2_655 3_455
O6 Eu1 O5 81.3(2) 2_655 3_455
O6 Eu1 O7 52.4(2) 2_655 2_655
O7 Eu1 C20 89.4(3) 2_655 3_455
O7 Eu1 C31 25.9(3) 2_655 2_655
O7 Eu1 Eu1 122.96(16) 2_655 5_666
O7 Eu1 O1 142.5(3) 2_655 5_666
O7 Eu1 O1 89.0(3) 2_655 .
Eu1 O1 Eu1 93.6(5) . 5_666
C9 O2 Eu1 136.4(7) . .
C9 O3 Eu1 141.1(6) . 5_666
C20 O4 Eu1 90.8(5) . 3_545
C20 O5 Eu1 93.5(5) . 3_545
C31 O6 Eu1 95.8(6) . 2_655
C31 O7 Eu1 91.2(6) . 2_655
loop_
_geom_bond_atom_site_label_1
_geom_bond_atom_site_label_2
_geom_bond_distance
_geom_bond_site_symmetry_2
B1 C1 1.613(10) .
B1 C12 1.600(11) .
B1 C23 1.573(12) .
C1 C2 1.414(10) .
C1 C6 1.430(9) .
C2 C3 1.407(10) .
C2 C7 1.497(10) .
C3 C4 1.383(10) .
C3 C8 1.510(11) .
C4 C5 1.383(10) .
C4 C9 1.543(10) .
C5 C6 1.393(10) .
C5 C10 1.543(12) .
C6 C11 1.495(10) .
C7 H7A 0.9800 .
C7 H7B 0.9800 .
C7 H7C 0.9800 .
C8 H8A 0.9800 .
C8 H8B 0.9800 .
C8 H8C 0.9800 .
C9 O2 1.222(11) .
C9 O3 1.216(12) .
C10 H10A 0.9800 .
C10 H10B 0.9800 .
C10 H10C 0.9800 .
C11 H11A 0.9800 .
C11 H11B 0.9800 .
C11 H11C 0.9800 .
C12 C13 1.429(10) .
C12 C17 1.401(13) .
C13 C14 1.403(11) .
C13 C18 1.527(13) .
C14 C15 1.409(13) .
C14 C19 1.490(12) .
C15 C16 1.380(11) .
C15 C20 1.526(11) .
C16 C17 1.410(11) .
C16 C21 1.531(13) .
C17 C22 1.511(12) .
C18 H18A 0.9800 .
C18 H18B 0.9800 .
C18 H18C 0.9800 .
C19 H19A 0.9800 .
C19 H19B 0.9800 .
C19 H19C 0.9800 .
C20 Eu1 2.820(8) 3_545
C20 O4 1.257(10) .
C20 O5 1.260(10) .
C21 H21A 0.9800 .
C21 H21B 0.9800 .
C21 H21C 0.9800 .
C22 H22A 0.9800 .
C22 H22B 0.9800 .
C22 H22C 0.9800 .
C23 C24 1.427(12) .
C23 C28 1.412(10) .
C24 C25 1.410(13) .
C24 C29 1.514(11) .
C25 C26 1.425(11) .
C25 C30 1.498(13) .
C26 C27 1.377(13) .
C26 C31 1.496(13) .
C27 C28 1.413(12) .
C27 C32 1.517(11) .
C28 C33 1.506(12) .
C29 H29A 0.9800 .
C29 H29B 0.9800 .
C29 H29C 0.9800 .
C30 H30A 0.9800 .
C30 H30B 0.9800 .
C30 H30C 0.9800 .
C31 Eu1 2.851(10) 2_655
C31 O6 1.278(11) .
C31 O7 1.247(12) .
C32 H32A 0.9800 .
C32 H32B 0.9800 .
C32 H32C 0.9800 .
C33 H33A 0.9800 .
C33 H33B 0.9800 .
C33 H33C 0.9800 .
Eu1 C20 2.820(8) 3_455
Eu1 C31 2.851(10) 2_655
Eu1 Eu1 3.9679(11) 5_666
Eu1 O1 2.668(16) .
Eu1 O1 2.776(15) 5_666
Eu1 O2 2.390(6) .
Eu1 O3 2.354(8) 5_666
Eu1 O4 2.506(7) 3_455
Eu1 O5 2.447(7) 3_455
Eu1 O6 2.422(7) 2_655
Eu1 O7 2.537(7) 2_655
O1 Eu1 2.776(15) 5_666
O3 Eu1 2.354(7) 5_666
O4 Eu1 2.506(7) 3_545
O5 Eu1 2.447(7) 3_545
O6 Eu1 2.422(7) 2_655
O7 Eu1 2.537(7) 2_655
loop_
_refln_index_h
_refln_index_k
_refln_index_l
_refln_F_squared_meas
_refln_F_squared_sigma
0 0 -6 3589.34 152.68
0 0 6 3239.58 152.68
0 0 -7 0.1 0.2
0 0 7 0.1 0.2
0 0 8 1986.5 86.49
0 0 -8 1876.81 86.49
0 0 9 0.1 0.2
0 0 -9 0.2 0.2
0 0 10 2276.17 101.79
0 0 -10 2274.07 101.79
0 0 11 -0.1 0.2
0 0 -11 0.1 0.2
0 0 12 832.92 37.4
0 0 -13 -0.1 0.2
0 0 13 0.1 0.2
0 0 14 1606.94 72.29
0 0 -14 1620.24 72.29
0 0 15 0 0.2
0 0 -15 0.1 0.2
0 0 16 1237.98 59.29
0 0 -16 1420.76 59.39
0 0 17 0.1 0.2
0 0 -17 0.1 0.2
0 0 18 936.91 43.6
0 0 -18 1010.1 43.7
0 0 -19 0.1 0.2
0 0 19 -0.1 0.2
0 0 20 470.95 21.1
0 0 -20 462.15 21.1
0 0 21 0.1 0.2
0 0 -21 0.2 0.2
0 0 -22 121.49 5.5
0 0 22 109.09 5.4
0 0 23 0.1 0.2
0 0 -23 -0.1 0.2
0 0 24 267.67 12.8
0 0 -24 296.67 12.9
0 0 -25 0.2 0.2
0 0 25 0.1 0.2
0 0 -26 499.85 22.3
0 0 26 485.15 22.3
0 0 27 0 0.2
0 0 -27 0 0.2
0 0 28 405.66 19.4
0 0 -28 461.05 19.5
0 -2 0 3683.83 166.68
0 2 0 3761.32 166.58
0 -2 -1 181.38 8.1
0 2 1 173.98 8
0 2 2 367.46 18.2
0 -2 -2 405.36 18.2
0 2 -3 23.7 1.4
0 -2 -3 22.2 1.4
0 2 3 23.5 1.4
0 2 4 1203.68 51.89
0 -2 4 1203.38 52.09
0 -2 -4 1152.98 51.99
0 2 -4 1072.29 51.99
0 2 -5 300.37 14.2
0 -2 5 322.87 14.3
0 2 5 319.87 14.2
0 -2 -5 301.27 14.2
0 2 6 1166.08 51.99
0 -2 -6 1147.79 51.99
0 -2 -7 1466.45 67.79
0 2 7 1554.04 67.79
0 -2 -8 2851.31 112.39
0 2 8 2208.48 112.29
0 2 -9 31.3 1.8
0 2 9 30.3 1.7
0 -2 9 34.1 1.9
0 -2 -9 30.8 1.7
0 -2 -10 2226.68 102.29
0 2 10 2406.56 102.19
0 -2 10 2171.38 102.39
0 2 -10 2282.77 102.39
0 -2 11 6.8 0.7
0 -2 -11 6.1 0.6
0 2 -11 6.5 0.7
0 2 -12 759.52 34.6
0 -2 -12 828.12 34.5
0 -2 12 769.72 34.7
0 2 12 716.63 34.5
0 -2 13 657.93 32
0 2 13 754.42 31.9
0 -2 -13 692.13 31.9
0 -2 14 156.78 6.7
0 2 -14 156.68 6.6
0 -2 -14 163.68 6.4
0 -2 15 244.28 10.5
0 2 -15 221.18 10.4
0 2 15 204.98 10.2
0 -2 -15 230.08 10.2
0 -2 -16 1113.99 48.2
0 -2 16 991 48.4
0 2 -16 1121.09 48.4
0 2 16 1058.09 48.2
0 2 -17 0.8 0.4
0 2 17 1.5 0.3
0 -2 -17 1.1 0.3
0 -2 17 1.8 0.5
0 2 18 1366.36 61.29
0 2 -18 1340.77 61.59
0 -2 -18 1405.46 61.39
0 -2 18 1334.87 61.59
0 -2 19 65.79 3.7
0 2 19 74.79 3.4
0 -2 -19 71.39 3.5
0 2 -19 65.39 3.7
0 -2 20 939.81 42.4
0 -2 -20 931.91 42.1
0 2 -20 948.61 42.4
0 2 20 934.21 42.1
0 2 21 191.78 8.4
0 -2 -21 175.38 8.4
0 -2 21 181.18 8.7
0 2 -21 172.08 8.6
0 -2 -22 118.69 5.5
0 -2 22 119.79 5.8
0 2 22 109.29 5.5
0 -2 -23 0.9 0.2
0 -2 23 1.4 0.5
0 2 23 1.3 0.2
0 2 -23 1.2 0.4
0 -2 24 403.66 15.5
0 2 24 317.87 15
0 2 -24 376.56 15.4
0 -2 -24 310.57 15
0 -2 -25 33.5 1.7
0 2 25 33.8 1.7
0 -2 25 48.4 2.3
0 2 -25 45.3 2.3
0 2 -26 326.57 14.3
0 -2 26 286.97 14.2
0 2 -27 51.99 2.9
0 -2 27 53.39 2.9
0 2 -28 302.97 14.6
0 -2 28 323.87 14.6
0 -4 0 1123.69 50.89
0 -4 1 5.8 0.9
0 4 -1 6.6 0.9
0 4 1 6.3 0.7
0 -4 -1 5.5 0.8
0 4 -2 158.08 7.4
0 -4 -2 142.89 7.3
0 -4 2 137.49 7.3
0 4 2 160.38 7.3
0 -4 -3 139.89 7.5
0 4 -3 175.78 7.6
0 4 3 146.79 7.5
0 -4 3 164.88 7.6
0 4 4 3.3 0.7
0 -4 -4 4.2 0.8
0 -4 4 4 0.7
0 4 -4 3.3 0.6
0 4 5 687.53 28.8
0 -4 -5 623.94 28.8
0 -4 5 588.04 28.9
0 4 -5 620.04 28.8
0 4 6 97.29 5
0 -4 -6 102.29 5.1
0 -4 6 94.79 5.1
0 4 -6 104.89 5.1
0 4 -7 56.89 3.2
0 -4 -7 66.59 3.3
0 4 7 65.79 3.2
0 4 -8 215.78 10.7
0 -4 -8 221.08 10.7
0 -4 8 231.18 10.8
0 4 8 230.88 10.6
0 -4 9 12.1 1.1
0 4 9 10.4 0.9
0 4 -9 12.8 1.1
0 -4 10 439.56 20.3
0 -4 -10 417.96 20.1
0 4 -10 452.15 20.2
0 4 10 440.76 20.1
0 4 11 24.2 1.6
0 4 -11 25.3 1.8
0 -4 -11 26.4 1.7
0 -4 11 30.2 1.9
0 -4 12 116.79 5.7
0 -4 -12 111.59 5.6
0 4 12 100.89 5.5
0 4 -12 123.29 5.7
0 -4 -13 18.1 1.3
0 4 13 17.7 1.3
0 4 -13 19.8 1.5
0 -4 13 18.9 1.5
0 4 14 33 1.9
0 4 -14 29.4 2
0 -4 -14 28.3 1.9
0 -4 -15 263.67 12.5
0 4 15 271.87 12.5
0 4 16 383.56 17.1
0 -4 -16 357.36 17.1
0 -4 -17 87.09 4.5
0 4 17 90.09 4.5
0 4 18 216.78 10.6
0 -4 -18 237.98 10.7
0 -4 18 217.48 10.8
0 4 -18 230.18 10.8
0 4 -19 4.1 0.7
0 -4 -19 3.5 0.6
0 4 19 3.1 0.5
0 -4 19 4 0.7
0 4 20 119.49 6
0 4 -20 129.59 6.3
0 -4 -20 122.39 6.1
0 -4 20 127.19 6.4
0 4 21 24 1.5
0 -4 -21 20.9 1.5
0 4 -21 20.1 1.6
0 -4 21 22.9 1.7
0 4 -22 38.5 2.4
0 -4 22 40.5 2.4
0 -4 -22 37.7 2.2
0 4 23 116.89 5.8
0 4 -23 120.29 6.2
0 -4 -23 126.39 5.9
0 -4 23 115.59 6.2
0 4 -24 55.79 3.5
0 -4 24 66.29 3.7
0 -4 -24 64.59 3.3
0 -4 25 18 1.5
0 -4 -25 18.3 1.2
0 4 -25 16.9 1.5
0 4 25 17.8 1.2
0 4 -26 129.19 6.6
0 -4 26 125.29 6.6
0 4 -27 88.89 4.8
0 -4 27 87.49 4.8
0 4 -28 134.59 6.8
0 -4 28 133.49 6.9
0 -6 0 233.48 10.8
0 6 0 208.18 10.6
0 -6 1 27.7 2
0 6 -1 24.7 1.8
0 -6 -1 23.8 1.9
0 6 1 28.3 2
0 6 2 126.09 6.6
0 -6 -2 145.29 6.8
0 -6 2 118.99 6.7
0 6 -2 135.59 6.7
0 6 -3 0.6 0.6
0 -6 3 1 0.7
0 -6 -3 0.6 0.6
0 6 3 0.3 0.5
0 -6 -4 10.5 1.2
0 6 4 8.3 1
0 6 -4 8.1 1.1
0 -6 4 7.9 1.1
0 -6 -5 96.89 5.2
0 6 5 87.09 5.1
0 -6 5 98.89 5.2
0 6 -6 83.09 4.4
0 6 6 77.19 4.4
0 -6 -6 87.29 4.5
0 -6 6 76.89 4.4
0 -6 7 27.3 2
0 6 -7 28.8 2
0 6 -8 29.1 2.1
0 -6 8 30.8 2.2
0 -6 -8 32.9 2.2
0 6 -9 22.6 1.8
0 -6 9 24.2 1.9
0 -6 -9 27.2 1.9
0 -6 -10 5.9 0.9
0 6 -10 6.6 1
0 -6 10 5.8 1
0 -6 11 46.4 3.2
0 -6 -11 49.2 3.2
0 6 -12 87.59 5.2
0 -6 -12 85.59 5.2
0 -6 12 85.19 5.2
0 -6 -13 0.5 0.5
0 6 -13 1.5 0.6
0 -6 13 1 0.6
0 -6 14 39.7 2.7
0 -6 -14 39.2 2.5
0 6 -15 102.39 5.7
0 -6 -15 107.49 5.8
0 6 -16 116.69 6.1
0 -6 16 116.39 6.2
0 -6 -16 116.89 6.1
0 -6 17 175.58 8.6
0 -6 -17 170.78 8.5
0 6 -17 165.58 8.5
0 -6 -18 38.5 2.4
0 6 18 32.3 2.3
0 -6 -19 39.5 2.6
0 6 19 40.7 2.5
0 6 20 2.5 0.7
0 -6 -20 2.6 0.7
0 6 -20 3.7 0.8
0 -6 20 2.7 0.8
0 6 21 0.9 0.5
0 -6 -21 1.9 0.6
0 -6 21 1.4 0.8
0 6 -21 3.1 0.8
0 6 22 1.3 0.6
0 -6 -22 0.3 0.5
0 -6 22 0.2 0.6
0 6 -22 1 0.6
0 -6 23 68.89 4
0 6 23 65.49 3.8
0 6 -23 70.29 4
0 -6 24 1.3 0.8
0 6 -24 2.9 0.8
0 6 -25 45.9 3
0 -6 25 53.09 3.2
0 6 -26 12.1 1.3
0 -6 26 12.4 1.4
0 -6 27 51.89 3.2
0 6 -27 43.7 3
0 8 0 45.2 3
0 -8 0 48.5 3.1
0 8 1 0.5 0.6
0 8 -1 0.2 0.6
0 -8 -1 0.9 0.7
0 -8 1 0.6 0.7
0 8 2 1.8 0.6
0 -8 2 3.2 0.9
0 -8 -2 2.8 0.8
0 8 -2 2.4 0.8
0 -8 -3 11.7 1.3
0 8 3 11.6 1.3
0 8 -3 9.7 1.2
0 -8 3 8.4 1.2
0 -8 4 3.8 0.9
0 8 -4 5.2 0.9
0 -8 -4 5.4 1
0 8 4 3.8 0.9
0 8 -5 2.8 0.8
0 -8 -5 4.3 0.9
0 -8 5 3.5 0.9
0 -8 -6 0.7 0.7
0 8 -6 0.9 0.7
0 8 6 0.6 0.6
0 -8 6 0.5 0.7
0 8 -7 16 1.5
0 -8 7 18.3 1.6
0 8 7 16.5 1.6
0 -8 -7 18.2 1.7
0 8 -8 4.3 0.8
0 8 8 4.2 0.8
0 -8 8 4.3 0.9
0 -8 -8 3.7 0.8
0 8 -9 1.3 0.6
0 -8 -9 0.4 0.6
0 -8 9 0.5 0.7
0 8 9 1 0.6
0 -8 10 12.4 1.4
0 8 -10 12.1 1.3
0 -8 -10 14.6 1.5
0 8 10 16.2 1.4
0 -8 -11 6 1
0 8 11 6.1 0.9
0 8 -11 4.6 0.9
0 -8 11 4.2 0.9
0 -8 -12 39.5 2.6
0 8 12 38.2 2.5
0 -8 12 31 2.4
0 8 -12 32.3 2.4
0 8 -13 0.8 0.7
0 8 13 0.7 0.6
0 -8 -13 1.1 0.7
0 -8 13 0.6 0.7
0 -8 -14 34.4 2.5
0 -8 14 39.8 2.7
0 8 14 35.1 2.5
0 8 15 26.3 2.1
0 -8 -15 29.7 2.2
0 8 16 2 0.7
0 -8 -16 2.7 0.8
0 -8 -17 7.7 1.1
0 -8 17 6.7 1
0 8 17 6 1
0 8 -17 5.7 0.9
0 8 18 2.8 0.7
0 8 -18 1.5 0.7
0 -8 18 2.8 0.9
0 -8 -18 2.3 0.7
0 8 -19 23.3 1.8
0 -8 19 20.1 1.8
0 8 19 19 1.7
0 -8 -19 19.5 1.7
0 8 -20 4.3 0.9
0 -8 20 3.6 0.9
0 -8 21 3.6 1
0 8 -21 4.3 0.9
0 8 -22 1.2 0.8
0 -8 22 1.1 0.8
0 -8 23 26.8 2.1
0 8 -23 25.2 2
0 8 -24 1.3 0.7
0 -8 24 1 0.8
0 8 -25 16.1 1.5
0 -8 25 16.4 1.6
0 -8 26 4.5 1
0 8 -26 5.5 1
0 -10 0 80.09 4.7
0 10 0 85.69 4.7
0 -10 1 14 1.5
0 10 -1 11.4 1.3
0 -10 -1 10.7 1.3
0 10 1 10.1 1.3
0 -10 2 43.3 2.9
0 10 -2 41.1 2.8
0 -10 3 1.7 0.8
0 -10 -3 3.3 0.8
0 10 3 3.1 0.9
0 10 -3 2 0.8
0 -10 4 0.1 0.7
0 10 -4 1.3 0.7
0 -10 -4 0.7 0.6
0 10 4 1.4 0.7
0 -10 5 2.2 0.8
0 10 5 -0.2 0.7
0 10 -5 1 0.5
0 -10 -5 2.1 0.8
0 -10 -6 12.5 1.4
0 10 6 11 1.3
0 10 7 4.4 1
0 -10 -7 4.4 1
0 -10 8 15.6 1.6
0 10 -8 19 1.7
0 -10 -8 19.6 1.7
0 10 8 20.8 1.7
0 10 9 12 1.3
0 -10 9 12.7 1.4
0 -10 -9 11.5 1.3
0 10 -9 12.5 1.3
0 10 -10 69.29 3.9
0 -10 10 58.29 3.9
0 -10 -10 69.19 4
0 10 10 64.19 3.9
0 -10 11 0.9 0.8
0 10 11 0.8 0.7
0 -10 -11 1.3 0.6
0 10 -11 1 0.7
0 10 12 7.7 1.1
0 -10 12 7.1 1.1
0 10 -12 5.2 1
0 -10 -12 6.3 1.1
0 -10 -13 2.9 0.8
0 10 -13 1.9 0.7
0 -10 13 2 0.8
0 10 13 2.2 0.8
0 10 -14 2 0.7
0 10 14 2.2 0.8
0 -10 -14 2.4 0.8
0 10 15 2.3 0.8
0 10 -15 0.9 0.5
0 -10 -15 1.3 0.7
0 -10 15 2.5 0.8
0 -10 16 7.1 1.1
0 10 -16 7.5 1
0 -10 17 8.9 1.2
0 10 -17 9.7 1.2
0 -10 18 20.4 1.8
0 10 -18 20.2 1.7
0 10 -20 16.6 1.6
0 -10 20 15.4 1.6
0 10 -21 1 0.7
0 -10 21 1.2 0.9
0 -10 22 7.4 1.2
0 10 -22 9.7 1.2
0 -10 23 5.3 1
0 10 -23 5.9 1
0 10 -24 9.7 1.2
0 -10 24 11.3 1.4
0 12 2 35.5 2.5
0 -12 -2 39.3 2.6
0 -12 3 20.5 1.8
0 12 -3 20.9 1.7
0 -12 -3 19.8 1.8
0 12 3 21.1 1.8
0 -12 4 2.5 0.8
0 -12 -4 2.5 0.8
0 12 4 2.3 0.8
0 12 -4 2.2 0.8
0 -12 -5 2.2 0.8
0 12 5 0.3 0.7
0 -12 5 0.9 0.7
0 12 -5 0.7 0.6
0 12 -6 14 1.4
0 -12 -6 12.1 1.4
0 12 6 12.7 1.4
0 -12 6 13.8 1.4
0 -12 -7 0.7 0.7
0 12 7 1.1 0.7
0 12 -7 0.2 0.5
0 -12 7 0.8 0.6
0 12 -8 46.3 3.2
0 -12 -8 56.89 3.4
0 12 8 55.49 3.4
0 -12 8 53.79 3.4
0 12 9 5.1 1
0 -12 9 3 0.8
0 12 -9 4.1 0.8
0 12 -10 39.9 2.6
0 -12 10 34.8 2.6
0 12 -11 3.7 0.8
0 -12 11 4.5 1
-1 -1 29 10.5 0.9
1 1 -29 9.9 0.9
1 -1 -28 400.06 18
-1 1 28 345.97 18
1 1 -28 508.65 18.4
-1 -1 28 483.35 18.4
-1 -1 27 18.2 1.2
1 -1 -27 15.4 0.9
1 1 -27 15.1 1.1
-1 1 27 14.8 0.9
-1 -1 26 290.87 12.8
1 1 -26 276.87 12.7
1 -1 -26 270.17 12.5
-1 1 26 266.67 12.5
-1 1 25 23.9 1.3
-1 -1 25 24.6 1.5
1 1 -25 25.8 1.5
1 -1 -25 22 1.3
1 -1 -24 0.7 0.3
-1 1 24 0.6 0.2
1 1 -24 0.3 0.3
-1 -1 24 0.6 0.3
-1 -1 23 11.2 1
1 -1 -23 11.3 0.8
1 1 -23 11.3 0.9
1 -1 -22 471.45 21.8
-1 -1 22 483.25 22
-1 1 22 468.75 21.8
1 1 -22 517.45 22
1 1 -21 3.1 0.5
-1 1 21 2.1 0.3
1 -1 -21 2.3 0.4
-1 -1 21 3.6 0.5
1 -1 -20 728.73 34.2
1 1 -20 791.02 34.3
-1 -1 20 721.73 34.3
-1 1 20 791.92 34.2
1 1 -19 2.9 0.5
1 -1 -19 2.2 0.4
-1 -1 19 2.7 0.5
1 1 -18 879.21 41.3
1 -1 -18 957.8 41.2
-1 -1 18 889.81 41.3
-1 1 18 921.21 41.2
-1 1 17 38 2
1 -1 -17 41.1 2.1
-1 1 16 586.44 27.6
1 -1 -16 644.84 27.7
-1 1 15 140.19 6.9
1 -1 -15 160.68 7
-1 1 14 77.39 4
1 1 -14 88.39 4.1
1 -1 -14 82.99 4
-1 -1 14 88.49 4.1
-1 1 13 58.59 3
1 -1 -13 66.39 3
-1 -1 13 58.39 3.1
1 1 -12 2202.18 107.39
-1 -1 12 2505.25 107.49
-1 1 12 2473.75 107.39
1 1 -11 3.1 0.4
1 -1 -11 3 0.4
-1 -1 11 1.9 0.4
-1 1 11 1.2 0.3
1 1 -10 2216.88 97.69
-1 1 10 2288.47 97.59
1 -1 -10 2052.49 97.59
-1 -1 10 2175.48 97.69
1 1 -9 20.4 1.2
1 -1 -9 19 1.1
-1 1 9 22.5 1.1
-1 -1 9 18.2 1.2
-1 -1 8 1896.71 81.59
-1 1 8 1814.82 81.49
1 -1 -8 1873.21 81.49
1 1 -8 1691.93 81.59
1 -1 -7 554.54 24
-1 -1 7 520.15 24.1
1 1 -7 528.45 24
-1 1 7 524.55 24
1 1 -6 263.77 13
1 -1 -6 286.37 13
-1 -1 6 249.58 13
1 -1 -5 662.63 26.8
1 1 -5 588.04 26.8
-1 -1 5 627.04 26.8
1 -1 -4 1064.79 47.8
-1 1 4 1144.19 47.8
1 1 -4 949.4 47.9
-1 -1 4 1085.69 47.9
-1 -1 3 56.49 3
-1 1 3 66.79 3
1 -1 -3 58.89 3
1 1 -3 67.59 3
-1 -1 2 5332.27 263.67
1 1 -2 6233.38 263.67
-1 1 2 6287.57 263.67
1 -1 -2 5741.33 263.67
-1 -1 1 2444.76 104.89
1 -1 -1 2353.76 104.89
-1 1 1 2468.05 104.89
1 1 -1 2146.99 104.89
-1 -1 0 8100.79 360.16
1 -1 0 7928.81 360.16
-1 1 0 8074.39 360.16
1 1 0 8133.19 360.16
1 1 1 131.39 5.7
-1 1 -1 113.79 5.7
-1 -1 -1 129.29 5.7
1 -1 1 116.59 5.7
-1 -1 -2 170.18 7.8
1 -1 2 185.78 7.8
-1 1 -2 183.38 7.8
-1 -1 -3 925.31 40.1
-1 1 -3 881.81 40.1
1 1 3 839.72 40.1
1 -1 3 960.8 40.2
1 -1 4 94.19 4.4
-1 -1 -4 88.39 4.3
-1 1 -4 89.19 4.3
1 1 4 98.69 4.3
1 -1 5 933.31 38.9
-1 1 -5 845.72 38.9
-1 -1 -6 2595.94 114.59
1 1 6 2529.85 114.59
-1 1 -6 2355.46 114.69
1 1 7 580.94 25.7
-1 -1 -7 563.04 25.7
-1 1 -7 602.64 25.8
1 -1 7 541.35 25.8
1 -1 8 1717.53 75.09
-1 -1 -8 1699.93 74.89
-1 1 -8 1690.43 74.99
1 1 8 1625.84 74.89
-1 1 -9 288.87 14.7
1 1 9 331.87 14.6
-1 -1 -9 329.97 14.6
1 -1 9 335.67 14.7
-1 -1 -10 2162.18 95.09
1 -1 10 2270.77 95.29
-1 1 -10 2087.29 95.19
1 1 10 2046.3 95.09
1 -1 11 72.09 3.6
-1 -1 -11 75.99 3.5
-1 1 -11 73.99 3.6
1 1 12 16.4 0.8
-1 -1 -12 14.2 0.8
-1 1 -12 14.8 0.9
1 -1 13 857.51 37.2
1 1 13 783.72 37
-1 -1 -13 860.21 37.1
-1 1 -13 828.32 37.2
1 -1 14 1327.57 52.69
-1 1 -14 1343.67 52.69
1 1 14 1194.78 52.49
-1 -1 -15 47.8 2.5
1 -1 15 61.49 2.7
1 1 15 48 2.5
-1 1 -15 63.89 2.7
1 -1 16 1317.77 53.59
1 1 16 1196.18 53.39
-1 1 -16 1219.78 53.59
-1 -1 -16 1122.09 53.39
-1 1 -17 42.9 2.2
-1 -1 -17 42.8 2
1 -1 17 44.9 2.2
-1 -1 -18 995.7 42
1 1 18 882.21 41.9
-1 -1 -19 202.58 8.6
1 1 19 175.38 8.6
-1 -1 -20 396.06 17.6
1 1 20 387.56 17.6
-1 -1 -21 20.3 1
1 1 21 17.7 1
-1 -3 29 5.9 0.8
1 3 -29 4.2 0.8
-1 3 27 139.39 6.4
1 -3 -27 134.19 6.5
-1 3 26 152.68 7.1
1 -3 -26 151.18 7.2
1 3 -24 60.29 3.4
-1 -3 24 61.89 3.4
-1 -3 23 183.28 9.3
1 -3 -23 191.38 9
-1 3 23 191.48 9
1 3 -23 202.18 9.3
-1 3 22 287.17 13.2
1 3 -22 294.17 13.5
-1 -3 22 303.37 13.5
1 -3 -22 269.57 13.2
1 3 -21 72.79 4
-1 -3 21 70.79 4
1 -3 -21 75.49 3.8
-1 3 21 76.79 3.8
-1 3 20 530.55 23.8
1 -3 -20 530.95 23.8
1 3 -20 561.34 24
-1 -3 19 57.69 3.3
-1 3 19 60.19 3.1
1 3 -19 56.49 3.2
1 -3 -19 62.09 3.1
1 -3 -18 680.63 30.8
-1 -3 18 628.44 31
-1 3 18 702.73 30.8
1 3 -18 695.03 31
-1 3 17 56.69 3.1
1 3 -17 61.69 3.3
1 -3 -17 62.49 3.1
-1 -3 17 54.49 3.3
-1 -3 16 75.79 3.8
-1 3 16 72.09 3.6
1 3 -16 77.59 3.8
1 3 -15 189.78 9.5
1 -3 -15 207.38 9.5
-1 3 15 212.28 9.4
-1 -3 15 188.58 9.6
-1 3 14 315.17 14.5
1 -3 -14 306.77 14.5
-1 -3 14 325.37 14.7
-1 -3 13 151.88 7.1
-1 3 13 133.49 6.9
1 -3 -13 153.98 7
1 3 -13 140.39 7
1 3 -12 980.3 45.3
1 -3 -12 1000.5 45.3
-1 3 12 991.8 45.2
-1 -3 12 1047.3 45.4
1 3 -11 2.3 0.5
1 -3 -11 2 0.4
-1 -3 11 3.2 0.6
-1 3 10 1665.93 68.89
1 -3 -10 1364.46 68.89
1 3 -10 1710.63 69.09
-1 -3 10 1429.66 68.99
-1 -3 9 337.27 16.8
-1 3 9 375.26 16.7
1 -3 -9 328.37 16.7
-1 -3 8 591.14 24.1
1 -3 -8 551.34 24
1 3 -8 546.95 24
-1 -3 7 446.96 18.9
1 3 -7 433.16 18.9
1 -3 -7 394.96 18.8
-1 3 7 383.56 18.8
1 3 -6 94.39 4.8
-1 -3 6 91.49 4.8
1 -3 -6 97.89 4.8
-1 3 6 101.59 4.8
-1 -3 5 1545.25 64.09
1 -3 -5 1412.76 63.99
-1 3 5 1418.36 63.89
1 3 -5 1334.37 63.99
1 3 -4 945.81 40.6
-1 3 4 878.81 40.5
-1 -3 4 896.81 40.6
1 -3 -4 872.41 40.6
-1 -3 3 360.16 16.9
1 3 -3 358.36 16.9
1 -3 -3 374.26 16.9
-1 3 3 374.66 16.8
1 3 -2 589.64 28.3
-1 3 2 655.13 28.3
-1 -3 2 617.94 28.4
1 -3 -2 628.24 28.3
1 -3 -1 0.5 0.5
-1 3 1 0.3 0.4
-1 -3 1 0.6 0.5
1 3 -1 0.4 0.5
-1 3 0 548.05 24.9
-1 -3 0 500.75 25
1 3 0 534.75 24.9
-1 3 -1 5.6 0.8
1 -3 1 5.7 0.8
-1 -3 -1 5.7 0.8
-1 3 -2 378.46 17.3
-1 -3 -2 376.56 17.3
1 3 2 374.66 17.3
1 -3 2 379.86 17.4
1 3 3 190.58 8.9
1 -3 3 189.28 9
-1 3 -3 188.68 8.9
-1 -3 -3 190.08 9
-1 3 -4 9.1 0.9
1 3 4 11.9 0.9
1 -3 4 10.6 1
-1 -3 -4 11.3 0.9
-1 3 -5 1058.59 48.6
1 3 5 1136.19 48.5
-1 -3 -5 1156.68 48.6
1 -3 6 1039.6 48.3
1 3 6 1160.48 48.1
-1 3 -6 1178.68 48.2
1 -3 7 299.67 15
-1 3 -7 323.47 15
-1 -3 -7 333.87 14.9
1 3 7 332.57 14.9
1 -3 8 1461.75 67.19
-1 3 -8 1445.16 67.09
-1 -3 -8 1483.45 66.99
1 3 8 1557.94 66.99
1 -3 9 109.49 5.3
1 3 9 102.19 5.1
-1 3 -9 109.19 5.3
1 3 10 1229.48 51.99
1 -3 10 1062.79 52.19
-1 3 -10 1155.08 52.19
-1 3 -11 222.58 10.6
1 -3 11 227.08 10.6
-1 3 -12 2.8 0.6
1 -3 12 4.6 0.7
-1 3 -13 401.86 18.5
1 -3 14 176.58 8.6
-1 3 -14 181.38 8.6
1 -3 15 181.48 8.9
-1 3 -15 189.28 8.9
-1 3 -16 418.36 20
1 -3 16 451.25 20
-1 3 -17 51.99 2.7
1 -3 17 38.9 2.5
-1 -3 -18 628.84 28.3
1 -3 18 616.64 28.5
1 3 18 613.44 28.2
-1 3 -18 645.54 28.5
-1 3 -19 40.6 2.4
1 3 19 34.4 2.1
1 -3 19 40.4 2.4
-1 -3 -19 42.6 2.1
1 -3 20 110.09 5.3
1 3 20 92.59 4.8
-1 -3 -20 102.99 4.9
-1 3 -20 111.49 5.2
1 3 21 231.68 11.2
-1 3 -21 265.97 11.6
1 -3 21 255.27 11.6
-1 -3 -21 244.48 11.3
-1 3 -22 2.5 0.6
1 -3 22 2.6 0.7
-1 -3 -22 2.4 0.4
1 3 23 13.6 0.9
-1 3 -23 13.4 1.2
-1 -3 -23 13.4 0.9
1 -3 23 14.8 1.3
1 3 24 276.07 13.2
-1 -3 -24 270.07 13.2
-1 3 -24 370.56 13.8
1 -3 24 352.86 13.8
-1 3 -25 87.19 4.6
1 -3 25 86.99 4.6
-1 3 -26 325.67 15.3
1 -3 26 329.67 15.4
1 -3 27 5.4 0.8
-1 3 -27 5.4 0.8
-1 3 -28 140.29 7
1 -3 28 143.09 7.1
-1 -5 27 46.6 3
1 5 -27 46.9 3
1 5 -26 60.69 3.7
-1 -5 26 66.69 3.8
-1 -5 25 69.79 3.9
1 -5 -25 65.59 3.6
1 5 -25 65.49 3.8
1 5 -24 3 0.8
-1 5 24 3 0.6
1 -5 -24 2.9 0.6
-1 -5 24 2.8 0.9
1 -5 -23 44.4 2.6
-1 5 23 39.3 2.5
-1 -5 23 43.6 2.8
1 5 -23 40.6 2.7
1 -5 -22 6.4 0.8
-1 -5 22 4.4 0.9
1 5 -22 5.6 0.9
-1 5 22 4 0.7
1 5 -21 3.9 0.8
-1 -5 21 3.7 0.9
-1 5 21 3.8 0.7
1 -5 -21 4.1 0.7
1 5 -20 97.19 5.1
-1 -5 20 105.59 5.3
1 -5 -20 86.19 5
-1 5 20 101.29 5
1 5 -19 109.19 6.1
1 -5 -19 122.29 6
-1 5 19 117.49 5.9
-1 -5 19 124.49 6.2
-1 5 18 376.86 17
-1 -5 18 352.96 17.2
1 -5 -18 350.36 17
1 5 -18 380.56 17.2
1 5 -17 290.47 14.7
1 -5 -17 308.77 14.7
-1 5 17 333.37 14.7
-1 -5 17 316.77 14.9
-1 5 16 64.09 3.5
1 5 -16 66.19 3.6
-1 -5 16 68.39 3.7
1 -5 -16 56.89 3.5
1 -5 -15 148.79 7.6
-1 5 15 162.88 7.6
1 5 -15 151.68 7.7
1 -5 -14 43.1 2.6
-1 5 14 44.5 2.6
1 5 -14 40.1 2.7
1 -5 -13 57.29 3.2
1 5 -13 51.89 3.1
-1 5 13 51.69 3
-1 -5 13 51.79 3.2
1 -5 -12 292.27 14.7
-1 -5 12 319.97 14.9
1 5 -12 334.07 14.8
-1 5 12 312.57 14.7
1 -5 -11 8.6 1
1 5 -11 9.8 1
-1 5 11 9 0.9
-1 -5 11 6.9 1
1 5 -10 200.48 9.8
1 -5 -10 190.18 9.7
-1 -5 10 196.28 9.8
-1 5 10 221.28 9.8
-1 -5 9 83.89 4.5
1 5 -9 83.89 4.4
1 -5 -9 77.79 4.4
1 -5 -8 164.28 8.2
1 5 -8 173.08 8.2
-1 5 8 159.18 8.1
-1 -5 8 170.68 8.2
1 5 -7 330.27 14.9
-1 5 7 341.27 14.9
1 -5 -7 318.47 14.9
1 -5 -6 30.9 2
1 5 -6 33.5 2
-1 -5 6 25.5 2
-1 5 6 26.9 1.9
-1 5 5 82.29 4.3
1 -5 -5 80.09 4.4
1 -5 -4 445.86 19.1
-1 5 4 380.16 18.9
1 -5 -3 15.7 1.5
-1 5 3 17.7 1.4
-1 5 2 92.49 4.8
1 -5 -2 91.49 4.9
1 -5 -1 190.38 9.2
-1 5 1 179.28 9
-1 -5 1 194.48 9.2
1 5 -1 186.08 9.1
-1 -5 0 4.8 0.8
1 5 0 5.1 0.8
-1 -5 -1 6.9 0.9
1 5 1 6.8 0.9
-1 -5 -2 6.3 0.9
1 5 2 5.6 0.9
-1 -5 -3 224.28 10.6
1 5 3 216.38 10.5
1 5 4 22.8 1.7
-1 -5 -4 25.3 1.8
1 5 5 252.37 11
-1 -5 -5 231.68 11
1 -5 5 247.48 11.1
-1 5 -6 147.59 7.3
-1 -5 -6 155.98 7.3
1 -5 6 136.19 7.3
-1 5 -7 6.8 0.9
-1 -5 -7 8.9 1
1 -5 7 7.9 1
-1 -5 -8 139.49 6.5
-1 5 -8 138.39 6.5
1 -5 9 1.7 0.6
-1 -5 -9 2.5 0.7
-1 5 -9 2.9 0.6
1 5 9 3 0.6
1 -5 10 301.17 14.6
-1 -5 -10 324.47 14.6
-1 5 -10 304.77 14.6
1 5 10 309.67 14.5
-1 -5 -11 41.1 2.4
-1 5 -11 35.7 2.4
1 -5 11 36.6 2.4
1 5 11 40.4 2.3
1 -5 12 0.7 0.5
-1 -5 -12 1.6 0.6
-1 5 -12 1.4 0.6
1 5 12 0.9 0.5
1 -5 13 19 1.7
1 5 13 21.4 1.6
-1 -5 -13 23.4 1.6
-1 -5 -14 131.79 6.5
1 -5 14 132.99 6.6
-1 5 -14 133.79 6.6
1 5 14 118.99 6.3
-1 -5 -15 71.09 3.9
-1 5 -15 70.59 4
1 -5 15 76.79 4.1
-1 5 -16 218.58 10.6
1 -5 16 208.78 10.6
-1 -5 -16 225.48 10.5
1 -5 17 5.9 1
-1 -5 -17 7.4 0.9
-1 5 -17 6.8 0.9
-1 -5 -18 43.1 2.5
-1 5 -18 40.4 2.6
1 -5 18 34.7 2.6
1 5 18 41.1 2.4
-1 -5 -19 12 1.2
1 5 19 9.6 1
-1 5 -19 11 1.2
1 -5 19 9.1 1.2
1 5 20 14.6 1.3
1 -5 20 14.9 1.5
-1 -5 -20 16.3 1.3
-1 5 -20 16.9 1.5
-1 -5 -21 110.79 5.4
1 5 21 111.29 5.4
1 -5 21 112.29 5.7
-1 -5 -22 3.6 0.6
1 -5 22 2.9 0.8
1 5 22 3.2 0.6
-1 5 -22 3.2 0.7
-1 5 -23 91.59 5
-1 -5 -23 89.49 4.7
1 5 23 91.59 4.7
1 -5 23 98.19 5.1
-1 5 -24 28.6 2
1 -5 24 26.7 2.1
1 -5 25 56.79 3.3
-1 5 -25 49.99 3.2
-1 5 -26 51.99 3.2
1 -5 26 54.39 3.3
-1 5 -27 12.3 1.3
1 -5 27 12.1 1.4
1 7 -27 38.3 2.7
-1 -7 27 44.6 2.9
1 7 -26 0.7 0.7
-1 -7 26 1.9 0.8
-1 -7 24 1.9 0.8
1 7 -24 1.3 0.6
-1 -7 23 9.6 1.3
1 7 -23 9.4 1.2
1 7 -22 2.1 0.7
-1 7 22 2.2 0.7
1 -7 -22 1.9 0.7
-1 -7 22 2.4 0.8
1 -7 -21 23.8 1.9
-1 -7 21 26.1 2.1
-1 7 21 22.1 1.8
1 7 -21 24.4 1.9
-1 7 20 1.1 0.6
1 -7 -20 1 0.6
-1 -7 20 1.4 0.7
1 7 -20 0.6 0.6
1 -7 -19 14.6 1.4
-1 -7 19 12.9 1.5
1 7 -19 15.4 1.5
-1 7 19 15.3 1.4
-1 -7 18 2 0.7
1 -7 -18 1.8 0.7
-1 7 18 0.9 0.6
1 7 -18 1.7 0.7
1 7 -17 78.19 4.1
-1 -7 17 71.49 4.1
1 -7 -17 64.59 4
-1 7 17 64.49 3.9
1 -7 -16 4.2 0.9
-1 -7 16 5.7 1.1
-1 7 16 6.5 1
1 7 -16 4.3 0.9
1 7 -15 26.9 1.9
-1 7 15 22.3 1.9
1 -7 -15 25 2
-1 -7 14 13.8 1.4
-1 7 14 14.4 1.4
1 7 -14 14.1 1.4
1 -7 -14 12.7 1.4
-1 -7 13 8.1 1.2
1 7 -13 6.1 1
1 -7 -13 6.8 1
-1 -7 12 73.49 4.1
1 -7 -12 73.99 4
-1 -7 11 79.29 4.8
-1 7 11 93.49 4.8
1 -7 -11 85.49 4.8
1 7 -11 88.29 4.8
1 -7 -10 25.1 1.9
-1 7 10 26.8 1.9
-1 -7 10 20.8 1.8
1 7 -10 18.2 1.7
-1 7 9 37.1 2.4
-1 -7 9 31.1 2.3
1 -7 -9 37.4 2.4
1 7 -9 28 2.2
-1 7 8 24 1.9
1 -7 -8 24.5 2
1 -7 -7 17.8 1.6
-1 7 6 73.09 4.1
1 -7 -6 69.89 4.1
-1 7 5 17.7 1.6
1 7 -5 19 1.7
1 -7 -5 21.5 1.8
-1 -7 5 18.3 1.7
-1 7 4 1.2 0.7
-1 -7 4 0.8 0.8
1 -7 -4 2.5 0.8
1 7 -4 0.1 0.7
1 7 -3 15.7 1.5
1 -7 -3 17.7 1.6
-1 7 3 15 1.5
-1 -7 3 17.4 1.6
1 -7 -2 170.88 8.6
1 7 -2 173.18 8.5
-1 -7 2 171.28 8.6
-1 7 2 164.88 8.5
-1 -7 1 2.6 0.8
1 -7 -1 3.3 0.7
-1 7 1 2.8 0.7
1 7 -1 2 0.7
-1 7 0 4.6 0.9
-1 -7 0 5.7 1
1 7 0 6.8 1.1
1 -7 0 5.1 1
-1 -7 -1 9.3 1.2
1 7 1 6.8 1
-1 7 -1 9.8 1.2
1 -7 1 8.7 1.2
-1 7 -2 134.59 7.2
1 -7 2 141.19 7.3
-1 -7 -2 150.78 7.3
1 7 2 140.19 7.2
-1 -7 -3 285.37 13.7
1 -7 3 260.17 13.7
-1 7 -3 275.17 13.6
1 -7 4 71.19 3.9
-1 7 -4 63.39 3.7
1 7 4 58.09 3.7
-1 -7 -4 66.49 3.8
1 7 5 50.09 3.1
1 7 6 2.3 0.7
-1 -7 -6 2.7 0.8
-1 -7 -7 18 1.6
1 7 7 15.8 1.5
-1 7 -8 86.79 5.1
-1 -7 -8 94.99 5.2
1 7 8 107.89 5.3
1 -7 8 94.89 5.3
1 7 9 0.2 0.5
1 -7 9 0.7 0.7
-1 7 -9 0.8 0.6
-1 -7 -9 1.3 0.6
1 7 10 81.49 4.3
-1 -7 -10 73.89 4.2
-1 7 -10 72.49 4.2
1 -7 10 69.49 4.2
1 7 11 15 1.4
-1 -7 -11 13.9 1.4
-1 7 -11 11.3 1.3
1 -7 11 9.8 1.4
-1 7 -12 5.4 0.9
1 -7 12 5.8 1
1 7 12 4.6 0.8
-1 -7 -12 4.7 0.9
-1 7 -13 13.3 1.4
1 7 13 16.1 1.4
1 -7 13 10.5 1.3
-1 -7 -13 13.4 1.4
-1 7 -14 0.4 0.6
1 7 14 0.8 0.6
1 -7 14 1.3 0.8
-1 -7 -14 1.3 0.7
-1 7 -15 126.19 6.4
1 -7 15 115.29 6.4
1 7 15 119.99 6.3
-1 -7 -15 123.49 6.4
-1 7 -16 15.3 1.4
1 7 16 13.6 1.4
1 -7 16 12.9 1.4
-1 -7 -16 15.7 1.5
-1 7 -17 27.3 2.1
1 -7 17 32.5 2.4
1 7 17 30.2 2.2
-1 -7 -17 33.1 2.3
-1 -7 -18 7.4 1
-1 7 -18 9.2 1.1
1 7 18 8.2 1.1
1 -7 18 11 1.2
-1 7 -19 2.2 0.7
1 7 19 3 0.7
1 -7 19 2.4 0.9
-1 -7 -19 4.2 0.8
-1 7 -20 0.6 0.5
1 7 20 1.3 0.6
1 -7 20 1 0.7
-1 -7 -20 1.8 0.7
-1 7 -21 11.4 1.4
1 -7 21 13.7 1.5
1 7 21 15.6 1.4
-1 7 -22 0.1 0.5
1 -7 22 0.9 0.7
1 -7 23 28 2.2
-1 7 -23 27.5 2.1
-1 7 -24 1.1 0.6
1 -7 24 1.7 0.8
-1 7 -26 19.5 1.7
1 -7 26 18.9 1.8
-1 -9 25 0.6 0.7
1 9 -25 0.8 0.7
1 9 -24 2.6 0.8
-1 -9 24 2.8 0.9
-1 -9 23 1.7 0.7
1 9 -23 1.2 0.7
-1 -9 22 9.3 1.3
1 9 -22 11.5 1.3
1 9 -21 1.3 0.8
-1 -9 21 0.7 0.7
1 9 -20 1.2 0.7
-1 -9 20 0.9 0.8
-1 9 18 1 0.7
1 -9 -18 1.7 0.7
-1 -9 18 0.7 0.7
1 9 -18 2.1 0.8
1 -9 -17 37.2 2.5
1 9 -17 29 2.3
-1 -9 17 34.7 2.5
-1 9 17 34.4 2.4
-1 9 16 2.6 0.8
1 9 -16 3.1 0.8
1 -9 -16 3.1 0.9
-1 -9 16 2.2 0.9
-1 -9 15 28.7 2.2
-1 9 15 26.1 2
1 -9 -15 23.6 2.1
1 9 -15 25.5 2
1 -9 -14 0.2 0.7
-1 -9 14 -0.2 0.8
-1 9 14 0.3 0.7
1 9 -14 1.5 0.8
-1 -9 13 3.4 1
-1 9 13 3.4 0.9
1 9 -13 3.8 0.9
1 -9 -13 2.7 0.8
1 -9 -12 21.3 1.8
-1 -9 12 19.8 1.8
-1 9 12 18.5 1.7
1 9 -12 19.1 1.7
1 9 -11 1.5 0.7
-1 -9 11 1.5 0.8
-1 9 11 0.6 0.7
1 -9 -11 0.8 0.7
-1 -9 10 6 1
-1 9 10 6.7 1.1
1 -9 -10 8 1.1
1 9 -10 7.7 1
1 -9 -9 12.5 1.4
-1 9 9 12.3 1.4
-1 -9 9 11.3 1.3
1 9 -9 12 1.3
1 -9 -8 3.5 1
-1 9 8 3.7 0.9
1 9 -8 2.8 0.8
-1 -9 8 4.1 0.9
-1 9 7 5.1 1
-1 -9 7 3.1 0.9
1 9 -7 2.7 0.9
1 -9 -7 4.2 0.9
-1 -9 6 1.5 0.8
1 -9 -6 2.5 0.8
-1 9 6 1.3 0.7
1 9 -6 1.5 0.7
1 -9 -5 1.2 0.7
-1 -9 5 0.8 0.5
-1 9 5 1.9 0.7
1 9 -5 1.5 0.6
1 9 -4 16.6 1.6
-1 -9 4 19.1 1.7
-1 9 4 22.3 1.8
1 -9 -3 2.8 0.8
-1 9 3 0.8 0.7
-1 -9 -1 4.2 0.9
1 -9 2 8.3 1.2
-1 9 -2 9 1.2
-1 -9 -2 7.5 1.1
1 9 2 8.2 1.2
-1 9 -3 3.3 0.7
-1 -9 -3 2.5 0.8
1 -9 3 2.7 0.7
-1 -9 -4 3.3 0.9
1 -9 4 3.3 0.9
-1 9 -4 3.6 0.9
1 9 4 3 0.8
1 -9 5 6 1.1
-1 9 -5 5.8 1
1 9 5 5.7 1.1
-1 -9 -5 6.9 1.1
-1 9 -6 7.9 1.1
-1 -9 -6 9.8 1.2
1 9 6 8.9 1.2
1 -9 6 8.3 1.1
-1 9 -7 0.5 0.5
1 -9 7 0.3 0.5
1 9 7 0.1 0.5
-1 -9 -7 0.2 0.5
-1 -9 -8 6.6 1
-1 9 -8 5.9 1
1 9 8 8.9 1.1
1 -9 8 9.3 1.2
-1 9 -9 43 2.7
-1 -9 -9 36.9 2.7
1 -9 9 40.4 2.8
1 9 9 40.1 2.7
-1 -9 -10 13.2 1.4
-1 9 -10 12.9 1.4
1 9 10 16 1.5
1 -9 10 14.5 1.5
1 9 11 14.3 1.5
-1 9 -11 16.5 1.6
-1 -9 -11 16.8 1.6
1 -9 11 14.2 1.6
-1 -9 -12 6 1
1 -9 12 7.5 1.2
-1 9 -12 5.3 1
1 9 12 4.4 0.9
1 -9 13 2.4 0.9
-1 -9 -13 2 0.7
1 9 14 0.3 0.7
-1 9 -14 0.9 0.7
1 -9 14 -0.1 0.8
-1 -9 -14 -0.1 0.6
1 9 15 9.7 1.2
-1 -9 -15 13.9 1.4
1 -9 15 12.3 1.4
-1 9 -15 9.8 1.3
1 -9 16 29.6 2.3
1 9 16 26.8 2.1
-1 -9 -16 30.2 2.2
-1 9 -16 25.8 2.1
-1 -9 -17 9.6 1.2
-1 9 -17 9.2 1.2
1 9 17 9.2 1.2
1 -9 17 8.3 1.2
1 -9 18 1.5 0.8
-1 9 -18 2.1 0.7
1 -9 20 1 0.8
-1 9 -20 0.2 0.7
-1 9 -21 2 0.8
1 -9 21 1.2 0.7
-1 9 -22 2.4 0.8
1 -9 22 3.7 1
-1 9 -23 29.2 2.3
1 -9 23 36.2 2.6
-1 9 -24 1.8 0.7
1 -9 24 1.8 0.8
-1 -11 22 9.2 1.3
1 11 -22 8.9 1.1
-1 -11 21 11.1 1.3
1 11 -21 12.8 1.3
1 11 -20 15 1.5
-1 -11 20 19.1 1.7
-1 -11 19 14.9 1.6
1 11 -19 18.7 1.6
1 11 -18 19.2 1.7
-1 -11 18 18.1 1.7
-1 -11 16 10.7 1.4
1 11 -16 10.7 1.3
1 11 -15 15.6 1.5
-1 -11 15 16.2 1.6
-1 -11 14 1.2 0.8
-1 -11 13 1.1 0.7
1 -11 -13 1 0.7
1 11 -13 1.2 0.7
-1 11 13 0.9 0.6
1 -11 -12 30.3 2.3
1 11 -12 30.2 2.2
-1 -11 12 28.6 2.3
-1 11 12 30.8 2.3
1 11 -11 8.8 1.2
1 -11 -11 11.2 1.3
-1 -11 11 9.2 1.3
-1 11 11 10 1.2
-1 -11 10 30.9 2.4
1 11 -10 35.4 2.4
-1 11 10 32.6 2.4
1 -11 -10 35.5 2.5
1 11 -9 1.3 0.7
-1 11 9 2.9 0.9
-1 -11 9 1.1 0.6
1 -11 -9 0.6 0.7
1 -11 -8 10.3 1.3
-1 -11 8 11.1 1.3
-1 11 8 10.1 1.2
1 11 -8 9.5 1.2
1 -11 -7 0.5 0.7
-1 11 7 0.9 0.6
-1 11 6 1.3 0.6
1 -11 -6 1.1 0.6
-1 -11 5 15.9 1.6
1 11 -5 15.5 1.6
-1 11 5 15.9 1.5
1 -11 -5 19.8 1.7
1 11 -4 3.4 0.8
-1 -11 4 2.9 0.8
-1 11 4 4 0.9
1 -11 -4 3.5 0.8
-1 -11 3 1.4 0.8
1 11 -3 -0.1 0.7
1 -11 -3 1.2 0.8
-1 11 3 1.5 0.7
-1 11 2 28.9 2.1
1 -11 -2 30.2 2.2
-1 -11 2 26.5 2.2
1 11 -2 27.6 2.1
-1 -11 1 -0.2 0.7
1 11 -1 0.9 0.8
-1 11 1 2 0.8
-1 -11 0 58.69 3.7
-1 11 0 64.69 3.7
1 11 0 63.89 3.7
1 -11 0 56.59 3.7
1 -11 1 2.1 0.8
-1 11 -1 2.1 0.7
-1 -11 -1 2.2 0.8
1 11 1 1.9 0.7
-1 11 -2 55.49 3.4
1 11 2 58.79 3.5
-1 -11 -2 53.39 3.5
1 -11 2 54.89 3.5
-1 -11 -3 15.6 1.5
1 -11 3 12 1.4
1 11 3 11.6 1.3
-1 11 -3 13.1 1.4
-1 11 -4 1.5 0.8
1 11 4 2.8 0.8
1 -11 4 3.3 0.9
-1 -11 -4 2.6 0.8
-1 -11 -5 1.4 0.7
1 11 5 2.6 0.7
-1 -11 -6 85.09 4.9
1 11 6 90.19 4.9
-1 -11 -7 0.5 0.7
1 11 7 1.3 0.7
1 -11 8 27.8 2.2
-1 -11 -8 27.5 2.2
-1 11 -8 25.4 2
1 11 8 25.9 2.1
1 11 9 6.5 1.1
-1 -11 -9 6.8 1.1
1 -11 9 6 1
-1 11 -9 5 0.9
-1 -11 -10 8.1 1.2
1 11 10 7.2 1.1
1 -11 10 6.9 1.2
-1 11 -10 6.9 1.1
1 -11 11 19.7 1.9
-1 11 -11 27.3 2
1 11 11 24.2 1.9
-1 -11 -11 25.3 2
-1 -11 -12 6.2 1
-1 11 -12 6.1 1
1 11 12 4.4 0.9
1 -11 12 5.6 1.1
-1 11 -13 7.2 1
-1 11 -14 -0.3 0.5
1 -11 14 -0.2 0.6
1 -11 15 3.7 0.9
-1 11 -15 3.5 0.8
-1 11 -18 29.4 2.3
1 -11 18 33.2 2.4
1 -11 19 7.5 1.1
-1 11 -19 9.2 1.1
1 -11 20 9.4 1.2
-1 11 -20 6.8 1
1 -11 21 3.1 0.8
-1 11 -21 2.2 0.7
2 0 -29 0.1 0.3
-2 0 29 0.2 0.3
-2 0 28 665.23 29.3
2 0 -28 626.14 29.3
-2 0 27 0.2 0.3
2 0 -27 0 0.3
2 0 -26 257.87 10.9
-2 0 26 212.48 10.8
-2 0 25 0.2 0.3
2 0 -25 0 0.3
-2 0 24 113.79 5.6
2 0 -24 116.39 5.6
-2 0 23 0.2 0.3
2 0 -23 0.2 0.3
-2 0 18 858.61 38.4
2 0 -18 845.72 38.4
-2 0 17 0.1 0.3
2 0 -17 0.1 0.3
-2 0 16 267.57 13.7
2 0 -16 348.97 13.9
-2 0 15 0.1 0.3
2 0 -15 0.1 0.3
-2 0 14 702.33 32.3
2 0 -14 732.33 32.3
2 0 -13 0 0.3
-2 0 13 -0.1 0.3
2 0 -12 3585.44 158.28
-2 0 12 3493.85 158.18
-2 0 11 0 0.3
2 0 -11 0.1 0.3
-2 0 10 3302.67 151.68
2 0 -10 3487.75 151.68
2 0 -9 0.1 0.3
-2 0 9 0 0.3
-2 0 8 113.99 5.3
2 0 -8 114.39 5.3
2 0 -7 0.1 0.3
-2 0 7 0.5 0.3
2 0 -6 72.79 3.4
-2 0 6 71.69 3.4
2 0 -5 0 0.3
-2 0 5 0.2 0.3
2 0 -4 5993 251.17
-2 0 4 5239.78 251.17
2 0 -3 0.1 0.2
-2 0 3 -0.4 0.2
-2 0 2 4048.09 182.28
2 0 -2 4113.79 182.28
2 0 10 400.36 17.8
-2 0 -10 390.36 17.8
-2 0 -11 0.2 0.1
-2 0 -12 486.65 21.4
2 0 12 467.95 21.4
2 0 13 0.1 0.1
-2 0 -13 0.1 0.1
-2 0 -14 922.61 38.7
2 0 14 810.52 38.7
2 0 15 0 0.1
-2 0 -15 0.2 0.1
2 0 16 1899.51 88.49
-2 0 -16 2064.49 88.49
-2 0 -17 0 0.1
2 0 17 0.1 0.1
2 0 18 1351.76 63.59
-2 0 -18 1501.55 63.59
2 0 19 0.2 0.1
-2 0 -19 0.1 0.1
-2 0 -20 55.69 2.7
2 0 20 57.09 2.7
2 0 21 0.2 0.1
-2 0 -21 0 0.1
2 0 22 133.69 6.5
-2 0 -22 155.78 6.6
-2 0 -23 0.1 0.1
-2 -2 30 150.18 7.2
2 2 -30 138.99 7.1
2 2 -29 25.6 1.7
-2 -2 29 24.8 1.7
2 -2 -28 315.27 14.8
-2 2 28 303.27 14.7
-2 -2 28 342.57 15.2
2 -2 -27 61.49 3.1
-2 -2 27 59.59 3.4
-2 2 27 63.69 3.1
2 2 -27 62.89 3.4
2 2 -26 26.7 1.6
-2 -2 26 27.4 1.6
-2 -2 25 85.89 4.5
2 2 -25 88.49 4.5
2 2 -24 112.69 5.7
-2 -2 24 113.19 5.7
2 2 -23 89.89 4.7
-2 -2 23 96.89 4.8
2 2 -22 490.85 22.4
-2 -2 22 485.45 22.4
2 2 -21 1.7 0.4
-2 -2 21 1.4 0.5
-2 -2 20 848.92 40.2
2 2 -20 928.21 40.2
2 2 -19 126.29 6.5
-2 -2 19 140.19 6.5
-2 -2 18 598.84 27.9
2 2 -18 625.04 27.9
2 2 -17 62.89 3.3
-2 -2 17 61.59 3.3
-2 -2 16 75.29 3.9
2 2 -16 71.99 3.8
-2 -2 15 15.3 1.1
2 2 -15 15 1.1
-2 2 15 12.2 1
-2 -2 14 141.89 6.5
2 2 -14 117.59 6.3
2 -2 -14 135.19 6.3
-2 2 14 135.29 6.3
2 2 -13 81.19 4
-2 2 13 70.59 3.8
-2 -2 13 82.69 4
2 -2 -13 79.89 3.9
2 2 -12 3554.64 156.88
-2 2 12 3385.26 156.68
-2 -2 12 3618.34 156.88
2 -2 -11 162.38 7.7
-2 -2 11 163.58 7.8
-2 2 11 164.08 7.7
2 2 -11 168.28 7.8
-2 -2 10 2543.25 107.79
2 2 -10 2531.85 107.79
-2 2 10 2260.87 107.69
2 -2 -10 2362.16 107.79
2 -2 -9 43.6 2.4
-2 2 9 49.3 2.4
2 2 -9 45.4 2.4
-2 -2 9 40.2 2.5
2 -2 -8 651.73 27
-2 2 8 570.94 26.9
-2 -2 8 539.85 27
2 2 -8 621.24 27
-2 2 7 78.09 3.8
2 -2 -7 75.19 3.8
2 -2 -6 184.88 8.4
-2 2 6 176.98 8.4
2 -2 -5 49.7 2.4
-2 2 5 38.6 2.3
-2 -2 4 1180.08 55.09
-2 2 4 1111.29 55.09
2 2 -4 1349.16 55.09
2 -2 -4 1277.87 55.09
2 -2 -3 770.52 38.4
-2 2 3 889.21 38.4
2 2 -3 878.51 38.4
-2 -2 3 866.31 38.4
-2 -2 2 8641.04 415.26
2 2 -2 9999 415.26
-2 2 2 9783.02 415.26
2 -2 -2 8815.02 415.26
-2 -2 1 16.6 1.3
2 2 -1 19.2 1.2
2 -2 -1 18.9 1.3
-2 2 1 21.3 1.3
2 2 0 461.05 20.1
-2 2 0 496.55 20.1
2 -2 0 462.65 20.1
2 -2 1 24.2 1.4
2 2 1 25.8 1.4
-2 2 -1 24.4 1.4
-2 -2 -2 576.64 28.5
2 -2 2 557.24 28.5
2 2 2 629.94 28.4
-2 -2 -3 24.4 1.3
2 2 3 21.7 1.3
-2 2 -3 19.1 1.3
2 -2 3 21.7 1.4
2 -2 4 1611.54 73.39
-2 2 -4 1610.64 73.29
-2 -2 -4 1672.83 73.29
-2 -2 -5 1.2 0.4
2 2 5 1 0.3
-2 -2 -6 2282.67 96.59
2 2 6 2049.99 96.49
2 2 7 3.8 0.4
-2 -2 -7 3.9 0.5
-2 -2 -8 1024 41.6
2 2 8 847.52 41.5
2 2 9 328.37 14.9
-2 -2 -10 494.75 22.1
2 -2 10 454.55 22.3
-2 2 -10 494.15 22.3
2 2 10 501.45 22.1
2 2 11 456.25 21
2 -2 11 490.35 21.3
-2 2 -11 439.86 21.2
-2 -2 -11 478.85 21
-2 -2 -12 716.43 31.7
2 2 12 709.13 31.7
-2 2 -12 672.93 31.9
-2 -2 -13 309.97 14
2 -2 13 316.27 14.2
2 2 13 306.27 13.9
-2 2 -13 298.97 14.2
2 -2 14 830.82 35.9
2 2 14 768.62 35.6
-2 2 -14 791.52 35.8
-2 -2 -14 801.12 35.6
2 2 15 11.3 0.7
-2 -2 -15 11.9 0.7
-2 2 -15 13 0.9
2 -2 15 11.3 1
-2 -2 -16 947.81 44
2 -2 16 1066.79 44.4
2 2 16 962.4 44
-2 2 -16 1040.1 44.4
2 -2 17 34.4 2
2 2 17 35 1.8
-2 -2 -17 36.2 1.8
-2 2 -17 35.5 2
-2 2 -18 656.23 28
-2 -2 -18 598.84 27.7
2 -2 18 636.24 28.1
-2 2 -19 93.59 4.2
2 -2 19 102.79 4.3
-2 2 -20 161.98 7.3
2 -2 20 143.69 7.3
-2 2 -21 72.39 3.7
2 -2 21 71.09 3.7
2 -2 22 308.17 15
-2 2 -22 337.47 15
2 -2 23 9.9 0.9
-2 2 -23 10.3 0.9
-2 2 -24 261.67 12.1
2 -2 24 257.77 12.1
-2 2 -25 68.89 3.6
2 -2 25 68.69 3.6
-2 2 -26 581.04 26.8
2 -2 26 594.94 26.8
-2 2 -27 14.7 1.1
2 -2 27 12.8 1.1
-2 -4 29 37.4 2.5
2 4 -29 38.3 2.5
2 4 -28 116.59 6
-2 -4 28 113.19 6
-2 -4 27 143.69 7.1
2 4 -27 135.09 7.1
2 4 -26 218.48 9.8
2 -4 -26 191.38 9.4
-2 -4 26 197.58 9.8
-2 4 26 193.68 9.4
2 4 -25 14.5 1.4
2 -4 -25 15.8 1.2
-2 -4 25 17.6 1.5
-2 4 25 15.3 1.2
-2 -4 24 33.5 2.2
2 4 -24 28.8 2.1
2 -4 -24 31.3 1.9
-2 4 24 25.5 1.8
2 4 -23 177.08 8.4
-2 -4 23 172.68 8.4
2 -4 -23 164.78 8.2
-2 4 23 167.38 8.1
-2 4 22 65.59 3.5
-2 -4 22 68.89 3.8
2 4 -22 64.99 3.7
2 -4 -22 63.49 3.5
-2 -4 21 40.6 2.5
2 4 -21 35.6 2.4
2 -4 -21 37.1 2.3
-2 4 21 37.3 2.2
-2 -4 20 428.76 20.6
2 4 -20 430.76 20.6
-2 4 20 465.45 20.4
2 -4 -19 405.76 19
-2 -4 19 451.75 19.2
-2 4 19 427.06 19
-2 4 18 456.95 21.6
2 -4 -18 444.06 21.7
2 4 -18 492.15 21.8
-2 -4 18 503.55 21.9
-2 4 17 230.28 11.3
2 4 -17 248.48 11.6
-2 -4 17 238.48 11.6
2 -4 -17 250.77 11.5
2 -4 -16 11.8 1
-2 4 16 8.3 1
-2 4 15 1.5 0.5
2 -4 -15 1.7 0.5
2 4 -14 167.38 8.3
-2 4 14 157.58 8.2
2 -4 -14 170.48 8.2
-2 -4 13 42.4 2.6
-2 4 13 42.1 2.5
2 -4 -13 45.1 2.6
2 4 -13 46.5 2.6
-2 -4 12 940.91 41.5
-2 4 12 905.91 41.3
2 -4 -12 934.41 41.4
2 4 -12 871.61 41.4
-2 -4 11 235.08 11.5
-2 4 11 235.58 11.3
2 -4 -11 248.28 11.4
2 4 -11 247.08 11.5
-2 -4 10 768.52 39
2 4 -10 924.11 39
2 -4 -10 870.61 38.9
-2 4 10 867.81 38.9
2 -4 -9 1224.98 55.89
-2 4 9 1247.08 55.89
2 4 -9 1240.28 55.99
-2 -4 9 1239.18 55.99
2 -4 -8 125.39 6
2 4 -8 137.19 6.1
-2 -4 8 120.09 6.1
-2 -4 7 219.08 11
-2 4 7 219.08 11
2 4 -7 235.08 11
2 4 -6 167.78 8.6
-2 -4 6 166.98 8.6
-2 4 6 180.28 8.6
-2 4 5 1.7 0.6
-2 -4 5 1.9 0.6
2 4 -5 2.7 0.6
2 -4 -5 2.6 0.6
2 -4 -4 1089.09 48
2 4 -4 1018.7 47.9
-2 4 4 1050.59 47.9
-2 -4 4 1082.19 48
2 4 -3 15 1.2
-2 4 3 14.5 1.2
-2 -4 3 15.7 1.3
2 -4 -3 15 1.2
-2 4 2 270.27 12.2
-2 -4 2 261.07 12.3
2 4 -2 282.67 12.3
2 4 -1 6.6 0.7
-2 -4 1 4.2 0.7
-2 4 1 5.3 0.7
2 -4 -1 8 0.9
2 4 0 104.39 4.9
-2 -4 0 99.59 4.9
-2 4 0 95.69 4.8
-2 4 -1 49.1 2.8
2 4 1 48.9 2.8
-2 -4 -1 51.89 2.8
2 -4 1 46.3 2.8
2 4 2 20.2 1.5
-2 -4 -2 20.7 1.5
2 -4 2 21.9 1.6
-2 4 -2 20 1.5
2 -4 3 437.06 20.1
2 4 3 458.65 20
-2 -4 -3 403.16 20
-2 4 -3 439.86 20
2 4 4 446.36 21.4
-2 -4 -4 492.75 21.5
2 -4 4 466.05 21.6
-2 4 -5 345.67 16.5
2 4 5 319.67 16.4
-2 -4 -5 390.16 16.5
2 -4 5 371.06 16.6
2 -4 6 1316.47 65.39
2 4 6 1521.85 65.29
-2 4 -6 1391.06 65.29
-2 -4 -6 1550.74 65.29
2 -4 7 1.5 0.6
-2 4 -7 0.9 0.5
-2 -4 -7 1.4 0.5
2 4 7 1.6 0.5
-2 4 -8 918.91 41.3
2 -4 8 901.51 41.4
-2 -4 -8 910.91 41.3
-2 -4 -9 323.47 14.7
-2 4 -9 294.27 14.7
2 -4 9 331.57 14.9
2 -4 10 362.66 16.5
-2 4 -10 345.47 16.5
-2 -4 -10 355.16 16.4
-2 4 -11 97.59 4.9
-2 -4 -11 100.19 4.8
2 -4 11 87.09 4.9
2 -4 12 92.89 5.1
-2 -4 -12 104.89 5
-2 4 -13 33.9 2
2 -4 13 32.1 2
-2 -4 -13 26.7 1.8
-2 4 -14 109.79 5.5
-2 -4 -14 111.19 5.4
2 -4 14 102.09 5.5
-2 4 -15 0.8 0.5
-2 -4 -15 0.4 0.4
2 -4 15 1.3 0.6
2 4 16 351.76 16.7
-2 -4 -16 372.16 16.7
2 4 17 86.89 4.4
-2 -4 -17 85.89 4.4
2 4 18 262.27 12.4
-2 -4 -18 272.97 12.5
-2 4 -19 9.6 1
2 -4 19 7.6 1
-2 -4 -19 9.3 0.9
2 4 19 8.8 0.8
-2 4 -20 9.2 1
2 -4 20 8.6 1.1
2 4 20 7.4 0.8
-2 4 -21 107.49 5.8
2 4 21 110.49 5.5
-2 -4 -21 113.19 5.5
2 -4 21 125.79 5.9
2 -4 22 101.89 5.4
-2 4 -22 101.69 5.3
-2 4 -23 2.6 0.7
2 -4 23 1.9 0.6
2 4 24 286.37 14.2
2 -4 24 378.06 14.9
-2 4 -24 355.96 14.8
-2 -4 -24 299.87 14.2
2 -4 25 41.2 2.7
-2 4 -25 43.6 2.7
-2 4 -26 140.29 7.3
2 -4 26 152.28 7.4
2 -4 27 0.5 0.5
-2 4 -27 0.3 0.5
-2 -6 29 46.2 3.1
2 6 -28 12.2 1.4
-2 -6 28 8.3 1.3
-2 -6 27 36.7 2.5
2 6 -27 31 2.3
2 6 -26 0.9 0.6
-2 -6 26 0.8 0.7
-2 -6 25 33.7 2.5
2 6 -25 37.2 2.5
-2 6 24 8 1
2 6 -24 10.3 1.2
2 -6 -24 10.1 1.1
-2 -6 24 10.2 1.3
2 -6 -23 2.3 0.7
-2 -6 23 1.1 0.7
2 6 -23 2.1 0.7
-2 6 23 3.5 0.7
2 -6 -22 19.3 1.6
-2 -6 22 18.7 1.7
2 6 -22 18.7 1.6
-2 6 22 16.5 1.5
-2 6 21 11 1.1
-2 -6 21 11.3 1.3
2 -6 -21 12.2 1.2
2 6 -21 11.2 1.3
2 6 -20 40.4 2.7
-2 6 20 40.6 2.6
-2 -6 20 35.6 2.7
2 -6 -20 45.6 2.7
2 -6 -19 113.89 5.9
-2 6 19 108.69 5.8
-2 6 18 106.99 5.7
2 -6 -18 113.89 5.8
2 6 -17 96.49 5.2
-2 -6 17 90.89 5.2
2 -6 -17 97.79 5.1
-2 6 17 98.69 5.1
2 -6 -16 51.89 3.1
2 6 -16 47.5 3
-2 -6 16 55.79 3.2
-2 6 16 46 2.9
2 -6 -15 12.4 1.2
-2 6 15 9.1 1.1
2 6 -15 9.1 1.1
-2 -6 15 12.7 1.3
2 6 -14 1.5 0.6
-2 6 14 2.2 0.7
-2 -6 14 2.6 0.8
2 -6 -14 2.1 0.7
2 -6 -13 50.59 3.1
2 6 -13 45.3 3
-2 -6 13 55.09 3.2
-2 6 13 51.49 3
2 -6 -12 102.49 5.2
2 6 -12 97.79 5.2
-2 6 12 88.39 5
-2 -6 12 102.09 5.3
-2 -6 11 26 2.1
2 -6 -11 24.6 2
-2 6 11 30.7 2
2 6 -11 31.4 2.1
2 6 -10 4.1 0.9
2 -6 -10 4.6 0.9
-2 6 10 5.1 0.8
-2 -6 10 4.1 0.9
2 -6 -9 296.47 13.2
-2 6 9 269.57 13
-2 -6 9 251.97 13.1
2 6 -9 284.37 13.1
2 -6 -8 11 1.3
-2 6 8 11.8 1.2
-2 -6 8 11.2 1.2
2 6 -8 12.5 1.2
-2 6 7 111.59 5.6
2 6 -7 113.89 5.6
-2 -6 7 97.29 5.6
2 -6 -7 106.29 5.7
2 6 -6 83.19 4.3
-2 6 6 75.79 4.3
2 -6 -6 72.79 4.3
-2 -6 6 81.79 4.4
-2 -6 5 25.8 1.9
2 6 -5 25.9 1.9
2 -6 -5 25.2 1.9
-2 6 5 25.2 1.8
-2 -6 4 69.89 4.2
2 6 -4 80.09 4.2
-2 6 4 79.39 4.2
2 -6 -4 74.39 4.2
2 -6 -3 11.5 1.3
2 6 -3 12.1 1.2
-2 -6 3 12.3 1.2
-2 6 3 10.3 1.2
-2 -6 2 80.19 4.5
-2 6 2 79.89 4.4
2 6 -2 83.59 4.5
2 -6 -2 87.49 4.6
2 6 -1 0.3 0.6
2 -6 -1 0.5 0.5
-2 -6 1 0.4 0.6
2 -6 0 214.08 10.2
-2 -6 0 195.38 10.2
2 6 0 213.48 10.1
2 6 1 81.39 4.6
2 -6 1 90.29 4.8
-2 -6 -1 75.49 4.6
-2 6 -2 44.3 2.8
2 6 2 44.8 2.8
2 -6 2 40.5 2.8
-2 6 -3 411.36 18.5
2 -6 3 351.66 18.5
2 6 3 380.86 18.4
-2 -6 -3 444.56 18.6
-2 -6 -4 14.4 1.4
2 -6 4 9.8 1.3
-2 6 -4 14.4 1.3
2 6 4 12.9 1.3
-2 -6 -5 34 2.2
2 6 5 31.7 2.1
-2 6 -5 28 2.1
2 -6 5 28.2 2.2
-2 6 -6 156.38 7.3
-2 -6 -6 134.79 7.2
2 -6 6 137.89 7.3
-2 6 -7 32.8 2.2
-2 -6 -7 28.5 2.1
2 -6 7 28.8 2.2
2 6 7 29.8 2
-2 -6 -8 191.98 10.1
2 -6 8 218.28 10.3
-2 6 -8 203.88 10.1
2 6 8 217.88 10.1
-2 -6 -9 24.8 1.9
-2 6 -9 25 1.9
2 6 9 27 1.9
2 6 10 5.7 0.8
-2 -6 -10 4.7 0.8
2 -6 10 3.3 0.9
-2 6 -10 4.2 0.9
2 6 11 87.19 4.7
-2 -6 -11 93.49 4.8
2 -6 11 94.69 4.9
-2 6 -11 81.79 4.8
-2 6 -12 203.38 10.2
2 -6 12 189.38 10.3
2 6 12 226.38 10.3
-2 -6 -12 224.78 10.3
-2 6 -13 20.3 1.6
-2 -6 -13 18 1.5
2 6 13 16.6 1.4
-2 6 -14 45 2.9
2 6 14 46 2.8
-2 -6 -14 46.4 2.9
2 -6 14 50.19 3
2 -6 15 35.9 2.4
-2 -6 -15 32.5 2.2
-2 6 -15 34.2 2.3
2 6 15 33.8 2.2
2 -6 16 11.6 1.4
2 6 16 10.8 1.2
-2 -6 -16 14.6 1.3
-2 6 -16 11.3 1.2
2 -6 17 13.2 1.4
-2 6 -17 15.7 1.4
2 6 17 15.6 1.3
-2 -6 -17 13.9 1.3
-2 6 -20 6.2 1
2 -6 20 8.2 1.1
-2 6 -21 148.79 7.3
2 -6 21 132.39 7.3
-2 6 -22 17.3 1.5
2 -6 22 14.2 1.5
2 -6 23 66.39 3.8
-2 6 -23 59.39 3.7
2 -6 24 24.8 2.1
-2 6 -24 27.3 2
-2 6 -25 18.4 1.6
2 -6 25 18.5 1.7
2 -6 26 25.8 2.1
-2 6 -26 23 1.9
2 8 -26 3.1 0.8
-2 -8 26 3.6 0.9
-2 -8 25 13.9 1.5
2 8 -25 13.7 1.5
2 8 -24 1 0.6
-2 -8 24 1.3 0.8
-2 -8 23 7.1 1.1
2 8 -23 6.4 1
2 8 -22 14.1 1.4
-2 -8 22 11.4 1.4
-2 8 21 11.6 1.3
2 -8 -21 9.8 1.3
2 8 -21 12 1.3
2 8 -20 1.4 0.7
-2 -8 20 2.9 0.8
2 -8 -20 2.7 0.8
-2 8 20 0.9 0.6
-2 -8 19 34.6 2.6
-2 8 19 38.9 2.6
2 -8 -19 37.3 2.6
2 8 -19 37.8 2.6
-2 8 18 2.9 0.8
2 8 -18 2.4 0.8
-2 -8 18 4 0.9
2 -8 -18 2.3 0.8
-2 8 17 73.19 4.2
-2 -8 17 72.29 4.3
2 -8 -17 72.39 4.3
2 8 -17 73.39 4.2
2 -8 -16 10 1.2
-2 8 16 8.6 1.2
-2 -8 15 4.1 1
2 8 -15 6.1 1
2 -8 -15 5.9 1
-2 8 15 4.9 0.9
-2 -8 14 9.6 1.3
2 -8 -14 9.8 1.3
-2 8 14 9.2 1.2
2 8 -14 11.5 1.3
2 8 -13 5.7 1
2 -8 -13 6.6 1
-2 8 13 4.4 0.9
-2 -8 13 6.5 1.1
-2 -8 12 15.6 1.6
-2 8 12 13.2 1.4
2 8 -12 16.5 1.5
2 -8 -12 13.1 1.4
-2 -8 11 28.1 2.2
2 -8 -11 26.9 2.2
-2 8 11 29.4 2.2
2 8 -11 27.8 2.1
2 8 -10 4.8 0.9
2 -8 -10 4.6 1
-2 -8 10 3.7 0.9
-2 8 10 3.6 0.8
2 8 -9 0.7 0.6
-2 8 9 0.9 0.6
-2 -8 9 1.2 0.7
2 -8 -9 1.3 0.6
2 8 -8 0.5 0.5
2 -8 -8 -0.1 0.7
-2 -8 8 0.1 0.5
-2 8 8 -0.1 0.6
-2 8 7 0.4 0.7
2 -8 -7 1.1 0.8
2 8 -7 0.3 0.5
-2 -8 7 1.3 0.7
-2 8 6 29.3 2.2
-2 -8 6 27.7 2.2
2 8 -6 31.6 2.2
-2 -8 5 2.7 0.9
2 8 -5 1.5 0.7
-2 8 5 1.6 0.7
2 -8 -5 2.4 0.8
2 8 -4 2.6 0.7
-2 -8 4 2.6 0.8
-2 8 4 1.2 0.7
2 -8 -4 2.8 0.8
-2 8 3 17.6 1.6
-2 -8 3 16.2 1.6
2 8 -3 16.7 1.6
2 -8 -3 19.8 1.7
-2 -8 2 13.2 1.4
2 8 -2 16.4 1.5
-2 8 2 15 1.4
2 -8 -2 12.2 1.4
-2 8 1 0.3 0.6
-2 -8 1 0.6 0.5
2 8 -1 1.1 0.6
2 -8 -1 0.5 0.7
2 -8 0 23.1 1.8
-2 8 0 20.7 1.7
2 8 0 21.5 1.8
-2 -8 -1 0.5 0.5
2 -8 1 0.5 0.7
-2 8 -1 1 0.7
2 8 1 2 0.6
-2 8 -2 7.6 1.1
-2 -8 -2 7.2 1.1
2 8 2 7 1.1
2 -8 2 7.3 1.2
2 -8 3 17 1.6
-2 8 -3 16.5 1.6
-2 -8 -4 3.3 0.8
-2 8 -4 2.6 0.7
2 8 4 2.7 0.8
2 8 5 1.8 0.7
-2 8 -5 1.9 0.8
2 -8 5 2.3 0.8
-2 -8 -5 1.4 0.7
-2 8 -6 6 1
2 8 6 6.4 1
-2 -8 -6 5.6 1
2 -8 6 6.6 1.1
2 -8 7 9.9 1.2
-2 8 -7 6.9 1.1
2 8 7 8.1 1.1
-2 -8 -7 8.9 1.1
-2 8 -8 5.8 1
2 -8 8 5.1 1
2 8 8 4.5 0.9
-2 -8 -8 5.2 0.9
2 8 9 2.7 0.8
-2 8 -9 3.1 0.8
-2 -8 -9 4 0.8
2 -8 9 3.8 0.9
2 -8 10 6.5 1.1
-2 8 -10 5.9 1
-2 -8 -10 7.8 1.1
2 8 10 7.3 1
2 -8 11 81.49 4.9
-2 8 -11 86.49 4.9
2 8 11 100.49 5
-2 -8 -11 90.19 5
-2 -8 -12 13.1 1.4
2 8 12 14.1 1.4
-2 8 -12 11.8 1.3
2 -8 12 11.1 1.4
2 -8 13 26.5 2.1
2 8 13 25.1 2
-2 -8 -13 26.6 2.1
-2 8 -13 25.5 2
2 -8 14 3.1 0.9
-2 8 -14 3.1 0.8
2 8 14 2.7 0.8
-2 -8 -14 2.9 0.8
2 8 15 57.79 3.4
-2 -8 -15 54.29 3.4
2 8 16 31.5 2.2
-2 -8 -16 25.8 2.1
2 8 17 0.2 0.5
2 -8 17 0.4 0.6
-2 8 -17 0.3 0.5
-2 -8 -17 0.4 0.6
-2 8 -18 0.8 0.7
2 -8 18 0.9 0.8
2 8 18 1.5 0.7
-2 -8 -18 2 0.7
-2 8 -19 5.6 1
2 -8 19 3.9 0.9
2 -8 20 4.1 1
-2 8 -20 2.8 0.8
2 -8 21 1.8 0.8
-2 8 -21 2.6 0.8
2 -8 22 14.8 1.5
-2 8 -22 15.1 1.5
2 -8 23 7.5 1.2
-2 8 -23 7.3 1.1
2 -8 24 0.9 0.8
-2 8 -24 0.6 0.6
-2 8 -25 8.5 1.1
2 -8 25 11.2 1.3
2 10 -25 2.1 0.8
-2 -10 25 1.3 0.9
-2 -10 24 3.3 0.9
2 10 -24 5.6 1
2 10 -23 8.8 1.1
-2 -10 23 8.5 1.2
-2 -10 22 2 0.8
2 10 -22 2.4 0.7
-2 -10 21 0.1 0.6
2 10 -21 -0.2 0.5
-2 -10 20 1.5 0.7
2 10 -20 0.4 0.6
2 10 -18 16 1.5
-2 -10 18 16.1 1.6
-2 -10 17 1.4 0.7
2 10 -17 0.7 0.7
2 10 -16 15.8 1.5
-2 -10 16 11 1.4
-2 10 16 13.7 1.5
2 -10 -16 13.6 1.5
-2 10 15 1.9 0.8
2 -10 -15 2.1 0.8
2 10 -14 9 1.1
2 -10 -14 10.8 1.3
-2 -10 14 10.9 1.3
-2 10 14 10.5 1.3
2 10 -13 2 0.6
-2 -10 13 1.4 0.7
-2 10 13 0.7 0.6
2 -10 -13 0.9 0.7
-2 -10 12 40.2 2.7
2 -10 -12 40.3 2.7
-2 10 12 38.2 2.6
-2 -10 11 12.8 1.5
2 -10 -11 12.5 1.4
2 10 -11 10.2 1.3
-2 10 11 12.1 1.4
2 -10 -10 16.9 1.6
-2 -10 10 15.9 1.6
-2 10 10 17.7 1.6
2 10 -10 15.2 1.5
-2 -10 9 1.4 0.6
2 10 -9 1.4 0.6
2 -10 -9 1 0.7
-2 10 9 1.3 0.6
2 -10 -8 4.9 0.9
-2 10 8 5.1 1
2 -10 -7 1.4 0.8
-2 10 7 5 1
2 10 -6 4.5 0.9
-2 -10 6 4.8 0.9
-2 10 6 1.9 0.8
2 -10 -6 4.7 1
-2 10 5 2.7 0.8
2 -10 -5 2.7 0.9
-2 -10 5 3.2 0.9
2 10 -5 1.1 0.7
-2 -10 4 9.4 1.2
2 10 -4 10.1 1.2
-2 10 4 8.7 1.2
2 -10 -4 10.7 1.3
2 -10 -3 7.8 1.2
-2 -10 3 9.8 1.3
-2 10 3 7.2 1.1
2 10 -3 7.7 1.1
-2 10 2 65.79 3.8
2 10 -2 68.79 3.9
2 -10 -2 60.09 3.8
-2 -10 2 59.39 3.8
-2 10 1 1 0.8
2 10 -1 1.1 0.7
2 -10 -1 1.3 0.8
-2 -10 1 -0.2 0.7
2 10 0 48.1 3.1
2 -10 0 56.79 3.3
-2 10 0 48.3 3.1
-2 -10 0 48.5 3.2
-2 10 -1 35.1 2.5
-2 -10 -1 35.9 2.6
2 10 1 36.4 2.5
2 -10 1 33.7 2.5
2 -10 2 1.2 0.8
-2 10 -2 1.4 0.7
2 10 2 2.1 0.8
-2 -10 -2 1.4 0.8
-2 10 -3 7.7 1.1
2 -10 3 5.7 1
-2 -10 -3 6 1
2 10 3 4.5 0.9
-2 -10 -4 25.5 2
2 10 4 21.3 1.8
2 -10 4 23.2 1.9
-2 10 -4 22 1.8
2 10 5 48 3.2
-2 -10 -5 52.19 3.3
2 10 6 25.8 2
-2 -10 -6 23 2
2 -10 7 1.4 0.7
2 10 7 0.9 0.7
-2 10 -7 2.3 0.7
-2 -10 -7 1.9 0.8
-2 10 -8 30.7 2.3
2 10 8 30.3 2.3
-2 -10 -8 34.3 2.5
2 -10 8 35.5 2.5
-2 -10 -9 22.3 2
2 -10 9 27.5 2.1
2 10 9 23.7 2
-2 10 -9 24.5 2
-2 10 -10 27 2.1
-2 -10 -10 26.5 2.1
2 10 10 24.6 2.1
2 -10 10 32.3 2.3
-2 -10 -11 3 0.9
2 10 11 1.2 0.7
-2 10 -11 1.6 0.7
2 -10 11 1.8 0.9
2 -10 12 0.9 0.8
-2 10 -12 1 0.7
-2 -10 -12 1.7 0.7
2 10 12 1.1 0.7
-2 10 -13 0.1 0.6
2 10 13 0.7 0.7
-2 -10 -13 1 0.7
2 -10 13 0.4 0.8
2 -10 14 48.4 3.1
-2 -10 -14 46.2 3
2 10 14 41.2 2.9
-2 10 -14 43.9 2.9
2 -10 15 7.3 1.2
-2 10 -15 9.9 1.2
-2 10 -16 65.09 3.9
2 -10 16 66.39 4
-2 10 -17 8.9 1.2
2 -10 17 9.5 1.3
-2 10 -19 1.5 0.7
2 -10 19 1.9 0.8
2 -10 20 0.1 0.7
-2 10 -20 1.1 0.7
2 -10 21 3.1 0.8
2 -10 22 2.3 0.9
-2 10 -22 2 0.8
-2 -12 12 55.09 3.3
2 12 -12 48.3 3.1
-2 -12 11 0.3 0.7
2 12 -11 1 0.6
2 12 -10 13.7 1.4
-2 -12 10 13.1 1.4
2 12 -9 1.6 0.6
2 -12 -9 2 0.8
-2 -12 9 1.9 0.6
-2 12 9 1.1 0.7
2 -12 -8 11.6 1.3
-2 -12 8 12 1.4
2 12 -8 9.9 1.2
-2 12 8 9 1.2
-2 -12 7 11.2 1.3
2 -12 -7 13.5 1.4
2 12 -7 15.2 1.4
-2 12 7 12.1 1.3
-2 -12 6 0.9 0.7
2 12 -6 1.2 0.7
2 -12 -6 1.7 0.7
-2 12 6 1.3 0.7
-2 -12 5 1.7 0.7
2 12 -5 1 0.6
2 -12 -5 1.3 0.6
-2 12 5 1.9 0.6
-2 -12 4 13.9 1.5
2 12 -4 16.6 1.6
-2 -12 0 36 2.6
-2 -12 -1 4.5 0.9
2 -12 1 3.8 0.8
2 12 1 4.5 0.9
-2 12 -1 5.1 0.9
-2 12 -2 2.7 0.8
2 -12 2 2.2 0.8
-2 -12 -2 0.9 0.8
2 12 2 3.3 0.9
-2 12 -3 2.3 0.7
2 -12 3 3 0.8
2 12 3 4.4 0.9
-2 -12 -3 3.4 0.9
-2 12 -4 10.3 1.2
2 -12 4 10.6 1.3
-2 -12 -4 9.5 1.2
2 12 4 9.3 1.2
-2 12 -5 6.7 1
2 12 5 6.3 1
-2 -12 -5 6.7 1
2 -12 5 6.8 1
-2 -12 -6 52.19 3.2
-2 12 -6 47.1 3.1
2 -12 6 51.19 3.2
2 12 6 46.4 3.1
-2 -12 -7 0.1 0.6
-2 12 -7 -0.2 0.5
2 -12 7 1.3 0.6
2 12 7 0.2 0.6
2 -12 8 24.3 1.9
-2 12 -8 20.3 1.7
-2 -12 -8 20.9 1.8
2 12 8 19.9 1.8
-2 12 -9 12.5 1.3
2 -12 9 12.4 1.4
2 -12 10 6.3 1
-2 12 -10 3.5 0.8
-3 -1 30 404.16 17.8
3 1 -30 365.36 17.8
3 1 -29 37.7 2.3
-3 -1 29 38.3 2.3
-3 -1 28 156.58 7.8
3 1 -28 163.08 7.8
-3 1 28 161.78 7.6
3 -1 -28 160.88 7.6
3 -1 -27 10.4 0.8
3 1 -27 9.2 0.9
-3 -1 27 9.9 0.9
-3 1 27 9.3 0.8
-3 1 26 3.7 0.5
3 -1 -26 3.3 0.5
3 1 -26 3.1 0.6
-3 -1 26 3.7 0.6
3 1 -25 23.6 1.6
-3 1 25 26.5 1.5
-3 -1 25 27.2 1.7
3 -1 -25 25.5 1.6
-3 -1 24 149.99 7.2
3 1 -24 150.98 7.2
3 -1 -24 138.89 7.1
-3 1 24 155.18 7.1
-3 -1 23 3.3 0.6
3 -1 -23 3 0.5
-3 1 23 3 0.5
3 1 -23 3 0.5
3 -1 -22 761.12 32.8
3 1 -22 706.33 32.9
-3 1 22 741.43 32.8
-3 -1 22 679.03 32.9
3 1 -21 5.3 0.7
-3 -1 21 5.4 0.7
3 1 -20 1405.16 62.09
-3 -1 20 1354.46 62.09
3 1 -19 1.5 0.4
-3 -1 19 1.4 0.4
3 1 -18 290.77 13.5
-3 -1 18 294.87 13.6
3 1 -17 5.8 0.7
-3 1 17 5.4 0.6
3 -1 -17 7 0.7
-3 -1 17 5.9 0.7
-3 -1 16 98.79 4.7
3 1 -16 92.09 4.6
-3 1 16 92.59 4.5
3 -1 -16 92.39 4.6
-3 1 15 21.4 1.4
3 1 -15 23.1 1.4
-3 -1 14 3918.31 169.98
3 1 -14 3557.84 169.98
3 -1 -14 3924.71 169.98
3 -1 -13 745.83 32.5
-3 1 13 699.23 32.5
-3 1 12 3684.03 155.78
3 -1 -12 3267.87 155.78
-3 -1 11 23.2 1.4
-3 1 11 20.7 1.3
3 -1 -11 24.7 1.4
3 1 -11 24.4 1.4
-3 1 10 2023.2 84.59
3 1 -10 2004.8 84.69
-3 -1 10 1911.81 84.69
-3 1 9 35.5 1.7
3 -1 -9 31.3 1.7
-3 -1 9 30.3 1.8
3 1 -9 30.5 1.8
-3 1 8 38.7 1.9
-3 -1 8 36.5 1.9
3 1 -8 34.2 1.9
3 -1 -8 34.9 1.9
-3 -1 7 230.28 10.5
3 -1 -7 245.98 10.5
-3 1 7 212.98 10.4
3 1 -7 228.08 10.5
3 -1 -6 4568.44 199.08
-3 -1 6 4497.25 199.08
3 1 -6 4802.62 199.08
-3 1 6 4025.2 199.08
3 1 -5 299.57 13.9
-3 1 5 269.37 13.9
-3 -1 5 304.57 14
3 1 -4 2160.88 98.29
-3 1 4 2159.58 98.29
-3 -1 4 2212.48 98.29
3 -1 -4 2260.17 98.29
-3 -1 3 364.06 18.5
3 -1 -3 395.66 18.6
-3 1 3 417.26 18.5
-3 1 2 3087.29 146.69
-3 -1 2 3432.36 146.69
3 -1 -2 3711.93 146.79
3 1 -2 2979.1 146.69
3 -1 -1 302.27 14.3
3 1 -1 310.07 14.2
-3 1 1 349.77 14.3
-3 -1 1 296.87 14.2
-3 -1 0 274.87 13.1
3 -1 0 308.57 13.2
3 1 0 278.87 13.1
-3 1 0 303.37 13.1
-3 1 -1 549.05 27
3 -1 1 522.65 27
-3 -1 -1 678.73 27
3 1 1 625.24 27
-3 1 -2 258.77 11.9
3 1 2 275.77 11.9
-3 -1 -2 255.97 11.9
3 -1 2 256.77 12
-3 -1 -3 102.19 4.7
-3 1 -3 106.59 4.8
3 1 3 98.09 4.7
3 -1 3 110.09 4.9
3 1 4 2817.52 116.09
-3 -1 -4 2373.06 116.09
-3 1 -4 2504.05 116.19
3 -1 4 2756.22 116.19
-3 1 -5 61.79 3
3 1 5 62.49 2.9
-3 -1 -5 67.09 2.9
-3 1 -6 3739.93 164.38
3 -1 6 3601.84 164.38
-3 1 -7 107.59 5.1
3 -1 7 110.09 5.1
3 -1 8 460.35 20.2
-3 1 -8 432.86 20.1
-3 1 -9 606.54 26.6
3 -1 9 569.04 26.6
-3 1 -10 3.2 0.4
3 -1 10 3.1 0.4
3 -1 11 102.29 4.8
-3 1 -11 100.89 4.8
3 -1 12 966.2 44.3
-3 1 -12 1005.1 44.3
-3 1 -13 9.1 0.7
3 -1 13 9.1 0.7
3 -1 14 1603.84 69.29
-3 1 -14 1490.75 69.19
-3 1 -15 50.89 2.5
3 -1 15 46.3 2.4
3 -1 16 1950.1 83.59
-3 1 -16 1788.42 83.59
-3 1 -17 27.6 1.4
3 -1 17 18.9 1.4
-3 1 -18 159.28 7.3
3 -1 18 154.78 7.3
-3 1 -19 11.2 0.8
3 -1 19 11.7 0.8
-3 1 -20 8.9 0.7
3 -1 20 8.2 0.7
-3 1 -21 57.49 3
3 -1 21 61.59 3
-3 1 -22 603.24 28
3 -1 22 637.44 28
-3 1 -23 20.6 1.3
3 -1 23 23.3 1.3
-3 1 -24 490.85 22
3 -1 24 482.15 22
3 -1 25 23.6 1.4
-3 1 -25 25.9 1.4
-3 1 -26 131.39 6.1
3 -1 26 131.19 6.1
3 -1 27 7.6 0.5
3 3 -30 166.28 8.7
-3 -3 30 188.78 8.8
-3 -3 29 48.2 2.8
3 3 -29 41.7 2.7
3 -3 -28 119.19 5.7
-3 3 28 113.39 5.6
3 3 -28 117.79 5.9
-3 -3 28 113.29 6
-3 3 27 104.29 5.4
3 3 -27 112.89 5.7
-3 -3 27 114.89 5.8
3 -3 -27 114.39 5.5
3 -3 -26 4.9 0.6
-3 -3 26 3.9 0.7
3 3 -26 4.6 0.7
-3 3 26 4.5 0.6
3 3 -25 38.8 2.5
-3 3 25 36.8 2.2
3 -3 -25 41.5 2.3
-3 -3 25 38.9 2.5
3 -3 -24 94.09 4.8
-3 3 24 98.59 4.8
-3 3 23 44.5 2.4
3 -3 -23 41.1 2.4
-3 3 22 460.75 20.9
-3 -3 22 480.15 21.1
3 -3 -22 465.25 20.9
3 3 -22 415.66 21
-3 3 21 124.09 6.4
3 3 -21 140.49 6.7
-3 -3 21 135.89 6.7
3 -3 -21 136.29 6.5
-3 3 20 735.33 32
3 -3 -20 695.63 32
-3 -3 20 664.73 32.1
3 3 -20 713.33 32.1
3 3 -19 274.27 13.3
3 -3 -19 303.07 13.2
-3 -3 19 263.67 13.3
-3 3 19 286.17 13.1
-3 3 18 224.08 10
3 3 -18 197.98 10.1
-3 -3 18 198.08 10.1
3 -3 -18 224.98 10.1
-3 3 17 89.39 4.2
3 -3 -17 84.99 4.3
3 3 -17 88.29 4.4
3 3 -16 68.09 3.7
3 -3 -16 69.89 3.7
-3 -3 16 71.39 3.8
-3 3 16 69.89 3.6
3 -3 -15 3.5 0.6
-3 -3 15 2.3 0.6
3 3 -15 3 0.6
-3 3 15 1.3 0.5
-3 -3 14 697.63 30.2
3 3 -14 640.44 30.2
3 -3 -14 635.34 30.1
-3 3 14 679.43 30.1
3 -3 -13 7.9 0.8
-3 3 13 6.9 0.8
-3 -3 13 5.9 0.9
-3 3 12 1923.31 77.39
3 3 -12 1880.31 77.49
-3 -3 11 159.68 7.6
-3 3 11 163.68 7.5
3 -3 -11 168.88 7.6
-3 3 10 794.82 38.7
-3 -3 10 874.51 38.8
3 3 -10 902.31 38.8
3 -3 -10 863.21 38.7
3 3 -9 133.69 6.5
3 -3 -9 118.89 6.5
-3 -3 9 132.09 6.5
-3 3 8 195.28 8.9
3 -3 -8 176.98 9
3 3 -8 202.58 9
-3 -3 8 182.58 9
-3 3 7 92.69 4.6
-3 -3 7 90.79 4.7
3 3 -7 103.69 4.7
-3 3 6 1667.13 73.19
-3 -3 6 1776.32 73.39
3 -3 -6 1724.03 73.29
3 -3 -5 6.5 0.8
-3 -3 5 8.1 0.9
-3 3 5 7.4 0.8
3 3 -5 7.3 0.8
3 3 -4 1080.59 48.1
3 -3 -4 1113.89 48.2
-3 3 4 1012.4 48.1
-3 -3 4 1067.99 48.2
3 -3 -3 163.28 7.6
3 3 -3 161.98 7.5
-3 3 3 165.58 7.5
3 3 -2 526.35 24.3
-3 3 2 584.44 24.3
-3 -3 2 548.65 24.3
3 3 -1 44.4 2.4
-3 3 1 39.1 2.4
3 -3 -1 43.4 2.5
-3 -3 1 44.9 2.5
3 3 0 855.31 35.8
-3 3 0 718.73 35.8
3 -3 0 788.62 35.9
-3 -3 0 810.32 35.8
-3 3 -1 139.59 6.5
3 -3 1 138.49 6.5
-3 -3 -1 125.69 6.4
3 3 1 132.19 6.4
3 3 2 616.94 27.6
-3 -3 -2 649.34 27.7
-3 3 -2 549.74 27.6
3 -3 2 626.74 27.7
-3 3 -3 112.09 5.2
3 3 3 100.09 5.2
3 -3 3 108.09 5.3
-3 -3 -3 106.19 5.2
-3 3 -4 2304.97 101.69
3 3 4 2340.07 101.59
-3 -3 -4 2284.37 101.59
3 -3 4 2110.59 101.69
-3 3 -5 64.39 3.2
3 3 5 58.59 3.1
-3 -3 -5 59.49 3.2
3 -3 5 65.09 3.3
3 3 6 2278.77 99.99
-3 3 -6 2357.96 100.09
3 -3 6 2075.29 100.09
-3 -3 -6 2190.58 99.99
3 -3 7 175.38 8
-3 3 -7 155.08 7.9
3 -3 8 2023.5 94.49
-3 3 -8 2180.28 94.49
-3 3 -9 307.87 15
3 -3 9 346.17 15.1
3 -3 10 127.79 6.1
-3 3 -10 119.79 6
3 -3 11 348.17 16.1
3 -3 12 348.37 16.3
-3 -3 -12 358.06 16.1
3 3 12 365.46 16.1
-3 3 -12 326.67 16.2
3 3 13 21.6 1.3
3 -3 13 22.2 1.5
-3 -3 -13 22 1.3
-3 -3 -14 1181.58 52.69
3 3 14 1149.48 52.69
3 -3 14 1288.67 52.99
-3 3 -14 1098.99 52.89
3 -3 15 2.6 0.7
-3 -3 -15 5.1 0.5
-3 3 -15 5.8 0.7
3 3 15 2.9 0.5
3 -3 16 510.25 24.6
-3 -3 -16 541.75 24.3
-3 3 -16 550.64 24.6
3 3 16 539.95 24.3
-3 3 -17 15.6 1.2
-3 -3 -17 14.7 0.9
3 -3 17 12.4 1.1
3 -3 18 84.79 4.3
-3 -3 -18 81.59 3.9
3 3 18 80.19 3.9
-3 3 -18 77.19 4.2
3 -3 19 44.8 2.4
3 3 19 37.4 2
-3 3 -19 41.5 2.4
-3 -3 -19 38 2
-3 -3 -20 2.2 0.3
-3 3 -20 2.8 0.5
3 -3 20 2.1 0.5
3 3 20 2.2 0.3
-3 3 -21 152.98 6.4
3 -3 21 151.78 6.4
-3 3 -22 345.97 16.5
3 -3 22 365.26 16.6
-3 3 -23 3 0.5
3 -3 23 2.2 0.6
3 -3 24 198.78 9.4
-3 3 -24 190.08 9.3
-3 3 -25 84.89 4.3
3 -3 25 74.89 4.2
-3 3 -26 171.48 8.4
3 -3 26 175.38 8.4
3 -3 27 6 0.8
-3 -5 30 31.1 2.2
3 5 -30 26 2.1
3 5 -29 137.79 7.5
-3 -5 29 162.48 7.8
-3 -5 28 4 0.9
3 5 -28 3 0.7
3 -5 -26 1.5 0.5
-3 5 26 1.6 0.5
3 5 -25 40 2.6
3 -5 -25 36 2.4
-3 -5 25 36.7 2.6
-3 5 25 41.8 2.4
3 -5 -24 23.3 1.8
-3 5 24 24.8 1.7
-3 -5 24 25.4 1.9
3 5 -24 23.4 1.8
3 5 -23 29.3 2.1
-3 -5 23 26.2 2.1
-3 5 23 25.8 1.8
3 -5 -23 30.4 2
3 5 -22 140.39 7.1
-3 -5 22 135.59 7.1
-3 5 22 137.69 6.9
3 -5 -22 143.69 7
3 5 -21 126.99 6.6
3 -5 -21 126.49 6.5
-3 5 21 124.39 6.4
-3 -5 21 135.49 6.7
-3 5 20 161.68 8.1
3 5 -20 169.38 8.3
3 -5 -20 176.48 8.3
-3 -5 20 161.18 8.3
3 -5 -19 212.38 10.1
3 5 -19 217.98 10.2
-3 -5 19 191.78 10.2
-3 5 19 212.98 10.1
3 -5 -18 8.4 1
-3 5 18 8.6 0.9
-3 -5 18 6.3 1
3 5 -18 6.5 0.9
3 5 -17 31.5 2.2
-3 5 17 32 2.1
-3 -5 17 27.3 2.2
-3 5 16 123.99 6.3
3 -5 -16 130.79 6.5
-3 5 15 26 1.8
-3 -5 15 24.1 1.9
3 -5 -15 27 1.9
3 5 -15 29.8 2
-3 -5 14 45.1 2.7
-3 5 14 38.5 2.5
3 5 -14 40.4 2.6
3 -5 -14 40.9 2.5
-3 5 13 12.5 1.2
-3 -5 13 10.7 1.4
3 5 -13 13.7 1.3
3 -5 -13 16 1.3
-3 -5 12 225.18 10.4
-3 5 12 196.88 10.2
3 -5 -12 227.68 10.3
3 5 -12 207.68 10.3
-3 -5 11 125.59 7.2
3 -5 -11 145.19 7.3
-3 5 11 144.69 7.2
-3 5 10 106.99 5.4
3 5 -10 100.09 5.5
-3 -5 10 107.09 5.6
-3 -5 9 295.17 13.6
3 5 -9 297.47 13.6
-3 5 9 295.17 13.5
3 -5 -9 257.47 13.5
3 5 -8 9 1
-3 -5 8 10.7 1.1
-3 5 8 10.5 1
3 -5 -8 9.8 1.1
3 -5 -7 409.86 20.1
-3 -5 7 449.06 20.1
-3 5 7 430.86 20
3 5 -7 440.86 20.1
3 -5 -6 7.9 1.1
-3 5 6 10.6 1.1
3 5 -6 10.6 1.1
-3 -5 6 12.5 1.2
3 -5 -5 39.5 2.5
-3 5 5 37.1 2.4
3 -5 -4 144.69 7.8
-3 5 4 172.78 7.8
3 5 -1 133.69 6.9
-3 -5 1 144.79 7
-3 -5 0 265.77 12
3 5 0 236.88 11.9
-3 -5 -1 201.58 10
3 5 1 215.18 10
3 5 2 17.5 1.4
-3 -5 -2 16.9 1.4
3 5 3 50.89 2.8
-3 -5 -3 42.3 2.7
3 5 4 250.97 11.8
-3 -5 -4 277.07 11.9
3 5 5 75.39 4
-3 5 -5 70.69 4
3 -5 5 65.39 4
3 -5 6 394.26 17.8
-3 5 -6 366.66 17.7
3 5 7 30.4 2
-3 5 -7 31.6 2.1
3 -5 7 30.2 2.1
-3 -5 -7 30.9 2.1
3 5 8 63.99 3.6
-3 5 -8 73.79 3.8
-3 -5 -8 67.49 3.7
3 -5 8 64.49 3.8
3 -5 9 348.97 15.5
-3 5 -9 321.47 15.4
-3 -5 -9 324.07 15.3
3 5 9 317.87 15.3
-3 -5 -10 1.4 0.5
3 5 10 0.1 0.4
-3 5 -10 0.1 0.4
3 -5 10 -0.1 0.5
-3 -5 -11 24.5 1.6
-3 5 -11 23.5 1.7
3 5 11 22.6 1.6
-3 -5 -12 3.3 0.7
-3 5 -12 3.9 0.8
3 5 12 4.1 0.8
3 -5 13 6.6 0.9
3 5 13 6.2 0.8
-3 5 -13 5.9 0.8
-3 -5 -13 6.5 0.8
-3 5 -14 24.8 1.9
-3 -5 -14 27.2 1.8
3 -5 14 30.9 2
3 5 14 26.6 1.8
3 5 15 138.19 6.4
-3 5 -15 118.19 6.5
-3 -5 -15 130.29 6.5
3 -5 15 128.19 6.6
3 5 16 131.79 6.5
-3 5 -16 125.49 6.7
-3 -5 -16 126.59 6.5
-3 -5 -17 41.1 2.3
3 -5 17 36.4 2.5
3 5 17 36.8 2.3
-3 5 -17 34.3 2.4
3 -5 18 129.49 6.3
3 5 18 120.89 6
-3 5 -18 119.49 6.2
-3 -5 -18 112.59 5.9
3 -5 19 61.69 3.4
3 5 19 47.8 2.9
-3 -5 -19 50.59 3
-3 5 -19 59.09 3.2
3 -5 20 11.2 1.2
-3 -5 -20 11.4 1
3 5 20 13.3 1.1
-3 5 -20 11 1.2
3 5 21 85.79 4.5
-3 5 -21 88.09 4.8
-3 -5 -21 84.59 4.5
3 -5 21 96.69 4.9
-3 -5 -22 60.69 3.3
3 -5 22 64.79 3.7
3 5 22 66.19 3.4
-3 5 -22 58.99 3.6
3 -5 23 13.8 1.4
-3 5 -23 12.3 1.2
3 -5 24 177.08 8.2
-3 5 -24 149.19 8
3 -5 25 7.8 1.1
-3 5 -25 7.4 1
-3 5 -26 43.6 2.9
3 -5 26 50.19 3.1
-3 -7 28 2.1 0.8
3 7 -28 2.2 0.7
3 7 -27 30.2 2.3
-3 -7 27 31.2 2.4
3 7 -26 7.1 1
-3 -7 26 6.6 1.1
-3 -7 24 7.4 1.1
3 7 -24 6.9 1
-3 7 23 14.7 1.3
-3 -7 23 12.8 1.4
3 -7 -23 13.7 1.4
3 7 -23 11.8 1.3
-3 7 22 0.6 0.6
-3 -7 22 0.2 0.6
3 7 -22 0.9 0.6
3 -7 -22 0.7 0.6
3 -7 -21 45.3 2.9
3 7 -21 40.3 2.8
-3 7 21 42.1 2.7
-3 -7 21 46 3
3 7 -20 5.2 0.9
3 -7 -20 5.6 0.9
-3 -7 20 6.2 1
-3 7 20 7.3 1
-3 7 19 33.7 2.3
-3 -7 19 32.5 2.5
3 7 -19 34.4 2.4
3 -7 -19 37.2 2.5
3 7 -18 67.49 3.8
-3 -7 18 64.49 3.9
-3 7 18 64.39 3.7
3 -7 -18 61.19 3.8
3 -7 -17 94.59 5.1
-3 -7 17 93.49 5.1
-3 7 17 84.89 4.9
3 7 -17 95.89 5.1
3 -7 -16 3.9 0.9
-3 -7 16 3.3 0.8
-3 7 16 5 0.9
3 7 -15 12.8 1.3
3 -7 -15 15 1.5
-3 -7 15 15 1.6
-3 7 15 12.9 1.4
3 7 -14 1.1 0.7
-3 7 14 2.4 0.8
-3 -7 14 0.6 0.7
3 -7 -14 3 0.9
3 -7 -13 2 0.8
-3 -7 13 3.1 0.9
-3 7 13 3.9 0.8
3 7 -13 4.5 0.9
3 -7 -12 1.5 0.8
-3 7 12 2.2 0.7
3 7 -12 1.5 0.7
-3 -7 12 0.7 0.7
-3 -7 11 73.39 4.3
3 -7 -11 73.39 4.2
-3 7 11 75.89 4.2
3 7 -11 72.89 4.2
3 7 -10 9.8 1.2
3 -7 -10 10.8 1.2
-3 7 10 8 1.1
-3 -7 10 8.5 1.2
3 -7 -9 27.9 2
3 7 -9 21.3 1.8
-3 7 9 24.8 1.9
-3 -7 9 22.7 1.9
-3 7 8 2.1 0.8
-3 7 7 10.9 1.2
3 -7 -7 11.5 1.3
3 -7 -6 18.4 1.6
-3 7 6 17.6 1.5
-3 7 5 43.6 2.8
-3 -7 5 46.4 3
3 7 -5 46.5 2.9
3 -7 -5 50.59 3.1
-3 -7 4 20.7 1.7
3 7 -4 16.4 1.5
3 -7 -4 16.1 1.6
-3 7 4 18.7 1.6
-3 -7 3 6.9 1
3 7 -3 6.1 1
3 -7 -3 5.6 1
3 -7 -2 33.1 2.3
3 7 -2 25.8 2
-3 -7 2 29.3 2.1
-3 -7 1 21.8 1.7
-3 7 1 20.8 1.7
3 7 -1 22 1.7
3 -7 -1 17.7 1.7
3 -7 0 264.17 12.5
-3 7 0 272.07 12.5
3 7 0 268.67 12.4
-3 -7 0 228.48 12.4
-3 -7 -1 31 2.4
3 -7 1 32.3 2.5
3 7 1 37.4 2.5
-3 7 -1 40.9 2.5
3 -7 2 8.3 1.1
3 7 2 10.3 1.2
-3 -7 -2 10.6 1.2
-3 7 -2 7.2 1
3 7 3 51.39 3.1
-3 -7 -3 52.29 3.2
-3 -7 -4 6.6 1
-3 -7 -5 91.59 5
3 7 5 90.69 4.9
-3 -7 -6 5.5 0.9
3 7 6 6.8 1
3 -7 7 66.49 3.9
-3 7 -7 68.09 3.8
3 7 7 62.49 3.7
-3 -7 -7 63.09 3.7
3 -7 8 4 1
-3 7 -8 3.1 0.8
-3 -7 -8 4.3 0.8
3 7 8 5.6 0.9
3 7 9 107.99 5.5
-3 7 -9 111.29 5.6
3 -7 9 92.89 5.6
-3 -7 -9 104.79 5.6
-3 -7 -10 14.3 1.4
-3 7 -10 13.2 1.4
3 7 10 13.3 1.4
3 -7 10 16 1.5
3 -7 11 292.37 14.8
3 7 11 299.27 14.7
-3 -7 -11 326.97 14.9
-3 7 -11 325.87 14.8
3 7 12 4.8 0.9
-3 -7 -12 3.5 0.8
-3 -7 -13 27.6 2
3 -7 13 24.3 2.1
-3 7 -13 22.8 1.9
3 7 13 28.7 2
3 -7 14 28.5 2.1
-3 7 -14 25.5 2
3 7 14 26.8 2
-3 -7 -14 28.2 2.1
3 -7 15 2.4 0.8
3 7 15 4 0.8
-3 7 -15 2.4 0.7
-3 -7 -15 2.8 0.7
3 -7 16 42.9 2.9
-3 -7 -16 43.9 2.8
3 7 16 47.2 2.9
-3 7 -16 45.2 2.9
3 7 17 22.7 1.7
-3 7 -17 22.7 1.8
3 -7 17 20.4 1.9
-3 -7 -17 20.6 1.7
-3 7 -18 2.5 0.7
3 7 18 2.1 0.7
3 -7 18 1.8 0.8
-3 -7 -18 2.4 0.7
-3 -7 -19 12.6 1.3
3 7 19 13.1 1.3
-3 7 -19 12.8 1.4
3 -7 19 12.2 1.5
3 -7 20 4.6 1
-3 7 -20 4.9 0.9
-3 7 -21 69.09 3.9
3 -7 21 65.39 4
3 -7 22 8.6 1.2
-3 7 -22 10.8 1.2
-3 7 -23 27.6 2.1
3 -7 23 24.8 2.1
3 -7 24 4.9 1
-3 7 -24 3.3 0.8
-3 -9 27 15.7 1.6
3 9 -26 0.4 0.7
-3 -9 26 0.2 0.7
3 9 -25 4.2 0.9
-3 -9 25 4.8 1
3 9 -24 6.3 1
-3 -9 24 6.6 1.1
3 9 -23 30.5 2.3
-3 -9 23 32.6 2.4
-3 -9 22 9.1 1.2
3 9 -22 6.3 1
3 9 -21 22.6 1.8
-3 -9 21 19.5 1.9
-3 -9 20 1.9 0.7
3 9 -20 3 0.7
-3 -9 18 0.4 0.7
3 9 -18 0.5 0.6
3 9 -17 0.7 0.7
-3 -9 17 1.2 0.8
-3 -9 16 10.5 1.4
-3 -9 15 2.7 0.9
3 9 -15 1.9 0.8
3 9 -14 7.7 1.1
-3 -9 14 9.1 1.3
3 9 -13 8.8 1.1
-3 9 13 10.4 1.2
3 -9 -13 11.1 1.3
3 -9 -12 18.3 1.7
3 9 -12 14.3 1.5
-3 9 12 15.2 1.6
-3 -9 12 20 1.7
-3 9 11 15.4 1.6
3 9 -11 13.9 1.4
-3 -9 11 16.2 1.6
3 -9 -11 14.6 1.6
3 9 -10 12.5 1.4
-3 9 10 14.9 1.5
-3 -9 10 12.5 1.5
3 -9 -10 12.3 1.5
-3 -9 9 2.2 0.9
-3 9 9 2 0.7
3 9 -9 1.6 0.8
3 -9 -9 3.1 0.9
-3 -9 8 2.4 0.8
3 9 -8 2.9 0.8
3 9 -7 6 1
-3 -9 7 4.1 0.9
-3 -9 6 14.4 1.5
3 9 -6 13.8 1.5
3 9 -5 2.9 0.8
-3 -9 5 3.5 0.8
-3 -9 4 31.9 2.4
3 9 -4 34.8 2.4
-3 9 0 23 1.9
3 -9 0 19.2 1.9
3 -9 1 0.5 0.6
3 9 1 0.6 0.6
-3 9 -1 0.8 0.6
3 9 2 0.4 0.7
3 -9 2 0.4 0.7
-3 9 -2 -0.1 0.7
-3 -9 -2 0.5 0.7
3 9 3 5.1 1
-3 9 -3 4.8 1
3 -9 3 3.7 1
-3 -9 -3 5.4 1
-3 -9 -4 17.8 1.7
3 -9 4 22.4 1.9
3 9 4 19.9 1.7
-3 9 -4 21.9 1.8
3 9 5 3.3 0.8
-3 9 -5 2.6 0.7
-3 -9 -5 2.5 0.7
3 -9 5 2.3 0.7
3 -9 6 0.5 0.6
3 9 6 1.4 0.7
-3 -9 -6 1.2 0.7
-3 9 -6 0.9 0.7
-3 -9 -7 5.5 1
3 9 7 3.8 0.9
-3 9 -7 2.1 0.8
3 -9 7 2.9 0.9
3 9 8 11.8 1.3
3 -9 8 10.9 1.3
-3 -9 -8 10.8 1.3
-3 9 -8 8.7 1.2
-3 9 -9 6.8 1.1
-3 -9 -9 9.6 1.2
3 -9 9 7.9 1.2
3 9 9 8.1 1.2
3 9 10 3.4 0.8
-3 9 -10 2.4 0.8
3 -9 10 4.4 1
-3 -9 -10 3.6 0.9
-3 9 -11 1.6 0.7
3 9 11 2.6 0.8
-3 -9 -11 1.9 0.8
3 -9 11 2.3 0.9
-3 9 -12 36.5 2.5
-3 -9 -12 33.7 2.4
3 9 12 33.3 2.4
-3 -9 -13 47.3 3.3
-3 9 -13 58.19 3.4
3 9 13 52.59 3.3
3 -9 13 57.39 3.5
-3 -9 -14 34 2.5
3 9 14 37.1 2.5
-3 9 -14 34.7 2.5
3 -9 14 38.5 2.7
-3 9 -15 6.2 1
-3 -9 -15 4.9 0.9
3 -9 15 4.5 0.9
3 9 15 4.1 0.9
3 -9 16 56.39 3.6
-3 9 -16 56.29 3.4
-3 9 -17 1.2 0.7
3 -9 17 1.4 0.8
3 -9 19 0.5 0.7
-3 9 -19 0.7 0.7
3 -9 20 1.4 0.8
-3 9 -20 0.7 0.6
3 -9 21 1.5 0.8
-3 9 -21 1.8 0.8
3 -9 22 8.4 1.3
-3 9 -22 13.9 1.4
3 -9 23 27.1 2.1
-3 9 -23 21.4 1.9
-3 -11 22 13.4 1.4
3 11 -22 12.9 1.4
-3 -11 21 0.1 0.7
3 11 -21 0.5 0.7
-3 -11 20 15.8 1.6
3 11 -20 14 1.4
3 11 -19 0.3 0.7
-3 -11 19 1.2 0.7
-3 -11 18 6 1
-3 -11 16 1.2 0.7
3 11 -16 2.4 0.7
-3 -11 15 -0.3 0.7
3 11 -15 0.2 0.6
-3 -11 14 11.3 1.4
3 -11 -14 11.7 1.3
-3 11 14 11.3 1.3
3 11 -14 10.5 1.3
-3 -11 13 4.9 1
-3 11 13 5.7 1
3 11 -13 4 0.9
3 -11 -13 5.2 1
3 11 -12 69.39 4
-3 -11 12 60.99 4
-3 11 12 63.59 4
3 -11 -11 0.9 0.7
3 11 -11 1.1 0.7
-3 11 11 0.8 0.8
-3 -11 11 0.9 0.8
3 11 -10 6.3 1
3 -11 -10 8.2 1.2
-3 -11 10 7.6 1.2
-3 11 10 8.3 1.2
-3 -11 9 1.5 0.6
3 -11 -9 1.3 0.7
-3 11 9 0.8 0.6
3 11 -9 1.2 0.6
-3 11 8 1.9 0.7
3 -11 -8 3.1 0.8
-3 11 7 0.6 0.6
3 -11 -7 1.1 0.6
-3 11 6 29.6 2.2
3 -11 -6 24.2 2.1
3 11 -6 27.6 2.1
-3 -11 6 29.5 2.2
3 11 -5 15.7 1.5
-3 11 5 17.7 1.6
-3 -11 5 17.3 1.7
3 -11 -5 16.4 1.6
-3 -11 4 46.1 3
3 -11 -4 43.3 3
-3 11 4 45.4 2.9
3 11 -4 46.3 3
3 -11 -3 3.3 0.8
-3 -11 3 1.6 0.7
-3 11 3 1.6 0.8
3 11 -3 2.3 0.8
3 -11 -2 15.5 1.6
3 11 -2 17 1.6
-3 11 2 17 1.6
-3 -11 1 0.9 0.7
3 -11 -1 0.2 0.5
3 11 -1 1.2 0.7
-3 11 1 -0.1 0.5
-3 -11 0 7.7 1.1
-3 11 0 6.9 1.1
3 11 0 6.2 1
3 -11 0 6.9 1.2
-3 11 -1 3.4 0.8
3 11 1 4.4 0.9
3 -11 1 3.4 0.8
-3 -11 -1 5 1
3 -11 2 0.5 0.7
-3 -11 -2 0.4 0.7
3 11 2 -0.3 0.7
-3 11 -2 0.5 0.7
3 11 3 0.3 0.6
3 -11 3 0.5 0.6
-3 11 -3 1.5 0.6
-3 -11 -3 0.8 0.6
3 11 4 11.8 1.3
-3 -11 -4 11.8 1.3
3 11 5 2.7 0.8
-3 -11 -5 2.8 0.8
3 11 6 59.09 3.5
-3 11 -6 54.49 3.4
-3 -11 -6 52.49 3.5
3 -11 6 57.09 3.5
3 11 7 1.4 0.7
-3 -11 -7 2.5 0.8
3 -11 7 1.9 0.8
-3 11 -7 0.9 0.7
-3 11 -8 59.79 3.5
-3 -11 -8 52.19 3.5
3 11 8 59.89 3.6
3 -11 8 55.59 3.6
3 11 9 11 1.3
-3 11 -9 11.3 1.3
3 -11 9 13.3 1.4
-3 -11 -9 12.4 1.4
3 -11 10 1 0.7
-3 -11 -10 1.2 0.7
3 11 10 1.1 0.7
-3 11 -10 0.6 0.6
3 11 11 1.1 0.8
-3 11 -11 2.2 0.8
3 -11 11 0.3 0.8
-3 11 -12 7.9 1.1
3 -11 12 9.6 1.3
3 -11 13 1.1 0.8
-3 11 -13 0.2 0.6
3 -11 14 40.5 2.9
-3 11 -14 43.8 2.8
-3 11 -15 0.6 0.6
3 -11 15 0.2 0.8
3 -11 17 -0.2 0.7
-3 11 -17 0.9 0.7
-3 11 -18 0.7 0.6
3 -11 18 0.3 0.8
-3 11 -19 13.9 1.5
3 -11 19 19.1 1.7
3 -11 20 -0.2 0.7
-3 11 -20 -0.5 0.6
-4 0 30 351.96 17.2
4 0 -30 400.06 17.3
-4 0 29 -0.2 0.3
4 0 -29 0.4 0.4
-4 0 28 48.4 3.1
4 0 -28 68.89 3.3
-4 0 27 0.4 0.3
4 0 -27 0.6 0.4
4 0 -26 43.1 2.3
-4 0 26 32 2.2
-4 0 25 0.1 0.4
4 0 -25 0.2 0.4
-4 0 24 426.66 19.7
4 0 -24 433.76 19.8
-4 0 23 0 0.3
4 0 -23 0.1 0.4
-4 0 22 1037.9 45.7
4 0 -22 987.5 45.8
-4 0 21 0 0.3
4 0 -21 0 0.3
4 0 -20 561.04 25.3
-4 0 20 550.34 25.3
4 0 -19 0.1 0.3
-4 0 19 0.1 0.3
-4 0 18 34.2 2
4 0 -18 36.6 2
-4 0 17 0.2 0.3
4 0 -17 0.2 0.3
4 0 -13 0.2 0.4
-4 0 13 -0.1 0.3
-4 0 12 680.83 31.6
4 0 -12 718.13 31.6
-4 0 11 0.1 0.3
4 0 -11 0 0.3
-4 0 10 1028 44.9
4 0 -10 966.3 44.9
4 0 -9 -0.3 0.4
-4 0 9 0 0.3
-4 0 8 808.52 35.8
4 0 -8 781.92 35.8
-4 0 7 0.1 0.3
4 0 -7 0.1 0.4
-4 0 6 5164.88 222.88
4 0 -6 4807.52 222.88
-4 0 5 0.1 0.3
4 0 -5 0.2 0.3
4 0 -4 2740.73 121.49
-4 0 4 2691.33 121.39
4 0 -3 0 0.3
-4 0 3 -0.1 0.3
4 0 -2 4794.12 211.78
-4 0 2 4677.93 211.78
4 0 -1 0 0.3
-4 0 1 0.2 0.3
4 0 0 744.93 30
-4 0 0 592.44 30
-4 0 -1 0 0.2
4 0 1 -0.1 0.2
4 0 2 164.28 7.6
-4 0 -2 168.98 7.6
-4 0 -3 0.7 0.2
4 0 3 0.4 0.2
4 2 -30 199.78 9.5
-4 -2 30 191.68 9.5
-4 -2 29 121.19 6
4 -2 -29 119.79 5.8
4 2 -29 113.19 5.9
-4 2 29 115.39 5.7
-4 -2 28 39.4 2.5
4 -2 -28 36.8 2.2
4 2 -28 41 2.4
4 2 -27 3.3 0.6
4 -2 -27 3.4 0.5
-4 -2 27 2.3 0.6
-4 2 27 2.6 0.5
-4 -2 26 18.4 1.4
4 -2 -26 17.5 1.3
-4 2 26 14.2 1.2
-4 -2 25 4.6 0.7
-4 2 25 3.1 0.5
4 2 -25 3.6 0.7
4 -2 -25 4.2 0.6
4 2 -24 319.47 15.8
-4 -2 24 345.87 15.9
4 -2 -24 334.37 15.7
-4 2 24 361.16 15.7
-4 -2 23 0.7 0.5
4 -2 -23 0.6 0.4
4 2 -23 0.8 0.4
-4 2 23 0.5 0.3
4 -2 -22 890.81 39.2
4 2 -22 837.92 39.2
-4 -2 22 891.21 39.3
-4 2 22 844.72 39.1
-4 -2 21 8.4 0.9
4 2 -21 8.3 0.9
4 -2 -21 8.6 0.8
-4 2 21 8.9 0.8
-4 -2 20 263.67 12.8
-4 2 20 258.07 12.6
4 2 -20 259.77 12.8
4 -2 -19 233.08 10.3
-4 2 19 208.48 10.2
4 2 -19 210.98 10.3
-4 -2 19 223.08 10.4
-4 -2 18 59.89 3.2
4 2 -18 61.29 3.1
4 -2 -18 60.59 3.1
4 2 -17 40.5 2.5
-4 2 17 44.2 2.4
-4 -2 17 45.9 2.5
4 -2 -17 46.6 2.5
4 2 -16 305.97 14.7
-4 2 16 314.37 14.5
4 -2 -16 327.77 14.6
-4 2 15 68.79 3.5
4 -2 -15 71.09 3.6
4 2 -15 66.29 3.6
-4 -2 15 71.89 3.7
4 -2 -14 1926.41 80.29
4 2 -14 1692.03 80.29
-4 -2 14 1656.03 80.29
-4 2 14 1860.31 80.29
-4 2 13 94.89 4.3
4 2 -13 78.69 4.3
4 -2 -13 92.29 4.4
-4 -2 13 81.69 4.4
-4 2 12 2539.75 105.39
-4 -2 12 2269.17 105.39
4 2 -12 2154.08 105.39
4 -2 -12 2419.96 105.39
4 2 -11 51.19 2.6
-4 -2 11 41.5 2.5
4 2 -10 1026.1 50.09
-4 -2 10 1207.68 50.19
-4 -2 9 74.19 3.6
4 2 -9 65.89 3.5
4 2 -8 288.47 14.3
-4 -2 8 338.47 14.4
-4 -2 7 2918.71 122.79
4 2 -7 2580.84 122.69
4 2 -6 2348.67 110.29
-4 -2 6 2592.74 110.39
4 -2 -2 387.46 17.1
-4 2 2 328.97 17.1
4 2 -2 392.16 17
-4 -2 2 383.06 17.1
-4 2 1 516.55 26.1
4 -2 -1 649.04 26.2
4 2 -1 527.75 26.1
-4 -2 1 631.94 26.1
-4 -2 0 1158.68 51.09
4 2 0 1113.29 51.09
4 2 1 145.99 6.8
-4 -2 -1 144.29 6.8
-4 -2 -2 1671.83 75.79
4 2 2 1708.33 75.79
-4 -2 -3 135.39 6.2
4 2 3 130.69 6.2
-4 -2 -4 2184.78 96.89
4 2 4 2143.19 96.89
-4 -2 -5 77.69 4.1
4 2 5 92.19 4.1
-4 -2 -6 1829.52 78.69
4 2 6 1688.93 78.69
-4 -2 -7 851.41 40.9
4 2 7 969.9 40.9
-4 -2 -8 527.75 23.8
4 -2 9 154.98 7.1
4 2 9 147.59 6.9
-4 2 -9 156.98 7.1
-4 -2 -9 143.29 6.9
-4 -2 -10 186.08 8.1
4 -2 10 184.38 8.3
4 2 10 163.58 8
4 2 11 296.97 13.5
4 -2 11 299.07 13.7
-4 -2 -11 311.67 13.5
-4 2 -11 270.77 13.7
4 2 12 803.02 36.9
4 -2 12 803.92 37.2
-4 -2 -12 833.82 36.9
-4 2 -12 855.61 37.1
4 2 13 6.7 0.4
4 -2 13 7 0.7
-4 -2 -13 6.3 0.4
-4 2 -13 7.2 0.7
4 -2 14 1522.85 72.19
-4 2 -14 1686.33 72.19
-4 2 -15 2.3 0.4
4 -2 15 1.8 0.5
-4 2 -16 445.36 20.1
4 -2 16 433.16 20.1
4 -2 17 0.6 0.3
-4 2 -17 0.6 0.3
4 -2 18 5.7 0.8
-4 2 -18 6.8 0.7
-4 2 -19 46.3 2.5
4 -2 19 45.5 2.5
-4 2 -20 92.59 4.6
4 -2 20 91.49 4.6
-4 2 -21 14.8 1.1
4 -2 21 13.6 1.1
-4 2 -22 742.03 33
4 -2 22 715.23 33
-4 2 -23 49 2.6
4 -2 23 48.3 2.6
4 -2 24 158.58 7.3
-4 2 -24 144.29 7.2
4 -2 25 25.1 1.6
-4 2 -25 25 1.6
4 -2 26 55.89 2.9
-4 2 -26 50.79 2.8
-4 -4 31 38.6 2.6
4 4 -30 131.59 7
-4 -4 30 142.69 7.1
-4 -4 29 118.29 6.3
4 4 -29 125.09 6.3
-4 -4 28 6.9 1
4 4 -28 7.3 1
4 4 -27 8.5 1
-4 4 27 6.5 0.8
-4 -4 27 6.3 1
4 -4 -27 7.4 0.9
-4 -4 26 20.8 1.9
4 -4 -26 21.2 1.6
4 4 -26 22.1 1.8
4 4 -25 22.8 1.8
4 -4 -25 22.9 1.6
-4 4 25 22.6 1.6
-4 -4 25 24.1 1.8
-4 4 24 358.66 17
-4 -4 24 366.76 17.2
4 -4 -24 358.26 17
4 4 -24 380.86 17.2
-4 4 23 136.69 6.5
4 -4 -23 125.59 6.5
-4 -4 23 134.19 6.7
4 4 -23 127.59 6.7
4 4 -22 853.41 38.5
4 -4 -22 863.11 38.4
-4 4 22 837.12 38.3
-4 -4 22 819.12 38.5
4 4 -21 255.67 12.6
-4 -4 21 273.97 12.7
-4 4 21 257.57 12.5
4 -4 -21 271.97 12.5
-4 4 20 172.38 9.2
4 -4 -20 194.48 9.2
-4 -4 20 207.58 9.4
4 4 -20 188.68 9.3
-4 4 19 47.7 2.7
4 -4 -19 41.7 2.7
-4 -4 19 40.2 2.7
4 4 -18 33.1 2.2
-4 4 18 33.5 2.1
4 -4 -18 36.4 2.2
-4 -4 18 30.3 2.2
4 4 -17 10.5 1
-4 4 17 8.1 0.9
4 -4 -17 9.1 1
-4 -4 17 8 1
-4 -4 16 225.58 9.9
4 -4 -16 199.88 9.7
4 4 -16 189.88 9.7
-4 4 16 198.28 9.7
4 -4 -15 9 0.9
-4 4 15 8.6 0.9
4 -4 -14 415.86 18.6
-4 4 14 385.46 18.5
4 -4 -13 22.4 1.5
-4 4 13 20.9 1.5
-4 -4 13 20.5 1.5
4 4 -13 16.9 1.4
-4 -4 12 581.74 27.4
4 -4 -12 642.74 27.4
4 4 -12 570.24 27.3
4 4 -11 80.89 4.5
4 -4 -11 83.59 4.4
-4 4 11 86.29 4.4
-4 -4 11 89.99 4.5
-4 -4 10 141.89 7
4 4 -10 137.59 6.9
4 -4 -10 138.39 6.9
-4 4 10 137.89 6.9
-4 4 9 370.86 16
4 -4 -9 373.56 16.1
-4 -4 9 370.76 16.1
-4 4 8 30.6 2
4 4 -8 32 2.1
4 -4 -8 32.7 2.1
-4 -4 8 34.4 2.1
4 4 -7 231.68 11.5
4 -4 -7 257.07 11.5
-4 -4 7 234.88 11.5
-4 4 7 247.38 11.5
4 4 -6 1223.28 50.09
4 -4 -6 1028.8 49.99
-4 -4 6 1069.99 49.99
-4 4 6 1101.19 49.99
4 -4 -5 165.48 8.7
-4 4 5 184.48 8.7
4 4 -5 182.48 8.8
-4 -4 5 195.28 8.8
-4 -4 4 909.51 42.1
-4 4 4 938.11 42.1
4 -4 -4 997.5 42.2
4 4 -4 877.01 42
4 4 -3 276.47 13.2
4 -4 -3 311.17 13.3
-4 4 3 294.17 13.2
4 4 -2 1058.99 44.4
-4 4 2 972.7 44.3
-4 -4 2 1037.7 44.4
-4 4 1 89.39 4.3
4 4 -1 87.09 4.3
-4 -4 1 79.69 4.3
4 -4 0 0.4 0.6
4 4 0 0.3 0.4
-4 4 0 0.6 0.5
-4 -4 0 0.4 0.4
4 -4 1 68.19 3.8
-4 4 -1 73.99 3.7
4 4 1 77.69 3.7
4 -4 2 879.11 39.3
4 4 2 857.81 39.1
-4 -4 -2 834.62 39.2
-4 4 -2 880.31 39.1
-4 -4 -3 24.2 1.6
4 4 3 23 1.6
-4 4 -3 22.8 1.6
4 -4 4 871.11 40.3
-4 4 -4 929.81 40.3
-4 -4 -4 865.21 40.2
4 4 4 881.51 40.2
4 4 5 0.5 0.5
-4 4 -5 0.1 0.5
4 -4 5 0.1 0.5
-4 -4 -5 0.1 0.4
-4 4 -6 928.31 44.6
4 -4 6 924.51 44.7
4 -4 7 134.09 6.5
-4 -4 -7 126.99 6.3
4 4 7 124.09 6.3
-4 4 -7 132.79 6.4
4 4 8 133.09 6.9
-4 4 -8 141.69 7
-4 -4 -8 141.29 6.9
4 -4 8 157.58 7.2
4 -4 9 154.08 7.8
-4 4 -9 170.18 7.7
-4 -4 -9 150.98 7.6
4 4 9 156.58 7.6
-4 -4 -10 550.84 24.2
4 4 10 539.95 24.2
-4 4 -10 559.84 24.3
-4 -4 -11 13.8 1.1
4 4 11 15.1 1.1
-4 4 -11 14.2 1.2
4 -4 12 405.66 19.1
4 4 12 419.86 18.9
-4 4 -12 394.76 19
-4 -4 -12 420.46 18.9
4 -4 13 148.89 7.8
4 4 13 158.68 7.7
-4 -4 -13 159.68 7.7
-4 4 -13 173.88 7.9
4 -4 14 685.83 31.1
-4 -4 -14 695.03 30.8
-4 4 -14 674.93 31
4 4 14 662.43 30.8
4 -4 15 9.1 1
-4 -4 -15 8.5 0.8
4 4 15 8.7 0.8
-4 4 -15 9.1 1
4 4 16 274.07 12.8
-4 -4 -16 276.87 12.8
-4 -4 -17 131.19 6.7
4 4 17 149.88 6.7
4 4 18 2.4 0.5
-4 -4 -18 2.9 0.5
4 -4 19 76.89 4.2
-4 4 -19 75.29 4.1
-4 -4 -20 136.99 6.1
-4 4 -20 128.79 6.5
4 4 20 121.99 6.1
4 -4 20 121.09 6.5
4 -4 21 8.7 1
-4 4 -21 7.5 0.9
4 4 21 9.3 0.7
-4 -4 -21 8 0.7
-4 4 -22 149.69 6.1
-4 -4 -22 112.69 5.4
4 -4 22 160.28 6.3
-4 4 -23 1 0.5
4 -4 23 0.7 0.5
4 -4 24 181.48 8.7
-4 4 -24 170.18 8.6
4 -4 25 0.5 0.6
-4 4 -25 0.9 0.5
4 -4 26 72.29 4
-4 4 -26 67.19 3.9
4 6 -30 32.8 2.4
-4 -6 30 30.4 2.4
-4 -6 29 163.08 8.1
4 6 -29 149.59 8
-4 -6 28 39.2 2.7
4 6 -28 36.6 2.6
4 6 -27 1.4 0.7
-4 -6 27 1 0.7
4 6 -26 7.6 1.1
-4 -6 26 6.2 1.1
4 6 -25 9.6 1.1
4 -6 -25 8.2 1.1
-4 -6 25 7.4 1.1
-4 6 25 6.5 0.9
4 6 -24 10.9 1.2
4 -6 -24 11.1 1.2
-4 -6 24 9.9 1.3
-4 6 24 8.2 1
4 -6 -23 36.3 2.5
4 6 -23 39 2.5
-4 -6 23 35.9 2.5
-4 6 23 37.3 2.4
4 -6 -22 40.9 2.6
-4 -6 22 39.2 2.7
-4 6 22 37 2.5
4 6 -22 38.8 2.6
4 6 -21 84.09 4.3
-4 -6 21 74.29 4.3
4 -6 -21 76.99 4.2
4 -6 -20 43 2.8
4 6 -20 46.4 2.8
-4 6 20 42.1 2.7
-4 -6 20 40.8 2.8
4 6 -19 157.58 7.9
-4 -6 19 166.38 8
4 -6 -19 152.18 7.8
-4 6 19 147.69 7.7
4 -6 -18 16.2 1.4
-4 6 18 12.9 1.3
4 -6 -17 4.3 0.8
-4 6 17 5.1 0.9
-4 6 16 8.6 1
4 -6 -16 9.2 1.1
-4 -6 16 6.2 1
4 6 -16 9.3 1.1
4 -6 -15 11 1.2
-4 -6 15 10.5 1.2
4 6 -15 9.1 1.1
-4 6 15 9.8 1.1
4 -6 -14 47.7 2.9
-4 6 14 47.2 2.8
-4 -6 14 46.4 3
4 6 -14 44.2 2.8
4 -6 -13 86.99 4.5
4 6 -13 81.99 4.4
-4 -6 13 80.29 4.5
-4 6 13 73.29 4.3
4 6 -12 43.5 2.8
4 -6 -12 44.6 2.8
-4 6 12 46.3 2.8
-4 -6 12 43 2.8
4 6 -11 130.99 6.4
4 -6 -11 118.69 6.4
-4 -6 11 131.29 6.5
-4 6 11 114.99 6.2
-4 -6 10 139.39 7.7
4 -6 -10 157.98 7.8
4 6 -10 164.78 7.8
4 6 -9 255.37 11.1
4 -6 -9 202.58 10.9
-4 -6 9 241.78 11.1
-4 6 9 213.18 10.9
4 6 -8 17.1 1.5
-4 6 8 16.5 1.4
4 -6 -8 17.3 1.5
-4 -6 8 17.2 1.6
4 -6 -7 296.87 13.9
-4 6 7 324.17 13.9
4 6 -7 313.07 13.9
4 6 -6 349.87 17.9
-4 -6 6 392.66 18
-4 6 6 371.46 17.8
4 -6 -5 1.4 0.7
-4 6 5 0.2 0.6
-4 -6 5 0.5 0.5
4 6 -5 0.9 0.5
-4 6 4 421.56 19.3
4 6 -4 434.26 19.3
-4 -6 4 400.46 19.3
4 -6 -4 393.56 19.3
-4 -6 3 72.79 4.2
4 -6 -3 81.69 4.3
-4 6 3 74.39 4.1
4 6 -3 74.89 4.2
4 -6 -2 15.4 1.5
4 6 -2 15.7 1.4
-4 6 2 14.2 1.3
-4 -6 2 13.5 1.3
4 -6 -1 328.47 15.4
4 6 -1 330.37 15.3
-4 -6 1 308.47 15.3
-4 6 1 328.77 15.3
4 -6 0 14.9 1.5
4 6 0 14.2 1.3
-4 -6 0 12.9 1.3
-4 6 0 16.9 1.4
-4 6 -1 0.9 0.6
-4 -6 -1 1.1 0.6
4 -6 1 0.9 0.6
4 6 1 0.1 0.5
4 -6 2 79.99 4.5
4 6 2 88.99 4.4
-4 -6 -2 80.99 4.4
-4 6 -2 70.99 4.3
-4 -6 -3 2.3 0.7
4 -6 3 1.7 0.8
4 6 3 4.1 0.7
4 -6 4 11.5 1.3
-4 6 -4 12 1.3
4 6 4 10.5 1.2
-4 6 -5 5.2 0.9
4 6 5 6 0.9
4 -6 5 4.3 0.9
-4 -6 -5 6.4 0.9
-4 -6 -6 52.49 3.2
-4 6 -6 50.19 3.2
4 6 6 56.99 3.2
4 -6 6 57.49 3.4
4 -6 7 140.19 7.4
-4 -6 -7 139.89 7.3
-4 6 -7 148.59 7.4
4 6 7 151.18 7.3
-4 6 -8 20.4 1.7
4 -6 8 18.2 1.6
-4 -6 -8 19.7 1.6
4 6 8 19.2 1.5
-4 6 -9 430.86 19.7
-4 -6 -9 372.86 19.6
4 6 9 417.76 19.6
4 -6 10 136.79 7.4
-4 6 -10 151.78 7.5
4 6 10 161.38 7.4
-4 -6 -10 138.29 7.3
4 6 11 13.7 1.2
-4 -6 -11 11 1.2
4 -6 11 10.1 1.3
4 6 12 10.9 1.1
4 -6 12 10.5 1.3
-4 -6 -12 11.9 1.2
-4 6 -12 10.1 1.2
-4 6 -13 2 0.7
4 6 13 0.9 0.5
4 -6 13 0.6 0.7
-4 -6 -13 1.4 0.6
-4 -6 -14 303.67 14.5
4 6 14 318.57 14.5
-4 6 -14 282.97 14.5
4 -6 14 321.87 14.7
-4 6 -15 2.7 0.7
4 -6 15 3.9 0.9
-4 6 -16 71.69 4.1
4 -6 16 70.59 4.2
-4 6 -17 14.8 1.4
4 -6 17 12.2 1.4
4 6 18 33.5 2.2
-4 -6 -18 33.1 2.2
-4 -6 -19 62.69 3.6
4 6 19 68.99 3.7
4 6 20 24 1.8
-4 6 -20 29.1 2
-4 -6 -20 25.2 1.8
4 -6 20 24.4 2
-4 6 -21 39.7 2.6
4 -6 21 38.4 2.7
-4 6 -22 51.59 3.1
4 -6 22 43.7 3
4 -6 23 18.5 1.7
-4 6 -23 17.2 1.6
-4 6 -24 49.9 3.1
4 -6 24 48 3.1
-4 6 -25 4 0.8
4 -6 25 6.3 1
4 8 -28 1.9 0.7
-4 -8 28 1.1 0.9
-4 -8 26 13.9 1.5
4 8 -26 9.6 1.3
4 8 -25 1.2 0.6
-4 -8 25 1.1 0.7
-4 -8 24 1.1 0.7
4 8 -24 0.5 0.6
-4 -8 23 18 1.7
4 8 -23 20.5 1.8
4 -8 -22 1.4 0.6
-4 -8 22 1.8 0.8
4 8 -22 1 0.7
4 8 -21 35.4 2.4
4 -8 -21 35.1 2.5
-4 -8 21 30.7 2.4
4 -8 -20 0.4 0.6
-4 -8 20 -0.1 0.7
4 8 -20 -0.2 0.6
-4 8 19 3.5 0.9
4 8 -19 4.5 0.9
-4 -8 19 4.1 1
4 -8 -19 4.4 0.9
-4 8 18 12.1 1.3
4 8 -18 14.1 1.4
-4 -8 18 14.1 1.5
4 -8 -18 13.4 1.4
-4 8 17 30.3 2.3
4 8 -17 33.2 2.4
4 -8 -17 35.1 2.5
4 -8 -16 12 1.3
-4 8 16 11.1 1.2
-4 8 15 3.6 0.8
4 8 -15 2.9 0.8
4 -8 -15 2.5 0.8
-4 -8 15 2.4 0.8
-4 8 14 23.3 1.8
4 8 -14 21.8 1.8
-4 -8 14 21.5 1.9
4 -8 -14 24.4 2
-4 8 13 45.7 2.9
4 -8 -13 48.3 3.1
-4 -8 13 41.4 3
4 8 -13 48.9 3
4 -8 -12 1.5 0.7
-4 8 12 2.2 0.8
4 8 -12 1.5 0.7
-4 -8 12 2.5 0.9
-4 8 11 25.9 1.9
4 8 -11 25.9 2
-4 -8 11 23.4 2
4 -8 -11 22.1 1.9
-4 8 10 36.8 2.6
-4 -8 10 39.1 2.8
4 8 -10 38.8 2.7
4 -8 -10 45.8 2.8
4 -8 -9 0.6 0.8
-4 8 9 1.2 0.7
4 8 -9 0.7 0.7
-4 -8 9 1.2 0.7
4 -8 -8 32.6 2.3
-4 8 8 30.5 2.2
4 8 -8 26.6 2.1
-4 -8 8 29.3 2.2
4 -8 -7 5.8 1
4 8 -7 6.4 1
-4 -8 7 6.1 1
4 -8 -6 5 1
-4 -8 6 6.1 1.1
4 8 -6 6.2 1
4 8 -5 27.6 2.1
4 -8 -5 22.9 2.1
4 -8 -4 9.4 1.2
-4 8 4 10.5 1.2
4 8 -4 9.1 1.1
-4 -8 4 9.5 1.2
-4 8 3 9.3 1.1
-4 -8 3 6.2 1.1
4 8 -3 7.2 1.1
4 -8 -3 7.6 1.1
-4 8 2 16.8 1.5
4 8 -2 13.6 1.4
-4 -8 2 13.9 1.4
4 -8 -2 11.3 1.4
4 -8 -1 12.2 1.4
-4 8 1 10.5 1.3
-4 -8 1 11.7 1.4
4 8 -1 9.7 1.2
4 8 0 31.3 2.2
-4 8 0 30.5 2.2
4 -8 0 35.8 2.4
4 -8 1 43.8 2.8
-4 8 -1 36.6 2.6
-4 -8 -1 40.9 2.8
4 8 1 39.9 2.7
-4 -8 -2 10.2 1.3
-4 8 -2 12 1.3
4 -8 2 12.7 1.4
-4 8 -3 29.6 2.1
4 8 3 28.7 2.1
-4 -8 -3 27.2 2.1
4 -8 3 25.7 2.2
-4 8 -4 11.8 1.3
-4 -8 -4 9.3 1.2
4 8 4 12.7 1.3
4 -8 4 9.8 1.3
-4 -8 -5 20.6 1.8
4 8 5 22.8 1.8
4 -8 5 18.8 1.7
-4 8 -5 18.1 1.7
-4 -8 -6 1.6 0.7
4 8 6 1.6 0.7
-4 8 -6 1.2 0.7
4 -8 6 2.4 0.8
-4 -8 -7 10.4 1.3
4 -8 7 9.9 1.3
4 8 7 9.8 1.2
-4 8 -7 11.6 1.2
4 -8 8 26.3 2.1
-4 8 -8 25.6 2
4 8 8 27.6 2
-4 -8 -8 24.6 2
4 -8 9 98.09 5.2
-4 8 -9 99.99 5.1
-4 -8 -9 81.59 5
4 8 9 85.79 4.9
4 8 10 42 2.8
-4 -8 -10 47.6 2.9
-4 8 -10 42.5 2.8
4 -8 10 45.4 3
4 8 11 3 0.8
4 -8 11 4.7 1
-4 -8 -11 5.5 0.9
-4 8 -12 39.6 2.6
4 8 12 36.6 2.6
-4 -8 -12 38.6 2.6
4 -8 12 41.5 2.8
-4 -8 -13 55.59 3.4
4 -8 13 55.39 3.5
4 8 13 55.89 3.4
-4 8 -13 56.99 3.4
4 8 14 3 0.8
-4 -8 -14 3.8 0.8
-4 -8 -15 4.8 0.9
4 8 15 3.5 0.8
4 -8 16 2.6 0.9
-4 8 -16 1.7 0.7
-4 8 -17 5.6 0.9
4 -8 17 4 1
-4 8 -18 4.9 0.9
4 -8 18 3.5 0.9
4 -8 19 1.6 0.7
-4 8 -19 0.7 0.6
-4 8 -20 1.8 0.8
4 -8 20 2.1 0.9
4 -8 21 41.1 2.9
-4 8 -21 45.4 2.9
4 -8 22 6.5 1.1
-4 8 -22 7.2 1
-4 8 -23 4.8 0.9
4 -8 23 4.5 0.9
-4 -10 25 4.8 0.9
4 10 -25 4.6 0.8
4 10 -24 19.4 1.7
-4 -10 24 19.2 1.7
-4 -10 23 8.9 1.2
4 10 -23 8.4 1.2
4 10 -22 13.8 1.4
-4 -10 22 12.8 1.5
4 10 -21 5.3 1
-4 -10 21 5.8 1.1
4 10 -19 8.2 1.1
-4 10 18 4.6 0.9
-4 -10 18 4.6 1
4 -10 -18 2.3 0.8
4 10 -18 4.3 0.9
-4 10 17 2 0.8
-4 -10 17 3.6 0.9
4 10 -17 3.4 0.8
4 -10 -17 4.5 0.9
-4 -10 16 19.5 1.8
4 -10 -16 20.3 1.8
-4 10 16 18.5 1.7
4 10 -16 22.2 1.8
4 10 -15 0.1 0.6
-4 -10 15 -0.3 0.7
-4 10 15 -0.1 0.6
4 -10 -15 0.3 0.6
4 10 -14 18.5 1.6
-4 10 14 17.2 1.6
4 -10 -14 18.9 1.7
-4 -10 14 14.7 1.5
4 -10 -13 6.7 1.1
-4 -10 13 5.6 1
-4 10 13 6.1 1
4 10 -13 6 1
4 10 -12 40 2.8
-4 -10 12 37 2.8
4 -10 -12 43.4 2.9
-4 10 12 40.9 2.8
4 10 -11 0.6 0.6
-4 10 11 0.7 0.6
4 -10 -11 0.7 0.7
-4 -10 11 0.7 0.7
4 -10 -10 4.3 0.9
4 10 -10 3.1 0.7
-4 10 10 2.9 0.8
-4 -10 10 3 0.8
-4 -10 9 1.2 0.8
4 10 -9 1.2 0.7
4 -10 -9 1.7 0.7
-4 10 9 1.2 0.7
-4 10 8 17.5 1.6
4 -10 -8 15.6 1.6
4 -10 -7 0.8 0.7
-4 10 7 1.4 0.8
-4 10 6 11.4 1.3
-4 -10 6 10.6 1.4
4 10 -6 11.6 1.4
4 -10 -6 10.7 1.3
-4 -10 5 -0.2 0.5
4 10 -5 0.6 0.6
4 -10 -5 -0.6 0.5
4 -10 -4 42.5 3
-4 -10 4 42.1 3
-4 10 4 48 3
4 10 -4 47.7 3
4 -10 -3 3 0.9
-4 10 3 3.2 0.8
4 10 -3 5 0.9
4 10 -2 18.1 1.6
-4 -10 2 15.2 1.6
4 -10 -2 15.2 1.6
-4 10 2 12.8 1.4
4 -10 -1 6.8 1.1
-4 10 1 5.2 0.9
4 -10 0 0.1 0.7
4 10 0 0.4 0.5
-4 -10 0 -0.1 0.5
-4 10 0 -0.1 0.6
4 -10 1 3.8 0.8
-4 10 -1 4.9 0.9
4 10 1 3.7 0.9
-4 -10 -1 3.5 0.9
-4 10 -2 17.1 1.7
4 10 2 19 1.7
-4 -10 -2 19.4 1.8
4 -10 2 18.4 1.8
4 10 3 1 0.7
-4 -10 -3 1 0.7
-4 -10 -4 34.4 2.5
4 10 4 34.4 2.5
-4 -10 -5 1 0.6
4 10 5 1 0.6
-4 -10 -6 2.1 0.7
-4 10 -6 1.7 0.7
4 -10 6 -0.1 0.7
4 10 6 1.5 0.7
-4 10 -7 10.7 1.2
4 10 7 9.4 1.2
4 -10 7 10.3 1.3
4 10 8 43 3
-4 10 -8 47.6 3
-4 -10 -8 52.49 3.2
4 -10 8 47.1 3.1
-4 10 -9 2.2 0.8
4 -10 9 1.1 0.8
-4 -10 -9 1.6 0.8
4 10 9 1.8 0.8
-4 10 -10 41.8 2.9
-4 -10 -10 42.7 3
4 10 10 46.3 3
4 -10 10 47.9 3.1
-4 -10 -11 1.5 0.7
4 10 11 0.4 0.7
-4 10 -11 0.6 0.7
-4 10 -12 16.6 1.6
4 -10 12 12 1.5
4 10 12 17.2 1.6
-4 -10 -12 14.8 1.5
-4 10 -13 6.1 1
4 -10 13 4.6 1
4 -10 14 33.7 2.5
-4 10 -14 35.2 2.5
4 -10 15 0.2 0.8
-4 10 -15 -0.1 0.7
4 -10 16 5.2 1
-4 10 -16 7.2 1
4 -10 19 4.3 1
-4 10 -19 3.4 0.8
4 -10 20 1.6 0.8
-4 10 -20 1.7 0.8
-4 10 -21 7.3 1.1
4 -10 21 6.9 1.1
-4 -12 12 28.4 2.2
4 12 -12 27.1 2.1
-4 12 12 28.3 2.1
-4 -12 11 10.9 1.3
4 12 -11 10.1 1.2
4 12 -10 12.9 1.3
-4 -12 10 10.3 1.3
4 12 -9 1 0.5
-4 -12 9 1.2 0.6
4 12 -8 2.3 0.8
-4 -12 8 1.7 0.8
-4 -12 7 5.1 0.8
4 12 -7 3.9 0.8
4 12 -6 39.2 2.7
-4 -12 6 41 2.8
4 12 -5 14.6 1.4
-4 -12 5 10.3 1.3
-4 -12 4 38.4 2.7
4 -12 -2 10.4 1.3
-4 12 2 10.2 1.2
-4 12 1 3.1 0.7
4 -12 -1 3.2 0.7
-4 12 0 -0.1 0.7
-4 -12 0 1 0.7
4 -12 0 0.3 0.7
4 12 0 0.4 0.7
4 -12 1 4.7 0.9
4 12 1 3.2 0.9
-4 12 -1 3.3 0.8
-4 -12 -1 4.2 0.9
4 12 2 8.7 1.1
-4 12 -2 7.7 1.1
-4 -12 -2 9 1.2
4 -12 2 8.4 1.2
-4 12 -3 0.4 0.5
-4 -12 -3 0.2 0.5
4 12 3 0.5 0.6
4 -12 3 0.2 0.6
-4 -12 -4 32.7 2.4
4 12 4 30.9 2.3
4 -12 4 28.9 2.3
-4 12 -4 31.7 2.3
-4 -12 -5 0.2 0.6
-4 12 -5 0.3 0.5
4 -12 5 0.1 0.5
4 12 5 -0.2 0.6
-4 12 -6 27.8 2
-4 -12 -6 26.4 2.1
4 -12 6 22.4 2
4 12 6 24.8 2
-4 12 -7 1.4 0.7
4 -12 7 0.8 0.7
4 12 7 1.3 0.7
-4 -12 -7 1.5 0.8
-4 12 -8 8.7 1
4 -12 8 8.4 1.1
-4 12 -9 12 1.3
4 -12 9 12.6 1.4
5 1 -31 4.8 0.7
-5 -1 31 4.4 0.7
5 -1 -30 156.78 8
5 1 -30 158.78 8.1
-5 1 30 173.18 8
-5 -1 30 178.78 8.2
5 -1 -29 13.9 1.1
-5 1 29 11.3 1
-5 -1 29 12.9 1.1
5 1 -28 8.3 0.9
-5 1 28 9 0.9
-5 -1 28 9.4 0.9
5 -1 -28 9.9 0.9
-5 -1 27 5.4 0.8
5 1 -27 4.4 0.8
5 -1 -27 4.7 0.7
-5 1 27 2.6 0.6
5 -1 -26 248.58 11.7
-5 -1 26 256.07 11.8
5 1 -26 236.88 11.8
-5 1 26 254.17 11.7
-5 -1 25 2.1 0.5
5 1 -25 1.6 0.5
-5 1 25 1.5 0.4
5 -1 -25 1.5 0.5
-5 -1 24 590.14 27.1
-5 1 24 610.24 27
5 1 -24 596.74 27.2
5 -1 -24 576.24 27.1
5 1 -23 2.3 0.6
-5 1 23 1.7 0.5
-5 -1 23 2.6 0.6
5 -1 -23 2 0.5
-5 -1 22 428.36 20
5 -1 -22 417.56 19.9
5 1 -22 444.86 20
-5 1 22 444.76 19.9
-5 1 21 1.1 0.4
-5 -1 21 0.7 0.5
5 1 -21 2.2 0.5
5 -1 -21 1.7 0.5
-5 1 20 23.1 1.4
5 1 -20 19.2 1.4
-5 -1 20 22.5 1.5
5 -1 -20 21 1.4
-5 -1 19 137.39 7.2
5 -1 -19 168.38 7.3
5 1 -19 158.38 7.3
-5 1 19 140.59 7.1
-5 1 18 122.29 5.7
5 1 -18 109.59 5.7
5 -1 -18 124.39 5.7
-5 -1 18 110.69 5.7
5 -1 -17 14.9 1.1
5 1 -17 17.1 1.2
-5 -1 17 16 1.2
-5 1 17 17.2 1.1
5 -1 -16 1188.58 51.79
-5 -1 16 1176.88 51.89
-5 1 16 1092.09 51.79
5 1 -15 65.29 3.3
-5 -1 15 60.09 3.3
-5 -1 14 3450.65 153.68
5 1 -14 3411.06 153.68
5 1 -13 114.09 5.3
-5 -1 13 103.29 5.3
5 1 -12 1347.07 61.99
-5 -1 12 1409.46 61.99
-5 1 11 1002 48.1
5 -1 -11 1141.79 48.2
5 -1 -10 483.45 20.8
-5 1 10 435.56 20.7
5 -1 -9 555.74 28.6
-5 1 9 701.53 28.6
5 1 -8 2190.98 90.29
5 -1 -8 1946.51 90.29
-5 1 8 1956.1 90.19
-5 -1 8 1978.9 90.19
5 1 -7 223.08 10.7
-5 -1 7 233.08 10.7
-5 1 7 234.98 10.7
5 -1 -7 241.08 10.8
5 -1 -6 68.19 3.4
-5 -1 6 69.49 3.4
-5 1 6 72.09 3.4
5 1 -6 66.69 3.4
-5 -1 5 3520.45 150.58
-5 1 5 3529.95 150.58
5 1 -5 3390.76 150.58
5 -1 -5 3017.5 150.58
-5 -1 4 1833.42 73.69
-5 1 4 1889.61 73.69
5 -1 -4 1757.52 73.69
5 -1 -3 168.78 7.6
-5 1 3 164.48 7.6
5 1 -3 158.98 7.6
-5 -1 3 161.88 7.6
5 -1 -2 762.82 37.5
5 1 -2 824.32 37.4
-5 1 2 808.32 37.4
5 -1 -1 1059.09 52.89
-5 1 1 1261.47 52.89
5 1 -1 1221.08 52.79
-5 -1 1 1164.48 52.79
5 1 0 235.58 10.6
5 -1 0 223.78 10.7
-5 -1 0 212.38 10.6
-5 -1 -1 622.84 28.4
5 1 1 623.84 28.4
5 -1 1 624.54 28.5
-5 1 -1 658.43 28.5
5 -1 2 2702.13 108.69
5 1 2 2582.04 108.59
-5 -1 -2 2473.25 108.59
5 -1 3 23.7 1.5
-5 -1 -3 27.4 1.4
-5 1 -3 28.1 1.4
5 1 3 25.1 1.4
5 1 4 670.43 29
5 -1 4 612.64 29.2
-5 -1 -4 688.33 29
-5 1 -4 580.44 29.1
5 1 5 264.37 12.6
5 -1 5 287.67 12.7
-5 1 -5 269.97 12.7
-5 -1 -5 293.07 12.6
5 -1 6 1258.37 59.99
-5 1 -6 1409.46 59.99
5 -1 7 343.47 16.4
-5 1 -7 377.86 16.4
5 -1 8 1051.39 47.1
-5 1 -8 1047.3 47.1
5 -1 9 47.7 2.5
5 -1 10 155.38 7.2
-5 1 -10 152.48 7.1
-5 1 -11 349.67 15.9
5 -1 11 351.06 15.9
-5 1 -12 3714.43 162.18
5 -1 12 3533.85 162.18
5 -1 13 176.88 8.4
-5 1 -13 187.08 8.4
-5 1 -14 1503.25 65.49
5 -1 14 1415.76 65.49
-5 1 -15 92.69 4.5
5 -1 15 97.79 4.5
-5 1 -16 123.19 6
5 -1 16 133.89 6
5 -1 17 80.39 3.9
-5 1 -17 81.69 3.9
5 -1 18 13.1 0.9
-5 1 -18 14.3 0.9
-5 1 -19 4.4 0.4
5 -1 19 4.4 0.4
5 -1 20 569.84 26.8
-5 1 -20 620.94 26.8
-5 1 -21 4.8 0.4
5 -1 21 5.3 0.4
5 -1 22 445.76 20.4
-5 1 -22 461.05 20.5
-5 1 -23 30.3 1.6
5 -1 23 30.9 1.6
-5 -3 31 77.39 4.2
5 3 -31 69.39 4.1
5 3 -30 127.79 6.5
-5 -3 30 122.59 6.4
5 3 -29 160.18 7.5
5 -3 -29 147.29 7.3
-5 3 29 148.69 7.3
-5 -3 29 139.39 7.5
5 -3 -28 54.99 2.8
-5 -3 28 43.3 2.9
5 3 -28 42 2.8
-5 3 28 50.19 2.8
5 3 -27 3.2 0.7
-5 3 27 2.4 0.5
5 -3 -27 3.2 0.6
-5 -3 27 2.4 0.7
-5 3 26 79.49 4.2
-5 -3 26 87.99 4.5
5 -3 -26 81.39 4.2
5 3 -26 74.69 4.3
5 -3 -25 103.89 5.3
-5 -3 25 103.09 5.4
5 3 -25 106.29 5.4
-5 3 25 101.39 5.2
-5 3 24 1218.98 55.09
5 3 -24 1243.68 55.29
-5 -3 24 1241.08 55.29
5 -3 -24 1187.88 55.19
5 -3 -23 262.47 12.9
-5 3 23 281.47 12.8
-5 -3 23 276.97 13
5 3 -23 273.17 13
-5 3 22 620.04 29.3
5 -3 -22 671.33 29.4
5 -3 -21 80.99 4.2
-5 3 21 77.39 4.1
5 -3 -20 5 0.7
5 3 -20 5.8 0.8
-5 -3 20 4.5 0.7
5 -3 -19 63.39 3.5
-5 3 19 64.29 3.4
-5 -3 19 64.59 3.6
5 3 -19 68.29 3.6
5 -3 -18 139.59 7.4
5 3 -18 151.38 7.5
-5 -3 18 162.18 7.6
-5 3 18 161.88 7.4
-5 3 17 94.39 5
5 -3 -17 99.19 5
5 3 -17 105.39 5.1
-5 3 16 381.86 17.3
5 -3 -16 333.67 17.3
-5 -3 16 355.76 17.4
5 3 -15 609.84 26.7
5 -3 -15 582.54 26.6
-5 3 15 575.44 26.6
-5 -3 15 564.44 26.7
5 3 -14 1265.87 51.39
-5 -3 14 1032 51.29
-5 3 14 1186.88 51.19
5 -3 -14 1070.59 51.29
-5 3 13 69.29 3.6
-5 -3 13 67.29 3.7
5 -3 -13 66.99 3.6
5 3 -13 66.89 3.6
-5 3 12 1346.67 64.49
5 3 -12 1337.87 64.59
5 -3 -12 1471.65 64.59
-5 3 11 204.28 9.6
5 -3 -11 216.78 9.8
5 3 -11 203.78 9.7
-5 -3 11 192.68 9.8
5 3 -10 19.5 1.4
-5 3 10 17.2 1.3
5 -3 -10 16.7 1.3
-5 -3 10 18.2 1.4
5 3 -9 155.98 6.9
-5 3 9 128.79 6.8
5 -3 -9 145.09 6.9
-5 -3 9 140.69 6.9
5 -3 -8 1512.45 68.29
-5 -3 8 1534.05 68.39
-5 3 8 1645.14 68.29
5 3 -8 1389.86 68.29
5 -3 -7 406.86 19.2
-5 -3 7 370.86 19.1
5 3 -7 412.96 19.2
5 3 -6 647.34 27.3
5 -3 -6 659.83 27.4
-5 3 6 648.84 27.3
5 -3 -5 263.67 11.7
-5 3 5 254.17 11.6
5 3 -5 236.68 11.6
-5 -3 5 240.38 11.6
-5 3 4 1810.92 81.69
-5 -3 4 1870.11 81.69
5 3 -4 1789.12 81.69
5 -3 -4 1804.52 81.79
-5 3 3 25.7 1.7
-5 -3 3 25.1 1.7
5 3 -3 24.7 1.7
-5 -3 2 271.47 13.5
5 3 -2 288.27 13.5
-5 3 2 285.27 13.5
5 -3 -1 429.26 21
-5 3 1 482.75 21
-5 -3 1 467.65 21
5 3 -1 454.75 21
-5 3 0 1 0.5
-5 -3 0 0.5 0.5
5 3 0 1.4 0.5
5 -3 0 0.6 0.5
5 -3 1 197.68 10
-5 -3 -1 234.38 10
-5 3 -1 195.48 10
5 3 1 224.48 10
-5 3 -2 1915.01 84.09
5 -3 2 1757.62 84.09
-5 -3 -2 1828.22 84.09
5 3 2 1977.4 84.09
-5 3 -3 21.9 1.4
5 -3 3 21.3 1.5
-5 -3 -3 19.3 1.4
5 3 3 18.6 1.3
5 3 4 3325.27 132.59
-5 -3 -4 2976 132.59
5 -3 4 3071.29 132.69
-5 -3 -5 121.89 5.9
5 3 5 123.59 5.9
5 -3 5 127.19 6.1
-5 3 -5 115.19 5.9
-5 3 -6 198.48 9.2
5 -3 6 190.98 9.3
-5 3 -7 521.35 22
5 -3 7 440.46 22
5 -3 8 17.7 1.3
-5 3 -8 12.7 1.1
-5 3 -9 99.79 5.1
5 -3 9 104.09 5.2
-5 3 -10 1118.29 47.9
-5 -3 -10 1080.49 47.7
5 3 10 1006.4 47.7
-5 3 -11 83.99 4.2
-5 -3 -11 80.19 4
5 3 11 79.19 4
5 -3 11 84.09 4.2
-5 -3 -12 373.86 15.9
5 3 12 364.86 15.9
-5 3 -12 351.06 16.1
5 -3 13 12.3 1.1
-5 3 -13 11.3 1
-5 -3 -13 12.4 0.9
5 3 13 12.1 0.9
-5 -3 -14 653.73 30.3
5 3 14 691.93 30.3
-5 3 -14 647.34 30.6
5 -3 14 695.33 30.7
-5 3 -15 29 1.8
-5 -3 -15 32.5 1.6
5 -3 15 22.7 1.8
5 3 15 25.3 1.5
5 3 16 169.48 8.1
-5 -3 -16 180.08 8.1
5 -3 16 175.38 8.5
-5 3 -16 180.58 8.4
-5 3 -17 26.7 1.7
5 -3 17 25.1 1.7
-5 -3 -17 27.2 1.2
5 -3 18 98.29 4.9
-5 3 -18 93.69 4.9
5 -3 19 74.99 3.8
-5 3 -19 67.59 3.8
5 -3 20 474.15 22.2
-5 3 -20 488.25 22.1
5 -3 21 9.7 1
-5 3 -21 10 1
5 -3 22 370.96 17.5
-5 3 -22 380.36 17.4
5 -3 23 27.1 1.9
-5 3 -23 29.8 1.9
5 -3 24 103.69 5.5
-5 3 -24 111.39 5.5
-5 3 -25 4.7 0.7
5 -3 25 6.1 0.8
-5 -5 31 126.59 7
5 5 -31 145.79 7.1
-5 -5 30 39.5 2.7
5 5 -30 40.8 2.7
-5 -5 29 151.78 7.7
5 5 -29 146.49 7.6
-5 -5 28 0.4 0.6
5 5 -28 0.4 0.5
5 -5 -27 7.7 1
-5 5 27 5.6 0.8
-5 -5 27 6 1
5 5 -27 6.1 1
5 -5 -26 224.68 10.8
-5 5 26 219.98 10.7
-5 5 25 37.3 2.5
5 -5 -25 45.3 2.7
5 5 -24 99.79 5.6
5 -5 -24 106.99 5.5
-5 -5 24 98.49 5.6
-5 5 24 116.39 5.5
5 5 -23 150.78 7.7
5 -5 -23 140.79 7.6
-5 5 23 148.89 7.6
5 -5 -22 48.5 3.1
-5 -5 22 51.99 3.2
-5 5 22 54.69 3.1
5 5 -22 52.99 3.2
5 -5 -21 45.4 2.8
-5 -5 21 43.3 2.9
-5 5 21 45.5 2.8
-5 -5 20 106.69 5.9
-5 5 20 119.29 5.8
5 5 -20 107.09 5.8
5 -5 -20 119.09 5.9
5 -5 -19 128.69 6.5
5 5 -19 121.49 6.4
-5 -5 19 128.19 6.5
-5 5 19 126.09 6.4
5 5 -18 31 2.2
-5 5 18 34.2 2.1
-5 -5 18 29 2.2
5 5 -17 19 1.6
-5 -5 17 14.5 1.5
-5 -5 16 52.99 3
5 5 -16 42.6 2.8
5 5 -15 56.09 3.1
-5 -5 15 44.5 3
5 5 -14 414.06 18
-5 -5 14 353.86 17.9
-5 -5 13 119.39 6
5 5 -13 109.29 5.9
-5 -5 12 58.09 3.4
5 5 -12 56.89 3.3
-5 -5 11 332.97 15.8
5 5 -11 336.27 15.7
5 5 -10 0.5 0.6
-5 -5 10 0.2 0.7
5 5 -9 179.08 8.7
-5 -5 9 174.18 8.7
-5 -5 8 89.09 5.1
5 5 -8 108.09 5.2
-5 -5 7 21.9 1.9
5 5 -7 28.7 1.9
-5 -5 6 521.55 24.4
5 5 -6 536.45 24.4
5 5 -5 504.15 22.4
-5 -5 5 461.85 22.3
-5 -5 1 121.49 5.2
5 5 -1 80.69 4.9
-5 5 0 24.4 1.7
5 5 0 24.1 1.7
5 -5 0 18.5 1.7
-5 -5 0 24.3 1.7
5 -5 1 39.8 2.7
-5 5 -1 42 2.7
-5 -5 -1 44.1 2.6
5 5 1 45.2 2.6
5 -5 2 312.37 15.6
-5 5 -2 318.27 15.5
5 5 2 363.26 15.5
-5 -5 -2 328.87 15.5
5 5 3 16.2 1.3
5 -5 3 12.8 1.4
-5 5 -3 14.2 1.3
-5 -5 -3 16.6 1.3
-5 5 -4 737.93 33.4
5 -5 4 701.83 33.5
5 5 4 723.93 33.4
-5 -5 -4 759.12 33.4
5 -5 5 13.4 1.3
-5 -5 -5 13.1 1.2
-5 5 -5 13.7 1.3
5 5 5 15.4 1.3
5 5 6 223.18 12.4
5 -5 6 234.48 12.6
-5 5 -7 64.99 3.6
5 5 7 63.79 3.4
5 -5 7 54.89 3.5
-5 -5 -7 63.69 3.4
5 5 8 1.5 0.5
5 -5 8 1.5 0.7
-5 5 -8 1.2 0.6
-5 -5 -8 1.6 0.5
5 -5 9 122.79 6.7
5 5 9 134.69 6.5
-5 -5 -9 130.69 6.5
-5 5 -9 133.39 6.6
5 5 10 117.79 5.8
5 -5 10 124.39 6.1
-5 -5 -10 108.19 5.8
-5 -5 -11 47.9 2.7
-5 5 -11 48.3 2.9
5 5 11 47.9 2.7
5 -5 11 45.1 2.9
5 5 12 551.44 24.1
-5 -5 -12 515.75 24
5 -5 12 540.65 24.3
-5 5 -12 488.25 24.1
-5 -5 -13 11 1
5 5 13 9 1
-5 5 -13 10.1 1.1
5 -5 13 7.2 1
5 -5 14 279.97 12.9
-5 5 -14 259.27 12.7
5 5 14 275.87 12.6
-5 -5 -14 257.87 12.6
-5 5 -15 39.3 2.5
-5 -5 -15 37.6 2.3
5 -5 15 37.6 2.6
5 5 15 40.1 2.3
-5 5 -16 4.3 0.8
5 -5 16 5.1 0.9
5 5 16 5.4 0.7
-5 -5 -16 5 0.7
5 -5 17 92.99 5.5
-5 5 -17 97.59 5.4
5 5 17 106.89 5.3
-5 5 -18 32.8 2.3
5 -5 18 36.9 2.5
-5 -5 -18 35.3 2.2
5 5 18 36.4 2.1
5 -5 19 69.79 4
-5 5 -19 65.59 3.8
5 5 19 68.79 3.6
-5 -5 -19 67.49 3.6
5 -5 20 59.59 3.3
5 5 20 51.39 2.9
-5 5 -20 51.09 3.1
-5 -5 -20 53.09 2.9
-5 5 -21 1.7 0.6
-5 -5 -21 2.7 0.5
5 -5 21 2.1 0.7
5 5 21 1.8 0.4
-5 5 -22 68.99 4
5 -5 22 74.89 4.1
-5 5 -23 4 0.8
5 -5 23 3.4 0.8
-5 5 -24 80.29 4.4
5 -5 24 76.49 4.4
5 -5 25 13.3 1.4
-5 5 -25 13.9 1.4
-5 -7 30 3.8 0.9
5 7 -30 3.2 0.8
-5 -7 29 9.2 1.3
5 7 -29 8.6 1.2
-5 -7 28 2 0.8
5 7 -28 2 0.7
-5 -7 27 16 1.6
5 7 -27 16.6 1.6
5 7 -26 0.4 0.6
-5 -7 26 0.5 0.7
-5 7 24 1 0.6
5 -7 -24 1.1 0.6
5 7 -23 49.4 3
5 -7 -23 47.6 3
-5 7 23 43.4 2.8
-5 -7 23 40.8 2.9
-5 7 22 0.1 0.5
5 7 -22 0.4 0.5
-5 -7 22 0.1 0.6
5 -7 -22 0.7 0.6
5 -7 -21 50.19 3.2
5 7 -21 51.49 3.2
-5 7 21 49.5 3.1
-5 -7 21 52.09 3.3
5 7 -20 9.5 1.2
-5 -7 20 7.9 1.2
5 -7 -20 8.7 1.1
-5 7 20 8.5 1.1
-5 -7 19 98.19 5.5
-5 7 19 109.99 5.5
5 -7 -19 94.49 5.5
5 7 -19 103.79 5.5
-5 -7 18 13.2 1.4
5 -7 -18 10.6 1.3
-5 7 18 13.6 1.4
5 7 -18 16.2 1.5
-5 7 17 6.6 1
5 -7 -17 6.6 1
5 7 -17 5.8 1
-5 -7 17 4.9 1
-5 7 16 11.3 1.2
5 -7 -16 9.1 1.2
5 7 -16 10.3 1.3
-5 -7 16 9.5 1.2
-5 7 15 6.3 1
5 7 -15 8.3 1.1
-5 -7 15 8.7 1.2
5 -7 -15 8.1 1.1
5 7 -14 11.6 1.3
-5 7 14 12.8 1.3
5 -7 -14 12.1 1.3
-5 -7 14 10.5 1.3
5 -7 -13 126.89 6.4
-5 7 13 120.19 6.2
-5 -7 13 118.89 6.4
5 7 -13 116.69 6.3
5 -7 -12 72.09 3.9
5 7 -12 65.19 3.8
-5 7 12 64.39 3.7
-5 -7 12 59.29 3.8
-5 7 11 49.8 3.1
-5 -7 11 48.7 3.2
5 7 -11 54.49 3.2
5 -7 -11 49.99 3.2
-5 7 10 37 2.5
-5 -7 10 32.3 2.6
5 -7 -9 68.69 4
5 7 -9 63.79 4
-5 7 9 70.79 3.9
-5 -7 9 72.89 4.1
-5 7 8 110.19 5.9
5 -7 -8 118.29 6.1
5 -7 -7 62.39 3.7
-5 7 7 62.49 3.6
5 -7 -6 145.89 8.4
-5 7 6 196.58 8.6
5 -7 -5 8.7 1.2
-5 7 5 7.5 1.1
5 7 -5 5.9 1
-5 -7 5 6.5 1.1
5 -7 -4 3.1 0.8
-5 7 4 1.7 0.6
5 7 -4 2.7 0.8
-5 -7 4 2 0.8
-5 -7 3 309.27 14.8
-5 7 3 292.37 14.7
5 -7 -3 334.77 14.9
5 7 -3 310.47 14.8
5 -7 -2 69.69 4.2
-5 7 2 64.99 4.1
-5 -7 2 69.49 4.1
5 7 -1 154.78 7.9
-5 7 1 168.88 8
-5 -7 1 149.69 8
5 -7 -1 161.18 8.1
-5 -7 0 47.2 3
5 7 0 46.4 2.9
5 7 1 7.9 1.1
-5 -7 -1 7 1
5 7 2 18.7 1.6
5 7 3 10.5 1.2
-5 -7 -3 11.7 1.3
5 7 4 6.2 1
-5 -7 -4 8.1 1.1
5 7 5 36.4 2.3
-5 -7 -5 31.5 2.3
-5 7 -5 30.7 2.3
5 -7 5 33.6 2.4
-5 7 -6 7.5 1.1
5 7 6 8.4 1.1
5 -7 6 7.9 1.2
-5 -7 -6 6.2 0.9
-5 7 -7 32.1 2.3
5 -7 7 27.6 2.3
-5 -7 -7 35.2 2.3
5 7 7 33.3 2.2
-5 -7 -8 15 1.4
-5 7 -8 12.8 1.4
5 7 8 13.3 1.3
5 -7 8 17.1 1.6
5 7 9 75.29 4
-5 -7 -9 74.29 4
-5 7 -9 62.29 3.9
5 -7 9 68.79 4.1
5 -7 10 37.5 2.5
5 7 10 34.9 2.3
-5 7 -10 34.5 2.4
-5 -7 -10 32.2 2.3
-5 7 -11 36.8 2.6
5 7 11 40.6 2.6
-5 -7 -11 41.7 2.6
5 -7 11 41.2 2.7
5 7 12 19.2 1.6
-5 -7 -12 19.5 1.6
5 -7 12 18 1.6
-5 7 -12 18.9 1.6
-5 7 -13 24.5 1.9
5 7 13 24.6 1.9
-5 -7 -13 26.1 1.9
5 -7 13 20.3 1.9
-5 -7 -14 1.9 0.7
-5 7 -14 2.3 0.7
5 -7 14 2 0.7
5 7 14 1 0.7
-5 7 -15 11 1.2
5 7 15 10.4 1.2
5 -7 15 10.2 1.3
-5 -7 -15 9.8 1.1
-5 -7 -16 21.7 1.8
-5 7 -16 24.6 1.9
5 7 16 21.9 1.8
5 -7 16 20.8 1.9
-5 7 -17 22.4 1.9
5 -7 17 28.1 2.1
-5 -7 -17 24.1 1.9
5 7 17 24.6 1.9
-5 -7 -18 9.3 1.1
5 7 18 9 1.1
5 -7 18 8.8 1.2
-5 7 -18 8.6 1.1
-5 7 -19 37.7 2.5
5 -7 19 33.8 2.5
-5 7 -20 1.1 0.7
5 -7 20 1.1 0.8
5 -7 21 21.8 1.8
-5 7 -21 15.3 1.5
5 -7 22 13 1.5
-5 7 -22 14.5 1.4
-5 7 -23 21.5 1.8
5 -7 23 17.7 1.8
-5 -9 28 0.3 0.7
5 9 -28 0.4 0.6
5 9 -27 2.9 0.8
-5 -9 27 2.6 0.8
-5 -9 26 -0.2 0.7
5 9 -26 0.2 0.6
5 9 -25 4.1 0.9
-5 -9 25 3.9 1
5 9 -24 4.3 0.9
-5 -9 24 4.6 1
-5 -9 23 5.2 1
5 9 -23 6.4 1
-5 -9 22 13.1 1.4
5 9 -22 14.6 1.4
5 9 -21 8.4 1.1
-5 -9 21 9.1 1.2
-5 -9 20 6.2 1
5 -9 -20 6.2 1.1
-5 9 20 7 1.1
5 9 -20 6.3 1
-5 9 19 7 1.1
5 -9 -19 6.7 1.1
-5 -9 18 8.5 1.2
5 9 -18 10.5 1.2
5 -9 -18 10.6 1.3
-5 9 18 8.9 1.2
5 -9 -17 3.4 0.9
5 9 -17 2.5 0.8
-5 9 17 3.8 0.9
-5 -9 17 2.1 0.8
5 -9 -16 51.89 3.4
-5 9 16 53.49 3.3
-5 -9 16 49.9 3.3
5 9 -16 56.79 3.4
5 9 -15 16.3 1.5
-5 -9 15 16.4 1.6
5 9 -14 100.19 5.5
-5 -9 14 101.39 5.6
5 9 -13 2.1 0.8
-5 -9 13 2.5 0.9
5 9 -12 2.8 0.8
-5 -9 12 3.5 0.9
5 9 -11 4.5 0.9
-5 -9 11 4.6 1.1
5 9 -10 4.1 0.8
-5 -9 10 4 0.8
5 9 -9 3.6 0.9
-5 -9 9 4.9 1
5 9 -8 3.6 0.9
-5 -9 8 4.5 1
5 9 -7 8.7 1.1
-5 -9 7 7 1.1
5 9 -6 32.7 2.3
-5 -9 6 30.3 2.3
5 9 -5 17.5 1.6
-5 -9 5 16.6 1.6
5 9 -4 137.19 6.8
-5 -9 4 141.69 6.9
-5 9 4 118.39 6.7
5 -9 -4 119.39 6.8
-5 9 3 1 0.6
5 -9 -3 1.9 0.9
5 -9 -2 6.1 1.1
-5 9 2 5.6 1
5 -9 -1 2.8 0.9
-5 9 1 2.4 0.8
-5 9 0 11.5 1.3
5 -9 0 8.6 1.2
5 -9 1 5.7 1.1
5 9 1 5.2 1
-5 9 -1 4.8 1
-5 -9 -1 6.4 1.1
5 -9 2 26.5 2.2
-5 9 -2 27.5 2.1
-5 -9 -2 28.1 2.1
5 9 2 24 2
-5 9 -3 18.1 1.6
-5 -9 -3 17.4 1.6
5 9 3 18.7 1.7
5 -9 3 17.9 1.7
5 9 4 4.4 0.9
5 -9 4 2.4 0.8
-5 -9 -4 2.5 0.8
-5 9 -4 2.7 0.8
-5 9 -5 1.4 0.7
5 -9 5 2 0.8
5 9 5 2.1 0.8
-5 -9 -5 2.5 0.8
-5 9 -6 33 2.3
-5 -9 -6 32.1 2.4
5 9 6 33.2 2.4
5 -9 6 32.8 2.4
-5 -9 -7 13.9 1.5
5 9 7 16.8 1.6
-5 9 -7 15.9 1.5
5 -9 7 13.2 1.5
-5 9 -8 6.8 1.1
5 9 8 6.8 1
5 -9 8 7.9 1.2
-5 -9 -8 5.8 1
5 9 9 119.69 6.2
-5 9 -9 121.69 6.2
-5 -9 -9 117.79 6.2
5 -9 9 100.59 6.1
5 -9 10 27.8 2.2
-5 9 -10 22.7 2
5 9 10 23.9 2
-5 9 -11 4.6 0.9
5 -9 11 2.1 1
5 9 11 3.3 0.9
-5 -9 -11 3.9 0.9
-5 9 -12 20.9 1.8
-5 -9 -12 25.2 2
5 9 12 23.3 1.9
5 -9 12 19.3 1.9
-5 -9 -13 0.1 0.6
5 9 13 0.4 0.7
-5 9 -13 0.5 0.6
5 -9 13 0.6 0.8
-5 9 -14 24.2 1.9
-5 -9 -14 24 2
5 -9 14 26.5 2.1
5 9 14 24.3 2
5 -9 15 4.8 1.1
-5 9 -15 2.4 0.7
5 -9 16 2.6 0.9
-5 9 -16 3.4 0.8
-5 9 -18 1 0.6
5 -9 18 0.5 0.7
-5 9 -19 7.8 1.2
5 -9 19 10.7 1.4
-5 9 -20 12.8 1.4
5 -9 20 13.2 1.5
5 -9 21 13.4 1.5
-5 9 -21 16.3 1.5
-5 9 -22 24.3 2.1
5 -9 22 34.2 2.4
5 11 -22 19.6 1.7
-5 -11 22 20.4 1.8
5 11 -21 2.6 0.8
-5 -11 21 3 0.9
5 11 -20 18.7 1.7
-5 -11 20 16.9 1.7
5 11 -19 7.3 1.1
-5 -11 19 9 1.3
-5 -11 16 13.9 1.5
5 11 -16 17.5 1.6
-5 11 16 18 1.6
5 -11 -15 1 0.7
-5 11 15 1.1 0.7
-5 -11 15 2.4 0.8
5 11 -15 1.5 0.7
5 11 -14 13.8 1.5
-5 -11 14 17.2 1.7
5 -11 -14 18.4 1.7
-5 11 14 18.1 1.6
-5 -11 13 0.5 0.7
-5 11 13 0.8 0.6
5 11 -13 0.7 0.7
-5 -11 12 19.9 1.8
-5 11 12 23.4 1.9
5 11 -12 22.9 1.8
5 -11 -12 23.5 2
-5 -11 11 3 0.9
5 11 -11 1.9 0.7
5 -11 -11 1.3 0.7
-5 11 11 1.6 0.7
-5 11 10 4.6 0.9
5 -11 -10 5.5 1
5 11 -10 6.7 1
-5 -11 10 4.4 1
5 11 -9 2.6 0.8
5 -11 -9 3.2 0.9
-5 11 9 3.6 0.9
-5 -11 9 3.1 0.9
-5 11 8 31.9 2.2
5 -11 -8 21.6 2
5 -11 -7 7 1.1
-5 11 7 7.2 1.1
5 -11 -6 68.89 3.9
-5 -11 6 56.59 3.7
5 11 -6 65.99 3.8
-5 11 6 55.69 3.6
5 11 -5 0.8 0.7
-5 11 5 1.2 0.7
5 -11 -5 1.2 0.7
-5 -11 5 1.4 0.7
5 11 -4 40.4 2.7
-5 -11 4 37.9 2.7
5 -11 -3 1.2 0.7
5 11 -3 0.6 0.8
-5 11 3 1.8 0.7
-5 -11 3 2.9 0.9
5 -11 -2 0.4 0.7
-5 -11 2 0.3 0.6
5 11 -2 0.1 0.6
-5 11 2 -0.6 0.7
5 -11 -1 2.8 0.9
-5 -11 1 2.7 0.8
5 11 -1 2 0.7
-5 11 1 3.5 0.9
5 -11 0 21.8 2
-5 -11 0 27.8 2.1
-5 11 0 20.5 1.9
5 11 0 24.8 1.9
5 -11 1 3.8 0.9
-5 -11 -1 4.1 1
-5 11 -1 3.7 0.8
5 11 1 5.5 1
5 11 2 38.1 2.6
-5 -11 -2 35.5 2.6
-5 -11 -3 1.6 0.7
5 11 3 2.2 0.7
-5 -11 -4 27.8 2.1
-5 11 -4 22.1 1.9
5 -11 4 29.2 2.1
5 11 4 23.1 2
5 11 5 3.1 0.8
-5 -11 -5 2.2 0.8
-5 11 -5 2.9 0.8
5 -11 5 3.1 0.9
-5 -11 -6 0.3 0.6
-5 11 -6 0.9 0.5
5 11 6 0.1 0.6
5 -11 6 0.2 0.6
5 11 7 5.5 1
5 -11 7 3.5 1
-5 11 -7 5.8 1
-5 -11 -7 4.6 0.9
-5 11 -8 12.9 1.3
5 11 8 9.9 1.3
-5 -11 -8 10.4 1.3
5 -11 8 14.5 1.5
5 11 9 13 1.4
-5 -11 -9 13.5 1.4
5 -11 9 10.7 1.4
-5 11 -9 11.9 1.3
-5 11 -10 0.4 0.6
-5 11 -11 1 0.6
5 -11 11 0.8 0.6
5 -11 12 18.3 1.6
-5 11 -12 13.6 1.4
-5 11 -13 0.6 0.6
5 -11 13 0.2 0.6
-5 11 -16 12 1.3
5 -11 16 12.8 1.4
-5 11 -17 9 1.1
5 -11 17 10 1.3
-5 11 -18 3.6 0.8
5 -11 18 2.5 0.9
-5 11 -19 -0.2 0.7
5 -11 19 -0.1 0.7
6 0 -31 -0.1 0.5
-6 0 31 0.2 0.4
-6 0 30 27.8 2
6 0 -30 43.9 2.4
-6 0 29 0.5 0.4
6 0 -29 -0.2 0.4
-6 0 28 60.49 3.2
6 0 -28 56.29 3.2
-6 0 27 0.1 0.4
6 0 -27 0.3 0.5
-6 0 26 344.57 15.6
6 0 -26 324.77 15.6
-6 0 25 0.2 0.4
6 0 -25 -0.1 0.4
6 0 -24 304.87 14.1
-6 0 24 296.77 14
6 0 -23 -0.1 0.4
-6 0 23 0.1 0.4
-6 0 22 79.59 4.2
6 0 -22 82.49 4.2
-6 0 21 -0.2 0.3
6 0 -21 0.1 0.4
-6 0 20 89.99 4.9
6 0 -20 102.09 4.9
-6 0 19 0.1 0.4
6 0 -19 0 0.3
-6 0 18 695.23 30.9
6 0 -18 664.53 30.9
-6 0 17 0.2 0.3
6 0 -17 0 0.3
-6 0 16 3088.89 138.39
-6 0 15 0.1 0.4
6 0 -15 0.3 0.3
6 0 -14 3765.82 170.88
-6 0 14 3864.71 170.88
6 0 -13 0 0.4
-6 0 13 0.2 0.4
6 0 -9 0.2 0.4
-6 0 9 -0.2 0.5
-6 0 8 1602.14 69.29
6 0 -8 1487.35 69.29
6 0 -7 0.3 0.4
-6 0 7 0.2 0.4
-6 0 6 2186.38 98.49
6 0 -6 2212.38 98.49
6 0 -5 0.1 0.4
-6 0 5 0.5 0.4
-6 0 4 5045.6 228.08
6 0 -4 5162.48 228.18
6 0 -3 0 0.3
-6 0 3 0 0.3
6 0 -2 321.37 15.1
-6 0 2 345.07 15.1
6 0 -1 0 0.4
-6 0 1 0.1 0.3
-6 0 0 4338.77 196.58
6 0 0 4464.45 196.58
-6 0 -1 0 0.3
6 0 1 -0.1 0.3
6 0 2 4922.81 218.58
-6 0 -2 4862.11 218.58
-6 0 -3 0 0.2
6 0 3 0.1 0.3
-6 0 -4 492.75 23.1
6 0 4 538.95 23.1
-6 0 -5 0.1 0.2
6 0 5 0 0.2
6 0 6 86.39 3.9
-6 0 -6 80.69 3.9
-6 0 -7 0 0.1
6 0 7 0.1 0.1
-6 -2 32 174.38 8.7
6 2 -32 179.78 8.8
6 2 -31 37 2.4
-6 -2 31 39.1 2.5
6 -2 -30 123.29 6.1
-6 -2 30 125.19 6.2
-6 2 30 118.89 6
6 2 -30 114.89 6.2
-6 -2 29 25.1 1.8
6 -2 -29 22.8 1.6
6 2 -29 22.3 1.7
-6 2 29 21.8 1.5
-6 2 28 68.99 3.8
6 -2 -28 74.59 3.8
-6 2 27 16.2 1.2
6 -2 -27 15.8 1.2
6 -2 -26 810.12 39.5
-6 2 26 927.71 39.5
-6 2 25 200.48 9.6
-6 -2 25 192.08 9.7
6 -2 -25 196.78 9.6
6 2 -25 216.48 9.8
6 -2 -24 1373.86 60.99
-6 -2 24 1335.77 61.09
6 2 -24 1374.86 61.09
-6 2 24 1322.67 60.89
-6 -2 23 85.69 4.6
-6 2 23 86.49 4.4
6 -2 -23 91.49 4.5
6 2 -23 84.59 4.5
-6 -2 22 365.26 15.6
-6 2 22 303.47 15.4
6 2 -22 331.27 15.5
6 -2 -22 342.77 15.5
6 -2 -21 55.19 3
-6 2 21 54.29 2.9
6 2 -21 54.19 3
-6 -2 21 47.5 2.9
6 2 -20 96.99 4.7
-6 -2 20 90.29 4.7
6 -2 -20 90.99 4.7
-6 2 20 87.29 4.6
6 2 -19 1.3 0.5
6 -2 -19 1.7 0.5
-6 2 19 2 0.4
-6 -2 19 1.8 0.5
-6 -2 18 484.25 24.6
6 -2 -18 545.15 24.6
-6 2 18 579.04 24.5
6 2 -18 539.05 24.6
-6 2 17 56.59 3
6 -2 -17 57.39 3
-6 -2 17 52.89 3
-6 -2 16 1797.12 77.79
6 -2 -16 1730.73 77.69
-6 2 16 1767.62 77.69
6 2 -16 1618.54 77.69
-6 -2 15 91.29 4.5
6 2 -15 84.19 4.5
6 -2 -15 86.59 4.4
6 -2 -14 1480.45 63.19
-6 2 14 1379.36 63.09
-6 -2 14 1350.16 63.29
6 2 -14 1404.06 63.19
-6 -2 13 2.9 0.6
6 -2 -13 2.7 0.5
-6 2 13 1.1 0.4
6 2 -13 2 0.6
-6 2 12 94.09 5.1
6 -2 -12 104.29 5.2
-6 -2 12 107.39 5.3
-6 2 11 2.3 0.5
-6 -2 11 2.1 0.6
6 -2 -11 1.4 0.5
6 2 -11 1 0.5
-6 -2 10 1821.62 76.39
6 -2 -10 1674.23 76.39
6 2 -10 1663.63 76.39
-6 2 10 1656.23 76.29
6 2 -9 173.18 7.8
-6 2 9 167.68 7.8
-6 -2 9 152.08 7.8
6 -2 -9 162.68 7.8
-6 2 8 718.53 32.3
6 2 -8 753.32 32.3
6 -2 -8 652.13 32.3
-6 -2 8 735.83 32.4
-6 2 7 209.38 10
6 -2 -7 231.88 10.1
-6 -2 7 244.68 10.1
6 2 -6 50.39 2.7
-6 2 6 49.5 2.6
-6 -2 6 50.19 2.7
6 -2 -6 47.3 2.7
-6 2 5 41.6 2.2
6 -2 -5 36.5 2.2
6 2 -5 37.9 2.2
-6 -2 5 41.9 2.2
6 2 -4 3152.58 144.19
-6 -2 4 3168.98 144.19
6 -2 -4 2965.5 144.19
6 -2 -3 3.9 0.6
-6 2 3 4.5 0.6
-6 2 2 1242.08 56.79
6 -2 -2 1287.97 56.89
6 2 -1 11.6 0.9
-6 -2 1 9.3 0.9
-6 -2 0 1389.76 62.89
6 2 0 1408.86 62.89
6 2 1 193.98 8.9
-6 -2 -1 190.38 8.9
6 2 2 2898.61 123.79
-6 -2 -2 2638.34 123.69
6 2 3 222.28 10.3
-6 -2 -3 223.08 10.3
-6 2 -4 2145.29 98.09
6 2 4 1982.1 97.99
-6 -2 -4 2310.67 97.99
6 -2 4 2407.96 98.19
-6 -2 -5 16 1
6 -2 5 20.1 1.2
6 2 5 15.3 1
-6 2 -5 18.7 1.2
6 -2 6 444.16 19.3
6 2 6 408.26 19.1
-6 -2 -6 416.66 19.1
-6 2 -6 433.16 19.3
6 2 7 23.9 1.3
6 -2 7 24.3 1.4
-6 -2 -7 20 1.2
-6 2 -7 23.5 1.4
-6 2 -8 52.69 2.7
6 2 8 48.3 2.5
-6 -2 -8 51.39 2.5
6 -2 8 47.9 2.7
-6 2 -9 66.59 3.2
6 2 9 57.39 3
-6 -2 -9 63.99 3
6 2 10 1253.77 55.79
-6 -2 -10 1285.77 55.79
-6 2 -10 1183.18 55.99
6 -2 10 1187.48 56.09
-6 2 -11 93.89 4.6
-6 -2 -11 102.19 4.4
6 -2 11 103.79 4.7
-6 2 -12 1867.01 78.39
6 -2 12 1628.44 78.39
6 -2 13 1.6 0.4
-6 2 -13 0.6 0.3
6 -2 14 694.73 31.7
-6 2 -14 701.63 31.6
-6 2 -15 8.3 0.7
6 -2 15 7.9 0.8
6 -2 16 7.1 0.8
-6 2 -16 5.5 0.7
6 -2 17 1.5 0.4
-6 2 -17 1.2 0.4
-6 2 -18 221.48 10.4
6 -2 18 221.88 10.4
6 -2 19 47.1 2.5
-6 2 -19 45.2 2.5
-6 2 -20 912.51 40.9
6 -2 20 900.21 41
-6 2 -21 6.6 0.7
6 -2 21 5.8 0.7
-6 2 -22 170.48 8.1
6 -2 22 172.98 8.1
-6 2 -23 37.4 2.1
6 -2 23 37.3 2.1
6 -2 24 74.49 3.6
-6 2 -24 69.19 3.6
-6 -4 31 120.69 6.3
6 4 -31 116.99 6.2
6 4 -30 36.6 2.5
-6 -4 30 37.7 2.6
-6 -4 29 11.2 1.2
6 4 -29 9.7 1.1
-6 4 29 10.3 1.1
-6 4 28 0.4 0.5
6 -4 -28 0.1 0.5
6 4 -28 1.4 0.6
6 4 -27 49.6 3.1
-6 -4 27 56.19 3.3
-6 4 27 52.19 3.1
6 -4 -27 55.59 3.2
-6 -4 26 425.86 19.6
-6 4 26 431.66 19.4
6 -4 -26 449.46 19.5
-6 -4 25 53.09 3.2
6 -4 -25 54.59 3.1
-6 4 25 52.19 3
6 4 -25 47.1 3.1
6 -4 -24 218.38 11
6 4 -24 250.27 11.2
-6 4 24 229.08 11
-6 -4 24 221.78 11.1
6 -4 -23 33.5 2.2
6 4 -23 32.2 2.2
-6 4 23 36.4 2.2
-6 -4 23 31.6 2.3
-6 4 22 80.29 4.5
-6 -4 22 93.09 4.8
6 -4 -22 93.19 4.7
6 4 -22 81.89 4.7
-6 4 21 73.09 3.9
6 -4 -21 70.69 3.9
-6 -4 21 70.19 4
6 4 -21 68.59 3.9
-6 4 20 25.7 1.8
-6 -4 20 26.8 2
6 -4 -20 27 2
6 4 -20 30.7 2
-6 -4 19 1.5 0.6
-6 4 19 1.7 0.5
6 -4 -19 1.8 0.6
6 4 -19 1.2 0.5
-6 4 18 72.49 3.7
6 4 -18 61.99 3.7
6 -4 -18 66.59 3.7
6 4 -17 16.8 1.5
-6 4 17 20.1 1.5
6 -4 -17 18.5 1.5
6 -4 -16 646.64 29.9
-6 4 16 674.73 29.9
-6 -4 16 622.14 29.9
6 4 -16 667.33 29.9
6 4 -15 34.8 2.3
-6 -4 15 37.4 2.4
6 -4 -15 36 2.4
-6 4 15 40.5 2.3
6 -4 -14 852.61 40.6
-6 4 14 930.91 40.6
-6 4 13 23.1 1.6
6 -4 -12 250.27 12.2
-6 4 12 263.17 12.2
-6 4 11 16.8 1.3
6 -4 -11 16.8 1.4
6 4 -11 14.6 1.3
-6 -4 11 15.7 1.4
-6 4 10 95.19 4.7
6 4 -10 91.49 4.7
6 -4 -10 99.89 4.8
6 4 -9 453.65 20.9
6 -4 -9 438.76 20.9
-6 -4 9 479.85 20.9
-6 4 9 439.56 20.8
-6 4 8 322.07 15.4
-6 -4 8 338.17 15.5
6 -4 -8 323.67 15.5
6 4 -8 338.77 15.5
-6 4 7 21.5 1.5
6 4 -7 20 1.5
6 -4 -7 18.3 1.6
-6 -4 7 20.1 1.5
-6 -4 6 2568.44 110.89
6 4 -6 2645.44 110.89
-6 4 6 2622.24 110.89
-6 4 5 12.2 1.1
6 -4 -5 11.2 1.1
6 4 -5 11.4 1.1
-6 -4 5 11.8 1.1
6 -4 -4 1068.69 51.29
-6 4 4 1249.38 51.39
6 4 -4 1100.79 51.29
-6 -4 4 1128.19 51.39
-6 4 3 887.81 41.8
6 -4 -3 987.2 41.9
6 4 -3 840.62 41.7
-6 -4 3 997.4 41.9
-6 -4 2 80.89 4.4
-6 4 2 76.99 4.3
6 4 -2 87.29 4.4
6 -4 -2 87.49 4.4
-6 4 1 18.9 1.5
6 4 -1 20.1 1.5
6 -4 -1 19.1 1.5
-6 -4 1 21.7 1.5
6 -4 0 275.47 12.6
-6 4 0 260.47 12.5
-6 -4 0 259.57 12.5
6 4 0 267.87 12.5
6 4 1 6.4 0.8
6 -4 1 5 0.9
-6 -4 -1 6.3 0.8
-6 4 -2 1914.71 79.89
6 -4 2 1856.31 79.99
-6 -4 -2 1879.41 79.89
6 4 3 12.3 1
-6 4 -3 10.5 1
-6 -4 -3 10.4 1
6 -4 3 8.9 1.1
6 4 4 1410.56 67.79
-6 4 -4 1437.06 67.79
-6 -4 -4 1538.15 67.79
-6 -4 -5 155.48 8.3
-6 4 -5 175.48 8.4
-6 -4 -6 26.5 1.7
6 4 6 29.7 1.8
6 -4 6 28.9 1.9
-6 4 -6 26.3 1.8
6 -4 7 91.69 5.4
-6 -4 -7 106.19 5.3
-6 4 -7 111.69 5.4
6 4 7 110.09 5.3
-6 4 -8 51.29 3
-6 -4 -8 52.39 2.9
6 4 8 51.69 2.9
6 4 9 40.8 2.3
6 -4 9 44 2.5
-6 -4 -9 36.1 2.2
-6 4 -9 37.5 2.4
6 -4 10 313.97 14.3
-6 -4 -10 287.97 14
6 4 10 308.17 14
-6 4 -10 297.37 14.1
-6 -4 -11 23.2 1.5
-6 4 -11 21.5 1.6
6 4 11 23.7 1.5
6 -4 11 23 1.7
-6 -4 -12 689.13 31.5
-6 4 -12 679.93 31.7
6 4 12 720.43 31.5
6 -4 12 678.13 31.8
6 -4 13 51.49 3.1
6 4 13 57.49 2.9
-6 4 -13 52.79 3.1
-6 -4 -13 53.69 2.9
-6 -4 -14 320.27 15.3
-6 4 -14 340.37 15.5
6 4 14 336.77 15.3
6 -4 14 328.37 15.5
-6 -4 -15 10.3 0.9
6 4 15 10.1 0.8
6 4 18 207.98 10.1
-6 -4 -18 227.18 10.1
6 4 19 49.7 2.7
-6 4 -19 59.19 3.2
6 -4 19 58.09 3.2
-6 -4 -19 54.79 2.7
-6 4 -20 315.67 12.5
6 -4 20 309.57 12.6
-6 4 -21 23.8 1.8
6 -4 21 26.9 1.9
-6 4 -22 179.08 9.1
6 -4 22 199.08 9.3
-6 4 -23 8.7 1
6 -4 23 10.1 1.1
-6 4 -24 71.29 4.1
6 -4 24 80.59 4.2
6 6 -30 8.4 1.1
-6 -6 30 4.3 1
6 6 -29 6.2 1
-6 -6 29 5.2 1
-6 -6 28 3.4 0.9
6 6 -28 4.7 0.9
-6 -6 27 13.8 1.5
6 6 -27 13.8 1.4
6 6 -26 6.3 1
6 -6 -26 6.3 1
-6 -6 26 5 1
-6 6 26 4.4 0.8
-6 -6 25 113.49 6.1
6 -6 -25 115.29 6.1
-6 6 25 117.79 6
6 6 -25 111.19 6
-6 6 24 6.9 0.9
6 6 -24 5.6 1
6 -6 -24 6.3 0.9
-6 -6 24 6 1.1
-6 6 23 167.78 8.3
-6 -6 23 157.08 8.5
6 6 -23 171.98 8.5
6 -6 -23 173.68 8.5
-6 -6 22 41.3 2.8
6 6 -22 42.7 2.8
-6 6 22 49.99 2.8
6 -6 -22 38.9 2.7
-6 6 21 39.5 2.5
-6 -6 21 33.1 2.5
6 6 -21 41.8 2.6
6 -6 -21 33.5 2.4
-6 6 20 250.97 12.4
6 -6 -20 276.37 12.6
-6 -6 20 239.58 12.5
6 6 -20 271.47 12.5
6 -6 -19 66.59 3.7
-6 6 19 59.69 3.6
-6 -6 19 57.19 3.7
6 6 -19 68.29 3.8
-6 6 18 91.39 4.9
6 -6 -18 87.19 4.9
6 -6 -17 35 2.4
-6 6 17 33.2 2.3
6 6 -16 14.7 1.4
-6 6 16 13.4 1.3
-6 -6 16 12 1.3
6 -6 -16 12 1.3
6 -6 -15 3.3 0.9
-6 6 15 3.6 0.8
-6 -6 15 3.3 0.9
6 6 -15 4.2 0.9
-6 6 14 150.48 7.4
6 -6 -14 165.98 7.5
6 6 -14 148.19 7.5
-6 6 13 196.48 9.4
6 -6 -13 202.88 9.5
6 6 -13 198.38 9.5
-6 -6 13 170.18 9.4
-6 6 12 9 1.1
6 -6 -12 11.6 1.2
6 6 -12 12.5 1.3
-6 -6 12 8.3 1.2
-6 -6 11 221.98 10.8
-6 6 11 192.88 10.6
6 6 -10 6.6 1
-6 6 10 6.8 0.9
6 -6 -10 7.3 1
-6 -6 10 6.5 1
-6 6 9 76.49 4.4
6 -6 -9 91.19 4.6
6 6 -9 82.39 4.5
-6 -6 9 77.79 4.5
6 6 -8 65.69 3.6
6 -6 -8 52.49 3.5
-6 6 8 57.39 3.4
-6 -6 8 65.29 3.6
6 -6 -7 3.5 0.9
-6 6 7 4.5 0.8
6 6 -7 5.5 0.9
-6 -6 7 4.8 0.9
-6 -6 6 378.96 16.5
6 -6 -6 343.77 16.5
6 6 -6 361.86 16.4
-6 6 6 315.37 16.3
-6 6 5 21.9 1.7
6 -6 -5 20.8 1.8
-6 -6 5 24.3 1.9
6 6 -5 25.9 1.8
6 -6 -4 319.67 14.9
-6 6 4 311.87 14.7
-6 -6 4 305.77 14.8
6 6 -4 309.07 14.8
6 -6 -3 62.49 3.5
-6 6 3 62.09 3.4
6 6 -3 60.09 3.4
6 6 -2 10.9 1.2
-6 6 2 9 1.1
-6 -6 2 11.1 1.2
6 -6 -2 9.8 1.3
6 6 -1 83.09 4.6
-6 6 1 87.09 4.6
-6 -6 1 85.09 4.6
6 -6 -1 86.99 4.8
-6 6 0 48.9 3.1
6 6 0 54.39 3.1
-6 -6 0 56.59 3.2
6 -6 0 49.3 3.2
6 -6 1 40.6 2.8
6 6 1 45.1 2.8
-6 6 -1 49.3 2.8
-6 -6 -1 43.7 2.8
6 6 2 94.59 5.1
6 -6 2 90.29 5.1
-6 -6 -2 94.09 5.1
-6 6 -2 104.09 5.2
-6 6 -3 6.3 0.9
6 -6 3 6 0.9
-6 -6 -3 3.9 0.8
6 -6 4 40.7 2.8
6 6 4 48.2 2.8
-6 -6 -4 42.9 2.7
-6 6 -4 45 2.8
6 6 5 60.19 3.4
6 -6 5 54.89 3.5
-6 6 -5 65.29 3.5
-6 -6 -5 53.79 3.3
6 -6 6 5.1 1
6 6 6 7 0.9
-6 -6 -6 5.9 0.9
-6 6 -6 7 1
6 6 7 4.1 0.7
-6 6 -7 3.1 0.9
-6 -6 -7 3.7 0.7
6 -6 7 4.6 0.9
-6 6 -8 8.9 1.1
-6 -6 -8 9.8 1.1
6 -6 8 12 1.3
6 6 8 8 1
-6 6 -9 20.7 1.7
6 6 9 19.9 1.6
-6 -6 -9 24.2 1.7
6 -6 9 20.3 1.8
-6 6 -10 63.59 3.7
-6 -6 -10 65.59 3.6
6 6 10 61.19 3.6
-6 6 -11 141.09 7.3
6 6 11 140.69 7.2
6 -6 11 158.78 7.5
-6 -6 -11 143.29 7.3
6 6 12 139.69 6.8
-6 6 -12 124.49 6.8
-6 -6 -12 128.89 6.7
6 -6 12 140.79 7
-6 6 -13 9.1 1
6 -6 13 6.3 1
-6 6 -14 51.49 3.3
6 -6 14 62.69 3.5
6 -6 15 118.29 6.7
-6 6 -15 144.39 6.8
-6 6 -16 16.1 1.5
6 6 16 19 1.5
6 -6 16 18.1 1.7
-6 -6 -16 21.3 1.6
-6 -6 -17 180.98 8.8
6 6 17 180.08 8.8
6 6 18 25.2 1.7
-6 -6 -18 19.9 1.6
6 -6 19 53.79 3.4
6 6 19 54.19 3.1
-6 6 -19 57.29 3.4
-6 6 -20 48.1 3
6 -6 20 48.2 3.1
6 -6 21 7.1 1.1
-6 6 -21 6.6 1
6 -6 22 66.99 3.9
-6 6 -22 65.79 3.9
6 -6 23 0.6 0.7
-6 6 -23 0.9 0.6
-6 -8 29 0.7 0.7
6 8 -29 -0.1 0.6
-6 -8 28 1 0.8
6 8 -28 1.2 0.7
6 8 -26 4.3 0.8
-6 -8 26 3.9 0.9
6 8 -25 14.1 1.4
-6 -8 25 13.9 1.5
6 8 -24 22.2 1.9
-6 -8 24 21 1.9
6 -8 -23 18.3 1.7
-6 8 23 18.1 1.6
6 8 -23 17.4 1.6
-6 -8 23 17.5 1.7
-6 -8 22 2.7 0.8
6 -8 -22 2.5 0.9
6 8 -22 3.7 0.8
-6 8 22 3.7 0.9
6 -8 -21 11.5 1.4
6 8 -21 11.5 1.3
-6 8 21 12.4 1.3
-6 -8 21 12.4 1.4
-6 8 20 4.3 0.9
-6 -8 20 2.7 0.9
6 -8 -20 3.6 0.8
6 8 -20 3.9 0.9
6 8 -19 4 0.9
6 -8 -19 4.6 1
-6 -8 19 4.6 1
-6 8 19 2.9 0.8
6 -8 -18 6.9 1.1
-6 8 18 7.6 1.1
-6 -8 18 6 1.1
6 8 -17 27.1 2
6 -8 -17 26.1 2
-6 8 17 22.8 1.9
-6 8 16 1.4 0.7
6 -8 -16 0.3 0.6
-6 8 15 2 0.7
6 -8 -15 2.3 0.7
6 8 -14 12 1.3
-6 8 14 13.2 1.3
6 -8 -14 14.6 1.4
-6 -8 14 13.4 1.4
-6 8 13 2.4 0.7
6 8 -13 3.1 0.7
6 -8 -13 2.2 0.7
-6 -8 13 3.4 0.8
-6 8 12 18.6 1.7
6 8 -12 20 1.7
6 -8 -12 21 1.8
-6 -8 12 21.7 1.8
-6 8 11 10.5 1.2
-6 -8 11 11.6 1.4
6 8 -11 11.6 1.4
6 -8 -11 11.1 1.4
6 -8 -10 13.5 1.5
-6 -8 10 12.6 1.5
6 8 -10 15.7 1.5
-6 8 10 16.1 1.5
-6 -8 9 1.1 0.7
6 8 -9 -0.1 0.6
6 -8 -9 0.5 0.7
-6 8 8 9 1.1
6 8 -8 10.2 1.1
6 -8 -8 8.2 1.2
-6 -8 8 8.9 1.1
6 8 -7 1.5 0.7
-6 8 7 1.7 0.6
-6 -8 7 1.3 0.8
6 -8 -7 1.8 0.6
-6 8 6 0.6 0.6
6 8 -6 1.1 0.6
-6 -8 6 1.6 0.8
6 -8 -6 1.3 0.8
6 -8 -5 25.1 2
-6 -8 5 22.4 2
6 8 -5 25.4 2
-6 8 5 26.9 2
6 -8 -4 58.39 3.8
-6 -8 4 60.19 3.7
-6 8 4 57.69 3.6
6 8 -4 66.59 3.7
-6 8 3 123.89 7
6 -8 -3 156.78 7.4
-6 -8 3 134.79 7.2
6 8 -3 143.59 7.2
6 8 -2 2.7 0.9
-6 -8 2 5.3 1
6 -8 -2 3.4 0.9
-6 8 2 5.2 0.9
6 -8 -1 35.3 2.6
-6 -8 1 37.2 2.6
6 8 -1 36.4 2.5
6 -8 0 3.9 1
-6 8 0 5.3 0.9
6 8 0 4 0.8
-6 8 -1 4.3 0.9
6 -8 1 3.2 0.9
-6 -8 -1 5 1
6 8 1 4.1 0.9
-6 -8 -2 43.2 3
6 8 2 46.3 3
-6 8 -2 45.4 3
6 -8 2 53.39 3.2
6 -8 3 46.1 3.1
-6 -8 -3 42.6 3
6 8 3 48.7 3
-6 8 -3 53.89 3.1
-6 8 -4 1.5 0.7
6 8 4 2.9 0.8
6 -8 4 1.9 0.8
-6 -8 -4 2.3 0.7
-6 8 -5 31.2 2.3
6 -8 5 31 2.4
6 8 5 30.5 2.3
-6 -8 -5 37.4 2.4
-6 8 -6 86.29 4.8
6 8 6 91.19 4.8
6 -8 6 77.49 4.8
-6 -8 -6 85.29 4.8
6 8 7 39.1 2.7
-6 8 -7 39.7 2.7
-6 -8 -7 40.9 2.7
6 -8 7 40.6 2.8
-6 8 -8 44.2 3
6 8 8 48 3
6 -8 8 46.8 3.1
-6 -8 -8 51.49 3.1
6 8 9 55.89 3.3
-6 -8 -9 57.19 3.3
-6 8 -9 49 3.2
6 -8 9 45.9 3.2
-6 -8 -10 27.6 2.2
6 8 10 31 2.2
-6 8 -10 30.5 2.2
6 8 11 1.6 0.7
-6 -8 -11 2.1 0.7
-6 8 -11 2.2 0.8
6 -8 11 2.1 0.9
6 8 12 1.6 0.7
-6 8 -12 3.7 0.8
6 -8 12 1.5 0.8
-6 -8 -12 1.6 0.7
6 8 13 0.9 0.7
-6 -8 -13 0.7 0.6
-6 8 -15 -0.4 0.6
6 -8 15 1 0.8
-6 8 -16 3.2 0.8
6 -8 16 1.9 0.9
-6 8 -17 0.2 0.6
6 -8 17 1.3 0.8
6 -8 18 2.8 0.8
-6 8 -18 0.7 0.6
-6 8 -19 21.1 1.9
6 -8 19 27.4 2.1
-6 8 -20 2.5 0.8
6 -8 20 2.1 0.8
-6 8 -21 16.2 1.5
6 -8 21 17.3 1.7
6 -8 22 2.6 0.9
-6 8 -22 1.7 0.8
6 10 -27 0.9 0.6
-6 -10 27 1.6 0.8
6 10 -25 9.5 1.2
-6 -10 25 13.1 1.4
6 10 -24 12 1.3
-6 -10 24 10.8 1.4
-6 -10 23 7.3 1.1
6 10 -23 6.9 1
6 10 -22 7.3 1.1
-6 -10 22 9.2 1.3
6 10 -21 4.9 1
-6 -10 21 5.6 1.1
6 10 -18 18.6 1.7
6 10 -17 46.1 3
6 -10 -17 51.59 3.2
-6 -10 17 51.19 3.2
-6 10 17 43.3 3
-6 10 16 45.7 3.1
6 10 -16 49.4 3.2
-6 -10 16 52.99 3.3
6 -10 -16 53.79 3.4
6 10 -15 24 1.9
6 -10 -15 27.6 2.1
-6 -10 15 24.1 2
-6 10 15 23.9 2
6 10 -14 41.5 2.8
-6 -10 14 42.8 2.9
-6 10 14 44.8 2.9
6 -10 -14 45.4 3
6 -10 -13 1.8 0.8
-6 10 13 1.3 0.7
6 10 -13 0.3 0.7
-6 -10 13 1.4 0.8
6 10 -12 4.8 1
-6 -10 12 5.1 1
-6 10 12 7.1 1.1
6 -10 -12 7.3 1.2
6 10 -11 1.1 0.6
6 -10 -11 1.4 0.7
-6 10 11 0.2 0.6
-6 -10 11 1 0.7
6 -10 -10 5.6 1
-6 10 10 5 0.9
-6 -10 10 4.7 1
6 10 -10 3 0.9
6 -10 -9 -0.1 0.7
-6 -10 9 -0.3 0.7
-6 10 9 0.8 0.7
6 10 -9 -0.3 0.6
-6 10 8 25.9 2.1
6 -10 -8 33.2 2.4
-6 10 7 1.1 0.7
6 -10 -7 3.3 0.9
-6 10 6 53.39 3.3
6 10 -6 53.49 3.3
-6 -10 6 54.59 3.4
6 -10 -5 3.5 0.9
6 10 -5 2.5 0.8
-6 -10 5 2.4 0.8
-6 10 5 0.9 0.7
6 10 -4 8.6 1.2
-6 10 4 8.2 1.1
6 -10 -4 6.5 1.1
-6 -10 4 8.7 1.2
6 10 -3 0.6 0.5
6 -10 -3 1.3 0.8
-6 10 3 0.9 0.8
-6 -10 3 1.7 0.7
-6 10 2 12.2 1.3
-6 -10 2 13.2 1.5
6 10 -2 13.2 1.4
6 -10 -2 11.9 1.4
6 -10 -1 0.7 0.9
-6 -10 1 2 0.8
-6 10 1 0.2 0.7
6 10 -1 0.3 0.7
6 10 0 43.3 2.9
-6 -10 0 45 3
6 10 1 1.4 0.7
-6 -10 -1 0.5 0.7
6 10 2 8.8 1.2
-6 -10 -2 9.2 1.2
6 10 3 0.2 0.7
-6 10 -3 1 0.5
-6 -10 -3 1.7 0.8
6 -10 4 6.7 1.1
6 10 4 7.2 1.1
-6 10 -4 7 1.1
-6 -10 -4 8.4 1.2
6 10 5 15.1 1.5
-6 -10 -5 12.2 1.5
6 -10 5 13.5 1.5
-6 10 -5 13.5 1.4
6 10 6 3.7 0.9
-6 -10 -6 6.8 1.1
6 -10 6 4.5 1
-6 10 -6 5.5 1
-6 10 -7 14.1 1.4
6 10 7 15.4 1.5
6 -10 7 11.8 1.4
6 10 8 1.9 0.8
-6 10 -8 3.5 0.8
-6 -10 -8 1.2 0.7
6 -10 8 2.7 0.8
-6 10 -9 17.7 1.6
6 10 9 21 1.8
6 -10 9 20.2 1.8
-6 -10 -9 21.2 1.8
-6 10 -10 29 2.1
6 10 10 27.8 2.2
6 -10 10 27.4 2.2
-6 -10 -10 27 2.2
-6 -10 -11 1 0.6
6 -10 11 1.8 0.8
-6 10 -11 0.5 0.6
6 10 11 0.9 0.8
-6 10 -12 21.4 1.8
6 -10 12 23.7 1.9
6 -10 13 1.7 0.7
-6 10 -13 1.2 0.5
-6 10 -14 22.2 1.8
6 -10 14 20.6 1.9
6 -10 15 9.5 1.3
-6 10 -15 7.5 1.1
-6 10 -17 0.8 0.7
6 -10 17 1.9 0.9
-6 10 -18 14.7 1.5
6 -10 18 14 1.6
-6 10 -19 5.5 0.9
6 -10 19 4.5 0.9
6 -10 20 22.1 2
-6 10 -20 19.2 1.7
-6 12 13 1.8 0.8
6 -12 -13 1.7 0.7
-6 12 12 7.1 1.1
6 12 -12 5.9 1
6 -12 -12 6.7 1.1
-6 -12 12 8.2 1.1
-6 -12 11 3.2 0.8
-6 12 11 2.9 0.8
6 12 -11 3.2 0.8
6 -12 -11 3.7 0.9
6 12 -10 1.8 0.7
-6 -12 10 2 0.8
6 -12 -10 0.6 0.7
-6 12 10 1.9 0.8
-6 -12 9 9.9 1.2
-6 12 9 8.6 1.2
6 -12 -9 8.5 1.2
6 12 -9 8 1.1
-6 -12 8 53.19 3.2
-6 12 8 49.2 3.1
6 12 -8 48.7 3.1
6 -12 -8 46.1 3.1
-6 12 7 2.3 0.7
-6 -12 7 4.2 0.9
6 12 -7 4 0.9
6 -12 -7 2.7 0.8
-6 12 6 45.3 3.1
6 12 -6 51.39 3.2
6 -12 -6 53.59 3.3
6 12 -5 -0.2 0.7
-6 -12 5 0.4 0.7
-6 12 5 0.7 0.7
6 -12 -5 0.3 0.6
6 -12 -4 17.4 1.6
6 12 -4 15.6 1.5
-6 12 4 17.4 1.5
-6 -12 4 17.4 1.6
6 12 -3 2.6 0.8
-6 -12 3 1.7 0.7
-6 12 3 2.2 0.8
-6 12 2 1.6 0.7
6 -12 -2 1.6 0.7
6 -12 -1 14.2 1.5
-6 12 1 16.1 1.5
-6 12 0 17.8 1.7
6 -12 0 22.4 1.8
6 12 1 5.4 0.9
-6 12 -1 5.4 0.9
-6 -12 -1 3.5 0.8
6 -12 1 4.9 0.9
6 12 2 21 1.8
-6 -12 -2 20.6 1.8
-6 12 -2 19.3 1.7
6 -12 2 20.8 1.8
6 12 3 0.1 0.6
-6 -12 -3 0.3 0.6
6 -12 3 -0.1 0.6
-6 12 -3 0.5 0.6
-6 12 -4 28.2 2.1
-6 -12 -4 32.9 2.3
6 12 4 25.6 2.1
6 -12 4 29.9 2.2
6 12 5 4 0.8
-6 -12 -5 3 0.8
-6 12 -5 2.6 0.8
6 -12 5 2.7 0.9
6 -12 6 10.3 1.2
-6 12 -6 5.8 0.9
6 -12 7 6.4 1.1
-6 12 -7 6.9 1
-6 12 -8 3.7 0.9
6 -12 8 3.2 1
-7 1 32 86.49 4.5
7 -1 -31 107.89 5.7
-7 1 31 115.69 5.7
-7 1 30 0.9 0.5
7 1 -30 0.7 0.5
-7 -1 30 1.2 0.6
7 -1 -30 1.6 0.5
-7 1 29 4 0.6
7 1 -29 3.2 0.7
7 -1 -29 4.3 0.7
-7 -1 29 4.6 0.7
-7 1 28 218.78 10.3
7 1 -28 209.88 10.4
7 -1 -28 220.08 10.4
-7 -1 28 217.48 10.4
7 1 -27 17 1.4
-7 1 27 17.4 1.3
-7 -1 27 19.9 1.5
7 -1 -27 17.8 1.4
-7 -1 26 755.52 34.4
-7 1 26 722.53 34.2
7 -1 -26 770.42 34.3
7 1 -26 772.32 34.4
-7 -1 25 39.8 2.5
-7 1 25 43.6 2.5
7 -1 -25 42.6 2.5
7 1 -25 43.2 2.6
7 1 -24 573.54 25.8
-7 1 24 572.74 25.7
7 -1 -24 530.15 25.7
-7 -1 24 568.84 25.8
7 1 -23 18.5 1.4
-7 1 23 17.1 1.3
7 -1 -23 16.5 1.3
-7 -1 23 14.2 1.3
-7 1 22 16.9 1.2
7 1 -22 15.1 1.3
-7 -1 22 17.2 1.3
7 -1 -22 17.2 1.3
-7 1 21 3.2 0.6
7 1 -21 4.2 0.7
-7 -1 21 3.4 0.7
7 -1 -21 3.2 0.6
7 -1 -20 698.13 31.2
-7 -1 20 628.74 31.2
7 1 -20 663.43 31.2
7 1 -19 51.69 2.8
-7 1 19 53.09 2.8
7 -1 -19 54.39 2.8
-7 1 18 771.82 32.6
7 1 -18 667.73 32.6
7 -1 -18 703.63 32.6
-7 -1 18 723.03 32.6
-7 1 17 13.6 1.1
-7 -1 17 13.9 1.2
7 1 -17 15.1 1.2
7 1 -16 1603.94 75.59
-7 1 16 1820.22 75.49
-7 -1 16 1596.94 75.59
-7 1 15 5.9 0.7
-7 -1 15 7.3 0.8
7 1 -15 6.8 0.8
7 -1 -15 8.3 0.8
-7 -1 14 254.57 11.1
7 -1 -14 248.38 11
-7 1 14 244.18 11
7 -1 -13 63.69 3.3
-7 -1 13 65.19 3.3
-7 1 13 57.29 3.2
7 1 -13 63.79 3.3
-7 -1 12 2.8 0.6
7 1 -12 3.9 0.6
-7 1 12 3.8 0.6
7 -1 -12 4.6 0.7
7 1 -11 1360.66 59.99
7 -1 -11 1362.26 60.09
-7 -1 11 1346.17 59.99
-7 1 11 1274.47 59.99
7 1 -10 131.29 6.3
-7 -1 10 133.09 6.3
7 -1 -10 140.29 6.4
-7 1 10 122.39 6.2
7 1 -9 413.76 17.6
-7 -1 9 354.96 17.6
7 -1 -5 27.5 1.9
7 1 -5 30.4 1.8
-7 -1 5 34.4 1.8
-7 1 5 31.8 1.8
7 1 -4 1874.81 81.99
-7 -1 4 1808.82 81.89
-7 1 4 1978.5 81.99
7 -1 -3 133.19 6.2
-7 1 3 137.89 6.1
-7 -1 3 119.89 6.1
7 1 -3 126.39 6.1
7 1 -2 910.41 42.7
7 -1 -2 1035.7 42.8
-7 -1 2 931.61 42.7
-7 1 2 938.01 42.7
-7 -1 1 528.45 24.3
7 1 -1 562.34 24.3
-7 1 1 488.05 24.3
7 -1 -1 576.64 24.4
7 1 0 2773.72 121.69
7 -1 0 2689.23 121.79
-7 1 0 2682.33 121.79
-7 -1 0 2721.83 121.69
-7 1 -1 202.78 9.2
-7 -1 -1 204.18 9.2
7 1 1 193.58 9.2
7 -1 1 195.58 9.2
-7 -1 -2 3502.45 146.99
7 1 2 3314.87 146.99
-7 1 -2 3151.38 147.09
7 -1 2 3125.99 147.09
7 -1 3 17.3 1.2
-7 -1 -3 19.6 1.1
-7 1 -3 19.7 1.1
7 -1 4 136.79 6.3
-7 -1 -4 135.89 6.2
7 1 4 136.79 6.2
-7 1 -4 123.69 6.2
7 1 5 661.93 28.6
7 -1 5 639.04 28.7
-7 1 -5 668.93 28.7
-7 -1 -5 590.84 28.5
-7 1 -6 252.37 11.3
7 -1 6 238.48 11.3
7 1 6 246.48 11.2
-7 1 -7 1.6 0.3
-7 -1 -7 2.6 0.2
7 -1 7 1.8 0.4
7 1 7 2.2 0.2
-7 1 -8 636.34 30.7
7 -1 8 742.93 30.8
7 -1 9 56.39 2.8
-7 1 -9 55.39 2.8
7 -1 10 1127.39 50.69
-7 1 -11 244.78 11.3
7 -1 11 251.97 11.4
-7 1 -12 1356.66 60.99
7 -1 12 1363.96 60.99
7 -1 13 25.5 1.5
-7 1 -13 28.3 1.5
-7 1 -14 349.87 16.2
7 -1 14 366.36 16.3
7 -1 15 118.99 5.6
-7 1 -15 119.39 5.6
-7 1 -16 166.68 7.8
7 -1 16 172.88 7.8
7 -1 17 25.4 1.4
-7 1 -17 25.9 1.4
7 -1 18 746.03 35.9
-7 1 -18 859.91 36
7 -1 19 3.1 0.3
-7 1 -19 3.3 0.3
-7 1 -20 693.33 31.9
7 -1 20 727.43 31.9
7 3 -32 130.19 6.6
-7 -3 32 125.99 6.6
-7 -3 31 16.4 1.5
7 3 -31 15.7 1.5
-7 -3 30 5 0.9
7 -3 -30 3.7 0.7
-7 3 30 3.2 0.6
7 3 -30 3.6 0.8
7 -3 -29 18.5 1.4
-7 3 29 15.7 1.3
7 3 -29 17.3 1.5
-7 -3 29 18.2 1.5
7 -3 -28 242.78 11.3
-7 3 28 226.88 11.2
-7 -3 28 244.18 11.4
7 3 -28 232.48 11.3
-7 3 27 97.99 5.4
7 -3 -27 114.09 5.5
7 3 -27 107.29 5.5
-7 -3 27 103.29 5.7
-7 -3 26 665.03 28.3
7 3 -26 603.14 28.2
-7 3 26 610.04 28.1
7 -3 -26 584.34 28.1
7 -3 -25 34.4 2.1
-7 3 25 31.5 2.1
7 3 -25 33.1 2.2
7 -3 -24 390.66 19.3
-7 -3 24 405.06 19.4
7 3 -24 447.16 19.5
-7 3 24 431.96 19.3
-7 3 23 34 2.1
7 -3 -23 37.9 2.2
-7 -3 23 29.7 2.2
7 3 -23 37.2 2.3
-7 3 22 26.9 1.7
-7 -3 22 23.7 1.8
7 -3 -22 27.2 1.8
7 3 -22 23.9 1.8
-7 3 21 203.48 9.4
7 -3 -21 199.68 9.4
7 3 -21 185.58 9.4
-7 -3 21 186.68 9.4
-7 3 20 67.59 3.8
7 -3 -20 74.79 3.9
-7 3 19 1 0.5
7 -3 -19 1.1 0.5
7 -3 -18 528.45 23.4
-7 3 18 581.54 23.4
-7 -3 17 37.3 2.3
7 -3 -17 36.4 2.2
-7 3 17 32.2 2.2
7 3 -17 36 2.3
-7 3 16 949.31 42.4
7 -3 -16 1067.99 42.5
7 3 -16 954.4 42.5
-7 -3 15 57.19 3.3
7 -3 -15 57.29 3.2
7 3 -15 62.19 3.3
7 3 -14 171.18 8.9
-7 3 14 197.48 8.9
-7 -3 14 199.08 9
7 -3 -14 176.68 8.9
-7 3 13 294.17 14.9
7 3 -13 319.87 15
7 -3 -13 307.97 15
7 -3 -12 223.28 10.8
7 3 -12 233.68 10.8
-7 -3 12 220.28 10.8
-7 3 12 229.48 10.7
7 -3 -11 192.88 8.7
7 3 -11 176.58 8.6
-7 3 11 175.18 8.6
-7 -3 11 175.38 8.7
7 -3 -10 159.28 7.9
7 3 -10 171.48 7.9
-7 -3 10 172.68 8
-7 3 10 154.88 7.9
7 -3 -9 2.4 0.7
7 3 -9 4.3 0.7
-7 3 9 2.3 0.6
-7 -3 9 3.2 0.6
-7 -3 8 448.56 20.3
-7 3 8 439.96 20.3
7 3 -8 430.26 20.3
7 -3 -8 445.96 20.3
-7 -3 7 846.42 38.4
-7 3 7 845.62 38.4
7 -3 -7 767.12 38.4
-7 -3 6 948.41 43.1
7 3 -6 1016.2 43.1
-7 3 6 870.51 43
7 -3 -6 986 43.2
-7 3 5 100.69 5
7 -3 -5 92.89 5
-7 -3 5 100.49 5
7 3 -5 103.69 5
7 -3 -4 1067.29 47.8
7 3 -4 1082.99 47.7
-7 3 4 1071.59 47.7
-7 -3 4 1002.9 47.6
7 3 -3 614.94 30.2
7 -3 -3 711.53 30.4
-7 3 3 722.93 30.3
-7 -3 3 627.44 30.2
7 -3 -2 59.19 3.5
7 3 -2 72.49 3.5
-7 3 2 64.39 3.4
-7 -3 2 63.69 3.4
-7 3 1 51.59 2.9
7 3 -1 52.09 2.8
-7 -3 1 55.89 2.9
7 -3 -1 44.8 2.9
-7 3 0 2605.44 113.09
-7 -3 0 2551.64 113.09
7 3 0 2620.44 113.09
7 -3 0 2274.77 113.09
-7 3 -1 110.79 5.6
7 -3 1 105.69 5.6
-7 -3 -1 114.29 5.5
7 3 1 117.09 5.5
-7 3 -2 3335.97 137.89
7 -3 2 2843.92 137.89
-7 -3 -2 2972.5 137.79
7 3 2 3156.08 137.79
-7 -3 -3 28.1 1.7
7 -3 3 23.5 1.7
-7 3 -3 28.1 1.7
7 3 3 29.1 1.7
-7 3 -4 726.03 32.7
7 -3 4 756.22 32.8
7 3 4 691.43 32.6
-7 -3 -4 720.93 32.6
-7 3 -5 79.59 4
7 -3 5 68.49 4
-7 -3 -5 79.69 3.9
7 -3 6 127.39 5.9
7 3 6 116.39 5.7
-7 -3 -6 112.89 5.7
-7 3 -6 119.59 5.8
7 -3 7 218.78 10.8
-7 3 -7 236.38 10.7
7 -3 8 357.36 16.6
7 -3 9 98.79 4.8
-7 3 -9 85.89 4.6
7 3 9 98.49 4.5
-7 -3 -9 88.39 4.5
-7 -3 -10 780.82 35.2
7 3 10 780.42 35.1
7 -3 10 771.52 35.4
7 3 11 30.4 1.7
-7 -3 -11 34 1.7
7 -3 11 32.1 2
-7 3 -11 26.9 1.9
-7 3 -12 782.72 33.9
7 3 12 725.73 33.6
-7 -3 -12 758.12 33.6
7 -3 12 720.53 33.9
-7 -3 -13 19.2 1.1
7 3 13 13.7 1
7 -3 13 14 1.2
-7 3 -13 18.6 1.3
-7 -3 -14 268.47 11.8
7 -3 14 267.27 12.2
7 3 14 241.18 11.8
-7 3 -14 270.47 12.2
-7 3 -15 34.5 2.2
7 -3 15 38.7 2.3
-7 -3 -15 39.5 1.9
7 3 15 36.9 1.9
7 -3 16 36.7 2.2
-7 3 -16 32.2 2
7 -3 17 113.09 5.9
-7 3 -17 124.59 5.9
-7 3 -18 162.08 7.7
7 -3 18 155.58 7.7
-7 3 -19 50.79 2.8
7 -3 19 50.29 2.9
-7 3 -20 344.37 15.3
7 -3 20 309.77 15.2
7 -3 21 42.9 2.6
-7 3 -21 44.2 2.5
7 -3 22 215.18 9.9
-7 3 -22 199.48 9.8
7 -3 23 34.9 2.2
-7 3 -23 34 2.1
-7 3 -24 0.8 0.4
7 -3 24 0.7 0.4
7 5 -32 21 1.8
-7 -5 32 19.1 1.8
-7 -5 31 59.39 3.6
7 5 -31 56.59 3.5
-7 -5 30 2.2 0.8
7 5 -30 2.4 0.7
-7 -5 29 0.3 0.6
7 5 -29 0.7 0.6
-7 5 28 1.6 0.6
7 -5 -28 1.7 0.7
-7 -5 28 1.7 0.7
7 5 -28 2.9 0.8
7 5 -27 17.6 1.6
-7 -5 27 14.2 1.6
-7 5 27 11.9 1.3
7 -5 -27 15.5 1.5
7 -5 -26 189.78 9.7
-7 5 26 180.98 9.6
7 5 -26 202.98 9.8
7 -5 -25 147.79 7.4
-7 5 25 144.69 7.4
7 -5 -24 210.58 10
-7 5 24 197.58 9.9
-7 5 23 195.18 9
7 -5 -23 180.28 9.1
-7 -5 23 174.58 9.1
7 5 -23 180.48 9.1
-7 5 22 66.49 3.8
7 -5 -22 63.69 3.8
-7 -5 22 73.69 4
7 5 -22 69.39 3.9
7 5 -21 217.58 11.2
7 -5 -21 212.78 11.1
-7 5 21 237.08 11.1
7 -5 -20 20.2 1.6
-7 5 20 15.7 1.4
-7 -5 20 17.5 1.6
7 5 -20 15.2 1.5
-7 5 19 77.09 4.2
7 5 -19 70.69 4.3
7 -5 -19 84.39 4.4
7 5 -18 324.27 15.5
-7 5 18 319.37 15.4
7 -5 -18 314.67 15.5
-7 -5 18 355.36 15.6
-7 5 17 14.4 1.3
7 5 -17 17.1 1.5
-7 -5 17 12.4 1.3
7 -5 -17 13.8 1.4
7 5 -16 250.57 11.7
-7 5 16 257.87 11.7
-7 -5 16 221.98 11.7
7 -5 -16 241.58 11.7
-7 5 15 112.29 6
7 5 -15 127.39 6.1
-7 -5 15 117.49 6.1
7 -5 -15 114.29 6.1
-7 -5 14 216.28 10.9
7 5 -14 209.58 10.8
-7 5 14 223.08 10.8
7 5 -13 190.48 9.8
-7 -5 13 217.68 10
-7 -5 12 1.7 0.6
-7 5 12 0.7 0.6
7 5 -12 1.4 0.5
7 -5 -12 1 0.7
7 5 -11 153.28 7.6
-7 5 11 160.58 7.6
-7 -5 11 148.09 7.6
7 -5 -11 148.79 7.6
7 -5 -10 78.79 4.7
-7 5 10 94.99 4.8
7 5 -10 94.29 4.8
-7 -5 10 89.19 4.8
-7 5 9 42.1 2.5
7 -5 -9 37.2 2.6
-7 -5 9 41.2 2.6
7 5 -9 41.2 2.5
7 -5 -8 348.17 15
7 5 -8 296.97 14.9
-7 -5 8 287.67 14.8
-7 5 8 332.97 14.9
-7 5 7 218.88 11.1
-7 -5 7 234.88 11.2
7 -5 -7 252.77 11.3
7 5 -7 228.98 11.1
7 -5 -6 635.64 28.8
-7 -5 6 676.03 28.8
-7 5 6 605.94 28.7
7 5 -6 592.94 28.7
-7 -5 5 84.49 4.8
-7 5 5 92.79 4.8
7 -5 -5 91.79 4.8
7 5 -5 91.29 4.8
7 -5 -4 10.2 1.2
-7 5 4 13.8 1.2
7 5 -4 11.9 1.2
-7 -5 4 13.5 1.3
7 -5 -3 81.79 4.6
-7 5 3 89.49 4.6
-7 5 2 60.99 3.3
7 -5 -2 56.39 3.4
7 -5 -1 30.7 2.4
-7 5 1 37.2 2.3
-7 5 0 254.87 11.5
7 -5 0 245.78 11.6
7 5 0 255.07 11.5
-7 -5 -1 19.3 1.6
7 -5 1 16.9 1.6
-7 5 -1 19.7 1.5
7 5 1 22.8 1.6
7 -5 2 264.77 12.1
-7 5 -2 234.78 11.8
-7 -5 -2 253.97 11.9
7 5 2 249.78 11.9
-7 5 -3 152.18 7.2
7 -5 3 135.79 7.2
7 -5 4 53.89 3.2
-7 -5 -4 57.09 3.1
-7 5 -4 51.59 3.1
7 5 4 52.49 3.1
-7 5 -5 138.39 6.8
-7 -5 -5 128.09 6.8
7 5 5 127.99 6.8
-7 -5 -6 0.5 0.5
7 -5 6 0.8 0.7
7 5 6 0.9 0.5
-7 5 -6 -0.2 0.5
7 -5 7 239.68 11.3
-7 5 -7 215.48 11.1
-7 -5 -7 227.68 11
7 5 7 245.18 11.1
7 5 8 332.37 16.5
7 -5 8 311.57 16.6
-7 -5 -8 311.37 16.5
-7 5 -9 8.3 1
-7 -5 -9 8.7 0.9
7 5 9 7.5 0.9
-7 -5 -10 232.28 11.4
7 5 10 248.68 11.4
-7 5 -10 224.98 11.5
7 -5 10 256.77 11.7
7 5 11 4.2 0.7
7 -5 11 5.5 0.9
-7 -5 -11 3.6 0.6
-7 5 -11 4.3 0.8
-7 5 -12 177.98 8.8
7 5 12 181.78 8.6
7 -5 12 167.98 8.8
-7 -5 -12 179.98 8.6
7 5 13 35.1 2.2
-7 -5 -13 34.7 2.1
-7 5 -13 36.6 2.3
7 -5 13 29.2 2.4
-7 -5 -14 19.1 1.4
-7 5 -14 17.9 1.5
7 5 14 17.4 1.3
7 -5 14 16.1 1.5
-7 5 -15 69.89 3.9
-7 -5 -15 67.69 3.7
7 5 15 71.29 3.7
7 -5 15 68.79 4
-7 5 -16 56.39 3.4
-7 -5 -16 60.49 3.3
7 5 16 63.69 3.3
7 -5 16 60.79 3.6
7 5 17 150.48 7.1
-7 5 -17 139.19 7.3
-7 -5 -17 148.39 7.1
7 -5 17 138.69 7.4
-7 5 -18 147.59 7.6
-7 -5 -18 152.68 7.3
7 5 18 147.79 7.3
7 -5 18 154.78 7.7
-7 5 -19 3.1 0.7
7 5 19 2.3 0.5
-7 -5 -19 2.5 0.5
7 -5 19 1.9 0.7
7 -5 20 70.99 4.1
-7 5 -20 70.99 4
-7 5 -21 10.5 1.1
7 -5 21 9.9 1.2
-7 5 -22 39.5 2.6
7 -5 22 39.7 2.6
-7 5 -23 10.4 1.2
7 -5 23 7.9 1.1
-7 -7 31 53.39 3.4
7 7 -31 52.69 3.4
7 7 -30 1.8 0.7
-7 -7 30 1.3 0.7
-7 -7 29 1.5 0.8
7 7 -29 2.6 0.8
-7 -7 28 0.9 0.7
7 7 -28 1.6 0.7
-7 -7 27 33.8 2.4
7 7 -27 29.8 2.3
-7 -7 26 10.2 1.3
7 7 -26 11.4 1.3
7 7 -25 38.9 2.6
-7 7 25 36.1 2.5
7 -7 -25 38.8 2.7
-7 -7 25 39.3 2.7
-7 7 24 0.5 0.6
7 -7 -24 0.2 0.6
-7 7 23 34.1 2.3
-7 -7 23 29.3 2.4
7 -7 -23 32.5 2.4
7 -7 -22 14.8 1.5
-7 7 22 14.6 1.4
7 7 -22 14.6 1.4
-7 -7 22 14.6 1.5
-7 7 21 24.8 1.9
7 7 -21 25.1 2
-7 -7 21 26 2
7 -7 -21 23.2 2
-7 -7 20 0.6 0.7
7 7 -20 0.6 0.7
7 7 -19 19.1 1.7
7 7 -18 15.1 1.5
-7 -7 18 13.6 1.5
-7 -7 17 50.09 3.2
7 7 -17 47.7 3.1
7 7 -16 11.5 1.3
-7 -7 16 16 1.5
7 7 -15 23.7 1.9
-7 -7 15 25.3 2
7 7 -14 1.3 0.8
-7 -7 14 2.4 0.8
7 7 -13 71.99 4.1
-7 -7 13 68.99 4.1
7 7 -12 2 0.7
-7 -7 12 1.5 0.8
-7 -7 11 14.5 1.4
7 7 -11 11.8 1.3
7 7 -10 2.7 0.8
-7 -7 10 1.8 0.8
-7 -7 9 10.9 1.2
7 7 -9 9.6 1.1
-7 -7 8 45.8 2.9
7 7 -8 40.7 2.8
7 7 -4 71.59 4
-7 -7 4 67.19 4
-7 -7 3 95.19 4.9
7 7 -3 80.49 4.7
-7 -7 2 32.3 2.3
7 7 -2 31.6 2.2
-7 -7 1 86.99 4.7
7 7 -1 78.19 4.5
7 7 0 67.79 3.8
-7 -7 0 62.29 3.8
-7 -7 -1 5.6 1
-7 7 -2 11.9 1.3
7 -7 2 16.3 1.6
-7 -7 -2 13.1 1.4
7 7 2 15.7 1.4
7 -7 3 52.09 3.4
-7 7 -3 49.6 3.3
-7 -7 -3 62.19 3.4
7 7 3 59.09 3.4
7 -7 4 41 2.9
7 7 4 46.9 2.9
-7 -7 -4 46.8 2.9
-7 7 -5 6.8 1.1
7 -7 5 10.3 1.3
7 7 5 10.6 1.2
-7 -7 -5 10.2 1.2
-7 7 -6 29.6 2.3
-7 -7 -6 37.9 2.4
7 7 6 36 2.4
7 -7 6 34.4 2.5
7 7 7 25.4 1.9
-7 -7 -7 23.5 1.9
-7 7 -7 23.3 1.9
7 -7 7 24 2
7 7 8 10.2 1.2
7 -7 8 7.2 1.2
-7 7 -8 6.2 1
-7 -7 -8 8.5 1.1
7 7 9 5.8 0.9
-7 -7 -9 5 0.9
7 -7 10 95.29 5.1
-7 -7 -10 90.39 4.9
-7 7 -10 85.39 4.9
7 7 10 89.69 4.9
7 7 11 1 0.6
7 -7 11 0.9 0.8
-7 7 -11 0.2 0.6
-7 -7 -11 0.1 0.6
-7 7 -12 12 1.3
-7 -7 -12 10.9 1.2
7 7 12 11.3 1.2
7 -7 12 10.2 1.3
-7 7 -13 12.9 1.3
-7 -7 -13 14.8 1.4
7 7 13 14.7 1.3
-7 -7 -14 13.5 1.4
7 7 14 14.5 1.4
-7 7 -14 14 1.4
7 -7 14 13.5 1.4
-7 7 -15 11.9 1.3
7 7 15 9.5 1.1
-7 -7 -15 10.3 1.2
7 -7 15 9 1.3
-7 7 -16 10.5 1.2
7 7 16 12.1 1.3
-7 -7 -16 12.9 1.3
7 -7 16 13.9 1.5
-7 7 -17 17.9 1.7
7 -7 17 20.4 1.8
-7 7 -18 0.8 0.7
7 -7 18 0.7 0.7
7 -7 19 75.19 4.3
-7 7 -19 69.39 4.1
7 -7 20 6.6 1.1
-7 7 -20 9.2 1.1
-7 7 -21 10.3 1.2
7 -7 21 8.1 1.2
-7 7 -22 1.4 0.7
7 -7 22 0.9 0.7
-7 -9 29 0.9 0.7
7 9 -29 0.4 0.6
-7 -9 28 5 1
7 9 -28 4.9 0.9
7 9 -26 8.6 1.2
-7 -9 26 9.9 1.3
7 9 -25 3.5 0.9
-7 -9 25 5.9 1.1
7 9 -24 0.2 0.5
-7 -9 24 0.1 0.6
-7 -9 23 16.8 1.6
7 9 -23 13.4 1.4
-7 -9 22 10.4 1.3
7 9 -22 11.4 1.3
-7 9 22 8.4 1.2
7 -9 -21 10.6 1.3
-7 9 21 9.2 1.2
-7 -9 21 7.9 1.2
7 9 -21 10 1.2
7 9 -20 1.8 0.7
7 -9 -20 2.8 0.9
-7 9 20 2.8 0.8
-7 -9 20 3.1 0.9
-7 9 19 6.6 1
7 -9 -19 7 1.1
7 -9 -18 7.8 1.1
-7 9 18 7.4 1.1
-7 -9 18 8.4 1.1
7 9 -18 5 0.9
7 -9 -17 21 1.8
7 9 -17 18.6 1.7
-7 -9 17 20 1.8
-7 9 17 19.4 1.7
7 9 -16 12 1.3
7 -9 -16 15.5 1.5
-7 9 16 11.5 1.3
-7 -9 16 14.8 1.5
-7 -9 15 27.4 2.2
7 9 -15 26 2.1
-7 9 15 25 2
7 -9 -15 31.1 2.3
-7 9 14 10.5 1.2
7 -9 -14 10.8 1.3
-7 -9 14 13.3 1.5
7 9 -14 8.6 1.2
-7 9 13 1.7 0.7
7 -9 -13 3.2 0.8
7 9 -13 3 0.9
-7 -9 13 2.1 0.8
-7 9 12 0.7 0.7
7 -9 -12 -0.1 0.7
-7 -9 12 0.5 0.5
7 9 -12 0.8 0.5
7 9 -11 3.1 0.9
-7 -9 11 3.5 0.9
7 -9 -11 2.8 0.9
-7 9 11 2.2 0.9
-7 9 10 11.7 1.3
7 -9 -10 9.4 1.3
-7 -9 10 11.3 1.3
7 9 -10 10.1 1.3
7 -9 -9 2.4 0.8
-7 -9 9 1.3 0.6
-7 9 9 2 0.7
7 9 -9 2.2 0.7
-7 9 8 17.9 1.7
-7 -9 8 22.2 1.8
7 9 -8 20.3 1.8
7 -9 -7 8.4 1.2
-7 9 7 7.7 1.1
7 9 -7 6.5 1
-7 -9 7 6.8 1.1
7 9 -6 17.6 1.6
7 -9 -6 17.5 1.6
-7 -9 6 16.4 1.6
7 -9 -5 27.6 2.2
-7 -9 5 24.2 2
7 9 -5 27 2.1
7 9 -4 2 0.8
-7 9 4 2.1 0.7
7 -9 -4 2.4 0.8
-7 -9 4 2.4 0.9
7 9 -3 2.9 0.7
-7 9 3 2.5 0.8
-7 -9 3 2.8 0.7
7 -9 -3 2.4 0.9
7 -9 -2 0.8 0.7
-7 9 2 0.2 0.7
7 -9 -1 7.7 1.2
-7 9 1 8.1 1.1
7 -9 0 1.8 0.8
-7 9 0 1.3 0.7
7 9 1 0.7 0.6
-7 9 -1 0.8 0.7
7 -9 1 0.2 0.7
-7 -9 -1 0.2 0.6
-7 9 -2 31.8 2.4
-7 -9 -2 36.2 2.5
7 9 2 36.9 2.5
7 -9 2 32.5 2.5
-7 -9 -3 18.3 1.7
-7 9 -3 21.2 1.7
7 9 3 19.2 1.8
7 -9 3 21.5 1.9
-7 9 -4 1.5 0.7
7 9 4 0.7 0.7
7 -9 4 -0.1 0.7
-7 -9 -4 0.7 0.8
-7 9 -5 10.8 1.3
-7 -9 -5 12.9 1.4
7 9 5 13.1 1.4
7 -9 5 11.1 1.5
7 -9 6 4 1
-7 9 -6 3.9 0.8
7 9 6 2.6 0.8
-7 -9 -6 4.2 0.9
-7 -9 -7 24.3 2
7 9 7 23.1 1.9
-7 9 -7 21.8 1.9
7 -9 7 20.2 2
7 9 8 5.3 0.9
7 -9 8 5.4 1.1
-7 -9 -8 5.1 0.9
-7 9 -8 4.8 0.9
-7 9 -9 12.7 1.4
7 9 9 13.9 1.4
-7 -9 -9 13.3 1.4
-7 9 -10 5 0.9
7 9 10 3.7 0.9
-7 -9 -10 4.7 0.9
7 -9 10 5.8 1
7 9 11 0.7 0.6
-7 -9 -11 1.6 0.7
-7 9 -11 0.7 0.6
7 -9 11 1.4 0.7
-7 9 -12 22.1 1.8
7 9 12 18.3 1.7
-7 -9 -12 18.8 1.7
7 -9 12 19.9 1.8
-7 9 -13 0.1 0.6
7 9 13 0.2 0.7
7 -9 13 0.7 0.7
7 -9 14 5.8 1.1
-7 9 -14 3.9 0.9
7 -9 15 0.1 0.8
-7 9 -15 0.4 0.7
-7 9 -17 5.7 1
7 -9 17 2.3 0.9
-7 9 -18 4.7 0.9
7 -9 18 6.9 1.2
-7 9 -19 11.8 1.3
7 -9 19 10.3 1.4
-7 9 -20 6.5 1
7 -9 20 5.8 1.1
7 11 -22 1.2 0.6
-7 -11 22 0.6 0.7
7 11 -21 5.3 0.9
-7 -11 21 4.2 0.9
7 11 -20 1.9 0.6
-7 -11 20 2 0.7
7 11 -19 14.5 1.5
-7 -11 19 17.6 1.6
7 11 -16 40.2 2.6
-7 -11 16 32.6 2.5
-7 -11 15 0.5 0.7
7 11 -15 0.5 0.6
-7 -11 14 25.7 2.2
7 11 -14 32.9 2.3
7 11 -13 10 1.2
-7 -11 13 8.8 1.2
7 11 -12 5.6 1
-7 -11 12 7.1 1.1
-7 11 12 4.5 0.9
7 -11 -12 3.1 0.9
7 -11 -11 6.3 1.1
-7 11 11 6.3 1.1
-7 -11 11 5 1
7 11 -11 7.3 1.1
-7 -11 10 27.4 2.2
7 11 -10 29.1 2.1
-7 11 10 29.6 2.2
7 -11 -10 27.3 2.2
-7 11 9 4.9 0.9
7 -11 -9 2.8 0.9
-7 -11 9 3.8 0.9
7 11 -9 2.8 0.9
-7 11 8 19.1 1.7
7 11 -8 17.1 1.6
-7 -11 8 16.5 1.6
7 -11 -8 19 1.7
-7 11 7 9.3 1.2
7 -11 -7 12.6 1.5
7 -11 -6 17 1.7
-7 11 6 15 1.5
7 -11 -5 1 0.6
7 11 -5 1.6 0.8
-7 11 5 1.8 0.6
-7 11 4 3.6 0.9
7 -11 -4 1.7 0.8
-7 -11 4 3.4 0.9
7 11 -4 1.8 0.8
7 11 -3 6.7 1.1
-7 -11 3 7.8 1.1
7 11 -2 3.6 0.8
-7 -11 2 2.9 0.8
7 11 -1 1.2 0.8
-7 -11 1 2.8 0.9
7 11 0 49.5 3.1
-7 -11 0 44.3 3.1
7 11 1 1.3 0.8
-7 -11 -1 0.5 0.7
-7 -11 -2 77.49 4.3
7 11 2 69.39 4.2
7 -11 2 71.39 4.2
-7 11 -2 68.49 4.1
-7 11 -3 0.2 0.6
-7 -11 -3 1.2 0.7
7 11 3 0.2 0.7
7 -11 3 0.4 0.8
-7 11 -4 18.6 1.7
7 -11 4 21.7 1.9
-7 -11 -4 19.2 1.8
7 11 5 3.2 0.9
-7 11 -5 4.1 0.9
-7 -11 -5 4.4 0.9
7 -11 5 3 1
7 11 6 0.3 0.7
7 -11 6 -0.6 0.7
-7 11 -6 -0.5 0.7
-7 -11 -6 0.4 0.7
-7 11 -7 2.6 0.7
7 -11 7 2.4 0.8
-7 -11 -7 3 0.8
7 11 7 2.9 0.9
7 -11 8 30.8 2.3
-7 11 -8 31.2 2.3
7 11 8 36.8 2.5
-7 11 -9 2.2 0.7
7 -11 9 2.7 0.8
-7 11 -10 8.8 1.2
7 -11 10 10.5 1.4
7 -11 11 3.2 0.9
-7 11 -11 3.5 0.8
-7 11 -12 21.6 1.8
7 -11 12 21.6 1.9
-7 11 -14 3.5 0.8
7 -11 14 2.6 0.9
-7 11 -15 1.2 0.7
7 -11 15 1.8 0.8
-7 11 -16 3.5 0.8
7 -11 16 3.6 0.9
-7 11 -17 0.3 0.5
7 -11 17 0.7 0.6
-7 11 -18 22.4 1.8
7 -11 18 26.4 2.1
-8 0 33 -0.1 0.4
8 0 -32 98.49 5
-8 0 32 90.79 4.9
-8 0 31 0.1 0.4
8 0 -31 0.2 0.4
-8 0 30 223.88 11.3
8 0 -30 257.87 11.5
8 0 -29 -0.1 0.4
-8 0 29 -0.1 0.4
-8 0 28 410.96 18.3
8 0 -28 375.46 18.3
8 0 -27 0.4 0.5
-8 0 27 0.1 0.4
-8 0 26 606.84 28.3
8 0 -26 632.64 28.4
-8 0 25 -0.1 0.4
8 0 -25 0.1 0.4
-8 0 24 431.66 20.3
8 0 -24 448.96 20.3
-8 0 23 -0.1 0.4
8 0 -23 -0.1 0.4
8 0 -22 152.08 7.4
-8 0 22 150.08 7.4
-8 0 21 0.1 0.4
8 0 -21 -0.1 0.4
8 0 -20 977.1 41.1
-8 0 20 843.62 40.9
-8 0 19 0.1 0.4
8 0 -19 0.1 0.4
-8 0 18 747.73 35.7
8 0 -18 833.92 35.8
8 0 -17 0.1 0.4
-8 0 17 -0.1 0.4
-8 0 16 1854.11 86.19
8 0 -16 1986.7 86.19
-8 0 15 0.2 0.4
8 0 -15 -0.1 0.4
-8 0 14 204.18 10.2
8 0 -14 231.68 10.3
-8 0 13 0.3 0.4
8 0 -13 0 0.4
8 0 -12 380.86 18
-8 0 12 405.16 18
-8 0 11 0 0.4
8 0 -11 0 0.5
-8 0 10 877.11 37.2
8 0 -10 772.02 37.1
8 0 -9 -0.2 0.3
-8 0 9 -0.1 0.4
-8 0 5 0.3 0.3
8 0 -5 0.3 0.4
-8 0 4 107.29 5.4
8 0 -4 117.89 5.4
8 0 -3 0 0.4
-8 0 3 0.1 0.4
-8 0 2 629.74 29.4
8 0 -2 678.83 29.5
8 0 -1 0.1 0.4
-8 0 1 -0.1 0.4
-8 0 0 3043.4 139.69
8 0 0 3215.48 139.79
-8 0 -1 0.3 0.3
8 0 1 0 0.3
-8 0 -2 4463.15 204.68
8 0 2 4709.03 204.68
-8 0 -3 0.1 0.3
8 0 3 0.1 0.3
-8 0 -4 4587.24 201.08
8 0 4 4390.06 201.08
-8 0 -5 0.2 0.2
8 0 5 0.2 0.3
8 0 6 166.88 7.7
8 0 7 0.3 0.2
-8 0 -7 0.3 0.2
8 0 8 2596.84 119.79
-8 0 -8 2754.52 119.79
8 0 9 0 0.1
-8 0 -9 0.1 0.1
8 0 10 2324.17 103.89
-8 -2 33 68.79 3.8
8 2 -33 62.49 3.7
8 2 -32 53.39 3.3
-8 -2 32 52.49 3.2
8 -2 -31 0.4 0.5
-8 -2 31 0.7 0.5
8 2 -31 0.2 0.5
-8 2 31 0.7 0.5
-8 -2 30 92.29 4.7
-8 2 30 78.89 4.5
8 -2 -30 83.89 4.6
8 2 -30 90.39 4.7
8 2 -29 195.98 9.6
-8 -2 29 213.48 9.7
-8 2 29 193.68 9.4
8 -2 -29 184.38 9.5
-8 -2 28 651.33 27.8
-8 2 28 604.54 27.6
8 -2 -28 597.24 27.6
8 2 -28 559.34 27.6
-8 2 27 43.4 2.6
8 2 -27 45.7 2.7
-8 -2 27 49.1 2.8
8 -2 -27 42 2.6
8 2 -26 605.34 28.8
-8 -2 26 644.64 28.8
8 -2 -26 643.04 28.8
-8 2 26 617.54 28.7
8 -2 -25 32.2 2
-8 2 25 29.7 2
8 -2 -24 242.68 11.3
-8 2 24 229.78 11.2
8 2 -23 36 2.3
-8 -2 23 34.1 2.3
8 -2 -23 38.5 2.3
-8 2 23 35.5 2.2
8 2 -22 48.4 2.8
8 -2 -22 49.2 2.8
-8 2 22 41.4 2.7
-8 -2 22 51.29 2.8
8 -2 -21 30 1.9
8 2 -21 30 2
-8 -2 21 28.5 1.9
-8 2 21 29.9 1.9
8 2 -20 423.06 19.3
-8 -2 20 405.36 19.3
8 -2 -20 407.26 19.3
-8 2 20 428.76 19.2
8 2 -19 171.28 9
8 -2 -19 185.38 9
-8 2 19 187.38 8.9
8 2 -18 1100.29 49.1
-8 2 18 1120.59 49.1
8 -2 -18 1011.4 49
-8 -2 18 1113.19 49.1
-8 2 17 1.5 0.5
-8 -2 17 1.7 0.5
8 -2 -17 1.1 0.5
8 2 -17 1.9 0.5
-8 -2 16 981 46.3
8 2 -16 1028.1 46.3
-8 2 16 1054.59 46.2
8 2 -15 1.7 0.6
-8 2 15 2.3 0.5
-8 -2 15 1.3 0.5
8 -2 -15 1.2 0.5
-8 -2 14 311.27 14.5
-8 2 14 303.57 14.4
8 2 -14 331.87 14.5
8 -2 -14 298.87 14.5
-8 -2 13 191.28 9.4
8 -2 -13 219.28 9.5
-8 2 13 215.08 9.4
8 2 -12 104.39 5.5
8 -2 -12 88.19 5.4
-8 2 12 136.19 5.6
-8 -2 12 123.09 5.6
-8 -2 11 37.7 2.4
8 2 -11 40.6 2.4
8 -2 -11 42.5 2.4
-8 2 10 822.42 36.8
-8 -2 10 809.52 36.8
8 -2 -10 875.81 36.9
8 2 -10 752.02 36.8
-8 2 9 14.1 1
8 -2 -9 11 1
-8 -2 9 11.6 1.1
8 2 -9 11.2 1.1
-8 2 8 3395.86 140.79
-8 -2 8 3140.29 140.89
8 -2 -8 2984.4 140.79
8 2 -8 3045.2 140.79
-8 -2 7 52.99 3.1
8 2 -7 58.59 3.1
8 -2 -7 58.29 3.2
8 -2 -6 887.21 38.8
-8 -2 6 837.72 38.7
8 2 -6 855.31 38.7
-8 2 6 849.02 38.7
8 -2 -5 106.99 4.8
-8 2 5 102.99 4.8
-8 -2 5 82.29 4.8
8 2 -5 91.19 4.7
-8 -2 4 140.69 6.8
8 -2 -4 138.19 6.8
-8 2 4 147.39 6.8
8 2 -4 140.89 6.8
8 -2 -3 842.02 36.3
-8 2 3 737.43 36.2
-8 -2 3 825.82 36.2
8 2 -3 808.92 36.2
8 2 -2 797.92 37.8
-8 2 2 842.32 37.8
-8 -2 2 817.02 37.8
8 -2 -2 903.41 37.9
-8 2 1 367.76 17
8 -2 -1 376.56 17.1
8 -2 0 2751.22 132.19
-8 2 0 3139.49 132.19
-8 2 -1 14.6 1.1
8 -2 1 17.2 1.2
8 -2 2 1314.47 64.99
-8 -2 -2 1378.26 64.89
8 2 2 1406.46 64.89
-8 2 -3 406.16 18.3
8 -2 3 386.56 18.4
-8 -2 -3 404.66 18.3
8 2 3 402.96 18.3
8 -2 4 234.08 11.1
-8 2 -4 258.37 11.1
-8 -2 -4 225.58 10.9
8 2 4 236.68 11
-8 2 -5 124.69 5.8
-8 -2 -5 119.49 5.7
8 -2 5 115.79 5.8
8 -2 6 223.88 9.6
-8 -2 -6 205.58 9.4
-8 2 -6 203.58 9.5
8 2 6 191.68 9.4
8 -2 7 83.19 4.3
-8 -2 -7 85.79 4
8 2 7 84.09 4.1
-8 -2 -8 1867.91 83.49
8 2 8 1939.31 83.59
8 -2 8 1709.63 83.79
-8 2 -8 1883.41 83.69
8 2 9 93.19 4.7
-8 -2 -9 106.49 4.7
-8 2 -9 100.39 4.9
8 -2 9 104.49 5
8 -2 10 1193.48 58.09
-8 2 -10 1302.27 57.99
-8 -2 -10 1319.37 57.79
8 2 10 1293.17 57.79
-8 -2 -11 16.7 0.9
8 2 11 16.3 0.9
8 -2 11 16.1 1.2
-8 2 -12 621.14 27.6
8 -2 12 593.54 27.6
-8 2 -13 101.79 4.8
8 -2 13 91.39 4.8
-8 2 -14 11.1 0.9
8 -2 14 8.8 0.9
8 -2 15 12.6 0.9
-8 2 -15 10.2 0.9
8 -2 16 514.65 24.2
-8 2 -16 545.65 24.1
8 -2 17 179.78 8.9
-8 2 -17 199.08 8.9
-8 2 -18 663.23 30.2
8 -2 18 670.93 30.3
-8 2 -19 6.7 0.7
8 -2 19 6.9 0.7
-8 2 -20 944.31 43.8
8 -2 20 1000.3 43.8
-8 2 -21 0.1 0.3
8 -2 21 0.1 0.3
8 4 -33 48.4 3.1
-8 -4 33 45.8 3
8 4 -32 93.29 4.9
-8 -4 32 77.19 4.7
-8 4 30 4.3 0.8
8 -4 -30 4.9 0.8
8 -4 -29 13.8 1.3
8 4 -29 14.1 1.4
-8 -4 29 14.1 1.4
-8 4 29 15.2 1.3
8 4 -28 106.49 5.6
-8 4 28 100.69 5.4
-8 -4 28 99.19 5.5
8 -4 -28 112.49 5.6
8 4 -27 16 1.5
-8 4 27 16.8 1.4
8 -4 -27 16.6 1.4
-8 -4 27 13.9 1.4
-8 4 26 394.76 19
8 -4 -26 406.36 19.1
-8 -4 26 388.46 19.2
8 4 -26 449.76 19.2
-8 4 25 151.58 8
8 -4 -25 163.58 8.1
-8 -4 25 156.48 8.1
8 4 -25 178.58 8.2
8 4 -24 239.88 12.2
-8 -4 24 274.07 12.4
-8 -4 23 207.28 10
8 4 -23 197.88 9.9
8 4 -22 62.69 3.7
-8 -4 22 70.39 3.9
-8 -4 21 9.3 1.1
8 4 -21 11.8 1.2
8 4 -20 401.46 18.7
-8 -4 20 396.36 18.7
-8 4 19 77.59 4.2
8 -4 -19 78.89 4.3
-8 -4 19 78.79 4.3
-8 4 18 238.68 11.1
-8 -4 18 243.38 11.2
8 -4 -18 230.88 11.2
8 4 -18 216.78 11.1
8 -4 -17 1.7 0.6
8 4 -17 2.6 0.7
-8 4 17 2.6 0.7
-8 -4 17 2.7 0.8
-8 -4 16 698.33 32.7
-8 4 16 718.93 32.6
8 -4 -16 732.53 32.7
8 4 -16 705.43 32.7
8 -4 -15 132.39 6.6
-8 -4 15 128.39 6.6
8 4 -15 131.79 6.6
8 -4 -14 82.19 4.1
-8 4 14 77.29 4
8 4 -14 77.59 4.1
8 -4 -13 362.26 17.6
8 4 -13 393.96 17.7
-8 -4 13 366.96 17.7
-8 4 13 387.96 17.6
-8 4 12 186.58 9.2
8 -4 -12 194.28 9.3
8 -4 -11 7.2 1
-8 4 11 6.3 0.8
-8 4 10 807.12 35.5
8 4 -10 791.62 35.6
-8 -4 10 753.02 35.6
8 -4 -10 766.92 35.6
-8 4 9 497.25 23.4
8 -4 -9 540.05 23.5
-8 -4 9 544.65 23.5
8 4 -9 464.55 23.4
-8 -4 8 1529.95 72.99
-8 4 8 1663.23 72.99
8 4 -8 1667.83 73.09
8 -4 -8 1620.04 73.09
8 4 -7 454.45 20.3
8 -4 -7 417.36 20.3
-8 4 7 432.76 20.3
-8 -4 7 450.95 20.3
8 4 -6 253.27 11.4
-8 4 6 229.18 11.3
-8 -4 6 238.58 11.4
8 -4 -6 232.28 11.4
8 4 -5 6.8 0.8
8 -4 -5 8.4 1
-8 -4 5 7.5 0.9
-8 4 5 5.2 0.8
8 -4 -4 106.29 5.7
8 4 -4 114.59 5.7
-8 4 4 108.89 5.7
-8 -4 4 118.69 5.7
8 4 -3 1.1 0.6
8 -4 -3 3.3 0.8
-8 4 3 1.7 0.6
-8 -4 3 2 0.6
-8 4 2 213.28 10.3
8 4 -2 217.48 10.3
8 -4 -2 208.68 10.3
-8 -4 2 221.28 10.3
-8 -4 1 126.09 6.1
-8 4 1 122.69 6.1
8 4 -1 131.69 6.1
-8 4 0 701.93 29.9
8 -4 0 607.64 29.9
8 4 0 694.43 29.9
-8 -4 0 609.14 29.9
8 4 1 21.1 1.4
8 -4 1 18.9 1.5
-8 4 -1 16.4 1.4
-8 -4 -1 19.4 1.4
8 -4 2 1115.89 49.2
8 4 2 1047.8 49
-8 -4 -2 1114.89 49.1
-8 4 -2 1067.19 49.1
8 4 3 114.79 5.9
-8 4 -3 107.79 5.9
8 4 4 83.99 4.2
-8 4 -4 78.19 4.3
-8 -4 -4 81.69 4.3
8 -4 4 83.59 4.4
8 -4 5 111.59 5.6
-8 -4 -5 115.09 5.4
8 4 5 112.79 5.4
-8 4 -6 18.5 1.4
8 4 6 18.6 1.4
-8 -4 -6 18.5 1.3
8 -4 6 19.1 1.6
8 4 7 86.09 4.3
-8 4 -7 80.89 4.4
-8 -4 -7 82.89 4.3
8 -4 7 84.79 4.5
-8 4 -8 1235.68 58.39
8 4 8 1346.37 58.29
-8 -4 -8 1286.47 58.19
8 4 9 17.4 1.2
-8 -4 -9 18.4 1.3
-8 4 -9 16.6 1.3
8 -4 9 16.3 1.4
8 -4 10 575.54 25.7
8 4 10 547.45 25.4
-8 -4 -10 553.64 25.4
8 -4 11 2.1 0.6
-8 4 -11 1.7 0.6
8 4 11 2.3 0.5
-8 -4 -11 1 0.4
-8 4 -12 157.08 7.8
-8 -4 -12 161.98 7.6
8 4 12 158.78 7.6
8 -4 12 153.38 7.9
-8 -4 -13 2 0.4
8 4 13 1.7 0.4
8 4 14 1 0.4
-8 -4 -14 0.9 0.4
-8 -4 -16 72.59 3.7
8 4 16 74.19 3.7
8 4 17 57.99 3.1
-8 -4 -17 67.29 3.1
-8 4 -18 168.78 7.5
8 -4 18 180.68 7.7
-8 -4 -18 154.28 6.9
-8 4 -19 1.4 0.5
8 -4 19 1 0.6
8 -4 20 95.99 5.1
-8 4 -20 97.19 5.1
-8 4 -21 0.9 0.5
8 -4 21 1.5 0.6
-8 4 -22 1.9 0.6
8 -4 22 2.9 0.7
-8 4 -23 9.2 1
8 -4 23 9.6 1.1
-8 -6 32 2.2 0.9
8 6 -32 4.2 0.9
8 6 -31 0.6 0.6
-8 -6 31 -0.1 0.6
-8 -6 29 11.5 1.3
8 6 -29 8.3 1.1
8 6 -28 67.49 4
-8 -6 28 70.39 4.1
8 6 -27 7.6 1.1
-8 -6 27 7.9 1.1
8 -6 -27 7.3 1
-8 6 27 7.2 1
8 -6 -26 4.5 0.9
8 6 -26 3 0.8
-8 -6 26 2.6 0.9
-8 6 26 3 0.8
-8 -6 25 21.8 1.8
8 -6 -25 22 1.8
-8 6 25 23.4 1.8
8 6 -25 19.9 1.8
8 -6 -24 16.6 1.6
-8 6 24 20.3 1.6
-8 -6 24 19.3 1.7
8 6 -24 16.7 1.6
-8 6 23 88.59 4.5
8 -6 -23 77.89 4.4
-8 -6 23 71.29 4.4
8 6 -23 76.09 4.4
8 -6 -22 2.6 0.8
8 6 -22 2.7 0.8
-8 6 22 4.2 0.8
-8 -6 22 2.6 0.8
-8 6 21 84.99 4.8
8 -6 -21 81.99 4.8
-8 -6 21 92.99 4.9
8 6 -21 92.89 4.9
-8 6 20 16.3 1.5
8 -6 -20 16.2 1.5
-8 -6 20 11.8 1.5
8 6 -20 14.6 1.4
-8 -6 19 42.6 2.8
-8 6 19 42.1 2.6
8 6 -19 37.7 2.6
8 -6 -19 41.5 2.7
-8 6 18 138.39 6.8
8 -6 -18 141.19 6.9
8 6 -18 126.79 6.8
-8 -6 18 121.79 6.8
8 -6 -17 60.99 3.7
-8 6 17 64.99 3.7
-8 6 16 98.39 5.1
8 -6 -16 88.09 5.1
8 -6 -15 176.08 8.9
8 6 -15 182.98 8.9
-8 6 15 180.48 8.8
-8 -6 15 171.98 8.9
-8 6 14 31.5 2.2
8 6 -14 35.3 2.3
8 -6 -14 35.3 2.3
-8 -6 14 28.1 2.3
8 -6 -13 116.39 6.1
8 6 -13 114.19 6
-8 -6 13 116.09 6.1
8 6 -12 4.8 0.9
8 -6 -12 6.1 0.9
-8 6 12 5 0.8
-8 -6 12 4.9 0.9
8 -6 -11 49.99 3.1
8 6 -11 51.19 3.1
-8 6 11 50.69 3
-8 -6 11 49.6 3.1
8 6 -10 71.69 4.1
-8 6 10 68.59 4
8 -6 -10 73.09 4.1
-8 -6 10 75.29 4.1
8 6 -9 0.1 0.7
8 -6 -9 1.4 0.7
-8 -6 9 0.4 0.6
-8 6 9 0.4 0.5
-8 6 8 240.58 12.9
8 6 -8 271.37 13
8 -6 -8 253.57 13
8 -6 -7 83.49 4.5
8 6 -7 80.79 4.4
-8 6 7 84.39 4.4
-8 -6 7 72.59 4.4
-8 6 6 35.9 2.4
8 6 -6 36.1 2.4
8 -6 -6 31.6 2.4
-8 6 5 83.59 4.5
8 6 -5 84.99 4.5
8 -6 -5 80.99 4.6
-8 -6 5 81.19 4.5
-8 6 4 5.3 0.9
8 -6 -4 5.1 1
8 6 -4 5.4 0.9
-8 -6 4 5.2 0.9
8 6 -3 1.9 0.7
8 -6 -3 1.5 0.9
-8 6 3 2.6 0.7
-8 -6 3 3.8 0.8
8 -6 -2 13 1.6
-8 6 2 15.1 1.4
-8 -6 2 16.9 1.5
8 6 -2 17.1 1.5
-8 6 1 0.1 0.6
8 6 -1 0.7 0.5
-8 -6 1 0.4 0.6
8 -6 -1 0.6 0.7
-8 6 0 43.1 2.5
8 -6 0 35.7 2.6
8 6 0 39 2.5
-8 -6 0 36.5 2.5
-8 6 -1 3.4 0.8
8 6 1 4.2 0.8
8 -6 1 3.3 0.8
8 -6 2 93.99 5.2
-8 6 -2 86.99 5
8 6 2 101.99 5.1
-8 -6 -2 97.09 5.1
8 -6 3 6.5 1.1
-8 6 -3 7.7 1.1
8 6 3 8.5 1
-8 -6 -3 7.7 1
-8 6 -4 8 1.1
8 -6 4 7.7 1.1
8 6 4 7.3 1
-8 -6 -4 9.1 1.1
8 -6 5 80.79 4.7
8 6 5 88.79 4.6
-8 -6 -5 78.69 4.5
-8 6 -5 85.49 4.6
8 6 6 5.7 0.9
-8 -6 -6 4.4 0.8
8 -6 6 6.4 1.1
-8 6 -6 5.3 0.9
8 6 7 100.29 6.2
8 -6 7 115.49 6.4
8 -6 8 184.38 8.9
8 6 8 168.68 8.6
-8 -6 -8 173.88 8.7
-8 6 -9 2.1 0.6
8 6 9 1.3 0.6
8 -6 9 2.5 0.7
-8 -6 -9 1.2 0.6
8 6 10 102.19 5.4
-8 6 -10 96.59 5.4
8 -6 10 117.09 5.7
-8 -6 -10 101.19 5.4
8 -6 11 2.5 0.8
-8 6 -11 3.6 0.8
8 6 11 2.7 0.7
-8 -6 -11 3.3 0.7
8 -6 12 7.7 1.2
-8 6 -12 8.9 1.1
8 -6 13 0.3 0.7
-8 6 -13 0.1 0.6
-8 6 -14 47.6 3
8 -6 14 47.8 3.1
8 6 15 41.8 2.5
-8 -6 -15 35.6 2.4
-8 -6 -16 39.3 2.5
8 6 16 45 2.6
-8 -6 -17 179.88 8.7
8 6 17 178.68 8.7
-8 6 -18 11.2 1.2
8 -6 18 11.6 1.4
8 -6 19 12.7 1.4
-8 6 -19 12.4 1.3
8 -6 20 16.5 1.7
-8 6 -20 19 1.6
-8 6 -21 4.5 0.8
8 -6 21 4.1 0.9
-8 6 -22 17.2 1.6
8 -6 22 17.9 1.7
-8 -8 30 0.7 0.7
8 8 -30 1.3 0.7
-8 -8 29 0.1 0.8
8 8 -29 0.4 0.7
8 8 -28 9.8 1.2
-8 -8 28 12.2 1.4
8 8 -26 16.3 1.6
-8 -8 26 13.4 1.5
-8 -8 25 36.4 2.6
8 8 -25 38.6 2.6
8 8 -24 2 0.8
-8 8 24 0.7 0.6
8 -8 -24 1.6 0.7
-8 -8 24 2.9 0.9
-8 8 23 32.7 2.3
8 -8 -23 31.5 2.4
8 8 -23 33.7 2.4
-8 -8 23 29.5 2.3
8 -8 -22 5.2 1
-8 8 22 4.8 0.9
-8 -8 22 3.2 0.8
8 8 -22 6.1 1
-8 8 21 4.5 0.9
8 8 -21 3.3 0.8
8 -8 -21 3.8 0.9
-8 -8 21 4.5 0.9
-8 8 20 0.3 0.6
8 -8 -20 1.1 0.6
-8 -8 20 0.2 0.6
8 8 -20 1.1 0.6
-8 8 19 6.3 1
8 8 -19 8.6 1.1
8 -8 -19 6.5 1
-8 -8 19 7.2 1
8 -8 -18 6.7 1.1
-8 -8 18 6 1
-8 8 18 7 1
8 8 -18 6 0.9
8 8 -17 10.3 1.2
-8 8 17 10.8 1.3
-8 -8 17 8.2 1.2
8 -8 -17 13.1 1.4
-8 8 16 -0.1 0.7
8 -8 -16 1.3 0.8
8 8 -16 0.2 0.6
-8 -8 16 1.4 0.8
-8 8 15 40.8 2.7
8 -8 -15 41.8 2.8
8 8 -14 13.9 1.5
-8 8 14 14.5 1.4
8 -8 -14 16.2 1.5
-8 -8 14 13 1.5
-8 -8 13 7.1 1.1
8 -8 -13 6.2 1
-8 8 13 7 1
8 8 -13 6.7 1.1
-8 8 12 1.6 0.7
8 -8 -12 2.2 0.8
-8 -8 12 2.2 0.7
8 8 -12 1.3 0.6
-8 8 11 3.2 0.9
8 -8 -11 2.6 0.9
-8 -8 11 3.7 0.8
8 8 -11 3.1 0.8
8 8 -10 14.8 1.5
-8 8 10 11.4 1.3
-8 -8 10 11.7 1.4
-8 8 9 11.8 1.3
8 8 -9 13.9 1.4
-8 -8 9 11.4 1.3
8 8 -8 10.8 1.3
-8 -8 8 14.5 1.4
-8 8 8 11.8 1.3
8 -8 -7 28.7 2.2
8 8 -7 29.9 2.2
-8 -8 7 25.9 2.1
-8 8 7 30.1 2.2
-8 8 6 1.8 0.8
8 8 -6 2.4 0.8
8 -8 -6 2.6 0.9
-8 -8 6 2.3 0.8
8 -8 -5 130.79 6.6
-8 8 5 120.09 6.4
8 8 -5 116.59 6.4
-8 -8 5 128.49 6.6
8 -8 -4 4 0.9
-8 8 4 4 0.8
8 8 -4 4.2 0.9
-8 -8 4 5.8 1
8 8 -3 30.7 2.2
-8 8 3 25 2
8 -8 -3 25.1 2.2
-8 -8 3 29.4 2.2
8 -8 -2 2.6 0.9
8 8 -2 3.1 0.8
-8 8 2 1.2 0.7
-8 -8 2 1.8 0.8
8 -8 -1 18.6 1.7
-8 8 1 17.3 1.5
-8 -8 1 16.6 1.6
8 -8 0 18.8 1.8
8 8 0 20.4 1.7
-8 8 0 20.2 1.7
-8 -8 0 21.3 1.8
8 -8 1 27.8 2.3
8 8 1 28.5 2.1
-8 8 -1 31.4 2.2
-8 -8 -1 29 2.2
8 -8 2 39.3 2.8
8 8 2 41.7 2.7
-8 -8 -2 39.8 2.7
-8 8 -3 99.59 5.5
8 8 3 99.59 5.5
-8 -8 -3 95.29 5.6
8 8 4 1.2 0.8
-8 8 -4 2.7 0.9
8 -8 4 1.7 0.9
-8 -8 -4 2.9 0.9
8 8 5 7 1.1
8 -8 5 9.2 1.3
-8 8 -5 9.9 1.2
-8 -8 -5 8.4 1.2
-8 8 -6 25.5 2.1
8 8 6 31.8 2.2
-8 -8 -6 28.8 2.2
8 -8 6 34.1 2.4
8 -8 7 3 0.9
-8 8 -7 3.4 0.8
8 8 7 4.1 0.9
-8 -8 -7 3 0.8
8 -8 8 3.4 0.9
8 8 8 3.7 0.8
-8 -8 -8 3.2 0.8
8 -8 9 18.8 1.8
8 8 9 17.6 1.6
-8 8 -9 19.8 1.7
-8 -8 -9 17.7 1.6
8 8 10 4.7 0.9
8 -8 10 2.9 1
-8 8 -10 5.5 0.9
-8 -8 -10 4.6 0.9
8 8 11 0.7 0.6
-8 -8 -11 1.5 0.7
8 8 12 3.1 0.8
-8 -8 -12 3.1 0.8
8 -8 13 0.9 0.8
-8 8 -13 0.8 0.6
-8 8 -14 2.9 0.8
8 -8 14 1.3 0.8
-8 8 -15 6.6 1
8 -8 15 7.9 1.2
-8 8 -16 0.8 0.7
8 -8 16 2.1 0.8
-8 8 -17 0.6 0.6
8 -8 17 0.2 0.7
8 -8 18 1.8 0.9
-8 8 -18 0.7 0.7
8 -8 19 22.4 1.9
-8 8 -19 16.6 1.6
-8 8 -20 0.7 0.6
8 -8 20 0.7 0.7
8 -8 21 0.5 0.8
-8 -10 28 3.2 0.9
8 10 -28 1.2 0.7
-8 -10 27 10.3 1.3
8 10 -27 11.8 1.3
-8 -10 25 6.9 1.1
8 10 -25 7.4 1
8 10 -24 5.7 0.9
-8 -10 24 6.6 1
8 10 -23 0.6 0.5
-8 -10 23 0.1 0.6
8 10 -22 2.2 0.7
-8 -10 22 2.6 0.8
8 10 -21 7.5 1
-8 -10 21 9.1 1.2
8 -10 -20 12.6 1.5
-8 10 20 11.4 1.4
8 10 -20 12.1 1.3
-8 -10 20 13.2 1.5
8 -10 -19 20.3 1.8
-8 10 19 15.2 1.6
8 -10 -18 26.2 2.1
8 10 -18 25.2 2.1
-8 10 18 28.2 2.1
-8 -10 18 26.2 2.1
8 -10 -17 3.7 0.9
8 10 -17 5.1 1
-8 -10 17 2 0.9
8 10 -16 41.7 2.8
-8 -10 16 43.3 2.9
8 10 -15 8.2 1.1
-8 -10 15 7.1 1.2
-8 -10 14 5 1.1
8 10 -14 5 1
-8 -10 13 4.8 1
8 10 -13 7.2 1.1
-8 -10 12 19.4 1.7
8 10 -12 18.6 1.7
-8 -10 11 0.9 0.8
8 10 -11 1.9 0.8
8 10 -10 55.89 3.3
-8 -10 10 46.1 3.2
-8 -10 9 7.3 1.1
8 10 -9 8.5 1.2
-8 -10 8 3 0.7
8 10 -8 3.2 0.8
8 10 -5 0.7 0.7
-8 -10 5 0.3 0.7
-8 -10 4 1.7 0.8
-8 -10 3 4.2 0.8
8 10 -3 5 0.9
8 10 -2 4.8 1
-8 -10 2 5.2 1
8 10 -1 0.8 0.8
-8 -10 1 1.1 0.8
-8 10 0 59.49 3.6
8 -10 0 65.79 3.7
-8 -10 0 62.59 3.7
8 -10 1 3.5 1
-8 10 -1 3.2 0.9
8 10 1 2.7 0.8
-8 -10 -1 2.1 0.8
8 10 2 43.9 2.8
-8 10 -2 37.2 2.7
-8 -10 -2 42.4 2.8
8 -10 2 36.9 2.8
8 -10 3 8.3 1.3
-8 10 -3 7.2 1.1
-8 -10 -3 10.7 1.3
8 10 3 11.2 1.3
8 -10 4 5.7 1
8 10 4 2.9 0.8
-8 10 -4 4.7 0.8
-8 -10 -4 4.3 0.9
8 -10 5 2.5 0.9
8 10 5 2.3 0.8
-8 -10 -5 1.9 0.7
-8 10 -5 3.3 0.8
8 -10 6 0.8 0.8
8 10 6 1.3 0.7
-8 -10 -6 -0.3 0.7
-8 10 -6 1.2 0.7
8 10 7 4 1
-8 10 -7 4.3 1
-8 -10 -7 4.8 1
8 -10 7 3.1 1
-8 10 -8 65.59 3.9
-8 -10 -8 71.49 4.1
8 10 8 63.59 3.9
8 10 9 9.3 1.3
-8 10 -9 7 1.1
-8 -10 -9 8.4 1.1
8 -10 9 10.1 1.3
-8 10 -10 29.9 2.2
8 -10 10 26.4 2.2
-8 10 -11 16.1 1.5
8 -10 11 12.4 1.5
-8 10 -12 17.1 1.6
8 -10 12 14 1.6
8 -10 13 -0.1 0.8
-8 10 -13 0.4 0.6
8 -10 14 6.5 1.2
-8 10 -14 8.4 1.1
8 -10 16 32.1 2.4
-8 10 -16 31.2 2.3
-8 10 -17 2.5 0.8
8 -10 17 2.2 0.9
8 -10 18 32.7 2.4
-8 10 -18 28.4 2.2
8 -12 -15 1.2 0.6
-8 12 15 4.5 0.9
8 -12 -14 2.8 0.8
-8 12 14 1.7 0.7
-8 12 13 11.3 1.3
8 -12 -13 13.7 1.4
8 -12 -12 1.4 0.6
-8 -12 12 0.4 0.6
8 12 -12 0.7 0.6
-8 12 12 1.4 0.7
8 -12 -11 4.8 1
8 12 -11 5.5 1
-8 -12 11 5.3 1
-8 12 11 4.8 0.9
8 -12 -10 20.8 1.8
8 12 -10 20.6 1.7
-8 -12 10 19.1 1.7
-8 12 10 20.1 1.8
8 -12 -9 0.8 0.8
-8 -12 9 2.2 0.8
8 12 -9 1.8 0.7
-8 12 9 1.6 0.8
8 12 -8 19.7 1.7
-8 -12 8 20.2 1.7
-8 12 8 20.6 1.8
8 -12 -8 20.3 1.8
8 -12 -7 0.9 0.5
8 12 -7 0.1 0.7
-8 12 7 1.2 0.5
-8 -12 7 0.3 0.7
-8 -12 6 17 1.6
8 12 -6 16.6 1.6
-8 12 6 14.1 1.5
8 -12 -6 14.9 1.5
-8 12 5 10.9 1.2
8 -12 -5 8.4 1.2
-8 -12 5 8.9 1.2
8 12 -5 8.2 1.1
8 -12 -4 1 0.6
-8 12 4 0.9 0.5
-8 -12 4 0.5 0.6
8 12 -4 1.7 0.8
-8 12 3 5.8 1
8 -12 -3 6.9 1.1
-8 -12 3 5.9 1.1
8 12 -3 6.1 1.1
8 12 -2 18.9 1.7
-8 12 2 21.3 1.7
-8 -12 2 18.1 1.7
8 -12 -2 17 1.7
-8 12 1 1 0.7
8 -12 -1 1.1 0.7
-8 12 0 62.89 3.7
8 -12 0 63.39 3.8
-8 12 -1 -0.8 0.7
8 -12 1 0.4 0.7
-8 12 -2 44 2.8
8 -12 2 42.4 2.9
-8 12 -3 1.8 0.7
8 -12 3 0.6 0.7
-8 12 -4 1.8 0.7
-8 -12 -4 1.5 0.7
8 12 4 1.5 0.7
8 -12 4 2.3 0.8
-8 12 -5 5.2 0.9
8 -12 5 4.7 0.9
-9 -1 33 46.8 2.9
9 1 -33 49.5 3
-9 -1 32 93.39 4.9
9 1 -32 88.99 4.9
-9 1 31 2.8 0.7
9 1 -31 3.1 0.7
-9 -1 31 2.4 0.7
9 -1 -31 4.1 0.8
-9 -1 30 583.14 24.2
-9 1 30 523.05 24.1
9 -1 -30 489.65 24.1
9 1 -30 501.95 24.1
-9 -1 29 99.99 5.2
9 1 -29 90.99 5.1
9 -1 -29 99.79 5.2
-9 1 29 100.49 5.1
9 -1 -28 450.65 20.9
-9 1 28 449.16 20.8
-9 1 27 79.79 4.3
9 -1 -27 82.59 4.4
-9 1 26 508.95 24.1
9 -1 -26 545.05 24.3
9 1 -25 9.7 1.1
-9 1 25 10.1 1
-9 -1 25 7.7 0.9
9 -1 -25 8.9 1
-9 1 24 7.7 0.9
9 -1 -24 10.2 1.1
9 1 -24 10.3 1.1
-9 -1 24 9.4 1
-9 -1 23 18.9 1.5
-9 1 23 20.9 1.5
9 1 -23 19.4 1.5
9 -1 -23 22 1.5
9 1 -22 377.56 17.8
9 -1 -22 386.46 17.8
-9 1 22 358.66 17.7
-9 -1 22 413.06 17.8
-9 1 21 16.5 1.3
9 1 -21 16.8 1.3
-9 -1 21 14 1.3
9 -1 -21 14.4 1.2
9 -1 -20 1294.67 61.19
-9 -1 20 1398.86 61.19
-9 1 20 1360.36 61.09
9 1 -20 1364.66 61.19
-9 1 19 128.59 6.5
9 1 -19 127.29 6.6
9 -1 -19 145.29 6.7
-9 -1 18 1756.72 75.99
9 1 -18 1776.82 75.99
9 -1 -18 1547.95 75.99
-9 -1 17 8.1 0.9
9 1 -17 8.5 0.9
-9 1 17 9 0.9
9 -1 -17 9.2 0.9
-9 1 16 259.97 11.9
-9 -1 16 247.18 11.9
9 1 -16 235.98 11.9
9 -1 -16 275.37 12
-9 1 15 50.79 3
9 1 -15 61.49 3.1
-9 -1 15 50.49 3.1
9 -1 -15 62.99 3.1
-9 1 14 202.28 9.6
9 1 -14 202.48 9.7
-9 -1 14 186.78 9.6
9 1 -13 439.06 18.9
-9 -1 13 399.26 18.9
-9 1 13 411.06 18.8
9 -1 -13 392.86 18.9
-9 -1 12 2424.06 100.39
9 1 -12 1993.2 100.29
-9 1 12 2453.05 100.39
9 -1 -12 2109.69 100.39
9 1 -11 53.99 3
-9 1 11 61.89 3.1
-9 -1 11 53.89 3
9 -1 -11 57.59 3.1
9 -1 -10 1148.49 47.3
-9 -1 10 1207.68 47.3
9 1 -10 910.11 47.2
-9 1 10 980.2 47.2
9 1 -9 4.9 0.7
-9 1 9 5 0.7
-9 -1 9 3.9 0.7
9 -1 -9 3.3 0.7
9 1 -8 203.48 9.7
-9 1 8 203.38 9.7
-9 -1 8 220.58 9.7
9 -1 -8 200.98 9.7
9 1 -7 1272.97 55.69
-9 1 7 1260.27 55.69
-9 -1 7 1218.98 55.69
9 -1 -7 1194.88 55.69
-9 -1 6 489.85 22.5
9 1 -6 459.35 22.5
-9 1 6 481.25 22.5
-9 1 5 1451.35 63.29
9 1 -5 1378.56 63.19
-9 -1 5 1356.46 63.19
9 -1 -5 1451.95 63.29
-9 1 4 60.09 3
9 -1 -4 55.59 3
9 1 -2 3635.34 163.38
-9 -1 2 3661.43 163.28
9 1 -1 17.5 1.2
-9 -1 1 17.2 1.1
9 1 0 1373.06 63.79
-9 -1 0 1469.35 63.79
9 1 1 134.39 6.7
-9 -1 -1 150.28 6.7
-9 1 -2 1115.29 47.3
-9 -1 -2 1089.79 47.2
9 -1 2 1153.78 47.3
-9 1 -3 229.58 10.1
9 1 3 216.98 10
9 -1 3 198.48 10.1
-9 -1 -3 222.18 10
-9 1 -4 422.16 18.4
9 1 4 402.86 18.3
9 -1 4 412.06 18.4
-9 -1 -4 384.46 18.3
9 -1 5 441.86 22.7
-9 1 -5 463.45 22.7
9 1 6 1175.58 51.89
-9 -1 -6 1139.89 51.89
9 -1 7 91.49 4.1
-9 -1 -7 83.99 3.9
-9 1 -7 90.09 4.1
9 1 7 76.39 3.9
-9 -1 -8 1473.45 64.29
-9 1 -8 1582.04 64.49
9 1 8 1334.07 64.29
9 -1 8 1412.16 64.49
9 -1 9 6.9 0.6
-9 1 -9 6.4 0.6
-9 1 -10 1443.06 63.89
9 -1 10 1404.46 63.99
-9 1 -11 71.29 3.4
9 -1 11 65.79 3.4
-9 1 -12 45.4 2.4
9 -1 12 51.09 2.5
-9 1 -13 8.1 0.6
9 -1 13 9.5 0.7
-9 1 -14 343.97 15.7
9 -1 14 346.57 15.7
-9 1 -15 37.6 1.8
9 -1 15 33.7 1.8
-9 1 -16 336.97 15.2
9 -1 16 333.47 15.2
9 -1 17 108.59 5
-9 1 -17 107.29 5
-9 1 -18 1176.48 51.49
9 -1 18 1125.39 51.49
-9 -3 33 33.9 2.3
9 3 -33 31 2.2
-9 -3 32 1.3 0.6
9 3 -32 0.4 0.5
-9 3 31 6.8 0.9
9 -3 -31 7.9 1
9 3 -31 8.5 1.1
-9 -3 31 6.9 1.1
-9 -3 30 76.89 4.3
9 3 -30 78.19 4.3
9 3 -29 9.3 1.2
-9 -3 29 10.5 1.3
9 3 -28 259.07 12.5
-9 -3 28 260.77 12.5
-9 -3 27 59.19 3.4
9 3 -27 50.09 3.2
9 3 -26 345.47 17.2
-9 -3 26 391.06 17.3
9 3 -25 114.69 5.9
-9 -3 25 113.89 5.9
-9 3 25 107.69 5.8
9 -3 -25 119.89 5.9
-9 3 24 79.49 4.3
9 3 -24 84.89 4.5
9 -3 -24 90.89 4.4
9 -3 -23 153.98 7.7
-9 3 23 157.98 7.7
-9 -3 23 161.28 7.8
9 3 -23 152.18 7.8
9 3 -22 100.39 5.3
-9 3 22 98.59 5.2
-9 -3 22 112.49 5.4
9 -3 -22 97.99 5.3
9 -3 -21 11.2 1.1
9 3 -21 10.8 1.1
-9 3 21 9.1 1
-9 -3 21 9 1
-9 3 20 207.88 9.8
9 -3 -20 204.78 9.8
-9 -3 20 227.08 9.9
-9 3 19 12.5 1.2
-9 -3 19 11.6 1.2
9 -3 -19 12.3 1.2
9 -3 -18 416.46 19.9
-9 3 18 441.76 19.9
-9 3 17 289.67 13.9
9 -3 -17 304.07 14
-9 3 16 297.27 14.3
-9 -3 16 298.87 14.4
9 3 -16 325.27 14.5
-9 -3 15 130.79 6.1
9 -3 -15 115.19 6
-9 3 15 110.59 6
9 3 -15 128.59 6.1
9 -3 -14 191.68 9.1
-9 3 14 181.78 9
-9 -3 14 172.18 9
9 3 -14 204.88 9.1
-9 3 13 31.5 2
9 -3 -13 35.3 2.1
-9 -3 13 33.5 2.1
9 -3 -12 466.05 21.6
-9 -3 12 469.35 21.7
9 3 -12 409.86 21.6
9 -3 -11 68.79 3.8
-9 3 11 63.59 3.8
-9 -3 11 76.39 3.9
9 3 -11 76.49 3.9
9 3 -10 3699.93 158.38
-9 -3 10 3559.64 158.38
9 -3 -10 3430.46 158.38
-9 3 10 3446.06 158.28
9 3 -9 430.56 18.9
9 -3 -9 445.56 19
-9 -3 9 402.96 18.9
9 3 -8 381.56 17.5
9 -3 -8 356.06 17.5
-9 3 8 355.36 17.4
-9 3 7 3.2 0.6
9 3 -7 4.5 0.7
-9 -3 7 3.2 0.7
9 -3 -7 3.3 0.8
9 -3 -6 78.29 4.4
-9 3 6 83.49 4.3
-9 -3 6 86.59 4.4
9 3 -6 87.29 4.4
-9 3 5 507.65 23.9
9 -3 -5 509.75 23.9
9 3 -5 517.85 23.8
-9 -3 5 546.45 23.9
9 3 -4 348.17 16.3
9 -3 -4 367.56 16.4
-9 3 4 345.87 16.3
-9 -3 4 351.16 16.3
9 -3 -3 24.9 1.8
9 3 -3 25.5 1.7
-9 -3 3 27.7 1.7
-9 3 3 24.3 1.7
9 3 -2 726.93 30
-9 -3 2 685.43 30
9 -3 -2 642.74 30
-9 -3 1 40.4 2.3
9 -3 -1 32.5 2.4
-9 3 1 34.7 2.3
9 3 -1 43.1 2.3
9 -3 0 2456.85 117.39
9 3 0 2701.33 117.29
-9 3 0 2558.84 117.39
-9 -3 0 2703.03 117.29
9 3 1 66.69 3.3
9 -3 1 76.89 3.6
-9 -3 -1 61.09 3.3
-9 3 -1 50.19 3.2
9 3 2 1725.83 78.39
9 -3 2 1776.72 78.49
-9 -3 -2 1787.52 78.39
-9 3 -2 1685.23 78.39
9 3 3 149.29 6.7
9 -3 3 130.79 6.8
-9 3 -3 130.19 6.7
9 3 4 12.6 1
-9 -3 -4 12.2 1
9 -3 4 12.6 1.2
-9 3 -4 15.9 1.2
9 3 5 685.13 30.7
9 -3 5 634.94 30.8
-9 3 -5 702.13 30.8
-9 -3 -5 679.73 30.7
9 3 6 810.52 37.1
-9 3 -6 789.92 37.2
-9 -3 -6 855.91 37.1
9 -3 6 819.62 37.3
9 3 7 13.3 1
-9 3 -7 13.8 1.1
-9 -3 -7 14.1 1.1
-9 3 -8 1277.27 57.49
9 -3 8 1270.27 57.59
-9 3 -9 2.3 0.5
9 -3 9 1.6 0.5
-9 -3 -10 645.94 28.2
9 -3 10 650.63 28.5
-9 3 -10 565.34 28.3
9 3 10 626.54 28.2
9 -3 11 21.6 1.6
-9 3 -11 25.3 1.6
-9 -3 -11 23 1.4
9 3 11 23.3 1.4
-9 3 -12 111.69 5.6
-9 -3 -12 115.99 5.3
9 3 12 107.39 5.3
9 -3 12 121.39 5.8
-9 3 -13 44.9 2.5
9 3 13 39.5 2.2
-9 -3 -13 45.2 2.2
9 -3 13 47.7 2.6
9 3 14 38.3 1.9
-9 -3 -14 37.8 1.9
9 -3 14 42.7 2.4
-9 3 -14 39.2 2.3
-9 3 -15 167.78 8.2
9 -3 15 172.48 8.2
-9 3 -16 361.36 17.7
9 -3 16 408.56 17.8
-9 3 -17 58.79 3.1
9 -3 17 54.39 3.1
-9 3 -18 547.25 25.8
9 -3 18 583.44 25.9
-9 3 -19 32.1 2
9 -3 19 30.8 2
-9 3 -20 89.49 4.7
9 -3 20 96.09 4.8
-9 3 -21 0.9 0.4
9 -3 21 2.1 0.6
9 -3 22 30.9 2
-9 3 -22 30.3 1.9
9 5 -33 12.5 1.3
-9 -5 33 6.8 1.2
9 5 -32 12.1 1.3
-9 -5 32 11.4 1.3
-9 -5 31 2.4 0.7
9 5 -31 3.3 0.7
-9 -5 30 14.2 1.5
9 5 -30 16.8 1.5
9 5 -29 41.6 2.7
-9 -5 29 36.9 2.6
9 -5 -29 45.6 2.8
-9 5 29 32.6 2.5
9 -5 -28 85.69 4.6
-9 5 28 90.19 4.6
9 5 -28 83.49 4.6
-9 5 27 2.7 0.7
-9 -5 27 2.4 0.8
9 -5 -27 3.4 0.8
9 5 -27 4 0.9
9 5 -26 18.2 1.6
-9 -5 26 15.3 1.6
-9 5 26 18.7 1.5
9 -5 -26 17.7 1.6
-9 5 25 24.3 1.8
9 -5 -25 24.1 1.8
-9 -5 25 20.8 1.8
9 5 -25 21.2 1.8
-9 5 24 27.6 1.9
-9 -5 24 22.7 1.9
9 -5 -24 27.7 2
9 5 -24 23.8 2
9 -5 -23 76.99 4.2
-9 5 23 71.29 4.1
9 -5 -22 56.79 3.3
-9 5 22 53.69 3.2
-9 -5 22 53.69 3.3
9 5 -22 48.6 3.2
9 -5 -21 114.09 5.9
-9 5 21 119.49 5.9
-9 -5 21 109.89 5.9
9 5 -21 106.39 5.9
-9 5 20 381.46 18.3
9 -5 -20 403.86 18.5
9 5 -19 56.59 3.2
-9 5 19 54.29 3.2
9 -5 -19 54.09 3.3
-9 -5 19 46.7 3.2
9 -5 -18 297.17 14.2
-9 -5 18 308.07 14.3
9 5 -18 274.97 14.1
-9 5 18 313.77 14.2
-9 5 17 174.48 8.8
9 5 -17 181.98 8.9
9 -5 -17 185.98 8.9
-9 -5 17 176.48 8.9
-9 5 16 168.58 8.4
9 5 -16 155.08 8.4
-9 -5 16 183.08 8.6
9 -5 -16 178.68 8.5
-9 5 15 237.58 11.1
9 5 -15 236.98 11.1
9 -5 -15 221.28 11.1
-9 -5 15 222.08 11.1
-9 5 14 23.8 1.8
9 5 -14 25.9 1.9
-9 -5 14 22.6 1.8
-9 5 13 80.69 4.3
-9 -5 13 78.69 4.4
9 -5 -13 76.59 4.4
9 5 -13 84.39 4.4
-9 5 12 108.89 5.7
9 -5 -12 107.49 5.8
-9 -5 12 120.09 5.9
9 5 -12 111.69 5.8
9 5 -11 10.8 1.2
9 -5 -11 13.5 1.3
-9 5 11 11.2 1.2
-9 -5 11 11.3 1.2
9 -5 -10 373.66 16.8
9 5 -10 353.06 16.6
-9 5 10 382.66 16.7
-9 5 9 145.39 7.6
-9 -5 9 141.39 7.6
9 -5 -9 148.19 7.7
9 5 -8 473.55 20.5
-9 5 8 491.95 20.5
-9 -5 8 443.06 20.4
9 -5 -7 73.29 4.6
-9 -5 7 80.79 4.6
9 -5 -6 24.7 1.9
-9 5 6 30 1.9
9 5 -6 23.9 1.8
-9 -5 6 27.7 2
9 -5 -5 58.09 3.4
-9 5 5 55.39 3.3
-9 -5 5 63.79 3.4
9 5 -5 58.19 3.4
-9 5 4 3.2 0.8
9 -5 -4 2.8 0.8
-9 -5 4 4.5 0.8
9 5 -4 3.4 0.7
-9 -5 3 65.29 3.4
9 5 -3 61.29 3.4
-9 5 3 59.19 3.4
-9 5 2 319.87 15.5
9 -5 -2 342.67 15.7
9 -5 -1 12.8 1.4
-9 5 1 18.4 1.4
9 -5 0 214.58 10.2
-9 5 0 204.48 10.1
9 -5 1 13.9 1.4
-9 5 -1 16.1 1.4
9 -5 2 145.39 7.1
9 5 2 142.29 7
-9 -5 -2 133.09 6.9
-9 5 -2 136.19 6.9
9 -5 3 156.78 8
-9 5 -3 165.58 7.9
9 5 3 158.18 7.8
-9 -5 -3 153.68 7.8
9 5 4 50.29 3
9 -5 4 54.59 3.2
-9 5 -4 51.99 3
-9 -5 -4 51.39 3
-9 5 -5 36.2 2.3
9 -5 5 32.3 2.3
9 5 5 36.9 2.3
-9 -5 -5 38.3 2.3
9 -5 6 290.97 14.7
9 5 6 328.87 14.6
-9 5 -6 305.57 14.6
-9 -5 -6 309.37 14.5
9 5 7 29 2
9 -5 7 30.8 2.2
-9 -5 -7 31 2
9 -5 8 198.58 10
9 5 8 206.58 9.8
-9 -5 -8 198.98 9.7
-9 5 -8 207.08 9.9
9 -5 9 19.6 1.6
-9 5 -9 16.3 1.4
-9 -5 -9 16.7 1.4
9 5 9 21 1.5
9 -5 10 74.19 4.4
9 5 10 80.89 4.2
-9 -5 -10 78.99 4.2
-9 -5 -11 27.1 1.8
9 5 11 28.7 1.9
-9 5 -11 25.1 1.9
9 -5 11 28.7 2.1
9 -5 12 1.7 0.7
9 5 12 3.5 0.6
-9 -5 -12 2.3 0.6
-9 5 -12 3.3 0.7
-9 5 -13 48.1 3
9 -5 13 52.49 3.2
9 5 13 51.59 2.9
-9 -5 -13 52.09 2.9
9 -5 14 43.8 2.7
-9 -5 -14 39.9 2.4
9 5 14 40 2.4
-9 5 -14 38 2.6
-9 -5 -15 70.29 3.9
-9 5 -15 69.39 4.1
9 5 15 75.69 3.9
9 -5 15 83.09 4.3
9 5 16 39.4 2.3
-9 5 -16 36.8 2.5
-9 -5 -16 40.1 2.3
9 -5 16 43.8 2.7
-9 5 -17 100.89 5.2
-9 -5 -17 95.49 4.9
9 -5 17 103.79 5.4
9 5 17 98.49 4.9
9 -5 18 89.29 4.9
-9 5 -18 94.39 4.8
-9 -5 -18 86.69 4.4
9 5 18 88.39 4.5
9 -5 19 18.9 1.7
-9 5 -19 23.3 1.7
9 -5 20 57.99 3.6
-9 5 -20 61.99 3.5
9 -5 21 80.59 4.5
-9 5 -21 77.59 4.3
-9 5 -22 -0.1 0.5
9 -5 22 -0.4 0.6
-9 -7 32 0.5 0.7
9 7 -32 0.1 0.6
-9 -7 31 8.5 1.2
9 7 -31 8.2 1.1
9 7 -30 0.1 0.6
-9 -7 30 0.5 0.7
9 7 -29 2.9 0.8
-9 -7 29 2 0.8
-9 -7 28 1.3 0.8
9 7 -28 0.3 0.7
-9 -7 27 35 2.6
9 7 -27 37.4 2.6
9 -7 -26 1 0.6
9 7 -26 1.2 0.6
-9 -7 26 0.6 0.6
-9 7 26 1.5 0.7
-9 7 25 52.49 3.2
-9 -7 25 50.69 3.3
9 -7 -25 54.39 3.4
9 7 -25 51.39 3.3
9 7 -24 3.1 0.9
-9 7 24 2.4 0.7
-9 -7 24 3.9 1
9 -7 -24 2.5 0.8
-9 7 23 13.8 1.4
9 -7 -23 14.2 1.5
-9 7 22 0.6 0.6
9 7 -22 0.7 0.6
9 -7 -22 0.9 0.7
-9 -7 22 0.1 0.7
-9 7 21 11.4 1.3
9 -7 -21 17.6 1.6
9 7 -21 15.6 1.5
-9 -7 21 11.3 1.4
-9 -7 20 16.6 1.6
-9 7 20 14.6 1.5
9 -7 -20 15.4 1.5
9 7 -19 62.89 3.7
9 -7 -19 64.89 3.8
-9 -7 19 60.99 3.8
-9 7 19 62.49 3.7
-9 7 18 45.6 2.9
9 -7 -18 47.3 3
9 7 -18 47.3 2.9
-9 -7 18 41.8 2.9
9 7 -17 70.69 4.1
9 -7 -17 72.29 4.1
-9 7 17 67.49 3.9
-9 -7 17 65.69 4
9 -7 -16 5.5 1
9 7 -16 7 1
-9 7 16 6.8 1
-9 -7 16 6.5 1
-9 7 15 48.1 3.1
9 7 -15 53.29 3.2
-9 -7 15 54.99 3.3
9 -7 -15 49.5 3.2
-9 7 14 12.5 1.3
9 7 -14 13.2 1.4
-9 -7 14 12.2 1.4
9 -7 -14 13.5 1.4
-9 7 13 18.4 1.6
9 -7 -13 21.9 1.8
9 7 -13 18.1 1.7
-9 -7 12 4.6 0.9
-9 7 12 4.9 0.9
9 7 -12 4.5 0.9
-9 -7 11 9.2 1.2
9 -7 -11 11.9 1.3
-9 7 11 9.1 1.1
9 7 -11 11.5 1.2
9 -7 -10 16.8 1.6
-9 7 10 17.3 1.5
9 7 -10 17.4 1.6
-9 -7 10 13.6 1.5
-9 7 9 18.3 1.5
9 -7 -9 16.1 1.6
9 7 -9 15.3 1.5
-9 -7 9 14.2 1.5
-9 -7 8 1.4 0.6
-9 7 8 1.4 0.7
9 -7 -8 1.7 0.8
9 7 -8 0.9 0.6
-9 7 7 74.59 4.1
9 -7 -7 67.79 4.1
9 7 -7 70.79 4.1
-9 -7 7 73.39 4.2
9 -7 -6 2.4 0.9
-9 7 6 2.8 0.8
-9 7 5 104.19 5.9
9 -7 -5 125.09 6.2
-9 7 4 14.3 1.3
9 -7 -4 10.2 1.3
9 7 -3 2.4 0.8
9 -7 -3 3.8 0.8
-9 -7 3 3 0.8
-9 7 3 3.5 0.7
9 -7 -2 14 1.5
-9 7 2 16.8 1.4
9 7 -2 17.1 1.5
-9 -7 2 12.6 1.4
9 7 -1 6 0.9
-9 7 1 3.7 0.8
9 -7 -1 5.2 1
9 7 0 2.2 0.8
9 -7 0 2.6 0.9
-9 7 0 2.2 0.8
-9 -7 0 2.7 0.8
-9 7 -1 0.9 0.7
9 -7 1 0.4 0.7
9 7 1 1.3 0.7
-9 -7 -1 0.8 0.7
-9 -7 -2 344.57 16.3
9 7 2 337.87 16.3
9 -7 2 353.46 16.4
-9 7 -2 343.17 16.3
9 -7 3 13.6 1.5
9 7 3 15.1 1.5
-9 7 -3 13.2 1.4
-9 -7 -3 15.1 1.5
9 -7 4 3.4 0.8
9 7 4 5.3 0.9
-9 7 -4 3.1 0.7
-9 -7 -4 3.5 0.8
9 -7 5 341.37 15.2
9 7 5 298.47 15
-9 7 -5 310.47 15
-9 -7 -5 317.37 15.1
9 -7 6 97.49 5.4
9 7 6 92.69 5.2
-9 -7 -6 103.79 5.3
-9 7 -7 43 2.7
9 7 7 39.5 2.6
-9 -7 -7 36.7 2.6
9 -7 7 38.2 2.7
9 7 8 52.59 3.1
-9 -7 -8 44.7 3
-9 7 -8 44.2 3
9 -7 8 57.09 3.3
9 7 9 1.4 0.6
-9 7 -9 1.1 0.7
9 -7 9 2.2 0.8
-9 -7 -9 1.2 0.6
9 7 10 1.4 0.6
9 -7 10 0.6 0.6
-9 7 -10 2.4 0.7
-9 -7 -10 1.2 0.6
9 7 11 40.6 2.6
-9 -7 -11 36.9 2.5
-9 7 -11 39.5 2.6
9 -7 11 39.1 2.8
9 -7 12 1.9 0.7
-9 -7 -12 4.7 0.8
-9 7 -12 4.2 0.8
9 7 12 3 0.7
-9 -7 -13 22.1 1.8
9 7 13 20.3 1.7
-9 7 -13 25.9 2
9 -7 13 24.3 2
-9 7 -14 4.9 0.8
-9 -7 -14 3.6 0.7
9 7 14 4 0.8
9 -7 14 5.8 1
-9 7 -15 2.8 0.8
9 7 15 4.1 0.8
-9 -7 -15 4.2 0.8
9 -7 15 2.9 0.8
-9 7 -16 69.99 3.9
9 -7 16 58.09 3.8
-9 7 -17 8.4 1.1
9 -7 17 9.4 1.2
-9 7 -18 3.4 0.7
9 -7 18 1.3 0.7
-9 7 -19 2.3 0.7
9 -7 19 1.2 0.8
-9 7 -20 3.7 0.8
9 -7 20 1.5 0.8
9 -7 21 4.8 1.1
9 9 -30 0.2 0.7
-9 -9 30 0.3 0.7
-9 -9 29 27.8 2.3
9 9 -29 31.9 2.3
9 9 -28 6.3 1
-9 -9 28 6.7 1.1
9 9 -26 6.6 1
-9 -9 26 6.9 1.1
-9 -9 25 33.1 2.4
9 9 -25 31.5 2.4
9 9 -24 0.3 0.6
-9 -9 24 0.2 0.7
-9 -9 23 1.6 0.8
9 9 -23 2.5 0.7
-9 9 23 1.5 0.7
-9 -9 22 7.3 1.1
9 -9 -22 9.4 1.2
-9 9 22 9.1 1.2
9 9 -22 9 1.2
9 9 -21 15 1.5
9 -9 -21 19 1.7
-9 9 21 17.9 1.6
-9 -9 21 18.4 1.7
9 -9 -20 27.7 2.2
-9 -9 20 26.3 2.1
-9 9 20 27.4 2.1
9 -9 -19 7.5 1.1
-9 9 19 7.4 1.1
-9 9 18 3.8 0.8
9 -9 -18 2.6 0.7
9 -9 -17 9.4 1.2
9 9 -17 9.5 1.2
-9 -9 17 10 1.3
-9 9 17 8.6 1.1
-9 9 16 2.7 0.7
9 -9 -16 2.6 0.8
-9 -9 16 3.9 1
9 9 -16 3.4 0.9
9 -9 -15 24.8 1.9
-9 9 15 19.1 1.7
9 9 -15 21.2 1.8
-9 -9 15 19.3 1.8
9 -9 -14 0.4 0.7
9 9 -14 0.2 0.5
-9 -9 14 0.4 0.6
-9 9 14 -0.6 0.6
-9 9 13 5.7 1
9 -9 -13 7 1.1
9 9 -13 8.7 1.2
-9 -9 13 6.4 1.1
-9 9 12 4.5 0.9
9 -9 -12 4.6 1
9 9 -12 4.3 0.9
-9 -9 12 4.7 1
-9 9 11 4.1 0.9
9 -9 -11 4.2 0.9
9 9 -11 5.4 0.9
-9 -9 11 5.5 1
9 -9 -10 0.9 0.7
-9 9 10 1.8 0.6
-9 -9 10 2.2 0.8
9 9 -10 1.4 0.8
-9 9 9 57.59 3.4
9 9 -9 49.6 3.3
-9 -9 9 53.19 3.3
9 -9 -9 50.39 3.4
9 -9 -8 8.5 1.2
9 9 -8 11.9 1.3
-9 -9 8 10.4 1.2
-9 9 7 2.5 0.8
9 -9 -7 3 0.9
-9 -9 7 1.5 0.8
9 9 -7 2.6 0.7
9 9 -6 7.5 1.2
-9 9 6 7.5 1.1
9 -9 -6 9 1.2
-9 -9 6 5 1.1
9 -9 -5 34.7 2.5
9 9 -5 36.1 2.4
-9 9 5 26.9 2.2
-9 -9 5 29.2 2.3
9 9 -4 0.6 0.7
-9 9 4 1.2 0.7
9 -9 -4 1.7 0.8
-9 -9 4 0.6 0.7
9 9 -3 5.1 1
-9 9 3 5.6 1
9 -9 -3 6.3 1.1
-9 -9 3 6.2 1.1
9 9 -2 19.5 1.7
9 -9 -2 16.1 1.6
-9 -9 2 16.8 1.6
9 -9 -1 38.6 2.8
-9 9 0 43.1 2.8
9 -9 0 36.1 2.8
9 -9 1 14.7 1.7
-9 9 -1 14.2 1.5
-9 9 -2 -0.4 0.6
9 9 2 0.1 0.7
-9 -9 -2 1.1 0.7
9 -9 2 0.7 0.7
9 9 3 0.8 0.7
-9 9 -3 2.3 0.7
9 -9 3 2.1 0.9
-9 -9 -3 2.1 0.8
9 9 4 1.1 0.8
-9 9 -4 0.1 0.6
-9 -9 -4 0.5 0.7
9 -9 4 -0.5 0.8
-9 9 -5 38.8 2.7
9 -9 5 38.9 2.8
9 9 5 39.5 2.7
-9 -9 -5 39.6 2.7
9 -9 6 0.1 0.7
9 9 6 -0.5 0.6
-9 9 -6 0.7 0.6
-9 -9 -6 0.5 0.7
9 9 7 2.6 0.8
-9 9 -7 1.3 0.7
9 -9 7 1.4 0.8
-9 -9 -7 2.6 0.8
-9 9 -8 23.9 2
9 9 8 26.2 2
-9 -9 -8 24.9 2
9 -9 8 25.5 2.1
9 -9 9 -0.3 0.6
-9 9 -9 0.5 0.6
9 9 9 -0.1 0.6
-9 -9 -9 0.1 0.6
9 9 10 29.8 2.2
-9 9 -10 26 2
-9 -9 -10 25.4 2.1
9 -9 10 27.8 2.2
-9 -9 -11 6.7 1.1
9 -9 11 7.6 1.1
-9 9 -11 7.5 1.1
9 9 11 6.3 1
-9 9 -12 1.9 0.7
9 -9 12 0.6 0.9
-9 9 -13 2.1 0.8
9 -9 13 3.3 0.9
9 -9 16 4.6 1
-9 9 -16 2.8 0.8
-9 9 -17 19.4 1.7
9 -9 17 21.7 1.9
-9 9 -18 0.3 0.6
9 -9 18 1.4 0.8
-9 9 -19 7.9 1.1
9 -9 19 5.5 1.1
-9 -11 22 10.6 1.3
9 11 -22 7 1.1
9 11 -21 10.1 1.2
-9 -11 21 9.2 1.2
9 11 -20 52.59 3.3
-9 -11 20 58.69 3.5
9 11 -19 6.3 1
-9 -11 19 7.7 1.1
9 11 -18 6.1 1
-9 -11 18 5.9 1
-9 11 18 5.6 1
9 -11 -18 4.3 0.9
-9 11 17 18 1.6
9 -11 -17 18.8 1.8
-9 11 16 0.7 0.6
9 11 -16 0.1 0.5
9 -11 -16 -0.1 0.6
-9 -11 16 0.7 0.6
9 11 -15 5.9 1
9 -11 -15 7.1 1.1
-9 11 15 4.2 1
-9 -11 15 4.2 1
9 -11 -14 1 0.7
-9 11 14 1.8 0.7
9 11 -14 0.8 0.7
-9 -11 14 1.5 0.9
-9 -11 13 7.6 1.1
9 -11 -13 7.6 1.2
-9 11 13 7.5 1
9 11 -13 9.4 1.1
-9 11 12 7 1.1
9 11 -12 7.7 1.1
-9 -11 12 7.4 1.2
9 -11 -12 9.3 1.2
9 11 -11 20.7 1.7
-9 -11 11 20.3 1.8
9 11 -10 57.39 3.3
-9 -11 10 43.9 3.2
9 11 -9 4.1 0.8
-9 -11 9 6.2 1
9 11 -8 14.3 1.5
-9 -11 8 11.4 1.4
9 -11 -4 2.8 0.9
-9 11 4 3.6 0.9
-9 -11 4 3 0.8
9 11 -4 3.1 0.8
9 -11 -3 1.8 0.7
-9 11 3 1.5 0.6
-9 -11 3 1.8 0.6
9 11 -3 1.7 0.6
9 -11 -2 22.9 2
-9 -11 2 22.1 1.9
-9 11 2 22.2 1.9
9 11 -2 26.3 2
9 -11 -1 3.4 0.9
-9 11 1 3.3 0.7
-9 -11 1 5.5 1
9 11 -1 5.2 1
-9 11 0 35.5 2.4
9 -11 0 34.2 2.5
9 11 0 29.7 2.3
-9 -11 0 30.9 2.4
9 -11 1 0.3 0.7
-9 -11 -1 -0.3 0.7
-9 11 -1 1.3 0.7
9 11 1 1.6 0.8
9 11 2 25 2.1
-9 -11 -2 27.4 2.2
-9 11 -2 30.7 2.2
9 -11 2 27.8 2.2
9 -11 3 3.7 1
-9 11 -3 2.9 0.8
-9 -11 -3 4.4 1
9 11 3 4 0.9
-9 -11 -4 -0.1 0.7
-9 11 -4 0.2 0.6
9 11 4 -0.2 0.8
9 -11 4 0.9 0.8
-9 11 -5 2.3 0.7
-9 -11 -5 2.5 0.8
9 11 5 2.1 0.9
9 -11 5 1.5 0.7
9 11 6 10.6 1.2
-9 11 -6 8.8 1.1
-9 -11 -6 7.3 1.1
9 -11 6 7.5 1.1
-9 11 -8 56.69 3.6
9 -11 8 70.29 3.9
-9 11 -9 4.4 0.9
9 -11 9 4.2 1
-9 11 -10 22.5 1.9
9 -11 10 24 2
9 -11 12 0.5 0.7
-9 11 -12 -0.2 0.6
-9 11 -13 1.5 0.7
9 -11 13 0.8 0.7
-9 11 -14 25.2 2
9 -11 14 27.6 2.2
-9 11 -15 5.8 1
9 -11 15 4.8 1
9 -11 16 29.5 2.4
-9 11 -16 33.7 2.3
-10 0 34 35.8 2.4
-10 0 33 -0.1 0.5
10 0 -33 0.3 0.4
10 0 -32 380.46 17.1
-10 0 32 345.27 16.9
-10 0 31 -0.5 0.5
10 0 -31 -0.1 0.5
-10 0 30 544.25 24.4
10 0 -30 512.25 24.4
-10 0 26 485.65 22.7
10 0 -26 498.45 22.8
10 0 -25 0.1 0.4
-10 0 25 0.5 0.4
-10 0 24 50.49 3.1
10 0 -24 60.09 3.3
-10 0 23 -0.2 0.4
10 0 -23 0.2 0.4
-10 0 22 915.61 41.8
10 0 -22 926.31 41.8
-10 0 21 0.1 0.4
10 0 -21 0.3 0.4
10 0 -20 2328.07 102.59
-10 0 20 2240.38 102.59
10 0 -19 0.1 0.4
10 0 -18 1694.43 82.39
-10 0 18 1979.9 82.49
10 0 -17 -0.1 0.4
-10 0 17 -0.1 0.4
10 0 -16 93.39 4.8
-10 0 16 94.99 4.8
10 0 -15 0.1 0.4
-10 0 15 0.1 0.5
10 0 -14 1227.98 52.89
-10 0 14 1118.99 52.79
10 0 -13 -0.1 0.5
-10 0 13 -0.2 0.5
10 0 -12 1767.12 82.19
-10 0 12 1891.51 82.19
-10 0 11 0.1 0.5
10 0 -11 0.1 0.5
-10 0 10 759.02 31.6
10 0 -10 635.64 31.6
-10 0 9 0 0.5
10 0 -9 0.1 0.5
10 0 -8 592.54 28.8
-10 0 8 676.03 28.8
-10 0 7 0.3 0.5
10 0 -7 0.5 0.5
10 0 -6 365.76 17.2
-10 0 6 383.56 17.2
-10 0 5 0.3 0.5
10 0 -5 0.3 0.5
10 0 -1 0.2 0.4
-10 0 1 -0.1 0.4
-10 0 0 1331.07 63.19
10 0 0 1502.15 63.29
-10 0 -1 0.6 0.4
10 0 1 -0.1 0.4
10 0 2 506.25 23.7
-10 0 -2 536.15 23.6
-10 0 -3 0.3 0.3
10 0 3 0.3 0.4
-10 0 -4 20.3 1.2
10 0 4 19.4 1.3
-10 0 -5 0 0.3
-10 0 -6 1138.69 50.89
10 0 6 1128.39 50.99
-10 0 -7 0.1 0.2
10 0 7 0.2 0.3
-10 0 -8 5550.94 243.68
10 0 8 5346.06 243.68
10 0 9 0 0.2
-10 0 -9 0.1 0.2
10 0 10 2456.65 107.49
-10 0 -10 2357.36 107.49
10 0 11 0 0.1
-10 0 -11 0 0.1
-10 -2 34 12.6 1.3
10 2 -34 13.6 1.4
-10 -2 33 46.4 3
10 2 -33 47.6 3
10 2 -32 202.28 10.1
-10 2 32 201.68 10
-10 -2 32 218.38 10.2
10 -2 -32 203.48 10.1
10 2 -31 0.4 0.5
10 -2 -31 -0.2 0.5
-10 2 31 0.2 0.5
-10 -2 31 -0.2 0.6
-10 -2 30 89.29 4.7
10 2 -30 81.49 4.7
-10 -2 29 58.49 3.4
10 2 -29 57.59 3.4
-10 -2 28 220.18 10.7
10 2 -28 221.28 10.7
10 2 -27 138.09 7.4
-10 -2 27 163.98 7.6
-10 2 26 375.26 18.4
-10 -2 26 422.36 18.6
10 2 -26 395.06 18.5
10 -2 -26 396.16 18.5
-10 2 25 40.4 2.4
10 -2 -25 44.6 2.6
-10 -2 25 37.7 2.5
10 2 -25 38.4 2.5
-10 -2 24 47 3
10 -2 -24 55.59 3.1
10 2 -24 44.4 3
-10 2 24 46.7 2.8
10 2 -23 23.8 1.7
-10 -2 23 22.1 1.7
-10 2 23 22.4 1.6
10 -2 -23 21.2 1.6
-10 2 22 417.06 18.8
10 -2 -22 392.26 18.8
10 -2 -21 17.6 1.4
-10 2 21 17 1.3
10 -2 -20 331.77 14.8
10 2 -20 295.77 14.7
-10 2 20 316.57 14.7
-10 2 19 7 0.8
10 2 -19 6.6 0.8
10 -2 -19 6.6 0.8
-10 -2 19 8.8 0.9
10 -2 -18 964.7 43.1
10 2 -18 976.4 43.1
-10 -2 18 933.01 43.1
-10 2 18 929.01 43
10 -2 -17 266.07 11.6
-10 2 17 256.47 11.5
-10 -2 17 266.67 11.6
-10 2 16 417.26 20.6
10 2 -16 444.66 20.7
-10 -2 16 443.56 20.7
10 -2 -16 497.85 20.8
-10 2 15 3.2 0.7
-10 -2 15 3.7 0.7
10 2 -15 3.5 0.7
10 -2 -15 4.6 0.7
-10 2 14 133.59 6.5
10 2 -14 128.29 6.5
-10 -2 14 120.09 6.5
-10 -2 13 69.09 3.6
10 2 -13 60.59 3.5
-10 2 13 73.99 3.6
10 -2 -13 63.09 3.6
-10 -2 12 2998.9 135.39
-10 2 12 3079.19 135.39
10 -2 -12 3116.49 135.49
10 2 -12 2892.01 135.39
10 -2 -11 17.6 1.4
-10 -2 11 15.8 1.3
10 2 -11 16.1 1.3
-10 2 11 17.8 1.3
-10 -2 10 5310.47 220.88
-10 2 10 4971.1 220.78
10 -2 -10 4695.13 220.88
10 2 -10 4763.72 220.78
-10 2 9 215.48 11.2
10 -2 -9 235.48 11.3
-10 -2 9 249.48 11.3
10 2 -9 267.37 11.4
10 -2 -8 274.67 13.1
-10 2 8 291.37 13
-10 -2 8 277.37 13
10 2 -8 273.37 13
-10 2 7 846.32 41.4
10 -2 -7 1027.1 41.5
-10 -2 7 859.81 41.4
10 2 -7 960.7 41.4
-10 2 6 613.24 27.6
10 2 -6 634.04 27.6
10 -2 -6 598.54 27.7
-10 -2 6 578.64 27.6
10 2 -5 778.42 35.9
-10 -2 5 806.52 35.9
10 -2 -4 1515.65 64.19
-10 2 4 1353.56 64.09
-10 -2 4 1402.36 63.99
10 2 -4 1436.46 64.09
-10 2 3 30.7 1.9
-10 -2 3 29.4 1.9
10 2 -3 33.2 2
-10 -2 2 3863.71 164.88
-10 2 2 3897.81 164.98
10 -2 -2 3440.56 164.98
10 2 -2 3532.75 164.88
-10 -2 1 79.89 4.1
-10 2 1 81.29 4.1
10 -2 -1 84.39 4.2
10 2 -1 81.29 4.1
10 -2 0 1983.2 93.39
-10 -2 0 2009.8 93.29
-10 2 0 2185.28 93.29
10 2 0 2128.69 93.29
-10 2 -1 54.39 2.9
10 -2 1 55.29 3
-10 -2 -1 55.99 2.9
10 2 1 53.79 2.9
10 -2 2 199.18 10.1
-10 2 -2 228.28 10.1
10 -2 3 162.78 8.6
-10 2 -3 192.98 8.5
-10 2 -4 42.3 2.3
10 -2 4 39.7 2.3
-10 -2 -4 39.4 2.1
10 2 4 38.1 2.2
-10 2 -5 43 2.4
10 2 5 39.9 2.3
-10 -2 -5 47.6 2.3
10 -2 5 43.9 2.5
10 2 6 1829.12 82.29
-10 -2 -6 1830.42 82.29
-10 2 -6 1855.21 82.49
10 -2 7 141.09 6.8
-10 -2 -7 142.39 6.6
10 2 7 142.39 6.6
-10 2 -7 136.79 6.7
-10 2 -8 1081.59 50.89
10 -2 8 1090.49 50.99
-10 -2 -8 1177.68 50.69
10 2 8 1131.69 50.69
-10 2 -9 16.8 1.1
10 2 9 17.3 1
-10 -2 -9 16 1
10 2 10 303.87 15
-10 2 -10 360.16 15.3
-10 -2 -10 347.67 15
10 -2 10 339.47 15.4
-10 2 -11 56.29 2.9
10 -2 11 54.29 2.9
10 2 11 55.39 2.6
-10 -2 -11 52.19 2.5
10 -2 12 67.59 3.5
10 -2 13 62.99 3.4
-10 2 -13 67.79 3.4
-10 2 -14 434.66 20.7
10 -2 14 479.15 20.8
-10 2 -15 66.59 3.4
10 -2 15 68.49 3.5
-10 2 -16 1249.68 55.39
10 -2 16 1208.08 55.39
-10 2 -17 41.9 2.2
10 -2 17 36.3 2.2
-10 2 -18 493.85 21.6
10 -2 18 453.05 21.6
10 -2 19 9 0.8
-10 2 -19 8.3 0.7
10 -2 20 17.6 1.1
-10 2 -20 16.6 1.1
10 -2 22 50.99 2.7
-10 2 -22 56.49 2.8
10 4 -34 29.9 2.2
-10 -4 34 24.2 2.2
-10 -4 33 15.6 1.6
10 4 -33 19.8 1.6
-10 -4 32 45.5 3
10 4 -32 44.8 2.9
10 4 -31 1.1 0.6
10 -4 -31 0.3 0.5
-10 -4 31 0.4 0.6
-10 4 31 0.8 0.6
10 4 -30 96.09 5.5
10 -4 -30 101.69 5.5
-10 4 30 108.59 5.5
-10 -4 30 109.89 5.6
10 -4 -29 19.8 1.7
-10 4 29 22.5 1.7
10 -4 -28 142.99 6.9
-10 4 28 125.49 6.8
-10 4 27 92.49 5.2
10 -4 -27 100.49 5.3
-10 -4 27 104.39 5.4
10 4 -27 99.09 5.3
-10 4 26 68.09 4.3
10 -4 -26 82.69 4.5
-10 -4 26 75.19 4.4
-10 4 25 49.8 2.9
-10 -4 25 38.9 2.8
10 4 -25 48.2 2.9
10 -4 -25 47.9 2.9
10 -4 -24 23.3 1.9
10 4 -24 22.1 1.8
-10 4 24 18.7 1.6
-10 -4 24 24.4 1.9
10 -4 -23 200.48 9.7
-10 4 23 196.28 9.6
-10 -4 23 190.08 9.7
10 4 -23 205.18 9.7
10 -4 -22 27.8 2
-10 4 22 26 1.9
-10 -4 22 26.3 2
10 4 -22 28.3 2
-10 -4 21 52.49 3
10 -4 -21 49.2 2.9
-10 4 21 44 2.8
10 4 -21 42 2.8
-10 4 20 350.76 18.1
10 -4 -20 415.46 18.4
-10 -4 20 412.66 18.3
10 4 -20 392.86 18.3
10 -4 -19 61.39 3.5
-10 4 19 62.19 3.4
-10 -4 19 58.39 3.4
10 4 -19 54.49 3.4
-10 4 18 133.19 7
-10 -4 18 130.59 7
10 4 -18 143.89 7.1
10 -4 -18 153.08 7.1
-10 4 17 692.03 30.6
-10 -4 17 664.73 30.7
10 -4 -17 661.83 30.6
10 4 -17 649.54 30.6
10 4 -16 160.48 8
-10 -4 16 162.78 8.1
-10 -4 15 64.69 3.7
10 4 -15 68.19 3.8
-10 -4 14 43.8 2.8
10 4 -14 45.3 2.7
10 4 -13 14.4 1.3
-10 -4 13 18.1 1.5
10 4 -12 248.88 11.4
-10 -4 12 227.38 11.4
10 4 -11 15.2 1.4
-10 -4 11 18.7 1.5
10 -4 -10 554.74 27.4
-10 4 10 633.74 27.3
10 -4 -9 689.13 31.2
-10 4 9 671.53 31.1
-10 4 8 537.35 26
10 -4 -8 632.44 26.2
10 4 -8 596.64 26.1
-10 -4 8 521.55 26
10 4 -7 106.99 5.5
-10 -4 7 98.99 5.4
10 -4 -7 101.29 5.5
10 4 -6 47.9 3
-10 -4 6 50.09 3
-10 4 6 51.19 3
10 4 -5 618.34 27
10 -4 -5 665.63 27.2
-10 -4 5 608.04 27
10 -4 -4 178.08 8.4
-10 -4 4 172.08 8.3
-10 4 4 160.98 8.3
10 4 -4 171.98 8.3
-10 4 3 292.07 13.1
10 -4 -3 259.67 13.1
-10 -4 3 259.17 13
10 4 -3 294.37 13.1
10 -4 -2 1190.38 50.49
-10 4 2 1126.89 50.29
10 4 -2 1135.39 50.29
-10 -4 2 1018.5 50.29
10 -4 -1 0.4 0.6
-10 4 1 0.9 0.6
10 4 -1 0.6 0.5
-10 -4 1 0.3 0.5
10 -4 0 576.44 28.9
-10 4 0 631.84 28.9
10 4 0 656.33 28.8
-10 -4 0 646.84 28.8
10 -4 1 22.8 1.8
10 4 1 27.5 1.8
-10 4 -1 26.7 1.8
-10 -4 -1 26.2 1.7
-10 4 -2 48.5 2.8
-10 -4 -2 52.39 2.8
10 -4 3 150.58 8.1
10 4 3 170.08 8
-10 -4 -3 164.08 8
-10 4 -3 178.08 8.1
-10 4 -4 529.25 22.5
-10 -4 -4 475.45 22.3
10 4 4 504.35 22.3
10 -4 5 80.19 4.2
10 4 5 73.49 3.9
-10 -4 -5 75.59 4
-10 4 -5 73.99 4
10 -4 6 356.56 17.1
10 4 6 383.36 16.9
-10 -4 -6 352.16 16.8
10 -4 7 32.9 2.3
10 4 7 37.3 2.2
-10 -4 -7 36.2 2.2
-10 4 -7 41.7 2.4
10 4 8 266.57 12.7
-10 -4 -8 279.37 12.8
10 4 9 35.7 2.1
-10 -4 -9 34.8 2.1
10 4 10 220.48 10.3
-10 -4 -10 217.38 10.3
-10 -4 -11 11.3 0.9
10 4 11 10.7 0.9
-10 -4 -12 3.8 0.6
10 4 12 5.3 0.6
-10 -4 -13 109.19 5.2
10 4 13 103.09 5.2
-10 -4 -15 50.09 2.6
10 4 15 49.1 2.6
10 4 16 137.99 6.5
-10 4 -16 142.19 6.9
-10 -4 -16 131.69 6.5
10 -4 16 155.78 7.1
10 4 17 0.2 0.1
-10 -4 -17 0.3 0.2
-10 4 -17 -0.2 0.5
10 -4 17 0.6 0.5
-10 4 -18 116.49 6
10 -4 18 118.69 6.1
10 -4 19 58.29 3.3
-10 4 -19 54.19 3.2
-10 4 -20 11.7 1.1
10 -4 20 9.1 1.1
-10 4 -21 66.19 3.8
10 -4 21 70.69 3.9
10 -4 22 24.2 1.9
-10 -6 33 19.5 1.8
10 6 -33 19.2 1.7
-10 -6 32 8.8 1.3
10 6 -32 13.6 1.4
-10 -6 31 35.7 2.6
10 6 -31 43.6 2.8
-10 -6 30 1.8 0.7
10 6 -30 0.7 0.7
10 6 -28 50.39 3.2
-10 -6 28 49.99 3.2
-10 -6 27 91.79 4.9
10 6 -27 80.99 4.8
-10 -6 26 13.6 1.5
10 6 -26 13.9 1.4
-10 6 25 6.2 0.9
10 -6 -25 6 1
10 6 -25 6.5 1
-10 -6 25 5.4 0.9
10 -6 -24 3.2 0.8
-10 -6 24 1.1 0.8
10 6 -24 2.6 0.8
-10 6 24 2.8 0.8
10 -6 -23 -0.1 0.6
-10 -6 23 -0.2 0.7
-10 6 23 0.1 0.6
10 6 -23 0.4 0.7
-10 -6 22 42.8 2.8
10 -6 -22 38 2.7
-10 6 22 42.5 2.7
10 6 -22 37.3 2.7
10 -6 -21 13.6 1.4
-10 6 21 13.7 1.4
10 6 -21 12.4 1.4
10 6 -20 291.17 14.7
-10 -6 20 320.27 14.9
-10 6 20 306.77 14.7
10 -6 -20 321.07 14.9
10 -6 -19 56.59 3.5
-10 6 19 63.79 3.5
-10 -6 19 55.79 3.5
10 6 -19 55.19 3.4
10 6 -18 52.29 3.4
10 -6 -18 58.99 3.6
-10 6 18 63.19 3.6
-10 -6 18 60.59 3.6
10 6 -17 119.99 6.2
10 -6 -17 114.09 6.3
-10 6 17 123.79 6.2
-10 -6 17 118.09 6.3
-10 6 16 98.89 4.9
10 -6 -16 81.09 4.8
10 6 -16 84.89 4.8
-10 -6 16 84.79 4.8
-10 6 15 125.99 6.3
10 -6 -15 116.19 6.3
10 -6 -13 21 1.8
-10 6 13 24.2 1.8
-10 -6 13 23.2 1.9
10 6 -13 20.1 1.8
10 6 -12 15 1.5
10 -6 -12 16.1 1.5
-10 6 12 15.2 1.4
-10 -6 12 17.2 1.6
10 -6 -11 18.3 1.7
-10 6 11 18.7 1.6
10 6 -11 18.1 1.6
-10 -6 11 18.3 1.6
-10 6 10 102.89 5.6
10 6 -10 108.09 5.7
10 -6 -10 102.79 5.7
-10 -6 10 114.39 5.8
10 -6 -9 74.69 4.2
-10 6 9 67.29 4
10 6 -9 71.39 4.1
-10 -6 9 73.39 4.1
-10 6 8 50.49 3
10 6 -8 52.59 3.1
10 -6 -8 44.1 3
-10 -6 8 46.9 3
-10 6 7 15.1 1.4
10 -6 -7 14.3 1.4
-10 -6 7 14.1 1.4
10 6 -7 14.2 1.4
-10 6 6 23.1 1.9
10 6 -6 27.8 2
10 -6 -6 28.5 2.1
-10 6 5 8.9 1.1
10 6 -5 8.5 1.1
10 -6 -5 5.4 1
-10 -6 5 9.1 1.1
-10 6 4 59.99 3.5
10 -6 -4 54.09 3.5
-10 -6 4 56.09 3.5
10 -6 -3 3.1 0.9
-10 -6 3 3.9 0.9
-10 6 3 2.7 0.8
10 6 -3 1.9 0.7
-10 6 2 7.5 1
10 6 -2 9.5 1.1
-10 -6 2 6.3 1
10 -6 -2 6.2 1
10 6 -1 18.1 1.5
-10 6 1 20 1.6
-10 -6 1 16.7 1.5
10 -6 -1 22.3 1.8
-10 6 0 13 1.2
10 -6 0 9.8 1.2
10 6 0 12.4 1.3
-10 -6 0 13.2 1.3
10 -6 1 80.49 4.6
-10 6 -1 83.29 4.5
-10 -6 -1 76.39 4.4
10 6 1 85.99 4.5
10 -6 2 14.7 1.5
-10 -6 -2 16.1 1.5
-10 6 -2 16.8 1.5
10 6 2 16.1 1.4
-10 6 -3 15.9 1.4
-10 -6 -3 16.3 1.4
10 -6 3 15.7 1.5
10 6 3 17.6 1.5
-10 6 -4 13.5 1.4
10 6 4 17.2 1.5
10 -6 4 14.1 1.5
-10 6 -5 84.19 4.6
10 6 5 88.09 4.6
10 -6 5 77.49 4.6
-10 -6 -5 82.49 4.5
10 -6 6 87.49 4.9
10 6 6 88.39 4.8
-10 6 -6 91.49 4.8
-10 -6 -6 89.49 4.8
-10 6 -7 3.1 0.8
-10 -6 -7 3.9 0.7
10 6 7 3.2 0.7
10 -6 8 69.59 4
10 6 8 66.19 3.8
-10 6 -8 63.49 3.7
-10 -6 -8 67.29 3.8
-10 -6 -9 20.2 1.7
10 6 9 19.3 1.6
-10 6 -10 47.2 2.9
10 6 10 48.3 2.8
-10 -6 -10 43.5 2.8
10 -6 10 41 2.9
10 6 11 71.69 3.9
-10 -6 -11 63.89 3.8
-10 6 -11 64.09 3.9
10 -6 11 75.39 4.1
10 -6 12 3.1 0.8
-10 6 -12 3.4 0.8
-10 -6 -14 90.89 5
10 6 14 100.79 5.1
10 6 15 0.9 0.5
-10 -6 -15 1.1 0.5
10 6 16 87.09 4.8
-10 6 -16 94.59 5
-10 -6 -16 89.69 4.8
10 -6 16 95.59 5.1
-10 6 -17 19.3 1.6
10 -6 17 21 1.8
-10 6 -18 5 0.9
10 -6 18 5 0.9
10 -6 19 0.6 0.6
-10 6 -19 0.7 0.5
-10 6 -20 1.6 0.6
10 -6 20 1.1 0.6
10 -6 21 2.1 0.7
-10 -8 31 22.6 1.9
10 8 -31 20.4 1.8
10 8 -30 1.7 0.8
-10 -8 30 1.2 0.8
-10 -8 29 46.5 3.1
10 8 -29 46.7 3
10 8 -28 0.2 0.6
-10 -8 28 1 0.7
-10 -8 27 33 2.5
10 8 -27 34.2 2.4
-10 -8 25 13.9 1.6
10 8 -25 18.2 1.6
-10 -8 24 1.4 0.8
10 -8 -24 1.9 0.8
10 8 -24 1.8 0.8
-10 8 24 1.6 0.7
10 -8 -23 6.8 1.1
10 8 -23 8.5 1.2
-10 8 23 8.1 1.1
-10 -8 23 7.8 1.2
10 8 -22 4.9 0.9
-10 8 22 4 0.8
-10 -8 22 5.3 1
10 -8 -22 3.3 0.8
10 -8 -21 14.1 1.5
10 8 -21 15.6 1.6
-10 8 21 17.5 1.5
10 8 -20 6 1.1
10 -8 -20 6.7 1.1
-10 8 20 8.4 1.1
10 8 -19 43.2 3
10 -8 -19 52.39 3.2
-10 -8 19 43.3 3.1
-10 8 19 50.89 3.1
-10 8 18 8.5 1.2
10 8 -18 11.5 1.3
10 -8 -18 10.5 1.3
-10 -8 18 10.3 1.3
10 8 -17 26 2
-10 8 17 24.6 1.9
-10 -8 17 20.2 1.9
10 -8 -17 23.9 2
10 -8 -16 9.4 1.3
10 8 -16 11.1 1.3
-10 8 16 10.6 1.3
-10 -8 16 12.2 1.3
10 -8 -15 6.4 1.1
-10 8 15 4.5 0.9
10 8 -15 3.8 0.8
-10 -8 15 4.1 0.9
10 -8 -14 6.7 1
-10 8 14 8.7 1.1
-10 8 13 4.4 0.9
10 -8 -13 6.1 1
10 8 -13 6.9 1.1
-10 -8 13 6.1 1
-10 8 12 16.5 1.5
10 8 -12 14.9 1.4
10 -8 -12 16.2 1.6
-10 -8 12 12 1.4
-10 -8 11 137.49 6.4
-10 8 11 108.59 6.1
10 8 -11 102.29 6.1
10 -8 -11 125.59 6.3
-10 8 10 24.7 2
10 -8 -10 29.2 2.2
-10 -8 10 25.5 2.1
10 -8 -9 127.79 6.4
-10 8 9 117.19 6.2
10 8 -9 121.19 6.3
-10 -8 9 106.99 6.2
-10 8 8 3.3 0.8
10 -8 -8 3.8 0.9
-10 -8 8 4.4 1
10 8 -8 4.7 1
-10 8 7 27.4 2.1
10 8 -7 28.4 2.2
-10 -8 7 28.3 2.2
10 -8 -7 33.5 2.3
10 8 -6 19 1.6
-10 -8 6 15.9 1.6
10 -8 -6 13.5 1.5
-10 8 6 17 1.5
10 -8 -5 3.8 0.9
10 8 -5 4 0.9
-10 8 5 3.4 0.8
-10 -8 5 5.6 1
-10 8 4 9.4 1.2
10 -8 -4 7.2 1.2
10 8 -4 8.9 1.1
-10 -8 4 10.3 1.2
-10 8 3 15 1.4
10 -8 -3 14.4 1.5
10 8 -3 13.3 1.4
-10 8 2 18.3 1.5
-10 -8 2 17.1 1.6
10 8 -2 20.1 1.7
10 8 -1 3.7 0.9
10 -8 -1 3.2 0.9
-10 8 1 2.5 0.7
-10 -8 1 3.3 0.8
10 8 0 19.4 1.7
10 -8 0 24.1 2
-10 -8 0 19.2 1.7
-10 8 0 18.7 1.7
-10 8 -1 1.9 0.7
10 -8 1 1.7 0.8
10 8 1 2.3 0.7
-10 -8 -1 2 0.7
10 -8 2 53.79 3.3
-10 8 -2 44.8 3
10 8 2 53.59 3.2
-10 -8 -2 42.8 3
10 -8 3 12.5 1.6
10 8 3 15.4 1.5
-10 -8 -3 13 1.4
-10 8 -3 14.7 1.4
10 -8 4 212.48 10.6
10 8 4 203.38 10.4
-10 -8 -4 217.28 10.5
-10 8 -5 30.6 2.3
10 8 5 37.8 2.5
-10 -8 -5 31.3 2.4
10 -8 5 35.3 2.6
10 8 6 7.5 1.1
-10 8 -6 7.5 1.1
-10 -8 -6 7.8 1.1
10 -8 6 4.7 1.1
10 8 7 11.2 1.3
-10 -8 -7 13 1.3
-10 8 -7 11.1 1.3
10 8 8 27 2.1
-10 -8 -8 29.1 2.1
-10 -8 -9 3.9 0.8
10 8 9 4.4 0.8
10 8 10 9.8 1.2
-10 -8 -10 10.8 1.3
-10 8 -11 17.6 1.6
10 8 11 16.9 1.6
-10 -8 -11 17.1 1.6
10 -8 12 1.2 0.8
-10 8 -12 1 0.7
-10 8 -13 0.3 0.6
10 -8 13 1 0.7
-10 8 -14 0.9 0.7
10 -8 14 1.7 0.8
-10 8 -15 11.4 1.3
10 -8 15 10.6 1.3
-10 8 -16 3.9 0.8
10 -8 16 2.8 0.8
-10 8 -17 6.6 1
10 -8 17 4.9 1
-10 8 -18 13.5 1.5
10 -8 18 18.2 1.7
-10 8 -19 1 0.6
10 -8 19 1.3 0.7
-10 -10 29 10.5 1.3
10 10 -29 10.9 1.3
-10 -10 28 10.1 1.3
10 10 -28 10.9 1.3
-10 -10 27 14 1.5
10 10 -27 9.6 1.2
10 10 -25 6 1
-10 -10 25 5.3 1
10 10 -24 5.1 0.9
-10 -10 24 2.3 0.9
10 10 -23 20.2 1.7
-10 -10 23 20.8 1.8
10 10 -22 22.8 1.8
-10 -10 22 19.6 1.8
10 -10 -21 6.3 1.1
10 10 -21 7.4 1
-10 -10 21 6.8 1
-10 10 21 4.6 1
10 -10 -20 12.3 1.5
-10 10 20 16.2 1.5
-10 -10 20 17.6 1.6
10 10 -20 13.8 1.5
10 -10 -19 0.5 0.7
-10 10 19 0.6 0.7
10 10 -18 5.3 0.9
-10 10 18 3.6 0.9
10 -10 -18 4.5 0.9
-10 -10 18 5.5 1.1
-10 10 17 3.4 0.8
-10 -10 17 1.9 0.8
10 10 -17 2.7 0.7
10 -10 -17 3.7 1
-10 10 16 -0.1 0.6
10 -10 -16 1 0.7
10 10 -16 0.4 0.6
-10 -10 16 0.4 0.7
-10 -10 15 2.2 0.9
-10 10 15 1.9 0.8
10 10 -15 -0.1 0.7
10 -10 -15 1.1 0.7
-10 10 14 6.3 1
10 10 -14 6.8 1
10 -10 -14 5.3 1
-10 -10 14 5.3 1
-10 10 13 3 0.9
10 -10 -13 4.4 1
10 10 -13 5 1
-10 -10 13 4.1 1
-10 10 12 6.8 1
10 10 -12 6.9 1.1
-10 -10 12 5.9 1
10 -10 -12 6.4 1.1
10 -10 -11 3.1 0.9
-10 10 11 3.6 0.7
10 10 -11 3.7 0.9
-10 -10 11 3.7 0.9
10 -10 -10 23.9 2
-10 10 10 18.4 1.7
10 10 -10 21.2 1.8
-10 -10 10 24.6 2
10 -10 -9 5.5 1.1
10 10 -9 4.2 0.9
-10 -10 9 3.7 0.9
10 -10 -8 20.3 2.1
-10 -10 8 21.9 2.1
10 -10 -7 0.1 0.7
-10 -10 7 1.4 0.8
10 10 -7 1.2 0.8
10 -10 -6 0.9 0.8
10 -10 -5 2.4 0.9
-10 10 5 2.8 0.8
-10 10 4 18.6 1.7
-10 -10 4 17.6 1.7
10 -10 -4 19.5 1.8
10 -10 -3 5.7 1.1
-10 -10 3 2.9 0.8
-10 10 3 4.4 0.9
10 10 -3 3.6 0.8
-10 10 2 32.3 2.3
10 10 -2 34.3 2.3
-10 -10 2 26.5 2.2
10 -10 -2 27.9 2.3
10 10 -1 27.3 2.1
-10 10 1 29.4 2.2
-10 -10 1 28.2 2.2
10 -10 -1 25.4 2.2
10 -10 0 41.8 2.8
-10 -10 0 42.3 2.7
-10 10 0 33.8 2.5
10 10 0 36.3 2.6
10 -10 1 0.6 0.7
-10 10 -1 1.1 0.7
-10 -10 -1 1.7 0.8
10 10 1 0.4 0.7
10 -10 2 7.6 1.3
-10 10 -2 9.2 1.2
-10 -10 -2 7.6 1.1
10 10 2 9.1 1.2
10 -10 3 3.4 1
-10 -10 -3 4.5 1
-10 10 -3 5.3 1
10 10 3 5.6 1.1
-10 10 -4 16.6 1.6
-10 -10 -4 16.6 1.6
10 10 4 14 1.5
10 -10 4 12.8 1.6
10 -10 5 0.3 0.7
-10 10 -5 0.6 0.6
-10 -10 -5 1.1 0.6
10 10 5 0.2 0.6
-10 10 -6 53.99 3.4
10 10 6 52.69 3.5
-10 -10 -6 55.99 3.5
10 -10 6 65.39 3.7
10 -10 7 7.2 1.1
-10 10 -7 5.6 0.9
-10 -10 -7 8.2 1.1
10 10 7 6.5 1.1
10 10 8 56.49 3.6
-10 -10 -8 61.79 3.6
-10 10 -8 53.89 3.4
10 -10 8 57.09 3.6
10 -10 9 14.1 1.5
-10 10 -9 13.4 1.4
-10 10 -10 1 0.6
10 -10 10 -0.1 0.6
-10 10 -11 19 1.7
10 -10 11 17.2 1.7
-10 10 -12 10.9 1.3
10 -10 12 13.9 1.5
-10 10 -14 14.6 1.5
10 -10 14 14.8 1.6
10 -10 15 0.2 0.7
-10 10 -15 0.1 0.5
-10 10 -16 9 1.1
10 -10 16 7.5 1.2
-10 10 -17 3.6 0.8
10 -10 17 3.7 1
10 -12 -16 4.1 0.9
-10 12 16 5.6 1
10 -12 -15 0.2 0.6
-10 12 15 1.2 0.7
-10 12 14 42.7 2.8
10 -12 -14 41.8 2.9
10 -12 -13 3.9 0.9
-10 12 13 3.8 0.8
-10 12 12 28.8 2.1
10 -12 -12 28.3 2.2
-10 12 11 1.9 0.7
10 12 -11 3.4 0.9
10 -12 -11 2.1 0.8
-10 -12 11 4 0.9
-10 12 10 13.6 1.4
10 12 -10 13.2 1.4
-10 -12 10 16.1 1.5
10 -12 -10 16.1 1.6
10 -12 -9 0.6 0.7
-10 12 9 2.3 0.8
-10 12 8 6.7 1
10 12 -8 6.8 1.1
-10 -12 8 6.3 1.1
-10 12 7 13 1.4
10 12 -7 13.2 1.4
-10 -12 7 14.8 1.4
10 -12 -7 12.2 1.4
10 -12 -6 1 0.7
10 12 -6 0.1 0.6
-10 -12 6 1 0.7
10 -12 -5 3.9 0.9
10 12 -5 3.8 0.9
-10 -12 5 3.2 0.9
-10 12 5 3.4 0.8
10 12 -4 19.2 1.7
-10 -12 4 18.6 1.7
10 -12 -4 17.4 1.7
-10 12 4 16.5 1.6
10 -12 -3 -0.5 0.7
10 12 -3 -0.1 0.6
-10 12 3 -0.2 0.6
-10 -12 3 -0.1 0.6
10 12 -2 17.9 1.6
-10 -12 2 17.3 1.6
-10 12 2 20.4 1.7
10 -12 -2 17 1.7
-10 -12 1 0.7 0.6
10 -12 -1 0.7 0.7
-10 12 1 1.1 0.7
10 12 -1 0.6 0.6
10 12 0 32.8 2.4
-10 -12 0 35.1 2.5
-10 12 0 31.4 2.3
10 -12 0 32.8 2.4
10 12 1 0.9 0.7
-10 12 -1 0.8 0.6
10 -12 1 0.1 0.6
-10 12 -2 8.8 1.1
10 -12 2 9.1 1.2
-10 12 -3 1.5 0.6
10 -12 3 1.6 0.7
-11 -1 34 13.9 1.3
-11 1 34 12.1 1.2
11 1 -34 10.9 1.2
-11 1 33 16.9 1.4
-11 -1 33 16.8 1.5
11 -1 -33 17.9 1.5
11 1 -33 17.6 1.5
-11 1 32 282.87 12.8
11 -1 -32 249.78 12.8
-11 -1 32 274.17 12.8
11 1 -32 259.97 12.8
11 1 -31 22.5 1.8
-11 1 31 25.4 1.8
-11 -1 31 23.2 1.9
11 -1 -31 24.4 1.8
11 1 -30 458.15 23
-11 1 30 522.65 23.1
-11 -1 30 491.35 23.1
11 -1 -30 521.45 23.1
11 1 -29 4.6 0.8
-11 1 29 6.3 0.8
-11 -1 29 6.4 0.9
11 -1 -29 5.5 0.9
11 1 -28 520.85 26.1
-11 -1 28 618.74 26.2
11 1 -27 23.9 1.8
-11 -1 27 28.7 2
11 1 -26 50.39 3.1
-11 -1 26 55.39 3.1
11 1 -25 10.2 1.1
-11 -1 25 8.8 1
-11 1 25 8.2 0.9
11 -1 -25 9.1 1
-11 1 24 233.68 11
11 -1 -24 228.18 11.1
11 -1 -23 24.4 1.8
-11 1 23 26.5 1.8
11 1 -22 793.22 41.6
-11 -1 22 871.91 41.6
11 -1 -22 1000.8 41.7
-11 1 22 1019.5 41.7
11 1 -21 2.6 0.7
-11 1 21 2.5 0.6
-11 -1 21 1.4 0.6
11 -1 -21 3.3 0.7
-11 1 20 836.72 37.5
11 -1 -20 809.42 37.5
11 1 -19 43.4 2.7
-11 -1 19 48.2 2.8
11 -1 -19 49.8 2.8
-11 1 18 1078.29 45
-11 -1 18 1053.79 45
11 -1 -18 970.3 45
-11 -1 17 165.08 7.5
-11 1 17 138.59 7.3
11 1 -17 151.18 7.4
11 -1 -17 153.08 7.4
-11 1 16 33.8 2
11 -1 -16 28.8 2
-11 -1 16 28.9 2
-11 -1 15 15.5 1.3
11 1 -15 15.9 1.3
-11 1 15 16.5 1.3
11 -1 -15 16.2 1.3
-11 1 14 2197.68 99.49
11 1 -14 2275.27 99.49
-11 -1 13 559.84 27.1
-11 1 13 602.34 27.1
11 1 -13 607.74 27.2
11 -1 -13 614.94 27.2
11 1 -12 5021.7 203.18
11 -1 -12 4746.43 203.18
-11 -1 12 4823.52 203.18
-11 -1 11 610.24 28.1
-11 1 11 560.24 28
11 1 -11 670.93 28.2
11 -1 -11 642.14 28.2
11 1 -10 1883.21 78.09
11 -1 -10 1697.13 78.09
-11 1 10 1866.41 77.99
11 -1 -9 300.87 12.8
11 1 -9 256.27 12.7
-11 -1 9 241.38 12.8
-11 1 9 296.47 12.7
11 -1 -8 524.75 23.5
11 1 -8 543.65 23.5
-11 1 8 534.55 23.5
-11 -1 8 461.35 23.4
-11 1 7 1869.11 81.59
-11 -1 7 1805.92 81.49
11 -1 -7 1761.22 81.59
11 1 -7 1820.22 81.59
-11 1 6 629.34 25.2
11 1 -6 589.74 25.2
11 -1 -6 593.54 25.2
-11 1 5 691.63 31.4
11 1 -5 698.73 31.4
-11 -1 5 696.63 31.4
11 -1 -5 679.33 31.5
11 -1 -4 1577.14 72.49
11 1 -4 1466.95 72.39
-11 1 4 1633.34 72.49
11 1 -3 75.39 4.1
-11 1 3 84.09 4.1
11 -1 -3 74.79 4.1
-11 1 2 3340.17 144.29
-11 -1 2 3194.98 144.29
11 1 -2 3097.69 144.29
11 -1 -2 3262.07 144.39
11 -1 -1 9.5 0.9
-11 1 1 9 0.8
-11 1 0 1264.67 57.49
11 -1 0 1293.27 57.59
-11 1 -1 25.1 1.5
11 -1 1 19.3 1.5
11 1 2 0.5 0.4
-11 1 -2 1.1 0.4
-11 -1 -2 0.6 0.3
11 -1 2 0.1 0.4
11 1 3 8.8 0.8
11 -1 3 7 0.8
11 1 4 611.14 27.9
-11 -1 -4 623.74 27.9
-11 -1 -5 140.59 6.4
11 1 5 131.79 6.4
-11 -1 -6 2140.59 92.99
11 1 6 2004.6 92.99
-11 -1 -7 174.68 7.9
11 1 7 169.18 8
11 1 8 2474.15 109.59
-11 -1 -8 2426.86 109.59
-11 1 -9 54.49 2.6
11 1 9 48.2 2.5
-11 -1 -9 49.6 2.5
11 -1 9 56.69 2.7
-11 1 -10 188.88 7.9
11 1 10 177.28 7.7
11 -1 10 192.58 8
11 -1 11 9.9 0.7
-11 1 -11 8.7 0.7
11 -1 12 741.93 32.3
-11 1 -12 691.93 32.2
-11 1 -13 68.09 3.5
11 -1 13 75.09 3.5
-11 1 -14 1434.36 64.99
11 -1 14 1468.45 65.09
11 -1 15 9.1 0.7
-11 1 -15 8.6 0.6
-11 1 -16 1170.18 53.99
11 -1 16 1242.78 53.99
-11 1 -17 8.1 0.5
11 -1 17 8.3 0.5
11 3 -34 9.1 1.1
-11 -3 34 9.7 1.2
-11 3 32 59.49 3.4
11 -3 -32 56.29 3.4
-11 3 31 40 2.5
11 3 -31 41.1 2.6
11 -3 -31 33 2.4
-11 -3 31 35.3 2.5
-11 3 30 236.58 11.1
11 -3 -30 227.08 11.1
-11 -3 30 229.98 11.2
11 3 -30 220.88 11.1
11 3 -29 185.18 9.3
-11 -3 29 181.08 9.3
11 -3 -29 195.48 9.3
-11 3 29 184.58 9.1
-11 3 28 266.07 12.9
11 3 -28 262.47 13.1
11 -3 -28 284.77 13.1
-11 -3 28 276.87 13.1
-11 -3 27 92.09 5.4
-11 3 27 103.99 5.3
11 3 -27 104.89 5.4
11 -3 -27 107.79 5.5
-11 3 26 2.9 0.7
-11 -3 26 3.9 0.8
11 -3 -26 2.6 0.7
11 3 -26 2.9 0.7
-11 3 25 7.6 1
11 -3 -25 8.7 1.1
11 3 -25 7.1 1
-11 -3 25 7.6 1.1
-11 3 24 50.19 3.1
11 -3 -24 55.39 3.2
11 3 -24 52.89 3.1
-11 -3 24 53.19 3.2
-11 -3 23 49.4 3
-11 3 23 48 2.9
11 3 -23 53.89 3.1
11 -3 -23 49.5 3
-11 -3 22 477.05 20.1
11 3 -22 389.66 19.9
11 3 -21 58.49 3.4
-11 -3 20 101.99 5.7
11 3 -20 121.39 5.8
-11 3 19 44.3 2.6
11 -3 -19 44.3 2.7
-11 -3 19 41.3 2.6
11 3 -19 44 2.7
11 -3 -18 415.76 18.4
-11 3 18 391.36 18.3
-11 -3 18 361.46 18.3
11 3 -18 411.96 18.4
-11 -3 17 94.59 4.8
-11 3 17 95.39 4.7
11 -3 -17 86.89 4.8
11 3 -17 83.49 4.7
-11 3 16 256.77 12
11 -3 -16 249.38 12.1
-11 3 15 23.8 1.7
11 -3 -15 25.4 1.8
-11 -3 14 695.53 32.2
-11 3 14 718.83 32.2
11 -3 -14 648.34 32.2
11 3 -14 761.82 32.3
-11 -3 13 81.29 4.3
-11 3 13 71.09 4.2
11 -3 -13 78.49 4.3
11 3 -13 87.89 4.3
-11 -3 12 1248.88 59.39
-11 3 12 1332.47 59.39
11 -3 -12 1311.27 59.39
11 3 -12 1370.66 59.49
-11 -3 11 360.86 16.2
-11 3 11 346.27 16.1
11 -3 -11 348.67 16.2
11 3 -11 327.07 16.1
11 -3 -10 1116.19 57.09
-11 -3 10 1326.77 57.19
-11 3 10 1422.36 57.19
11 3 -10 1214.88 57.09
11 -3 -9 404.96 20.1
-11 -3 9 458.55 20.2
-11 3 9 455.55 20.1
11 3 -9 424.36 20.1
11 -3 -8 31.7 2.1
-11 3 8 30.7 2
-11 -3 8 32.6 2.1
11 3 -8 30.7 2.1
11 3 -7 178.38 8.3
-11 3 7 153.48 8.2
-11 -3 7 173.28 8.3
11 -3 -7 177.88 8.3
-11 3 6 342.07 14.9
11 -3 -6 349.67 15
11 3 -6 308.77 14.8
11 -3 -5 701.63 31.4
-11 3 5 679.03 31.3
-11 -3 5 744.63 31.3
11 3 -5 629.34 31.2
11 -3 -4 2631.94 121.89
-11 -3 4 2847.92 121.79
11 3 -4 2773.72 121.79
-11 3 4 2599.34 121.79
11 -3 -3 141.09 7.2
-11 3 3 143.09 7.1
-11 -3 3 149.69 7.1
11 3 -3 145.19 7.1
-11 3 2 2554.14 114.69
11 -3 -2 2605.84 114.79
-11 -3 2 2452.65 114.59
11 3 -2 2619.94 114.69
-11 3 1 2.8 0.6
11 -3 -1 3.6 0.6
-11 -3 1 3.4 0.7
11 3 -1 2.8 0.6
11 -3 0 372.86 17.2
-11 3 0 361.06 17
-11 -3 0 367.36 17
11 3 0 371.46 17
-11 -3 -1 121.09 5.7
-11 3 -1 118.49 5.7
11 -3 1 100.99 5.7
11 3 1 113.09 5.6
-11 3 -2 784.32 34.7
11 -3 2 746.03 34.8
-11 -3 -2 758.62 34.6
-11 3 -3 47.5 2.8
11 -3 3 46.7 2.8
-11 -3 -3 44.8 2.6
11 3 3 44.8 2.6
-11 -3 -4 515.85 24.2
11 -3 4 485.05 24.4
11 3 4 535.95 24.2
11 -3 5 35.2 2.3
-11 -3 -5 37.7 2.2
11 3 5 41 2.2
-11 3 -6 570.04 25.2
11 -3 6 537.65 25.2
-11 -3 -6 540.45 25
11 3 6 552.74 25
-11 3 -7 4.7 0.7
11 -3 7 5.7 0.8
-11 -3 -7 5.3 0.6
11 3 7 5.2 0.7
-11 3 -8 526.85 25
11 3 8 570.04 24.9
11 -3 8 522.25 25.1
-11 -3 -8 554.54 24.8
11 -3 9 130.99 6.5
-11 3 -9 130.29 6.4
11 3 10 188.48 8.7
11 -3 10 167.18 9
-11 3 -10 184.58 8.9
-11 -3 -10 199.78 8.7
-11 3 -11 70.09 3.7
11 3 11 66.19 3.4
11 -3 11 71.09 3.8
-11 -3 -11 72.99 3.5
11 -3 12 18.4 1.4
11 3 12 16.9 1.1
-11 3 -12 18.5 1.4
-11 -3 -12 19 1.1
-11 3 -13 246.48 10.9
-11 -3 -13 225.08 10.5
11 3 13 225.48 10.5
11 -3 13 235.28 11
-11 3 -14 469.65 15.6
-11 -3 -14 338.07 14.9
11 -3 14 479.25 15.7
-11 3 -15 293.77 14.1
11 -3 15 310.67 14.2
-11 3 -16 455.25 21.4
11 -3 16 477.95 21.5
-11 3 -17 10.6 1
11 -3 17 9.9 1
-11 3 -18 33.4 2.1
11 -3 18 35.4 2.2
-11 3 -19 44 2.6
11 -3 19 50.79 2.8
-11 3 -20 11.7 1
11 -3 20 11.5 1.1
-11 3 -21 144.99 7.2
11 -3 21 151.78 7.3
-11 -5 33 3.1 0.9
11 5 -33 2.6 0.9
11 5 -32 31.3 2.3
-11 -5 32 34 2.4
11 5 -31 10.6 1.3
-11 -5 31 9.5 1.3
-11 5 30 73.29 4.3
11 -5 -30 76.89 4.4
-11 -5 30 79.49 4.5
11 5 -30 82.29 4.5
-11 5 29 96.79 4.8
11 5 -29 91.29 4.8
11 -5 -29 84.69 4.8
-11 -5 28 47.3 2.9
11 -5 -28 44 2.9
11 5 -28 40.5 2.8
-11 5 28 41.5 2.8
11 -5 -27 62.99 3.6
-11 -5 27 51.89 3.4
-11 5 27 56.29 3.4
11 5 -27 57.29 3.5
-11 5 26 17.5 1.5
11 5 -26 14.6 1.5
-11 -5 26 19 1.7
-11 5 25 2.9 0.8
11 -5 -25 4 0.9
-11 -5 25 3.3 0.9
11 5 -25 3.3 0.9
11 -5 -24 131.59 7.1
-11 5 24 145.29 7.1
-11 -5 24 134.09 7.2
11 5 -24 145.99 7.2
-11 5 23 2.9 0.7
11 -5 -23 3.6 0.8
-11 -5 23 3.5 0.8
11 5 -23 5.9 0.9
-11 5 22 76.79 4.4
11 -5 -22 82.89 4.5
-11 5 21 196.38 9.3
11 -5 -21 179.18 9.3
-11 5 20 46 2.9
11 -5 -20 44 2.9
-11 -5 20 43.5 2.9
11 5 -20 52.99 3
-11 5 19 87.79 4.8
-11 -5 19 99.19 5
11 -5 -19 87.99 5
11 5 -19 86.69 4.9
11 5 -18 4.9 0.9
11 -5 -18 2.7 0.8
-11 5 18 4.8 0.8
-11 -5 18 4.3 0.9
11 -5 -17 268.67 13.4
-11 5 17 255.27 13.2
-11 -5 17 293.47 13.4
11 5 -17 301.47 13.4
11 5 -16 1 0.7
11 -5 -16 0.4 0.6
-11 -5 16 0.9 0.7
11 -5 -15 31.1 2.3
11 5 -15 35.5 2.3
-11 -5 15 29.2 2.2
-11 5 15 32.8 2.2
11 -5 -14 22.6 1.8
-11 5 14 27.5 1.9
11 5 -14 21.4 1.8
-11 -5 14 23.9 1.9
-11 -5 13 22.8 2
11 5 -13 29.6 2
11 -5 -13 25.6 2
-11 5 13 25 1.8
11 -5 -12 283.77 13.3
-11 5 12 289.17 13.2
-11 -5 12 309.27 13.3
-11 -5 11 143.29 7.9
11 -5 -11 166.78 8.1
11 5 -11 164.58 8
-11 5 11 164.28 7.9
11 -5 -10 119.29 6.3
11 5 -10 113.59 6.2
-11 5 10 123.79 6.2
-11 -5 10 128.59 6.3
-11 5 9 30.3 2
11 5 -9 25.7 1.9
11 -5 -9 26 2.1
-11 -5 9 25.5 1.9
-11 5 8 148.09 7.7
11 5 -8 150.38 7.8
-11 -5 8 168.68 7.9
11 -5 -8 159.08 7.9
11 -5 -7 75.09 4.6
-11 5 7 83.59 4.5
11 5 -7 89.29 4.6
-11 -5 7 88.69 4.6
11 -5 -6 211.48 10.5
11 5 -6 216.68 10.4
-11 -5 6 198.68 10.4
-11 5 6 233.78 10.5
-11 5 5 49.7 3
11 -5 -5 45 3.1
-11 -5 5 48.3 3
11 5 -5 51.79 3
11 -5 -4 104.19 5.9
11 5 -4 106.09 5.8
-11 -5 4 119.19 5.9
-11 5 4 124.59 5.9
-11 -5 3 25.9 1.9
11 -5 -3 24.3 2
-11 5 3 26 2
11 5 -3 26.3 1.9
-11 5 2 127.99 6.4
-11 -5 2 117.79 6.4
11 5 -2 120.09 6.4
11 5 -1 2.7 0.7
-11 -5 1 3.6 0.7
-11 5 1 3.7 0.7
11 -5 -1 2.8 0.7
11 -5 0 99.59 5.6
-11 5 0 113.19 5.6
11 -5 1 58.79 3.4
-11 5 -1 55.99 3.3
-11 5 -2 24.7 1.9
11 -5 2 27.3 2
11 5 3 177.58 8.6
11 -5 3 180.08 8.8
-11 5 -3 170.18 8.7
-11 -5 -3 178.18 8.6
-11 5 -4 81.09 4.4
11 -5 4 84.39 4.5
11 5 4 76.19 4.3
-11 -5 -4 80.59 4.3
-11 5 -5 71.39 3.8
11 5 5 68.89 3.7
11 -5 5 71.49 3.9
-11 -5 -5 60.59 3.7
-11 5 -6 251.57 12.9
11 5 6 286.07 13
-11 -5 -6 282.37 12.9
11 -5 7 5.1 0.9
-11 5 -7 5.2 0.8
11 5 7 4 0.7
-11 -5 -7 4.8 0.7
11 -5 8 39 2.8
11 5 8 47.6 2.7
-11 -5 -8 42.4 2.6
-11 5 -8 48.5 2.8
11 5 9 61.59 3.4
-11 5 -9 62.79 3.5
11 -5 9 62.49 3.6
-11 -5 -9 58.39 3.4
-11 5 -10 1.2 0.6
11 -5 10 1.2 0.7
11 5 10 1 0.6
-11 -5 -10 1.2 0.5
11 -5 11 77.19 4.1
11 5 11 63.99 3.7
-11 -5 -11 71.19 3.8
-11 5 -12 10.9 1.1
-11 -5 -12 10 1
11 5 12 9.8 1
11 -5 12 8.7 1.2
-11 5 -13 48.3 3
-11 -5 -13 53.49 2.9
11 5 13 48.5 2.9
11 -5 13 54.29 3.3
-11 5 -14 212.78 10.3
-11 -5 -14 208.88 10
11 5 14 209.28 10
11 -5 14 213.98 10.4
-11 -5 -15 12.5 1
11 5 15 12.5 1.1
-11 5 -15 12.6 1.3
11 -5 15 9.6 1.2
-11 -5 -16 85.69 4.4
-11 5 -16 97.69 4.8
11 5 16 81.99 4.4
11 -5 16 87.69 4.8
-11 5 -17 38.3 2.5
11 -5 17 40.7 2.6
-11 5 -18 4.6 0.8
11 -5 18 4 0.8
-11 5 -19 19.6 1.6
11 -5 19 20.6 1.7
-11 5 -20 0.6 0.6
11 -5 20 0.4 0.7
-11 -7 33 2.7 0.8
11 7 -33 2.8 0.8
-11 -7 31 41.5 2.9
11 7 -31 46.9 3
11 7 -30 25.5 2.1
-11 -7 30 29.8 2.2
-11 -7 29 78.69 4.5
11 7 -29 73.79 4.4
-11 -7 28 2.2 0.8
11 7 -28 3.1 0.9
11 -7 -27 33.9 2.5
-11 7 27 33.1 2.4
-11 -7 27 39.1 2.6
11 7 -27 34 2.5
-11 7 26 8.1 1.1
11 -7 -26 8.5 1.2
-11 -7 26 6.7 1.1
11 7 -26 9.2 1.1
11 -7 -25 6 1.1
-11 7 25 5.5 1
-11 -7 25 7.6 1.1
11 7 -25 8.9 1.2
-11 7 24 0.5 0.6
11 7 -24 1.1 0.7
11 -7 -24 0.4 0.6
-11 -7 24 1.1 0.7
11 -7 -23 3.6 0.9
-11 -7 23 3.1 0.9
11 7 -23 2.7 0.9
-11 7 23 3.1 0.8
-11 7 22 43.7 2.8
11 -7 -22 43.5 2.9
11 7 -21 37.8 2.5
11 -7 -21 36 2.5
-11 -7 21 33.7 2.5
-11 7 21 31.8 2.4
11 7 -20 49.9 3
11 -7 -20 41.5 2.9
-11 -7 20 46.8 3
-11 7 20 41.8 2.9
11 7 -19 140.79 7
-11 7 19 117.89 6.9
11 -7 -19 144.79 7.1
-11 -7 19 138.89 7.1
-11 7 18 15.5 1.6
11 7 -18 18.6 1.7
11 -7 -18 17.2 1.6
-11 -7 18 17.1 1.6
11 -7 -17 25.1 2.1
-11 7 17 23.7 2
11 7 -17 23.3 2
11 -7 -16 2.8 0.9
-11 7 16 2.2 0.8
11 7 -16 1.6 0.6
-11 -7 16 0.6 0.5
11 -7 -15 1.1 0.7
11 7 -15 1.4 0.7
-11 -7 15 1 0.7
-11 7 15 1.5 0.7
-11 7 14 23 1.8
11 7 -14 22.2 1.8
11 -7 -14 26.3 2
-11 -7 14 20 1.8
11 7 -13 61.39 3.6
11 -7 -13 61.89 3.6
-11 -7 13 66.59 3.7
11 -7 -12 1.1 0.7
-11 7 12 2 0.8
-11 -7 12 0.1 0.5
11 7 -12 2.1 0.7
11 -7 -11 220.48 11.1
11 7 -11 239.58 11.1
-11 7 11 231.78 11
-11 -7 11 210.78 11
11 -7 -10 2.8 0.8
-11 7 10 2.9 0.8
11 7 -10 4.4 0.9
-11 -7 10 2.6 0.8
-11 7 9 68.39 3.8
11 -7 -9 66.29 3.9
11 7 -9 65.59 3.8
-11 -7 9 60.69 3.8
-11 -7 8 0.9 0.7
-11 7 8 2.1 0.7
11 -7 -8 1.4 0.8
11 7 -8 1.1 0.7
-11 7 7 22.7 1.9
11 7 -7 24.7 2
-11 -7 7 23.5 2
11 7 -6 46.7 3.1
11 -7 -6 45.1 3.1
-11 7 6 48 3
-11 7 5 8.3 1
11 -7 -5 7.2 1.1
11 7 -5 9.8 1.2
-11 -7 5 7.8 1.1
-11 7 4 9 1.1
11 -7 -4 9.7 1.2
-11 7 3 67.89 4.1
11 -7 -3 80.59 4.4
11 -7 -2 62.29 3.8
-11 7 2 60.99 3.6
-11 7 1 41.3 2.8
11 -7 -1 44.6 3
11 7 -1 47.5 2.9
-11 -7 1 40.9 2.8
-11 7 0 9.2 1.2
11 7 0 12.4 1.3
-11 -7 0 11 1.3
11 -7 0 11.6 1.4
11 7 1 111.89 5.3
11 -7 1 92.89 5.3
-11 7 -1 82.89 5.1
-11 -7 -1 101.19 5.3
-11 7 -2 3 0.8
11 -7 2 3.7 0.9
-11 -7 -2 2.7 0.7
11 7 2 1.8 0.7
-11 7 -3 133.69 7.2
11 -7 3 126.99 7.3
11 7 3 159.18 7.4
-11 -7 -3 150.88 7.3
-11 7 -4 4.9 0.8
11 -7 4 5.8 0.9
-11 -7 -4 3.1 0.9
11 7 4 3.6 0.9
11 -7 5 28.4 2.2
11 7 5 29.2 2.1
-11 7 -5 25.1 2
-11 -7 -5 29.9 2.1
11 7 6 12.2 1.3
-11 -7 -6 10.2 1.2
11 -7 7 2.2 0.8
11 7 7 1.7 0.7
-11 -7 -7 1.8 0.7
11 -7 8 15.9 1.6
11 7 8 18.7 1.6
-11 7 -8 16.6 1.6
-11 -7 -8 16.1 1.5
-11 7 -9 5.5 1
11 7 9 7.4 1
11 -7 9 8.5 1.2
-11 -7 -9 6.1 1
11 -7 10 8.9 1.3
11 7 10 7.5 1
-11 7 -10 9.6 1.1
-11 -7 -10 8.3 1
-11 7 -11 27.2 2
11 7 11 23.4 1.8
-11 -7 -11 19.2 1.7
11 -7 11 24.4 2
11 -7 12 1 0.8
11 7 12 0.8 0.6
-11 7 -12 1.1 0.7
-11 -7 -12 -0.1 0.5
-11 7 -13 31.5 2.3
11 7 13 35.6 2.4
-11 -7 -13 35.7 2.4
11 -7 13 34.8 2.5
11 -7 14 1.3 0.8
-11 7 -14 1 0.7
-11 7 -15 19.9 1.7
11 -7 15 19.3 1.8
-11 7 -16 0.7 0.6
11 -7 16 0.6 0.6
-11 7 -17 3.3 0.8
11 -7 17 3.4 0.9
11 -7 18 12.2 1.4
-11 7 -18 10.9 1.2
-11 7 -19 5.5 1
11 -7 19 7.3 1.1
-11 -9 31 17.8 1.7
11 9 -31 13.1 1.5
-11 -9 30 9 1.2
11 9 -30 5.6 0.9
-11 -9 29 35.8 2.6
11 9 -29 40.5 2.7
11 9 -28 -0.1 0.6
-11 -9 28 -0.1 0.6
-11 -9 27 18.3 1.8
11 9 -27 18.9 1.7
11 9 -26 -0.1 0.7
-11 -9 25 1 0.8
11 9 -25 0.8 0.7
11 9 -24 2.3 0.7
-11 9 24 1.8 0.8
-11 -9 24 3.1 0.9
-11 -9 23 0.3 0.7
-11 9 23 0.8 0.6
11 9 -23 1 0.7
11 -9 -23 1.4 0.7
11 9 -22 21.3 1.8
-11 9 22 18.5 1.7
11 -9 -22 20.5 1.9
-11 -9 22 20 1.8
-11 9 21 49 3.2
11 9 -21 51.99 3.2
11 -9 -21 47 3.3
-11 -9 21 56.89 3.4
-11 9 20 25.2 2
11 9 -20 23.3 1.9
11 -9 -20 27.2 2.1
-11 -9 20 26.9 2.1
-11 9 19 44 2.9
11 -9 -19 47.8 3.1
11 9 -19 44.1 3
-11 -9 19 48.3 3.1
11 -9 -18 5.5 1
-11 9 18 7.9 1.1
-11 9 17 11.2 1.3
11 -9 -17 10.8 1.4
-11 9 16 1.3 0.8
11 -9 -16 1.1 0.7
11 9 -16 1.9 0.7
-11 -9 16 1.5 0.7
-11 9 15 4 0.9
11 -9 -15 5.5 1.1
11 9 -15 7.7 1.1
-11 -9 15 4.9 1
11 -9 -14 24.7 2
-11 9 14 25.1 1.9
11 9 -14 20.8 1.9
-11 -9 14 24.2 2
-11 9 13 18 1.6
-11 -9 13 14.9 1.5
11 -9 -13 14.8 1.6
11 9 -13 12.5 1.4
11 -9 -12 15.9 1.6
11 9 -12 18.6 1.7
-11 9 12 17.9 1.6
-11 -9 12 15.6 1.7
11 9 -11 4.8 0.9
-11 -9 11 2.7 0.8
11 -9 -10 2.8 0.9
-11 9 10 4.8 0.9
11 9 -10 4.2 1
-11 -9 10 4.2 1
11 9 -9 4.3 0.9
11 -9 -9 3.1 0.9
-11 9 9 3.6 0.8
-11 -9 9 2.8 0.8
-11 9 8 3.3 0.9
11 9 -8 1.6 0.8
-11 -9 8 1.3 0.8
11 -9 -8 2.8 0.9
-11 9 7 21.1 1.9
11 -9 -7 26.7 2.1
11 9 -7 28.7 2.1
-11 -9 7 25.6 2
11 -9 -6 5.3 1.1
-11 9 6 4 1
11 9 -6 5.8 1
-11 -9 6 6.7 1.1
11 -9 -5 20.9 1.9
-11 9 5 22 1.8
-11 9 4 38.3 2.6
11 9 -4 39.7 2.7
11 -9 -4 46.1 2.9
-11 -9 4 35.3 2.6
11 -9 -3 6.8 1.1
-11 9 3 8.2 1.1
-11 -9 3 6.5 1.1
11 9 -3 7.5 1.1
-11 9 2 4.5 0.9
11 -9 -2 3.9 0.9
-11 -9 2 3.5 0.8
11 9 -2 4.8 1
-11 9 1 2.9 0.8
11 -9 -1 3.2 0.9
-11 -9 1 1.9 0.8
11 9 -1 4 0.9
11 -9 0 13.2 1.5
-11 9 0 10.5 1.3
11 -9 1 1.4 0.9
11 -9 2 25 2.1
-11 9 -2 22.5 1.9
11 -9 3 4.8 1
-11 9 -3 4.3 0.9
11 -9 4 2.1 0.8
-11 -9 -4 2.1 0.8
11 9 4 3.2 0.9
-11 9 -4 1.5 0.6
11 9 5 14.2 1.5
-11 -9 -5 15.6 1.5
-11 9 -5 14.6 1.5
11 -9 5 15.6 1.6
11 9 6 43.8 2.9
-11 9 -6 42.5 2.9
-11 -9 -6 46.3 3
11 -9 7 1.7 0.8
-11 9 -7 1.3 0.7
11 9 7 0.2 0.6
-11 -9 -7 1.6 0.7
-11 9 -8 18.9 1.7
-11 -9 -8 18.7 1.7
11 9 8 17.8 1.7
11 -9 8 17.4 1.7
11 -9 9 2.8 0.9
-11 9 -9 3.4 0.9
11 9 9 3.2 0.9
-11 -9 -9 3.5 0.9
11 -9 10 5.7 1.1
-11 9 -10 8 1.1
11 -9 11 10 1.3
-11 9 -11 10.4 1.2
-11 9 -14 1.1 0.7
11 -9 14 2.1 0.8
-11 9 -15 0.7 0.6
11 -9 15 2.9 0.8
-11 9 -16 6.6 1.1
11 -9 16 8.3 1.2
-11 9 -17 0.3 0.5
11 -9 17 0.5 0.7
-11 -11 22 11.3 1.3
11 11 -22 10.1 1.2
11 11 -21 -0.1 0.6
11 11 -20 28.1 2.1
-11 -11 20 25.2 2.1
11 11 -19 2.7 0.7
11 -11 -19 2.9 0.9
-11 11 19 3.6 0.8
-11 -11 19 2.9 0.8
11 11 -18 30 2.1
-11 11 18 25.3 2.1
-11 -11 18 26.9 2.1
11 -11 -18 24.8 2.2
11 -11 -17 1.2 0.8
-11 11 17 2 0.9
11 -11 -16 17.6 1.7
-11 11 16 18 1.7
-11 11 15 12 1.4
11 11 -15 14.1 1.4
11 -11 -15 10.3 1.4
-11 -11 15 9.7 1.4
-11 11 14 58.59 3.7
-11 -11 14 70.39 3.9
11 11 -14 58.59 3.7
11 -11 -14 67.69 3.9
-11 -11 13 1 0.7
11 11 -13 1.3 0.8
11 -11 -13 1.7 0.9
-11 11 13 -0.1 0.6
-11 11 12 26.4 2
-11 -11 12 28.5 2.1
11 11 -12 23.8 2
11 -11 -12 22.4 2
11 -11 -11 5.2 1
-11 11 11 4.9 0.9
11 11 -11 6.6 1.1
-11 -11 11 5 1
11 -11 -10 5.8 1.1
11 11 -10 6 1
-11 -11 10 7.7 1
-11 11 10 7.9 1.1
11 -11 -9 8.5 1.3
-11 11 9 8.4 1.2
11 11 -9 8.1 1.2
-11 -11 9 9.6 1.3
-11 11 8 8.9 1.1
-11 -11 8 8.4 1.2
11 -11 -7 0.6 0.7
-11 11 7 1.2 0.7
-11 -11 7 0.4 0.6
11 11 -7 0.9 0.7
11 -11 -6 7.6 1.2
11 11 -6 9.5 1.2
-11 11 6 8.5 1.2
-11 -11 6 10.7 1.3
11 -11 -5 6.1 1.1
-11 11 5 6.5 1
-11 11 4 43.9 2.9
11 -11 -4 47 3.1
11 -11 -3 -0.1 0.7
-11 -11 3 1.1 0.6
-11 11 3 0.6 0.6
-11 11 2 55.29 3.5
-11 -11 2 56.49 3.6
11 11 -2 61.89 3.7
11 -11 -2 67.29 3.8
11 -11 -1 0.8 0.8
-11 11 1 1.3 0.7
11 11 -1 1.6 0.8
-11 -11 1 1.9 0.8
-11 11 0 12.1 1.3
11 11 0 14.3 1.5
-11 -11 0 10.6 1.3
11 -11 0 12.1 1.4
11 -11 1 4 1
-11 11 -1 4.3 1
11 11 1 4.7 1
-11 -11 -1 3.7 1
11 -11 2 2.9 0.9
-11 11 -2 4.5 0.9
11 11 2 1.6 0.8
-11 -11 -2 2.7 0.8
11 -11 3 4.5 0.9
11 11 3 3.6 0.9
-11 -11 -3 3.6 0.8
-11 11 -3 3.6 0.8
11 -11 4 5.1 1
11 11 4 7.4 1
-11 11 -4 5.3 0.9
-11 -11 -4 5.5 0.9
11 -11 5 1 0.8
-11 11 -5 0.3 0.6
-11 11 -6 18.1 1.7
11 -11 6 20.5 1.8
-11 11 -7 2.1 0.7
11 -11 7 0.7 0.7
-11 11 -8 1.4 0.7
11 -11 8 1.2 0.8
-11 11 -10 9.1 1.1
11 -11 10 9.2 1.3
-11 11 -11 1.4 0.6
11 -11 11 2.5 0.9
-11 11 -12 5.6 0.9
11 -11 12 5.2 1
11 -11 13 1.2 0.8
-11 11 -13 2.2 0.7
-11 11 -14 20.3 1.8
11 -11 14 21.6 2
-11 11 -15 2.2 0.7
11 -11 15 3.3 0.9
-12 0 34 91.99 5.1
12 0 -34 100.49 5.2
-12 0 33 0.8 0.6
12 0 -33 0.1 0.5
-12 0 32 355.76 16.6
12 0 -32 345.97 16.6
-12 0 31 -0.2 0.5
12 0 -31 0.1 0.5
-12 0 30 318.17 15.3
12 0 -30 329.07 15.3
12 0 -29 0.3 0.5
-12 0 29 -0.1 0.5
-12 0 28 405.06 19
12 0 -28 409.86 19.1
-12 0 27 0.4 0.5
12 0 -27 0.2 0.5
-12 0 26 55.29 4
12 0 -26 88.19 4.3
12 0 -23 -0.1 0.5
-12 0 23 0.3 0.5
12 0 -22 1697.03 72.39
-12 0 22 1519.05 72.29
12 0 -21 0.6 0.5
-12 0 21 0.1 0.4
-12 0 20 1270.37 57.39
-12 0 19 0.4 0.5
12 0 -19 0.1 0.4
12 0 -18 958.5 40.7
-12 0 18 836.82 40.6
12 0 -17 -0.1 0.4
-12 0 17 0.1 0.4
-12 0 16 288.27 13
12 0 -16 264.97 13
12 0 -15 -0.2 0.5
-12 0 15 0.1 0.5
-12 0 14 3287.87 156.38
12 0 -14 3719.83 156.48
12 0 -13 -0.3 0.5
-12 0 13 -0.3 0.5
-12 0 12 2761.22 125.29
12 0 -12 2823.32 125.29
12 0 -11 -0.1 0.5
-12 0 11 0.2 0.5
12 0 -10 594.74 29.8
-12 0 10 722.53 29.9
12 0 -9 0.1 0.5
-12 0 9 0.6 0.6
12 0 -8 270.97 13
-12 0 8 285.77 13
12 0 -7 0.5 0.4
-12 0 7 0.1 0.4
12 0 -6 1027.1 48.9
-12 0 6 1142.49 48.9
12 0 -5 0 0.5
-12 0 5 0.1 0.5
-12 0 4 824.62 37.2
12 0 -4 816.82 37.2
12 0 -3 0 0.5
-12 0 3 0.1 0.4
12 0 -2 1924.31 95.09
-12 0 2 2321.67 95.19
-12 0 1 0.5 0.4
12 0 -1 0 0.4
-12 0 0 74.79 4
12 0 0 90.99 4.2
12 0 4 4509.45 198.48
-12 0 -4 4374.16 198.48
12 0 5 0.7 0.3
-12 0 -5 0 0.3
-12 0 -6 763.22 33.2
12 0 6 703.33 33.2
-12 0 -7 -0.1 0.2
12 0 7 0.1 0.3
-12 0 -8 741.33 33.6
12 0 8 752.12 33.7
12 0 9 0 0.2
-12 0 -9 0 0.2
-12 0 -10 20.4 1.1
12 0 10 17.6 1.1
12 0 11 0 0.2
-12 0 -11 0.1 0.2
12 0 12 425.56 19.6
-12 0 -12 443.86 19.6
12 2 -35 31 2.2
-12 -2 35 29.3 2.2
12 2 -34 38.4 2.6
-12 -2 34 38.4 2.6
-12 2 33 28.9 1.9
-12 -2 33 27.4 2
12 -2 -33 22.6 1.9
12 2 -33 25.2 2
-12 2 32 270.27 13
12 -2 -32 262.47 13
-12 -2 32 290.87 13.1
12 2 -32 265.17 13.1
-12 2 31 4.8 0.8
12 2 -31 3.7 0.8
-12 -2 31 3.1 0.8
12 -2 -31 4.6 0.8
-12 2 30 689.23 32.9
12 2 -30 723.53 33
-12 -2 30 759.92 33
12 -2 -30 705.73 33
12 2 -29 83.29 4.5
-12 -2 29 82.89 4.5
12 -2 -29 74.39 4.4
-12 2 29 82.59 4.4
-12 -2 28 171.58 8.5
12 2 -28 182.58 8.5
12 -2 -28 183.38 8.5
-12 2 27 51.09 3
12 -2 -27 56.29 3.2
12 2 -27 48.4 3
-12 -2 27 51.89 3.1
-12 2 26 142.29 7.1
12 2 -26 146.19 7.2
-12 -2 26 140.09 7.2
12 -2 -26 144.39 7.3
-12 2 25 105.29 5.3
12 2 -25 94.79 5.3
12 -2 -25 96.49 5.3
-12 -2 25 112.89 5.5
12 2 -24 453.05 21
-12 -2 24 448.66 21
12 2 -23 2.2 0.6
-12 -2 23 0.9 0.6
12 2 -22 407.66 19.5
-12 -2 22 431.96 19.6
-12 2 21 50.59 2.9
-12 -2 21 48.2 2.9
12 -2 -21 47.8 2.9
-12 2 20 418.76 19.7
12 2 -20 403.86 19.8
12 -2 -20 445.86 19.8
-12 -2 20 434.76 19.8
12 -2 -19 70.89 3.9
-12 2 18 166.98 8.1
12 -2 -18 166.48 8.3
-12 2 17 158.48 7.5
12 2 -17 145.89 7.5
-12 -2 17 159.08 7.6
12 -2 -17 147.09 7.5
-12 2 16 635.34 30.1
12 -2 -16 669.43 30.2
12 2 -16 681.93 30.2
-12 -2 16 655.83 30.2
-12 2 15 1.8 0.6
12 2 -15 2.2 0.6
-12 -2 15 1.3 0.5
12 -2 -15 1 0.6
-12 2 14 2871.11 122.59
-12 -2 14 2863.81 122.69
12 -2 -14 2987.2 122.79
-12 2 13 34.2 2.1
12 2 -13 32.3 2.1
-12 -2 13 33 2.1
12 -2 -13 34.7 2.2
12 2 -12 1414.16 66.99
-12 -2 12 1349.47 66.99
-12 2 12 1549.94 66.99
-12 2 11 290.07 13.6
12 -2 -11 284.67 13.7
12 2 -11 297.07 13.7
-12 -2 11 291.97 13.6
-12 2 10 865.91 37
12 2 -10 869.41 37
-12 -2 10 749.13 36.9
12 -2 -10 776.92 37
12 2 -9 438.66 20.5
-12 2 9 490.75 20.5
-12 -2 9 435.56 20.5
12 -2 -9 415.36 20.5
-12 2 8 12.4 1.1
12 -2 -8 10.9 1.1
-12 -2 8 10.6 1
12 2 -8 11.4 1
-12 2 7 463.05 22.7
12 -2 -7 504.15 22.8
12 2 -7 520.95 22.8
-12 -2 7 500.45 22.8
12 -2 -6 837.92 38.5
-12 2 6 922.21 38.4
12 2 -6 894.51 38.4
12 -2 -5 63.79 3.4
-12 -2 5 63.89 3.3
-12 2 5 56.59 3.3
12 2 -5 63.19 3.3
-12 2 4 2496.95 107.89
12 2 -4 2329.07 107.89
-12 -2 4 2479.25 107.89
12 -2 -4 2303.77 107.89
-12 2 3 90.09 4.8
12 -2 -3 92.59 4.9
12 2 -3 94.09 4.8
-12 -2 3 102.19 4.8
12 -2 -2 2868.61 124.99
12 2 -2 2880.91 124.89
-12 2 2 2663.13 124.89
-12 -2 2 2733.53 124.89
12 -2 -1 40.9 2.5
12 2 -1 38.1 2.3
-12 -2 1 44.8 2.4
-12 2 1 44.1 2.4
-12 2 0 175.08 8.1
12 2 0 168.48 8
-12 -2 0 178.88 8
12 -2 0 149.69 8.1
12 2 1 159.68 7.3
-12 2 -1 150.68 7.4
12 -2 1 154.88 7.5
-12 -2 -1 148.99 7.3
12 -2 2 910.81 41.8
-12 2 -2 943.81 41.7
-12 -2 -2 911.11 41.6
12 -2 3 67.49 3.6
12 2 3 63.59 3.4
-12 2 -3 70.09 3.5
-12 -2 -3 64.99 3.4
12 -2 4 1066.09 48.2
12 -2 5 31.1 1.9
-12 2 -5 29.5 1.8
-12 2 -6 1756.32 78.79
12 2 6 1651.03 78.59
-12 -2 -6 1847.52 78.59
12 -2 6 1766.52 78.79
12 2 7 0.9 0.3
12 -2 7 1 0.5
-12 -2 -7 1.2 0.3
-12 2 -7 1 0.4
-12 2 -8 436.26 19
-12 -2 -8 403.46 18.8
12 2 8 407.66 18.8
12 -2 8 413.16 19.1
12 2 9 32.2 1.7
-12 2 -9 34.1 1.9
-12 -2 -9 31.9 1.7
12 -2 9 32.3 2
-12 2 -10 13 1
-12 -2 -10 11.1 0.7
12 -2 10 10.4 1
12 2 10 11.2 0.8
-12 2 -11 113.29 5.2
12 -2 11 102.29 5.2
-12 -2 -11 101.99 4.8
12 2 11 105.29 4.9
-12 2 -12 801.92 36.4
12 -2 12 804.72 36.4
12 -2 13 18.4 1.3
-12 2 -14 894.51 42.3
12 -2 14 990 42.4
-12 2 -15 177.38 8.6
12 -2 15 189.08 8.7
-12 2 -16 304.87 14.1
12 -2 16 305.17 14.1
12 -2 17 28 1.7
-12 2 -17 29.4 1.7
-12 2 -18 17.5 1.2
12 -2 18 17.7 1.2
-12 2 -19 20.6 1.3
12 -2 19 19.6 1.3
-12 -4 35 18.4 1.7
12 4 -34 56.29 3.5
-12 -4 34 56.49 3.5
12 4 -33 1 0.6
-12 -4 33 1.5 0.7
12 4 -32 57.09 3.3
-12 4 32 47.5 3.1
-12 -4 32 48.3 3.2
-12 4 31 33.7 2.4
12 -4 -31 39.7 2.6
-12 -4 31 35.6 2.5
-12 4 30 118.39 6.3
12 -4 -30 126.19 6.4
12 4 -30 122.99 6.4
-12 -4 30 120.29 6.5
-12 4 29 75.29 4.4
12 4 -29 81.89 4.5
12 -4 -29 78.29 4.5
-12 -4 29 81.89 4.5
12 -4 -28 42.5 2.7
12 4 -28 39.5 2.6
-12 -4 28 39.4 2.7
-12 4 28 32.3 2.4
12 -4 -27 38.6 2.5
-12 4 27 35.6 2.4
-12 4 26 61.09 3.6
12 -4 -26 62.89 3.7
-12 4 25 7.2 0.9
12 -4 -25 6.7 1
-12 -4 25 6.4 1
12 4 -25 5.9 0.9
-12 4 24 97.89 5
12 -4 -24 92.99 5.1
-12 -4 24 103.19 5.2
12 4 -24 86.49 5.1
-12 4 23 36.7 2.2
12 -4 -23 33.5 2.3
12 4 -23 31.8 2.2
-12 4 22 178.98 9.1
12 -4 -22 186.28 9.2
12 4 -22 189.98 9.1
-12 4 21 127.09 6.7
12 -4 -21 130.69 6.9
-12 -4 21 133.99 6.9
12 4 -21 145.29 6.9
-12 4 20 22.8 1.8
12 -4 -20 24.3 1.9
-12 -4 20 23.2 1.9
12 4 -20 27.3 1.9
12 -4 -19 44.8 2.8
-12 4 19 47.1 2.7
-12 -4 19 43.6 2.8
12 4 -19 37.4 2.7
-12 4 18 332.27 16.3
12 -4 -18 350.26 16.5
-12 -4 18 338.67 16.5
12 4 -18 379.26 16.5
-12 4 17 123.39 6.4
12 4 -17 114.09 6.4
12 -4 -16 45.4 2.7
-12 4 16 32.7 2.4
-12 -4 16 32.5 2.4
12 4 -16 53.29 2.8
12 -4 -15 110.59 5.7
-12 4 15 112.59 5.6
-12 -4 15 109.49 5.7
12 4 -15 103.89 5.7
12 -4 -14 780.12 34.2
-12 -4 14 711.73 34.1
-12 4 14 730.23 34
12 4 -14 765.52 34.1
-12 4 13 31.8 2.1
12 -4 -13 26.5 2.1
-12 -4 13 32.1 2.1
12 4 -13 35 2.2
12 -4 -12 1042.2 52.79
-12 -4 12 1327.07 52.89
-12 4 12 1088.09 52.69
12 4 -12 1237.98 52.89
-12 4 11 380.36 17.4
-12 -4 11 341.07 17.4
12 4 -11 346.97 17.4
12 -4 -10 49.6 3.2
-12 4 10 57.99 3.2
-12 -4 10 50.49 3.2
12 4 -10 57.79 3.2
-12 -4 9 63.99 3.8
12 -4 -9 71.99 3.9
-12 4 9 69.29 3.7
12 4 -9 64.99 3.7
12 -4 -8 73.29 4.3
-12 4 8 85.79 4.3
12 4 -6 903.71 39.7
-12 -4 6 839.82 39.6
12 4 -5 73.29 4
-12 -4 5 72.69 4
12 4 -4 1012 44.7
-12 -4 4 957.3 44.7
-12 -4 3 46.9 2.6
12 4 -3 38.5 2.5
12 4 -2 662.83 31.6
-12 -4 2 723.93 31.7
-12 -4 1 491.25 22.4
12 4 -1 480.55 22.4
12 4 0 30.5 2
12 4 1 442.16 20
-12 -4 -1 424.26 20
12 4 2 281.47 13.3
-12 -4 -2 283.27 13.3
-12 -4 -3 55.69 3.1
12 4 3 54.69 3.1
-12 -4 -4 412.96 18.7
12 4 4 394.66 18.7
12 4 5 3.4 0.6
-12 -4 -5 3.4 0.6
-12 -4 -6 637.84 29.6
12 4 6 659.43 29.6
-12 -4 -7 71.09 3.8
12 4 7 71.29 3.8
-12 -4 -8 104.89 5.1
12 4 8 95.19 5
-12 4 -9 128.29 6.7
-12 -4 -9 133.99 6.6
12 4 9 143.99 6.7
12 -4 9 139.49 6.9
-12 4 -10 15.1 1.3
12 -4 10 15.8 1.4
12 4 10 15.2 1.1
-12 -4 -10 12.7 1.1
-12 4 -11 83.99 4.7
12 -4 11 87.99 4.9
12 4 11 94.99 4.6
-12 -4 -11 93.39 4.6
12 -4 12 118.39 6.1
-12 4 -12 124.89 6
-12 -4 -12 110.19 5.7
12 4 12 120.59 5.7
-12 4 -13 123.09 6.5
-12 -4 -13 140.79 6.2
12 4 13 126.19 6.2
12 -4 13 121.89 6.6
-12 4 -14 406.96 19.8
12 -4 14 454.15 20.1
12 4 15 7.4 0.6
-12 -4 -15 7.6 0.7
12 -4 15 8.5 1
12 4 16 226.88 11.7
-12 -4 -16 256.97 11.8
-12 4 -16 346.17 12.6
12 -4 16 329.37 12.6
-12 4 -17 81.59 4.6
12 -4 17 96.99 4.8
-12 4 -18 5.9 0.8
12 -4 18 5.8 0.9
-12 4 -19 147.59 7.5
12 -4 19 152.48 7.6
12 -4 20 93.39 5.2
-12 4 -20 103.19 5.2
12 6 -34 2.2 0.8
-12 -6 34 2.5 1
-12 -6 33 2.6 0.8
12 6 -33 4.4 0.9
-12 -6 32 4.4 1
12 6 -32 4.7 0.9
12 6 -31 55.49 3.2
-12 -6 31 43.9 3.1
-12 -6 30 46.5 3.2
12 6 -30 56.09 3.3
-12 6 29 94.99 5
12 6 -29 91.49 4.9
12 -6 -29 85.69 5
-12 -6 29 81.79 4.9
-12 6 28 4.1 0.9
12 -6 -28 6.1 1
-12 -6 27 82.69 4.9
-12 6 27 83.69 4.9
12 -6 -27 95.99 5.1
12 6 -27 92.39 5
12 6 -26 3 0.9
12 -6 -26 4.9 0.9
-12 -6 26 3.9 0.9
-12 6 26 5.2 0.9
-12 6 25 9.3 1.2
12 -6 -25 10 1.2
-12 -6 25 9 1.2
12 6 -25 12 1.3
12 -6 -24 21.4 1.8
-12 6 24 19.3 1.7
-12 -6 24 17.5 1.6
12 6 -24 18.3 1.7
-12 -6 23 49.2 3.3
-12 6 23 50.79 3.2
12 6 -23 57.49 3.3
-12 -6 22 107.29 5.8
-12 -6 21 261.87 12.1
12 6 -21 232.68 11.9
-12 -6 20 90.69 4.8
12 6 -20 78.79 4.6
12 -6 -19 82.29 4.7
-12 -6 19 81.59 4.6
12 6 -19 86.39 4.7
-12 6 18 2.6 0.8
12 6 -18 3.4 0.8
12 -6 -18 3.4 0.9
-12 -6 18 3.1 0.8
12 6 -17 55.79 3.3
-12 6 17 50.19 3.2
12 -6 -17 56.49 3.4
-12 -6 17 55.19 3.4
-12 6 16 11.2 1.2
12 -6 -16 11 1.3
12 6 -16 10.7 1.2
-12 -6 16 12.9 1.4
12 6 -15 10.7 1.3
-12 -6 15 9.8 1.3
12 -6 -14 11 1.4
-12 6 14 11.1 1.3
12 -6 -13 53.49 3.2
-12 6 13 45.1 3
-12 6 12 63.99 3.5
12 6 -12 56.39 3.4
12 -6 -12 54.99 3.5
-12 -6 12 53.29 3.4
12 6 -11 124.89 6.6
-12 6 11 132.89 6.7
12 -6 -11 124.69 6.7
-12 -6 11 130.79 6.7
12 -6 -10 24.6 2
12 6 -10 24.6 1.9
-12 -6 10 23.8 1.9
-12 6 10 27.1 2
12 -6 -9 2.9 0.8
-12 6 9 3.8 0.8
12 6 -9 3.6 0.9
-12 -6 9 4.2 0.9
12 6 -8 39.9 2.5
12 -6 -8 38.2 2.5
-12 -6 8 33.8 2.4
-12 6 8 31.5 2.3
-12 6 7 14 1.4
12 -6 -7 11.7 1.4
-12 -6 7 12.7 1.3
12 6 -7 12.8 1.3
12 -6 -6 38.4 2.8
12 6 -6 41.6 2.7
-12 6 6 44.9 2.8
-12 -6 6 43.7 2.7
12 -6 -5 9.4 1.2
12 6 -5 6.5 1
-12 6 5 6.9 1
-12 -6 5 6.6 1
12 -6 -4 63.09 3.9
-12 6 4 68.49 3.8
12 6 -4 62.59 3.7
-12 -6 4 66.99 3.8
12 -6 -3 38.1 2.5
12 6 -3 36 2.4
-12 6 3 36 2.4
-12 -6 3 31.3 2.3
-12 6 2 87.29 4.4
12 -6 -2 69.79 4.4
12 6 -1 83.99 4.4
-12 6 1 78.29 4.4
-12 -6 1 79.99 4.4
12 -6 -1 72.79 4.5
12 6 0 24 1.8
-12 6 0 23.1 1.8
12 -6 0 20 1.9
-12 -6 0 22.8 1.8
-12 6 -1 26.2 1.9
12 -6 1 25.3 2
-12 -6 -1 28.5 2
12 6 1 25.5 1.9
-12 6 -2 115.69 6
12 6 2 116.29 6
12 -6 2 109.49 6.1
-12 -6 -2 115.19 6
-12 6 -3 39.3 2.6
12 6 3 38.8 2.6
12 -6 3 44 2.8
-12 -6 -3 46 2.7
-12 6 -4 21.3 1.8
-12 -6 -4 27.1 1.9
12 -6 4 22.4 1.9
12 6 4 25.5 1.8
12 -6 5 6.8 1.1
12 6 5 8.1 1
-12 -6 -5 7.5 1
-12 6 -6 68.49 3.9
12 -6 6 69.29 4.1
12 6 6 65.39 3.8
-12 -6 -6 68.69 3.9
12 -6 7 113.99 6.2
12 6 7 121.19 6.1
-12 -6 -7 120.69 6.1
-12 6 -7 115.09 6.1
12 -6 8 12.7 1.4
-12 -6 -8 13.3 1.2
-12 6 -8 12.1 1.3
12 6 8 10.7 1.2
12 6 9 117.39 6
-12 -6 -9 112.59 5.9
12 6 10 31.3 2.1
-12 -6 -10 26.7 2
12 6 11 63.19 3.6
-12 -6 -11 63.09 3.6
-12 6 -13 44.4 2.8
-12 -6 -13 47.3 2.7
12 -6 13 46.9 3
12 6 13 39.4 2.6
-12 6 -14 27.5 2.1
-12 -6 -14 26.1 1.9
12 6 14 25.2 1.9
12 -6 14 27.5 2.1
12 -6 15 0.2 0.6
-12 6 -15 0.1 0.5
-12 6 -16 12.8 1.3
12 -6 16 10.4 1.3
-12 6 -17 98.09 5.4
12 -6 17 100.89 5.5
-12 6 -18 36.6 2.5
12 -6 18 37.5 2.6
-12 6 -19 25.1 2
12 -6 19 29 2.2
-12 -8 31 11.7 1.4
12 8 -31 10.5 1.2
12 8 -30 6.8 1
-12 -8 30 9.1 1.3
-12 -8 29 56.39 3.6
12 8 -29 60.89 3.6
12 8 -28 1 0.7
-12 -8 28 0.4 0.7
12 8 -27 1.3 0.8
-12 -8 27 1 0.7
12 8 -26 3.8 1
-12 8 26 2.1 0.7
12 -8 -26 3.2 0.8
-12 -8 26 1.7 0.9
12 -8 -25 6.5 1
-12 8 25 5.9 1
12 8 -24 6.2 1
-12 -8 24 5.1 1.1
-12 8 24 4.6 0.9
12 -8 -24 5.5 1
-12 8 23 2.3 0.8
12 8 -23 1.7 0.8
-12 -8 23 1.8 0.8
12 -8 -23 1.1 0.7
-12 -8 22 2.1 0.8
12 8 -21 73.19 4.2
-12 -8 21 72.19 4.3
-12 -8 20 3.5 1
12 8 -20 1.9 0.8
12 8 -19 26.7 2.1
-12 -8 19 32.2 2.3
12 -8 -18 2.6 0.8
12 8 -18 1.1 0.7
-12 -8 18 2.3 0.7
-12 8 18 2 0.8
12 8 -17 3.2 0.9
-12 8 17 1.6 0.7
-12 -8 17 2.3 0.9
12 -8 -17 2.8 0.9
-12 8 16 3.2 0.7
12 -8 -16 3.1 0.8
12 8 -16 2 0.8
-12 -8 16 3.1 0.9
-12 8 15 35.7 2.5
12 8 -15 35.6 2.5
-12 -8 15 37.2 2.5
12 -8 -15 33.1 2.5
12 -8 -14 3.7 1
-12 8 14 3 0.8
12 8 -14 3.4 0.8
-12 -8 14 2.6 0.9
12 -8 -13 46.6 3.1
-12 8 12 3.1 0.7
12 -8 -12 2.1 0.7
12 -8 -11 81.29 4.5
12 8 -11 74.49 4.3
-12 8 11 80.29 4.4
-12 -8 11 67.39 4.3
-12 8 10 3.2 0.8
12 -8 -10 1.8 0.8
12 8 -10 3.4 0.8
-12 -8 10 1.9 0.7
12 8 -9 75.19 4.3
-12 8 9 66.29 4.1
12 -8 -9 74.29 4.3
-12 -8 9 78.19 4.4
12 8 -8 4.2 0.8
-12 8 8 2.1 0.8
-12 -8 8 4.4 0.8
12 -8 -8 4 0.9
12 8 -7 34.7 2.4
-12 8 7 28.9 2.2
-12 -8 7 32.2 2.4
12 -8 -7 32.8 2.4
12 8 -6 3.7 0.8
12 -8 -6 2.8 0.8
-12 -8 6 4.5 1
-12 8 6 4.3 0.8
-12 8 5 16.4 1.5
12 -8 -5 19.9 1.7
12 8 -5 15.3 1.5
-12 -8 5 17.3 1.6
-12 8 4 11.2 1.3
12 -8 -4 16.2 1.6
12 8 -4 13 1.4
-12 -8 4 12.1 1.4
-12 8 3 17.7 1.6
12 -8 -3 19.2 1.8
12 8 -3 20.5 1.7
-12 -8 3 16.6 1.6
-12 8 2 7 1
12 8 -2 10.1 1.2
12 -8 -2 8.2 1.1
-12 -8 2 8.4 1.1
12 8 -1 1 0.7
-12 8 1 1 0.6
-12 -8 1 0.2 0.6
12 -8 -1 0.4 0.7
12 -8 0 4.1 1
-12 8 0 4.4 0.9
12 8 0 5.6 1
-12 -8 0 5.4 1
12 -8 1 6.2 1.1
-12 8 -1 5.2 0.9
12 8 1 7.8 1.1
-12 -8 -1 6 1
-12 8 -2 10.9 1.2
12 -8 2 10.7 1.4
12 8 2 11.3 1.3
-12 -8 -2 10.9 1.3
12 -8 3 13.3 1.5
-12 8 -3 10.3 1.2
12 8 3 13.1 1.4
-12 -8 -3 12.4 1.3
12 8 4 71.79 4.3
-12 -8 -4 81.79 4.4
12 8 5 27.2 2.1
-12 -8 -5 29.7 2.2
12 8 6 1.1 0.8
-12 -8 -6 1.6 0.7
12 8 7 0.8 0.6
-12 -8 -7 0.4 0.6
12 8 8 17.6 1.6
-12 -8 -8 17.4 1.6
-12 8 -8 16.1 1.6
12 -8 8 19.7 1.8
12 8 9 5.2 1
12 -8 9 5.1 1
-12 8 -9 5.6 1
-12 -8 -9 6.3 1
-12 -8 -10 0.9 0.7
12 -8 10 0.3 0.8
-12 8 -10 0.3 0.6
12 8 10 0.2 0.6
-12 8 -11 28.4 2.1
12 8 11 24.8 2.1
-12 -8 -11 27.8 2.1
12 -8 11 27.2 2.2
12 -8 12 2.3 0.8
-12 8 -12 1.5 0.7
12 -8 13 0.9 0.8
-12 8 -13 2.2 0.8
-12 8 -14 5.6 0.9
12 -8 14 5.9 1
-12 8 -15 1.2 0.7
12 -8 15 0.8 0.7
-12 8 -16 8.4 1.1
12 -8 16 12.3 1.4
-12 8 -17 0.5 0.6
12 -8 17 0.2 0.7
12 -8 18 9 1.3
12 10 -29 8.2 1.2
-12 -10 29 8.9 1.3
-12 -10 28 4.8 1
12 10 -28 2.6 0.9
-12 -10 27 2.4 0.9
12 10 -27 1.7 0.8
12 10 -26 7.1 1
-12 -10 26 4.2 1
12 10 -24 9.6 1.2
-12 -10 24 8.3 1.2
12 10 -23 4.4 0.9
-12 -10 23 3.4 0.9
-12 10 22 32.1 2.5
12 10 -22 37.5 2.6
12 10 -21 22.5 1.9
12 -10 -21 23.4 2
-12 -10 21 24.5 2
-12 10 21 24.6 2
12 10 -20 10.9 1.3
12 -10 -20 9.2 1.3
-12 10 20 10.3 1.2
-12 -10 20 11 1.4
-12 10 19 4.4 0.9
12 -10 -19 2.7 0.8
-12 -10 19 2.9 1
12 10 -19 2.6 0.9
12 -10 -18 2.7 0.9
-12 10 18 3.4 0.8
-12 10 17 2.6 0.8
12 10 -17 1.8 0.7
12 -10 -17 3.3 0.8
-12 -10 17 2 0.8
-12 -10 16 55.39 3.6
12 10 -16 56.39 3.6
-12 10 16 56.69 3.5
12 -10 -16 68.19 3.8
-12 10 15 7.2 1
12 10 -15 8.9 1.1
12 -10 -15 9.7 1.2
-12 -10 15 8.4 1.1
12 10 -14 44 2.9
12 -10 -14 41.9 2.9
-12 10 14 37 2.7
12 -10 -13 1.5 0.8
-12 -10 13 1.4 0.7
12 10 -13 1.4 0.7
-12 10 13 2.5 0.8
12 -10 -12 23.2 2
-12 -10 12 22.3 1.9
12 10 -12 22.1 1.9
-12 10 12 21.3 1.8
-12 10 11 1.8 0.7
12 -10 -11 0.8 0.7
12 10 -11 0.3 0.6
-12 -10 11 0.4 0.6
-12 10 10 2.5 0.8
12 10 -10 2.5 0.9
-12 -10 10 1.5 0.7
-12 10 9 2.5 0.8
12 -10 -9 2.1 0.9
12 10 -9 2.8 0.7
-12 -10 9 3.6 0.8
12 -10 -8 2.2 0.8
12 10 -8 4.1 0.9
-12 10 8 2 0.8
-12 -10 8 4 0.9
-12 10 7 5.7 1.1
12 10 -7 6.8 1.1
12 -10 -7 7.2 1.1
-12 -10 7 7.6 1.1
12 -10 -6 43.2 2.8
-12 10 6 36.6 2.6
12 10 -6 38.2 2.7
-12 -10 6 38.8 2.7
12 -10 -5 20.2 1.9
12 10 -5 17.2 1.7
-12 10 5 21.1 1.8
-12 -10 5 22.1 1.8
12 -10 -4 37.6 4.2
-12 10 4 220.38 5.7
12 -10 -3 3.1 0.9
-12 10 2 4 0.9
12 10 -2 4.6 1
12 -10 -2 5.1 1
-12 -10 2 5 1
12 -10 -1 0.5 0.7
-12 10 1 0.3 0.6
12 10 -1 1 0.8
-12 -10 1 0.5 0.7
12 10 0 12.6 1.4
-12 10 0 15.1 1.5
-12 -10 0 13.7 1.5
12 -10 0 17.2 1.7
12 -10 1 1.6 0.9
12 10 1 1.7 0.8
-12 -10 -1 4.1 1
-12 10 -1 1.4 0.7
12 10 2 14.1 1.5
-12 -10 -2 14 1.5
-12 10 -2 12.6 1.3
12 -10 2 11.8 1.5
-12 10 -3 2.5 0.7
12 -10 3 1.4 0.7
12 10 3 0.2 0.7
-12 -10 -3 2.4 0.8
12 -10 4 9.1 1.3
-12 10 -4 6.2 1
12 10 4 6.8 1.1
-12 -10 -4 8.6 1.2
-12 10 -5 0.3 0.6
12 10 5 0.3 0.7
-12 -10 -5 0.1 0.6
12 10 6 20.7 1.8
-12 10 -6 17.8 1.7
-12 -10 -6 17 1.7
12 -10 6 22 1.9
-12 10 -7 2.9 0.8
12 -10 7 2 0.9
12 -10 8 3.3 1
-12 10 -8 2.3 0.8
-12 10 -9 19.1 1.7
12 -10 9 19.3 1.8
-12 10 -10 1.1 0.7
-12 10 -12 11.7 1.3
12 -10 12 11.3 1.3
-12 10 -13 7.6 1.1
12 -10 13 6.2 1.1
-12 10 -14 44.6 3
12 -10 14 51.59 3.3
-12 10 -15 6.6 1
12 -10 15 6.2 1.1
12 -12 -14 5 1
12 -12 -13 0.9 0.7
-12 12 13 2 0.6
-12 12 12 42.3 2.8
12 -12 -12 46.2 3
12 -12 -11 9.8 1.3
-12 12 11 9.8 1.2
-12 -12 10 27.4 2.1
12 12 -10 24.9 2
12 -12 -10 29.3 2.2
12 12 -9 2.6 0.8
12 -12 -9 1.9 0.8
-12 12 9 1.7 0.7
-12 -12 9 2.3 0.8
12 -12 -8 0.8 0.5
12 12 -8 1.2 0.7
-12 12 8 1.4 0.7
-12 -12 8 1.4 0.7
-12 12 7 3.5 0.9
12 12 -7 2.4 0.8
-12 -12 7 3.3 0.8
-12 12 6 26.6 2
12 12 -6 27.3 2.1
-12 -12 6 26.8 2.1
12 -12 -6 26.7 2.1
12 -12 -5 2.4 0.8
-12 12 5 4.2 0.8
12 12 -5 2.1 0.8
-12 12 4 45.4 2.8
12 12 -4 38.5 2.7
-12 -12 4 39.7 2.8
12 -12 -4 43 2.9
12 -12 -3 1.1 0.7
-12 12 3 1.2 0.6
12 12 -3 1.8 0.7
-12 -12 3 2.1 0.7
-12 12 2 30.4 2.1
-12 -12 2 28.3 2.1
12 12 -2 22.4 2
12 -12 -2 25.6 2.1
-12 -12 1 9.2 1.2
12 12 -1 10.2 1.2
-12 -12 0 8.3 1.1
12 12 0 8.4 1.1
-13 -1 35 39.2 2.8
13 1 -35 49.1 2.9
13 -1 -34 95.99 5.4
-13 1 34 106.89 5.4
-13 -1 34 99.39 5.4
13 1 -34 100.39 5.4
13 1 -33 2.3 0.8
-13 -1 33 1.8 0.7
-13 1 33 2.7 0.8
13 -1 -33 2.5 0.8
13 1 -32 348.27 16.5
13 -1 -32 327.87 16.4
-13 1 32 338.57 16.4
-13 -1 32 380.26 16.5
13 1 -31 72.29 4.3
-13 1 31 80.49 4.3
-13 -1 31 86.19 4.4
13 -1 -31 74.99 4.4
-13 1 30 481.65 21.4
-13 -1 30 441.96 21.4
13 -1 -30 440.86 21.4
13 1 -30 473.45 21.5
13 1 -29 3.5 0.8
-13 -1 29 3.4 0.9
-13 1 29 1.7 0.7
13 -1 -29 4.4 0.9
-13 1 28 144.39 6.9
-13 -1 28 139.09 6.9
13 -1 -28 138.79 6.9
13 1 -28 118.19 6.8
13 1 -27 6.3 0.9
-13 1 27 5.6 0.9
-13 -1 27 5.6 0.9
13 -1 -27 6.7 1
-13 1 26 134.49 6.9
-13 -1 26 145.99 7
13 1 -26 126.39 6.9
13 -1 -26 146.29 7
-13 1 25 45.8 2.8
13 1 -25 48.3 2.9
-13 -1 25 48.5 2.9
13 -1 -25 41.2 2.8
13 1 -24 1086.89 49
-13 1 24 1194.78 49
13 -1 -24 1096.89 49
13 1 -23 9.2 1
-13 -1 23 8.5 1
13 1 -22 1006.5 46.9
-13 -1 22 1057.29 46.9
-13 1 21 87.89 4.7
13 -1 -21 93.69 4.8
-13 1 20 574.44 26.4
13 1 -19 7 0.9
-13 -1 19 4.5 0.8
13 -1 -19 6.1 0.8
-13 1 18 36.4 2.4
13 1 -18 38 2.5
-13 -1 18 43.7 2.5
13 -1 -18 45.6 2.6
13 1 -17 53.39 3.2
-13 1 17 52.29 3.1
-13 -1 17 59.49 3.3
13 -1 -17 62.79 3.3
-13 1 16 1955.2 86.99
13 1 -16 1902.91 87.09
-13 -1 16 1844.62 87.09
13 -1 -16 2039.5 87.09
13 1 -15 24.1 1.7
-13 1 15 22.4 1.6
-13 -1 15 19.9 1.6
13 -1 -15 22.6 1.6
13 1 -14 2103.09 90.19
-13 1 14 1981.1 90.09
-13 -1 14 2074.89 90.19
13 -1 -14 1859.21 90.19
-13 -1 13 99.09 4.9
13 1 -13 96.79 4.9
-13 1 13 99.29 4.9
13 -1 -13 87.39 4.9
-13 1 12 3870.31 162.08
13 1 -12 3499.85 162.08
-13 -1 12 3594.94 162.08
13 -1 -12 3499.55 162.18
-13 1 11 966.6 42.3
-13 -1 11 1005 42.3
13 1 -11 924.61 42.3
13 -1 -11 837.92 42.3
13 1 -10 221.48 9.7
-13 1 10 197.38 9.6
-13 -1 10 201.38 9.6
13 -1 -10 187.38 9.7
-13 1 9 649.83 26.7
-13 -1 9 588.74 26.7
13 -1 -9 615.84 26.8
13 1 -8 121.99 5.4
-13 -1 8 116.29 5.4
-13 1 8 95.19 5.3
13 -1 -8 98.69 5.4
13 1 -7 124.49 6.1
-13 1 7 113.79 6
-13 -1 7 127.79 6.1
13 -1 -7 124.39 6.1
-13 -1 6 2628.84 110.69
13 1 -6 2458.55 110.69
-13 1 6 2444.16 110.69
13 -1 -6 2327.87 110.69
-13 1 5 271.67 11.8
13 1 -5 226.18 11.8
-13 -1 5 259.47 11.8
13 -1 -5 247.88 11.8
-13 1 4 4871.81 224.18
-13 -1 4 5560.74 224.28
13 -1 -4 5319.47 224.28
13 1 -3 489.85 21.1
-13 1 3 460.85 21.1
-13 -1 3 473.65 21.1
13 -1 -3 413.96 21.1
13 1 -2 977.3 41.2
-13 1 2 901.81 41.1
13 -1 -2 838.22 41.2
-13 -1 2 923.91 41.2
-13 1 1 6.2 0.8
13 1 -1 3.3 0.7
-13 -1 1 5.4 0.7
13 -1 -1 3.4 0.7
-13 1 0 1109.79 45.5
13 -1 0 952 45.5
-13 -1 0 990.2 45.4
13 1 0 979.3 45.5
13 1 1 227.78 11.8
-13 1 -1 269.37 11.9
-13 -1 -1 274.47 11.8
13 -1 1 245.28 11.9
-13 1 -2 1707.73 80.79
-13 -1 -2 1902.11 80.79
13 -1 2 1782.62 80.89
-13 1 -3 46.9 2.6
-13 1 -4 3270.47 146.99
13 -1 4 3294.57 147.09
-13 -1 -5 115.69 5.3
-13 1 -5 106.19 5.3
13 -1 5 110.39 5.5
13 1 5 108.29 5.3
-13 1 -6 699.33 31
13 -1 6 703.83 31.1
-13 -1 -6 664.93 30.9
13 1 6 682.43 31
-13 -1 -7 71.49 3.6
13 -1 7 72.69 3.8
-13 1 -7 68.49 3.7
13 1 7 77.49 3.6
-13 1 -8 65.09 3.5
13 -1 8 61.99 3.5
-13 -1 -8 71.39 3.4
13 1 8 73.79 3.4
-13 -1 -9 6.2 0.5
13 -1 9 6 0.7
-13 1 -9 6.6 0.6
13 1 9 6.1 0.5
13 1 10 284.57 12.7
-13 -1 -10 275.57 12.7
-13 -1 -11 18.6 1.1
13 1 11 25.2 1.1
13 -1 13 6.4 0.6
-13 1 -13 5.6 0.5
-13 1 -14 504.95 24
13 -1 14 561.04 24
-13 1 -15 394.66 18.5
13 -1 15 423.26 18.5
-13 1 -16 266.07 12
13 -1 16 260.37 12
-13 1 -17 7.6 0.5
13 -1 17 8.3 0.5
-13 -3 35 3 0.8
13 3 -35 4.1 0.9
13 3 -34 122.29 6.3
-13 -3 34 113.39 6.2
-13 -3 33 6.4 1
13 3 -33 4.4 0.9
-13 3 33 4.5 0.8
13 -3 -33 4.4 0.9
-13 3 32 180.28 8.8
13 -3 -32 165.08 8.8
13 3 -32 165.48 8.8
-13 3 31 35.1 2.3
13 -3 -31 31.4 2.3
-13 3 30 99.19 5.3
13 -3 -30 100.69 5.4
13 3 -29 64.19 3.7
13 -3 -29 58.29 3.6
-13 3 29 59.79 3.5
-13 -3 29 62.39 3.7
-13 3 28 1.6 0.6
13 3 -28 0.9 0.6
13 -3 -28 1.2 0.7
-13 -3 28 1.4 0.7
-13 3 27 40.7 2.7
13 3 -27 47.6 2.9
13 -3 -27 48.1 2.9
-13 -3 27 44 2.9
13 3 -26 151.08 8
-13 3 26 159.38 8
-13 -3 26 164.38 8.1
13 -3 -26 165.28 8.1
-13 3 25 65.89 3.7
13 3 -25 66.79 3.8
-13 -3 25 70.19 3.9
13 -3 -25 59.29 3.7
-13 3 24 235.78 10.8
13 3 -24 218.78 10.8
13 -3 -24 255.67 11
-13 3 23 358.06 17.2
13 3 -23 363.86 17.2
13 -3 -23 358.96 17.3
-13 -3 23 389.86 17.3
-13 3 22 117.19 6.3
-13 -3 22 132.89 6.5
13 -3 -22 125.69 6.4
-13 -3 21 65.39 3.5
-13 3 21 50.89 3.3
13 -3 -21 53.99 3.4
13 3 -21 67.29 3.5
-13 3 20 267.17 12.1
13 -3 -20 242.08 12.1
13 3 -20 275.17 12.1
-13 -3 20 225.08 12
13 3 -19 476.55 21.8
-13 -3 19 514.05 21.8
13 -3 -18 2.5 0.7
-13 3 18 1.5 0.6
-13 -3 18 2.9 0.7
13 3 -18 2.2 0.6
-13 -3 17 105.79 5.5
13 3 -17 104.09 5.5
13 3 -16 502.35 21.8
-13 -3 16 438.86 21.7
-13 -3 15 21.9 1.7
13 3 -15 27.1 1.9
-13 -3 14 1020.6 44.6
13 3 -14 942.11 44.7
-13 3 13 55.69 3.2
13 -3 -13 57.39 3.3
-13 3 12 356.46 15.7
13 -3 -12 311.47 15.8
-13 3 11 751.32 31.8
-13 -3 11 724.33 31.8
13 3 -11 678.93 31.7
-13 3 10 0.6 0.5
13 -3 -10 0.6 0.5
-13 -3 10 3.9 0.7
13 3 -10 3.6 0.8
-13 3 9 92.09 4.6
13 -3 -9 93.09 4.7
-13 -3 9 83.79 4.5
13 3 -9 77.29 4.5
13 -3 -8 48.8 3
-13 3 8 56.79 3
-13 -3 8 49.3 3
13 3 -8 56.09 3.1
-13 -3 7 47.5 3
13 -3 -7 48.5 3
13 3 -7 54.79 3.1
13 -3 -6 753.32 38
-13 -3 6 789.12 38
13 3 -6 866.41 38
-13 3 5 73.89 4.3
13 3 -5 86.49 4.4
-13 -3 5 78.29 4.3
-13 3 4 1703.83 75.89
13 -3 -4 1652.33 75.99
-13 -3 4 1665.03 75.89
13 3 -4 1716.83 75.89
-13 3 3 71.99 3.9
13 3 -3 79.29 4
13 -3 -3 83.79 4.1
-13 3 2 893.21 38.6
13 -3 -2 846.42 38.7
-13 -3 2 821.92 38.6
13 3 -2 840.12 38.6
-13 3 1 112.79 5.2
13 -3 -1 95.89 5.2
-13 -3 1 107.19 5.2
13 3 -1 91.29 5.1
13 3 0 18.7 1.4
-13 3 0 19.3 1.4
13 -3 0 17.3 1.5
-13 -3 -1 36.5 2.3
-13 3 -1 45 2.5
13 -3 1 40.1 2.6
13 3 1 37.2 2.4
-13 3 -2 831.02 37.4
-13 -3 -2 804.42 37.3
13 3 2 875.41 37.3
13 -3 2 773.62 37.5
-13 3 -3 3.3 0.7
13 -3 3 3.2 0.7
-13 -3 -3 3.1 0.6
13 3 3 4.4 0.7
-13 -3 -4 1044.9 48.1
13 3 4 1045.8 48.1
-13 3 -4 1118.59 48.3
13 -3 5 37.9 2.5
-13 3 -5 40.5 2.4
13 3 5 39.1 2.3
-13 -3 -5 42.5 2.3
13 3 6 331.77 14.7
-13 3 -6 316.87 14.8
13 -3 6 301.87 14.9
-13 -3 -6 311.57 14.6
-13 3 -7 160.78 7.8
13 -3 7 154.78 7.9
13 3 7 160.98 7.6
-13 -3 -7 161.88 7.6
-13 3 -8 105.89 5.4
13 3 8 105.29 5.2
-13 -3 -8 105.39 5.2
13 -3 8 111.19 5.5
13 -3 9 57.39 3.1
-13 -3 -9 51.39 2.8
13 3 9 51.69 2.8
-13 3 -9 54.99 3
-13 3 -10 10.1 1
13 -3 10 8.4 1
13 3 11 59.49 3.1
-13 -3 -11 63.29 3.1
-13 3 -11 61.79 3.3
13 -3 11 56.89 3.4
13 -3 12 566.44 25.6
13 3 12 556.14 25.1
-13 -3 -12 558.14 25.1
-13 3 -12 537.65 25.4
-13 -3 -13 29.1 1.6
13 3 13 30.3 1.6
-13 3 -14 631.84 31.1
13 -3 14 757.32 31.4
-13 3 -15 36.6 2.3
13 -3 15 39.4 2.4
-13 3 -16 123.89 6.4
13 -3 16 137.19 6.6
-13 3 -17 84.69 4.3
13 -3 17 78.79 4.3
13 -3 18 1.4 0.5
-13 3 -18 1.6 0.5
13 -3 19 17.8 1.4
-13 3 -19 16.5 1.3
-13 -5 35 10.8 1.3
13 5 -35 7.5 1.2
13 5 -34 41 2.7
-13 -5 34 38 2.7
13 5 -32 12.6 1.3
-13 -5 32 13.3 1.4
-13 -5 31 101.09 5.3
13 5 -31 89.69 5.2
13 5 -30 20.1 1.7
-13 -5 30 18.3 1.7
13 5 -29 119.59 6
-13 -5 29 101.99 5.9
-13 -5 28 4 0.9
13 -5 -28 4.7 0.9
13 5 -28 4 0.9
-13 5 28 4.6 0.9
13 -5 -27 93.59 5.2
-13 -5 27 85.59 5.1
-13 5 27 88.19 5
-13 5 26 27 2
-13 -5 26 26.2 2.1
13 -5 -26 25.4 2.1
13 -5 -25 17 1.6
-13 -5 25 14.7 1.6
13 5 -25 20 1.7
-13 5 25 18.9 1.6
-13 -5 24 91.29 5.2
13 -5 -24 88.59 5.2
-13 5 24 100.29 5.2
13 5 -24 104.69 5.3
13 -5 -23 423.96 19.5
-13 5 23 411.46 19.3
-13 -5 23 428.56 19.4
13 5 -23 388.46 19.3
13 -5 -22 163.28 8.2
-13 5 22 161.98 8
13 5 -22 177.98 8.2
-13 5 21 322.27 15.4
-13 -5 21 327.57 15.5
13 -5 -21 322.77 15.5
13 5 -21 329.67 15.5
-13 5 20 17.3 1.5
13 -5 -20 16.5 1.6
13 5 -19 3.7 0.9
13 -5 -19 5 1
-13 5 19 4.4 0.9
-13 -5 19 4.5 0.9
13 5 -18 6.5 1
-13 5 18 8.3 1
-13 -5 18 5.4 1
13 -5 -18 8.1 1.1
13 -5 -17 13.2 1.4
-13 -5 17 14.8 1.5
13 -5 -16 131.69 6.5
-13 -5 16 121.19 6.5
-13 5 16 126.99 6.4
13 5 -16 118.89 6.4
13 -5 -15 23 1.9
-13 5 15 28.9 2
-13 -5 15 21.5 1.8
13 5 -15 27.6 2
13 -5 -14 110.59 6.1
-13 5 14 116.09 6.1
-13 -5 14 119.09 6.2
13 5 -14 127.69 6.2
13 5 -13 3 0.8
13 -5 -13 2.6 0.8
-13 5 13 2.7 0.7
-13 -5 13 2.6 0.8
-13 -5 12 78.69 4.2
-13 5 12 70.39 4.1
13 -5 -12 67.79 4.2
13 5 -12 77.69 4.2
13 5 -11 208.68 11.1
-13 5 11 222.28 11.2
13 -5 -11 219.68 11.3
13 5 -10 67.99 3.6
13 -5 -10 57.09 3.6
-13 5 10 64.69 3.6
-13 -5 10 56.69 3.5
13 5 -9 11.4 1.2
-13 5 9 11.2 1.1
13 -5 -9 10.6 1.3
-13 -5 9 12.1 1.3
13 5 -8 23.5 1.8
-13 5 8 27.7 1.9
13 -5 -8 23.9 1.9
-13 -5 8 22.2 1.8
13 -5 -7 86.99 5.1
-13 5 7 95.99 5.1
-13 -5 7 96.09 5.1
13 5 -7 102.89 5.2
-13 5 6 210.48 11
-13 -5 6 230.38 11.1
13 5 -6 243.18 11.1
13 -5 -6 231.98 11.2
13 5 -5 48.7 2.8
-13 5 5 44.9 2.8
13 -5 -5 42.2 2.9
-13 -5 5 40.8 2.7
13 -5 -4 471.05 19.7
-13 -5 4 424.46 19.4
13 5 -4 431.66 19.4
13 5 -3 106.59 5.7
13 -5 -3 123.99 6
-13 5 3 109.79 5.7
-13 -5 3 106.19 5.7
13 -5 -2 101.39 5.1
13 5 -2 89.89 4.9
-13 5 2 89.59 5
13 5 -1 361.86 16.7
-13 5 1 361.86 16.7
13 -5 -1 348.27 16.8
-13 -5 1 350.66 16.7
13 5 0 81.59 4.7
-13 5 0 80.39 4.7
-13 -5 0 86.39 4.7
13 5 1 118.59 5.8
-13 5 -1 107.59 5.8
13 -5 1 110.79 5.9
-13 -5 -1 109.19 5.7
-13 5 -2 28.4 1.9
13 -5 2 24.4 1.9
13 -5 3 33.8 2.4
-13 5 -3 38.7 2.4
13 -5 4 207.48 10.2
13 5 5 62.19 3.2
-13 5 -5 50.09 3.2
13 -5 5 52.29 3.3
-13 -5 -5 57.39 3.2
-13 5 -6 75.99 4.1
13 -5 6 69.19 4.2
-13 -5 -6 73.49 4
13 5 6 74.29 4
13 -5 7 206.78 10.2
-13 5 -7 189.48 10
-13 -5 -7 207.58 9.9
13 5 7 220.48 10
-13 -5 -8 33.5 2.2
13 -5 8 39.7 2.5
13 5 8 36.7 2.2
-13 5 -9 39 2.6
13 -5 9 40.3 2.7
-13 -5 -9 44.9 2.6
13 5 9 41.2 2.5
-13 5 -10 9.4 1.1
13 5 10 7.8 0.9
13 -5 10 9.5 1.2
-13 -5 -10 9.5 1
13 -5 11 149.69 7.5
-13 5 -11 141.69 7.3
-13 -5 -11 143.99 7.2
13 5 11 146.79 7.2
13 -5 12 277.47 13.1
-13 -5 -12 268.07 12.8
13 5 12 269.87 12.8
-13 5 -13 11.9 1.3
-13 -5 -13 12.7 1.1
13 5 13 15.3 1.2
13 -5 13 15 1.5
-13 5 -14 195.38 9.4
-13 -5 -14 183.98 9
13 5 14 184.38 9
13 -5 14 200.78 9.5
13 -5 15 5.7 1
-13 5 -15 5.3 0.9
13 5 15 4.4 0.6
-13 -5 -15 4.3 0.6
-13 5 -16 85.09 4.5
13 -5 16 75.89 4.5
13 -5 17 151.48 7.5
-13 5 -17 142.59 7.4
-13 5 -18 1.9 0.6
13 -5 18 0.9 0.6
-13 5 -19 59.49 3.6
13 -5 19 65.79 3.8
-13 -7 34 6.2 1.1
13 7 -33 77.49 4.6
-13 -7 33 87.59 4.8
-13 -7 32 17.7 1.7
13 7 -32 19.5 1.7
-13 -7 30 1.7 0.8
13 7 -30 3.5 0.8
-13 -7 29 24.9 2.2
13 7 -29 35.6 2.3
-13 7 28 2.4 0.8
13 -7 -28 2.5 0.8
13 7 -28 1.7 0.7
-13 -7 28 2.5 0.9
13 7 -27 7.9 1.1
-13 7 27 7.9 1.1
13 -7 -27 8 1.1
-13 -7 27 7.8 1.1
-13 7 26 1.2 0.7
13 -7 -26 0.8 0.7
-13 -7 26 0.5 0.6
13 7 -26 0.2 0.6
13 -7 -25 10.4 1.3
-13 7 25 11.3 1.3
-13 -7 25 9.5 1.3
13 7 -25 11.7 1.3
13 7 -24 7 1
13 -7 -24 5.7 1
-13 7 24 6.2 1
-13 -7 24 5.8 1
-13 7 23 101.39 5.4
13 -7 -23 99.69 5.5
13 7 -23 99.49 5.5
-13 7 22 22.1 1.8
13 -7 -22 23.9 1.9
-13 -7 22 21.6 1.8
13 7 -22 20 1.8
-13 7 21 123.99 6.4
13 -7 -21 116.89 6.4
13 -7 -20 19.3 1.8
-13 7 20 23.2 1.8
-13 -7 20 19.6 1.8
13 7 -20 19.4 1.8
13 -7 -19 51.09 3.5
-13 -7 19 60.19 3.6
-13 7 19 59.19 3.5
13 7 -19 58.49 3.5
13 -7 -18 1.4 0.8
-13 7 18 2.1 0.7
13 7 -18 0.6 0.7
-13 -7 18 2.4 0.8
13 -7 -17 3.3 0.9
-13 7 17 4.1 0.9
-13 -7 17 2.5 0.8
13 7 -17 2.2 0.8
-13 7 16 2.5 0.7
13 -7 -16 3.5 0.8
13 7 -16 3.2 0.8
-13 -7 16 4.5 0.8
13 7 -15 91.89 5
13 -7 -15 91.79 5.1
-13 -7 15 90.29 5.1
-13 7 14 13 1.3
13 -7 -14 10.1 1.3
-13 -7 14 10.4 1.3
13 7 -14 10.9 1.3
13 7 -13 68.79 4
13 -7 -13 59.19 3.9
-13 7 13 68.69 3.9
-13 -7 13 74.09 4.1
-13 7 12 1.6 0.7
13 7 -12 1.3 0.7
13 -7 -12 1.9 0.8
-13 -7 12 1.2 0.7
-13 7 11 28 2.1
13 7 -11 28.7 2.2
13 -7 -11 31.5 2.3
-13 -7 11 30.3 2.2
13 -7 -10 -0.1 0.7
13 7 -10 0.7 0.7
-13 -7 10 -0.2 0.7
-13 7 10 1.1 0.7
-13 7 9 100.39 5.4
13 -7 -9 100.09 5.5
13 7 -9 112.39 5.6
-13 -7 9 94.09 5.4
-13 7 8 12.8 1.3
13 -7 -8 14.8 1.5
-13 -7 8 10.2 1.3
13 7 -8 11.4 1.3
13 7 -7 10.8 1.2
13 -7 -7 9.1 1.3
-13 7 7 10 1.2
-13 -7 7 8.9 1.2
13 7 -6 32.9 2.3
-13 7 6 32.2 2.3
13 -7 -6 30.8 2.3
-13 -7 6 34.3 2.4
13 -7 -5 40.5 2.8
13 7 -5 42.7 2.8
-13 -7 5 44.3 2.8
-13 7 5 40.6 2.7
-13 7 4 33.8 2.3
13 -7 -4 31.4 2.4
-13 7 3 24 2
13 -7 -3 24.1 2.1
13 7 -3 28.6 2.1
-13 -7 3 30.1 2.1
13 -7 -2 16.4 1.6
-13 7 2 14.1 1.4
-13 7 1 1.1 0.7
13 -7 -1 1 0.8
-13 7 0 5.4 1
13 -7 0 5.4 1.1
-13 7 -1 8.7 1.2
13 -7 1 10.7 1.3
13 7 1 9.9 1.2
-13 -7 -1 8.3 1.1
13 -7 2 3.4 0.9
-13 7 -2 2.9 0.8
13 7 2 5.4 1
-13 -7 -2 2.2 0.8
-13 7 -3 143.69 6.8
13 7 3 129.79 6.8
13 -7 3 121.39 6.8
-13 -7 -3 126.29 6.7
-13 7 -4 43.1 2.8
13 7 4 47.4 2.9
-13 -7 -4 41.4 2.8
-13 7 -5 31.3 2.2
13 7 5 34.4 2.3
13 -7 5 26.9 2.3
-13 -7 -5 32.9 2.3
-13 7 -6 1.8 0.7
13 -7 6 3 0.9
13 7 6 4 0.8
-13 -7 -6 4.6 0.9
13 -7 7 64.69 3.8
-13 7 -7 58.39 3.6
13 7 7 58.89 3.6
-13 -7 -7 63.49 3.6
13 -7 8 3.1 0.9
-13 7 -8 4.2 0.9
13 7 8 3.6 0.8
-13 -7 -8 4.1 0.8
13 -7 9 5.9 1.1
13 7 9 5.9 1
-13 7 -9 9 1.1
-13 -7 -9 7.8 1
13 7 10 9.7 1.2
-13 7 -10 11.7 1.3
-13 -7 -10 12.3 1.2
13 -7 10 11.5 1.4
13 7 11 13.7 1.4
-13 -7 -11 15.4 1.4
-13 7 -11 11.7 1.3
13 -7 11 13.9 1.5
13 7 12 2.1 0.7
13 -7 12 0.9 0.7
-13 7 -12 2.5 0.7
-13 -7 -12 1.5 0.6
-13 7 -13 12.1 1.3
13 -7 13 11.2 1.4
13 -7 14 2.4 0.8
-13 7 -14 2.9 0.7
-13 7 -15 2.6 0.7
13 -7 15 2.1 0.8
-13 7 -16 2.7 0.7
13 -7 16 3.4 0.8
-13 7 -17 12.2 1.3
13 -7 17 16.5 1.6
-13 7 -18 10.2 1.2
13 -7 18 11 1.3
-13 -9 32 3.3 0.8
13 9 -32 1.8 0.7
-13 -9 31 13.7 1.6
13 9 -31 18.1 1.6
13 9 -30 7.7 1.1
-13 -9 30 7.7 1.2
13 9 -29 9.3 1.3
-13 -9 29 11.6 1.4
13 9 -28 -0.1 0.6
-13 -9 28 0.1 0.8
13 9 -27 9.8 1.3
-13 -9 27 9.8 1.3
-13 -9 25 11 1.3
13 9 -25 9 1.2
-13 9 24 21 1.8
13 -9 -24 18.3 1.8
-13 -9 24 23.2 1.9
13 9 -24 17.2 1.7
-13 9 23 15.5 1.5
13 -9 -23 16 1.6
-13 -9 23 17.3 1.7
13 9 -23 18.3 1.6
-13 -9 22 6.4 1
13 -9 -22 5.1 0.9
-13 9 22 4.7 0.9
13 9 -22 5.1 0.9
-13 9 21 36.4 2.5
-13 -9 21 32.5 2.5
13 -9 -21 36.4 2.6
13 9 -21 38.8 2.6
-13 9 20 0.6 0.7
13 9 -20 0.3 0.7
13 -9 -20 -0.1 0.7
-13 -9 20 0.1 0.7
13 9 -19 5.1 1
-13 9 19 5.6 0.9
-13 -9 19 5 1
13 -9 -19 4.7 1
-13 9 18 6.5 1
13 -9 -18 7 1.1
13 9 -18 6.2 1
-13 -9 18 7 1
-13 9 17 9.2 1.1
13 -9 -17 10.1 1.2
13 -9 -16 2.3 0.7
-13 9 16 2.7 0.7
13 9 -15 27.5 2.1
-13 -9 15 30.2 2.2
13 -9 -15 27.9 2.2
-13 9 15 28.7 2.1
13 9 -14 25 2.1
-13 -9 14 30.4 2.2
-13 9 14 25.4 2.1
13 -9 -13 6.7 1.1
13 9 -13 8.2 1.1
-13 -9 13 4.7 0.9
-13 9 13 7.1 1.1
13 9 -12 22.9 1.9
-13 9 12 22.1 1.8
-13 -9 12 22.9 1.9
13 -9 -11 12.4 1.4
-13 9 11 14.5 1.5
-13 -9 11 15.8 1.5
13 9 -11 14.4 1.4
13 -9 -10 1.5 0.8
-13 9 10 0.1 0.7
-13 -9 10 0.8 0.7
13 9 -10 0.3 0.7
-13 9 9 3.4 0.8
13 -9 -9 3.8 0.8
13 9 -9 2 0.7
-13 -9 9 4 0.8
13 -9 -8 9 1.3
13 9 -8 8.6 1.2
-13 9 8 9.7 1.2
-13 -9 8 11.2 1.3
13 9 -7 4 0.9
13 -9 -7 2.9 0.8
-13 9 7 2.3 0.7
-13 9 6 36.5 2.6
13 9 -6 36 2.6
-13 -9 6 33.8 2.6
-13 9 5 1.1 0.6
13 9 -5 2.5 0.8
13 -9 -5 2.6 0.9
-13 -9 5 1.8 0.8
-13 9 4 5.1 0.9
13 -9 -4 7.2 1.1
13 9 -4 5.8 1
-13 -9 4 6.8 1.1
-13 -9 3 4.3 1
13 9 -3 5 1
13 -9 -3 5.6 1.1
-13 9 3 5.6 1
-13 9 2 2.3 0.7
-13 -9 2 2.1 0.9
13 9 -2 2.3 0.8
13 -9 -2 1.2 0.8
-13 9 1 8.9 1.2
13 -9 -1 8.5 1.3
13 9 -1 8.7 1.2
-13 -9 1 8.3 1.2
13 -9 0 1.6 0.7
13 9 0 1.4 0.8
-13 9 0 0.9 0.6
-13 -9 0 1.4 0.7
-13 9 -1 0.1 0.6
13 -9 1 1.6 0.8
13 9 1 1.4 0.8
-13 -9 -1 2.4 0.9
13 -9 2 22.4 2
-13 9 -2 17.5 1.6
13 9 2 21.4 1.8
13 -9 3 8.3 1.3
13 -9 4 24.3 2.1
13 -9 5 5.7 1.1
-13 9 -5 4.7 1
13 -9 6 5.3 1.1
-13 9 -6 3.7 0.9
13 9 6 3.5 0.9
-13 -9 -6 3.8 0.9
13 -9 7 2.3 0.8
-13 9 -7 1.9 0.7
13 9 7 1.5 0.7
-13 -9 -7 1.4 0.7
13 -9 8 3.5 0.8
13 9 8 3.6 0.8
-13 9 -8 2.9 0.7
13 -9 11 3.3 1
-13 9 -11 4.1 0.9
-13 9 -12 8.1 1.1
13 -9 12 9.5 1.2
-13 9 -13 3.3 0.8
13 -9 13 2.6 0.9
-13 9 -14 29.7 2.3
13 -9 14 36 2.5
-13 9 -15 1.4 0.6
13 -9 15 -0.2 0.7
-13 9 -16 0.5 0.7
13 -9 16 0.8 0.8
13 11 -21 4.8 0.9
-13 -11 21 6.7 1.1
13 -11 -20 1.1 0.8
-13 11 20 1.4 0.7
13 11 -20 0.4 0.6
-13 -11 20 0.7 0.6
13 -11 -19 1.6 0.8
13 11 -19 2.3 0.7
-13 11 19 1.6 0.7
-13 -11 19 1.2 0.7
-13 11 18 0.5 0.6
13 -11 -18 0.4 0.7
13 11 -18 0.1 0.6
-13 -11 18 -0.4 0.8
13 -11 -17 17.3 1.7
-13 11 17 17.9 1.6
13 11 -17 19.5 1.7
-13 -11 17 16.4 1.6
13 -11 -16 1.1 0.7
-13 11 16 0.9 0.7
13 -11 -15 23.7 2
-13 11 15 22.1 1.9
13 -11 -14 41.4 2.9
-13 11 14 43.1 2.7
13 11 -14 41.6 2.8
-13 -11 14 39.9 2.8
-13 11 13 11 1.3
13 -11 -13 8.7 1.3
13 11 -13 10.2 1.3
-13 -11 13 11.5 1.3
13 -11 -12 79.69 4.2
13 11 -12 68.59 4
-13 -11 12 78.29 4.1
13 11 -11 7.9 1
-13 -11 11 5.6 0.9
13 -11 -11 5.3 1
13 11 -10 0.9 0.7
13 -11 -10 1.3 0.8
13 -11 -9 2.4 0.8
13 11 -9 0.9 0.8
-13 -11 9 1 0.7
13 -11 -8 28.9 2.2
13 11 -8 27.8 2.1
-13 11 8 23.7 2
-13 -11 8 27.1 2.1
-13 11 7 8 1.1
13 -11 -7 9.8 1.3
13 11 -7 8.7 1.2
-13 -11 7 8.8 1.2
13 11 -6 22.5 2
-13 11 6 30.3 2.2
-13 -11 6 26 2.1
13 -11 -6 29.5 2.2
13 -11 -5 0.2 0.8
13 11 -5 -0.2 0.7
-13 11 5 0.6 0.7
-13 -11 5 -0.3 0.7
13 11 -4 15.9 1.6
-13 11 4 15.8 1.5
-13 -11 4 15.3 1.5
13 -11 -4 15.3 1.6
13 -11 -3 0.3 0.8
-13 11 3 0.9 0.7
13 -11 -2 10.9 1.4
-13 11 2 10.8 1.3
-13 11 1 2.8 0.7
13 -11 -1 3.6 0.9
13 -11 0 4.3 1.1
13 11 0 4.5 0.9
-13 -11 0 2 0.7
-13 11 0 4.4 0.9
13 -11 1 0.7 0.7
13 11 1 1.9 0.8
-13 11 -1 1.8 0.7
-13 -11 -1 1.2 0.7
13 11 2 25.6 2.1
-13 11 -2 27.1 2
-13 -11 -2 25.8 2.1
13 -11 2 27.5 2.2
13 -11 3 1.3 0.8
13 11 3 2.2 0.8
-13 11 -3 1.6 0.7
-13 11 -4 21.4 1.8
13 -11 5 0.9 0.8
-13 11 -5 1.7 0.7
-13 11 -7 10.4 1.2
13 -11 7 11.2 1.4
-13 11 -8 0.1 0.5
13 -11 8 0.8 0.7
-13 11 -9 3.4 0.8
13 -11 9 3 0.8
-13 11 -10 6 0.9
13 -11 10 8 1.2
-13 11 -11 1.1 0.6
13 -11 11 0.5 0.7
-13 11 -12 7.6 1
13 -11 12 6.6 1.1
-13 11 -13 0.4 0.6
13 -11 13 1.1 0.8
-14 0 35 0.5 0.5
14 0 -35 0.1 0.5
-14 0 34 283.77 14.2
14 0 -34 317.57 14.4
-14 0 33 0.4 0.5
14 0 -33 -0.5 0.6
-14 0 32 459.95 20.9
14 0 -32 433.06 20.9
-14 0 31 -0.3 0.5
14 0 -31 0.5 0.6
-14 0 30 292.07 14.6
14 0 -30 327.07 14.7
14 0 -29 0.1 0.5
-14 0 29 -0.2 0.5
-14 0 28 62.79 3.8
14 0 -28 68.39 3.9
14 0 -27 0.2 0.5
-14 0 27 -0.2 0.5
-14 0 26 555.74 25.8
14 0 -26 561.84 25.8
14 0 -25 0.4 0.6
-14 0 25 -0.5 0.5
-14 0 24 1649.13 74.99
14 0 -24 1674.43 74.99
14 0 -23 -0.1 0.5
-14 0 23 0.4 0.5
-14 0 22 1259.27 56.19
14 0 -22 1221.48 56.19
14 0 -19 0.3 0.5
-14 0 19 0.1 0.4
14 0 -18 444.16 20.1
-14 0 18 424.56 20.1
14 0 -17 0.2 0.5
-14 0 17 -0.2 0.5
14 0 -16 1241.38 55.79
-14 0 16 1225.58 55.79
14 0 -15 -0.2 0.5
-14 0 15 -0.1 0.5
14 0 -14 1822.02 82.09
-14 0 14 1823.82 82.09
14 0 -13 -0.2 0.5
-14 0 13 0.2 0.5
14 0 -12 1833.42 82.69
-14 0 12 1840.42 82.69
14 0 -11 -0.1 0.5
-14 0 11 0.3 0.5
14 0 -10 112.19 6.3
-14 0 10 135.09 6.2
14 0 -9 0.1 0.6
-14 0 9 0.2 0.5
-14 0 8 1716.63 71.69
14 0 -8 1473.85 71.59
14 0 -7 -0.1 0.6
-14 0 7 -0.1 0.5
-14 0 6 8233.78 351.56
14 0 -6 7475.65 351.56
14 0 -5 0.5 0.5
-14 0 5 0.4 0.5
-14 0 4 4470.55 200.18
14 0 -4 4472.65 200.28
14 0 -3 0.3 0.5
-14 0 3 0.4 0.4
14 0 -2 280.57 13.2
-14 0 2 283.67 13.2
-14 0 1 0.3 0.4
14 0 -1 0.1 0.5
-14 0 0 2749.43 124.69
14 0 0 2819.52 124.79
-14 0 -1 0.5 0.4
14 0 1 1.5 0.5
-14 0 -2 1772.02 77.99
14 0 2 1695.43 78.09
-14 0 -3 0.1 0.3
14 0 3 0.1 0.4
-14 0 -4 3317.47 151.48
14 0 4 3456.55 151.48
-14 0 -5 0.6 0.3
14 0 5 0.2 0.3
14 0 8 407.06 18
-14 0 -8 384.36 18
-14 0 -9 0.1 0.2
14 0 9 0.1 0.3
14 0 10 1738.33 77.19
-14 0 -10 1705.33 77.09
14 0 11 0.1 0.2
-14 0 -11 0.2 0.2
-14 0 -12 329.27 15.2
14 0 12 344.17 15.3
14 0 13 0 0.1
14 2 -36 72.99 4.1
-14 -2 36 63.39 3.9
-14 -2 35 1.5 0.7
14 2 -35 1.1 0.6
-14 2 34 232.28 11.3
14 2 -34 232.48 11.3
-14 -2 34 249.08 11.4
14 -2 -34 215.38 11.3
-14 2 33 53.09 3.3
14 -2 -33 57.99 3.4
-14 2 32 130.89 6.8
14 2 -32 117.49 6.8
14 -2 -32 136.19 6.9
14 2 -31 2 0.7
-14 2 31 0.8 0.5
-14 -2 31 1.8 0.7
14 -2 -31 2.6 0.7
-14 2 30 230.88 11.6
14 2 -30 240.08 11.7
14 -2 -30 230.38 11.7
-14 -2 30 260.87 11.8
14 2 -29 34.4 2.4
-14 -2 29 36.2 2.4
-14 2 29 34.2 2.3
14 -2 -29 32.4 2.3
-14 2 28 30.7 2.5
14 2 -28 52.09 2.9
-14 -2 28 37 2.6
14 -2 -28 44.4 2.8
-14 2 27 0.2 0.5
14 2 -27 0.4 0.6
14 -2 -27 0.5 0.6
-14 -2 27 0.5 0.6
14 2 -26 384.16 17.6
-14 2 26 354.06 17.4
-14 -2 26 402.26 17.7
14 -2 -26 358.16 17.6
-14 2 25 56.19 3.2
14 2 -25 52.19 3.3
-14 -2 25 56.79 3.3
14 -2 -25 56.39 3.4
14 2 -24 1502.95 68.69
-14 2 24 1446.46 68.59
14 -2 -24 1437.06 68.69
-14 -2 23 9.6 1.1
-14 2 23 7 1
14 -2 -23 10.1 1.1
14 -2 -22 148.69 7.1
-14 2 22 125.49 6.8
-14 -2 22 142.69 7
-14 -2 21 210.48 10.8
14 2 -21 240.68 10.9
14 -2 -21 240.08 10.9
-14 2 21 212.58 10.7
-14 -2 20 72.29 4.4
-14 2 20 68.39 4.3
-14 -2 19 240.48 11.4
14 2 -19 232.18 11.4
14 2 -18 525.95 24.7
-14 -2 18 544.35 24.7
-14 -2 17 10.6 1.1
14 2 -17 9.4 1.1
-14 2 16 2057.39 85.99
14 -2 -16 1761.32 85.99
-14 2 15 8.3 0.9
14 -2 -15 6.5 1
-14 2 14 2066.49 91.39
14 2 -14 2075.69 91.49
-14 -2 14 2058.79 91.49
14 -2 -14 1915.51 91.49
-14 2 13 81.29 4.5
-14 -2 13 97.49 4.6
14 2 -13 92.49 4.6
14 -2 -13 76.99 4.6
-14 2 12 1420.96 62.99
14 2 -12 1371.26 62.99
-14 -2 12 1373.56 62.99
14 -2 -12 1412.26 63.09
-14 -2 11 805.52 36.2
-14 2 11 772.62 36.1
14 2 -11 751.72 36.2
14 -2 -11 867.71 36.3
14 -2 -10 449.56 19.4
-14 2 10 417.46 19.3
14 2 -10 378.16 19.2
-14 -2 10 434.96 19.4
14 2 -9 340.37 16.4
-14 -2 9 345.27 16.4
-14 2 9 328.27 16.3
-14 2 8 614.04 26.6
14 2 -8 535.35 26.5
14 -2 -8 586.54 26.6
-14 -2 8 586.74 26.5
-14 2 7 3.4 0.6
14 2 -7 2.8 0.6
14 -2 -7 2 0.6
-14 -2 7 2.4 0.5
-14 2 6 2340.47 99.49
14 2 -6 2308.27 99.49
-14 -2 6 2112.49 99.39
14 -2 -6 2091.59 99.49
-14 -2 5 213.48 10.2
-14 2 5 238.28 10.3
14 2 -5 205.38 10.2
14 -2 -5 203.88 10.3
14 -2 -4 994.4 45.5
-14 2 4 1028.2 45.4
14 2 -4 955.7 45.4
-14 -2 4 1026.5 45.3
14 2 -3 62.59 3.2
14 -2 -3 60.39 3.3
-14 2 3 56.89 3.1
-14 2 2 49.7 2.8
14 2 -2 51.49 2.8
14 -2 -2 49.6 2.9
-14 -2 2 48.7 2.8
-14 -2 1 8.5 0.9
-14 2 1 8.3 0.9
14 2 -1 7.6 0.9
14 -2 -1 8.2 0.9
-14 2 0 1053.79 44.8
14 2 0 977.3 44.7
14 -2 0 932.51 44.8
14 2 1 30.3 1.9
14 -2 1 29.2 2
-14 -2 -1 33 1.9
-14 2 -1 36.8 2
14 2 2 1591.34 71.79
14 -2 2 1601.14 71.89
-14 -2 -2 1547.15 71.69
-14 2 -2 1651.03 71.79
-14 2 -3 36.8 2.1
14 2 3 36.6 2.1
14 -2 3 33.8 2.2
-14 -2 -3 35.8 2.1
14 -2 4 1273.87 59.69
14 2 4 1238.38 59.49
-14 -2 -4 1425.36 59.49
-14 2 -4 1346.67 59.59
14 -2 5 69.89 3.6
14 2 5 66.99 3.5
-14 -2 -5 63.49 3.4
-14 2 -5 66.09 3.5
-14 2 -6 473.55 20.6
14 -2 6 435.96 20.7
-14 -2 -6 451.75 20.5
14 2 6 435.26 20.5
14 -2 7 233.38 11.1
-14 2 -7 236.08 11.1
-14 -2 -8 47.3 2.4
-14 2 -8 50.39 2.6
14 2 8 44.9 2.4
14 2 9 3.2 0.5
14 -2 9 4.1 0.7
-14 -2 -9 4.1 0.5
-14 2 -9 4 0.6
-14 2 -10 484.55 21.1
14 2 10 441.06 20.9
14 -2 10 498.65 21.2
-14 -2 -10 450.65 20.8
14 -2 11 21.6 1.5
-14 2 -11 21.5 1.4
-14 -2 -11 19.6 1.1
14 2 11 20.1 1.2
-14 2 -12 559.04 18.8
14 -2 12 623.34 18.9
14 -2 13 4.3 0.6
-14 2 -13 4.7 0.6
14 -2 14 1374.76 61.99
14 -2 15 4.6 0.6
-14 2 -15 3.2 0.5
-14 2 -16 63.79 3.3
14 -2 16 64.79 3.4
-14 2 -17 89.09 4.5
14 -2 17 93.29 4.6
-14 2 -18 95.39 4.7
14 -2 18 97.09 4.8
-14 -4 36 16.2 1.5
14 4 -36 7 1.1
14 4 -35 4.7 0.9
-14 -4 35 5.9 1
14 4 -34 40 2.8
-14 -4 34 45 2.9
-14 4 33 20.8 1.8
-14 -4 33 24.3 1.9
14 4 -33 24.1 1.9
14 -4 -32 81.59 4.5
14 4 -32 80.39 4.5
-14 -4 32 72.09 4.4
-14 4 32 80.89 4.5
14 -4 -31 116.69 6.5
14 4 -31 122.99 6.5
-14 4 31 124.19 6.4
-14 -4 31 126.89 6.5
14 4 -30 32.6 2.2
-14 -4 30 27.3 2.1
14 -4 -30 28.6 2.1
14 -4 -29 94.29 5
-14 4 29 85.69 4.9
-14 -4 29 93.19 5
14 4 -29 90.99 5
14 -4 -28 17.6 1.6
-14 4 28 17.2 1.5
14 4 -28 17.3 1.6
-14 -4 28 15 1.6
14 -4 -27 1.4 0.6
-14 4 27 -0.1 0.5
14 4 -27 0.3 0.6
-14 -4 27 0.8 0.8
-14 4 26 207.88 9.8
14 -4 -26 185.98 9.8
14 4 -26 207.58 9.9
-14 -4 26 196.58 9.9
-14 4 25 21.8 1.7
14 -4 -25 16.7 1.6
14 -4 -24 210.08 10.5
-14 4 24 217.48 10.4
14 -4 -23 328.77 16.4
-14 4 23 362.86 16.4
-14 4 22 411.56 19.3
-14 -4 22 421.16 19.4
14 -4 -22 425.36 19.4
14 4 -22 391.66 19.3
-14 4 21 8.1 1
14 -4 -21 6.4 1
-14 -4 21 6.7 1
14 4 -21 6.6 0.9
14 -4 -20 4.3 0.9
-14 -4 20 3.4 0.8
-14 4 20 4.4 0.8
14 4 -20 4.6 0.8
-14 -4 19 159.48 7.8
14 -4 -19 169.58 7.9
14 4 -19 146.09 7.8
-14 4 19 148.99 7.7
-14 4 18 252.47 11.7
14 -4 -18 256.47 11.8
14 4 -18 236.48 11.7
-14 -4 18 224.08 11.7
-14 4 17 1 0.6
14 -4 -17 1 0.6
-14 -4 17 1.2 0.7
14 4 -17 1.7 0.7
-14 4 16 397.16 18.5
14 -4 -16 405.36 18.6
-14 -4 16 421.36 18.6
14 4 -16 361.26 18.5
-14 4 15 11.5 1.2
14 -4 -15 11.3 1.2
-14 -4 15 13.4 1.3
14 4 -15 13.8 1.3
-14 4 14 221.58 11
14 -4 -14 235.98 11.1
-14 -4 14 221.48 11.1
14 4 -14 237.68 11.1
14 -4 -13 59.49 3.6
-14 4 13 52.19 3.4
14 4 -13 61.59 3.5
-14 4 12 105.39 5.3
14 -4 -12 91.29 5.4
-14 -4 12 99.79 5.4
14 4 -12 105.29 5.4
-14 4 11 170.78 9
14 -4 -11 189.58 9.1
-14 -4 11 193.48 9.1
14 4 -11 185.78 9.1
-14 4 10 44.2 2.8
14 -4 -10 49.7 3
-14 -4 10 52.89 3
14 4 -10 46.3 2.9
14 4 -9 5.4 0.8
-14 4 9 5.2 0.8
14 -4 -9 5.3 0.9
-14 -4 9 4 0.8
-14 4 8 618.44 26.3
14 -4 -8 521.25 26.3
-14 -4 8 569.44 26.3
14 4 -8 571.24 26.3
-14 4 7 42.6 2.5
14 -4 -7 39.8 2.6
-14 -4 7 38.2 2.5
14 4 -7 36.9 2.5
14 -4 -6 562.64 26.6
-14 4 6 587.14 26.5
14 -4 -5 227.08 12.3
-14 4 5 292.47 12.4
-14 4 4 388.26 17.4
14 -4 -4 352.36 17.4
-14 -4 3 161.88 8
14 -4 -3 156.38 8.1
-14 4 3 161.18 8
14 4 -3 168.38 8
14 -4 -2 131.39 6.7
-14 4 2 136.39 6.6
-14 -4 2 127.29 6.6
14 4 -2 127.69 6.6
-14 4 1 149.69 7
14 -4 -1 144.49 7.1
-14 -4 1 142.29 7
14 4 -1 123.49 6.9
-14 4 0 7.2 1
14 -4 0 4.8 1
-14 -4 0 6.9 0.9
14 4 0 8.5 1
14 -4 1 203.08 10.9
-14 4 -1 226.38 10.9
-14 -4 -1 231.08 10.8
14 4 1 244.88 10.9
-14 4 -2 238.98 11.4
-14 -4 -2 245.48 11.3
14 -4 2 235.98 11.6
14 4 2 229.88 11.3
14 -4 3 8.5 1.1
-14 -4 -3 10.2 1
14 4 3 10.9 1
14 -4 4 567.74 25.3
-14 -4 -4 568.24 25
14 4 4 518.85 25
-14 4 -4 529.65 25.1
-14 -4 -5 349.27 16.4
-14 4 -5 353.86 16.5
14 4 5 361.46 16.4
14 -4 5 343.47 16.6
-14 4 -6 266.57 12.5
-14 -4 -6 259.97 12.4
14 4 6 267.87 12.4
14 -4 6 254.07 12.6
14 -4 7 219.98 11.3
-14 -4 -7 246.38 11.1
14 4 7 232.98 11.1
-14 4 -7 230.68 11.2
-14 4 -8 10.6 1.1
-14 -4 -8 13 1.1
14 4 8 13.7 1.1
14 -4 8 12 1.3
-14 4 -9 83.89 4.7
14 4 9 92.19 4.6
-14 -4 -9 93.79 4.6
14 -4 9 92.49 4.9
-14 4 -10 119.69 5.8
14 -4 10 106.19 5.8
-14 -4 -10 111.69 5.6
14 4 10 110.39 5.6
-14 4 -11 2.6 0.7
14 -4 11 2.5 0.8
14 4 11 2.7 0.5
-14 -4 -11 3.4 0.5
14 -4 12 551.24 24.3
-14 4 -12 510.25 24.1
14 4 12 530.45 23.9
-14 -4 -12 510.65 23.8
14 -4 13 2.6 0.7
14 4 13 1.3 0.4
-14 -4 -13 1.7 0.4
-14 4 -14 115.89 5.5
-14 -4 -14 99.09 5
14 4 14 99.89 5.1
14 -4 14 122.09 5.7
14 4 15 79.29 3.9
-14 4 -15 96.29 4.5
-14 -4 -15 74.99 3.9
14 -4 15 107.99 4.8
14 -4 16 20.8 1.6
-14 4 -16 17.3 1.5
-14 4 -17 25.9 1.9
14 -4 17 28.9 2
-14 4 -18 49 3
14 -4 18 53.59 3.1
14 6 -35 12.8 1.4
-14 -6 35 14.4 1.5
14 6 -34 46.5 3
-14 -6 34 41.7 2.9
-14 -6 33 124.79 7
14 6 -33 141.09 7
14 6 -32 25.1 2.1
-14 -6 32 29.8 2.2
14 6 -31 69.99 3.8
-14 -6 31 52.69 3.6
14 -6 -30 4.3 1
-14 6 30 3.1 0.9
-14 -6 30 4.4 1
14 6 -30 2 0.8
14 -6 -29 41.5 2.8
-14 6 29 39.9 2.7
-14 -6 29 37.8 2.7
14 6 -29 39.3 2.7
-14 6 28 1.9 0.7
14 -6 -28 2.3 0.8
-14 -6 28 1.2 0.8
14 6 -28 1.5 0.8
14 -6 -27 0.8 0.6
-14 6 27 0.2 0.6
14 -6 -26 3 0.9
-14 -6 26 5 1
14 6 -26 4.5 0.9
-14 6 26 3.4 0.8
-14 6 25 109.89 6.1
14 -6 -25 109.39 6.2
-14 -6 25 127.09 6.3
14 6 -25 116.79 6.2
14 -6 -24 15.1 1.6
-14 -6 24 14.8 1.5
14 6 -24 14.6 1.5
-14 6 24 14.2 1.4
14 -6 -23 195.28 9.8
-14 6 23 189.38 9.6
-14 -6 23 201.18 9.8
-14 6 22 49 3
14 -6 -22 51.09 3.1
-14 -6 22 39.5 2.9
14 6 -22 44.6 3
14 -6 -21 176.68 8.6
-14 -6 21 159.78 8.5
-14 6 21 172.58 8.5
14 6 -21 165.18 8.5
14 -6 -20 35.9 2.5
-14 6 20 35.5 2.4
-14 -6 20 32.4 2.4
14 6 -20 35.2 2.5
-14 6 19 27.5 2.1
14 -6 -19 31.9 2.3
-14 -6 19 23.9 2
14 6 -19 29.2 2.1
14 -6 -18 7.9 1.1
-14 6 18 9.7 1.1
-14 -6 18 8 1.1
14 6 -18 11 1.2
14 -6 -17 52.59 3.6
-14 -6 17 58.59 3.6
-14 6 17 62.89 3.6
14 6 -17 63.89 3.6
14 6 -16 4.9 1
-14 -6 16 5.2 1
-14 -6 15 102.19 5.6
14 6 -15 108.49 5.7
-14 -6 14 47.3 3
14 6 -14 44.6 2.9
14 6 -13 35.8 2.5
-14 -6 13 34.7 2.5
14 6 -10 60.29 3.6
-14 -6 10 59.99 3.6
14 -6 -10 61.49 3.8
-14 6 10 64.79 3.6
-14 6 9 33.3 2.3
14 -6 -9 37.2 2.6
-14 -6 9 36.4 2.5
14 6 -9 32.3 2.4
-14 6 8 177.58 9.1
14 6 -8 193.58 9.1
14 -6 -8 168.98 9.2
-14 -6 8 193.08 9.2
14 -6 -7 16.8 1.6
14 6 -7 13.7 1.4
-14 6 7 14.8 1.4
-14 -6 7 12.4 1.3
14 -6 -6 162.98 8.6
14 6 -6 172.38 8.5
-14 -6 6 155.78 8.5
-14 6 5 41.4 2.7
14 -6 -5 39.1 2.7
-14 -6 5 41.7 2.7
14 6 -5 44.7 2.7
-14 6 4 8.7 1.1
14 -6 -4 9 1.3
14 6 -4 10 1.2
-14 6 3 7.7 1
14 -6 -3 7.4 1.1
14 6 -3 6.9 1
-14 -6 3 8.9 1.1
14 -6 -2 2.6 0.9
-14 6 2 0.9 0.6
14 6 -2 1.9 0.7
-14 -6 2 2 0.7
-14 6 1 78.79 4.5
14 -6 -1 81.79 4.6
14 6 -1 85.79 4.5
-14 -6 1 79.89 4.5
-14 6 0 50.79 3
14 6 0 49.8 3
14 -6 0 41.8 3
-14 -6 0 50.59 3
-14 6 -1 12.7 1.3
14 6 1 13.6 1.3
-14 -6 -1 12.4 1.3
14 -6 1 14.1 1.4
14 6 2 29.2 2.1
-14 -6 -2 27.6 2
-14 -6 -3 70.89 4.1
14 6 3 74.09 4.1
14 6 4 243.48 11.9
-14 -6 -4 251.97 12
14 6 5 102.19 5.5
-14 -6 -5 104.89 5.5
14 6 6 18 1.5
-14 -6 -6 15.3 1.4
-14 -6 -7 46.5 2.9
14 6 7 49.9 3
14 6 8 2.2 0.7
-14 -6 -8 5.2 0.9
14 -6 9 32.1 2.4
-14 6 -9 30.6 2.2
-14 -6 -9 32.1 2.2
14 6 9 32.5 2.2
14 -6 10 43.6 3
-14 6 -10 44.5 2.9
-14 -6 -10 45.3 2.8
14 6 10 49.99 2.9
14 -6 11 34.5 2.5
-14 -6 -11 31.9 2.2
14 6 11 34.4 2.3
-14 6 -12 36.3 2.4
14 -6 12 33.8 2.6
14 6 13 1.5 0.6
14 -6 13 1.4 0.8
-14 6 -13 1.7 0.6
-14 6 -14 17.7 1.7
14 -6 14 22 1.8
14 -6 15 9.2 1.2
-14 6 -15 8.5 1.1
-14 6 -16 15.9 1.5
14 -6 16 17.6 1.7
-14 6 -17 96.89 5.4
14 -6 17 106.29 5.6
14 -6 18 10 1.2
-14 -8 33 56.29 3.4
14 8 -33 51.39 3.3
-14 -8 31 9.9 1.3
14 8 -31 9.3 1.2
-14 -8 30 1.9 0.8
14 8 -30 1.1 0.7
-14 -8 29 6 1.1
14 8 -29 7.4 1.1
-14 -8 28 12.1 1.4
14 8 -28 12.7 1.4
14 8 -27 0.4 0.7
-14 8 27 1.8 0.7
14 -8 -27 1 0.7
-14 -8 27 0.1 0.7
14 8 -26 3.3 0.9
-14 8 26 4.6 0.9
14 -8 -26 4.7 0.9
-14 -8 26 5.5 1.1
-14 -8 25 21.4 1.8
-14 8 25 16.1 1.6
14 -8 -25 15.8 1.6
14 8 -25 19.1 1.8
14 -8 -24 -0.1 0.7
-14 8 24 1.5 0.7
14 -8 -23 72.99 4.2
-14 8 23 62.39 4
-14 -8 23 75.99 4.2
14 8 -23 69.99 4.1
14 -8 -22 3.9 0.9
-14 -8 22 2.6 0.9
-14 8 22 4.8 0.9
14 8 -22 2.5 0.8
-14 8 21 37.9 2.6
-14 -8 21 36.9 2.6
14 -8 -21 43.4 2.8
14 8 -21 37.4 2.6
-14 -8 20 2.2 0.8
14 8 -20 1.7 0.7
14 -8 -20 2.7 0.8
-14 8 20 2.1 0.8
-14 8 19 0.9 0.7
14 -8 -19 1.5 0.8
14 8 -19 0.5 0.7
-14 -8 19 1.1 0.8
14 8 -18 3.9 0.9
14 -8 -18 4.3 1
-14 -8 18 3.6 1
-14 8 18 4.3 0.9
14 8 -17 16.1 1.5
-14 -8 17 13.4 1.4
-14 8 17 14.3 1.5
14 -8 -17 13.9 1.5
14 8 -16 31.6 2.3
-14 -8 16 34.6 2.5
14 8 -15 66.39 4
-14 -8 15 68.89 4.1
14 8 -14 21.4 1.7
-14 -8 14 15.1 1.6
14 8 -13 85.69 5
-14 -8 13 99.39 5.2
14 8 -10 4.6 1
-14 -8 10 6.8 1.1
14 8 -9 12.7 1.4
-14 -8 9 11.9 1.3
14 8 -8 32.8 2.4
-14 -8 8 33.2 2.4
14 8 -7 0.1 0.7
-14 -8 7 -0.1 0.6
-14 -8 6 10.7 1.3
14 8 -5 4.1 0.9
-14 -8 5 2.7 0.8
-14 -8 4 2.8 0.8
14 8 -4 3.5 0.9
14 8 -3 61.39 3.7
-14 -8 3 59.89 3.7
14 8 -2 5.9 1
-14 -8 2 5.8 1.1
14 8 -1 23.7 2
-14 -8 1 24.1 2
14 8 0 58.49 3.6
-14 -8 0 58.49 3.6
14 8 1 2.3 0.8
-14 -8 -1 1.8 0.8
14 8 2 3.2 0.8
-14 -8 -2 4.4 0.9
-14 8 -3 3.7 0.8
14 -8 3 2.7 0.9
14 8 3 2 0.8
-14 -8 -3 1.9 0.8
-14 8 -4 13 1.3
14 -8 4 10.8 1.4
14 8 4 12 1.3
-14 -8 -4 11.1 1.3
14 -8 5 45.5 3.3
-14 8 -5 54.49 3.3
14 8 5 53.99 3.3
-14 -8 -5 48.3 3.2
14 8 6 0.8 0.7
-14 8 -6 0.7 0.7
14 -8 6 0.7 0.8
-14 -8 -6 0.2 0.6
14 -8 7 12.4 1.4
14 8 7 9.5 1.2
-14 -8 -7 12.1 1.3
-14 8 -8 1.8 0.8
14 8 8 1.5 0.7
14 -8 8 2.3 0.8
-14 -8 -8 0.9 0.6
14 -8 9 0.1 0.7
14 8 9 1 0.7
-14 8 -9 0.6 0.6
-14 -8 -9 1.8 0.7
-14 8 -10 6.7 1
14 -8 10 7 1.1
14 -8 11 0.1 0.7
-14 8 -11 0.6 0.6
14 -8 12 0.9 0.7
-14 8 -12 0.4 0.5
14 -8 13 13.7 1.5
-14 8 -13 10.5 1.3
-14 8 -14 1 0.6
14 -8 14 0.5 0.7
-14 8 -15 1.1 0.7
14 -8 15 1.9 0.9
-14 8 -16 -0.1 0.6
14 -8 16 0.6 0.7
-14 -10 28 1 0.6
14 10 -28 1.9 0.7
14 10 -27 0.5 0.5
-14 -10 27 1.3 0.7
-14 -10 26 9 1.2
14 10 -26 9.8 1.2
-14 -10 25 9 1.3
14 10 -25 13.2 1.4
-14 10 23 4.2 0.8
14 -10 -23 5.4 1
-14 -10 23 4.7 1
14 -10 -22 7.6 1.1
-14 10 22 5.4 0.9
14 10 -22 7.4 1
-14 -10 22 5.6 1
-14 10 21 2.7 0.8
14 -10 -21 3.2 0.9
14 10 -21 2.1 0.8
-14 -10 21 2.8 0.9
-14 10 20 7 1.1
14 10 -20 5.2 1
14 -10 -20 8.3 1.2
-14 -10 20 7.9 1.2
-14 10 19 0.6 0.7
14 -10 -19 -0.2 0.7
14 10 -19 0.6 0.7
-14 -10 19 0.3 0.7
14 10 -18 13.6 1.4
-14 10 18 11.3 1.3
14 -10 -18 11.7 1.4
-14 -10 18 10.8 1.3
-14 10 17 4.2 0.9
14 -10 -17 7.1 1.1
-14 10 16 15.8 1.5
14 -10 -16 18.2 1.7
-14 -10 16 19.1 1.7
14 10 -16 14.2 1.5
-14 10 15 20.9 1.7
14 -10 -15 18.6 1.8
14 10 -15 18.7 1.7
-14 -10 15 16.5 1.7
-14 10 14 63.79 3.7
14 -10 -14 59.69 3.8
14 10 -14 57.49 3.7
-14 -10 14 68.69 3.9
-14 10 13 5.9 1.1
14 10 -13 6.2 1.1
14 -10 -13 9.2 1.3
-14 -10 13 7.3 1.2
-14 10 12 16.9 1.6
14 -10 -12 16.5 1.6
14 10 -12 15.6 1.5
-14 -10 12 14.1 1.5
14 10 -11 2.7 0.9
14 -10 -11 1.7 0.7
-14 10 11 2.1 0.7
-14 -10 11 1.3 0.8
14 -10 -10 22.2 1.9
-14 10 10 21.1 1.8
14 10 -10 20.4 1.8
-14 -10 10 23.7 1.9
14 -10 -9 24.4 2.1
-14 10 9 23.9 2
14 -10 -8 32.9 2.5
14 10 -8 38.5 2.5
-14 10 8 31.7 2.4
-14 -10 8 34.7 2.5
14 10 -7 3.1 0.9
-14 10 7 5.1 0.9
14 -10 -7 4.5 1
-14 -10 7 5.3 1
14 -10 -6 11.5 1.4
-14 10 6 11.8 1.3
14 10 -6 10.3 1.3
-14 -10 6 10.4 1.3
14 -10 -5 9.6 1.3
-14 10 5 7.4 1.1
14 10 -5 8.3 1.1
-14 -10 5 10.4 1.2
-14 10 4 3.9 0.9
14 -10 -4 5.3 1.1
14 10 -4 4.6 0.9
-14 -10 4 3.3 0.8
14 10 -3 2.1 0.8
-14 10 3 2.9 0.7
14 -10 -3 2.2 0.8
-14 -10 3 1.6 0.8
-14 10 2 7.1 1
14 -10 -2 9.4 1.3
14 -10 -1 1.3 0.9
14 -10 0 19 1.8
-14 10 0 20.1 1.7
-14 10 -1 1.1 0.6
14 10 1 1 0.7
14 -10 1 0.8 0.7
-14 -10 -1 1.2 0.6
14 10 2 75.59 4.1
-14 10 -2 60.09 3.9
-14 -10 -2 66.09 4
14 -10 2 67.99 4.1
14 -10 3 -0.9 0.9
-14 10 -3 -0.6 0.8
14 10 3 0.1 0.7
-14 -10 -3 -0.2 0.7
14 10 4 18.4 1.8
-14 10 -4 24.9 1.9
-14 -10 -4 23.3 2
14 -10 4 25.9 2.1
14 -10 5 2.2 0.9
-14 10 -5 2 0.8
14 -10 6 1.7 0.9
-14 10 -6 2.4 0.8
14 -10 9 2.4 0.9
-14 10 -9 1.4 0.7
14 -10 10 9.7 1.3
-14 10 -10 7.4 1.1
-14 10 -11 12 1.3
14 -10 11 12.2 1.4
14 -10 12 23.2 2
-14 10 -13 0.5 0.7
14 -10 13 -0.2 0.7
-14 10 -14 22.8 1.9
14 -10 14 23.2 2
14 12 -8 13.8 1.5
-14 -12 8 15.2 1.5
14 12 -7 3.2 0.8
-14 -12 7 1.9 0.8
14 12 -6 39.6 2.6
-14 -12 6 36.1 2.6
14 12 -5 3.4 0.8
-14 -12 5 4.8 0.9
14 12 -4 26.2 2.1
-14 -12 4 30.9 2.2
14 12 -3 1.3 0.7
-14 -12 3 2.4 0.7
14 12 -2 3 0.8
-14 -12 2 3.6 0.8
-15 -1 36 191.78 9
15 1 -36 166.78 9
-15 1 35 9.1 1.1
15 -1 -35 8.4 1.2
15 -1 -34 326.07 15.3
-15 1 34 315.47 15.2
-15 1 33 5.2 0.9
-15 -1 33 4.2 0.9
15 1 -33 3.7 0.8
15 -1 -33 3.1 0.8
15 1 -32 63.79 3.6
15 -1 -32 56.39 3.6
-15 1 32 55.29 3.5
-15 -1 32 65.59 3.6
15 1 -31 0.3 0.6
-15 1 31 0.5 0.6
-15 -1 31 0.3 0.6
15 -1 -31 1.1 0.7
15 1 -30 10.8 1.2
-15 1 30 8.1 1.1
-15 -1 30 10.6 1.2
15 -1 -30 11 1.2
15 1 -29 7 1
-15 1 29 7.1 1
-15 -1 29 7.3 1
15 -1 -29 8 1
15 1 -28 139.09 7.1
-15 -1 28 143.09 7.1
-15 1 28 140.49 7.1
15 -1 -28 137.79 7.1
-15 1 27 7.2 1
-15 -1 27 9.5 1.2
15 1 -27 9.4 1.1
15 -1 -27 8.2 1.1
-15 -1 26 620.14 29.2
15 -1 -26 610.44 29.2
-15 1 26 642.84 29.2
15 1 -26 666.23 29.3
15 1 -25 16 1.5
-15 1 25 18.3 1.5
-15 -1 25 19.1 1.5
15 -1 -25 14.9 1.4
-15 1 24 926.91 44
15 1 -24 931.01 44.1
-15 -1 24 1047.3 44.2
15 -1 -24 980.5 44.2
15 1 -23 5.2 0.9
-15 1 23 7.6 0.9
-15 -1 23 5.3 0.9
15 -1 -23 5.7 0.9
-15 1 22 119.29 6.3
15 1 -22 114.39 6.4
-15 -1 22 130.69 6.5
-15 1 21 45.1 2.6
-15 -1 21 41.2 2.6
15 -1 -21 42.9 2.6
-15 1 20 109.99 5.4
-15 -1 20 120.69 5.5
15 -1 -20 107.69 5.5
-15 -1 19 54.79 3.1
15 1 -19 48.6 3.1
-15 1 17 1.6 0.6
15 -1 -17 2.4 0.6
15 1 -16 1776.32 90.99
-15 1 16 2346.17 91.09
-15 -1 16 1891.11 90.99
15 -1 -16 2140.59 91.09
15 1 -15 10 1.1
-15 1 15 10.6 1.1
-15 -1 15 7.9 1
15 -1 -15 7.9 1
-15 1 14 1028.4 49.5
15 1 -14 1179.58 49.7
-15 -1 14 1085.49 49.6
15 -1 -14 1104.39 49.7
15 1 -13 186.68 9.1
-15 1 13 206.08 9.1
-15 -1 13 181.68 9.1
15 -1 -13 177.08 9.2
15 1 -12 4 0.7
-15 1 12 5 0.8
-15 -1 12 5.1 0.7
15 -1 -12 4.9 0.8
15 1 -11 7.1 0.9
-15 -1 11 5.6 0.8
-15 1 11 6.7 0.8
15 -1 -11 8.1 0.9
-15 1 10 181.08 9.6
-15 -1 10 200.78 9.6
15 -1 -10 211.08 9.7
15 1 -10 218.68 9.7
-15 -1 9 138.99 7.5
15 1 -9 149.69 7.5
15 -1 -9 150.78 7.5
15 1 -8 1197.68 53.59
-15 1 8 1085.99 53.49
-15 -1 8 1201.28 53.49
15 -1 -8 1281.47 53.69
-15 1 7 43.9 2.7
15 1 -7 46 2.7
-15 -1 7 46.7 2.7
15 -1 -7 53.29 2.8
-15 -1 6 2574.14 127.19
15 1 -6 2657.33 127.19
-15 1 6 3140.09 127.29
15 -1 -6 3026 127.39
-15 1 5 268.67 12.7
-15 -1 5 281.87 12.8
15 -1 -5 268.27 12.9
15 1 -5 269.67 12.8
-15 1 4 346.27 15.7
-15 -1 4 324.57 15.6
15 1 -4 336.67 15.7
15 -1 -4 345.87 15.8
-15 1 3 4.4 0.7
-15 -1 3 4.2 0.7
15 -1 -3 3.6 0.8
15 1 -3 6 0.8
-15 1 2 836.42 37
-15 -1 2 858.81 37
15 -1 -2 754.92 37.1
15 1 -2 811.92 37
-15 1 1 59.69 3.1
15 1 -1 57.49 3.1
-15 -1 1 55.79 3.1
15 -1 -1 53.89 3.2
-15 1 0 1783.82 85.99
15 -1 0 1961.8 86.09
15 1 0 2010.6 86.09
15 1 1 113.99 5.9
-15 -1 -1 124.09 5.9
15 -1 1 128.09 6.1
-15 1 -2 2544.85 109.59
-15 -1 -2 2361.66 109.59
15 -1 2 2391.56 109.69
15 1 2 2476.85 109.59
-15 -1 -3 5.9 0.7
15 -1 3 4.1 0.7
-15 1 -3 5.9 0.8
15 1 3 4.5 0.7
-15 -1 -4 841.02 36.8
15 -1 4 823.22 36.9
-15 1 -4 783.72 36.8
15 1 4 806.02 36.8
-15 1 -5 132.09 6.4
-15 -1 -5 134.59 6.3
15 -1 5 137.69 6.5
15 1 5 126.99 6.4
-15 1 -6 92.29 4.8
15 -1 6 101.09 4.9
-15 1 -7 162.28 7.7
15 -1 7 161.68 7.8
-15 1 -8 775.92 38.8
15 -1 8 834.92 38.9
-15 -1 -8 894.91 38.7
15 1 8 899.41 38.7
-15 1 -9 39.2 2.2
15 -1 9 39.2 2.3
-15 -1 -9 39.7 2.1
15 1 9 40.9 2.1
-15 1 -10 1106.69 46.5
-15 -1 -10 937.61 46.2
15 -1 10 1045.4 46.5
15 1 10 1090.79 46.3
-15 1 -11 0.6 0.3
-15 -1 -11 0.4 0.2
15 -1 11 0.3 0.3
15 1 11 0.4 0.2
-15 1 -12 151.18 5.1
15 -1 12 140.59 5.2
15 -1 14 383.36 17.5
-15 1 -15 17.6 1.1
15 -1 15 17.3 1.1
-15 1 -16 1.7 0.3
15 -1 16 2 0.3
-15 1 -17 1.4 0.2
15 -1 17 1.3 0.2
15 3 -36 138.09 7.2
-15 -3 36 138.39 7.2
-15 -3 35 11.9 1.4
15 3 -35 16.2 1.5
15 -3 -34 86.79 4.7
-15 -3 34 82.49 4.7
-15 3 34 91.59 4.7
15 3 -33 90.49 5.1
-15 3 33 93.49 5
15 -3 -33 92.09 5.1
-15 -3 33 90.69 5.1
15 3 -32 144.69 7.2
15 -3 -32 131.99 7.2
-15 -3 32 137.69 7.2
-15 3 32 141.39 7.1
15 -3 -31 39.9 2.8
-15 -3 31 43.7 2.8
15 3 -31 39.1 2.7
-15 3 31 47.8 2.8
15 3 -30 14.3 1.4
-15 3 30 13.3 1.4
15 -3 -30 15 1.5
-15 -3 30 13.9 1.4
-15 3 29 3.1 0.7
15 3 -29 4.4 0.8
15 -3 -29 4.3 0.9
-15 -3 29 2.7 0.8
-15 3 28 211.88 10.9
15 -3 -28 240.18 11.1
-15 3 27 14 1.4
15 3 -27 13.2 1.4
-15 -3 27 14.5 1.5
15 -3 -27 15.8 1.5
-15 3 26 227.78 11.1
15 3 -26 232.08 11.2
15 -3 -26 217.08 11.2
-15 -3 26 241.08 11.2
-15 3 25 2.3 0.7
15 -3 -25 5.4 0.9
15 3 -25 4.7 0.8
-15 -3 25 2.4 0.7
15 3 -24 588.44 27.5
-15 3 24 642.14 27.5
-15 -3 24 563.64 27.5
15 -3 -24 585.74 27.5
-15 3 23 208.48 10.5
15 -3 -23 223.48 10.7
-15 -3 23 222.58 10.7
-15 3 22 29.2 2
-15 -3 22 27.6 2
15 3 -22 29.2 2
15 -3 -22 25.5 2
-15 3 21 155.78 7.6
15 -3 -21 149.29 7.7
-15 -3 21 151.38 7.7
15 3 -21 152.68 7.7
15 3 -20 16.1 1.5
15 -3 -20 12.6 1.4
-15 -3 20 16.1 1.5
15 3 -19 72.49 3.8
15 -3 -19 68.49 3.9
-15 -3 19 70.09 3.8
-15 3 18 457.55 20.8
15 3 -18 457.65 20.8
15 -3 -18 416.96 20.8
-15 -3 18 454.25 20.8
-15 3 17 96.59 5.4
15 -3 -17 100.49 5.5
15 3 -17 113.29 5.5
-15 -3 17 109.79 5.6
-15 3 16 910.11 42.8
-15 -3 16 902.41 42.8
15 3 -16 910.01 42.9
15 3 -15 89.19 4.6
15 -3 -15 95.29 4.7
-15 -3 15 88.89 4.6
-15 3 14 656.13 28.5
15 -3 -14 603.04 28.5
15 3 -14 643.74 28.5
-15 -3 14 576.84 28.4
-15 3 13 95.79 5.3
15 -3 -13 109.19 5.5
-15 -3 13 107.49 5.4
15 3 -13 101.89 5.4
-15 3 12 71.69 3.9
-15 -3 12 64.29 3.8
15 3 -12 64.79 3.8
-15 3 11 232.58 10.5
15 -3 -11 212.78 10.6
-15 -3 11 214.38 10.5
15 3 -11 212.18 10.5
-15 -3 8 812.62 35.5
15 3 -8 743.13 35.5
-15 -3 7 143.79 6.8
15 3 -7 127.69 6.8
-15 -3 6 496.25 24.1
15 3 -6 561.64 24.3
-15 3 5 532.35 24.6
15 -3 -5 511.95 24.7
15 3 -5 521.25 24.6
-15 -3 5 569.94 24.6
15 -3 -4 219.38 11.4
-15 3 4 251.07 11.4
-15 -3 4 236.08 11.3
15 3 -4 246.28 11.4
-15 3 3 24.3 1.8
15 -3 -3 24.7 1.9
-15 -3 3 27.5 1.8
15 3 -3 28 1.8
15 -3 -2 142.09 6.9
15 3 -2 140.99 6.8
-15 -3 2 127.29 6.7
-15 3 2 139.29 6.8
-15 3 1 35.8 2.3
15 -3 -1 33.6 2.3
15 3 -1 31 2.1
15 -3 0 378.66 17.8
-15 3 0 397.86 17.7
15 3 0 358.86 17.6
-15 -3 0 389.56 17.7
15 -3 1 51.99 3.3
-15 3 -1 58.39 3.2
15 3 1 57.69 3.2
-15 -3 -1 58.49 3.2
15 3 2 906.51 42.2
15 -3 2 1009.2 42.5
-15 -3 -2 903.71 42.2
-15 3 -3 43.5 2.5
-15 -3 -3 41.2 2.3
15 3 3 40 2.3
-15 3 -4 630.84 28.7
15 3 4 600.24 28.5
15 -3 4 629.44 28.8
-15 -3 -4 642.84 28.5
15 -3 5 278.97 13.1
15 3 5 280.37 12.9
-15 3 -5 262.47 12.9
-15 -3 -5 275.07 12.8
15 -3 6 249.48 12.5
15 3 6 254.87 12.3
-15 -3 -6 263.07 12.3
-15 3 -6 290.27 12.5
-15 3 -7 102.49 5.1
15 3 7 97.49 5
15 -3 7 94.09 5.2
-15 -3 -7 100.49 4.9
-15 3 -8 53.79 3
15 -3 8 53.99 3.1
15 3 8 52.59 2.9
-15 -3 -8 53.99 2.9
15 3 9 5.6 0.7
-15 3 -9 8.5 1
-15 -3 -9 8.8 0.8
15 -3 9 6.3 0.9
15 -3 10 684.83 30.8
-15 3 -10 661.13 30.7
15 3 11 109.29 5.5
-15 3 -11 123.19 5.9
15 -3 11 116.29 5.9
-15 -3 -11 115.09 5.5
-15 3 -12 479.15 20.9
-15 -3 -12 436.76 20.5
15 -3 12 434.26 21
15 3 12 464.35 20.5
15 -3 13 14.3 1.2
-15 3 -13 15.4 1.1
15 3 13 10.2 0.7
15 -3 14 146.29 7.3
-15 3 -15 76.99 4.2
15 -3 15 83.79 4.4
-15 3 -16 47.8 2.6
15 -3 16 38.3 2.6
-15 3 -17 1 0.5
15 -3 17 1.3 0.5
-15 3 -18 296.67 14
15 -3 18 303.97 14.1
15 5 -36 23.6 2
-15 -5 36 25.2 2.1
-15 -5 35 49.5 3.4
15 5 -35 57.49 3.5
15 5 -34 71.99 4.1
-15 -5 34 62.99 4
-15 -5 33 85.09 4.6
15 5 -33 72.29 4.4
15 -5 -32 36 2.5
-15 -5 32 40.2 2.6
15 5 -32 30.5 2.4
-15 5 32 36.7 2.5
15 -5 -31 137.39 7.2
-15 5 31 136.59 7.1
-15 5 30 0.2 0.6
15 -5 -30 -0.1 0.7
-15 -5 30 0.5 0.7
15 5 -30 0.2 0.6
15 -5 -29 39.8 2.7
15 5 -29 35.4 2.6
-15 -5 29 39.7 2.7
-15 5 29 45.6 2.8
-15 5 28 17.8 1.6
15 -5 -28 18.8 1.7
15 5 -28 17.1 1.6
-15 -5 28 15.4 1.6
-15 5 27 30.7 2.2
-15 -5 27 31.1 2.3
15 5 -27 31.6 2.3
15 -5 -27 34.5 2.4
-15 5 26 33.2 2.2
15 -5 -26 28.1 2.2
-15 -5 26 26.4 2.1
15 5 -26 28.1 2.2
-15 -5 25 113.89 6
15 5 -25 112.49 6
15 5 -24 87.49 4.9
-15 -5 23 173.58 9.3
15 5 -23 206.98 9.5
-15 5 22 341.57 16.5
15 -5 -22 356.06 16.7
-15 -5 22 377.86 16.6
15 5 -22 324.27 16.5
-15 -5 21 453.25 20.6
-15 5 21 413.56 20.4
15 -5 -21 460.45 20.7
15 5 -21 429.86 20.5
-15 5 20 8.6 1
15 -5 -20 10.4 1.2
-15 -5 20 6.7 1.1
15 5 -20 8.6 1.1
-15 5 19 47.4 2.9
-15 -5 19 41.3 2.9
15 -5 -19 49.4 3
15 5 -19 46.9 3
-15 5 18 480.25 22.3
15 -5 -17 94.99 4.8
15 5 -17 90.39 4.7
-15 5 17 89.89 4.6
15 -5 -16 353.66 17.4
-15 -5 16 390.06 17.4
15 5 -16 377.36 17.4
-15 5 16 349.96 17.2
15 -5 -15 251.17 11.1
-15 5 15 217.28 10.8
-15 -5 15 212.18 10.9
15 5 -15 219.58 10.9
15 -5 -14 209.38 10.4
-15 5 14 227.98 10.4
15 5 -14 229.48 10.5
-15 5 13 79.69 4.1
15 -5 -13 59.39 4
-15 -5 13 64.69 4
15 5 -13 78.29 4.1
15 5 -12 4 0.8
15 -5 -12 2.7 0.8
-15 5 12 1.8 0.7
-15 -5 12 2.1 0.7
15 5 -11 8.2 1.1
-15 5 11 7.1 1.1
15 -5 -11 6.9 1.1
-15 -5 11 5.9 1
-15 5 10 15.2 1.4
15 -5 -10 14.4 1.5
-15 -5 10 17.4 1.5
15 5 -10 14 1.4
-15 5 9 59.59 3.3
-15 -5 9 53.69 3.3
15 5 -9 56.19 3.3
15 -5 -8 741.13 34.2
-15 5 8 772.32 34.1
-15 -5 8 744.43 34.1
15 5 -8 712.13 34
-15 5 7 196.38 9.7
15 -5 -7 197.18 9.8
-15 -5 7 196.68 9.7
15 5 -7 200.88 9.7
-15 5 6 90.99 4.8
15 -5 -6 93.19 4.9
-15 -5 6 84.69 4.8
15 5 -6 85.59 4.8
-15 5 5 150.78 7.6
15 -5 -5 139.79 7.7
-15 -5 5 157.58 7.6
15 5 -5 156.28 7.7
15 -5 -4 9.8 1.2
-15 5 4 10.3 1.1
-15 -5 4 10 1.1
15 5 -4 9.5 1.1
15 -5 -3 155.98 8
-15 5 3 158.58 7.9
-15 -5 3 156.78 7.9
15 -5 -2 69.59 4
-15 5 2 68.19 3.9
-15 -5 2 60.09 3.8
15 5 -2 76.09 3.9
-15 5 1 91.99 5
15 -5 -1 92.89 5.1
-15 -5 1 89.59 4.9
15 5 -1 93.59 5
-15 5 0 206.78 10.1
15 -5 0 206.98 10.2
-15 -5 0 209.28 10.1
15 5 0 202.98 10.1
15 -5 1 49.3 3.3
-15 -5 -1 56.99 3.3
-15 5 -1 57.19 3.3
15 5 1 59.79 3.3
-15 5 -2 128.89 6.6
15 -5 2 127.89 6.8
-15 -5 -2 124.49 6.6
15 5 2 140.09 6.7
-15 -5 -3 211.18 10.2
-15 5 -3 194.68 10.2
15 5 3 228.08 10.3
-15 5 -4 201.98 10.1
15 -5 4 214.08 10.3
15 -5 5 204.98 9.2
-15 5 -5 164.68 8.9
15 5 6 0.8 0.6
15 -5 6 1.4 0.7
-15 5 -6 2 0.6
-15 -5 -6 1.2 0.6
15 -5 7 75.89 4.6
-15 5 -7 80.49 4.5
-15 -5 -7 85.89 4.4
15 5 7 83.99 4.4
-15 5 -8 90.89 4.8
-15 -5 -8 86.89 4.7
15 -5 8 91.79 5
15 5 8 86.89 4.7
15 5 9 69.19 4
15 -5 9 74.59 4.3
-15 -5 -9 68.09 3.9
-15 5 -10 174.48 9
15 -5 10 189.08 9.2
-15 -5 -10 179.88 8.8
15 5 10 185.98 8.9
15 -5 11 1.4 0.8
-15 -5 -11 1.4 0.5
15 5 11 1.2 0.5
-15 5 -11 1.6 0.6
15 -5 12 213.28 10
-15 5 -12 194.48 9.8
15 5 12 202.28 9.6
-15 -5 -12 194.88 9.6
-15 5 -13 15.6 1.5
15 5 13 17.5 1.3
-15 -5 -13 18.5 1.3
15 -5 13 17.7 1.6
-15 5 -14 58.09 3.4
15 -5 14 56.29 3.5
-15 5 -15 79.69 4.4
15 -5 15 79.39 4.6
15 -5 16 19.4 1.7
-15 5 -16 17.8 1.6
-15 5 -17 35.1 2.4
15 -5 17 33.7 2.4
-15 -7 35 22.8 1.9
15 7 -34 1.3 0.7
-15 -7 34 0.6 0.7
15 7 -33 67.29 4
-15 -7 33 67.39 4.1
-15 -7 32 19.9 1.8
15 7 -32 22.3 1.9
15 7 -31 48.6 3.3
-15 -7 31 56.79 3.4
-15 7 29 23.5 2
-15 -7 29 24.8 2
15 7 -29 22.1 1.9
15 -7 -29 28.4 2.1
-15 -7 28 0.7 0.6
15 7 -28 1.3 0.6
-15 -7 27 12.5 1.3
15 7 -27 11.4 1.3
15 -7 -26 2.4 0.8
-15 -7 26 2.9 0.8
-15 7 26 2.3 0.7
15 7 -26 1.4 0.6
15 -7 -25 87.09 4.9
-15 7 25 83.69 4.8
-15 -7 25 82.89 4.8
15 7 -25 88.89 4.9
-15 7 24 8.4 1.2
15 -7 -24 7.4 1.2
-15 7 23 158.18 8.2
15 -7 -23 162.78 8.3
-15 -7 23 159.78 8.3
15 7 -23 162.48 8.2
15 -7 -22 19.4 1.7
-15 7 22 19.6 1.7
-15 -7 22 17.3 1.7
15 7 -22 17.9 1.7
-15 7 21 38.2 2.7
15 -7 -21 43.1 2.8
-15 -7 21 39.3 2.7
15 7 -21 37.3 2.7
-15 7 20 1.6 0.7
15 -7 -20 1.1 0.7
15 -7 -19 46.7 3.1
-15 7 19 46.5 3
-15 7 18 10.6 1.3
15 -7 -18 11.5 1.4
-15 -7 18 13.9 1.4
15 7 -18 12.7 1.4
-15 7 17 91.19 4.8
15 -7 -17 85.19 4.9
-15 -7 17 90.89 4.9
15 7 -17 75.49 4.7
-15 -7 16 30.6 2.3
15 7 -16 31.5 2.3
-15 7 15 28.8 2.2
15 -7 -15 28.7 2.2
-15 -7 15 26.9 2.2
15 7 -15 30.8 2.2
15 7 -14 0.9 0.7
-15 7 14 0.3 0.6
15 -7 -14 0.7 0.8
-15 -7 14 1.4 0.7
15 7 -13 123.79 6.4
-15 7 13 125.99 6.4
15 -7 -13 112.59 6.4
-15 -7 13 117.19 6.3
15 7 -12 27.6 2.1
-15 7 12 24.3 2
-15 -7 12 23.9 2
15 -7 -12 27.2 2.1
15 -7 -11 6 1.1
15 7 -11 6.5 1.1
-15 7 11 4.6 0.9
-15 -7 11 5.6 1
-15 7 10 1 0.7
15 -7 -10 1.1 0.7
15 7 -10 1 0.5
-15 -7 10 2.5 0.7
-15 7 9 63.69 3.8
15 -7 -9 57.79 3.9
-15 -7 9 65.89 3.9
15 -7 -8 20.2 1.8
-15 7 8 20.8 1.7
-15 -7 8 16.4 1.7
15 7 -8 19.9 1.7
-15 7 7 9.7 1.2
15 7 -7 11.6 1.3
15 -7 -7 12.3 1.4
-15 -7 7 12.3 1.3
15 7 -6 17.7 1.5
15 -7 -6 14.6 1.5
-15 7 6 13.6 1.4
15 -7 -5 75.09 4.4
-15 7 5 69.99 4.2
-15 -7 5 72.29 4.3
15 -7 -4 4.8 1
15 7 -4 4.7 1
-15 -7 4 5.2 1
-15 7 4 4.3 0.9
15 -7 -3 83.59 4.9
-15 7 3 85.09 4.7
15 7 -3 83.59 4.8
-15 -7 3 93.19 4.9
-15 7 2 89.29 5.1
15 7 -2 105.49 5.3
15 -7 -2 88.99 5.3
-15 -7 2 99.69 5.3
-15 7 1 177.38 10
15 -7 -1 195.08 10.2
-15 -7 1 213.38 10.2
15 -7 0 2.4 0.9
-15 7 0 2.5 0.8
-15 7 -1 12.6 1.3
15 -7 1 14.3 1.5
15 -7 2 131.49 7.2
-15 7 -2 141.99 7.1
15 7 3 9.2 1.1
-15 7 -3 6.8 1
-15 -7 -3 6.8 1.1
15 7 4 51.79 3.2
15 -7 4 53.59 3.3
-15 7 -4 47.6 3.1
-15 -7 -4 49.9 3.2
15 7 5 62.89 3.8
-15 7 -5 68.09 3.8
15 -7 5 63.79 3.9
-15 -7 -5 62.89 3.8
15 7 6 11.9 1.3
15 -7 6 11.8 1.5
-15 7 -6 11.9 1.3
-15 -7 -6 13.8 1.3
15 -7 7 83.69 4.5
-15 7 -7 70.69 4.2
-15 -7 -7 71.19 4.2
15 7 7 71.79 4.2
15 -7 8 12.8 1.5
-15 7 -8 10.6 1.2
-15 -7 -8 10.9 1.2
15 7 8 9.6 1.2
15 -7 9 15.9 1.7
-15 7 -9 19.1 1.6
-15 -7 -9 17.9 1.6
15 7 9 17.6 1.6
15 7 10 1.3 0.6
-15 -7 -10 1.2 0.6
15 -7 10 1.1 0.7
-15 7 -10 1.7 0.7
-15 7 -11 17.1 1.5
15 -7 11 16.1 1.7
-15 7 -12 2.7 0.8
15 -7 12 3.5 0.9
15 -7 13 6 1.1
-15 7 -13 8.2 1.1
15 -7 14 1.5 0.8
-15 7 -14 1.1 0.6
-15 7 -15 15.4 1.5
15 -7 15 17.3 1.7
-15 -9 33 9 1.3
15 9 -33 9.4 1.2
-15 -9 32 7.9 1.2
15 9 -32 7.9 1.1
-15 -9 30 3 0.8
15 9 -30 2 0.7
-15 -9 29 7.4 1.1
15 9 -29 5.9 1
15 9 -28 0.9 0.7
-15 -9 28 0.5 0.8
-15 -9 27 12.6 1.5
15 9 -27 15.6 1.5
15 9 -26 6.1 1
-15 -9 26 5.6 1
15 -9 -25 0.9 0.7
-15 9 25 1.2 0.6
-15 9 24 31.1 2.3
15 -9 -24 30.9 2.4
15 9 -24 30 2.3
-15 9 23 28 2.2
15 -9 -23 30.5 2.4
-15 -9 23 32.7 2.4
15 9 -23 34 2.4
15 9 -22 -0.1 0.6
-15 -9 22 -0.1 0.7
15 9 -21 1.9 0.8
-15 -9 21 3.3 1
15 9 -20 4.1 0.9
-15 -9 20 3.1 0.9
15 9 -19 0.6 0.6
-15 9 19 0.4 0.7
15 -9 -19 1.2 0.8
-15 -9 19 0.7 0.6
-15 9 18 7.9 1.1
15 9 -18 4.6 1
15 -9 -18 5.4 1
-15 -9 18 6.7 1.1
15 -9 -17 4.2 1
-15 9 17 5.3 0.9
15 9 -17 3.8 0.9
-15 -9 17 3.7 0.9
-15 9 16 7 1
15 -9 -16 8.2 1.2
15 9 -16 6.9 1.1
-15 -9 16 7.5 1.1
15 -9 -15 13.5 1.5
-15 9 15 12.2 1.3
15 9 -14 2.8 0.8
-15 9 14 1.7 0.8
15 -9 -14 2.9 0.9
-15 -9 14 2.5 0.8
15 -9 -13 30.8 2.3
-15 9 13 30.4 2.2
-15 -9 13 26.8 2.2
15 9 -13 29.2 2.2
-15 9 12 10.6 1.2
15 9 -12 7.7 1.2
-15 -9 12 9.2 1.2
15 -9 -12 7.5 1.1
-15 9 11 1.5 0.7
15 -9 -11 1.8 0.8
15 9 -11 1.5 0.6
-15 -9 11 0.3 0.6
-15 9 10 8.3 1.1
15 -9 -10 7.4 1.2
15 9 -10 5.1 1
-15 -9 10 7.9 1.2
15 -9 -9 4.6 1
-15 9 9 4.3 0.9
15 9 -9 5.7 1
-15 -9 9 5.1 1
-15 9 8 13.5 1.4
15 -9 -8 16.1 1.6
-15 -9 8 15.4 1.5
15 -9 -7 8.9 1.3
15 9 -7 10.1 1.3
-15 9 7 10 1.2
-15 -9 7 11.9 1.4
-15 9 6 56.29 3.5
15 -9 -6 64.79 3.8
-15 -9 6 54.89 3.6
15 9 -6 62.39 3.7
-15 9 5 11.3 1.3
15 -9 -5 11.3 1.4
15 9 -5 9.2 1.3
-15 -9 5 9.8 1.3
15 -9 -4 7 1.1
15 9 -4 6.6 1.1
-15 -9 4 5.5 1
-15 9 4 3.3 0.9
-15 9 3 2.6 0.7
15 -9 -3 3.4 0.8
15 9 -3 2.8 0.9
-15 -9 3 2.3 0.8
-15 9 2 18.2 1.6
15 -9 -2 17.6 1.7
15 9 -2 19.1 1.7
-15 -9 2 15.7 1.6
15 -9 -1 14.6 1.6
-15 9 1 14 1.4
15 9 -1 12.4 1.4
-15 -9 1 13.9 1.5
15 -9 0 35.4 2.6
-15 9 0 33.1 2.4
15 9 0 32.2 2.5
-15 -9 0 36.8 2.5
-15 9 -1 2.6 0.8
15 -9 1 5.1 1.1
15 9 1 3 0.9
-15 -9 -1 5.2 1
15 -9 2 16 1.7
15 9 2 17.4 1.6
-15 9 -2 17.9 1.6
-15 -9 -2 14 1.5
-15 9 -3 1.4 0.7
15 -9 3 1.3 0.9
15 9 3 1.4 0.7
-15 -9 -3 1.2 0.6
15 -9 4 43.3 3
-15 -9 -4 42.2 2.9
15 9 4 41.1 2.9
15 -9 7 1.2 0.9
-15 9 -7 1.9 0.8
-15 9 -8 12 1.3
15 -9 8 12.8 1.5
15 -9 9 0.2 0.7
-15 9 -9 0.1 0.5
-15 9 -10 13.2 1.4
15 -9 10 13.2 1.5
-15 9 -11 0.3 0.6
15 -9 11 0.8 0.8
15 -9 12 1.9 0.7
-15 9 -12 1.9 0.7
-15 9 -13 7.7 1.1
15 -9 13 11 1.4
-15 9 -14 1.1 0.6
15 -9 14 0.8 0.7
-15 11 21 5.5 1
15 -11 -21 5 1
15 11 -20 0.3 0.5
-15 11 20 0.1 0.6
15 -11 -20 0.1 0.7
-15 -11 20 0.1 0.5
-15 -11 19 27.1 2.1
15 11 -19 26.2 2.1
-15 -11 18 14.2 1.5
15 11 -18 16.1 1.5
-15 11 17 6.2 1
15 -11 -17 5.4 1
15 11 -17 7.8 1.1
-15 -11 17 4.4 0.9
15 11 -16 21.7 1.9
15 -11 -16 22.1 2
-15 11 16 22.1 1.9
-15 -11 16 24.8 2
-15 11 15 6.2 1
15 -11 -15 6.5 1.1
15 11 -15 4.8 1
-15 -11 15 6 1
15 -11 -14 12 1.4
-15 11 14 9.3 1.2
-15 11 13 1.9 0.6
15 -11 -13 2.2 0.7
15 11 -13 2.7 0.8
-15 -11 13 1.8 0.8
-15 11 12 0.4 0.7
15 -11 -12 0.2 0.6
15 11 -12 -0.1 0.5
-15 -11 12 0.7 0.6
15 -11 -11 49.7 3.3
-15 11 11 47.6 3.1
15 11 -11 51.89 3.2
-15 -11 11 53.99 3.3
-15 11 10 0.5 0.6
15 -11 -10 0.3 0.6
-15 -11 10 0.9 0.7
15 11 -10 0.5 0.7
15 -11 -9 34.8 2.5
-15 11 9 27.5 2.2
15 11 -9 31.4 2.3
-15 -11 9 31.2 2.3
15 -11 -8 36.6 2.5
-15 11 8 29.9 2.3
15 11 -8 33.6 2.4
-15 -11 8 33.1 2.4
15 -11 -7 10.3 1.3
15 11 -7 11 1.3
-15 -11 7 13.3 1.4
15 -11 -6 35.2 2.5
15 11 -6 34.5 2.4
-15 -11 6 28.3 2.3
15 -11 -5 17.2 1.7
15 11 -5 19.1 1.7
-15 -11 5 19.1 1.7
-15 11 5 17.5 1.6
15 -11 -4 12 1.4
-15 11 4 12.3 1.3
15 11 -4 10.9 1.3
-15 -11 4 10.4 1.3
15 11 -3 2.4 0.8
15 -11 -3 1 0.7
-15 -11 3 1.5 0.7
-15 11 3 0.4 0.6
15 -11 -2 8.7 1.2
-15 11 2 8.7 1.1
15 11 -2 9.9 1.3
-15 -11 2 8.6 1.2
15 -11 -1 7.4 1.2
15 11 -1 4.6 1
-15 11 1 4.8 1
-15 -11 1 6.7 1.1
15 11 0 25.5 2.1
-15 -11 0 24.9 2
-15 11 0 25.3 2
15 -11 0 24.8 2.1
-15 11 -4 18.2 1.6
15 -11 4 16.5 1.7
-15 11 -5 11.6 1.3
15 -11 5 15.3 1.5
15 -11 6 -0.1 0.7
-15 11 -6 0.1 0.6
15 -11 7 2.3 0.9
-15 11 -7 2.4 0.7
-15 11 -8 3.8 0.8
15 -11 8 5.6 1
-15 11 -9 -0.1 0.6
15 -11 9 1.5 0.8
-15 11 -10 42.4 2.8
15 -11 10 43.2 2.9
-15 11 -11 0.4 0.6
15 -11 11 0.6 0.8
-16 0 36 504.15 23.5
16 0 -36 501.95 23.6
-16 0 34 226.08 11.2
16 0 -34 231.28 11.2
-16 0 33 0.1 0.5
16 0 -33 -0.1 0.5
-16 0 32 69.59 4.3
16 0 -32 83.29 4.4
-16 0 31 -0.2 0.6
16 0 -31 -0.4 0.6
-16 0 30 49.3 3.4
16 0 -30 64.49 3.7
16 0 -29 -0.1 0.6
-16 0 29 -0.4 0.6
-16 0 28 429.26 20
16 0 -28 428.36 20.1
16 0 -27 -0.1 0.6
-16 0 27 0.3 0.6
-16 0 26 1597.14 72.99
16 0 -26 1634.44 73.09
16 0 -25 0.3 0.5
-16 0 25 -0.2 0.5
-16 0 24 550.54 24.9
16 0 -24 523.35 24.8
-16 0 23 -0.2 0.5
16 0 -23 -0.1 0.5
-16 0 22 74.49 5
16 0 -22 142.29 5.5
16 0 -21 0.6 0.5
-16 0 21 0.6 0.5
-16 0 20 243.88 10.8
16 0 -20 205.08 10.7
-16 0 19 0.4 0.5
16 0 -19 0.2 0.5
16 0 -18 621.04 27.6
-16 0 18 578.24 27.6
16 0 -15 0.2 0.6
-16 0 15 -0.2 0.5
16 0 -14 488.15 22.3
-16 0 14 476.15 22.2
16 0 -13 -0.1 0.4
-16 0 13 -0.1 0.4
16 0 -12 616.74 29
-16 0 12 649.24 29
16 0 -11 -0.1 0.5
-16 0 11 -0.1 0.5
-16 0 10 718.63 34.8
16 0 -10 826.42 35
16 0 -9 0.1 0.5
-16 0 9 0.1 0.4
-16 0 8 2602.04 120.49
16 0 -8 2772.62 120.49
-16 0 7 -0.2 0.5
16 0 -7 0.1 0.6
-16 0 6 2140.39 90.99
16 0 -6 1903.31 90.99
16 0 -5 -0.3 0.5
-16 0 5 -0.1 0.4
-16 0 4 317.57 13.7
16 0 -4 270.07 13.7
-16 0 3 0.1 0.4
16 0 -3 0.1 0.5
-16 0 2 2180.28 94.69
16 0 -2 2029.9 94.79
-16 0 1 0.2 0.4
16 0 -1 -0.2 0.5
-16 0 0 2573.94 115.49
-16 0 -1 0.3 0.4
16 0 1 0.1 0.4
-16 0 -2 3433.56 156.58
16 0 2 3576.64 156.78
-16 0 -3 0.3 0.4
16 0 3 0.2 0.4
-16 0 -4 252.07 12.1
16 0 4 269.47 12.2
-16 0 -5 0.4 0.3
16 0 5 0.1 0.4
-16 0 -6 157.68 8
16 0 6 184.88 8.1
-16 0 -7 0.1 0.3
16 0 7 0.2 0.3
-16 0 -8 328.47 16
16 0 8 376.66 16.1
16 0 11 0.2 0.3
-16 0 -11 -0.1 0.2
-16 0 -12 503.55 23
16 0 12 516.35 23.1
-16 0 -13 0 0.1
16 0 13 0 0.2
16 2 -37 23.9 2
-16 -2 37 25.3 2
16 2 -36 158.78 8.8
-16 -2 36 197.08 9
16 2 -35 27 2.1
-16 -2 35 27.5 2.1
16 2 -34 96.69 5.5
-16 2 34 108.29 5.5
-16 -2 34 102.69 5.6
16 -2 -34 102.79 5.6
-16 -2 33 79.49 4.3
-16 2 33 79.09 4.2
16 -2 -33 78.89 4.3
-16 -2 32 27.7 2.2
-16 2 32 23.7 2
16 -2 -32 31 2.3
-16 2 31 0.9 0.6
16 -2 -31 1.1 0.7
16 -2 -30 69.59 3.9
-16 2 30 60.29 3.7
-16 2 29 114.29 6.3
16 -2 -29 107.39 6.3
-16 -2 29 122.39 6.4
16 2 -28 328.57 14.4
-16 2 28 290.27 14.2
-16 -2 28 291.87 14.2
16 -2 -28 285.57 14.3
16 2 -27 20.3 1.7
-16 -2 27 21.3 1.7
-16 2 27 18.4 1.6
16 -2 -27 23.4 1.8
-16 2 26 492.55 25
16 2 -26 582.94 25.2
-16 -2 26 548.95 25.2
16 -2 -26 556.64 25.2
-16 -2 25 137.89 6.8
16 2 -25 133.29 6.8
16 -2 -25 117.29 6.7
-16 2 25 136.09 6.7
-16 2 24 693.13 32.5
16 2 -24 745.73 32.6
-16 -2 24 672.93 32.5
16 -2 -24 720.83 32.6
-16 2 23 8.3 1
16 2 -23 7 1
16 -2 -23 8.3 1.1
-16 -2 23 8.6 1.1
16 2 -22 128.89 6.3
-16 -2 22 107.79 6.2
16 -2 -22 130.99 6.4
-16 2 22 119.19 6.2
-16 2 21 110.29 5.5
16 2 -21 101.89 5.6
-16 -2 21 104.99 5.6
-16 2 20 296.17 14
16 2 -20 272.97 14
16 -2 -20 283.37 14.1
-16 2 19 5.2 0.8
16 2 -19 4.7 0.9
-16 -2 19 8 1
16 -2 -19 4.9 1
-16 2 18 2016.9 92.19
16 2 -18 2145.99 92.29
-16 -2 18 2019.5 92.19
16 -2 -18 2013.2 92.29
-16 2 17 132.49 6.4
16 2 -17 120.99 6.4
-16 -2 17 122.59 6.3
16 -2 -17 122.49 6.4
16 2 -16 2513.55 115.99
-16 2 16 2483.95 115.89
-16 -2 16 2594.44 116.09
16 -2 -16 2769.12 116.19
16 2 -15 186.68 9.3
-16 2 15 201.28 9.3
-16 -2 15 195.28 9.3
16 -2 -15 176.88 9.3
16 2 -14 497.15 22.8
-16 -2 14 483.65 22.7
-16 2 11 60.29 3.4
16 2 -11 58.39 3.4
-16 -2 11 66.69 3.5
16 -2 -11 59.99 3.5
16 2 -10 910.61 49
-16 2 10 1035.9 49
-16 -2 10 1202.28 49.2
16 -2 -10 1265.67 49.3
-16 2 9 6.3 0.8
16 2 -9 5.8 0.8
-16 -2 9 6.3 0.9
16 -2 -9 7.2 0.9
-16 2 8 1571.24 68.99
16 2 -8 1483.95 68.99
-16 -2 8 1589.04 68.99
16 -2 -8 1469.15 69.09
-16 2 7 656.73 27
16 2 -7 591.34 27
-16 -2 7 592.94 26.9
16 2 -6 1284.77 54.69
-16 -2 6 1185.08 54.59
-16 2 6 1204.98 54.59
16 -2 -6 1159.08 54.69
-16 2 5 64.49 3.6
16 2 -5 68.69 3.6
-16 -2 5 61.29 3.5
16 -2 -5 71.19 3.8
-16 2 4 49.3 2.8
16 2 -4 44.1 2.7
-16 -2 4 45.1 2.6
16 -2 -4 42.2 2.8
-16 2 3 39.1 2.5
16 2 -3 42.9 2.5
16 -2 -3 42.2 2.6
-16 -2 3 40.7 2.4
16 2 -2 460.15 21.4
-16 2 2 480.55 21.5
16 -2 -2 451.45 21.5
-16 -2 2 467.85 21.4
16 2 -1 54.59 3.1
-16 2 1 57.59 3.2
16 -2 -1 60.89 3.3
-16 -2 1 56.09 3.1
-16 2 0 1608.74 73.79
16 2 0 1520.75 73.79
16 -2 0 1779.52 73.99
-16 -2 0 1683.33 73.79
16 2 1 30 1.9
-16 -2 -1 31.5 1.9
-16 2 -1 27.9 1.9
16 2 2 1057.59 47.9
-16 2 -2 1074.89 47.9
16 -2 2 1078.69 48
-16 -2 -2 1029.1 47.8
16 2 3 170.28 7.9
16 -2 3 163.08 8.1
-16 -2 -3 161.38 7.9
-16 2 -3 161.68 7.9
16 2 4 176.78 9
-16 2 -4 196.88 9.1
-16 -2 -4 185.48 9
16 -2 4 200.08 9.2
16 2 5 202.68 9.6
16 -2 5 200.98 9.7
-16 2 -5 202.68 9.7
-16 -2 -5 200.28 9.5
16 2 6 64.49 3.4
-16 2 -6 60.69 3.5
16 -2 6 71.29 3.7
-16 -2 -6 65.69 3.4
-16 2 -7 26.9 1.8
16 -2 7 25.6 1.8
-16 -2 -7 30 1.7
16 2 7 28.6 1.7
-16 2 -8 882.81 40.1
16 -2 8 901.41 40.3
-16 -2 -8 877.81 39.9
16 2 8 884.41 40
-16 2 -9 81.79 4.2
16 -2 9 80.09 4.3
-16 2 -10 1169.38 51.09
-16 -2 -10 1097.59 50.79
16 2 10 1079.79 50.79
16 -2 10 1255.57 51.19
-16 2 -11 184.58 7.9
16 -2 11 184.08 8
16 2 11 162.48 7.6
16 -2 12 456.45 16.7
-16 -2 -12 312.17 16
-16 2 -12 477.85 16.6
16 2 12 356.66 16.1
16 -2 13 2.9 0.6
-16 2 -13 3.6 0.6
16 -2 14 21.5 1.5
-16 2 -14 19.7 1.4
-16 2 -15 13 1.1
16 -2 15 15.1 1.2
-16 2 -16 258.07 12.6
16 -2 16 290.37 12.8
-16 2 -17 67.89 3.5
16 -2 17 69.69 3.6
16 4 -36 165.58 8.7
-16 -4 36 177.88 8.8
-16 -4 34 52.89 3.5
16 4 -34 63.89 3.7
-16 4 33 128.99 6.8
16 4 -33 128.39 6.9
16 -4 -33 134.89 7
-16 -4 33 138.19 7
16 4 -32 63.99 3.9
16 -4 -32 69.59 4
-16 -4 32 67.59 4
-16 4 32 60.99 3.9
-16 4 31 94.89 5
16 4 -31 100.09 5.1
16 -4 -31 80.69 4.9
-16 -4 31 83.99 4.9
16 4 -30 9.4 1.4
-16 -4 30 9.2 1.3
16 4 -29 1.9 0.7
-16 -4 29 1.2 0.7
16 4 -28 69.69 4.2
-16 -4 28 79.29 4.3
-16 4 27 68.39 4
16 -4 -27 71.59 4.1
16 4 -27 69.49 4
-16 -4 27 66.79 4
-16 4 26 138.19 7.5
16 -4 -26 166.38 7.7
16 4 -26 141.29 7.5
-16 -4 26 153.48 7.6
16 4 -25 167.58 8.3
16 -4 -25 171.28 8.4
-16 -4 25 164.28 8.3
-16 4 25 157.18 8.2
-16 4 24 213.78 10.6
16 -4 -24 228.48 10.8
-16 -4 24 212.18 10.7
-16 4 23 337.57 15.3
16 -4 -23 303.57 15.2
-16 4 22 110.69 6.1
16 -4 -22 128.09 6.3
-16 4 21 186.98 9.5
16 4 -21 182.48 9.5
-16 -4 21 184.88 9.5
16 -4 -20 104.39 5.7
-16 -4 20 106.19 5.7
16 4 -20 112.19 5.7
-16 -4 19 20.5 1.8
-16 4 19 25.7 1.8
16 -4 -19 26.1 1.9
16 4 -19 23.4 1.9
-16 4 18 503.45 25.2
16 -4 -18 593.74 25.5
-16 -4 18 555.84 25.3
16 4 -18 546.65 25.3
16 -4 -17 291.27 14
-16 -4 17 276.77 13.9
16 4 -17 304.17 14
-16 4 17 299.47 13.9
16 -4 -16 815.62 39.4
-16 -4 16 872.81 39.4
16 4 -16 804.42 39.4
-16 4 15 251.57 11.7
16 -4 -15 246.58 11.8
-16 -4 15 240.38 11.7
16 4 -15 235.58 11.7
-16 4 14 162.98 7.6
16 -4 -14 139.09 7.6
-16 -4 14 148.59 7.6
16 4 -14 149.59 7.6
-16 4 13 15.7 1.3
16 -4 -13 13.7 1.4
-16 -4 13 12.8 1.3
16 4 -13 12.9 1.3
-16 4 12 430.16 19.6
16 -4 -12 409.36 19.7
-16 -4 12 431.16 19.7
16 4 -12 411.26 19.6
-16 4 11 44.6 2.9
16 -4 -11 46.5 3
16 4 -11 47.6 2.9
-16 -4 11 50.79 2.9
-16 4 10 329.67 16.8
16 -4 -10 381.66 17
-16 -4 10 339.67 16.8
16 4 -10 392.66 16.9
16 -4 -9 13.7 1.4
-16 4 9 15.1 1.3
-16 -4 9 15.3 1.4
16 4 -9 13.2 1.3
16 -4 -8 721.63 33.9
-16 -4 8 751.72 33.9
-16 4 8 763.42 33.8
16 4 -8 718.23 33.8
-16 4 7 266.77 12.6
16 -4 -7 260.27 12.7
-16 -4 7 275.07 12.6
16 4 -7 255.17 12.6
16 -4 -6 198.18 10.7
-16 -4 6 230.98 10.7
16 4 -6 226.68 10.7
-16 4 6 225.38 10.7
-16 4 5 185.38 9.2
16 -4 -5 184.38 9.4
-16 -4 5 206.98 9.3
16 4 -5 181.28 9.2
-16 4 4 159.48 8.5
16 -4 -4 168.58 8.6
-16 -4 4 169.28 8.5
16 -4 -3 91.59 4.8
-16 4 3 86.39 4.7
-16 4 2 60.29 3.6
16 -4 -2 69.79 3.8
-16 4 1 6.8 0.9
16 -4 -1 5.7 1
16 -4 0 230.48 11.6
-16 4 0 251.87 11.6
16 4 0 245.08 11.5
-16 -4 0 231.38 11.4
16 -4 1 0.4 0.7
-16 4 -1 0.2 0.5
-16 -4 -1 0.5 0.4
16 4 1 0.4 0.5
16 -4 2 568.34 28.4
-16 -4 -2 649.43 28.3
16 4 2 653.53 28.4
-16 4 -2 590.74 28.3
-16 4 -3 39 2.6
16 -4 3 41 2.7
16 4 3 43.4 2.6
-16 -4 -3 45 2.6
-16 4 -4 235.48 11.4
16 -4 4 242.78 11.5
16 4 4 237.38 11.3
-16 -4 -4 233.18 11.2
-16 4 -5 173.08 8.2
16 -4 5 151.68 8.3
16 4 5 165.88 8.1
-16 -4 -5 172.58 8.1
-16 4 -6 4.3 0.8
16 -4 6 3 0.7
16 4 6 4 0.6
-16 -4 -6 2.9 0.6
-16 4 -7 24.6 1.9
16 -4 7 29.5 2.1
16 4 7 28.2 1.8
-16 -4 -7 28.1 1.8
-16 4 -8 56.99 3.2
16 4 8 51.89 3.1
-16 -4 -8 57.29 3.1
16 -4 8 58.19 3.4
16 -4 9 8.9 1.1
16 4 9 8.9 0.9
-16 4 -9 7 0.9
-16 -4 -9 8.1 0.9
-16 4 -10 250.57 12.3
16 4 10 255.57 12.2
-16 -4 -10 249.88 12.2
-16 4 -11 21.7 1.7
16 -4 11 26.2 1.9
-16 -4 -11 23.2 1.5
16 4 11 20.9 1.5
-16 4 -12 394.26 19
-16 -4 -12 395.96 18.7
16 4 12 405.86 18.8
-16 4 -13 8.4 1
16 -4 13 7.1 1
-16 4 -14 33.8 2
16 -4 14 34.9 2.2
-16 4 -15 43.3 2.7
16 -4 15 44.9 2.9
-16 4 -16 43.3 2.7
16 -4 16 46.7 2.9
-16 4 -17 15.1 1.3
16 -4 17 15.9 1.4
-16 -6 36 4.4 1
16 6 -35 74.29 4.3
-16 -6 35 69.29 4.2
16 6 -33 103.49 5.6
-16 -6 33 100.59 5.6
-16 -6 32 10.5 1.3
16 6 -32 5.8 1
-16 6 31 51.09 3.3
16 -6 -31 52.69 3.4
16 6 -31 50.99 3.3
-16 -6 31 58.39 3.4
16 -6 -30 1.6 0.7
-16 6 30 0.2 0.7
-16 -6 30 2.1 0.8
16 6 -30 1.5 0.7
16 -6 -29 5.3 1
-16 -6 29 6.2 1
-16 6 29 5.3 0.9
16 6 -29 5.3 1
-16 6 28 4.6 0.9
16 -6 -28 6.1 1.1
-16 -6 28 5.8 1
16 6 -28 5.3 1
16 -6 -27 83.79 4.5
16 6 -27 84.69 4.5
-16 6 27 73.19 4.3
16 -6 -26 38.9 2.7
-16 -6 26 37.9 2.6
16 6 -26 33.2 2.5
-16 6 26 37.9 2.6
-16 6 25 71.79 4
16 -6 -25 64.19 4
16 -6 -24 127.99 6.9
-16 6 24 125.59 6.8
-16 -6 24 130.79 6.8
16 6 -24 137.09 6.9
16 -6 -23 30.1 2.2
-16 6 23 28.6 2.1
-16 -6 23 25.2 2
16 6 -23 24.1 2
16 6 -22 12.7 1.4
16 -6 -22 13.5 1.5
-16 -6 22 15.8 1.5
16 -6 -21 9.7 1.3
-16 6 21 10.3 1.3
-16 -6 21 11.3 1.3
16 6 -21 11.7 1.3
-16 6 20 60.09 3.4
16 -6 -20 56.69 3.5
-16 -6 20 52.99 3.4
16 6 -20 52.19 3.4
16 6 -19 2.5 0.8
16 -6 -19 1.9 0.8
-16 6 19 3 0.8
-16 -6 19 2.2 0.8
16 -6 -18 26.9 2.2
-16 -6 18 28.5 2.2
16 6 -18 30.7 2.2
16 -6 -17 48.8 3.4
-16 -6 17 54.89 3.4
16 6 -17 56.89 3.5
16 6 -16 2.3 0.8
16 -6 -16 0.8 0.7
-16 -6 16 1.7 0.8
-16 6 16 1.8 0.7
16 -6 -15 110.29 5.9
-16 -6 15 108.89 5.8
-16 6 15 99.19 5.7
16 6 -15 112.59 5.8
-16 6 14 22.2 1.8
16 -6 -14 20.7 1.8
-16 -6 14 22.3 1.9
16 6 -14 22.9 1.9
-16 6 13 65.79 3.8
16 -6 -13 59.99 3.9
-16 -6 13 64.99 3.8
16 6 -13 68.79 3.9
16 -6 -12 52.79 3.4
-16 -6 12 54.89 3.3
-16 6 12 52.29 3.2
16 6 -12 56.59 3.4
16 6 -11 0.3 0.6
16 -6 -11 0.4 0.8
-16 -6 11 0.9 0.7
-16 6 11 -0.2 0.7
-16 6 10 42.2 2.8
16 -6 -10 45.9 3
16 -6 -9 7.2 1
-16 6 9 6.7 1
16 -6 -8 41.4 2.8
-16 6 8 41.5 2.7
-16 -6 8 39.3 2.7
16 -6 -7 39.1 2.8
-16 -6 7 43.2 2.7
-16 6 7 39.6 2.6
16 6 -7 39.7 2.7
-16 6 6 9.7 1.3
16 -6 -6 9.3 1.4
-16 -6 6 11.2 1.2
16 6 -6 8.7 1.1
-16 6 5 132.69 6.5
16 -6 -5 120.39 6.6
-16 -6 5 118.49 6.4
-16 -6 4 10 1.2
-16 6 4 12.8 1.3
16 -6 -4 10 1.3
16 6 -4 10.2 1.2
-16 6 3 306.67 14.7
16 -6 -3 288.67 14.8
-16 -6 3 313.27 14.8
16 6 -3 327.47 14.8
-16 6 2 112.39 6.3
16 -6 -2 123.19 6.5
-16 -6 2 125.29 6.4
16 6 -2 126.19 6.4
16 -6 -1 24.2 1.9
-16 6 1 18.7 1.7
-16 -6 1 23 1.8
16 6 -1 24 1.9
16 -6 0 174.38 8.5
-16 6 0 155.98 8.3
-16 -6 0 171.38 8.4
16 6 0 164.88 8.3
-16 6 -1 22.9 1.8
16 -6 1 22.9 1.9
-16 -6 -1 18.6 1.7
16 6 1 19 1.7
-16 6 -2 81.19 4.7
-16 -6 -2 86.59 4.7
16 6 2 88.89 4.8
16 -6 3 41.9 2.7
-16 -6 -3 39.4 2.6
16 6 3 43.3 2.6
-16 6 -4 63.19 3.8
16 -6 4 64.19 3.9
-16 -6 -4 61.49 3.8
16 6 4 73.19 3.9
-16 6 -5 51.39 3.1
16 -6 5 49.5 3.2
-16 -6 -5 45.9 3
16 6 5 54.09 3.2
16 -6 6 35.1 2.4
-16 -6 -6 29.3 2.1
-16 6 -6 31.7 2.2
16 6 6 26.4 2.1
-16 6 -7 41 2.6
-16 -6 -7 34.5 2.5
16 6 7 38.1 2.6
-16 6 -8 44.6 2.9
-16 -6 -8 47.9 3
16 6 8 51.39 3
16 -6 8 50.09 3.2
-16 6 -9 1.5 0.7
16 -6 9 1.2 0.7
-16 -6 -9 1.3 0.6
16 6 9 1.6 0.7
16 -6 10 75.79 4.3
-16 6 -10 69.39 4
-16 -6 -10 67.19 3.9
16 6 10 68.49 4
-16 6 -11 4.2 0.8
-16 -6 -11 4.1 0.8
16 -6 11 3.5 0.9
16 6 11 3.4 0.7
-16 6 -12 59.59 3.5
16 -6 12 56.39 3.6
-16 6 -13 11.1 1.2
16 -6 13 11.3 1.4
-16 6 -14 10.2 1.2
16 -6 14 12.8 1.5
-16 6 -15 14.5 1.5
16 -6 15 19.3 1.7
16 -6 16 4.6 1
-16 6 -16 4.9 0.9
-16 -8 34 1.3 0.8
16 8 -34 0.6 0.7
16 8 -33 29.4 2.2
-16 -8 33 30.7 2.3
-16 -8 32 1.4 0.8
16 8 -32 0.5 0.6
-16 -8 30 1.6 0.8
16 8 -30 2.1 0.8
-16 -8 29 23.1 1.9
16 8 -29 19.2 1.8
-16 8 28 6.1 1
16 -8 -28 6.3 1
-16 -8 28 4.8 0.9
16 8 -28 5.3 1
-16 8 27 58.59 3.7
16 -8 -27 60.39 3.8
-16 -8 27 65.49 3.8
16 8 -27 63.39 3.8
-16 8 26 32.4 2.3
16 -8 -26 35.7 2.5
-16 -8 26 29.2 2.3
16 8 -26 25.3 2.2
-16 8 25 13.7 1.4
16 -8 -25 14.3 1.5
-16 -8 25 14.2 1.5
16 8 -25 17 1.6
16 8 -24 5.2 1
-16 8 24 3.6 0.9
16 -8 -24 4.2 0.9
-16 -8 24 4.9 1
-16 8 23 48.1 3
16 -8 -23 44.8 3.1
16 8 -22 2 0.8
16 -8 -22 2 0.8
-16 8 22 1.9 0.7
-16 -8 22 2.2 0.9
-16 8 21 8.7 1.1
16 8 -21 7.6 1.2
-16 -8 21 7.7 1.2
16 -8 -21 8.9 1.2
16 -8 -20 4.3 0.9
16 8 -20 2.7 0.8
-16 8 20 3.6 0.8
-16 -8 20 3 0.9
16 8 -19 5.1 0.9
16 -8 -19 4.3 0.9
-16 8 19 3.9 0.8
-16 -8 19 5.6 0.9
-16 8 18 10.1 1.2
-16 -8 18 11.5 1.4
16 -8 -18 11 1.3
16 8 -18 12.8 1.4
-16 8 17 41.4 2.7
16 -8 -17 39.9 2.8
-16 -8 17 35 2.7
16 8 -17 40.1 2.7
16 8 -16 3 0.8
16 -8 -16 3.3 0.9
-16 -8 16 2.7 0.8
-16 8 16 1.7 0.7
-16 8 15 30 2.1
16 -8 -15 23.2 2.1
-16 -8 15 24.8 2.1
16 8 -15 26.3 2.1
-16 8 14 3.2 0.8
16 -8 -14 2.9 0.8
-16 -8 14 4.3 0.9
16 8 -14 3.4 0.9
16 8 -13 29.7 2.3
-16 8 13 30.4 2.2
16 -8 -13 32.5 2.4
-16 -8 13 27.3 2.2
-16 8 12 12.6 1.3
16 8 -12 10 1.3
-16 -8 12 13 1.4
16 -8 -12 12.5 1.4
16 8 -11 8.7 1.1
-16 8 11 8.4 1.1
16 -8 -11 7.6 1.2
-16 -8 11 9.1 1.2
-16 8 10 18.2 1.6
16 -8 -10 15.3 1.6
-16 8 9 -0.5 0.7
16 -8 -9 0.7 0.8
-16 8 8 2 0.7
16 -8 -8 1.3 0.7
16 -8 -7 18.2 1.8
16 8 -7 20.7 1.7
-16 -8 7 18.8 1.7
-16 8 7 16.9 1.6
-16 8 6 1.5 0.7
16 8 -6 0.7 0.7
16 -8 -6 0.6 0.8
-16 -8 6 1.6 0.8
-16 8 5 7 1
16 -8 -5 6.5 1.1
16 8 -5 5.8 1.1
-16 -8 5 6.9 1.1
16 -8 -4 1 0.7
-16 8 4 0.9 0.5
-16 -8 4 1.7 0.7
-16 8 3 3.2 0.8
16 8 -3 0.8 0.7
-16 -8 3 1.4 0.8
16 -8 -3 1.6 0.8
16 8 -2 7 1.1
16 -8 -2 7.5 1.2
-16 -8 2 6.4 1
-16 8 2 5.3 0.9
-16 8 1 -0.2 0.6
16 -8 -1 0.1 0.8
16 8 -1 0.3 0.6
-16 -8 1 -0.1 0.7
16 -8 0 3.6 0.9
16 8 0 2.8 0.7
-16 -8 0 2.3 0.7
-16 8 0 2.5 0.7
-16 8 -1 0.4 0.6
16 -8 1 -0.1 0.8
16 8 1 0.4 0.6
-16 -8 -1 0.9 0.7
16 8 2 3.3 0.9
-16 -8 -2 4.2 1
16 8 3 9.8 1.3
-16 8 -3 14 1.4
16 -8 3 10.8 1.4
-16 -8 -3 9.5 1.2
16 -8 4 23.1 1.9
-16 8 -4 19.9 1.7
-16 -8 -4 23 1.8
16 -8 5 35.6 2.7
-16 8 -5 42.1 2.6
-16 -8 -5 34.4 2.5
16 8 5 35.4 2.6
16 -8 6 17.8 1.8
-16 8 -6 19.9 1.7
-16 -8 -6 17.1 1.7
16 8 6 18.6 1.8
16 -8 7 63.79 3.9
-16 8 -7 63.39 3.7
-16 -8 -7 59.29 3.7
16 8 7 61.09 3.7
16 -8 8 5.3 1
16 -8 9 0.2 0.7
-16 8 -9 1.7 0.8
-16 8 -10 37.4 2.7
16 -8 10 44.8 3
16 -8 11 11.2 1.4
-16 8 -11 11 1.3
16 -8 12 8.1 1.2
-16 8 -12 7.2 1.1
16 -8 13 10.5 1.4
-16 8 -13 9.8 1.3
16 -8 14 1.3 0.8
-16 8 -14 1.9 0.7
16 10 -28 8.7 1.1
-16 -10 28 8.3 1.2
16 10 -27 5.1 1
-16 -10 27 7.2 1.1
16 10 -26 1.1 0.6
-16 -10 26 1.4 0.7
-16 -10 25 9.9 1.3
16 10 -25 10.7 1.3
16 10 -24 3.9 1
16 -10 -24 4.1 0.9
-16 -10 24 5.6 1.1
-16 10 24 4.9 0.9
-16 10 23 1.9 0.7
16 10 -23 2 0.7
16 -10 -23 1.8 0.8
16 10 -22 1.5 0.6
-16 -10 22 1.9 0.8
16 -10 -22 3.1 0.9
-16 10 22 1.5 0.7
-16 -10 21 20.4 1.8
16 10 -21 23.1 1.9
16 10 -20 2.5 0.8
-16 -10 20 2.1 0.9
16 10 -19 6.5 1
-16 -10 19 4.1 0.9
-16 10 18 36.2 2.5
16 -10 -18 41.7 2.8
-16 -10 18 36.9 2.7
16 10 -18 37.4 2.6
-16 10 17 3.4 0.8
16 -10 -17 4 0.9
16 10 -17 1.9 0.7
-16 -10 17 2.7 0.8
-16 10 16 17.9 1.7
16 -10 -16 21.6 1.9
-16 -10 16 20.2 1.9
16 10 -16 23.7 1.9
-16 10 15 12.8 1.3
16 -10 -15 14.8 1.5
-16 10 14 8.8 1.2
16 -10 -14 8.7 1.2
16 10 -14 9.6 1.3
-16 -10 14 7.9 1.2
16 -10 -13 2.2 0.9
16 10 -13 1.1 0.8
-16 -10 13 1 0.7
16 10 -12 12.8 1.3
-16 10 12 9.7 1.2
16 -10 -12 9.6 1.2
-16 -10 12 8.2 1.2
16 10 -11 12.3 1.4
-16 10 11 12.2 1.3
16 -10 -11 13.3 1.5
-16 -10 11 11.1 1.4
-16 10 10 0.9 0.7
16 -10 -10 0.4 0.8
16 10 -10 1 0.7
-16 -10 10 0.5 0.6
-16 10 9 10.2 1.2
16 10 -9 9.7 1.2
16 -10 -9 10.1 1.3
-16 -10 9 8.7 1.2
-16 10 8 92.89 5.3
16 -10 -8 92.29 5.4
16 10 -8 103.39 5.4
-16 -10 8 103.79 5.5
-16 10 7 10.7 1.2
16 -10 -7 11.5 1.4
16 10 -7 10.4 1.3
-16 -10 7 10.1 1.3
16 -10 -6 68.29 3.9
-16 10 6 60.09 3.7
-16 -10 6 63.29 3.8
16 10 -6 59.99 3.8
-16 10 5 2.8 0.8
16 10 -5 2.5 0.8
16 -10 -5 4.1 1
-16 -10 5 4.8 1
-16 10 4 1.9 0.7
16 -10 -4 2.8 0.9
16 10 -4 1.8 0.8
-16 -10 4 3.1 0.9
-16 10 3 1.5 0.7
16 -10 -3 2.3 0.9
16 10 -3 0.6 0.7
-16 -10 3 1.9 0.8
16 -10 -2 51.29 3.4
-16 10 2 52.39 3.2
16 10 -2 50.99 3.3
-16 -10 2 50.59 3.3
-16 10 1 4.3 0.8
16 -10 -1 5.5 1
16 10 -1 4.8 1
-16 -10 1 3.5 0.9
16 -10 0 33.4 2.7
16 10 0 29.6 2.5
-16 -10 0 28.3 2.5
16 -10 1 0.1 0.8
16 -10 2 36.6 2.8
-16 10 -2 43.2 2.8
16 -10 5 2.9 1
16 -10 6 8.2 1.3
-16 10 -6 9.5 1.2
16 -10 7 0.1 0.8
-16 10 -7 2 0.8
-16 10 -8 58.09 3.7
16 -10 8 66.79 3.9
-16 10 -9 0.3 0.6
16 -10 9 0.8 0.8
-16 10 -10 27.9 2.1
16 -10 10 29.1 2.3
-16 10 -11 3 0.8
16 -10 11 3.5 0.9
-16 10 -12 13.8 1.4
16 -10 12 14.2 1.5
16 12 -5 1.6 0.7
-16 -12 5 3.2 0.8
16 12 -4 1.7 0.7
-16 -12 4 3.1 0.8
16 12 -3 11.2 1.3
17 1 -37 2.2 0.8
-17 -1 37 3.6 0.8
-17 -1 36 220.28 11.1
17 -1 -36 248.78 11.4
-17 1 36 236.08 11.2
17 1 -36 209.38 11.1
17 1 -35 3.3 0.8
-17 1 35 2.4 0.7
-17 -1 35 2.1 0.7
17 -1 -35 2 0.7
-17 -1 34 65.29 3.8
17 1 -34 62.19 3.8
-17 -1 33 1.9 0.7
17 1 -33 1.3 0.7
17 -1 -33 0.7 0.7
-17 1 32 1.2 0.6
17 -1 -32 0.8 0.6
-17 1 31 13.6 1.4
17 -1 -31 14.6 1.4
17 1 -30 371.36 17.7
-17 1 30 391.66 17.7
-17 -1 30 385.16 17.7
17 -1 -30 353.46 17.7
-17 1 29 3.4 0.9
-17 -1 29 3.1 0.9
17 1 -29 3.2 0.9
17 -1 -29 3.5 0.9
17 1 -28 645.14 29.6
-17 -1 28 586.24 29.5
17 -1 -28 627.04 29.6
17 1 -27 1.6 0.7
-17 1 27 1.1 0.6
-17 -1 27 0.5 0.6
17 -1 -27 0.6 0.6
17 1 -26 940.31 43.8
-17 1 26 947.51 43.7
-17 -1 26 974.1 43.8
17 -1 -26 982 43.9
-17 1 25 61.49 3.4
17 1 -25 54.19 3.4
-17 -1 25 59.49 3.4
17 -1 -25 56.09 3.4
17 1 -24 10.5 1.1
-17 1 24 9.5 1.1
17 -1 -24 8 1.1
17 1 -23 130.89 7.1
-17 -1 23 150.08 7.2
-17 1 23 142.19 7.1
17 -1 -23 143.79 7.3
17 1 -22 86.99 4.6
-17 1 22 75.39 4.5
-17 -1 22 92.19 4.7
17 -1 -22 86.99 4.7
-17 -1 21 16.1 1.4
-17 1 21 14.2 1.3
17 1 -21 14.3 1.4
17 -1 -21 12.6 1.3
17 1 -20 471.65 23.4
-17 1 20 502.45 23.4
-17 -1 20 534.95 23.5
17 -1 -20 515.05 23.5
17 1 -19 19.3 1.6
-17 -1 19 21.6 1.6
17 -1 -19 23 1.7
-17 -1 18 1557.64 67.79
17 1 -18 1645.94 67.89
17 -1 -18 1481.25 67.79
-17 1 17 128.29 6.7
-17 -1 17 137.69 6.8
17 1 -17 127.39 6.8
17 -1 -17 149.59 7
17 1 -16 514.85 21.8
-17 1 16 472.55 21.7
-17 -1 16 522.95 21.7
-17 -1 15 16.6 1.4
17 1 -15 15.6 1.4
17 1 -12 1283.97 54.19
-17 1 12 1200.68 54.09
-17 -1 12 1125.69 54.09
17 -1 -12 1185.18 54.19
-17 1 11 9.9 1.3
17 -1 -11 11.1 1.4
17 1 -11 12.5 1.3
-17 1 10 1844.42 85.19
-17 -1 10 1941.11 85.19
17 1 -10 1964.3 85.29
17 -1 -10 1824.82 85.29
17 1 -9 28.3 2
-17 1 9 30 2
-17 -1 9 34.7 2.1
17 -1 -9 32.4 2.1
17 1 -8 1129.89 52.69
-17 1 8 1165.68 52.59
-17 -1 8 1240.58 52.69
17 -1 -8 1116.29 52.69
-17 1 7 5.5 0.8
17 1 -7 5 0.8
-17 -1 7 7.2 0.8
17 -1 -7 6.5 0.9
-17 1 6 106.19 5.2
-17 -1 6 102.19 5.2
17 -1 -6 102.79 5.3
17 1 -6 95.79 5.2
-17 1 5 29 1.8
-17 -1 5 24.6 1.8
17 1 -5 27.6 1.9
17 -1 -5 25 1.9
17 1 -4 159.18 7.8
-17 1 4 164.38 7.8
-17 -1 4 168.38 7.8
17 -1 -4 145.59 7.8
-17 1 3 39.5 2.3
-17 -1 3 38.3 2.3
17 -1 -3 36.6 2.4
17 1 -3 37.8 2.3
17 1 -2 1972.3 87.19
-17 1 2 2009.2 87.19
-17 -1 2 1821.02 87.09
17 -1 -2 1967.8 87.29
17 1 -1 11.7 1.2
-17 1 1 14.5 1.2
-17 -1 1 13.4 1.2
17 -1 -1 12.7 1.2
-17 -1 0 1743.93 80.29
-17 1 0 1758.82 80.29
17 1 0 1862.61 80.39
-17 1 -1 85.69 4.2
-17 -1 -1 73.09 4
17 -1 1 79.29 4.2
17 1 1 79.29 4.2
-17 1 -2 819.72 37.9
-17 -1 -2 839.32 37.9
17 -1 2 861.01 38.1
17 1 2 830.82 38
17 -1 3 282.97 13.1
-17 1 -3 282.17 12.9
-17 -1 -3 280.37 12.9
17 1 3 260.67 12.9
-17 1 -4 4.4 0.6
-17 -1 -4 4.3 0.6
17 -1 4 5.9 0.8
17 1 4 4.2 0.7
-17 1 -5 108.09 5.4
-17 -1 -5 111.99 5.4
17 -1 5 104.29 5.5
17 1 5 110.39 5.4
-17 -1 -6 441.26 21.8
-17 1 -6 506.45 21.9
17 -1 6 477.15 22
17 1 6 496.15 21.9
-17 1 -7 4.5 0.6
-17 -1 -7 4.6 0.6
17 -1 7 5.4 0.7
17 1 7 4.4 0.6
-17 1 -8 892.81 39.5
-17 -1 -8 798.02 39.3
17 -1 8 955.2 39.6
17 1 8 882.61 39.4
-17 1 -9 121.49 6.1
17 -1 9 128.99 6.2
-17 1 -10 1172.78 52.29
17 -1 10 1310.57 52.49
17 1 10 1247.98 52.19
-17 1 -11 72.69 3.6
17 1 11 66.39 3.4
-17 -1 -11 64.89 3.3
-17 1 -12 181.88 7.1
17 1 12 173.28 6.9
17 -1 12 175.38 7.2
-17 1 -13 7.4 0.7
17 -1 13 10.5 0.8
-17 1 -15 16 1
17 -1 15 14.3 1
-17 1 -16 449.56 21.5
17 -1 16 505.95 21.5
-17 -3 37 44.1 2.9
17 3 -37 41.5 2.9
17 3 -36 108.59 5.9
-17 -3 36 109.39 5.9
17 3 -35 57.79 3.7
-17 3 35 63.49 3.7
-17 -3 35 59.09 3.7
17 -3 -35 62.99 3.8
-17 -3 34 87.99 4.7
17 -3 -34 80.69 4.6
17 3 -34 80.39 4.6
-17 3 34 75.99 4.5
17 3 -33 77.39 4.4
-17 3 33 79.39 4.4
-17 -3 33 75.59 4.4
17 -3 -33 73.39 4.4
-17 3 32 6.3 1
17 3 -32 5.7 1
-17 -3 32 6.5 1
17 -3 -32 6.5 1
-17 -3 31 1 0.7
17 3 -31 0.9 0.6
17 3 -30 49.6 3.2
-17 -3 30 58.79 3.4
-17 3 29 70.89 4.2
17 3 -29 70.99 4.2
-17 -3 29 78.99 4.3
17 -3 -29 74.39 4.3
-17 3 28 240.58 11.7
17 3 -28 239.88 11.8
-17 -3 28 230.98 11.7
17 -3 -28 256.37 11.9
17 3 -27 57.59 3.5
-17 3 27 60.99 3.5
-17 -3 27 51.49 3.4
17 -3 -27 60.69 3.6
-17 3 26 387.16 18.1
17 -3 -26 381.66 18.2
17 -3 -25 205.38 10.8
-17 3 25 230.68 10.8
17 3 -25 235.48 10.9
-17 -3 25 217.88 10.8
-17 3 24 119.99 6.1
17 3 -24 113.49 6.2
-17 -3 24 118.99 6.2
17 -3 -24 116.99 6.2
17 -3 -23 7.5 1
-17 3 23 7.3 1
17 3 -23 6.5 1
-17 -3 23 6.3 1
17 3 -22 4.4 0.9
-17 3 22 4.1 0.7
-17 -3 22 3.4 0.9
17 -3 -22 2.9 0.8
17 3 -21 19.9 1.7
-17 -3 21 22 1.7
-17 3 21 20 1.6
-17 3 20 530.65 23.1
-17 -3 20 494.35 23.1
17 3 -20 478.35 23.1
17 -3 -20 484.75 23.2
-17 3 19 2.4 0.6
-17 -3 19 1.9 0.7
17 3 -19 1.7 0.7
17 -3 -19 2.9 0.8
-17 3 18 1333.77 59.59
17 -3 -18 1296.37 59.69
-17 -3 18 1381.56 59.69
17 3 -18 1257.67 59.59
-17 3 17 94.59 4.9
17 3 -17 85.49 4.8
17 -3 -17 90.09 4.9
-17 -3 17 90.79 4.9
-17 3 16 366.96 15.9
17 -3 -16 340.57 16
-17 -3 16 367.06 16
-17 -3 15 166.98 8.5
-17 3 15 170.38 8.5
17 3 -15 186.38 8.6
17 -3 -15 163.88 8.5
-17 3 14 53.39 3.2
17 3 -14 52.09 3.2
17 -3 -14 56.79 3.3
-17 -3 14 55.49 3.2
-17 3 13 11.7 1.2
17 3 -13 12.9 1.2
17 -3 -13 12.3 1.4
-17 -3 13 10.6 1.1
-17 3 12 777.62 31.3
17 3 -12 630.74 31.2
17 -3 -12 617.24 31.3
-17 -3 12 715.93 31.3
17 3 -11 26.7 1.9
17 -3 -11 26.6 2
-17 -3 11 26 1.9
-17 3 11 23.5 1.8
-17 3 10 853.51 42.6
17 -3 -10 944.71 42.8
17 3 -10 938.91 42.6
-17 -3 10 1029.9 42.7
-17 3 9 120.79 6.3
17 -3 -9 116.89 6.4
17 3 -9 126.49 6.4
-17 -3 9 135.69 6.4
17 -3 -8 677.13 28.2
17 3 -8 620.84 28
-17 -3 8 625.74 28
-17 3 7 362.86 15.7
17 -3 -7 303.27 15.7
-17 3 6 318.77 15.2
17 -3 -6 329.07 15.3
-17 3 5 325.17 14.9
17 -3 -5 310.27 15
17 3 -5 319.37 14.9
-17 -3 5 312.67 14.9
-17 3 4 45.1 2.7
17 -3 -4 42.4 2.7
17 3 -4 42.4 2.6
-17 -3 4 42.8 2.6
-17 3 3 77.69 4.1
17 -3 -3 72.29 4.1
-17 -3 3 73.79 4
-17 3 2 941.11 39.5
17 3 -2 934.31 39.5
-17 -3 2 946.61 39.5
-17 -3 1 4.9 0.8
17 3 -1 2.6 0.6
17 3 0 667.63 30.3
-17 -3 0 655.73 30.2
17 3 1 37.7 2.3
-17 -3 -1 35.9 2.3
17 3 2 205.38 9.7
-17 -3 -2 196.48 9.6
-17 -3 -3 84.19 4.3
17 3 3 80.59 4.3
17 3 4 120.79 6
-17 -3 -4 117.69 5.9
17 3 5 118.89 6.4
-17 -3 -5 143.09 6.5
17 3 6 13.5 1.2
-17 -3 -6 16.4 1.2
17 3 7 10.4 1
-17 -3 -7 10.7 0.9
17 3 8 392.46 18.5
-17 -3 -8 411.96 18.5
17 3 9 29.9 1.9
-17 3 -9 33.7 2.1
-17 -3 -9 32 1.9
17 -3 10 572.34 25
-17 -3 -10 535.35 24.5
-17 3 -10 543.95 24.8
17 3 10 521.35 24.6
-17 3 -11 48.8 2.8
17 -3 11 45.2 2.9
-17 3 -12 259.77 11.8
17 3 12 247.48 11.5
-17 -3 -12 232.28 11.4
17 -3 13 60.99 2.9
-17 3 -13 52.09 2.6
-17 -3 -13 37 2
17 3 13 38.9 2.1
17 -3 14 140.49 7
-17 3 -14 134.09 6.8
-17 3 -15 20.6 1.5
17 -3 15 19.1 1.6
-17 3 -16 86.09 4.7
17 -3 16 97.19 4.9
-17 -5 37 16.1 1.6
-17 -5 36 28.5 2.2
17 5 -36 28.6 2.2
17 5 -35 96.39 5.4
-17 -5 35 97.59 5.4
17 5 -34 22.3 1.9
-17 -5 34 20.2 1.8
17 -5 -33 133.89 7.5
17 5 -33 144.29 7.5
-17 -5 33 152.48 7.6
-17 5 33 148.09 7.5
-17 5 32 1.3 0.7
17 -5 -32 0.4 0.7
17 5 -32 0.5 0.6
-17 -5 32 0.8 0.7
-17 5 31 12 1.3
17 -5 -31 10.7 1.3
17 5 -31 10.6 1.3
-17 -5 31 11.4 1.3
-17 5 30 3.5 0.8
17 -5 -30 3.6 0.9
-17 5 29 41.2 2.7
17 5 -29 34.1 2.6
-17 -5 29 36.6 2.6
-17 5 28 118.29 6.1
17 -5 -28 116.09 6.2
17 5 -28 109.79 6.1
-17 -5 28 117.19 6.2
-17 5 27 105.29 5.8
17 -5 -27 109.09 5.9
17 5 -27 113.09 5.9
-17 -5 27 106.79 5.9
-17 5 26 140.89 7.4
17 -5 -26 158.98 7.6
17 5 -26 139.99 7.4
-17 -5 26 140.59 7.5
17 -5 -25 218.28 11.4
-17 5 25 243.38 11.3
17 -5 -24 13.5 1.4
-17 -5 24 12.2 1.4
17 5 -24 16.3 1.5
-17 5 24 11.3 1.3
17 -5 -23 18.6 1.7
-17 -5 23 21.8 1.8
17 5 -23 21.1 1.8
-17 5 23 17.1 1.6
-17 5 22 70.89 4
17 -5 -22 69.29 4.1
-17 -5 22 62.69 3.9
17 5 -22 75.39 4.1
17 -5 -21 3 0.8
-17 -5 21 3.2 0.8
17 5 -21 2.5 0.8
-17 5 21 3 0.7
-17 -5 20 39.3 2.6
17 5 -20 39.6 2.6
-17 -5 19 18.7 1.7
17 5 -19 22 1.8
-17 -5 18 105.89 5.5
17 5 -18 97.59 5.4
-17 5 17 33 2.3
17 5 -17 32.8 2.3
17 -5 -17 37.3 2.5
-17 -5 17 32.1 2.3
-17 5 16 332.37 16
17 -5 -16 345.07 16.2
-17 5 15 180.88 8.8
17 -5 -15 171.18 8.9
-17 5 14 81.59 4.7
17 -5 -14 90.69 4.9
-17 -5 14 87.99 4.8
17 5 -14 87.39 4.8
-17 5 13 145.39 7
17 -5 -13 125.49 7
-17 -5 13 130.69 7
17 5 -13 145.69 7.1
17 5 -12 1.7 0.7
-17 5 12 3.1 0.7
-17 -5 12 1.6 0.7
-17 5 11 93.29 5
17 -5 -11 94.09 5.2
-17 -5 11 87.49 5.1
17 5 -11 100.79 5.2
17 -5 -10 378.36 16.8
-17 5 10 352.56 16.6
-17 -5 10 347.67 16.7
17 5 -10 334.87 16.6
17 -5 -9 51.69 3.5
-17 -5 9 56.09 3.4
17 5 -9 61.59 3.5
-17 5 9 63.99 3.5
-17 5 8 45.7 2.8
17 -5 -8 44.3 2.9
-17 -5 8 41.2 2.8
17 5 -8 46 2.9
-17 5 7 100.99 5.6
17 -5 -7 109.49 5.7
-17 -5 7 106.39 5.6
17 5 -7 107.79 5.6
-17 5 6 124.69 6
17 -5 -6 107.29 6
-17 -5 6 104.79 5.9
17 5 -6 117.89 6
-17 5 5 112.29 5.7
17 -5 -5 103.49 5.8
-17 5 4 109.39 5.6
17 -5 -4 116.19 5.8
-17 -5 4 103.29 5.6
17 5 -4 97.19 5.5
-17 5 3 365.16 16
17 -5 -3 311.87 16
-17 -5 3 336.37 15.9
17 5 -3 336.67 16
-17 5 2 155.78 7.8
17 -5 -2 159.98 7.9
-17 -5 2 154.58 7.8
17 5 -2 147.49 7.7
17 -5 -1 126.19 6.9
-17 -5 1 127.29 6.7
-17 5 1 136.99 6.8
17 5 -1 133.29 6.7
-17 5 0 92.59 4.7
-17 -5 0 85.79 4.6
17 5 0 89.09 4.7
17 -5 0 74.49 4.7
-17 -5 -1 19.8 1.6
17 5 1 22.2 1.7
-17 5 -2 203.88 10.4
-17 -5 -2 200.08 10.3
17 5 2 219.28 10.4
17 -5 3 103.29 5.4
-17 5 -3 101.19 5.3
-17 -5 -3 89.89 5.1
17 5 3 99.09 5.2
-17 5 -4 15.8 1.4
17 -5 4 16.3 1.5
-17 -5 -4 14 1.3
17 5 4 14.9 1.4
-17 5 -5 104.79 5.8
17 -5 5 110.99 6
-17 -5 -5 110.39 5.8
17 5 5 120.79 5.9
-17 5 -6 58.99 3.4
17 -5 6 58.59 3.6
-17 5 -7 8.1 1.2
17 -5 7 8.7 1.4
17 -5 8 164.88 8.5
-17 5 -8 170.08 8.3
17 5 8 161.98 8.2
-17 -5 -8 167.48 8.2
-17 5 -9 12.2 1.3
17 -5 9 12.1 1.5
17 5 9 12.3 1.2
-17 -5 -9 13.8 1.2
-17 5 -10 260.67 12.1
17 -5 10 259.37 12.3
17 5 10 243.78 12
-17 -5 -10 247.58 11.9
17 -5 11 17.8 1.6
-17 5 -11 16.7 1.4
17 5 11 12.8 1.2
-17 -5 -11 13 1.2
17 -5 12 63.19 3.6
-17 5 -12 54.19 3.3
17 5 12 53.59 3.2
17 -5 13 15.5 1.6
17 -5 14 1.6 0.7
-17 5 -14 0.9 0.6
-17 5 -15 35.2 2.4
17 -5 15 35.7 2.6
17 -5 16 65.69 3.9
-17 -7 34 9.6 1.3
17 7 -34 8.8 1.2
17 7 -33 41.1 2.8
-17 -7 33 44.7 3
17 7 -32 13.1 1.3
-17 -7 32 12 1.4
-17 -7 31 0.5 0.6
17 7 -31 1.7 0.7
-17 7 30 14.4 1.4
17 -7 -30 10.2 1.3
-17 -7 30 13.4 1.4
17 7 -30 13.2 1.4
17 -7 -29 53.99 3.4
-17 7 29 49.8 3.2
-17 7 28 0.1 0.6
17 -7 -28 0.6 0.7
-17 -7 28 0.4 0.6
17 7 -28 0.1 0.5
17 -7 -27 20.9 1.9
-17 7 27 22.1 1.9
-17 -7 27 22.3 1.9
17 7 -27 25.6 2
17 -7 -26 17.2 1.7
-17 -7 26 17.5 1.6
17 7 -26 16.6 1.6
-17 7 26 17 1.6
17 -7 -25 46 3
-17 -7 25 41.5 2.9
-17 7 25 42.7 2.9
-17 -7 24 29.2 2.2
17 7 -24 25.9 2.1
-17 -7 23 23.8 1.9
17 7 -23 20.3 1.8
17 7 -22 3.9 0.8
-17 -7 22 4.7 0.9
17 7 -21 1.2 0.7
17 -7 -21 1.9 0.8
-17 7 21 2.7 0.7
-17 -7 21 2.5 0.8
17 -7 -20 0.9 0.7
-17 7 20 1 0.6
-17 -7 20 1.8 0.8
17 7 -20 0.8 0.8
-17 7 19 14 1.4
17 -7 -19 13.7 1.5
-17 -7 19 12.9 1.4
17 7 -19 13.6 1.5
17 -7 -18 6.9 1.1
-17 7 18 5.1 1
-17 7 17 89.79 5
17 7 -16 1.3 0.6
-17 7 16 1.4 0.7
17 -7 -16 2.2 0.8
-17 -7 16 0.7 0.6
-17 7 15 68.39 4.2
17 -7 -15 77.59 4.4
-17 -7 15 69.59 4.2
17 7 -15 80.59 4.4
17 -7 -14 3 0.9
17 7 -14 2.4 0.8
-17 7 14 4.1 0.9
-17 -7 14 2.5 0.7
17 -7 -13 10.4 1.3
-17 7 13 11.7 1.3
-17 -7 13 11 1.3
17 7 -13 13.5 1.4
-17 7 12 22 1.9
17 -7 -12 21.2 1.9
-17 -7 12 24.6 1.9
17 7 -12 20.6 1.8
-17 7 11 32.5 2.4
17 -7 -11 38.7 2.6
-17 -7 11 37.3 2.5
17 7 -11 37.9 2.6
17 -7 -10 27.9 2.2
-17 7 10 24.7 2
-17 -7 10 28.9 2.1
17 7 -10 24.8 2
-17 7 9 75.29 4.5
-17 -7 9 79.49 4.5
17 -7 -9 76.69 4.6
17 7 -9 89.59 4.7
-17 7 8 27.9 2
17 -7 -8 23.7 2
-17 -7 8 23.5 2
17 7 -8 27.7 2.1
-17 7 7 63.59 4
17 -7 -7 74.99 4.2
-17 -7 7 74.19 4.2
-17 7 6 21.9 1.8
17 -7 -6 19.3 1.9
-17 -7 6 22.6 1.9
17 7 -6 22.2 1.8
-17 7 5 36.9 2.5
17 -7 -5 41.3 2.7
-17 -7 5 35.5 2.6
17 7 -5 33.3 2.5
17 7 -4 1.1 0.7
-17 7 4 1.6 0.7
17 -7 -4 0.5 0.7
-17 -7 4 1 0.7
-17 7 3 21.7 1.9
17 -7 -3 21.7 2
-17 -7 3 26.8 2
17 7 -3 29.2 2.1
-17 7 2 11.1 1.3
17 -7 -2 13.1 1.5
-17 -7 2 12.3 1.3
17 7 -2 11.8 1.3
-17 7 1 18 1.6
17 -7 -1 18.4 1.8
-17 -7 1 19.4 1.7
17 7 -1 20.6 1.8
-17 7 0 10.3 1.2
17 -7 0 11 1.4
-17 -7 0 12.3 1.3
17 7 0 13.2 1.4
17 -7 1 1.8 0.9
17 7 1 3.4 0.8
-17 7 -2 31.9 2.3
17 -7 2 36.2 2.6
-17 7 -3 32.4 2.2
17 -7 3 29.8 2.3
-17 7 -4 10.9 1.2
17 -7 4 10.9 1.4
-17 7 -5 27.4 2.1
17 -7 5 29.8 2.3
-17 -7 -5 29.8 2.2
17 7 5 27.6 2.2
-17 7 -6 1.4 0.6
17 -7 6 0.2 0.7
17 7 6 0.6 0.6
-17 -7 -6 1 0.6
-17 7 -7 10.7 1.3
17 -7 7 13.7 1.5
-17 -7 -7 14.4 1.4
17 7 7 12.5 1.4
17 -7 8 13.9 1.6
-17 7 -8 15 1.5
-17 -7 -8 17.8 1.6
17 7 8 18.4 1.6
-17 7 -9 0.8 0.6
17 -7 9 1 0.8
17 -7 10 22.3 2
-17 7 -11 0.2 0.5
17 -7 11 1.3 0.7
-17 -9 33 22.2 1.9
17 9 -33 25.7 2
-17 -9 32 0.7 0.6
17 9 -32 0.9 0.6
-17 -9 31 -0.2 0.6
17 9 -31 0.2 0.5
-17 -9 29 26.2 2.1
17 9 -29 32.7 2.3
-17 -9 28 15 1.5
17 9 -28 13 1.4
-17 -9 27 77.89 4.5
17 9 -27 79.59 4.5
17 9 -26 0.1 0.7
-17 9 26 0.2 0.5
-17 -9 26 0.5 0.8
17 -9 -26 0.1 0.6
-17 9 25 14.1 1.4
17 -9 -25 16.9 1.6
-17 -9 25 12.3 1.5
-17 9 24 0.2 0.7
17 -9 -24 -0.8 0.7
17 9 -23 2.6 0.9
-17 9 23 3.6 0.9
17 -9 -23 4.3 1
-17 -9 23 3.5 0.9
17 9 -22 3.8 0.9
-17 9 22 3.8 0.9
17 -9 -22 4.2 1
-17 -9 22 3.7 0.9
-17 9 21 22.1 1.9
17 -9 -21 22.8 2
-17 -9 21 22.2 1.9
17 9 -21 22.5 1.9
17 -9 -20 1.6 0.8
-17 -9 20 0.2 0.7
-17 9 20 0.7 0.7
17 9 -20 1.1 0.7
-17 9 19 9.1 1.2
17 -9 -19 11.2 1.4
17 9 -19 8.9 1.2
-17 -9 19 11.3 1.3
-17 9 18 10.2 1.2
17 -9 -18 11.8 1.4
-17 -9 18 10.2 1.3
17 9 -18 10.8 1.2
17 -9 -17 28 2.2
-17 9 17 26.1 2
-17 -9 17 24.6 2.1
17 9 -17 25 2.1
17 9 -16 0.4 0.5
-17 -9 16 1.1 0.6
17 9 -15 1.7 0.8
-17 -9 15 3.6 0.9
-17 -9 12 24.5 2
17 9 -12 20.7 1.9
-17 9 11 0.7 0.7
17 -9 -11 1.1 0.8
17 9 -11 2.5 0.7
-17 -9 11 1.4 0.7
17 -9 -10 16.2 1.6
-17 9 10 14.9 1.5
17 9 -9 19.8 1.8
-17 9 9 21.9 1.8
17 -9 -9 25.1 2
-17 -9 9 21 1.9
17 9 -8 10.7 1.3
-17 9 8 7.3 1.1
17 -9 -8 11 1.4
-17 -9 8 10.9 1.3
-17 9 7 7.5 1.1
17 -9 -7 8.5 1.2
17 9 -7 7.2 1.1
-17 -9 7 7.8 1.2
17 -9 -6 -0.1 0.8
-17 9 6 0.6 0.6
17 9 -6 -0.3 0.6
-17 -9 6 1.2 0.6
17 -9 -5 1.7 0.8
17 9 -5 1.3 0.7
-17 -9 5 1.1 0.6
-17 9 5 0.1 0.6
17 9 -4 4.9 0.9
-17 9 4 5.7 0.9
-17 -9 4 5.6 1
17 -9 -4 4.5 1
17 9 -3 1 0.7
-17 -9 3 0.6 0.6
17 9 -2 4.4 0.9
-17 -9 2 4 0.9
17 9 -1 8 1.1
-17 -9 1 5.8 1
17 9 0 6.5 1.1
-17 -9 0 6.4 1.1
17 9 1 0.2 0.6
-17 -9 -1 1.6 0.7
17 -9 2 24.6 2.2
-17 9 -2 27.7 2.1
-17 -9 -2 26.7 2.1
17 9 2 28.3 2.2
-17 9 -3 1.4 0.6
17 -9 3 3.5 1
17 9 3 2.8 0.9
-17 -9 -3 2.9 0.9
-17 9 -4 2.4 0.7
17 9 4 2.1 0.8
17 -9 4 4.2 1
-17 -9 -4 3.3 0.9
17 -9 5 4.3 1
-17 9 -6 3.5 0.8
17 -9 6 3.8 1
17 -9 7 2 0.9
-17 9 -7 2.6 0.8
-17 9 -8 14.1 1.4
17 -9 8 15.3 1.6
17 -9 9 3.1 0.9
-17 9 -9 2 0.7
17 -9 10 6.8 1.2
-17 9 -10 8 1.1
17 -9 11 2.5 0.9
-17 9 -11 3.6 0.8
17 -9 12 1.4 0.9
-17 9 -12 2.8 0.8
-17 11 22 1 0.7
-17 11 21 0.3 0.6
17 -11 -21 -0.3 0.7
17 -11 -20 43.4 2.9
-17 11 20 39.7 2.7
-17 11 19 0.6 0.7
17 -11 -19 0.7 0.7
17 11 -19 0.7 0.7
-17 -11 19 1.2 0.7
17 -11 -18 55.49 3.5
-17 11 18 46.9 3.2
-17 -11 18 54.29 3.4
17 11 -18 58.09 3.4
-17 11 17 5.7 1
17 -11 -17 8.3 1.2
17 11 -17 6.7 1.1
-17 -11 17 4 1
-17 11 16 8.3 1.1
17 -11 -16 10.4 1.3
-17 -11 16 11.2 1.3
17 11 -16 11.1 1.2
-17 11 15 4 0.8
17 -11 -15 2.6 0.8
17 11 -15 2.9 0.8
-17 -11 15 3.2 0.9
17 -11 -14 16.4 1.6
-17 11 14 14.2 1.4
-17 -11 14 13.2 1.5
17 11 -14 14.2 1.5
17 11 -11 1.7 0.8
-17 -11 11 0.6 0.7
17 11 -10 3.6 0.9
-17 -11 10 4.3 0.9
-17 -11 9 57.79 3.6
17 11 -9 56.79 3.5
17 11 -8 19.3 1.8
-17 -11 8 21 1.8
17 11 -7 23.4 1.9
-17 -11 7 20 1.9
17 11 -6 2.9 0.9
-17 -11 6 2.2 0.8
17 11 -5 12 1.3
-17 -11 5 6.8 1.1
17 11 -4 0.3 0.7
-17 -11 4 -0.3 0.7
17 -11 -3 27.2 2.2
17 11 -3 29.1 2.2
-17 -11 3 31.7 2.3
17 11 -2 52.49 3.2
-17 11 2 46.9 3
-17 -11 2 45.5 3
17 -11 -2 40 3
17 -11 -1 7.7 1.2
17 11 -1 7.2 1.1
-17 -11 1 5.7 1.1
-17 11 1 6.9 1.1
-17 11 0 28.4 2.2
17 -11 0 32.3 2.4
17 -11 1 1.2 0.8
-17 11 -1 1.3 0.6
-17 11 -2 26.8 2.1
17 -11 2 26.8 2.2
-17 11 -3 1.7 0.7
17 -11 3 -0.7 0.9
17 -11 4 1.3 0.9
-17 11 -4 0.8 0.7
17 -11 5 4.1 1.1
-17 11 -5 3.8 0.9
-17 11 -6 24.3 2
17 -11 6 25.1 2.1
17 -11 7 2.9 0.9
-17 11 -7 1.4 0.7
-17 11 -8 34.8 2.5
17 -11 8 38.8 2.7
-18 0 37 0.4 0.6
18 0 -37 0.2 0.6
-18 0 36 61.09 3.6
18 0 -36 58.19 3.7
-18 0 35 0.5 0.6
18 0 -35 0.1 0.5
-18 0 34 20.9 1.9
18 0 -34 28.6 2.2
-18 0 33 -0.1 0.6
18 0 -33 -0.3 0.6
-18 0 30 594.64 26.7
18 0 -30 556.84 26.7
18 0 -29 0.6 0.6
-18 0 29 -0.1 0.6
-18 0 28 653.73 31.9
18 0 -28 744.23 32.1
18 0 -27 0.1 0.6
-18 0 27 0.3 0.5
-18 0 26 304.47 14
18 0 -26 280.87 14
18 0 -25 -0.1 0.6
-18 0 25 0.4 0.6
18 0 -24 127.29 6.6
-18 0 23 0.2 0.6
18 0 -23 0.5 0.6
-18 0 22 36.4 2.6
18 0 -22 51.09 2.8
18 0 -21 -0.1 0.5
-18 0 21 0.3 0.6
-18 0 20 308.87 15.1
18 0 -20 333.57 15.2
18 0 -19 0.1 0.6
-18 0 19 0.1 0.5
-18 0 18 540.65 25.3
18 0 -18 554.04 25.3
18 0 -17 -0.2 0.6
-18 0 17 -0.2 0.6
-18 0 16 145.99 7.6
18 0 -16 164.88 7.8
18 0 -15 -0.1 0.6
-18 0 15 -0.1 0.5
-18 0 14 468.85 20.5
18 0 -14 411.46 20.5
18 0 -11 1.1 0.7
-18 0 11 0.1 0.5
-18 0 10 2442.56 106.59
18 0 -10 2294.57 106.59
18 0 -9 0.1 0.4
-18 0 9 0.2 0.4
-18 0 8 238.78 10.6
18 0 -8 199.88 10.6
18 0 -7 -0.1 0.5
-18 0 7 0.1 0.5
-18 0 6 46.4 3.1
18 0 -6 55.79 3.1
-18 0 5 0.1 0.5
18 0 -5 0.4 0.5
-18 0 4 199.38 9.4
18 0 -4 193.38 9.5
-18 0 3 0.2 0.4
18 0 -3 0.1 0.5
18 0 -2 1070.89 48.6
-18 0 1 0.2 0.4
18 0 -1 0.1 0.5
-18 0 0 2221.88 98.09
18 0 0 2135.89 98.19
-18 0 -1 0.2 0.4
18 0 1 1 0.5
-18 0 -2 895.51 40.3
18 0 2 881.51 40.4
-18 0 -3 -0.1 0.3
18 0 3 0.1 0.4
-18 0 -4 1.6 0.5
18 0 4 1.3 0.5
-18 0 -5 0.3 0.4
18 0 5 0.3 0.5
-18 0 -6 474.65 22.5
18 0 6 512.65 22.6
-18 0 -7 0.3 0.3
18 0 7 0.1 0.4
-18 0 -8 1358.36 62.29
18 0 8 1412.26 62.39
18 0 9 0.2 0.4
-18 0 -9 0 0.3
-18 0 -10 1198.78 55.39
18 0 10 1270.87 55.49
-18 0 -12 18.3 1.2
18 0 12 19.5 1.2
18 0 13 -0.1 0.2
-18 0 -13 0 0.2
18 0 14 244.08 11.1
18 2 -37 19 1.8
-18 -2 37 23.7 1.9
18 2 -36 119.19 6.5
-18 2 36 123.79 6.5
18 -2 -36 124.89 6.5
-18 -2 36 120.79 6.5
18 2 -35 54.59 3.2
-18 2 35 48.7 3.1
-18 -2 35 48 3.1
18 -2 -35 43 3
18 2 -34 88.19 4.7
-18 2 34 70.39 4.4
-18 -2 34 82.59 4.6
18 -2 -34 80.09 4.6
18 2 -33 2.1 0.7
-18 2 33 2.1 0.7
-18 -2 33 1.9 0.7
18 -2 -33 1.4 0.7
18 2 -32 27.4 2.2
-18 -2 32 26.6 2.2
18 2 -31 2.7 0.7
-18 -2 31 1.3 0.7
-18 2 30 526.35 25.6
-18 -2 30 576.54 25.7
18 -2 -30 555.94 25.7
18 2 -30 555.14 25.7
18 -2 -29 15.7 1.5
18 2 -29 14 1.4
-18 2 29 13.4 1.3
-18 -2 29 15.9 1.5
-18 2 28 415.26 20
18 -2 -28 443.56 20.2
-18 2 27 87.89 4.8
-18 -2 27 83.69 4.9
18 -2 -27 87.09 4.9
18 2 -27 99.39 5
18 2 -26 223.68 10.5
-18 2 26 200.38 10.3
-18 -2 26 225.78 10.5
18 -2 -26 199.78 10.4
18 2 -25 236.38 11.8
-18 2 25 239.88 11.7
18 -2 -25 250.87 11.8
18 2 -24 425.76 18.2
-18 2 24 373.56 18
-18 -2 24 360.86 18.1
18 -2 -24 384.56 18.2
18 2 -23 5.5 1
-18 -2 23 5.7 1
-18 2 23 6.2 0.9
18 -2 -23 5.5 0.9
-18 2 22 146.59 6.8
-18 -2 22 140.89 6.9
18 -2 -22 134.69 6.9
18 2 -21 110.49 5.8
-18 2 21 108.69 5.7
-18 -2 21 98.79 5.7
18 -2 -21 121.19 5.9
-18 2 20 620.84 30.6
-18 -2 20 688.23 30.8
18 2 -20 631.84 30.7
18 2 -19 268.77 12.6
-18 2 19 266.47 12.5
-18 -2 19 256.57 12.5
18 -2 -19 254.07 12.6
18 2 -18 1324.07 61.39
-18 2 18 1246.88 61.39
-18 -2 18 1415.56 61.49
18 -2 -18 1470.75 61.59
-18 2 17 36.2 2.2
18 2 -17 28.4 2.2
-18 -2 17 26.4 2.1
18 -2 -17 36.4 2.3
-18 2 16 657.73 30.5
18 2 -16 686.13 30.5
-18 -2 16 648.94 30.4
18 -2 -16 662.73 30.6
-18 2 15 8.3 1
-18 -2 15 8.3 1
18 2 -15 7.5 1
18 -2 -15 5.8 1
-18 2 14 218.48 9.8
18 2 -14 197.08 9.8
-18 -2 14 202.78 9.8
18 -2 -14 182.48 9.8
-18 2 13 23.9 1.7
18 2 -13 19.1 1.6
-18 -2 13 24.2 1.8
18 -2 -13 19.4 1.7
-18 2 12 1074.89 46.3
18 2 -12 996 46.3
-18 -2 12 939.21 46.2
18 -2 -12 1081.69 46.5
-18 2 11 4.6 0.8
18 2 -11 5.5 0.9
-18 -2 11 4.8 0.9
18 -2 -11 6.4 1
-18 2 10 1128.89 47.8
18 -2 -10 972.9 47.8
-18 2 9 80.89 4.4
18 -2 -9 81.69 4.5
18 2 -8 647.64 31
-18 -2 8 707.13 31.1
18 2 -7 253.37 11.8
-18 -2 7 239.68 11.7
18 2 -6 63.59 3.8
-18 -2 6 70.69 3.9
18 2 -5 1.1 0.6
-18 -2 5 1.8 0.6
18 2 -4 549.85 26.2
-18 2 4 520.35 26.2
-18 -2 4 626.74 26.3
18 -2 -4 599.14 26.4
-18 2 3 4.4 0.7
-18 -2 3 2.7 0.6
18 -2 -3 3.7 0.7
18 2 -2 1059.39 47.2
-18 -2 2 1006.6 47.1
18 -2 -2 1019.2 47.3
-18 2 2 1080.09 47.2
18 2 -1 11.6 1.2
18 -2 -1 13.2 1.3
-18 -2 1 12.2 1.1
-18 2 0 1528.75 65.39
18 -2 0 1488.65 65.49
-18 -2 0 1481.85 65.29
18 2 0 1308.67 65.29
-18 2 -1 1.5 0.5
18 2 1 0.8 0.5
-18 -2 -1 1.6 0.5
18 -2 1 1.3 0.6
18 -2 2 79.49 4.4
-18 -2 -2 84.99 4.2
18 2 3 159.98 7.8
-18 2 -3 153.58 7.8
18 -2 3 165.68 8
-18 -2 -3 164.08 7.8
18 2 4 76.29 4.1
-18 2 -4 78.69 4.2
-18 -2 -4 78.39 4.1
18 -2 4 85.29 4.4
-18 2 -5 17.9 1.5
18 -2 5 21.9 1.6
-18 -2 -5 21.1 1.4
18 2 5 24 1.5
-18 2 -6 445.26 20.7
-18 -2 -6 434.76 20.6
18 -2 6 470.85 20.9
18 2 6 452.45 20.6
-18 2 -7 28.3 1.8
18 -2 7 27.2 1.9
18 2 7 23.7 1.6
-18 -2 -7 23.7 1.6
18 -2 8 1143.29 50.19
-18 -2 -8 1086.29 49.8
-18 2 -8 1158.18 49.99
18 2 8 1060.39 49.9
-18 2 -9 85.79 4.3
18 -2 9 80.49 4.4
-18 -2 -9 78.09 4
18 2 9 83.19 4.1
-18 2 -10 355.56 16.5
18 -2 10 354.66 16.6
-18 2 -11 38.4 2.2
18 -2 11 39 2.3
-18 -2 -11 34.6 1.9
18 2 11 35.3 2
-18 2 -12 34.7 1.8
18 -2 12 35.4 2
-18 2 -13 28.7 1.9
18 -2 13 31.7 2
18 -2 14 456.15 21.3
-18 2 -14 466.75 21.2
-18 2 -15 66.49 3.5
18 -2 15 66.09 3.6
18 4 -37 93.89 5.3
-18 -4 37 94.69 5.3
18 4 -36 84.99 4.6
-18 -4 36 68.49 4.4
18 4 -35 105.79 5.6
-18 -4 35 98.39 5.6
-18 4 34 62.19 3.9
18 4 -34 66.39 4
18 -4 -34 70.49 4.1
-18 -4 34 65.79 4
-18 4 33 43.8 3
18 -4 -33 52.29 3.2
18 4 -32 14.5 1.5
-18 4 32 11.5 1.4
18 -4 -32 14.8 1.6
-18 -4 32 12.2 1.6
18 -4 -31 1.4 0.7
18 4 -31 2.2 0.7
-18 -4 31 2.7 0.8
-18 4 31 1.4 0.7
-18 4 30 127.79 7
18 4 -30 138.89 7.1
18 -4 -30 146.79 7.2
-18 -4 30 134.99 7.1
-18 4 29 99.49 5.3
18 4 -29 91.39 5.3
18 -4 -29 97.59 5.4
-18 -4 29 101.99 5.4
18 4 -28 353.16 15.2
18 -4 -28 302.57 15.1
-18 4 28 300.07 15
-18 -4 28 310.37 15.1
-18 4 27 177.28 9
18 4 -27 174.38 9
18 -4 -27 176.48 9.1
-18 -4 27 194.88 9.1
-18 4 26 138.39 6.9
18 4 -26 138.49 6.9
18 -4 -26 120.59 6.9
-18 -4 26 131.49 6.9
18 4 -25 86.29 4.9
-18 -4 25 91.39 4.9
18 4 -24 28.5 2.2
-18 -4 24 27.4 2.1
-18 4 23 7.2 1
18 4 -23 8.3 1
18 -4 -23 7.2 1
-18 -4 23 6.5 1
-18 4 22 119.59 6.2
18 -4 -22 114.59 6.2
18 4 -22 116.09 6.2
-18 -4 22 120.89 6.2
18 -4 -21 1 0.6
-18 4 20 198.58 9.5
18 -4 -20 183.18 9.5
-18 4 19 8.9 1.1
18 -4 -19 11.2 1.2
18 4 -19 10.6 1.2
-18 -4 19 11.5 1.3
-18 4 18 348.47 17.3
18 -4 -18 359.06 17.5
18 4 -18 368.86 17.4
-18 -4 18 405.76 17.5
-18 4 17 230.38 11.6
18 -4 -17 228.28 11.7
18 4 -17 248.28 11.7
-18 -4 17 255.77 11.7
-18 4 16 321.97 14.6
18 -4 -16 284.77 14.6
18 4 -16 323.77 14.7
-18 -4 16 299.27 14.6
18 -4 -15 176.08 8.7
18 4 -15 162.48 8.6
-18 -4 15 159.38 8.5
-18 4 14 90.69 4.6
18 4 -14 88.29 4.6
-18 -4 14 79.39 4.5
-18 4 13 15.2 1.4
18 -4 -13 13.1 1.4
-18 -4 13 14.2 1.4
18 4 -13 15.5 1.4
-18 4 12 572.84 25.1
-18 -4 12 568.04 25
18 4 -12 541.45 25
-18 4 11 231.88 12
18 -4 -11 252.07 12.1
-18 -4 11 259.77 12
18 4 -11 252.87 12
-18 -4 10 385.76 18
18 -4 -10 363.06 18.1
-18 4 10 401.66 18.1
18 4 -10 386.06 18.1
-18 4 9 81.89 4.4
18 -4 -9 73.69 4.5
-18 -4 9 85.39 4.4
18 4 -9 82.39 4.5
-18 4 8 125.89 6.5
18 4 -8 130.89 6.6
18 -4 -8 127.69 6.7
-18 -4 8 127.39 6.5
-18 4 7 253.77 12.5
18 -4 -7 274.67 12.7
-18 -4 7 261.97 12.5
18 4 -7 256.97 12.5
-18 4 6 7.7 1
18 -4 -6 7.5 1.1
-18 -4 6 7.6 1
18 4 -6 9.9 1.2
18 -4 -5 565.14 27.7
-18 4 5 613.04 27.6
18 4 -5 617.74 27.6
-18 4 4 62.59 3.6
18 -4 -4 62.49 3.7
-18 -4 4 58.69 3.5
18 4 -4 64.99 3.6
-18 4 3 12.8 1.3
18 -4 -3 17.7 1.5
18 4 -3 16.1 1.4
-18 -4 3 12.4 1.2
-18 4 2 594.24 29
18 4 -2 626.54 29.1
-18 -4 2 648.74 29.1
18 -4 -2 666.43 29.3
-18 4 1 58.99 3.3
18 -4 -1 61.19 3.5
18 4 -1 53.69 3.2
-18 -4 1 53.39 3.2
-18 4 -1 248.78 12
18 -4 1 252.27 12.2
18 -4 2 105.79 6
-18 4 -2 126.79 6.1
18 4 2 109.19 5.9
-18 -4 -2 120.19 5.9
-18 4 -3 58.99 3.5
18 -4 3 67.59 3.7
18 4 3 56.89 3.4
-18 -4 -3 63.69 3.5
18 -4 4 16.2 1.6
18 4 4 15.8 1.4
-18 -4 -4 16.7 1.4
-18 4 -5 1.2 0.6
18 -4 5 1.7 0.8
18 4 5 1 0.5
-18 -4 -5 0.8 0.5
-18 4 -6 226.68 10
18 -4 6 199.18 10
18 4 6 194.98 9.8
-18 -4 -6 195.08 9.7
18 -4 7 0.3 0.6
18 4 7 -0.1 0.4
-18 -4 -7 -0.1 0.4
-18 4 -7 0.2 0.5
-18 4 -8 331.07 15.1
18 -4 8 292.77 15.1
18 4 8 319.37 14.9
-18 -4 -8 326.17 14.9
-18 4 -9 17 1.4
18 4 9 19.8 1.4
18 -4 9 18.8 1.6
-18 -4 -9 16.2 1.3
-18 4 -10 252.57 12.3
18 -4 10 263.97 12.6
-18 -4 -10 260.67 12.1
18 4 10 257.17 12.2
-18 4 -11 1.5 0.6
18 4 11 1.8 0.5
-18 -4 -11 1.4 0.5
18 -4 11 2.3 0.8
-18 4 -12 4.6 0.8
18 4 12 4.1 0.6
-18 -4 -12 6.3 0.6
18 -4 12 6.1 0.9
18 -4 13 137.19 7
-18 4 -13 130.39 6.8
18 -4 14 71.49 4.1
-18 4 -15 17.7 1.4
18 -4 15 15.6 1.5
18 6 -36 47.5 3.1
-18 -6 36 47.1 3.1
18 6 -35 130.29 7.2
-18 -6 35 145.99 7.3
18 6 -34 22.6 2
-18 -6 34 29.9 2.2
-18 6 32 3.4 0.9
18 -6 -32 3.4 0.9
-18 -6 32 3.2 1
18 6 -32 2 0.8
-18 -6 31 4.7 1
18 6 -31 5 1
18 6 -30 11.1 1.3
-18 -6 30 9.4 1.2
-18 6 29 31.1 2.2
18 -6 -29 27.7 2.2
18 6 -29 27.3 2.2
-18 -6 29 29.2 2.2
18 -6 -28 67.79 3.9
-18 6 28 62.49 3.7
18 6 -28 60.19 3.7
-18 -6 28 58.79 3.7
-18 6 27 84.59 4.6
18 -6 -27 85.09 4.7
18 6 -27 72.79 4.5
-18 -6 27 78.29 4.6
-18 6 26 34.4 2.5
18 -6 -26 34.4 2.5
18 6 -26 35.4 2.5
18 -6 -25 71.69 4.4
-18 6 25 75.59 4.4
-18 -6 25 77.89 4.4
18 6 -25 79.79 4.4
-18 6 24 4.3 1
18 -6 -24 6.7 1.1
-18 6 23 15.8 1.5
18 -6 -23 15.3 1.6
18 -6 -22 15.1 1.5
-18 6 22 12.3 1.4
-18 -6 22 12.5 1.4
18 6 -22 13 1.4
18 -6 -21 36.8 2.5
-18 6 21 33.2 2.4
-18 -6 21 31.6 2.3
18 6 -21 31.4 2.3
18 -6 -20 19.3 1.8
-18 6 20 21.5 1.7
-18 -6 20 19 1.7
18 6 -20 16 1.6
-18 -6 19 85.49 4.8
18 6 -19 84.99 4.8
-18 6 18 48.3 3
18 -6 -18 51.79 3.2
-18 -6 18 47.3 3.1
18 6 -18 44.5 3
-18 6 17 79.49 4.6
18 -6 -17 86.59 4.8
-18 -6 17 81.09 4.7
18 6 -17 86.99 4.7
-18 6 16 95.19 5.3
18 -6 -16 105.69 5.5
-18 -6 16 107.19 5.5
18 6 -16 88.79 5.3
-18 6 15 156.68 8.2
18 -6 -15 166.78 8.3
-18 -6 15 162.78 8.2
18 6 -15 160.18 8.2
-18 6 14 24.9 1.9
18 -6 -14 21.2 1.9
-18 -6 14 24.8 1.9
18 6 -14 22 1.8
18 6 -13 0.9 0.7
-18 6 13 0.7 0.6
18 -6 -13 -0.2 0.6
-18 -6 13 0.1 0.7
18 6 -12 3.3 0.9
-18 6 12 3.1 0.9
18 -6 -12 1.9 0.8
18 6 -11 2.2 0.7
-18 6 11 1.1 0.6
18 -6 -11 1.4 0.7
-18 -6 11 1.3 0.6
-18 6 10 260.17 13.2
18 -6 -10 291.87 13.5
-18 -6 10 269.67 13.3
18 6 -10 282.67 13.3
-18 6 9 205.98 10.6
18 -6 -9 218.28 10.8
-18 -6 9 228.28 10.8
18 6 -9 220.98 10.8
-18 6 8 49.3 3
-18 -6 8 47.4 3
18 6 -8 46.9 3.1
18 -6 -8 40.4 3.1
-18 6 7 197.08 10.3
18 -6 -7 231.38 10.6
-18 6 6 28.4 2.1
18 -6 -6 28.2 2.2
18 -6 -5 33.4 2.6
-18 6 5 38.5 2.5
-18 -6 5 34.2 2.5
18 6 -5 39.6 2.6
-18 6 4 15.9 1.5
18 -6 -4 17 1.6
-18 -6 4 14.6 1.5
18 6 -4 12.8 1.4
-18 6 3 10.5 1.2
18 -6 -3 10.8 1.3
-18 -6 3 11.3 1.3
18 6 -3 11.5 1.3
-18 6 2 144.49 7.2
-18 -6 2 146.49 7.2
18 6 -2 156.58 7.3
18 -6 -1 136.49 7.5
-18 6 1 151.48 7.4
-18 -6 1 138.69 7.4
18 6 -1 151.78 7.5
18 -6 0 53.79 3.5
-18 -6 0 59.49 3.5
18 6 0 57.69 3.5
18 6 1 10.1 1.2
-18 6 -1 11.1 1.2
18 -6 1 10.7 1.3
-18 -6 -1 8.8 1.1
-18 6 -2 63.39 3.7
18 -6 2 56.09 3.7
-18 -6 -2 63.49 3.6
18 6 2 61.59 3.7
-18 6 -3 110.39 5.8
18 -6 3 115.59 6
-18 -6 -3 105.39 5.8
18 6 3 111.19 5.8
-18 6 -4 13.6 1.4
18 6 4 16.1 1.5
-18 -6 -4 13 1.4
18 -6 4 14.1 1.6
18 -6 5 1.6 0.8
-18 6 -5 0.7 0.6
-18 -6 -5 0.6 0.5
18 6 5 1.9 0.7
-18 6 -6 34.2 2.4
18 -6 6 33.7 2.5
18 6 6 36.6 2.4
-18 -6 -6 31.4 2.3
-18 6 -7 39.4 2.5
18 -6 7 40.8 2.7
-18 -6 -7 33.2 2.4
18 6 7 39.3 2.5
-18 6 -8 40.7 2.6
18 -6 8 36.4 2.7
-18 -6 -8 35.6 2.5
18 6 8 39.4 2.6
-18 6 -9 26.5 2
18 -6 9 24.2 2.1
18 6 9 28.5 2
-18 -6 -9 24.5 1.9
18 -6 10 14 1.5
-18 6 -10 12.9 1.3
18 -6 11 2.8 0.9
-18 6 -11 1.8 0.7
18 -6 12 5.1 1
18 -6 13 3.8 0.9
-18 6 -13 1.8 0.7
18 -6 14 1 0.7
-18 6 -14 2.3 0.8
-18 -8 34 15.1 1.5
18 8 -34 16.5 1.5
-18 -8 33 2.1 0.7
18 8 -33 1.1 0.6
-18 -8 32 -0.1 0.6
18 8 -32 0.4 0.5
18 8 -31 0.5 0.5
-18 8 29 49.2 3.2
18 -8 -29 56.79 3.4
-18 -8 29 48.2 3.2
18 8 -29 51.79 3.3
-18 -8 28 2.9 0.9
18 8 -28 3 0.9
18 -8 -27 47.2 3.3
-18 -8 27 53.79 3.3
18 8 -27 49.9 3.2
-18 8 26 2.6 0.8
18 -8 -26 2 0.9
18 8 -26 2.9 0.9
-18 8 25 45.8 2.9
18 -8 -25 44.3 3
-18 -8 25 39.6 2.8
18 8 -25 44.7 2.9
18 8 -24 2.1 0.7
18 -8 -24 1.7 0.7
-18 8 24 2.9 0.7
-18 -8 24 3.3 0.8
18 8 -23 0.3 0.7
-18 8 23 1.1 0.6
18 -8 -23 0.1 0.6
-18 -8 23 1.1 0.8
-18 8 22 2.3 0.7
18 -8 -22 2.2 0.8
-18 -8 22 3.1 1
18 -8 -21 -0.1 0.6
-18 8 21 1 0.6
18 8 -20 2.6 0.8
-18 8 20 1.7 0.6
18 -8 -20 2.7 0.8
-18 -8 20 0.5 0.7
-18 8 19 45.6 3
18 -8 -19 48.3 3.1
-18 -8 19 44.1 3
18 8 -19 50.49 3.1
-18 -8 18 3.1 0.8
18 8 -18 2.1 0.8
-18 8 18 4.1 1
18 -8 -18 3.1 0.9
18 -8 -17 35.5 2.8
-18 -8 17 44.9 2.9
18 8 -17 43 2.8
18 8 -16 2.4 0.8
18 -8 -16 2.2 0.8
-18 8 16 4 0.9
-18 -8 16 2.4 0.7
18 -8 -15 26 2.1
-18 -8 15 23.6 2
18 8 -15 25.2 2.1
-18 8 15 25.8 2
-18 8 14 30 2.2
18 -8 -14 27.1 2.2
-18 -8 14 24 2.1
18 8 -14 30.5 2.3
-18 8 13 1.3 0.7
18 8 -13 1.9 0.7
18 -8 -13 2.1 0.8
-18 -8 13 1.6 0.7
-18 8 12 0.7 0.7
18 -8 -12 0.1 0.8
18 8 -12 0.1 0.7
-18 -8 12 1.2 0.8
18 8 -11 0.1 0.7
18 -8 -11 1.1 0.7
-18 -8 11 0.2 0.7
-18 8 11 0.4 0.6
18 8 -10 1.8 0.7
18 -8 -10 1.7 0.9
-18 8 10 2 0.8
-18 -8 10 2.3 0.7
-18 8 9 25.3 2.1
-18 -8 9 31.8 2.3
18 8 -9 32.6 2.3
18 -8 -9 28.2 2.2
-18 8 8 3.1 0.8
18 -8 -8 2.5 0.9
18 8 -8 4.1 0.9
-18 -8 8 2.7 0.9
-18 8 7 57.39 3.7
18 -8 -7 70.09 4
-18 8 6 0.9 0.5
18 -8 -6 0.1 0.5
18 8 -5 1.4 0.8
18 -8 -5 0.9 0.7
-18 8 5 1.3 0.6
-18 -8 5 2.1 0.9
-18 8 4 0.7 0.7
18 8 -4 2.5 0.9
18 -8 -4 0.6 0.8
-18 -8 4 0.4 0.7
18 -8 -3 0.3 0.8
-18 8 3 2.8 0.8
18 8 -3 1.2 0.8
-18 -8 3 1.1 0.7
-18 8 2 6 1
18 -8 -2 3.8 1
18 8 -2 6.3 1
-18 -8 2 3.9 0.8
-18 8 1 5.7 1
18 -8 -1 5.6 1.1
-18 -8 1 7.7 1.1
18 8 -1 6.8 1.1
18 8 0 0.9 0.8
18 -8 0 1.8 0.9
-18 -8 0 1.3 0.7
-18 8 0 0.2 0.7
18 -8 1 2.5 0.9
18 8 1 1.3 0.7
-18 8 -1 1.2 0.7
-18 -8 -1 1.7 0.7
18 -8 2 1.3 0.9
-18 8 -2 0.6 0.7
18 8 2 1.2 0.8
-18 -8 -2 1.8 0.7
-18 8 -3 17 1.6
18 -8 3 21.3 1.9
-18 -8 -3 15.8 1.6
18 8 3 18.8 1.7
-18 8 -4 1.7 0.7
18 8 4 1.6 0.8
-18 -8 -4 1.5 0.7
18 -8 4 0.8 0.7
-18 8 -5 6.8 1
18 8 5 5.9 1
-18 -8 -5 6 1
18 -8 5 6.3 1.1
-18 8 -6 1.6 0.7
18 -8 6 0.5 0.8
-18 8 -7 1.9 0.7
18 -8 7 2.8 0.9
18 -8 8 7.8 1.2
18 -8 9 0.5 0.8
-18 8 -9 0.8 0.7
-18 8 -10 5.8 0.9
18 -8 10 3.8 1
18 -8 11 9.8 1.4
-18 8 -11 9.8 1.2
18 -8 12 0.4 0.7
-18 8 -12 0.6 0.6
-18 8 -13 24.1 1.9
18 -8 13 22.8 2.1
-18 -10 27 1.7 0.8
18 10 -27 2 0.7
-18 -10 26 8.6 1.1
18 10 -26 9.8 1.1
18 10 -25 4.1 0.9
-18 10 25 4 0.8
-18 -10 25 5.4 1
18 10 -24 4.4 0.9
-18 10 24 4.1 0.8
18 -10 -24 4.9 0.9
-18 -10 24 3.3 0.9
18 10 -23 7 1
-18 10 23 5 0.9
18 -10 -23 7 1.1
-18 -10 23 6.1 1
-18 10 22 21 1.8
18 -10 -22 25.1 2
-18 10 21 1.3 0.7
18 -10 -21 0.7 0.8
-18 -10 21 0.7 0.7
18 10 -21 0.9 0.7
-18 10 20 33.4 2.4
18 -10 -20 37.4 2.6
-18 -10 20 35.2 2.5
18 10 -20 37.2 2.6
-18 10 19 17 1.6
18 -10 -19 19.2 1.7
-18 -10 19 14.9 1.6
18 10 -19 15.5 1.6
18 -10 -18 4.2 0.9
-18 10 18 5.4 0.9
18 10 -18 4 0.8
-18 -10 18 3.6 0.8
-18 10 17 9.6 1.1
18 10 -17 9 1.3
18 -10 -17 10.4 1.3
-18 -10 17 10.5 1.3
-18 10 16 3.2 0.9
18 -10 -16 3.3 0.9
18 10 -16 4.1 0.9
-18 -10 16 3.1 0.9
18 10 -15 3.2 0.9
-18 -10 15 3.8 0.9
-18 -10 12 26.8 2.2
18 10 -12 29.4 2.2
18 10 -11 5.3 1
-18 -10 11 4.5 1
-18 -10 10 17.3 1.6
18 10 -10 18.1 1.7
-18 -10 9 9.4 1.2
18 10 -9 9.4 1.2
18 10 -8 4.7 0.9
-18 -10 8 2.7 0.8
18 10 -7 5.9 1.1
-18 -10 7 5.7 1
18 10 -6 1.6 0.8
-18 -10 6 2.2 0.8
18 10 -5 4.8 1
-18 -10 5 8.9 1.2
18 10 -4 2.5 0.8
-18 -10 4 1 0.7
18 10 -3 1.1 0.7
-18 -10 3 0.8 0.7
-18 -10 2 42.1 2.8
18 10 -2 40.1 2.8
18 10 -1 1.3 0.7
-18 -10 1 2.9 0.8
-18 -10 0 50.99 3.2
18 10 0 45.6 3.1
-18 10 -1 5 0.9
18 -10 1 6 1.2
18 10 1 6.4 1.1
18 -10 2 2.2 0.9
18 -10 3 1.2 0.8
-18 10 -3 1.8 0.8
18 -10 4 9.2 1.3
-18 10 -4 7.7 1.1
18 -10 5 2.2 0.9
-18 10 -5 2.5 0.8
-18 10 -6 12.4 1.4
18 -10 6 12.6 1.5
18 -10 7 8.4 1.3
-18 10 -7 6.9 1.1
-18 10 -8 29.9 2.3
18 -10 8 33.2 2.5
18 -10 9 -0.1 0.6
-18 10 -9 0.6 0.6
18 -10 10 15.5 1.6
-18 10 -10 14 1.4
-19 -1 38 191.08 9.5
19 1 -38 188.68 9.6
-19 1 37 16.1 1.6
-19 -1 37 15.3 1.5
19 -1 -37 15.6 1.6
19 1 -37 17.1 1.6
-19 1 36 47.6 3
-19 -1 36 44.8 3
19 -1 -36 45.7 3.1
19 1 -36 48 3.1
19 1 -35 4.7 1
-19 1 35 6.4 1
-19 -1 35 4.9 0.9
19 -1 -35 5.3 1
-19 1 34 25.8 2
-19 -1 34 31.9 2.2
19 -1 -34 26.6 2.1
19 1 -34 29.1 2.2
19 1 -33 6.4 0.9
-19 1 33 4.5 0.8
-19 -1 33 4.1 0.8
19 -1 -33 4.7 0.9
-19 1 32 173.78 9.2
-19 -1 32 193.38 9.3
19 -1 -32 185.98 9.3
19 1 -32 191.48 9.3
19 1 -31 58.29 3.4
-19 -1 31 51.89 3.3
19 1 -30 462.15 22.6
-19 -1 30 507.05 22.7
-19 1 29 9.3 1.2
19 -1 -29 10.5 1.3
-19 1 28 510.15 24.1
-19 -1 28 523.85 24.1
19 -1 -28 473.45 24.1
19 1 -27 168.28 8.7
-19 1 27 190.08 8.7
-19 -1 27 177.08 8.7
19 -1 -27 159.88 8.7
-19 -1 26 29.2 2.1
19 1 -26 25.3 2
19 -1 -26 30.2 2.2
-19 1 26 30.8 2.1
19 1 -25 1.8 0.8
-19 1 25 0.8 0.6
19 -1 -25 1.7 0.7
19 1 -24 85.69 4.9
-19 -1 24 90.29 4.9
19 -1 -24 99.59 5.1
-19 1 23 42.8 2.7
19 1 -23 43.6 2.8
-19 -1 23 46.4 2.8
19 -1 -23 43.1 2.8
19 1 -22 654.83 28.3
-19 1 22 592.84 28.2
-19 -1 22 643.24 28.3
19 -1 -22 566.14 28.3
19 1 -21 68.79 4.2
-19 1 21 73.79 4.1
-19 -1 21 81.39 4.3
19 -1 -21 76.49 4.3
-19 1 20 831.02 35.3
-19 -1 20 791.02 35.3
19 -1 -20 838.32 35.4
19 1 -19 56.59 3.3
-19 1 19 50.29 3.3
-19 -1 19 58.79 3.3
19 -1 -19 58.59 3.4
-19 1 18 259.17 11.6
-19 -1 18 228.78 11.5
19 -1 -18 243.98 11.6
19 1 -18 226.18 11.5
19 1 -17 16.1 1.4
-19 1 17 13.5 1.2
-19 -1 17 14 1.4
19 1 -16 3.1 0.8
-19 1 16 4 0.8
-19 -1 16 2.1 0.7
19 -1 -16 1.7 0.7
19 1 -15 12.1 1.2
-19 1 15 11.3 1.2
-19 -1 15 11.5 1.3
19 -1 -15 12.1 1.3
-19 1 14 1296.87 59.69
-19 -1 14 1321.17 59.69
19 1 -14 1328.87 59.79
19 -1 -14 1329.57 59.79
19 1 -13 2.8 0.8
-19 1 13 3.1 0.7
-19 -1 13 2.4 0.7
19 -1 -13 2.9 0.9
-19 1 12 1364.96 60.99
-19 -1 12 1372.96 61.09
19 1 -12 1299.37 60.99
19 -1 -12 1358.76 61.09
19 1 -11 39.6 2.8
-19 -1 11 44.7 2.8
19 -1 -11 44 2.8
19 1 -8 590.14 29.5
-19 -1 8 699.43 29.5
19 1 -7 41.8 2.7
-19 1 7 42.7 2.6
-19 -1 7 38.5 2.5
19 -1 -7 43.5 2.7
19 1 -6 87.49 4.9
-19 1 6 97.99 4.9
-19 -1 6 97.69 4.9
19 -1 -6 93.09 5
-19 1 5 10.5 1.2
-19 -1 5 10.6 1.3
19 -1 -5 11.9 1.3
19 1 -5 9.8 1.3
19 1 -4 1509.15 70.49
-19 1 4 1611.74 70.49
-19 -1 4 1587.94 70.49
19 -1 -4 1535.65 70.59
-19 1 3 -0.1 0.4
-19 -1 3 0.2 0.5
19 -1 -3 0.3 0.6
-19 -1 2 1303.87 55.09
19 1 -2 1131.19 55.09
-19 1 1 37.4 2.3
-19 -1 1 36.1 2.2
19 -1 -1 37.2 2.4
19 1 -1 34.8 2.3
-19 1 0 856.51 37.7
-19 -1 0 838.72 37.6
19 -1 0 844.92 37.8
19 1 0 775.02 37.7
-19 -1 -1 7.6 1
19 -1 1 5.5 0.9
19 1 1 6 0.9
-19 1 -2 0.9 0.4
-19 -1 -2 1.1 0.5
19 1 2 1.6 0.5
-19 1 -3 66.19 3.6
-19 -1 -3 65.69 3.6
19 -1 3 69.69 3.7
19 1 3 66.89 3.7
-19 1 -4 132.99 6.8
-19 -1 -4 141.89 6.8
19 -1 4 141.29 7
19 1 4 141.49 6.9
-19 -1 -5 0.7 0.5
-19 1 -5 0.6 0.4
19 -1 5 1.1 0.5
19 1 5 1.1 0.5
-19 1 -6 1400.46 62.09
-19 -1 -6 1304.17 61.99
19 -1 6 1435.26 62.19
19 1 6 1384.16 62.09
-19 1 -7 2.5 0.6
-19 -1 -7 3.6 0.5
19 1 7 3.1 0.6
-19 1 -8 1180.58 56.89
-19 -1 -8 1283.97 56.79
19 -1 8 1347.77 57.09
19 1 8 1248.28 56.89
-19 1 -9 28 1.7
19 -1 9 29.6 1.8
19 1 9 23.4 1.7
-19 -1 -9 26.6 1.6
-19 1 -10 83.49 4.1
19 -1 10 74.69 4.2
19 -1 11 6.9 0.8
-19 -1 -11 7.1 0.6
19 1 11 5.4 0.6
-19 1 -11 7.9 0.8
-19 1 -12 29.8 1.7
19 -1 12 29.6 1.8
19 1 12 29.9 1.5
-19 1 -13 10.3 0.7
19 -1 13 7.9 0.7
19 -1 14 340.27 15.8
-19 1 -14 344.57 15.7
19 3 -38 188.18 9.5
-19 -3 38 188.28 9.5
19 3 -37 70.39 4.2
-19 -3 37 69.89 4.2
-19 3 36 57.89 3.4
19 -3 -36 50.89 3.4
-19 3 35 65.59 3.9
19 -3 -35 65.69 4
19 3 -34 12.5 1.4
-19 3 34 12.9 1.4
-19 -3 34 15.7 1.5
19 -3 -34 15 1.5
-19 3 33 2.8 0.8
19 3 -33 3.6 0.9
-19 -3 33 2.6 0.8
19 -3 -33 4.6 0.9
-19 3 32 58.19 3.6
-19 -3 32 63.09 3.7
19 -3 -32 57.99 3.7
19 3 -32 64.49 3.7
19 3 -31 21.7 1.8
-19 3 31 18.5 1.7
-19 -3 31 18.3 1.7
19 -3 -31 18.7 1.7
-19 -3 30 443.86 19.1
19 3 -30 375.86 19
-19 3 30 389.76 18.9
19 -3 -30 407.06 19.1
-19 3 29 116.09 6.6
19 3 -29 124.19 6.7
-19 -3 29 142.49 6.8
19 -3 -29 126.99 6.7
-19 3 28 282.77 13.2
19 3 -28 274.47 13.2
-19 -3 28 275.17 13.2
19 -3 -28 257.07 13.2
19 3 -27 126.49 6.4
-19 -3 27 116.39 6.4
19 3 -26 13.9 1.4
-19 3 25 89.59 4.8
19 3 -25 90.19 4.9
-19 -3 25 83.39 4.8
19 -3 -25 87.49 4.9
-19 3 24 105.79 5.6
19 -3 -24 104.39 5.7
-19 3 23 55.99 3.4
19 -3 -23 58.29 3.5
-19 3 22 316.57 15
19 3 -22 322.67 15.1
-19 -3 22 348.77 15.1
-19 3 21 330.37 14.2
19 3 -21 287.27 14.2
19 -3 -21 316.37 14.3
-19 3 20 569.64 29.1
19 3 -20 654.03 29.3
-19 -3 20 663.93 29.2
19 -3 -20 660.53 29.3
-19 3 19 227.98 11
19 3 -19 233.58 11.2
-19 -3 19 233.28 11.1
19 -3 -19 217.08 11.1
-19 3 18 451.75 21.2
19 3 -18 454.45 21.3
-19 -3 18 455.55 21.3
19 -3 -18 461.05 21.3
-19 3 17 8.4 1
19 3 -17 7.7 1.1
-19 -3 17 6.4 1
19 -3 -17 8.1 1.1
-19 3 16 15.6 1.5
19 3 -16 18.2 1.6
-19 -3 16 18.8 1.6
19 -3 -16 16 1.5
19 3 -15 7.1 1
-19 3 15 4 1
-19 -3 15 6.7 0.9
19 -3 -15 5 1
-19 3 14 689.03 30.6
19 -3 -14 652.43 30.7
-19 -3 14 650.73 30.6
19 3 -14 667.63 30.6
-19 -3 13 63.79 3.8
-19 3 13 66.39 3.8
19 3 -13 70.99 4
19 -3 -13 68.39 4.1
-19 3 12 575.94 27.4
19 3 -12 654.13 27.6
19 -3 -12 570.24 27.5
-19 -3 12 590.74 27.5
-19 3 11 14.2 1.4
19 3 -11 17.8 1.5
19 -3 -11 18.7 1.6
-19 -3 11 17.1 1.5
-19 3 10 307.57 14.3
19 3 -10 297.47 14.3
19 -3 -10 305.97 14.4
-19 -3 10 292.57 14.2
-19 3 9 114.79 6
19 3 -9 123.79 6.1
19 -3 -9 102.09 6
-19 -3 9 123.89 6
-19 3 8 177.98 8.8
19 3 -8 179.08 8.9
19 -3 -8 172.28 9
-19 -3 8 188.38 8.8
19 3 -7 18.4 1.5
-19 3 7 16.5 1.4
19 -3 -7 18 1.5
-19 -3 7 16 1.4
-19 3 6 1.8 0.7
19 -3 -6 1.4 0.7
19 3 -6 1.6 0.7
-19 -3 6 0.6 0.6
-19 3 5 18.3 1.6
19 3 -5 23.3 1.7
19 -3 -5 18.7 1.7
19 -3 -4 935.21 41.8
-19 3 4 897.11 41.7
19 -3 -3 35.7 2.6
-19 3 3 42.3 2.6
-19 3 2 799.62 37.1
19 3 -2 767.32 37
19 -3 -2 877.51 37.3
-19 -3 2 817.62 37
19 3 -1 54.69 3.1
-19 -3 1 56.99 3.1
-19 3 0 468.35 22.7
19 3 0 481.15 22.8
19 -3 0 507.65 23
-19 -3 0 515.55 22.8
-19 3 -1 126.19 6.3
19 3 1 123.89 6.3
19 -3 1 127.69 6.5
-19 -3 -1 122.29 6.3
-19 3 -2 40 2.6
19 3 2 42.7 2.6
19 -3 2 47.3 2.8
-19 -3 -2 43.3 2.6
19 3 3 39.7 2.5
19 -3 3 43.9 2.7
-19 3 -3 39.2 2.5
-19 -3 -3 39.9 2.5
19 -3 4 471.75 21.1
19 3 4 452.25 20.9
-19 3 -4 440.26 20.9
-19 -3 -4 444.06 20.8
19 -3 5 10 1.2
-19 3 -5 11.8 1.2
-19 -3 -5 10.9 1
19 3 5 10.9 1.1
19 3 6 385.86 17.6
-19 3 -6 384.56 17.7
19 -3 6 388.26 17.8
-19 -3 -6 361.16 17.5
-19 3 -7 8.4 1
19 3 7 6 0.8
19 -3 7 7.8 1
-19 -3 -7 8.9 0.9
19 3 8 472.05 21.1
-19 3 -8 452.05 21.2
-19 -3 -8 452.85 21
19 -3 8 447.06 21.3
-19 3 -9 185.18 8.6
19 -3 9 177.78 8.7
-19 -3 -9 172.98 8.3
19 3 9 166.08 8.4
19 -3 10 2.1 0.7
-19 3 -10 2.8 0.6
-19 -3 -10 1.7 0.4
19 3 10 3.1 0.6
-19 -3 -11 2.4 0.4
-19 3 -11 2.3 0.6
19 3 11 1.9 0.4
-19 -3 -12 10.7 0.8
19 3 12 11 0.9
19 -3 15 18.7 1.6
19 5 -36 83.79 4.7
-19 -5 36 82.49 4.8
19 5 -35 66.89 4
-19 -5 35 67.79 4.1
-19 -5 34 15.3 1.5
19 5 -34 12 1.4
19 -5 -33 2.6 0.8
19 5 -33 2.4 0.9
-19 5 33 3.7 0.9
-19 -5 33 1.7 0.8
19 -5 -32 14.6 1.5
19 5 -32 15.9 1.5
-19 5 32 14 1.5
-19 -5 32 14.6 1.5
19 -5 -31 18.9 1.8
-19 5 31 24.4 1.9
19 5 -31 22.1 1.9
-19 -5 31 19.5 1.8
19 -5 -30 70.99 4
19 5 -30 74.39 4
-19 -5 30 56.99 3.8
-19 5 30 60.09 3.8
-19 5 29 132.29 6.8
19 -5 -29 133.69 6.9
19 5 -29 119.99 6.7
-19 -5 29 130.59 6.8
-19 5 28 81.09 4.5
19 -5 -28 78.69 4.6
-19 5 27 159.08 7.7
19 5 -27 131.79 7.5
19 -5 -27 156.68 7.8
-19 -5 27 152.18 7.7
-19 5 26 19.5 1.7
19 -5 -26 20.1 1.8
-19 -5 26 20.2 1.8
19 -5 -25 5.4 1
-19 5 25 3.6 0.9
-19 -5 25 4.7 1
19 5 -25 3.1 0.8
-19 5 24 7 1
19 -5 -24 7.2 1.1
-19 -5 24 7.9 1.1
19 5 -24 5.6 1
19 -5 -23 17.6 1.7
-19 5 23 14.6 1.4
19 5 -23 14.5 1.5
-19 -5 23 16.4 1.5
-19 5 22 236.68 11.2
19 -5 -22 243.18 11.3
19 5 -22 222.18 11.2
-19 -5 22 213.28 11.2
-19 5 21 85.79 4.7
19 -5 -21 89.49 4.8
19 5 -21 85.29 4.7
-19 -5 21 77.49 4.7
-19 -5 20 232.78 11.9
19 5 -20 263.37 12.1
-19 5 20 244.68 12
19 -5 -20 246.38 12.1
19 -5 -19 69.09 4.2
-19 -5 19 70.49 4.2
19 5 -19 76.89 4.3
-19 5 19 76.29 4.2
-19 5 18 44.9 2.8
19 -5 -18 48.3 3
-19 -5 18 42 2.8
19 5 -18 44.6 2.9
-19 5 17 69.79 4.1
19 -5 -17 80.09 4.3
-19 -5 17 69.09 4.1
19 5 -17 73.29 4.2
-19 5 16 16.1 1.5
19 -5 -16 20.1 1.8
-19 -5 16 15.6 1.5
19 5 -16 15.6 1.5
19 -5 -15 22.9 1.9
-19 -5 15 18.7 1.8
19 5 -15 20.3 1.9
-19 -5 12 10.8 1.2
19 5 -12 10.5 1.2
-19 -5 11 24.7 2.1
19 5 -11 33.4 2.3
-19 -5 10 551.14 25.4
19 5 -10 545.75 25.4
-19 -5 9 323.77 15.4
19 5 -9 323.67 15.4
-19 5 8 285.97 13.5
19 -5 -8 314.27 13.8
-19 -5 8 261.47 13.5
19 5 -8 277.77 13.5
-19 5 7 355.76 17.2
19 -5 -7 372.06 17.4
19 5 -7 367.76 17.2
-19 5 6 18.7 1.5
19 -5 -6 15.4 1.5
-19 -5 6 15.6 1.5
19 5 -6 13.9 1.4
-19 5 5 17.1 1.6
-19 -5 5 22.1 1.7
19 5 -5 21.7 1.8
-19 5 4 166.58 8.5
19 -5 -4 165.08 8.7
-19 -5 4 172.58 8.5
19 5 -4 181.38 8.6
-19 5 3 191.78 9.9
19 -5 -3 212.88 10.2
-19 -5 3 190.78 9.9
19 5 -3 220.48 10
-19 5 2 402.06 19
19 -5 -2 396.76 19.1
-19 -5 2 407.46 19
19 5 -2 412.56 19
19 -5 -1 30.8 2.3
-19 -5 1 31.5 2.2
19 5 -1 31.5 2.2
-19 5 0 81.09 4.3
19 -5 0 68.49 4.3
-19 -5 0 73.99 4.2
19 5 0 74.79 4.2
-19 5 -1 117.59 6.2
19 -5 1 126.09 6.4
-19 -5 -1 120.99 6.1
19 5 1 112.49 6.1
19 -5 2 8.9 1.2
19 5 2 9.2 1.1
-19 5 -2 7.4 1.1
-19 -5 -2 7 1
-19 5 -3 11.2 1.2
19 -5 3 8.9 1.2
19 5 3 10.1 1.2
-19 -5 -3 7.8 1
-19 5 -4 66.39 3.9
19 -5 4 73.39 4.1
19 5 4 69.19 3.9
-19 -5 -4 69.09 3.9
-19 5 -5 14.4 1.4
19 -5 5 12.8 1.5
19 5 5 13 1.3
-19 -5 -5 12.6 1.3
19 -5 6 210.68 10.4
-19 5 -6 215.48 10.2
19 5 6 197.08 10.1
-19 -5 -6 209.58 10.1
-19 5 -7 4.2 0.8
19 -5 7 2.9 0.9
-19 5 -8 151.78 7.8
19 -5 8 161.18 8.1
-19 5 -9 5.8 0.9
19 -5 9 6 1.1
19 5 9 6 0.9
-19 -5 -9 5.4 0.8
-19 5 -10 37.3 2.5
19 5 10 40.2 2.5
19 -5 10 42.3 2.8
-19 -5 -10 38.3 2.4
-19 5 -11 9.7 1.1
19 -5 11 12.5 1.4
-19 5 -12 29.2 2.1
-19 -7 36 1.6 0.7
19 7 -36 2.9 0.8
19 7 -35 33.3 2.5
-19 -7 35 36.4 2.6
-19 -7 33 4 1
19 7 -33 2.1 0.8
-19 -7 32 0.2 0.7
19 7 -32 -0.2 0.6
-19 7 31 6.6 1
19 -7 -31 6.3 1
-19 -7 31 4.8 1
19 7 -31 5.7 1
19 -7 -30 8.4 1.2
-19 7 30 10.1 1.3
-19 -7 30 9.6 1.2
19 7 -30 9.1 1.2
19 -7 -29 51.29 3.2
-19 7 29 44.8 3
19 7 -29 49.1 3.1
-19 -7 29 42.6 3
19 -7 -28 0.9 0.7
-19 7 28 0.7 0.7
-19 -7 28 0.9 0.7
19 7 -28 1.7 0.6
19 -7 -27 67.09 3.9
-19 7 27 55.79 3.6
-19 7 26 13.5 1.4
19 -7 -26 17.6 1.7
-19 -7 26 17.7 1.6
19 7 -26 12.6 1.4
-19 7 25 42.6 2.9
19 -7 -25 45.4 3.1
-19 -7 25 47.1 3
19 7 -25 47.8 3
-19 7 24 26.3 2
19 -7 -24 21.9 2
-19 -7 24 24.5 1.9
19 7 -24 20.8 1.9
-19 7 23 1.1 0.7
19 -7 -23 0.5 0.6
-19 -7 23 0.5 0.6
19 7 -23 1.7 0.7
19 -7 -22 0.5 0.6
-19 7 22 1 0.6
-19 -7 22 1.4 0.8
19 7 -22 1.5 0.8
-19 7 21 53.49 3.3
19 -7 -21 48.1 3.3
19 7 -21 49.7 3.3
-19 7 20 5.7 1
19 -7 -20 5.2 1.1
-19 -7 20 4.1 0.9
19 7 -20 4.7 0.9
-19 -7 19 49.5 3.2
19 7 -19 53.99 3.3
19 7 -18 1.2 0.7
-19 -7 18 2.8 0.8
-19 -7 17 28.8 2.2
19 7 -17 26.3 2.1
-19 7 15 142.89 7.5
19 -7 -15 148.69 7.7
19 7 -14 3.7 0.9
-19 7 14 2.3 0.7
19 -7 -14 2.3 0.7
-19 -7 14 3.5 0.9
-19 7 13 33.8 2.5
19 -7 -13 33.4 2.6
-19 -7 13 36.1 2.5
19 7 -13 37.6 2.5
19 -7 -12 25.3 2.2
-19 7 12 29.8 2.2
-19 -7 12 30.4 2.3
19 7 -12 32.4 2.3
19 -7 -11 59.89 3.8
-19 7 11 61.79 3.8
-19 -7 11 67.29 3.9
19 7 -11 61.39 3.8
-19 7 10 4.2 0.9
19 -7 -10 3.7 0.9
-19 -7 10 3.5 0.9
19 7 -10 3.8 0.9
-19 7 9 123.09 6.1
19 -7 -9 105.29 6.1
-19 7 8 1.3 0.7
19 7 -8 0.6 0.6
19 -7 -8 1.4 0.8
-19 -7 8 2.2 0.7
19 -7 -7 67.79 4.2
-19 7 7 71.39 4.1
-19 -7 7 71.79 4.1
19 7 -7 68.29 4.1
19 7 -6 4.7 1
-19 7 6 5.9 1
19 -7 -6 5.7 1.1
-19 -7 6 5.9 1
-19 7 5 23.8 2
-19 -7 5 27 2.1
19 -7 -5 23.7 2.1
19 7 -5 27.7 2.1
-19 7 4 17.3 1.5
19 -7 -4 17.2 1.7
-19 -7 4 16.6 1.6
19 7 -4 15.8 1.6
-19 7 3 14.9 1.4
19 -7 -3 14.8 1.5
-19 -7 3 15 1.5
19 7 -3 12.2 1.5
19 7 -2 6.4 1.1
-19 7 2 5.4 0.9
19 -7 -2 8.3 1.1
-19 -7 2 5.5 1
-19 7 1 13.5 1.3
19 -7 -1 14.8 1.5
-19 -7 1 11.3 1.3
19 7 -1 12.3 1.4
19 7 0 5 1
-19 7 0 3.9 0.8
-19 -7 0 2.9 0.8
19 -7 0 2.5 0.9
-19 7 -1 17.5 1.6
19 -7 1 16.7 1.7
-19 -7 -1 18.6 1.7
19 7 1 18.7 1.7
19 7 2 7.3 1.1
-19 7 -2 6.9 1
19 -7 2 6.5 1.1
-19 -7 -2 6.8 1.1
-19 7 -3 60.59 3.6
19 -7 3 58.19 3.7
-19 -7 -3 57.29 3.6
19 7 3 63.69 3.7
-19 7 -4 8.8 1.1
19 -7 4 8.8 1.3
-19 -7 -4 7.4 1.1
19 7 4 9 1.2
-19 7 -5 3.5 0.9
19 -7 5 1.5 0.9
19 7 7 20.3 1.8
19 -7 10 15.9 1.7
-19 7 -10 14.9 1.5
19 -7 11 3.7 0.9
-19 7 -11 2.9 0.8
-19 7 -12 25.7 2
19 -7 12 25.4 2.2
19 -7 13 17.2 1.7
-19 -9 32 0.9 0.7
19 9 -32 0.4 0.6
-19 -9 31 3.1 0.9
19 9 -31 5.5 0.9
-19 -9 30 4.9 0.9
19 9 -30 4.3 0.9
-19 -9 28 28 2.1
19 9 -28 25.6 2
-19 9 27 32.5 2.3
19 -9 -27 34.6 2.4
-19 -9 27 31.2 2.3
19 9 -27 28.5 2.3
-19 9 26 18.1 1.6
19 -9 -26 20.9 1.8
-19 -9 26 20.2 1.8
19 9 -26 17.8 1.7
-19 9 25 6.9 1.1
19 -9 -25 8 1.1
-19 -9 25 8.2 1.2
19 9 -25 7 1.1
19 -9 -24 26.2 2.1
-19 9 24 25.3 2
-19 -9 24 26.2 2.1
19 9 -24 26.8 2.1
19 9 -23 5.4 1
19 -9 -23 5.9 1
-19 9 23 3.6 0.9
-19 -9 23 5 1
-19 9 22 12.5 1.3
19 -9 -22 14.3 1.5
-19 9 21 22 1.9
19 -9 -21 23.8 2
-19 -9 21 22.6 1.9
19 9 -21 22.3 1.9
19 9 -20 1.7 0.8
-19 9 20 1.8 0.8
19 -9 -20 1.6 0.8
-19 -9 20 1.7 0.7
19 -9 -19 48 3.3
-19 9 19 55.99 3.3
-19 -9 19 50.29 3.3
19 9 -19 53.99 3.3
-19 9 18 1.3 0.6
19 -9 -18 1.1 0.7
-19 -9 18 1.9 0.9
19 9 -18 0.9 0.8
-19 9 17 5.5 1
19 -9 -17 3.7 1
19 9 -17 4 0.9
-19 -9 17 4 0.9
19 9 -16 3.8 0.9
-19 -9 16 4.8 1
-19 9 15 2 0.7
19 9 -15 2.2 0.9
19 -9 -15 0.9 0.7
-19 -9 15 1.2 0.8
-19 9 14 24 1.9
19 -9 -14 23.9 2
-19 -9 14 22.5 1.9
19 9 -14 25.7 2
-19 9 13 2.6 0.9
19 9 -13 1.9 0.9
19 -9 -13 2.5 0.9
-19 -9 13 3.4 0.9
-19 9 12 35.4 2.5
19 -9 -12 36.2 2.7
19 9 -12 36.8 2.6
-19 9 11 20.7 1.8
19 -9 -11 22.6 2
-19 9 10 10.8 1.2
19 -9 -10 10.4 1.3
19 9 -9 7.1 1.1
19 -9 -9 7.6 1.2
-19 9 9 10.4 1.2
-19 -9 9 8.8 1.2
-19 9 8 1.4 0.6
19 -9 -8 2.6 0.8
19 9 -8 1.2 0.8
-19 -9 8 0.5 0.7
-19 9 7 13.3 1.4
19 -9 -7 14.1 1.6
-19 -9 7 11.3 1.4
19 9 -7 12.7 1.4
-19 9 6 7 1
19 -9 -6 8.5 1.3
-19 -9 6 6.8 1.1
19 9 -6 6.5 1.1
19 -9 -5 1.8 0.7
-19 9 5 1.4 0.6
19 9 -5 0.9 0.8
-19 -9 5 1.2 0.8
-19 9 4 21.8 1.8
19 -9 -4 19.1 1.9
-19 -9 4 20.5 1.8
19 9 -4 22.4 1.9
-19 9 3 3.4 0.8
19 -9 -3 4.5 1.1
19 9 -3 4 0.9
-19 -9 3 4 0.9
-19 9 2 13.1 1.4
19 -9 -2 15.2 1.6
-19 -9 2 15.5 1.5
19 9 -2 13.9 1.5
19 9 -1 4.2 1
19 -9 -1 2.5 0.9
-19 9 1 2.9 0.8
-19 -9 1 4.7 1
-19 9 0 1.2 0.6
19 -9 0 -0.5 0.7
19 9 0 0.4 0.7
-19 -9 0 0.3 0.7
-19 9 -1 11 1.3
19 -9 1 10.8 1.4
-19 -9 -1 12.2 1.4
19 9 1 12.8 1.5
-19 9 -2 1.1 0.7
19 9 2 1.6 0.8
19 -9 2 1.9 0.8
-19 -9 -2 1.4 0.7
-19 9 -3 0.7 0.6
19 -9 3 0.1 0.8
19 -9 4 13.5 1.6
-19 9 -4 14.7 1.5
19 -9 5 0.8 0.8
-19 9 -5 1.2 0.7
19 -9 6 23.8 2.1
19 -9 7 1.7 0.8
-19 9 -7 1.2 0.6
19 -9 8 1.6 0.7
-19 9 -8 1.4 0.7
19 -9 9 11.5 1.5
-19 9 -9 11.2 1.3
19 -9 10 4.7 1.1
-19 9 -10 4.8 0.9
19 -9 11 9.2 1.3
-19 11 21 8.2 1.1
19 -11 -21 10.3 1.3
-19 11 20 4.5 0.9
19 -11 -20 5 1
-19 11 19 14.7 1.4
19 -11 -19 13.2 1.5
19 -11 -18 9 1.2
-19 11 18 6.7 1
-19 11 17 5.7 0.9
19 11 -17 6.3 0.9
19 -11 -17 5.9 1
-19 -11 17 6.9 1
-19 11 16 4.4 0.9
19 11 -16 5.4 0.9
19 -11 -16 4.7 1
-19 -11 16 5.1 1
-19 11 15 1.8 0.8
19 -11 -15 2.8 0.9
19 11 -15 3 0.8
-19 11 14 7.8 1.1
19 -11 -14 8.6 1.2
19 11 -14 8 1.1
-19 -11 14 7.1 1.1
-19 11 13 6.2 0.9
19 11 -13 7.4 1.1
-19 -11 13 7 1.1
19 -11 -12 75.99 4.4
-19 11 12 73.29 4.2
-19 -11 12 74.69 4.4
19 11 -12 76.79 4.4
-19 11 11 1.6 0.7
19 -11 -11 2.5 0.9
19 11 -11 1.9 0.8
-19 -11 11 2.1 0.7
19 -11 -10 36.5 2.6
-19 11 10 35.7 2.5
-19 11 9 2.1 0.7
19 -11 -9 0.7 0.8
19 -11 -8 2.7 0.8
19 11 -8 2.8 0.8
-19 11 8 4 0.8
-19 -11 8 4.1 0.9
-19 11 7 7.3 1
19 -11 -7 5.7 1.1
19 11 -7 5.6 1.1
-19 -11 7 5.6 1
19 -11 -6 12.7 1.4
-19 11 6 14 1.3
-19 -11 6 12.1 1.4
19 11 -6 12.8 1.5
-19 11 5 4.9 0.9
19 -11 -5 5.3 1
19 11 -5 4.2 1
-19 -11 5 4.4 1
19 -11 -4 13.1 1.4
-19 11 4 11.4 1.3
-19 -11 4 10.7 1.4
19 11 -4 14.1 1.5
19 -11 -3 3.7 0.8
19 11 -3 6.3 1
-19 -11 3 5.8 1
19 -11 -2 28.7 2.3
-19 11 1 15.1 1.5
-19 11 0 20.8 1.8
19 -11 0 23.5 2
19 -11 1 0.2 0.6
-19 11 -1 1.6 0.6
19 -11 2 -0.1 0.7
-19 11 -2 -0.2 0.5
-19 11 -3 10.6 1.2
19 -11 3 11.7 1.4
-19 11 -4 17.1 1.6
19 -11 4 17.7 1.8
-20 0 38 208.88 9.7
20 0 -38 173.78 9.5
-20 0 37 -0.2 0.6
20 0 -37 -0.7 0.7
-20 0 36 18 2.1
20 0 -36 39.4 2.6
-20 0 35 0.9 0.7
20 0 -35 -0.3 0.6
-20 0 34 140.99 7.4
20 0 -34 147.09 7.5
-20 0 33 0.3 0.6
20 0 -33 0.1 0.7
-20 0 32 389.06 18.6
20 0 -32 400.16 18.7
-20 0 31 -0.3 0.6
20 0 -31 -0.2 0.6
-20 0 30 193.18 9.8
20 0 -30 204.98 9.9
20 0 -27 -0.2 0.7
-20 0 27 0.5 0.6
-20 0 26 219.68 10.5
20 0 -26 207.68 10.5
-20 0 24 303.37 13.8
20 0 -24 269.27 13.7
20 0 -23 0.5 0.6
-20 0 23 -0.1 0.6
-20 0 22 491.25 22.7
20 0 -22 486.65 22.8
20 0 -21 0.3 0.5
-20 0 21 0.3 0.6
-20 0 20 252.77 11.5
20 0 -20 221.48 11.5
-20 0 19 -0.2 0.6
20 0 -19 -0.6 0.6
-20 0 18 31.6 2.4
20 0 -18 43.4 2.6
20 0 -17 0.6 0.6
-20 0 17 -0.2 0.6
-20 0 16 30.4 2.1
20 0 -16 34.4 2.3
20 0 -15 0.1 0.6
-20 0 15 -0.2 0.5
-20 0 14 2589.54 109.59
20 0 -14 2286.27 109.59
20 0 -13 -0.3 0.5
-20 0 13 0.3 0.6
-20 0 12 1319.77 51.49
20 0 -12 972.8 51.39
20 0 -11 0.2 0.6
-20 0 11 0.3 0.5
-20 0 10 1924.01 83.49
20 0 -10 1776.82 83.49
-20 0 6 1067.19 43.1
20 0 -6 839.42 43
-20 0 5 0.3 0.5
20 0 -5 0.2 0.6
-20 0 4 2253.27 106.39
20 0 -4 2512.75 106.59
-20 0 3 -0.1 0.4
20 0 -3 0.1 0.5
-20 0 2 686.33 29.3
20 0 -2 590.74 29.3
-20 0 1 0.1 0.4
20 0 -1 -0.1 0.5
-20 0 0 110.99 5.5
20 0 0 104.79 5.6
-20 0 -1 0.3 0.4
20 0 1 0.7 0.5
-20 0 -2 44.7 2.7
20 0 2 48.2 2.8
-20 0 -3 0.1 0.4
20 0 3 0.2 0.5
-20 0 -4 1132.79 51.59
20 0 4 1152.98 51.79
-20 0 -5 0.3 0.4
20 0 5 -0.2 0.4
-20 0 -6 1819.12 84.09
20 0 6 1935.81 84.29
-20 0 -7 0.4 0.3
20 0 7 0.1 0.4
-20 0 -8 302.67 14.1
20 0 8 304.37 14.2
-20 0 -9 0 0.3
20 0 9 0.1 0.4
-20 0 -10 0.9 0.4
20 0 10 0.9 0.4
-20 0 -11 0 0.3
20 0 11 -0.1 0.3
20 0 13 0.1 0.2
-20 0 -13 0.2 0.2
-20 -2 38 98.29 5.4
20 2 -38 93.99 5.3
-20 2 37 2.9 0.8
20 -2 -37 2.9 0.8
20 2 -36 15.8 1.6
-20 2 36 11.6 1.4
-20 -2 36 13 1.6
20 -2 -36 13.7 1.6
20 2 -35 8.6 1.1
-20 2 35 9 1.1
-20 -2 35 8.1 1.1
20 -2 -35 10 1.3
20 2 -34 45.2 2.9
-20 2 34 38 2.8
-20 -2 34 46.8 3
20 -2 -34 41.6 3
-20 2 33 2.1 0.7
-20 -2 33 1.8 0.7
20 -2 -33 1.6 0.7
20 2 -33 1.1 0.6
20 2 -32 208.78 10.1
-20 2 32 197.78 10
-20 -2 32 211.08 10.2
20 -2 -32 197.68 10.2
-20 2 31 49.1 3
-20 -2 31 42.5 3
20 2 -31 52.89 3.1
20 -2 -31 43.8 3
20 2 -30 407.46 19.2
-20 2 30 385.36 19.1
-20 -2 30 446.56 19.2
20 -2 -30 389.36 19.2
-20 2 29 21.1 1.7
20 2 -29 16.9 1.6
-20 -2 29 17.1 1.6
20 -2 -29 16.4 1.6
20 2 -28 305.37 14.4
-20 -2 28 291.57 14.3
-20 -2 27 126.39 6.1
20 2 -27 103.39 6
20 2 -26 98.99 5
20 -2 -26 92.89 4.9
-20 2 25 13.2 1.3
20 -2 -25 15 1.5
20 2 -24 615.34 27.2
-20 -2 24 599.64 27.1
20 -2 -24 543.45 27.2
20 2 -23 3.8 0.8
-20 2 23 2.9 0.8
-20 -2 23 2.7 0.8
20 -2 -23 2.3 0.8
20 2 -22 704.13 36.9
-20 2 22 879.41 36.9
-20 -2 22 879.11 37
20 -2 -22 769.62 36.9
20 2 -21 232.08 11.3
-20 -2 21 246.88 11.3
-20 2 21 250.97 11.3
20 2 -20 494.35 22.2
-20 2 20 521.45 22.2
-20 -2 20 463.55 22.1
20 2 -19 257.67 12.6
-20 2 19 209.18 12.4
-20 -2 19 282.87 12.6
20 -2 -19 329.67 12.9
20 2 -18 119.39 6.3
-20 -2 18 120.29 6.2
20 -2 -18 119.79 6.3
-20 2 18 116.19 6.1
-20 2 17 1.7 0.6
20 2 -17 1.1 0.6
-20 -2 17 1.5 0.7
20 -2 -17 1.7 0.8
20 2 -16 340.57 14.8
-20 2 16 293.87 14.6
-20 -2 16 342.07 14.8
20 -2 -16 263.57 14.8
20 2 -15 20.8 1.6
-20 2 15 17.7 1.5
-20 -2 15 18.1 1.5
20 -2 -15 17.7 1.6
20 2 -14 767.82 36.4
-20 2 14 769.82 36.4
-20 -2 14 861.11 36.5
20 -2 -14 793.72 36.5
-20 2 13 0.5 0.5
20 2 -13 1.2 0.6
-20 -2 13 1.8 0.5
20 -2 -13 1.5 0.6
20 2 -12 579.34 28.1
-20 2 12 624.94 28.1
-20 -2 12 640.74 28.2
20 -2 -12 602.24 28.3
20 2 -11 9.6 1.1
-20 2 11 6.5 1
-20 -2 11 8.5 1
20 -2 -11 6.6 1
20 2 -10 408.66 18.3
-20 2 10 374.46 18.2
-20 -2 10 393.26 18.2
20 -2 -10 383.66 18.4
20 2 -9 58.49 3.5
-20 2 9 61.19 3.5
-20 -2 9 62.89 3.5
20 -2 -9 65.29 3.7
-20 2 8 93.09 5
20 2 -8 100.49 5.1
-20 -2 8 93.19 5
20 -2 -8 88.49 5.1
-20 -2 7 16.5 1.4
20 2 -7 15.5 1.4
-20 2 7 16.8 1.4
20 -2 -7 17.7 1.5
-20 2 6 203.78 10.1
20 -2 -6 214.68 10.2
-20 2 5 0.3 0.4
20 -2 -5 0.5 0.5
-20 2 4 1138.69 50.69
-20 -2 4 1180.38 50.69
20 -2 -4 1072.69 50.69
20 2 -4 1067.99 50.69
-20 2 3 1.7 0.5
20 2 -3 2.8 0.7
-20 -2 3 3.1 0.7
20 -2 -3 3.4 0.8
-20 2 2 980.4 42.5
20 2 -2 931.91 42.6
-20 -2 2 895.31 42.5
20 2 -1 6.7 0.9
-20 -2 1 4.9 0.8
20 2 0 197.88 9.3
-20 -2 0 183.18 9.2
20 2 1 57.29 3.4
-20 -2 -1 63.09 3.4
20 2 2 35.2 2.3
-20 -2 -2 40.5 2.4
20 2 3 1.7 0.6
-20 -2 -3 0.6 0.4
-20 2 -4 432.06 19.6
20 -2 4 444.56 19.8
-20 -2 -4 410.16 19.5
20 2 4 408.26 19.5
20 2 5 0.4 0.5
-20 2 -5 1.4 0.5
20 -2 5 0.3 0.5
-20 -2 -5 0.1 0.4
-20 2 -6 949.6 41.8
-20 -2 -6 893.81 41.6
20 -2 6 947.31 41.9
20 2 6 898.11 41.7
-20 2 -7 42.5 2.5
20 -2 7 45.1 2.7
-20 -2 -7 36.5 2.3
20 2 7 44.5 2.5
-20 2 -8 662.33 28.9
20 -2 8 668.73 29
-20 -2 -8 581.44 28.6
20 2 8 636.94 28.8
-20 2 -9 31.5 2.1
-20 -2 -9 31.4 1.9
20 -2 9 37.9 2.3
20 2 9 33.1 2
-20 2 -10 0.4 0.5
20 -2 10 1.5 0.6
-20 -2 -10 0.6 0.3
20 2 10 1.2 0.4
-20 2 -11 65.19 3.3
20 -2 11 57.09 3.4
20 2 11 57.39 3.1
-20 2 -12 129.89 5.3
20 -2 12 136.49 5.5
-20 2 -13 150.28 7.7
20 -2 13 172.78 7.9
20 -2 14 559.54 25.7
20 4 -38 98.89 5.2
-20 -4 38 82.09 5
20 4 -37 119.49 6.5
-20 -4 37 121.59 6.4
20 4 -36 34.9 2.5
-20 -4 36 33.5 2.5
-20 4 35 38.3 2.7
20 -4 -35 36.1 2.7
-20 -4 35 41.9 2.8
20 4 -35 41.8 2.8
-20 4 34 3.5 1
20 4 -34 5.1 1.1
-20 -4 34 6.7 1.2
20 -4 -34 6.4 1.1
-20 4 33 -0.1 0.6
20 4 -33 -0.3 0.5
20 -4 -33 0.7 0.7
-20 -4 33 -0.1 0.6
-20 4 32 53.79 3.2
20 4 -32 54.99 3.3
20 -4 -32 50.49 3.3
-20 -4 32 45.4 3.2
-20 4 31 59.09 3.6
20 -4 -31 64.59 3.8
20 4 -30 208.98 10.6
20 -4 -30 218.78 10.7
-20 -4 30 224.78 10.6
-20 4 30 202.38 10.5
-20 4 29 101.19 5.5
20 4 -29 102.99 5.5
20 -4 -29 102.29 5.6
-20 -4 29 99.09 5.5
-20 4 28 104.89 5.6
20 4 -28 102.89 5.6
20 -4 -28 109.69 5.7
-20 -4 28 97.09 5.6
-20 4 27 25.9 2
20 4 -27 28.1 2.1
20 -4 -27 28.1 2.2
-20 -4 27 25.7 2.1
-20 4 26 24.9 2
20 4 -26 24.6 2
20 -4 -26 27.1 2.1
-20 -4 26 21.9 1.9
-20 4 25 0.2 0.5
20 -4 -25 0.3 0.5
20 4 -25 0.5 0.6
-20 -4 25 0.8 0.7
-20 4 24 109.89 5.9
20 4 -24 107.99 5.9
20 -4 -24 115.99 6
-20 -4 24 107.59 5.9
-20 4 23 3.2 0.7
20 -4 -23 2.3 0.8
-20 -4 23 3.3 0.9
20 4 -23 2.8 0.8
-20 4 22 418.96 17.7
-20 -4 22 402.66 17.7
-20 4 21 138.19 6.8
20 4 -21 115.09 6.7
20 -4 -21 135.99 6.9
-20 -4 21 138.99 6.9
20 4 -20 258.07 11.9
-20 -4 20 229.48 11.8
20 4 -19 85.69 4.9
-20 -4 19 90.69 4.9
20 -4 -18 48.2 3.1
20 -4 -17 14.4 1.4
-20 4 17 13.8 1.3
-20 4 16 103.89 5.8
20 -4 -16 115.89 6
20 4 -16 112.19 5.9
-20 -4 16 111.59 5.9
20 -4 -15 2.3 0.7
-20 4 15 1.7 0.7
-20 -4 15 1.7 0.7
20 4 -15 2.3 0.7
-20 4 14 26.8 2
20 -4 -14 23.8 2
20 4 -14 27.8 2
-20 -4 14 25.6 2
-20 4 13 39.8 2.6
20 -4 -13 41.4 2.7
20 4 -13 37.4 2.6
-20 -4 13 42.1 2.6
-20 4 12 138.19 6.6
20 -4 -12 133.19 6.7
20 4 -12 117.39 6.5
-20 -4 12 123.39 6.5
-20 4 11 112.99 6.1
20 -4 -11 116.79 6.2
20 4 -11 117.29 6.1
-20 -4 11 122.39 6.1
-20 4 10 547.95 23.8
20 4 -10 524.45 23.8
-20 -4 10 516.05 23.7
20 -4 -10 459.85 23.8
-20 4 9 876.41 38.8
20 -4 -9 797.22 38.8
20 4 -9 846.12 38.8
-20 -4 9 871.21 38.8
-20 4 8 155.48 7.5
20 -4 -8 140.89 7.6
20 4 -8 146.59 7.5
-20 -4 8 148.49 7.5
-20 4 7 135.89 6.7
20 -4 -7 131.19 6.9
20 4 -7 126.29 6.7
-20 -4 7 132.79 6.8
20 -4 -6 84.69 5
20 4 -6 102.79 5
-20 -4 6 88.09 4.9
-20 4 6 93.99 5
-20 4 5 5.2 1
20 -4 -5 7 1.1
-20 -4 5 6.4 0.9
20 4 -5 5.4 1
-20 4 4 743.83 34.2
20 -4 -4 819.12 34.4
20 4 -4 777.32 34.2
-20 4 3 188.48 8.7
20 -4 -3 163.88 8.7
20 4 -3 172.88 8.6
-20 -4 3 169.98 8.6
20 -4 -2 307.97 15.6
20 4 -2 330.87 15.5
-20 -4 2 338.17 15.5
-20 4 1 13.6 1.3
20 4 -1 15.6 1.4
-20 -4 1 14.2 1.3
20 -4 -1 12.3 1.4
-20 4 0 101.99 5.4
20 -4 0 104.49 5.6
20 4 0 106.69 5.5
-20 -4 0 96.69 5.3
20 -4 1 190.78 9.8
20 4 1 206.68 9.8
-20 -4 -1 198.78 9.7
-20 4 -1 197.18 9.7
-20 4 -2 114.19 6
20 4 2 109.49 5.9
-20 -4 -2 106.69 5.8
-20 4 -3 82.69 4.4
20 -4 3 75.19 4.5
-20 4 -4 361.86 16.6
20 -4 4 339.17 16.7
-20 4 -5 5.7 0.9
20 -4 5 5.7 1
20 4 5 5.6 0.9
-20 -4 -5 4.7 0.8
-20 4 -6 319.87 16
20 -4 6 364.56 16.2
20 4 6 340.37 16
-20 -4 -6 339.17 15.9
-20 4 -7 14.9 1.4
20 -4 7 18.8 1.6
20 4 7 17.4 1.4
-20 -4 -7 19 1.4
-20 4 -8 23.5 1.8
20 -4 8 22.8 1.9
20 4 8 19.4 1.6
-20 -4 -8 20.9 1.6
-20 4 -9 12.3 1.2
20 -4 9 10.6 1.3
20 4 9 11.7 1.1
-20 -4 -9 14 1.1
20 4 10 4.8 0.7
20 -4 10 7.5 1.1
-20 4 -10 4.9 0.8
-20 -4 -10 5.7 0.7
-20 4 -11 10.4 1.1
20 -4 11 10.5 1.2
-20 4 -12 244.58 11.6
20 -4 12 237.68 11.8
20 -4 13 35.8 2.5
-20 4 -13 35.7 2.4
20 6 -37 50.99 3.2
-20 -6 37 45.7 3.1
20 6 -36 20.1 1.8
-20 -6 36 20.7 1.9
20 6 -35 7.2 1.1
-20 -6 35 9.7 1.3
20 6 -34 1.6 0.8
-20 -6 34 1.3 0.8
20 -6 -33 0.8 0.6
20 6 -33 0.6 0.6
-20 6 33 -0.1 0.6
-20 -6 33 0.7 0.7
-20 6 32 16.3 1.6
20 -6 -32 14.9 1.6
-20 6 31 54.59 3.4
20 -6 -31 53.29 3.5
20 6 -31 53.79 3.4
-20 -6 31 56.29 3.5
20 -6 -30 32.2 2.4
-20 6 30 31.8 2.4
20 6 -30 31.6 2.3
-20 -6 30 34.4 2.5
-20 6 29 60.49 3.6
20 -6 -29 53.89 3.6
20 6 -29 56.69 3.5
-20 -6 29 61.29 3.6
-20 6 28 6.9 1
20 -6 -28 6.9 1.1
-20 -6 28 6.6 1.1
20 6 -28 6.2 1
20 6 -27 57.99 3.6
20 6 -26 76.29 4.4
-20 -6 26 79.09 4.5
-20 6 25 0.5 0.7
20 -6 -25 0.4 0.7
-20 -6 25 0.1 0.7
20 6 -25 0.2 0.7
-20 6 24 6.3 1.1
20 -6 -24 7.6 1.2
-20 -6 24 6.5 1.1
20 6 -24 6.9 1.1
-20 6 23 24.6 1.9
20 -6 -23 22.8 1.9
-20 -6 23 23.1 1.9
20 6 -23 23.8 2
-20 6 22 54.09 3.4
20 -6 -22 56.59 3.5
-20 6 21 77.69 4.7
20 -6 -21 91.79 4.9
-20 6 20 55.29 3.3
-20 -6 20 54.49 3.3
20 6 -20 48.9 3.3
20 -6 -19 199.68 8.7
-20 6 19 183.78 8.5
-20 -6 19 135.59 8.2
20 6 -19 156.48 8.4
-20 6 18 10.2 1.3
20 -6 -18 9.9 1.3
-20 -6 18 10.3 1.2
20 6 -18 10.5 1.2
-20 6 17 71.79 4.3
20 -6 -17 83.09 4.5
-20 -6 17 78.39 4.4
20 6 -17 72.69 4.4
-20 6 16 20.6 1.7
20 -6 -16 16.3 1.7
-20 -6 16 17.3 1.6
20 6 -16 16.9 1.6
-20 6 15 1.8 0.8
20 -6 -15 2.5 0.9
-20 -6 15 1.7 0.7
20 6 -15 2.2 0.8
-20 6 14 10.3 1.2
20 -6 -14 10.3 1.3
-20 -6 14 11.6 1.3
20 6 -14 11.8 1.4
-20 6 13 78.49 4.3
20 -6 -13 77.69 4.5
-20 -6 13 77.99 4.4
20 6 -13 71.49 4.3
-20 6 12 317.77 14
20 -6 -12 276.07 14
-20 -6 12 270.47 13.9
20 6 -12 295.07 14
-20 6 11 19.1 1.7
20 -6 -11 23 1.9
-20 -6 11 20.1 1.7
20 6 -11 18.6 1.8
-20 6 10 145.69 7.6
20 -6 -10 150.78 7.8
-20 -6 10 134.19 7.5
20 6 -10 160.08 7.6
20 -6 -9 166.28 8.9
-20 6 9 168.08 8.7
20 6 -9 192.98 8.9
-20 6 8 57.29 3.5
20 -6 -8 51.89 3.6
-20 -6 8 56.99 3.5
-20 6 7 15.3 1.4
20 -6 -7 13.9 1.5
-20 -6 7 16 1.5
20 6 -7 14.7 1.5
-20 6 6 199.58 10.2
20 -6 -6 216.78 10.5
-20 -6 6 204.28 10.3
20 6 -6 213.58 10.3
-20 6 5 24 1.9
20 -6 -5 21.4 1.9
-20 -6 5 23.4 1.9
20 6 -5 24.8 1.9
20 -6 -4 44.2 3.1
-20 6 4 50.69 3.1
-20 6 3 62.49 3.7
20 -6 -3 63.89 3.9
-20 6 2 58.89 3.5
20 -6 -2 57.59 3.6
-20 -6 2 54.99 3.4
20 6 -2 57.69 3.5
-20 6 1 14.9 1.5
-20 -6 1 15 1.5
20 6 -1 17.5 1.6
-20 6 0 15.2 1.4
20 -6 0 13.2 1.5
-20 -6 0 14 1.4
20 6 0 13.7 1.4
-20 6 -1 5.1 0.8
20 -6 1 4.1 0.9
-20 -6 -1 4.2 0.8
20 6 1 3.7 0.8
-20 6 -2 3.8 0.9
20 -6 2 4.7 1
-20 -6 -2 4.4 0.9
20 6 2 5.5 1
-20 6 -3 0.4 0.6
20 -6 3 -0.1 0.7
-20 -6 -3 0.5 0.6
20 6 3 0.1 0.6
-20 6 -4 16.9 1.6
20 -6 4 15.4 1.7
20 6 4 15.9 1.5
-20 -6 -4 15.9 1.4
-20 6 -5 5.8 0.9
20 -6 5 3.7 1
-20 -6 -5 4.8 0.8
20 6 5 6.2 0.9
-20 6 -6 35.8 2.5
20 -6 6 37.6 2.7
20 6 6 39.1 2.6
-20 -6 -6 40.4 2.6
-20 6 -7 9.9 1.2
20 -6 7 11.2 1.4
20 6 7 12.1 1.3
-20 -6 -7 12.3 1.3
-20 6 -8 52.09 3.3
20 -6 8 56.19 3.5
-20 6 -9 16.7 1.5
20 -6 9 18.3 1.7
-20 6 -10 6.7 1
20 -6 10 8.1 1.2
20 -6 11 87.49 4.9
-20 6 -11 80.69 4.6
-20 6 -12 1.8 0.7
20 -6 12 1.5 0.8
20 -6 13 21.7 2
-20 -8 36 5.9 1.1
20 8 -36 5.4 0.9
-20 -8 35 3.5 0.9
20 8 -35 3.4 0.8
20 8 -33 24.8 2
-20 -8 33 27.6 2.1
-20 -8 32 -0.5 0.7
20 8 -32 -0.1 0.6
20 8 -31 14.6 1.5
-20 -8 31 13.7 1.5
-20 -8 30 4.5 0.9
20 8 -30 4.3 0.9
20 -8 -29 17.6 1.7
-20 8 29 16 1.6
-20 -8 29 17.8 1.6
20 8 -29 13.6 1.5
-20 8 28 6.4 1
20 -8 -28 4.1 0.9
-20 8 27 16.5 1.6
20 8 -27 15.3 1.6
20 -8 -27 16.5 1.7
-20 8 26 6.9 1.1
20 -8 -26 6.3 1.1
-20 -8 26 5.9 1
20 8 -26 5.5 1
-20 8 25 45.9 3
20 -8 -25 43 3
-20 -8 25 46.6 3
20 8 -25 44.3 2.9
-20 -8 24 6.2 1.1
20 8 -24 4.3 0.9
-20 -8 23 13.3 1.4
20 8 -23 12.6 1.4
-20 8 22 10.3 1.3
20 -8 -22 11.9 1.4
-20 -8 22 11 1.3
20 8 -22 12.6 1.3
-20 8 21 71.29 4.3
20 -8 -21 79.59 4.5
-20 -8 21 80.79 4.4
20 8 -21 69.39 4.3
-20 8 20 22.6 1.9
20 -8 -20 22.4 2
20 -8 -19 47 3.1
-20 8 19 44.7 3
20 8 -18 2.7 0.8
-20 -8 18 1.9 0.7
20 8 -17 3.5 1
20 -8 -17 7.1 1.1
-20 8 17 5.4 0.9
-20 -8 17 5.1 1.1
20 8 -16 1.4 0.7
20 -8 -16 1.6 0.8
-20 -8 16 1.7 0.7
-20 8 16 1.6 0.7
20 8 -15 1.8 0.8
-20 8 15 1.9 0.8
20 -8 -15 2.6 0.9
-20 -8 15 1.5 0.8
20 8 -14 10.1 1.3
20 -8 -14 12.7 1.4
-20 8 14 9.3 1.2
-20 -8 14 10 1.3
-20 8 13 2.8 0.8
20 -8 -13 2.5 0.9
20 8 -13 3.5 0.9
-20 -8 13 3.3 0.8
20 8 -12 5.8 1
-20 8 12 4.4 0.9
20 -8 -12 7.8 1.1
-20 -8 12 6.1 1
-20 8 11 65.29 4
20 -8 -11 64.89 4.1
-20 -8 11 77.79 4.2
20 8 -10 6.3 1.1
-20 8 10 6.6 1.1
20 -8 -10 4.3 0.9
-20 -8 10 7 1.1
-20 8 9 14.8 1.5
20 -8 -9 14.5 1.6
-20 -8 9 15.4 1.5
20 8 -9 12.7 1.5
20 8 -8 3.2 1
-20 8 8 3.7 0.9
20 -8 -8 1.9 0.8
-20 -8 8 3.7 0.9
20 8 -7 2.6 0.9
20 -8 -7 3.7 0.9
-20 8 7 3.8 0.8
-20 -8 7 3.7 0.9
20 8 -6 4.9 1
-20 8 6 4 0.8
20 -8 -6 4.9 1
-20 -8 6 5.9 1
-20 8 5 1.6 0.7
20 -8 -5 2.3 0.9
20 8 -5 2.2 0.8
-20 -8 5 2.1 0.8
-20 8 4 1.4 0.7
20 -8 -4 1 0.8
-20 8 3 17.4 1.6
20 -8 -3 18.3 1.8
-20 8 2 0.8 0.7
20 -8 -2 0.9 0.9
-20 -8 1 46.6 3.1
20 8 -1 48.4 3.2
-20 8 1 51.59 3.1
20 8 0 3.5 0.9
20 -8 0 3 1
-20 8 0 3.2 0.8
-20 -8 0 2.4 0.8
-20 8 -1 31.3 2.3
20 -8 1 30.5 2.5
-20 -8 -1 34 2.4
20 8 1 33.5 2.4
20 8 2 0.8 0.7
-20 8 -2 1.2 0.7
20 -8 2 0.8 0.9
-20 -8 -2 0.5 0.7
20 8 3 2 0.7
-20 8 -3 3 0.8
20 -8 3 1.8 0.8
-20 -8 -3 2.3 0.8
20 -8 4 13.6 1.4
20 8 4 12.2 1.4
-20 8 -5 0.3 0.6
20 -8 5 1.1 0.8
-20 8 -6 8.2 1.1
20 -8 6 9.6 1.3
20 -8 7 19.1 1.9
-20 8 -7 22.3 1.8
-20 8 -8 3.6 0.8
20 -8 8 4.2 1.1
20 -8 9 2.4 0.9
-20 -10 26 5.3 0.9
20 10 -26 7.3 1
-20 -10 25 1.5 0.7
20 10 -25 1.5 0.7
-20 10 24 36.2 2.5
20 -10 -24 37.6 2.7
-20 -10 24 34 2.5
20 10 -24 39.8 2.6
-20 10 23 17.8 1.6
20 -10 -23 17.8 1.7
-20 -10 23 20.1 1.7
20 10 -23 16.7 1.6
20 10 -22 3.7 0.9
-20 10 22 5.4 0.9
20 -10 -22 3.3 0.8
-20 -10 22 4.5 1
-20 10 21 33.6 2.4
20 -10 -21 36.4 2.6
20 10 -20 0.9 0.7
-20 10 20 0.9 0.6
20 -10 -20 0.4 0.6
-20 -10 20 -0.1 0.7
20 10 -19 7.3 1
-20 10 19 5 1
20 -10 -19 6.5 1.1
-20 -10 19 4.2 0.9
20 10 -18 6.3 1.1
-20 10 18 5.2 1
20 -10 -18 6.9 1.1
-20 -10 18 5.9 1.1
20 10 -17 2.2 0.8
-20 10 17 1.6 0.8
20 -10 -17 2 0.8
-20 -10 17 1 0.7
20 10 -16 9.2 1.2
-20 -10 16 8.6 1.2
20 -10 -16 8.1 1.2
-20 10 16 7.7 1.1
20 10 -15 4.3 1
-20 10 15 4.9 0.9
-20 -10 15 5.1 1
-20 10 14 21.2 1.8
20 -10 -14 22.6 2
-20 -10 14 25.1 2
-20 10 13 26.4 2
-20 -10 13 24 2
20 10 -13 28 2.1
20 -10 -13 26.7 2.2
-20 10 12 27.5 2.1
20 -10 -12 27.1 2.2
-20 -10 12 29.3 2.2
20 10 -12 29.2 2.2
-20 10 11 7.2 1.1
20 -10 -11 6.1 1.2
-20 10 10 8.2 1
20 -10 -10 7.4 1.1
20 10 -9 1.1 0.8
20 -10 -9 1.9 0.8
-20 10 9 -0.4 0.7
-20 -10 9 0.2 0.7
-20 10 8 15.4 1.5
20 -10 -8 12.9 1.5
-20 -10 8 15.5 1.5
20 10 -8 15.6 1.6
-20 10 7 1.1 0.7
20 10 -7 0.5 0.6
20 -10 -7 0.7 0.9
-20 -10 7 1.3 0.6
-20 10 6 3.3 0.8
20 10 -6 3.5 0.9
20 -10 -6 3 0.9
-20 -10 6 3.7 0.8
-20 10 5 1.5 0.6
20 10 -5 1.7 0.8
20 -10 -5 0.3 0.6
-20 -10 5 1.2 0.7
-20 10 4 19.4 1.7
20 -10 -4 20.6 1.9
-20 -10 4 17.4 1.7
20 10 -4 21.5 1.9
-20 10 3 6.5 1
20 -10 -3 5 1
20 10 -3 5.9 1.1
-20 -10 3 5.4 1
-20 10 2 1 0.6
20 10 -2 0.8 0.7
20 -10 -2 1.1 0.8
-20 -10 2 1 0.7
-20 10 1 1.9 0.7
20 10 -1 3.1 0.9
20 -10 -1 2.7 0.8
-20 -10 1 3.6 0.9
-20 10 0 6.1 1
20 -10 0 7 1.1
-20 10 -1 1.7 0.7
20 -10 1 2.9 0.9
-20 10 -2 2.8 0.7
20 -10 2 3.6 1
20 -10 3 2.3 0.9
-20 10 -4 30.1 2.2
20 -10 4 27.3 2.3
20 -10 5 0.8 0.8
-20 10 -5 0.1 0.6
-20 10 -6 22.9 1.9
20 -10 6 28.8 2.2
20 -10 7 4.5 1
-20 10 -7 4.8 0.8
-21 -1 39 12.9 1.4
-21 1 38 27.5 2.2
21 -1 -38 28.2 2.2
21 1 -37 8.8 1.1
-21 1 37 10.1 1.2
-21 -1 37 7.3 1.1
21 -1 -37 9.7 1.3
-21 1 36 9.3 1.2
-21 -1 36 8.6 1.1
21 -1 -36 9.1 1.2
21 1 -36 9.7 1.2
21 1 -35 1 0.6
-21 1 35 0.8 0.6
-21 -1 35 0.6 0.7
21 -1 -35 1.2 0.7
-21 1 34 114.09 6.1
-21 -1 34 117.99 6.2
21 -1 -34 123.19 6.3
21 1 -34 109.89 6.2
21 1 -33 0.5 0.7
-21 1 33 0.5 0.6
-21 -1 33 0.4 0.7
21 -1 -33 0.3 0.6
-21 1 32 276.07 13.3
-21 -1 32 282.07 13.4
21 -1 -32 282.67 13.4
21 1 -32 263.77 13.3
-21 1 31 25.5 1.9
-21 -1 31 23 1.9
21 -1 -31 23.3 2
21 1 -31 22.8 1.9
21 1 -30 135.29 7.2
-21 1 30 142.79 7.2
-21 -1 30 137.29 7.2
21 -1 -30 141.09 7.3
21 1 -29 1 0.7
-21 1 29 0.8 0.6
-21 -1 29 0.8 0.6
21 -1 -29 0.1 0.6
21 1 -28 264.57 13.2
-21 1 28 273.77 13.1
-21 -1 28 284.97 13.2
21 -1 -28 264.07 13.2
21 1 -27 77.69 4.2
-21 -1 27 68.29 4.1
21 -1 -26 170.68 8.6
21 1 -25 0.6 0.6
21 1 -24 439.26 20.4
-21 1 24 423.66 20.3
-21 -1 24 445.26 20.4
21 -1 -24 432.86 20.4
21 1 -23 8.9 1.1
-21 1 23 9.6 1.1
-21 -1 23 10.7 1.1
21 -1 -23 8.1 1.1
21 1 -22 407.06 20.3
-21 1 22 439.46 20.3
21 -1 -22 405.06 20.3
21 1 -21 5 0.9
-21 1 21 4.8 0.9
-21 -1 21 4.5 0.8
21 -1 -21 4.1 0.8
-21 1 20 271.67 12.7
21 1 -20 245.98 12.7
21 -1 -20 248.78 12.8
21 1 -19 13.2 1.3
-21 1 19 9.7 1.2
-21 -1 19 11.9 1.3
21 -1 -19 13.5 1.4
21 1 -18 16.3 1.5
-21 1 18 12.3 1.3
-21 -1 18 13.4 1.4
21 -1 -18 14.8 1.4
21 1 -17 42.2 2.7
-21 1 17 40.4 2.7
-21 -1 17 45.2 2.8
21 -1 -17 42 2.8
21 1 -16 383.56 19.8
-21 1 16 459.55 19.9
-21 -1 16 419.06 19.8
21 -1 -16 441.36 19.9
21 1 -15 4.9 1
-21 1 15 4.4 0.9
-21 -1 15 5 0.9
21 -1 -15 3.5 0.9
21 1 -14 1101.69 55.29
-21 1 14 1263.37 55.39
-21 -1 14 1216.58 55.39
21 -1 -14 1317.97 55.49
21 1 -13 29.6 2.1
-21 1 13 26 2
-21 -1 13 29.9 2
21 -1 -13 25.8 2.1
21 1 -12 1238.38 55.99
-21 1 12 1338.37 55.99
-21 -1 12 1170.28 55.89
21 -1 -12 1194.58 55.99
21 1 -11 22.4 1.8
-21 1 11 25.4 1.8
-21 -1 11 24.9 1.8
21 -1 -11 23.3 1.8
21 1 -10 561.34 27.7
-21 1 10 600.44 27.6
-21 -1 10 652.53 27.7
21 -1 -10 591.54 27.8
21 1 -9 7.5 1
-21 1 9 6.7 1
-21 -1 9 7.6 0.9
21 -1 -9 6.1 1
21 1 -8 27.9 2.1
-21 1 8 30.2 2.1
-21 -1 8 28.1 2.2
21 1 -7 35.3 2.4
-21 1 7 35.3 2.4
-21 -1 7 37.4 2.4
21 -1 -7 42 2.6
-21 1 6 841.72 37.4
21 -1 -6 792.02 37.5
-21 1 5 27 1.9
21 -1 -5 27 2
-21 -1 3 33.5 2.1
21 1 -3 25.8 2
-21 -1 2 540.55 24.7
21 1 -2 533.35 24.8
21 1 -1 0.7 0.5
-21 -1 1 0.3 0.5
-21 1 0 26.5 1.8
-21 -1 0 24.1 1.7
21 -1 0 29.5 2
21 1 0 26.7 1.9
-21 1 -1 44.9 2.6
-21 -1 -1 41 2.5
21 -1 1 42.7 2.7
21 1 1 41.7 2.6
-21 1 -2 345.17 16.4
-21 -1 -2 344.57 16.4
21 -1 2 363.06 16.6
21 1 2 355.76 16.5
-21 -1 -3 131.09 6.6
-21 1 -3 129.09 6.6
21 -1 3 135.29 6.8
21 1 3 140.69 6.8
-21 1 -4 1599.84 73.79
-21 -1 -4 1601.74 73.79
21 -1 4 1573.74 73.99
21 1 4 1800.32 73.99
-21 1 -5 1 0.5
-21 -1 -5 0.5 0.5
21 -1 5 0.5 0.5
21 1 5 0.6 0.5
-21 -1 -6 993.1 45.7
21 1 6 973.4 45.8
-21 1 -6 1039.9 45.7
21 -1 6 1033.7 45.9
-21 1 -7 54.09 3
-21 -1 -7 53.29 2.9
21 -1 7 55.09 3.2
21 1 7 53.39 3.1
-21 1 -8 55.89 3
-21 -1 -8 49.3 2.9
21 -1 8 59.19 3.2
21 1 8 55.29 3
-21 1 -9 37.3 2.2
-21 -1 -9 33.7 2.1
21 -1 9 39.5 2.3
21 1 9 35 2.2
-21 1 -10 0.9 0.4
-21 -1 -10 0.7 0.3
21 -1 10 1.7 0.6
21 1 10 0.9 0.4
-21 1 -11 34 2.1
21 -1 11 36.1 2.2
-21 1 -12 319.57 13.2
21 -1 12 337.37 13.4
21 1 12 292.47 13
21 -1 13 32.9 2
-21 -3 39 68.89 4
21 3 -39 64.09 4
21 3 -38 60.09 3.6
-21 -3 38 56.79 3.6
21 3 -37 39 2.8
-21 -3 37 43 2.9
21 3 -36 0.8 0.6
-21 3 36 0.4 0.6
-21 -3 36 -0.4 0.7
21 -3 -36 0.8 0.7
21 3 -35 1.7 0.9
-21 3 35 2.7 0.8
-21 -3 35 2.5 0.9
21 -3 -35 2.9 0.8
21 3 -34 65.29 4
-21 3 34 59.99 3.8
-21 -3 34 71.09 4
21 -3 -34 67.79 4
-21 3 33 29.6 2.2
21 -3 -33 29.4 2.2
21 3 -32 268.17 14
-21 3 32 292.77 14
21 -3 -32 274.27 14.1
21 3 -31 132.29 6.7
-21 3 31 123.69 6.5
-21 -3 31 126.39 6.6
21 -3 -31 115.29 6.6
21 3 -30 173.38 8.5
-21 3 30 158.98 8.4
-21 -3 30 175.18 8.5
21 -3 -30 159.08 8.5
21 3 -29 50.29 3.1
-21 3 29 41.3 2.9
-21 -3 29 48.7 3.1
21 -3 -29 43.3 3
-21 3 28 4.1 0.8
21 3 -28 3.2 0.8
-21 -3 28 3.3 0.9
21 -3 -28 2.7 0.8
21 3 -27 10.8 1.3
-21 3 27 9.8 1.2
21 -3 -27 8.8 1.2
-21 3 26 147.59 6.9
21 3 -26 124.09 6.8
-21 -3 26 139.39 6.9
21 -3 -26 115.39 6.8
-21 3 25 -0.2 0.6
21 3 -25 -0.1 0.7
-21 -3 25 0.2 0.7
21 -3 -25 -0.3 0.6
-21 3 24 412.26 20.8
21 3 -24 429.16 20.9
21 -3 -24 460.35 21.1
21 3 -23 62.39 4.1
-21 -3 23 83.99 4.3
21 3 -22 474.15 23.1
-21 -3 22 518.65 23.2
-21 3 21 222.08 11.5
21 -3 -21 258.87 11.8
-21 3 20 139.89 7
21 -3 -20 134.19 7.1
-21 3 19 279.77 15.3
21 3 -19 308.07 15.5
-21 3 18 81.39 4.5
21 3 -18 88.19 4.7
-21 -3 18 77.69 4.5
21 -3 -18 82.99 4.7
-21 3 17 27.9 2.1
21 3 -17 35.6 2.4
-21 -3 17 35.5 2.3
21 -3 -17 31.7 2.3
-21 3 16 275.27 13.5
21 3 -16 274.17 13.5
-21 -3 16 295.67 13.6
21 -3 -16 282.07 13.6
-21 3 15 19.1 1.6
21 3 -15 17.8 1.7
-21 -3 15 18.7 1.6
21 -3 -15 16 1.7
-21 3 14 83.59 4.3
21 3 -14 76.59 4.3
-21 -3 14 80.59 4.3
-21 3 13 17.5 1.5
21 3 -13 14.9 1.5
-21 -3 13 15 1.4
21 -3 -13 12.9 1.5
-21 3 12 384.56 17.8
21 3 -12 363.16 17.8
-21 -3 12 403.36 17.8
21 -3 -12 361.46 17.9
-21 3 11 91.59 5.1
21 3 -11 106.99 5.2
21 -3 -11 92.59 5.2
-21 -3 11 92.29 5.1
-21 3 10 325.67 16.2
-21 -3 10 339.17 16.3
21 3 -10 351.76 16.4
21 -3 -10 369.86 16.5
-21 3 9 98.29 5
21 -3 -9 92.69 5.1
-21 -3 9 99.49 5
-21 3 8 60.09 3.5
21 3 -8 65.59 3.6
21 -3 -8 60.09 3.6
-21 -3 8 55.99 3.4
-21 3 7 59.49 3.6
21 3 -7 64.09 3.6
21 -3 -7 59.89 3.7
-21 -3 7 63.09 3.6
-21 3 6 501.45 24.5
21 3 -6 531.05 24.6
21 -3 -6 543.25 24.7
-21 -3 6 554.44 24.6
-21 3 5 95.69 5.1
21 3 -5 103.19 5.2
21 -3 -5 93.89 5.2
-21 -3 5 94.69 5.1
21 3 -4 951.9 44.9
-21 3 4 996.7 44.9
21 -3 -4 1034.1 45.1
-21 -3 4 969.3 44.9
21 3 -3 11.7 1.3
21 -3 -3 8.5 1.1
-21 -3 3 10.8 1.2
-21 3 2 297.27 13.5
21 3 -2 274.87 13.5
21 -3 -2 277.57 13.6
-21 -3 2 280.17 13.4
-21 3 1 19.6 1.7
21 3 -1 23.8 1.8
21 -3 -1 21.8 1.9
-21 -3 1 22.2 1.7
21 -3 0 1.1 0.6
-21 3 0 0.3 0.5
-21 3 -1 11.3 1.3
21 -3 1 8.7 1.3
-21 3 -2 131.39 6.7
21 -3 2 137.59 6.9
-21 -3 -2 134.89 6.7
21 3 2 126.39 6.7
21 3 3 5.9 0.9
-21 3 -3 7.4 1.1
21 -3 3 6.8 1.1
-21 -3 -3 7.4 1
21 3 4 909.71 42.7
-21 3 -4 1043.1 42.9
21 -3 4 931.11 42.9
-21 -3 -4 892.41 42.6
21 3 5 17.7 1.4
-21 3 -5 17.9 1.5
21 -3 5 15.3 1.5
-21 -3 -5 14.5 1.3
21 3 6 405.46 19.9
21 -3 6 435.26 20.2
-21 -3 -6 438.26 19.8
-21 3 -6 440.66 20
-21 3 -7 62.99 3.5
21 -3 7 54.89 3.5
-21 -3 -7 56.39 3.2
21 3 7 63.39 3.4
21 -3 8 9.6 1.2
-21 -3 -8 11.7 1
-21 3 -8 12.3 1.2
21 3 8 12 1.1
-21 3 -9 20.1 1.6
21 -3 9 23.9 1.8
-21 -3 -9 24.4 1.6
21 3 9 21.6 1.6
-21 -3 -10 98.39 5.1
21 -3 10 104.49 5.5
21 3 10 98.39 5.2
-21 3 -11 44.5 2.8
21 -3 11 53.69 3.1
-21 3 -12 437.76 19.6
21 -3 12 400.86 19.7
-21 3 -13 30.5 2.1
21 -3 13 37.2 2.4
21 5 -38 5 1
-21 -5 38 5.5 1
21 5 -37 78.59 4.6
-21 -5 37 79.29 4.6
21 5 -36 3.5 0.9
-21 -5 36 4 0.9
-21 5 34 2.6 0.8
21 -5 -34 2.2 0.8
21 5 -34 2.9 0.8
-21 -5 34 2.1 0.8
-21 5 33 31.8 2.3
21 5 -33 30.4 2.3
21 -5 -33 30.5 2.4
-21 -5 33 33 2.4
-21 5 32 52.29 3.3
21 5 -32 54.89 3.4
21 -5 -32 55.19 3.5
-21 -5 32 52.69 3.4
21 5 -31 138.29 7.3
-21 -5 31 137.59 7.2
21 5 -30 77.19 4.2
-21 -5 30 64.39 4.1
-21 5 29 64.39 3.8
21 -5 -29 66.59 4
21 5 -29 63.79 3.8
-21 -5 29 60.69 3.8
-21 5 28 26.3 2.1
21 -5 -28 26.4 2.2
21 5 -28 28.3 2.1
-21 -5 28 29.1 2.2
-21 5 27 27.1 2
21 -5 -27 24.7 2.1
21 5 -27 23.9 2
-21 -5 27 26.9 2.1
21 -5 -26 1.5 0.7
-21 5 26 1 0.6
-21 5 25 5.8 0.9
21 -5 -25 6 1
-21 -5 25 6.2 1.1
21 5 -25 7.8 1.1
-21 5 24 157.08 7.9
21 -5 -24 148.69 7.9
21 5 -24 153.98 7.9
-21 -5 24 155.38 7.9
-21 5 23 58.99 3.5
21 -5 -23 53.49 3.6
21 5 -23 60.19 3.6
-21 -5 23 58.69 3.6
21 -5 -22 169.18 8.4
21 5 -22 155.58 8.2
-21 -5 22 164.58 8.3
-21 5 21 186.68 9.6
21 -5 -21 205.88 9.9
21 5 -21 185.48 9.7
-21 -5 21 206.78 9.8
-21 5 20 121.99 6.6
21 -5 -20 128.89 6.7
21 5 -20 129.29 6.7
-21 -5 20 126.89 6.6
-21 5 19 224.48 11.4
21 -5 -19 217.48 11.5
21 5 -19 247.98 11.5
-21 -5 19 252.77 11.6
-21 5 18 13.2 1.3
21 -5 -18 12.3 1.4
21 5 -18 12.9 1.4
-21 -5 18 14.6 1.4
-21 5 17 26.1 2.1
21 -5 -17 27.2 2.2
21 5 -17 29 2.2
-21 -5 17 28.9 2.1
-21 5 16 152.98 7.3
21 -5 -16 155.78 7.5
-21 -5 16 157.98 7.4
-21 5 15 199.68 9.7
21 5 -15 214.48 9.8
-21 -5 15 201.18 9.7
21 -5 -14 122.99 6.4
-21 5 14 117.79 6.2
21 5 -14 116.29 6.2
-21 -5 14 114.39 6.2
21 -5 -13 234.48 11.9
21 5 -13 246.48 11.9
-21 -5 13 248.98 11.8
-21 5 13 241.78 11.8
21 -5 -12 260.77 11.6
-21 5 12 248.98 11.4
21 5 -12 229.08 11.4
-21 5 11 174.28 9
21 -5 -11 186.58 9.2
-21 5 10 8.1 1.1
21 -5 -10 6.3 1.1
21 -5 -9 39.6 3
-21 5 9 53.89 3.1
-21 5 8 210.78 11
21 -5 -8 238.68 11.3
21 5 -8 244.38 11.2
-21 -5 8 219.38 11.1
21 -5 -7 29 2.4
21 5 -7 30.3 2.3
-21 -5 7 37.8 2.4
-21 5 7 36.1 2.4
-21 5 6 87.79 5.1
21 -5 -6 103.49 5.4
21 5 -6 98.99 5.2
-21 -5 6 96.29 5.2
-21 5 5 20.3 1.7
21 -5 -5 18.2 1.8
21 5 -5 18.8 1.7
-21 -5 5 23.8 1.8
21 -5 -4 192.48 9.6
-21 5 4 199.78 9.5
21 5 -4 194.38 9.5
-21 -5 4 178.28 9.4
-21 5 3 209.88 9.9
21 -5 -3 203.28 10
21 5 -3 199.78 9.8
-21 -5 3 186.08 9.8
-21 5 2 40.3 2.6
21 5 -2 38.4 2.5
-21 -5 2 35.4 2.5
-21 5 1 38.1 2.6
21 5 -1 38.2 2.6
-21 -5 1 34.4 2.5
21 -5 -1 43 2.8
-21 5 0 3.2 0.8
-21 -5 0 2.9 0.8
21 -5 0 3.3 0.9
21 5 0 3.1 0.8
-21 5 -1 41.3 2.9
21 -5 1 44.6 3
21 5 1 47.7 2.9
-21 -5 -1 49 2.9
-21 5 -2 162.88 7.9
21 -5 2 146.59 7.9
21 5 2 146.99 7.7
-21 -5 -2 159.08 7.8
21 -5 3 15.1 1.6
-21 5 -3 16.6 1.6
21 5 3 13.4 1.4
-21 -5 -3 16.2 1.5
-21 5 -4 164.78 8.3
21 -5 4 177.38 8.5
21 5 4 160.98 8.3
-21 -5 -4 157.08 8.2
-21 5 -5 7.9 1
21 -5 5 6.9 1.1
21 5 5 7.2 1
-21 -5 -5 4.5 0.9
-21 5 -6 39.8 2.5
21 5 6 34.9 2.4
21 -5 6 35.2 2.6
-21 -5 -6 35.7 2.4
-21 5 -7 54.19 3.2
21 -5 7 52.69 3.4
21 5 7 52.59 3.2
-21 -5 -7 54.69 3.2
-21 5 -8 1.1 0.6
21 -5 8 1.3 0.8
21 5 8 2.2 0.7
-21 -5 -8 1.2 0.6
-21 5 -9 5.1 0.9
21 -5 9 4.6 1
-21 5 -10 2.8 0.8
21 -5 10 2.8 0.9
-21 5 -11 72.09 4.4
21 -5 11 92.09 4.8
21 -5 12 41.8 2.8
-21 5 -12 38.7 2.6
21 7 -37 15 1.5
-21 -7 37 13.7 1.5
21 7 -36 1.5 0.8
-21 -7 36 0.7 0.7
21 7 -35 7 1.1
-21 -7 35 2.2 1
-21 -7 34 6.1 1.1
21 7 -34 7 1.1
-21 -7 32 4.9 1
21 7 -32 4.8 1
21 7 -31 113.39 5.9
-21 -7 31 104.89 5.9
-21 7 30 3.5 0.9
21 -7 -30 3.3 0.9
-21 -7 30 3.2 0.9
21 7 -30 3.2 0.8
-21 7 29 51.89 3.3
21 -7 -29 56.39 3.4
21 7 -29 48.6 3.2
-21 -7 29 48.7 3.2
-21 7 28 0.5 0.7
21 -7 -28 -0.1 0.7
-21 -7 28 0.8 0.7
21 7 -28 1.2 0.7
-21 7 27 22.9 1.9
21 -7 -27 24.4 2.1
21 7 -27 22.3 1.9
-21 -7 27 23.1 2
-21 7 26 25.4 2.1
21 -7 -26 27.2 2.2
-21 7 25 4.1 1
21 -7 -25 6.3 1.1
-21 7 24 0.4 0.8
21 -7 -24 0.9 0.7
-21 -7 24 0.9 0.7
21 7 -24 0.7 0.6
-21 7 23 104.19 5.6
21 -7 -23 113.69 5.8
-21 -7 23 109.79 5.6
-21 7 22 2.6 0.9
21 -7 -22 2.5 0.9
-21 -7 22 1.5 0.7
21 7 -22 2.2 0.7
-21 7 21 121.69 6.2
21 -7 -21 123.99 6.4
-21 -7 21 103.69 6.1
21 7 -21 114.29 6.2
-21 7 20 0.7 0.7
21 -7 -20 1.3 0.8
-21 -7 20 0.8 0.6
21 7 -20 1.1 0.7
-21 7 19 51.79 3.3
21 -7 -19 61.19 3.6
-21 -7 19 52.49 3.4
21 7 -19 49.2 3.3
21 -7 -18 5.1 1.1
-21 -7 18 2.4 0.7
-21 7 18 4.8 0.9
21 7 -18 4.1 0.9
-21 7 17 6.4 1.1
21 -7 -17 5 1.1
-21 -7 17 6.7 1.1
21 7 -17 7.6 1.1
-21 7 16 1.3 0.7
21 -7 -16 1 0.7
-21 -7 16 1 0.7
21 7 -16 1 0.8
-21 7 15 73.99 4.4
21 -7 -15 77.09 4.6
-21 -7 15 79.09 4.5
21 7 -15 82.29 4.5
-21 7 14 10.1 1.2
21 -7 -14 11.1 1.4
-21 -7 14 9.3 1.2
21 7 -14 10.4 1.3
-21 7 13 20.1 1.8
21 -7 -13 19.1 1.9
-21 7 12 194.08 10
21 -7 -12 212.98 10.3
21 -7 -11 88.49 5.1
-21 7 11 88.19 5
21 7 -11 92.09 5
21 7 -10 5.5 1
21 -7 -10 6.9 1.1
-21 7 10 5.7 1
-21 -7 10 5.9 1
-21 -7 9 30.6 2.2
21 7 -9 28.9 2.2
-21 -7 8 13.6 1.4
21 7 -8 11.8 1.3
-21 -7 7 3.3 0.8
21 7 -7 2.7 0.7
-21 -7 6 4.2 0.9
21 7 -6 5.1 1
-21 -7 5 25.8 2.1
21 7 -5 29.6 2.2
-21 -7 4 2.6 0.8
21 7 -4 1.9 0.8
-21 -7 3 81.59 4.6
21 7 -3 82.69 4.7
-21 -7 2 1.2 0.7
21 7 -2 0.8 0.7
-21 -7 1 50.29 3.2
21 7 -1 49.8 3.2
-21 7 0 21 1.7
-21 -7 0 22.4 1.8
21 7 0 18.2 1.7
21 -7 0 18.3 1.8
-21 7 -1 1.3 0.8
21 -7 1 1 0.9
-21 -7 -1 1.4 0.7
21 7 1 1.7 0.7
21 -7 2 0.1 0.7
-21 7 -2 1.1 0.7
-21 -7 -2 0.9 0.7
21 7 2 0.5 0.7
-21 7 -3 23.1 1.9
21 -7 3 21.9 2
-21 -7 -3 23 1.9
21 7 3 23.5 2
-21 7 -4 7.1 1.1
21 -7 4 7.6 1.3
-21 -7 -4 6.7 1
21 7 4 8.6 1.2
-21 7 -5 23.1 1.8
21 7 5 22.9 1.9
-21 7 -6 12.2 1.3
21 -7 6 11.7 1.5
-21 7 -7 10 1.2
21 -7 7 9.3 1.3
-21 7 -8 7.2 1.1
21 -7 8 5.6 1.1
21 -7 9 17.2 1.7
-21 7 -9 15.9 1.5
-21 7 -10 1.8 0.7
21 -7 10 2.3 0.9
21 -7 11 2.7 0.9
-21 -9 31 3.5 1
21 9 -31 6.2 1
-21 -9 30 0.3 0.7
21 9 -30 -0.2 0.6
-21 -9 29 0.4 0.6
21 9 -29 0.4 0.6
-21 9 28 0.6 0.7
21 -9 -28 0.6 0.7
-21 -9 28 1.1 0.6
21 9 -28 1 0.6
-21 9 27 24.3 2
21 -9 -27 27.7 2.1
-21 -9 27 24.6 2
21 9 -27 21.5 1.9
-21 9 26 3.4 0.9
21 -9 -26 3.6 0.9
-21 -9 26 4.3 0.9
21 9 -26 4.2 0.9
-21 -9 25 20.4 1.8
21 9 -25 20.4 1.7
-21 -9 24 0.2 0.7
21 9 -24 0.9 0.7
-21 9 23 36.6 2.4
21 -9 -23 30.9 2.4
21 9 -23 32 2.3
-21 9 22 1 0.6
21 -9 -22 0.8 0.6
-21 -9 22 1.1 0.7
21 9 -22 1.4 0.7
-21 9 21 60.39 3.7
21 -9 -21 60.69 3.8
-21 -9 21 58.69 3.7
21 9 -21 63.89 3.7
-21 9 20 -0.3 0.6
21 -9 -20 -0.6 0.7
-21 9 19 27.2 2.1
21 -9 -19 26.2 2.1
-21 -9 19 27.3 2.1
21 9 -19 23.9 2
-21 9 18 15.8 1.5
21 -9 -18 15.7 1.7
-21 -9 18 19.1 1.7
21 9 -18 16.8 1.6
-21 9 17 12.6 1.4
-21 -9 17 12.5 1.4
21 9 -17 11.8 1.3
-21 9 16 41 2.9
21 -9 -16 47.9 3.1
-21 -9 16 44.1 3
21 9 -16 48.1 3
-21 9 15 23.1 1.9
21 -9 -15 23.8 2
-21 -9 15 22.5 1.9
21 9 -15 20.6 1.9
21 9 -14 1.9 0.7
-21 9 14 2 0.7
21 -9 -14 1.7 0.7
-21 -9 14 3 0.7
-21 9 13 58.79 3.7
21 -9 -13 65.09 3.9
-21 -9 13 60.19 3.8
21 9 -13 67.49 3.9
21 9 -12 5.3 1
-21 9 12 3.2 0.8
21 -9 -12 3.4 1
-21 -9 12 3.9 1
-21 9 11 29.1 2.1
21 -9 -11 24.1 2.1
-21 -9 11 31.4 2.3
21 9 -11 27.1 2.2
21 9 -10 3 0.9
-21 9 10 3 0.8
21 -9 -10 1.4 0.8
-21 -9 10 1.5 0.8
21 9 -9 2.4 0.8
21 -9 -9 0.8 0.9
-21 9 9 1.5 0.7
-21 -9 9 2.3 0.8
-21 9 8 0.5 0.5
21 -9 -8 0.2 0.7
21 -9 -7 12.5 1.5
-21 9 7 15.4 1.5
21 9 -6 6.2 1.1
-21 9 6 5.9 0.9
21 -9 -6 6.2 1.1
-21 -9 6 6.9 1.1
21 9 -5 6.2 1.1
-21 9 5 4.8 0.9
21 -9 -5 5 1
-21 -9 5 4.3 0.9
21 9 -4 6.7 1.1
-21 9 4 5.9 1
21 -9 -4 4.9 1.1
-21 -9 4 3 0.9
-21 9 3 22.1 1.8
21 -9 -3 23.6 2
-21 -9 3 17.2 1.8
21 9 -3 21.6 1.9
21 9 -2 0.3 0.7
-21 9 2 -0.2 0.7
-21 -9 2 0.1 0.6
21 9 -1 8.9 1.3
21 -9 -1 11.1 1.4
-21 9 1 6.6 1
-21 -9 1 8.8 1.2
21 9 0 0.8 0.8
-21 9 0 1.1 0.7
21 -9 0 2.3 0.9
-21 -9 0 0.8 0.6
-21 9 -1 0.9 0.7
21 -9 1 0.8 0.8
21 -9 2 41.4 2.8
-21 9 -2 32.7 2.5
-21 9 -3 -0.1 0.6
21 -9 3 1.2 0.9
21 -9 4 14.9 1.6
-21 9 -4 12.8 1.4
21 -9 5 12.2 1.5
-21 9 -5 10.6 1.2
-21 9 -6 1.1 0.5
21 -9 6 0.4 0.7
21 -9 7 18.8 1.8
-21 9 -7 16 1.6
-21 11 16 27.3 2.1
21 -11 -16 37.3 2.5
21 -11 -15 12 1.3
-21 11 15 10 1.2
-21 -11 15 10.1 1.2
21 11 -15 12.1 1.3
21 11 -14 8.2 1.1
-21 11 14 6.5 1
21 -11 -14 6.6 1.1
-21 -11 14 7.6 1.1
21 11 -13 4.1 1
-21 11 13 5.4 0.9
21 -11 -13 2.4 0.8
-21 -11 13 4 0.9
-21 11 12 13 1.3
21 -11 -12 15.5 1.5
-21 -11 12 13.3 1.4
21 11 -12 13 1.4
21 11 -11 1.8 0.8
-21 11 11 1.9 0.7
21 -11 -11 1.4 0.7
-21 -11 11 1.9 0.7
-21 11 10 11.8 1.3
21 -11 -10 16.8 1.5
-21 -11 10 12.7 1.4
21 11 -10 12.8 1.4
21 -11 -9 14 1.5
-21 11 9 10.5 1.2
-21 -11 9 11.6 1.4
21 11 -9 12.4 1.4
-21 11 8 3.8 0.7
21 11 -8 4.1 0.9
21 -11 -8 4.6 0.9
-21 -11 8 5.4 1
-21 11 7 0.8 0.6
21 11 -7 0.6 0.6
21 -11 -7 0.9 0.8
-21 -11 7 0.2 0.6
21 -11 -6 65.99 3.9
-21 11 6 62.99 3.7
21 -11 -5 23.3 1.9
-21 11 5 17.5 1.6
21 -11 -4 78.19 4.4
-21 11 4 71.09 4.2
-21 11 3 0.5 0.6
21 -11 -3 1.1 0.7
-22 0 39 -0.4 0.7
-22 0 37 -0.3 0.7
22 0 -37 -0.1 0.6
-22 0 36 120.69 6.3
22 0 -36 116.29 6.4
-22 0 35 0.8 0.6
22 0 -35 0.8 0.7
-22 0 34 230.28 11.4
22 0 -34 237.88 11.6
-22 0 33 -0.3 0.6
22 0 -33 0.3 0.6
-22 0 32 293.57 13.1
22 0 -32 243.98 13
-22 0 31 -0.6 0.7
22 0 -31 0.8 0.8
-22 0 30 227.48 11.3
22 0 -30 234.08 11.4
22 0 -29 -0.3 0.6
-22 0 29 0.1 0.6
-22 0 28 87.09 5.6
22 0 -28 138.09 6.1
22 0 -27 -0.1 0.6
-22 0 27 -0.1 0.6
-22 0 24 334.67 18.1
22 0 -24 464.85 18.5
22 0 -23 -0.1 0.6
-22 0 23 -0.5 0.6
-22 0 22 243.28 12.2
22 0 -22 264.27 12.3
22 0 -21 0.7 0.7
-22 0 21 0.4 0.7
-22 0 20 62.69 3.9
22 0 -20 80.39 4.2
22 0 -19 0.3 0.6
-22 0 19 0.1 0.6
-22 0 18 256.57 13
22 0 -18 288.17 13.1
22 0 -17 -0.3 0.6
-22 0 17 0.3 0.6
-22 0 16 1143.69 46.7
22 0 -16 906.61 46.7
22 0 -15 0.1 0.6
-22 0 15 0.2 0.6
-22 0 14 2235.78 91.89
22 0 -14 1846.72 91.79
22 0 -13 0.1 0.7
-22 0 13 0.1 0.6
22 0 -12 641.34 29.3
-22 0 12 629.84 29.2
22 0 -11 -0.5 0.6
-22 0 11 0.3 0.6
-22 0 10 59.59 3.7
22 0 -10 67.59 3.8
-22 0 9 -0.2 0.5
22 0 -9 -0.1 0.6
-22 0 8 265.47 12.7
22 0 -8 265.57 12.8
-22 0 7 0.1 0.5
22 0 -7 0.1 0.5
-22 0 6 569.14 27.8
22 0 -6 652.83 28
-22 0 5 -0.1 0.5
-22 0 4 1372.86 63.29
22 0 -4 1433.86 63.49
-22 0 1 0.4 0.5
22 0 -1 -0.3 0.6
-22 0 0 141.09 7
22 0 0 141.09 7.2
-22 0 -1 0.3 0.5
22 0 1 -0.2 0.5
-22 0 -2 1018.8 46.3
22 0 2 1021.2 46.4
-22 0 -3 -0.1 0.4
22 0 3 0.2 0.6
-22 0 -4 569.34 27
22 0 4 617.84 27.2
-22 0 -5 -0.1 0.5
22 0 5 0.7 0.6
-22 0 -6 182.88 8.7
22 0 6 176.98 8.8
-22 0 -7 0.1 0.4
22 0 7 0.1 0.5
-22 0 -8 78.99 4.1
22 0 8 77.89 4.2
-22 0 -9 0.1 0.4
22 0 9 0.3 0.4
-22 0 -10 40.5 2.4
22 0 10 48.3 2.6
-22 0 -11 -0.1 0.3
22 0 11 0.8 0.4
-22 -2 39 34.8 2.5
22 2 -39 32.6 2.5
-22 -2 38 33.3 2.5
22 2 -38 31.8 2.4
22 2 -37 17.7 1.6
-22 2 37 16.7 1.6
-22 -2 37 15.6 1.5
22 -2 -37 14.7 1.6
22 2 -36 46.4 3
-22 2 36 40.3 2.9
-22 -2 36 43.9 3
-22 2 35 20.6 1.8
22 -2 -35 25.1 2
-22 2 34 263.47 11.9
-22 -2 34 253.97 11.9
22 -2 -34 234.48 11.9
22 2 -33 65.99 3.9
-22 2 33 66.79 3.9
-22 -2 33 61.09 3.8
22 -2 -33 66.39 4
22 2 -32 267.27 12.5
-22 2 32 237.38 12.3
-22 -2 32 267.27 12.5
22 -2 -32 248.98 12.5
22 2 -31 8.6 1.2
-22 2 31 11.8 1.3
-22 -2 31 11.1 1.3
22 -2 -31 9.3 1.2
-22 2 30 98.49 5.4
22 2 -30 101.39 5.4
-22 -2 30 96.39 5.4
22 -2 -30 96.79 5.5
22 2 -29 0.1 0.5
-22 2 29 0.2 0.5
-22 -2 29 -0.2 0.5
22 -2 -29 -0.1 0.6
22 2 -28 45.9 2.8
-22 2 28 37.9 2.7
-22 -2 28 32.4 2.6
22 -2 -28 47.6 2.9
-22 2 27 0.7 0.7
-22 -2 27 1.3 0.7
22 -2 -27 1.2 0.7
-22 2 26 262.17 12.5
-22 -2 26 233.98 12.4
22 -2 -26 249.78 12.6
22 2 -25 33.8 2.4
22 -2 -25 35.6 2.4
-22 -2 24 507.55 21
22 2 -24 393.96 20.8
-22 -2 23 53.49 3.3
-22 2 22 1004 41.6
22 -2 -22 815.62 41.5
-22 2 21 24.4 1.8
-22 -2 21 22.5 1.8
22 -2 -21 21 1.8
22 2 -21 22.1 1.9
-22 2 20 219.98 11.4
-22 -2 20 245.98 11.5
22 -2 -20 253.67 11.7
22 2 -20 226.68 11.5
22 2 -19 38.7 2.6
-22 2 19 35.9 2.4
-22 -2 19 37.6 2.5
22 -2 -19 36.8 2.6
22 2 -18 96.99 5.3
-22 2 18 102.29 5.3
-22 -2 18 96.89 5.3
22 -2 -18 94.89 5.3
22 2 -17 52.89 3.2
-22 2 17 51.69 3.1
-22 -2 17 56.89 3.2
22 -2 -17 44.8 3.2
22 2 -16 990.1 45.4
-22 -2 16 968.2 45.3
-22 2 16 1000.2 45.3
22 -2 -16 1021.6 45.5
22 2 -15 1.4 0.6
-22 -2 15 1.1 0.6
-22 2 15 2.1 0.8
22 -2 -15 2.2 0.8
22 2 -14 572.14 25.7
-22 2 14 531.85 25.5
-22 -2 14 566.94 25.6
22 -2 -14 539.35 25.7
22 2 -13 1.5 0.7
-22 2 13 0.3 0.7
-22 -2 13 0.9 0.6
22 -2 -13 0.7 0.7
-22 2 12 340.67 16.3
-22 -2 12 356.76 16.3
22 2 -12 362.46 16.4
22 -2 -12 316.97 16.5
22 2 -11 3.9 0.9
-22 2 11 3.7 0.8
-22 -2 11 3.3 0.8
22 -2 -11 3.7 0.8
-22 2 10 35 2.5
-22 -2 10 37.9 2.6
22 -2 -10 34.2 2.6
22 2 -9 1.8 0.8
-22 2 9 1.4 0.7
-22 -2 9 0.5 0.6
22 -2 -9 0.9 0.7
22 2 -8 227.48 10.9
-22 2 8 227.58 10.8
-22 -2 8 215.48 10.8
22 -2 -8 224.28 10.9
22 2 -7 27.7 2.1
-22 2 7 28.8 2.1
-22 -2 7 27.6 2
22 -2 -7 31.9 2.2
-22 2 6 1359.16 60.19
-22 -2 6 1227.78 60.09
22 -2 -6 1254.27 60.29
-22 2 5 0.9 0.6
22 2 -5 1.4 0.6
-22 -2 5 1.3 0.6
22 -2 -5 2.8 0.8
22 2 -4 561.14 25.5
-22 2 4 556.34 25.4
-22 -2 4 533.55 25.4
22 2 -3 76.49 4.5
-22 2 3 83.69 4.5
-22 -2 3 80.99 4.4
22 -2 -3 91.49 4.7
-22 2 2 386.56 17.5
22 -2 -2 355.96 17.5
-22 2 1 8 1
22 -2 -1 8.8 1.1
22 2 0 250.17 12.2
-22 2 0 252.47 12.1
-22 -2 0 266.37 12.1
22 -2 0 247.38 12.3
-22 2 -1 110.49 5.8
-22 -2 -1 113.89 5.8
22 -2 1 118.79 6
22 2 1 108.29 5.8
-22 -2 -2 1262.47 56.39
22 -2 2 1254.57 56.59
-22 2 -2 1238.58 56.49
22 2 2 1232.98 56.49
-22 2 -3 11.5 1.2
22 -2 3 13.4 1.3
-22 -2 -3 12 1.1
22 2 3 11.5 1.2
-22 2 -4 1018.9 44.7
22 -2 4 1021.6 44.9
-22 -2 -4 967.2 44.6
22 2 4 933.91 44.7
-22 2 -5 33.2 2.1
22 -2 5 32.5 2.2
-22 -2 -5 27.5 1.9
22 2 5 32.3 2.1
-22 2 -6 452.15 20.1
22 -2 6 443.36 20.2
-22 -2 -6 418.86 19.9
22 2 6 416.96 20.1
-22 -2 -7 73.89 3.8
22 2 7 70.49 3.9
-22 -2 -8 2.6 0.6
22 2 8 2.2 0.7
-22 -2 -9 0.7 0.4
22 2 9 1.1 0.4
-22 2 -10 188.88 8.9
22 -2 10 192.88 9
-22 -2 -10 172.58 8.6
22 2 10 182.78 8.7
-22 2 -11 26.4 1.8
22 -2 11 27.6 2
-22 2 -12 405.46 19
22 -2 12 417.76 19.2
22 4 -39 18.5 1.7
-22 -4 39 18.2 1.7
22 4 -37 38.1 2.5
-22 -4 37 27.2 2.3
-22 4 36 13.4 1.6
22 4 -36 19.9 1.9
22 -4 -36 17.4 1.8
-22 -4 36 16.8 1.7
-22 4 35 1.1 0.6
22 4 -35 1 0.7
22 -4 -35 -0.3 0.7
-22 -4 35 1.7 0.7
-22 4 34 78.89 4.5
22 4 -34 84.09 4.6
22 -4 -34 71.59 4.5
-22 -4 34 74.99 4.5
22 4 -33 40.6 2.7
-22 -4 33 36.8 2.7
-22 4 32 90.39 5.1
22 4 -32 87.19 5.1
22 -4 -32 97.59 5.3
-22 -4 32 98.39 5.3
-22 4 31 85.99 5
22 4 -31 89.29 5
22 -4 -31 93.49 5.2
-22 -4 31 93.79 5.1
-22 4 30 34.3 2.5
22 4 -30 42.6 2.8
22 -4 -30 43.2 2.8
-22 -4 30 32.5 2.6
-22 4 29 72.59 4
22 -4 -29 59.99 3.9
-22 4 28 14.3 1.5
22 4 -28 16.6 1.6
22 -4 -28 15.1 1.6
-22 4 27 10 1.2
22 4 -27 10.7 1.3
-22 -4 27 9.8 1.3
22 -4 -27 8.2 1.2
-22 4 26 68.39 4
22 4 -26 67.09 4
22 -4 -26 65.29 4.1
-22 -4 26 73.79 4.1
-22 4 25 17.5 1.5
22 4 -25 16.8 1.6
22 -4 -25 15.1 1.5
-22 -4 25 18.2 1.6
22 4 -24 330.77 15.4
-22 4 24 303.27 15.2
22 -4 -24 312.77 15.4
-22 -4 24 333.17 15.3
-22 4 23 48.2 3
22 4 -23 50.89 3.1
-22 -4 23 44.4 3
-22 4 22 443.06 20.9
22 4 -22 425.16 21
22 -4 -22 462.75 21.1
-22 -4 22 454.45 21
-22 4 21 147.29 7.3
22 -4 -21 144.69 7.4
-22 -4 21 153.08 7.4
-22 4 20 91.89 4.9
22 4 -20 95.99 5
22 -4 -20 80.19 5
-22 -4 20 87.09 4.9
-22 4 19 176.28 8.2
22 4 -19 145.19 8.1
22 -4 -19 156.08 8.2
-22 -4 19 164.28 8.1
-22 4 18 68.39 4.1
22 4 -18 81.09 4.3
22 -4 -18 66.59 4.2
-22 -4 18 71.99 4.1
-22 4 17 33 2.4
22 4 -17 34.3 2.4
22 -4 -17 36.9 2.5
-22 -4 17 35.3 2.4
-22 4 16 540.35 24.5
22 4 -16 491.55 24.5
22 -4 -16 524.15 24.6
-22 -4 16 555.64 24.6
-22 4 15 268.67 13.2
22 -4 -15 282.77 13.3
22 4 -13 220.28 11.1
-22 -4 13 236.68 11.2
22 4 -12 97.79 5.3
-22 -4 12 99.69 5.3
-22 4 11 2.7 0.7
22 -4 -11 1.8 0.7
-22 -4 11 2.5 0.7
22 4 -11 3.4 0.8
-22 4 10 139.39 6.6
22 -4 -10 127.19 6.6
22 4 -10 114.39 6.4
-22 -4 10 120.39 6.4
-22 4 9 2.4 0.8
22 -4 -9 1.4 0.8
-22 -4 9 1.4 0.7
22 4 -9 2.3 0.8
-22 4 8 225.08 11.3
22 -4 -8 244.78 11.5
-22 -4 8 233.08 11.3
-22 4 7 65.59 3.8
22 -4 -7 70.49 4
22 4 -7 64.89 3.8
-22 -4 7 65.39 3.8
-22 4 6 160.18 8
22 -4 -6 147.89 8.1
22 4 -6 165.88 8.1
-22 -4 6 162.78 8
-22 4 5 298.77 13.5
22 -4 -5 276.77 13.6
22 4 -5 272.27 13.5
-22 -4 5 276.47 13.4
-22 4 4 747.63 33.1
22 -4 -4 710.83 33.3
22 4 -4 785.22 33.3
-22 -4 4 653.33 33
-22 4 3 45 3
22 -4 -3 51.99 3.3
22 4 -3 51.59 3.1
-22 -4 3 52.89 3.1
22 -4 -2 24.3 2.1
-22 4 2 27 2.1
22 4 -2 29 2.1
-22 -4 2 32.1 2.1
-22 4 1 59.69 3.7
22 -4 -1 66.49 3.9
22 4 -1 67.39 3.8
-22 -4 1 62.49 3.7
22 -4 0 55.59 3.5
22 4 0 55.09 3.4
-22 4 0 53.09 3.3
-22 -4 0 60.19 3.4
-22 4 -1 7.6 1.1
22 -4 1 9.8 1.2
22 4 1 8.7 1.1
-22 -4 -1 9.2 1.1
-22 4 -2 443.96 20.8
22 -4 2 462.25 21.1
22 4 2 445.96 20.8
-22 -4 -2 436.36 20.8
-22 4 -3 85.19 4.5
22 4 3 75.79 4.4
22 -4 3 77.09 4.5
-22 -4 -3 78.79 4.3
-22 4 -4 210.78 10.5
22 4 4 211.48 10.5
22 -4 4 223.58 10.7
-22 -4 -4 217.38 10.4
-22 4 -5 14.7 1.4
22 -4 5 14.8 1.5
-22 4 -6 74.29 4.2
22 -4 6 72.69 4.3
-22 4 -7 108.49 5.6
22 4 7 102.29 5.5
22 -4 7 110.79 5.8
-22 -4 -7 103.09 5.5
22 4 8 19.9 1.6
-22 4 -8 19.6 1.6
-22 -4 -8 18.6 1.5
22 -4 8 18.6 1.7
-22 4 -9 39.8 2.6
22 -4 9 41.9 2.8
-22 4 -10 193.78 9.8
22 -4 10 208.48 10
-22 4 -11 112.79 5.9
22 -4 11 110.89 6
22 -4 12 184.38 9.3
22 6 -38 0.2 0.6
-22 -6 38 0.4 0.6
22 6 -37 5.3 1
-22 -6 37 2.6 0.9
22 6 -36 15.2 1.5
-22 -6 36 13.6 1.5
22 6 -35 15.6 1.6
-22 -6 35 15.9 1.5
22 6 -34 3.1 0.8
-22 -6 34 0.8 0.7
-22 6 33 62.09 3.7
22 6 -33 57.29 3.6
-22 -6 33 51.19 3.5
22 -6 -33 65.49 3.8
22 -6 -32 18.4 1.7
22 6 -32 17.1 1.6
-22 -6 32 16.6 1.6
-22 6 32 19.3 1.7
-22 6 31 70.19 4.3
22 -6 -31 76.29 4.4
22 6 -31 77.89 4.4
-22 -6 31 69.79 4.2
-22 6 30 39.9 2.7
22 -6 -30 34 2.6
-22 6 29 16.4 1.5
22 -6 -29 16 1.6
22 6 -29 15.2 1.5
-22 -6 29 13.9 1.5
-22 6 28 34.1 2.4
22 -6 -28 29.7 2.4
-22 -6 28 32 2.4
-22 6 27 4.2 0.9
22 -6 -27 5 1
-22 -6 27 4.8 0.9
22 6 -27 5.1 0.8
-22 6 26 3 0.9
22 -6 -26 2.9 1
-22 -6 26 3.1 0.9
22 6 -26 3 0.8
-22 6 25 31.8 2.4
22 -6 -25 38.1 2.6
22 6 -25 28.7 2.3
-22 -6 25 36.7 2.5
-22 6 24 37.8 2.5
22 -6 -24 38.5 2.6
22 6 -24 31 2.4
-22 -6 24 28.9 2.3
-22 6 23 179.98 8.9
22 -6 -23 179.68 9
22 6 -23 164.78 8.8
-22 -6 23 179.88 8.9
22 6 -22 10.9 1.3
-22 -6 22 13.3 1.4
22 6 -21 200.08 10.8
-22 -6 21 247.68 11.1
22 6 -20 17.8 1.7
-22 -6 20 16.2 1.6
-22 6 19 80.39 4.6
22 -6 -19 81.19 4.7
22 -6 -18 1.6 0.8
-22 6 18 1 0.7
-22 -6 18 1 0.6
22 6 -18 2.9 0.8
-22 6 17 4.1 0.9
22 -6 -17 2.9 0.9
-22 -6 17 2.3 0.8
22 6 -17 3.6 0.9
-22 6 16 76.89 4.4
22 -6 -16 73.69 4.4
-22 -6 16 73.89 4.3
22 6 -16 81.09 4.5
-22 6 15 60.49 3.8
22 -6 -15 64.09 4
-22 -6 15 65.09 3.8
22 6 -15 69.89 4
22 -6 -14 44.2 3.1
-22 6 14 47.3 3
-22 -6 14 46.2 3
22 6 -14 52.99 3.2
-22 6 13 110.29 5.7
22 -6 -13 99.59 5.8
-22 -6 13 105.29 5.7
22 6 -13 105.79 5.7
22 -6 -12 44.5 2.9
-22 6 12 39.3 2.7
-22 -6 12 36.2 2.6
22 6 -12 38.7 2.7
-22 6 11 120.49 6.7
22 -6 -11 131.99 6.9
-22 -6 11 125.09 6.7
22 6 -11 144.69 6.9
-22 6 10 9.4 1.2
22 -6 -10 9.9 1.3
22 6 -10 10.4 1.3
-22 -6 10 8 1.2
22 -6 -9 9.6 1.3
-22 -6 9 8.8 1.2
22 6 -9 10.2 1.3
-22 6 9 10.7 1.3
-22 6 8 15.6 1.5
22 -6 -8 14.5 1.6
-22 -6 8 13.7 1.4
22 6 -8 14.4 1.5
-22 6 7 28 2.1
22 -6 -7 24.2 2.1
-22 -6 7 26.5 2
22 6 -7 28.6 2.1
22 -6 -6 22 2
-22 6 6 25.8 2
-22 -6 6 27.2 2
22 6 -6 28.9 2.1
-22 6 5 90.29 4.8
22 -6 -5 89.49 5
-22 -6 5 78.49 4.8
22 6 -5 91.39 4.9
-22 6 4 73.39 4
22 -6 -4 64.49 4.1
-22 -6 4 67.29 4
22 6 -4 67.29 4
22 6 -3 89.99 4.9
-22 -6 3 82.89 4.7
-22 6 2 53.69 3.3
22 -6 -2 52.99 3.4
22 6 -2 49.3 3.2
-22 -6 2 51.39 3.2
-22 6 1 11.3 1.3
22 -6 -1 11.7 1.4
-22 6 0 0.2 0.6
22 -6 0 0.1 0.6
-22 6 -1 0.5 0.6
22 -6 1 0.7 0.8
-22 -6 -1 -0.1 0.6
22 6 1 -0.1 0.6
-22 6 -2 99.59 5.3
22 -6 2 98.89 5.5
22 6 2 93.49 5.3
-22 -6 -2 98.99 5.3
22 -6 3 7.2 1.1
-22 6 -3 5 0.9
-22 -6 -3 6.1 1
22 6 3 5.7 1
-22 6 -4 65.39 3.7
22 6 4 59.49 3.7
-22 -6 -4 65.39 3.7
22 -6 4 55.89 3.7
-22 6 -5 35 2.4
22 -6 5 34.8 2.5
22 6 5 30.4 2.3
-22 -6 -5 30.4 2.3
-22 6 -6 3.2 0.8
22 -6 6 2.3 0.9
-22 6 -7 35.6 2.5
22 -6 7 36.1 2.7
-22 6 -8 1.8 0.8
22 -6 8 0.9 0.9
-22 6 -9 53.19 3.3
22 -6 9 57.99 3.6
-22 6 -10 9 1.1
22 -6 10 10 1.4
-22 6 -11 0.4 0.6
22 -6 11 0.1 0.7
22 8 -36 1.3 0.7
-22 -8 36 0.1 0.6
-22 -8 35 4.9 1
22 8 -35 5.8 0.9
-22 -8 34 2 0.8
22 8 -34 2 0.7
22 8 -33 40.7 2.7
-22 -8 33 37.1 2.7
22 8 -32 13.8 1.5
-22 -8 32 17.1 1.6
22 8 -31 49.9 3.2
-22 -8 31 55.49 3.4
-22 8 30 6.9 1.1
22 -8 -30 7 1.1
-22 -8 30 5.9 1
22 8 -30 6.2 1
-22 8 29 32.6 2.4
22 -8 -29 39.5 2.6
22 8 -29 33.7 2.4
-22 -8 29 32.7 2.4
-22 8 28 18.4 1.7
22 -8 -28 17.9 1.8
-22 8 27 5.2 0.9
22 -8 -27 6.2 1.1
-22 8 26 35.1 2.5
-22 -8 26 32 2.4
22 8 -26 30.7 2.4
22 -8 -25 9.4 1.3
-22 8 25 11.4 1.3
-22 -8 25 12.8 1.4
22 8 -25 11.1 1.3
22 -8 -24 1.3 0.8
-22 8 24 2.8 0.9
-22 -8 24 3.4 0.9
22 8 -24 1.8 0.8
-22 8 23 15.2 1.5
22 -8 -23 17.6 1.7
-22 -8 23 14.2 1.5
22 8 -23 14.3 1.5
-22 8 22 0.3 0.7
22 -8 -22 0.5 0.7
-22 -8 22 0.5 0.7
22 8 -22 0.6 0.7
-22 8 21 65.79 3.9
22 -8 -21 64.69 4
-22 -8 21 63.69 3.8
22 8 -21 63.19 3.9
-22 8 20 28.4 2
22 -8 -20 25.5 2.1
-22 -8 20 19.7 1.8
22 8 -20 22.2 1.9
-22 -8 19 4.1 0.9
22 8 -19 3 0.9
-22 -8 18 18.2 1.7
22 8 -18 18.7 1.7
-22 8 16 21.8 1.8
22 -8 -16 20.9 1.9
-22 -8 16 18 1.7
22 8 -16 22.3 1.8
-22 8 15 76.79 4.6
-22 -8 15 75.19 4.6
22 8 -15 84.29 4.7
22 -8 -15 89.69 4.8
-22 8 14 30.1 2.2
22 -8 -14 29.2 2.3
-22 -8 14 26.2 2.2
22 8 -14 28.5 2.2
-22 8 13 27 2.1
22 -8 -13 30.5 2.3
-22 8 12 0.1 0.6
22 -8 -12 1.9 0.7
-22 -8 12 2.4 0.8
22 8 -12 2.3 0.9
-22 8 11 44.8 2.9
22 -8 -11 45.5 3.1
-22 -8 11 47.2 3
22 8 -11 40.8 2.9
-22 8 10 4 0.8
22 -8 -10 5.2 1
-22 -8 10 4 0.8
22 8 -10 5 0.9
22 8 -9 1.8 0.7
-22 8 9 1.3 0.7
22 -8 -9 0.7 0.8
-22 -8 9 1.9 0.7
22 -8 -8 2.3 0.9
-22 8 8 3.9 0.9
-22 -8 8 2.9 0.8
22 8 -8 3.4 0.8
-22 8 7 4.7 0.9
22 -8 -7 4.4 1
-22 -8 7 6.5 1
22 8 -7 5.5 1
-22 8 6 8.8 1.1
22 -8 -6 9.3 1.2
-22 -8 6 8.6 1.1
22 8 -6 6.5 1.1
-22 8 5 30.6 2.4
22 -8 -5 38.4 2.7
-22 -8 5 34.5 2.5
22 8 -5 36.5 2.6
-22 8 4 4.5 0.9
22 -8 -4 5.2 1.1
-22 -8 4 3.7 0.8
22 8 -4 4.3 0.9
-22 -8 3 32 2.4
22 8 -3 34.3 2.5
-22 8 2 7 1.1
22 -8 -2 7.1 1.2
-22 -8 2 6.3 1
22 8 -2 6.9 1.1
-22 8 1 7.9 1.1
22 -8 -1 6.6 1.2
-22 -8 1 5.3 1
22 8 -1 6 1.1
-22 8 0 24.2 2
22 -8 0 25.9 2.2
-22 8 -1 11.2 1.3
22 -8 1 10.5 1.4
-22 8 -2 27.7 2
22 -8 2 26.5 2.2
22 8 2 33.3 2.3
-22 8 -3 8.6 1.1
22 -8 3 8.4 1.3
-22 8 -7 11 1.3
22 -8 7 10 1.4
-22 8 -8 3.4 0.8
22 -8 8 2.6 0.9
22 -8 9 1.9 0.9
-22 10 26 2.1 0.8
22 -10 -26 1.6 0.8
-22 10 25 13.5 1.4
22 -10 -25 17.5 1.6
-22 10 24 1.1 0.7
22 -10 -24 1 0.8
-22 -10 24 0.8 0.6
22 10 -24 1.3 0.6
-22 10 23 14.4 1.4
-22 -10 23 10.3 1.3
22 10 -23 13.1 1.4
-22 10 22 10.7 1.3
22 -10 -22 15.5 1.5
-22 -10 22 11.5 1.3
22 10 -22 12 1.3
-22 -10 21 35.8 2.5
22 10 -21 33.5 2.4
-22 -10 20 4.7 0.9
22 10 -20 5 0.9
22 -10 -19 2.4 0.8
-22 10 19 0.7 0.6
-22 10 18 11.9 1.3
22 -10 -18 13 1.4
22 10 -17 3 0.8
-22 10 17 2.6 0.8
22 -10 -17 2.9 0.8
-22 -10 17 2.6 0.8
-22 10 16 21.9 1.8
22 -10 -16 25.6 2
22 10 -16 19.6 1.9
-22 10 15 14 1.4
22 -10 -15 16.5 1.6
-22 -10 15 17.1 1.6
22 10 -15 16.4 1.6
-22 10 14 23.1 1.9
22 -10 -14 21.9 1.9
-22 -10 14 20.1 1.8
22 10 -14 24.8 1.9
22 10 -13 9.9 1.2
-22 10 13 11.4 1.2
22 -10 -13 7.6 1.2
-22 -10 13 9.6 1.2
-22 10 12 21.4 1.8
22 -10 -12 20.9 1.9
-22 -10 12 23.2 1.9
22 10 -11 2.5 0.9
-22 10 11 2.6 0.8
22 -10 -11 3 0.9
-22 -10 11 3 0.9
22 10 -10 3.7 1
-22 10 10 2.4 0.7
22 -10 -10 1.9 0.7
-22 -10 10 2.5 0.8
22 10 -9 0.3 0.8
-22 10 9 0.8 0.7
22 -10 -9 0.3 0.7
-22 -10 9 -0.1 0.7
-22 10 8 34.7 2.4
22 -10 -8 36.7 2.6
-22 10 7 0.7 0.6
22 -10 -7 0.9 0.9
-22 10 6 69.19 4.1
22 -10 -6 76.09 4.3
22 10 -5 2.1 0.8
-22 10 5 1.2 0.6
22 -10 -5 1.5 0.7
-22 -10 5 1.2 0.7
-22 10 4 11.7 1.3
22 -10 -4 13.9 1.5
-22 -10 4 14.1 1.5
22 10 -4 13.1 1.4
22 10 -3 4.6 1
-22 10 3 5.6 1
22 -10 -3 7.2 1.2
-22 -10 3 4.8 0.9
-22 10 2 7.9 1.1
22 -10 -2 9.8 1.3
-22 10 1 1.1 0.7
22 -10 -1 1.9 0.8
22 -10 0 14.5 1.6
-22 10 0 11.3 1.2
-22 10 -1 1.6 0.6
22 -10 1 2.3 0.8
22 -10 2 15.5 1.6
-22 10 -2 11.8 1.3
-22 10 -5 1.3 0.6
22 -10 5 2 0.8
-22 10 -6 11.2 1.3
22 -10 6 11.7 1.5
22 -10 7 2.1 0.9
-22 10 -7 0.5 0.6
-23 -1 39 18.1 1.8
23 1 -39 24 2
-23 1 38 22 1.9
-23 -1 38 24.8 2
23 -1 -38 23.7 2
23 1 -38 26.6 2
23 1 -37 5.8 1
-23 -1 37 4.6 1
-23 1 36 170.88 8.7
23 -1 -36 171.28 8.8
-23 1 35 29.2 2.2
23 -1 -35 28.9 2.3
-23 1 34 223.78 11.7
-23 -1 34 249.18 11.8
23 -1 -34 265.87 12
23 1 -34 232.68 11.8
-23 1 33 30.5 2.2
-23 -1 33 28.9 2.2
23 -1 -33 28.8 2.2
23 1 -33 29.3 2.2
-23 1 32 108.99 5.9
-23 -1 32 114.59 5.9
23 -1 -32 108.99 6
23 1 -32 107.09 5.9
23 1 -31 1.7 0.8
-23 1 31 1.2 0.7
-23 -1 31 1.3 0.7
23 -1 -31 1.1 0.7
-23 1 30 95.49 5.1
-23 -1 30 96.59 5.1
23 -1 -30 91.39 5.2
23 1 -30 86.69 5.1
23 1 -29 129.09 6.8
-23 -1 29 133.99 6.8
-23 1 29 131.19 6.8
23 -1 -29 124.19 6.8
23 1 -28 279.47 13.3
-23 1 28 274.27 13.2
-23 -1 28 257.97 13.2
23 -1 -28 290.67 13.4
-23 1 27 3.2 0.8
-23 -1 27 3.1 0.8
23 -1 -27 3.2 0.9
23 1 -26 352.36 16.8
-23 1 26 344.07 16.7
-23 -1 26 361.56 16.7
23 1 -25 2.3 0.8
-23 1 25 0.5 0.6
-23 -1 25 1.9 0.7
23 -1 -25 0.5 0.6
23 1 -24 391.06 18.1
-23 -1 24 375.06 18
-23 1 22 220.78 11.1
23 -1 -22 236.08 11.2
23 1 -21 5.2 0.9
-23 1 21 5.7 1
-23 -1 21 3.8 0.8
23 -1 -21 4.2 0.9
23 1 -20 23.1 1.9
-23 1 20 27.7 2
-23 -1 20 23.1 1.9
23 -1 -20 27.7 2.1
23 1 -19 11.3 1.3
-23 1 19 10 1.2
-23 -1 19 10.8 1.2
23 -1 -19 10.2 1.3
23 1 -18 186.78 8.7
-23 1 18 151.38 8.5
-23 -1 18 163.78 8.5
23 -1 -18 199.38 8.8
23 1 -17 11.3 1.4
-23 1 17 13.5 1.3
-23 -1 17 11.6 1.3
23 -1 -17 10.2 1.4
23 1 -16 1345.37 58.59
-23 1 16 1354.06 58.49
-23 -1 16 1406.36 58.59
23 1 -15 24.4 1.9
-23 1 15 22.3 1.8
-23 -1 15 21.7 1.8
23 -1 -15 21.5 1.9
23 1 -14 833.82 40.5
-23 1 14 906.81 40.5
-23 -1 14 911.21 40.5
23 -1 -14 894.01 40.6
-23 1 13 5.4 0.9
23 1 -13 4.9 0.9
-23 -1 13 2.9 0.8
23 -1 -13 4.7 1
23 1 -12 137.69 7.4
-23 1 12 148.99 7.4
-23 -1 12 151.78 7.4
23 -1 -12 144.09 7.4
23 1 -11 2.8 0.8
-23 1 11 4.5 0.8
-23 -1 11 4.4 0.9
23 -1 -11 4.4 0.9
23 1 -10 114.49 5.8
-23 1 10 99.99 5.6
-23 -1 10 114.19 5.7
23 -1 -10 106.69 5.8
23 1 -9 2.3 0.8
-23 1 9 2.6 0.7
-23 -1 9 1.3 0.6
23 -1 -9 1.4 0.8
-23 1 8 894.91 38.8
-23 -1 8 849.12 38.8
23 -1 -8 845.92 38.9
23 1 -8 805.92 38.8
-23 1 7 22.6 1.7
23 -1 -7 22.1 1.8
23 1 -7 25.3 1.9
-23 1 6 1008.9 48.8
-23 -1 6 1076.99 48.8
23 -1 -6 1143.39 49
23 1 -6 1086.09 48.9
-23 1 5 5.7 0.9
-23 -1 5 5.5 0.9
23 -1 -5 5.5 1
23 1 -5 7.7 1
-23 -1 4 311.17 15.1
-23 1 4 301.67 15
23 -1 -4 338.77 15.3
23 1 -4 335.07 15.2
-23 1 3 10.1 1.1
-23 -1 3 12.4 1.1
23 -1 -3 10.5 1.2
23 1 -3 9.8 1.1
-23 1 2 5.5 0.8
-23 -1 2 6.4 0.8
23 -1 -2 6.5 1
23 1 -2 6.5 0.9
-23 1 1 175.68 8.8
23 -1 -1 186.68 9
-23 1 0 506.35 23.5
23 -1 0 511.85 23.7
-23 1 -1 55.69 3.2
-23 -1 -1 58.39 3.2
23 -1 1 54.09 3.3
23 1 1 48.5 3.2
-23 1 -2 1189.48 55.49
-23 -1 -2 1254.17 55.49
23 -1 2 1196.28 55.59
23 1 2 1262.47 55.59
-23 -1 -3 21.8 1.6
23 1 3 22.2 1.7
-23 -1 -4 394.86 18.3
23 1 4 391.56 18.4
-23 1 -5 120.89 6.1
-23 -1 -5 119.69 6
23 -1 5 113.79 6.1
23 1 5 118.99 6.1
-23 1 -6 206.88 10.3
-23 -1 -6 200.38 10.2
23 -1 6 232.38 10.6
23 1 6 231.18 10.5
-23 -1 -7 16.6 1.3
23 -1 7 19.7 1.6
-23 1 -7 19.7 1.5
23 1 7 17.8 1.5
-23 1 -8 2.4 0.6
-23 -1 -8 3.1 0.6
23 -1 8 2.9 0.7
23 1 8 3.6 0.6
-23 1 -9 1.8 0.5
-23 -1 -9 1.2 0.5
23 -1 9 1.6 0.6
23 1 9 2.5 0.6
-23 1 -10 353.26 15.2
23 -1 10 336.87 15.3
23 1 10 344.37 15.1
-23 1 -11 5.1 0.7
23 -1 11 6.8 0.8
23 3 -39 32.4 2.5
-23 -3 39 35.7 2.6
23 3 -38 1.1 0.7
-23 -3 38 0.4 0.7
23 3 -37 13.3 1.5
-23 3 37 13.1 1.4
-23 -3 37 13.4 1.5
23 -3 -37 13 1.5
23 3 -36 55.09 3.3
-23 3 36 44.8 3.1
-23 -3 36 48.7 3.1
23 -3 -36 46.3 3.2
23 3 -35 17.6 1.7
-23 -3 35 20 1.7
23 3 -34 80.89 4.4
-23 -3 34 69.49 4.3
23 3 -33 48.4 3.2
-23 3 33 47.1 3.2
-23 -3 33 53.09 3.2
23 -3 -33 49.99 3.3
23 3 -32 69.69 4
-23 3 32 65.19 3.9
-23 -3 32 71.39 4
23 -3 -32 60.59 3.9
-23 3 31 31.4 2.4
23 -3 -31 35.5 2.5
23 3 -30 19.2 1.8
-23 3 30 19 1.7
-23 -3 30 24.3 1.9
23 -3 -30 18.3 1.7
23 3 -29 26.9 2.1
-23 3 29 27 2.1
-23 -3 29 23.3 2
23 -3 -29 27.5 2.1
-23 -3 28 58.19 3.4
23 -3 -28 56.89 3.4
23 3 -27 10.4 1.3
-23 3 27 9.7 1.2
-23 -3 27 7.9 1.1
23 -3 -27 7.9 1.2
-23 3 26 274.97 13
23 3 -26 277.87 13.1
-23 -3 26 253.87 13
23 -3 -26 271.17 13.1
23 3 -25 122.89 6.6
-23 -3 25 132.39 6.6
23 -3 -25 119.59 6.6
23 3 -24 471.75 22.9
-23 -3 24 520.55 23
23 -3 -24 504.55 23
-23 3 24 469.55 22.8
-23 3 23 120.39 6.3
-23 -3 23 130.99 6.5
23 -3 -23 131.39 6.5
-23 3 22 275.47 13.5
23 3 -22 282.07 13.5
-23 -3 22 277.67 13.5
23 -3 -22 289.47 13.7
23 3 -21 113.39 6.4
-23 -3 21 117.99 6.4
23 -3 -21 116.29 6.4
-23 3 20 4.6 0.9
23 3 -20 3.4 0.9
-23 -3 20 5.7 1
23 -3 -20 4.1 1
23 3 -19 160.28 7.8
-23 3 19 146.39 7.7
-23 -3 19 152.18 7.8
23 -3 -19 149.99 7.8
-23 3 16 528.35 23.1
23 3 -16 430.86 23
-23 -3 16 563.04 23.2
23 -3 -16 470.55 23.1
-23 3 15 308.37 15.1
23 3 -15 314.97 15.2
-23 -3 15 349.27 15.3
23 -3 -15 306.47 15.3
-23 3 14 511.55 25.8
23 3 -14 548.05 26
-23 -3 14 610.84 26
23 -3 -14 583.44 26.1
23 3 -13 132.39 7
-23 3 13 142.79 6.9
-23 -3 13 140.59 6.9
23 -3 -13 120.69 6.9
-23 3 12 1.8 0.6
23 3 -12 1.2 0.6
-23 -3 12 0.6 0.6
23 3 -11 11.1 1.2
-23 3 11 9.7 1.2
-23 -3 11 7.7 1
23 -3 -11 8 1.2
-23 3 10 128.19 6.8
23 3 -10 142.09 7
-23 -3 10 130.39 6.9
23 -3 -10 138.19 7
-23 3 9 11.5 1.4
23 3 -9 12.8 1.5
-23 -3 9 10.7 1.3
-23 3 8 287.67 13.3
23 -3 -8 254.77 13.3
-23 -3 8 287.67 13.3
-23 3 7 12.5 1.3
23 3 -7 14.9 1.4
23 -3 -7 10.9 1.4
-23 -3 7 14.6 1.4
-23 3 6 1324.47 57.89
23 3 -6 1246.78 57.89
23 -3 -6 1220.78 57.89
-23 -3 6 1303.77 57.89
-23 3 5 297.97 14.2
23 3 -5 316.27 14.3
23 -3 -5 307.57 14.4
-23 -3 5 276.97 14.2
-23 3 4 194.58 10
23 3 -4 206.48 10.1
23 -3 -4 216.18 10.2
-23 -3 4 207.38 10
-23 3 3 26.3 2
23 3 -3 27.4 2.1
23 -3 -3 25.7 2.1
-23 -3 3 29.5 2
23 3 -2 0.6 0.7
-23 3 2 1.3 0.6
23 -3 -2 0.5 0.7
-23 -3 2 0.4 0.6
23 3 -1 87.09 4.7
-23 3 1 82.09 4.6
23 -3 -1 86.19 4.8
-23 -3 1 82.79 4.6
23 3 0 680.13 31.6
-23 3 0 703.93 31.5
23 -3 0 671.93 31.7
-23 -3 0 687.93 31.5
-23 3 -1 7.6 1
23 3 1 8.1 1
23 -3 1 6.9 1.1
-23 -3 -1 8.1 1
23 3 2 561.44 27.3
-23 3 -2 613.84 27.3
23 -3 2 610.34 27.5
-23 -3 -2 587.54 27.2
-23 3 -3 3.9 0.8
23 -3 3 4.7 0.9
-23 3 -4 183.08 9
23 -3 4 178.18 9.1
-23 -3 -4 180.48 8.8
23 -3 5 46.9 3
-23 3 -5 49 2.9
-23 -3 -5 46 2.8
23 3 5 43 2.8
-23 3 -6 48.2 3
23 -3 6 51.69 3.2
-23 -3 -6 48.9 2.9
23 3 6 52.79 3
-23 -3 -7 91.09 4.8
23 -3 7 96.99 5.2
-23 3 -7 89.29 4.9
23 3 7 95.49 5
23 -3 8 64.19 3.6
-23 3 -8 60.99 3.4
23 3 8 56.09 3.3
-23 3 -9 2.7 0.8
23 -3 9 1.8 0.8
-23 3 -10 324.57 15.2
23 -3 10 317.17 15.4
-23 3 -11 35.5 2.3
23 -3 11 36.6 2.5
23 5 -39 19.2 1.8
-23 -5 39 18.8 1.7
23 5 -38 5 1
-23 -5 38 4.3 0.9
23 5 -37 2.2 0.8
-23 -5 37 2.2 0.9
23 5 -36 68.79 3.9
-23 -5 36 58.19 3.8
-23 5 35 3.7 0.8
23 5 -35 3.7 0.9
23 -5 -35 5.4 1
-23 -5 35 4.7 1
-23 5 34 32.4 2.3
23 5 -34 29.2 2.3
-23 -5 34 29.5 2.3
-23 5 33 65.79 3.9
23 -5 -33 67.49 4.1
-23 5 32 26.7 2.1
23 5 -32 26 2.1
23 -5 -32 26.3 2.1
-23 -5 32 23.7 2
-23 5 31 98.09 5.5
23 -5 -31 95.49 5.6
23 5 -31 111.09 5.7
-23 -5 31 104.99 5.6
-23 5 30 19.9 1.8
23 5 -30 22.3 1.8
23 -5 -30 19.5 1.8
-23 -5 30 18.9 1.8
-23 5 29 66.39 4.1
23 5 -29 72.39 4.2
23 -5 -29 67.69 4.2
-23 -5 29 72.49 4.2
-23 5 28 0.6 0.6
23 -5 -28 0.8 0.7
23 5 -28 0.3 0.6
-23 -5 28 0.5 0.7
23 5 -27 16.1 1.6
-23 -5 27 15.6 1.6
23 5 -26 49.99 3.1
-23 -5 26 43.5 3
-23 5 25 65.69 4
23 -5 -25 75.39 4.2
23 5 -25 65.09 4
-23 -5 25 65.09 4
-23 5 24 148.29 8.1
23 -5 -24 175.88 8.4
23 -5 -23 103.39 5.7
-23 5 22 39.4 2.6
23 -5 -22 40 2.7
23 5 -22 35.5 2.6
-23 -5 22 37.6 2.7
-23 5 21 200.08 10.3
23 -5 -21 228.78 10.6
23 5 -21 198.58 10.3
-23 -5 21 213.28 10.4
-23 5 20 4.7 0.9
23 -5 -20 4 0.9
-23 -5 20 4.6 1
23 5 -20 4.4 0.9
-23 5 19 97.79 5.1
23 -5 -19 97.59 5.3
23 5 -19 86.69 5.1
-23 -5 19 92.99 5.2
-23 5 18 15.5 1.4
23 -5 -18 16 1.5
23 5 -18 14.4 1.4
-23 -5 18 13.1 1.4
-23 5 17 33.2 2.4
23 -5 -17 30.9 2.5
23 5 -17 33.8 2.4
-23 -5 17 38.2 2.5
-23 5 16 186.18 9.2
23 -5 -16 172.58 9.3
23 5 -16 202.68 9.3
-23 -5 16 175.08 9.2
-23 5 15 186.48 9.5
23 -5 -15 191.48 9.7
23 5 -15 194.38 9.6
-23 -5 15 197.48 9.6
23 -5 -14 224.88 11.6
-23 5 14 233.68 11.5
23 5 -14 254.27 11.6
-23 -5 14 231.68 11.5
-23 5 13 213.78 11
23 -5 -13 217.48 11.2
23 5 -13 250.37 11.2
-23 -5 13 224.68 11.1
-23 5 12 21.1 1.7
23 -5 -12 19.1 1.8
23 5 -12 22.2 1.8
-23 -5 12 21.5 1.7
-23 5 11 39 2.5
23 -5 -11 33.5 2.5
23 5 -11 30.9 2.4
-23 -5 11 34.8 2.4
-23 5 10 33.3 2.5
23 -5 -10 41.4 2.8
-23 -5 10 42.4 2.7
-23 5 9 4.7 1.1
23 -5 -9 4.5 1.2
-23 -5 9 8 1.2
23 5 -9 5.8 1.1
-23 5 8 200.98 10.4
23 -5 -8 223.78 10.6
23 5 -8 211.08 10.5
-23 -5 8 213.48 10.4
-23 5 7 41.6 2.7
23 -5 -7 37.8 2.8
-23 5 6 118.89 6.4
23 -5 -6 125.39 6.6
-23 5 5 176.28 9
23 -5 -5 189.18 9.2
23 5 -5 170.98 9
-23 -5 5 183.78 9
23 5 -4 121.39 6.1
-23 -5 4 105.79 5.9
23 -5 -3 92.49 5.1
23 5 -3 82.19 4.9
-23 -5 3 90.89 5
-23 5 3 97.69 5
-23 5 2 0.7 0.6
23 -5 -2 0.2 0.7
-23 -5 2 0.9 0.7
23 5 -2 0.3 0.7
-23 5 1 39.6 2.6
23 -5 -1 38 2.7
23 5 -1 36.9 2.6
-23 -5 1 36.3 2.5
-23 5 0 66.09 3.7
23 -5 0 59.59 3.8
23 5 0 65.39 3.8
-23 -5 0 57.49 3.6
-23 5 -1 23.8 1.9
23 -5 1 19.8 1.9
23 5 1 20.6 1.8
-23 -5 -1 20.7 1.7
-23 5 -2 157.08 8
23 -5 2 146.79 8.1
23 5 2 164.38 8.1
-23 -5 -2 161.68 8
-23 5 -3 4.1 0.9
23 -5 3 3 0.8
23 5 3 2.8 0.8
-23 -5 -3 3.4 0.8
-23 5 -4 105.79 5.6
23 -5 4 104.39 5.8
23 5 4 104.69 5.7
-23 -5 -4 105.79 5.6
-23 5 -5 48 3
23 -5 5 45.5 3.1
23 5 5 50.69 3.1
-23 -5 -5 49.7 3
-23 5 -6 5.8 0.9
23 5 6 5 0.9
-23 -5 -6 6.8 0.9
23 -5 6 5.9 1.1
-23 5 -7 101.59 5.8
23 -5 7 121.99 6.1
-23 5 -8 3.4 0.8
23 -5 8 3.5 0.9
-23 5 -9 28.9 2.2
23 -5 9 31.4 2.4
-23 5 -10 167.08 8.5
23 -5 10 169.38 8.7
23 7 -38 -0.2 0.6
-23 -7 38 0.3 0.6
23 7 -37 2.6 0.8
-23 -7 37 3.2 0.9
23 7 -36 3.9 0.8
-23 -7 36 4.2 0.9
23 7 -35 53.89 3.4
-23 -7 35 56.39 3.5
23 7 -34 1.6 0.6
-23 -7 34 1.4 0.7
23 7 -33 52.69 3.2
-23 -7 33 45.6 3.1
-23 7 32 3.3 0.9
23 -7 -32 4.6 1
-23 -7 32 3.5 0.9
23 7 -32 4.2 0.9
-23 7 31 47 3
23 -7 -31 42 3
-23 7 30 9.5 1.2
23 -7 -30 10.6 1.4
-23 -7 30 10.1 1.3
23 7 -30 10.1 1.2
-23 7 29 17.7 1.7
23 -7 -29 20.5 1.9
23 7 -29 19.5 1.7
-23 -7 29 16.2 1.6
23 7 -28 25.5 2
-23 -7 28 24.8 2
-23 -7 27 3 0.9
23 7 -27 4 0.9
-23 7 26 18.7 1.7
23 -7 -26 19.3 1.8
23 7 -26 17.3 1.6
-23 -7 26 17.3 1.6
23 -7 -25 52.79 3.4
-23 -7 25 51.69 3.4
-23 7 25 47.5 3.3
-23 7 24 1.2 0.6
23 -7 -24 2.4 0.8
-23 7 23 92.19 5.2
23 -7 -23 96.39 5.3
-23 7 22 1.8 0.8
23 -7 -22 4.3 1
-23 -7 22 4 1
23 7 -22 3.7 0.9
23 -7 -21 93.39 5.2
-23 -7 21 80.89 4.9
23 7 -21 96.09 5.1
-23 7 20 -0.2 0.7
23 -7 -20 1.6 0.8
-23 -7 20 0.5 0.6
23 7 -20 0.5 0.7
-23 7 19 1.4 0.7
23 -7 -19 1.7 0.8
-23 -7 19 0.3 0.7
23 7 -19 0.9 0.7
-23 7 18 1.1 0.6
23 -7 -18 2.2 0.8
-23 -7 18 1.7 0.7
23 7 -18 1.8 0.7
23 -7 -17 5.9 1.1
-23 7 17 8.6 1.2
-23 -7 17 5.6 1.1
23 7 -17 6.7 1.1
-23 7 16 5.9 1
23 -7 -16 5.2 1.1
-23 -7 16 5.7 1
23 7 -16 6 1
23 -7 -15 199.28 9.9
-23 7 15 188.98 9.7
-23 -7 15 186.38 9.7
23 7 -15 206.38 9.8
-23 7 14 39.1 2.8
23 -7 -14 40.7 2.9
-23 -7 14 40.6 2.8
23 7 -14 47.1 2.9
-23 7 13 99.59 5.4
23 -7 -13 96.79 5.5
-23 -7 13 92.39 5.3
23 7 -13 102.19 5.4
23 -7 -12 4.2 1
-23 -7 12 3.9 0.9
23 7 -12 3.1 0.8
-23 7 12 2.9 0.8
-23 7 11 16.5 1.6
23 -7 -11 17.9 1.8
-23 -7 11 20.6 1.7
23 7 -11 20.3 1.8
-23 7 10 6.3 1
23 -7 -10 7.5 1.1
-23 7 9 7.2 1.1
23 -7 -9 8.8 1.3
-23 7 8 6.8 1.1
23 -7 -8 5.3 1.1
-23 -7 8 4.9 1
23 7 -8 4.7 1
-23 7 7 20.4 1.9
23 -7 -7 22.8 2.1
-23 -7 7 25.3 1.9
23 7 -7 24.9 2
-23 7 6 17.4 1.7
23 -7 -6 17.7 1.7
-23 -7 6 17.3 1.6
23 7 -6 16.7 1.6
-23 7 5 48.8 3.1
-23 -7 5 44.1 3
23 7 -5 49.2 3.2
23 -7 -5 47.2 3.2
23 -7 -4 8.8 1.3
-23 -7 4 7 1.1
23 7 -4 8.1 1.2
-23 7 3 19.6 1.7
23 -7 -3 18.8 1.8
-23 -7 3 18.4 1.7
23 7 -3 18.7 1.7
23 -7 -2 12.7 1.5
-23 7 2 8.9 1.2
-23 -7 2 13.1 1.4
23 7 -2 12.8 1.4
-23 7 1 30.5 2.2
23 -7 -1 25.2 2.2
23 7 -1 28.5 2.2
-23 -7 1 29.1 2.2
-23 7 0 2.7 0.8
23 -7 0 2.8 0.9
-23 -7 0 3.4 0.8
23 7 0 3.9 0.9
-23 7 -1 15.2 1.5
23 7 1 16 1.6
-23 -7 -1 14.4 1.5
23 -7 1 15.7 1.6
-23 7 -2 7.1 1.1
23 -7 2 6.9 1.2
-23 -7 -2 6 1
23 7 2 5.8 1.1
-23 7 -3 8.5 1.2
23 -7 3 9.8 1.4
-23 -7 -3 8.3 1.2
23 7 3 8.9 1.2
-23 7 -4 8.2 1.1
23 -7 4 7.9 1.2
-23 7 -5 68.89 4.1
23 -7 5 77.99 4.5
-23 7 -6 4 0.8
23 -7 6 2.5 0.9
-23 7 -7 5.6 1
23 -7 7 4.6 1.1
-23 7 -8 1.4 0.7
23 -7 8 2.1 0.8
23 -7 9 17.8 1.8
-23 7 -9 19.9 1.7
23 9 -30 13.9 1.4
-23 -9 30 13.6 1.5
-23 9 29 3.3 0.8
-23 -9 29 3.3 0.9
23 9 -29 4.1 0.9
-23 9 28 18.9 1.7
23 -9 -28 18.7 1.7
23 9 -28 19.9 1.7
-23 -9 28 18.8 1.7
-23 9 27 70.59 4.2
23 -9 -27 77.09 4.4
23 9 -27 70.19 4.2
-23 -9 27 74.99 4.3
-23 9 26 -0.2 0.7
23 -9 -26 0.2 0.7
-23 9 25 49.4 3
23 -9 -25 46.9 3.1
-23 -9 25 42.1 2.9
23 9 -25 45.9 3
-23 9 24 3.9 0.9
23 -9 -24 2.1 0.8
23 9 -24 3.9 0.9
-23 9 23 4.3 0.9
23 -9 -23 5.1 1
-23 -9 23 4 0.9
23 9 -23 4 0.9
-23 9 22 2.6 0.8
23 -9 -22 3.5 0.9
-23 -9 22 2.6 0.8
23 9 -22 2.5 0.9
-23 9 21 6.8 1.1
23 -9 -21 6 1.1
-23 -9 21 6.5 1.1
23 9 -21 8.9 1.2
-23 -9 20 -0.1 0.6
23 9 -20 0.3 0.7
-23 -9 19 0.1 0.7
23 9 -19 2.4 0.8
-23 9 17 31.8 2.2
23 -9 -17 27.8 2.2
-23 -9 17 29 2.2
23 9 -17 25.7 2.1
-23 9 16 32.2 2.2
23 -9 -16 32 2.3
-23 -9 16 28.2 2.2
23 9 -16 27.5 2.3
-23 9 15 9.3 1.3
23 -9 -15 10.6 1.4
-23 -9 15 10.7 1.3
-23 9 14 4.1 0.9
23 -9 -14 3.2 0.9
-23 -9 14 6 0.9
23 9 -14 3.9 0.8
-23 9 13 8.5 1.2
23 -9 -13 7.6 1.2
-23 -9 13 9.5 1.2
23 9 -13 9 1.2
-23 9 12 -0.1 0.6
23 -9 -12 0.7 0.8
-23 -9 12 -0.1 0.7
23 9 -12 0.7 0.8
-23 9 11 1 0.6
23 -9 -11 0.7 0.8
-23 -9 11 1.5 0.8
23 9 -11 0.7 0.7
-23 9 10 23.7 1.9
23 -9 -10 22 2
-23 -9 10 21.8 1.9
23 9 -10 26.3 2
-23 9 9 2 0.7
23 -9 -9 1.1 0.8
-23 -9 9 0.8 0.7
23 9 -9 2.8 0.9
-23 9 8 1.5 0.6
23 -9 -8 2.5 0.8
-23 -9 8 2.4 0.8
23 9 -8 2.8 0.9
-23 9 7 6.1 1
23 -9 -7 6.2 1.1
-23 -9 7 7 1.1
23 9 -7 7.2 1.1
-23 9 6 11.5 1.4
23 -9 -6 14.9 1.6
-23 -9 6 14.8 1.4
23 9 -6 14.3 1.5
-23 9 5 21.9 1.8
23 -9 -5 24.8 2.1
-23 -9 5 21.3 1.9
23 9 -5 25 2
-23 9 3 3.3 0.8
23 -9 -3 2.7 0.9
-23 9 2 2.3 0.7
23 -9 -2 4 1
-23 -9 2 1.6 0.8
23 9 -2 2.8 0.8
-23 9 1 0.4 0.6
23 -9 -1 0.9 0.8
-23 9 0 6.6 1
23 -9 0 7.2 1.2
-23 9 -1 15.7 1.5
23 -9 1 16.6 1.7
-23 9 -5 0.4 0.6
23 -9 5 -0.2 0.7
-23 9 -6 1.3 0.7
23 -9 6 -0.1 0.8
23 -9 7 0.8 0.8
-23 -11 12 -0.1 0.5
23 11 -12 0.7 0.6
-23 -11 11 0.8 0.6
23 11 -11 1.8 0.7
23 11 -10 8.6 1.1
-23 -11 10 8.6 1.2
23 11 -9 8.7 1.1
-23 -11 9 7.6 1.1
-23 -11 8 5.6 0.9
23 11 -8 7.2 1
23 11 -7 14.7 1.5
-24 0 39 0.1 0.7
24 0 -39 0.1 0.7
-24 0 38 55.59 3.7
24 0 -38 62.39 3.8
-24 0 37 -0.1 0.6
24 0 -37 -0.1 0.6
-24 0 36 113.49 6.2
24 0 -36 122.09 6.4
-24 0 34 240.28 11.8
24 0 -34 239.98 11.9
-24 0 33 0.7 0.7
24 0 -33 -0.1 0.6
-24 0 32 82.79 4.8
24 0 -32 88.69 5
-24 0 31 0.3 0.5
24 0 -31 0.5 0.7
-24 0 30 145.19 7.5
24 0 -30 145.99 7.6
24 0 -29 0.1 0.6
-24 0 29 -0.2 0.5
-24 0 28 787.32 36.2
24 0 -28 786.32 36.2
-24 0 27 -0.3 0.6
-24 0 26 365.16 16.6
24 0 -26 330.97 16.5
24 0 -25 0.7 0.7
-24 0 25 0.1 0.6
-24 0 24 300.27 15.3
24 0 -24 352.86 15.6
24 0 -23 -0.4 0.5
-24 0 23 0.3 0.5
-24 0 20 116.69 6.1
24 0 -20 112.19 6.1
24 0 -19 -0.1 0.6
-24 0 19 0.1 0.6
-24 0 18 1178.68 53.39
24 0 -18 1170.68 53.49
24 0 -17 0.4 0.6
-24 0 17 0.2 0.6
-24 0 16 1642.74 79.09
24 0 -16 1888.11 79.29
24 0 -15 0.6 0.7
-24 0 15 0.4 0.6
-24 0 14 347.27 15.3
24 0 -14 291.67 15.2
24 0 -13 -1 0.7
-24 0 13 -0.2 0.6
-24 0 12 56.09 3.4
24 0 -12 54.49 3.5
-24 0 11 -0.3 0.6
24 0 -11 0.8 0.7
-24 0 10 793.32 35.2
24 0 -10 740.13 35.2
-24 0 9 -0.4 0.6
24 0 -9 -0.4 0.7
-24 0 8 794.92 37.4
24 0 -8 848.12 37.6
24 0 -7 0.4 0.6
-24 0 6 347.97 16.1
24 0 -6 331.77 16.2
-24 0 5 -0.1 0.5
24 0 -5 0.4 0.6
-24 0 4 175.58 8.4
24 0 -4 161.58 8.5
-24 0 3 0.3 0.5
24 0 -3 -0.1 0.6
-24 0 2 89.69 4.9
24 0 -2 95.49 5.1
-24 0 1 0.4 0.5
24 0 -1 0.1 0.6
-24 0 0 851.21 39.5
24 0 0 888.31 39.7
-24 0 -1 0.1 0.5
24 0 1 0.2 0.5
-24 0 -4 1169.88 54.09
24 0 4 1228.28 54.29
-24 0 -5 -0.1 0.4
24 0 5 0.3 0.5
-24 0 -6 14.5 1.3
24 0 6 16.3 1.4
-24 0 -7 0.2 0.4
24 0 7 -0.2 0.5
-24 0 -8 176.68 8.8
24 0 8 190.68 9
24 0 9 0.1 0.5
-24 0 -9 0.2 0.4
24 0 10 505.15 23.3
-24 -2 40 7.7 1.2
24 2 -40 9.4 1.3
-24 -2 39 12.5 1.4
24 2 -39 11.5 1.4
-24 2 38 42.4 3
-24 -2 38 50.69 3.1
24 -2 -38 43.1 3.1
24 2 -38 52.39 3.2
-24 2 37 1.8 0.7
-24 -2 37 1.5 0.7
24 -2 -37 2.5 0.8
24 2 -37 2.4 0.8
24 2 -36 77.79 4.5
-24 2 36 74.29 4.4
-24 -2 36 81.69 4.5
24 -2 -36 71.09 4.5
24 2 -35 9 1.2
-24 -2 35 7.9 1.1
24 2 -34 161.78 8.5
-24 -2 34 170.38 8.5
-24 2 33 65.09 3.8
24 -2 -33 63.99 3.9
-24 2 32 155.88 8.7
24 -2 -32 193.48 9
24 2 -31 30.1 2.3
-24 -2 31 39 2.5
-24 2 31 31.5 2.3
24 -2 -31 32.3 2.5
24 2 -30 37.2 2.5
-24 2 30 33.6 2.5
-24 -2 30 34 2.5
24 -2 -30 31.9 2.5
24 2 -29 37.8 2.6
-24 2 29 35.9 2.5
-24 -2 29 37.6 2.6
24 -2 -29 36.6 2.6
-24 2 28 286.37 14
-24 -2 28 308.97 14.1
24 -2 -28 279.57 14.1
24 2 -27 71.59 4.3
-24 2 27 69.79 4.2
-24 -2 27 80.29 4.3
24 -2 -27 75.59 4.4
24 2 -26 521.45 23.8
-24 -2 26 498.55 23.7
24 2 -25 138.19 7.7
-24 2 25 161.38 7.7
-24 -2 25 153.68 7.7
24 -2 -25 150.28 7.8
24 2 -24 234.18 11.7
-24 2 24 227.18 11.7
-24 -2 24 232.68 11.7
24 2 -23 58.69 3.6
-24 2 23 54.99 3.5
-24 -2 23 66.99 3.6
24 -2 -23 55.29 3.6
24 2 -22 162.18 8.4
-24 2 22 157.98 8.3
-24 -2 22 163.68 8.4
24 -2 -22 185.98 8.6
24 2 -21 31.8 2.2
-24 2 21 30.9 2.1
-24 -2 21 26.7 2.1
24 -2 -21 25.2 2.1
24 2 -20 116.69 5.9
-24 -2 20 101.29 5.7
24 2 -17 5.8 1
-24 2 17 3.9 0.8
-24 -2 17 4.7 0.9
24 -2 -17 4.3 0.9
24 2 -16 1762.42 85.49
-24 2 16 1900.11 85.49
-24 -2 16 1948.91 85.49
24 -2 -16 1976.1 85.69
24 2 -15 1.9 0.8
-24 2 15 0.5 0.7
-24 -2 15 1.5 0.7
24 -2 -15 0.6 0.7
24 2 -14 677.13 31.3
-24 2 14 652.53 31.1
-24 -2 14 717.03 31.2
24 -2 -14 660.93 31.3
24 2 -13 3.7 0.9
-24 2 13 5.9 0.9
-24 -2 13 6.8 1
24 -2 -13 6.5 1
24 2 -12 60.49 3.5
-24 2 12 52.39 3.3
-24 -2 12 49.99 3.2
24 -2 -12 51.19 3.4
24 2 -11 34.8 2.5
-24 2 11 34.8 2.4
-24 -2 11 38.3 2.5
24 -2 -11 40 2.6
24 2 -10 543.15 27.8
-24 2 10 622.94 27.9
-24 -2 10 637.54 27.9
24 -2 -10 614.14 28
24 2 -9 0.7 0.6
-24 2 9 1 0.7
-24 -2 9 0.7 0.6
24 -2 -9 1.1 0.8
-24 2 8 910.41 42.6
-24 -2 8 986.7 42.6
24 -2 -8 898.71 42.7
24 2 -7 268.67 12.9
-24 2 7 264.17 12.9
-24 -2 7 278.67 12.9
24 -2 -7 260.57 13
24 2 -6 1278.87 57.69
-24 -2 6 1349.47 57.69
24 -2 -6 1182.48 57.79
-24 2 5 2.1 0.6
24 2 -5 2.6 0.7
-24 -2 5 2.2 0.7
24 -2 -5 2.3 0.8
24 2 -4 63.29 3.7
-24 2 4 61.89 3.7
-24 -2 4 61.09 3.6
24 -2 -4 61.19 3.8
24 2 -3 59.29 3.5
-24 -2 3 61.09 3.5
24 -2 -3 55.29 3.6
-24 2 3 62.59 3.5
24 2 -2 341.07 16.7
-24 2 2 343.77 16.7
-24 -2 2 351.96 16.7
24 -2 -2 390.46 17
-24 2 1 96.79 5
-24 -2 1 91.09 5
24 -2 -1 92.69 5.1
24 2 -1 93.19 5
-24 2 0 723.93 31.9
-24 -2 0 641.04 31.8
24 -2 0 704.43 32.1
24 2 0 723.63 32
-24 -2 -1 11.6 1.1
24 -2 1 11.9 1.3
-24 2 -1 10.5 1.2
24 2 1 10.7 1.2
-24 2 -2 353.76 16.5
24 -2 2 344.97 16.6
-24 2 -3 111.39 5.8
24 -2 3 112.49 6
-24 2 -4 136.99 6.9
24 -2 4 137.19 7
-24 -2 -4 132.79 6.8
24 2 4 135.09 6.9
-24 2 -5 63.39 3.7
24 -2 5 69.09 3.9
-24 -2 -5 65.49 3.6
24 2 5 64.29 3.7
-24 2 -6 4.3 0.9
-24 -2 -6 3.6 0.7
24 -2 6 5.2 1
24 2 6 3.9 0.8
-24 2 -7 1.5 0.6
24 -2 7 1.3 0.7
-24 -2 -7 0.7 0.4
24 2 7 1.4 0.6
-24 2 -8 327.07 15
24 -2 8 334.17 15.2
-24 -2 -8 294.07 14.7
24 2 8 323.97 14.9
-24 2 -9 18.5 1.5
24 -2 9 20.6 1.7
-24 2 -10 476.25 24.2
24 -2 10 595.74 24.5
24 4 -39 13.9 1.5
-24 -4 39 15.3 1.6
24 4 -38 14.3 1.6
-24 -4 38 15.9 1.7
24 4 -37 4.4 0.9
-24 -4 37 5.3 1
-24 4 36 46.2 3
24 -4 -36 46.7 3.1
24 4 -35 35.6 2.4
-24 4 35 30.1 2.3
24 -4 -35 27.4 2.3
-24 -4 35 32.9 2.4
-24 4 34 85.49 4.9
24 4 -34 92.99 5.1
24 -4 -34 91.39 5.1
-24 -4 34 85.29 4.9
24 4 -33 97.69 5.2
-24 4 33 91.09 5
24 -4 -33 85.99 5.1
-24 -4 33 88.09 5
-24 4 32 45.7 3
24 4 -32 46.1 3.1
24 -4 -32 48.4 3.1
-24 -4 32 44.3 3
-24 4 31 42 3
24 4 -31 44.6 3
-24 -4 31 47.8 3.1
24 4 -30 17.6 1.7
-24 -4 30 11.6 1.5
24 4 -29 0.8 0.6
-24 4 28 102.49 5.7
24 4 -28 110.49 5.8
24 -4 -28 98.19 5.7
-24 -4 28 109.19 5.8
-24 4 27 16.3 1.6
24 -4 -27 14.8 1.6
-24 4 26 193.98 9.9
24 -4 -26 206.88 10.1
24 4 -25 55.79 3.6
24 -4 -25 67.09 3.8
-24 -4 25 53.19 3.6
-24 4 25 65.19 3.7
-24 4 24 126.49 6.5
24 4 -24 121.29 6.5
24 -4 -24 118.69 6.6
-24 -4 24 123.79 6.5
-24 4 23 139.79 7.4
24 4 -23 144.39 7.5
24 -4 -23 150.38 7.6
-24 -4 23 143.79 7.5
-24 4 22 35.5 2.5
24 4 -22 37 2.6
24 -4 -22 35.2 2.7
-24 -4 22 33.8 2.5
-24 4 21 111.39 5.9
24 4 -21 103.69 5.9
24 -4 -21 104.79 5.9
-24 -4 21 120.09 6
24 4 -20 14.1 1.5
24 -4 -20 13.5 1.6
-24 -4 20 14 1.5
-24 4 20 14.9 1.5
-24 4 19 5 0.9
24 4 -19 4.8 0.9
24 -4 -19 4.7 0.9
-24 -4 19 4.7 0.9
-24 4 18 280.67 13.7
24 4 -18 305.67 13.9
24 -4 -18 295.17 14
-24 -4 18 268.77 13.7
-24 4 17 163.98 8.6
24 4 -17 189.98 8.8
24 -4 -17 161.88 8.7
-24 -4 17 172.58 8.7
-24 4 16 305.47 13.7
24 4 -16 300.77 13.8
24 -4 -16 299.97 13.8
24 4 -15 143.59 7.4
24 -4 -15 124.89 7.3
-24 -4 15 139.59 7.3
-24 4 14 155.98 8.2
24 4 -14 177.38 8.4
24 -4 -14 149.79 8.3
-24 -4 14 173.28 8.3
-24 4 13 77.69 4.1
24 4 -13 66.79 4.1
24 -4 -13 69.99 4.2
-24 -4 13 67.79 4.1
-24 4 12 29.4 2.2
24 -4 -12 29.7 2.3
-24 4 11 7.6 1.1
24 -4 -11 8.5 1.2
-24 4 10 224.98 10.7
24 -4 -10 210.88 10.8
24 4 -9 55.49 3.7
24 -4 -9 62.79 3.8
-24 -4 9 67.19 3.8
-24 4 9 68.49 3.8
-24 4 8 478.65 22.3
24 4 -8 457.55 22.4
24 -4 -8 490.95 22.5
-24 -4 8 490.95 22.4
-24 4 7 76.09 4.4
24 4 -7 83.09 4.5
24 -4 -7 79.99 4.6
-24 -4 7 75.99 4.4
-24 4 6 320.77 15.4
24 4 -6 341.27 15.5
24 -4 -6 308.27 15.6
-24 -4 6 323.97 15.4
24 4 -5 63.29 3.6
-24 -4 5 53.99 3.4
24 4 -4 44.1 2.9
-24 -4 4 42.3 2.8
24 4 -3 3.7 0.8
-24 -4 3 3 0.7
24 4 -2 128.59 7.1
-24 -4 2 150.58 7.2
24 4 -1 114.09 5.9
-24 -4 1 104.69 5.7
24 4 0 176.38 9.1
-24 -4 0 186.78 9.1
24 4 1 22.2 1.9
-24 -4 -1 22.6 1.8
24 4 2 214.68 10.8
-24 -4 -2 222.88 10.7
-24 -4 -3 12.7 1.3
24 4 3 12.5 1.3
24 4 4 218.98 11
-24 4 -4 232.78 11
-24 -4 -4 222.18 10.9
24 4 5 62.99 3.8
-24 4 -5 71.79 3.9
24 -4 5 70.39 4.1
-24 -4 -5 63.29 3.8
-24 4 -6 5.6 1
24 4 6 3.1 0.8
24 -4 6 5.7 1
-24 -4 -6 5.2 0.8
-24 4 -7 12.2 1.3
24 -4 7 11.7 1.4
-24 4 -8 62.69 3.7
24 -4 8 63.79 3.9
-24 4 -9 0.5 0.6
24 -4 9 1.3 0.8
-24 4 -10 249.38 12.6
24 -4 10 281.67 12.9
24 6 -39 3.6 0.9
-24 -6 39 4.8 1
24 6 -38 3.3 0.8
-24 -6 38 3.5 0.9
24 6 -37 19.1 1.7
-24 -6 37 20 1.8
24 6 -36 21.8 2
-24 -6 36 30.5 2.2
24 -6 -34 13.6 1.6
24 6 -34 18.4 1.7
-24 -6 34 17.6 1.7
-24 6 34 18.5 1.7
-24 6 33 125.89 6.8
24 -6 -33 143.49 7.1
24 6 -33 124.89 6.8
-24 -6 33 130.39 6.9
24 6 -32 9.9 1.2
-24 -6 32 6.5 1.1
-24 6 31 21.8 1.9
24 -6 -31 23.3 2
-24 -6 31 18.1 1.8
-24 6 30 11 1.3
24 6 -30 11.4 1.4
24 -6 -30 10.1 1.3
-24 -6 30 12.6 1.4
-24 6 29 2.1 0.8
24 -6 -29 1.3 0.8
-24 -6 29 1.5 0.8
-24 6 28 1.2 0.8
24 -6 -28 3.8 0.9
-24 6 27 72.09 4.4
24 -6 -27 86.39 4.7
24 6 -27 78.79 4.5
-24 -6 27 79.09 4.5
-24 6 26 23.6 2
24 -6 -26 27 2.2
24 6 -26 24.2 2
-24 -6 26 25.6 2
-24 6 25 103.49 5.6
24 -6 -25 119.69 5.9
-24 -6 25 108.69 5.7
-24 6 24 21.3 1.8
24 -6 -24 18.3 1.8
24 6 -24 17.2 1.7
-24 -6 24 20.9 1.8
-24 6 23 177.98 8.9
24 -6 -23 185.38 9
24 6 -23 161.08 8.8
-24 -6 23 180.48 8.9
-24 6 22 5 1
24 -6 -22 4 1.1
-24 -6 22 3.7 1
24 6 -22 4.3 1
-24 6 21 30 2.2
24 -6 -21 30.5 2.3
24 6 -21 28 2.1
-24 -6 21 23 2
-24 6 20 30.1 2.3
24 -6 -20 31.2 2.4
24 6 -20 28.4 2.3
-24 -6 20 31.6 2.3
-24 6 19 2.2 0.7
24 -6 -19 3.9 0.8
-24 -6 19 2.8 0.9
24 6 -19 3.4 0.9
-24 6 18 23.9 1.9
24 -6 -18 19.2 1.9
24 6 -18 20.4 1.8
-24 -6 18 18.6 1.7
-24 6 17 110.29 5.9
24 -6 -17 109.79 6
24 6 -15 206.88 9.9
-24 -6 15 189.68 9.8
24 6 -14 54.59 3.3
-24 -6 14 50.59 3.3
24 6 -13 56.69 3.6
-24 -6 13 60.89 3.6
-24 6 12 7 1.2
24 -6 -12 10 1.4
-24 -6 12 9.9 1.3
-24 6 11 28.3 2.2
24 -6 -11 32.2 2.4
24 6 -11 30.5 2.3
-24 -6 11 29.1 2.2
-24 6 10 17.7 1.6
24 -6 -10 15.7 1.6
24 6 -10 16.6 1.6
-24 -6 10 15.1 1.6
-24 6 9 14.8 1.5
24 -6 -9 12.3 1.5
24 6 -9 12.3 1.4
-24 -6 9 14.4 1.4
-24 6 8 9.3 1.2
24 -6 -8 11.4 1.4
24 6 -8 12.8 1.4
-24 -6 8 12.6 1.4
-24 6 7 128.09 6.6
24 -6 -7 121.79 6.7
24 6 -7 124.49 6.6
-24 -6 7 128.29 6.6
-24 6 6 4.1 1
24 -6 -6 3 1
-24 -6 6 4.6 0.9
24 6 -6 5 1
24 -6 -5 68.89 4
24 6 -5 63.09 3.8
-24 -6 5 59.59 3.7
-24 6 4 25.5 2
24 -6 -4 26.3 2.2
24 6 -4 26.8 2.1
-24 -6 4 28 2.1
-24 6 3 14.2 1.4
24 -6 -3 11.6 1.5
-24 -6 3 11.8 1.3
24 6 -3 10 1.3
-24 6 2 3 0.8
24 -6 -2 4.7 1
-24 -6 2 5.4 1
24 6 -2 4.1 0.9
-24 6 1 4 0.8
24 -6 -1 1.8 0.8
-24 -6 1 4.6 0.9
24 6 -1 2.9 0.8
-24 6 0 24.5 2
24 6 0 29.2 2.2
24 -6 0 24.8 2.2
-24 -6 0 26.9 2.1
-24 6 -1 2.4 0.8
24 -6 1 2.2 0.8
24 6 1 1.8 0.7
-24 -6 -1 2.1 0.7
-24 6 -2 25.7 2
24 -6 2 20.9 2
-24 6 -3 26.8 2.1
24 -6 3 30.6 2.3
-24 6 -4 40.3 2.7
24 -6 4 38.3 2.8
-24 6 -5 100.39 5.6
24 -6 5 111.79 5.9
-24 6 -6 2 0.7
24 -6 6 2 0.9
-24 6 -7 2.2 0.7
24 -6 7 2.8 0.9
-24 6 -8 10.4 1.2
24 -6 8 10.1 1.3
-24 -8 35 35.7 2.5
24 8 -34 0.4 0.6
-24 -8 34 0.8 0.6
24 8 -33 57.79 3.8
-24 -8 33 71.89 3.9
24 8 -32 22.3 1.8
-24 -8 32 21.4 1.9
-24 8 31 81.29 4.5
24 -8 -31 75.69 4.6
-24 8 30 6.1 0.9
24 -8 -30 5.4 1
-24 -8 30 5.2 1
24 8 -30 5.6 1
-24 -8 29 0.6 0.7
24 8 -29 0.3 0.6
-24 -8 28 0.6 0.7
24 8 -28 0.9 0.7
-24 8 27 52.39 3.4
24 -8 -27 56.79 3.6
24 8 -27 56.29 3.5
-24 -8 27 58.49 3.5
-24 8 26 0.9 0.7
24 -8 -26 1.4 0.8
-24 -8 26 0.5 0.8
24 8 -26 2.6 0.8
-24 8 25 99.39 5.6
24 -8 -25 108.19 5.8
-24 8 24 1.3 0.8
24 -8 -24 0.7 0.8
-24 -8 24 0.7 0.7
24 8 -24 1 0.7
-24 8 23 30.6 2.3
24 -8 -23 35.2 2.5
24 8 -23 29.4 2.3
-24 -8 23 30.4 2.3
-24 8 22 1 0.7
24 -8 -22 0.5 0.8
-24 -8 22 1.5 0.7
24 8 -22 2 0.7
-24 8 21 5.2 1
24 -8 -21 4.1 0.9
-24 -8 21 3.8 0.9
24 8 -21 4.8 1
-24 8 20 1.7 0.7
-24 -8 20 1.8 0.8
24 8 -20 2.2 0.8
24 -8 -19 7.7 1.2
-24 8 19 4.8 0.9
-24 -8 19 7.3 1.1
24 8 -19 8.1 1.1
-24 8 18 0.4 0.7
24 -8 -18 0.7 0.8
-24 -8 18 2.1 0.8
24 8 -18 -0.4 0.8
-24 8 17 32.6 2.4
24 -8 -17 37.4 2.6
-24 -8 17 34.6 2.5
24 8 -17 32.5 2.4
-24 8 16 22.2 1.8
24 -8 -16 23.1 1.9
-24 -8 16 17.2 1.7
24 8 -16 22.4 1.9
-24 8 15 14.7 1.5
24 -8 -15 11.8 1.5
24 -8 -14 1.1 0.6
-24 8 14 0.3 0.5
-24 8 13 20.5 1.9
24 -8 -13 21.2 2
-24 -8 13 22.7 1.9
24 8 -13 24.9 2
-24 8 12 8.9 1.1
24 -8 -12 9.5 1.2
-24 -8 12 7.9 1.1
24 8 -12 7.5 1.2
24 -8 -11 3.1 1
-24 8 11 3.3 0.8
-24 -8 11 1.9 0.8
24 8 -11 1.8 0.8
-24 8 10 12 1.3
24 -8 -10 15.3 1.6
-24 -8 10 11.8 1.4
24 8 -10 12.4 1.4
-24 8 9 48.4 3.1
24 -8 -9 43.2 3.1
-24 -8 9 47.2 3.1
24 8 -9 54.29 3.3
-24 -8 8 9.3 1.2
24 8 -8 9.9 1.3
-24 -8 7 26.5 2.1
24 8 -7 25.6 2.1
-24 -8 6 3.3 0.8
24 8 -6 1.8 0.8
24 -8 -5 25.7 2.1
-24 -8 5 22.9 1.9
24 8 -5 20.3 1.9
-24 8 4 2.2 0.7
24 -8 -4 0.9 0.6
-24 -8 4 2.1 0.8
24 8 -4 2.8 0.9
-24 8 3 1 0.6
24 -8 -3 3.5 0.9
-24 -8 3 3.1 0.8
24 8 -3 0.9 0.7
-24 8 2 10.2 1.2
24 -8 -2 8.9 1.3
-24 -8 2 10.1 1.2
24 8 -2 8.8 1.2
-24 8 1 -0.3 0.5
24 -8 -1 0.1 0.7
-24 -8 1 -0.1 0.6
24 8 -1 0.6 0.7
-24 8 0 1 0.6
24 -8 0 0.7 0.7
24 8 0 0.2 0.7
-24 8 -1 1.5 0.6
24 -8 1 3.8 1
-24 8 -2 3.9 0.9
24 -8 2 5.5 1.1
-24 8 -3 -0.3 0.6
24 -8 3 -0.1 0.8
-24 8 -4 3.6 0.8
24 -8 4 3.2 0.9
-24 8 -5 17 1.5
24 -8 5 12.3 1.6
-24 8 -6 0.3 0.6
24 -8 6 2.1 0.9
-24 8 -7 3.4 0.8
24 -8 7 2.3 0.8
-24 10 25 0.9 0.7
24 -10 -25 1.8 0.8
-24 10 24 3.1 0.8
24 -10 -24 1.9 0.7
-24 10 23 2 0.8
24 -10 -23 2.2 0.8
-24 10 22 6.8 1
24 -10 -22 8.3 1.2
-24 -10 22 8.6 1.1
24 10 -22 7 1.1
-24 10 21 1 0.6
24 -10 -21 1.4 0.9
-24 -10 21 0.5 0.6
24 10 -21 0.5 0.6
-24 10 20 3.2 0.9
24 -10 -20 3.5 1
-24 -10 20 2.2 0.8
24 10 -20 1.5 0.8
-24 10 19 -0.1 0.6
24 -10 -19 0.5 0.7
-24 -10 19 0.1 0.5
24 10 -19 0.5 0.6
-24 10 18 39.8 2.7
24 -10 -18 42.2 2.8
24 10 -18 42 2.8
-24 10 17 14.4 1.5
24 -10 -17 16.1 1.6
-24 -10 17 18 1.7
24 10 -17 18.9 1.7
-24 10 16 6.9 1.1
24 -10 -16 6.8 1.1
-24 10 15 8.5 1.1
24 -10 -15 8.1 1.2
-24 -10 15 8.8 1.1
24 10 -15 8.3 1.1
-24 -10 14 7.3 1.1
24 10 -14 10.8 1.2
-24 -10 13 1.6 0.8
24 10 -13 1.4 0.7
-24 -10 12 9.1 1.2
24 10 -12 9.6 1.3
-24 -10 11 1.3 0.7
24 10 -11 2.1 0.8
-24 -10 10 15.3 1.5
24 10 -10 17 1.6
-24 -10 9 3.7 0.9
24 10 -9 5.1 1
-24 -10 8 0.6 0.7
24 10 -8 1.6 0.7
-24 -10 7 15.9 1.6
24 10 -7 15.1 1.6
-24 -10 6 16.9 1.6
24 10 -6 16.4 1.6
-24 10 3 9.2 1.1
24 -10 -3 9.6 1.3
-24 10 2 0.9 0.6
24 -10 -2 1.4 0.8
-24 10 1 3.3 0.8
24 -10 -1 4.1 1
24 -10 0 71.89 4.4
-24 10 0 75.79 4.3
-24 10 -1 1.1 0.6
24 -10 1 0.5 0.8
24 -10 2 27.6 2.2
-24 10 -2 25.9 2
-24 10 -3 0.3 0.6
24 -10 3 0.9 0.8
24 -10 4 2.1 0.9
24 -10 5 3.4 1
-24 10 -5 2.1 0.7
-25 -1 40 8.8 1.2
25 1 -40 5.8 1.1
-25 1 39 0.1 0.7
-25 -1 39 0.4 0.7
25 -1 -39 0.4 0.7
25 1 -39 1.5 0.8
-25 1 38 128.29 6.4
-25 -1 38 119.99 6.3
25 -1 -38 107.39 6.3
25 1 -38 116.09 6.4
25 1 -37 0.2 0.6
-25 1 37 0.1 0.6
-25 -1 37 0.2 0.6
25 -1 -37 0.8 0.6
-25 1 36 117.39 6.3
-25 -1 36 119.29 6.3
25 -1 -36 113.79 6.4
25 1 -36 124.29 6.4
25 1 -35 0.9 0.7
-25 1 35 0.9 0.7
-25 -1 35 0.5 0.7
25 -1 -35 0.8 0.8
-25 -1 34 121.59 6.5
25 1 -34 122.49 6.6
-25 1 33 79.09 4.7
25 -1 -33 86.09 4.8
-25 1 32 24 1.9
-25 -1 32 25.5 2
25 -1 -32 25 2
25 1 -32 18.5 1.8
25 1 -31 2.9 0.9
-25 1 31 2.5 0.8
-25 -1 31 1.6 0.8
25 -1 -31 1.8 0.8
-25 1 30 62.89 3.6
-25 -1 30 54.99 3.5
25 -1 -30 56.29 3.6
25 1 -30 55.59 3.5
-25 1 29 15 1.5
-25 -1 29 19.3 1.7
25 -1 -29 17.1 1.7
25 1 -29 16.6 1.6
-25 1 28 625.54 29.5
-25 -1 28 645.94 29.6
25 -1 -28 642.94 29.7
25 1 -28 643.14 29.6
-25 1 27 37.9 2.6
-25 -1 27 35.2 2.5
25 1 -27 40.3 2.7
25 1 -26 565.94 27.6
-25 1 26 626.14 27.6
-25 -1 26 599.84 27.6
25 -1 -26 585.64 27.7
25 1 -25 0.1 0.6
-25 1 25 0.8 0.7
-25 -1 25 0.5 0.6
25 -1 -25 0.2 0.7
25 1 -24 81.09 4.6
-25 1 24 80.29 4.5
-25 -1 24 88.29 4.6
25 -1 -24 77.29 4.6
25 1 -23 1.4 0.8
-25 1 23 0.6 0.6
-25 -1 23 0.4 0.7
25 -1 -23 1.2 0.8
25 1 -22 2.6 0.9
-25 1 22 2.8 0.8
-25 -1 22 4.2 0.9
25 -1 -22 3.5 0.9
25 1 -21 6.3 1
-25 1 21 7 1
-25 -1 21 5 0.9
25 -1 -21 6.4 1.1
25 1 -20 256.37 13
-25 1 20 257.57 13
-25 -1 20 296.07 13.1
25 -1 -20 272.57 13.1
25 1 -17 3.5 0.9
-25 -1 17 5 0.9
25 -1 -17 4.4 0.9
25 1 -16 764.22 34.9
-25 1 16 793.22 34.9
-25 -1 16 754.72 34.8
25 -1 -16 722.33 34.9
25 1 -15 27.2 2.1
-25 1 15 27.5 2
-25 -1 15 26.5 2
25 -1 -15 20.3 1.9
25 1 -14 3.1 0.9
-25 1 14 6.3 1
-25 -1 14 4.6 0.9
25 -1 -14 5.3 1
25 1 -13 9.7 1.2
-25 1 13 12.4 1.3
-25 -1 13 11 1.3
25 -1 -13 11.3 1.3
-25 1 12 364.96 17.1
-25 -1 12 343.97 17
25 -1 -12 376.66 17.2
25 1 -12 364.16 17.1
25 1 -11 0.8 0.8
-25 1 11 1.4 0.7
-25 -1 11 1.1 0.6
25 -1 -11 0.5 0.7
-25 1 10 743.13 34.8
-25 -1 10 775.62 34.9
25 -1 -10 733.33 35
25 1 -10 791.42 35
-25 1 9 27.6 2.1
-25 -1 9 28.6 2.1
25 -1 -9 31.9 2.3
25 1 -9 30.3 2.2
-25 1 8 918.21 42
25 -1 -8 1010.2 42.2
25 1 -8 1006.3 42.2
-25 -1 7 32.9 2.3
-25 1 7 34.5 2.3
25 1 -7 35.6 2.4
-25 1 6 123.49 6
-25 -1 6 101.29 5.9
25 -1 -6 112.09 6.1
25 1 -6 117.69 6
25 1 -5 0.2 0.6
-25 1 5 0.2 0.5
-25 -1 5 -0.2 0.6
25 -1 -5 0.4 0.6
-25 1 4 2.3 0.6
-25 -1 4 0.2 0.6
25 -1 -4 2.5 0.8
25 1 -4 0.1 0.6
-25 1 3 4.7 0.8
-25 -1 3 4.3 0.8
25 -1 -3 3.5 0.8
25 1 -3 4.7 0.9
-25 1 2 530.15 25
-25 -1 2 545.25 25
25 -1 -2 523.75 25.1
25 1 -2 562.74 25.1
-25 -1 1 12.6 1.2
-25 1 1 12.7 1.2
25 -1 -1 13.6 1.4
25 1 -1 12.5 1.3
-25 1 0 657.53 31.5
-25 -1 0 698.93 31.5
25 -1 0 718.83 31.7
25 1 0 675.73 31.6
-25 1 -1 5.1 0.8
-25 -1 -1 5.5 0.9
25 -1 1 4.3 0.9
25 1 1 5 0.9
-25 1 -2 558.44 26.9
-25 -1 -2 601.14 27
25 -1 2 574.64 27.1
25 1 2 610.94 27.2
-25 1 -3 14.2 1.3
25 -1 3 15.2 1.5
-25 1 -4 153.78 7.6
25 -1 4 151.08 7.8
-25 1 -5 9.1 1.1
-25 -1 -5 11 1.1
25 -1 5 13.1 1.3
25 1 5 14 1.3
-25 1 -6 152.08 8.1
-25 -1 -6 166.58 8.1
25 -1 6 171.08 8.4
25 1 6 179.48 8.3
-25 -1 -7 1.1 0.5
25 1 7 0.7 0.5
-25 -1 -8 336.87 16.3
25 1 8 368.96 16.5
-25 1 -9 12.5 1.1
25 -1 9 11 1.2
25 3 -40 0.9 0.7
-25 -3 40 1.3 0.7
25 3 -39 0.7 0.8
-25 -3 39 0.3 0.7
-25 3 38 63.09 3.7
25 -3 -38 58.49 3.8
25 3 -37 12.4 1.4
-25 3 37 11.9 1.4
-25 -3 37 15.4 1.5
25 -3 -37 14.1 1.5
25 3 -36 159.58 8.1
-25 3 36 150.98 8
-25 -3 36 156.18 8
25 -3 -36 158.08 8.1
25 3 -35 17 1.6
-25 3 35 15 1.5
-25 -3 35 17.9 1.6
25 -3 -35 17.7 1.7
-25 3 34 119.99 6.7
-25 -3 34 128.19 6.7
25 -3 -34 119.29 6.7
25 3 -33 79.69 4.7
-25 3 33 83.39 4.6
-25 -3 33 77.69 4.6
25 -3 -33 82.79 4.7
25 3 -32 10.1 1.3
-25 3 32 7.3 1.1
-25 -3 32 10 1.3
25 -3 -32 7.2 1.1
25 3 -31 50.39 3.2
-25 -3 31 46.8 3.1
25 3 -30 138.89 7.3
-25 3 30 132.49 7.2
-25 -3 30 135.49 7.2
25 -3 -30 155.38 7.5
-25 3 29 21.7 1.9
25 -3 -29 23.1 2
25 3 -28 203.38 10.7
-25 3 28 209.58 10.7
-25 -3 28 236.98 10.8
25 -3 -28 222.28 10.9
25 3 -27 82.69 4.9
-25 3 27 85.09 4.8
-25 -3 27 84.09 4.8
25 -3 -27 91.09 4.9
25 3 -26 217.78 10.8
-25 -3 26 213.98 10.7
25 -3 -26 219.98 10.8
25 3 -25 166.38 8.2
-25 3 25 162.08 8.1
-25 -3 25 151.48 8
25 -3 -25 155.98 8.2
25 3 -24 135.79 7.3
-25 3 24 144.79 7.2
-25 -3 24 145.99 7.3
25 -3 -24 130.49 7.3
25 3 -23 104.99 5.6
-25 3 23 105.89 5.6
-25 -3 23 102.09 5.6
25 -3 -23 98.19 5.6
25 3 -22 18.1 1.7
-25 3 22 16.4 1.5
-25 -3 22 16.8 1.6
25 -3 -22 18.5 1.7
-25 3 21 0.3 0.6
25 3 -21 1.7 0.8
-25 -3 21 1.4 0.7
25 -3 -21 1.3 0.6
25 3 -20 31.9 2.2
-25 3 20 23.9 2.1
-25 -3 20 30.3 2.2
25 -3 -20 27 2.2
-25 3 19 137.49 7
-25 -3 19 150.78 7.1
25 3 -19 142.59 7.1
25 3 -18 1066.89 45.2
-25 3 18 976.5 45
-25 -3 18 972.9 45
25 -3 -18 936.51 45.1
25 3 -17 20.5 1.8
-25 3 17 17.6 1.8
25 -3 -17 16.2 1.9
25 3 -16 360.06 17.6
-25 3 16 394.56 17.6
-25 -3 16 358.06 17.5
25 -3 -16 371.16 17.7
25 3 -15 26.7 2.1
-25 3 15 27.4 2
-25 -3 15 25.5 2
25 -3 -15 21.8 2
-25 3 14 36 2.5
25 -3 -14 39.5 2.7
-25 3 13 22.7 1.9
25 -3 -13 23 2
25 3 -12 156.68 8.1
-25 -3 12 160.38 8.1
25 3 -11 41.1 2.9
-25 -3 11 44.7 2.8
25 3 -9 47 3
-25 3 9 46 2.9
-25 -3 9 45.7 2.9
25 -3 -9 43.4 3
25 3 -8 860.51 37.1
-25 3 8 837.92 37
-25 -3 8 753.62 36.9
25 -3 -8 780.22 37.1
25 3 -7 210.18 11.3
-25 3 7 226.68 11.2
25 -3 -7 247.38 11.4
-25 -3 7 240.88 11.3
25 3 -6 200.98 10
-25 3 6 195.78 9.9
-25 -3 6 211.08 10
25 3 -5 7.3 1.2
-25 3 5 6.6 1.2
-25 -3 5 7.3 1
25 -3 -5 8.5 1.3
25 3 -4 123.09 6.9
-25 3 4 131.49 6.8
25 -3 -4 142.29 7
-25 -3 4 134.39 6.8
25 3 -3 188.38 9.2
-25 3 3 182.78 9.1
25 -3 -3 193.68 9.2
-25 -3 3 169.38 9
25 3 -2 416.26 20.9
-25 3 2 484.85 20.9
25 -3 -2 482.95 21.1
-25 -3 2 413.16 20.8
25 3 -1 54.79 3.3
-25 3 1 52.09 3.3
25 -3 -1 59.19 3.5
-25 -3 1 55.59 3.3
25 3 0 344.57 16
-25 3 0 351.76 16
25 -3 0 328.17 16.1
-25 -3 0 322.57 15.9
25 3 1 50.39 3
-25 3 -1 44.6 2.9
25 -3 1 45.1 3
-25 -3 -1 43.9 2.8
25 3 2 246.98 12.2
-25 3 -2 244.48 12.2
25 -3 2 270.17 12.4
-25 -3 -2 253.37 12.2
-25 3 -3 181.48 8.8
25 -3 3 177.18 8.9
-25 -3 -3 165.28 8.7
25 3 3 184.88 8.9
-25 3 -4 53.59 3.4
25 -3 4 61.29 3.7
-25 -3 -4 56.69 3.4
25 3 4 65.09 3.6
-25 3 -5 31.8 2.3
25 -3 5 36.4 2.5
-25 3 -6 70.59 4
25 -3 6 69.89 4.1
-25 3 -7 3.7 0.8
25 -3 7 3.4 0.9
25 -3 8 188.88 9.1
-25 3 -8 173.08 8.9
-25 3 -9 3.9 0.8
25 -3 9 3.9 0.9
25 5 -39 2.2 0.8
-25 -5 39 2.6 0.8
25 5 -37 60.69 3.7
-25 -5 37 59.79 3.7
-25 5 36 37.8 2.6
25 -5 -36 35.7 2.7
-25 -5 36 34.3 2.6
25 5 -35 83.29 4.7
-25 -5 35 78.99 4.7
-25 5 34 106.49 5.8
25 5 -34 109.89 5.9
25 -5 -34 116.09 6
-25 -5 34 102.49 5.9
-25 5 33 72.99 4.2
25 5 -33 67.09 4.2
25 -5 -33 75.79 4.4
-25 -5 33 72.49 4.3
-25 5 32 1.5 0.7
25 5 -32 1.6 0.6
25 -5 -32 0.9 0.7
-25 -5 32 0.7 0.6
-25 5 31 1.4 0.7
25 -5 -31 1.7 0.7
-25 5 30 31.6 2.3
25 5 -30 32.6 2.4
25 -5 -30 32.6 2.4
-25 -5 30 31.1 2.3
-25 5 29 0.3 0.7
25 5 -29 0.8 0.6
25 -5 -29 1 0.8
-25 -5 29 0.5 0.6
-25 5 28 40.3 2.7
25 5 -28 34.3 2.6
25 -5 -28 41 2.8
-25 -5 28 38.4 2.7
-25 5 27 25 2
25 5 -27 22.2 2
25 -5 -27 26.9 2.1
-25 -5 27 25.1 2
-25 5 26 65.19 3.7
25 5 -26 59.29 3.7
25 -5 -26 58.19 3.7
-25 -5 26 58.49 3.7
-25 5 25 135.79 7.1
25 5 -25 135.99 7.2
25 -5 -25 141.19 7.2
-25 -5 25 133.49 7.1
-25 5 24 17.4 1.6
25 5 -24 16 1.5
-25 -5 24 13.6 1.5
25 5 -23 159.28 7.9
-25 -5 23 142.79 7.7
25 5 -22 3.9 0.9
-25 -5 22 4.9 0.9
-25 5 20 24 1.9
25 -5 -20 16.9 1.8
-25 5 19 27.3 2.1
25 -5 -19 29.2 2.2
25 5 -19 24 2.1
-25 -5 19 26.4 2.1
-25 5 18 113.09 6.1
25 -5 -18 107.59 6.2
25 5 -18 113.29 6.1
-25 -5 18 121.69 6.2
-25 5 17 230.88 11.8
25 5 -17 247.48 11.9
-25 -5 17 222.98 11.8
-25 5 16 76.99 4.5
25 -5 -16 89.59 4.8
25 5 -16 79.39 4.6
-25 -5 16 76.59 4.5
-25 5 15 95.09 5.2
25 -5 -15 86.69 5.3
25 5 -15 105.49 5.4
-25 -5 15 91.99 5.2
-25 5 14 53.59 3.3
25 -5 -14 50.09 3.5
-25 -5 14 54.59 3.4
-25 5 13 78.69 4.4
25 -5 -13 68.49 4.4
25 5 -13 80.69 4.5
-25 -5 13 80.09 4.4
-25 5 12 0.1 0.8
25 -5 -12 3.9 1
-25 5 11 45.2 3.2
25 -5 -11 53.39 3.5
-25 -5 11 53.69 3.3
-25 5 10 115.39 5.9
25 -5 -10 108.69 6.1
25 5 -10 107.99 6
-25 -5 10 111.79 6
-25 5 9 26.1 1.9
25 -5 -9 22 2
25 5 -9 22.1 1.9
-25 -5 9 20.8 1.8
-25 5 8 221.88 10.4
25 -5 -8 206.98 10.5
25 5 -8 223.58 10.5
-25 -5 8 189.78 10.3
-25 5 7 210.48 10.7
25 -5 -7 218.38 11
25 5 -7 224.18 10.9
-25 -5 7 226.28 10.8
25 -5 -6 157.18 8.2
25 5 -6 160.88 8.2
-25 -5 6 158.18 8.1
-25 5 5 79.39 4.5
25 -5 -5 80.59 4.7
25 5 -5 81.39 4.6
-25 -5 5 78.09 4.5
-25 5 4 7.6 1.1
25 -5 -4 8.1 1.3
25 5 -4 7.8 1.2
-25 -5 4 7.6 1.1
-25 5 3 50.69 3.2
25 -5 -3 52.99 3.4
-25 5 2 61.79 3.7
25 -5 -2 61.59 3.8
-25 5 1 2.6 1
25 -5 -1 3.6 1
25 5 -1 3.3 0.9
-25 -5 1 3.1 0.8
-25 5 0 142.99 7.3
25 -5 0 149.49 7.5
25 5 0 139.29 7.3
-25 -5 0 135.69 7.2
-25 5 -1 2.3 0.9
25 -5 1 1.3 0.9
25 5 1 1.2 0.8
-25 -5 -1 1.8 0.7
-25 5 -2 84.39 4.6
25 -5 2 77.59 4.7
25 5 2 83.09 4.7
-25 -5 -2 81.49 4.6
-25 5 -3 43 2.9
25 -5 3 47.6 3.1
25 5 3 45.3 3
-25 -5 -3 46.6 2.9
-25 5 -4 3.4 0.8
25 -5 4 4.8 1
25 5 4 5.9 1
-25 -5 -4 3.8 0.8
-25 5 -5 75.19 4.3
25 -5 5 77.19 4.5
-25 5 -6 31.6 2.2
25 -5 6 29.1 2.4
-25 5 -7 2.7 0.7
25 -5 7 2.9 0.9
-25 5 -8 75.49 4.3
25 -5 8 75.19 4.5
25 7 -38 6.9 1.1
-25 -7 38 8 1.1
25 7 -37 21.7 1.8
-25 -7 37 18.6 1.8
25 7 -36 0.8 0.7
-25 -7 36 0.4 0.7
25 7 -34 21.9 1.9
-25 -7 34 24.1 2
-25 7 33 112.99 6.2
25 -7 -33 110.09 6.3
25 7 -33 118.89 6.2
-25 -7 33 117.89 6.2
-25 7 32 22.7 1.9
25 -7 -32 17.6 1.8
25 7 -32 24.8 1.9
-25 -7 32 21.5 1.9
-25 7 31 39.7 2.6
25 -7 -31 35.1 2.7
25 7 -31 39.8 2.7
-25 -7 31 33.7 2.6
25 -7 -30 2.8 0.9
-25 7 30 2.1 0.8
-25 7 29 14.1 1.5
25 -7 -29 12.1 1.4
25 7 -29 15 1.5
-25 -7 29 14.1 1.5
-25 7 28 13.5 1.4
25 -7 -28 11 1.3
25 7 -28 11.8 1.4
-25 -7 28 9 1.3
-25 7 27 65.59 3.9
25 -7 -27 63.49 4
25 7 -27 66.29 3.9
-25 -7 27 68.79 4
-25 7 26 5 0.9
25 -7 -26 4.5 1
-25 -7 26 3.5 0.9
25 7 -26 4.1 0.9
-25 7 25 108.59 6.3
25 -7 -25 131.69 6.6
25 7 -25 112.59 6.3
-25 -7 25 134.39 6.5
-25 7 24 10.5 1.2
25 -7 -24 8.5 1.2
25 7 -24 9 1.3
-25 -7 24 9.8 1.2
25 7 -23 36.8 2.6
-25 -7 23 42.4 2.8
-25 -7 22 0.1 0.7
25 7 -22 -0.1 0.7
-25 7 21 4.8 1
25 -7 -21 4.5 1
25 -7 -20 30.4 2.3
-25 7 20 27.7 2.1
25 7 -20 31.6 2.3
-25 -7 20 24.1 2.1
-25 7 19 19.4 1.7
25 -7 -19 17.6 1.8
25 7 -19 20.8 1.8
-25 -7 19 17.6 1.7
-25 7 18 9.1 1.2
25 -7 -18 10.9 1.4
25 7 -18 10.1 1.2
-25 -7 18 9.8 1.2
-25 7 17 105.59 5.9
25 -7 -17 108.39 6.1
25 7 -17 114.99 6
-25 -7 17 115.49 6
25 -7 -16 0.9 0.7
-25 -7 16 0.7 0.7
25 7 -16 2.2 0.8
-25 7 16 1.2 0.6
-25 7 15 55.99 3.4
25 -7 -15 48.3 3.4
25 7 -15 50.19 3.3
-25 -7 15 54.79 3.4
-25 7 14 16 1.5
25 -7 -14 16.9 1.6
-25 -7 14 12.6 1.5
-25 7 13 28.8 2.2
25 -7 -13 29.7 2.4
25 7 -13 28 2.2
-25 -7 13 30.2 2.2
-25 7 12 0.3 0.6
25 -7 -12 1.4 0.8
-25 -7 12 0.1 0.6
25 7 -12 1.1 0.8
-25 7 11 5.7 1
25 -7 -11 4.4 1
-25 -7 11 5.4 1
25 7 -11 5.4 1
-25 7 10 1.4 0.7
25 -7 -10 2 0.9
-25 -7 10 2.1 0.8
25 7 -10 1.4 0.8
-25 7 9 67.19 4
25 -7 -9 66.89 4.1
25 7 -9 68.89 4.1
-25 -7 9 63.29 3.9
-25 7 8 19 1.7
25 -7 -8 25 2
25 7 -8 23.1 1.9
-25 -7 8 21.4 1.8
-25 7 7 66.79 3.8
25 -7 -7 61.49 3.8
25 7 -7 54.99 3.7
-25 -7 7 61.29 3.7
-25 7 6 -0.3 0.7
25 -7 -6 0.3 0.7
-25 7 5 45.3 2.9
25 -7 -5 40.6 3
-25 7 4 31.5 2.3
25 7 -4 32.4 2.4
-25 -7 4 31.1 2.4
-25 7 3 5.7 1
25 -7 -3 5.7 1.1
-25 -7 3 4.4 0.9
25 7 -3 4.9 1
-25 7 2 4.6 0.8
25 -7 -2 2.9 0.9
-25 -7 2 6 1
25 7 -2 5.5 1
-25 7 1 1.8 0.7
25 -7 -1 2.2 0.8
-25 -7 1 3.5 0.9
25 7 -1 2.3 0.8
-25 7 0 12.5 1.4
25 -7 0 12.5 1.5
25 7 0 11.5 1.4
-25 -7 0 10.9 1.3
-25 7 -1 10.7 1.3
25 -7 1 8.4 1.4
25 7 1 11.4 1.3
-25 7 -2 2.7 0.8
25 -7 2 4.1 1
-25 7 -3 20.2 1.8
25 -7 3 22.5 2
-25 7 -4 4.8 0.9
25 -7 4 5.1 1.1
-25 7 -5 26.4 2.1
25 -7 5 28.4 2.3
-25 7 -6 5 0.9
25 -7 6 4.5 1
-25 7 -7 15.9 1.5
25 -7 7 17.5 1.8
-25 9 29 12.9 1.4
25 -9 -29 14.5 1.5
-25 9 28 26 2.1
25 -9 -28 24.3 2.1
25 9 -28 26.2 2
-25 -9 28 28.3 2.1
25 9 -27 63.99 3.6
-25 -9 27 51.09 3.4
-25 9 26 35.4 2.4
25 -9 -26 39.2 2.6
25 9 -26 28.7 2.3
-25 -9 26 32.1 2.4
-25 9 25 59.69 3.7
25 -9 -25 69.19 3.9
25 9 -25 56.59 3.6
-25 -9 25 60.79 3.7
-25 9 24 7.4 1.1
25 -9 -24 8.5 1.2
-25 9 23 11 1.4
25 -9 -23 11.8 1.5
25 9 -23 11.6 1.4
-25 -9 23 11.4 1.3
-25 9 22 26.4 2.2
25 -9 -22 28.1 2.3
-25 -9 22 31.7 2.3
25 9 -22 32.2 2.3
-25 9 21 61.29 3.8
25 -9 -21 69.49 4
-25 -9 21 62.99 3.9
25 9 -21 67.69 3.9
-25 9 20 13.1 1.4
25 -9 -20 13.7 1.5
-25 -9 20 12.8 1.4
25 9 -20 13.3 1.4
-25 9 19 2.5 0.8
25 -9 -19 2.6 0.8
-25 -9 19 2.1 0.7
25 9 -19 2.6 0.8
-25 9 18 9 1.2
25 -9 -18 10 1.3
-25 -9 18 9 1.2
25 9 -18 9.7 1.2
-25 9 17 18.9 1.7
-25 -9 17 20.5 1.8
25 -9 -17 22.6 1.9
-25 9 16 3.2 0.8
25 -9 -16 1.6 0.7
-25 -9 16 3.1 0.8
25 9 -16 2.6 0.8
-25 9 15 1.7 0.8
25 -9 -15 1.3 0.8
-25 9 14 0.7 0.7
25 -9 -14 0.3 0.6
-25 -9 14 0.6 0.5
25 9 -14 1.2 0.7
-25 9 13 3 0.8
25 -9 -13 3.1 0.9
-25 -9 13 2.5 0.7
25 9 -13 3.8 0.8
-25 9 12 35.4 2.5
25 -9 -12 36.4 2.6
-25 -9 12 35.1 2.5
25 9 -12 37.8 2.6
-25 9 11 0.3 0.7
25 -9 -11 0.6 0.8
-25 -9 11 0.4 0.7
25 9 -11 0.8 0.7
-25 9 10 16.9 1.6
25 -9 -10 20.2 1.8
-25 -9 10 20.5 1.8
25 9 -10 18.1 1.7
-25 9 9 39.1 2.7
25 -9 -9 41.6 2.9
-25 -9 9 41.6 2.8
25 9 -9 37.8 2.7
-25 9 8 5.2 0.9
25 -9 -8 6.5 1.1
-25 -9 8 6.9 1
25 9 -8 6.2 1
-25 9 7 1.1 0.5
25 -9 -7 1.2 0.7
-25 -9 7 1.5 0.7
25 9 -7 1.1 0.7
25 -9 -6 0.8 0.8
-25 -9 6 1.4 0.7
25 9 -6 1.5 0.8
-25 9 5 4.3 0.9
25 -9 -5 5.3 1.1
-25 -9 5 4.9 1
25 9 -5 5.2 1
-25 9 4 11.2 1.3
25 -9 -4 11.4 1.5
-25 -9 4 11.1 1.3
25 9 -4 10.7 1.4
-25 9 3 5.9 1
25 -9 -3 7.7 1.2
-25 9 2 7.9 1.1
25 -9 -2 8 1.3
-25 9 1 1.2 0.7
25 -9 -1 2.4 0.9
-25 9 0 25.4 2
-25 9 -1 5.1 0.9
25 -9 1 5.3 1.2
-25 9 -2 12.3 1.3
25 -9 2 14.5 1.6
-25 9 -3 0.7 0.7
25 -9 3 1.5 0.9
-25 9 -4 1.2 0.6
25 -9 4 0.8 0.8
-25 9 -5 10.7 1.2
25 -9 5 9.1 1.3
-26 0 40 62.09 3.9
26 0 -40 67.39 4.1
-26 0 39 0.2 0.6
26 0 -39 -0.2 0.6
-26 0 38 88.39 5
26 0 -38 89.79 5.1
-26 0 37 0.4 0.6
26 0 -37 0.2 0.6
-26 0 36 77.49 4.6
26 0 -36 84.99 4.8
-26 0 35 -0.4 0.5
26 0 -35 0.1 0.6
-26 0 34 40.3 2.8
26 0 -34 43.7 3
-26 0 33 0.1 0.7
26 0 -33 0.3 0.7
-26 0 31 0.3 0.7
26 0 -31 0.2 0.7
-26 0 30 275.37 13.1
26 0 -30 265.47 13.2
-26 0 29 0.2 0.6
26 0 -29 -0.4 0.7
-26 0 28 762.22 34.3
26 0 -28 726.23 34.3
-26 0 27 0.4 0.6
26 0 -27 0.2 0.6
-26 0 26 404.36 18.9
26 0 -26 393.46 18.9
26 0 -25 1.1 0.8
-26 0 25 -0.6 0.7
-26 0 24 53.49 3.4
26 0 -24 56.59 3.5
26 0 -23 0.5 0.7
-26 0 23 -0.4 0.7
-26 0 22 131.79 7
26 0 -22 139.99 7.1
26 0 -21 0.4 0.7
-26 0 21 -0.1 0.6
-26 0 20 724.23 33.8
26 0 -20 749.82 34
26 0 -19 0.8 0.8
-26 0 19 0.6 0.7
-26 0 16 313.87 15.4
26 0 -16 334.37 15.6
-26 0 15 -0.4 0.6
26 0 -15 0.4 0.8
-26 0 14 217.88 10.9
26 0 -14 229.58 11.1
-26 0 13 0.1 0.6
26 0 -13 0.1 0.7
-26 0 12 1143.99 54.39
26 0 -12 1266.57 54.59
-26 0 11 0.5 0.7
26 0 -11 0.4 0.7
-26 0 10 867.81 36.4
26 0 -10 721.93 36.4
26 0 -9 -0.1 0.7
-26 0 8 532.15 25.4
26 0 -8 571.54 25.6
-26 0 7 -0.4 0.6
26 0 -7 -0.6 0.7
-26 0 6 37.9 2.6
26 0 -6 37.4 2.7
-26 0 5 0.1 0.5
26 0 -5 0.3 0.6
-26 0 4 396.86 19.4
26 0 -4 438.46 19.6
-26 0 3 -0.1 0.5
26 0 -3 0.1 0.7
-26 0 2 903.21 40.1
26 0 -2 847.62 40.2
-26 0 1 -0.1 0.5
26 0 -1 0.3 0.7
-26 0 0 642.34 30.1
26 0 0 668.93 30.3
-26 0 -1 0.1 0.5
26 0 1 0.1 0.6
-26 0 -2 120.29 6.4
26 0 2 126.99 6.5
-26 0 -3 0.2 0.5
26 0 3 0.1 0.6
-26 0 -4 3.1 0.8
26 0 4 6.3 1
-26 0 -5 -0.2 0.5
26 0 5 0.5 0.5
-26 0 -7 0.2 0.5
26 0 7 -0.1 0.6
-26 0 -8 419.56 21.3
26 0 8 525.45 21.6
-26 -2 40 29.2 2.4
26 2 -40 37.5 2.6
-26 2 39 0.8 0.6
26 -2 -39 0.9 0.7
-26 2 38 125.09 6.9
-26 -2 38 135.49 6.9
26 -2 -38 136.19 7.1
26 2 -38 129.59 7
26 2 -37 3.8 0.9
-26 2 37 4.1 0.9
-26 -2 37 6.3 1
26 -2 -37 5.1 1
-26 2 36 137.69 7.5
-26 -2 36 156.48 7.7
26 -2 -36 145.39 7.7
26 2 -36 151.58 7.7
26 2 -35 74.49 4.1
-26 2 35 62.69 3.9
-26 -2 35 63.19 3.9
26 -2 -35 68.59 4.1
26 2 -34 19.5 1.8
-26 2 34 16.9 1.6
-26 -2 34 18.8 1.7
26 -2 -34 20 1.8
26 2 -33 83.19 4.9
-26 2 33 83.19 4.8
-26 -2 33 91.09 4.9
26 -2 -33 91.39 5.1
26 2 -32 39.7 2.7
-26 2 32 31.6 2.5
-26 -2 32 38.8 2.7
26 2 -31 32 2.3
-26 -2 31 29.9 2.3
-26 2 30 224.78 10.7
26 -2 -30 207.28 10.8
26 2 -29 36 2.5
-26 2 29 35.7 2.5
-26 -2 29 36.3 2.6
26 -2 -29 39.5 2.7
26 2 -28 307.97 14.7
-26 2 28 330.37 14.7
-26 -2 28 324.27 14.7
26 2 -27 98.49 5.8
-26 2 27 112.59 5.9
-26 -2 27 118.99 6
26 2 -26 379.16 19.3
-26 2 26 413.06 19.3
-26 -2 26 403.36 19.3
26 -2 -26 446.06 19.5
26 2 -25 139.79 7.1
-26 2 25 124.79 6.9
-26 -2 25 139.19 7
26 -2 -25 134.89 7.1
26 2 -24 106.59 5.6
-26 2 24 96.69 5.5
-26 -2 24 107.29 5.6
26 -2 -24 97.69 5.6
26 2 -23 41.5 2.8
-26 2 23 36.1 2.6
-26 -2 23 40.2 2.7
26 -2 -23 38.2 2.7
26 2 -22 218.48 11.3
-26 -2 22 228.88 11.3
26 -2 -22 259.97 11.6
-26 2 22 221.48 11.3
26 2 -21 24.8 2
-26 2 21 20.5 1.9
-26 -2 21 27.3 2
26 -2 -21 23.6 2.1
26 2 -20 959.5 44.9
-26 2 20 967.7 44.8
-26 -2 20 960.1 44.8
26 -2 -20 1049.7 45
26 2 -19 201.48 9.2
-26 2 19 176.98 9
-26 -2 19 169.38 9
26 -2 -19 176.58 9.1
26 2 -18 653.03 28.5
-26 2 18 605.34 28.4
-26 -2 18 587.14 28.3
26 2 -17 38.4 2.6
-26 2 17 32.5 2.4
-26 -2 17 37.1 2.5
26 -2 -17 37 2.6
26 2 -16 62.59 3.8
-26 2 16 59.39 3.7
-26 -2 16 63.69 3.8
26 -2 -16 62.99 4
-26 2 15 7.5 1
26 -2 -15 5.7 1.1
26 2 -13 3.2 0.8
-26 -2 13 4.6 0.8
26 2 -12 322.37 15.4
-26 2 12 357.76 15.4
-26 -2 12 296.47 15.2
26 -2 -12 310.97 15.4
26 2 -11 75.69 4.6
-26 2 11 91.39 4.6
-26 -2 11 82.59 4.6
26 -2 -11 80.89 4.7
-26 2 10 751.72 29.8
-26 -2 10 710.83 29.8
26 2 -9 90.49 5
-26 2 9 82.29 4.8
-26 -2 9 87.69 4.9
26 2 -8 1215.48 57.69
-26 2 8 1266.37 57.59
-26 -2 8 1282.67 57.59
26 -2 -8 1318.97 57.79
26 2 -7 181.18 9.9
-26 -2 7 191.98 9.8
26 -2 -7 208.08 10.1
26 2 -6 36.1 2.6
-26 2 6 38.8 2.7
-26 -2 6 35.3 2.5
26 -2 -6 37.7 3
26 2 -5 1.5 0.7
-26 2 5 2.2 0.7
-26 -2 5 2.6 0.8
26 -2 -5 2.1 0.8
-26 2 4 98.49 5.2
-26 -2 4 93.49 5.2
26 -2 -4 106.59 5.5
26 2 -4 96.29 5.3
26 2 -3 1 0.6
-26 2 3 0.6 0.5
-26 -2 3 0.4 0.5
26 -2 -3 1 0.6
-26 2 2 331.47 16.2
-26 -2 2 325.77 16.2
26 -2 -2 370.86 16.5
26 2 -2 358.76 16.4
-26 2 1 64.49 3.5
26 -2 -1 64.29 3.7
26 2 -1 57.99 3.5
-26 2 0 579.14 26.7
-26 -2 0 556.34 26.6
26 -2 0 587.44 26.8
26 2 0 587.54 26.8
-26 2 -1 63.89 3.8
-26 -2 -1 69.09 3.8
26 -2 1 67.29 3.9
26 2 1 62.59 3.8
-26 2 -2 363.66 17.3
-26 -2 -2 332.77 17.2
26 -2 2 394.56 17.5
26 2 2 392.36 17.5
-26 2 -3 8.8 1
-26 -2 -3 9.6 1
26 -2 3 9.1 1.2
26 2 3 9.5 1.1
-26 2 -4 2.8 0.8
-26 -2 -4 1.8 0.6
26 -2 4 1.5 0.8
26 2 4 1.7 0.7
-26 2 -5 0.8 0.6
26 -2 5 0.4 0.7
-26 2 -6 209.98 10.8
26 -2 6 236.28 11.1
-26 -2 -6 230.58 10.8
26 2 6 221.88 10.9
-26 2 -7 11.6 1.2
26 -2 7 13.6 1.4
-26 2 -8 409.86 19.2
26 -2 8 412.06 19.4
26 4 -39 7 1.1
-26 -4 39 7.7 1.1
26 4 -38 59.89 3.8
-26 -4 38 65.19 3.8
26 4 -37 35.9 2.8
-26 -4 37 52.39 3.1
26 4 -36 113.39 6
-26 4 36 98.19 5.8
26 -4 -36 102.19 5.9
-26 -4 36 118.89 6
-26 4 35 133.19 7.2
26 -4 -35 142.89 7.4
-26 4 34 27.9 2.2
26 -4 -34 29.9 2.3
26 4 -33 30.3 2.4
-26 4 33 29.4 2.3
-26 -4 33 33.1 2.4
26 4 -32 34.7 2.5
-26 4 32 32.3 2.4
-26 -4 32 31.3 2.4
26 -4 -32 31.1 2.4
-26 4 31 4.2 0.9
26 4 -31 3.3 0.8
-26 -4 31 3.1 0.9
26 -4 -31 4.2 0.9
-26 4 30 69.29 4.1
26 -4 -30 71.49 4.3
26 4 -29 31.2 2.2
-26 4 29 25 2.1
-26 -4 29 31.4 2.3
26 -4 -29 24.7 2.1
-26 4 28 126.29 6.8
26 4 -28 128.19 6.9
-26 -4 28 136.19 6.9
26 -4 -28 135.19 7
-26 4 27 105.79 5.7
-26 -4 27 112.39 5.8
26 -4 -27 112.39 5.9
26 4 -26 115.49 6.3
-26 -4 26 119.19 6.3
26 4 -25 70.89 4.2
-26 -4 25 71.29 4.2
-26 4 24 61.89 3.7
26 -4 -24 63.49 3.9
-26 4 23 44.8 2.9
26 4 -23 47.5 3
26 -4 -23 46 3.1
-26 -4 23 42.2 2.9
-26 4 22 10.2 1.3
26 4 -22 9.2 1.2
-26 -4 22 9.1 1.3
26 -4 -22 7.1 1.2
-26 4 21 7.1 1.1
26 4 -21 7.1 1.1
-26 -4 21 6 1
26 -4 -21 5.8 1.2
-26 4 20 123.19 6.7
26 4 -20 140.09 6.9
26 -4 -20 129.79 6.9
-26 -4 20 127.79 6.8
-26 4 19 102.29 6
26 4 -19 118.39 6.2
26 -4 -19 109.69 6.2
-26 4 18 199.88 10.3
26 -4 -18 196.98 10.5
-26 -4 18 209.88 10.4
-26 4 17 53.59 3.4
26 4 -17 56.19 3.5
26 -4 -17 54.79 3.5
-26 -4 17 63.69 3.6
-26 4 16 110.99 6
26 4 -16 113.29 6.1
26 -4 -16 111.79 6.1
-26 -4 16 113.89 6
26 4 -15 88.69 4.8
26 -4 -15 85.39 4.9
-26 -4 15 92.09 4.8
-26 4 14 54.79 3.4
26 4 -14 57.79 3.5
-26 -4 14 62.49 3.5
-26 4 13 154.98 7.6
26 4 -13 148.89 7.6
26 -4 -13 149.99 7.7
-26 -4 13 137.89 7.5
-26 4 12 38.5 2.7
26 4 -12 37.4 2.7
26 -4 -12 41.2 2.8
-26 4 11 13.5 1.4
26 4 -11 14.7 1.5
26 -4 -11 14.5 1.6
-26 -4 11 14.5 1.4
-26 4 10 454.55 23
26 4 -10 512.35 23.2
26 -4 -10 482.05 23.2
-26 -4 10 534.35 23.2
-26 4 9 145.09 7.3
26 4 -9 136.09 7.4
26 -4 -9 152.98 7.6
-26 -4 9 139.69 7.3
-26 4 8 669.93 31
26 -4 -8 673.83 31.2
26 -4 -7 575.54 26.9
-26 4 6 85.09 4.8
26 -4 -6 82.49 4.9
-26 4 5 77.29 4.5
26 4 -5 76.59 4.5
26 -4 -5 88.79 4.8
-26 -4 5 80.49 4.5
-26 4 4 284.97 14.3
26 4 -4 314.37 14.5
26 -4 -4 312.57 14.6
-26 -4 4 289.57 14.3
-26 4 3 22.2 1.8
26 4 -3 22.6 1.9
26 -4 -3 18.8 1.9
-26 -4 3 23.5 1.8
-26 4 2 429.46 20.3
26 4 -2 440.26 20.5
26 -4 -2 422.16 20.5
-26 -4 2 441.36 20.4
-26 4 1 9 1.1
26 4 -1 9.5 1.2
26 -4 -1 8.8 1.3
-26 -4 1 8.5 1.1
26 4 0 281.27 13.2
-26 4 0 274.27 13
26 -4 0 285.87 13.3
-26 -4 0 245.98 13
26 4 1 34.1 2.4
-26 4 -1 32.3 2.4
26 -4 1 39.1 2.7
-26 -4 -1 35.4 2.4
26 4 2 76.09 4.3
-26 4 -2 78.09 4.3
26 -4 2 73.49 4.4
-26 -4 -2 71.19 4.2
26 4 3 84.79 4.9
-26 4 -3 91.39 4.9
26 -4 3 100.39 5.2
-26 -4 -3 85.89 4.9
-26 4 -4 4.8 0.9
26 -4 4 5.1 1.1
26 4 4 2.8 0.8
-26 -4 -4 3.2 0.8
-26 4 -5 21.2 1.8
26 -4 5 19.6 1.9
-26 4 -6 89.09 4.9
26 -4 6 89.89 5.1
-26 4 -7 14.5 1.4
26 -4 7 14.2 1.5
-26 4 -8 147.69 7.9
26 -4 8 168.28 8.2
26 6 -39 4.4 0.9
-26 -6 39 4.5 1
26 6 -38 0.1 0.6
-26 -6 38 0.2 0.7
26 6 -37 44.5 2.9
-26 -6 37 45 3
26 6 -36 8.7 1.2
-26 -6 36 11.8 1.4
-26 6 35 92.39 5.1
26 6 -35 90.29 5.1
26 -6 -35 88.39 5.2
-26 -6 35 92.79 5.1
-26 6 34 61.09 3.8
26 6 -34 63.89 3.8
26 -6 -34 66.39 4
-26 -6 34 62.99 3.8
-26 6 33 61.59 3.6
26 -6 -33 52.09 3.6
-26 6 32 6 1
26 -6 -32 7.5 1.2
26 6 -32 8.3 1.2
-26 -6 32 7.9 1.2
-26 6 31 0.1 0.6
26 -6 -31 0.7 0.6
26 6 -31 0.8 0.6
-26 -6 31 0.7 0.6
-26 6 30 5.4 1
26 -6 -30 6.1 1.1
26 6 -30 6.2 1.1
-26 -6 30 4.3 1
26 6 -29 26.8 2.2
-26 -6 29 28.4 2.2
26 6 -28 30 2.2
-26 -6 28 24.7 2.1
-26 6 27 120.29 6.1
26 -6 -27 107.29 6.2
26 6 -27 109.69 6.1
-26 -6 27 117.49 6.2
26 -6 -26 7.6 1.2
-26 6 26 8 1.1
-26 6 25 163.28 7.9
26 -6 -25 145.39 7.9
26 6 -25 152.88 7.9
-26 -6 25 148.29 7.9
-26 6 24 2.8 0.9
26 -6 -24 3.3 1
26 6 -24 2.8 0.7
-26 -6 24 2.3 0.7
-26 6 23 78.09 4.4
26 -6 -23 78.49 4.5
26 6 -23 78.59 4.4
-26 -6 23 67.59 4.3
-26 6 22 18.1 1.7
26 -6 -22 20.2 1.8
26 6 -22 21.5 1.8
-26 -6 22 16.2 1.7
-26 6 21 3.9 0.9
26 -6 -21 3.7 0.9
-26 -6 21 4.2 0.9
26 6 -21 4.1 0.9
-26 6 20 58.79 3.6
26 -6 -20 64.49 3.8
26 6 -20 54.99 3.6
-26 -6 20 58.39 3.7
-26 6 19 76.89 4.4
26 -6 -19 82.89 4.6
26 6 -19 70.19 4.3
-26 -6 19 76.19 4.4
-26 6 18 42.6 2.9
26 -6 -18 43.9 3
26 6 -18 44.1 2.9
-26 -6 18 46.6 3
-26 6 17 115.39 6.2
26 -6 -17 121.29 6.4
26 6 -17 114.29 6.2
-26 -6 17 118.79 6.3
-26 6 16 24.8 1.9
26 -6 -16 18.2 1.9
26 6 -16 23.2 1.9
-26 -6 16 20.6 1.8
-26 6 15 55.19 3.4
26 -6 -15 49.99 3.4
26 6 -15 53.59 3.4
-26 -6 15 58.89 3.5
-26 6 14 4 0.9
26 -6 -14 5.8 1.1
-26 6 13 5.7 1
26 -6 -13 7.6 1.3
-26 6 12 8.5 1.1
26 -6 -12 9.8 1.3
-26 6 11 4.2 0.9
26 -6 -11 3.8 1
-26 -6 11 3.2 0.9
26 6 -11 4.7 1
-26 6 10 31.5 2.4
26 -6 -10 31.8 2.5
26 6 -10 35.2 2.4
-26 -6 10 32 2.4
-26 6 9 34.7 2.4
26 -6 -9 34.6 2.6
26 6 -9 33 2.4
-26 -6 9 32.8 2.4
-26 6 8 26.4 2
26 -6 -8 23.5 2.1
26 6 -8 26.2 2.1
-26 -6 8 28.3 2.1
-26 6 7 85.89 4.6
26 -6 -7 80.59 4.7
26 6 -7 80.39 4.6
-26 -6 7 76.39 4.6
-26 6 6 17.2 1.6
26 -6 -6 14.7 1.6
26 6 -6 17.9 1.7
-26 -6 6 17.9 1.6
-26 6 5 57.69 3.4
26 -6 -5 52.69 3.5
26 6 -5 55.09 3.5
-26 -6 5 53.79 3.4
-26 6 4 0.9 0.7
26 -6 -4 -0.4 0.7
26 6 -4 0.6 0.8
-26 -6 4 0.4 0.7
-26 6 3 0.2 0.6
26 -6 -3 0.1 0.8
26 6 -3 0.1 0.7
-26 -6 3 0.7 0.6
-26 6 2 9 1.2
26 -6 -2 8.6 1.3
26 6 -2 7.2 1.1
-26 -6 2 7.8 1.1
-26 6 1 1.1 0.7
26 -6 -1 0.5 0.8
26 6 -1 0.3 0.6
-26 -6 1 1.3 0.7
-26 6 0 23.6 2
26 -6 0 28.3 2.2
26 6 0 23.5 2
-26 -6 0 27.1 2.1
-26 6 -1 28.3 2.1
26 -6 1 23.3 2.1
26 6 1 25 2.1
-26 -6 -1 26.9 2.1
-26 6 -2 27.9 2.1
26 -6 2 24.5 2.2
-26 6 -3 119.69 6.4
26 -6 3 126.59 6.7
-26 6 -4 4.4 0.9
26 -6 4 5.1 1
-26 6 -5 22.1 1.8
26 -6 5 22.4 2
-26 6 -6 16.8 1.6
26 -6 6 15.6 1.7
-26 6 -7 24 2
26 -6 7 27.1 2.2
26 8 -33 2.1 0.7
-26 -8 33 1.6 0.7
26 8 -32 8.6 1.1
-26 -8 32 7.5 1.1
-26 8 31 1.4 0.6
26 -8 -31 1.3 0.7
-26 -8 31 0.4 0.7
26 8 -31 0.9 0.7
-26 8 30 7.8 1.1
26 -8 -30 7.1 1.1
-26 -8 30 5.4 0.9
26 8 -30 8.2 1.1
-26 8 29 11 1.3
26 -8 -29 10.4 1.3
26 8 -29 9 1.2
26 -8 -28 4.6 1
-26 8 28 4.1 0.9
-26 -8 28 5.3 1
26 8 -28 4.1 0.9
26 -8 -27 32.3 2.4
26 8 -27 28.7 2.2
-26 -8 27 28.2 2.2
-26 8 26 3.3 0.9
26 -8 -26 4.7 1
-26 -8 26 2.8 0.9
26 8 -26 4 0.9
26 8 -25 31.9 2.4
-26 -8 25 41.5 2.6
26 8 -24 12.6 1.4
-26 -8 24 12.8 1.4
-26 8 23 1.5 0.8
26 -8 -23 0.2 0.8
-26 8 22 17 1.6
26 -8 -22 14.9 1.6
-26 8 21 41.8 2.7
26 -8 -21 41.9 2.9
26 8 -21 39.8 2.7
-26 -8 21 37.3 2.7
-26 8 20 2.4 0.7
26 -8 -20 3 0.8
-26 -8 20 2.7 0.7
26 8 -20 2.8 0.7
-26 8 19 38.8 2.8
26 -8 -19 42 2.9
26 8 -19 45.7 2.9
-26 -8 19 41.6 2.8
-26 8 18 27.4 2.1
26 -8 -18 31.4 2.4
26 8 -18 24 2.1
-26 -8 18 29.9 2.2
26 -8 -17 24.8 2.2
-26 8 17 28.2 2.1
26 8 -17 28 2.2
-26 -8 17 27.1 2.1
-26 8 16 2.9 0.9
26 -8 -16 2.1 1
-26 -8 16 3.5 0.9
26 8 -16 2.6 0.8
-26 8 15 7.8 1.1
26 -8 -15 6.6 1.2
-26 -8 15 5.7 0.9
26 8 -15 6.2 1
-26 8 14 0.3 0.7
26 -8 -14 0.7 0.8
-26 -8 14 0.4 0.6
26 8 -14 1 0.7
-26 8 13 16.1 1.5
26 -8 -13 14.1 1.6
26 8 -13 15.9 1.6
-26 -8 13 15.3 1.6
-26 8 12 37.2 2.6
26 -8 -12 30.4 2.6
26 8 -12 40.2 2.7
-26 -8 12 35.4 2.5
-26 8 11 17.7 1.6
26 -8 -11 19 1.8
-26 8 10 7.3 1.1
26 -8 -10 8.3 1.3
-26 8 9 22.3 1.9
26 -8 -9 26.3 2.1
-26 -8 9 24.6 2
-26 8 8 13.7 1.4
26 -8 -8 16.1 1.6
26 8 -8 12.1 1.5
-26 -8 8 15.4 1.5
-26 8 7 15.7 1.5
26 -8 -7 17.8 1.7
26 8 -7 16.3 1.6
-26 -8 7 14.4 1.6
-26 8 6 4.8 0.9
26 -8 -6 4.8 1
-26 -8 6 4.5 0.9
26 8 -6 4.4 0.9
-26 8 5 6.6 1.1
26 -8 -5 5.9 1.1
-26 -8 5 5.6 1
26 8 -5 5.7 1.1
-26 8 4 1.4 0.8
26 -8 -4 2 0.9
-26 -8 4 1.4 0.7
26 8 -4 1.4 0.8
-26 8 3 0.1 0.6
26 -8 -3 0.5 0.9
-26 -8 3 1.1 0.7
26 8 -3 0.1 0.7
-26 8 2 1.4 0.7
26 -8 -2 0.5 0.8
-26 8 1 0.9 0.7
26 -8 -1 0.5 0.8
-26 8 0 13.2 1.4
26 -8 0 10.7 1.4
-26 8 -1 6 1
26 -8 1 9.4 1.3
-26 8 -2 1.5 0.6
26 -8 2 1.7 0.8
-26 8 -3 10.2 1.3
26 -8 3 14.3 1.5
-26 8 -4 5.8 1
26 -8 4 8.4 1.3
-26 8 -5 0.1 0.5
26 -8 5 0.7 0.7
-26 10 20 13.8 1.4
26 -10 -20 13.7 1.5
-26 -10 20 13.6 1.4
26 10 -20 14.9 1.4
-26 10 19 1.8 0.7
26 -10 -19 2.9 0.9
-26 -10 19 1.5 0.7
26 10 -19 1.7 0.8
-26 10 18 6.4 0.9
26 -10 -18 7.4 1.1
-26 -10 18 4.5 1
26 10 -18 5.5 1
-26 10 17 0.8 0.7
26 -10 -17 2.2 0.8
-26 -10 17 0.9 0.7
26 10 -17 1.5 0.7
-26 10 16 0.4 0.6
26 -10 -16 0.9 0.8
-26 -10 16 1.1 0.6
26 10 -16 1.3 0.7
-26 10 15 0.6 0.5
26 -10 -15 1.3 0.7
-26 -10 15 1.2 0.6
26 10 -15 1.8 0.7
-26 10 14 1.1 0.7
26 -10 -14 0.7 0.7
-26 -10 14 1.9 0.7
26 10 -14 2 0.8
-26 10 13 2.2 0.7
26 -10 -13 2.2 0.7
-26 10 12 11.9 1.3
26 -10 -12 10.7 1.4
-26 10 11 19.7 1.7
26 -10 -11 23.1 1.9
-26 -10 11 19.9 1.8
26 10 -11 19.4 1.8
-26 10 10 22 1.8
26 -10 -10 25 2
-26 -10 10 20.9 1.9
26 10 -10 24.6 2
-26 10 9 5.9 0.9
26 -10 -9 6.4 1.1
-26 -10 9 5.6 0.9
26 10 -9 8.7 1.1
-26 10 8 2.6 0.8
26 -10 -8 2.9 0.9
-26 -10 8 3.4 0.8
26 10 -8 3.4 0.9
26 -10 -7 2.6 0.9
-26 10 6 0.9 0.6
26 -10 -6 0.8 0.8
-26 10 5 0.5 0.5
26 -10 -5 1.3 0.7
-26 10 4 2.5 0.7
26 -10 -4 3 0.9
-26 10 3 8.1 1.1
26 -10 -3 4.5 1.1
-26 10 2 0.1 0.5
26 -10 -2 1.7 0.8
26 -10 -1 12.2 1.5
-26 10 1 12.2 1.3
-26 10 0 6 1
26 -10 0 6.3 1.1
-26 10 -1 2.9 0.7
26 -10 1 1.8 0.9
-27 -1 41 -0.1 0.7
-27 -1 40 40.6 2.8
27 1 -40 41.6 2.9
-27 1 39 3.9 0.9
27 -1 -39 4.2 1
-27 1 38 90.09 5
-27 -1 38 86.39 4.9
27 -1 -38 91.19 5.1
27 1 -38 86.39 5
27 1 -37 9.4 1.3
-27 1 37 9.9 1.2
-27 -1 37 11.3 1.3
27 -1 -37 12.4 1.4
-27 1 36 163.18 8.3
-27 -1 36 159.28 8.2
27 -1 -36 179.38 8.5
27 1 -36 147.19 8.2
-27 1 35 18.7 1.6
-27 -1 35 15.2 1.5
27 -1 -35 18.2 1.7
27 1 -35 15.1 1.6
27 1 -34 8.8 1.2
-27 1 34 9.4 1.2
-27 -1 34 7.6 1.1
27 -1 -34 7.8 1.2
-27 1 33 13 1.5
-27 -1 33 15 1.5
27 -1 -33 14.1 1.6
27 1 -33 13.5 1.5
27 1 -32 6 1
-27 1 32 5.8 1
-27 -1 32 6.8 1
27 -1 -32 9.3 1.2
-27 -1 31 18.6 1.7
27 1 -31 20.5 1.8
27 1 -29 7 1.1
-27 1 29 5.4 1
-27 -1 29 7.4 1.1
27 -1 -29 7.4 1.1
-27 1 28 544.35 24.3
-27 -1 28 507.65 24.2
27 -1 -28 504.35 24.3
27 1 -28 522.15 24.3
-27 1 27 55.79 3.5
-27 -1 27 61.39 3.6
27 -1 -27 58.19 3.7
27 1 -27 58.19 3.6
-27 1 26 298.77 14.2
-27 -1 26 317.77 14.2
27 1 -26 309.97 14.3
-27 1 25 12.5 1.4
-27 -1 25 12.3 1.4
27 -1 -25 11.3 1.4
27 1 -25 12.7 1.5
-27 1 24 19.2 1.8
-27 -1 24 24.3 1.9
27 -1 -24 24.5 2
27 1 -24 24.5 2
-27 1 23 18.8 1.7
-27 -1 23 19.1 1.7
27 -1 -23 19.5 1.8
27 1 -23 16.8 1.7
-27 1 22 813.92 36.6
-27 -1 22 764.42 36.6
27 -1 -22 762.52 36.7
27 1 -22 852.81 36.7
-27 -1 21 101.49 5.2
27 -1 -21 102.99 5.4
27 1 -21 93.69 5.2
-27 1 20 1003.9 47.8
-27 -1 20 1039 47.8
27 -1 -20 1084.39 48
27 1 -20 1076.89 48
-27 1 19 22.2 1.8
-27 -1 19 20.4 1.8
27 -1 -19 21.5 1.9
27 1 -19 19.5 1.8
-27 1 18 487.55 22.9
-27 -1 18 500.25 22.9
27 -1 -18 470.25 23
27 1 -18 505.75 23
27 1 -17 3.1 0.9
-27 1 17 5.5 0.9
-27 -1 17 4.3 0.9
27 -1 -17 4.2 1
27 1 -16 0.9 0.7
-27 1 16 3.4 0.8
-27 -1 16 3.8 0.8
27 -1 -16 1.5 0.8
-27 1 15 28.9 2.1
27 -1 -15 27.3 2.2
27 1 -13 5.8 1.1
-27 -1 13 7.2 1.1
-27 1 12 1417.46 69.39
-27 -1 12 1539.25 69.39
27 -1 -12 1565.34 69.59
27 1 -12 1645.44 69.59
-27 1 11 19.9 1.6
-27 -1 11 19.5 1.6
27 -1 -11 19.2 1.8
27 1 -11 17.3 1.7
-27 -1 10 744.03 34.1
27 -1 -10 680.53 34.2
-27 -1 9 257.87 12.5
27 1 -9 262.47 12.7
-27 1 8 299.17 14.5
-27 -1 8 315.27 14.6
27 -1 -8 297.87 14.7
27 1 -8 306.37 14.7
27 1 -7 6.9 1.1
-27 1 7 9.1 1.1
-27 -1 7 8.4 1.1
27 -1 -7 8.7 1.2
-27 1 6 95.39 5.1
-27 -1 6 87.79 5.1
27 -1 -6 101.39 5.3
27 1 -6 98.89 5.3
-27 1 5 109.79 5.7
-27 -1 5 111.79 5.8
27 -1 -5 113.99 5.9
27 1 -5 99.19 5.8
-27 1 4 434.66 20
-27 -1 4 402.56 19.9
27 -1 -4 418.06 20.1
27 1 -4 458.25 20.2
-27 1 3 -0.1 0.6
-27 -1 3 1 0.6
27 -1 -3 0.1 0.7
27 1 -3 0.7 0.7
-27 1 2 884.71 42.6
-27 -1 2 918.81 42.7
27 -1 -2 973.9 42.9
27 1 -2 984.3 42.9
-27 1 1 9.6 1.1
-27 -1 1 8.9 1.1
27 -1 -1 9.5 1.2
27 1 -1 10.7 1.3
-27 1 0 559.14 24.4
-27 -1 0 502.85 24.3
27 -1 0 552.14 24.6
27 1 0 491.65 24.5
-27 1 -1 1.9 0.7
-27 -1 -1 1.8 0.7
27 -1 1 1.6 0.7
27 1 1 1.9 0.8
-27 1 -2 0.1 0.5
-27 -1 -2 0.3 0.5
27 -1 2 0.9 0.7
27 1 2 0.9 0.6
-27 1 -3 3.1 0.7
-27 -1 -3 2.2 0.7
27 -1 3 4.1 0.9
27 1 3 2 0.8
-27 1 -4 220.58 10
-27 -1 -4 189.58 9.8
27 -1 4 199.08 10
27 1 4 203.18 10
-27 1 -5 23.9 1.8
-27 -1 -5 25.9 1.8
27 -1 5 25.2 2
27 1 5 26.6 2
-27 1 -6 473.35 21.9
27 -1 6 470.75 22.1
-27 1 -7 1.5 0.6
27 -1 7 1.6 0.7
27 3 -41 2.1 0.8
-27 -3 41 2.1 0.8
27 3 -40 44.5 3.1
-27 -3 40 53.39 3.2
27 3 -39 16.6 1.6
-27 -3 39 17 1.6
27 3 -38 126.09 6.6
-27 -3 38 121.89 6.6
27 3 -37 82.99 4.5
-27 3 37 65.99 4.2
-27 -3 37 78.19 4.4
27 -3 -37 69.99 4.4
27 3 -36 70.99 4.3
-27 3 36 72.79 4.3
-27 -3 36 70.79 4.3
27 -3 -36 78.79 4.4
27 3 -35 140.69 7.2
-27 3 35 131.39 7.1
27 -3 -35 136.09 7.2
27 3 -34 0.2 0.7
-27 3 34 0.1 0.6
-27 -3 34 0.2 0.7
27 -3 -34 0.1 0.7
27 3 -33 7.9 1.1
-27 3 33 6.6 1.1
-27 -3 33 6.2 1.1
27 -3 -33 8.4 1.2
27 3 -32 48.5 3.1
-27 3 32 41.4 2.9
-27 -3 32 42.6 2.9
27 -3 -32 47.5 3.1
27 3 -31 0.4 0.7
-27 3 31 0.4 0.7
-27 -3 31 -0.1 0.8
27 -3 -31 0.5 0.7
-27 3 30 177.78 9.1
-27 -3 30 183.58 9.1
27 -3 -30 178.28 9.2
27 3 -29 84.59 5.1
-27 3 29 86.99 5
-27 -3 29 87.69 5
27 -3 -29 103.09 5.2
27 3 -28 236.68 13
-27 -3 28 306.17 13.2
27 3 -27 155.48 8.1
-27 -3 27 157.68 8
-27 3 26 81.89 4.6
27 -3 -26 77.89 4.6
27 3 -25 49.9 3.3
-27 3 25 56.49 3.3
-27 -3 25 50.89 3.2
27 -3 -25 43.9 3.2
27 3 -24 2.1 0.9
-27 3 24 1.6 0.8
-27 -3 24 1.1 0.8
27 -3 -24 1.2 0.7
27 3 -23 17.9 1.7
-27 3 23 17.3 1.6
-27 -3 23 17.5 1.6
27 -3 -23 18.4 1.7
-27 3 22 176.58 8.6
27 3 -22 178.58 8.7
-27 -3 22 156.28 8.5
27 -3 -22 162.98 8.6
27 3 -21 13.7 1.5
-27 3 21 15.9 1.5
-27 -3 21 14 1.5
27 -3 -21 16.9 1.7
27 3 -20 323.57 14.8
-27 -3 20 324.67 14.7
27 -3 -20 320.47 14.8
27 3 -19 101.09 5.4
-27 3 19 93.69 5.2
-27 -3 19 94.99 5.3
27 -3 -19 92.49 5.3
27 3 -18 25.8 2.1
-27 3 18 27.3 2
-27 -3 18 21.8 1.9
27 -3 -18 22.2 2
27 3 -17 217.98 10.7
-27 3 17 206.28 10.6
-27 -3 17 203.68 10.6
27 -3 -17 237.58 10.8
27 3 -16 95.19 5.7
-27 3 16 98.29 5.5
-27 -3 16 113.59 5.7
27 -3 -16 112.29 5.8
27 3 -15 58.59 3.7
-27 3 15 60.09 3.6
-27 -3 15 59.49 3.6
27 -3 -15 61.29 3.7
-27 3 14 3.5 0.8
27 3 -14 3.9 0.8
-27 -3 14 4.4 0.8
27 -3 -14 3.3 1
27 3 -13 16.1 1.6
-27 3 13 13.1 1.4
-27 -3 13 15 1.5
27 -3 -13 14.2 1.5
27 3 -12 345.17 17.5
-27 3 12 381.06 17.4
27 -3 -12 377.16 17.6
27 3 -11 42.8 2.9
-27 3 11 41.4 2.8
-27 -3 11 50.49 3
27 -3 -11 40.3 3
-27 3 10 799.12 37.7
27 -3 -10 854.11 38
-27 3 9 123.79 6.5
27 -3 -9 124.19 6.6
27 3 -8 371.56 17
-27 3 8 351.16 16.7
-27 -3 8 342.87 16.8
27 3 -7 591.04 25.6
-27 3 7 551.14 25.4
-27 -3 7 548.35 25.4
27 -3 -7 498.55 25.5
27 3 -6 119.59 6.5
-27 3 6 122.29 6.4
-27 -3 6 124.99 6.4
27 -3 -6 120.69 6.5
27 3 -5 1.6 0.8
-27 3 5 2.2 0.7
-27 -3 5 0.3 0.6
27 -3 -5 1.1 0.6
27 3 -4 303.27 14.1
-27 3 4 276.37 13.9
27 -3 -4 301.27 14.1
-27 -3 4 288.17 14
27 3 -3 155.98 8
-27 -3 3 157.08 7.9
27 3 -2 431.16 20.9
-27 -3 2 457.25 20.8
27 3 -1 140.69 7.4
-27 -3 1 148.39 7.4
-27 -3 0 355.16 16.1
27 3 0 320.07 16
-27 -3 -1 32.7 2.3
27 3 1 35 2.4
-27 3 -2 46.1 2.9
-27 -3 -2 42.7 2.8
27 3 2 43.9 2.9
-27 3 -3 50.09 3
27 -3 3 45.7 3
-27 -3 -3 46.7 2.8
27 3 3 40.7 2.9
-27 3 -4 58.89 3.4
27 -3 4 52.89 3.5
-27 -3 -4 54.99 3.2
27 3 4 50.59 3.3
-27 3 -5 0.5 0.6
27 -3 5 1.2 0.7
-27 3 -6 272.47 13.5
27 -3 6 294.77 13.8
-27 3 -7 18.1 1.6
27 -3 7 22.7 1.9
27 5 -40 3.7 0.9
-27 -5 40 4.1 1
27 5 -39 29.2 2.1
-27 -5 39 21.9 2
27 5 -38 11 1.3
-27 -5 38 11.5 1.4
27 5 -37 66.79 3.7
-27 -5 37 48.6 3.4
-27 5 36 19.6 1.7
27 -5 -36 19.1 1.8
-27 5 35 123.89 6.9
27 5 -35 145.49 7.1
27 -5 -35 130.19 7
-27 -5 35 129.79 6.9
-27 5 34 41.4 2.7
27 5 -34 38.8 2.7
27 -5 -34 40.3 2.8
-27 -5 34 37.1 2.7
-27 5 33 5.8 1
27 5 -33 5.1 1
27 -5 -33 6.9 1.1
-27 -5 33 6.6 1.2
27 5 -32 1.3 0.7
-27 -5 32 1.2 0.7
-27 5 31 20.6 1.8
27 5 -31 21.9 1.8
27 -5 -31 16.9 1.7
-27 5 30 35.2 2.5
27 5 -30 31.8 2.4
27 -5 -30 34.4 2.5
-27 -5 30 36.5 2.6
-27 5 29 150.28 8.2
27 -5 -29 176.38 8.5
-27 5 28 82.49 4.4
27 -5 -28 75.99 4.5
-27 -5 28 67.29 4.3
27 5 -28 76.59 4.4
-27 5 27 99.29 5.3
27 5 -27 96.39 5.3
27 -5 -27 93.49 5.3
-27 -5 27 89.79 5.2
-27 5 26 4 1
27 5 -26 4.4 1
27 -5 -26 5.4 1.1
-27 -5 26 6.2 1.1
-27 5 25 20.4 1.7
-27 -5 25 18.8 1.7
-27 5 24 3.2 0.9
27 5 -24 2.4 0.8
27 -5 -24 4.7 1
-27 -5 24 4 1
-27 5 23 1.5 0.7
27 5 -23 0.9 0.7
27 -5 -23 1.6 0.8
-27 -5 23 1.3 0.8
-27 5 22 31.3 2.3
27 5 -22 29.3 2.3
27 -5 -22 30.8 2.4
-27 -5 22 32.3 2.3
-27 5 21 29.5 2.3
27 5 -21 30.8 2.3
27 -5 -21 33.1 2.4
-27 -5 21 29.2 2.3
-27 5 20 77.79 4.6
27 5 -20 84.99 4.7
27 -5 -20 81.19 4.7
-27 -5 20 82.69 4.7
-27 5 19 265.57 12.9
27 5 -19 254.37 12.9
27 -5 -19 267.47 13.1
-27 -5 19 277.47 13
-27 5 18 110.59 6
27 -5 -18 112.29 6.1
27 5 -16 74.49 4.3
-27 -5 16 72.29 4.3
27 5 -15 3.9 0.9
-27 -5 15 3.1 0.8
27 5 -14 8.7 1.2
-27 5 13 3.3 1
27 -5 -13 3.4 1
27 5 -13 6.9 1.1
-27 -5 13 5.1 0.9
-27 5 12 73.09 4.3
27 5 -12 75.79 4.4
27 -5 -12 79.69 4.6
-27 -5 12 78.29 4.4
-27 5 11 3.5 0.9
27 -5 -11 4.8 1.1
27 5 -11 2.8 1
-27 -5 11 5.8 1.1
-27 5 10 129.89 7.3
27 5 -10 141.79 7.4
27 -5 -10 147.79 7.6
-27 -5 10 153.28 7.4
-27 5 9 28 2.1
27 5 -9 29.6 2.3
27 -5 -9 31.5 2.4
-27 -5 9 28.6 2.2
-27 5 8 57.89 3.5
27 -5 -8 55.69 3.6
27 5 -8 55.39 3.6
-27 -5 8 59.59 3.6
-27 5 7 146.09 7.6
27 -5 -7 151.38 7.8
27 5 -7 151.98 7.8
-27 -5 7 148.89 7.7
-27 5 6 21.8 1.8
27 -5 -6 22.9 2
27 5 -6 23.6 1.9
-27 -5 6 22.1 1.9
-27 5 5 69.09 4.2
27 -5 -5 78.19 4.5
27 5 -5 74.39 4.4
-27 -5 5 79.09 4.4
-27 5 4 14.7 1.4
27 5 -4 11.9 1.4
27 -5 -4 14.1 1.6
-27 -5 4 10.3 1.3
-27 5 3 4.8 0.9
27 -5 -3 4.5 1.1
27 5 -3 3.2 0.8
-27 -5 3 4.3 0.9
-27 5 2 49.7 3.2
27 5 -2 55.19 3.4
27 -5 -2 48.5 3.3
-27 -5 2 49.99 3.2
-27 5 1 8.3 1.2
27 5 -1 9.5 1.3
27 -5 -1 7.6 1.2
-27 -5 1 7.6 1.1
27 -5 0 84.89 4.9
-27 5 0 83.19 4.7
-27 5 -1 65.29 4
27 -5 1 73.19 4.3
-27 5 -2 34.5 2.4
27 5 2 33.2 2.5
27 -5 2 32.2 2.5
-27 -5 -2 32 2.3
-27 5 -3 47.5 3.1
27 -5 3 51.29 3.3
-27 5 -4 14.4 1.4
27 -5 4 12 1.5
-27 5 -5 14.1 1.4
27 -5 5 15.5 1.6
-27 5 -6 1.7 0.7
27 -5 6 1.8 0.8
27 -5 7 27.2 2.3
27 7 -37 116.19 5.9
-27 -7 37 101.69 5.8
27 7 -36 3.7 0.8
-27 -7 36 3.8 0.9
27 7 -35 57.19 3.3
-27 -7 35 44.7 3.1
27 7 -34 4.4 0.9
-27 -7 34 5.6 1
-27 7 33 6.2 1
27 -7 -33 5 1
27 7 -33 4.9 1
-27 -7 33 3.3 0.9
-27 7 32 3.3 0.9
27 -7 -32 4.6 1
27 7 -32 3.7 0.9
-27 -7 32 3.8 0.9
27 7 -31 3.5 0.9
-27 7 30 0.3 0.8
27 -7 -30 0.9 0.7
27 7 -30 0.6 0.6
-27 -7 30 0.5 0.7
-27 7 29 36.6 2.7
27 -7 -29 39.7 2.8
27 7 -29 45.1 2.8
-27 -7 29 40.7 2.8
-27 7 28 15.3 1.5
27 -7 -28 18.7 1.7
-27 7 27 77.29 4.6
27 -7 -27 83.29 4.8
27 7 -27 87.39 4.8
-27 -7 27 83.59 4.7
-27 7 26 0.8 0.6
27 -7 -26 0.6 0.6
-27 -7 26 0.8 0.7
27 7 -26 1 0.7
-27 7 25 24.8 2
27 -7 -25 27.9 2.2
27 7 -25 25.7 2.1
-27 -7 25 29.2 2.2
-27 7 24 2.3 0.8
27 -7 -24 2.4 0.9
-27 -7 24 3.3 0.9
27 7 -24 1.4 0.7
-27 7 23 6.5 1.1
-27 -7 23 6.4 1.1
27 7 -23 8.8 1.2
-27 7 22 0.6 0.7
27 -7 -22 0.1 0.7
-27 -7 22 0.5 0.5
27 7 -22 1.1 0.6
-27 7 21 38.4 2.7
27 -7 -21 42.1 2.9
27 7 -21 37.2 2.7
-27 -7 21 42.9 2.8
-27 7 20 2.8 0.8
27 -7 -20 3.6 0.8
-27 -7 20 2.3 0.8
27 7 -20 2.8 0.8
-27 7 19 40.4 2.7
27 -7 -19 37.4 2.8
27 7 -19 36.1 2.6
-27 -7 19 39.4 2.7
-27 7 18 0.7 0.7
27 -7 -18 -0.4 0.8
27 7 -17 33.7 2.5
-27 -7 17 38.7 2.6
-27 -7 16 17.3 1.7
-27 -7 15 2.6 0.9
27 7 -15 2.2 0.9
-27 7 14 0.2 0.7
27 -7 -14 1.3 0.9
-27 -7 14 1.2 0.8
27 7 -14 0.7 0.7
-27 7 13 0.4 0.5
27 -7 -13 0.5 0.7
-27 -7 13 -0.1 0.7
27 7 -13 1.9 0.8
-27 7 12 0.6 0.6
27 -7 -12 1.4 0.9
-27 -7 12 0.9 0.7
27 7 -12 1 0.7
-27 7 11 18 1.7
27 -7 -11 18.8 1.9
27 7 -11 20.9 1.8
-27 -7 11 18.6 1.7
-27 7 10 6.5 1
27 -7 -10 7.1 1.1
-27 -7 10 7.1 1
27 7 -10 6.3 1
-27 7 9 16.1 1.6
27 -7 -9 16.4 1.7
27 7 -9 19.6 1.7
-27 -7 9 16.6 1.6
-27 7 8 1 0.6
27 -7 -8 1.3 0.9
-27 -7 8 2.2 0.8
27 7 -8 0.3 0.7
-27 7 7 46.8 3.1
27 -7 -7 50.39 3.3
27 7 -7 46 3.1
-27 -7 7 48.3 3.1
-27 7 6 11.8 1.3
27 -7 -6 10.2 1.4
27 7 -6 13.3 1.4
-27 -7 6 10.5 1.3
-27 7 5 5.6 1
27 -7 -5 4.3 1.1
-27 -7 5 5.3 1
27 7 -5 5.1 1
-27 7 4 1 0.8
27 -7 -4 1.4 0.9
-27 -7 4 1.2 0.7
27 7 -4 1.5 0.8
-27 7 3 8.1 1.2
27 -7 -3 6.9 1.3
27 7 -3 9.6 1.3
-27 -7 3 7.4 1.1
-27 7 2 1.6 0.7
27 -7 -2 1.8 0.9
-27 7 1 7.8 1.2
27 -7 -1 7.6 1.2
-27 7 0 3.3 0.8
27 -7 0 4.1 1
-27 7 -1 20.2 1.7
27 -7 1 20 1.9
-27 7 -2 22.1 1.8
27 -7 2 20.7 2
-27 7 -3 45.9 3
27 -7 3 46.7 3.2
-27 9 30 11.1 1.3
27 -9 -30 13.8 1.5
-27 9 29 24.1 1.9
27 -9 -29 21.3 1.9
-27 9 28 0.3 0.7
27 -9 -28 1.8 0.8
-27 9 27 33 2.3
27 -9 -27 33.2 2.4
27 9 -27 27.6 2.1
-27 -9 27 26.6 2.1
-27 9 26 2.6 0.8
27 -9 -26 1.7 0.8
-27 -9 26 2.1 0.8
27 9 -26 1.9 0.7
-27 9 25 23 1.9
27 9 -25 22.6 1.9
-27 -9 25 21.5 1.9
-27 9 24 1.7 0.8
27 -9 -24 0.3 0.7
-27 -9 24 1.4 0.8
27 9 -24 1 0.8
-27 -9 23 4.3 0.9
27 9 -23 6.7 1
-27 -9 22 -0.4 0.7
27 9 -22 1.1 0.7
-27 9 21 17.4 1.6
27 -9 -21 16.5 1.7
-27 9 20 46.1 2.8
27 -9 -20 37.6 2.8
27 9 -20 44 2.9
-27 -9 20 41.3 2.8
-27 9 19 91.49 5
27 -9 -19 90.29 5.1
27 -9 -18 7.4 1.2
-27 9 18 7.1 1.1
-27 -9 18 5.6 1
27 9 -18 7.1 1.1
-27 9 17 11.3 1.3
27 -9 -17 10.8 1.4
27 9 -17 10.5 1.4
-27 -9 17 10.1 1.3
-27 9 16 11.7 1.3
27 -9 -16 13.1 1.5
27 9 -16 14.5 1.5
-27 -9 16 12 1.4
-27 9 15 2.4 0.8
27 -9 -15 1.6 0.8
-27 -9 15 3 0.8
27 9 -15 2.9 0.9
-27 9 14 4.3 0.9
27 -9 -14 4.9 1
-27 -9 14 5.9 1
27 9 -14 4.9 1
-27 9 13 38.3 2.6
27 -9 -13 38.4 2.7
27 9 -13 35.4 2.6
-27 -9 13 34.5 2.5
-27 9 12 4.1 0.9
27 -9 -12 4.5 1
-27 9 11 28.5 2.2
27 -9 -11 30.6 2.4
-27 9 10 0.1 0.7
27 -9 -10 1 0.8
-27 -9 10 1.8 0.8
27 9 -10 0.4 0.8
-27 9 9 2.2 0.8
27 -9 -9 3.4 0.9
-27 -9 9 3.3 1
27 9 -9 4.1 1
-27 9 8 5.7 0.9
27 -9 -8 5.5 1.1
-27 -9 8 4.3 0.9
27 9 -8 5.1 1
-27 9 7 3.9 0.9
27 -9 -7 4.2 1
-27 -9 7 3.8 0.9
27 9 -7 6.4 1
-27 9 6 1.8 0.7
27 -9 -6 2.2 0.9
-27 -9 6 3.9 0.9
27 9 -6 2.8 0.9
-27 9 5 2.2 0.7
27 -9 -5 3.3 0.9
-27 9 4 8.8 1.1
27 -9 -4 7 1.1
-27 9 3 1.4 0.6
27 -9 -3 3.3 0.9
-27 9 2 22.4 1.8
27 -9 -2 18 1.8
-27 9 1 21.7 1.8
27 -9 -1 21.6 2
-27 9 0 1 0.6
27 -9 0 0.9 0.7
-27 9 -1 8.5 1.1
27 -9 1 8.1 1.2
-27 9 -2 0.2 0.5
27 -9 2 0.7 0.7
-27 9 -3 2.7 0.8
27 -9 3 2.4 0.9
-28 0 41 -0.3 0.7
-28 0 40 74.99 4.3
28 0 -40 70.59 4.3
-28 0 38 75.59 4.3
28 0 -38 70.69 4.4
-28 0 37 0.1 0.6
28 0 -37 0.8 0.7
-28 0 36 38.8 2.7
28 0 -36 38.8 2.8
-28 0 35 0.4 0.7
28 0 -35 0.1 0.7
-28 0 34 49.1 3.3
28 0 -34 57.99 3.5
-28 0 33 0.8 0.8
28 0 -33 1 0.8
-28 0 32 172.78 9.2
28 0 -32 199.58 9.5
-28 0 31 -0.1 0.7
28 0 -31 -0.1 0.8
-28 0 30 857.61 37.8
28 0 -30 784.12 37.8
-28 0 28 418.66 18.1
28 0 -28 343.67 18
-28 0 27 0.2 0.7
28 0 -27 0.2 0.7
-28 0 26 83.29 4.8
28 0 -26 90.49 5
-28 0 25 0.3 0.6
28 0 -25 0.1 0.6
-28 0 24 486.75 22.2
28 0 -24 460.35 22.2
-28 0 23 0.1 0.7
28 0 -23 0.8 0.8
-28 0 22 1144.09 49.5
28 0 -22 1024.5 49.6
-28 0 21 0.4 0.7
28 0 -21 0.1 0.7
-28 0 20 920.21 45.9
28 0 -20 1123.09 46.2
-28 0 19 0.4 0.5
28 0 -19 0.2 0.6
-28 0 18 158.88 7.8
28 0 -18 145.69 7.9
-28 0 17 -0.1 0.6
28 0 -17 0.2 0.7
-28 0 16 290.47 14.3
28 0 -16 306.77 14.4
-28 0 15 0.3 0.6
28 0 -15 0.3 0.7
-28 0 14 997.7 47.5
28 0 -14 1100.69 47.8
-28 0 10 905.91 38
28 0 -10 751.92 38
-28 0 9 0.6 0.7
28 0 -9 0.3 0.7
-28 0 8 56.19 3.7
28 0 -8 81.29 4.2
-28 0 7 0.8 0.6
28 0 -7 0.1 0.7
-28 0 6 122.79 6.6
28 0 -6 138.59 6.9
-28 0 5 0.5 0.5
28 0 -5 1.8 0.7
-28 0 4 965 43.7
28 0 -4 947.01 43.8
-28 0 3 -0.1 0.6
28 0 -3 0.3 0.7
-28 0 2 1282.57 59.29
28 0 -2 1336.37 59.49
-28 0 1 0.2 0.6
28 0 -1 0.8 0.7
-28 0 0 82.89 4.7
28 0 0 86.49 4.8
-28 0 -1 0.2 0.5
28 0 1 0.1 0.7
-28 0 -2 68.49 3.9
28 0 2 68.69 4.1
-28 0 -3 -0.1 0.5
28 0 3 -0.1 0.7
-28 0 -4 769.42 35.6
28 0 4 787.32 35.8
-28 0 -5 -0.1 0.5
28 0 5 -0.4 0.6
-28 0 -6 248.78 13.6
28 0 6 357.16 14.1
28 2 -41 8.4 1.2
-28 -2 41 8.8 1.2
-28 -2 40 83.99 4.9
28 2 -40 93.89 5.1
-28 2 39 56.09 3.7
-28 -2 39 63.69 3.8
28 -2 -39 64.49 3.9
28 2 -39 68.19 3.9
-28 -2 38 105.99 5.5
28 2 -38 91.19 5.4
-28 2 37 33.9 2.4
28 -2 -37 31.7 2.5
28 2 -37 36.5 2.5
-28 2 36 66.39 4
28 -2 -36 71.39 4.2
-28 2 35 22.5 1.9
-28 -2 35 24 1.9
28 -2 -35 25.9 2.1
28 2 -35 24.2 2
-28 2 34 19.3 1.9
-28 -2 34 20.5 1.9
28 -2 -34 24.3 2
28 2 -34 24.6 2
28 2 -33 9.4 1.2
-28 2 33 10.4 1.3
-28 -2 33 6.3 1.1
28 -2 -33 7.4 1.2
28 2 -32 219.68 11.2
-28 2 32 217.78 11.1
-28 -2 32 221.98 11.1
28 -2 -32 247.78 11.4
28 2 -31 5.5 1.1
-28 2 31 4.4 0.9
-28 -2 31 4.5 0.9
28 -2 -31 5.5 1
28 2 -30 223.08 11.1
-28 2 30 241.98 11.1
-28 -2 30 212.88 11
28 -2 -30 218.08 11.1
28 2 -29 60.49 3.8
-28 2 29 67.09 3.8
-28 -2 29 58.69 3.7
28 -2 -29 63.69 3.9
28 2 -28 152.38 7.8
-28 -2 28 147.49 7.7
28 2 -26 35 2.6
-28 2 26 33.5 2.5
-28 -2 26 35.4 2.5
28 -2 -26 33.7 2.6
28 2 -25 3.6 0.9
-28 2 25 2.8 0.8
-28 -2 25 3.8 0.9
28 -2 -25 3.2 0.8
28 2 -24 174.18 9.3
-28 2 24 187.38 9.3
-28 -2 24 181.58 9.2
28 -2 -24 193.78 9.4
28 2 -23 5.6 1
-28 2 23 5.4 0.9
-28 -2 23 5.5 1
28 -2 -23 4.3 1
28 2 -22 349.47 17
-28 2 22 348.17 16.9
-28 -2 22 350.16 17
28 -2 -22 384.96 17.2
28 2 -21 14.3 1.5
-28 2 21 14 1.4
-28 -2 21 16.6 1.6
28 -2 -21 13 1.5
28 2 -20 425.46 19.8
-28 2 20 390.06 19.7
-28 -2 20 444.16 19.8
28 -2 -20 422.06 19.9
28 2 -19 8 1.2
-28 2 19 8.9 1.2
-28 -2 19 11.2 1.2
28 -2 -19 7.7 1.2
28 2 -18 132.19 6.7
-28 2 18 119.09 6.6
-28 -2 18 134.19 6.7
28 -2 -18 120.59 6.7
28 2 -17 471.35 20
-28 -2 17 427.66 19.8
28 -2 -17 427.76 20
28 2 -16 110.39 6.1
-28 2 16 120.39 6.1
-28 -2 16 117.09 6.1
28 -2 -16 110.89 6.2
28 2 -15 37.5 2.7
-28 2 15 36.5 2.6
-28 -2 15 43 2.7
28 -2 -15 40.9 2.8
28 2 -14 577.14 27.3
-28 2 14 622.44 27.3
-28 -2 14 619.74 27.3
28 -2 -14 531.65 27.3
28 2 -13 55.19 3.3
-28 2 13 44.9 3
-28 -2 13 52.89 3.2
28 -2 -13 47 3.2
28 2 -12 737.83 33.1
-28 2 12 691.33 32.9
28 -2 -12 724.63 33.2
-28 2 11 137.39 7.1
28 -2 -11 141.79 7.4
-28 2 10 258.57 13
28 -2 -10 285.77 13.3
28 2 -9 359.36 17.6
-28 2 9 372.76 17.6
-28 -2 9 366.06 17.6
28 -2 -9 394.16 17.8
28 2 -8 174.78 9.2
-28 2 8 188.48 9.2
-28 -2 8 191.68 9.3
28 -2 -8 180.28 9.4
28 2 -7 6.5 1
-28 -2 7 7.4 1
-28 -2 6 98.39 5.3
28 2 -6 99.99 5.5
28 2 -5 1.4 0.7
-28 -2 5 0.4 0.5
-28 2 4 444.96 20.4
-28 -2 4 401.96 20.3
28 -2 -4 461.65 20.6
28 2 -4 437.86 20.5
-28 2 3 69.09 4
-28 -2 3 69.09 4
28 -2 -3 70.49 4.2
28 2 -3 68.19 4.1
-28 2 2 780.12 34.9
-28 -2 2 786.32 34.9
28 -2 -2 690.73 34.9
28 2 -2 779.62 35
-28 2 1 51.49 3.2
-28 -2 1 56.99 3.3
28 -2 -1 53.99 3.4
28 2 -1 50.99 3.3
-28 2 0 101.19 5.4
-28 -2 0 99.69 5.4
28 -2 0 104.09 5.5
28 2 0 93.29 5.4
-28 2 -1 72.59 4.1
-28 -2 -1 70.79 4.1
28 -2 1 80.69 4.4
28 2 1 71.69 4.3
-28 2 -2 28.7 2
-28 -2 -2 25.4 1.9
28 -2 2 29.1 2.2
28 2 2 23 2
-28 2 -3 14.5 1.4
-28 -2 -3 13.4 1.3
28 -2 3 16.3 1.6
28 2 3 17.5 1.6
-28 2 -4 260.47 12.8
-28 -2 -4 251.87 12.7
28 -2 4 277.77 13.1
28 2 4 279.97 13
-28 2 -5 11.5 1.2
28 -2 5 12.9 1.4
-28 2 -6 456.25 21.8
28 -2 6 480.75 22.1
28 4 -41 0.1 0.6
-28 -4 41 0.9 0.7
28 4 -40 68.39 4.1
-28 -4 40 70.19 4.1
28 4 -39 36.8 2.6
-28 -4 39 35.5 2.6
-28 4 38 48 3.1
28 -4 -38 49.2 3.2
28 4 -37 66.29 4.1
-28 4 37 74.59 4.1
-28 -4 37 76.89 4.2
28 -4 -37 60.59 4.1
28 4 -36 28.4 2.2
-28 4 36 24 2
-28 -4 36 25.3 2.1
28 -4 -36 28.1 2.2
28 4 -35 79.69 4.4
-28 4 35 69.09 4.2
-28 -4 35 86.29 4.4
28 -4 -35 60.09 4.2
28 4 -34 20.3 1.8
-28 -4 34 18.8 1.8
-28 4 33 -0.3 0.6
28 4 -33 -0.1 0.6
-28 -4 33 1.3 0.7
28 -4 -33 -0.1 0.6
-28 4 32 43.6 2.9
-28 -4 32 48.2 3
28 -4 -32 39.7 3
-28 4 31 57.09 3.6
28 -4 -31 59.39 3.7
28 4 -30 109.59 5.9
-28 4 30 104.89 5.8
-28 -4 30 98.49 5.7
28 -4 -30 113.49 5.9
-28 4 29 80.69 4.6
-28 -4 29 70.59 4.5
28 -4 -29 80.69 4.7
28 4 -28 96.49 5
-28 4 28 80.39 4.8
-28 -4 28 89.59 4.9
28 -4 -28 77.69 4.9
28 4 -27 46 3.1
-28 4 27 45.1 3
-28 -4 27 49.8 3.1
28 -4 -27 50.39 3.2
28 4 -26 38.4 2.7
-28 4 26 36.7 2.6
-28 -4 26 37.1 2.6
28 -4 -26 37.9 2.7
28 4 -25 14 1.4
-28 4 25 10.1 1.3
-28 -4 25 11.6 1.3
28 -4 -25 14.3 1.5
28 4 -24 46.3 3.1
-28 4 24 55.59 3.2
-28 -4 24 47.2 3.1
28 -4 -24 46.2 3.2
-28 4 23 4.8 0.9
28 4 -23 3.8 1
-28 -4 23 6.3 1.1
28 -4 -23 6.3 1
-28 4 22 115.89 6.2
28 4 -22 113.69 6.2
-28 -4 22 114.49 6.2
28 -4 -22 116.99 6.3
-28 4 19 343.57 15.7
28 4 -19 307.17 15.6
28 -4 -19 338.47 15.8
-28 -4 19 321.17 15.6
-28 4 18 65.69 4.1
28 4 -18 68.99 4.2
28 -4 -18 70.49 4.3
-28 -4 18 71.49 4.1
-28 4 17 111.29 6.2
28 4 -17 118.09 6.4
28 -4 -17 130.89 6.5
-28 -4 17 118.89 6.3
-28 4 16 3.8 1
28 4 -16 6.2 1.2
-28 -4 16 5.2 1
28 -4 -16 4.5 1.1
-28 4 15 4.8 0.9
28 4 -15 6.6 1
-28 -4 15 5.7 0.9
28 -4 -15 5.6 1
-28 4 14 59.59 3.7
28 4 -14 64.69 3.8
28 -4 -14 65.89 3.9
-28 4 13 6.2 1
28 4 -13 6.5 1.1
28 -4 -13 6.6 1.1
-28 -4 13 6.3 1
-28 4 12 221.28 11.4
28 4 -12 227.08 11.5
28 -4 -12 250.57 11.7
-28 -4 12 241.68 11.5
-28 4 11 4.6 0.9
28 4 -11 5.2 1
28 -4 -11 5.8 1.1
-28 -4 11 5 0.9
-28 4 10 124.79 6
28 4 -10 102.39 5.9
28 -4 -10 105.89 6
-28 -4 10 107.89 5.9
28 4 -9 147.89 8
28 -4 -9 159.68 8.1
-28 -4 9 159.78 8
-28 4 8 11.6 1.4
28 4 -8 8.1 1.4
28 -4 -8 9.4 1.5
-28 -4 8 9.8 1.3
-28 4 7 223.98 11
28 4 -7 224.08 11.2
28 -4 -7 239.58 11.3
-28 -4 7 219.18 11.1
-28 4 6 3.1 0.8
28 4 -6 3.8 0.9
28 -4 -6 3.7 1
-28 -4 6 4.9 0.9
28 4 -5 13.5 1.5
-28 4 5 14.9 1.4
28 -4 -5 16.4 1.6
-28 -4 5 15.5 1.5
28 4 -4 106.69 5.8
-28 4 4 107.89 5.7
28 -4 -4 104.39 5.9
-28 -4 4 102.79 5.7
-28 4 3 49.8 3.1
28 -4 -3 49.2 3.3
-28 4 2 285.37 13.7
28 -4 -2 284.17 13.9
28 4 -1 78.29 4.6
-28 4 1 82.19 4.6
28 -4 -1 82.89 4.8
-28 -4 1 85.19 4.6
28 4 0 138.19 7.3
-28 4 0 132.99 7.2
28 -4 0 143.29 7.5
-28 -4 0 148.19 7.3
28 4 1 46.1 3.1
-28 4 -1 49.5 3.1
28 -4 1 46.7 3.2
-28 -4 -1 47.1 3
28 4 2 0.6 0.7
-28 4 -2 0.6 0.7
28 -4 2 -0.6 0.7
-28 -4 -2 0.4 0.6
-28 4 -3 19.7 1.6
28 -4 3 15 1.7
-28 4 -4 56.09 3.6
28 -4 4 65.29 3.9
-28 4 -5 2.4 0.7
28 -4 5 3.6 1
-28 4 -6 144.69 7.5
28 -4 6 143.89 7.7
28 6 -40 3.6 0.9
-28 -6 40 3.7 0.9
28 6 -39 102.69 5.2
-28 -6 39 80.19 4.9
28 6 -38 32.4 2.3
-28 -6 38 26.9 2.2
28 6 -36 6 1
-28 -6 36 2.7 0.9
28 6 -35 8.7 1.2
-28 -6 35 10.6 1.3
-28 6 34 5.5 1
28 6 -34 5.2 0.9
28 -6 -34 5.8 1.1
-28 -6 34 4.3 0.9
-28 6 33 2.6 0.8
28 6 -33 2.7 0.8
28 -6 -33 2 0.8
-28 -6 33 3.8 1
-28 6 32 2.2 0.8
28 -6 -32 1.5 0.8
28 6 -32 2 0.8
-28 -6 32 2.5 0.8
-28 6 31 33.7 2.4
28 -6 -31 33.2 2.5
-28 6 30 8.2 1.1
28 -6 -30 8.3 1.2
28 6 -30 9.9 1.2
-28 -6 30 7.3 1.2
-28 6 29 126.49 7
28 6 -29 133.59 7.1
28 -6 -29 143.89 7.3
-28 -6 29 141.69 7.1
-28 6 28 59.19 3.6
28 6 -28 59.99 3.7
28 -6 -28 57.19 3.7
-28 -6 28 59.19 3.6
-28 6 27 46.3 3
28 6 -27 42.8 3
28 -6 -27 46 3.1
-28 -6 27 47.4 3
-28 6 26 8.6 1.2
28 -6 -26 7.5 1.2
28 6 -26 9.9 1.3
-28 -6 26 8.3 1.2
28 6 -25 20.4 1.8
-28 -6 25 18.1 1.7
28 6 -24 13.3 1.5
-28 -6 24 13.6 1.5
-28 6 23 8.4 1.1
28 -6 -23 11.7 1.3
-28 6 22 19.6 1.8
28 -6 -22 20.2 1.8
28 6 -22 20.7 1.8
-28 -6 22 20.6 1.8
-28 6 21 29.6 2.4
28 -6 -21 37.2 2.6
28 6 -21 41.6 2.7
-28 -6 21 31.9 2.4
-28 6 20 12.3 1.4
28 -6 -20 15.1 1.6
28 6 -20 16.1 1.6
-28 -6 20 13.6 1.5
-28 6 19 105.79 6.2
28 -6 -19 127.79 6.6
28 6 -19 137.49 6.6
-28 -6 19 115.39 6.3
-28 6 18 68.79 3.9
28 -6 -18 62.39 4
28 6 -18 64.59 3.9
-28 -6 18 61.19 3.8
-28 6 17 48.9 3.1
28 -6 -17 52.19 3.3
28 6 -17 49.2 3.2
-28 -6 17 41 3
-28 6 16 6.6 1
28 -6 -16 7.4 1.2
28 6 -16 7.3 1.1
-28 6 15 0.2 0.6
28 -6 -15 0.1 0.7
28 6 -15 0.9 0.7
-28 -6 15 0.4 0.6
-28 6 14 12.6 1.4
28 -6 -14 12.4 1.5
28 6 -14 10.8 1.3
-28 -6 14 11.6 1.3
-28 6 13 7.2 1
28 -6 -13 6.1 1.1
28 6 -13 6.9 1.1
-28 -6 13 6.2 1
-28 6 12 42.8 3
28 -6 -12 46.8 3.2
28 6 -12 50.59 3.2
-28 -6 12 47.3 3.1
-28 6 11 15.1 1.5
28 -6 -11 12.7 1.5
28 6 -11 13.9 1.5
-28 -6 11 13.1 1.4
-28 6 10 29.9 2.3
28 -6 -10 29.2 2.4
28 6 -10 30.5 2.4
-28 -6 10 32.7 2.4
-28 6 9 92.19 5.3
28 -6 -9 107.99 5.7
-28 6 8 24 1.9
-28 6 7 1.1 0.7
28 -6 -7 1.4 0.8
28 6 -7 2.1 0.9
-28 -6 7 1.5 0.7
-28 6 6 2.6 0.8
28 -6 -6 2.4 0.9
28 6 -6 2.7 0.8
-28 -6 6 2.4 0.9
-28 6 5 1 0.7
28 -6 -5 0.2 0.7
28 6 -5 0.1 0.7
-28 -6 5 1.4 0.7
-28 6 4 30.5 2.3
28 -6 -4 30.7 2.5
28 6 -4 31.9 2.4
-28 -6 4 33.4 2.4
-28 6 3 0.8 0.7
28 -6 -3 2.6 0.9
28 6 -3 1.6 0.8
-28 -6 3 1.8 0.8
-28 6 2 57.89 3.7
28 -6 -2 71.09 4.1
28 6 -2 58.59 3.8
-28 -6 2 60.19 3.7
-28 6 1 53.59 3.3
28 -6 -1 50.49 3.4
28 6 -1 44.7 3.2
-28 -6 1 54.49 3.3
-28 6 0 14.5 1.4
28 -6 0 12.1 1.5
-28 6 -1 61.39 3.6
28 -6 1 56.89 3.8
-28 6 -2 6.9 1
28 -6 2 5.4 1
-28 6 -3 30.5 2.3
28 -6 3 30.5 2.5
-28 6 -4 37.8 2.6
28 -6 4 39.5 2.8
-28 6 -5 13 1.4
28 -6 5 11.7 1.5
-28 8 32 7.8 1.1
28 -8 -32 8.6 1.2
-28 8 31 22.1 1.9
28 -8 -31 23.3 2
28 8 -31 26.7 2
-28 -8 31 23.3 1.9
28 8 -30 1.2 0.6
-28 -8 30 3.2 0.7
-28 8 29 38.1 2.7
28 -8 -29 41 2.8
28 8 -29 38.3 2.7
-28 -8 29 39.9 2.7
-28 8 28 1.8 0.7
28 -8 -28 0.7 0.7
-28 -8 28 1.4 0.8
28 8 -28 1.6 0.7
-28 8 27 11.6 1.4
28 -8 -27 11.2 1.4
-28 8 26 4.6 1
28 -8 -26 6.3 1.1
-28 -8 26 3.4 0.8
28 8 -26 4.3 0.8
-28 8 25 4 1
28 -8 -25 3 0.9
-28 -8 25 3.6 0.9
28 8 -25 3.2 0.9
-28 8 24 3.3 0.9
28 -8 -24 2.2 0.9
-28 -8 24 3.6 0.8
28 8 -24 2.5 0.7
-28 8 23 17.5 1.7
28 -8 -23 19.6 1.8
28 8 -23 17.5 1.6
-28 -8 23 17.7 1.7
-28 8 22 19.8 1.7
28 -8 -22 20.5 1.9
28 8 -22 23.3 1.9
-28 -8 22 18.7 1.7
-28 8 21 6.4 1
28 -8 -21 9.4 1.2
-28 -8 21 6.1 1
28 8 -21 5.8 1
-28 8 20 7.9 1.1
28 -8 -20 6.4 1.2
28 8 -18 22.2 1.9
-28 -8 18 22.9 1.9
-28 8 17 30.4 2.3
28 -8 -17 28.6 2.4
28 8 -17 33.1 2.4
-28 -8 17 34.6 2.4
-28 8 16 13.9 1.4
28 -8 -16 12.6 1.5
28 8 -16 12 1.4
-28 -8 16 14.6 1.5
-28 8 15 7.3 1
28 -8 -15 4.2 1
-28 -8 15 3.8 0.8
28 8 -15 6.4 1
-28 8 14 1.6 0.8
28 -8 -14 1.5 0.8
-28 -8 14 2 0.7
28 8 -14 1.4 0.7
-28 8 13 24.9 2
28 -8 -13 26.3 2.2
28 8 -13 29.1 2.1
-28 -8 13 23.6 2
-28 8 12 0.5 0.6
28 -8 -12 1.2 0.7
-28 -8 12 1.2 0.7
28 8 -12 0.8 0.7
-28 8 11 42.4 3
28 -8 -11 53.99 3.4
28 8 -11 46.4 3.1
-28 -8 11 48.2 3.1
-28 8 10 2.3 0.7
28 -8 -10 2.1 0.9
-28 -8 10 2.6 0.8
28 8 -10 3.4 0.9
-28 8 9 11.3 1.3
28 -8 -9 12.5 1.4
28 8 -9 10.2 1.3
-28 -8 9 10.3 1.3
-28 8 8 0.2 0.7
-28 -8 8 0.6 0.6
28 8 -8 1.3 0.7
-28 8 7 14.5 1.5
28 -8 -7 15.4 1.6
-28 8 6 5.7 1
28 -8 -6 3.7 0.9
-28 8 5 -0.4 0.6
28 -8 -5 0.1 0.8
-28 -8 5 -0.1 0.7
28 8 -5 0.3 0.8
-28 8 4 19.8 1.7
28 -8 -4 22.1 1.9
-28 8 3 4.4 0.9
28 -8 -3 5 1.1
-28 8 2 -0.1 0.6
28 -8 -2 1 0.8
-28 8 1 45.1 3
28 -8 -1 49.2 3.3
-28 8 0 13.3 1.4
28 -8 0 13.7 1.6
-28 8 -1 4.3 0.9
28 -8 1 5.5 1.1
-28 -10 16 4.2 0.8
28 10 -16 3.8 0.8
28 10 -15 16.6 1.6
-28 -10 15 17.9 1.6
28 10 -14 28 2.1
-28 -10 14 26.9 2.1
28 10 -13 13.2 1.4
-28 -10 13 9.9 1.3
-28 -10 12 7.9 1.1
28 10 -12 9.2 1.2
-28 -10 11 1.8 0.7
28 10 -11 0.4 0.6
-28 -10 10 5.1 0.9
28 10 -10 4 0.9
-29 -1 41 14.6 1.5
29 1 -41 18.6 1.7
-29 1 40 159.78 8
-29 -1 40 167.38 8
29 -1 -40 146.89 8
29 1 -40 142.29 8
-29 1 39 38.3 2.7
-29 -1 39 40.9 2.7
29 -1 -39 38.2 2.8
29 1 -39 41.3 2.8
-29 1 38 40 2.7
-29 -1 38 40.7 2.7
29 1 -38 38.3 2.7
29 1 -36 0.7 0.7
-29 1 36 0.8 0.6
-29 -1 36 0.6 0.7
29 -1 -36 1.1 0.8
29 1 -35 5.1 0.9
-29 1 35 7.7 1.1
-29 -1 35 8.5 1.1
29 -1 -35 8.5 1.2
-29 1 34 29.2 2.2
-29 -1 34 26.9 2.1
29 -1 -34 28.8 2.3
29 1 -34 25.4 2.1
-29 1 33 18.7 1.7
-29 -1 33 17.8 1.7
29 -1 -33 14.2 1.6
29 1 -33 20.3 1.8
-29 1 32 272.67 12.8
-29 -1 32 275.47 12.8
29 1 -32 275.37 12.9
29 1 -31 2.5 0.8
-29 1 31 1.9 0.8
-29 -1 31 3.4 0.8
29 -1 -31 3.3 0.9
-29 1 30 359.86 17.6
-29 -1 30 359.36 17.6
29 -1 -30 375.06 17.8
29 1 -30 394.36 17.8
29 1 -29 2.4 0.9
-29 1 29 1.9 0.8
-29 -1 29 2.5 0.8
29 -1 -29 2.3 0.8
-29 1 28 68.49 4.1
-29 -1 28 71.19 4.2
29 -1 -28 69.79 4.3
29 1 -28 74.99 4.3
-29 1 26 178.08 8.9
29 -1 -26 165.18 8.9
29 1 -26 161.48 8.8
-29 1 25 14.3 1.5
-29 -1 25 16.3 1.6
29 -1 -25 17.3 1.7
29 1 -25 16.3 1.6
-29 1 24 358.16 17
-29 -1 24 346.37 16.9
29 -1 -24 369.86 17.1
29 1 -24 352.86 17
29 1 -23 6.8 1.2
-29 1 23 9.2 1.3
-29 -1 23 9.4 1.2
29 -1 -23 10.1 1.4
-29 1 22 403.76 19.9
-29 -1 22 450.05 20
29 -1 -22 421.66 20.1
29 1 -22 420.96 20
29 1 -21 2.9 0.8
-29 1 21 3.9 0.9
-29 -1 21 2.2 0.7
29 -1 -21 2.7 0.9
-29 1 20 374.96 18.1
-29 -1 20 346.97 18
29 1 -20 385.26 18.2
-29 1 19 69.79 4.2
-29 -1 19 81.39 4.3
29 -1 -19 72.49 4.4
29 1 -19 75.39 4.4
-29 1 18 24.5 2
-29 -1 18 24.9 2
29 -1 -18 26.1 2.2
29 1 -18 30.9 2.2
-29 1 17 67.99 3.9
-29 -1 17 64.99 3.9
29 -1 -17 66.29 4.1
29 1 -17 69.09 4.1
-29 1 16 529.15 23.1
-29 -1 16 484.05 23
29 1 -16 521.05 23.2
29 1 -15 2.1 0.9
-29 1 15 3.1 0.8
-29 -1 15 2.6 0.8
29 -1 -15 2.3 0.9
-29 1 14 930.71 44.7
-29 -1 14 1052.49 44.9
29 -1 -14 934.31 44.9
29 1 -14 1012.3 45
-29 1 13 66.19 3.8
-29 -1 13 62.99 3.7
29 -1 -13 69.09 4
29 1 -13 54.99 3.7
-29 1 12 439.36 21
29 -1 -12 461.85 21.3
29 1 -11 5.1 1
-29 -1 11 5.5 1
29 -1 -11 6.4 1.1
-29 1 10 360.56 16.8
29 -1 -10 347.07 17
-29 1 9 138.99 7.1
29 -1 -9 138.09 7.3
-29 -1 8 51.59 3.1
29 1 -8 46.5 3.1
-29 -1 7 10.2 1.2
29 1 -7 12.1 1.4
-29 -1 6 292.77 14.3
29 1 -6 308.27 14.5
-29 1 5 3.1 0.8
-29 -1 5 1.3 0.7
29 -1 -5 1.5 0.7
29 1 -5 3.2 0.9
-29 1 4 1008.7 46.9
-29 -1 4 1045.3 46.9
29 -1 -4 995.5 47.1
29 1 -4 1068.19 47.1
-29 1 3 32.8 2.4
-29 -1 3 34.1 2.4
29 -1 -3 37 2.6
29 1 -3 37.8 2.6
-29 1 2 400.56 19.9
-29 -1 2 417.96 19.9
29 -1 -2 427.46 20.1
29 1 -2 467.25 20.2
-29 1 1 79.39 4.5
-29 -1 1 84.19 4.6
29 -1 -1 84.19 4.8
29 1 -1 84.39 4.8
-29 1 0 4.9 0.9
-29 -1 0 6.7 0.9
29 -1 0 6.5 1
29 1 0 7.7 1.1
-29 1 -1 14.7 1.4
-29 -1 -1 14.8 1.4
29 -1 1 15.6 1.6
29 1 1 17.2 1.6
-29 1 -2 228.98 11.1
-29 -1 -2 221.28 11
29 -1 2 227.88 11.2
29 1 2 230.68 11.3
-29 1 -3 12.7 1.3
-29 -1 -3 12 1.2
29 -1 3 12.2 1.3
29 1 3 11.4 1.4
-29 1 -4 678.43 29.5
-29 -1 -4 587.04 29.4
29 -1 4 663.43 29.7
29 1 4 641.54 29.6
-29 1 -5 23.6 1.8
29 -1 5 23.1 1.9
-29 -3 41 58.99 3.6
29 3 -41 57.29 3.6
29 3 -39 83.79 5
-29 3 39 86.49 5
-29 -3 39 96.79 5.1
29 -3 -39 95.19 5.2
29 3 -38 38.7 2.9
-29 3 38 52.19 3.1
-29 -3 38 52.19 3.1
29 -3 -38 41.5 3.1
29 3 -37 65.29 3.9
-29 3 37 58.79 3.8
-29 -3 37 68.89 4
29 -3 -37 69.19 4.1
29 3 -36 1.2 0.7
-29 3 36 0.7 0.8
-29 -3 36 1.5 0.8
29 -3 -36 1.8 0.8
29 3 -35 3.6 0.9
-29 -3 35 4 1
29 3 -34 11 1.3
-29 3 34 12.8 1.4
-29 -3 34 11.5 1.3
29 -3 -34 9.5 1.3
-29 3 33 3.8 0.8
29 -3 -33 3.9 1
29 3 -32 221.08 10.1
-29 3 32 191.68 9.9
-29 -3 32 195.88 9.9
29 -3 -32 191.28 10
29 3 -31 128.69 7.1
-29 3 31 126.49 7
-29 -3 31 136.59 7.1
29 3 -30 110.99 6.1
-29 3 30 106.19 6
-29 -3 30 116.79 6.1
29 -3 -30 123.09 6.3
29 3 -29 113.59 6
-29 3 29 109.99 5.9
-29 -3 29 113.79 6
29 -3 -29 100.49 5.9
29 3 -28 93.29 5.4
-29 -3 28 101.19 5.4
29 3 -27 41.4 3
-29 -3 27 43 3
29 -3 -27 47.5 3.1
29 3 -26 1 0.7
-29 3 26 2.5 0.7
-29 -3 26 1.9 0.8
29 -3 -26 1.4 0.7
29 3 -25 10.1 1.3
-29 3 25 9.3 1.2
-29 -3 25 11.6 1.3
29 -3 -25 10.7 1.3
29 3 -24 201.18 9.8
-29 3 24 184.68 9.6
-29 -3 24 193.28 9.7
29 -3 -24 193.48 9.8
29 3 -21 229.08 11.6
-29 3 21 223.88 11.5
-29 -3 21 234.18 11.6
29 -3 -21 265.27 11.9
29 3 -20 386.46 18.4
-29 3 20 361.56 18.2
-29 -3 20 388.36 18.3
29 -3 -20 417.76 18.6
29 3 -19 259.47 12.8
-29 3 19 245.98 12.6
-29 -3 19 261.37 12.7
29 -3 -19 279.27 12.9
29 3 -18 1.9 0.8
-29 3 18 3.2 0.8
-29 -3 18 2.7 0.8
29 -3 -18 2.3 0.8
29 3 -17 119.69 6.2
-29 3 17 108.99 6
-29 -3 17 109.49 6.1
29 -3 -17 120.49 6.3
29 3 -16 191.18 9.7
-29 3 16 186.58 9.6
-29 -3 16 195.98 9.6
29 -3 -16 198.58 9.8
29 3 -15 2.7 0.8
-29 3 15 1.3 0.7
-29 -3 15 3.5 0.9
29 -3 -15 1.5 0.8
29 3 -14 343.77 17.1
-29 3 14 333.67 16.9
29 3 -13 143.39 7.8
-29 3 13 148.29 7.7
-29 -3 13 153.68 7.8
29 -3 -13 159.38 8
29 3 -12 187.78 9.3
-29 3 12 178.28 9.1
-29 -3 12 188.58 9.2
29 -3 -12 173.78 9.3
-29 3 11 234.38 12.3
-29 -3 11 244.28 12.3
29 -3 -11 257.17 12.6
29 3 -10 22.6 2
-29 -3 10 25.3 2
29 -3 -10 24 2.1
29 3 -9 122.39 6.6
-29 3 9 125.89 6.5
-29 -3 9 120.19 6.5
29 -3 -9 125.99 6.7
29 3 -8 4.6 0.9
-29 3 8 4.5 0.8
-29 -3 8 6.4 1
29 -3 -8 4.8 1
29 3 -7 9 1.2
-29 3 7 8 1.1
-29 -3 7 9.4 1.2
29 -3 -7 7.7 1.2
29 3 -6 93.09 5.3
-29 3 6 90.89 5.2
-29 -3 6 100.19 5.3
29 -3 -6 101.89 5.4
-29 3 5 23.6 1.9
29 -3 -5 19.8 2
-29 3 4 657.03 30.7
29 -3 -4 674.83 30.9
29 3 -3 32.6 2.4
-29 3 3 38.3 2.5
29 -3 -3 34 2.6
-29 -3 3 30.4 2.3
-29 3 2 406.76 20.4
29 -3 -2 480.05 20.8
-29 -3 2 442.86 20.5
29 3 -2 428.66 20.6
-29 3 1 59.19 3.5
29 -3 -1 57.49 3.7
-29 -3 1 60.39 3.5
29 3 -1 55.99 3.6
-29 3 0 8.6 1.1
-29 -3 0 10.1 1.2
29 -3 0 10.9 1.4
29 3 0 9.8 1.3
-29 3 -1 36.5 2.5
29 -3 1 38.2 2.7
-29 -3 -1 34.6 2.4
29 3 1 37.6 2.6
-29 3 -2 42.7 2.9
29 -3 2 47.3 3.1
-29 -3 -2 49.7 3
29 3 2 47.2 3.1
-29 3 -3 5.6 0.9
29 -3 3 8.9 1.2
-29 3 -4 225.68 11.3
29 -3 4 238.38 11.5
-29 3 -5 43.2 2.9
29 -3 5 45.6 3.1
29 5 -41 23.4 2
-29 -5 41 23.2 1.9
29 5 -40 44.6 3.1
-29 -5 40 50.89 3.2
29 5 -38 15.5 1.6
-29 -5 38 16.5 1.5
29 5 -37 67.39 4.1
-29 -5 37 68.49 4
-29 5 36 2.5 0.7
29 5 -36 2.5 0.8
29 -5 -36 3.1 0.8
-29 -5 36 2.9 0.9
29 5 -35 26.6 2.2
-29 5 35 27.6 2.1
29 -5 -35 28.5 2.2
-29 -5 35 23.8 2.1
-29 5 34 7.6 1.1
29 -5 -34 7 1.1
-29 5 33 15.9 1.6
29 5 -33 18.3 1.7
29 -5 -33 18.4 1.7
-29 -5 33 18 1.7
-29 5 32 1.4 0.7
29 5 -32 2.6 0.8
29 -5 -32 1 0.7
-29 5 31 118.29 6.6
29 5 -31 133.69 6.8
29 -5 -31 123.99 6.8
-29 -5 31 129.59 6.7
-29 5 30 20.2 1.8
29 5 -30 22.2 1.9
29 -5 -30 19.3 1.8
-29 -5 30 16.2 1.7
-29 5 29 162.68 8.7
29 5 -29 184.58 8.9
29 -5 -29 164.78 8.8
-29 -5 29 180.98 8.9
29 5 -28 46.3 3
-29 -5 28 45.5 3
-29 5 27 39 2.7
29 -5 -27 40.9 2.8
-29 5 26 12.1 1.4
-29 5 25 0.9 0.7
29 5 -25 0.1 0.7
29 -5 -25 -0.1 0.7
-29 -5 25 0.4 0.7
-29 5 24 89.49 5
29 5 -24 88.79 5.1
29 -5 -24 95.79 5.2
-29 -5 24 87.29 5
-29 5 23 86.09 4.9
29 5 -23 91.99 5
29 -5 -23 84.19 5
-29 -5 23 83.99 4.9
-29 5 22 116.19 6.5
29 5 -22 125.19 6.7
29 -5 -22 122.19 6.7
-29 -5 22 141.19 6.8
-29 5 21 122.89 6.7
29 5 -21 129.99 6.8
29 -5 -21 131.29 6.8
-29 -5 21 124.19 6.7
-29 5 20 66.49 3.9
29 5 -20 63.99 3.9
29 -5 -20 61.69 3.9
-29 -5 20 64.59 3.9
-29 5 19 160.08 8
29 5 -19 155.58 8
29 -5 -19 146.29 8
-29 -5 19 156.68 8
-29 5 18 29.4 2.2
29 5 -18 28.5 2.2
29 -5 -18 28.1 2.3
-29 -5 18 29.4 2.2
-29 5 17 8.1 1.2
29 5 -17 9.3 1.2
29 -5 -17 9.1 1.4
-29 -5 17 8.6 1.1
-29 5 16 11.6 1.3
29 5 -16 13.2 1.4
29 -5 -16 13.1 1.5
-29 5 15 8.2 1.1
29 5 -15 7.4 1.2
29 -5 -15 7.4 1.3
-29 -5 15 8.8 1.2
-29 5 14 99.29 5.6
29 -5 -14 112.19 5.9
-29 5 13 14.4 1.5
29 -5 -13 14 1.6
-29 5 12 153.08 8.1
29 5 -12 148.29 8.2
29 -5 -12 175.68 8.5
-29 -5 12 171.68 8.3
-29 5 11 107.19 6
29 5 -11 119.59 6.2
29 -5 -11 118.89 6.3
-29 -5 11 109.79 6.1
-29 5 10 9.8 1.2
29 5 -10 10.7 1.3
29 -5 -10 9.7 1.4
-29 -5 10 10.4 1.3
-29 5 9 154.58 8.1
29 5 -9 150.48 8.1
29 -5 -9 168.88 8.4
-29 -5 9 164.28 8.2
-29 5 8 7.9 1.1
29 5 -8 8.3 1.2
29 -5 -8 9.4 1.3
-29 -5 8 8.6 1.2
-29 5 7 3.9 0.8
29 5 -7 3.7 0.9
29 -5 -7 3.3 0.9
-29 -5 7 4 0.9
-29 5 6 19.7 1.7
29 5 -6 22.5 1.9
29 -5 -6 18.4 1.8
-29 -5 6 18.8 1.7
29 5 -5 23.8 2.1
-29 -5 5 24.9 2.1
29 5 -4 56.19 3.5
-29 -5 4 53.79 3.4
29 5 -3 62.49 3.9
-29 -5 3 63.29 3.8
29 5 -2 65.09 4
-29 -5 2 68.39 4
29 5 -1 34.5 2.6
-29 -5 1 34.8 2.5
29 5 0 9.4 1.3
-29 -5 0 12.2 1.4
29 7 -35 4.1 0.9
-29 -7 35 5.1 0.9
-29 7 34 1.7 0.8
29 -7 -34 0.9 0.7
29 7 -34 0.8 0.7
-29 -7 34 0.6 0.8
-29 7 33 0.6 0.6
29 -7 -33 1.2 0.7
29 7 -33 0.9 0.6
-29 -7 33 0.9 0.6
-29 7 32 3.5 0.8
29 -7 -32 5 1
-29 7 31 79.49 4.5
29 -7 -31 84.49 4.7
29 7 -31 73.39 4.5
-29 -7 31 79.99 4.5
-29 7 30 3.5 0.9
29 -7 -30 2.9 1
29 7 -30 4.5 0.8
-29 -7 30 3.2 0.8
-29 7 29 49.3 3.2
29 -7 -29 52.09 3.4
29 7 -29 55.19 3.3
-29 -7 29 46.3 3.2
-29 7 28 6.5 1.1
29 -7 -28 6.4 1.1
29 7 -28 6.9 1.1
-29 -7 28 5 0.9
29 7 -27 11 1.4
-29 -7 27 7.1 1.2
-29 7 26 5.5 1
29 -7 -26 5.1 1
29 7 -26 3.8 0.8
-29 -7 26 5.5 0.9
-29 7 25 2 0.8
29 -7 -25 2.1 0.9
-29 7 24 3.2 0.9
29 7 -24 2.8 0.9
-29 -7 24 2.5 0.8
-29 7 23 8.5 1.2
29 -7 -23 7 1.1
-29 -7 23 8.5 1.1
29 7 -23 6.8 1.1
-29 7 22 0.8 0.6
29 -7 -22 0.6 0.6
29 7 -22 0.3 0.8
-29 -7 22 1.1 0.7
-29 7 21 73.59 4.5
29 -7 -21 81.99 4.7
29 7 -21 85.29 4.7
-29 -7 21 82.09 4.6
-29 7 20 12.5 1.4
29 -7 -20 15.4 1.6
29 7 -20 16.7 1.6
-29 -7 20 14.8 1.5
-29 7 19 114.09 5.9
29 -7 -19 108.79 6
29 7 -19 105.29 5.9
-29 -7 19 104.99 5.8
-29 7 18 21.5 1.8
29 -7 -18 19.3 1.9
-29 7 17 11.5 1.4
29 -7 -17 8.7 1.4
29 7 -17 13.1 1.4
-29 -7 17 10.5 1.4
-29 7 16 -0.1 0.5
29 -7 -16 0.5 0.7
-29 -7 16 1.1 0.8
29 7 -16 -0.6 0.7
-29 7 15 11 1.3
29 -7 -15 10.9 1.5
-29 7 14 1 0.6
29 -7 -14 0.8 0.7
-29 7 13 56.79 3.5
29 -7 -13 55.69 3.6
29 7 -13 56.59 3.6
-29 -7 13 55.79 3.5
-29 7 12 26.7 2.2
29 -7 -12 33.5 2.6
29 7 -12 32.9 2.4
-29 -7 12 34.2 2.4
-29 7 11 39.6 2.6
29 -7 -11 37 2.8
29 7 -11 36.6 2.7
-29 -7 11 39.3 2.7
-29 7 10 2.1 0.7
29 -7 -10 1.3 0.8
29 7 -10 1.5 0.9
-29 -7 10 2.2 0.8
-29 7 9 22.2 1.9
29 7 -9 20.7 1.9
-29 -7 9 18.6 1.8
-29 7 8 14.6 1.5
29 -7 -8 15.5 1.7
29 7 -8 15.2 1.6
-29 -7 8 12.8 1.4
-29 7 7 6.1 1
29 -7 -7 7.3 1.2
29 7 -7 8.2 1.2
-29 -7 7 5.7 1.1
-29 7 6 0.6 0.7
29 -7 -6 0.7 0.8
29 7 -6 0.9 0.8
-29 -7 6 1.3 0.7
-29 7 5 1.4 0.7
29 -7 -5 1.4 1
29 7 -5 0.5 0.7
-29 -7 5 1.3 0.8
-29 7 4 17.8 1.7
29 -7 -4 19.4 1.8
29 7 -4 21.2 1.9
-29 -7 4 18.8 1.7
-29 7 3 30 2.3
29 -7 -3 37.7 2.6
-29 7 2 28.8 2.2
29 -7 -2 32 2.5
-29 7 1 71.79 4.3
29 -7 -1 77.09 4.5
-29 7 0 0.7 0.6
29 -7 0 0.2 0.7
-29 7 -1 21.9 1.9
29 -7 1 23.8 2.1
-29 7 -2 3.4 0.9
29 -7 2 3.6 0.9
-29 7 -3 0.1 0.6
29 -7 3 0.6 0.7
-29 9 26 13.7 1.5
29 -9 -26 16.5 1.6
-29 9 25 1.3 0.7
29 -9 -25 1.1 0.8
-29 9 24 2 0.8
29 -9 -24 1.8 0.8
-29 -9 24 1.3 0.6
29 9 -24 0.8 0.6
-29 9 23 27.9 2.1
29 -9 -23 27.2 2.2
29 9 -23 27.7 2.1
-29 -9 23 26.6 2.1
-29 9 22 1.5 0.6
29 -9 -22 1.3 0.6
-29 -9 22 1.1 0.7
29 9 -22 1.3 0.7
-29 9 21 1.9 0.7
29 -9 -21 1.1 0.7
29 9 -21 0.7 0.6
-29 9 20 6.1 1
29 -9 -20 9.2 1.2
-29 -9 20 7.3 1.1
29 9 -20 6.4 1
-29 9 19 54.99 3.3
29 -9 -19 52.09 3.4
29 9 -19 51.69 3.3
-29 -9 19 52.89 3.3
-29 9 18 0.7 0.6
29 -9 -18 1 0.6
-29 9 17 3.5 0.9
29 -9 -17 5.1 1.1
-29 -9 17 4.1 1
29 9 -17 4.4 0.9
-29 9 16 0.9 0.7
29 -9 -16 0.1 0.7
-29 -9 16 0.9 0.7
29 9 -16 0.7 0.7
-29 -9 15 5.1 0.9
29 9 -15 2.6 0.8
29 9 -14 32.5 2.4
-29 -9 14 35.8 2.5
29 9 -13 16.2 1.6
-29 -9 13 18.8 1.7
-29 -9 12 6.6 1.1
29 9 -12 8.8 1.2
29 9 -11 25 2.2
-29 -9 11 29.1 2.2
-29 -9 10 1.6 0.8
29 9 -10 -0.1 0.7
29 9 -9 16 1.6
-29 -9 9 15.6 1.6
29 9 -8 1.2 0.7
-29 9 2 4.3 0.9
29 -9 -2 6.4 1.1
-29 9 1 6.1 1
29 -9 -1 5.9 1.1
-29 9 0 1.3 0.6
29 -9 0 2.4 0.9
-29 9 -1 0.4 0.6
29 -9 1 -0.2 0.7
-30 0 41 -0.3 0.6
30 0 -41 0.7 0.7
-30 0 40 163.48 8
30 0 -40 145.39 8
-30 0 39 0.4 0.7
30 0 -39 0.5 0.7
-30 0 38 27.9 2.2
30 0 -38 29.2 2.3
-30 0 37 1 0.8
30 0 -37 -0.1 0.7
-30 0 35 -0.2 0.7
30 0 -35 -0.1 0.7
-30 0 34 178.48 9.9
30 0 -34 232.98 10.3
-30 0 33 0.1 0.6
30 0 -33 0.3 0.7
-30 0 32 567.64 26.7
30 0 -32 580.44 26.8
-30 0 31 0.7 0.8
30 0 -31 -0.1 0.8
-30 0 30 495.45 21.9
30 0 -30 433.16 21.9
-30 0 29 0.4 0.6
30 0 -29 0.7 0.7
-30 0 28 130.99 6.7
30 0 -28 124.39 6.8
-30 0 27 -0.2 0.7
30 0 -27 -0.7 0.9
-30 0 24 337.07 15.6
30 0 -24 313.27 15.7
-30 0 23 0.2 0.6
30 0 -23 -0.3 0.7
-30 0 22 270.77 13.3
30 0 -22 281.17 13.5
-30 0 21 0.1 0.6
30 0 -21 0.4 0.7
-30 0 20 179.78 8.8
30 0 -20 169.58 9
-30 0 19 -0.2 0.7
30 0 -19 0.1 0.7
-30 0 18 155.28 8.7
30 0 -18 198.58 9
-30 0 17 0.1 0.7
30 0 -17 -0.7 0.8
-30 0 16 807.82 38.4
30 0 -16 873.91 38.6
-30 0 15 0.2 0.7
30 0 -15 0.1 0.8
-30 0 14 1003.4 47
30 0 -14 1060.99 47.2
-30 0 13 1.2 0.7
30 0 -13 1.1 0.8
-30 0 12 233.38 11.4
-30 0 11 0.1 0.6
30 0 -11 -0.1 0.6
-30 0 10 102.89 5.9
30 0 -10 121.59 6.2
-30 0 9 0.2 0.6
30 0 -9 -0.4 0.7
-30 0 8 218.98 10.5
30 0 -8 207.88 10.7
-30 0 4 725.63 33.3
30 0 -4 721.83 33.5
-30 0 3 0.5 0.6
30 0 -3 0.1 0.7
-30 0 2 195.88 9.5
30 0 -2 184.18 9.6
-30 0 1 -0.2 0.6
30 0 -1 0.6 0.7
-30 0 0 134.99 6.9
30 0 0 133.49 7.1
-30 0 -1 0.2 0.6
30 0 1 0.4 0.6
-30 0 -2 529.05 25
30 0 2 553.84 25.3
-30 0 -3 0.4 0.6
30 0 3 -0.2 0.7
30 0 4 683.33 31.6
-30 -2 41 99.59 5.3
30 2 -41 89.49 5.3
-30 2 40 104.59 5.5
-30 -2 40 110.19 5.6
30 -2 -40 92.19 5.6
30 2 -40 94.29 5.5
-30 2 39 45.8 3
-30 -2 39 48.3 3.1
30 -2 -39 50.59 3.2
30 2 -39 41.4 3
-30 2 38 13.3 1.4
-30 -2 38 13.3 1.5
30 -2 -38 12.8 1.5
30 2 -38 11.9 1.4
30 2 -37 10.4 1.3
-30 2 37 13.3 1.4
-30 -2 37 9.9 1.3
30 -2 -37 11.5 1.4
-30 2 36 55.29 3.5
-30 -2 36 56.99 3.5
30 -2 -36 54.59 3.6
30 2 -36 63.19 3.7
30 2 -35 4.3 0.9
-30 -2 35 4.6 0.9
-30 2 34 27.2 2.1
30 -2 -34 27.8 2.2
-30 2 33 17.5 1.6
-30 -2 33 17.8 1.6
30 -2 -33 16 1.6
30 2 -33 13.5 1.5
-30 2 32 250.07 13.3
-30 -2 32 278.47 13.4
30 -2 -32 291.47 13.6
30 2 -32 289.67 13.5
30 2 -31 33.7 2.6
-30 2 31 36.5 2.6
-30 -2 31 39.7 2.6
30 -2 -31 38.7 2.7
30 2 -30 168.98 8.9
-30 2 30 169.48 8.9
-30 -2 30 186.78 9
30 -2 -30 180.48 9.1
30 2 -29 1.6 0.8
-30 2 29 2.1 0.7
-30 -2 29 1.2 0.8
30 -2 -29 3.1 1
30 2 -28 23.6 1.9
-30 2 28 19.2 1.8
-30 -2 28 18.2 1.7
30 -2 -28 22.2 2
30 2 -27 3.5 0.9
-30 2 27 3.6 0.9
-30 -2 27 4.2 0.9
30 -2 -27 3.1 0.9
-30 2 26 204.88 11
-30 -2 26 220.28 11
30 -2 -26 212.88 11.1
30 2 -25 0.6 0.7
-30 2 25 -0.4 0.7
-30 -2 25 -0.1 0.7
30 -2 -25 -0.5 0.8
30 2 -22 548.75 24.3
-30 2 22 487.65 24.1
-30 -2 22 511.85 24.2
30 -2 -22 531.95 24.4
30 2 -21 219.48 9.9
-30 2 21 173.08 9.7
-30 -2 21 213.38 9.8
30 -2 -21 179.78 9.8
30 2 -20 177.98 8.8
-30 2 20 178.98 8.7
-30 -2 20 163.98 8.6
30 -2 -20 163.68 8.8
30 2 -19 130.79 7.1
-30 2 19 145.79 7.2
-30 -2 19 132.59 7.1
30 -2 -19 140.29 7.3
30 2 -18 47.6 3.1
-30 2 18 47 3.1
-30 -2 18 42.9 3.1
30 -2 -18 46 3.2
30 2 -17 22.2 1.9
-30 2 17 22.9 1.9
-30 -2 17 23.5 1.9
30 -2 -17 23.4 2
30 2 -16 401.86 19.3
-30 2 16 378.26 19.1
-30 -2 16 423.56 19.2
30 -2 -16 427.76 19.4
30 2 -15 2.5 0.8
-30 2 15 0.8 0.7
-30 -2 15 0.4 0.6
30 -2 -15 1.6 0.9
30 2 -14 739.53 34.8
-30 2 14 719.13 34.7
30 -2 -14 826.22 35.1
30 2 -13 86.09 4.8
-30 2 13 83.59 4.7
-30 -2 13 86.19 4.8
30 -2 -13 81.09 4.8
-30 2 12 314.57 14.9
-30 -2 12 311.17 14.9
30 -2 -12 302.67 15
30 2 -12 312.27 15
-30 2 11 149.49 7.8
-30 -2 11 157.28 7.8
30 2 -11 150.38 7.9
-30 2 10 17.4 1.6
-30 -2 10 16.1 1.6
30 -2 -10 13 1.5
30 2 -10 14.1 1.6
-30 2 9 74.09 4.4
-30 -2 9 79.79 4.5
30 -2 -9 77.19 4.6
30 2 -9 86.49 4.6
-30 2 8 287.87 14.8
-30 -2 8 298.97 14.9
30 -2 -8 315.67 15.1
-30 2 7 27.9 2.2
-30 -2 7 30.1 2.2
30 -2 -7 34.9 2.5
30 2 -7 29.9 2.3
-30 2 6 566.94 28.3
30 -2 -6 681.73 28.7
-30 2 5 32.2 2.3
30 -2 -5 33.7 2.5
-30 2 4 336.77 16.1
-30 -2 4 348.27 16.1
30 -2 -4 335.07 16.3
30 2 -4 329.67 16.2
-30 2 3 59.49 3.6
-30 -2 3 61.89 3.6
30 -2 -3 61.19 3.8
30 2 -3 62.19 3.8
-30 2 2 37.5 2.7
-30 -2 2 38 2.7
30 -2 -2 42.3 2.8
30 2 -2 43.5 2.9
-30 2 1 48.2 3.2
-30 -2 1 52.09 3.3
30 -2 -1 58.19 3.5
30 2 -1 59.89 3.5
-30 2 0 13 1.4
-30 -2 0 10.3 1.2
30 -2 0 12.4 1.5
30 2 0 11.1 1.4
-30 -2 -1 11.2 1.2
30 -2 1 14.1 1.5
30 2 1 9.8 1.3
-30 -2 -2 399.46 19.8
30 2 2 460.45 20.2
30 4 -40 25 2
-30 -4 40 24 2
30 4 -39 46.1 3
-30 -4 39 45.1 3
30 4 -38 17.8 1.7
-30 4 38 15.9 1.6
-30 -4 38 14.8 1.6
30 -4 -38 15.2 1.6
30 4 -37 42 3.1
-30 4 37 51.49 3.2
-30 -4 37 51.59 3.2
30 -4 -37 51.99 3.3
-30 4 36 9.6 1.2
30 -4 -36 8.3 1.3
-30 4 35 20.9 1.9
-30 -4 35 21.7 1.9
30 -4 -35 21.2 1.9
30 4 -34 57.29 3.7
-30 4 34 61.59 3.7
-30 -4 34 65.09 3.8
30 -4 -34 56.99 3.7
30 4 -33 34.3 2.4
-30 4 33 29.9 2.3
-30 -4 33 31.8 2.4
30 -4 -33 31.8 2.5
-30 4 32 29.5 2.2
-30 -4 32 30.9 2.3
30 -4 -32 27.1 2.3
30 4 -31 121.39 7
-30 -4 31 145.59 7.1
30 4 -30 90.59 5.1
-30 -4 30 90.09 5.1
-30 4 29 53.39 3.4
30 -4 -29 61.49 3.7
30 4 -28 29.6 2.4
-30 -4 28 36.1 2.5
30 -4 -28 30.8 2.4
30 4 -27 18.9 1.7
-30 4 27 18.6 1.7
-30 -4 27 16.8 1.6
30 -4 -27 13 1.6
30 4 -26 29.9 2.3
-30 4 26 30.7 2.2
-30 -4 26 23.4 2.1
30 -4 -26 28.8 2.3
-30 4 25 3.8 0.9
30 4 -25 6.2 1.1
-30 -4 25 6.1 1
30 -4 -25 4.9 1
30 4 -24 157.08 8
-30 4 24 137.79 7.8
-30 -4 24 162.58 7.9
30 -4 -24 157.78 8
30 4 -23 149.79 7.7
-30 4 23 136.39 7.5
-30 -4 23 149.49 7.7
30 -4 -23 160.18 7.8
30 4 -22 177.08 8.3
-30 4 22 154.78 8
-30 -4 22 149.29 8
30 -4 -22 152.08 8.2
30 4 -21 184.48 9.7
-30 4 21 191.38 9.6
-30 -4 21 201.68 9.7
30 -4 -21 193.78 9.8
30 4 -20 38.5 2.7
-30 4 20 33.6 2.6
-30 -4 20 37.9 2.6
30 -4 -20 37.6 2.8
30 4 -19 70.69 4.2
-30 4 19 68.39 4
30 -4 -19 72.39 4.2
-30 -4 19 62.59 3.9
30 4 -18 15.6 1.7
-30 4 18 9.8 1.4
30 -4 -18 12.8 1.6
-30 -4 18 13.6 1.4
-30 4 17 3.2 0.8
30 -4 -17 3.2 0.9
-30 4 16 115.89 6.4
30 -4 -16 129.99 6.7
30 4 -15 14.1 1.4
-30 -4 15 10.8 1.3
30 4 -14 192.38 9.8
-30 -4 14 194.48 9.7
30 4 -13 171.98 9.1
-30 -4 13 186.98 9.1
30 4 -12 77.09 4.5
-30 -4 12 74.09 4.4
30 4 -11 177.18 8.6
-30 4 11 166.88 8.4
30 -4 -11 160.98 8.6
-30 -4 11 162.88 8.5
-30 4 10 5.8 1.1
30 4 -10 8.2 1.2
30 -4 -10 4.9 1.2
-30 -4 10 5.7 1.1
-30 4 9 3.7 0.8
30 4 -9 1.8 0.8
30 -4 -9 2 0.7
-30 -4 9 1.1 0.7
30 4 -8 19.1 1.7
-30 4 8 16.4 1.5
30 -4 -8 18.1 1.8
-30 -4 8 18.8 1.7
30 4 -7 88.49 4.9
-30 4 7 84.49 4.7
30 -4 -7 86.69 4.9
-30 -4 7 77.49 4.7
30 4 -6 195.58 9.7
-30 4 6 197.58 9.6
30 -4 -6 183.08 9.7
-30 -4 6 191.58 9.6
-30 4 5 2.2 0.8
30 4 -5 2.9 0.9
30 -4 -5 3.7 1
-30 -4 5 3.4 0.8
30 4 -4 189.28 9.5
-30 4 4 182.38 9.3
-30 -4 4 164.48 9.2
30 4 -3 2.9 0.8
-30 4 3 2.2 0.7
30 -4 -3 1.7 0.8
-30 -4 3 2.2 0.8
30 4 -2 44.4 3.1
-30 4 2 52.49 3.2
30 -4 -2 50.99 3.3
-30 -4 2 45 3
30 4 -1 101.79 5.4
-30 4 1 86.89 5.2
30 -4 -1 97.69 5.5
-30 -4 1 101.89 5.3
30 4 0 35.9 2.6
-30 4 0 34.9 2.5
30 -4 0 37.4 2.7
-30 -4 0 36.5 2.5
-30 4 -1 56.19 3.5
30 -4 1 58.39 3.7
-30 4 -2 46.2 3
30 -4 2 43.9 3.1
-30 4 -3 2.2 0.8
30 -4 3 3.7 1
-30 4 -4 137.49 7.5
30 -4 4 154.48 7.8
30 6 -38 2.5 0.8
-30 -6 38 1.4 0.8
30 6 -37 7.6 1.1
-30 -6 37 10.5 1.2
-30 6 36 2.3 0.8
30 6 -36 2.3 0.7
30 -6 -36 3.1 0.8
-30 -6 36 2.4 0.8
-30 6 35 1 0.7
30 -6 -35 1.5 0.8
-30 6 34 3 0.8
30 6 -34 3.7 0.9
30 -6 -34 3.1 0.8
-30 -6 34 3.9 0.8
-30 6 33 88.29 5
30 6 -33 96.19 5.1
30 -6 -33 85.29 5.1
-30 -6 33 90.29 5
30 6 -32 12.9 1.4
30 -6 -32 13.3 1.5
-30 -6 32 13.3 1.5
30 6 -31 95.59 5.6
-30 -6 31 112.99 5.8
-30 6 30 7.3 1.1
30 6 -30 4.7 1
30 -6 -30 6.4 1.1
-30 -6 30 8.8 1.2
-30 6 29 37.4 2.5
30 -6 -29 28.9 2.4
-30 6 28 5.7 1
30 -6 -28 5.4 1
30 6 -28 5.1 1
-30 -6 28 6.8 1.1
-30 6 27 0.4 0.6
30 -6 -27 0.5 0.7
30 6 -27 0.9 0.6
-30 -6 27 1.4 0.6
30 -6 -26 6.4 1.1
30 6 -26 7.3 1.1
-30 -6 26 8.8 1.2
-30 6 25 7.9 1.1
30 -6 -25 10.6 1.3
30 6 -25 8.4 1.2
-30 -6 25 7.9 1.2
-30 6 24 5.3 1.1
30 -6 -24 4.5 1.1
30 6 -24 4.3 0.9
-30 -6 24 3.9 0.8
-30 6 23 61.49 3.6
30 6 -23 59.29 3.7
30 -6 -23 55.89 3.6
-30 -6 23 57.19 3.6
-30 6 22 66.59 3.9
30 6 -22 67.29 4
30 -6 -22 68.59 4.1
-30 -6 22 63.99 4
-30 6 21 112.89 6.3
30 6 -21 119.49 6.4
30 -6 -21 116.79 6.4
-30 -6 21 125.39 6.4
-30 6 20 23.1 2
30 -6 -20 23.6 2.1
30 6 -18 4.6 1
30 6 -17 1.1 0.7
-30 -6 17 1.6 0.7
-30 6 16 1 0.7
30 -6 -16 1.3 0.7
30 6 -16 0.6 0.6
-30 -6 16 0.5 0.6
-30 6 15 1.1 0.7
30 -6 -15 1.6 0.8
30 6 -15 1.3 0.7
-30 -6 15 1 0.7
-30 6 14 49.4 3.2
30 -6 -14 50.79 3.3
30 6 -14 47.1 3.2
-30 -6 14 50.59 3.2
-30 6 13 89.69 5.2
30 -6 -13 101.49 5.4
30 6 -13 93.99 5.3
-30 -6 13 93.79 5.3
-30 6 12 25.6 2
30 -6 -12 23.4 2.1
30 6 -12 24.6 2.1
-30 -6 12 25.7 2.1
-30 6 11 53.49 3.3
30 -6 -11 56.39 3.5
30 6 -11 50.69 3.4
-30 -6 11 49.6 3.3
-30 6 10 0.9 0.7
30 6 -10 2.4 0.9
-30 -6 10 1.4 0.8
-30 6 9 21.7 1.9
30 -6 -9 25.8 2.1
30 6 -9 24.2 2.1
-30 -6 9 25.4 2
-30 6 8 9.3 1.1
30 -6 -8 9.2 1.3
30 6 -8 9.9 1.3
-30 -6 8 8.8 1.2
-30 6 7 0.8 0.5
30 -6 -7 1.5 0.7
30 6 -7 1.7 0.8
-30 -6 7 1.2 0.7
-30 6 6 10.1 1.2
30 6 -6 12.4 1.5
30 -6 -6 8.7 1.3
-30 -6 6 12 1.4
-30 6 5 69.59 4
30 -6 -5 65.99 4.2
-30 6 4 30.8 2.3
30 -6 -4 33.3 2.5
-30 6 3 71.09 4.1
30 -6 -3 67.29 4.3
30 6 -3 67.69 4.2
-30 -6 3 75.09 4.2
-30 6 2 52.69 3.4
30 -6 -2 54.49 3.6
-30 6 1 25.7 2
30 -6 -1 24.2 2.1
-30 6 0 0.5 0.7
30 -6 0 0.7 0.8
-30 6 -1 11.6 1.3
30 -6 1 11.1 1.5
-30 6 -2 37.1 2.5
30 -6 2 34.4 2.7
-30 6 -3 11.5 1.4
30 -6 3 18.1 1.8
-30 8 32 1.2 0.7
30 -8 -32 0.2 0.6
-30 8 31 30.3 2.2
30 -8 -31 26.3 2.2
-30 8 30 1.4 0.7
30 -8 -30 1.7 0.8
-30 8 29 14.9 1.5
30 -8 -29 14.5 1.6
30 8 -29 14.2 1.5
-30 -8 29 16.1 1.5
-30 8 28 1.6 0.8
30 -8 -28 1.7 0.8
30 8 -28 1.3 0.6
-30 -8 28 0.7 0.6
-30 8 27 1.4 0.7
30 -8 -27 -0.1 0.7
30 8 -27 0.1 0.7
-30 -8 27 0.3 0.7
30 8 -26 14.8 1.5
-30 -8 26 13.1 1.4
-30 8 25 56.59 3.5
30 -8 -25 61.79 3.7
-30 8 24 5.5 0.9
30 -8 -24 5.2 1
30 8 -24 5.7 1
-30 -8 24 3.5 0.9
-30 8 23 15.5 1.5
30 -8 -23 16.2 1.6
30 8 -23 15.1 1.6
-30 -8 23 14.3 1.5
-30 8 22 7.5 1.1
30 -8 -22 8 1.2
30 8 -22 5.9 1
-30 -8 22 7.2 1
-30 8 21 30 2.2
30 -8 -21 28.6 2.3
30 8 -21 33.1 2.4
-30 -8 21 29.3 2.2
-30 8 20 0.5 0.7
30 -8 -20 0.5 0.8
-30 -8 20 0.8 0.8
30 8 -20 1.2 0.8
-30 8 19 6.4 1
30 -8 -19 7.8 1.2
-30 -8 19 6.8 1.1
30 8 -19 6.1 1.1
-30 8 18 6.4 1
30 -8 -18 4.1 1
-30 -8 18 4.6 1
30 8 -18 5.6 1.1
-30 8 17 0.3 0.5
30 -8 -17 0.3 0.6
-30 -8 17 0.1 0.7
30 8 -17 -0.2 0.7
-30 8 16 14.8 1.5
30 -8 -16 16.6 1.7
-30 8 15 4.8 0.9
30 -8 -15 5.8 1
-30 -8 15 5.5 1
30 8 -15 3.4 0.9
-30 8 14 5 0.9
30 -8 -14 3.3 0.9
-30 -8 14 4.7 0.9
30 8 -14 6.3 1.1
-30 8 13 68.39 4
30 -8 -13 70.69 4.2
30 8 -13 71.19 4.2
-30 -8 13 64.89 4.1
-30 8 12 37.6 2.5
30 -8 -12 35.9 2.6
30 8 -12 38 2.7
-30 -8 12 30.5 2.5
-30 8 11 46.9 3.1
30 -8 -11 48.7 3.3
30 8 -11 53.29 3.3
-30 -8 11 51.89 3.3
-30 8 10 18.4 1.6
30 8 -10 17.5 1.7
-30 -8 10 17.9 1.7
-30 8 9 2.6 0.8
30 -8 -9 2.7 1
30 8 -9 3.7 1
-30 -8 9 2.2 0.8
-30 8 8 8 1.2
30 -8 -8 7.3 1.3
30 8 -8 10.1 1.4
-30 -8 8 10.2 1.3
-30 8 7 7.2 1
30 -8 -7 6.3 1.1
30 8 -7 7 1.2
-30 -8 7 7.5 1.1
-30 8 6 3.8 0.9
30 -8 -6 4.1 1
-30 8 5 18.3 1.6
30 -8 -5 17.2 1.7
-30 8 4 0.5 0.6
30 -8 -4 1.3 0.8
-30 8 3 18.9 1.7
30 -8 -3 21.9 2
-30 8 2 0.2 0.6
30 -8 -2 0.1 0.8
-30 8 1 6.7 1
30 -8 -1 7.5 1.3
-30 8 0 1 0.7
30 -8 0 -0.1 0.8
-30 8 -1 11 1.3
30 -8 1 9.1 1.3
-31 -1 42 121.39 6.6
31 1 -42 128.69 6.7
-31 1 40 44.6 2.9
-31 -1 40 43.5 2.9
31 -1 -40 44.8 3
31 1 -40 42.7 3
-31 1 39 1.9 0.8
-31 -1 39 1.4 0.8
31 -1 -39 1.8 0.8
31 1 -39 0.1 0.7
-31 1 38 1.1 0.7
-31 -1 38 1.1 0.6
31 -1 -38 0.7 0.6
31 1 -38 1.9 0.8
-31 1 37 1.4 0.7
-31 -1 37 0.9 0.7
31 -1 -37 0.8 0.8
31 1 -37 0.8 0.6
-31 1 36 100.29 5.5
-31 -1 36 96.29 5.4
31 -1 -36 100.19 5.6
31 1 -36 100.59 5.6
-31 1 35 6.1 1.1
-31 -1 35 5.8 1
31 1 -35 7.9 1.1
31 1 -33 1.8 0.7
-31 1 33 1.2 0.8
-31 -1 33 1.2 0.7
31 -1 -33 0.9 0.8
-31 1 32 302.37 14.5
-31 -1 32 292.97 14.4
31 -1 -32 306.67 14.6
31 1 -32 298.37 14.5
-31 1 31 9.6 1.2
-31 -1 31 9.4 1.2
31 -1 -31 9.8 1.3
31 1 -31 10.6 1.3
31 1 -30 7.1 1.1
-31 1 30 7 1
-31 -1 30 5.4 1
31 -1 -30 6.5 1.1
31 1 -29 1.3 0.8
-31 1 29 1.2 0.8
-31 -1 29 0.1 0.7
31 -1 -29 0.3 0.7
-31 1 28 207.78 10.8
-31 -1 28 230.28 10.9
31 -1 -28 217.58 11
31 1 -28 221.38 10.9
31 1 -27 0.7 0.7
-31 1 27 1.5 0.8
-31 -1 27 1 0.7
31 -1 -27 0.9 0.8
-31 1 26 268.47 13.9
-31 -1 26 277.77 13.9
31 -1 -26 299.87 14.1
31 1 -26 317.47 14.2
-31 1 25 15.6 1.5
-31 -1 25 13.3 1.4
31 -1 -25 15.7 1.6
31 1 -25 15.1 1.6
-31 1 24 192.58 9.4
-31 -1 24 167.98 9.3
31 1 -24 182.38 9.5
-31 1 22 261.57 12.4
-31 -1 22 242.48 12.3
31 -1 -22 254.57 12.6
31 1 -22 257.47 12.5
-31 1 21 28.2 2.2
-31 -1 21 33.8 2.3
31 -1 -21 32.4 2.4
31 1 -21 25.8 2.2
-31 1 20 14.3 1.5
-31 -1 20 15.8 1.5
31 -1 -20 15.2 1.6
31 1 -20 17.3 1.6
-31 1 19 83.19 4.5
-31 -1 19 76.69 4.4
31 -1 -19 83.09 4.7
31 1 -19 67.29 4.4
-31 1 18 123.49 6.5
-31 -1 18 117.99 6.5
31 -1 -18 119.59 6.6
31 1 -18 132.29 6.7
31 1 -17 4 1
-31 1 17 1.3 0.6
-31 -1 17 2.2 0.8
31 -1 -17 2.8 0.9
-31 1 16 567.04 28.4
-31 -1 16 652.83 28.6
31 -1 -16 646.04 28.8
31 1 -16 608.24 28.6
-31 1 15 19.1 1.6
-31 -1 15 15.3 1.6
31 -1 -15 15.3 1.7
31 1 -15 15.6 1.7
-31 1 14 570.84 25.8
31 -1 -14 530.75 25.9
31 1 -14 559.14 25.9
-31 -1 13 32.5 2.4
31 1 -13 31.9 2.5
-31 1 12 208.58 10.2
-31 -1 12 202.58 10.2
31 -1 -12 213.08 10.5
31 1 -12 204.68 10.3
-31 1 11 55.49 3.4
-31 -1 11 54.89 3.4
31 -1 -11 55.39 3.6
31 1 -11 54.29 3.5
-31 1 10 15.2 1.4
-31 -1 10 14.6 1.4
31 -1 -10 13.6 1.5
31 1 -10 16.1 1.6
-31 1 9 55.49 3.4
-31 -1 9 55.19 3.4
31 -1 -9 58.89 3.6
31 1 -9 52.39 3.5
-31 1 8 338.27 17.5
-31 -1 8 377.06 17.6
31 -1 -8 378.36 17.8
31 1 -8 403.36 17.9
-31 1 7 7.6 1.1
-31 -1 7 10.1 1.3
31 -1 -7 9.3 1.3
31 1 -7 6.8 1.2
-31 1 6 694.83 31.9
-31 -1 6 692.33 31.9
31 -1 -6 759.82 32.2
31 1 -6 633.74 32
-31 1 5 10.7 1.2
-31 -1 5 10.3 1.2
31 -1 -5 8.4 1.2
31 1 -5 7.2 1.1
-31 1 4 380.16 18.1
31 -1 -4 388.76 18.4
-31 1 3 2.4 0.7
31 -1 -3 2.2 0.8
-31 1 2 1.4 0.6
-31 -1 2 0.7 0.6
31 -1 -2 1.3 0.7
31 1 -2 1.6 0.8
-31 -1 1 30.3 2.2
31 1 -1 30.4 2.4
-31 -1 0 220.38 10.9
31 1 0 224.48 11.1
-31 -1 -1 0.3 0.6
31 1 1 0.3 0.7
-31 1 -2 634.04 30.2
-31 -1 -2 679.53 30.2
31 -1 2 658.83 30.4
31 1 2 646.64 30.4
-31 1 -3 2.7 0.7
31 -1 3 2.5 0.8
-31 -3 42 54.69 3.3
31 3 -42 45.4 3.2
-31 -3 41 66.69 4.2
31 3 -41 78.89 4.3
-31 -3 40 31.4 2.3
31 3 -40 31.1 2.4
-31 3 39 54.09 3.5
-31 -3 39 58.19 3.5
31 -3 -39 59.69 3.7
31 3 -39 54.89 3.5
31 3 -38 4.6 0.9
-31 3 38 5.1 1
-31 -3 38 4.3 0.9
31 -3 -38 6.7 1.1
31 3 -37 29.2 2.2
-31 3 37 28.6 2.2
-31 -3 37 30 2.3
31 -3 -37 28 2.3
31 3 -36 60.19 3.7
-31 3 36 58.69 3.6
-31 -3 36 62.69 3.7
31 -3 -36 54.79 3.7
31 3 -35 52.29 3.4
-31 3 35 52.69 3.4
-31 -3 35 62.69 3.6
31 -3 -35 54.99 3.5
31 3 -34 105.09 5.4
-31 3 34 93.99 5.3
-31 -3 34 99.69 5.3
31 3 -33 23.3 1.9
-31 3 33 20.1 1.8
-31 -3 33 24.2 1.9
31 -3 -33 21.9 1.9
31 3 -32 66.49 4
-31 -3 32 64.39 3.9
31 3 -31 95.09 5.2
-31 3 31 93.89 5.1
-31 -3 31 87.39 5.1
31 -3 -31 89.99 5.2
-31 3 30 42.1 2.7
31 -3 -30 35.9 2.8
31 3 -29 24.3 2
-31 3 29 21.9 1.9
-31 -3 29 21 1.9
31 3 -28 19.1 1.7
-31 3 28 16.1 1.6
-31 -3 28 18.5 1.7
31 -3 -28 16.7 1.7
31 3 -27 6.5 1.1
-31 3 27 3.9 0.9
-31 -3 27 7.4 1.1
31 -3 -27 5.4 1.1
31 3 -26 137.59 6.8
-31 3 26 114.89 6.5
-31 -3 26 127.09 6.7
31 -3 -26 123.59 6.7
31 3 -25 16.2 1.6
-31 3 25 20.7 1.8
-31 -3 25 18.5 1.7
31 -3 -25 19.3 1.8
31 3 -24 193.28 9.3
-31 3 24 198.38 9.3
-31 -3 24 188.38 9.2
31 3 -23 106.79 5.9
-31 3 23 103.19 5.8
-31 -3 23 113.79 5.9
31 -3 -23 112.69 6
31 3 -22 190.78 9.6
-31 3 22 182.48 9.5
-31 -3 22 178.28 9.5
31 3 -21 131.99 6.9
-31 3 21 125.39 6.8
-31 -3 21 125.89 6.8
31 -3 -21 134.49 7
31 3 -20 0.2 0.7
-31 3 20 1 0.7
-31 -3 20 0.2 0.8
31 -3 -20 -0.2 0.8
-31 3 19 42.4 2.8
31 -3 -19 42.3 3
31 3 -17 6.7 1
-31 -3 17 5 0.9
31 3 -16 394.16 18.8
-31 -3 16 395.26 18.7
31 3 -15 6.8 1.2
-31 3 15 6.8 1.1
-31 -3 15 8.8 1.2
31 -3 -15 7.2 1.2
31 3 -14 355.86 17.6
-31 3 14 375.16 17.5
-31 -3 14 365.66 17.5
31 -3 -14 381.46 17.8
31 3 -13 90.39 5.1
-31 3 13 96.69 5
-31 -3 13 84.69 5
31 -3 -13 85.79 5.1
31 3 -12 16.2 1.6
-31 -3 12 16.4 1.6
31 -3 -12 14.9 1.6
31 3 -11 147.89 7.9
-31 3 11 149.99 7.8
-31 -3 11 153.18 7.8
31 -3 -11 156.88 8
31 3 -10 153.78 8.3
-31 3 10 166.28 8.3
-31 -3 10 159.08 8.3
31 -3 -10 172.48 8.5
31 3 -9 36.3 2.6
-31 3 9 35.7 2.5
-31 -3 9 33 2.4
31 -3 -9 37.2 2.6
31 3 -8 460.45 22.1
-31 3 8 487.35 22
-31 -3 8 447.06 21.9
31 -3 -8 479.75 22.1
31 3 -7 36.3 2.6
-31 3 7 39.3 2.6
-31 -3 7 33.1 2.5
31 -3 -7 40.4 2.8
-31 3 6 225.58 11.1
-31 -3 6 228.78 11.1
31 -3 -6 211.78 11.2
31 3 -6 234.58 11.2
-31 3 5 57.39 3.7
-31 -3 5 64.69 3.8
31 -3 -5 58.19 3.9
31 3 -5 70.09 4
-31 3 4 29.9 2.2
-31 -3 4 30.1 2.2
31 -3 -4 29.6 2.4
31 3 -4 33.1 2.4
-31 3 3 42.1 2.8
-31 -3 3 44.2 2.9
31 -3 -3 43.6 3
31 3 -3 43.5 3
-31 3 2 42.9 2.9
31 -3 -2 44.3 3.1
-31 -3 2 43 2.9
31 3 -2 49.1 3.1
-31 3 1 92.19 5.2
31 -3 -1 96.99 5.4
-31 3 0 4.3 0.9
31 -3 0 4.5 1
-31 3 -1 25.2 2
31 -3 1 28.9 2.3
-31 3 -2 201.78 10.5
31 -3 2 229.88 10.9
-31 3 -3 27.9 2.2
31 -3 3 30.5 2.4
31 5 -40 1.6 0.6
-31 -5 40 1.9 0.7
31 5 -39 18.3 1.7
31 5 -38 1.6 0.8
-31 -5 38 2.8 0.9
-31 5 37 0.6 0.6
31 5 -37 1.1 0.7
31 -5 -37 2.5 0.8
-31 -5 37 1.1 0.7
-31 5 36 0.7 0.7
31 5 -36 0.5 0.6
31 -5 -36 -0.2 0.7
-31 -5 36 0.6 0.6
31 5 -35 49.9 3.2
-31 5 35 48.5 3.1
31 -5 -35 51.89 3.3
-31 -5 35 45.3 3.1
31 5 -34 78.19 4.6
-31 -5 34 81.09 4.6
31 5 -33 91.09 5.4
-31 5 33 106.39 5.5
31 -5 -33 98.79 5.5
-31 5 32 32 2.3
31 -5 -32 28.1 2.3
31 5 -31 88.89 5
-31 5 31 83.99 4.9
31 -5 -31 82.79 5
-31 -5 31 96.39 5
-31 5 30 0.5 0.6
31 5 -30 0.7 0.7
31 -5 -30 0.7 0.6
-31 -5 30 1 0.7
31 5 -29 38.7 2.7
31 -5 -29 32.8 2.7
-31 -5 29 39.6 2.7
-31 5 28 13.1 1.3
31 5 -28 10.5 1.4
31 -5 -28 10.2 1.3
-31 -5 28 13.3 1.4
-31 5 27 15.2 1.5
31 5 -27 16.9 1.7
31 -5 -27 16.4 1.6
-31 -5 27 18 1.7
-31 5 26 10.9 1.2
31 5 -26 11.9 1.3
-31 -5 26 10.5 1.3
31 -5 -26 7.8 1.1
-31 5 25 27.6 2.2
31 5 -25 32.7 2.3
31 -5 -25 28.9 2.3
-31 -5 25 30.4 2.3
-31 5 22 89.79 5.1
31 5 -22 99.09 5.3
31 -5 -22 94.19 5.3
-31 -5 22 87.79 5.1
-31 5 21 198.48 10.5
31 5 -21 220.08 10.7
31 -5 -21 213.98 10.7
-31 -5 21 222.28 10.6
-31 5 20 13 1.4
31 5 -20 13.5 1.5
31 -5 -20 14.4 1.6
-31 -5 20 15.9 1.5
-31 5 19 3.5 0.9
31 5 -19 4.4 0.9
31 -5 -19 4 1.1
-31 -5 19 3.8 0.8
-31 5 18 13.2 1.4
31 5 -18 13.5 1.5
31 -5 -18 17 1.6
-31 -5 18 13.1 1.4
-31 5 17 19.2 1.7
31 5 -17 19.4 1.8
31 -5 -17 18.7 1.8
-31 -5 17 18.8 1.7
-31 5 16 97.49 5.5
31 5 -16 105.79 5.7
31 -5 -16 96.49 5.7
-31 -5 16 112.19 5.7
-31 5 15 70.49 4.2
31 5 -15 71.79 4.3
31 -5 -15 67.19 4.3
-31 -5 15 75.59 4.3
-31 5 14 59.49 3.7
31 5 -14 65.59 4
31 -5 -14 59.99 3.9
-31 -5 14 68.39 3.9
-31 5 13 68.19 4.1
31 5 -13 74.49 4.3
31 -5 -13 66.29 4.3
-31 -5 13 81.29 4.4
-31 5 12 5 1
31 5 -12 4.4 1
31 -5 -12 7 1.2
-31 -5 12 6.8 1
-31 5 11 64.29 3.7
31 5 -11 58.29 3.8
-31 -5 11 62.69 3.8
-31 5 10 6.7 1.1
31 -5 -10 6.8 1.3
-31 5 9 0.3 0.6
31 -5 -9 -0.2 0.9
-31 5 8 0.8 0.7
31 -5 -8 1.7 0.9
-31 -5 8 1.5 0.7
-31 5 7 62.99 3.8
31 5 -7 60.39 3.9
31 -5 -7 57.69 3.9
-31 -5 7 65.39 3.8
-31 5 6 167.68 8.8
31 5 -6 189.38 9.1
31 -5 -6 178.48 9.1
-31 -5 6 165.78 8.8
-31 5 5 103.19 5.6
31 5 -5 105.19 5.8
31 -5 -5 111.49 5.9
-31 -5 5 96.99 5.6
31 5 -4 62.29 3.7
-31 5 4 57.09 3.5
31 -5 -4 62.59 3.8
-31 -5 4 52.39 3.5
31 5 -3 49.3 3.2
-31 5 3 50.99 3.1
31 -5 -3 44.6 3.2
-31 -5 3 40.7 2.9
-31 5 2 0.7 0.7
31 5 -2 0.2 0.7
31 -5 -2 0.4 0.8
-31 5 1 8.6 1.2
31 -5 -1 10.3 1.4
-31 5 0 16.2 1.6
31 -5 0 16.5 1.7
-31 5 -1 2.8 0.8
31 -5 1 3.6 1
-31 5 -2 103.29 5.6
31 -5 2 99.19 5.7
-31 7 35 20.9 1.8
-31 7 34 13.2 1.4
31 -7 -34 13.9 1.6
-31 7 33 54.89 3.5
31 -7 -33 58.99 3.6
-31 -7 33 56.29 3.5
31 7 -32 25.3 2
-31 -7 32 26.6 2.1
31 7 -31 50.89 3.4
31 -7 -31 56.29 3.5
-31 -7 31 57.69 3.4
-31 7 30 22 1.8
31 -7 -30 23.7 1.9
31 7 -30 19.3 1.8
-31 -7 30 24.5 1.9
-31 7 29 10.8 1.3
31 -7 -29 10.8 1.3
-31 7 28 10.6 1.2
31 -7 -28 12.4 1.4
31 7 -28 10.7 1.3
-31 -7 28 11.9 1.3
-31 7 27 1.3 0.6
31 -7 -27 3.2 0.9
31 7 -27 1.4 0.7
-31 -7 27 1.3 0.7
-31 7 26 1.9 0.7
31 -7 -26 1.4 0.7
31 7 -26 2.3 0.9
-31 -7 26 2.8 0.9
-31 7 25 108.39 5.9
31 7 -25 118.69 6
-31 -7 25 103.49 5.9
-31 7 24 6.8 1.1
31 -7 -24 8.1 1.2
31 7 -24 6.6 1.1
-31 -7 24 8.2 1.1
-31 7 23 49.99 3.1
31 -7 -23 46.6 3.2
31 7 -23 51.09 3.2
-31 -7 23 44.3 3.1
31 7 -21 48.4 3.2
-31 -7 21 49.6 3.2
-31 7 20 1.8 0.6
31 -7 -20 0.9 0.7
-31 7 19 1.6 0.8
31 -7 -19 0.1 0.8
31 7 -19 2 0.8
-31 -7 19 1.4 0.7
-31 7 18 -0.2 0.6
31 -7 -18 0.1 0.6
31 7 -18 0.8 0.6
-31 -7 18 0.2 0.6
-31 7 17 3.9 0.9
31 -7 -17 5.3 1.1
31 7 -17 5 1
-31 -7 17 4.3 0.9
-31 7 16 2.4 0.7
31 -7 -16 1.8 0.8
31 7 -16 3.6 0.9
-31 -7 16 4.9 1
-31 7 15 39.6 2.7
31 -7 -15 38.3 2.8
31 7 -15 40.9 2.8
-31 -7 15 37.7 2.7
-31 7 14 28.3 2.2
31 -7 -14 31.3 2.4
31 7 -14 34.2 2.4
-31 -7 14 27.7 2.2
-31 7 13 160.08 8.2
31 -7 -13 165.18 8.4
31 7 -13 152.58 8.2
-31 -7 13 161.38 8.2
-31 7 12 10.5 1.3
31 -7 -12 10.2 1.4
31 7 -12 11.8 1.4
-31 -7 12 11.7 1.4
31 7 -11 39.7 2.9
-31 -7 11 42.6 2.9
-31 7 10 8.4 1.1
31 -7 -10 5.6 1.1
-31 7 9 0.8 0.8
31 -7 -9 1.2 0.8
-31 7 8 5.8 1.1
31 -7 -8 5.5 1.2
31 7 -8 5.7 1.1
-31 -7 8 6.1 1
-31 7 7 69.49 4
31 -7 -7 60.29 4
31 7 -7 60.99 4
-31 -7 7 69.19 4
-31 7 6 24.2 2
31 -7 -6 27.5 2.2
31 7 -6 26 2.2
-31 -7 6 23 2
-31 7 5 88.79 5
31 -7 -5 87.79 5.1
-31 7 4 28.5 2.2
31 -7 -4 28.7 2.3
-31 7 3 25.7 2.1
31 -7 -3 29 2.3
-31 7 2 6.5 1.1
31 -7 -2 7.8 1.2
-31 7 1 0.1 0.6
31 -7 -1 0.4 0.7
-31 7 0 0.1 0.6
31 -7 0 0.1 0.7
-31 7 -1 5.5 1
31 -7 1 5.8 1.2
31 9 -21 16.4 1.6
-31 -9 21 16.2 1.6
-31 9 20 9.8 1.2
31 -9 -20 11.4 1.3
-31 -9 20 9.2 1.2
31 9 -20 9.5 1.2
-31 9 19 0.9 0.7
31 -9 -19 2.5 0.9
-31 -9 19 0.8 0.7
31 9 -19 2.3 0.8
-31 9 18 10.5 1.2
31 -9 -18 8.3 1.2
-31 -9 18 9 1.2
31 9 -18 8.5 1.2
-31 9 17 0.6 0.5
31 -9 -17 0.3 0.5
-31 -9 17 0.7 0.7
31 9 -17 0.3 0.8
-31 9 16 3 0.8
31 -9 -16 3.7 0.9
-31 -9 16 1.9 0.7
31 9 -16 2.5 0.9
-31 9 15 14.1 1.4
31 -9 -15 16.2 1.6
31 9 -15 17.3 1.6
-31 -9 15 15.1 1.5
-31 9 14 0.6 0.7
31 -9 -14 0.7 0.8
-31 9 13 28.9 2.2
31 -9 -13 33.2 2.4
31 9 -13 31.4 2.4
-31 -9 13 33.2 2.4
-31 9 12 0.3 0.6
31 -9 -12 1.8 0.9
-31 -9 12 0.6 0.7
31 9 -12 -0.2 0.8
-31 9 11 9 1.1
31 9 -11 7.1 1.2
-31 -9 11 6.3 1
-31 9 10 4.3 0.9
31 -9 -10 5.7 1
31 -9 -9 0.8 0.8
-31 9 8 14.3 1.4
31 -9 -8 18.5 1.7
-31 9 7 6 0.9
31 -9 -7 5.9 1.1
-31 9 6 5.1 0.9
31 -9 -6 6 1
-31 9 5 4.9 0.9
31 -9 -5 4.3 1
-31 9 4 3.8 0.8
31 -9 -4 3.9 1
-31 9 3 4.5 0.9
31 -9 -3 3.7 1
-31 9 2 0.4 0.6
31 -9 -2 -0.1 0.8
31 -9 -1 0.5 0.7
-32 0 42 71.19 3.7
32 0 -42 44.1 3.4
-32 0 41 0.1 0.7
32 0 -41 -0.6 0.8
-32 0 39 -0.1 0.6
32 0 -39 0.1 0.7
-32 0 38 28.6 2.3
32 0 -38 32.2 2.4
-32 0 37 -0.2 0.6
32 0 -37 -0.1 0.6
-32 0 36 123.19 6.2
32 0 -36 106.39 6.2
-32 0 35 -0.2 0.5
32 0 -35 0.1 0.6
-32 0 34 340.27 15.7
32 0 -34 310.77 15.7
-32 0 32 111.99 6.1
32 0 -32 117.89 6.3
-32 0 31 0.8 0.8
32 0 -31 0.7 0.8
-32 0 30 79.69 4.6
32 0 -30 80.19 4.7
-32 0 29 0.1 0.6
32 0 -29 0.6 0.6
-32 0 28 113.69 6.3
32 0 -28 122.59 6.4
-32 0 27 -0.2 0.7
32 0 -27 -0.1 0.7
-32 0 26 72.69 4.8
32 0 -26 116.79 5.4
-32 0 25 -0.1 0.7
32 0 -25 0.1 0.8
-32 0 24 498.95 24.6
32 0 -24 568.84 24.9
-32 0 23 0.3 0.7
32 0 -23 -0.5 0.8
-32 0 20 22.3 2
32 0 -20 22.3 2.2
-32 0 19 -0.2 0.6
32 0 -19 -0.5 0.8
-32 0 18 261.47 12
32 0 -18 226.58 12
-32 0 17 1 0.6
32 0 -17 0.3 0.7
-32 0 16 607.94 29.4
32 0 -16 670.93 29.6
-32 0 15 0.2 0.6
32 0 -15 -0.3 0.7
-32 0 14 248.88 12.1
-32 0 13 -0.3 0.7
32 0 -13 0.3 0.8
-32 0 12 287.47 14.6
32 0 -12 329.67 14.9
-32 0 11 0.2 0.6
32 0 -11 0.1 0.7
-32 0 10 799.62 35.7
32 0 -10 746.83 35.8
-32 0 9 -0.2 0.6
32 0 -9 -0.1 0.8
-32 0 8 422.96 20.5
32 0 -8 454.15 20.8
-32 0 7 0.2 0.6
32 0 -7 1.1 0.8
-32 0 6 838.82 39.1
32 0 -6 871.91 39.4
-32 0 5 0.1 0.6
32 0 -5 0.4 0.8
-32 0 4 247.08 11.8
32 0 -4 234.88 12
-32 0 3 -0.7 0.6
32 0 -3 -0.5 0.7
-32 0 2 80.19 4.5
32 0 -2 80.89 4.7
-32 -2 42 82.89 4.5
32 2 -42 73.49 4.5
-32 -2 41 26.4 2.1
32 2 -41 29.3 2.2
-32 2 40 51.99 3.4
-32 -2 40 55.79 3.4
32 -2 -40 55.29 3.6
32 2 -40 56.79 3.5
-32 2 39 18.6 1.7
-32 -2 39 19.3 1.7
32 -2 -39 18.7 1.8
32 2 -39 19.6 1.8
-32 2 38 30.7 2.3
32 -2 -38 27.4 2.3
32 2 -37 1.4 0.8
-32 2 37 0.1 0.7
-32 -2 37 0.2 0.7
32 -2 -37 1 0.8
-32 2 36 129.09 6.9
-32 -2 36 123.69 6.8
32 -2 -36 138.99 7.1
32 2 -36 134.89 7
-32 2 35 12.7 1.4
-32 -2 35 14.7 1.5
32 -2 -35 17.2 1.6
32 2 -35 10.5 1.4
-32 2 34 163.48 8.1
-32 -2 34 148.09 8
32 -2 -34 159.98 8.2
32 2 -34 156.88 8.1
32 2 -33 4.9 1
-32 2 33 7.2 1.1
-32 -2 33 8.2 1.2
32 -2 -33 5.2 1
-32 -2 32 21.3 1.9
32 2 -32 23.9 2
-32 2 31 69.19 3.9
32 -2 -31 59.69 3.9
-32 2 30 32.3 2.4
-32 -2 30 30.5 2.3
32 -2 -30 27.9 2.4
32 2 -30 29.1 2.3
32 2 -29 0.4 0.6
-32 2 29 0.3 0.7
-32 -2 29 0.4 0.6
32 -2 -29 0.2 0.7
-32 2 28 111.39 5.9
-32 -2 28 106.09 5.8
32 -2 -28 107.19 6
32 2 -28 106.29 5.9
-32 2 27 26.9 2.1
-32 -2 27 27.1 2.2
32 -2 -27 32 2.3
32 2 -27 25.2 2.2
32 2 -26 370.56 17.7
-32 -2 26 405.56 17.8
32 -2 -26 390.76 17.9
32 2 -25 42.6 2.9
-32 2 25 43.4 2.8
-32 -2 25 39.9 2.9
32 -2 -25 45.5 3
32 2 -24 376.56 18.6
-32 2 24 391.36 18.6
-32 -2 24 434.06 18.7
32 -2 -24 368.16 18.7
32 2 -23 82.09 4.6
-32 2 23 77.09 4.5
-32 -2 23 75.89 4.5
32 -2 -23 81.49 4.7
32 2 -22 54.39 3.5
-32 2 22 54.19 3.5
-32 -2 22 57.39 3.5
32 -2 -22 53.99 3.6
32 2 -21 15.5 1.6
-32 2 21 12.9 1.4
-32 -2 21 17.2 1.6
32 -2 -21 17.7 1.7
-32 2 20 98.99 5.4
32 -2 -20 99.69 5.6
-32 -2 18 200.28 10.7
32 2 -18 238.68 10.9
-32 2 17 14.6 1.6
-32 -2 17 20.5 1.7
32 -2 -17 18.4 1.8
32 2 -17 17.4 1.7
-32 2 16 293.77 15.2
-32 -2 16 346.17 15.4
32 -2 -16 305.87 15.4
32 2 -16 335.87 15.4
-32 2 15 41 2.8
-32 -2 15 45.5 3
32 -2 -15 43.5 3
32 2 -15 47.2 3.1
-32 2 14 213.08 10.4
-32 -2 14 207.18 10.5
32 -2 -14 234.38 10.8
32 2 -14 195.08 10.5
32 2 -13 1.8 0.8
-32 2 13 2.4 0.7
-32 -2 13 1.6 0.8
-32 2 12 45.8 3
-32 -2 12 47.8 3
32 -2 -12 43.8 3.1
32 2 -12 42 3
32 2 -11 9.5 1.3
-32 2 11 9.7 1.2
-32 -2 11 10.3 1.2
32 -2 -11 9.8 1.3
-32 2 10 114.49 6.1
-32 -2 10 109.19 6.1
32 -2 -10 122.59 6.3
32 2 -10 109.79 6.2
-32 2 9 14.8 1.5
-32 -2 9 14.4 1.5
32 -2 -9 16.5 1.6
32 2 -9 15.5 1.6
-32 2 8 475.25 22
-32 -2 8 482.75 22
32 -2 -8 445.86 22.2
32 2 -8 474.15 22.2
32 2 -7 0.3 0.7
-32 2 7 0.7 0.6
-32 -2 7 0.3 0.6
32 -2 -7 0.2 0.7
-32 2 6 254.97 12.3
-32 -2 6 239.08 12.2
32 -2 -6 265.47 12.5
32 2 -6 247.88 12.4
-32 2 5 2.2 0.8
-32 -2 5 2.2 0.7
32 -2 -5 1.3 0.8
32 2 -5 2.1 0.9
-32 2 4 82.09 4.7
-32 -2 4 76.09 4.6
32 -2 -4 84.99 4.9
32 2 -4 87.29 4.9
-32 2 3 70.19 3.9
-32 -2 3 61.79 3.8
32 -2 -3 66.19 4.1
32 2 -3 69.79 4.1
-32 2 2 45.6 3
-32 -2 2 43.6 2.9
32 -2 -2 50.59 3.2
32 2 -2 43.4 3
-32 2 1 27.8 2.1
32 -2 -1 30.1 2.3
-32 2 0 252.87 12.1
32 -2 0 243.48 12.3
-32 2 -1 14.2 1.4
32 -2 1 14.9 1.6
-32 2 -2 406.96 20.2
32 -2 2 460.85 20.5
32 4 -42 28.9 2.3
-32 -4 42 32.5 2.3
32 4 -41 27.7 2.2
-32 -4 41 29 2.2
32 4 -40 13.4 1.4
-32 -4 40 10.6 1.3
-32 4 39 8.8 1.2
32 -4 -39 9.3 1.2
32 4 -38 13.6 1.4
-32 4 38 12.9 1.4
-32 -4 38 16.4 1.5
32 -4 -38 12.7 1.4
32 4 -37 17.8 1.6
-32 4 37 15.9 1.6
-32 -4 37 17.1 1.6
32 -4 -37 18.7 1.7
32 4 -36 43 2.8
-32 -4 36 37.5 2.7
32 4 -35 85.99 4.8
-32 4 35 82.49 4.8
-32 -4 35 87.39 4.8
32 -4 -35 84.89 4.9
-32 4 34 74.79 4.2
32 -4 -34 68.99 4.3
-32 4 33 120.29 6.5
-32 -4 33 114.59 6.5
32 4 -32 28.7 2.2
-32 4 32 27.9 2.1
-32 -4 32 25.8 2.1
32 -4 -32 25.9 2.2
32 4 -31 43.8 3.1
-32 4 31 47.7 3.1
-32 -4 31 48.3 3.1
32 -4 -31 47.8 3.2
32 4 -30 2.2 0.8
-32 4 30 3.5 0.9
-32 -4 30 4.1 1
32 -4 -30 3.2 0.9
32 4 -29 1.2 0.6
-32 -4 29 1 0.6
32 -4 -29 1.4 0.8
32 4 -28 9.2 1.2
-32 4 28 7 1.1
-32 -4 28 9.2 1.2
32 -4 -28 7.6 1.2
32 4 -27 11 1.3
-32 -4 27 6.5 1.1
32 4 -25 99.89 5.4
-32 4 25 96.59 5.3
-32 -4 25 84.79 5.2
32 -4 -25 105.29 5.5
32 4 -24 86.89 4.7
-32 4 24 79.69 4.5
-32 -4 24 77.99 4.5
32 -4 -24 70.29 4.5
32 4 -23 114.59 6.1
-32 4 23 109.39 5.9
-32 -4 23 108.79 6
32 -4 -23 107.89 6
32 4 -22 61.19 3.8
-32 4 22 63.99 3.7
-32 -4 22 61.69 3.7
32 -4 -22 53.69 3.7
32 4 -21 65.69 3.9
-32 4 21 59.99 3.7
-32 -4 21 62.09 3.8
32 -4 -21 63.69 3.9
32 4 -20 38 2.7
-32 4 20 36.4 2.6
-32 -4 20 39.3 2.7
32 -4 -20 34.7 2.7
-32 4 19 3 0.8
32 4 -19 2.1 0.9
-32 -4 19 2.5 0.8
32 -4 -19 3 1
32 4 -18 203.88 10.1
-32 4 18 201.18 9.9
-32 -4 18 187.08 9.9
32 -4 -18 201.58 10.1
32 4 -17 82.49 4.8
-32 4 17 84.99 4.7
32 -4 -17 84.59 4.8
-32 -4 17 75.19 4.6
32 4 -16 205.18 10.7
-32 4 16 217.38 10.6
32 -4 -16 212.08 10.7
-32 -4 16 221.18 10.7
32 4 -15 36.7 2.6
-32 4 15 32.2 2.4
32 -4 -15 37.7 2.7
-32 -4 15 36.2 2.5
32 4 -14 60.09 3.7
-32 4 14 55.89 3.5
32 -4 -14 50.29 3.6
-32 -4 14 63.59 3.7
-32 4 13 15.2 1.5
32 -4 -13 17.7 1.7
-32 4 12 3 0.8
32 -4 -12 1.2 0.8
32 4 -11 63.49 4.1
-32 4 11 69.19 4.1
32 -4 -11 66.49 4.2
-32 -4 11 76.89 4.2
32 4 -10 215.08 10.9
-32 4 10 230.78 10.8
32 -4 -10 203.78 10.8
-32 -4 10 217.38 10.8
32 4 -9 0.7 0.7
-32 4 9 0.9 0.7
32 -4 -9 0.4 0.9
-32 -4 9 0.2 0.6
32 4 -8 377.66 19.4
-32 4 8 404.46 19.3
32 -4 -8 454.05 19.7
-32 -4 8 414.06 19.4
32 4 -7 222.38 11.2
-32 4 7 225.48 11
32 -4 -7 223.28 11.2
-32 -4 7 223.08 11.1
32 4 -6 163.88 8.6
-32 4 6 173.58 8.5
32 -4 -6 166.68 8.7
-32 -4 6 161.78 8.5
32 4 -5 163.28 8.4
-32 4 5 164.38 8.3
32 -4 -5 160.98 8.5
-32 -4 5 158.28 8.2
32 4 -4 37.5 2.7
-32 4 4 36.2 2.6
32 -4 -4 41.9 2.9
-32 -4 4 36.4 2.6
32 4 -3 0.7 0.7
-32 4 3 0.7 0.6
32 -4 -3 2.1 0.9
-32 -4 3 1.1 0.7
32 4 -2 6.1 1.1
-32 -4 2 7.5 1.1
-32 6 36 10 1.2
32 6 -36 9.1 1.2
32 -6 -36 9.5 1.3
-32 -6 36 9.6 1.2
32 6 -35 54.09 3.3
-32 -6 35 48.2 3.2
-32 6 34 34.8 2.5
32 6 -34 38.4 2.6
32 -6 -34 35.3 2.6
-32 -6 34 34.8 2.5
-32 6 33 85.09 4.8
32 -6 -33 87.29 5
-32 6 32 45.2 3
32 6 -32 43.1 3
32 -6 -32 44.6 3
-32 -6 32 46.2 3
-32 6 31 85.49 5
32 6 -31 96.49 5.2
32 -6 -31 95.39 5.3
-32 -6 31 91.49 5.1
-32 6 30 2.2 0.8
32 6 -30 2.9 0.9
32 -6 -30 1.9 0.8
-32 -6 30 2.4 0.9
-32 6 29 25.6 2
32 6 -29 23.8 2
32 -6 -29 19.9 1.9
-32 -6 29 25.1 2
-32 6 28 5.4 0.9
32 6 -28 7.2 1.1
32 -6 -28 3.8 0.9
-32 -6 28 4.8 0.9
32 6 -27 28.2 2.3
-32 -6 27 33.4 2.4
-32 6 26 41.6 2.8
32 -6 -26 44.6 3
-32 6 25 187.38 9.4
32 6 -25 175.38 9.5
32 -6 -25 180.98 9.6
-32 6 24 18.9 1.7
32 6 -24 20 1.8
32 -6 -24 17.3 1.8
-32 -6 24 21 1.8
-32 6 23 141.79 8
32 6 -23 162.38 8.2
32 -6 -23 168.18 8.3
-32 -6 23 165.48 8.2
-32 6 22 12.4 1.4
32 6 -22 12.8 1.5
32 -6 -22 12.2 1.5
-32 -6 22 10.2 1.3
-32 6 21 17.3 1.6
32 6 -21 15.1 1.6
32 -6 -21 15.8 1.6
-32 -6 21 18.2 1.6
-32 6 20 4.1 0.9
32 6 -20 3.5 0.9
32 -6 -20 5.9 1.1
-32 -6 20 5.2 1
-32 6 19 7.7 1.1
32 6 -19 8.2 1.2
32 -6 -19 7.1 1.2
-32 -6 19 7.2 1
-32 6 18 32.1 2.4
32 6 -18 34.4 2.5
32 -6 -18 37.9 2.7
-32 -6 18 31.2 2.4
-32 6 17 87.99 4.7
32 6 -17 74.59 4.7
32 -6 -17 81.59 4.8
-32 -6 17 84.89 4.7
-32 6 16 19 1.7
32 -6 -16 21 1.9
-32 6 15 194.88 9.8
32 -6 -15 196.88 9.9
-32 6 14 31.8 2.3
32 6 -14 30.6 2.4
32 -6 -14 30.2 2.5
-32 -6 14 32.7 2.4
-32 6 13 67.59 4
32 6 -13 64.19 4
32 -6 -13 73.39 4.2
-32 -6 13 65.69 4
32 6 -12 13.9 1.5
-32 -6 12 15.9 1.6
-32 6 11 53.69 3.4
32 6 -11 51.89 3.5
32 -6 -11 53.69 3.5
-32 -6 11 54.09 3.5
-32 6 10 17.2 1.6
32 6 -10 18.2 1.7
32 -6 -10 17 1.8
-32 -6 10 15.5 1.6
-32 6 9 26.6 2.1
32 6 -9 27.7 2.3
32 -6 -9 28.3 2.3
-32 -6 9 32 2.3
-32 6 8 45.2 2.9
32 6 -8 39.4 3
32 -6 -8 41 3
-32 -6 8 47.6 3
-32 6 7 103.69 5.6
32 6 -7 101.89 5.8
32 -6 -7 106.69 5.9
-32 -6 7 102.79 5.7
-32 6 6 58.69 3.7
32 6 -6 61.09 3.9
32 -6 -6 67.59 4
-32 -6 6 58.09 3.7
-32 6 5 91.09 5.1
32 6 -5 88.79 5.3
32 -6 -5 95.59 5.3
-32 -6 5 92.29 5.2
-32 6 4 2.5 0.8
32 -6 -4 3 1
-32 6 3 18.2 1.7
32 -6 -3 18.3 1.8
-32 6 2 12.4 1.4
32 -6 -2 14.4 1.6
-32 6 1 0.3 0.6
32 -6 -1 -0.5 0.8
-32 6 0 10.3 1.2
32 -6 0 7.6 1.2
-32 6 -1 14.7 1.5
32 -6 1 21.5 1.9
-32 8 28 7.5 1
32 -8 -28 8.3 1.2
-32 8 27 1.6 0.7
32 -8 -27 2.4 0.8
32 8 -27 2.3 0.7
-32 -8 27 1.4 0.6
-32 8 26 0.6 0.7
32 -8 -26 1.4 0.8
32 8 -26 0.9 0.7
-32 -8 26 0.7 0.7
-32 8 25 71.69 4.3
32 -8 -25 77.49 4.5
32 8 -25 84.39 4.5
-32 -8 25 71.99 4.3
-32 8 24 2.1 0.9
32 -8 -24 1.6 0.9
32 8 -24 3 0.8
-32 -8 24 2 0.8
-32 8 23 26.7 2.1
32 -8 -23 26.8 2.2
32 8 -23 29.9 2.2
-32 -8 23 24.4 2
-32 8 22 4.9 0.9
32 -8 -22 5.1 1
32 8 -20 0.1 0.7
-32 -8 20 0.1 0.7
32 8 -19 1.8 0.8
-32 -8 19 1.2 0.7
-32 8 18 5.4 0.9
32 -8 -18 5.9 1.1
32 8 -18 4.1 0.9
-32 -8 18 5.8 1
-32 8 17 11.5 1.3
32 -8 -17 9.6 1.3
32 8 -17 10.9 1.4
-32 -8 17 9.9 1.2
-32 8 16 3.3 0.8
32 -8 -16 1.4 0.8
32 8 -16 3.6 1
-32 -8 16 2.1 0.8
-32 8 15 50.29 3.1
32 -8 -15 47.1 3.2
32 8 -15 51.99 3.3
-32 -8 15 42.9 3
-32 8 14 1.2 0.8
32 -8 -14 1.5 1
32 8 -14 1.3 0.8
-32 -8 14 1.7 0.8
-32 8 13 28.9 2.1
32 -8 -13 25.3 2.2
32 8 -13 25.2 2.1
-32 -8 13 26.2 2.1
32 -8 -12 7.1 1.3
32 8 -12 8.3 1.2
-32 -8 12 8.6 1.2
-32 8 11 1.1 0.7
32 -8 -11 1.2 0.7
-32 8 10 16.6 1.6
32 -8 -10 18.2 1.7
32 8 -10 19.2 1.8
-32 -8 10 16.6 1.7
-32 8 9 4.6 0.9
32 -8 -9 4.9 1
-32 8 8 5.4 0.9
32 -8 -8 4.8 1.1
-32 8 7 48.2 3.1
32 -8 -7 48.6 3.3
-32 8 6 1 0.7
32 -8 -6 0.1 0.7
-32 8 5 13.7 1.5
32 -8 -5 18 1.7
-32 8 4 5.2 0.9
32 -8 -4 4.7 1.1
-32 8 3 24.8 1.9
32 -8 -3 24.5 2.1
-32 8 2 7.8 1.1
32 -8 -2 6 1.2
-32 8 1 0.7 0.6
32 -8 -1 0.7 0.8
-33 -1 42 24 1.9
33 1 -42 19.8 1.9
-33 1 41 6.9 1.1
-33 -1 41 6.1 1.1
33 -1 -41 5.6 1.1
33 1 -41 6.9 1.1
-33 1 40 1 0.7
-33 -1 40 1.1 0.6
33 -1 -40 0.8 0.7
33 1 -40 0.8 0.6
-33 -1 39 4.6 1
33 1 -39 5.9 1.1
-33 1 38 67.59 3.9
33 -1 -38 60.09 3.9
-33 1 37 3.2 0.8
-33 -1 37 3.3 0.8
33 -1 -37 2.8 0.8
33 1 -37 3.5 0.9
-33 1 36 130.39 7
-33 -1 36 144.79 7.1
33 -1 -36 121.09 7.1
33 1 -36 147.59 7.3
-33 1 35 0.7 0.6
-33 -1 35 1.1 0.7
33 -1 -35 1.6 0.7
33 1 -35 0.8 0.7
-33 1 34 124.99 7.3
-33 -1 34 152.58 7.4
33 -1 -34 149.39 7.6
33 1 -34 145.29 7.5
-33 1 33 1.9 0.8
-33 -1 33 1.7 0.8
33 -1 -33 1.5 0.9
33 1 -33 1.4 0.7
33 1 -32 2.1 0.7
-33 1 32 2.9 0.8
-33 -1 32 2 0.7
33 -1 -32 2.2 0.9
-33 1 30 65.19 4.1
-33 -1 30 70.49 4.2
33 -1 -30 77.29 4.4
33 1 -30 72.29 4.3
33 1 -29 2.1 0.8
-33 1 29 2.6 0.9
-33 -1 29 1.9 0.7
33 -1 -29 2.1 1
-33 1 28 206.88 10.3
-33 -1 28 191.38 10.2
33 -1 -28 201.18 10.4
33 1 -28 232.98 10.5
-33 1 27 60.19 3.8
-33 -1 27 64.99 3.9
33 -1 -27 69.99 4.1
33 1 -27 66.39 4
-33 1 26 304.27 14.9
-33 -1 26 303.07 14.9
33 -1 -26 337.37 15.1
33 1 -26 298.87 15
-33 1 25 28.4 2.3
-33 -1 25 31.1 2.4
33 -1 -25 33.1 2.5
33 1 -25 35.1 2.5
-33 1 24 252.07 12.8
-33 -1 24 265.77 12.9
33 -1 -24 255.17 13
33 1 -24 291.07 13.1
33 1 -23 5.2 1.2
-33 1 23 4.9 1
-33 -1 23 6.4 1
33 -1 -23 5.1 1.1
33 1 -22 9.3 1.2
-33 1 22 6.8 1
-33 -1 22 7.1 1.1
33 -1 -22 6.4 1.1
33 1 -21 2.4 0.8
-33 1 21 1.5 0.6
-33 -1 21 1.5 0.7
33 -1 -21 1.6 0.7
-33 1 20 132.99 7.1
-33 -1 20 133.69 7.1
33 -1 -20 146.59 7.4
33 1 -20 136.09 7.2
-33 1 19 -0.2 0.6
33 -1 -19 0.4 0.8
33 1 -17 0.2 0.6
-33 -1 17 -0.4 0.6
-33 1 16 400.26 19.3
33 -1 -16 397.86 19.5
33 1 -16 432.06 19.5
-33 1 15 8.4 1.2
-33 -1 15 7.6 1.1
33 -1 -15 11.1 1.4
33 1 -15 8.6 1.2
-33 1 14 43.8 3.1
-33 -1 14 50.79 3.2
33 -1 -14 56.29 3.5
33 1 -14 51.79 3.3
-33 1 13 68.39 4.1
-33 -1 13 69.89 4.1
33 -1 -13 71.49 4.3
33 1 -13 74.99 4.3
-33 1 12 5.6 0.9
-33 -1 12 6.4 1
33 -1 -12 5.4 1
33 1 -12 6.5 1.1
-33 1 11 18.1 1.7
-33 -1 11 20.9 1.8
33 -1 -11 23.9 2
33 1 -11 25.8 2.1
-33 1 10 495.35 23.7
-33 -1 10 479.05 23.7
33 -1 -10 520.15 24
33 1 -10 556.44 24.1
-33 1 9 19.3 1.8
-33 -1 9 22.1 1.9
33 -1 -9 26.4 2.1
33 1 -9 23.4 2
-33 1 8 372.76 17.7
-33 -1 8 378.06 17.7
33 -1 -8 375.16 17.9
33 1 -8 365.66 17.8
-33 1 7 3.3 0.8
-33 -1 7 3.9 0.9
33 -1 -7 3.5 0.9
33 1 -7 2.3 0.9
-33 1 6 284.17 14.5
-33 -1 6 320.37 14.6
33 -1 -6 319.97 14.8
33 1 -6 291.97 14.7
-33 1 5 8.3 1.1
-33 -1 5 9.5 1.2
33 -1 -5 8.5 1.3
33 1 -5 11.1 1.4
-33 1 4 1.5 0.7
-33 -1 4 1.1 0.6
33 -1 -4 1.1 0.7
33 1 -4 1.2 0.8
-33 1 3 11.7 1.3
-33 -1 3 11.2 1.3
33 -1 -3 9.5 1.3
33 1 -3 10.6 1.4
-33 1 2 266.87 12.7
-33 -1 2 241.68 12.6
33 -1 -2 263.97 12.9
33 1 -2 276.07 12.9
-33 1 1 0.2 0.5
-33 -1 1 0.5 0.6
33 -1 -1 -0.2 0.7
33 1 -1 -0.1 0.6
-33 1 0 335.67 16.8
33 -1 0 379.76 17.2
33 1 0 358.56 17.1
33 -1 1 0.4 0.7
-33 -3 42 12.6 1.4
33 3 -42 14.7 1.5
33 3 -41 6 1.1
-33 -3 41 6.2 1.1
33 3 -40 2.2 0.8
-33 3 40 2.6 0.8
-33 -3 40 2.1 0.8
33 -3 -40 2.1 0.8
33 3 -39 8.4 1.1
-33 3 39 9.1 1.2
-33 -3 39 8.1 1.2
33 -3 -39 8.8 1.3
-33 3 38 58.09 3.5
-33 -3 38 59.99 3.6
33 -3 -38 53.29 3.6
33 3 -38 59.19 3.6
-33 -3 37 19.3 1.8
33 3 -37 22.2 1.9
33 3 -36 63.19 3.6
-33 3 36 59.79 3.6
-33 -3 36 58.39 3.6
-33 3 35 14 1.4
33 -3 -35 12.5 1.5
33 3 -34 118.99 6.7
-33 3 34 130.49 6.7
-33 -3 34 124.19 6.7
33 -3 -34 135.69 6.9
33 3 -33 91.09 5.4
-33 3 33 106.29 5.4
-33 -3 33 103.69 5.4
33 -3 -33 88.69 5.4
33 3 -32 8.8 1.3
-33 3 32 9.9 1.2
-33 -3 32 8.8 1.2
33 -3 -32 9.3 1.3
33 3 -31 14.5 1.5
-33 3 31 13.3 1.4
-33 -3 31 10.2 1.3
33 -3 -31 11.5 1.4
33 3 -30 7.3 1.1
-33 3 30 8.8 1.2
-33 -3 30 9.4 1.2
33 3 -29 4.6 0.9
-33 3 29 3.1 0.8
-33 -3 29 3.8 0.9
33 -3 -29 4.4 0.9
33 3 -28 120.99 6.5
-33 -3 28 117.59 6.4
-33 3 27 28.5 2.1
33 -3 -27 24.5 2.1
33 3 -26 200.08 10.5
-33 3 26 226.78 10.5
-33 -3 26 200.08 10.4
33 -3 -26 215.78 10.6
33 3 -25 42.9 2.9
-33 3 25 41.4 2.8
-33 -3 25 39.5 2.8
33 -3 -25 42.2 2.9
33 3 -24 51.59 3.3
-33 3 24 49.1 3.2
-33 -3 24 56.19 3.3
33 -3 -24 48.3 3.3
33 3 -23 60.99 3.9
-33 3 23 65.19 3.9
-33 -3 23 64.49 3.9
33 -3 -23 66.99 4
33 3 -22 3.8 0.9
-33 3 22 3.2 0.9
-33 -3 22 4.4 0.9
33 -3 -22 3.4 1
33 3 -21 10.6 1.3
-33 3 21 10.1 1.2
-33 -3 21 11 1.3
33 -3 -21 10.3 1.4
33 3 -20 134.59 7.3
-33 3 20 148.29 7.3
-33 -3 20 134.59 7.2
33 -3 -20 136.29 7.3
33 3 -19 40.8 2.8
-33 3 19 38.7 2.7
-33 -3 19 40.7 2.8
33 -3 -19 41 2.9
33 3 -18 180.18 9.6
-33 3 18 198.68 9.6
-33 -3 18 194.98 9.6
33 -3 -18 190.38 9.7
33 3 -17 65.59 4.1
-33 3 17 62.89 4
-33 -3 17 70.99 4.1
33 -3 -17 75.59 4.3
33 3 -16 135.89 7.5
-33 3 16 150.38 7.5
-33 -3 16 145.69 7.5
33 -3 -16 143.69 7.6
33 3 -15 31.2 2.5
-33 3 15 30 2.3
-33 -3 15 34.1 2.5
33 -3 -15 37.8 2.7
-33 3 14 69.19 4.2
33 -3 -14 75.39 4.4
-33 3 13 13.1 1.4
33 -3 -13 14.2 1.6
33 3 -12 23.9 2.1
-33 3 12 27.5 2.1
-33 -3 12 26.2 2.1
33 -3 -12 27.1 2.2
33 3 -11 0.7 0.9
-33 3 11 -0.1 0.7
-33 -3 11 0.1 0.7
33 -3 -11 0.5 0.8
33 3 -10 436.26 20.9
-33 -3 10 446.06 20.8
33 3 -9 8.6 1.2
-33 -3 9 7.7 1.1
-33 -3 8 583.94 25.4
33 3 -8 503.35 25.4
-33 -3 7 48.4 3.1
33 3 -7 48.3 3.2
-33 3 6 228.48 11.1
-33 -3 6 214.78 11
33 -3 -6 239.38 11.3
33 3 -6 215.68 11.2
-33 3 5 41.3 2.8
-33 -3 5 41.4 2.7
33 -3 -5 38.4 2.9
33 3 -5 39.2 2.9
33 3 -4 4 0.9
-33 3 4 4 0.9
-33 -3 4 2.8 0.7
33 -3 -4 4.4 1
-33 3 3 16.4 1.6
-33 -3 3 14.4 1.5
33 -3 -3 16 1.7
33 3 -3 17.6 1.7
-33 3 2 89.39 5.1
33 -3 -2 88.49 5.2
-33 -3 2 93.09 5.1
33 3 -2 92.49 5.2
-33 3 1 0.1 0.6
33 -3 -1 0.6 0.9
-33 3 0 246.18 12.4
33 -3 0 266.47 12.7
-33 3 -1 4.1 0.9
33 -3 1 5.4 1.1
33 5 -39 4.9 1
-33 -5 39 5.3 1
33 5 -38 4.9 0.8
-33 5 38 4 0.9
-33 -5 38 3.9 0.8
33 -5 -38 4 0.9
33 5 -37 62.49 4
-33 -5 37 72.99 4.1
33 5 -36 18.6 1.8
-33 5 36 25.3 1.9
33 -5 -36 23.6 2
-33 -5 36 19.5 1.8
-33 5 35 103.99 5.7
33 -5 -35 104.79 5.8
33 5 -34 17.8 1.6
-33 5 34 14.3 1.5
33 -5 -34 13.3 1.6
33 5 -33 128.79 7
-33 5 33 131.09 6.9
33 -5 -33 138.69 7.1
-33 -5 33 131.99 6.9
33 5 -32 33.9 2.5
-33 5 32 31.6 2.3
33 -5 -32 30.1 2.4
-33 -5 32 34.9 2.4
33 5 -31 53.99 3.4
-33 -5 31 50.39 3.3
33 5 -30 0.7 0.6
-33 -5 30 0.2 0.7
-33 5 29 10.3 1.2
33 -5 -29 10 1.3
33 5 -28 76.69 4.6
-33 5 28 77.99 4.5
33 -5 -28 82.89 4.7
-33 -5 28 86.49 4.7
33 5 -27 80.49 4.3
-33 5 27 67.79 4.1
33 -5 -27 68.09 4.2
-33 -5 27 68.99 4.2
33 5 -26 128.69 7.1
-33 5 26 129.79 7
33 -5 -26 137.39 7.2
-33 -5 26 143.59 7.1
33 5 -25 111.39 6.2
-33 5 25 109.59 6
33 -5 -25 114.19 6.2
-33 -5 25 118.19 6.1
33 5 -24 32.7 2.4
-33 5 24 29.6 2.3
33 -5 -24 32.4 2.4
-33 -5 24 33.1 2.4
33 5 -23 42.8 2.9
-33 5 23 43.5 2.8
33 -5 -23 38.2 2.8
-33 -5 23 40.2 2.8
-33 5 22 2 0.7
33 5 -22 1.3 0.8
33 -5 -22 1.4 0.8
-33 -5 22 0.9 0.6
-33 5 21 41.9 2.7
33 5 -21 39.1 2.8
33 -5 -21 39.1 2.8
-33 -5 21 39.4 2.7
-33 5 20 13.5 1.5
33 -5 -20 16.7 1.7
-33 5 19 37.7 2.6
33 -5 -19 41.8 2.9
33 5 -18 65.69 4
-33 -5 18 64.69 3.9
33 5 -17 103.59 5.9
-33 -5 17 111.59 5.9
33 5 -16 141.59 7.3
-33 -5 16 131.99 7.1
33 5 -15 59.79 3.6
-33 5 15 49.7 3.3
33 -5 -15 54.89 3.6
-33 -5 15 50.89 3.4
33 5 -14 56.19 3.6
-33 5 14 53.49 3.4
33 -5 -14 55.89 3.6
-33 -5 14 58.29 3.5
33 5 -13 23.6 2
-33 5 13 21.5 1.9
-33 -5 13 21.9 1.9
-33 5 12 5.2 1
33 5 -12 7.1 1.2
33 -5 -12 6.2 1.2
-33 -5 12 4.9 1
33 5 -11 55.09 3.5
-33 5 11 58.49 3.4
33 -5 -11 48.3 3.4
-33 -5 11 54.89 3.4
33 5 -10 93.59 5.4
-33 5 10 90.39 5.2
33 -5 -10 102.89 5.5
-33 -5 10 91.69 5.2
33 5 -9 51.69 3.3
-33 5 9 48.7 3.1
33 -5 -9 52.99 3.4
-33 -5 9 42.9 3.1
33 5 -8 113.39 6
-33 5 8 99.69 5.7
33 -5 -8 108.59 6
-33 -5 8 108.89 5.9
33 5 -7 169.78 8.7
-33 5 7 172.18 8.6
33 -5 -7 168.18 8.7
-33 -5 7 160.28 8.5
33 5 -6 22.2 2
-33 5 6 23.8 1.9
33 -5 -6 22.4 2
-33 -5 6 23.9 2
33 5 -5 51.39 3.4
-33 5 5 52.89 3.3
33 -5 -5 53.59 3.5
-33 5 4 0.3 0.6
33 -5 -4 1.9 0.9
-33 5 3 3.8 0.9
33 -5 -3 5.3 1.1
-33 5 2 11.3 1.3
33 -5 -2 11.8 1.4
-33 5 1 2.8 0.9
33 -5 -1 5.2 1.1
-33 5 0 125.39 6.7
33 -5 0 127.69 6.9
-33 7 33 53.79 3.5
33 -7 -33 62.19 3.7
-33 7 32 15.8 1.5
33 -7 -32 15.2 1.6
-33 7 31 20.3 1.8
33 7 -31 19 1.8
-33 -7 31 21.1 1.8
-33 7 30 4.9 1
33 -7 -30 5.8 1.1
33 7 -30 5.9 1
-33 -7 30 6.1 1
-33 7 29 0.9 0.7
33 -7 -29 1.8 0.8
33 7 -29 1.6 0.7
-33 -7 29 0.7 0.6
33 7 -28 5.3 1
-33 -7 28 7.6 1.2
-33 7 26 23.2 1.8
33 7 -26 20.8 1.8
33 -7 -26 23 1.9
-33 -7 26 19.2 1.8
-33 7 25 64.59 3.8
33 7 -25 60.19 3.8
33 -7 -25 63.59 3.9
-33 -7 25 60.69 3.7
-33 7 24 0.9 0.6
33 -7 -24 -0.3 0.7
33 7 -24 0.5 0.8
-33 -7 24 1 0.7
-33 7 23 68.29 4
33 -7 -23 63.39 4.1
33 7 -23 66.69 4.1
-33 -7 23 76.39 4.1
-33 7 22 8.1 1.1
33 -7 -22 8.1 1.2
33 7 -22 6.7 1
-33 7 21 5 1
33 -7 -21 6 1.1
33 7 -21 5.8 1
-33 -7 21 4.3 0.8
-33 7 20 3.4 0.7
33 -7 -20 4.8 0.9
33 7 -20 3.4 0.9
-33 -7 20 3.5 0.8
-33 7 19 18 1.7
33 -7 -19 19.4 1.9
33 7 -19 22.4 1.9
-33 -7 19 21.1 1.8
-33 7 18 4.6 0.9
33 -7 -18 4.1 1
-33 7 17 115.29 6
33 -7 -17 112.49 6.2
33 7 -17 116.49 6.1
-33 -7 17 105.19 6
-33 7 16 7.4 1.1
33 -7 -16 6.7 1.1
33 7 -16 6.4 1.1
-33 -7 16 7.2 1.1
-33 7 15 94.19 5.3
33 -7 -15 92.69 5.4
33 7 -15 97.39 5.4
-33 -7 15 98.49 5.4
-33 7 14 24.7 2
33 -7 -14 23.7 2.1
33 7 -14 27.5 2.2
-33 -7 14 26.8 2.1
33 -7 -13 21.6 2.1
33 7 -13 24.8 2.1
-33 -7 13 23.8 2
33 7 -12 0.2 0.7
-33 -7 12 0.1 0.6
33 7 -11 -0.1 0.7
-33 -7 11 -0.1 0.7
33 7 -10 6.2 1.1
-33 -7 10 5.2 1
33 7 -9 27 2.2
-33 -7 9 27.8 2.2
-33 7 2 1.4 0.7
33 -7 -2 0.4 0.7
-33 7 1 3.5 0.8
33 -7 -1 4.4 1.1
33 9 -17 30 2.3
-33 -9 17 31.2 2.3
33 9 -16 2.1 0.8
-33 -9 16 3.3 0.9
33 9 -15 16.8 1.6
-33 -9 15 11.5 1.4
33 9 -14 9.1 1.2
-33 -9 14 4.6 1
-34 0 42 3.9 1
34 0 -42 6.5 1.2
-34 0 41 -0.2 0.6
34 0 -41 -0.1 0.6
-34 0 40 42.3 2.9
34 0 -40 38.9 2.9
-34 0 39 0.2 0.6
34 0 -39 -0.2 0.6
-34 0 38 91.29 5.1
34 0 -38 90.09 5.2
-34 0 37 -0.1 0.6
34 0 -37 0.1 0.6
-34 0 36 91.69 5
34 0 -36 83.89 5
-34 0 35 0.8 0.6
34 0 -35 0.9 0.6
-34 0 34 41.2 2.8
34 0 -34 39.4 2.8
-34 0 33 0.3 0.7
34 0 -33 -0.3 0.7
-34 0 32 36.8 2.6
34 0 -32 37.7 2.8
-34 0 31 0.3 0.7
34 0 -31 0.5 0.7
-34 0 29 0.8 0.7
34 0 -29 0.1 0.7
-34 0 28 398.06 18.4
34 0 -28 374.66 18.4
-34 0 27 0.5 0.6
34 0 -27 -0.1 0.7
-34 0 26 166.18 8.9
34 0 -26 193.38 9.2
-34 0 25 -0.1 0.6
34 0 -25 -0.1 0.7
-34 0 24 77.29 4.6
34 0 -24 89.19 4.9
-34 0 23 0.5 0.6
34 0 -23 -0.3 0.8
-34 0 22 12.4 1.5
34 0 -22 11.1 1.6
-34 0 21 -0.3 0.7
34 0 -21 0.3 0.7
-34 0 20 213.58 10.5
34 0 -20 209.08 10.6
-34 0 19 0.2 0.7
34 0 -19 0.4 0.8
-34 0 18 401.96 19.9
34 0 -18 448.46 20.1
-34 0 17 -0.2 0.6
34 0 -17 -0.5 0.7
-34 0 14 40.3 2.8
34 0 -14 38.5 2.9
-34 0 13 0.4 0.7
34 0 -13 0.4 0.8
-34 0 12 124.29 6.5
34 0 -12 121.39 6.7
-34 0 11 0.1 0.5
34 0 -11 -0.1 0.7
-34 0 10 547.25 26.8
34 0 -10 619.64 27.2
-34 0 9 0.2 0.6
34 0 -9 0.2 0.7
-34 0 8 427.26 21.2
34 0 -8 485.95 21.5
-34 0 7 -0.1 0.6
34 0 -7 0.1 0.8
-34 0 6 164.48 8.5
34 0 -6 168.88 8.7
-34 0 5 0.1 0.6
34 0 -5 -0.5 0.8
-34 0 4 106.29 5.8
34 0 -4 109.09 6
-34 0 3 -0.3 0.5
34 0 -3 0.9 0.8
-34 0 2 338.67 16.6
34 0 -2 365.26 16.9
-34 0 1 0.9 0.6
34 0 -1 -0.1 0.7
-34 -2 42 4.8 0.9
34 2 -42 5.7 1
-34 2 41 6.5 1
34 -2 -41 6.3 1.1
-34 2 40 13.4 1.5
-34 -2 40 15.7 1.5
34 -2 -40 17.7 1.7
34 2 -40 15.8 1.6
34 2 -39 1 0.6
-34 2 39 1.2 0.7
-34 -2 39 0.9 0.6
34 -2 -39 1.1 0.7
-34 2 38 66.79 4
-34 -2 38 72.79 4.1
34 -2 -38 70.99 4.2
34 2 -38 59.89 4
34 2 -37 1.4 0.7
-34 -2 37 1.8 0.7
-34 2 36 32.3 2.4
34 -2 -36 35.3 2.6
34 2 -35 6.9 1.1
-34 2 35 7 1.1
-34 -2 35 6.9 1
34 -2 -35 7.9 1.2
-34 2 34 61.99 3.8
-34 -2 34 63.69 3.9
34 -2 -34 63.29 3.9
34 2 -34 65.89 4
-34 2 33 43.5 2.8
-34 -2 33 39.4 2.7
34 -2 -33 42.6 2.9
34 2 -33 41.5 2.8
-34 2 32 18.6 1.8
-34 -2 32 18.1 1.8
34 -2 -32 19 1.9
34 2 -32 20.8 1.9
34 2 -31 5.2 1
-34 2 31 4.6 0.9
-34 -2 31 6.2 1
34 -2 -31 2.3 0.9
-34 2 30 144.39 7.5
-34 -2 30 139.29 7.5
34 -2 -30 152.48 7.7
34 2 -30 144.29 7.6
-34 2 29 14.6 1.5
-34 -2 29 18.2 1.6
34 -2 -29 16.8 1.6
34 2 -29 17 1.6
-34 2 27 46 2.9
-34 -2 27 40.2 2.9
34 -2 -27 45.1 3
34 2 -27 45.1 3
-34 2 26 66.69 4.3
-34 -2 26 85.69 4.5
34 -2 -26 82.89 4.6
34 2 -26 72.39 4.4
-34 2 25 35.2 2.5
-34 -2 25 40.1 2.6
34 -2 -25 32.9 2.6
34 2 -25 36.2 2.6
-34 2 24 38.6 2.8
-34 -2 24 40.6 2.8
34 -2 -24 38.2 2.9
34 2 -24 48.5 3
-34 2 23 24.6 2.1
-34 -2 23 27.4 2.1
34 -2 -23 28.6 2.3
34 2 -23 25.7 2.1
-34 2 22 29.5 2.3
-34 -2 22 29.6 2.3
34 -2 -22 30.3 2.5
34 2 -22 29.9 2.4
34 2 -21 0.1 0.7
-34 2 21 0.1 0.5
-34 -2 21 0.5 0.7
34 -2 -21 0.2 0.6
-34 2 20 229.58 11.7
-34 -2 20 244.48 11.8
34 -2 -20 225.28 11.9
34 2 -20 263.67 12
-34 2 19 43 3
-34 -2 19 53.09 3.1
34 -2 -19 47 3.2
34 2 -19 43.4 3.1
-34 2 18 301.87 14.3
-34 -2 18 277.47 14.3
34 -2 -18 318.87 14.6
34 2 -18 296.37 14.5
-34 2 17 34.3 2.5
-34 -2 17 38.4 2.6
34 -2 -17 33.5 2.6
34 2 -17 39 2.7
-34 2 16 135.69 7.7
-34 -2 16 160.88 7.9
34 -2 -16 147.09 7.9
34 2 -16 164.78 8
-34 2 14 17.7 1.7
34 -2 -14 16.3 1.9
34 2 -13 0.1 0.8
-34 2 13 0.3 0.7
-34 -2 13 0.9 0.7
34 -2 -13 0.4 0.9
-34 -2 12 269.97 13.1
34 2 -12 268.47 13.2
34 2 -11 7.9 1.2
-34 -2 11 7.1 1.1
-34 -2 10 224.58 11.5
34 2 -10 249.78 11.8
-34 2 9 5 0.9
-34 -2 9 8.2 1.1
34 -2 -9 7 1.2
34 2 -9 10.4 1.3
-34 2 8 357.86 16.6
-34 -2 8 333.37 16.5
34 -2 -8 338.97 16.7
34 2 -8 357.26 16.8
-34 2 7 31 2.4
-34 -2 7 35.3 2.5
34 -2 -7 37.1 2.7
34 2 -7 36.3 2.6
-34 2 6 129.99 7
-34 -2 6 122.69 6.9
34 -2 -6 139.39 7.2
34 2 -6 139.99 7.2
-34 2 5 9.1 1.2
-34 -2 5 9.1 1.2
34 -2 -5 9 1.3
34 2 -5 12.7 1.5
-34 2 4 38.3 2.6
-34 -2 4 37 2.6
34 -2 -4 35.2 2.7
34 2 -4 33.8 2.7
-34 2 3 7.8 1.1
-34 -2 3 9.7 1.2
34 -2 -3 10.2 1.3
34 2 -3 8.4 1.3
-34 2 2 181.18 9.1
34 -2 -2 189.48 9.3
34 2 -2 170.58 9.2
-34 2 1 0.1 0.6
34 -2 -1 0.2 0.7
-34 2 0 259.37 13.8
34 -2 0 331.37 14.3
-34 -4 40 8 1.1
34 4 -39 4.3 0.9
-34 -4 39 3.5 0.8
34 4 -38 34.2 2.4
-34 4 38 27.9 2.2
-34 -4 38 34.7 2.4
34 -4 -38 30.1 2.4
-34 4 37 104.69 5.3
34 -4 -37 83.29 5.2
34 4 -36 98.89 5.8
-34 4 36 109.69 5.8
-34 -4 36 116.69 5.9
34 -4 -36 108.49 6
34 4 -35 59.49 3.8
-34 4 35 62.49 3.8
-34 -4 35 65.59 3.8
34 -4 -35 64.39 3.9
-34 4 34 23.1 1.9
-34 -4 34 24.3 1.9
34 -4 -34 21.7 2
34 4 -33 125.59 6.9
-34 4 33 128.59 6.9
-34 -4 33 140.99 7
34 -4 -33 133.69 7.1
34 4 -32 16.2 1.6
-34 -4 32 14 1.5
-34 4 31 2.7 0.8
34 -4 -31 3.7 0.9
34 4 -30 42 2.8
-34 -4 30 39.1 2.7
34 -4 -30 36.7 2.7
34 4 -29 23.6 2
-34 4 29 24.7 1.9
-34 -4 29 22.2 1.9
34 -4 -29 24.9 2.1
34 4 -28 176.98 9.6
-34 4 28 185.98 9.5
-34 -4 28 199.28 9.6
34 -4 -28 203.98 9.8
34 4 -27 78.59 4.5
-34 4 27 71.49 4.2
-34 -4 27 72.99 4.3
34 -4 -27 72.29 4.4
34 4 -26 109.29 5.8
-34 4 26 100.79 5.6
-34 -4 26 104.99 5.7
34 -4 -26 100.39 5.8
34 4 -25 92.29 5
-34 4 25 88.29 4.9
-34 -4 25 83.29 4.9
34 -4 -25 86.79 5
34 4 -24 5 1
-34 4 24 6.7 1.2
-34 -4 24 5.5 1
34 -4 -24 3.3 1.2
34 4 -23 21 1.9
-34 4 23 22.8 1.9
-34 -4 23 22.9 1.9
34 -4 -23 23.5 2
-34 4 22 44 3
34 -4 -22 48 3.2
34 4 -21 0.6 0.6
-34 -4 21 0.8 0.6
34 4 -20 104.09 5.7
-34 -4 20 102.69 5.7
34 4 -19 81.79 4.7
-34 4 19 74.29 4.4
-34 -4 19 83.89 4.6
34 -4 -19 77.09 4.6
34 4 -18 105.39 5.7
-34 4 18 95.39 5.5
-34 -4 18 100.19 5.6
34 -4 -18 106.09 5.7
34 4 -17 39.6 2.8
-34 4 17 39.5 2.7
-34 -4 17 41.2 2.8
34 -4 -17 38.9 2.8
34 4 -16 117.69 6.2
-34 4 16 105.89 6
-34 -4 16 107.79 6
34 -4 -16 121.29 6.3
34 4 -15 37.2 2.7
-34 4 15 39 2.7
-34 -4 15 40 2.7
34 -4 -15 38.4 2.8
34 4 -14 5.1 1.1
-34 4 14 3.6 0.9
-34 -4 14 3.4 1
34 4 -13 48.6 3.3
-34 4 13 48.8 3.1
34 -4 -13 49.6 3.3
-34 -4 13 51.49 3.2
34 4 -12 106.69 6.2
-34 4 12 129.29 6.3
34 -4 -12 113.69 6.3
-34 -4 12 111.19 6.2
34 4 -11 7.3 1.1
-34 4 11 7.6 1.2
-34 -4 11 8.5 1.1
34 -4 -11 7.9 1.3
34 4 -10 209.08 10.5
-34 4 10 206.28 10.4
34 -4 -10 212.88 10.6
-34 -4 10 210.68 10.4
34 4 -9 82.89 4.8
-34 4 9 76.09 4.6
34 -4 -9 80.49 4.8
-34 -4 9 90.19 4.8
34 4 -8 151.38 7.6
-34 4 8 130.69 7.3
34 -4 -8 147.49 7.6
-34 -4 8 143.39 7.5
-34 4 7 53.39 3.5
34 -4 -7 61.39 3.8
-34 4 6 31.4 2.4
34 -4 -6 32.4 2.5
-34 4 5 72.49 4.1
34 -4 -5 71.19 4.3
-34 -4 5 68.49 4.1
34 4 -5 63.59 4.1
34 4 -4 7.5 1.2
-34 4 4 7.8 1.2
34 -4 -4 8.7 1.3
-34 4 3 17.2 1.6
34 -4 -3 16.5 1.8
-34 4 2 62.69 3.9
34 -4 -2 69.49 4.2
-34 4 1 20.3 1.8
34 -4 -1 17.5 1.8
-34 6 36 23.1 1.9
34 -6 -36 23.7 2
-34 6 35 88.59 5.2
34 -6 -35 107.49 5.5
-34 6 34 11.9 1.3
34 6 -34 10.1 1.3
34 -6 -34 10 1.3
-34 -6 34 13.8 1.4
34 6 -33 80.19 4.4
-34 6 33 66.79 4.1
34 -6 -33 71.39 4.3
-34 -6 33 73.39 4.2
34 6 -32 3.1 0.9
-34 -6 32 3.1 0.9
-34 6 31 1.9 0.7
34 6 -31 1.2 0.7
34 -6 -31 1.1 0.7
-34 -6 31 2.4 0.8
-34 6 30 0.7 0.7
34 -6 -30 0.6 0.7
-34 6 29 20.2 1.7
34 -6 -29 19.2 1.8
-34 -6 29 18.1 1.7
34 6 -28 63.99 3.8
34 -6 -28 60.99 3.8
-34 -6 28 56.99 3.6
-34 6 27 139.19 7
34 6 -27 131.79 7.1
34 -6 -27 139.59 7.2
-34 -6 27 129.49 7
-34 6 26 16.1 1.5
34 6 -26 14.9 1.6
34 -6 -26 13.4 1.6
-34 -6 26 16.9 1.6
-34 6 25 31.7 2.3
34 6 -25 34.8 2.4
34 -6 -25 30.5 2.4
-34 -6 25 29.2 2.3
-34 6 24 24 1.9
34 6 -24 20.9 1.9
-34 -6 24 24.5 1.9
-34 6 23 82.29 4.6
34 -6 -23 80.59 4.8
34 6 -22 6.4 1
-34 -6 22 5.4 0.9
34 6 -21 0.8 0.6
-34 -6 21 0.8 0.6
-34 6 20 12.1 1.4
34 6 -20 11.1 1.3
34 -6 -20 11.1 1.5
-34 -6 20 11.2 1.3
-34 6 19 162.98 8.4
34 6 -19 178.58 8.7
34 -6 -19 164.28 8.6
-34 -6 19 164.48 8.5
-34 6 18 21.7 1.8
34 6 -18 19.8 1.8
34 -6 -18 23.5 2
-34 -6 18 20.8 1.8
-34 6 17 99.39 5.5
34 6 -17 105.19 5.7
34 -6 -17 99.89 5.7
-34 -6 17 102.99 5.6
-34 6 16 92.39 5.3
34 6 -16 98.99 5.4
34 -6 -16 96.89 5.5
-34 -6 16 96.29 5.3
-34 6 15 72.89 4.2
34 6 -15 67.89 4.3
34 -6 -15 74.49 4.4
-34 -6 15 69.49 4.2
34 6 -14 11.6 1.5
34 -6 -14 11.5 1.5
-34 -6 14 12.7 1.4
-34 6 13 3.9 0.9
34 6 -13 1.9 0.8
34 -6 -13 3.9 1
-34 -6 13 3.2 0.9
-34 6 12 34.9 2.5
34 6 -12 37.8 2.8
34 -6 -12 36.8 2.7
-34 -6 12 34.6 2.6
-34 6 11 4.4 0.9
34 -6 -11 4 1
-34 6 10 36 2.5
34 -6 -10 33.4 2.6
-34 6 9 54.29 3.4
34 6 -9 60.99 3.7
34 -6 -9 54.29 3.6
-34 -6 9 52.19 3.4
-34 6 8 14.3 1.5
34 6 -8 14.2 1.6
34 -6 -8 13 1.6
-34 -6 8 13.6 1.5
-34 6 7 46.4 3.1
34 -6 -7 50.89 3.4
-34 6 6 4.3 0.9
34 -6 -6 3.2 1
-34 6 5 23.5 2
34 -6 -5 23.7 2.1
-34 6 4 4 0.8
34 -6 -4 5.4 1.1
-34 6 3 0.7 0.6
34 -6 -3 1 0.8
-34 6 2 25.3 2
34 -6 -2 20 2
-34 -8 24 0.7 0.7
-34 8 23 20.9 1.9
34 -8 -23 25.8 2.1
34 8 -23 26.2 2.1
-34 -8 23 22.4 1.9
-34 8 22 6.5 1.1
34 -8 -22 9.2 1.2
34 8 -22 9.6 1.2
-34 -8 22 8.3 1.1
-34 8 21 0.4 0.5
34 -8 -21 0.6 0.6
34 8 -21 0.7 0.7
-34 -8 21 0.7 0.7
-34 8 20 3 0.8
34 -8 -20 1.5 0.9
34 8 -20 2.6 0.8
-34 -8 20 2.1 0.7
-34 8 19 51.99 3.2
34 -8 -19 56.29 3.4
34 8 -19 47.9 3.3
-34 -8 19 52.39 3.3
-34 8 18 1.1 0.6
34 -8 -18 1.9 0.8
-34 8 17 88.29 5
34 -8 -17 96.19 5.3
-34 8 16 14.7 1.4
34 -8 -16 11.7 1.5
34 8 -16 13 1.5
-34 -8 16 11.5 1.4
-34 8 15 14.1 1.5
34 -8 -15 16.2 1.7
34 8 -15 16 1.6
-34 -8 15 15.6 1.6
34 -8 -14 0.6 0.9
34 8 -14 1.3 0.8
-34 -8 14 2.4 0.8
-34 8 13 1.4 0.6
34 -8 -13 2.5 0.9
34 8 -13 0.5 0.7
-34 -8 13 1.6 0.7
-34 8 12 2.4 0.8
34 -8 -12 2.2 0.9
34 8 -12 3.8 0.9
-34 -8 12 1.6 0.8
-34 8 11 27 2.1
34 -8 -11 29.4 2.3
-34 8 10 7.2 1
34 -8 -10 6.3 1
-34 8 9 7.8 1
34 -8 -9 7.5 1.2
-34 8 8 9.5 1.1
34 -8 -8 8.8 1.3
-34 8 7 19.1 1.7
34 -8 -7 18.8 1.8
-34 8 6 0.1 0.6
34 -8 -6 -0.1 0.8
-34 8 5 17.1 1.6
34 -8 -5 15.4 1.7
-34 8 4 2 0.7
34 -8 -4 3.3 1
-35 -1 43 2.2 0.8
-35 1 42 9.2 1.2
-35 -1 42 9.7 1.2
35 -1 -42 9.9 1.3
35 1 -42 8.4 1.2
-35 1 41 3.9 0.9
35 -1 -41 6.4 1.1
-35 1 40 53.99 3.5
-35 -1 40 60.79 3.6
35 -1 -40 61.19 3.7
35 1 -40 57.19 3.6
-35 1 39 2.1 0.8
-35 -1 39 1.7 0.8
35 -1 -39 1.5 0.8
35 1 -39 1.6 0.8
-35 1 38 54.09 3.3
-35 -1 38 58.69 3.4
35 -1 -38 49 3.3
35 1 -38 46.5 3.3
-35 1 37 0.1 0.7
-35 -1 37 0.9 0.7
35 -1 -37 -0.1 0.7
35 1 -37 0.6 0.7
-35 -1 36 26.7 2.1
35 1 -36 29.4 2.3
-35 1 35 11 1.3
-35 -1 35 14.4 1.4
35 -1 -35 11 1.3
35 1 -35 11.8 1.4
-35 1 34 26.2 2.1
-35 -1 34 27.1 2.1
35 -1 -34 26.7 2.2
35 1 -34 26.8 2.1
-35 1 33 0.9 0.7
-35 -1 33 1.2 0.8
35 -1 -33 1.2 0.8
35 1 -33 0.9 0.8
-35 1 32 3.7 0.9
-35 -1 32 3.7 0.9
35 -1 -32 0.8 0.7
35 1 -32 2.6 1
-35 1 31 42.1 2.8
-35 -1 31 38.9 2.7
35 -1 -31 38.3 2.9
35 1 -31 42.2 2.9
-35 1 30 245.48 11.8
-35 -1 30 221.78 11.7
35 -1 -30 235.88 11.9
35 1 -30 256.57 11.9
-35 1 29 5.4 1
-35 -1 29 5.7 1
35 -1 -29 3.2 1
35 1 -29 3.3 1
-35 -1 28 210.28 10.6
35 1 -28 217.78 10.8
-35 1 26 68.49 4.2
-35 -1 26 80.29 4.4
35 -1 -26 75.49 4.5
35 1 -26 74.29 4.4
-35 1 25 11 1.3
-35 -1 25 11.2 1.3
35 -1 -25 7.9 1.3
35 1 -25 9.2 1.3
-35 1 24 14 1.4
-35 -1 24 13 1.4
35 -1 -24 13.6 1.6
35 1 -24 11.4 1.4
-35 1 23 1.4 0.7
-35 -1 23 0.9 0.8
35 -1 -23 -0.1 0.6
35 1 -23 1.2 0.9
-35 1 22 31.3 2.3
-35 -1 22 33.8 2.4
35 -1 -22 31.7 2.5
35 1 -22 33 2.5
-35 1 21 1 0.7
-35 -1 21 2.1 0.8
35 -1 -21 1.2 0.9
35 1 -21 1.4 0.8
-35 1 20 467.85 21.4
-35 -1 20 463.35 21.4
35 -1 -20 435.36 21.5
35 1 -20 452.35 21.6
-35 1 19 22.7 2
-35 -1 19 27.5 2.1
35 -1 -19 25.5 2.2
35 1 -19 23.4 2.1
-35 1 18 588.34 27.5
35 -1 -18 615.94 27.7
35 1 -18 573.94 27.6
-35 1 17 1 0.7
-35 -1 17 1.4 0.7
35 -1 -17 1.3 0.8
35 1 -17 0.7 0.8
-35 1 16 5.1 1
-35 -1 16 5.3 1
35 -1 -16 4.5 1.1
35 1 -16 5.1 1.1
-35 1 15 1.2 0.7
-35 -1 15 1.7 0.7
35 -1 -15 1.7 0.8
35 1 -15 2 0.8
-35 1 14 83.99 4.6
-35 -1 14 78.99 4.5
35 -1 -14 74.49 4.7
35 1 -14 80.29 4.7
-35 1 13 7.5 1.2
35 -1 -13 9.3 1.4
-35 -1 11 1.2 0.6
35 1 -11 1.2 0.7
-35 -1 10 315.17 15.2
35 1 -10 320.17 15.4
-35 1 9 2.1 0.8
-35 -1 9 1.7 0.8
35 -1 -9 0.7 0.8
35 1 -9 3.6 1
-35 1 8 323.37 16
-35 -1 8 324.37 15.9
35 -1 -8 327.87 16.2
35 1 -8 367.46 16.3
-35 1 7 10.5 1.2
-35 -1 7 11.3 1.3
35 -1 -7 13.1 1.5
35 1 -7 9.7 1.4
-35 1 6 1.5 0.7
-35 -1 6 1.7 0.7
35 -1 -6 2.6 0.9
35 1 -6 1.9 0.8
-35 1 5 18 1.6
-35 -1 5 15.5 1.5
35 -1 -5 17.6 1.8
35 1 -5 16.1 1.8
-35 1 4 206.58 10.4
-35 -1 4 201.98 10.4
35 -1 -4 232.98 10.8
35 1 -4 202.38 10.6
-35 1 3 13 1.4
-35 -1 3 11.3 1.4
35 -1 -3 13.8 1.6
35 1 -3 12.8 1.6
-35 1 2 399.96 20
35 -1 -2 460.05 20.4
-35 -3 41 9.9 1.3
35 3 -41 13 1.4
-35 -3 40 57.99 3.6
35 -3 -40 53.69 3.7
35 3 -40 61.09 3.7
-35 3 39 11 1.3
-35 -3 39 13.7 1.4
35 -3 -39 12.6 1.4
35 3 -39 13.7 1.4
-35 3 38 107.59 5.6
35 -3 -38 94.39 5.6
-35 3 37 52.69 3.2
-35 -3 37 49.4 3.2
35 -3 -37 48.8 3.2
35 3 -37 46 3.1
-35 3 36 39.5 2.7
-35 -3 36 43.5 2.8
35 -3 -36 39.2 2.8
35 3 -36 39.7 2.8
-35 -3 35 14.4 1.5
35 -3 -35 15.1 1.5
35 3 -35 16.3 1.5
-35 3 34 9.1 1.1
-35 -3 34 10.7 1.3
35 -3 -34 11.9 1.3
35 3 -34 10.7 1.3
-35 -3 33 35.6 2.5
35 3 -33 30.6 2.4
-35 3 32 5.2 1
35 -3 -32 9.5 1.2
35 3 -31 7.8 1.2
-35 3 31 7.8 1.2
-35 -3 31 7.7 1.1
35 3 -30 118.29 6.3
-35 3 30 124.99 6.3
-35 -3 30 115.09 6.2
35 -3 -30 104.99 6.2
35 3 -29 44 2.9
-35 3 29 44 2.9
-35 -3 29 40.6 2.8
35 -3 -29 42.2 3
35 3 -28 220.48 10.7
-35 3 28 225.18 10.7
-35 -3 28 199.28 10.6
35 -3 -28 215.48 10.8
35 3 -27 69.29 4.3
-35 3 27 74.09 4.3
-35 -3 27 77.09 4.3
35 -3 -27 69.29 4.3
35 3 -26 48.4 3.2
-35 3 26 49.1 3.2
-35 -3 26 55.29 3.3
35 -3 -26 43.6 3.2
35 3 -25 35.7 2.7
-35 3 25 37.3 2.6
-35 -3 25 36.3 2.6
35 -3 -25 40.2 2.8
-35 3 24 2.6 0.7
35 -3 -24 2.7 0.8
35 3 -22 170.58 8.5
-35 -3 22 156.68 8.3
35 3 -21 44.6 3
-35 3 21 47.1 2.9
-35 -3 21 40.5 2.8
35 -3 -21 39.5 2.9
35 3 -20 249.97 11.8
-35 3 20 233.38 11.7
-35 -3 20 240.58 11.7
35 -3 -20 227.48 11.8
35 3 -19 64.29 3.9
-35 3 19 61.09 3.8
-35 -3 19 62.89 3.8
35 -3 -19 59.49 3.9
35 3 -18 158.68 7.9
-35 3 18 133.19 7.6
-35 -3 18 150.88 7.7
35 -3 -18 160.78 7.9
35 3 -17 34 2.6
-35 3 17 34 2.5
-35 -3 17 35.8 2.6
35 -3 -17 41.2 2.8
35 3 -16 24.8 2.1
-35 3 16 23.5 1.9
-35 -3 16 26.8 2.1
35 -3 -16 21.6 2
35 3 -15 7.1 1.2
-35 3 15 6.3 1.1
-35 -3 15 8.3 1.1
35 -3 -15 7.3 1.2
-35 3 14 39.3 2.8
-35 -3 14 42.1 2.8
35 -3 -14 42.9 3
35 3 -14 41.5 2.9
35 3 -13 4.3 1
-35 3 13 4.8 0.9
-35 -3 13 4 0.9
35 -3 -13 4.1 1
-35 3 12 177.08 8.9
-35 -3 12 174.38 8.9
35 -3 -12 177.08 9.1
35 3 -12 175.28 9
-35 3 11 42.6 2.9
-35 -3 11 41.5 2.9
35 -3 -11 46.5 3.1
35 3 -11 45.2 3.1
-35 3 10 253.67 12.1
-35 -3 10 236.38 12
35 -3 -10 253.97 12.3
35 3 -10 241.18 12.2
-35 3 9 28.9 2.2
35 -3 -9 30.4 2.4
-35 3 8 142.09 7.7
35 -3 -8 163.38 8
35 3 -7 5 1.1
-35 3 7 4.5 0.9
-35 -3 7 4.4 0.9
35 -3 -7 4.6 1
-35 3 6 38.9 2.8
-35 -3 6 42.5 2.9
35 -3 -6 47.7 3.1
35 3 -6 45.2 3.1
-35 3 5 5.3 1
-35 -3 5 5.6 1
35 -3 -5 5.5 1.1
35 3 -5 7.4 1.1
-35 3 4 45.5 3
35 -3 -4 42.9 3.1
35 3 -4 45.3 3.1
-35 3 3 9.2 1.3
35 -3 -3 9.9 1.4
-35 3 2 358.26 17.9
35 -3 -2 402.66 18.2
-35 5 38 9.9 1.2
35 -5 -38 8 1.2
35 5 -37 84.59 4.8
-35 5 37 82.29 4.7
35 -5 -37 78.59 4.8
-35 -5 37 92.29 4.8
35 5 -36 41.2 2.9
-35 5 36 42.7 2.9
35 -5 -36 52.39 3.2
-35 -5 36 43.8 2.9
35 5 -35 176.28 9.3
-35 5 35 200.88 9.3
35 -5 -35 177.48 9.3
35 5 -34 5.7 1
-35 -5 34 5.8 1.1
-35 5 33 37.8 2.7
35 -5 -33 41.7 2.8
-35 5 32 8.7 1.1
35 5 -32 8.8 1.2
-35 -5 32 7.7 1.1
35 -5 -32 7 1.1
35 5 -31 19.7 1.7
-35 5 31 13.4 1.5
35 -5 -31 17.8 1.7
-35 -5 31 15.4 1.6
35 5 -30 23 1.9
-35 5 30 24.2 1.9
35 -5 -30 22.2 1.9
-35 -5 30 20.8 1.8
35 5 -29 106.89 5.7
-35 5 29 104.39 5.6
35 -5 -29 93.39 5.6
-35 -5 29 112.49 5.7
35 5 -28 94.59 5.3
-35 5 28 90.59 5.1
35 -5 -28 99.69 5.3
-35 -5 28 89.49 5.1
35 5 -27 75.69 4.2
-35 5 27 68.39 4
35 -5 -27 62.29 4
-35 -5 27 66.19 4
35 5 -25 78.79 4.4
-35 5 25 64.19 4.1
35 -5 -25 64.89 4.2
-35 -5 25 77.49 4.3
-35 5 24 9.3 1.2
35 5 -24 8.5 1.3
35 -5 -24 7.8 1.2
-35 -5 24 9.5 1.3
-35 5 23 0.9 0.7
35 5 -23 1.5 0.8
35 -5 -23 0.9 0.7
-35 -5 23 1.3 0.8
35 5 -22 73.19 4.5
-35 5 22 78.19 4.4
35 -5 -22 77.39 4.5
-35 -5 22 73.19 4.4
35 5 -21 106.09 5.9
-35 5 21 102.19 5.6
35 -5 -21 104.89 5.8
-35 -5 21 104.49 5.7
35 5 -20 151.58 7.5
-35 5 20 129.99 7.2
35 -5 -20 134.99 7.4
-35 -5 20 150.28 7.4
35 5 -19 79.99 4.9
-35 5 19 82.69 4.8
35 -5 -19 86.89 5
-35 -5 19 95.29 5
35 5 -18 58.19 3.7
-35 5 18 54.99 3.5
35 -5 -18 64.49 3.8
-35 -5 18 61.29 3.7
35 5 -17 79.69 4.6
-35 5 17 74.09 4.4
35 -5 -17 76.69 4.6
-35 -5 17 81.79 4.6
35 5 -16 50.99 3.2
-35 5 16 46.6 3
35 -5 -16 44.5 3.1
-35 -5 16 41.6 2.9
-35 5 14 51.59 3.3
35 -5 -14 53.19 3.5
-35 5 13 7.7 1
35 5 -13 9 1.3
35 -5 -13 6.3 1.1
-35 -5 13 7.1 1.1
35 5 -12 63.19 4.1
-35 5 12 65.19 3.9
35 -5 -12 70.59 4.2
-35 -5 12 68.89 4
35 5 -11 88.99 5.1
-35 5 11 82.39 4.9
35 -5 -11 101.69 5.3
-35 -5 11 87.29 5
35 5 -10 39.5 2.8
-35 5 10 34.1 2.6
35 -5 -10 40.6 2.9
-35 -5 10 38 2.7
35 5 -9 84.99 5.2
-35 5 9 83.29 5
35 -5 -9 96.99 5.3
-35 -5 9 100.49 5.2
35 5 -8 13.1 1.6
-35 5 8 14.1 1.5
35 -5 -8 14.9 1.7
-35 -5 8 16.8 1.6
35 5 -7 17.3 1.8
-35 5 7 18.3 1.8
35 -5 -7 21.2 2
-35 -5 7 23.5 1.9
-35 5 6 -0.1 0.6
35 -5 -6 0.2 0.8
-35 5 5 2.7 0.8
35 -5 -5 4.3 1
-35 5 4 45.8 3
35 -5 -4 47.9 3.3
-35 5 3 0.6 0.7
35 -5 -3 -0.1 0.8
-35 5 2 44.6 3
35 -5 -2 48.1 3.3
-35 7 29 44.4 2.8
35 -7 -29 38.2 2.8
-35 7 28 4 0.9
35 7 -28 5.8 1
35 -7 -28 4.7 1
-35 -7 28 3.3 0.8
-35 7 27 133.99 6.9
35 7 -27 137.19 7
35 -7 -27 132.09 7
-35 -7 27 124.39 6.9
-35 7 26 3.9 0.9
35 7 -26 2.6 0.9
35 -7 -26 4.6 1
-35 -7 26 4.9 0.9
-35 7 25 25.6 2
35 7 -25 24.4 2
35 -7 -25 21.4 2
-35 -7 25 25.5 2
-35 7 24 16 1.5
35 7 -24 17.4 1.6
35 -7 -24 14 1.5
-35 7 23 34 2.3
35 -7 -23 28.1 2.3
35 7 -22 3.6 0.9
-35 -7 22 2.4 0.8
35 7 -21 45.7 3
-35 -7 21 42.7 2.9
-35 7 20 0.9 0.6
35 -7 -20 0.5 0.7
35 7 -20 1 0.8
-35 -7 20 1.7 0.8
-35 7 19 132.09 6.9
35 7 -19 124.79 7
35 -7 -19 134.69 7.1
-35 -7 19 138.29 7
-35 7 18 14.3 1.4
35 7 -18 16.6 1.7
35 -7 -18 14.6 1.6
-35 -7 18 17.5 1.6
-35 7 17 66.39 3.9
35 7 -17 68.79 4
35 -7 -17 59.99 4
-35 -7 17 67.69 4
-35 7 16 14 1.4
35 7 -16 16.3 1.6
35 -7 -16 17.5 1.6
-35 -7 16 16.7 1.6
35 -7 -15 0.9 0.8
35 7 -15 1.6 0.9
-35 -7 15 1.4 0.8
-35 7 14 0.1 0.6
35 -7 -14 0.4 0.8
35 7 -14 1.2 0.8
-35 -7 14 0.5 0.7
-35 7 13 5.5 0.9
35 -7 -13 6.3 1.1
-35 7 12 2.9 0.8
35 -7 -12 1.9 0.9
35 7 -12 1.9 0.9
-35 -7 12 1.6 0.8
-35 7 11 21.3 1.8
35 7 -11 21.9 2
35 -7 -11 20.9 2
-35 -7 11 24.8 2
-35 7 10 2.3 0.7
35 -7 -10 1.3 0.8
-35 7 9 23.5 1.9
35 -7 -9 28 2.2
-35 7 8 0.7 0.6
35 -7 -8 0.4 0.7
-35 7 7 21.6 1.8
35 -7 -7 22.1 2
-35 7 6 1.1 0.6
35 -7 -6 1.2 0.7
-35 7 5 8.9 1.2
35 -7 -5 11.6 1.4
-35 7 4 0.4 0.6
35 -7 -4 -0.2 0.6
-36 0 42 52.39 3.3
36 0 -42 52.89 3.4
-36 0 41 0.9 0.7
36 0 -41 -0.2 0.7
-36 0 39 0.2 0.6
36 0 -39 -1.4 0.8
-36 0 38 48.5 3.2
36 0 -38 53.19 3.4
-36 0 37 -0.1 0.6
36 0 -37 0.6 0.7
-36 0 36 35.7 2.5
36 0 -36 36.8 2.7
-36 0 34 6.8 1.1
36 0 -34 7.8 1.3
-36 0 33 0.9 0.8
36 0 -33 -0.1 0.7
-36 0 32 194.68 10
36 0 -32 209.18 10.2
-36 0 31 -0.4 0.6
36 0 -31 -0.3 0.6
-36 0 30 265.17 13
36 0 -30 271.07 13.2
-36 0 29 0.1 0.7
36 0 -29 -0.1 0.6
-36 0 28 14.3 1.5
36 0 -28 16.2 1.6
-36 0 27 0.1 0.7
36 0 -27 -0.3 0.7
-36 0 24 31.5 2.4
36 0 -24 36.7 2.6
-36 0 23 0.5 0.5
36 0 -23 0.5 0.6
-36 0 22 114.09 6.4
36 0 -22 131.59 6.7
-36 0 21 -0.2 0.7
36 0 -21 -0.4 0.8
-36 0 20 441.26 21.4
36 0 -20 474.05 21.6
-36 0 19 -0.2 0.6
36 0 -19 0.1 0.6
-36 0 17 -0.4 0.6
36 0 -17 -0.4 0.6
-36 0 16 86.09 5
36 0 -16 82.59 5
-36 0 15 -0.1 0.6
36 0 -15 0.2 0.7
-36 0 14 81.29 4.8
36 0 -14 95.69 5.2
-36 0 13 0.9 0.8
36 0 -13 0.2 0.8
-36 0 12 470.65 22.7
36 0 -12 502.55 23
-36 0 11 0.5 0.7
36 0 -11 0.1 0.8
-36 0 7 -0.2 0.6
36 0 -7 0.4 0.7
-36 0 6 47 3
36 0 -6 45.2 3.2
-36 0 5 0.5 0.6
36 0 -5 0.1 0.7
-36 0 4 297.87 14.5
36 0 -4 300.57 14.7
-36 0 3 0.1 0.7
36 0 -3 -0.1 0.7
-36 -2 42 27.9 2.1
36 2 -42 28 2.2
-36 2 41 10.6 1.3
-36 -2 41 9.6 1.2
36 -2 -41 11.5 1.4
36 2 -41 11.1 1.3
-36 2 40 115.19 5.8
-36 -2 40 102.59 5.7
36 -2 -40 96.49 5.8
36 2 -40 112.69 5.9
-36 2 39 39.8 2.7
-36 -2 39 38 2.6
36 -2 -39 37.2 2.7
36 2 -39 38.2 2.7
-36 2 38 28.6 2.2
-36 -2 38 34.6 2.3
36 -2 -38 24.9 2.2
36 2 -38 33.4 2.4
36 2 -37 3.2 0.8
-36 2 37 3.6 0.9
-36 -2 37 3.4 0.8
36 -2 -37 5 1
36 2 -36 1.1 0.7
-36 2 36 0.3 0.6
-36 -2 36 1.4 0.7
36 -2 -36 1.5 0.7
36 2 -35 0.8 0.7
-36 2 35 0.2 0.6
-36 -2 35 -0.7 0.7
36 -2 -35 0.3 0.7
36 2 -34 5.1 1
-36 2 34 6 1.1
-36 -2 34 4.6 0.9
36 -2 -34 3.5 1
-36 2 32 25.5 2.1
-36 -2 32 28.9 2.1
36 -2 -32 26.3 2.2
36 2 -32 27.6 2.2
-36 2 31 7.9 1.1
-36 -2 31 9.7 1.1
36 -2 -31 8.7 1.2
36 2 -31 10 1.2
-36 2 30 193.28 9.8
-36 -2 30 193.38 9.8
36 -2 -30 201.98 10
36 2 -30 197.08 9.9
-36 2 29 31.9 2.3
-36 -2 29 34.2 2.4
36 -2 -29 30.2 2.4
36 2 -29 32.1 2.5
-36 2 28 227.58 10.9
-36 -2 28 224.18 10.9
36 -2 -28 226.68 11.1
36 2 -28 202.48 10.9
36 2 -27 3.5 1
-36 2 27 3.5 0.8
-36 -2 27 4.2 0.9
36 -2 -27 2.7 0.8
-36 2 26 25.6 2.1
-36 -2 26 27.5 2.2
36 -2 -26 24.6 2.2
36 2 -26 30.1 2.3
-36 2 25 8.5 1.1
-36 -2 25 10.7 1.3
36 -2 -25 10.6 1.4
36 2 -25 10.7 1.4
36 2 -23 -1.4 0.9
-36 -2 23 0.2 0.7
-36 2 22 221.08 10.7
-36 -2 22 214.98 10.7
36 -2 -22 220.58 10.9
36 2 -22 208.68 10.8
-36 2 21 25 2
-36 -2 21 28.4 2.1
36 -2 -21 28.7 2.3
36 2 -21 27.5 2.3
-36 2 20 217.68 11.3
-36 -2 20 249.88 11.3
36 -2 -20 236.98 11.5
36 2 -20 212.88 11.3
-36 2 19 21.3 1.8
-36 -2 19 22.9 1.9
36 -2 -19 23.6 2
36 2 -19 23.2 2
-36 2 18 130.09 7.4
-36 -2 18 149.39 7.5
36 -2 -18 143.99 7.7
36 2 -18 155.48 7.7
-36 -2 17 38.9 2.7
36 -2 -17 42.1 2.9
36 2 -17 42 2.9
-36 2 16 12.8 1.6
-36 -2 16 17.8 1.7
36 -2 -16 14.2 1.7
36 2 -16 15.7 1.8
-36 2 15 8.3 1.2
-36 -2 15 11 1.3
36 -2 -15 7.6 1.3
36 2 -15 11.3 1.4
-36 2 14 195.88 9.7
-36 -2 14 186.28 9.7
36 -2 -14 197.88 9.9
36 2 -14 194.28 9.9
-36 2 13 10.2 1.3
-36 -2 13 11.6 1.3
36 -2 -13 10.7 1.4
36 2 -13 10 1.3
-36 2 12 393.46 19
-36 -2 12 365.46 19
36 2 -12 415.76 19.3
-36 2 11 21.2 1.9
-36 -2 11 21 1.9
36 -2 -11 23.8 2.1
36 2 -11 24 2.1
-36 2 10 278.17 13.6
-36 -2 10 263.17 13.6
36 -2 -10 283.67 13.9
36 2 -10 309.57 14
-36 2 9 15.6 1.5
36 -2 -9 15.3 1.7
36 2 -9 14.1 1.6
-36 2 8 16.1 1.6
36 -2 -8 13.9 1.7
-36 2 7 13.4 1.4
36 -2 -7 11.2 1.4
-36 2 6 31.7 2.4
-36 -2 6 30.8 2.4
36 -2 -6 32.4 2.5
36 2 -6 35.9 2.6
-36 2 5 6.5 1
-36 -2 5 6.7 1
36 -2 -5 7.9 1.2
36 2 -5 7 1.2
-36 2 4 188.88 9.4
36 -2 -4 183.08 9.5
-36 2 3 4.1 0.9
36 -2 -3 4.1 1
-36 4 40 48.9 3.1
36 -4 -40 46.8 3.1
-36 4 39 49.3 3.3
36 -4 -39 59.69 3.5
36 4 -38 18.3 1.7
-36 4 38 17.3 1.6
-36 -4 38 18.5 1.7
36 -4 -38 17.4 1.7
-36 4 37 93.59 4.9
-36 -4 37 91.89 4.9
36 4 -36 63.09 3.9
-36 -4 36 69.19 4
-36 4 35 92.99 5.3
-36 -4 35 103.19 5.4
36 -4 -35 95.29 5.4
36 4 -34 8.8 1.2
-36 4 34 8.6 1.2
-36 -4 34 9.4 1.2
36 -4 -34 9.4 1.3
36 4 -33 4.3 0.9
-36 4 33 4 0.9
-36 -4 33 3.9 0.9
36 -4 -33 3 0.9
36 4 -32 42.1 2.9
-36 4 32 39.4 2.8
-36 -4 32 46.5 2.9
36 -4 -32 39.8 2.9
36 4 -31 24.6 2.1
-36 -4 31 27.6 2.1
36 -4 -31 26.3 2.2
36 4 -30 110.49 6
-36 4 30 105.19 5.9
-36 -4 30 116.49 6
36 -4 -30 106.89 6
36 4 -29 71.39 4.1
-36 4 29 64.49 4
-36 -4 29 75.09 4.1
36 -4 -29 63.69 4.1
36 4 -27 65.09 3.9
-36 4 27 62.99 3.9
-36 -4 27 66.99 3.9
36 -4 -27 63.89 4
36 4 -26 36.7 2.7
-36 4 26 32.7 2.5
-36 -4 26 40.3 2.6
36 -4 -26 37.3 2.8
36 4 -25 21.1 1.9
-36 4 25 22.4 1.8
-36 -4 25 19.9 1.8
36 -4 -25 19.4 1.9
36 4 -24 53.09 3.5
-36 4 24 55.19 3.4
-36 -4 24 52.59 3.4
36 -4 -24 54.89 3.5
36 4 -23 19.9 1.9
-36 4 23 18.2 1.7
-36 -4 23 19.1 1.8
36 -4 -23 19.9 1.9
36 4 -22 232.28 11
-36 4 22 206.68 10.7
-36 -4 22 205.58 10.8
36 -4 -22 232.28 11
-36 4 21 132.19 7
-36 -4 21 137.19 7.1
36 -4 -21 133.29 7.1
36 4 -20 116.09 6.5
-36 4 20 121.89 6.4
-36 -4 20 130.29 6.5
36 -4 -20 114.39 6.6
36 4 -19 69.19 4.3
-36 4 19 77.99 4.3
-36 -4 19 77.19 4.3
36 -4 -19 69.99 4.4
-36 4 18 96.69 5.3
36 -4 -18 93.59 5.4
-36 4 17 76.99 4.6
36 -4 -17 92.99 5
36 4 -16 4 1.2
-36 4 16 4.4 1.1
-36 -4 16 6.1 1.2
36 4 -15 1.6 0.8
-36 4 15 0.3 0.6
-36 -4 15 1 0.6
36 -4 -15 1.2 0.8
36 4 -14 52.19 3.5
-36 4 14 51.89 3.3
-36 -4 14 53.69 3.4
36 -4 -14 55.09 3.5
36 4 -13 15.8 1.7
-36 -4 13 20.2 1.7
36 4 -12 132.09 6.9
-36 -4 12 124.09 6.8
36 4 -11 70.59 4.3
-36 -4 11 69.89 4.2
36 4 -10 120.69 6.8
-36 -4 10 129.99 6.7
-36 4 9 71.09 4.2
36 -4 -9 74.09 4.4
-36 -4 9 70.49 4.2
36 4 -9 70.89 4.4
-36 4 8 26.2 2.2
36 -4 -8 33.3 2.5
-36 -4 8 32.3 2.4
36 4 -8 31.1 2.5
36 4 -7 0.9 0.8
-36 4 7 0.7 0.7
36 -4 -7 0.9 0.9
-36 -4 7 1.1 0.7
-36 4 6 3.4 0.9
36 -4 -6 5.9 1.1
-36 4 5 0.3 0.6
36 -4 -5 0.1 0.8
-36 4 4 91.29 5
36 -4 -4 84.89 5.1
-36 4 3 9.2 1.2
36 -4 -3 6.9 1.2
-36 6 33 1.8 0.7
36 -6 -33 1 0.7
-36 6 32 4.6 0.9
36 6 -32 5.6 1.1
36 -6 -32 6.4 1.1
-36 -6 32 5.6 1
36 6 -31 30.8 2.3
-36 6 31 27.5 2.1
36 -6 -31 25.3 2.2
-36 -6 31 28.4 2.2
-36 6 30 0.1 0.6
36 6 -30 0.6 0.5
36 -6 -30 0.8 0.7
-36 -6 30 0.4 0.5
36 6 -29 86.39 4.8
36 -6 -29 76.99 4.7
-36 -6 29 82.19 4.6
36 6 -28 19.3 1.9
-36 6 28 25.1 1.9
36 -6 -28 24.8 2
-36 -6 28 24.7 2
36 6 -26 21.5 1.9
-36 6 26 19.1 1.7
36 -6 -26 21 1.9
-36 -6 26 23.5 1.9
36 6 -25 41 2.9
-36 6 25 45.8 2.9
36 -6 -25 38.5 2.9
-36 -6 25 45.7 2.9
36 6 -24 25.2 2.1
-36 6 24 24.1 2
36 -6 -24 23.3 2.1
-36 -6 24 28 2.1
-36 6 23 1.5 0.7
36 6 -23 1.8 0.8
36 -6 -23 1 0.8
-36 -6 23 0.5 0.7
-36 6 22 13 1.3
36 6 -22 10.9 1.4
36 -6 -22 10.6 1.4
-36 -6 22 14.3 1.4
-36 6 21 41.8 2.9
36 6 -21 45.8 3.1
-36 -6 21 45.4 3
-36 6 20 86.79 4.9
36 6 -20 94.59 5.2
36 -6 -20 92.89 5.2
-36 -6 20 84.69 5
-36 6 19 53.09 3.4
36 -6 -19 59.89 3.7
-36 6 18 28.7 2.1
36 -6 -18 25.1 2.2
-36 6 17 81.59 4.8
36 6 -17 89.89 5.1
36 -6 -17 93.89 5.2
-36 -6 17 91.39 5
36 6 -16 0.1 0.8
36 -6 -16 1.2 0.7
-36 -6 16 -0.1 0.7
-36 6 15 26.5 2.1
36 6 -15 25.3 2.2
36 -6 -15 29.5 2.3
-36 -6 15 27.6 2.2
-36 6 14 16.7 1.6
36 6 -14 20 1.8
36 -6 -14 20.8 1.9
-36 -6 14 21.3 1.8
-36 6 13 -0.3 0.6
36 6 -13 -0.1 0.8
36 -6 -13 1 0.9
-36 -6 13 0.5 0.7
-36 6 12 0.8 0.7
36 6 -12 1.6 0.9
36 -6 -12 1.3 0.9
-36 -6 12 1.9 0.8
36 6 -11 54.49 3.7
-36 -6 11 63.89 3.7
36 6 -10 29.8 2.4
36 8 -20 2.2 0.7
-36 -8 20 0.5 0.5
36 8 -19 36.9 2.7
-36 -8 19 40.9 2.7
36 8 -18 6.7 1.1
-36 -8 18 6.2 1.1
36 8 -17 23 1.9
-36 -8 17 19.7 1.8
36 8 -16 14.1 1.6
-36 -8 16 15 1.5
36 8 -15 2.1 0.8
-36 -8 15 2.2 0.8
-37 1 42 48.2 2.9
-37 -1 42 38.9 2.8
37 -1 -42 39.5 2.9
37 1 -42 46 3
-37 1 41 12.3 1.3
-37 -1 41 12.7 1.3
37 -1 -41 10.7 1.3
37 1 -41 10 1.3
-37 1 40 83.49 4.8
-37 -1 40 88.89 4.9
37 -1 -40 97.29 5.1
37 1 -40 80.79 4.9
-37 -1 39 15.6 1.5
37 1 -39 17 1.7
-37 1 38 33.7 2.4
-37 -1 38 33.7 2.3
37 -1 -38 33.7 2.5
37 1 -38 27.9 2.3
-37 1 37 -0.1 0.7
-37 -1 37 -0.7 0.7
37 -1 -37 1.5 0.8
37 1 -37 -0.5 0.8
-37 1 36 6.8 1
-37 -1 36 8 1.1
37 -1 -36 8.1 1.2
37 1 -36 7.1 1.1
-37 1 35 1.3 0.7
-37 -1 35 1 0.7
37 -1 -35 0.7 0.7
37 1 -35 2.3 0.9
-37 1 34 45.6 2.9
-37 -1 34 43.8 2.8
37 -1 -34 43.3 3
37 1 -34 37.7 2.9
-37 -1 33 9 1.1
37 1 -33 7.2 1.1
-37 1 32 167.58 8.4
37 -1 -32 159.68 8.5
-37 1 31 2.5 0.7
-37 -1 31 3.7 0.9
37 -1 -31 2.9 0.8
37 1 -31 2.2 0.9
-37 1 30 107.19 5.7
-37 -1 30 95.69 5.6
37 -1 -30 101.69 5.8
37 1 -30 111.89 5.8
-37 1 29 61.09 3.6
-37 -1 29 53.99 3.5
37 -1 -29 51.39 3.6
37 1 -29 64.49 3.8
-37 1 28 23.8 2
-37 -1 28 22.8 1.9
37 -1 -28 23.5 2.1
37 1 -28 24.7 2.1
-37 1 27 0.6 0.6
-37 -1 27 -0.1 0.6
37 -1 -27 1.3 0.8
37 1 -27 0.6 0.7
-37 1 26 2.2 0.7
-37 -1 26 3 0.9
37 -1 -26 1.4 0.8
37 1 -26 2.2 0.8
-37 1 25 -0.1 0.5
-37 -1 25 0.2 0.6
37 -1 -25 -0.4 0.6
37 1 -25 0.6 0.7
-37 1 24 102.49 5.9
-37 -1 24 109.29 6
37 -1 -24 117.89 6.2
37 1 -24 120.19 6.2
-37 -1 22 295.17 14.2
37 1 -22 295.47 14.4
-37 1 21 8.1 1.1
-37 -1 21 8.9 1.2
37 -1 -21 10.1 1.3
37 1 -21 7.6 1.3
-37 1 20 215.38 11
37 1 -20 208.18 11.1
-37 1 19 24.2 2
-37 -1 19 26.5 2.1
37 -1 -19 27.4 2.3
37 1 -19 29.8 2.4
-37 1 18 37.1 2.5
-37 -1 18 33.6 2.4
37 -1 -18 30.9 2.6
37 1 -18 35.8 2.6
-37 1 17 10.6 1.3
-37 -1 17 9.6 1.2
37 -1 -17 9 1.4
37 1 -17 9.8 1.4
-37 1 16 79.69 4.5
-37 -1 16 76.99 4.4
37 -1 -16 80.79 4.7
37 1 -16 72.89 4.6
-37 1 15 43.1 2.8
-37 -1 15 38.8 2.8
37 -1 -15 41.7 3
37 1 -15 45.7 3.1
-37 1 14 311.67 15.4
-37 -1 14 296.67 15.4
37 -1 -14 349.47 15.8
37 1 -14 344.77 15.7
-37 1 13 1.8 1
-37 -1 13 4 1
37 -1 -13 2.3 1.1
37 1 -13 2.9 1
-37 1 12 607.64 27.9
-37 -1 12 593.94 27.9
37 -1 -12 621.14 28.1
37 1 -12 578.04 28.1
-37 1 11 45 3
-37 -1 11 48.2 3
37 -1 -11 43.6 3.1
37 1 -11 44.8 3.2
-37 -1 10 97.99 5.4
37 -1 -10 105.09 5.7
37 1 -10 110.79 5.7
-37 1 9 4.7 0.9
-37 -1 9 4.9 0.9
37 -1 -9 7.4 1.2
37 1 -9 7.7 1.2
-37 1 8 10.5 1.3
-37 -1 8 8.9 1.2
37 -1 -8 12.2 1.5
37 1 -8 13.3 1.5
-37 1 7 3.9 0.9
-37 -1 7 3.9 0.9
37 -1 -7 2.9 0.9
37 1 -7 3.2 0.9
-37 1 6 154.08 8.2
37 -1 -6 169.18 8.5
-37 1 5 8.3 1.2
37 -1 -5 9.3 1.4
-37 1 4 395.76 18.7
37 -1 -4 390.96 18.9
-37 3 40 32.3 2.4
37 -3 -40 34.3 2.5
-37 3 39 99.39 5.5
-37 -3 39 99.49 5.5
37 -3 -39 115.69 5.8
37 3 -39 97.69 5.6
-37 3 38 39.7 2.8
-37 -3 38 42.1 2.8
37 -3 -38 38.4 2.9
37 3 -38 45.4 2.9
-37 3 37 56.59 3.7
-37 -3 37 72.59 3.9
37 -3 -37 64.79 3.9
37 3 -37 63.59 3.9
-37 3 36 38.3 2.8
-37 -3 36 44.3 2.9
37 -3 -36 42 2.9
37 3 -36 47.8 3
37 3 -35 9.5 1.2
-37 3 35 11.3 1.3
-37 -3 35 10 1.2
37 -3 -35 9.6 1.3
37 3 -34 2.9 0.9
-37 3 34 5.1 0.9
-37 -3 34 3.7 0.9
37 -3 -34 4.4 1
-37 3 33 44 2.8
-37 -3 33 36.6 2.7
37 -3 -33 44.5 3
37 3 -33 43.1 2.9
-37 3 32 96.59 5.1
-37 -3 32 93.29 5.1
37 3 -32 84.29 5.1
-37 3 31 62.29 3.6
-37 -3 31 54.69 3.6
37 -3 -31 59.59 3.7
37 3 -31 56.39 3.7
-37 3 30 156.18 7.7
-37 -3 30 170.68 7.8
37 -3 -30 131.89 7.7
37 3 -30 137.59 7.7
-37 3 28 99.89 5.3
-37 -3 28 96.09 5.3
37 -3 -28 101.49 5.5
37 3 -28 91.89 5.4
-37 3 27 33.9 2.5
-37 -3 27 35.2 2.5
37 -3 -27 38.5 2.7
37 3 -27 28.5 2.4
37 3 -26 2.9 0.9
-37 3 26 3.3 0.8
-37 -3 26 2.3 0.8
37 -3 -26 4.1 1
37 3 -25 2.2 0.9
-37 3 25 2.6 0.8
-37 -3 25 3 0.9
37 -3 -25 4.6 1.1
-37 3 24 131.09 6.5
-37 -3 24 110.09 6.3
37 -3 -24 119.59 6.5
37 3 -24 122.39 6.5
-37 3 23 18.3 1.6
-37 -3 23 18.2 1.7
37 -3 -23 15.9 1.7
37 3 -23 18.3 1.7
-37 3 22 230.88 10.4
-37 -3 22 218.68 10.4
37 -3 -22 185.38 10.4
37 3 -22 197.08 10.4
-37 3 21 147.69 7.2
-37 -3 21 144.59 7.3
37 -3 -21 144.79 7.4
-37 3 20 201.98 10.3
-37 -3 20 214.88 10.4
37 -3 -20 204.98 10.5
37 3 -20 215.88 10.6
-37 3 19 129.49 7
37 -3 -19 141.79 7.3
-37 3 18 26.3 2.1
37 -3 -18 30.5 2.3
-37 -3 17 11.5 1.4
37 3 -17 14.2 1.6
-37 -3 16 21.3 1.9
37 3 -16 22.8 2
37 3 -15 3.4 0.9
-37 -3 15 1.8 0.7
-37 3 14 357.06 16.3
-37 -3 14 340.37 16.3
37 -3 -14 333.57 16.4
37 3 -14 325.07 16.4
37 3 -13 2.7 0.9
-37 3 13 1.3 0.8
-37 -3 13 2.3 0.9
37 -3 -13 1.9 1
-37 3 12 193.08 9.5
-37 -3 12 197.28 9.5
37 -3 -12 199.28 9.7
37 3 -12 163.78 9.5
-37 3 11 50.19 3.2
-37 -3 11 49.6 3.2
37 -3 -11 44.8 3.3
37 3 -11 54.09 3.4
-37 3 10 83.09 4.6
-37 -3 10 76.99 4.6
37 -3 -10 86.19 4.8
37 3 -10 73.99 4.7
-37 3 9 44.4 3
-37 -3 9 49.6 3.1
37 -3 -9 45.3 3.2
37 3 -9 48.4 3.3
-37 3 8 0.7 0.6
-37 -3 8 0.3 0.6
37 -3 -8 0.7 0.8
37 3 -8 0.9 0.8
-37 3 7 1.7 0.7
-37 -3 7 0.8 0.7
37 -3 -7 1.1 0.9
37 3 -7 1.8 0.9
-37 3 6 67.79 4.1
37 -3 -6 69.39 4.3
-37 3 5 5.8 1
37 -3 -5 6.3 1.2
-37 3 4 70.79 4.3
37 -3 -4 81.29 4.7
-37 5 35 35.5 2.5
37 -5 -35 35.8 2.6
37 5 -34 1.8 0.8
-37 5 34 2.5 0.8
-37 -5 34 2.9 0.8
37 -5 -34 1.5 0.8
37 5 -33 11.6 1.3
-37 5 33 9.9 1.3
37 -5 -33 11.4 1.4
-37 -5 33 10.5 1.2
37 5 -32 16.6 1.6
-37 5 32 17.2 1.6
37 -5 -32 20.3 1.8
-37 -5 32 20.4 1.7
37 5 -31 15.7 1.6
-37 5 31 13.4 1.4
37 -5 -31 15.8 1.6
-37 -5 31 16.8 1.6
37 5 -29 87.79 5
-37 5 29 85.59 4.9
37 -5 -29 91.79 5.1
-37 -5 29 93.29 5
37 5 -28 3.9 1
-37 5 28 4.2 0.9
-37 -5 28 3.5 0.9
37 -5 -28 3.6 0.9
37 5 -27 57.39 3.7
-37 5 27 63.59 3.7
37 -5 -27 57.99 3.7
-37 -5 27 56.49 3.6
-37 5 26 16.7 1.5
37 5 -26 10.8 1.4
37 -5 -26 13 1.5
-37 -5 26 17.3 1.6
37 5 -25 10.3 1.3
-37 5 25 11.3 1.3
-37 -5 25 10.1 1.3
37 -5 -25 8.8 1.3
37 5 -24 6.9 1.1
-37 5 24 7.3 1
37 -5 -24 5.4 1
-37 -5 24 9.4 1.1
37 5 -23 26.1 2.2
-37 5 23 29.5 2.2
37 -5 -23 27 2.2
-37 -5 23 26.7 2.1
-37 5 22 46.3 3
37 -5 -22 44.1 3.1
37 5 -21 179.08 9.1
-37 5 21 178.88 8.9
37 -5 -21 163.98 9
-37 -5 21 186.98 9
37 5 -20 89.89 5
-37 -5 20 81.29 4.8
37 5 -19 78.99 4.7
-37 -5 19 79.49 4.6
37 5 -18 15.6 1.6
-37 5 18 15.3 1.6
37 -5 -18 16 1.7
-37 -5 18 16.7 1.6
37 5 -17 19 1.8
37 -5 -17 19.7 1.8
-37 -5 17 16.7 1.6
37 5 -16 14 1.6
-37 5 16 16.2 1.5
37 -5 -16 18.2 1.8
-37 -5 16 15.4 1.6
37 5 -15 15.7 1.7
-37 5 15 15.5 1.5
37 -5 -15 16.8 1.7
-37 -5 15 18 1.7
-37 5 14 12.9 1.3
37 5 -14 9.3 1.3
37 -5 -14 12.5 1.5
-37 -5 14 15.2 1.5
37 5 -13 15.4 1.6
-37 5 13 13 1.4
37 -5 -13 16.6 1.7
-37 -5 13 13.3 1.5
37 5 -12 28.5 2.4
-37 5 12 32.7 2.3
37 -5 -12 30.3 2.5
-37 -5 12 29.3 2.3
37 5 -11 102.09 5.7
-37 5 11 99.09 5.5
37 -5 -11 104.39 5.8
-37 -5 11 102.39 5.6
37 5 -10 27.8 2.3
-37 5 10 26.3 2.1
37 -5 -10 29.3 2.4
-37 -5 10 31.4 2.3
-37 5 9 46.4 3
37 -5 -9 45.9 3.2
-37 5 8 4.5 0.9
37 -5 -8 6.2 1.1
-37 5 7 2.6 0.8
37 -5 -7 3.6 1.1
-37 5 6 22.2 1.9
37 -5 -6 21.4 2
-37 5 5 11.6 1.3
37 -5 -5 12.9 1.6
37 7 -25 1.2 0.8
-37 -7 25 1.5 0.8
-37 7 24 5.1 0.9
37 7 -24 7.1 1.2
37 -7 -24 5.5 1
-37 -7 24 5.2 1
-37 7 23 37.4 2.5
37 7 -23 39.8 2.7
37 -7 -23 34 2.5
-37 -7 23 31.5 2.4
-37 7 22 6.5 1
37 7 -22 5 1.1
37 -7 -22 4.7 1
-37 -7 22 4.8 1
-37 7 21 25.4 1.9
37 7 -21 24.4 2.1
37 -7 -21 24.4 2
-37 -7 21 22.3 1.9
-37 7 20 13.9 1.4
37 7 -20 15.8 1.6
37 -7 -20 13.7 1.5
-37 -7 20 11.3 1.4
-37 7 19 38.1 2.6
37 -7 -19 32.6 2.6
-37 7 18 2.3 0.7
37 -7 -18 3.4 1
-37 7 17 24.1 2
37 7 -17 22.4 2
37 -7 -17 28.9 2.3
-37 -7 17 25.9 2
-37 7 16 2 0.8
37 7 -16 1.3 0.8
37 -7 -16 2.2 0.8
-37 -7 16 1.6 0.7
-37 7 15 1.7 0.6
37 7 -15 1.9 0.9
37 -7 -15 2.8 0.9
-37 -7 15 2.5 0.8
-37 7 14 1.1 0.7
37 7 -14 0.6 0.7
37 -7 -14 0.8 0.9
-37 -7 14 0.6 0.6
-37 7 13 34.6 2.4
37 -7 -13 34 2.6
-37 7 12 0.3 0.5
37 -7 -12 2 0.8
-37 7 11 49.8 3.2
37 -7 -11 54.39 3.5
-37 7 10 9.3 1.2
37 -7 -10 9.6 1.4
-37 7 9 13.1 1.4
37 -7 -9 16.9 1.8
-37 7 8 0.9 0.7
37 -7 -8 1.7 0.9
-37 7 7 1.9 0.9
37 -7 -7 2.2 0.9
-37 7 6 4.6 0.9
37 -7 -6 4.3 1.1
-38 0 41 0.5 0.7
38 0 -41 0.1 0.7
-38 0 40 75.89 4.4
38 0 -40 78.39 4.5
-38 0 39 0.9 0.7
38 0 -39 -0.2 0.7
-38 0 38 51.19 3.2
38 0 -38 49.99 3.3
-38 0 37 0.2 0.7
38 0 -37 0.3 0.7
-38 0 36 6.6 1.1
38 0 -36 7.9 1.2
-38 0 35 -0.1 0.6
38 0 -35 -0.1 0.6
-38 0 34 117.29 6.3
38 0 -34 118.99 6.4
-38 0 33 0.3 0.7
38 0 -33 0.3 0.8
-38 0 32 154.58 7.5
38 0 -32 132.69 7.5
-38 0 30 92.69 5.1
38 0 -30 90.19 5.2
-38 0 29 0.4 0.6
38 0 -29 0.5 0.6
-38 0 28 7.2 1.1
38 0 -28 8.4 1.3
-38 0 27 0.1 0.5
38 0 -27 0.8 0.7
-38 0 26 54.39 3.5
38 0 -26 58.39 3.7
-38 0 25 0.2 0.7
38 0 -25 -0.2 0.8
-38 0 24 366.56 15.8
38 0 -24 287.27 15.7
-38 0 23 0.4 0.7
38 0 -23 0.1 0.8
-38 0 22 439.06 19.6
38 0 -22 386.96 19.7
-38 0 19 0.2 0.5
38 0 -19 1.2 0.7
-38 0 18 5.5 1.2
38 0 -18 6.7 1.5
-38 0 17 0.4 0.6
38 0 -17 0.6 0.7
-38 0 16 232.38 11.1
38 0 -16 212.08 11.2
-38 0 15 0.1 0.6
38 0 -15 -0.1 0.7
-38 0 14 660.73 31.1
38 0 -14 686.83 31.4
-38 0 13 -0.3 0.7
38 0 -13 0.4 0.9
-38 0 12 395.16 18.8
38 0 -12 396.26 19
-38 0 11 -0.1 0.6
38 0 -11 -0.1 0.9
-38 0 10 3.2 1
38 0 -10 3.2 1.1
-38 0 9 -0.1 0.6
38 0 -9 0.3 0.8
-38 0 8 88.79 5.1
38 0 -8 93.29 5.3
-38 0 7 -0.1 0.6
38 0 -7 0.1 0.8
-38 0 6 307.57 15.1
38 0 -6 324.57 15.4
38 -2 -40 95.69 5.4
-38 2 39 47.6 3
-38 -2 39 46.3 3
38 -2 -39 48.4 3.1
38 2 -39 42 3
-38 2 38 80.59 4.5
-38 -2 38 80.99 4.5
38 -2 -38 83.79 4.7
38 2 -38 69.89 4.5
-38 2 37 17.6 1.6
-38 -2 37 18.2 1.6
38 -2 -37 15.3 1.6
38 2 -37 20.9 1.8
-38 2 36 1.9 0.8
38 -2 -36 2.2 0.9
38 2 -35 0.1 0.7
-38 2 35 0.5 0.7
-38 -2 35 0.1 0.6
38 -2 -35 0.1 0.7
-38 2 34 190.18 9.6
-38 -2 34 211.08 9.7
38 -2 -34 181.68 9.7
38 2 -34 185.88 9.7
-38 2 33 43.3 2.9
38 -2 -33 40.7 3
38 2 -33 42.8 3
-38 2 32 188.18 9.1
-38 -2 32 180.18 9.1
38 -2 -32 176.38 9.2
38 2 -32 177.18 9.2
-38 2 31 72.59 4.4
-38 -2 31 88.89 4.6
38 -2 -31 68.89 4.5
38 2 -31 84.49 4.6
-38 -2 30 65.49 4
38 2 -30 70.19 4.2
-38 2 28 15.4 1.6
-38 -2 28 17.6 1.7
38 -2 -28 15.9 1.7
38 2 -28 16.9 1.8
38 2 -27 1.8 0.9
-38 2 27 1.2 0.6
-38 -2 27 1 0.7
38 -2 -27 2.2 0.7
-38 2 26 29.5 2.4
-38 -2 26 35.7 2.5
38 -2 -26 30.8 2.5
38 2 -25 3.5 1
-38 2 25 2.4 0.8
-38 -2 25 4.8 0.9
38 -2 -25 4 1
-38 2 24 170.38 8.8
-38 -2 24 171.68 8.8
38 -2 -24 176.58 9
38 2 -24 179.18 9
-38 2 23 12.7 1.4
-38 -2 23 11.4 1.4
38 -2 -23 15.5 1.6
38 2 -23 14.3 1.6
-38 2 22 315.27 15.9
-38 -2 22 357.26 16.1
38 -2 -22 316.77 16.1
38 2 -22 352.16 16.2
-38 2 21 97.59 5.6
-38 -2 21 98.49 5.6
38 -2 -21 103.89 5.8
38 2 -21 113.69 5.9
-38 2 20 86.89 5.1
-38 -2 20 99.29 5.2
38 -2 -20 87.09 5.3
38 2 -20 94.09 5.3
38 -2 -19 36.4 2.7
-38 2 18 37.3 2.7
38 -2 -18 41.2 2.9
-38 -2 17 2.1 0.8
38 2 -17 2 0.9
-38 -2 16 59.99 3.8
38 2 -16 70.29 4.1
-38 2 15 1.1 0.7
-38 -2 15 0.4 0.7
38 -2 -15 1 0.8
38 2 -15 -0.4 0.8
-38 2 14 472.15 23.6
-38 -2 14 514.35 23.7
38 -2 -14 494.85 23.9
38 2 -14 554.84 24
-38 2 13 0.8 0.7
-38 -2 13 1 0.7
38 -2 -13 0.5 0.8
38 2 -13 0.2 0.8
-38 2 12 138.29 7.1
-38 -2 12 121.29 7
38 -2 -12 142.29 7.4
38 2 -12 146.29 7.4
-38 2 11 18.8 1.6
-38 -2 11 18.6 1.6
38 -2 -11 14.2 1.6
38 2 -11 15.8 1.7
-38 2 10 22.4 1.9
-38 -2 10 21.8 1.9
38 -2 -10 18.2 2
38 2 -10 21.4 2.1
-38 2 9 17.9 1.6
-38 -2 9 16.6 1.6
38 -2 -9 16.6 1.8
38 2 -9 19.1 1.8
-38 2 8 46.3 3.1
-38 -2 8 48.3 3.2
38 -2 -8 52.19 3.4
38 2 -8 47.2 3.3
-38 2 7 9.5 1.2
-38 -2 7 7.2 1.1
38 -2 -7 8.7 1.3
38 2 -7 7.4 1.3
-38 2 6 271.37 13.3
38 -2 -6 273.67 13.5
-38 2 5 1.8 0.7
38 -2 -5 1.8 0.9
-38 4 37 14.2 1.5
38 -4 -37 14.7 1.5
-38 4 36 2.2 0.8
-38 -4 36 1.7 0.8
38 -4 -36 2.1 0.9
38 4 -35 0.8 0.5
-38 4 35 0.8 0.7
-38 -4 35 0.6 0.5
38 -4 -35 0.8 0.7
38 4 -34 14.8 1.5
-38 4 34 14.3 1.5
-38 -4 34 13.5 1.4
38 -4 -34 12.1 1.4
38 4 -33 16 1.5
-38 4 33 14.1 1.4
-38 -4 33 13.9 1.4
38 -4 -33 14.6 1.5
38 4 -32 18.1 1.7
-38 -4 32 18.7 1.6
38 4 -31 47.6 3.2
-38 4 31 47.1 3.1
-38 -4 31 52.79 3.2
38 -4 -31 50.79 3.3
38 4 -30 83.09 4.7
-38 4 30 80.49 4.6
-38 -4 30 81.99 4.7
38 -4 -30 79.59 4.7
38 4 -29 30.5 2.3
-38 4 29 28.9 2.1
-38 -4 29 24.8 2.1
38 -4 -29 24.4 2.1
38 4 -28 13.6 1.5
-38 4 28 11.2 1.3
-38 -4 28 14.5 1.4
38 -4 -28 10.3 1.3
38 4 -27 23.7 2.1
-38 4 27 30.4 2.2
-38 -4 27 29.8 2.2
38 -4 -27 29 2.3
38 4 -26 15.3 1.6
-38 4 26 15 1.6
-38 -4 26 18.1 1.6
38 -4 -26 17.4 1.8
38 4 -25 2.3 0.8
-38 4 25 1.9 0.8
-38 -4 25 1 0.6
38 -4 -25 2.5 0.9
-38 4 24 66.89 3.9
38 -4 -24 61.39 3.9
38 4 -23 59.49 3.6
-38 -4 23 55.39 3.5
38 4 -22 141.99 8
-38 -4 22 168.38 8.1
38 4 -21 116.09 6.2
-38 4 21 106.19 5.9
-38 -4 21 112.49 6
38 -4 -21 114.89 6.2
38 4 -20 73.39 4.5
-38 4 20 78.49 4.5
-38 -4 20 87.39 4.6
38 -4 -20 70.39 4.5
38 4 -19 61.29 3.8
-38 4 19 64.79 3.7
-38 -4 19 57.89 3.7
38 -4 -19 62.89 3.9
38 4 -18 1 0.9
-38 4 18 0.8 0.7
-38 -4 18 1.4 0.8
38 4 -17 18.1 1.7
-38 4 17 17.9 1.6
-38 -4 17 13.4 1.5
38 -4 -17 18.1 1.7
38 4 -16 93.89 5.4
-38 4 16 92.99 5.3
-38 -4 16 107.99 5.4
38 -4 -16 87.09 5.4
38 4 -15 0.9 0.7
-38 4 15 0.9 0.7
-38 -4 15 -0.1 0.5
38 -4 -15 0.5 0.7
-38 4 14 79.89 4.6
-38 -4 14 77.49 4.6
38 -4 -14 77.79 4.7
38 4 -14 82.19 4.7
-38 -4 13 60.49 3.8
38 -4 -13 63.29 3.9
38 4 -13 53.49 3.8
-38 4 12 58.09 3.5
38 -4 -12 53.09 3.6
-38 4 11 94.29 5.3
38 -4 -11 98.69 5.5
-38 4 10 9.5 1.3
-38 -4 10 10.6 1.3
38 -4 -10 10.2 1.5
38 4 -10 12.7 1.6
-38 4 9 28 2.2
38 -4 -9 33.3 2.5
-38 4 8 4.4 0.9
38 -4 -8 3.9 1.1
-38 4 7 3.4 0.9
38 -4 -7 3.2 1
-38 4 6 62.19 3.7
38 -4 -6 58.99 3.9
-38 4 5 13.5 1.5
38 -4 -5 28.2 2.1
38 6 -29 118.09 6.2
-38 6 29 106.29 6
38 -6 -29 117.69 6.2
-38 -6 29 117.39 6.1
-38 6 28 1 0.6
38 -6 -28 1.4 0.7
-38 -6 28 2.6 0.8
-38 6 27 0.7 0.6
38 6 -27 0.6 0.7
38 -6 -27 0.4 0.6
-38 -6 27 -0.1 0.6
-38 6 26 4.1 0.9
38 -6 -26 5.5 1
-38 -6 26 5.2 1
-38 6 25 5.8 1
38 6 -25 6.2 1.1
38 -6 -25 4.5 1
-38 -6 25 6.1 1
-38 6 24 4.2 0.9
38 6 -24 5 1
38 -6 -24 5.2 1
-38 -6 24 4.4 0.9
-38 6 23 61.19 3.5
38 -6 -23 52.49 3.6
-38 6 22 4.4 0.9
38 6 -22 4.8 1.1
38 -6 -22 4.9 1
-38 -6 22 3.9 0.9
38 6 -21 63.99 4
-38 -6 21 63.69 3.9
38 6 -20 4.2 1
-38 -6 20 3.8 0.9
38 6 -19 46.4 3.1
-38 6 19 47 3
38 -6 -19 41.2 3
-38 -6 19 46 3
38 6 -18 2.4 0.9
38 -6 -18 1.4 0.8
-38 -6 18 0.8 0.6
-38 6 17 6.6 1
38 6 -17 5.6 1.1
38 -6 -17 5.4 1.1
-38 -6 17 7.3 1.1
-38 6 16 1.2 0.7
38 6 -16 2.2 0.9
38 -6 -16 1.8 0.9
-38 -6 16 1.3 0.7
-38 6 15 4.3 0.8
38 6 -15 5.3 1
38 -6 -15 6.4 1
-38 -6 15 4.4 0.9
38 6 -14 12.1 1.5
-38 6 14 10.4 1.2
38 -6 -14 7.5 1.3
-38 -6 14 10.7 1.3
-38 6 13 20.5 1.8
38 -6 -13 24.1 2.1
-38 6 12 15.5 1.5
38 -6 -12 12.3 1.6
-38 6 11 44.5 3
38 -6 -11 52.69 3.3
-38 6 10 5.7 1
38 -6 -10 5.4 1
-38 6 9 7.9 1.1
38 -6 -9 6.7 1.2
-38 6 8 0.1 0.6
38 -6 -8 0.4 0.7
-38 6 7 2.8 0.8
38 -6 -7 3 0.9
39 -1 -40 50.29 3.3
-39 1 39 13.2 1.4
-39 -1 39 10.8 1.3
39 1 -39 13.2 1.5
-39 1 38 6.9 1.1
-39 -1 38 7 1
39 -1 -38 5.5 1.1
39 1 -38 4.7 0.9
-39 1 37 37.1 2.4
-39 -1 37 28.8 2.3
39 -1 -37 33.9 2.5
39 1 -37 32.1 2.4
-39 -1 36 39.6 2.6
39 1 -36 33.9 2.6
-39 1 35 3.9 0.9
-39 -1 35 3.5 0.7
39 -1 -35 3.4 0.9
39 1 -35 4 0.8
-39 1 34 171.38 8.4
-39 -1 34 146.39 8.3
39 -1 -34 155.08 8.5
-39 1 33 43.3 2.9
-39 -1 33 46.8 3
39 -1 -33 46.7 3.1
39 1 -33 40.6 3
-39 1 32 168.18 8.8
-39 -1 32 187.48 8.9
39 -1 -32 172.78 9
39 1 -32 173.78 9
-39 1 31 20 1.7
-39 -1 31 16.8 1.6
39 -1 -31 16.1 1.7
39 1 -31 18.4 1.7
-39 1 30 9.1 1.2
-39 -1 30 11 1.2
39 -1 -30 9.3 1.2
39 1 -30 8.6 1.2
-39 1 28 10.1 1.2
-39 -1 28 11.4 1.2
39 -1 -28 9.7 1.3
39 1 -28 10.2 1.3
-39 1 27 2.1 0.7
-39 -1 27 2.6 0.8
39 -1 -27 1.5 0.8
39 1 -27 2.7 0.9
-39 1 26 167.38 8.9
-39 -1 26 180.78 9
39 -1 -26 182.98 9.2
39 1 -26 183.88 9.2
-39 1 25 2.3 0.8
-39 -1 25 4.2 0.8
39 -1 -25 1.9 0.9
39 1 -25 3.6 0.9
-39 1 24 273.37 13.4
-39 -1 24 264.37 13.4
39 1 -24 257.17 13.5
-39 1 23 52.69 3.4
-39 -1 23 52.19 3.4
39 -1 -23 59.59 3.7
39 1 -23 57.59 3.6
-39 1 22 206.78 10
-39 -1 22 194.98 9.9
39 -1 -22 201.48 10.1
39 1 -22 192.68 10.1
-39 1 21 10.5 1.3
-39 -1 21 8.3 1.1
39 -1 -21 8.9 1.3
39 1 -21 11.1 1.4
-39 1 20 3.9 0.8
-39 -1 20 3 0.8
39 -1 -20 2.2 0.8
39 1 -20 3.7 1
-39 1 19 4 0.9
-39 -1 19 6 1
39 -1 -19 4.9 1.2
39 1 -19 4 1
-39 1 18 131.19 6.9
-39 -1 18 123.19 6.8
39 -1 -18 128.39 7.1
39 1 -18 145.79 7.2
-39 1 17 0.3 0.7
39 -1 -17 0.1 0.8
-39 -1 16 224.38 11.3
39 1 -16 234.18 11.5
-39 -1 15 0.6 0.7
39 1 -15 -0.1 0.8
-39 1 14 309.07 14.7
-39 -1 14 312.27 14.7
39 -1 -14 326.17 15
39 1 -14 272.07 14.8
-39 1 13 1.1 0.7
-39 -1 13 1.7 0.7
39 -1 -13 1.8 0.9
39 1 -13 2 0.9
-39 1 12 51.89 3.4
-39 -1 12 56.79 3.5
39 -1 -12 57.89 3.7
39 1 -12 53.59 3.6
-39 1 11 16.1 1.6
-39 -1 11 17.7 1.6
39 -1 -11 18.5 1.8
39 1 -11 15 1.8
-39 1 10 0.3 0.5
-39 -1 10 0.5 0.6
39 -1 -10 0.4 0.7
39 1 -10 0.7 0.7
-39 1 9 8.5 1.1
-39 -1 9 7.5 1.1
39 -1 -9 10.3 1.4
39 1 -9 9.3 1.3
-39 1 8 208.98 10.8
-39 -1 8 221.78 10.9
39 -1 -8 213.78 11
39 1 -8 232.38 11.2
-39 1 7 -0.2 0.7
39 -1 -7 0.1 0.9
-39 3 37 18.7 1.7
-39 -3 37 18.8 1.7
39 -3 -37 17 1.7
39 3 -37 19.5 1.8
39 3 -36 6.1 1
-39 3 36 7.5 1.1
-39 -3 36 6.2 1
39 -3 -36 6.2 1.1
39 3 -35 1.5 0.8
-39 3 35 1 0.6
-39 -3 35 1.5 0.8
39 -3 -35 1.3 0.7
-39 3 34 46.1 2.8
-39 -3 34 40.3 2.8
39 -3 -34 42.4 2.9
39 3 -34 39.1 2.8
-39 -3 33 48.4 3.1
39 3 -33 47.5 3.1
-39 3 32 103.59 5.4
-39 -3 32 94.49 5.3
39 -3 -32 92.79 5.4
39 3 -32 99.49 5.5
-39 3 31 129.09 6.6
-39 -3 31 128.39 6.7
39 -3 -31 121.79 6.7
39 3 -31 122.59 6.7
-39 3 30 39.7 2.7
-39 -3 30 42.2 2.8
39 -3 -30 37.6 2.9
-39 3 29 30.2 2.2
-39 -3 29 26.3 2.1
39 -3 -29 29.6 2.3
39 3 -29 26.1 2.2
39 3 -28 2.1 0.7
-39 3 28 1.5 0.7
-39 -3 28 1.9 0.7
39 -3 -28 1 0.7
39 3 -27 1.2 0.6
-39 3 27 1.1 0.6
-39 -3 27 0.8 0.6
39 -3 -27 1 0.7
-39 3 26 70.99 4.2
-39 -3 26 69.69 4.2
39 -3 -26 81.49 4.5
39 3 -26 72.79 4.3
-39 -3 24 222.38 11.1
39 3 -24 226.08 11.2
-39 3 23 136.09 6.8
-39 -3 23 137.49 6.8
39 -3 -23 128.89 6.9
-39 3 22 123.89 6.7
-39 -3 22 139.09 6.8
39 -3 -22 125.49 6.9
39 3 -22 120.79 6.8
-39 3 21 85.59 4.7
-39 -3 21 69.29 4.5
39 -3 -21 83.39 4.8
39 3 -21 86.69 4.8
-39 3 20 24.5 1.9
-39 -3 20 22.9 1.9
39 -3 -20 24.5 2.1
39 3 -20 19.2 1.9
-39 3 19 37.1 2.7
-39 -3 19 39.1 2.7
39 -3 -19 42.2 3
39 3 -19 40.3 2.9
-39 3 18 53.19 3.4
-39 -3 18 51.79 3.4
39 -3 -18 58.59 3.6
39 3 -18 54.49 3.6
39 3 -17 9.5 1.3
-39 3 17 8.9 1.2
-39 -3 17 9.2 1.2
39 -3 -17 7.7 1.2
-39 3 16 98.59 5.6
-39 -3 16 102.59 5.7
39 -3 -16 112.99 5.9
39 3 -16 102.79 5.8
39 3 -15 3 0.9
-39 3 15 2.6 0.8
-39 -3 15 2.7 0.8
39 -3 -15 3.1 0.9
-39 3 14 194.58 9.6
-39 -3 14 196.38 9.7
39 -3 -14 202.18 9.8
39 3 -14 170.18 9.7
-39 3 13 65.99 4
39 -3 -13 67.29 4.2
-39 3 12 89.39 5.4
39 -3 -12 112.99 5.8
-39 3 11 31.6 2.3
-39 -3 11 27.6 2.3
39 -3 -11 31.6 2.5
39 3 -11 32.2 2.5
-39 3 10 2.1 0.8
-39 -3 10 2.5 0.8
39 -3 -10 2 0.9
39 3 -10 2.3 0.9
-39 3 9 6.3 1.1
39 -3 -9 6.4 1.2
-39 3 8 154.08 7.8
39 -3 -8 146.49 7.9
-39 3 7 2.9 0.8
39 -3 -7 2.3 0.9
39 -3 -6 156.08 8.3
-39 5 32 11.5 1.3
39 -5 -32 7 1.2
39 5 -31 83.99 5.1
-39 5 31 98.99 5.2
39 -5 -31 97.19 5.3
-39 -5 31 92.69 5.1
39 5 -30 70.99 4.2
-39 5 30 77.99 4.2
39 -5 -30 63.19 4.2
-39 -5 30 74.69 4.2
39 5 -29 18.2 1.7
-39 5 29 22.5 1.9
39 -5 -29 21.9 1.9
-39 -5 29 19.2 1.7
39 5 -28 1.1 0.7
-39 5 28 0.6 0.7
-39 -5 28 0.7 0.6
39 -5 -28 0.2 0.7
39 5 -27 9.9 1.3
-39 5 27 9.2 1.1
-39 -5 27 11.5 1.3
39 -5 -27 6.8 1.1
-39 5 26 8.8 1.1
39 -5 -26 7 1.1
39 5 -25 15.8 1.6
-39 -5 25 17.1 1.6
39 5 -24 37.1 2.8
-39 5 24 44.3 2.8
39 -5 -24 38.3 2.8
-39 -5 24 44 2.8
39 5 -23 65.39 3.9
-39 5 23 57.29 3.7
39 -5 -23 66.89 4
-39 -5 23 65.49 3.8
39 5 -22 10.7 1.3
-39 5 22 7.9 1.1
39 -5 -22 7.7 1.2
-39 -5 22 8.8 1.2
39 5 -21 54.49 3.6
-39 5 21 57.29 3.5
39 -5 -21 58.29 3.7
-39 -5 21 61.89 3.6
39 5 -20 2.1 0.8
-39 5 20 1.3 0.7
39 -5 -20 1.5 0.8
-39 -5 20 2.5 0.7
39 -5 -19 32.5 2.4
-39 -5 19 29.1 2.3
39 5 -18 9.2 1.3
-39 5 18 7.5 1.1
39 -5 -18 7.9 1.2
-39 -5 18 8.7 1.1
-39 5 17 2.5 0.7
39 -5 -17 3 0.9
-39 5 16 26.5 2.1
39 -5 -16 29.7 2.3
39 5 -15 31.3 2.4
-39 5 15 26.1 2.1
-39 -5 15 32.7 2.3
39 5 -14 38.7 2.7
-39 5 14 33.5 2.5
39 -5 -14 35.7 2.7
-39 -5 14 38.3 2.7
39 5 -13 115.79 6.5
-39 5 13 116.09 6.3
39 -5 -13 119.79 6.6
-39 -5 13 121.89 6.4
39 5 -12 47.5 3.1
-39 5 12 43.6 2.9
39 -5 -12 43.1 3.1
-39 5 11 66.59 4
39 -5 -11 71.49 4.3
-39 5 10 0.1 0.6
39 -5 -10 0.4 0.8
-39 5 9 3.8 0.9
39 -5 -9 3.6 1
-39 5 8 12.5 1.3
39 -5 -8 13 1.6
-39 5 7 26.8 2.1
39 -5 -7 27 2.3
39 7 -20 0.2 0.8
-39 -7 20 -0.1 0.6
39 7 -19 3.6 1
-39 -7 19 3.2 0.9
39 7 -18 1.3 0.8
-39 -7 18 2.4 0.8
39 7 -17 18.5 1.7
-39 -7 17 15.9 1.6
-40 0 38 3.7 0.9
40 0 -38 5.1 1
-40 0 37 -0.1 0.5
40 0 -37 -0.3 0.7
-40 0 36 51.59 3.3
40 0 -36 52.89 3.4
-40 0 35 -0.2 0.7
40 0 -35 -0.2 0.7
-40 0 33 -0.1 0.6
40 0 -33 0.8 0.6
-40 0 32 171.58 9
40 0 -32 189.48 9.3
-40 0 31 0.5 0.7
40 0 -31 0.5 0.8
-40 0 30 10.1 1.3
40 0 -30 7.6 1.3
-40 0 29 0.4 0.7
40 0 -29 0.1 0.8
-40 0 28 58.69 3.5
40 0 -28 54.19 3.6
-40 0 26 325.87 15.9
40 0 -26 342.27 16.2
-40 0 25 -0.3 0.5
40 0 -25 -0.5 0.6
-40 0 24 368.16 17.6
40 0 -24 373.66 17.8
-40 0 23 -0.5 0.7
40 0 -23 1.1 0.8
-40 0 21 0.1 0.6
40 0 -21 0.5 0.7
-40 0 20 39.3 2.8
40 0 -20 40.4 3
-40 0 19 0.5 0.6
40 0 -19 0.4 0.7
-40 0 18 331.17 16.9
40 0 -18 391.66 17.3
-40 0 17 -0.2 0.6
40 0 -17 -0.3 0.6
-40 0 16 283.07 12.7
40 0 -16 229.98 12.7
-40 0 15 0.5 0.7
40 0 -15 -0.8 0.9
-40 0 11 0.3 0.6
40 0 -11 1.1 0.9
-40 0 10 56.09 3.6
40 0 -10 60.79 3.9
-40 0 9 0.3 0.7
40 0 -9 -0.3 0.8
40 0 -8 281.97 13.9
-40 2 37 37.5 2.6
-40 -2 37 35.6 2.5
40 -2 -37 39 2.7
40 2 -37 37.7 2.6
-40 2 36 21.7 1.9
-40 -2 36 20.7 1.8
40 -2 -36 23.9 2.1
40 2 -36 26.9 2.1
-40 2 35 16 1.5
-40 -2 35 12.5 1.4
40 -2 -35 15.2 1.6
40 2 -35 15.3 1.6
-40 2 34 111.89 5.9
-40 -2 34 103.59 5.8
40 -2 -34 112.09 6
40 2 -34 111.59 6
-40 2 32 185.88 9.5
-40 -2 32 203.58 9.5
40 -2 -32 198.18 9.7
40 2 -32 172.68 9.5
-40 2 31 113.59 6
-40 -2 31 105.79 5.9
40 2 -31 100.99 6
-40 2 30 5.8 1.1
-40 -2 30 4.4 1
40 -2 -30 5.6 1.2
40 2 -30 5.3 1.2
-40 2 29 -0.1 0.6
-40 -2 29 0.1 0.7
40 -2 -29 1.2 0.7
40 2 -29 -0.1 0.8
-40 2 28 133.49 7
-40 -2 28 128.39 6.9
40 -2 -28 137.59 7.2
40 2 -28 134.89 7.1
-40 2 27 0.3 0.6
-40 -2 27 0.8 0.6
40 -2 -27 0.8 0.7
40 2 -27 1.5 0.9
-40 2 26 217.48 10.6
-40 -2 26 200.68 10.5
40 -2 -26 200.18 10.7
-40 -2 24 163.38 8.3
40 2 -24 161.08 8.5
-40 2 23 120.99 6.3
-40 -2 23 118.39 6.3
40 -2 -23 112.09 6.4
40 2 -23 118.49 6.4
-40 2 22 41.9 2.9
-40 -2 22 42.1 2.9
40 -2 -22 43.1 3.1
40 2 -22 49.1 3.2
-40 -2 21 16.7 1.6
40 -2 -21 13.6 1.6
40 2 -21 13.2 1.5
-40 2 20 4 1
-40 -2 20 3.6 1.1
40 -2 -20 6 1.3
40 2 -20 3.6 1.2
-40 2 19 0.5 0.6
-40 -2 19 -0.1 0.6
40 -2 -19 -0.2 0.9
40 2 -19 0.1 0.7
-40 2 18 164.78 8.6
-40 -2 18 153.68 8.5
40 -2 -18 176.28 8.8
40 2 -18 190.68 8.9
-40 2 17 8.7 1.1
-40 -2 17 6.4 1.1
40 -2 -17 7.2 1.2
40 2 -17 9.2 1.3
-40 2 16 273.47 14
-40 -2 16 306.67 14.2
40 -2 -16 303.17 14.3
40 2 -16 286.97 14.3
-40 2 15 2 0.7
-40 -2 15 1 0.7
40 -2 -15 0.2 0.8
40 2 -15 0.5 0.7
-40 2 14 144.29 7.9
-40 -2 14 152.58 8
40 -2 -14 157.08 8.2
-40 2 13 44.3 2.9
-40 -2 13 39.7 2.9
40 -2 -13 46.7 3.1
40 2 -13 40.6 3
-40 2 12 5 1.1
40 -2 -12 3.9 1.1
-40 2 11 0.6 0.7
40 -2 -11 0.1 0.8
-40 2 10 75.69 4.6
-40 -2 10 79.59 4.6
40 -2 -10 84.29 4.9
40 2 -10 83.39 4.9
-40 2 9 0.7 0.7
40 -2 -9 1.3 0.9
-40 2 8 165.78 8.5
40 -2 -8 165.28 8.7
-40 4 33 58.19 3.6
-40 -4 33 60.79 3.6
40 4 -33 67.49 3.8
-40 4 32 71.19 4.2
-40 -4 32 80.39 4.3
40 -4 -32 67.39 4.4
40 4 -32 77.09 4.4
-40 4 31 90.49 5
-40 -4 31 86.39 4.9
40 -4 -31 90.89 5.1
40 4 -31 91.39 5.1
40 4 -30 1.9 0.9
-40 4 30 1.6 0.8
-40 -4 30 0.6 0.7
40 -4 -30 0.7 0.8
40 4 -29 2.3 0.8
-40 4 29 1.9 0.7
-40 -4 29 1.7 0.7
40 -4 -29 2.8 0.9
-40 4 28 5 1
40 -4 -28 4.2 1
40 4 -27 0.4 0.7
-40 -4 27 0.6 0.6
40 4 -26 57.39 3.6
-40 4 26 59.09 3.5
-40 -4 26 56.29 3.5
40 -4 -26 54.89 3.6
40 4 -25 34.9 2.6
-40 4 25 35.9 2.5
-40 -4 25 34.1 2.5
40 -4 -25 36.4 2.6
40 4 -24 40 2.9
-40 4 24 43.3 2.8
-40 -4 24 43.8 2.9
40 -4 -24 42.2 3
-40 4 23 100.09 5.4
-40 -4 23 105.69 5.5
40 -4 -23 93.99 5.5
40 4 -23 98.79 5.6
40 4 -22 7.6 1.2
-40 4 22 7.9 1.1
-40 -4 22 7.3 1.2
40 -4 -22 8 1.3
-40 4 21 24.2 1.9
-40 -4 21 25.6 2
40 -4 -21 21.1 2
40 4 -21 24.1 2
40 4 -20 8.4 1.2
-40 4 20 10.1 1.2
-40 -4 20 9.4 1.2
-40 4 19 20.1 1.8
40 -4 -19 23.5 2
-40 4 18 0.4 0.6
40 -4 -18 1.2 0.8
-40 4 17 14.5 1.5
40 -4 -17 11.5 1.5
40 4 -17 13.7 1.5
-40 4 16 124.79 6.4
-40 -4 16 118.19 6.4
40 -4 -16 116.39 6.5
40 4 -16 116.79 6.5
-40 4 15 94.99 5
-40 -4 15 83.49 4.9
40 -4 -15 89.69 5.1
40 4 -15 86.69 5.1
-40 -4 14 135.09 7.3
40 4 -14 143.39 7.5
-40 -4 13 136.99 7
40 4 -13 127.59 7.1
-40 -4 12 31.4 2.3
40 4 -12 30.1 2.5
-40 4 10 17.8 1.8
40 -4 -10 21.8 2
-40 4 9 0.1 0.7
40 -4 -9 -0.4 0.8
-40 4 8 116.79 6.2
40 -4 -8 113.79 6.4
40 6 -24 12.1 1.3
-40 -6 24 11.5 1.3
40 6 -23 98.49 5.5
-40 6 23 96.39 5.4
40 -6 -23 97.69 5.6
-40 -6 23 108.19 5.5
40 6 -22 1.5 0.8
-40 6 22 0.8 0.6
40 -6 -22 0.8 0.7
40 6 -21 46.4 3
-40 6 21 43.4 2.8
40 -6 -21 39.8 2.9
-40 -6 21 42.7 2.9
-40 6 20 0.8 0.6
40 6 -20 1.6 0.8
40 -6 -20 1.5 0.8
-40 -6 20 2.1 0.7
-40 6 19 1.2 0.6
40 6 -19 1.7 0.9
40 -6 -19 1.7 0.8
-40 -6 19 1.3 0.7
-40 6 18 1.5 0.7
40 -6 -18 0.2 0.7
-40 6 17 22.9 1.9
40 -6 -17 23.7 2.1
40 6 -16 3.3 1
-40 6 16 3.2 0.7
40 -6 -16 6.1 1
-40 -6 16 5.2 1
-40 6 15 43.6 2.9
40 -6 -15 45.7 3.1
-40 6 14 7.6 1.1
40 -6 -14 8.1 1.3
-40 6 13 38.8 2.6
40 -6 -13 35.5 2.7
-40 6 12 11.7 1.3
40 -6 -12 12 1.4
-40 6 11 15.2 1.5
40 -6 -11 17.4 1.8
-40 6 10 2.3 0.7
40 -6 -10 0.7 0.8
-40 6 9 2.5 0.8
40 -6 -9 2.6 0.9
-41 1 36 91.19 5
-41 -1 36 99.69 5.1
41 -1 -36 79.29 5
41 1 -36 92.59 5.1
-41 1 35 10.4 1.3
-41 -1 35 11.8 1.3
41 -1 -35 11.2 1.4
41 1 -35 11.4 1.4
-41 1 34 178.68 8.5
-41 -1 34 150.38 8.3
41 -1 -34 180.48 8.7
41 1 -34 160.88 8.5
-41 1 33 42.4 2.8
-41 -1 33 44.4 2.8
41 -1 -33 36.3 2.8
41 1 -33 41.6 2.9
-41 1 31 24.1 1.9
-41 -1 31 19.2 1.8
41 -1 -31 23.1 2
41 1 -31 20.1 1.9
-41 1 30 20 1.7
-41 -1 30 15.8 1.6
41 -1 -30 20.4 1.9
41 1 -30 20.7 1.8
-41 1 29 4.7 1
-41 -1 29 5.3 0.9
41 -1 -29 6.1 1.2
41 1 -29 4.9 1.1
-41 1 28 209.38 10.8
-41 -1 28 216.78 10.8
41 -1 -28 197.78 10.9
-41 1 27 2.7 0.8
-41 -1 27 2.3 0.8
41 -1 -27 2.3 0.9
41 1 -27 2.6 0.9
-41 1 26 350.16 17
-41 -1 26 337.67 17
41 -1 -26 400.76 17.4
41 1 -26 357.06 17.2
-41 1 25 9 1.1
-41 -1 25 10.1 1.2
41 -1 -25 9.2 1.3
41 1 -25 10 1.3
-41 -1 23 12.3 1.4
41 1 -23 10.2 1.4
-41 1 22 4.2 0.9
-41 -1 22 2.4 0.8
41 -1 -22 2.1 0.9
41 1 -22 2.3 1
-41 1 21 7.3 1.1
-41 -1 21 4.6 0.9
41 -1 -21 7.2 1.2
41 1 -21 6.4 1.1
-41 1 20 160.08 8.3
-41 -1 20 167.18 8.4
41 -1 -20 169.48 8.6
41 1 -20 163.68 8.6
-41 1 19 0.6 0.6
-41 -1 19 -0.1 0.7
41 -1 -19 0.4 0.7
41 1 -19 0.5 0.8
-41 1 18 350.76 16.7
-41 -1 18 343.07 16.7
41 -1 -18 367.96 17
41 1 -18 340.17 16.8
-41 1 17 11.8 1.4
-41 -1 17 13.3 1.4
41 -1 -17 12.5 1.6
41 1 -17 14.3 1.6
-41 1 16 193.78 9.1
41 -1 -16 186.08 9.3
41 1 -16 174.88 9.2
-41 1 15 2.8 0.8
-41 -1 15 3.4 0.8
41 -1 -15 4.5 1.1
41 1 -15 3.1 0.9
-41 1 14 24.4 2
-41 -1 14 23.1 1.9
41 -1 -14 22.6 2.1
41 1 -14 23.6 2.1
-41 1 13 4.8 0.9
-41 -1 13 4.4 0.9
41 -1 -13 7.6 1.2
41 1 -13 5.8 1.1
-41 1 12 44.2 2.9
-41 -1 12 42.5 2.9
41 -1 -12 38.2 2.9
41 1 -12 42.3 3
-41 1 11 0.7 0.5
-41 -1 11 1.5 0.7
41 -1 -11 0.1 0.7
41 1 -11 0.7 0.9
-41 1 10 119.99 6.6
41 -1 -10 132.79 6.9
-41 1 9 1.3 0.6
41 -1 -9 1.6 0.9
-41 3 34 49.3 3.1
-41 3 33 87.19 4.7
-41 -3 33 74.69 4.6
41 -3 -33 92.09 4.9
41 3 -33 79.69 4.7
-41 3 32 24.2 1.9
-41 -3 32 21.8 1.8
41 -3 -32 24 2
41 3 -32 18.8 1.9
-41 3 31 31.7 2.2
-41 -3 31 28 2.2
41 -3 -31 30.1 2.3
41 3 -31 28.9 2.3
41 3 -30 7.4 1.2
-41 3 30 6.5 1
-41 -3 30 7.3 1.1
41 -3 -30 6.5 1.1
-41 3 29 19.3 1.7
41 -3 -29 15.8 1.8
-41 -3 28 74.09 4.3
41 3 -28 74.39 4.4
-41 3 27 19.5 1.7
-41 -3 27 24.5 1.9
41 -3 -27 24.4 2
41 3 -27 19.6 1.9
-41 3 26 50.79 3.2
-41 -3 26 49.2 3.2
41 3 -26 43.6 3.2
-41 3 25 90.39 5
-41 -3 25 98.29 5.1
41 3 -25 99.89 5.3
-41 3 24 31.6 2.4
-41 -3 24 34.9 2.4
41 -3 -24 32 2.5
41 3 -24 36.2 2.6
-41 3 23 45.5 3
-41 -3 23 47.9 3.1
41 -3 -23 48.4 3.2
41 3 -23 45.3 3.2
41 3 -22 9.5 1.3
-41 3 22 9.1 1.2
-41 -3 22 9.8 1.3
41 -3 -22 7.3 1.2
-41 3 21 15.3 1.5
-41 -3 21 15.1 1.5
41 -3 -21 18.1 1.7
41 3 -21 15.4 1.6
-41 3 20 2.2 0.8
41 -3 -20 2.4 0.9
-41 3 19 0.1 0.6
41 -3 -19 0.2 0.7
-41 3 18 66.89 3.9
-41 -3 18 67.69 4
41 -3 -18 66.79 4.2
41 3 -18 63.09 4
41 3 -17 6.7 1.3
-41 -3 17 7 1.1
-41 -3 16 242.88 12.3
41 3 -16 259.27 12.5
-41 -3 15 57.99 3.7
41 3 -15 60.79 3.8
-41 3 14 42.2 2.9
-41 -3 14 47.7 3.1
41 -3 -14 46.5 3.2
41 3 -14 46.4 3.2
-41 3 13 61.09 3.7
-41 -3 13 63.29 3.8
41 -3 -13 59.39 3.8
41 3 -13 59.49 3.9
41 -3 -12 5 1
41 3 -12 9.1 1.3
-41 3 11 7.6 1.1
41 -3 -11 8.4 1.2
-41 3 10 65.79 4.1
41 -3 -10 72.19 4.3
-41 3 9 20.3 1.8
41 -3 -9 24.8 2.1
41 5 -27 10.8 1.3
-41 5 27 8 1.1
-41 -5 27 9.9 1.2
41 -5 -27 7 1.2
41 5 -26 23.5 2
-41 5 26 27.9 2
41 -5 -26 25.6 2.1
-41 -5 26 25.3 2
41 5 -25 66.59 4.1
-41 5 25 71.59 4.1
41 -5 -25 69.69 4.2
-41 -5 25 73.19 4.1
41 5 -24 21.6 1.9
-41 5 24 23.5 1.9
41 -5 -24 24.2 2.1
-41 -5 24 27.3 2
41 5 -23 59.99 3.7
-41 5 23 55.29 3.5
41 -5 -23 59.39 3.7
-41 -5 23 59.29 3.6
41 5 -22 9.4 1.3
-41 5 22 9.1 1.1
-41 -5 22 8.9 1.2
41 -5 -22 6.7 1.1
41 -5 -21 13.9 1.6
41 5 -20 9.8 1.3
-41 5 20 10 1.1
-41 -5 20 9.7 1.2
41 -5 -20 10 1.3
41 5 -19 14.6 1.5
-41 5 19 12.6 1.4
41 -5 -19 12 1.5
41 5 -18 32 2.5
-41 5 18 31 2.2
41 -5 -18 33.2 2.5
-41 -5 18 31.9 2.4
41 5 -17 32.2 2.4
-41 -5 17 29.7 2.3
-41 -5 16 18.3 1.7
41 5 -16 21.3 1.9
-41 -5 15 66.89 4
41 5 -15 68.89 4.2
-41 5 13 92.49 5
41 -5 -13 85.39 5.2
-41 5 12 1.7 0.7
41 -5 -12 2.1 0.9
-41 5 11 3.7 0.9
41 -5 -11 4.5 1.1
-41 5 10 7.8 1.1
41 -5 -10 10.2 1.4
-42 0 35 0.3 0.6
42 0 -35 -0.7 0.8
-42 0 34 67.89 4
42 0 -34 66.59 4.1
-42 0 33 0.4 0.6
42 0 -33 -0.1 0.7
-42 0 32 7 1.1
42 0 -32 8.3 1.3
-42 0 31 0.4 0.6
42 0 -31 0.1 0.6
-42 0 29 -0.4 0.6
42 0 -29 0.9 0.8
-42 0 28 288.57 13.7
42 0 -28 274.37 13.8
-42 0 27 0.5 0.7
42 0 -27 -0.1 0.8
-42 0 26 243.48 11.3
42 0 -26 212.38 11.4
-42 0 25 -0.1 0.6
42 0 -25 0.1 0.8
-42 0 23 -0.1 0.6
42 0 -23 -0.1 0.8
-42 0 22 14.5 1.6
42 0 -22 15.9 1.8
-42 0 20 213.48 10
42 0 -20 181.38 10
-42 0 19 -0.2 0.6
42 0 -19 0.5 0.7
-42 0 18 181.68 9.1
42 0 -18 177.48 9.3
-42 0 17 0.1 0.5
42 0 -17 0.1 0.6
-42 0 16 42.4 3
42 0 -16 51.09 3.3
-42 0 15 0.5 0.6
42 0 -15 -0.1 0.8
-42 0 14 8.1 1.2
42 0 -14 9.7 1.4
-42 0 13 -0.1 0.5
42 0 -13 -0.4 0.7
-42 0 12 102.89 5.5
42 0 -12 94.69 5.6
-42 0 11 -1.5 0.7
42 0 -11 -0.4 0.8
-42 2 34 38.7 2.5
42 -2 -34 33.6 2.6
-42 2 33 30.7 2.2
-42 -2 33 28.3 2.2
42 -2 -33 33 2.4
42 2 -33 29.5 2.3
-42 2 32 2.9 0.8
-42 -2 32 1.7 0.8
42 -2 -32 2.3 0.9
42 2 -32 1.8 0.9
-42 2 31 20.4 1.7
-42 -2 31 23.2 1.8
42 -2 -31 17.2 1.7
42 2 -31 22.1 1.9
-42 2 30 9.5 1.3
-42 -2 30 9.8 1.3
42 -2 -30 8.2 1.3
42 2 -30 10.7 1.5
-42 2 29 0.8 0.6
42 -2 -29 -0.2 0.6
-42 -2 28 181.88 9.2
42 2 -28 183.68 9.3
-42 2 27 13 1.4
-42 -2 27 12.2 1.4
42 -2 -27 13.5 1.6
42 2 -27 15 1.6
-42 2 26 163.28 7.8
-42 -2 26 150.08 7.7
42 -2 -26 140.99 7.9
42 2 -26 147.49 7.9
-42 2 25 25.9 2
-42 -2 25 22.4 2
42 -2 -25 24.3 2.1
42 2 -25 23.4 2.1
-42 2 24 12.4 1.3
-42 -2 24 12.6 1.4
42 -2 -24 14.2 1.5
42 2 -24 10 1.4
-42 -2 23 30 2.2
42 -2 -23 31.4 2.4
42 2 -23 28.1 2.3
-42 2 22 13.5 1.5
-42 -2 22 17.6 1.6
42 -2 -22 14.5 1.7
42 2 -22 15.6 1.7
-42 2 21 32 2.4
-42 -2 21 33.8 2.4
42 -2 -21 31.5 2.5
42 2 -21 32.1 2.5
-42 2 20 178.68 9.2
-42 -2 20 180.88 9.2
42 -2 -20 185.58 9.5
42 2 -20 192.78 9.5
-42 2 19 7.3 1.1
42 -2 -19 7.4 1.2
-42 2 18 108.19 6.1
-42 -2 18 104.29 6
42 -2 -18 121.19 6.4
42 2 -18 128.59 6.4
-42 -2 17 29.6 2.3
42 2 -17 33.8 2.6
-42 -2 16 167.88 9.3
42 2 -16 209.88 9.7
-42 2 15 16.2 1.6
-42 -2 15 14.7 1.5
42 -2 -15 15.5 1.7
42 2 -15 16.2 1.7
-42 2 14 3 0.9
-42 -2 14 2.9 1
42 -2 -14 3.8 1.2
42 2 -14 3.9 1.1
-42 2 13 17.5 1.6
-42 -2 13 18.9 1.7
42 -2 -13 17.4 1.8
42 2 -13 14.9 1.7
-42 2 12 36.2 2.6
42 -2 -12 34.7 2.7
-42 2 11 0.2 0.6
42 -2 -11 0.5 0.9
-42 2 10 79.09 4.7
42 -2 -10 90.09 5
42 4 -29 1.4 0.8
-42 4 29 1 0.7
-42 -4 29 0.2 0.6
42 -4 -29 0.2 0.7
-42 4 28 27.8 2.1
-42 -4 28 27.8 2.1
42 -4 -28 26.1 2.2
42 4 -28 27.1 2.2
-42 4 27 64.49 3.8
-42 -4 27 65.69 3.9
42 -4 -27 62.19 3.9
42 4 -27 71.19 4.1
-42 4 26 29.5 2.2
-42 -4 26 32.2 2.3
42 -4 -26 31.2 2.3
42 4 -26 29.9 2.4
-42 4 25 87.99 4.8
-42 -4 25 88.99 4.9
42 -4 -25 76.99 4.9
42 4 -25 96.29 5.1
-42 4 24 15.9 1.6
-42 -4 24 16.4 1.6
42 -4 -24 17.5 1.7
42 4 -24 18.2 1.8
-42 4 23 27.5 2
42 -4 -23 23.3 2.1
42 4 -22 1.4 0.8
-42 4 22 1.2 0.7
-42 -4 22 1.1 0.7
42 4 -21 1.5 0.8
-42 -4 21 0.6 0.7
-42 -4 20 22.4 1.9
42 4 -20 21.4 2
-42 4 19 86.29 4.8
-42 -4 19 84.29 4.9
42 -4 -19 83.59 5
42 4 -19 91.39 5.1
-42 4 18 87.99 4.8
-42 -4 18 87.89 4.9
42 -4 -18 82.89 4.9
42 4 -18 82.29 5
-42 4 17 22.3 1.9
-42 -4 17 23.9 1.9
42 -4 -17 25 2.1
42 4 -17 22.2 2
-42 4 16 42.5 2.9
-42 -4 16 43.3 2.9
42 -4 -16 43.1 3
42 4 -16 45.4 3.1
-42 4 15 115.69 6.3
-42 -4 15 116.49 6.3
42 -4 -15 129.49 6.6
42 4 -15 113.09 6.5
-42 4 14 13.4 1.5
42 -4 -14 18.2 1.8
-42 4 13 35.8 2.5
42 -4 -13 38.3 2.8
-42 4 12 29.6 2.2
42 -4 -12 24.1 2.2
-42 4 11 1.8 0.7
42 -4 -11 1.4 0.9
42 6 -19 33.4 2.5
-42 -6 19 34.5 2.5
-43 1 33 2.2 0.7
-43 -1 33 2.1 0.7
43 -1 -33 2.6 0.9
43 1 -33 2.8 0.8
-43 1 32 11 1.2
-43 -1 32 12.7 1.3
43 -1 -32 10 1.3
43 1 -32 9.6 1.3
-43 1 31 0.3 0.6
-43 -1 31 1.3 0.8
43 -1 -31 0.1 0.7
43 1 -31 1.2 0.8
-43 1 30 76.99 4.4
-43 -1 30 81.89 4.5
43 -1 -30 81.39 4.6
43 1 -30 73.89 4.5
-43 1 29 3.1 0.8
-43 -1 29 3.9 0.9
43 -1 -29 5.1 1
43 1 -29 2.6 1
-43 1 28 166.18 8.9
-43 -1 28 181.88 9
43 -1 -28 178.78 9.1
43 1 -28 187.18 9.2
-43 1 26 117.19 6.4
43 -1 -26 126.19 6.6
43 1 -26 122.49 6.6
-43 1 25 8.1 1.1
-43 -1 25 7.2 1.1
43 -1 -25 8.6 1.3
43 1 -25 7.9 1.2
-43 1 24 0.7 0.6
-43 -1 24 0.3 0.6
43 -1 -24 0.7 0.8
43 1 -24 0.7 0.8
-43 1 23 7.3 1
-43 -1 23 6.5 1.1
43 -1 -23 7 1.2
43 1 -23 7.3 1.2
-43 1 22 83.49 5.1
-43 -1 22 102.79 5.3
43 -1 -22 92.29 5.4
43 1 -22 101.89 5.5
-43 1 21 1.5 0.7
-43 -1 21 0.3 0.6
43 -1 -21 0.7 0.8
43 1 -21 1.1 0.8
-43 1 20 208.18 9.8
-43 -1 20 180.48 9.7
43 -1 -20 195.58 10
43 1 -20 201.38 10.1
-43 1 19 3.7 0.9
-43 -1 19 2.9 0.7
43 -1 -19 3.4 0.9
43 1 -19 3.1 0.9
-43 1 18 128.99 7
-43 -1 18 133.19 7
43 -1 -18 133.69 7.3
43 1 -18 145.29 7.4
-43 1 17 11.9 1.3
43 -1 -17 11.1 1.4
-43 -1 15 7.4 1.1
43 1 -15 6.8 1.3
-43 -1 14 17.4 1.7
43 1 -14 21.4 2
-43 1 13 0.7 0.6
-43 -1 13 1.2 0.6
43 -1 -13 0.6 0.7
43 1 -13 0.9 0.8
-43 1 12 139.79 7.5
43 -1 -12 154.58 7.9
-43 -3 30 34.5 2.4
43 3 -30 35.6 2.6
43 3 -29 4.1 0.9
-43 3 29 3.9 0.9
-43 -3 29 3.2 0.8
43 -3 -29 5.4 1
-43 3 28 74.19 4.1
-43 -3 28 73.79 4.2
43 -3 -28 64.19 4.2
43 3 -28 71.99 4.3
-43 3 27 16.7 1.5
-43 -3 27 14.1 1.5
43 -3 -27 16.1 1.6
43 3 -27 19 1.7
-43 3 26 53.19 3.4
-43 -3 26 49 3.3
43 -3 -26 60.59 3.6
43 3 -26 59.09 3.6
-43 3 25 43.7 2.9
-43 -3 25 44 2.9
43 -3 -25 48 3.1
43 3 -25 42.6 3
-43 3 24 2.7 0.8
43 -3 -24 3 0.9
-43 -3 23 15.6 1.5
43 -3 -23 14.2 1.7
-43 -3 22 18.7 1.6
43 3 -22 15.7 1.7
-43 -3 21 1.1 0.8
43 3 -21 0.7 0.8
-43 3 20 119.09 6.2
-43 -3 20 113.29 6.1
43 -3 -20 105.79 6.2
43 3 -20 119.79 6.4
-43 3 19 117.59 6.4
-43 -3 19 120.49 6.5
43 -3 -19 122.69 6.7
43 3 -19 129.89 6.7
-43 3 18 97.19 5.4
-43 -3 18 96.39 5.4
43 -3 -18 92.79 5.5
43 3 -18 106.29 5.7
-43 3 17 14.4 1.5
-43 -3 17 14.5 1.5
43 -3 -17 14.4 1.6
43 3 -17 16.1 1.7
-43 3 16 50.69 3.3
-43 -3 16 50.59 3.3
43 -3 -16 53.89 3.5
43 3 -16 61.59 3.7
-43 3 15 50.59 3.2
-43 -3 15 49.8 3.2
43 -3 -15 45.1 3.3
43 3 -15 55.49 3.5
-43 3 14 4.3 0.9
43 -3 -14 4.2 1
-43 3 13 -0.4 0.6
43 -3 -13 -0.5 0.8
-43 3 12 47.9 3.2
43 -3 -12 53.89 3.5
43 5 -22 6.2 1
-43 -5 22 5.4 0.9
-43 -5 21 36.5 2.5
43 5 -21 31.9 2.5
-43 -5 20 25.1 2.1
43 5 -20 31.1 2.3
-43 -5 19 63.79 3.8
43 5 -19 64.89 4
-43 5 18 103.39 5.6
43 -5 -18 100.19 5.7
-43 -5 18 107.69 5.7
43 5 -18 101.89 5.8
-43 5 17 102.89 5.4
43 -5 -17 95.29 5.6
-43 5 16 16.9 1.6
43 -5 -16 18.5 1.9
-43 5 15 43.4 2.9
-43 5 14 0.3 0.6
43 -5 -14 0.2 0.8
-43 5 13 1.6 0.7
43 -5 -13 0.6 0.8
-44 0 31 0.4 0.6
44 0 -31 0.2 0.7
-44 0 30 109.69 5.5
44 0 -30 91.19 5.5
-44 0 29 0.1 0.6
44 0 -29 0.2 0.7
-44 0 28 76.09 4.4
44 0 -28 80.19 4.6
-44 0 27 0.1 0.5
44 0 -27 0.2 0.6
-44 0 26 30.2 2.3
-44 0 24 23.8 1.9
44 0 -24 20.6 2
-44 0 23 -0.2 0.5
44 0 -23 -0.2 0.7
-44 0 22 148.49 8
44 0 -22 164.98 8.3
-44 0 21 -0.3 0.6
44 0 -21 -0.2 0.7
-44 0 20 121.49 6.4
44 0 -20 120.09 6.6
-44 0 19 0.3 0.5
44 0 -19 -0.4 0.8
-44 0 18 50.49 3.3
44 0 -18 55.19 3.6
-44 0 17 0.3 0.5
44 0 -17 0.1 0.7
-44 0 16 0.7 0.7
44 0 -16 0.9 0.8
-44 0 15 -0.3 0.6
44 0 -15 0.1 0.8
-44 0 14 70.99 4.3
44 0 -14 80.89 4.6
-44 2 29 3.2 0.8
-44 -2 29 1.7 0.7
44 -2 -29 2 0.7
44 2 -29 2.8 0.8
-44 2 28 17.9 1.6
-44 -2 28 18.5 1.6
44 -2 -28 17 1.8
44 2 -28 18.9 1.8
-44 2 27 5.1 0.9
-44 -2 27 5.8 0.9
44 -2 -27 5.8 1.1
44 2 -27 5.2 1
-44 2 26 22.6 1.9
-44 -2 26 25 2
44 -2 -26 28.3 2.2
44 2 -26 27.7 2.2
-44 -2 25 32.3 2.3
44 2 -25 32.2 2.5
-44 2 24 2.9 0.9
-44 -2 24 4.2 0.9
44 -2 -24 3.3 1.1
44 2 -24 3.2 1
-44 2 23 16.9 1.6
44 -2 -23 18.5 1.8
-44 -2 22 82.19 4.7
44 2 -22 86.99 5
-44 -2 21 23.9 2
44 2 -21 25.4 2.2
-44 2 20 273.77 12.1
-44 -2 20 229.08 12
44 -2 -20 232.58 12.2
44 2 -20 251.87 12.3
-44 2 19 26 2.1
-44 -2 19 29.4 2.2
44 -2 -19 31.6 2.4
44 2 -19 25.6 2.3
-44 2 18 97.29 5.2
-44 -2 18 93.99 5.2
44 -2 -18 87.29 5.4
44 2 -18 97.49 5.4
-44 2 17 14.9 1.5
-44 -2 17 14.2 1.5
44 -2 -17 16.4 1.7
44 2 -17 17.2 1.7
-44 2 16 0.7 0.7
-44 -2 16 2.4 0.8
44 -2 -16 0.2 0.9
44 2 -16 2.2 1
-44 2 15 13.4 1.5
44 -2 -15 16.5 1.7
44 2 -15 12.3 1.6
-44 2 14 45.2 3.1
44 -2 -14 49.5 3.3
-44 2 13 2.8 0.7
44 -2 -13 1.9 0.9
44 4 -24 0.3 0.7
-44 -4 24 1.6 0.8
44 4 -23 1.6 0.8
-44 -4 23 2.1 0.8
-44 4 22 51.09 3.3
-44 -4 22 55.79 3.4
44 -4 -22 62.39 3.7
44 4 -22 52.89 3.5
-44 4 21 54.49 3.4
-44 -4 21 56.79 3.5
44 -4 -21 57.09 3.6
44 4 -21 54.89 3.6
-44 4 20 55.49 3.3
-44 -4 20 46.9 3.2
44 -4 -20 53.79 3.4
44 4 -20 52.59 3.4
-44 4 19 124.29 6.2
-44 -4 19 115.09 6.2
44 -4 -19 113.49 6.3
44 4 -19 104.89 6.2
-44 4 18 110.19 6.3
-44 -4 18 121.39 6.4
44 -4 -18 122.49 6.6
44 4 -18 130.89 6.7
-44 4 17 65.39 4
44 -4 -17 71.79 4.2
-44 4 16 -0.1 0.6
44 -4 -16 0.7 0.7
-44 4 15 12.9 1.4
44 -4 -15 17.1 1.7
-44 4 14 15.5 1.5
44 -4 -14 17.7 1.8
44 -4 -13 14.7 1.7
-45 1 28 16.4 1.6
45 -1 -28 20.8 1.8
45 1 -28 17.8 1.8
-45 1 27 7.9 1.1
-45 -1 27 6.7 1
45 -1 -27 7.4 1.2
45 1 -27 5.8 1.1
-45 1 26 0.1 0.6
-45 -1 26 0.9 0.6
45 -1 -26 0.1 0.7
45 1 -26 0.4 0.8
-45 1 25 13.5 1.4
-45 -1 25 15.8 1.5
45 -1 -25 15.2 1.6
45 1 -25 17.8 1.7
-45 1 24 19.5 1.7
-45 -1 24 19.6 1.7
45 -1 -24 21.5 1.9
45 1 -24 18.6 1.8
-45 1 23 -0.2 0.6
-45 -1 23 -0.1 0.7
45 -1 -23 0.2 0.8
45 1 -23 -0.1 0.8
-45 1 22 167.68 8.8
-45 -1 22 171.68 8.8
45 -1 -22 172.08 9
45 1 -22 189.98 9.1
-45 -1 20 114.19 5.9
45 1 -20 102.69 6
-45 1 19 6.7 1.1
-45 -1 19 7.4 1.1
45 -1 -19 7.2 1.2
45 1 -19 7 1.3
-45 1 18 29.5 2.3
-45 -1 18 34.6 2.4
45 -1 -18 33.3 2.6
45 1 -18 33.6 2.6
-45 1 17 3.3 0.7
-45 -1 17 3.5 0.9
45 -1 -17 3.4 0.9
45 1 -17 2.4 1
-45 1 16 1.9 0.7
-45 -1 16 2.1 0.8
45 -1 -16 3.1 0.9
45 1 -16 2 0.8
-45 1 15 3.6 0.9
45 -1 -15 2.2 0.9
-45 -3 24 24.1 2
45 3 -24 29.6 2.3
-45 3 23 13.8 1.4
-45 -3 23 15.1 1.5
45 -3 -23 13.7 1.6
45 3 -23 15.6 1.6
-45 3 22 99.69 5.4
-45 -3 22 101.29 5.5
45 -3 -22 101.29 5.6
45 3 -22 97.19 5.6
-45 3 21 41.2 2.8
-45 -3 21 41.9 2.9
45 -3 -21 47.2 3.1
45 3 -21 47.2 3.1
-45 3 20 119.49 6.2
-45 -3 20 99.99 6.1
45 -3 -20 123.49 6.4
45 3 -20 121.79 6.4
-45 3 19 39.8 2.7
-45 -3 19 37.2 2.7
45 -3 -19 43.4 2.9
45 3 -19 40.8 2.9
-45 3 18 26 2
-45 -3 18 25.4 2
45 -3 -18 25.5 2.1
45 3 -18 22.9 2.2
-45 3 17 22.7 1.8
45 -3 -17 19.7 1.9
-45 3 16 15.7 1.6
45 -3 -16 21.7 1.9
-45 3 15 1.1 0.6
45 -3 -15 0.5 0.8
-46 0 26 9.6 1.2
46 0 -26 12.7 1.5
-46 0 25 0.2 0.6
46 0 -25 -0.4 0.8
-46 0 24 60.39 3.7
46 0 -24 66.69 4
-46 0 23 0.3 0.5
46 0 -23 0.5 0.6
-46 0 22 116.59 6.4
46 0 -22 129.19 6.7
-46 0 21 0.1 0.6
46 0 -21 0.7 0.7
-46 0 20 54.39 3.4
46 0 -20 59.49 3.7
-46 0 19 -0.1 0.5
46 0 -19 0.4 0.7
-46 0 18 4.6 0.9
46 0 -18 4.3 1.1
-46 -2 24 57.79 3.5
46 2 -24 59.49 3.7
-46 2 23 17 1.6
-46 -2 23 15.8 1.5
46 2 -23 17.5 1.8
-46 2 22 97.99 5.6
-46 -2 22 102.69 5.7
46 -2 -22 114.19 5.9
46 2 -22 107.09 5.9
-46 2 21 32.1 2.3
-46 -2 21 28.6 2.3
46 -2 -21 33.6 2.5
46 2 -21 32.8 2.5
-46 -2 20 62.69 3.7
46 -2 -20 59.49 3.8
46 2 -20 59.89 3.9
-46 2 19 3.1 0.8
-46 -2 19 1.5 0.6
46 -2 -19 3.7 1
46 2 -19 3.7 1
-46 2 18 17.3 1.6
46 -2 -18 14.8 1.6
46 2 -18 15.4 1.8
-46 2 17 0.2 0.6
46 -2 -17 0.1 0.8
-46 2 16 79.79 4.6
46 -2 -16 78.29 4.8
-47 -1 22 48.7 3.3
47 1 -22 61.89 3.7
-47 1 21 1.4 0.7
-47 -1 21 1.5 0.7
47 -1 -21 2.2 1
47 1 -21 2.2 0.9
-47 1 20 32.5 2.3
-47 -1 20 31.1 2.3
47 -1 -20 29.1 2.4
47 1 -20 31.4 2.5
-47 1 19 4.2 0.9
-47 -1 19 4.1 0.9
47 -1 -19 3.2 1
47 1 -19 3.7 1.1
-47 1 18 3.2 0.8
47 -1 -18 4.7 1.1
loop_
_smtbx_masks_void_nr
_smtbx_masks_void_average_x
_smtbx_masks_void_average_y
_smtbx_masks_void_average_z
_smtbx_masks_void_volume
_smtbx_masks_void_count_electrons
1 -0.153 -0.813 -0.691 2966.5 747.5
