#------------------------------------------------------------------------------
#$Date: 2019-11-03 10:34:40 +0200 (Sun, 03 Nov 2019) $
#$Revision: 221169 $
#$URL: file:///home/coder/svn-repositories/cod/cif/4/12/80/4128036.cif $
#------------------------------------------------------------------------------
#
# This file is available in the Crystallography Open Database (COD),
# http://www.crystallography.net/
#
# All data on this site have been placed in the public domain by the
# contributors.
#
data_4128036
loop_
_publ_author_name
'Lv, Xiu-Liang'
'Yuan, Shuai'
'Xie, Lin-Hua'
'Darke, Hannah F.'
'Chen, Ya'
'He, Tao'
'Dong, Chen'
'Wang, Bin'
'Zhang, Yong-Zheng'
'Li, Jian-Rong'
'Zhou, Hong-Cai'
_publ_section_title
;
 Ligand Rigidification for Enhancing the Stability of Metal-Organic
 Frameworks.
;
_journal_issue                   26
_journal_name_full               'Journal of the American Chemical Society'
_journal_page_first              10283
_journal_page_last               10293
_journal_paper_doi               10.1021/jacs.9b02947
_journal_volume                  141
_journal_year                    2019
_chemical_formula_moiety         '0.5(C368 H272 O128 Zr24)'
_chemical_formula_sum            'C184 H136 O64 Zr12'
_chemical_formula_weight         4465.56
_space_group_crystal_system      orthorhombic
_space_group_IT_number           69
_space_group_name_Hall           '-F 2 2'
_space_group_name_H-M_alt        'F m m m'
_symmetry_space_group_name_Hall  '-F 2 2'
_symmetry_space_group_name_H-M   'F m m m'
_atom_sites_solution_hydrogens   geom
_atom_sites_solution_primary     iterative
_audit_creation_date             2018-05-02
_audit_creation_method
;
Olex2 1.2
(compiled 2018.04.26 svn.r3504 for OlexSys, GUI svn.r5492)
;
_cell_angle_alpha                90
_cell_angle_beta                 90
_cell_angle_gamma                90
_cell_formula_units_Z            2
_cell_length_a                   21.1397(9)
_cell_length_b                   32.4825(8)
_cell_length_c                   33.8974(9)
_cell_measurement_reflns_used    8682
_cell_measurement_temperature    100.00(10)
_cell_measurement_theta_max      73.3810
_cell_measurement_theta_min      4.1190
_cell_volume                     23276.3(13)
_computing_cell_refinement
'CrysAlisPro, Agilent Technologies, Version 1.171.37.35 (release 13-08-2014 CrysAlis171 .NET) (compiled Aug 13 2014,18:06:01)'
_computing_data_collection
'CrysAlisPro, Agilent Technologies, Version 1.171.37.35 (release 13-08-2014 CrysAlis171 .NET) (compiled Aug 13 2014,18:06:01)'
_computing_data_reduction
'CrysAlisPro, Agilent Technologies, Version 1.171.37.35 (release 13-08-2014 CrysAlis171 .NET) (compiled Aug 13 2014,18:06:01)'
_computing_molecular_graphics    'Olex2 (Dolomanov et al., 2009)'
_computing_publication_material  'Olex2 (Dolomanov et al., 2009)'
_computing_structure_refinement  'ShelXL (Sheldrick, 2015)'
_computing_structure_solution
;
Superflip (Palatinus & Chapuis, 2007;Palatinus & van der Lee, 2008;
Palatinus et al., 2012)
;
_diffrn_ambient_environment      N~2~
_diffrn_ambient_temperature      100.00(10)
_diffrn_detector                 'CCD plate'
_diffrn_detector_area_resol_mean 10.3376
_diffrn_detector_type            AtlasS2
_diffrn_measured_fraction_theta_full 0.999
_diffrn_measured_fraction_theta_max 0.999
_diffrn_measurement_details
;
#__ type_ start__ end____ width___ exp.time_
  1 omega  -50.00   32.00   1.0000    7.5000
omega____ theta____ kappa____ phi______ frames
    -      -41.9355   38.0000  120.0000 82

#__ type_ start__ end____ width___ exp.time_
  2 omega  -75.00   34.00   1.0000    7.5000
omega____ theta____ kappa____ phi______ frames
    -      -41.9355   77.0000    0.0000 109

#__ type_ start__ end____ width___ exp.time_
  3 omega   23.00   98.00   1.0000    7.5000
omega____ theta____ kappa____ phi______ frames
    -       41.9355 -125.0000  -90.0000 75

#__ type_ start__ end____ width___ exp.time_
  4 omega   30.00  138.00   1.0000   20.0000
omega____ theta____ kappa____ phi______ frames
    -      105.8759  -77.0000  -90.0000 108

#__ type_ start__ end____ width___ exp.time_
  5 omega   33.00   98.00   1.0000   20.0000
omega____ theta____ kappa____ phi______ frames
    -      105.8759  -45.0000    0.0000 65

#__ type_ start__ end____ width___ exp.time_
  6 omega   30.00   91.00   1.0000   20.0000
omega____ theta____ kappa____ phi______ frames
    -      105.8759  -30.0000  -60.0000 61

#__ type_ start__ end____ width___ exp.time_
  7 omega   30.00   91.00   1.0000   20.0000
omega____ theta____ kappa____ phi______ frames
    -      105.8759  -30.0000 -180.0000 61

#__ type_ start__ end____ width___ exp.time_
  8 omega   30.00   91.00   1.0000   20.0000
omega____ theta____ kappa____ phi______ frames
    -      105.8759  -30.0000  150.0000 61

#__ type_ start__ end____ width___ exp.time_
  9 omega   94.00  178.00   1.0000   20.0000
omega____ theta____ kappa____ phi______ frames
    -      105.8759  125.0000 -120.0000 84

#__ type_ start__ end____ width___ exp.time_
 10 omega -118.00  -53.00   1.0000    7.5000
omega____ theta____ kappa____ phi______ frames
    -      -41.9355  -77.0000  150.0000 65

#__ type_ start__ end____ width___ exp.time_
 11 omega -118.00   -9.00   1.0000    7.5000
omega____ theta____ kappa____ phi______ frames
    -      -41.9355  -77.0000   30.0000 109
;
_diffrn_measurement_device       'four-circle diffractometer'
_diffrn_measurement_device_type  'SuperNova, Dual, Cu at zero, AtlasS2'
_diffrn_measurement_method       '\w scans'
_diffrn_orient_matrix_UB_11      -0.0363031000
_diffrn_orient_matrix_UB_12      0.0385482000
_diffrn_orient_matrix_UB_13      -0.0138518000
_diffrn_orient_matrix_UB_21      0.0204448000
_diffrn_orient_matrix_UB_22      0.0228959000
_diffrn_orient_matrix_UB_23      0.0377536000
_diffrn_orient_matrix_UB_31      0.0596717000
_diffrn_orient_matrix_UB_32      0.0155675000
_diffrn_orient_matrix_UB_33      -0.0212424000
_diffrn_radiation_monochromator  mirror
_diffrn_radiation_probe          x-ray
_diffrn_radiation_type           CuK\a
_diffrn_radiation_wavelength     1.54184
_diffrn_reflns_av_R_equivalents  0.0727
_diffrn_reflns_av_unetI/netI     0.0457
_diffrn_reflns_Laue_measured_fraction_full 0.999
_diffrn_reflns_Laue_measured_fraction_max 0.999
_diffrn_reflns_limit_h_max       25
_diffrn_reflns_limit_h_min       -18
_diffrn_reflns_limit_k_max       38
_diffrn_reflns_limit_k_min       -36
_diffrn_reflns_limit_l_max       38
_diffrn_reflns_limit_l_min       -40
_diffrn_reflns_number            28871
_diffrn_reflns_point_group_measured_fraction_full 0.999
_diffrn_reflns_point_group_measured_fraction_max 0.999
_diffrn_reflns_theta_full        66.594
_diffrn_reflns_theta_max         66.594
_diffrn_reflns_theta_min         3.769
_diffrn_source                   'sealed X-ray tube'
_diffrn_source_type              'SuperNova (Cu) X-ray Source'
_exptl_absorpt_coefficient_mu    2.403
_exptl_absorpt_correction_T_max  1.00000
_exptl_absorpt_correction_T_min  0.52892
_exptl_absorpt_correction_type   multi-scan
_exptl_absorpt_process_details
'CrysAlisPro, Agilent Technologies, Version 1.171.37.35 (release 13-08-2014 CrysAlis171 .NET) (compiled Aug 13 2014,18:06:01) Empirical absorption correction using spherical harmonics, implemented in SCALE3 ABSPACK scaling algorithm.'
_exptl_crystal_density_diffrn    0.637
_exptl_crystal_description       block
_exptl_crystal_F_000             4464
_exptl_crystal_size_max          0.22
_exptl_crystal_size_mid          0.2
_exptl_crystal_size_min          0.18
_platon_squeeze_details
;
;
_refine_diff_density_max         2.086
_refine_diff_density_min         -1.712
_refine_diff_density_rms         0.117
_refine_ls_extinction_method     none
_refine_ls_goodness_of_fit_ref   0.965
_refine_ls_hydrogen_treatment    constr
_refine_ls_matrix_type           full
_refine_ls_number_parameters     160
_refine_ls_number_reflns         5504
_refine_ls_number_restraints     0
_refine_ls_restrained_S_all      0.965
_refine_ls_R_factor_all          0.0726
_refine_ls_R_factor_gt           0.0654
_refine_ls_shift/su_max          0.001
_refine_ls_shift/su_mean         0.000
_refine_ls_structure_factor_coef Fsqd
_refine_ls_weighting_details
'w=1/[\s^2^(Fo^2^)+(0.1320P)^2^] where P=(Fo^2^+2Fc^2^)/3'
_refine_ls_weighting_scheme      calc
_refine_ls_wR_factor_gt          0.1664
_refine_ls_wR_factor_ref         0.1716
_reflns_Friedel_coverage         0.000
_reflns_number_gt                4439
_reflns_number_total             5504
_reflns_threshold_expression     'I > 2\s(I)'
_cod_data_source_file            ja9b02947_si_001.cif
_cod_data_source_block           BUT-97
_cod_database_code               4128036
_shelx_shelxl_version_number     2016/6
_chemical_oxdiff_formula         CHONZr
_shelx_space_group_comment
;
The symmetry employed for this shelxl refinement is uniquely defined
by the following loop, which should always be used as a source of
symmetry information in preference to the above space-group names.
They are only intended as comments.
;
_reflns_odcompleteness_completeness 99.95
_reflns_odcompleteness_iscentric 1
_reflns_odcompleteness_theta     66.49
_olex2_refinement_description
;
1. Fixed Uiso
 At 1.2 times of:
  All C(H) groups
 At 1.5 times of:
  All C(H,H,H) groups
2. Others
 Fixed Sof: H00D(0.5) H00E(0.5) H00G(0.5)
3.a Aromatic/amide H refined with riding coordinates:
 C00F(H00F), C00H(H00H), C00J(H00J), C00K(H00K)
3.b Idealised Me refined as rotating group:
 C00E(H00A,H00B,H00C), C00L(H00D,H00E,H00G)
;
_shelx_res_file
;
TITL 5_a.res in Fmmm
    5.res
    created by SHELXL-2016/6 at 18:46:39 on 02-May-2018
REM Old TITL 5 in Fmmm
REM SHELXT solution in Fmmm
REM R1 0.166, Rweak 0.005, Alpha 0.018, Orientation as input
REM Formula found by SHELXT: C46 O16 Zr3
CELL 1.54184 21.1397 32.4825 33.8974 90 90 90
ZERR 2 0.0009 0.0008 0.0009 0 0 0
LATT 4
SYMM -X,-Y,+Z
SYMM -X,+Y,-Z
SYMM +X,-Y,-Z
SFAC C H O Zr
UNIT 368 272 128 24

L.S. 40
PLAN  1
BOND $H
list 4
fmap 2 53
acta
REM <olex2.extras>
REM <HklSrc "%.\\5.hkl">
REM </olex2.extras>

WGHT    0.132000
FVAR       0.05556
ZR01  4    0.500000    0.500000    0.572376    10.25000    0.05444    0.01661 =
         0.02008    0.00000    0.00000    0.00000
ZR02  4    0.583246    0.554565    0.500000    10.50000    0.05739    0.02014 =
         0.02205    0.00000    0.00000   -0.00372
O003  3    0.562769    0.541276    0.605557    11.00000    0.05915    0.02074 =
         0.02671   -0.00286   -0.00589   -0.00188
O004  3    0.616051    0.577359    0.559795    11.00000    0.08685    0.03437 =
         0.02327   -0.00186   -0.00352   -0.01965
O005  3    0.583286    0.500000    0.535400    10.50000    0.14754    0.01495 =
         0.05018    0.00000    0.05480    0.00000
O006  3    0.500000    0.554176    0.535034    10.50000    0.05369    0.10844 =
         0.04817    0.04642    0.00000    0.00000
O007  3    0.686751    0.551547    0.500000    10.50000    0.05114    0.09443 =
         0.03879    0.00000    0.00000   -0.00184
O008  3    0.567980    0.621412    0.500000    10.50000    0.17758    0.01577 =
         0.04312    0.00000    0.00000    0.00817
C009  1    0.629800    0.594303    0.627098    11.00000    0.07065    0.02536 =
         0.02359   -0.00068   -0.00904   -0.00800
C00A  1    0.750000    0.726726    0.750000    10.50000    0.05124    0.02130 =
         0.02869    0.00000   -0.00367    0.00000
C00B  1    0.600480    0.569487    0.594752    11.00000    0.06031    0.02751 =
         0.03083   -0.00456   -0.00344   -0.00848
C00C  1    0.685617    0.639505    0.687885    11.00000    0.07486    0.01941 =
         0.03271    0.00240   -0.00782    0.00018
C00D  1    0.716103    0.705346    0.721335    11.00000    0.06418    0.01998 =
         0.02820    0.00222   -0.00510   -0.00258
C00E  1    0.677140    0.728390    0.690868    11.00000    0.07307    0.02489 =
         0.04307    0.00656   -0.01368    0.00319
AFIX 137
H00A  2    0.664218    0.754452    0.701518    11.00000   -1.50000
H00B  2    0.640403    0.712469    0.684205    11.00000   -1.50000
H00C  2    0.702164    0.732818    0.667619    11.00000   -1.50000
AFIX   0
C00F  1    0.630506    0.616794    0.694363    11.00000    0.07515    0.03524 =
         0.02830   -0.00770   -0.00023    0.00000
AFIX  43
H00F  2    0.612361    0.616745    0.719356    11.00000   -1.20000
AFIX   0
C00G  1    0.716747    0.662437    0.720632    11.00000    0.06894    0.01932 =
         0.03024    0.00391   -0.01050   -0.00113
C00H  1    0.602332    0.594419    0.664545    11.00000    0.06859    0.03601 =
         0.03623   -0.00285   -0.00140   -0.00518
AFIX  43
H00H  2    0.565489    0.579596    0.669342    11.00000   -1.20000
AFIX   0
C00I  1    0.750000    0.640640    0.750000    10.50000    0.09672    0.01836 =
         0.03575    0.00000   -0.01628    0.00000
C00J  1    0.710266    0.639996    0.650778    11.00000    0.09040    0.05178 =
         0.03036   -0.00140   -0.00721   -0.02913
AFIX  43
H00J  2    0.746493    0.655367    0.645745    11.00000   -1.20000
AFIX   0
C00K  1    0.682145    0.617846    0.620146    11.00000    0.09277    0.05089 =
         0.02957   -0.00336    0.00070   -0.02604
AFIX  43
H00K  2    0.699152    0.619131    0.594873    11.00000   -1.20000
AFIX   0
C00L  1    0.750000    0.593978    0.750000    10.50000    0.14779    0.02346 =
         0.05075    0.00000   -0.03838    0.00000
PART -1
AFIX 137
H00D  2    0.709727    0.584127    0.759064    10.50000   -1.50000
H00E  2    0.782723    0.584127    0.767219    10.50000   -1.50000
H00G  2    0.757549    0.584127    0.723717    10.50000   -1.50000
AFIX   0
HKLF 4




REM  5_a.res in Fmmm
REM R1 =  0.0654 for    4439 Fo > 4sig(Fo)  and  0.0726 for all    5504 data
REM    160 parameters refined using      0 restraints

END

WGHT      0.1310      0.0000

REM Highest difference peak  2.086,  deepest hole -1.712,  1-sigma level  0.117
Q1    1   0.5434  0.5000  0.5651  10.50000  0.05    2.09
;
_shelx_res_checksum              38322
_shelx_hkl_file
;
   0   0  -4 1515.62   19.59
   0   0  -4 1512.00   15.26
   0   0  -6  582.07    9.26
   0   0   6  578.34    4.80
   0   0  -6  586.42    8.62
   0   0  -8  844.68   13.84
   0   0  -8  814.88   15.39
   0   0 -10 1847.79   32.75
   0   0 -10 1840.92   37.73
   0   0 -12 1162.99   34.69
   0   0 -12 1193.17   41.09
   0   0 -14  825.74   19.64
   0   0 -14  888.92   25.03
   0   0 -16 1719.96   37.97
   0   0 -16 1891.14   49.70
   0   0 -18  770.77   23.09
   0   0 -18  952.31   33.97
   0   0 -20  587.13   32.25
   0   0 -22  169.60   24.90
   0   0 -24  180.90   21.19
   0   0 -24  164.67   12.67
   0   0 -26  663.26   24.69
   0   0 -28  610.23   26.41
   0   0 -30  328.92   18.53
   0   0 -30  323.35   17.67
   0   0 -32  822.57   33.71
   0   0 -32  839.92   31.40
   0   0 -34    0.06    4.04
   0   0 -34    1.37    3.42
   0   0 -36  174.39   12.04
   0   0 -38   29.90    4.67
   0   0 -40  185.92    7.98
   0  -2   2 9289.27   27.17
   0   2  -2 9902.94   33.15
   0   2  -2 9999.00   27.65
   0   2   2 9566.65   29.13
   0  -2  -2 9515.37   24.46
   0  -2  -2 9472.48   27.06
   0   2  -4   14.93    1.83
   0  -2  -4    6.08    1.35
   0  -2  -4    8.86    2.36
   0  -2  -4    6.99    2.24
   0   2  -4   13.91    2.15
   0  -2   4   13.98    1.86
   0   2  -4   13.19    2.36
   0   2  -6   19.12   14.34
   0  -2  -6   28.94   15.34
   0  -2   6   23.53   11.25
   0   2  -6   14.03   11.72
   0  -2  -6   22.11   13.83
   0   2  -6   23.40   15.13
   0   2  -8  573.15   22.90
   0   2  -8  519.49   17.09
   0   2  -8  522.35   20.89
   0  -2  -8  553.20   22.98
   0  -2  -8  531.66   20.67
   0  -2   8  567.57   15.40
   0   2 -10  418.17   11.68
   0  -2 -10  427.48   12.20
   0  -2 -10  421.78   13.59
   0   2 -10  441.89   13.22
   0   2 -10  409.21    9.58
   0  -2  10  450.17    8.28
   0   2 -12 1060.01   27.79
   0  -2  12  965.83   15.42
   0  -2 -12 1073.40   28.71
   0   2 -12  903.87   19.78
   0  -2 -12  829.17   20.95
   0  -2 -12  997.86   25.69
   0   2 -12  949.41   24.59
   0  -2 -14  400.02   21.24
   0  -2 -14  441.71   23.07
   0   2 -14  366.37   15.84
   0   2 -14  457.82   23.25
   0  -2 -14  351.86   17.18
   0   2 -14  390.60   20.00
   0   2 -16  572.13   26.07
   0  -2 -16  523.21   24.86
   0   2 -16  490.56   22.75
   0  -2 -16  546.26   25.95
   0   2 -16  432.97   16.58
   0  -2 -16  457.84   19.06
   0   2 -18  604.37   29.08
   0   2 -18  516.13   25.82
   0  -2 -18  602.11   29.35
   0  -2 -18  463.03   19.53
   0   2 -20  155.60   14.37
   0  -2 -20  153.31   15.21
   0   2  22   29.19    5.99
   0   2 -22   19.53    5.17
   0   2 -24  201.32   25.30
   0  -2 -24  194.75   15.61
   0   2  24  194.82   23.87
   0   2 -24  199.25   16.42
   0  -2 -26  262.83   16.44
   0   2 -26  238.53   26.55
   0   2 -26  260.15   17.20
   0   2 -26  246.97   16.36
   0   2 -28  436.79   19.99
   0  -2 -28  412.89   19.70
   0   2 -28  420.38   20.88
   0  -2 -30  583.35   26.08
   0   2 -30  634.60   28.19
   0   2 -30  587.26   25.23
   0   2 -32   47.00    7.48
   0   2 -32   53.50    9.34
   0  -2 -32   41.93    7.86
   0  -2 -32   48.41    7.73
   0   2 -34   63.87    8.92
   0  -2 -34   54.75    8.58
   0  -2 -34   59.26   10.02
   0   2 -36    2.28    2.47
   0  -2 -36    0.22    3.24
   0  -2 -38   92.84    7.56
   0   2 -38   91.31    7.43
   0   2 -40   66.77    4.57
   0  -2 -40   72.22    5.09
   0  -4   0  604.16    5.56
   0   4   0  601.64    6.38
   0  -4  -2 1464.48   14.59
   0   4   2 1423.60   16.20
   0   4  -2 1381.67   16.95
   0  -4   2 1385.59   15.00
   0  -4  -4  372.13    9.00
   0   4  -4  390.06    8.86
   0   4  -4  414.84   11.00
   0  -4   4  371.93    9.17
   0   4   4  391.17    9.99
   0  -4  -4  357.40    7.94
   0   4   6  618.36   28.55
   0   4  -6  620.53   30.08
   0   4  -6  596.15   26.38
   0   4  -6  617.74   27.75
   0  -4  -6  601.01   28.84
   0  -4   6  593.33   24.96
   0  -4  -8  245.58    6.60
   0   4  -8  251.18    6.29
   0   4   8  248.66    6.57
   0   4  -8  239.04    5.02
   0  -4   8  251.35    5.18
   0   4  -8  248.99    6.15
   0  -4  -8  234.66    2.99
   0  -4  10   67.27    4.77
   0   4 -10   69.94    6.51
   0   4  10   64.89    5.79
   0   4 -10   60.68    5.49
   0  -4 -10   72.60    6.71
   0   4 -10   56.61    4.51
   0   4  12   88.72   12.15
   0   4 -12   74.62   11.34
   0   4 -12   58.68    8.71
   0  -4 -12  102.41   13.14
   0   4 -12   81.87   12.25
   0  -4  12   82.19    8.42
   0   4  14   27.89    9.04
   0  -4  14   31.45    6.05
   0   4 -14   21.61    6.27
   0   4 -14   33.36    9.62
   0  -4 -14   12.02    7.26
   0   4 -14   29.32    8.75
   0   4 -16   21.99   10.74
   0  -4 -16   14.33    9.36
   0   4 -16   17.39    7.88
   0   4 -16   24.34   11.96
   0   4  16   21.31   10.92
   0   4 -18   14.34    7.09
   0  -4 -18    6.00    5.01
   0   4  18   13.24    6.24
   0   4 -18   13.51    7.66
   0   4 -20   51.19    7.21
   0   4  20   51.42    6.92
   0   4 -22   12.97    4.98
   0   4  22   11.57    5.19
   0   4  24    0.18    3.97
   0   4 -24    0.17    5.96
   0  -4 -24    3.38    3.33
   0   4 -24    0.09    2.39
   0   4 -24    0.17    3.73
   0  -4 -24    0.76    2.46
   0   4 -26   52.36    6.78
   0   4 -26   43.41   10.38
   0   4 -26   61.31    8.04
   0  -4 -26   47.96    6.78
   0   4 -28  245.82   26.75
   0   4 -28  309.74   19.43
   0  -4 -28  287.16   17.38
   0   4 -28  289.45   17.10
   0   4 -30   86.59    9.84
   0  -4 -30   86.67   10.33
   0   4 -30   97.26   11.68
   0  -4 -32   47.20    6.37
   0   4 -32   38.36    5.17
   0  -4 -34   20.42    4.98
   0  -4 -34   28.28    5.15
   0   4 -34   17.68    4.57
   0  -4 -36    6.20    2.97
   0   4 -36    0.93    2.41
   0  -4 -36    1.85    3.38
   0   4 -38   11.90    2.38
   0  -4 -38    8.24    2.29
   0  -4 -40   13.87    2.42
   0  -6   0 1642.77    4.09
   0   6   0 1574.68    5.02
   0   6  -2  144.62   14.46
   0   6  -2  144.35   13.13
   0   6   2  124.50   12.90
   0   6  -2  163.40    7.58
   0  -6  -2  136.88   11.88
   0  -6   2  139.80   11.98
   0   6   4   12.87    5.92
   0  -6   4   11.86    5.35
   0  -6  -4   13.00    5.16
   0   6  -4   18.37    6.23
   0   6  -4   18.08    4.60
   0   6  -6  543.16   14.78
   0  -6  -6  525.47   13.41
   0   6   6  508.60   16.21
   0  -6   6  521.47   15.36
   0   6  -6  501.73   17.65
   0   6  -8  544.33   25.41
   0  -6   8  565.47   22.43
   0   6   8  558.63   24.55
   0  -6  -8  511.91   17.14
   0   6  -8  588.84   23.54
   0  -6  10  202.52   11.85
   0   6 -10  212.51   14.04
   0   6 -10  180.33   12.17
   0   6 -10  219.04   13.63
   0  -6 -10  182.82    7.84
   0   6  10  229.83   14.16
   0  -6  12  151.28   11.41
   0   6 -12  153.55   13.99
   0   6 -12  142.07   13.71
   0   6  12  163.58   14.33
   0   6  14   46.16    8.21
   0   6 -14   51.05    8.94
   0   6 -14   31.52    6.41
   0   6 -14   42.35    8.47
   0  -6  14   38.76    6.37
   0   6 -16  622.37   23.89
   0   6  16  640.10   24.11
   0   6 -16  680.48   25.08
   0  -6 -18  288.76   20.71
   0   6  18  350.84   23.97
   0   6 -18  348.10   24.04
   0   6 -20  594.00   31.00
   0   6  20  639.72   31.62
   0   6 -22  150.55   14.77
   0   6  22  170.89   16.26
   0  -6 -24  148.42   12.17
   0   6 -24  149.31   11.48
   0   6 -24  143.16   17.71
   0   6 -24  160.41   13.36
   0  -6 -24  147.68   11.46
   0   6 -26   18.64    6.74
   0  -6 -26   24.38    5.45
   0   6 -26   21.35    5.25
   0  -6 -26   20.93    4.81
   0   6 -26   31.02    6.65
   0   6 -28   81.17    8.61
   0   6 -28   68.47    9.18
   0   6 -28   49.33   10.58
   0  -6 -28   70.65    8.29
   0  -6 -30   94.58   10.37
   0   6 -30   84.28    9.17
   0   6 -32  143.51   11.69
   0  -6 -32  158.51   12.98
   0  -6 -34  154.91   12.11
   0   6 -34  145.84   10.98
   0  -6 -34  158.53   12.91
   0  -6 -36  101.11   10.77
   0  -6 -36   91.47    9.24
   0   6 -36   81.52    8.13
   0   6 -38   12.75    2.70
   0  -6 -38   14.13    3.82
   0  -6 -38    4.62    2.15
   0   8   0    7.12    7.20
   0  -8   0    7.25    7.04
   0  -8  -2 1879.87   38.89
   0   8  -2 1834.76   45.58
   0  -8   2 1824.04   39.56
   0   8   2 1847.08   42.98
   0   8  -2 1908.43   42.89
   0  -8  -4 1100.36   25.05
   0   8  -4 1106.68   29.51
   0   8  -4 1078.95   18.48
   0  -8   4 1058.55   26.24
   0   8   4 1118.73   28.11
   0   8  -6  191.30   10.13
   0  -8  -6  174.21    8.18
   0  -8   6  157.59    8.46
   0   8  -6  181.38    7.41
   0   8   6  151.21    8.93
   0  -8   8 1579.82   34.61
   0   8  -8 1566.39   39.24
   0   8   8 1682.04   37.74
   0   8  -8 1613.28   32.47
   0  -8 -10  603.89   14.54
   0   8 -10  663.25   19.93
   0   8 -10  621.21   21.94
   0  -8  10  626.58   19.07
   0   8  10  679.18   21.71
   0   8 -12  273.40   14.86
   0   8  12  319.03   15.75
   0  -8  12  299.08   13.17
   0  -8 -12  254.16    8.25
   0   8 -12  309.33   14.61
   0   8 -14  294.72   15.12
   0   8 -14  314.55   14.87
   0   8  14  304.45   15.60
   0  -8  14  296.81   12.73
   0   8 -16    0.03    4.27
   0   8 -16    0.34    3.93
   0   8  16    0.93    5.45
   0  -8  16    0.31    4.36
   0   8  18 1719.88   57.69
   0   8 -18 1675.86   56.97
   0   8  20  621.74   34.77
   0   8 -20  589.88   33.77
   0  -8 -22  711.15   23.09
   0   8 -22  763.60   36.65
   0  -8 -22  704.81   21.99
   0  -8 -24  111.09    8.65
   0   8 -24  127.06   14.29
   0  -8 -24  120.08    8.79
   0   8 -24  120.38    8.82
   0  -8 -26    7.84    4.12
   0   8 -26    6.79    6.66
   0   8 -26    5.60    3.74
   0  -8 -26    5.66    3.65
   0   8 -28   61.84    8.12
   0   8 -28   46.63   11.82
   0  -8 -28   71.57    9.02
   0  -8 -30  185.16   15.70
   0   8 -30  179.24   14.45
   0   8 -32  159.64   11.71
   0  -8 -32  188.61   13.31
   0  -8 -34  271.88   15.90
   0   8 -34  266.12   13.80
   0   8 -36  162.39   10.81
   0  -8 -36  184.38   12.37
   0  -8 -36  193.67   13.89
   0   8 -38   74.08    6.05
   0  -8 -38   82.84    7.08
   0  10   0  377.16    3.71
   0 -10   0  403.87    2.91
   0 -10  -2  838.84   29.65
   0  10  -2  798.27   32.16
   0  10  -2  724.23   34.21
   0  10   2  818.23   33.06
   0 -10   2  763.20   29.57
   0 -10  -4 1185.37   31.40
   0 -10   4 1109.88   31.68
   0  10   4 1115.50   33.95
   0  10  -4 1137.80   35.33
   0  10  -6 1906.93   47.81
   0  10  -6 1805.26   31.47
   0  10   6 1811.22   46.20
   0 -10   6 1860.25   43.55
   0 -10  -6 1869.99   40.80
   0  10   8 1878.22   38.45
   0  10  -8 1774.40   29.13
   0 -10   8 1840.41   35.71
   0  10  -8 1795.05   38.43
   0 -10  -8 1775.08   31.12
   0 -10  10 1952.96   41.49
   0 -10 -10 1862.54   33.93
   0  10 -10 1892.00   37.83
   0  10 -10 1929.37   46.53
   0  10  12  656.33   27.38
   0 -10  12  651.60   24.24
   0  10 -12  642.60   23.96
   0  10 -12  631.35   27.25
   0  10  14   56.48    8.27
   0 -10  14   60.20    7.38
   0  10 -14   55.09    7.58
   0  10 -14   65.85    9.28
   0 -10  16  109.34   15.12
   0  10 -16  120.26   18.59
   0  10  16  121.76   18.12
   0  10  18  442.03   27.61
   0  10 -18  420.66   27.39
   0  10 -20 1452.95   51.35
   0  10  20 1623.49   54.54
   0  10 -22  527.64   19.89
   0 -10 -22  616.40   22.03
   0  10 -22  595.74   34.41
   0 -10 -22  573.50   22.16
   0  10  22  614.07   35.62
   0 -10 -24   33.57    6.15
   0 -10 -24   38.34    6.88
   0  10 -24   29.22   10.59
   0  10 -24   37.30    6.61
   0  10 -26   85.82   16.42
   0 -10 -26  107.35   11.83
   0  10 -26  106.54   11.02
   0 -10 -26  122.94   12.07
   0  10 -28  192.76   13.89
   0 -10 -28  162.86   14.01
   0 -10 -28  182.33   14.22
   0 -10 -30   54.51    6.83
   0  10 -30   40.45    5.76
   0 -10 -32  158.55   12.55
   0  10 -32  155.78   11.35
   0  10 -34  227.80   12.48
   0 -10 -34  265.83   15.16
   0 -10 -36  189.86   13.50
   0 -10 -36  190.23   12.51
   0 -10 -38  128.26    9.71
   0 -10 -38  109.03    7.99
   0  12   0  104.93    5.45
   0  12   0  131.83    3.76
   0 -12   0  133.51    3.52
   0  12  -2   47.69   12.67
   0  12   2   45.03   12.20
   0 -12  -2   50.29   10.94
   0  12  -2   37.56   12.93
   0 -12   2   35.29   10.83
   0 -12  -4  389.88   17.04
   0  12   4  381.46   19.18
   0  12  -4  407.31   19.73
   0 -12   4  395.44   17.49
   0  12  -6 1662.00   37.88
   0  12   6 1610.63   36.62
   0 -12   6 1595.46   34.53
   0 -12  -6 1639.61   33.02
   0 -12   8 2066.58   49.23
   0 -12  -8 2060.79   44.93
   0  12   8 2030.96   52.83
   0  12  -8 1888.88   35.02
   0  12  -8 2051.40   52.75
   0 -12 -10 2264.71   44.52
   0  12  10 2395.64   57.28
   0  12 -10 2377.84   57.49
   0  12 -10 2242.37   42.68
   0 -12  10 2381.26   52.45
   0  12  12   82.64   13.79
   0  12 -12   78.32   14.25
   0 -12 -12   69.77    9.49
   0 -12  12   66.76   11.52
   0  12 -12   75.26   11.12
   0 -12  14    5.98    6.54
   0  12 -14    6.89    6.60
   0  12  14   11.51    8.50
   0 -12  16   98.48   12.07
   0  12 -16  120.47   15.17
   0  12  16  100.52   13.78
   0  12 -18  203.11   19.97
   0  12  18  199.24   19.84
   0 -12 -20  596.77   21.96
   0 -12 -20  607.29   23.20
   0  12 -20  663.26   36.33
   0  12 -22  250.84   26.74
   0 -12 -22  265.04   17.15
   0 -12 -22  282.70   18.34
   0  12 -22  219.90   15.03
   0  12 -24   26.73    4.59
   0 -12 -24   21.43    4.55
   0 -12 -24   28.04    5.38
   0  12 -24   22.87    7.57
   0 -12 -26  151.71   12.52
   0  12 -26  137.82   11.72
   0 -12 -26  135.25   12.17
   0 -12 -28   31.81    7.06
   0 -12 -28   36.08    7.08
   0  12 -28   29.27    6.29
   0 -12 -30    0.86    2.97
   0  12 -30    0.85    3.21
   0 -12 -32   54.02    7.99
   0  12 -32   47.96    6.50
   0  12 -34   76.79    7.01
   0 -12 -34   90.82    8.78
   0  12 -36  106.81    7.51
   0 -12 -36  124.49    9.49
   0 -12 -38   41.21    4.59
   0 -12 -38   50.11    5.80
   0 -14   0 1249.01   53.43
   0  14   0 1371.12   58.64
   0  14   0 1255.39   60.85
   0  14  -2   81.40    5.49
   0 -14   2   81.61    4.39
   0 -14  -2   76.80    5.22
   0  14   2   79.37    5.38
   0 -14   4   94.70    8.77
   0  14  -4   92.64   10.72
   0  14   4   96.35    9.85
   0 -14  -4   95.34    8.83
   0 -14  -6  201.73   18.07
   0  14   6  189.34   19.86
   0 -14   6  220.97   18.94
   0  14  -6  211.58   20.28
   0 -14  -8  825.71   27.52
   0 -14   8  782.41   28.90
   0  14   8  796.97   31.87
   0  14  -8  799.01   31.79
   0  14  10  296.12   17.26
   0 -14  10  266.94   14.91
   0 -14 -10  273.58   13.16
   0  14 -10  302.55   17.38
   0  14  12  194.36   23.12
   0 -14  12  179.74   20.72
   0  14 -12  178.34   21.97
   0 -14 -12  151.31   15.89
   0  14 -14  215.19   20.33
   0  14  14  232.68   21.27
   0 -14  14  235.05   19.44
   0  14  16   40.85    6.44
   0 -14  16   22.32    2.83
   0  14 -16   23.10    4.32
   0  14 -18   52.15   13.03
   0  14  18   59.60   13.95
   0 -14 -20    9.71    4.52
   0  14 -20    7.45    3.14
   0  14 -20    8.21    5.58
   0 -14 -20   10.03    3.79
   0  14  20   14.71    7.79
   0  14 -22    2.46    2.99
   0 -14 -22    0.53    2.59
   0 -14 -22    0.50    2.56
   0  14 -22    2.46    5.90
   0 -14 -24   22.24    3.97
   0  14 -24   16.66    3.04
   0 -14 -24   10.43    2.76
   0  14 -24    4.51    4.17
   0  14 -26   14.17    4.90
   0 -14 -26   15.20    5.46
   0 -14 -26   14.68    5.50
   0 -14 -28   70.13    7.52
   0  14 -28   50.58    6.02
   0 -14 -28   61.06    7.24
   0  14 -30    0.99    2.78
   0 -14 -30    0.02    2.83
   0  14 -32   23.48    4.94
   0 -14 -32   34.56    6.33
   0 -14 -34   15.06    4.26
   0  14 -34    1.34    1.92
   0 -14 -36   15.75    4.43
   0 -16   0  714.63   48.26
   0  16   0  795.94   53.59
   0  16   0  781.47   56.20
   0  16   2 2692.74   64.39
   0  16   2 2794.58   61.04
   0 -16   2 2606.54   56.19
   0  16  -2 2880.47   64.73
   0 -16  -2 2729.40   57.63
   0  16   4  498.72   24.41
   0 -16  -4  478.52   21.45
   0 -16   4  460.15   21.28
   0  16  -4  484.00   24.08
   0 -16  -6  120.77   17.47
   0  16  -6  130.74   20.32
   0  16   6  132.13   20.83
   0 -16   6  114.40   17.69
   0  16   8    0.62    4.86
   0 -16   8    0.17    3.77
   0  16  -8    1.63    5.92
   0 -16  -8    1.73    4.79
   0  16  10  508.74   29.71
   0 -16 -10  448.70   23.05
   0 -16  10  520.48   26.91
   0  16 -10  450.22   27.49
   0  16  12  442.82   30.62
   0 -16 -12  367.08   21.44
   0  16 -12  409.89   28.99
   0 -16  12  445.36   27.76
   0  16  14  648.78   36.45
   0  16 -14  665.13   35.91
   0 -16  14  653.28   32.54
   0  16  16  353.26   27.26
   0  16 -16  293.64   23.86
   0 -16  16  311.88   22.39
   0 -16 -18   29.71    5.80
   0 -16 -18   25.49    5.44
   0  16 -18   30.50    8.93
   0  16 -18   22.69    4.73
   0  16 -20   61.44    8.20
   0  16 -20   56.31   14.23
   0 -16 -20   63.76    9.08
   0 -16 -20   64.94    9.73
   0 -16 -22   63.76    8.47
   0  16 -22   55.80   12.44
   0 -16 -22   58.68    8.48
   0  16 -22   63.33    7.73
   0  16 -24   74.84   14.85
   0  16 -24   80.51    9.25
   0 -16 -24   99.81   10.25
   0 -16 -24   92.50   10.94
   0  16 -26  331.43   16.67
   0 -16 -26  355.45   18.92
   0  16 -28  200.43   11.89
   0 -16 -28  203.76   13.57
   0 -16 -28  223.09   13.25
   0 -16 -30  162.46   12.30
   0  16 -30  137.14   10.36
   0  16 -32   26.96    4.52
   0 -16 -32   30.74    5.84
   0 -16 -34   62.12    7.49
   0 -16 -36    0.25    2.20
   0  18   0 1648.04   66.66
   0 -18   0 1635.99   59.16
   0  18   0 1776.79   65.97
   0  18  -2 1461.72   50.40
   0 -18   2 1375.14   45.15
   0  18   2 1451.43   48.46
   0  18   2 1297.61   50.16
   0 -18  -2 1404.10   45.58
   0 -18  -4 1084.15   38.83
   0  18  -4 1130.71   43.52
   0 -18   4 1013.63   37.29
   0  18   4  980.26   41.89
   0  18   4 1029.39   39.11
   0 -18   6  258.93   19.44
   0  18   6  261.19   22.08
   0 -18  -6  280.48   19.63
   0  18  -6  244.01   20.96
   0 -18  -8  272.16   19.06
   0  18   8  280.57   23.46
   0 -18   8  270.79   20.01
   0  18  -8  266.73   21.77
   0 -18 -10  934.14   35.83
   0  18  10  977.72   45.47
   0  18 -10  928.36   43.08
   0 -18  10  936.99   39.26
   0  18 -12  388.52   29.52
   0  18  12  396.45   31.11
   0 -18  12  387.61   27.13
   0 -18  14  645.84   36.16
   0  18 -14  594.87   38.60
   0  18  14  685.57   42.74
   0  18  16  388.71   28.82
   0  18 -16  316.15   13.89
   0 -18 -16  349.57   15.88
   0 -18  16  358.65   23.66
   0  18 -16  366.69   26.01
   0  18  18  127.95   20.75
   0 -18 -18  121.74   11.97
   0  18 -18  136.22   19.44
   0 -18 -18  107.90   10.86
   0  18 -18  109.71   10.11
   0  18 -20   14.59    8.31
   0  18 -20   28.10    6.03
   0 -18 -20   33.08    6.94
   0 -18 -20   30.18    6.43
   0 -18 -22  105.19    9.50
   0  18 -22   93.07    7.99
   0  18 -22  109.87   15.41
   0 -18 -22  112.35    9.34
   0  18 -24  259.39   16.92
   0 -18 -24  289.73   18.59
   0 -18 -24  277.84   19.39
   0  18 -26  480.02   20.76
   0 -18 -26  484.73   23.42
   0 -18 -26  505.03   22.60
   0 -18 -28  333.64   16.46
   0  18 -28  312.31   14.81
   0 -18 -28  323.12   16.95
   0  18 -30  232.35   12.46
   0 -18 -30  244.29   14.11
   0  18 -32   55.55    6.43
   0 -18 -32   71.57    8.30
   0 -18 -34   10.77    3.86
   0  20   0 1206.62   56.40
   0 -20   0 1161.38   52.26
   0 -20  -2  626.78   31.29
   0  20   2  588.71   33.44
   0  20   2  599.42   32.16
   0 -20   2  605.98   30.75
   0  20  -2  624.77   34.28
   0  20   4  243.09   22.10
   0 -20  -4  266.03   20.16
   0  20  -4  278.16   22.22
   0 -20   4  266.52   19.70
   0  20   4  250.24   20.84
   0  20   6  145.34   19.96
   0  20  -6  147.33   19.26
   0 -20   6  162.19   17.91
   0 -20  -6  149.33   17.49
   0  20   6  146.30   18.56
   0 -20  -8  335.40   26.43
   0 -20   8  311.12   26.60
   0  20   8  334.51   31.21
   0  20  -8  378.23   31.44
   0  20 -10   88.35   16.89
   0  20  10   91.66   17.78
   0 -20  10   89.10   15.42
   0 -20 -10   94.63   14.19
   0 -20  12  320.01   24.92
   0  20 -12  325.83   27.36
   0  20 -12  275.42   14.44
   0  20  12  343.98   29.39
   0  20  12  361.66   19.81
   0 -20 -14  337.63   18.39
   0  20  14  445.21   37.42
   0  20  14  474.39   25.03
   0  20 -14  326.89   17.13
   0 -20  14  419.81   30.56
   0  20 -14  403.08   33.07
   0  20  16   62.21   13.58
   0 -20 -16   39.52    5.42
   0  20 -16   35.36    8.84
   0  20 -16   38.91    5.27
   0 -20  16   48.64    9.16
   0 -20 -16   36.61    5.23
   0  20 -18  115.83   17.55
   0 -20 -18  120.42   11.08
   0  20 -18  122.36   10.28
   0 -20 -18  112.03   10.10
   0  20 -20    1.85    7.15
   0 -20 -20    1.28    3.75
   0  20 -20    1.04    3.66
   0 -20 -20    0.82    3.83
   0  20 -22   18.79    4.04
   0 -20 -22   16.41    4.27
   0 -20 -22   22.67    4.40
   0 -20 -24  177.85   13.92
   0  20 -24  170.03   12.05
   0 -20 -24  171.47   12.93
   0  20 -26  217.60   14.12
   0 -20 -26  252.36   16.41
   0 -20 -26  240.18   16.58
   0 -20 -28  327.26   16.53
   0 -20 -28  301.18   16.78
   0  20 -28  303.53   14.69
   0  20 -30  124.22    8.96
   0 -20 -30  143.78   10.66
   0 -20 -32   21.17    4.52
   0  20 -32   23.56    4.45
   0 -20 -34    0.01    2.40
   0  22   0  905.41   56.15
   0 -22   0  837.31   51.12
   0 -22   2  156.45   16.92
   0  22  -2  135.11   16.80
   0  22   2  151.56   17.56
   0 -22  -2  153.39   16.55
   0  22   4    5.49    9.99
   0 -22   4    7.02   10.04
   0  22   4    8.82   11.53
   0 -22  -4    4.48    9.15
   0  22  -4    4.38    9.98
   0  22  -4    4.96    6.66
   0  22   6   31.17   13.12
   0  22   6   26.71    7.12
   0  22  -6   27.74   11.35
   0 -22   6   26.98   10.09
   0  22  -6   23.06    6.81
   0  22   6   24.28   10.01
   0 -22  -6   22.06    9.08
   0  22   6   22.67    6.47
   0  22   8    0.34    3.45
   0 -22   8    5.12    5.75
   0  22   8    0.04    6.41
   0  22  -8    0.99    2.44
   0  22   8    5.46    5.07
   0  22   8    2.29    2.98
   0  22  -8    5.12    5.49
   0  22  -8    1.06    2.77
   0 -22  -8    0.04    4.01
   0 -22 -10   26.48    6.37
   0  22 -10   13.23    2.90
   0  22  10   16.11    3.59
   0  22 -10   11.02    5.79
   0 -22  10    7.58    5.07
   0  22 -10   15.09    3.00
   0  22  10    3.58    4.44
   0  22  10   17.27    5.24
   0 -22  12  297.33   26.86
   0  22  12  311.84   32.24
   0 -22 -12  243.93   15.66
   0  22 -12  265.09   16.13
   0  22 -12  270.37   28.11
   0  22 -12  290.21   18.79
   0  22  14   14.10   11.09
   0  22  14   10.80    6.30
   0  22 -14    7.82    4.79
   0  22 -14   13.57   10.17
   0 -22 -14   12.94    5.48
   0 -22  14    1.33    4.37
   0  22  16  209.95   29.16
   0 -22  16  209.29   23.98
   0  22 -16  239.66   28.54
   0 -22 -16  226.17   15.21
   0  22 -16  221.27   15.27
   0 -22 -16  239.09   16.55
   0 -22 -18   35.04    6.55
   0  22 -18   38.88    6.44
   0  22 -18   44.02   12.65
   0 -22 -18   35.41    6.45
   0 -22 -20    4.62    3.48
   0 -22 -20    7.61    4.26
   0  22 -20    5.33    3.72
   0 -22 -22   56.42    8.42
   0 -22 -22   55.04    8.65
   0  22 -22   49.35    7.51
   0  22 -24   13.18    3.54
   0 -22 -24   12.16    4.08
   0 -22 -24   11.09    3.99
   0  22 -26   61.89    7.23
   0 -22 -26   74.08    8.43
   0 -22 -26   57.95    8.17
   0  22 -28  136.42    9.99
   0 -22 -28  144.53   10.68
   0  22 -28  117.90    8.73
   0 -22 -30   32.16    4.45
   0  22 -30   27.15    3.72
   0  22 -32    2.40    3.74
   0 -22 -32    0.14    2.15
   0 -24   0  142.43   23.26
   0  24   0  154.64   16.00
   0  24   0  155.90   25.40
   0  24   0  158.29   15.84
   0  24   2   52.82    6.63
   0 -24   2   38.01    8.17
   0  24  -2   53.83    6.33
   0  24  -2   46.09    9.36
   0  24  -2   47.84    6.25
   0 -24  -2   35.72    8.78
   0  24   2   52.18   10.32
   0  24   2   54.95    6.37
   0 -24  -4   51.55   15.48
   0 -24   4   34.78   14.02
   0  24  -4   43.95   15.78
   0  24   4   44.68    9.96
   0  24  -4   54.14   10.26
   0  24   4   38.06   15.15
   0  24  -4   55.62   10.57
   0  24   4   52.18   10.58
   0  24  -6  405.83   36.08
   0  24   6  372.39   33.58
   0  24  -6  395.92   21.24
   0  24   6  453.90   23.51
   0  24  -6  426.19   22.56
   0 -24   6  373.62   31.50
   0 -24  -6  400.98   32.38
   0  24   6  444.09   23.70
   0  24   8  124.52   14.14
   0  24   8  121.63   13.42
   0  24  -8   97.92   11.69
   0  24   8   97.82   18.93
   0 -24  -8   88.34   16.76
   0 -24   8  101.78   18.45
   0  24  -8  111.74   12.87
   0  24   8  106.90   22.18
   0  24  -8  105.84   20.59
   0  24 -10   13.09    4.16
   0 -24  10   13.43    6.99
   0  24  10    1.59    5.90
   0  24 -10   11.28    4.20
   0  24 -10    0.11    7.05
   0  24  10    0.28    6.25
   0  24  10    7.58    3.72
   0  24  12   45.98   12.45
   0  24  12   52.31    7.59
   0  24 -12   54.70   13.40
   0  24  12   47.29    7.85
   0  24 -12   54.50    7.80
   0 -24 -12   35.77    5.80
   0  24  12   42.27   10.71
   0  24 -12   48.15    6.90
   0 -24  12   35.27    8.75
   0  24  14   44.23    9.76
   0  24  14   27.55   10.02
   0  24 -14   44.23    7.59
   0 -24  14   21.35    8.18
   0  24  14   43.95    8.40
   0  24 -14   32.56   12.54
   0  24  14   22.60   11.90
   0 -24 -14   31.17    6.93
   0  24 -14   40.30    7.82
   0 -24 -16   45.07    9.72
   0  24 -16   37.83    8.94
   0 -24 -16   36.36    8.67
   0  24 -16   46.69   10.47
   0 -24 -18   28.37    5.13
   0 -24 -18   26.38    4.52
   0  24 -18   27.41    4.35
   0  24 -18   31.18    5.86
   0  24 -20  201.33   13.18
   0 -24 -20  212.69   13.77
   0 -24 -20  217.97   14.74
   0  24 -22   67.19    8.44
   0 -24 -22   76.88    9.13
   0  24 -22   63.71    7.36
   0 -24 -22   69.06    7.89
   0  24 -24   40.62    4.85
   0 -24 -24   41.95    5.42
   0 -24 -24   48.57    6.21
   0  24 -24   43.54    5.65
   0  24 -26    0.02    3.50
   0 -24 -26    0.02    2.60
   0 -24 -26    0.02    3.45
   0  24 -26    0.02    3.36
   0 -24 -28   18.49    4.12
   0  24 -28   14.34    3.15
   0  24 -30    0.47    2.12
   0 -24 -30    2.26    2.20
   0  26   0    2.91    8.78
   0 -26   0    5.98    9.37
   0  26   0    6.64    5.71
   0  26   0    1.61    4.70
   0  26   2    2.84    3.43
   0  26   2    1.55    5.70
   0 -26   2    3.08    6.12
   0  26   2    6.23    4.44
   0 -26  -2    3.43    6.02
   0  26  -2    6.90    3.44
   0  26  -2    3.71    7.62
   0  26  -2    8.46    4.39
   0  26   4  269.82   19.32
   0  26   4  254.43   29.48
   0  26  -4  255.17   30.10
   0 -26  -4  249.32   28.13
   0  26   4  267.83   19.08
   0  26  -4  296.46   19.42
   0  26  -4  280.58   18.50
   0 -26   4  254.85   28.22
   0  26  -6  758.56   48.46
   0  26   6  841.95   30.92
   0  26   6  763.87   46.97
   0 -26  -6  674.66   42.05
   0  26  -6  772.36   28.60
   0  26   6  872.93   32.47
   0  26  -6  830.89   29.63
   0 -26   6  764.11   44.32
   0 -26   8  622.50   39.02
   0  26  -8  673.74   26.49
   0  26   8  589.73   40.02
   0  26   8  757.32   29.96
   0  26  -8  678.28   25.85
   0  26  -8  665.62   44.93
   0  26  10   71.82    8.13
   0  26 -10   50.44    5.13
   0  26  10   47.40    8.66
   0 -26  10   33.43    5.38
   0  26 -10   60.31   10.64
   0  26 -10   63.72    6.60
   0  26  12  164.44   14.91
   0  26 -12  136.68   12.17
   0  26 -12  120.58   10.95
   0  26  12  154.56   13.27
   0  26 -14   75.33   11.35
   0  26  14   78.52   12.12
   0 -26 -14   62.60   10.25
   0  26 -14   58.30    9.61
   0 -26 -14   55.17    9.42
   0  26 -16   31.25    6.04
   0 -26 -16   21.48    4.45
   0 -26 -16   17.58    4.44
   0  26 -16   26.86    5.24
   0  26 -18  140.89   11.65
   0 -26 -18  135.94   11.81
   0  26 -18  151.41   13.22
   0 -26 -18  155.25   13.11
   0  26 -20  116.14    9.34
   0 -26 -20  126.27    9.87
   0  26 -20  125.27   10.41
   0 -26 -20  122.39   10.33
   0 -26 -22  272.68   15.20
   0  26 -22  241.11   13.83
   0 -26 -22  245.74   15.57
   0  26 -22  283.60   15.72
   0  26 -24  213.49   13.66
   0  26 -24  182.32   12.01
   0 -26 -24  191.06   13.63
   0 -26 -24  189.33   12.88
   0  26 -26   12.05    3.32
   0 -26 -26   13.17    3.54
   0 -26 -28    9.37    3.17
   0  26 -28    6.82    2.44
   0 -28   0   45.02    9.57
   0  28   0   55.25   10.12
   0  28   0   56.11    6.95
   0  28   0   43.17    5.57
   0 -28  -2   28.00    9.75
   0  28  -2   37.27    7.21
   0  28  -2   44.33    8.27
   0  28   2   42.11    8.14
   0  28   2   36.88    7.51
   0  28  -2   39.87   13.40
   0 -28   2   30.84   11.61
   0  28   2   39.87   12.91
   0  28   4  561.42   24.78
   0 -28  -4  437.71   33.75
   0  28  -4  589.89   24.19
   0  28  -4  539.92   23.50
   0  28   4  556.99   24.27
   0  28   4  403.51   33.21
   0  28  -6  740.01   27.91
   0  28  -6  704.11   27.51
   0  28  -8  715.33   29.49
   0  28   8  750.41   32.94
   0  28  -8  645.63   27.74
   0  28 -10  290.24   19.55
   0  28  10  337.24   22.88
   0  28  10  301.42   20.84
   0  28  12   84.08   11.21
   0  28 -12   71.70    9.53
   0  28  12   88.57   12.19
   0  28 -12   75.59   10.03
   0 -28 -14  108.92    9.23
   0  28  14  135.08   11.36
   0  28 -14  111.07    9.91
   0  28 -14  124.31   10.66
   0  28 -16  170.20   12.76
   0 -28 -16  148.82   11.35
   0  28 -16  149.78   11.94
   0  28 -18  287.53   16.38
   0  28 -18  259.90   14.88
   0 -28 -18  266.43   15.02
   0 -28 -18  255.97   15.67
   0 -28 -20  148.27   11.24
   0  28 -20  138.17   10.84
   0 -28 -20  154.46   12.30
   0  28 -20  168.03   12.20
   0  28 -22  235.29   14.32
   0 -28 -22  239.29   14.94
   0  28 -22  229.82   13.37
   0 -28 -22  238.37   13.88
   0  28 -24  225.01   12.93
   0 -28 -24  223.65   12.69
   0 -28 -26   36.01    4.17
   0  28 -26   42.19    4.74
   0  30   0    6.88    3.64
   0  30   0   17.78    5.20
   0  30  -2   96.13   11.07
   0  30   2   91.46   10.60
   0  30  -2   81.65    9.49
   0  30   2  103.04   11.43
   0  30   4  148.65   15.09
   0  30  -4  134.76   14.84
   0  30  -4  123.08   13.63
   0  30   4  169.82   16.77
   0  30   6  399.78   24.26
   0  30  -6  355.00   21.98
   0  30  -8  284.79   17.50
   0  30  -8  257.00   15.80
   0  30  10  147.48   14.07
   0  30 -10  140.34   12.47
   0  30  10  144.85   12.81
   0  30 -10  120.83   10.93
   0  30 -12   15.87    4.81
   0  30  12   19.10    4.89
   0  30 -12   16.09    5.04
   0  30  14   16.74    4.28
   0  30 -14   17.89    4.47
   0  30 -14   20.15    4.65
   0  30 -16  103.07   10.53
   0  30 -16  103.95   10.08
   0  30 -18  111.93   10.40
   0  30 -18  103.06    9.50
   0  30 -20  185.11   11.16
   0  30 -20  158.81    9.87
   0  30 -22   69.21    6.98
   0  30 -24   34.58    4.21
   0  32   0   19.67    7.76
   0  32   0   27.70    9.24
   0  32  -2   52.98    7.15
   0  32  -2   53.66    6.94
   0  32   2   61.02    7.97
   0  32  -4    8.37    3.60
   0  32  -4   15.41    5.18
   0  32   4   14.14    4.71
   0  32  -6   17.55    5.37
   0  32   6   31.93    7.44
   0  32  -6   24.12    6.02
   0  32   8    0.20    4.52
   0  32  -8    3.81    3.66
   0  32   8    3.86    3.36
   0  32  -8    0.48    2.83
   0  32  10    4.64    3.08
   0  32 -10    8.93    3.99
   0  32 -10    8.55    3.07
   0  32  10    0.41    4.35
   0  32 -12   24.70    6.08
   0  32 -12   17.77    5.19
   0  32  12   17.76    5.52
   0  32 -14   17.11    4.26
   0  32 -14   18.35    4.59
   0  32 -16    3.92    2.99
   0  32 -16    0.14    3.04
   0  32 -18    3.26    2.22
   0  32 -18    3.57    2.61
   0  32 -20   55.18    5.90
   0  32 -22    9.57    2.88
   0  34   0  262.67   17.08
   0  34  -2   88.46    8.49
   0  34   2  105.74   10.26
   0  34  -2  109.13   10.13
   0  34  -4   88.31    9.43
   0  34   4   85.61    9.47
   0  34  -4   81.46    8.27
   0  34  -6   33.52    6.73
   0  34  -6   37.10    8.02
   0  34   6   49.36    8.37
   0  34   6   38.84    8.28
   0  34   8    2.56    3.49
   0  34   8    9.86    3.11
   0  34  -8    2.29    3.52
   0  34  -8    6.10    2.36
   0  34  10   37.23    6.14
   0  34 -10   36.98    6.24
   0  34 -10   21.17    4.34
   0  34  12   84.90    8.73
   0  34 -12   91.85    9.18
   0  34 -14  124.90    8.71
   0  34 -14  160.98   11.04
   0  34 -16  141.21    9.23
   0  34 -16   83.54    6.28
   0  34 -18    3.67    2.21
   0  36   0  243.54   16.07
   0  36  -2  147.66   11.32
   0  36   2  158.53   11.84
   0  36   2  146.91   11.66
   0  36   4  230.12   13.30
   0  36   4  223.01   13.20
   0  36  -4  210.59   12.52
   0  36  -6   55.59    7.55
   0  36   6   73.46    8.60
   0  36   6   65.89    8.42
   0  36  -8    0.45    2.03
   0  36   8    0.45    2.33
   0  36  -8    0.64    2.80
   0  36  10   30.45    4.96
   0  36 -10   28.48    4.81
   0  36 -10   20.11    3.56
   0  36 -12   87.90    6.39
   0  36 -12  160.51   10.07
   0  36 -14  194.58   10.27
   0  38   0   61.43    7.09
   0  38   0   59.12    7.22
   0  38   2  234.14   12.67
   0  38   2  241.61   12.60
   0  38  -2  237.84   12.44
   0  38  -2  236.11   12.35
   0  38  -4  141.88    9.47
   0  38  -4  125.44    9.03
   0  38   4  139.49    9.18
   0  38   6   13.16    3.26
   0  38  -6   11.07    3.00
   0  38  -6   12.00    3.20
  -1   1  -3  528.10   18.99
   1  -1  -3  529.30   17.87
  -1   1  -3  582.56   16.48
  -1  -1  -3  583.21   19.70
   1   1  -3  579.88   17.88
  -1  -1  -3  572.26   13.61
   1  -1   3  505.97   14.94
   1   1  -5  202.50    3.64
  -1   1  -5  197.32    4.25
   1   1  -5  203.28    3.64
  -1  -1  -5  233.87    2.88
  -1  -1  -5  238.46    4.03
  -1   1  -5  194.36    3.36
   1   1  -5  204.45    3.47
   1  -1  -5  191.89    3.36
  -1  -1   5  204.73    2.33
  -1   1  -5  193.10    1.90
   1  -1   5  200.79    3.03
   1  -1   7  105.58    3.79
  -1   1  -7  113.79    6.24
   1   1  -7  100.29    5.83
  -1  -1   7   95.65    2.83
   1   1  -7   96.16    5.28
  -1   1  -7  109.94    3.39
   1   1  -7   97.13    4.77
   1  -1  -7  141.34    5.60
  -1  -1  -7   97.40    6.02
  -1   1  -7  106.33    4.82
   1  -1  -7  133.79    5.19
  -1  -1  -7   96.82    4.59
  -1  -1  -9  668.60   25.43
   1  -1  -9  643.77   24.40
  -1  -1  -9  580.64   19.84
  -1   1  -9  617.02   25.30
   1  -1  -9  624.48   21.67
  -1  -1   9  572.57   11.08
   1  -1   9  584.09   15.52
  -1   1  -9  556.82   15.16
   1   1  -9  587.92   21.49
   1   1  -9  680.00   24.44
   1  -1  -9  536.16   21.13
  -1   1  -9  564.72   20.49
   1   1  -9  617.85   19.79
   1  -1 -11 1164.11   24.36
  -1  -1 -11 1061.60   23.58
   1   1 -11 1096.32   22.44
  -1   1 -11 1054.15   23.45
   1   1 -11 1252.80   28.38
  -1  -1 -11 1017.41   18.76
  -1   1 -11  976.13   16.99
  -1  -1 -11 1231.24   29.09
   1  -1 -11 1076.11   24.87
   1   1 -11 1072.96   24.78
  -1   1 -11 1154.03   27.91
  -1  -1 -13  478.24   19.06
   1  -1 -13  527.41   23.70
  -1   1 -13  481.86   17.99
  -1  -1 -13  640.48   30.35
   1   1 -13  480.63   22.23
   1   1 -13  495.00   25.36
  -1   1 -13  667.08   30.73
   1  -1 -13  506.59   25.56
  -1  -1 -13  589.52   26.85
  -1   1 -13  545.59   25.79
   1   1 -15  618.69   21.87
  -1   1 -15  496.33   15.91
  -1  -1 -15  625.62   25.74
  -1  -1 -15  641.26   27.81
   1  -1 -15  579.49   21.67
   1  -1 -15  632.56   25.80
  -1   1 -15  672.59   27.45
   1   1 -15  601.07   24.84
  -1  -1 -15  512.04   16.98
  -1   1 -15  605.15   24.31
  -1   1 -17  731.62   27.13
   1  -1 -17  661.58   20.67
  -1   1 -17  678.68   24.17
  -1  -1 -17  745.63   26.55
   1   1 -17  645.77   20.20
   1  -1 -17  714.04   25.72
   1   1 -17  672.21   24.34
  -1  -1 -17  732.95   26.99
  -1   1 -19  396.60   25.25
  -1  -1 -19  367.38   24.71
  -1   1 -19  379.99   23.86
   1  -1 -19  346.65   18.99
   1   1 -19  374.41   24.13
  -1  -1 -19  404.98   25.89
   1   1 -19  312.79   18.04
   1  -1 -19  409.72   25.51
   1   1 -21  104.29   16.18
  -1  -1 -21  105.59   17.10
  -1   1 -21   97.74   15.71
   1  -1 -21  116.24   17.13
  -1   1  23   57.16   10.72
  -1   1 -23   66.89   12.33
   1  -1 -23   74.51   13.66
   1   1 -23   73.49   12.69
   1   1  23   59.24   11.24
  -1   1 -25  261.35   27.29
   1   1 -25  267.97   27.17
   1   1  25  242.31   25.59
   1   1 -25  268.66   16.90
  -1  -1 -25  254.37   16.48
   1  -1 -25  264.89   16.66
  -1   1 -25  257.42   16.87
   1   1 -27  438.98   21.01
  -1  -1 -27  404.87   19.81
  -1   1 -27  436.06   20.01
   1   1 -27  465.40   20.97
   1  -1 -27  438.36   20.49
  -1   1 -27  432.87   20.95
   1   1 -29  465.86   22.58
   1   1 -29  451.57   23.14
  -1   1 -29  425.92   21.47
   1  -1 -29  454.08   22.70
  -1  -1 -29  437.90   22.47
  -1   1 -29  419.61   22.41
   1   1 -31  422.05   21.71
   1  -1 -31  393.95   21.97
   1  -1 -31  400.97   21.65
  -1  -1 -31  392.76   20.52
  -1  -1 -31  396.71   22.22
  -1   1 -31  361.81   19.97
  -1   1 -31  393.52   22.71
   1   1 -31  394.59   22.60
  -1  -1 -33   50.63    8.66
   1  -1 -33   48.32    8.04
  -1   1 -33   34.23    6.91
  -1   1 -33   43.97    8.35
  -1  -1 -33   35.75    6.98
   1   1 -33   49.58    8.48
   1  -1 -33   46.18    8.69
   1   1 -33   43.63    7.37
  -1  -1 -35   15.78    4.60
  -1  -1 -35    8.93    3.62
   1  -1 -35    7.45    3.60
  -1   1 -35   18.08    4.45
   1  -1 -35   11.95    4.03
   1   1 -35   13.37    4.16
  -1  -1 -37   51.32    6.08
   1   1 -37   61.70    6.98
  -1   1 -37   49.89    5.87
   1  -1 -37   51.36    6.52
  -1  -1 -39   66.73    5.74
   1  -1 -39   80.28    6.85
   1   1 -39   80.09    6.59
  -1   1 -39   63.14    5.31
   1  -3  -1 1678.06   17.38
   1   3   1 1520.08   18.04
  -1  -3  -1 1608.32   12.65
  -1  -3   1 1725.03   19.30
   1   3  -1 1792.70   19.14
  -1   3   1 1681.10   18.41
   1   3  -1 1582.33   18.29
   1  -3   1 1572.53   17.97
  -1   3  -3 1349.20   12.44
   1  -3   3 1456.98   12.21
   1   3   3 1495.15   13.58
  -1   3  -3 1329.83   10.71
  -1  -3  -3 1541.55   12.46
  -1   3   3 1440.53   10.85
  -1  -3   3 1444.45   11.73
   1  -3  -3 1518.48   10.24
   1   3  -3 1508.83   13.86
  -1   3   5  268.40    2.45
   1  -3  -5  273.10    1.54
   1   3  -5  268.42    2.43
  -1   3  -5  279.39    3.02
   1   3   5  255.96    3.26
   1   3  -5  268.18    2.84
  -1   3  -5  280.01    2.92
   1   3  -5  267.22    2.32
  -1  -3   5  271.50    1.84
  -1  -3  -5  264.66    2.69
   1  -3   5  314.18    2.28
  -1  -3   7    6.82    3.11
   1   3  -7    8.33    4.52
   1  -3   7   13.30    4.33
  -1  -3  -7    7.96    5.84
  -1   3   7   11.19    4.39
   1   3  -7   11.34    5.03
   1  -3  -7   13.02    5.31
   1   3  -7   10.28    5.36
  -1   3  -7   13.34    5.60
  -1   3  -7   14.01    4.92
  -1   3  -7    9.40    3.58
  -1  -3  -9   18.32    6.00
  -1   3   9   26.80    5.47
   1  -3  -9   23.83    5.79
  -1  -3   9   17.96    4.00
  -1  -3  -9   20.03    5.56
  -1   3  -9   19.48    5.73
   1   3  -9   13.21    5.59
  -1   3  -9   13.46    3.79
   1   3  -9   10.72    5.04
  -1   3  -9   25.42    5.86
   1   3  -9   19.38    6.02
   1  -3   9   19.98    4.32
  -1  -3 -11  188.26   12.54
  -1   3 -11  148.44   11.38
   1  -3 -11  189.78   13.11
  -1   3 -11  121.90    7.88
   1  -3  11  174.57    9.38
   1   3 -11  211.99   13.84
  -1   3 -11  179.67   13.51
   1   3 -11  170.86   10.51
  -1  -3  11  192.94    8.54
   1   3 -11  175.17   12.32
  -1  -3 -11  193.89   13.74
  -1   3 -13  301.24   15.24
  -1  -3 -13  179.66    9.88
   1   3 -13  251.55   13.54
   1   3 -13  226.58   12.40
  -1  -3 -13  301.52   14.44
  -1   3 -13  252.06   13.42
  -1  -3  13  237.94    7.46
   1  -3 -13  222.97   12.20
  -1   3 -13  215.22    8.43
   1  -3  13  286.47   10.12
   1   3 -13  234.25   10.84
   1  -3 -13  240.06   13.11
  -1  -3 -13  301.42   15.40
  -1   3 -15   53.14    8.47
  -1   3 -15   32.40    4.30
   1   3 -15   51.94    7.89
  -1  -3 -15   34.17    5.89
  -1  -3 -15   59.26    8.65
  -1   3 -15   50.41    7.45
   1  -3 -15   56.42    8.68
  -1  -3 -15   45.19    7.81
   1  -3 -15   41.54    6.93
   1   3 -15   46.78    6.23
  -1   3  15   65.04    8.33
   1  -3 -17   52.00   10.69
   1   3 -17   39.44    7.42
  -1   3  17   45.33    9.48
   1   3 -17   51.47   10.26
  -1  -3 -17   38.68    7.47
  -1   3 -17   48.47   10.62
   1  -3 -17   41.12    8.55
  -1  -3 -17   62.30   11.70
  -1   3 -17   46.78    9.81
  -1  -3 -17   55.79   11.55
  -1   3 -19   23.86    5.61
   1   3  19   33.44    6.69
  -1   3  19   30.67    5.55
  -1   3 -19   33.86    6.53
   1   3 -19   28.64    5.66
   1   3 -19   23.07    4.22
   1  -3 -19   18.77    4.35
  -1   3 -21    0.53    5.42
   1   3  21    3.03    4.16
   1   3 -21    2.02    3.90
  -1   3  21    6.56    4.94
  -1   3 -21    4.79    5.98
   1   3  23    2.53    5.22
  -1   3 -23    3.13    6.50
  -1  -3 -23    1.48    2.21
   1   3 -23    2.23    4.61
   1  -3 -25   62.64    7.84
   1   3 -25   70.49    8.30
  -1   3 -25   74.11   13.33
   1   3  25   58.86   12.05
   1   3 -25   55.21   12.32
  -1   3 -25   64.04    8.81
  -1   3 -25   58.37    7.47
  -1  -3 -25   60.71    7.96
   1   3 -25   74.61    9.23
   1   3 -27  180.74   25.48
   1   3 -27  223.11   16.95
  -1   3 -27  216.16   16.33
  -1  -3 -27  217.20   16.58
   1   3 -27  223.49   17.92
  -1   3 -27  207.33   17.61
   1  -3 -27  196.88   15.77
   1   3 -29  399.83   21.85
   1  -3 -29  361.02   19.63
  -1   3 -29  363.91   21.03
  -1   3 -29  343.78   18.64
   1   3 -29  357.25   19.35
  -1  -3 -29  337.99   19.14
   1  -3 -31   30.42    5.96
  -1  -3 -31   31.77    5.92
   1   3 -31   28.43    6.30
  -1   3 -31   27.60    4.79
  -1   3 -31   26.71    5.44
   1   3 -31   29.10    5.75
  -1  -3 -33    0.00    3.22
   1   3 -33    6.27    4.51
   1  -3 -33    0.40    4.11
  -1   3 -33    0.39    2.90
  -1  -3 -33    0.19    3.79
   1  -3 -33    0.40    4.02
  -1   3 -35    0.06    2.67
  -1  -3 -35    0.03    2.93
  -1  -3 -35    2.41    3.73
   1   3 -35    0.02    2.77
   1  -3 -35    0.02    3.58
   1  -3 -35    0.02    3.41
   1  -3 -37    2.26    3.29
   1  -3 -37    0.21    3.62
  -1  -3 -37    1.68    2.38
  -1   3 -37    4.41    2.13
   1   3 -37    8.26    2.75
  -1  -3 -39   43.76    5.03
   1   3 -39   51.35    5.70
   1  -3 -39   48.70    5.72
  -1   5   1  102.40    7.27
  -1  -5  -1  115.83    2.94
  -1  -5  -1  106.34    6.52
  -1  -5   1   99.22    6.97
   1  -5   1  104.63    6.46
   1   5  -1  103.50    6.69
   1   5  -1  106.92    6.98
   1   5   1  108.60    6.46
   1  -5  -1  110.97    6.18
  -1  -5   3  155.96    3.35
  -1   5  -3  139.97    3.49
   1  -5  -3  141.80    2.92
   1   5  -3  152.52    3.79
   1   5  -3  155.65    3.60
  -1  -5  -3  167.65    3.69
  -1   5   3  141.58    3.30
   1   5   3  157.93    3.20
  -1  -5  -3  157.83    2.54
  -1   5  -3  139.34    2.48
   1  -5   3  139.88    2.99
  -1  -5   5  183.45   10.40
   1   5  -5  198.57   12.13
   1   5  -5  200.41   11.84
  -1   5  -5  193.68   10.79
  -1  -5  -5  206.18   10.96
   1   5  -5  170.15    8.82
  -1  -5  -5  203.43   11.20
  -1   5   5  177.34   10.50
   1   5   5  202.84   12.19
   1  -5   5  183.44   10.91
  -1   5  -5  176.99   12.03
   1  -5  -5  177.15    8.87
   1   5  -7  708.72   21.65
  -1   5  -7  707.78   23.83
  -1  -5  -7  713.38   19.45
  -1   5  -7  721.37   22.93
  -1   5   7  710.24   20.87
  -1  -5   7  727.30   19.50
   1   5  -7  725.43   20.28
   1  -5   7  691.16   20.86
   1  -5  -7  735.84   15.34
  -1  -5  -7  756.34   23.48
   1   5  -7  758.81   23.82
   1   5   7  719.23   23.76
  -1   5  -9   81.13    7.51
   1  -5   9   89.93    6.79
   1   5   9   80.83    7.90
  -1  -5  -9   77.90    7.73
   1   5  -9   63.66    6.73
   1   5  -9   70.14    7.11
   1   5  -9   66.69    7.92
  -1  -5  -9   73.70    5.34
   1  -5  -9   67.89    3.30
  -1   5   9   83.73    7.09
  -1   5  -9   86.69    7.80
  -1  -5   9   73.24    6.28
   1   5  11   21.05    5.89
  -1   5  11   21.73    5.48
  -1   5 -11   20.82    6.35
  -1  -5  11   28.69    4.93
   1  -5  11   19.50    4.96
  -1  -5 -11   15.67    2.86
  -1   5 -11   18.19    5.97
   1   5 -11   25.03    6.00
   1   5 -11   20.96    5.73
  -1  -5 -11   19.09    5.94
   1   5 -11   12.59    4.42
  -1   5 -13   18.53    4.51
  -1   5  13   21.24    4.68
   1  -5  13   21.95    3.70
  -1  -5  13   14.38    3.00
   1   5  13   13.62    4.33
   1   5 -13   11.35    3.81
  -1  -5 -13   18.43    5.46
   1   5 -13   11.24    3.27
  -1   5 -13   16.45    4.19
   1   5 -13    7.17    3.68
  -1  -5 -15   15.69    7.42
   1   5 -15   13.50    5.75
  -1   5 -15   21.22    7.22
   1  -5 -15   14.24    7.15
   1  -5  15   13.89    4.87
  -1  -5 -15    0.75    4.07
   1   5 -15   14.50    6.36
  -1  -5  15   10.12    4.13
  -1   5 -15   18.92    6.87
  -1   5  15   13.43    6.15
   1   5  15   12.63    6.89
   1  -5 -17  134.24   11.54
  -1  -5 -17   87.62    9.20
   1   5 -17  124.32    9.71
  -1  -5 -17  172.56   14.36
   1   5  17  144.71   12.86
  -1   5 -17  133.49   12.08
   1   5 -17  137.36   12.62
  -1   5 -17  138.87   13.09
  -1   5  17  132.76   11.51
  -1   5  19  211.17   16.30
  -1   5 -19  193.89   17.11
   1   5 -19  197.24   16.67
   1   5  19  215.22   17.25
  -1   5 -19  176.29   15.37
   1  -5 -19  190.10   14.70
   1   5  21  160.18   15.05
  -1   5 -21  154.05   14.40
  -1   5  21  164.61   13.95
   1   5 -21  146.78   14.18
   1   5 -23   69.82   12.47
   1  -5 -23   47.96    6.92
  -1  -5 -23   48.64    6.69
   1   5  23   72.36   12.45
  -1   5 -23   70.89   12.17
  -1   5 -23   62.79    8.02
   1  -5 -23   68.09    7.70
  -1  -5 -23   55.61    6.78
   1   5  25    5.07    4.83
   1   5 -25    0.46    5.22
   1   5 -25    4.07    4.13
  -1   5 -25    3.35    4.09
   1   5 -25    1.00    3.04
  -1   5 -25    0.53    6.49
   1  -5 -25    1.34    2.78
   1  -5 -25    2.67    2.87
  -1  -5 -25    4.26    3.76
  -1   5 -25    1.01    2.68
   1   5 -27  144.10   12.02
  -1   5 -27  130.67   10.28
   1   5 -27  152.17   11.29
  -1  -5 -27  141.40   10.94
   1   5 -27   96.58   14.91
  -1   5 -27  147.71   12.01
  -1   5 -27  106.77   15.38
   1  -5 -27  134.88   10.68
   1   5 -29   23.78   10.18
   1  -5 -29   41.58    7.64
  -1  -5 -29   40.97    7.99
   1   5 -29   37.27    7.46
  -1   5 -29   38.21    8.35
  -1   5 -29   39.54    7.34
   1   5 -29   41.01    8.11
  -1  -5 -31   32.64    6.02
   1  -5 -31   32.33    6.24
   1   5 -31   33.50    5.82
  -1   5 -31   39.79    6.50
  -1   5 -33   68.88    7.08
   1  -5 -33   80.28    8.32
  -1  -5 -33   66.75    7.39
   1  -5 -33   77.53    8.29
   1   5 -33   71.29    7.77
  -1  -5 -33   68.02    8.19
   1  -5 -35   55.25    8.48
  -1  -5 -35   52.27    7.69
  -1  -5 -35   59.54    8.77
  -1   5 -35   43.50    6.32
   1  -5 -35   74.62    9.00
   1   5 -35   61.17    7.96
   1  -5 -37    9.81    3.55
   1   5 -37   13.23    3.53
  -1   5 -37    3.90    1.90
  -1  -5 -37   12.71    3.49
  -1  -5 -37   13.87    4.31
   1  -5 -37    8.88    4.12
   1  -5 -39    0.14    2.11
  -1  -5 -39    3.63    1.60
   1   5 -39    4.67    1.86
   1  -7  -1  434.70   12.07
   1   7  -1  474.48   13.81
   1  -7   1  394.91   11.90
  -1   7  -1  431.50   14.79
  -1  -7  -1  424.27   13.50
  -1  -7   1  436.89   13.39
   1   7   1  409.08   13.26
   1   7  -1  433.18   14.29
  -1   7   1  494.26   14.87
   1   7  -3  171.83   11.87
  -1   7  -3  148.87    8.12
  -1  -7  -3  176.53   12.00
  -1   7   3  163.37   11.16
   1  -7  -3  167.95    9.92
   1   7   3  148.34   11.44
  -1   7  -3  136.47   11.43
   1   7  -3  148.22   12.13
  -1  -7   3  157.19   10.96
   1  -7   3  143.97   10.63
  -1  -7  -5  210.69    7.05
  -1   7  -5  188.20    7.62
  -1  -7  -5  219.28    6.00
   1   7   5  221.73    7.71
   1  -7   5  223.35    7.56
  -1   7  -5  208.32    5.99
  -1  -7   5  235.26    7.21
  -1   7   5  227.26    7.34
   1   7  -5  233.36    7.79
   1  -7  -5  215.29    5.94
   1   7  -7  678.27   27.57
  -1  -7  -7  663.22   24.78
   1   7  -7  619.61   21.01
  -1   7  -7  598.13   26.73
  -1  -7   7  627.13   23.34
  -1   7   7  652.27   24.73
   1  -7   7  637.68   24.15
   1  -7  -7  622.39   19.97
   1   7   7  648.49   27.13
  -1  -7  -7  648.70   23.58
  -1   7  -7  684.73   24.74
   1  -7   9  427.60   17.17
  -1   7  -9  450.25   18.28
   1  -7  -9  440.65   12.87
   1   7  -9  452.25   19.46
  -1  -7   9  419.85   15.83
   1   7  -9  431.75   18.22
  -1  -7  -9  431.33   14.70
   1   7  -9  445.01   16.61
  -1   7   9  417.09   17.21
   1   7   9  466.73   19.81
  -1  -7  -9  467.81   19.20
  -1   7  -9  448.72   19.85
   1  -7  11  180.70   14.40
   1  -7 -11  134.24    7.56
  -1  -7 -11  195.12   17.24
  -1   7  11  184.30   15.20
  -1  -7 -11  135.09    9.79
   1   7 -11  163.34   16.07
  -1   7 -11  179.90   16.37
   1   7 -11  172.12   14.97
  -1  -7  11  184.94   13.77
  -1   7 -11  175.93   15.46
   1   7 -11  190.76   15.43
   1   7  11  185.78   16.74
   1  -7  13   27.10    6.01
   1   7 -13   30.50    5.61
   1   7  13   24.53    7.01
  -1  -7  13   25.03    5.86
  -1   7 -13   28.05    6.54
  -1   7 -13   27.69    6.58
  -1  -7 -13   28.99    2.88
  -1  -7 -13   24.98    6.99
   1   7 -13   28.08    6.74
  -1   7  13   23.73    6.71
   1  -7  15    5.75    4.86
   1   7 -15    5.19    4.39
  -1   7 -15    3.05    4.09
  -1  -7  15    7.04    4.10
  -1   7 -15    4.84    4.97
   1   7 -15    5.17    5.77
   1   7  15    4.49    5.28
  -1   7  15    7.59    5.48
   1   7  17  340.20   23.94
   1   7 -17  253.38   18.16
  -1   7 -17  329.41   23.48
  -1   7  17  335.30   22.82
   1   7 -17  330.10   23.69
  -1   7 -17  352.33   24.56
  -1   7 -19  687.51   34.04
  -1   7 -19  635.87   32.70
   1   7  19  620.75   32.80
   1  -7 -19  710.04   33.32
  -1   7  19  723.43   33.66
   1   7 -19  639.13   32.82
  -1   7  21  453.87   30.33
   1   7  21  460.04   31.66
   1   7 -21  436.68   30.59
  -1   7 -21  396.18   29.69
   1   7 -23  215.93   13.03
  -1   7 -23  207.78   20.10
   1   7 -23  213.64   20.55
  -1   7 -23  230.78   15.41
  -1  -7 -23  203.14   12.66
   1  -7 -23  220.61   13.38
   1   7 -23  206.36   14.39
   1   7  23  234.57   21.85
   1  -7 -23  196.85   13.10
  -1  -7 -23  181.31   12.56
   1  -7 -25    7.36    3.07
  -1   7 -25    8.64    3.49
   1   7 -25    9.06    3.44
  -1   7 -25    3.52    3.52
  -1  -7 -25    4.34    2.50
   1   7 -25   10.64    4.21
   1  -7 -25    4.90    2.96
   1   7 -25    9.98    4.14
  -1  -7 -25    4.90    3.45
  -1   7 -25    3.28    5.62
  -1   7 -27   11.28    3.77
   1  -7 -27   17.10    4.42
   1   7 -27   20.01    5.20
   1  -7 -27   19.23    4.65
  -1  -7 -27   15.72    4.20
   1   7 -27   13.48    4.83
   1   7 -27   12.10    7.08
  -1   7 -27    5.58    7.01
  -1  -7 -29   16.98    5.39
   1   7 -29   12.70    4.97
  -1   7 -29   14.26    4.90
   1  -7 -29   26.20    6.62
   1   7 -31  121.06   11.43
  -1   7 -31  126.43   11.15
   1  -7 -31  127.54   11.95
  -1  -7 -31  128.28   12.40
  -1  -7 -33  158.78   13.44
   1  -7 -33  177.78   13.83
  -1   7 -33  143.12   11.16
   1   7 -33  178.14   13.04
  -1  -7 -35  151.21   11.96
   1  -7 -35  151.09   11.73
  -1   7 -35  130.57    9.08
   1  -7 -35  165.30   12.00
   1   7 -35  154.18   10.57
  -1  -7 -35  151.20   10.98
  -1  -7 -37   71.82    8.28
   1  -7 -37   65.65    7.37
  -1  -7 -37   57.86    6.30
   1   7 -37   64.42    6.43
   1  -7 -37   75.96    7.30
  -1  -7 -39    4.89    2.12
   1  -7 -39    9.75    2.92
   1   7 -39    6.84    2.44
  -1  -9  -1  188.97    9.13
  -1   9   1  160.30    9.71
  -1   9  -1  146.41   10.34
   1   9  -1  185.65    9.89
   1  -9   1  151.82    8.54
  -1  -9   1  172.56    9.23
   1  -9  -1  167.52    8.27
   1   9   1  166.28    9.41
   1   9  -1  173.84   10.14
  -1   9  -3 1282.52   29.85
   1  -9   3 1259.08   41.67
  -1  -9   3 1301.41   42.35
   1  -9  -3 1301.86   39.80
   1   9   3 1281.06   44.94
  -1   9  -3 1294.35   44.89
   1   9  -3 1208.31   46.89
  -1   9   3 1323.36   46.90
  -1   9  -5  263.07   13.01
   1  -9   5  252.00   16.04
   1  -9  -5  282.33   15.02
   1   9  -5  295.47   17.78
  -1  -9   5  278.86   15.80
  -1   9   5  269.80   16.66
  -1   9  -5  254.78   17.89
   1   9   5  287.26   17.53
  -1  -9  -5  326.09   17.09
   1   9   7 1149.01   33.21
  -1   9  -7 1135.32   26.90
   1   9  -7 1084.17   32.32
  -1  -9   7 1091.18   28.84
  -1   9   7 1110.11   30.25
  -1  -9  -7 1122.61   28.77
   1  -9  -7 1098.89   26.01
  -1   9  -7 1114.85   32.59
   1  -9   7 1113.64   29.67
   1  -9  -9 1316.35   24.28
   1   9   9 1314.80   32.47
  -1   9  -9 1328.70   28.56
  -1   9   9 1356.55   31.53
  -1  -9  -9 1229.66   25.83
  -1   9  -9 1227.42   32.26
   1   9  -9 1360.07   32.96
  -1  -9   9 1328.11   28.95
   1  -9   9 1271.61   29.55
  -1  -9 -11  330.11   10.86
   1  -9 -11  337.74    9.80
   1   9  11  372.98   16.13
  -1   9  11  384.02   15.44
  -1   9 -11  380.73   14.83
  -1   9 -11  347.28   15.61
  -1  -9  11  362.75   13.85
   1   9 -11  353.57   15.69
   1  -9  11  368.06   14.45
  -1   9 -13  143.76   15.89
  -1  -9  13  146.39   14.75
  -1   9 -13  125.87   16.29
   1   9 -13  133.57   16.92
  -1  -9 -13   97.93    9.32
  -1   9  13  152.53   16.37
   1   9  13  157.09   17.80
   1  -9  13  141.94   15.05
   1  -9  15    0.12    4.12
  -1   9 -15    0.00    4.39
   1   9 -15    0.17    5.56
  -1   9  15    3.09    6.37
  -1   9 -15    1.24    5.98
   1   9  15    5.27    6.61
  -1  -9  15    1.93    4.45
  -1   9 -17  234.18   21.01
   1   9 -17  233.98   20.94
   1  -9  17  223.19   17.49
   1   9  17  223.79   21.11
  -1   9  17  238.74   20.38
  -1   9 -17  237.63   20.61
  -1   9 -19  873.31   38.43
  -1   9  19  986.76   39.79
   1   9 -19  932.77   40.08
  -1   9 -19  947.67   39.30
   1   9  19  920.43   40.15
   1  -9 -19  802.98   38.17
   1  -9 -21  632.22   33.62
   1   9  21  711.32   38.47
  -1   9 -21  621.38   35.26
   1   9 -21  674.97   36.55
   1  -9 -23  260.43   15.55
  -1   9 -23  241.19   22.91
  -1  -9 -23  220.42   15.00
  -1  -9 -23  264.59   15.19
   1   9 -23  232.08   22.74
   1   9 -23  253.64   14.71
  -1   9 -23  210.28   13.23
   1  -9 -23  249.44   14.62
   1   9  23  279.14   25.29
   1   9 -25    9.24    5.22
  -1   9 -25   15.58    3.82
  -1  -9 -25   10.94    3.86
   1  -9 -25   17.25    4.28
  -1   9 -25   17.38    7.27
   1   9 -25   12.65    4.35
  -1  -9 -25   10.01    3.87
   1  -9 -25   12.74    4.11
  -1   9 -27    8.34    5.67
   1   9 -27   31.44    6.02
  -1  -9 -27   33.80    6.75
   1  -9 -27   35.59    6.77
  -1   9 -27   25.32    5.07
   1   9 -27   32.37   10.13
   1  -9 -27   39.55    7.05
   1   9 -29   89.99    9.90
  -1   9 -29   92.24    9.71
   1  -9 -29   97.80   10.40
  -1  -9 -29   85.91   10.02
   1   9 -31   56.68    7.14
   1  -9 -31   70.40    8.24
  -1  -9 -31   80.97    9.16
  -1   9 -31   72.50    7.84
   1  -9 -33  231.01   15.12
  -1  -9 -33  205.29   14.57
  -1   9 -33  181.88   11.91
   1   9 -33  216.93   13.84
   1   9 -35  203.00   12.21
  -1   9 -35  166.38   10.39
  -1  -9 -35  194.69   12.55
  -1  -9 -35  210.84   14.15
   1  -9 -35  221.34   13.66
   1  -9 -35  204.27   13.54
  -1  -9 -37  100.49    9.31
   1  -9 -37  104.95    9.42
   1  -9 -37  113.45    8.89
   1   9 -37   96.84    7.60
  -1  -9 -37   84.57    7.73
   1  -9 -39   43.11    4.41
   1   9 -39   31.30    3.35
   1  -9 -39   45.82    5.19
  -1  -9 -39   37.85    3.89
  -1 -11   1  113.24    8.42
   1  11  -1  113.54    9.17
   1 -11   1  112.35    8.20
  -1  11   1  117.41    9.87
  -1  11  -1  112.39    8.65
   1  11  -1  112.46    9.71
   1  11   1  128.78    9.15
  -1 -11  -1  133.08    8.55
   1 -11  -1  117.30    8.35
  -1  11  -1  111.74    9.89
   1  11   1  132.62    8.14
   1 -11   3  269.30   17.62
  -1  11  -3  313.65   20.42
   1  11  -3  340.31   20.43
  -1  11   3  312.76   20.72
   1  11   3  305.99   19.42
   1  11  -3  298.25   20.56
  -1 -11  -3  358.25   19.42
  -1  11  -3  244.29   10.74
  -1 -11   3  302.41   18.04
   1 -11  -3  289.34   17.20
   1  11  -5 1155.55   28.99
  -1  11  -5 1099.86   19.07
  -1  11   5 1141.64   28.90
   1 -11   5 1076.92   26.31
   1  11   5 1112.38   28.73
  -1 -11  -5 1225.84   27.98
  -1  11  -5 1165.76   29.93
   1 -11  -5 1107.65   24.83
  -1 -11   5 1121.90   26.26
  -1 -11   7 1238.39   31.29
  -1 -11  -7 1303.67   31.34
  -1  11  -7 1246.68   25.69
  -1  11   7 1283.10   33.40
  -1  11  -7 1312.46   35.41
   1 -11   7 1197.41   31.76
   1 -11  -7 1293.67   29.05
   1  11   7 1211.26   33.87
   1  11  -7 1284.72   34.43
   1 -11  -9 1976.96   37.82
  -1 -11   9 2056.80   43.85
   1 -11   9 1982.46   44.50
  -1  11  -9 1995.87   48.13
  -1  11   9 2001.68   46.89
  -1 -11  -9 1915.21   39.61
  -1  11  -9 1916.52   37.89
   1  11   9 2093.70   49.25
   1  11  -9 2025.27   47.68
  -1 -11  11  890.78   34.36
  -1  11 -11  895.71   38.43
  -1  11  11  916.26   37.47
   1 -11 -11  870.18   27.68
   1  11  11  941.57   39.98
  -1  11 -11  857.32   31.97
   1 -11  11  897.00   34.92
  -1 -11 -11  834.37   28.94
   1  11 -11  864.04   38.13
  -1  11 -13    2.26    4.16
  -1  11  13    1.31    2.96
  -1 -11  13    0.51    2.92
   1  11  13    3.89    5.23
   1 -11  13    2.27    4.57
  -1 -11 -13    3.18    3.05
  -1  11 -13    0.98    3.88
   1  11 -13    0.47    3.61
   1  11 -15   29.33    6.13
   1  11  15   25.52    5.65
   1 -11  15   23.30    5.28
  -1  11  15   29.66    5.72
  -1  11 -15   15.45    3.56
  -1  11 -15   25.94    5.78
  -1 -11  15   25.31    4.96
   1  11  17  140.82   13.62
   1  11 -17  137.45   13.59
  -1  11 -17  144.03   13.64
  -1  11 -17  138.11   12.46
   1 -11  17  130.11   11.79
  -1 -11  17  145.86   11.33
  -1  11  17  154.30   13.92
   1  11  19  506.70   31.36
  -1  11 -19  460.80   29.18
   1  11 -19  541.93   31.53
  -1  11  19  555.78   31.60
   1  11 -21  679.90   22.47
  -1 -11 -21  712.68   24.98
   1  11  21  846.85   42.35
  -1  11 -21  704.22   37.11
   1  11 -21  808.85   39.53
  -1 -11 -21  678.75   23.43
   1 -11 -21  653.13   35.13
   1 -11 -21  733.66   23.93
   1 -11 -21  771.71   25.32
  -1 -11 -23  103.06   10.57
  -1  11 -23   94.28   15.73
   1  11 -23   98.97   10.09
  -1 -11 -23   91.95   10.46
   1  11 -23   90.48   16.21
   1 -11 -23   91.05    9.95
   1 -11 -23   90.29   10.32
  -1  11 -23   83.16    9.20
   1  11  23   99.97   17.16
   1  11 -25   32.50    6.37
  -1 -11 -25   39.83    7.62
  -1  11 -25   32.53    6.41
   1 -11 -25   44.92    7.46
  -1 -11 -25   37.94    7.16
  -1  11 -25   30.81   10.79
   1 -11 -25   39.63    7.42
   1  11 -25   23.51   10.44
   1  11 -27   78.58   14.49
  -1 -11 -27   95.80   10.14
   1 -11 -27  109.88   10.26
  -1  11 -27  110.33   10.02
  -1 -11 -27  111.12   10.79
   1  11 -27  112.42   10.32
  -1  11 -27   66.79   12.63
   1 -11 -27  101.39   10.69
   1 -11 -29   28.05    5.58
  -1 -11 -29   21.36    5.23
   1 -11 -29   22.58    5.05
   1  11 -29   16.90    4.34
  -1  11 -29   21.16    4.23
   1 -11 -31   34.72    6.41
   1  11 -31   32.62    5.77
  -1  11 -31   37.12    5.80
  -1 -11 -31   47.04    7.53
  -1  11 -33   91.44    7.55
  -1 -11 -33  120.64   10.26
   1 -11 -33  121.90   10.11
   1  11 -33  119.72    9.40
   1  11 -35  121.02    9.94
   1 -11 -35  141.87   11.79
  -1 -11 -35  151.64   12.47
  -1 -11 -37  118.99    9.39
  -1 -11 -37  105.16    7.71
   1 -11 -37  108.11    8.91
   1  11 -37   98.65    7.13
   1 -11 -37  109.25    8.50
  -1  13   1   92.38   11.21
  -1 -13   1   68.79    9.58
   1  13   1   82.27    9.70
   1  13  -1   71.41   10.51
   1 -13  -1   85.44    8.74
  -1 -13  -1   73.66    8.59
   1 -13   1   64.29    7.96
   1  13   1   92.17    9.41
  -1  13  -1   77.03    9.85
   1  13  -1   67.96    9.27
  -1 -13   3    0.20    5.58
  -1  13  -3    0.69    4.24
   1  13   3    1.85    4.79
   1 -13  -3    0.62    4.08
  -1  13   3    0.02    5.50
   1  13  -3    1.35    5.65
   1 -13   3    0.04    4.40
  -1 -13  -3    2.47    5.02
  -1  13  -3    0.37    1.35
   1  13  -3    0.50    6.28
   1  13  -5  252.17   15.54
  -1  13  -5  158.39    7.04
  -1 -13  -5  243.12   14.24
   1 -13   5  215.93   14.10
   1  13   5  224.39   15.10
  -1  13  -5  238.52   15.86
  -1  13   5  249.41   16.22
  -1 -13   5  229.61   13.64
   1 -13  -5  237.29   13.53
   1  13  -7  897.50   37.18
  -1  13   7  956.30   38.34
   1 -13  -7  920.58   32.58
   1  13   7  923.87   38.28
   1 -13   7  912.72   34.77
  -1 -13  -7  926.99   34.94
  -1 -13   7  922.42   35.01
  -1  13  -7  867.87   37.63
   1 -13   9 1193.41   39.90
   1  13   9 1226.47   43.44
  -1  13  -9 1153.60   43.08
   1  13  -9 1217.08   42.93
  -1 -13  -9 1204.06   36.91
  -1  13   9 1271.09   43.05
  -1 -13   9 1222.32   39.49
   1 -13  -9 1222.85   35.25
  -1  13 -11  112.64   12.52
   1 -13  11  105.03   11.15
   1  13 -11  129.29   12.83
  -1 -13  11  118.11   10.97
  -1  13  11  108.44   11.29
  -1  13 -11   99.56    8.73
   1  13  11  121.72   12.51
   1 -13 -11  112.77    8.83
  -1 -13 -11  114.63    9.45
  -1  13 -13   57.08    7.77
   1 -13  13   66.58    9.66
   1  13 -13   68.93   10.56
  -1 -13  13   60.25    8.98
   1  13  13   54.94   10.05
  -1  13  13   61.71    9.78
  -1  13 -13   68.80   10.69
   1  13  15   23.90    8.86
   1 -13  15   19.73    6.67
  -1 -13  15   27.15    8.25
  -1  13  15   28.75    8.66
  -1  13 -15   18.33    7.58
  -1  13 -15   11.30    5.77
   1  13 -15   32.68   10.19
  -1  13 -17   27.21    9.61
   1  13 -17   31.10   10.17
  -1  13  17   28.61    9.01
   1  13  17   25.06    9.43
  -1 -13  17   24.35    8.11
   1 -13  17   30.80    8.94
   1  13 -19  198.39   21.36
   1  13  19  180.83   20.96
   1 -13 -19  194.64   13.43
  -1  13  19  213.20   21.59
  -1  13 -19  171.01   19.24
   1 -13 -19  184.87   12.70
   1  13 -21  138.13   18.12
  -1 -13 -21  146.35   11.81
   1 -13 -21  103.49   16.74
  -1  13 -21  125.07   17.10
   1  13 -21  145.48   11.16
   1 -13 -21  161.38   12.16
  -1  13 -21  120.67   10.16
   1  13  21  176.20   21.41
  -1 -13 -21  145.57   12.25
   1 -13 -21  134.24   11.62
  -1 -13 -23   28.42    6.09
   1  13 -23   29.97    5.49
   1 -13 -23   33.88    6.55
   1 -13 -23   34.19    6.20
   1  13 -23   30.53    9.32
  -1  13 -23   26.52    9.17
  -1 -13 -23   34.37    6.29
  -1  13 -23   23.19    4.89
   1 -13 -25    8.52    3.42
  -1  13 -25   24.97    9.81
   1 -13 -25   16.45    3.79
  -1  13 -25    9.54    2.92
  -1 -13 -25   14.77    4.11
   1  13 -25    0.69    7.22
  -1 -13 -25   11.94    3.10
   1  13 -25    9.43    2.75
  -1 -13 -27    0.67    2.76
   1 -13 -27    1.26    3.82
  -1 -13 -27    4.13    4.17
   1 -13 -27    0.65    3.39
   1  13 -27    1.84    3.44
  -1  13 -27    1.62    2.64
   1 -13 -29    0.00    3.11
   1  13 -29    1.61    2.85
  -1 -13 -29    1.53    3.56
   1 -13 -29    0.12    3.08
  -1  13 -29    0.04    2.38
  -1  13 -31    2.48    2.89
   1 -13 -31    0.37    3.31
   1  13 -31    0.21    2.86
  -1 -13 -31    4.95    3.44
   1  13 -33    9.70    3.23
  -1  13 -33    1.51    2.13
  -1 -13 -33   11.23    3.93
   1 -13 -33   11.82    4.12
  -1 -13 -35   55.62    7.03
   1 -13 -35   54.77    6.76
   1  13 -35   45.16    5.40
  -1 -13 -37   32.81    4.27
  -1 -13 -37   36.24    5.44
   1 -13 -37   37.16    4.86
   1 -13 -37   38.44    5.49
   1  13 -37   27.60    3.56
   1  15  -1  940.03   36.97
  -1 -15  -1  816.24   33.26
  -1  15  -1  874.51   36.24
  -1 -15   1  871.35   33.86
   1  15   1  870.58   35.27
   1 -15   1  780.77   31.86
   1  15  -1  870.79   37.97
   1 -15  -1  875.89   33.16
  -1  15   1  873.80   38.66
   1  15   1  746.40   35.55
  -1 -15  -3  761.67   31.00
  -1  15  -3  772.24   34.77
   1  15  -3  814.28   33.80
  -1  15   3  735.64   34.44
   1 -15  -3  730.12   29.11
   1  15   3  755.11   33.87
   1  15   3  768.36   31.07
  -1 -15   3  730.26   29.74
   1 -15   3  703.44   29.40
  -1 -15   5   30.94    6.23
   1 -15   5   26.95    5.99
   1 -15  -5   33.66    6.38
   1  15   5   33.28    6.63
   1  15  -5   40.01    7.89
  -1 -15  -5   35.15    6.24
  -1  15   5   32.28    7.25
  -1  15  -5   29.26    6.96
   1 -15   7  106.11   14.30
   1 -15  -7  111.31   13.14
  -1 -15   7  130.26   14.52
  -1  15  -7   92.05   14.83
   1  15   7  113.88   15.35
  -1  15   7  110.30   15.74
   1  15  -7  110.67   14.80
  -1 -15  -7  122.10   13.94
   1  15  -9   15.25    5.18
   1  15   9   11.14    5.16
   1 -15   9    9.07    5.17
  -1  15   9   28.80    4.49
  -1  15  -9   12.65    4.04
  -1 -15   9   21.38    3.41
   1 -15  -9   28.80    2.62
  -1 -15  -9   10.87    3.68
   1  15  11   95.46   14.60
   1  15 -11   97.19   14.66
  -1  15  11   94.22   13.90
  -1 -15 -11   94.66   11.47
   1 -15  11  106.13   13.58
   1 -15 -11   92.01   10.69
  -1  15 -11   92.24   14.08
  -1 -15  11   89.19   13.06
  -1 -15  13  385.43   24.12
   1  15  13  414.58   28.34
   1 -15  13  430.00   26.05
  -1  15  13  405.06   27.63
   1  15 -13  369.25   26.30
  -1  15 -13  379.90   27.56
  -1  15  15  305.82   24.33
   1  15  15  304.94   24.76
   1  15 -15  296.04   23.09
  -1  15 -15  258.40   22.00
  -1 -15  15  280.30   20.74
   1 -15  15  272.28   20.62
  -1  15  17   14.54    6.03
  -1 -15  17   12.11    3.01
   1 -15  17    6.99    5.39
   1  15  17    8.52    5.09
   1  15 -17   26.72    5.77
  -1  15 -17   23.52    5.13
   1 -15 -19    0.96    2.92
  -1 -15 -19    0.81    3.23
  -1  15 -19    0.69    5.17
   1  15 -19    2.61    3.73
   1 -15 -19    1.58    2.38
  -1  15 -19    0.69    3.05
   1  15 -19    1.02    2.14
   1  15  19    3.10    5.27
  -1 -15 -19    1.64    2.44
   1 -15 -21    8.27    7.33
   1 -15 -21    4.74    3.68
   1  15 -21    5.91    6.26
  -1  15 -21    4.64    3.21
  -1 -15 -21    6.08    3.69
  -1 -15 -21    5.98    3.54
   1 -15 -21    7.23    4.12
   1  15 -21    4.55    3.46
   1  15  21    0.60    4.34
  -1  15 -21    5.31    4.17
   1 -15 -23    8.44    4.05
   1  15 -23    0.02    4.24
  -1  15 -23    7.79    3.18
  -1  15 -23   20.07    8.68
   1  15 -23    9.56    3.04
  -1 -15 -23   12.21    3.81
   1 -15 -23    7.92    3.75
  -1 -15 -23   13.25    4.48
   1 -15 -25   42.27    6.36
   1  15 -25   39.02    6.28
  -1 -15 -25   45.04    6.78
   1 -15 -25   38.46    6.53
  -1 -15 -25   41.30    7.04
  -1  15 -25   31.88    5.28
   1  15 -27  139.46   10.49
   1 -15 -27  140.67   10.89
  -1  15 -27  124.47    9.21
   1 -15 -27  137.72   10.91
  -1 -15 -27  136.13   11.53
  -1 -15 -27  136.07   10.83
   1 -15 -29   70.68    9.18
  -1  15 -29   64.27    7.78
  -1 -15 -29   70.94    9.04
   1 -15 -29   75.63    9.28
   1  15 -29   70.98    8.71
   1  15 -31   16.91    3.94
   1 -15 -31   27.85    5.60
  -1 -15 -31   27.75    5.66
  -1  15 -31   18.94    4.16
  -1 -15 -33   11.79    3.83
   1  15 -33   11.67    3.07
   1 -15 -33   15.66    4.03
  -1 -15 -35    0.02    2.41
   1  15 -35    0.17    1.71
   1 -15 -35    0.04    2.64
  -1 -15 -37    0.52    2.11
   1 -15 -37    1.92    2.06
   1 -15 -37    3.04    2.23
  -1 -15 -37    3.30    2.07
  -1  17   1 1530.74   57.70
   1 -17  -1 1455.20   48.74
   1  17  -1 1517.92   53.75
   1  17   1 1503.17   52.28
  -1  17   1 1562.52   54.86
  -1 -17   1 1441.96   49.65
   1  17  -1 1397.57   54.56
   1 -17   1 1325.02   46.78
  -1  17  -1 1437.84   52.95
  -1 -17  -1 1420.85   48.91
   1  17   1 1316.10   52.39
  -1  17  -3 1231.61   43.48
   1 -17  -3 1084.54   36.06
   1  17   3 1173.21   39.01
  -1 -17   3 1100.83   36.42
  -1 -17  -3 1151.55   38.33
   1 -17   3 1093.70   36.42
  -1  17   3 1109.47   41.73
   1  17  -3 1182.18   41.34
   1  17   3 1056.75   40.13
   1  17   5  386.93   27.86
   1 -17   5  362.79   26.61
  -1  17   5  386.36   30.75
  -1  17  -5  378.14   30.50
   1 -17  -5  387.45   26.72
  -1 -17   5  359.91   26.38
  -1 -17  -5  369.59   27.11
   1  17  -5  403.71   30.06
   1  17   5  385.28   30.87
  -1 -17  -7   28.96    4.11
   1  17  -7   30.58    4.12
   1 -17  -7   41.68    4.56
  -1  17   7   29.43    4.20
   1  17   7   31.99    4.82
   1 -17   7   38.33    5.70
  -1 -17   7   42.30    5.55
  -1  17  -7   40.69    6.03
   1  17  -9  227.31   19.43
   1 -17  -9  254.15   17.15
  -1 -17   9  227.24   17.86
  -1 -17  -9  237.97   17.47
  -1  17  -9  244.42   20.56
   1 -17   9  251.25   18.87
   1  17   9  235.69   20.66
  -1  17   9  269.32   21.75
   1 -17  11  540.01   27.64
  -1 -17 -11  524.98   24.24
   1  17  11  546.53   31.14
   1  17 -11  513.26   29.07
  -1  17  11  553.17   31.51
  -1  17 -11  530.82   29.63
  -1 -17  11  570.63   27.44
   1 -17 -11  503.47   23.18
  -1 -17  13  397.27   26.25
   1 -17  13  470.61   29.15
   1  17 -13  401.81   29.03
  -1  17  13  407.42   30.90
   1  17  13  457.48   32.66
  -1  17 -13  471.90   31.32
   1 -17  15  549.33   33.36
   1  17  15  557.26   38.62
  -1 -17  15  556.47   32.92
  -1  17 -15  532.37   35.92
  -1  17  15  662.32   40.87
   1  17 -15  533.54   35.41
   1 -17  17  113.74   15.80
  -1 -17  17  113.12   14.60
   1  17 -17  106.35    9.28
  -1 -17 -17   83.94    8.77
  -1 -17 -17   97.66   10.02
   1 -17 -17  117.58   10.44
   1  17 -17  127.48   17.53
   1  17  17  132.81   18.90
  -1  17 -17  104.38   16.31
  -1  17 -17   88.24    8.50
  -1  17  17  109.01   17.16
   1 -17 -19   22.35    4.70
  -1  17 -19   15.40    6.20
   1  17 -19   26.25    8.24
   1 -17 -19   27.36    5.39
  -1 -17 -19   22.38    5.00
   1  17  19   40.02   10.82
   1  17 -19   28.58    4.84
  -1  17 -19   15.90    3.73
  -1 -17 -19   25.53    4.69
   1  17 -21   68.14    8.61
   1  17 -21   61.83   14.48
   1 -17 -21   79.48    9.67
   1 -17 -21   76.50    9.85
  -1 -17 -21   68.55    9.76
  -1 -17 -21   63.04    8.87
  -1  17 -21   58.71    7.98
  -1  17 -21   64.04   14.47
   1 -17 -23   75.75    8.60
   1 -17 -23   72.22    8.72
   1  17 -23   73.24    7.87
  -1 -17 -23   60.93    8.31
  -1  17 -23   69.52    7.62
   1  17 -23   71.26   12.77
  -1 -17 -23   71.11    8.37
  -1  17 -23   43.29    9.76
  -1 -17 -25  252.97   15.95
  -1  17 -25  249.83   13.68
  -1 -17 -25  271.66   15.40
   1 -17 -25  270.05   15.22
   1 -17 -25  269.03   16.18
   1  17 -25  257.34   14.34
   1 -17 -27  357.92   19.53
   1  17 -27  322.17   17.48
   1 -17 -27  362.97   19.05
  -1 -17 -27  317.29   19.12
  -1  17 -27  320.48   16.71
  -1 -17 -27  352.68   19.12
   1 -17 -29  203.98   13.50
  -1 -17 -29  228.98   13.98
   1  17 -29  199.17   12.35
  -1  17 -29  184.72   11.32
   1 -17 -29  229.27   13.68
  -1 -17 -31   89.60    8.64
   1  17 -31   81.58    7.54
   1 -17 -31  102.11    9.12
  -1 -17 -33   29.55    5.72
   1 -17 -33   27.81    5.49
   1  17 -33   18.95    4.34
   1 -17 -35   12.14    3.06
   1  17 -35   10.87    2.31
  -1 -17 -35   11.36    3.16
  -1  19  -1 1018.08   44.89
  -1 -19   1 1048.31   41.96
   1 -19   1 1001.84   40.50
   1 -19  -1 1052.55   41.12
   1  19   1 1057.09   43.94
   1  19   1  934.53   44.74
  -1  19   1 1108.64   45.65
   1  19  -1 1071.32   45.13
  -1 -19  -1 1030.83   41.81
   1  19   3  543.45   29.10
  -1  19   3  543.83   29.63
   1 -19  -3  567.71   27.83
   1 -19   3  538.24   27.31
   1  19   3  494.75   29.65
  -1  19  -3  604.47   32.36
  -1 -19   3  538.10   26.98
  -1  19   3  512.96   30.89
  -1 -19  -3  572.00   28.56
   1  19  -3  592.30   31.04
  -1  19   5  214.99   22.88
   1 -19   5  211.80   20.01
   1  19   5  202.81   20.13
   1  19   5  195.13   21.94
  -1 -19   5  213.36   19.95
  -1  19  -5  239.52   23.52
  -1 -19  -5  245.61   21.40
   1 -19  -5  217.73   19.76
   1  19  -5  243.45   23.21
   1 -19  -7  128.16   14.34
   1  19  -7  129.24   16.74
  -1 -19  -7  121.93   14.56
   1  19   7  114.50   15.72
  -1  19  -7  145.83   17.88
  -1 -19   7  137.79   15.32
  -1  19   7  117.92   16.17
   1 -19   7  127.61   14.52
   1  19   7  119.81   14.56
   1  19  -9  256.99   22.25
   1  19   9  257.34   23.30
  -1 -19   9  245.83   19.35
   1 -19  -9  254.01   18.51
  -1  19  -9  255.97   22.17
  -1  19   9  243.55   22.10
   1 -19   9  234.61   19.24
  -1 -19  -9  240.58   19.10
   1 -19  11  227.42   22.93
  -1  19  11  251.93   27.31
   1 -19 -11  224.77   20.06
  -1 -19  11  241.60   22.70
  -1 -19 -11  230.32   21.42
  -1  19 -11  233.42   25.90
   1  19  11  243.14   27.02
   1  19 -11  239.87   25.06
   1  19 -13  354.17   15.62
   1 -19  13  450.16   28.41
   1  19  13  442.61   32.15
   1  19  13  473.66   21.92
  -1 -19  13  461.72   27.82
   1  19 -13  428.63   29.26
  -1  19 -13  453.16   30.63
  -1  19  13  503.50   33.80
   1 -19  15  276.08   23.38
  -1  19  15  290.94   27.76
  -1  19 -15  178.14   11.87
   1  19 -15  222.22   13.34
  -1  19 -15  246.78   24.04
  -1 -19  15  261.41   22.43
   1 -19 -15  247.56   14.69
  -1 -19 -15  219.34   14.01
   1  19  15  247.67   26.39
  -1 -19 -15  190.02   12.59
   1  19 -15  247.18   23.99
  -1 -19 -17  101.16    9.86
   1  19 -17  116.53   16.79
   1 -19 -17  104.12    9.62
   1 -19  17   94.39   14.22
  -1 -19  17  107.14   14.77
  -1  19 -17   87.49    8.43
   1  19  17  104.26   17.25
   1 -19 -17  109.63   10.29
   1  19 -17  103.98    9.17
  -1  19 -17   98.30   15.85
  -1 -19 -17   95.79    9.22
  -1  19 -19   23.09    4.13
   1  19  19   10.01    5.76
   1 -19 -19   36.23    5.47
   1  19 -19   35.47    5.07
   1  19 -19   38.92    9.49
  -1 -19 -19   27.75    5.05
   1 -19 -19   37.87    5.53
  -1  19 -19   15.88    6.71
  -1 -19 -19   36.04    5.35
   1  19 -21    0.17    6.50
  -1  19 -21    0.19    4.18
  -1  19 -21    3.93    2.29
   1  19 -21    5.80    3.06
   1 -19 -21    6.19    3.16
   1 -19 -21    6.14    3.60
  -1 -19 -21   11.45    4.33
  -1 -19 -21    6.09    3.46
  -1 -19 -23   90.66   10.95
   1 -19 -23  100.64   10.86
   1 -19 -23   97.92   10.27
  -1  19 -23   85.88    9.28
   1  19 -23   82.53    9.28
  -1 -19 -23   96.28   10.49
   1 -19 -25  251.10   16.34
  -1  19 -25  224.06   13.83
  -1 -19 -25  248.42   15.62
  -1 -19 -25  242.51   16.33
   1 -19 -25  243.10   15.82
   1  19 -25  232.79   14.49
   1  19 -27  303.27   15.76
  -1  19 -27  275.81   14.44
  -1 -19 -27  299.24   17.64
   1 -19 -27  333.07   18.01
  -1 -19 -27  300.70   16.63
   1 -19 -27  336.41   17.54
   1 -19 -29  204.07   14.04
   1  19 -29  210.95   12.97
  -1 -19 -29  227.94   14.30
   1 -19 -29  235.51   14.49
  -1 -19 -31   90.24    8.38
   1 -19 -31   83.49    7.98
   1  19 -31   73.54    6.93
   1  19 -31   75.77    7.06
   1 -19 -33    4.37    2.54
  -1 -19 -33    7.14    3.13
   1  19 -33    7.71    2.30
  -1  19 -33    3.75    2.41
  -1 -19 -35    3.42    2.09
   1 -19 -35    0.63    1.93
  -1  21  -1  625.35   41.00
   1 -21  -1  637.17   37.60
   1 -21   1  579.24   36.38
   1  21  -1  617.84   40.55
   1  21   1  564.42   40.02
  -1  21   1  680.08   42.11
  -1 -21  -1  614.09   37.71
   1  21   1  592.64   38.47
  -1 -21   1  598.09   37.60
   1 -21   3   96.00   12.11
   1  21   3  101.40   13.53
  -1 -21   3   92.97   12.28
  -1 -21  -3   87.02   11.46
   1  21  -3   77.66   11.99
   1  21   3   94.95   12.38
   1 -21  -3  102.14   12.22
  -1  21   3   91.52   12.14
  -1  21  -3  107.12   14.52
  -1 -21  -5    6.80    5.87
   1 -21  -5   13.12    7.46
  -1  21   5    6.70    6.31
   1 -21   5    3.72    5.33
   1  21   5    6.28    6.93
   1  21   5    6.58    6.90
  -1 -21   5    7.01    6.43
  -1  21   5   12.29    7.67
  -1  21  -5    4.65    6.36
   1  21  -5   14.86    7.95
  -1  21   7   65.78   15.35
  -1  21   7   61.60   13.76
   1  21   7   49.44   12.22
   1  21  -7   71.99   15.59
   1 -21  -7   59.00   12.20
   1 -21   7   47.22   11.92
  -1 -21  -7   55.07   12.69
  -1  21  -7   70.34   16.43
   1  21   7   76.68   16.82
  -1 -21   7   61.22   13.48
   1 -21  -9    8.31    6.07
   1  21  -9    5.22    7.17
  -1  21   9    4.73    4.68
   1  21  -9    3.71    4.35
  -1  21   9    3.81    6.60
   1  21   9    3.56    6.53
   1  21   9    5.50    4.94
   1 -21   9    7.56    8.23
  -1 -21   9    6.09    7.22
   1  21   9    2.75    3.75
   1  21  -9    3.44    3.73
   1  21   9    5.09    6.19
  -1  21  -9    4.33    4.85
  -1 -21  -9    3.44    6.62
  -1  21  -9    9.73    9.14
   1  21 -11   83.18    7.12
   1  21 -11   89.80    8.78
   1  21  11   96.96   14.63
  -1  21  11   92.57    9.25
   1  21 -11   87.46   13.07
  -1  21 -11   84.72   13.41
   1 -21  11   83.74   11.73
  -1  21 -11   70.25    6.48
   1 -21 -11   75.79    7.12
  -1  21  11   83.87   13.11
  -1 -21  11   93.90   12.41
   1  21  11   73.89   11.36
   1  21  11   99.62    9.48
   1  21  13  184.86   18.07
  -1  21  13  160.45   25.77
   1 -21  13  155.85   21.84
  -1 -21  13  147.76   20.68
   1  21  13  136.12   14.31
  -1 -21 -13  109.22   12.22
   1  21  13  150.91   25.12
  -1  21 -13  111.80   11.97
   1  21 -13  125.03   12.42
  -1  21  13  192.38   18.03
   1 -21 -13  134.51   13.21
   1  21 -13  145.37   22.55
  -1  21 -13  161.94   24.45
   1  21 -15   75.29    8.42
   1  21 -15   71.94   13.89
   1  21  15   96.50   17.66
   1 -21 -15   72.36    8.70
  -1 -21 -15   67.40    8.06
  -1 -21  15   74.93   12.93
  -1  21 -15   67.45   13.69
  -1  21  15  100.74   18.11
   1 -21  15   70.07   13.26
  -1 -21 -15   58.32    7.30
  -1  21 -15   59.68    7.45
   1  21 -17   49.32   11.98
   1  21 -17   40.29    6.02
   1  21  17   44.44   12.64
  -1  21 -17   43.81    6.54
   1 -21  17   41.36   10.34
  -1  21 -17   37.55   10.34
   1 -21 -17   46.74    6.99
  -1 -21  17   26.04    8.21
   1 -21 -17   39.53    5.98
  -1 -21 -17   39.25    6.21
  -1 -21 -17   38.27    6.36
  -1  21 -19    1.11    3.46
   1 -21 -19    0.27    2.40
  -1 -21 -19    1.11    2.73
   1  21 -19    1.15    5.79
   1 -21 -19    0.01    3.12
  -1 -21 -19    0.40    2.83
   1  21 -19    0.01    2.35
  -1  21 -19    0.04    2.36
   1  21 -21    7.58    3.42
   1 -21 -21   13.36    3.77
  -1 -21 -21   14.70    4.84
  -1  21 -21    9.33    3.13
   1 -21 -21   13.07    4.74
  -1 -21 -21   14.32    4.35
   1  21 -23    8.28    2.99
  -1 -21 -23    0.28    3.76
   1 -21 -23    6.70    3.38
  -1  21 -23    4.41    2.46
  -1 -21 -23    6.57    3.10
   1 -21 -23    0.40    3.64
  -1  21 -25   74.86    7.34
   1  21 -25   87.42    8.47
  -1 -21 -25   86.42    8.91
   1 -21 -25   93.20    9.29
   1 -21 -25  100.92    9.19
  -1 -21 -25   83.79    9.08
  -1 -21 -27  139.44   10.89
   1  21 -27  128.14   10.06
   1 -21 -27  141.60   11.68
   1  21 -27  135.52   10.64
   1 -21 -27  152.29   11.41
   1  21 -29  122.53    9.89
  -1 -21 -29  133.77   11.21
   1 -21 -29  136.99   11.29
   1  21 -29  123.94   10.21
   1  21 -31   27.21    4.17
   1  21 -31   20.74    3.63
  -1  21 -31   23.69    4.34
  -1 -21 -31   26.36    4.84
   1 -21 -31   29.59    4.86
   1 -21 -33    3.42    2.39
  -1 -21 -33    0.01    2.22
  -1  21 -33    2.64    2.05
  -1  23  -1  217.59   17.01
   1 -23  -1  256.17   27.00
  -1  23   1  279.55   18.67
  -1 -23   1  283.48   28.34
   1  23   1  237.35   27.49
  -1  23   1  250.63   18.24
  -1 -23  -1  246.60   26.50
   1  23   1  262.02   17.87
  -1  23  -1  251.70   29.21
  -1  23  -1  238.15   17.32
   1  23  -1  244.70   17.44
  -1  23   1  288.69   31.03
   1  23   1  252.43   18.43
   1  23  -1  267.02   29.27
   1 -23   1  262.56   27.40
   1  23  -1  276.34   19.03
  -1  23  -3    5.65    4.55
  -1 -23   3    2.08    4.75
   1  23   3    7.30    6.26
   1  23   3   10.43    5.38
   1  23   3   11.58    5.16
  -1  23  -3    4.09    8.62
   1 -23   3    8.24    7.78
  -1  23   3    6.43    4.09
  -1 -23  -3    2.49    5.84
   1 -23  -3   10.21    7.67
  -1  23  -3    5.17    3.97
  -1  23   3    4.45    3.67
   1  23  -3    7.14    4.43
   1  23  -3    7.48    5.30
   1  23  -3    8.24    6.95
  -1  23   3    3.37    4.54
  -1  23   5   77.22    9.67
   1 -23  -5   82.35   14.21
   1  23  -5   68.01    8.70
  -1  23  -5   67.34   14.66
  -1  23  -5   68.22    8.82
  -1 -23   5   69.68   12.71
   1  23  -5   74.44   15.10
   1  23  -5   67.04    8.79
   1 -23   5   55.74   11.99
   1  23   5   79.76   16.19
  -1 -23  -5   66.77   13.24
   1  23   5   60.79    8.36
  -1  23   5   72.74   15.05
  -1  23  -5   73.06    9.12
   1  23   5   66.34   13.61
  -1  23   5   63.33    8.75
   1  23   5   72.07    9.59
  -1  23  -7   45.97   12.73
   1  23  -7   46.81   12.90
  -1  23  -7   40.86    7.04
  -1  23   7   54.06    8.45
   1  23   7   49.76   14.31
   1  23   7   41.06   10.89
   1 -23  -7   48.65   10.74
  -1 -23  -7   50.15   10.94
   1  23   7   56.13    8.64
   1  23  -7   50.27    7.83
   1 -23   7   47.32   11.80
  -1  23   7   47.69    7.66
  -1  23   7   34.24    9.49
  -1  23  -7   48.33    8.19
  -1 -23   7   48.04   11.51
   1  23  -7   63.94    8.81
   1  23   7   48.67    8.46
  -1  23   9   18.71   11.55
   1  23   9   25.12    7.98
  -1 -23  -9   17.70    9.54
   1  23  -9   19.37    6.87
  -1 -23   9   19.63   10.00
   1 -23  -9   16.15    5.85
  -1  23  -9   18.33   11.77
   1 -23   9   20.53   10.73
   1  23   9   19.71    7.17
  -1  23  -9   14.17    6.17
  -1  23  -9   15.57    6.79
   1  23  -9   22.06   11.88
   1  23   9   24.86   13.96
  -1  23   9   28.14    8.65
   1  23   9   14.35   10.00
   1 -23  -9   13.68    8.57
  -1  23   9   11.31    9.62
   1  23  -9   24.29    7.78
   1  23 -11    4.45    6.70
  -1  23 -11    8.89    8.26
   1  23 -11    3.77    4.29
   1  23 -11    2.50    3.46
  -1  23 -11    3.35    3.64
   1 -23  11    2.15    6.38
  -1  23  11    5.60    5.55
  -1 -23  11    6.60    5.29
  -1  23  11    1.62    7.74
  -1  23 -11    3.00    3.18
  -1  23  11    1.01    6.34
   1  23  11    2.46    8.48
   1  23  11    2.77    4.52
   1 -23 -11    1.97    3.29
   1  23  11    1.20    6.61
   1  23  13   15.30    4.69
   1  23 -13   12.11    3.94
   1  23  13   14.54    4.91
   1 -23 -13   17.93    4.54
   1  23  13   17.71    7.27
   1 -23  13   18.26    7.02
  -1  23  13   17.11    6.13
  -1  23 -13   12.58    4.03
   1  23 -13    8.61    3.43
  -1 -23 -13   10.63    3.14
  -1  23 -13   20.57    4.79
  -1 -23  13    7.29    4.63
   1  23 -13   23.26    8.18
  -1  23 -13   16.08    7.44
   1  23  13   14.43    7.65
  -1  23  13   13.57    5.22
   1  23  15   19.10    9.78
   1 -23  15   15.17    9.11
   1 -23 -15   13.96    5.31
  -1 -23  15    3.94    4.84
  -1  23 -15   11.87    5.04
  -1 -23 -15   11.93    4.84
  -1  23 -15   19.17    9.86
  -1 -23 -15   17.69    5.89
   1  23 -15   12.28    5.69
   1  23 -15    1.96    5.65
   1  23  15   10.84    5.27
   1  23 -15   12.60    5.08
   1 -23 -17    8.52    4.40
   1  23 -17    8.06    4.29
  -1 -23 -17   11.02    4.67
   1  23 -17    7.98    3.89
   1 -23 -17   10.05    4.10
  -1  23 -17    6.63    3.60
  -1 -23 -17    9.87    4.21
  -1 -23 -19   10.34    3.98
   1  23 -19   16.82    4.50
   1 -23 -19   13.09    4.40
   1  23 -19   20.39    5.77
   1 -23 -19   18.15    5.55
  -1 -23 -19   12.97    3.98
  -1  23 -19   11.92    4.30
   1  23 -21   67.86    8.90
  -1  23 -21   64.11    7.65
  -1 -23 -21   74.40    9.23
   1  23 -21   70.00    8.30
  -1 -23 -21   73.63    8.70
   1 -23 -21   78.79    9.73
   1 -23 -21   82.97    9.20
   1  23 -23   20.04    4.36
  -1  23 -23   20.03    4.04
  -1 -23 -23   26.12    5.37
   1 -23 -23   16.30    4.41
   1 -23 -23   29.97    5.65
   1  23 -23   19.59    4.65
  -1 -23 -23   26.17    5.56
   1 -23 -25    5.55    3.55
   1  23 -25    0.01    3.71
   1  23 -25    0.01    3.27
   1 -23 -25    0.03    3.29
  -1 -23 -25    0.03    2.66
  -1  23 -25    0.01    2.96
  -1 -23 -25    2.75    3.04
  -1 -23 -27   43.70    6.02
  -1  23 -27   37.48    5.09
   1 -23 -27   42.21    6.38
   1 -23 -27   54.77    6.70
   1  23 -27   37.61    5.26
   1  23 -27   44.86    5.56
  -1 -23 -29   40.44    4.94
   1  23 -29   36.79    4.35
   1  23 -29   35.12    4.38
   1 -23 -29   39.87    4.89
  -1  23 -29   38.31    4.81
   1 -23 -31    0.61    2.31
  -1 -23 -31    0.06    1.87
  -1  23 -31    0.07    2.21
  -1  25  -1   29.93   11.50
   1  25   1   38.10    7.76
  -1  25  -1   43.74    7.79
  -1 -25  -1   36.31   11.29
   1  25  -1   37.15   11.32
  -1  25   1   56.64    9.05
   1  25   1   49.88   13.94
   1 -25  -1   43.44   12.05
   1  25   1   40.40    7.80
  -1  25   1   37.53    7.87
  -1  25   1   45.51   13.46
   1 -25   1   34.08   11.28
  -1 -25   1   39.51   12.37
  -1  25  -1   40.24    8.00
   1  25  -1   49.70    8.43
   1  25  -1   49.42    8.89
   1  25   3   13.91    6.24
   1  25  -3   10.69    5.65
  -1  25  -3   15.85    6.94
  -1  25   3   15.59   11.10
   1  25  -3   11.58    6.63
   1 -25  -3   18.47   11.83
  -1  25  -3   16.37    7.10
  -1  25  -3   14.80   10.75
   1 -25   3    6.51    8.44
   1  25   3   11.95   10.69
   1  25  -3   11.27    9.39
  -1  25   3   15.37    6.89
   1  25   3   13.76    6.94
  -1 -25   3   21.09   11.92
  -1  25   3   18.76    7.83
  -1 -25  -3   20.85   11.91
  -1  25  -5  305.88   20.01
   1  25   5  276.16   30.33
  -1  25   5  320.76   20.56
  -1  25  -5  285.57   33.26
   1  25   5  307.23   20.88
   1  25  -5  261.66   30.40
  -1  25   5  309.81   32.91
  -1 -25   5  274.81   28.95
   1  25  -5  282.85   19.40
   1 -25  -5  302.96   30.30
   1  25   5  304.66   20.53
  -1  25   5  287.78   20.44
   1  25  -5  280.95   19.24
   1 -25   5  257.08   28.76
  -1 -25  -5  264.95   28.79
  -1  25  -5  272.47   19.11
   1 -25   7  464.67   34.05
   1  25   7  465.71   35.50
   1  25   7  492.15   24.11
  -1  25  -7  486.20   22.48
  -1 -25  -7  424.08   32.15
   1  25  -7  478.12   22.07
   1  25   7  504.15   40.68
   1  25  -7  517.75   23.18
  -1  25   7  471.58   36.39
   1  25   7  544.58   24.69
   1 -25  -7  441.20   32.30
  -1  25  -7  511.46   23.22
  -1  25  -7  495.23   38.96
  -1 -25   7  450.31   32.75
  -1  25   7  536.51   25.69
   1  25  -7  467.88   36.65
   1  25   9   78.82    9.41
  -1 -25  -9   57.44   10.76
   1  25  -9   84.08    9.19
   1  25   9   88.05   16.70
   1  25  -9   83.91    8.59
   1 -25  -9   71.21    7.74
  -1  25  -9   85.72    8.75
   1  25  -9   78.55   14.03
  -1  25  -9   73.00    7.70
   1 -25   9   62.14   11.22
  -1  25   9   45.77    9.19
  -1  25   9   90.53    9.96
  -1 -25   9   71.70   12.44
   1  25   9   87.60   14.33
  -1  25  -9   95.20   15.54
  -1  25  11   51.25    8.84
  -1  25  11   29.48    9.61
   1  25  11   36.19    9.60
   1  25 -11   39.22    6.89
  -1 -25  11   39.73   10.75
   1  25  11   42.94    7.46
  -1  25 -11   35.93   11.47
  -1  25 -11   36.21    6.56
  -1  25 -11   38.32    6.63
   1  25 -11   36.34   10.88
   1  25  11   35.44    7.35
   1 -25 -11   39.06    6.59
   1  25 -11   42.76    7.26
   1 -25  11   21.68    7.56
   1  25  11   58.65   15.79
   1  25 -13   12.03    4.02
   1 -25 -13   10.48    3.49
  -1  25 -13    7.13    3.19
   1  25  13   14.76    4.05
  -1  25  13    8.07    3.89
   1  25  13    4.97    8.83
  -1  25  13    0.78    5.92
  -1 -25  13    9.86    4.88
   1  25 -13   13.26    4.16
  -1  25 -13    2.83    3.69
  -1  25 -13    7.76    2.96
   1 -25  13   32.43    8.90
  -1 -25 -13   11.59    3.43
   1  25 -13    5.79    4.75
   1  25  13   11.21    4.92
   1 -25 -15    4.03    3.63
  -1  25 -15    3.79    3.96
  -1 -25 -15    1.82    3.39
   1  25  15    1.73    4.19
   1  25 -15    5.15    4.71
  -1  25 -15    2.99    3.88
  -1 -25 -15    0.96    2.56
   1  25 -15    1.64    3.42
  -1 -25 -17   12.63    6.15
   1  25 -17   15.48    6.17
   1 -25 -17   16.46    6.53
  -1  25 -17   19.28    6.67
  -1 -25 -17   14.87    6.14
   1  25 -17   23.48    7.83
  -1  25 -17   15.97    6.94
   1 -25 -17   15.44    6.08
   1 -25 -19   62.10    7.97
   1  25 -19   59.12    7.54
   1  25 -19   58.59    7.14
  -1  25 -19   54.27    7.64
   1 -25 -19   51.16    6.61
  -1  25 -19   43.74    5.95
  -1 -25 -19   50.24    6.71
  -1 -25 -19   49.26    7.38
  -1 -25 -21  137.87   11.83
   1 -25 -21  157.00   12.61
  -1  25 -21  149.92   12.48
   1  25 -21  146.64   11.34
   1  25 -21  170.97   12.75
  -1 -25 -21  135.46   11.10
   1 -25 -21  150.28   11.87
  -1  25 -21  129.64   10.43
   1 -25 -23  126.80   10.98
   1  25 -23  126.16    9.87
   1  25 -23  126.74    9.82
  -1  25 -23  123.12    9.25
   1 -25 -23  145.23   10.76
  -1  25 -23  135.57   10.78
  -1 -25 -23  120.74   10.18
  -1 -25 -23  121.76    9.65
   1  25 -25   29.86    4.75
   1  25 -25   20.92    4.15
  -1  25 -25   22.86    4.57
   1 -25 -25   35.24    5.43
   1 -25 -25   40.58    6.15
  -1 -25 -25   28.81    4.69
   1  25 -27    0.27    2.61
   1 -25 -27    8.19    2.61
   1  25 -27    0.27    2.60
   1 -25 -27    0.32    2.87
  -1  25 -27    0.29    2.76
  -1 -25 -27    2.43    2.29
   1 -25 -29    1.25    2.22
   1  25 -29    0.39    1.70
  -1  25 -29    0.31    2.07
  -1 -25 -29    0.52    1.89
   1  25 -29    2.25    2.20
  -1  27  -1    2.61    3.95
  -1  27   1    0.07    5.91
  -1  27   1    3.61    3.60
   1  27  -1    0.19    4.36
   1  27   1    2.84    3.77
   1  27  -1    2.52    3.16
  -1 -27  -1    9.07    6.71
  -1 -27   1    8.88    6.27
  -1  27  -1    1.14    3.60
   1  27   1    0.11    3.79
  -1  27  -1    7.24    5.04
  -1  27   1    1.63    3.48
   1 -27   1    9.40    6.47
   1  27  -1    0.19    4.58
   1  27   1    0.11    6.27
   1 -27  -1    8.71    7.08
  -1  27  -3  113.27   11.67
   1  27   3   88.62   16.59
   1  27   3  119.86   12.93
  -1 -27   3  113.96   18.68
  -1  27  -3  112.81   11.89
   1  27  -3  113.91   11.85
   1  27  -3  113.51   12.02
   1  27  -3  108.54   19.32
  -1  27  -3  114.55   20.71
  -1  27   3  114.83   11.98
   1 -27   3  100.31   17.91
  -1  27   3  122.65   12.80
   1  27   3  121.31   12.45
   1 -27  -3  113.66   19.66
  -1  27   3  112.27   19.62
  -1 -27  -3   98.99   17.31
   1  27   5  554.84   25.04
  -1 -27  -5  467.00   34.95
   1 -27  -5  459.73   34.44
   1  27  -5  566.62   24.11
   1  27  -5  515.84   38.87
  -1  27  -5  503.16   23.11
  -1  27   5  562.27   24.42
   1  27   5  427.54   34.38
   1 -27   5  503.18   36.41
   1  27  -5  556.10   23.97
  -1 -27   5  508.56   35.59
  -1  27  -5  520.12   23.18
  -1  27   5  507.07   38.62
   1  27   5  542.08   24.36
  -1  27  -5  499.69   39.52
  -1  27   5  573.52   26.10
   1  27   7  839.89   29.13
   1  27  -7  764.75   26.56
  -1 -27   7  680.26   38.93
   1 -27  -7  628.08   37.46
  -1  27  -7  749.85   27.04
   1  27  -7  617.72   41.03
   1  27  -7  762.95   27.21
  -1  27   7  636.34   40.62
   1  27   7  574.44   37.66
  -1  27  -7  716.44   46.16
   1  27   7  839.86   29.92
  -1  27  -7  711.68   26.04
  -1  27   7  909.76   31.58
   1 -27   7  691.43   40.27
  -1 -27  -7  581.70   36.25
   1  27  -9  269.02   17.94
  -1  27   9  357.03   22.62
   1  27   9  334.16   21.73
   1  27  -9  307.98   19.20
  -1  27  -9  309.79   19.25
  -1  27  -9  286.25   18.21
   1  27 -11   58.51    8.45
   1  27 -11   66.18    9.73
  -1  27 -11   56.33    8.56
  -1  27  11   84.75   11.18
  -1  27 -11   65.30    9.26
   1  27  11   68.65   10.02
   1  27  11   60.12    9.87
  -1  27  11   76.69   11.21
  -1  27 -13   84.77   10.16
  -1  27  13  110.34   12.83
   1  27  13   96.45   10.86
  -1  27 -13   86.17    9.65
  -1  27  13  101.89   11.14
   1  27  13   95.87   11.61
   1  27 -13   91.50   10.34
   1 -27 -13   79.86    9.29
   1  27 -13   88.40    9.84
  -1  27 -15   43.68    6.52
   1 -27 -15   47.95    7.22
   1  27 -15   41.98    6.75
  -1  27 -15   34.74    6.63
   1 -27 -15   40.01    6.44
   1  27 -15   48.16    7.28
   1  27  15   44.33    7.39
  -1  27 -17  124.99   10.94
   1 -27 -17  117.68   10.67
  -1  27 -17  118.69   10.20
   1  27 -17  131.03   10.97
   1 -27 -17  121.29   10.24
   1  27 -17  117.35   10.19
  -1 -27 -17  106.99    9.36
   1 -27 -19  161.61   12.50
  -1 -27 -19  153.29   11.72
  -1  27 -19  163.66   11.35
   1 -27 -19  168.88   12.00
  -1 -27 -19  162.45   11.55
   1  27 -19  171.98   12.08
   1  27 -19  192.83   12.90
  -1  27 -19  166.15   12.56
  -1  27 -21  124.30   10.59
   1 -27 -21  155.16   12.92
   1  27 -21  145.50   11.63
  -1 -27 -21  138.56   12.12
   1 -27 -21  140.79   11.61
  -1 -27 -21  134.60   11.12
  -1  27 -21  139.86   11.90
   1  27 -21  130.89   11.09
  -1  27 -23  273.31   15.39
  -1 -27 -23  232.96   14.51
   1  27 -23  238.07   14.08
   1 -27 -23  274.97   14.90
  -1 -27 -23  249.10   14.01
   1 -27 -23  254.49   15.62
   1  27 -23  240.26   13.94
  -1 -27 -25   70.51    6.81
   1 -27 -25   73.28    7.24
   1 -27 -25   65.28    7.27
  -1  27 -25   78.70    7.46
   1  27 -25   70.36    6.58
   1  27 -25   76.02    6.94
   1  27 -27    4.43    2.13
  -1  27 -27   10.78    3.03
   1 -27 -27    6.28    2.41
  -1 -27 -27    6.78    2.16
   1  27 -27    1.25    1.67
  -1  29  -1    5.91    3.50
   1  29  -1   15.23    4.09
  -1  29  -1    3.41    4.18
  -1  29   1   14.87    3.77
   1  29  -1   12.52    3.73
  -1  29   1    4.98    5.13
   1  29   1    9.01    4.18
   1  29   1    9.85    3.73
  -1  29  -3  131.42   13.94
   1  29  -3  128.67   13.72
  -1  29   3  111.20   12.88
  -1  29  -3  108.87   12.66
   1  29   3  122.60   13.92
   1  29   3  123.01   13.59
  -1  29   3  119.19   13.72
   1  29  -3  112.87   12.96
   1  29   5  461.80   22.84
   1  29  -5  420.60   21.57
  -1  29  -5  410.74   20.87
  -1  29   5  480.98   24.36
   1  29  -5  445.00   22.35
  -1  29  -5  429.97   21.91
   1  29   5  465.55   23.89
   1  29  -7  507.48   24.53
   1  29   7  476.97   25.68
  -1  29  -7  401.88   21.74
  -1  29   7  547.51   27.16
  -1  29  -7  461.14   23.35
   1  29  -7  445.62   22.77
   1  29  -9  238.48   18.21
   1  29  -9  263.46   19.35
  -1  29  -9  254.78   18.89
   1  29   9  275.44   20.54
   1  29   9  313.18   22.32
  -1  29   9  302.95   22.77
  -1  29  -9  235.67   18.01
   1  29 -11   88.96    9.60
   1  29 -11   96.68   10.36
  -1  29  11  121.10   12.71
  -1  29  11  101.68   10.94
  -1  29 -11   79.12    9.18
  -1  29 -11   87.23    9.91
   1  29  11  104.49   11.98
   1  29  11  101.77   10.82
  -1  29 -13   21.55    5.72
  -1  29 -13   25.50    5.66
   1 -29 -13   20.18    5.73
   1  29  13   34.65    7.24
   1  29 -13   20.67    5.47
   1  29 -13   18.57    5.28
  -1  29  13   23.92    6.08
   1 -29 -15   78.96    9.02
  -1  29 -15   77.94    8.97
   1  29  15   92.60   10.00
   1  29 -15   73.57    8.48
  -1  29 -15   72.75    7.96
   1  29 -15   76.01    8.68
   1 -29 -15   64.09    7.58
  -1  29 -17  103.82    9.49
   1 -29 -17  124.35   10.34
   1 -29 -17  120.00   10.93
   1  29 -17  114.86   10.09
   1  29 -17  112.17   10.30
  -1  29 -17  126.73   10.84
   1  29 -19  158.46   12.10
  -1  29 -19  161.82   12.34
   1  29 -19  151.03   11.73
   1 -29 -19  161.14   12.74
   1 -29 -19  163.89   12.05
  -1  29 -19  122.33   10.09
   1  29 -21  163.14   11.30
   1  29 -21  169.60   11.57
   1 -29 -21  169.59   12.46
  -1  29 -21  168.19   12.15
   1 -29 -21  170.81   11.74
   1 -29 -23  112.11    8.68
   1  29 -23   96.31    7.97
  -1  29 -23  103.39    8.58
   1  29 -23   88.99    7.54
   1 -29 -23  103.30    8.69
   1  29 -25   52.25    5.49
  -1  29 -25   49.22    5.75
   1 -29 -25   48.50    5.24
   1  31  -1   17.35    5.98
  -1  31  -1   12.96    5.95
   1  31   1   16.40    6.22
  -1  31  -1    9.99    5.06
  -1  31   1   13.91    6.21
   1  31  -1   14.74    5.53
  -1  31   1   12.10    5.54
   1  31   1   15.87    6.14
  -1  31   3   22.02    7.44
   1  31  -3   15.33    6.21
  -1  31  -3   13.01    6.01
   1  31  -3   18.87    6.34
  -1  31  -3   25.02    7.81
   1  31   3   15.09    6.00
   1  31   3   20.38    7.17
   1  31  -5   77.49   10.26
  -1  31  -5  104.26   11.88
   1  31   5   96.01   12.19
   1  31  -5   92.97   11.44
  -1  31  -5   83.12   10.13
  -1  31   5  106.21   12.32
   1  31   7  107.13   12.15
   1  31   7  100.91   10.92
  -1  31  -7   94.40   10.50
  -1  31   7  116.34   12.12
  -1  31  -7   80.10    9.21
   1  31  -7   91.33    9.73
   1  31  -7  102.80   10.72
  -1  31  -9   64.47    8.32
   1  31   9   57.99    7.70
   1  31  -9   65.67    8.04
  -1  31   9   67.11    8.60
   1  31   9   78.90   10.13
  -1  31  -9   56.60    7.43
  -1  31   9   61.64    9.26
   1  31  -9   68.96    8.53
  -1  31  11    3.17    3.13
  -1  31 -11    2.50    3.82
  -1  31 -11   10.15    3.15
   1  31  11   11.24    3.31
  -1  31  11    3.17    4.39
   1  31 -11    3.15    3.39
   1  31 -11    5.80    2.92
   1  31 -13    2.69    3.09
   1  31  13    6.18    3.72
  -1  31 -13    1.40    2.68
   1 -31 -13    1.47    2.56
   1  31 -13    4.22    2.86
  -1  31 -13    3.51    3.48
   1  31 -15    0.74    2.75
  -1  31 -15    1.39    2.73
   1  31 -15    1.27    3.03
  -1  31 -15    0.23    2.94
   1 -31 -15    4.48    3.35
   1  31  15    0.01    3.04
   1 -31 -17   20.10    5.24
   1  31 -17   14.06    4.40
   1  31 -17    9.49    3.81
  -1  31 -17   12.41    3.68
  -1  31 -17   14.90    4.73
   1 -31 -19   67.39    7.13
  -1  31 -19   69.34    7.47
   1  31 -19   62.34    7.00
   1  31 -19   61.32    6.78
   1  31 -21   63.13    5.86
   1  31 -21   74.30    6.49
  -1  31 -21   76.92    6.77
   1 -31 -21   66.82    6.06
  -1  31 -23    3.15    2.32
   1  31 -23    6.56    2.30
   1  33  -1  114.96   10.93
  -1  33  -1  116.26   10.94
   1  33   1  104.37   10.57
   1  33   1   93.88    9.23
  -1  33  -1   98.61    9.02
  -1  33   1  119.84   11.40
   1  33  -1   94.98    9.20
  -1  33  -3   41.25    6.98
   1  33  -3   32.54    6.17
  -1  33  -3   38.18    7.35
   1  33   3   36.23    7.19
  -1  33   3   43.60    7.72
   1  33  -3   45.02    7.44
   1  33   5    2.83    3.53
  -1  33   5    7.55    4.46
   1  33  -5    4.71    3.57
  -1  33  -5    1.14    3.05
   1  33   5    0.05    4.45
   1  33  -5    2.45    3.46
  -1  33  -5    3.06    3.80
  -1  33   7    2.84    3.73
  -1  33  -7    0.09    3.77
   1  33  -7    0.89    3.60
  -1  33  -7    0.47    2.56
   1  33   7    0.11    4.08
   1  33  -7    1.04    2.73
   1  33   7    0.11    4.65
  -1  33   7    0.69    3.69
  -1  33  -9    1.89    3.42
   1  33  -9    1.35    3.79
  -1  33   9    1.22    3.81
  -1  33  -9    0.23    3.80
   1  33   9    0.65    3.41
   1  33  -9    0.46    3.66
   1  33   9    1.78    4.97
  -1  33   9    0.48    4.02
  -1  33 -11   12.55    3.01
  -1  33  11   19.33    4.87
   1  33  11   22.09    4.89
  -1  33 -11   20.29    4.63
   1  33 -11   14.88    4.16
   1  33 -11   17.76    4.68
  -1  33 -13   68.99    7.12
   1  33 -13   76.98    8.24
   1  33  13   91.34    9.59
  -1  33 -13   94.80    9.70
   1  33 -13   95.44    9.27
   1  33 -15   71.38    8.15
   1  33 -15   55.10    6.83
  -1  33 -15   66.38    8.03
   1  33 -17   12.89    3.03
   1  33 -17    9.74    3.04
  -1  33 -17   11.24    3.30
   1  33 -19    0.19    1.82
   1  33 -19    6.91    2.30
  -1  33 -19    3.71    2.26
   1  35  -1  183.79   13.17
  -1  35   1  179.83   13.44
   1  35   1  173.91   13.04
  -1  35  -1  168.72   12.86
  -1  35   3  118.02   10.19
   1  35   3  103.73    9.43
   1  35   3  125.58   10.31
   1  35  -3   85.90    8.13
  -1  35  -3  111.93   10.03
   1  35  -3  106.22    9.38
   1  35  -5   88.42    8.15
   1  35  -5  115.25    9.99
  -1  35  -5  122.33   10.23
   1  35   5  103.58    9.89
  -1  35   5  111.56   10.16
  -1  35   5  109.34    9.94
   1  35   5  120.91   10.21
  -1  35   7    7.61    4.04
   1  35  -7    3.15    2.74
  -1  35   7    7.61    3.13
   1  35   7    0.05    3.96
   1  35  -7    0.14    2.95
  -1  35  -7    1.70    2.55
   1  35   7    5.96    2.70
  -1  35  -7    2.67    3.27
  -1  35  -9    2.36    2.75
  -1  35  -9    1.24    2.75
   1  35  -9    6.41    3.33
  -1  35   9    0.92    2.36
   1  35  -9    7.83    3.75
   1  35   9    2.78    3.10
  -1  35  11   53.73    6.03
   1  35 -11   62.79    6.10
   1  35  11   70.31    7.19
   1  35 -11   70.76    7.21
  -1  35 -11   68.30    7.15
   1  35 -13   93.99    7.17
   1  35 -13  112.94    8.42
   1  35  13  113.75    8.33
  -1  35 -13  120.33    9.15
  -1  35 -15  186.57   11.00
   1  35 -15  192.65   10.97
  -1  35 -17   38.85    4.77
   1  35 -17   36.54    4.33
  -1  37   1  123.85   10.26
  -1  37  -1  118.60   10.14
   1  37  -1  130.63   10.31
  -1  37   1  126.55   10.43
   1  37   1  128.81   10.32
   1  37  -1  126.10   10.26
   1  37   1  130.55   10.25
   1  37   3  193.14   12.35
   1  37  -3  198.35   12.15
  -1  37   3  169.24   11.53
  -1  37   3  186.22   12.26
  -1  37  -3  202.24   12.33
   1  37  -3  178.26   11.73
   1  37   3  192.82   12.39
  -1  37   5   62.22    6.91
  -1  37  -5   55.58    6.78
  -1  37   5   54.60    6.97
   1  37   5   57.79    6.82
   1  37  -5   52.99    6.45
   1  37  -7    0.52    3.03
   1  37   7    3.86    2.25
  -1  37   7    0.27    2.04
  -1  37  -7    0.33    3.05
  -1  37   9    0.03    2.07
   1  37  -9    0.05    2.65
  -1  37  -9    0.05    2.69
   1  37 -11   32.50    4.47
   1  37  11   31.02    4.21
  -1  37 -11   30.18    4.40
   2   0   0   60.98   11.72
   2   0  -2 7845.86   23.59
   2   0   2 7597.08   16.04
  -2   0  -4   44.83    4.62
   2   0  -4   65.80    3.95
  -2   0  -4   47.49    2.76
  -2   0  -6   23.46    3.76
   2   0  -6   26.99    3.28
  -2   0  -6   22.63    2.49
  -2   0   8   62.27    2.82
  -2   0  -8   94.09    3.15
  -2   0  -8  117.64    6.23
   2   0  -8   71.76    6.96
   2   0  -8   76.48    7.15
  -2   0  -8  130.58    8.65
  -2   0 -10  397.28   20.91
   2   0 -10  387.24   18.86
  -2   0 -10  384.79   17.02
  -2   0 -12  245.13    9.54
   2   0 -12  283.59   16.29
   2   0 -12  269.44   16.52
  -2   0 -12  452.62   23.14
  -2   0 -12  423.21   19.16
  -2   0 -14  118.58    3.18
  -2   0 -14  144.91    7.32
   2   0 -14  135.70    6.59
   2   0 -14  152.49    6.38
  -2   0 -14  149.76    6.50
   2   0 -16   29.76    7.27
  -2   0 -16   93.10   13.69
  -2   0 -16   92.94   14.25
  -2   0 -18  141.58   16.12
   2   0 -18  162.06   17.14
  -2   0 -18  156.66   17.34
   2   0 -18  133.77   14.61
  -2   0 -20    4.78    6.42
   2   0 -20    3.91    6.05
   2   0 -20    1.99    4.52
  -2   0 -20    0.74    4.70
  -2   0 -22    0.28    6.32
   2   0 -22    0.00    4.05
  -2   0 -22    1.02    5.40
   2   0 -24   60.38   10.49
  -2   0 -24   43.96    5.77
   2   0 -24   51.91    5.93
   2   0 -26  146.08   11.81
  -2   0 -26  148.40   12.33
   2   0  26  124.58   17.77
   2   0 -28  238.67   18.37
  -2   0 -28  224.53   18.31
   2   0 -30  576.64   24.83
  -2   0 -30  564.07   25.65
  -2   0 -30  489.28   22.28
   2   0 -30  532.11   24.82
   2   0 -32   40.14    7.69
   2   0 -32   24.46    7.06
  -2   0 -32   25.49    6.98
  -2   0 -32   20.01    5.33
  -2   0 -34   11.02    3.56
   2   0 -34   19.85    5.78
   2   0 -34   11.27    4.54
   2   0 -36    3.92    3.68
  -2   0 -36    6.73    3.08
   2   0 -38   82.02    8.31
   2   0 -40   21.01    3.59
   2   2   0 5539.15   15.11
   2   2   0 5776.94   18.38
   2   2   2   74.38    9.29
   2  -2  -2   74.39    7.13
   2   2  -2   64.49    7.11
   2  -2   4  137.96   15.60
  -2  -2  -4  148.67   17.54
  -2   2   4  139.88   10.45
   2  -2  -4  134.82   11.27
   2  -2  -4  151.81   17.95
  -2   2  -4  139.28   14.99
   2  -2  -6  128.76   11.62
  -2  -2   6  116.56    8.83
  -2   2  -6  110.99   10.30
   2  -2   6  106.04   10.08
  -2  -2  -6  123.08    8.83
  -2   2  -6  110.05   12.30
   2   2  -6  112.42   11.25
  -2  -2  -6  127.83   12.31
   2   2  -6  118.03   11.67
  -2   2   6  146.58    8.56
  -2  -2  -8   51.10   12.86
  -2   2  -8   57.67   16.12
   2  -2   8   55.98   12.59
   2   2  -8   62.64   14.68
  -2  -2   8   49.83   10.09
   2  -2  -8   64.55   15.77
  -2  -2  -8   78.16   17.06
  -2   2  -8   55.63   13.74
   2   2  -8   61.39   15.30
   2  -2  -8   44.80   14.67
  -2  -2 -10   87.67    4.48
  -2   2 -10   52.18    1.70
  -2  -2  10   85.26    2.35
   2   2 -10  109.90    5.23
   2  -2  10   81.53    3.85
   2  -2 -10  108.09    5.71
   2  -2 -10  113.81    5.43
  -2   2 -10   86.71    4.60
  -2  -2 -10   85.50    5.48
  -2   2 -10   77.31    5.47
   2   2 -10  100.00    5.66
  -2  -2  12   88.56    3.82
   2  -2 -12   97.85    8.14
  -2  -2 -12   64.56    4.53
   2   2 -12  108.11    7.94
  -2  -2 -12  151.19    9.76
   2   2 -12  101.96    8.34
  -2   2 -12  152.91   11.49
  -2   2 -12  139.57    8.96
  -2  -2 -12  160.88   11.14
   2  -2 -12  113.16    8.24
   2  -2  12  147.97    7.45
  -2  -2 -14  133.36   12.76
   2   2 -14  115.25   12.55
   2   2 -14  121.09   11.81
   2  -2 -14  118.99   12.64
  -2  -2 -14   91.15    7.36
  -2   2 -14  123.67   13.50
  -2  -2 -14  114.15   13.27
   2  -2 -14  138.49   12.67
  -2   2 -14  112.52   11.51
   2   2 -16   24.28    5.50
   2  -2 -16   30.19    7.12
   2  -2 -16   24.73    6.22
  -2   2 -16   31.65    6.95
  -2  -2 -16   27.87    7.58
  -2  -2 -16   32.29    7.24
   2   2 -16   23.48    6.38
  -2   2 -16   23.06    7.80
   2  -2 -18   15.13    5.40
  -2  -2 -18   21.08    6.74
   2  -2 -18   21.20    5.56
  -2   2 -18   30.18    6.79
  -2   2 -18   25.06    6.87
   2   2 -18   14.54    4.49
  -2   2  18   23.73    6.28
   2   2 -18   23.26    5.79
  -2  -2 -18   22.43    6.22
  -2   2 -20    3.31    5.01
  -2   2  20    2.50    3.81
  -2  -2 -20    1.24    6.35
  -2   2 -20    2.01    3.81
   2  -2 -20    0.81    3.73
   2   2 -20    0.11    3.26
   2   2 -20    5.61    5.52
   2  -2 -20    2.07    5.44
  -2   2 -22    1.12    6.54
   2   2  22    3.61    6.81
  -2   2 -22    0.37    4.16
   2   2 -22    1.30    5.47
   2  -2 -24    2.99    3.83
   2   2 -24    1.42    6.48
  -2  -2 -24    0.56    3.56
   2  -2 -24    0.95    3.06
  -2   2 -24    4.81    7.57
   2   2  24    2.88    6.77
  -2   2 -24    0.73    3.34
   2   2 -24    1.07    3.24
   2   2  26  121.31   18.56
   2   2 -26  155.70   12.98
   2   2 -26  145.70   21.13
  -2   2 -26  149.37   13.78
  -2  -2 -26  151.33   12.99
   2  -2 -26  156.10   13.00
  -2   2 -26  120.16   11.54
   2   2 -26  169.94   14.03
  -2   2 -28  264.75   15.68
   2  -2  28  260.22   27.25
  -2  -2 -28  294.23   17.70
   2   2 -28  324.94   18.95
   2   2 -28  331.65   18.19
  -2   2 -28  294.84   18.32
   2  -2 -28  321.21   17.92
  -2   2 -30   57.02   10.32
   2   2 -30   80.31   11.45
   2   2 -30   68.99   10.51
  -2  -2 -30   69.55   10.83
   2  -2 -30   72.09   10.67
  -2   2 -30   55.31    9.02
  -2  -2 -32   33.53    5.17
   2   2 -32   34.50    5.29
   2  -2 -32   31.69    5.43
  -2  -2 -32   40.74    6.59
  -2   2 -32   33.06    5.14
   2   2 -32   31.50    6.13
  -2   2 -32   25.35    5.45
   2  -2 -32   26.88    5.18
   2   2 -34   40.94    7.32
  -2  -2 -34   35.34    6.05
   2  -2 -34   45.68    7.20
  -2  -2 -34   35.91    7.16
   2  -2 -34   31.97    6.88
  -2   2 -34   34.79    6.01
   2   2 -34   39.60    7.69
   2  -2 -36    1.10    3.20
  -2  -2 -36    6.46    2.81
  -2   2 -36    4.90    2.69
   2   2 -36    6.16    3.42
   2  -2 -36    7.11    3.90
   2  -2 -38    2.26    2.65
  -2  -2 -38    3.14    2.04
   2   2 -38    6.15    3.39
   2   2 -40   51.26    4.87
   2  -2 -40   52.20    5.04
   2   4   0 1740.93   11.28
   2  -4   0 1854.16   13.41
   2   4   0 1776.46   12.87
   2   4   2   37.99    3.15
   2   4  -2   36.61    3.00
  -2  -4  -2   29.03    1.96
   2  -4  -2   29.86    2.47
  -2   4   2   37.53    2.88
   2  -4   2   30.91    2.51
   2   4  -2   34.27    3.06
  -2   4   4  260.67    3.82
   2   4   4  247.80    5.06
  -2  -4   4  254.87    4.09
  -2   4  -4  260.28    4.23
   2  -4  -4  271.23    3.50
  -2   4  -4  252.23    4.61
  -2  -4  -4  244.47    4.34
   2  -4   4  249.10    4.63
   2   4  -4  240.61    5.01
  -2   4   6  447.55   10.19
   2  -4   6  434.73   12.35
  -2  -4  -6  458.28   13.50
   2   4   6  488.25   14.49
  -2  -4   6  411.26   10.96
  -2   4  -6  444.89   12.86
  -2   4  -6  425.76   12.89
   2   4  -6  438.15   13.36
   2   4  -6  419.83   12.08
   2  -4  -6  407.78    7.82
  -2   4  -8    4.01    9.44
  -2   4  -8    3.80   10.24
   2   4  -8    4.84    8.83
  -2  -4  -8    1.83   10.07
   2   4  -8    2.62   10.00
   2  -4  -8   11.35    4.10
   2  -4   8   10.59    8.73
   2   4   8    1.12   10.71
  -2  -4   8    5.30    6.97
  -2   4   8    5.88    7.48
   2   4  10   77.87    9.27
  -2  -4  10   60.08    5.49
  -2   4  10   62.48    7.07
   2   4 -10   71.06    7.71
   2  -4  10   53.25    7.18
  -2   4 -10   69.36    9.28
  -2  -4 -10   78.25    9.25
  -2   4 -10   56.00    7.95
   2   4 -10   64.33    8.48
  -2   4 -12   36.14    7.10
   2   4 -12   12.33    4.25
  -2  -4 -12   15.83    6.51
   2  -4 -12    3.89    3.37
  -2   4 -12   20.05    5.24
  -2  -4  12   12.85    3.22
   2   4 -12    9.85    3.69
   2  -4  12   23.05    4.55
  -2   4  12    4.04    2.70
   2  -4  14   38.28    4.72
   2   4 -14   40.84    5.70
  -2   4 -14   37.62    5.77
   2  -4 -14   41.21    6.97
  -2   4  14   42.36    5.84
  -2  -4 -14    9.38    2.98
   2   4 -14   40.68    6.41
   2   4  14   47.32    7.01
  -2  -4  14   36.95    3.65
  -2  -4 -14   33.03    6.27
  -2   4 -14   41.54    6.25
  -2   4 -16   10.08    5.66
   2   4  16    6.85    4.30
   2  -4 -16    8.47    3.95
  -2  -4 -16    2.85    2.23
  -2  -4 -16    5.00    3.99
   2   4 -16   12.73    5.37
  -2   4 -16   14.40    4.79
   2   4 -16   11.17    3.97
  -2   4  16    6.67    3.05
   2  -4 -18   40.52    5.23
  -2   4 -18   36.68    5.93
  -2  -4 -18   39.79    5.94
   2   4 -18   52.33    6.25
   2   4  18   36.77    5.75
  -2   4  18   39.76    4.98
   2   4 -18   42.01    4.83
  -2   4 -18   35.27    5.27
   2   4  20   48.19    6.11
  -2   4  20   53.14    5.99
  -2   4 -20   57.16    7.00
  -2  -4 -20   56.06    6.99
   2   4 -20   58.18    6.67
   2  -4 -20   56.87    7.35
   2   4 -20   34.86    4.21
  -2   4 -20   52.75    6.22
   2   4 -22   91.16   16.71
  -2   4 -22   93.61   16.89
   2   4  22   84.76   16.06
  -2   4 -22   77.39   15.04
   2  -4 -24    4.29    4.63
  -2   4 -24    7.54    5.61
  -2   4 -24    2.27    4.33
   2   4 -24    8.14    5.48
  -2   4 -24    3.44    6.95
  -2  -4 -24    2.24    3.65
   2  -4 -24    3.89    4.33
   2   4  24    6.97    7.61
   2   4 -24    7.47    4.93
   2   4 -24    3.49    7.51
   2   4  26   58.80   12.55
   2  -4 -26   72.48    8.72
   2   4 -26   86.20    9.71
  -2  -4 -26   77.61    9.50
   2   4 -26   91.10   10.37
  -2   4 -26   76.87    8.64
   2   4 -26   75.40   14.80
   2  -4 -26   78.03    8.95
  -2   4 -26   82.72   10.08
   2  -4 -28  114.00   11.69
  -2  -4 -28  124.09   12.46
   2   4 -28   86.85   17.26
   2   4 -28  120.96   13.21
  -2   4 -28  108.22   12.62
  -2   4 -28  106.44   10.92
   2   4 -28  126.96   12.22
   2   4 -30    1.05    3.62
   2  -4 -30    0.19    4.37
  -2  -4 -30    2.93    3.28
   2   4 -30    0.34    3.49
   2   4 -32    0.17    3.45
  -2   4 -32    0.14    2.46
  -2  -4 -32    0.19    3.31
   2   4 -32    0.17    5.24
  -2  -4 -32    0.19    3.91
   2  -4 -32    0.17    3.37
   2  -4 -32    0.17    3.97
   2  -4 -34   17.47    6.15
  -2   4 -34   15.60    4.62
   2   4 -34   19.81    5.68
   2  -4 -34   24.99    6.58
  -2  -4 -34   14.01    6.06
  -2  -4 -34   14.47    4.81
   2   4 -36   20.57    4.73
  -2  -4 -36   28.21    5.32
  -2  -4 -36   25.22    4.41
   2  -4 -36   26.21    5.17
   2  -4 -36   26.21    5.60
  -2   4 -36   19.43    3.62
  -2  -4 -38    4.32    2.20
   2   4 -38    0.01    2.17
   2  -4 -38    0.17    2.72
   2  -4 -40   23.45    3.53
   2   4 -40   25.29    3.45
   2   6   0    3.26    2.58
   2   6   0    0.47    2.39
   2  -6   0    0.61    2.79
  -2  -6   0    0.12    2.81
  -2  -6   0    3.26    0.80
  -2  -6   2   56.69    9.21
   2   6  -2   58.23    9.10
  -2  -6  -2   64.05    9.42
   2  -6   2   49.97    8.52
   2   6   2   63.11    9.19
  -2   6   2   49.74    9.12
   2   6  -2   58.04    9.10
  -2  -6  -2   65.26    6.16
   2  -6  -2   51.76    8.65
  -2   6   4   32.98    5.72
   2  -6   4   34.10    6.54
  -2  -6  -4   41.56    5.62
  -2   6  -4   30.16    4.90
   2  -6  -4   43.27    5.85
   2   6  -4   37.42    6.79
   2   6   4   28.64    6.07
  -2  -6   4   34.65    6.02
   2   6  -4   33.86    6.45
  -2   6  -4   34.51    6.18
   2  -6  -6  711.04   20.66
  -2   6  -6  603.50   25.23
  -2   6  -6  583.52   23.32
  -2  -6  -6  717.13   24.62
  -2  -6   6  690.63   24.01
   2   6  -6  757.38   26.72
   2   6  -6  756.91   27.89
   2  -6   6  656.13   25.15
  -2   6   6  658.79   22.34
   2   6   6  711.62   28.09
  -2   6   8  163.75   13.12
   2  -6   8  153.43   14.47
  -2  -6  -8  176.84   15.38
   2   6  -8  169.47   14.70
   2   6   8  153.15   15.91
  -2  -6   8  166.53   13.05
   2   6  -8  177.13   15.91
   2  -6  -8  176.67   10.07
  -2   6  -8  149.46   15.82
  -2  -6  -8  164.41   14.09
  -2   6  -8  142.79   14.78
  -2   6 -10   56.03    5.50
   2   6  10   63.23    6.44
  -2   6 -10   61.90    6.10
   2   6 -10   59.38    6.29
   2  -6 -10   49.15    2.33
  -2  -6  10   49.58    3.94
  -2   6  10   59.32    5.19
   2  -6  10   50.86    4.97
   2   6 -10   55.85    5.16
  -2  -6 -10   47.25    4.29
  -2  -6 -10   65.66    6.25
   2   6  12   25.63    5.76
   2   6 -12   19.64    5.50
  -2  -6 -12   35.12    6.17
   2   6 -12   17.82    4.78
  -2   6 -12   25.48    5.12
  -2   6  12   30.31    4.82
   2  -6  12   24.00    4.85
  -2  -6 -12   21.13    3.37
  -2   6 -12   25.99    6.09
  -2  -6  12   20.64    3.60
   2   6  14    4.35    5.13
  -2   6 -14    8.74    6.13
   2   6 -14    5.65    4.62
  -2  -6 -14    5.40    5.45
  -2  -6  14   10.15    4.20
   2   6 -14    8.34    5.41
   2  -6  14    5.70    4.54
  -2   6 -14    2.75    4.77
  -2   6  14    5.16    4.65
  -2   6 -16  148.87   16.70
  -2   6 -16  148.92   16.27
  -2  -6 -16  146.77   16.94
   2   6 -16  143.74   16.17
  -2   6  16  156.65   15.20
   2   6  16  150.19   17.28
   2  -6  16  103.20   12.94
   2   6 -16  122.87   13.46
   2  -6 -16  121.67   16.52
  -2   6  18  245.70   18.16
  -2   6 -18  254.93   20.12
   2  -6 -18  250.21   19.75
  -2  -6 -18  230.71   20.04
   2   6  18  225.97   19.85
  -2   6 -18  224.37   18.83
   2   6 -18  190.82   15.65
   2   6 -18  256.35   19.89
  -2   6 -20  150.97   15.52
   2  -6 -20  166.85   15.84
   2   6  20  146.12   15.68
  -2   6 -20  147.77   15.11
   2   6 -20  166.63   16.54
  -2   6 -22  236.72   22.93
   2   6  22  232.95   22.55
   2   6 -22  224.42   22.23
  -2   6 -22  217.19   21.48
   2   6 -24    5.34    3.67
   2   6 -24    3.22    5.39
   2  -6 -24    2.83    3.46
  -2   6 -24    1.31    4.93
   2   6 -24    2.60    3.75
   2   6  24    0.27    4.03
  -2  -6 -24    1.07    2.80
   2  -6 -24    4.88    3.80
  -2   6 -24    4.71    4.41
  -2   6 -24    1.79    3.16
   2   6  26    2.56    5.24
  -2  -6 -26    1.52    2.85
  -2   6 -26    5.86    3.95
  -2   6 -26    8.12    3.44
   2  -6 -26    7.27    3.64
   2  -6 -26    4.70    2.68
   2   6 -26    2.29    2.99
   2   6 -26   15.77    7.17
   2   6 -26    4.68    3.14
   2   6 -28   15.05    5.34
  -2  -6 -28    9.47    3.87
   2   6 -28    0.04    3.83
   2  -6 -28   18.48    5.17
   2   6 -28   12.27    4.22
  -2   6 -28   17.05    4.48
  -2   6 -30    4.10    3.51
  -2  -6 -30    1.41    3.24
   2  -6 -30    1.58    3.21
   2   6 -30    1.16    3.20
   2  -6 -32   39.98    7.16
  -2  -6 -32   53.51    8.73
   2   6 -32   48.18    7.93
  -2   6 -32   39.08    6.52
  -2   6 -34   42.24    6.31
   2  -6 -34   58.30    8.71
  -2  -6 -34   59.23    8.81
   2  -6 -34   59.36    8.46
   2   6 -34   55.42    8.05
  -2  -6 -34   48.08    7.09
  -2  -6 -36   38.36    6.54
   2  -6 -36   50.75    7.26
   2  -6 -36   42.95    6.28
  -2  -6 -36   42.20    5.72
   2   6 -36   42.08    6.40
   2  -6 -38    0.59    2.68
   2  -6 -38    0.59    3.25
   2   6 -38    2.29    1.97
  -2  -6 -38    0.59    1.62
   2   8   0  323.89   33.08
   2   8   0  234.38   32.08
   2  -8   0  256.50   30.30
  -2  -8   0  363.77   34.84
   2  -8  -2    6.80    9.76
  -2   8   2    6.13   11.30
  -2  -8  -2   30.57   11.38
   2   8  -2   17.18   10.55
  -2  -8   2   17.93   11.03
   2  -8   2    6.08    9.74
   2   8  -2    8.67   10.25
  -2  -8  -2   10.38    4.70
   2   8   2   14.88    9.95
  -2   8  -4   35.08   10.28
  -2  -8  -4   36.45    9.44
  -2   8  -4   40.57   13.57
  -2  -8   4   32.22   13.48
   2   8  -4   20.48   13.67
   2   8  -4   22.06   13.05
   2  -8  -4   42.17   11.81
   2   8   4   56.79   14.58
   2  -8   4   40.97   13.17
  -2  -8  -4   66.31   14.79
  -2   8   4   53.68   14.38
   2   8   6  542.34   19.95
  -2   8  -6  482.27   16.31
   2  -8  -6  541.09   16.09
   2  -8   6  480.55   18.40
  -2  -8  -6  534.99   16.26
   2   8  -6  555.29   19.96
  -2   8   6  537.34   18.18
  -2   8  -6  504.90   19.99
  -2  -8  -6  580.95   19.74
  -2  -8   6  520.26   17.58
  -2   8  -8  426.12   20.01
  -2  -8  -8  476.65   20.94
  -2  -8  -8  479.87   21.76
  -2   8  -8  452.93   22.55
  -2   8   8  444.74   19.88
   2  -8  -8  472.53   17.05
   2  -8   8  448.59   21.06
   2   8  -8  462.16   22.93
  -2  -8   8  454.92   20.03
   2   8  -8  448.65   22.76
   2   8   8  435.72   23.32
   2   8  10   69.85    9.32
   2  -8  10   77.11    8.90
  -2   8  10   89.27    8.85
  -2  -8  10   88.36    8.40
  -2   8 -10   94.08   10.52
   2   8 -10   84.28    9.82
   2  -8 -10   86.01    6.17
   2   8 -10   89.15   10.00
  -2  -8 -10   90.22    9.57
  -2   8 -10   89.15    9.57
  -2  -8 -10   78.11    8.15
   2   8 -12    1.99    5.11
  -2  -8 -12    2.31    5.69
   2   8  12    2.05    5.82
  -2   8 -12    4.12    5.51
  -2   8  12    5.18    5.14
   2   8 -12    2.76    5.42
  -2  -8  12    3.32    4.39
  -2  -8 -12    1.32    2.96
   2  -8  12    5.14    4.70
  -2   8 -12    4.57    5.37
  -2   8  14  379.09   23.33
  -2   8 -14  374.23   24.61
  -2  -8 -14  383.06   25.29
  -2  -8  14  352.79   20.12
  -2   8 -14  333.44   23.97
   2   8 -14  339.33   24.59
   2   8  14  367.73   25.51
   2  -8  14  370.85   22.12
   2   8 -14  343.07   22.57
   2  -8  16   50.96    9.40
   2   8 -16   77.67   10.83
  -2   8  16   53.56    9.70
  -2   8 -16   48.86   10.38
  -2  -8 -16   54.34   10.76
  -2   8 -16   52.55   10.46
   2   8 -16   57.21   11.90
   2   8  16   60.29   11.35
   2   8  18   16.22    6.20
   2  -8 -18   11.48    6.53
   2   8 -18   23.01    7.48
   2   8 -18    2.20    4.38
  -2   8  18   10.33    5.25
  -2   8 -18   18.29    6.17
  -2   8 -18   10.71    5.12
  -2   8 -20  527.78   31.43
  -2   8 -20  556.73   32.39
   2   8  20  558.35   33.79
   2   8 -20  606.53   34.05
   2  -8 -20  586.42   33.28
   2   8 -22   84.66   14.69
   2   8  22   93.75   15.54
  -2   8 -22   98.92   15.69
  -2  -8 -22   82.65    9.53
  -2  -8 -22   90.91    9.47
   2  -8 -22   92.74    9.58
   2   8 -22   92.87    9.43
  -2   8 -22   91.47   14.56
   2  -8 -22   87.23    9.58
  -2  -8 -24   25.53    5.22
  -2   8 -24   23.17    7.94
   2   8 -24   31.51    8.91
   2  -8 -24   24.88    5.13
   2  -8 -24   25.96    5.55
   2   8  24   21.53    8.29
  -2  -8 -24   25.73    5.15
   2   8 -24   17.44    4.64
   2   8 -24   33.63    5.66
  -2   8 -24   21.02    4.54
   2  -8 -26    3.30    3.51
  -2   8 -26    3.74    5.80
   2   8 -26    2.65    7.58
  -2  -8 -26    0.56    2.75
  -2   8 -26    3.74    3.26
   2   8 -26    2.65    3.06
   2  -8 -26    0.68    2.73
   2  -8 -28    5.68    3.31
   2   8 -28    1.78    3.39
  -2   8 -28    1.84    2.51
  -2  -8 -28    6.27    3.08
   2   8 -28    5.26    3.34
   2  -8 -28    2.78    2.82
  -2   8 -30    1.91    3.62
   2   8 -30    1.24    4.57
  -2  -8 -30    1.06    4.35
   2  -8 -30    1.33    4.65
  -2  -8 -32   77.58   10.39
   2   8 -32   66.01    8.66
   2  -8 -32   78.56    9.79
  -2   8 -32   68.91    7.88
  -2  -8 -34   93.66   10.25
   2  -8 -34  107.81   10.70
   2   8 -34  106.10    9.96
   2  -8 -36   48.28    6.63
  -2  -8 -36   39.47    6.19
  -2  -8 -36   36.02    4.90
   2   8 -36   40.88    5.45
   2  -8 -36   45.36    6.47
   2  -8 -38   13.00    3.61
   2   8 -38   10.64    2.68
  -2  -8 -38    8.42    2.02
   2  -8 -38    7.85    2.55
  -2 -10   0   21.47    4.58
   2  10   0   18.45    4.41
   2  10   0   21.79    3.92
   2 -10   0   19.75    4.68
  -2 -10  -2  115.27   14.39
  -2  10  -2   83.13   13.33
   2  10  -2  124.59   14.11
   2  10   2   96.86   13.61
   2 -10  -2   96.92   12.37
  -2  10   2  105.83   15.52
  -2 -10   2  115.11   13.73
   2 -10   2   81.61   12.55
   2  10  -2  112.79   14.28
   2  10   2   95.74   12.53
  -2 -10  -4  178.64   10.27
  -2 -10   4  175.57    9.45
   2 -10  -4  163.16    8.57
  -2  10  -4  154.88   10.01
   2  10   4  141.20    9.51
  -2  10  -4  143.63    6.55
   2  10  -4  172.02    9.57
  -2  10   4  154.38    9.34
   2  10  -4  173.05   10.01
   2 -10   4  147.61    9.12
  -2 -10  -6   42.61    7.75
  -2 -10   6   67.14    8.20
  -2  10   6   60.07    8.71
   2  10  -6   47.88    7.32
  -2  10  -6   45.51    7.97
   2  10   6   56.78    8.78
   2 -10  -6   41.65    6.29
   2 -10   6   42.01    7.47
  -2  10  -6   36.03    5.75
   2  10   8 1091.02   30.28
  -2 -10  -8  988.13   23.29
   2 -10   8 1010.03   27.13
  -2 -10  -8 1074.57   27.34
  -2  10  -8  970.62   23.96
  -2  10   8 1089.52   27.69
  -2  10  -8 1005.08   28.26
   2  10  -8 1072.72   28.89
  -2 -10   8 1051.46   25.78
   2 -10  -8 1058.53   22.98
   2 -10 -10  442.25   14.39
   2  10  10  432.79   20.67
   2  10 -10  407.01   19.22
  -2  10  10  459.23   18.77
  -2  10 -10  404.21   19.33
  -2  10 -10  414.89   17.23
  -2 -10  10  408.49   17.15
   2 -10  10  438.53   18.75
  -2 -10 -10  384.27   16.30
  -2 -10 -10  425.33   17.67
   2  10 -12   23.88    5.08
  -2  10 -12   53.30    7.32
  -2 -10  12   19.73    3.94
   2 -10 -12   17.80    2.24
  -2 -10 -12   48.17    5.62
  -2  10 -12   56.22    7.35
  -2  10  12   22.75    4.27
   2 -10  12   46.16    7.31
   2  10  12   55.96    8.41
  -2  10 -14   91.41    9.98
  -2 -10  14   96.10    8.53
   2  10  14   92.70   10.48
  -2  10 -14   81.31    8.58
  -2  10  14  101.40   10.07
   2 -10  14   87.39    8.87
   2  10 -14   92.10   10.33
  -2 -10  16    0.01    3.61
  -2  10 -16    1.92    5.63
  -2  10 -16    0.20    4.69
   2  10 -16    0.06    5.83
   2 -10  16    0.01    4.75
   2  10  16    1.91    6.58
  -2  10  16    0.01    4.04
  -2  10  18  266.30   18.23
  -2  10 -18  241.53   17.85
  -2  10 -18  241.66   17.03
   2  10  18  243.16   19.08
   2  10 -18  268.20   19.13
  -2  10 -20  192.51   17.02
   2  10 -20  216.81   19.66
  -2  10 -20  174.30   16.88
   2  10  20  181.18   17.99
   2 -10 -20  193.27   17.84
   2  10  22  178.43   20.40
   2  10 -22  182.47   12.06
   2 -10 -22  162.92   12.25
  -2 -10 -22  157.90   12.44
   2 -10 -22  180.34   12.08
   2 -10 -22  190.10   19.40
  -2 -10 -22  154.96   11.56
  -2  10 -22  175.34   18.69
   2  10 -22  186.35   19.99
   2 -10 -24   43.79    8.90
   2 -10 -24   52.87    8.91
  -2  10 -24   41.35   12.75
  -2 -10 -24   49.87    9.01
  -2 -10 -24   44.96    9.23
  -2  10 -24   33.60    7.34
   2  10  24   43.37   13.93
   2  10 -24   59.64    9.56
   2  10 -24   53.03   14.80
  -2  10 -26    0.65    3.03
  -2 -10 -26    2.88    3.83
   2  10 -26    0.70    4.75
   2  10 -26    0.69    2.69
   2 -10 -26    1.53    3.86
   2 -10 -26    0.74    3.17
   2 -10 -28    2.76    3.52
  -2 -10 -28    0.96    3.61
   2  10 -28    0.55    3.44
  -2  10 -28    1.22    2.85
   2 -10 -28    0.18    3.27
   2 -10 -30   18.46    4.13
  -2 -10 -30   24.90    5.52
   2  10 -30   11.94    3.48
  -2  10 -30   20.26    4.16
   2 -10 -32   29.48    6.40
   2  10 -32   31.25    6.25
  -2 -10 -32   32.83    6.65
   2 -10 -34   85.25    9.65
  -2 -10 -34   89.41   10.44
   2  10 -34   90.64    9.45
  -2 -10 -36   64.39    7.64
   2  10 -36   67.13    6.86
  -2 -10 -36   69.22    6.72
   2 -10 -36   72.41    7.68
   2 -10 -36   70.19    7.47
  -2 -10 -38   17.46    3.07
   2 -10 -38   15.45    3.76
   2 -10 -38   17.46    3.51
   2  10 -38   18.29    3.38
   2  12   0   53.83    4.70
   2  12   0   61.06    4.43
   2 -12   0   58.46    3.60
  -2 -12   0   53.45    4.18
   2 -12   2    3.57    4.38
   2  12   2    0.22    3.04
   2  12   2    1.17    4.45
   2  12  -2    5.03    4.46
  -2 -12  -2    4.67    4.06
  -2  12   2    3.60    3.84
  -2 -12   2    0.95    3.65
   2  12  -2    6.69    5.10
   2 -12  -2    1.33    3.22
  -2  12  -2    0.03    4.04
  -2  12   4  162.31   12.49
  -2  12  -4  158.83   12.36
   2  12   4  207.76   11.42
   2 -12   4  156.13   10.89
  -2 -12   4  213.49   10.99
   2  12  -4  233.41   12.19
   2 -12  -4  170.21   10.52
  -2 -12  -4  252.09   12.30
   2  12  -4  205.64   11.79
  -2  12  -4  149.43    7.51
  -2  12   6  207.30   14.79
  -2  12  -6  197.43   14.17
   2  12  -6  213.62   14.07
   2  12   6  197.20   14.18
   2 -12   6  178.02   12.76
  -2 -12   6  200.69   13.00
  -2 -12  -6  211.94   14.10
  -2  12  -6  173.76    9.48
   2 -12  -6  206.18   12.30
   2 -12  -8  741.04   28.96
  -2  12  -8  718.91   35.36
   2 -12   8  654.52   32.15
  -2  12  -8  637.36   26.55
   2  12  -8  714.77   34.73
  -2 -12  -8  737.06   32.70
   2  12   8  676.13   35.42
  -2 -12   8  669.94   31.03
  -2  12   8  782.66   35.32
  -2 -12 -10  235.06   17.10
  -2 -12  10  245.75   18.03
   2  12  10  227.60   20.97
  -2  12 -10  211.91   15.99
  -2  12  10  243.69   19.59
  -2  12 -10  205.05   19.63
   2  12 -10  233.33   19.65
   2 -12  10  225.51   18.53
   2 -12 -10  232.06   15.34
  -2  12  12    2.82    4.16
  -2  12 -12    1.94    6.90
  -2 -12  12    3.44    3.92
   2  12  12    2.20    6.63
   2 -12  12    1.92    5.93
   2 -12 -12    2.40    2.93
   2  12 -12    2.91    4.57
  -2  12 -12    1.96    4.90
  -2 -12 -12    2.06    4.81
  -2  12 -14   47.76   11.60
   2  12  14   45.58   12.25
   2  12 -14   41.70   11.05
   2 -12  14   54.69   11.32
  -2  12  14   39.36   10.14
  -2 -12  14   54.45   10.26
  -2  12 -14   32.49    8.79
   2 -12  16    2.42    5.78
   2  12  16   10.22    8.47
  -2  12  16    7.20    7.07
  -2 -12  16    7.66    6.53
  -2  12 -16    4.74    6.88
  -2  12 -16   10.14    7.88
   2  12 -16    8.87    8.17
  -2  12 -18  112.79   10.95
   2  12  18  102.19   12.05
  -2  12 -18  135.18   13.36
   2 -12  18  122.11   11.82
   2  12 -18  144.50   14.03
   2  12  20  260.14   24.73
   2 -12 -20  219.51   13.66
  -2  12 -20  222.96   20.54
   2 -12 -20  190.53   23.75
   2  12 -20  249.47   23.11
   2 -12 -20  224.82   14.14
   2  12 -20  230.33   13.57
  -2 -12 -20  216.85   14.56
  -2  12 -20  224.58   21.61
  -2 -12 -20  195.26   13.28
   2 -12 -22   99.24   11.40
   2  12 -22  104.99   11.11
  -2 -12 -22  110.24   11.80
  -2  12 -22   80.61    9.65
   2 -12 -22  109.75   18.89
   2 -12 -22  107.14   11.47
   2  12 -22  113.63   19.15
   2  12  22  130.31   21.33
  -2  12 -22   84.98   16.40
  -2 -12 -22  100.78   12.15
   2  12 -24   10.09    4.20
  -2  12 -24   13.64    4.19
   2 -12 -24    8.42    3.91
  -2 -12 -24    9.11    4.49
   2  12 -24    4.41    4.23
   2  12  24   10.87    6.44
  -2 -12 -24   11.57    4.54
   2 -12 -24   10.86    4.15
  -2  12 -24    5.67    4.15
  -2  12 -26    0.25    4.21
   2 -12 -26    3.13    2.97
   2 -12 -26    7.64    3.72
  -2 -12 -26    9.73    4.14
  -2 -12 -26   13.23    4.70
   2  12 -26    5.88    4.89
  -2  12 -26    6.00    3.54
   2  12 -26   14.51    5.01
  -2 -12 -28    0.73    3.46
   2 -12 -28    1.02    3.80
   2  12 -28    0.02    2.70
   2 -12 -28    1.02    2.83
  -2  12 -28    0.21    2.07
   2  12 -30    1.18    3.39
   2 -12 -30    4.49    3.43
   2 -12 -30    9.89    3.45
  -2 -12 -30    7.33    3.38
   2  12 -32    6.20    3.80
   2 -12 -32    7.15    4.26
  -2 -12 -32    4.88    4.29
   2 -12 -34   47.56    6.86
  -2 -12 -34   42.37    6.74
   2  12 -34   44.92    6.03
  -2 -12 -36   56.16    6.58
  -2 -12 -36   43.97    5.11
   2  12 -36   43.80    4.75
   2 -12 -36   58.42    6.25
   2 -12 -36   56.57    5.98
   2 -12 -38   20.07    3.37
  -2 -12 -38   18.89    2.83
   2 -12 -38   22.40    3.67
   2  12 -38   17.02    2.70
   2  14   0    0.05    6.67
   2  14   0    0.75    6.14
   2 -14   0    1.53    5.68
  -2 -14   0    0.50    6.07
   2  14  -2  556.10   27.12
   2  14  -2  663.65   28.56
   2  14   2  593.74   25.51
  -2 -14  -2  573.54   25.54
   2 -14   2  536.54   23.09
  -2 -14   2  605.43   25.39
  -2  14  -2  597.05   26.75
  -2  14   2  606.31   29.20
   2  14   2  554.99   27.04
   2 -14  -2  609.95   23.84
   2  14   4    1.14    9.34
  -2  14  -4    1.37    8.87
   2 -14   4    2.28    7.80
  -2 -14   4    1.27    8.55
   2  14   4    1.35    8.75
   2  14  -4    1.42    8.17
   2 -14  -4    1.83    7.80
  -2 -14  -4    1.55    9.47
  -2  14  -4    3.19    4.35
  -2  14   4    1.22    9.48
  -2  14  -6  124.80    8.29
   2 -14   6  158.50   13.76
  -2 -14   6  171.36   13.93
   2  14   6  152.88   14.59
  -2  14  -6  156.18   15.58
   2  14  -6  173.32   15.06
  -2  14   6  160.87   15.20
   2 -14  -6  153.09   12.71
  -2 -14  -6  165.19   13.96
  -2  14   8  187.34   17.32
  -2 -14  -8  187.67   15.16
   2 -14   8  169.26   15.19
  -2  14  -8  132.09    9.87
  -2 -14   8  172.11   14.45
   2 -14  -8  173.70   13.63
  -2  14  -8  166.97   16.47
   2  14   8  163.85   16.51
   2  14  -8  166.81   15.58
   2 -14  10    5.63    5.27
   2 -14 -10   10.07    4.54
  -2  14 -10    6.59    4.33
  -2 -14 -10   10.40    4.63
   2  14 -10    8.85    5.82
   2  14  10   16.20    6.59
  -2  14 -10    6.53    5.35
  -2  14  10    4.59    4.73
  -2 -14  10   14.57    5.98
  -2 -14  12    7.76    3.39
  -2 -14 -12   19.51    4.96
  -2  14 -12   19.01    5.78
   2 -14  12   19.25    5.56
  -2  14 -12   20.77    4.88
   2  14  12   16.97    6.79
   2  14 -12   12.36    5.74
  -2  14  12    9.26    4.65
  -2 -14  14  174.21   14.36
  -2  14 -14  152.16   15.83
   2  14  14  178.99   18.08
   2  14 -14  154.15   15.40
   2 -14  14  161.28   15.01
  -2  14  14  179.88   16.44
   2  14 -16   46.49    9.08
  -2  14  16   44.03    8.78
   2  14  16   46.62    9.61
  -2  14 -16   35.92    7.30
   2 -14  16   47.41    8.31
  -2 -14  16   44.71    7.40
   2 -14 -18    5.22    2.28
   2  14  18    9.30    5.58
   2 -14  18    2.60    3.82
  -2  14 -18    9.33    5.24
   2  14 -18   14.48    5.24
   2 -14 -18    5.04    1.98
  -2 -14 -20  135.31   12.10
  -2  14 -20  131.71   18.54
   2  14 -20  125.62   11.12
   2 -14 -20  133.71   11.75
  -2 -14 -20  119.38   12.24
   2  14 -20  141.90   19.57
   2 -14 -20  131.60   11.98
   2  14  20  145.71   21.35
  -2 -14 -22   19.48    4.88
   2 -14 -22   23.35    4.77
   2  14 -22   26.00    7.59
   2 -14 -22   19.00    4.10
  -2 -14 -22   20.65    4.87
   2  14 -22   19.56    4.28
  -2  14 -22   25.23    6.45
  -2  14 -22   17.53    3.75
   2  14  22   10.63    7.37
   2 -14 -24   22.73    5.26
  -2  14 -24   20.54    4.42
  -2  14 -24   14.34    7.01
   2  14 -24   24.88    5.47
   2  14 -24   30.83   10.38
   2 -14 -24   25.34    5.48
  -2 -14 -24   22.04    5.76
  -2 -14 -24   18.49    4.89
  -2  14 -26   13.38    3.71
   2 -14 -26   13.68    4.40
  -2 -14 -26   18.18    4.94
   2  14 -26   16.95    4.40
  -2 -14 -26   21.67    6.06
   2 -14 -26   11.51    4.49
   2 -14 -28   10.36    4.07
   2  14 -28    9.74    4.59
   2 -14 -28   12.87    5.08
  -2 -14 -28    8.97    4.50
   2  14 -30   32.47    5.86
   2 -14 -30   31.16    6.03
  -2 -14 -30   42.09    6.90
   2 -14 -30   31.24    5.68
   2 -14 -32    5.99    3.24
   2  14 -32    9.85    3.51
  -2 -14 -32   10.24    3.82
   2 -14 -34    3.68    3.10
   2  14 -34    4.21    2.46
  -2 -14 -34    0.10    3.35
  -2 -14 -36   19.50    3.45
   2 -14 -36   32.43    4.67
  -2 -14 -36   31.59    5.03
   2  14 -36   24.64    3.65
   2 -14 -36   29.12    4.44
  -2  16   0 1324.23   45.33
  -2 -16   0 1238.10   41.66
   2 -16   0 1215.97   39.12
   2  16   0 1179.53   44.14
   2  16   0 1338.68   44.73
  -2  16  -2  151.16   15.06
  -2 -16   2  157.83   13.31
  -2  16   2  182.71   17.33
   2 -16  -2  159.35   13.25
   2  16   2  158.60   14.19
   2  16  -2  179.17   15.20
   2  16  -2  173.10   16.19
   2 -16   2  132.14   12.61
   2  16   2  136.88   14.51
  -2 -16  -2  147.24   13.81
  -2  16  -4  566.98   32.82
   2  16  -4  555.67   31.06
   2 -16  -4  517.46   26.79
   2 -16   4  492.15   27.43
  -2  16   4  529.63   32.69
   2  16   4  534.20   31.49
  -2 -16  -4  549.73   29.81
   2  16   4  531.07   28.86
  -2 -16   4  526.63   27.93
   2  16   6   22.85    5.79
  -2  16  -6   27.25    8.29
   2 -16  -6   27.00    6.55
   2  16  -6   23.31    6.24
  -2 -16  -6   28.90    6.45
  -2 -16   6   28.86    7.19
  -2  16   6   25.25    6.66
   2 -16   6   28.82    7.50
   2  16  -8    0.32    4.84
   2 -16   8    0.05    3.66
  -2  16  -8    1.22    4.92
  -2 -16   8    0.39    3.08
   2 -16  -8    1.53    2.93
   2  16   8    0.86    4.38
  -2  16   8    1.29    5.27
  -2 -16  -8    1.86    4.36
  -2  16  10    4.95    5.75
   2 -16 -10    2.80    3.58
  -2 -16  10    4.96    5.35
   2  16  10    3.05    5.77
   2  16 -10    3.98    5.50
   2 -16  10    3.79    5.00
  -2  16 -10    4.62    5.43
  -2 -16 -10    1.65    4.16
   2 -16  12  218.72   20.40
   2  16 -12  223.77   21.07
  -2 -16  12  213.04   19.08
  -2  16 -12  199.35   21.62
  -2  16  12  234.96   22.39
  -2 -16 -12  204.85   17.39
   2  16  12  221.92   22.94
  -2  16 -14  286.28   22.81
  -2  16  14  372.74   26.61
  -2 -16  14  310.24   21.24
   2  16  14  320.97   25.62
   2  16 -14  309.00   23.13
   2 -16  14  316.86   22.44
  -2 -16  16  109.82   14.92
   2 -16  16   98.30   14.47
  -2  16  16  113.64   17.74
   2  16  16   87.50   15.55
  -2  16 -16   90.91   15.41
   2  16 -16  111.70   16.27
  -2 -16 -18    0.33    2.75
   2  16  18    0.33    7.88
   2  16 -18    0.28    2.93
   2 -16 -18    2.40    2.80
   2  16 -18    1.31    3.66
  -2  16 -18    0.53    7.36
   2 -16 -18    0.33    2.71
  -2 -16 -18    0.33    3.72
   2 -16  18    0.10    3.81
   2 -16 -20    3.32    2.66
   2 -16 -20    7.73    3.87
  -2 -16 -20    3.68    2.89
   2  16 -20    6.64    6.41
  -2  16 -20    0.57    2.11
  -2  16 -20    3.65    5.95
   2  16  20    7.44    5.37
   2  16 -20    4.95    3.21
  -2 -16 -20    2.26    3.06
  -2 -16 -22    3.51    2.61
  -2 -16 -22    6.13    4.47
   2 -16 -22    5.75    3.58
   2  16 -22    4.79    3.19
  -2  16 -22    2.09    2.79
   2  16 -22    2.39    4.02
   2  16  22    0.35    6.52
   2 -16 -22    4.98    3.48
  -2  16 -22    6.15    5.41
  -2 -16 -24   36.34    5.11
  -2  16 -24   34.09    4.15
   2  16 -24   34.69    4.74
  -2  16 -24   30.35    6.92
   2 -16 -24   42.50    5.66
  -2 -16 -24   34.64    5.23
   2 -16 -24   42.52    5.58
  -2 -16 -26   76.46    7.88
   2  16 -26   74.42    7.64
   2 -16 -26   70.37    7.83
   2 -16 -26   67.16    7.35
  -2 -16 -26   70.93    8.15
  -2 -16 -28  154.98   13.28
   2 -16 -28  153.81   13.54
   2 -16 -28  155.87   13.04
   2  16 -28  162.07   13.01
   2  16 -30   27.45    5.67
   2 -16 -30   32.66    6.42
   2 -16 -30   25.34    6.08
  -2 -16 -30   23.67    6.07
  -2 -16 -32   24.08    4.44
   2  16 -32   18.39    3.65
   2 -16 -32   19.96    3.89
  -2 -16 -34    8.11    3.39
   2 -16 -34   11.19    3.65
   2  16 -34    7.87    2.64
  -2 -16 -36    0.70    2.05
   2 -16 -36    1.03    1.93
   2 -16 -36    1.52    2.23
  -2 -16 -36    0.16    2.09
   2  16 -36    0.02    1.49
  -2 -18   0  893.18   30.40
   2 -18   0  819.85   28.20
   2  18   0  803.55   31.85
  -2  18   0  850.05   32.75
   2  18   0  872.06   31.60
   2  18   2  467.33   29.48
  -2 -18   2  454.05   27.91
  -2  18  -2  526.75   33.68
   2 -18   2  405.75   26.56
   2  18   2  395.26   29.25
   2 -18  -2  455.76   27.18
   2  18  -2  469.68   30.66
  -2 -18  -2  473.37   29.09
   2  18  -2  426.08   30.95
  -2  18   2  472.15   31.30
  -2 -18  -4  126.52   18.07
   2  18  -4  100.36   17.82
  -2 -18   4   96.66   15.51
  -2  18   4  103.53   18.87
   2  18   4   88.92   17.69
   2 -18  -4  100.17   15.98
   2  18   4  102.20   17.03
  -2  18  -4  100.67   19.38
   2 -18   4   92.21   16.03
   2  18   6   19.23    6.53
  -2  18  -6   25.21    8.69
   2 -18  -6   17.32    4.96
  -2  18   6   27.12    8.30
   2  18  -6   19.85    6.22
  -2 -18   6   25.39    7.16
   2 -18   6   24.12    7.26
  -2 -18  -6   21.12    6.48
   2  18   6   21.64    7.95
  -2 -18   8    0.16    3.92
  -2  18  -8    0.07    4.68
   2 -18   8    0.20    4.21
   2  18   8    0.21    4.35
  -2 -18  -8    0.05    3.52
   2  18   8    0.12    4.89
   2 -18  -8    4.05    3.70
   2  18  -8    0.47    3.95
  -2  18   8    1.20    4.29
  -2 -18  10    2.77    4.74
  -2 -18 -10    5.70    3.58
   2  18  10    8.94    4.91
  -2  18  10    7.62    5.17
   2  18 -10   11.32    5.13
   2 -18  10    2.30    3.45
  -2  18 -10   11.66    4.98
   2 -18 -10    5.62    4.03
  -2  18  12  343.41   25.29
  -2 -18 -12  321.24   19.83
   2 -18  12  334.68   22.81
   2  18  12  340.74   26.29
   2  18 -12  288.37   22.43
  -2  18 -12  324.05   25.21
  -2 -18  12  292.22   20.30
  -2 -18  14  236.24   21.00
   2 -18  14  236.59   21.96
   2 -18 -14  192.89   13.08
  -2  18 -14  229.13   23.26
   2  18 -14  209.74   12.90
   2  18 -14  243.37   23.65
  -2  18  14  271.48   26.07
   2  18  14  224.17   24.48
   2  18  14  224.15   16.14
   2  18 -16  115.68   10.45
   2  18  16  120.25   19.88
  -2 -18 -16   84.73   10.04
   2 -18 -16  122.65   11.50
   2 -18  16  114.62   16.98
  -2  18 -16  118.12   18.28
  -2 -18 -16   86.13    9.67
  -2 -18  16  116.48   16.26
   2  18 -16  120.61   18.53
   2  18 -18    0.44    2.51
   2 -18 -18    0.25    2.75
   2 -18  18    0.52    5.82
  -2  18 -18    0.06    2.13
   2  18 -18    0.44    5.23
  -2  18 -18    0.52    4.73
  -2 -18 -18    0.52    2.68
   2  18  18    0.52    7.41
  -2 -18 -18    0.16    2.77
   2 -18 -18    0.65    2.86
  -2  18 -20    8.82    3.21
  -2  18 -20   16.10    6.54
   2  18 -20   11.22    3.36
   2 -18 -20    3.22    2.68
  -2 -18 -20    2.55    3.03
  -2 -18 -20    5.05    2.94
   2  18  20    6.22    5.30
   2 -18 -20    9.58    4.00
   2  18 -20   18.33    6.45
  -2  18 -22    1.03    5.93
  -2 -18 -22    0.97    3.67
   2  18 -22    1.14    2.45
   2 -18 -22    1.12    3.09
  -2  18 -22    0.16    2.33
   2  18 -22    1.14    6.27
  -2 -18 -22    0.51    2.70
   2 -18 -22    1.12    2.70
   2 -18 -24   20.88    5.62
  -2 -18 -24   20.30    5.81
  -2 -18 -24   26.24    6.26
   2  18 -24   28.54    5.92
   2 -18 -24   22.72    5.44
   2 -18 -26  168.78   12.27
   2  18 -26  151.18   11.30
  -2 -18 -26  147.74   12.08
  -2 -18 -26  134.08   12.35
   2 -18 -26  166.45   12.76
   2 -18 -28  172.09   13.86
   2  18 -28  166.57   12.52
  -2 -18 -28  183.79   13.69
   2 -18 -28  189.77   13.61
  -2 -18 -30   56.72    7.57
   2  18 -30   64.32    7.65
   2 -18 -30   56.25    7.59
   2 -18 -30   52.30    7.70
   2  18 -32   11.31    3.07
   2 -18 -32   11.23    3.81
  -2 -18 -32   14.34    3.92
  -2 -18 -34    3.50    2.83
   2  18 -34    0.02    2.06
   2 -18 -34    0.02    2.13
   2  20   0  432.66   27.77
   2 -20   0  472.92   24.98
   2  20   0  472.45   27.56
  -2 -20   0  446.39   25.72
  -2  20   0  539.98   30.00
   2  20   2  279.00   26.70
  -2 -20   2  313.34   25.25
  -2  20   2  313.26   28.22
   2  20   2  313.90   25.94
   2 -20  -2  323.66   25.43
  -2 -20  -2  325.15   25.94
   2 -20   2  288.66   24.76
  -2  20  -2  340.39   29.54
   2  20  -2  322.51   27.58
   2  20  -4    0.13    5.66
  -2  20  -4    0.42    5.07
  -2  20   4    0.33    4.61
   2 -20  -4    0.33    5.53
  -2 -20   4    0.23    3.74
   2  20   4    9.30    8.09
   2 -20   4    0.42    6.03
  -2 -20  -4    1.34    4.47
   2  20   4    0.01    4.71
  -2 -20  -6    0.27    4.15
   2 -20   6    0.05    4.21
  -2 -20   6    3.27    4.44
   2  20  -6    2.91    5.62
   2  20   6    3.82    4.54
   2 -20  -6    0.15    4.51
  -2  20  -6    3.34    5.64
  -2  20   6    0.12    6.37
   2  20   6    0.80    3.87
   2  20   8   11.06    6.28
   2 -20  -8    6.80    3.36
  -2 -20   8    2.89    5.50
   2  20  -8   19.90    6.38
   2 -20   8   12.60    4.36
  -2 -20  -8   25.87    6.04
   2  20   8   12.21    4.10
  -2  20   8    9.04    5.34
  -2  20  -8   15.97    6.99
  -2  20 -10   23.07    8.83
   2  20  10   24.65    7.41
  -2 -20  10   22.80    7.12
   2  20 -10   22.04    8.15
   2 -20 -10   22.53    7.38
   2  20  10   27.41    5.87
   2  20  10   26.54    5.01
   2 -20  10   27.20    8.52
   2  20  10   33.13   10.78
  -2 -20 -10   31.74    8.00
  -2  20  10   32.48   10.09
   2  20  12  122.50   10.45
  -2  20  12  107.60    9.75
  -2  20  12   93.01   13.68
  -2 -20  12  100.54   12.44
   2 -20  12  113.29   13.63
   2  20  12  119.24   13.77
   2  20  12  101.81    8.44
   2  20 -12   80.42   11.83
  -2  20 -12  127.57   15.20
   2 -20 -12   85.60    7.24
   2  20  12  120.67   15.88
   2  20 -12   97.89    7.60
   2  20 -12   95.00    8.56
  -2 -20  14   47.84   11.11
   2 -20  14   48.89   13.39
   2  20 -14   53.81   12.93
   2  20  14   46.40   13.58
   2  20  14   36.99    7.17
   2  20  14   48.87    8.88
  -2  20 -14   53.57   13.62
   2  20 -14   49.87    7.43
   2 -20 -14   48.74    7.77
  -2 -20 -14   30.65    6.37
  -2  20  14   48.38   12.67
  -2  20 -14   32.65    6.25
  -2 -20 -14   33.11    6.25
  -2  20  14   59.09    9.80
  -2  20 -16   83.05   14.21
   2  20 -16  114.06    9.89
   2  20  16  113.83   18.56
  -2  20 -16   79.25    8.13
  -2 -20  16  111.92   15.44
  -2 -20 -16   93.29    8.96
   2 -20 -16  111.77   10.12
   2 -20  16  108.94   15.78
   2  20 -16  117.36   17.35
  -2 -20 -16   87.01    9.10
   2  20  16  101.69   10.30
  -2  20 -18    0.59    6.25
   2  20  18    0.24    7.39
   2 -20  18    1.05    4.92
  -2 -20 -18    0.70    3.41
   2  20 -18    0.90    2.85
  -2 -20 -18    0.47    2.34
  -2  20 -18    0.59    2.48
   2 -20 -18    1.06    2.90
   2 -20 -18    2.21    2.66
   2  20 -18    0.90    4.51
   2  20 -20    6.18    6.21
   2 -20 -20    3.47    2.98
   2  20  20    0.09    7.04
  -2  20 -20    0.03    5.68
   2 -20 -20    0.95    2.92
  -2  20 -20    5.92    2.97
  -2 -20 -20    3.21    3.14
  -2 -20 -20    2.64    2.35
   2  20 -20    5.33    3.46
  -2 -20 -22   20.43    4.96
   2 -20 -22   12.33    4.26
  -2 -20 -22   18.60    5.22
   2  20 -22   16.85    4.22
   2 -20 -22   11.29    3.77
   2 -20 -24   14.09    4.17
   2  20 -24   16.25    4.12
  -2 -20 -24   10.69    3.51
   2 -20 -24   21.63    3.80
  -2 -20 -24   15.07    3.92
   2  20 -26  104.14    9.27
  -2 -20 -26  100.96    9.58
   2 -20 -26   96.60    9.14
   2 -20 -26  102.37   10.01
   2 -20 -28   88.90    9.59
   2 -20 -28   98.63    9.70
   2  20 -28   79.33    8.40
   2  20 -28   92.04    9.27
  -2 -20 -28   91.41    9.72
   2  20 -30   58.03    6.93
  -2 -20 -30   56.39    7.05
   2 -20 -30   68.70    7.67
   2  20 -32    0.21    1.80
   2 -20 -32    1.58    2.40
  -2 -20 -32    0.26    2.25
   2  20 -34    2.49    1.68
   2 -20 -34    1.91    2.23
  -2 -20 -34    3.30    2.50
  -2  20 -34    1.84    2.11
   2  22   0  209.11   20.50
   2 -22   0  206.15   19.52
  -2  22   0  223.70   22.82
  -2 -22   0  198.11   19.36
  -2 -22   2  171.31   20.15
   2 -22  -2  160.26   20.15
   2  22   2  167.64   21.31
  -2  22   2  200.94   24.95
  -2 -22  -2  163.14   20.23
   2 -22   2  166.44   20.26
   2  22   2  173.19   23.38
   2  22   2  162.00   13.32
   2  22  -2  183.30   22.03
  -2  22  -2  183.55   23.36
  -2 -22  -4    5.32    4.40
   2  22   4    1.92    5.11
   2  22   4    1.92    3.07
   2  22  -4    7.38    5.26
  -2  22  -4    7.17    6.31
   2  22   4    1.92    5.31
   2  22  -4    8.21    2.83
  -2  22  -4    9.24    3.08
   2 -22  -4    2.55    3.74
   2 -22   4    3.28    5.04
   2  22  -4    6.45    2.46
   2  22   4   13.53    3.88
  -2  22   4   17.79    6.15
  -2 -22   4    3.14    4.39
   2 -22  -6  127.38   14.13
   2  22   6  110.40    9.64
  -2  22  -6  101.10    9.21
  -2  22   6  104.18    8.88
   2  22  -6  105.93    9.54
  -2 -22  -6  112.32   14.11
   2  22   6  121.56   16.70
  -2  22   6  132.18   16.52
   2  22   6  115.21   14.79
   2  22  -6  109.31    9.03
   2 -22   6  116.12   14.45
  -2 -22   6  105.62   13.08
   2  22   6  120.25   10.30
  -2  22   6  114.56    9.99
  -2  22  -6  126.90   16.89
   2  22  -6  116.73   15.38
   2 -22  -8   27.01   10.15
   2  22  -8   26.83    7.61
   2 -22   8   28.47   11.19
  -2  22   8   29.56    8.26
   2  22   8   30.32   11.30
  -2 -22  -8   31.07   11.05
   2  22   8   21.55   11.76
  -2  22  -8   50.76   15.85
   2  22  -8   25.99   11.22
  -2  22  -8   18.87    6.09
   2  22   8   25.80    7.52
   2 -22  -8   15.35    5.49
   2  22   8   33.60    8.10
  -2 -22   8   21.17    9.22
   2  22  -8   30.04    7.21
  -2  22  -8   24.54    7.43
  -2  22 -10   29.72    6.13
  -2  22  10   37.62    7.09
   2  22  10   37.84    6.99
   2  22  10   30.85    9.41
   2  22 -10   41.40   11.01
   2  22  10   20.57    7.35
   2 -22  10   27.28    8.74
  -2  22 -10   28.98    5.25
   2  22 -10   40.23    7.05
  -2 -22  10   28.96    8.25
   2  22 -10   34.85    5.69
   2 -22 -10   32.19    5.40
  -2 -22 -10   31.17    8.65
  -2  22  10   32.06   10.06
  -2  22 -10   40.20   10.96
   2  22  12   11.18    5.91
  -2  22  12    1.17    3.18
  -2  22  12    2.79    6.90
   2  22  12   13.30    8.83
  -2 -22  12    1.96    3.93
   2  22  12   13.21    7.35
   2  22 -12    2.20    5.40
  -2  22 -12   12.80    4.84
   2  22 -12    1.71    3.31
   2 -22  12    9.86    8.29
   2 -22 -12    3.85    3.91
   2  22 -12    3.16    3.22
  -2  22 -12   21.47   10.32
   2  22  12   18.72    5.84
   2  22  14  177.39   23.06
   2  22 -14  177.57   20.76
  -2 -22  14  166.54   17.96
   2 -22  14  180.70   19.75
   2 -22 -14  188.90   12.87
  -2 -22 -14  133.56   10.06
   2  22 -14  185.64   12.07
  -2  22 -14  145.44   10.72
   2  22 -14  191.29   13.57
  -2  22  14  240.00   16.95
  -2  22 -14  175.63   21.01
   2  22  14  187.46   13.66
   2 -22  16   19.61    5.43
   2  22  16   28.18    5.16
   2  22  16   30.51    9.61
   2  22 -16   26.85    4.05
  -2 -22  16   10.82    5.42
   2  22 -16   16.06    5.56
  -2 -22 -16   14.14    3.15
  -2 -22 -16   27.00    3.83
   2 -22 -16   14.39    3.43
  -2  22 -16   20.01    2.99
   2  22 -16   18.64    2.84
  -2  22 -16   33.35    6.99
   2  22 -18   79.61   15.04
   2 -22 -18   83.91    9.76
   2 -22 -18   77.97    8.66
   2  22 -18   86.41    9.58
  -2  22 -18   59.58   12.53
  -2 -22 -18   77.25    9.02
   2  22  18  105.47   19.08
  -2 -22 -18   79.78    8.56
   2  22 -18   89.08    9.23
  -2  22 -18   69.29    7.74
   2  22 -20  164.64   13.57
  -2 -22 -20  172.30   14.01
   2 -22 -20  196.92   14.69
  -2 -22 -20  160.09   13.09
   2  22 -20  173.72   13.15
   2 -22 -20  173.98   13.41
  -2 -22 -22   13.51    4.37
  -2 -22 -22   13.98    3.95
   2  22 -22    4.87    3.28
   2 -22 -22    9.15    3.89
   2  22 -22    3.19    2.74
   2 -22 -22    8.88    3.23
   2 -22 -24    1.58    3.09
   2  22 -24    0.09    3.38
  -2 -22 -24    0.04    3.64
   2  22 -24    0.43    2.97
  -2 -22 -24    0.04    3.39
   2 -22 -24    3.95    2.68
  -2 -22 -26   31.93    5.45
   2  22 -26   34.41    5.03
   2 -22 -26   34.71    5.51
   2  22 -26   31.64    5.17
   2 -22 -26   32.11    4.99
  -2 -22 -28   43.45    6.96
   2  22 -28   39.97    6.14
   2 -22 -28   45.21    6.79
   2 -22 -28   49.52    7.57
   2  22 -28   34.93    6.15
  -2 -22 -30   30.87    4.98
   2  22 -30   32.02    4.79
   2 -22 -30   36.03    5.42
  -2  22 -30   36.45    5.50
  -2  22 -32    6.27    2.72
   2  22 -32    5.10    2.13
  -2 -22 -32    3.90    2.38
   2 -22 -32    7.51    2.82
  -2  24   0  181.41   12.78
  -2 -24   0  168.14   18.52
   2  24   0  145.54   17.53
   2 -24   0  175.95   19.15
   2  24   0  175.61   12.80
  -2  24   0  168.90   12.25
  -2  24   0  183.38   21.06
   2  24   0  165.23   11.88
  -2  24   2   42.91    8.28
  -2 -24  -2   16.83   10.62
  -2  24   2   29.26    6.80
   2  24  -2   28.98    6.66
   2 -24   2   22.83   10.19
   2  24  -2   27.29    9.55
   2  24  -2   28.99    6.47
  -2  24  -2   27.16    6.72
   2 -24  -2   16.29    8.85
   2  24   2   31.62    7.16
  -2  24  -2   27.43    7.04
  -2 -24   2   24.72   10.32
   2  24   2   23.55    6.43
  -2  24  -2   25.17   11.22
   2  24   2   33.91   11.37
  -2  24   2   30.37   12.10
   2  24  -4   58.55    8.09
  -2 -24   4   61.14   12.50
  -2  24   4   71.04   15.07
   2  24  -4   63.03   14.25
   2 -24   4   65.78   13.55
   2 -24  -4   68.39   13.33
  -2  24  -4   60.29    8.52
   2  24   4   67.95    9.24
  -2  24   4   75.94   10.15
  -2  24  -4   65.96   15.65
   2  24   4   84.25   16.95
   2  24  -4   69.05    8.84
  -2  24  -4   70.82    9.06
  -2  24   4   70.46    8.96
   2  24   4   73.74   13.87
  -2 -24  -4   53.13   12.66
   2  24   4   60.11    8.08
   2  24   6   95.62   16.20
  -2  24   6  107.51   11.31
  -2  24  -6   80.13    9.89
   2 -24   6   93.92   16.44
  -2  24  -6   97.17   18.86
  -2 -24   6   92.47   15.27
   2  24  -6  111.78   18.74
  -2  24  -6   98.91   11.34
  -2  24   6  110.40   18.32
   2  24   6   99.10   11.23
   2  24   6  110.92   11.85
   2 -24  -6  116.41   16.91
   2  24   6   93.10   18.72
  -2 -24  -6   96.71   15.52
   2  24  -6  113.92   12.05
   2 -24  -6   85.63    9.80
  -2  24   6  124.73   12.66
   2  24  -6  110.91   11.40
   2  24  -8   98.27   11.33
  -2  24   8  118.01   14.07
  -2  24  -8   92.94   11.51
   2 -24  -8  105.23   17.31
  -2 -24  -8   79.95   15.28
  -2 -24   8   74.41   15.04
   2  24   8   89.24   12.08
   2 -24   8   90.43   17.39
   2  24   8  112.09   21.97
  -2  24  -8   84.28   10.83
  -2  24   8  102.56   19.06
   2  24   8   93.85   17.84
   2 -24  -8   74.03    9.86
  -2  24  -8  103.12   20.21
   2  24  -8  108.91   12.19
   2  24  -8   90.20   18.45
   2  24   8  101.94   12.57
   2  24  10   10.90    7.33
  -2  24  10    0.72    7.34
   2  24 -10   18.67    5.09
  -2 -24  10   15.56    6.74
   2 -24  10   13.89    6.66
   2  24  10    4.50    4.22
   2  24  10   14.27    4.88
   2  24 -10   19.22    4.74
   2  24  10   19.78    5.19
  -2  24 -10   16.15    5.08
   2 -24 -10   14.36    4.62
   2  24 -10   21.83    9.88
  -2  24  10   20.10    5.90
  -2  24 -10   31.58   11.27
  -2  24 -10   17.13    4.77
   2  24 -12   52.76    8.11
   2  24  12   42.52    7.68
   2  24 -12   45.42    6.89
   2  24  12   41.69   12.45
   2  24  12   54.42    7.77
  -2 -24  12   44.22   10.45
   2  24 -12   37.81   10.60
   2 -24 -12   47.64    7.17
  -2  24 -12   43.00    7.08
  -2  24 -12   38.49    6.61
   2 -24  12   42.28   11.30
  -2  24  12   45.25   11.12
  -2  24 -12   46.34   12.73
  -2  24  12   52.37    8.34
   2  24  14    1.83    3.81
   2  24 -14    9.49    3.89
  -2  24 -14    1.95    2.87
   2  24 -14    7.82    2.81
   2  24 -14    1.62    6.10
  -2  24 -14    9.58    5.19
   2  24  14    1.83    7.15
   2 -24  14    9.47    4.71
  -2 -24  14    1.62    4.72
   2 -24 -14    9.96    2.95
  -2  24 -14    1.95    4.27
  -2  24  14    5.93    4.28
   2  24 -16   48.74    6.64
   2  24  16   52.92    7.59
  -2 -24 -16   49.49    6.26
   2 -24 -16   57.92    7.24
   2  24 -16   56.30    7.69
  -2  24 -16   52.74    6.51
  -2  24 -16   51.36    7.25
  -2  24 -18   93.77    9.92
   2  24 -18  101.94   11.60
   2 -24 -18   96.40   10.32
  -2 -24 -18   91.30   10.49
   2  24 -18   93.00   10.15
  -2 -24 -18   88.29    9.99
   2 -24 -18   96.37   10.77
   2  24 -20    2.81    3.09
  -2 -24 -20    6.37    3.62
   2  24 -20    8.12    3.98
  -2 -24 -20    0.26    3.26
   2 -24 -20    0.09    3.50
   2 -24 -20    4.56    3.05
   2 -24 -22  124.90    9.85
   2 -24 -22  127.74   10.70
  -2 -24 -22  110.69    9.10
   2  24 -22  121.31    9.86
   2  24 -22  121.06    9.42
  -2 -24 -22  101.28    9.11
  -2  24 -24   12.91    3.24
   2 -24 -24   14.76    3.43
   2  24 -24   14.18    3.09
  -2 -24 -24    3.75    2.78
   2  24 -24   10.29    2.61
   2 -24 -24   16.07    3.56
  -2 -24 -24   18.83    3.21
   2  24 -26    1.94    2.28
   2  24 -26    2.84    2.77
   2 -24 -26    6.38    2.75
  -2  24 -26    0.76    3.51
  -2 -24 -26   10.67    2.68
   2 -24 -26    4.74    2.83
   2 -24 -28   27.86    4.89
   2  24 -28   24.58    3.82
  -2  24 -28   25.56    4.57
   2 -24 -28   28.57    4.63
  -2 -24 -28   33.42    4.67
   2  24 -28   25.51    3.95
  -2 -24 -30    0.90    2.02
  -2  24 -30    0.24    2.31
   2 -24 -30    4.28    2.29
   2  24 -30    0.18    1.77
  -2  26   0   65.21   13.51
  -2 -26   0   38.34    8.68
   2  26   0   56.17    6.73
   2 -26   0   48.41   10.51
  -2  26   0   51.36    7.22
  -2  26   0   44.32    6.46
   2  26   0   66.67    7.47
   2  26   0   36.46    7.47
  -2 -26  -2    1.35    6.91
  -2  26   2    1.85    3.12
  -2  26   2    1.32    3.18
   2  26  -2    3.90    6.76
   2  26  -2    0.97    3.09
   2  26   2    8.41    7.91
   2  26   2    1.32    3.66
   2 -26   2    4.35    6.34
  -2  26  -2    1.32    4.07
  -2  26  -2    2.86    4.88
   2  26  -2    1.51    3.72
   2 -26  -2    2.60    5.32
  -2  26  -2    3.76    9.62
   2  26   2    2.82    5.20
  -2 -26   2    1.51    4.67
  -2  26   2    2.60    9.81
   2  26   4   81.77   10.11
   2  26   4   72.32   15.04
   2  26  -4   75.04   15.89
  -2  26  -4   76.94   16.79
  -2 -26   4   89.16   15.80
  -2  26   4   79.74   10.03
  -2  26   4   78.00   16.24
  -2  26  -4   70.60    9.79
   2  26  -4   83.43   10.13
   2 -26   4   84.73   16.42
   2 -26  -4   75.85   15.40
  -2  26   4   91.41   11.24
  -2  26  -4   92.96   10.97
   2  26  -4   86.95   10.12
   2  26   4   95.12   11.05
  -2 -26  -4   80.81   15.34
   2  26   6  296.96   18.87
  -2  26  -6  294.84   18.54
   2  26  -6  305.53   18.59
  -2 -26   6  267.05   25.83
   2  26   6  318.13   19.30
  -2  26  -6  292.83   31.98
   2  26  -6  280.97   28.93
  -2  26  -6  289.62   17.81
   2 -26  -6  246.82   25.27
  -2  26   6  299.20   31.03
   2 -26   6  270.29   27.32
  -2  26   6  311.51   19.96
   2  26   6  249.61   26.42
  -2 -26  -6  257.15   26.70
   2  26  -6  315.42   18.41
   2  26  -8  155.10   12.70
   2  26   8  113.73   17.02
  -2 -26   8  137.53   17.63
   2  26  -8  115.87   17.66
  -2  26  -8  131.21   11.97
  -2  26  -8  161.08   22.67
   2  26  -8  152.94   12.43
   2 -26  -8  129.04   11.22
  -2  26   8  160.95   14.17
   2  26   8  126.00   21.29
   2  26   8  164.93   14.20
   2  26   8  159.28   13.48
  -2  26  -8  119.85   11.17
  -2 -26  -8  103.45   16.00
   2 -26   8  136.57   19.14
  -2  26   8  123.76   18.57
   2  26  10   35.47    5.72
  -2  26  10   38.28    8.85
   2  26  10   56.55    7.43
   2 -26 -10   51.04    6.87
  -2  26 -10   42.43    6.28
  -2 -26  10   37.40    7.49
  -2  26 -10   55.80   12.53
   2  26  10   38.04    9.63
   2  26 -10   56.37    7.73
   2  26 -10   39.95    9.32
   2  26 -10   52.74    6.78
  -2  26 -10   56.29    7.15
  -2  26  10   60.54    8.32
   2 -26  10   41.11    9.93
  -2  26 -12    1.29    3.42
   2  26  12    1.35    2.91
   2 -26 -12    0.05    3.16
  -2  26  12    0.05    4.30
   2  26 -12    2.91    3.26
   2  26  12    0.69    4.47
   2  26 -12    0.08    2.85
  -2  26 -12    0.09    4.10
   2  26 -14    1.14    3.50
   2  26  14    0.52    3.13
  -2  26 -14    1.68    3.67
  -2  26 -14    1.68    4.29
   2  26 -14    1.68    3.04
   2 -26 -14    0.16    3.04
   2  26  16   19.04    5.68
  -2  26 -16    8.70    3.76
   2 -26 -16   10.29    3.78
   2 -26 -16    8.43    3.33
   2  26 -16   16.12    4.49
   2  26 -16   25.17    4.92
  -2  26 -16   10.88    3.94
   2  26 -18   41.10    7.34
   2  26 -18   44.29    7.22
  -2  26 -18   36.25    7.40
   2 -26 -18   42.47    7.36
   2 -26 -18   44.52    7.23
   2  26 -20   78.72    8.87
   2  26 -20   80.92    8.77
   2 -26 -20   78.21    9.11
  -2 -26 -20   71.74    8.61
  -2  26 -20   72.79    8.91
   2 -26 -20   87.74    9.20
  -2 -26 -22   79.24    8.17
   2  26 -22   87.81    8.76
   2 -26 -22   92.57    9.50
   2  26 -22   77.41    8.36
   2 -26 -22   87.97    8.73
  -2 -26 -22   71.64    8.32
  -2  26 -22   83.28    9.00
   2  26 -24   51.34    6.56
   2  26 -24   49.80    6.57
  -2  26 -24   52.45    7.43
  -2 -26 -24   49.73    6.61
   2 -26 -24   60.38    7.85
   2 -26 -24   55.91    7.14
   2  26 -26    1.00    1.80
  -2  26 -26    0.38    2.49
   2 -26 -26    0.64    2.72
   2 -26 -26    2.52    2.42
   2  26 -26    0.05    3.23
  -2 -26 -26    0.31    2.22
   2 -26 -28   12.87    3.68
  -2  26 -28   15.18    4.00
   2  26 -28   13.64    3.44
  -2  28   0    9.95    3.60
  -2  28   0   13.12    4.35
   2  28   0   15.20    4.09
   2 -28   0   16.85    6.24
  -2  28   0   28.10    6.85
   2  28   0    5.55    6.85
   2  28   0    9.32    3.33
  -2  28   2   15.63    6.71
  -2  28  -2   17.19    6.84
   2  28  -2    5.46    5.09
   2  28   2   27.00    7.51
   2  28  -2   16.61    5.95
   2  28   2    7.31    7.59
  -2  28   2   13.49    5.80
   2  28  -2   19.50    6.48
   2 -28  -2   10.96    9.55
  -2  28  -2   14.91    6.25
   2  28   2   22.25    6.85
  -2  28  -4   86.71    9.42
   2  28   4   73.00    8.39
   2  28  -4   83.55    8.48
   2  28  -4   88.95    8.96
   2  28   4   82.89    8.37
  -2  28  -4   71.65    8.04
  -2  28   4   77.33    8.68
   2  28   6  408.07   22.14
  -2  28   6  412.72   22.95
  -2  28  -6  399.25   21.10
   2  28  -6  388.41   20.53
  -2  28  -6  367.10   19.95
   2  28  -6  428.21   21.58
   2  28   6  437.19   22.02
   2  28   8  173.07   15.90
   2  28  -8  171.64   15.00
   2  28  -8  158.75   14.03
  -2  28   8  201.07   17.87
  -2  28  -8  160.00   14.69
  -2  28  -8  148.53   13.79
   2  28  10   31.47    8.04
   2  28 -10   35.21    8.45
  -2  28 -10   31.63    8.17
   2  28  10   38.38    9.39
   2 -28 -10   27.12    7.93
   2  28 -10   34.01    7.89
  -2  28  10   44.96   10.04
  -2  28 -10   24.42    6.89
  -2  28 -12   20.70    6.44
  -2  28  12   22.06    7.26
   2  28  12   18.56    7.29
   2  28 -12   16.19    6.09
  -2  28 -12   11.85    5.29
   2  28 -12   12.47    5.52
   2 -28 -12   20.20    6.37
   2  28  12   26.14    7.50
   2  28 -14    0.35    3.51
   2  28  14    1.91    3.17
  -2  28 -14    1.65    3.58
  -2  28 -14    1.65    3.60
   2  28 -14    1.67    3.44
   2 -28 -14    1.62    4.88
   2  28 -16   21.24    4.71
   2  28  16   18.35    4.84
  -2  28 -16   21.70    4.90
   2  28 -16   20.88    4.16
   2 -28 -16   21.70    4.82
   2 -28 -16   19.60    4.20
  -2  28 -18   45.14    7.08
   2 -28 -18   44.34    6.74
   2  28 -18   32.19    5.34
   2  28 -18   39.33    5.98
   2 -28 -18   36.90    5.92
   2  28 -20  144.11   11.58
  -2  28 -20  141.40   12.25
   2  28 -20  155.16   12.15
   2 -28 -20  147.72   12.45
   2 -28 -20  150.57   12.06
   2  28 -22   91.07    8.52
   2 -28 -22   98.08    9.35
  -2  28 -22  101.63    9.56
   2  28 -22   86.03    8.79
   2 -28 -22   97.16    9.76
   2  28 -24   25.59    4.62
   2  28 -24   26.65    4.78
   2 -28 -24   30.29    5.53
  -2  28 -24   30.17    5.38
   2 -28 -24   34.19    5.66
  -2  28 -26    1.29    2.12
   2  28 -26    2.92    2.95
   2  28 -26    0.45    1.87
   2 -28 -26    9.26    2.13
  -2  30   0    1.39    4.30
   2  30   0    0.02    3.96
   2  30   0    1.49    3.56
  -2  30   0    1.39    4.04
   2  30   2   25.06    7.83
  -2  30   2   22.59    7.36
   2  30  -2   23.54    7.48
  -2  30  -2   21.54    7.65
  -2  30  -2   17.88    6.52
   2  30  -2   22.83    7.15
   2  30   2   22.47    6.83
   2  30   4  114.95   12.88
  -2  30   4  109.49   12.72
  -2  30  -4   97.86   11.23
  -2  30  -4  101.11   11.83
   2  30  -4  107.61   12.06
   2  30   4  110.98   12.35
   2  30  -4  114.52   12.45
  -2  30   6  161.33   15.86
   2  30  -6  151.39   14.68
  -2  30  -6  123.36   13.91
  -2  30  -6  111.13   12.28
   2  30  -6  124.07   13.53
   2  30   6  149.00   15.35
  -2  30  -8  104.98   11.21
   2  30  -8  122.83   12.05
   2  30   8  125.90   12.43
   2  30   8  110.23   12.17
  -2  30  -8   82.90    9.69
  -2  30   8  133.39   13.62
   2  30  -8  117.38   11.43
   2  30  10   33.87    6.36
  -2  30  10   36.52    6.41
  -2  30  10   42.21    6.56
   2  30 -10   21.39    4.80
  -2  30 -10   27.39    5.49
   2  30  10   35.39    5.66
   2  30 -10   38.72    5.87
  -2  30 -10   19.16    3.96
   2  30 -12    0.77    3.38
   2  30  12    0.18    2.91
  -2  30 -12    0.49    3.93
   2  30 -12    3.25    4.50
  -2  30 -12    0.02    2.77
   2  30 -14    0.14    3.72
  -2  30 -14    0.36    3.30
   2 -30 -14    1.03    3.43
   2  30  14    1.20    2.99
  -2  30 -14    1.32    2.79
   2  30 -14    0.14    3.34
   2 -30 -14    0.33    4.34
   2  30 -16    0.96    3.34
   2 -30 -16    1.05    2.70
   2  30  16    1.95    3.18
  -2  30 -16    0.88    3.33
   2  30 -16    2.33    3.53
   2 -30 -16    0.14    2.81
   2  30 -18   27.21    5.57
   2 -30 -18   33.91    6.51
  -2  30 -18   36.27    6.74
   2  30 -18   32.56    6.21
   2 -30 -18   31.63    6.28
   2  30 -20   74.18    7.30
  -2  30 -20   69.86    7.76
   2  30 -20   68.16    7.41
   2 -30 -20   73.05    8.22
   2 -30 -20   74.97    7.84
   2  30 -22   61.51    5.80
   2 -30 -22   61.29    6.55
   2  30 -22   75.42    6.76
  -2  30 -22   73.06    6.96
   2 -30 -22   66.01    6.43
   2  30 -24    3.82    1.86
  -2  30 -24    4.42    1.95
   2  30 -24    1.65    1.55
   2 -30 -24    4.36    1.82
   2  32   0  137.61   12.91
  -2  32   0  143.18   13.36
   2  32   0  131.12   12.08
   2  32   2    5.28    4.19
   2  32  -2    7.22    4.13
  -2  32  -2    8.09    4.68
   2  32   2    4.23    3.27
   2  32  -2    3.56    3.42
  -2  32   2   10.48    5.11
  -2  32  -2    2.77    2.80
   2  32   4    0.02    3.55
  -2  32   4    3.72    4.89
   2  32  -4    0.32    4.06
   2  32  -4    0.81    3.69
  -2  32  -4    0.22    4.32
  -2  32  -4    3.83    4.28
   2  32  -6   10.30    4.57
  -2  32  -6    8.15    3.45
  -2  32  -6   14.77    5.32
   2  32   6    8.50    3.92
   2  32   6   16.74    5.42
  -2  32   6   13.09    4.66
   2  32  -6   11.58    4.16
  -2  32   8   74.88    9.09
   2  32   8   71.72    8.77
  -2  32  -8   62.62    7.77
   2  32   8   64.86    8.05
  -2  32  -8   37.96    5.30
   2  32  -8   54.37    6.96
   2  32  -8   54.03    7.02
  -2  32   8   60.90    7.87
  -2  32  10    5.66    4.73
  -2  32 -10    1.82    3.84
   2  32 -10    1.30    3.09
  -2  32  10    4.29    3.68
  -2  32 -10    1.26    2.82
   2  32  10    2.94    2.91
   2  32 -10    3.06    3.07
   2  32  12   28.47    5.64
  -2  32 -12   26.84    5.56
   2  32 -12   20.97    4.66
   2  32 -12   23.22    4.80
   2 -32 -12   19.99    3.68
   2  32 -14   44.50    5.98
   2  32 -14   41.37    5.93
  -2  32 -14   45.79    6.28
   2  32  14   53.92    6.64
   2 -32 -14   46.54    5.65
   2  32 -16    5.94    2.83
   2  32 -16    9.20    3.26
  -2  32 -16    9.27    3.18
   2 -32 -16    9.85    2.69
   2  32 -18    4.40    2.80
  -2  32 -18    5.99    3.03
   2  32 -18    3.41    2.11
   2 -32 -18    5.61    2.77
  -2  32 -20   23.96    4.11
   2  32 -20   17.03    3.42
   2  32 -20   14.47    2.96
   2 -32 -20   25.73    4.06
   2  32 -22    1.97    1.62
   2 -32 -22    7.54    1.97
   2  32 -22    5.20    2.03
  -2  32 -22    2.65    1.90
   2  34   0   68.07    7.21
  -2  34   0   64.79    7.13
   2  34   0   59.68    6.39
   2  34   2   81.99    9.41
   2  34  -2   69.91    8.11
   2  34   2   89.45    9.83
  -2  34   2   78.56    9.10
   2  34  -2   81.09    9.20
  -2  34  -2   75.88    9.10
   2  34   4   22.02    5.80
   2  34  -4   24.91    6.19
  -2  34  -4   26.10    5.78
  -2  34   4   22.85    5.84
   2  34  -4   20.61    5.03
   2  34   4   22.29    5.52
   2  34   6    0.51    4.05
  -2  34  -6    1.12    2.41
   2  34  -6    0.37    3.18
  -2  34   6    0.35    3.59
   2  34   6    1.10    3.59
  -2  34  -6    0.32    3.95
   2  34  -6    0.31    2.90
  -2  34   6    1.36    3.55
   2  34  -8   10.23    4.97
  -2  34   8   21.20    6.42
  -2  34   8   17.96    5.43
   2  34  -8   10.31    4.63
  -2  34  -8    7.16    3.74
   2  34   8   16.10    5.64
  -2  34  -8    7.82    4.51
   2  34   8    8.95    5.27
   2  34 -10    4.89    3.38
  -2  34 -10    1.63    3.07
   2  34  10    0.51    2.57
   2  34 -10    1.21    2.37
  -2  34  10    0.04    2.64
   2  34 -12   43.78    5.84
   2  34  12   57.92    6.97
   2  34 -12   59.26    6.49
  -2  34 -12   56.63    7.07
   2  34 -14  106.24    8.78
   2  34  14  102.97    8.82
  -2  34 -14  104.65    9.05
   2  34 -14   88.50    7.95
   2  34 -16   30.39    4.67
  -2  34 -16   33.87    5.20
   2  34 -16   30.15    4.67
   2  34 -18    0.08    1.99
   2  34 -18    2.17    1.86
  -2  34 -18    1.16    2.04
   2  34 -18    0.40    1.30
  -2  36   0   41.63    6.52
   2  36   0   43.44    6.52
   2  36   0   42.50    6.36
   2  36   2  106.46   10.17
  -2  36   2  102.06    9.96
   2  36  -2  107.52   10.20
  -2  36  -2  101.15    9.84
   2  36  -2  116.18   10.47
   2  36   2  117.77   10.56
   2  36   4   33.68    6.07
   2  36   4   30.78    6.05
  -2  36   4   26.93    5.54
   2  36  -4   31.83    5.71
   2  36  -4   26.37    4.98
  -2  36  -4   34.36    6.15
  -2  36   4   23.77    5.07
  -2  36   6    0.35    2.72
   2  36  -6    0.13    2.51
   2  36  -6    0.74    2.18
  -2  36   6    0.87    3.15
  -2  36  -6    0.50    2.74
   2  36   6    0.81    3.04
  -2  36  -8    2.28    2.75
   2  36  -8    4.27    2.61
   2  36   8    0.02    2.41
   2  36  -8    0.08    2.88
  -2  36   8    0.01    3.14
  -2  36 -10    1.47    2.46
   2  36  10    1.09    2.14
   2  36 -10    5.50    2.56
   2  36 -10    5.60    2.39
  -2  36 -12   41.23    5.45
   2  36 -12   31.87    4.49
   2  36 -12   27.08    3.88
   2  36  12   43.29    5.24
  -2  36 -14  121.91    7.97
   2  36 -14  108.96    7.07
   2  36 -14   98.51    6.23
   2  36 -14  111.72    6.94
   2  38   0  103.43    7.75
  -2  38   0   89.56    7.49
  -2  38   0   99.07    7.81
   2  38   0  101.05    7.69
   2  38  -2   41.27    5.62
  -2  38   2   43.82    5.69
  -2  38   2   42.88    5.54
   2  38   2   37.35    5.15
  -2  38  -2   31.03    4.90
   2  38   2   40.75    5.46
   2  38  -2   33.74    5.24
  -2  38  -2   39.94    5.63
   2  38  -4   22.60    3.94
   2  38  -4   14.14    3.29
  -2  38   4   21.23    3.73
   2  38   4   21.80    4.01
  -2  38  -4   18.73    3.62
   2  38  -6    1.29    2.25
  -2  38   6    2.03    1.98
   2  38  -6    0.79    2.05
   2  38   6    0.33    1.94
  -2  38  -6    1.20    2.17
   3  -1   1   67.71    2.11
   3   1   1   59.64    2.23
   3   1  -1   63.07    1.90
   3   1   1   66.06    1.24
   3  -1   1   62.18    2.74
   3   1  -1   55.05    2.00
   3   1  -3  785.21   15.67
   3  -1  -3  895.01   17.48
   3  -1   3  705.43   10.02
   3   1  -3  801.46   10.93
  -3   1  -3  744.82   11.52
   3  -1   3  793.45   16.34
   3   1   3  702.46   11.97
   3  -1  -5  369.12   16.78
  -3  -1  -5  355.20   17.74
  -3   1  -5  314.69   17.08
   3  -1   5  327.85   15.80
  -3   1  -5  357.34   12.80
   3   1  -5  361.53   16.33
  -3  -1  -7  241.56   10.34
   3  -1   7  223.22   13.13
  -3  -1  -7  232.29   15.49
  -3   1  -7  250.13   11.43
   3  -1  -7  220.85   14.24
  -3   1  -7  268.13   16.00
   3   1  -7  223.79   14.22
  -3   1  -9  132.85    7.51
  -3  -1   9  130.43    6.11
   3   1  -9  135.95    9.29
  -3   1  -9  139.90   10.40
  -3  -1  -9  134.04   10.22
   3   1  -9  132.90    9.48
   3  -1  -9  139.65   10.26
  -3  -1  -9  127.77    7.22
   3  -1  -9  127.12    9.48
  -3  -1 -11   19.14    6.73
   3   1 -11    6.22    6.47
   3  -1 -11   10.72    6.62
  -3  -1 -11   21.29    9.09
  -3  -1  11    5.06    2.92
   3  -1 -11    5.78    6.16
  -3   1 -11   24.52    6.53
   3   1 -11    4.81    5.81
  -3   1 -11   24.19    8.65
  -3  -1 -13   82.37    7.08
   3   1 -13   91.91    7.83
  -3   1 -13   87.61    8.75
   3  -1 -13   76.57    8.07
   3  -1 -13   85.29    7.92
  -3  -1 -13   79.84    8.45
  -3   1 -13   86.80    7.23
   3   1 -13   88.77    7.96
  -3  -1 -15   52.55    8.06
  -3   1 -15   54.06    8.67
  -3  -1 -15   40.95    7.75
   3   1 -15   33.76    6.06
   3   1 -15   32.04    5.40
  -3   1 -15   58.71    7.52
   3  -1 -15   26.58    5.82
   3  -1 -15   32.62    5.68
  -3   1 -17   67.40    9.18
   3   1 -17   76.36   10.11
  -3  -1 -17   77.98   10.01
   3   1 -17   97.86   10.38
  -3   1 -17   66.96    9.80
  -3  -1 -17   74.55    9.99
   3  -1 -17   89.13   11.11
   3  -1 -17   94.46   10.37
  -3   1 -19   70.91   12.82
   3   1 -19   54.27   11.05
   3  -1 -19   78.93   13.53
   3  -1 -19   49.39   11.73
   3   1 -19   73.54   13.11
  -3  -1 -19   78.24   13.54
  -3   1 -19   62.29   12.40
  -3  -1 -19   69.44   13.11
  -3   1 -21  138.11   15.50
   3   1 -21  146.03   15.98
   3   1 -21   91.18   13.32
   3  -1 -21  105.09   13.30
  -3   1 -21  142.25   15.35
  -3  -1 -21  138.66   15.00
   3  -1 -21  142.53   16.03
  -3   1 -23   34.77    9.43
  -3   1 -23   26.90    5.90
  -3  -1 -23   31.00    8.91
   3   1 -23   25.75    8.33
   3  -1 -23   28.71    9.69
  -3  -1 -23   24.22    5.09
  -3   1 -25    3.08    3.27
   3  -1 -25    4.97    3.33
  -3  -1 -25    3.08    3.91
   3   1 -25    0.27    5.36
   3   1 -25    0.46    2.68
   3   1  25    5.78    6.38
   3  -1 -27   80.19    9.78
  -3  -1 -27   71.21    9.57
   3  -1  27   70.63   15.33
   3   1 -27   81.52    9.79
   3   1  27   62.80   13.23
  -3   1 -27   81.11   10.17
  -3   1 -27   67.51    8.48
   3   1 -27   87.33    9.69
  -3   1 -29  186.71   14.93
   3   1 -29  202.27   15.29
  -3   1 -29  162.40   12.35
   3  -1 -29  208.66   14.90
   3  -1 -29  187.02   14.34
  -3  -1 -29  151.69   13.84
   3   1 -29  203.45   14.83
  -3  -1 -29  168.54   12.83
   3   1 -31   23.65    5.51
  -3   1 -31   21.95    4.67
   3  -1 -31   25.31    5.92
   3  -1 -31   27.96    6.27
  -3  -1 -31   24.29    5.26
  -3  -1 -31   26.56    6.68
  -3   1 -31   26.22    6.82
   3   1 -31   25.27    6.20
   3   1 -33   85.98   10.11
   3  -1 -33   77.43   10.31
   3  -1 -33   82.42   10.07
  -3  -1 -33   76.69   10.48
  -3   1 -33   70.03    8.17
   3   1 -33   90.86   11.03
  -3  -1 -33   64.16    8.00
   3  -1 -35   36.99    6.16
   3   1 -35   39.70    6.38
   3   1 -35   38.24    6.98
  -3  -1 -35   28.38    4.85
   3  -1 -35   46.55    7.67
   3   1 -37    7.12    3.19
   3  -1 -37    4.99    2.46
   3  -1 -39   14.05    3.39
   3   1 -39    6.33    2.39
   3   3   1  987.19    9.70
   3   3  -1  932.44    8.98
   3   3   1  950.46    7.09
   3   3   1  966.36   10.39
   3   3  -1  969.72    8.87
  -3   3  -3  875.69   14.11
   3   3  -3 1057.28   15.46
   3  -3  -3 1005.40   14.44
   3  -3   3  856.18   17.05
   3   3  -3 1148.89   18.54
   3   3   3 1093.84   19.35
  -3   3  -5    3.16   11.95
   3  -3   5    3.60   12.85
  -3  -3  -5    2.07   13.32
  -3   3  -5    2.05   13.07
  -3   3   5    0.70    8.03
   3  -3  -5    0.17    9.08
   3   3   5    6.90   14.78
   3   3  -5    4.91   13.61
  -3   3   7  673.91    9.53
   3   3  -7  679.92   14.81
  -3  -3   7  676.90   12.09
  -3  -3  -7  624.27   14.52
   3  -3   7  645.03   13.58
  -3   3  -7  637.52   13.01
   3  -3  -7  647.40   15.12
   3   3  -7  683.94   15.32
  -3   3  -7  651.76   15.44
  -3   3   9   14.35    4.27
   3  -3  -9   13.53    6.51
  -3  -3  -9   17.26    6.52
   3   3  -9   13.22    6.15
  -3   3  -9   15.13    6.59
   3  -3  -9   15.73    6.40
  -3   3  -9   15.41    5.58
  -3  -3   9   11.73    4.98
   3  -3   9   15.12    5.81
   3   3  -9   14.66    6.33
   3  -3 -11    0.16    5.81
  -3  -3 -11   11.15    8.36
   3   3 -11    1.06    5.33
  -3   3  11    0.50    4.17
   3   3 -11    0.82    5.68
  -3   3 -11   13.68    9.42
  -3  -3  11    0.45    2.03
   3  -3 -11    0.02    5.44
  -3   3 -11    3.93    6.77
   3  -3  11    5.60    6.94
   3  -3 -13    0.73    5.44
   3   3 -13    0.47    5.25
   3   3 -13    0.67    5.08
  -3   3 -13    1.12    5.38
  -3   3 -13    0.29    5.81
   3  -3  13    0.03    4.57
  -3  -3 -13    4.72    1.90
   3  -3 -13    0.35    5.99
  -3   3  13    1.25    4.50
  -3  -3 -13    0.90    6.36
  -3  -3  13    0.52    2.87
   3  -3 -15   41.28    9.13
   3   3 -15   49.42    8.99
  -3   3 -15   58.75    9.94
  -3  -3 -15   51.95   11.12
  -3   3  15   46.07    8.04
   3  -3 -15   40.35    9.75
  -3   3 -15   50.29   10.65
   3   3 -15   47.21    9.69
   3   3 -17    1.07    5.59
  -3   3  17    0.32    4.73
   3   3 -17    0.47    4.43
   3  -3 -17    0.28    6.25
  -3   3 -17    1.11    5.74
   3  -3 -17    0.23    6.00
  -3  -3 -17    3.06    4.12
  -3   3 -17    3.20    3.36
   3  -3 -19  151.65   14.02
   3   3 -19  150.92   14.58
  -3  -3 -19  148.09   14.32
  -3   3 -19  154.20   14.85
   3   3 -19   90.10   12.14
  -3   3 -19  128.78   13.33
   3   3  19  146.15   15.09
   3   3 -21   58.90   13.26
   3   3 -21  109.98   16.35
  -3   3 -21  100.28   15.76
  -3  -3 -21  107.65   16.03
   3  -3 -21  111.93   14.86
  -3   3 -21   82.88   14.51
   3   3  21  103.33   16.55
  -3   3 -23   70.46   13.06
   3   3 -23   65.31   13.22
   3   3  23   70.81   13.50
  -3  -3 -23   63.12   12.35
   3  -3 -23   50.36    7.35
  -3   3 -23   55.42   12.28
   3   3 -23   67.01    8.00
  -3   3 -23   59.02    8.92
  -3  -3 -23   58.44    7.81
   3  -3 -23   68.07    8.44
   3   3 -25    1.84    3.03
  -3   3 -25    3.23    2.55
   3   3 -25    2.36    2.90
   3  -3 -25    5.61    3.15
   3   3 -25    4.27    4.94
   3   3  25    1.26    6.66
  -3  -3 -25    4.39    3.42
  -3   3 -25    2.26    3.50
   3  -3 -25    0.14    2.88
  -3   3 -27  176.63   16.03
   3   3  27  136.69   22.61
  -3   3 -27  157.17   13.40
   3   3 -27  173.86   14.68
   3   3 -27  194.33   16.16
   3  -3 -27  173.55   14.94
   3   3 -27  149.27   23.25
  -3  -3 -27  163.93   14.76
  -3   3 -29    0.95    2.74
   3   3 -29    0.09    3.03
  -3  -3 -29    0.16    3.31
   3  -3 -29    1.69    3.24
  -3   3 -29    0.02    4.19
   3   3 -29    1.35    3.43
   3   3 -31   13.72    5.33
  -3   3 -31   17.05    4.31
  -3  -3 -31    7.52    3.01
   3  -3 -31   20.31    5.19
   3   3 -31   12.20    3.87
  -3  -3 -31    7.56    3.83
   3  -3 -31    0.36    4.14
   3   3 -33   26.98    6.60
   3   3 -33   24.91    7.28
   3  -3 -33   22.25    6.04
  -3  -3 -33   17.90    5.32
  -3  -3 -33   34.46    7.70
   3  -3 -33   28.37    6.85
  -3  -3 -35   54.33    7.56
   3  -3 -35   60.15    7.36
   3  -3 -35   61.32    7.95
  -3  -3 -35   47.49    5.84
   3   3 -35   60.04    7.28
   3   3 -37    3.74    2.67
   3  -3 -37    4.22    3.20
   3  -3 -37    0.14    3.03
   3  -3 -39    0.13    2.58
   3   3 -39    0.55    1.80
   3  -5  -1 1070.08   19.97
   3  -5   1 1008.19   20.23
   3   5   1 1103.80   21.34
   3   5  -1 1060.96   19.71
   3   5  -1 1014.20   19.63
   3   5   3   75.51    9.00
   3  -5  -3   92.17    7.62
   3  -5   3   71.74    8.42
   3   5  -3   82.11    7.99
   3   5   3   50.80    4.83
  -3  -5  -3   67.01    6.31
  -3   5   3   83.61    7.46
   3   5  -3   96.93    9.03
  -3   5   5  900.15   22.22
   3   5  -5  896.69   27.26
  -3  -5  -5  831.84   24.04
  -3  -5   5  833.05   24.00
   3  -5   5  839.69   25.87
  -3   5  -5  812.17   25.18
   3  -5  -5  815.46   20.08
   3   5   5  859.97   27.73
   3   5  -7   70.61   13.23
   3  -5   7   41.84   13.41
  -3   5  -7   55.51   13.39
  -3  -5   7   64.07   11.76
  -3  -5  -7   68.38   14.06
  -3   5  -7   58.16   13.02
   3  -5  -7   62.01    8.94
  -3   5   7   61.36   10.24
   3   5  -7   68.76   14.29
   3   5   7   56.57   14.48
  -3  -5  -9  127.56    8.63
   3   5  -9  116.92    7.84
  -3   5   9  126.66    6.56
  -3   5  -9  112.53    8.44
  -3  -5   9  118.04    6.30
   3  -5   9  115.16    8.22
  -3   5  -9  117.96    8.33
   3   5  -9  127.94    8.67
   3   5   9  126.94    9.09
   3   5 -11    4.42    3.86
  -3  -5  11    0.79    2.39
  -3   5 -11    8.91    3.84
  -3   5 -11    6.97    4.32
   3  -5  11    6.49    3.54
   3   5  11   13.99    4.69
   3   5 -11    9.77    3.34
  -3   5  11    4.39    2.51
  -3  -5 -11   10.67    4.21
   3   5 -13    6.72    3.27
   3  -5 -13    8.49    3.52
   3  -5  13    8.33    3.72
  -3  -5 -13   10.42    4.33
  -3   5 -13    9.79    3.51
   3   5 -13    8.27    3.45
  -3  -5  13    8.74    2.49
  -3   5 -13    9.71    3.89
  -3   5  13    9.62    2.58
   3   5  13   15.39    4.27
  -3   5 -15  316.39   19.12
  -3   5  15  332.09   17.12
   3   5 -15  311.94   17.78
   3  -5  15  281.64   16.37
  -3   5 -15  310.34   20.32
  -3  -5 -15  300.92   19.82
   3  -5 -15  356.05   21.17
   3   5  15  306.56   20.75
   3   5 -15  318.13   19.78
  -3  -5 -17   37.89   10.31
  -3   5  17   37.64    8.53
  -3   5 -17   29.93    8.85
   3   5  17   39.67   11.16
   3  -5 -17   30.66    9.68
   3   5 -17   35.45    8.86
   3   5 -17   35.29   10.10
  -3   5 -17   35.89   10.12
  -3  -5 -19   79.68   12.20
  -3   5 -19   64.82   11.79
   3   5 -19   69.49   10.62
   3  -5 -19   76.92   11.61
   3   5 -19   91.29   12.94
   3   5  19   65.72   11.32
  -3   5 -19   61.34   10.88
   3   5 -21  145.42   15.80
  -3   5 -21  136.18   15.24
   3  -5 -21  151.09   15.17
  -3  -5 -21  131.18   15.12
   3   5  21  136.76   15.87
  -3   5 -21  134.57   14.86
   3   5 -21   83.11   12.67
   3  -5 -23   70.05    8.50
  -3   5 -23   52.61   11.01
  -3  -5 -23   53.70    7.44
   3   5  23   63.43   12.84
   3   5 -23   69.29    8.14
   3  -5 -23   55.65    7.74
   3   5 -23   54.96   11.66
  -3   5 -23   56.91   12.57
  -3   5 -23   58.08    8.35
   3   5  25   49.87    8.88
   3  -5 -25   27.67    3.74
   3  -5 -25   31.27    4.31
   3   5 -25   34.69    4.60
  -3  -5 -25   32.05    4.77
   3   5 -25   28.81    6.79
  -3   5 -25   36.87    4.65
   3   5 -25   28.75    4.40
   3   5 -27    7.72    6.80
   3   5 -27    2.28    3.12
   3   5 -27    9.90    3.77
   3   5  27    0.93    6.47
   3  -5 -27    3.56    3.29
  -3   5 -27    1.50    2.43
   3  -5 -27    1.18    2.89
  -3  -5 -27    6.26    3.61
   3   5 -29   14.18    5.68
   3   5 -29   15.42    6.09
  -3   5 -29    9.46    4.85
  -3  -5 -29   13.15    6.22
   3  -5 -29   16.17    6.27
   3   5 -31    6.98    3.53
   3   5 -31    6.77    4.17
  -3  -5 -31   10.09    4.97
   3  -5 -31    4.04    3.22
  -3  -5 -33    1.33    3.07
   3  -5 -33    7.95    4.70
   3   5 -33    0.40    3.60
  -3  -5 -33    6.35    5.07
   3  -5 -33    5.79    4.05
  -3  -5 -35   16.83    4.31
  -3  -5 -35   20.18    5.80
   3  -5 -35   34.73    6.30
   3   5 -35   25.54    5.84
   3  -5 -35   27.34    6.07
  -3  -5 -37   11.64    2.70
   3  -5 -37   12.03    3.21
   3  -5 -37   12.03    4.00
   3   5 -37   14.21    3.55
   3  -5 -39    5.43    2.32
   3   5 -39    9.16    2.76
  -3  -7  -1  344.13    6.49
   3   7  -1  409.54   10.81
   3   7   1  338.86   10.99
   3  -7  -1  344.71   10.49
   3   7  -1  415.17   10.65
   3  -7   1  395.36   10.97
  -3  -7   1  391.20   10.92
   3   7   1  345.70    9.63
   3  -7  -3  186.36   17.35
  -3   7   3  187.80   18.85
   3   7   3  152.97   14.09
   3   7  -3  169.68   17.42
   3   7  -3  197.50   18.12
  -3  -7   3  210.54   18.45
   3  -7   3  152.02   17.84
  -3  -7  -3  184.91   13.32
   3   7   3  203.22   18.78
  -3   7   5  102.19    3.40
   3   7   5  115.48    3.53
  -3   7  -5  101.21    3.27
   3  -7   5   95.78    4.69
   3   7  -5   86.13    4.45
   3   7  -5   98.89    4.47
  -3  -7   5  104.43    3.21
   3  -7  -5   78.69    3.75
  -3  -7  -5   97.31    3.13
  -3   7  -5  107.40    3.73
   3   7  -7  410.06   26.93
   3  -7   7  364.80   26.54
   3   7   7  378.63   28.14
  -3   7  -7  358.40   25.34
  -3   7  -7  343.43   26.81
  -3  -7  -7  412.46   25.41
  -3  -7   7  390.43   24.28
  -3   7   7  392.20   23.26
   3  -7  -7  369.23   19.96
   3   7  -7  434.40   27.64
   3   7  -9   38.21    9.33
  -3  -7  -9   38.44    9.43
   3   7  -9   36.18    9.82
   3  -7   9   33.75    9.05
  -3   7  -9   38.59    9.58
  -3  -7   9   35.39    8.25
   3  -7  -9   35.66    6.07
  -3   7  -9   34.80    9.43
  -3   7   9   32.24    7.89
   3   7   9   28.57    9.73
  -3  -7 -11   37.23    6.11
   3   7 -11   41.81    6.24
  -3  -7  11   42.05    4.42
  -3   7  11   43.72    4.55
  -3  -7 -11   34.20    4.63
   3  -7 -11   32.44    2.27
   3   7  11   36.57    5.94
  -3   7 -11   32.87    5.70
   3  -7  11   37.58    5.92
   3   7 -11   42.31    5.78
  -3   7 -11   37.97    5.96
  -3  -7 -13  431.60   23.60
  -3  -7 -13  382.13   17.47
   3  -7  13  420.70   21.19
  -3   7  13  450.37   20.34
  -3   7 -13  427.03   23.61
  -3   7 -13  414.41   22.64
   3   7 -13  389.59   21.61
   3   7 -13  408.15   23.31
  -3  -7  13  404.10   18.18
   3   7  13  412.84   23.71
   3  -7 -15  269.89   22.04
  -3  -7 -15  306.08   21.92
   3   7 -15  282.39   19.33
  -3   7 -15  282.86   21.31
  -3   7 -15  294.81   21.36
   3  -7  15  269.00   18.70
   3   7  15  285.98   22.37
  -3  -7  15  287.55   15.92
  -3   7  15  295.09   18.47
   3   7 -15  288.37   21.12
   3   7 -17   68.64   11.53
  -3   7 -17   64.62   11.67
   3   7 -17   61.45    9.87
   3  -7  17   46.31    9.47
  -3  -7 -17   73.36   12.09
   3   7  17   73.40   12.37
  -3   7 -17   67.45   11.35
   3  -7 -17   81.94   13.09
   3   7  19   13.58    8.40
   3   7 -19   16.27    8.75
  -3  -7 -19   18.43    9.06
   3   7 -19   13.32    7.71
   3  -7 -19   19.99    8.99
  -3   7 -19   17.56    8.87
  -3   7 -19    8.25    7.32
   3   7  21   95.83   15.60
  -3   7 -21   84.10   14.83
   3  -7 -21  128.90   16.82
  -3   7 -21  103.08   15.31
   3   7 -21  114.85   16.29
   3   7 -23    1.93    2.22
   3   7  23    3.48    4.97
  -3  -7 -23    1.88    3.07
   3   7 -23    1.91    3.04
   3  -7 -23    1.85    3.06
   3   7 -23    2.03    3.98
  -3   7 -23    5.45    6.57
   3  -7 -23    1.85    2.38
  -3   7 -23    1.58    5.25
   3   7  25    0.02    3.96
   3   7 -25    0.97    3.23
   3   7 -25    0.57    6.03
   3  -7 -25    0.23    2.60
   3   7 -25    0.04    2.65
   3  -7 -25    0.33    3.05
  -3  -7 -25    0.58    3.21
   3   7  27    7.09    7.02
   3   7 -27    1.31    2.94
  -3  -7 -27    3.89    3.61
   3  -7 -27    0.57    3.18
   3   7 -27    3.64    3.66
   3   7 -27    0.18    6.91
   3  -7 -27    0.21    3.69
   3  -7 -29   39.86    7.06
   3  -7 -29   46.31    7.17
   3   7 -29   58.60    7.66
  -3  -7 -29   52.39    8.01
   3   7 -31   18.31    5.17
  -3  -7 -31   12.61    4.92
   3  -7 -31   17.19    4.93
   3  -7 -33   15.90    5.41
   3   7 -33   20.15    5.84
  -3  -7 -33   12.37    5.45
  -3  -7 -35   15.89    3.28
   3  -7 -35   17.91    3.83
   3  -7 -35    3.66    3.03
  -3  -7 -35   12.48    4.14
   3   7 -35   12.16    3.99
  -3  -7 -37    0.16    2.13
   3  -7 -37    0.11    2.71
   3  -7 -37    1.53    3.17
   3   7 -37    0.09    2.14
   3  -7 -39    3.94    1.83
   3   7 -39    6.04    1.83
   3  -7 -39    0.54    2.52
  -3  -9   1    8.29   10.66
  -3  -9  -1    9.34    4.00
   3   9   1    8.32    9.75
   3  -9   1    8.86    9.53
   3  -9  -1    7.83   10.06
   3   9   1    7.54    9.24
   3   9  -1    8.22   10.17
  -3  -9  -1    7.76   10.56
   3   9  -1    9.10   10.00
  -3  -9  -3  814.87   33.90
   3  -9   3  576.52   29.65
  -3   9   3  756.19   33.32
  -3  -9   3  809.41   31.79
   3   9  -3  663.59   30.72
  -3  -9  -3  657.35   19.68
   3   9   3  639.75   26.75
   3  -9  -3  779.65   29.74
  -3   9  -3  633.37   29.92
   3   9  -3  828.82   31.60
   3   9   3  638.28   31.44
  -3  -9   5   78.74    7.13
  -3   9  -5   74.21    6.29
   3   9   5   79.36    8.45
  -3   9   5   75.70    7.59
  -3  -9  -5   79.16    7.91
   3  -9   5   56.32    7.22
   3  -9  -5   78.20    6.52
  -3  -9  -5   74.34    5.56
  -3   9  -5   78.21    7.97
   3   9  -5   79.67    7.48
   3   9  -5   84.14    7.68
   3   9  -7  133.01   13.00
   3  -9   7  108.88   12.23
  -3  -9  -7  117.80    9.84
  -3  -9   7  140.46   11.79
  -3   9  -7  107.92   12.40
  -3   9  -7   81.45   10.13
   3   9  -7  133.21   12.29
  -3  -9  -7  135.28   12.70
   3  -9  -7  132.20   10.49
   3   9   7  128.48   12.65
  -3   9   7  127.18   11.75
   3   9   9   40.73    5.18
   3   9  -9   51.15    4.17
  -3   9  -9   34.80    3.06
   3   9  -9   54.96    4.60
  -3  -9  -9   29.31    3.12
  -3   9  -9   38.53    4.01
  -3  -9  -9   41.72    3.43
  -3  -9   9   60.04    4.45
  -3   9   9   45.09    3.44
   3  -9  -9   42.62    2.36
   3  -9   9   40.03    3.51
  -3  -9 -11   41.67   10.07
  -3   9  11   30.15    8.14
  -3  -9 -11   33.64    9.12
  -3   9 -11   41.67   10.47
   3   9  11   35.92   11.53
  -3  -9  11   28.58    7.95
   3   9 -11   22.14    8.63
  -3   9 -11   38.45   10.33
   3  -9  11   33.54   10.05
   3  -9 -11   26.61    5.56
   3   9 -11   27.97    9.31
   3   9 -13 1147.90   34.06
   3  -9  13 1115.26   31.37
  -3   9 -13 1150.79   33.38
  -3  -9 -13 1038.80   25.64
  -3   9  13 1231.60   30.95
   3   9  13 1169.88   35.69
  -3  -9 -13 1141.98   32.34
  -3   9 -13 1155.28   32.78
   3   9 -13 1151.94   32.48
  -3  -9  13 1142.96   28.26
  -3  -9  15  110.62   10.16
   3   9  15  154.84   15.46
  -3   9 -15  133.99   13.84
  -3  -9 -15  141.98   14.49
   3  -9  15  116.06   11.66
   3   9 -15  110.90   12.05
  -3   9  15  109.14   10.74
  -3   9 -15  159.24   14.94
   3   9 -15  109.37   12.62
   3   9  17    6.21    4.99
   3   9 -17   21.17    6.83
  -3   9 -17    2.59    3.92
   3   9 -17   14.27    6.05
  -3  -9 -17    4.29    3.94
   3  -9 -17   11.37    7.32
  -3   9 -17    3.43    4.67
   3  -9  17    2.76    2.64
  -3   9 -19    0.69    4.26
  -3   9 -19    0.49    3.99
   3   9 -19    3.68    5.36
   3   9  19    0.57    3.74
   3  -9 -19    0.06    4.65
   3  -9 -21   50.97    6.90
   3  -9 -21   58.81   12.61
  -3   9 -21   51.77   10.98
  -3   9 -21   35.80    9.42
   3   9 -21   62.77    7.57
   3   9  21   47.90   11.33
   3   9 -21   63.95   12.20
   3  -9 -21   54.73    7.19
  -3  -9 -21   43.59    7.00
   3   9 -23    0.67    2.70
   3  -9 -23    2.25    3.17
   3  -9 -23    0.38    2.51
   3   9  23    4.02    7.24
  -3  -9 -23    1.62    3.66
   3   9 -23    1.86    4.17
  -3   9 -23    1.69    4.19
  -3   9 -23    0.51    3.95
  -3  -9 -23    0.69    3.16
   3  -9 -25    0.32    3.46
   3   9 -25    1.51    6.61
   3   9  25    3.38    7.06
   3   9 -25    4.80    4.14
  -3  -9 -25    3.87    4.77
   3  -9 -25    1.48    3.43
   3   9 -27   36.70    6.09
   3   9 -27   32.87    9.23
  -3  -9 -27   35.94    6.42
   3  -9 -27   32.65    6.06
   3  -9 -27   35.84    5.75
  -3  -9 -29   87.86   11.30
   3  -9 -29   82.82   10.21
   3  -9 -29   60.65    9.28
   3   9 -29   93.62   10.71
   3   9 -31    0.03    2.84
   3  -9 -31    2.33    3.34
  -3  -9 -31    3.11    3.59
   3  -9 -33    4.60    3.75
   3   9 -33    2.66    3.52
  -3  -9 -33   10.85    5.10
   3  -9 -35   13.77    3.19
   3  -9 -35   10.69    2.92
   3   9 -35   17.19    3.35
  -3  -9 -35   11.28    2.94
  -3  -9 -35    7.25    3.57
  -3  -9 -37    1.40    1.79
   3  -9 -37    0.02    2.32
  -3  -9 -37    5.92    3.21
   3  -9 -37    3.50    2.86
   3   9 -37    2.16    2.01
   3  11  -1  108.60    6.58
   3  11  -1  115.41    7.87
   3  11   1  102.55    6.94
   3 -11  -1  139.10    7.00
   3  11   1  112.44    6.31
  -3 -11   1  110.17    7.27
  -3 -11  -1  130.94    7.71
   3 -11   1   99.82    6.09
   3 -11   3   64.19    4.33
  -3  11   3   63.59    5.42
  -3 -11   3   62.71    4.85
  -3 -11  -3   66.00    4.96
   3  11  -3   63.54    4.57
   3  11   3   64.26    5.66
   3  11   3   66.12    4.03
  -3  11  -3   64.17    4.81
   3  11  -3   64.18    4.52
   3 -11  -3   63.72    3.72
   3  11  -5   99.78   12.72
   3 -11   5   91.90   12.04
  -3 -11  -5  127.06   14.15
  -3 -11  -5   86.44    7.41
   3 -11  -5   99.01   11.02
  -3  11  -5   92.12    9.68
  -3  11   5  119.44   13.85
   3  11   5   98.16   13.38
  -3  11  -5  114.50   13.19
   3  11  -5  113.77   12.85
  -3 -11   5  100.06   11.95
   3 -11  -7  202.02   14.36
  -3  11  -7  160.78   13.18
  -3 -11  -7  163.87   11.99
  -3  11   7  218.72   17.48
  -3 -11  -7  202.10   17.49
   3  11   7  188.06   17.38
  -3  11  -7  186.46   17.23
  -3 -11   7  188.65   14.93
   3  11  -7  203.10   16.89
   3 -11   7  186.75   15.75
  -3  11  -9  100.95   11.26
   3  11   9  115.47   13.01
  -3  11  -9   99.57   10.22
  -3  11   9  109.97   11.41
  -3 -11  -9   94.76   10.63
  -3 -11   9  111.48   10.64
   3  11  -9  100.67   11.47
   3 -11  -9  103.82    9.27
  -3 -11  -9  100.72    9.55
   3 -11   9   98.75   11.05
   3  11 -11  327.16   16.10
  -3 -11  11  314.89   13.66
   3  11  11  330.58   17.56
  -3  11 -11  358.36   15.69
  -3  11 -11  353.18   16.75
  -3  11  11  319.71   14.51
  -3 -11 -11  371.24   15.50
   3 -11  11  365.79   16.45
  -3 -11 -11  388.23   15.78
   3 -11 -11  309.57   10.84
  -3 -11 -13   94.21    9.74
   3  11  13  123.92   15.28
   3 -11  13  101.50   12.15
  -3 -11  13  118.51   11.59
  -3  11 -13  111.06   12.34
  -3  11  13  117.44   12.38
  -3 -11 -13  106.80   12.21
  -3  11 -13   99.49   12.79
   3  11 -13  118.62   13.65
   3  11  15  290.50   25.71
  -3  11  15  304.17   22.73
  -3 -11  15  261.58   19.71
  -3  11 -15  283.52   22.56
   3 -11  15  297.41   22.81
  -3  11 -15  286.85   24.22
   3  11 -15  287.90   24.14
  -3  11 -17    1.43    3.51
   3  11 -17    0.92    4.74
  -3  11 -17    1.19    4.38
   3 -11  17    1.19    5.59
   3  11  17    1.97    4.28
  -3  11 -19   68.01   11.67
   3  11  19   95.60   14.52
   3 -11 -19   99.66   14.90
  -3  11 -19   90.98   12.85
   3  11 -19   97.42   13.90
   3  11  21    3.29    5.08
   3 -11 -21    0.92    4.30
   3 -11 -21    0.29    2.40
  -3 -11 -21    0.89    2.50
  -3  11 -21    0.28    5.70
   3  11 -21    1.47    4.63
  -3 -11 -21    0.40    2.77
   3 -11 -21    1.71    2.26
   3  11 -21    0.81    2.87
  -3  11 -21    0.28    4.43
  -3  11 -23   32.81   10.81
   3  11 -23   40.76   11.95
   3  11  23   65.59   14.89
   3 -11 -23   51.61    8.02
  -3 -11 -23   48.03    8.42
  -3 -11 -23   44.99    7.43
   3 -11 -23   64.82    8.48
   3  11 -23   47.28    7.24
   3  11 -25   18.28    4.13
   3  11  25   33.46   10.72
   3  11 -25   11.58    5.97
   3 -11 -25   20.43    4.87
  -3 -11 -25   23.50    5.19
   3 -11 -25   22.39    4.86
  -3 -11 -27  136.26   12.18
   3 -11 -27  138.50   11.83
   3  11 -27  159.66   12.22
   3 -11 -27  153.48   11.87
   3 -11 -29    3.29    3.30
   3 -11 -29    2.02    3.46
   3  11 -29    0.39    3.05
  -3 -11 -29    1.33    4.00
   3  11 -31    0.23    2.71
  -3 -11 -31    0.15    4.18
   3 -11 -31    0.13    3.12
   3  11 -33    4.59    2.99
   3 -11 -33   10.49    4.58
   3 -11 -35   32.55    5.46
  -3 -11 -35   28.66    5.56
   3  11 -35   34.01    5.18
  -3 -11 -37    0.12    1.82
   3  11 -37    4.28    2.29
  -3 -11 -37    1.52    2.76
   3 -11 -37    0.73    2.40
   3 -11 -37    0.05    2.78
   3 -13  -1   15.99    3.42
   3  13   1   12.52    4.14
   3  13  -1   11.04    5.56
   3 -13   1   15.82    4.21
   3  13   1    8.98    5.42
   3  13  -1   16.07    4.01
  -3 -13   1   31.46    3.95
  -3 -13  -1   10.64    4.35
   3 -13  -3   37.14   10.62
  -3  13  -3   22.05    7.29
  -3  13   3   43.22   13.36
   3  13  -3   37.49   12.38
   3  13   3   28.18   11.76
  -3  13  -3   39.31   12.70
  -3 -13   3   39.96   11.84
   3  13   3   38.12   11.15
   3  13  -3   34.78   12.69
   3 -13   3   28.31    9.93
  -3 -13  -3   29.92   11.46
   3  13   5   83.51    8.58
  -3 -13  -5  101.70    9.85
  -3 -13   5  112.18    8.94
   3 -13  -5   91.25    7.79
   3  13  -5   92.32    7.87
  -3  13   5   86.18    8.83
  -3  13  -5   83.94    8.82
   3 -13   5   85.59    8.38
  -3  13  -5   69.00    5.68
   3  13   5   88.33    7.64
   3 -13  -7   47.33    9.94
  -3 -13  -7   56.18   12.10
  -3  13  -7   47.28   12.70
  -3 -13   7   52.59   10.92
  -3  13   7   60.10   12.56
  -3  13  -7   31.27    8.12
   3  13  -7   51.32   12.22
   3 -13   7   50.22   11.53
   3  13   7   59.65   13.31
  -3  13   9    0.44    6.23
  -3 -13   9    0.89    4.68
   3 -13  -9    0.73    4.57
  -3  13  -9    0.23    5.51
   3  13  -9    0.24    4.04
  -3  13  -9    0.13    3.45
  -3 -13  -9    0.14    4.91
   3  13   9    1.73    6.78
   3 -13   9    0.33    5.16
  -3  13  11    5.22    4.79
  -3 -13  11    1.60    2.88
  -3 -13 -11    0.16    3.48
   3  13  11    2.07    3.84
   3 -13  11    2.63    4.32
  -3  13 -11    3.77    4.43
   3 -13 -11    1.78    2.27
  -3  13 -11    2.45    2.74
   3  13 -11    0.63    4.62
  -3 -13  13  121.85    9.32
  -3  13 -13  110.25   10.33
   3 -13  13   98.90    8.79
  -3  13 -13   82.09    6.92
   3  13 -13  110.82    9.95
  -3  13  13  115.18    9.99
  -3 -13 -13  108.18    7.87
   3  13  13  109.45   10.64
   3  13  15  120.10   17.26
  -3  13 -15  114.75   16.28
   3 -13  15  110.39   14.98
   3  13 -15  114.98   16.22
  -3  13  15  126.70   16.35
  -3 -13  15  107.24   13.11
  -3  13 -15   87.48   12.75
  -3  13 -17    0.97    3.96
   3 -13  17    4.18    4.56
   3  13 -17    1.67    3.92
  -3  13 -17    3.10    3.78
   3  13  17    0.19    5.97
   3  13  19   80.06   14.35
  -3  13 -19   56.52   10.49
   3 -13 -19   66.31    7.45
  -3  13 -19   53.28   11.32
  -3 -13 -19   57.12    7.54
   3 -13 -19   65.93   14.17
   3  13 -19   68.19    7.34
   3  13 -19   80.64   13.30
   3 -13 -19   64.26    7.25
   3 -13 -21  117.38   20.29
  -3  13 -21  100.22   16.83
  -3  13 -21  110.86   15.35
   3 -13 -21  125.03   11.20
   3 -13 -21  139.92   11.78
   3  13  21  137.56   20.72
  -3 -13 -21  129.46   12.52
   3  13 -21  131.19   11.43
  -3 -13 -21  128.37   11.66
   3  13 -21  138.60   19.03
  -3 -13 -23    0.93    3.47
  -3 -13 -23    0.11    2.97
   3 -13 -23    1.65    2.37
  -3  13 -23    0.01    6.15
   3  13 -23    0.58    2.80
   3  13 -23    6.58    5.84
   3 -13 -23    0.10    3.07
   3  13  23    0.02    6.36
   3 -13 -25   64.88    8.53
   3  13 -25   78.39    9.07
   3 -13 -25   64.64    8.30
  -3 -13 -25   57.45    8.22
   3  13 -25   51.95   12.48
   3  13  25   51.11   13.74
   3 -13 -27   30.58    6.95
   3 -13 -27   32.99    6.94
   3  13 -27   39.70    7.37
  -3 -13 -27   33.05    7.23
   3  13 -29   24.31    4.99
  -3 -13 -29   22.61    4.29
   3 -13 -29   11.90    3.86
   3 -13 -29   15.31    3.90
  -3 -13 -31    0.37    3.17
   3 -13 -31    4.88    3.09
   3  13 -31    0.27    2.59
  -3 -13 -33   24.79    6.10
   3  13 -33   25.26    5.38
   3 -13 -33   18.51    4.71
  -3 -13 -35   19.90    4.13
   3 -13 -35   14.79    3.45
   3  13 -35   13.33    3.03
  -3 -13 -37   14.52    2.86
   3 -13 -37   14.58    3.39
  -3 -13 -37   15.06    3.81
   3  13 -37   13.34    3.05
   3 -13 -37   18.55    3.90
   3  15  -1   94.08   12.97
   3 -15   1   70.52   10.70
  -3 -15   1   98.64   11.57
   3  15   1   84.90   12.22
  -3 -15  -1  102.47   12.01
   3  15   1  103.52   12.47
  -3  15  -1   86.53   13.13
   3 -15  -1   89.13   11.63
   3  15  -1  108.82   12.11
   3 -15   3    7.24   11.15
   3  15  -3   18.57   13.69
  -3 -15   3   17.29   11.90
   3 -15  -3   10.74   11.64
   3  15   3    7.56   13.14
  -3  15  -3   13.02   13.57
   3  15  -3   15.20   12.38
  -3 -15  -3    7.76   12.33
   3  15   3   10.81   12.27
   3 -15   5   11.37    9.58
   3  15   5   13.70   10.71
  -3  15   5   11.08   10.14
   3  15  -5   11.02    9.88
  -3  15  -5   11.17    9.98
  -3 -15   5   12.77    9.56
  -3 -15  -5   14.47   10.07
   3 -15  -5    8.97    7.80
   3  15   5   15.87    9.51
  -3  15   7   63.02   10.01
  -3  15  -7   64.35   10.45
   3 -15  -7   64.13    8.06
  -3 -15  -7   56.85    8.52
   3 -15   7   60.33    9.25
  -3 -15   7   67.86    8.72
   3  15   7   68.12   11.04
   3  15  -7   66.28    9.89
   3  15   7   50.75    8.24
   3  15  -9   33.13    4.29
  -3  15   9   27.79    6.23
   3  15   9   30.21    4.26
   3 -15   9   28.45    5.83
  -3  15  -9   37.48    3.83
   3 -15  -9   28.28    4.39
  -3 -15  -9   29.87    5.02
  -3 -15   9   30.50    4.22
   3  15 -11    0.63    5.23
  -3 -15  11    0.27    4.13
  -3  15  11    0.46    5.03
  -3  15 -11    5.32    7.42
   3 -15  11    0.95    5.94
   3  15  11    0.65    5.43
   3 -15 -11    0.14    3.00
  -3 -15 -11    0.35    3.41
   3 -15  13   61.12   10.44
   3  15 -13   60.43   10.97
  -3  15 -13   62.46   11.29
  -3 -15 -13   49.13    8.25
  -3  15  13   64.08   11.35
   3  15  13   60.22   11.57
  -3 -15  13   61.63   10.01
   3  15 -15  105.84   14.94
  -3  15 -15   93.01   14.31
   3 -15  15   93.52   13.53
   3  15  15  112.55   17.04
  -3 -15  15  106.58   13.27
   3  15 -17    0.78    4.17
   3 -15  17    0.56    4.60
  -3 -15  17    0.77    4.64
  -3  15 -17    0.61    3.74
   3 -15 -17    1.15    3.28
   3  15  17    1.03    6.16
   3  15 -17    0.53    2.61
   3 -15 -19   87.33    8.64
   3  15  19   81.52   14.11
  -3 -15 -19   74.65    8.50
   3  15 -19   83.18    7.84
  -3  15 -19   60.19   11.30
  -3 -15 -19   75.19    8.03
   3  15 -19   87.35   13.22
   3 -15 -19   77.94    8.07
  -3  15 -21   84.09   14.98
   3 -15 -21   96.20   16.85
   3 -15 -21  104.29    9.74
  -3 -15 -21  103.42   10.22
  -3 -15 -21  106.50   10.01
   3 -15 -21   97.18    9.25
   3  15  21  116.77   18.29
   3  15 -21  112.06    9.68
   3  15 -21  104.16   15.60
   3  15 -23    0.24    2.73
   3 -15 -23    1.43    2.60
   3 -15 -23    0.48    2.60
   3  15 -23    0.09    4.59
  -3  15 -23    0.17    6.48
  -3 -15 -23    0.16    3.27
   3  15  23    0.16    8.24
  -3 -15 -23    0.16    3.69
  -3 -15 -25   27.75    6.92
   3 -15 -25   31.97    7.16
  -3 -15 -25   30.64    7.51
   3 -15 -25   32.41    7.07
   3  15 -25   33.13    6.89
   3  15 -27   17.67    3.30
   3 -15 -27   13.83    3.12
   3 -15 -27   20.78    4.24
  -3 -15 -27   10.79    2.80
   3 -15 -29   26.51    5.99
  -3 -15 -29   26.90    5.82
   3  15 -29   23.53    5.79
   3 -15 -29   29.88    6.17
   3  15 -31    1.09    2.46
  -3 -15 -31    0.02    3.56
   3 -15 -31    3.18    3.33
   3 -15 -33   32.31    6.16
   3  15 -33   31.58    5.77
  -3 -15 -33   27.13    5.93
   3  15 -35   31.07    4.54
  -3 -15 -35   30.02    5.05
   3 -15 -35   27.29    4.55
   3  17   1  225.80   16.53
   3 -17  -1  190.94   13.73
  -3  17  -1  203.44   17.54
  -3 -17  -1  206.01   15.16
  -3 -17   1  187.99   13.85
   3  17   1  173.45   14.72
   3  17  -1  198.46   15.29
   3  17  -1  197.50   16.16
   3 -17   1  193.39   14.61
  -3  17  -3    8.65    9.20
   3 -17  -3    5.65    7.54
   3 -17   3    4.26    7.27
   3  17   3    8.36    9.28
   3  17  -3    7.34    9.45
   3  17  -3   10.96    8.48
  -3 -17   3   10.71    7.67
  -3 -17  -3   10.72    8.60
   3  17   3   10.61    9.62
   3  17   5   22.51    7.26
  -3  17   5   39.75    8.97
  -3  17  -5   41.36    7.96
  -3 -17  -5   25.86    6.83
   3 -17   5   33.99    7.07
   3 -17  -5   27.37    5.90
   3  17  -5   27.60    7.06
  -3 -17   5   31.55    7.64
   3  17   5   30.29    7.11
  -3 -17   7   99.70   13.04
   3  17   7   87.97   15.08
   3  17  -7   85.47   13.74
  -3  17  -7  109.31   17.25
   3  17   7   92.92   13.32
  -3  17   7  107.30   16.26
   3 -17   7   85.61   13.49
  -3 -17  -7   88.05   13.63
   3 -17  -7   90.17   12.39
  -3  17   9  138.15   17.40
   3 -17  -9  126.65   13.24
  -3  17  -9  139.55   17.12
  -3 -17   9  132.33   14.42
  -3 -17  -9  120.67   14.20
   3  17   9  124.33   14.41
   3  17   9  121.51   16.87
   3  17  -9  126.33   15.95
   3 -17   9  115.99   15.20
   3  17 -11    6.33    8.48
   3 -17 -11   11.97    7.84
  -3  17 -11   37.67   13.96
   3 -17  11   24.57   12.27
  -3  17  11   13.02   10.43
  -3 -17  11    6.28    7.98
   3  17  11   35.16   14.13
  -3 -17 -11   31.26   11.28
   3 -17  13  210.13   20.42
  -3  17  13  266.75   24.10
  -3  17 -13  207.62   21.40
  -3 -17  13  212.94   19.12
   3  17  13  210.55   23.18
   3  17 -13  233.20   21.86
   3  17  15   34.54   11.53
  -3 -17  15   19.49    7.93
   3 -17  15   19.26    8.88
  -3  17 -15   22.14    9.57
   3 -17 -15   20.88    5.60
   3  17 -15   20.79    5.29
   3  17 -15   20.63    9.46
   3  17  17    1.34    7.58
  -3 -17 -17    1.34    3.38
  -3 -17  17    0.09    4.74
  -3  17 -17    1.60    4.35
   3  17 -17    1.97    5.22
   3 -17  17    1.31    4.98
   3  17 -17    0.97    3.14
  -3 -17 -17    0.03    2.34
   3 -17 -17    0.88    3.28
   3  17  19   20.68    7.14
   3  17 -19   23.00    6.92
   3 -17 -19   38.20    5.72
   3  17 -19   31.08    4.78
  -3 -17 -19   33.29    5.90
  -3 -17 -19   35.33    5.68
  -3  17 -19   23.56    8.64
   3 -17 -19   34.10    5.15
   3 -17 -21   57.33   13.31
   3  17 -21   95.26    9.46
   3 -17 -21   86.54    9.31
  -3  17 -21   49.16   12.27
  -3 -17 -21   86.30    9.32
   3  17  21   55.90   13.69
   3  17 -21   71.17   14.11
  -3 -17 -21   77.57    9.60
   3 -17 -21   89.45    9.69
  -3 -17 -23    0.41    3.04
   3 -17 -23    1.53    2.95
   3 -17 -23    0.27    3.97
   3  17 -23    2.27    2.57
  -3 -17 -23    0.38    2.64
   3  17 -25    0.31    2.65
   3 -17 -25    2.47    3.73
  -3 -17 -25    0.84    3.63
  -3 -17 -25    1.40    4.36
   3 -17 -25    0.22    3.22
   3  17 -27   47.76    7.42
  -3 -17 -27   39.94    7.31
   3 -17 -27   47.21    7.54
   3 -17 -27   44.83    7.81
   3 -17 -29   19.46    4.60
   3  17 -29   31.75    5.27
   3 -17 -29   20.31    5.01
  -3 -17 -29   23.97    4.81
  -3 -17 -31    2.38    3.11
   3  17 -31    0.71    2.41
   3 -17 -31    1.41    2.91
  -3 -17 -33    6.26    3.22
   3 -17 -33    8.77    3.13
   3  17 -33    7.21    2.76
   3 -17 -35   38.39    4.74
   3  17 -35   32.75    4.14
  -3 -17 -35   37.61    4.92
   3 -19  -1  186.81   15.39
  -3 -19  -1  205.81   16.76
   3  19  -1  223.99   18.08
  -3  19   1  235.47   19.05
   3  19   1  198.09   17.28
   3  19   1  184.12   17.64
   3 -19   1  197.99   15.45
   3  19  -1  204.54   18.44
  -3  19  -1  253.66   20.20
  -3 -19   1  189.34   15.78
  -3 -19   3    2.67    7.73
  -3 -19  -3    2.42    7.88
   3 -19  -3    2.38    7.60
   3 -19   3    1.94    7.08
  -3  19  -3    2.17    7.90
   3  19  -3    3.14    8.94
   3  19   3    0.16    6.11
   3  19   3    3.23    8.26
   3 -19  -5  111.30   11.53
   3  19   5   99.62   13.38
  -3 -19   5   97.68   10.79
  -3 -19  -5  120.03   13.05
  -3  19  -5  115.53   15.05
   3  19   5  126.28   13.50
   3  19  -5  115.72   12.81
   3 -19   5   97.47   11.64
   3 -19   7  154.61   17.99
  -3  19  -7  172.19   21.56
   3  19   7  168.18   21.06
  -3 -19   7  165.93   17.46
  -3  19   7  186.32   22.15
   3  19   7  159.62   18.03
   3  19  -7  161.10   18.87
   3 -19  -7  155.83   16.78
  -3 -19  -7  159.86   17.82
  -3 -19  -9  247.56   21.11
   3 -19   9  238.56   22.20
   3  19   9  234.27   21.07
   3 -19  -9  238.34   19.43
  -3 -19   9  248.31   21.34
  -3  19   9  278.26   26.38
   3  19  -9  253.22   24.00
   3  19   9  255.82   25.35
  -3  19  -9  262.08   24.91
   3  19 -11   22.44   10.11
  -3  19 -11   22.63   11.22
   3 -19  11   37.77   11.76
   3  19  11   41.13   13.55
  -3 -19 -11   28.69    9.88
  -3  19  11   28.00   11.82
  -3 -19  11   23.48    8.83
   3  19  11   27.25    9.68
   3  19 -13    4.48    5.33
   3  19  13    6.90    5.00
   3 -19  13    3.77    4.12
   3  19  13    7.24    2.60
   3  19  13    6.38    2.69
  -3  19 -13   19.70    6.20
  -3 -19  13    9.82    4.82
   3 -19 -13   10.08    3.44
   3  19 -13    6.62    2.55
   3  19 -13    4.48    3.59
   3 -19 -15   72.01    8.07
  -3 -19  15   71.34   12.15
   3  19 -15   65.00   12.96
   3 -19  15   47.19   11.28
   3  19  15   52.48    7.43
   3  19 -15   65.27    7.34
  -3  19 -15   57.23   12.13
   3  19  15   57.47   13.63
   3  19  17    4.77    3.14
  -3 -19  17    1.85    6.20
   3 -19 -17    5.31    5.69
  -3 -19 -17    4.77    3.23
  -3  19 -17    5.20    5.00
   3  19 -17    6.65    5.49
   3 -19  17    0.13    5.62
   3  19  17    0.67    6.30
  -3 -19 -17    1.37    2.22
   3  19 -17    3.96    8.17
   3  19  19   40.82   11.84
   3 -19 -19   59.78    7.39
  -3 -19 -19   44.87    7.01
   3  19 -19   50.67   11.79
  -3  19 -19   45.84   11.03
  -3 -19 -19   52.33    7.26
   3 -19 -19   63.08    7.74
   3  19 -19   45.69    6.26
   3  19  21    0.13    6.90
   3 -19 -21   18.62    5.58
   3 -19 -21   23.90   10.66
  -3  19 -21    3.44    3.64
   3  19 -21    9.25    6.42
   3 -19 -21   16.82    5.39
   3  19 -21   23.13    5.88
  -3 -19 -21   15.58    5.62
  -3 -19 -21   17.61    5.01
   3 -19 -23   76.59    9.20
  -3 -19 -23   71.51    9.85
   3  19 -23   81.96    9.12
  -3 -19 -23   71.09    9.11
   3 -19 -23   74.53    9.18
   3 -19 -25    0.21    3.13
   3  19 -25    2.96    3.74
   3 -19 -25    1.23    3.33
  -3 -19 -25    2.94    3.70
   3 -19 -27   24.90    5.66
   3  19 -27   27.75    5.52
  -3 -19 -27   26.78    5.56
   3 -19 -27   28.12    6.07
   3 -19 -29   28.21    5.77
   3  19 -29   27.17    4.77
  -3 -19 -29   17.93    4.56
   3 -19 -29   21.09    4.43
  -3 -19 -31    0.30    2.59
   3  19 -31    0.43    2.34
   3 -19 -31    1.15    2.83
   3  19 -33    6.00    2.73
  -3 -19 -33    3.65    2.97
   3 -19 -33    6.64    3.38
  -3 -21   1  116.07   13.40
   3 -21   1  132.98   14.29
   3  21   1  132.35   15.09
  -3  21  -1  160.93   17.53
   3  21   1  121.68   15.80
  -3  21   1  142.57   16.89
   3  21  -1  123.93   14.54
   3  21  -1  136.11   15.99
   3 -21  -1  137.74   14.86
  -3 -21  -1  126.91   13.94
   3  21   3    7.37    6.22
   3 -21   3   17.05    8.65
   3 -21  -3   10.93    7.48
  -3 -21   3   20.52    9.34
  -3  21   3   12.39    8.37
   3  21  -3   10.81    8.73
   3  21   3   19.03    9.00
  -3  21  -3   24.95   11.09
  -3 -21  -3   11.62    7.24
  -3 -21   5  132.96   15.50
  -3  21  -5  158.37   20.24
   3 -21   5  134.32   16.36
   3  21   5  141.55   17.81
  -3 -21  -5  126.93   15.81
   3  21  -5  121.29   15.80
   3 -21  -5  123.33   14.93
   3  21   5  118.25   17.03
  -3  21  -7  309.19   18.39
   3  21   7  346.86   19.43
   3  21  -7  395.50   31.37
  -3 -21  -7  377.93   28.97
   3 -21  -7  361.59   26.87
   3  21   7  440.04   22.09
   3  21  -7  343.76   17.70
   3  21   7  380.62   33.57
   3  21   7  394.16   30.46
   3 -21   7  363.13   28.98
  -3  21  -7  456.51   36.11
  -3 -21   7  364.58   27.61
   3  21   9    2.78    2.29
   3  21  -9    1.12    2.70
  -3  21   9    4.06    2.93
   3  21   9    1.07    5.83
   3 -21  -9    1.48    2.57
  -3 -21   9    1.12    6.44
   3 -21  -9    0.58    4.17
  -3  21  -9    2.57    5.13
   3  21   9    1.05    3.03
   3  21  -9    5.25    3.41
  -3 -21  -9    1.73    4.01
   3 -21   9   10.75    6.55
   3  21  -9    4.80    5.66
   3  21   9    4.33    7.01
   3  21 -11    0.19    2.39
  -3  21  11    0.09    3.07
   3  21 -11    0.58    3.34
  -3 -21  11    1.31    4.80
  -3  21 -11    2.54    8.58
   3 -21  11    5.54    8.24
   3  21  11    7.89    5.47
  -3 -21 -11   12.42    9.06
   3  21 -11    0.78    4.33
   3  21  11    8.04    5.69
   3 -21 -11    0.14    2.95
  -3  21  11    5.53    9.35
   3  21  11    7.09    8.06
   3  21  13   34.70   10.03
   3  21 -13   25.37    8.27
  -3  21 -13   47.01   11.60
   3 -21  13   24.99    7.20
   3  21  13   33.48    5.93
   3 -21 -13   27.73    5.10
   3  21 -13   35.40    5.62
  -3 -21  13   35.49    7.87
   3  21 -13   32.98    5.76
  -3  21  13   45.67    7.25
   3  21  13   38.77    6.68
   3 -21 -15   12.56    4.47
   3  21 -15    5.64    3.82
   3  21  15   12.24    6.63
   3  21  15   12.87    4.88
   3  21 -15    7.01    4.98
  -3  21 -15   12.66    7.75
   3 -21  15    8.92    6.78
   3  21 -15   16.78    4.97
  -3 -21  15   19.37    8.39
   3  21 -17    0.05    2.93
   3 -21  17    0.38    3.66
   3  21 -17    4.10    5.80
   3 -21 -17    3.93    3.18
   3  21  17    0.64    3.99
   3  21  17    0.64    8.42
  -3 -21 -17    0.01    2.74
   3  21 -17    3.68    3.14
  -3 -21 -17    0.02    2.76
  -3 -21 -19    7.99    3.32
   3 -21 -19   17.46    4.93
   3  21 -19   16.36    4.34
  -3  21 -19   18.03    8.29
   3  21  19    7.53    4.43
   3  21 -19   12.86    4.25
  -3 -21 -19   17.54    4.77
   3 -21 -19    9.73    3.41
   3  21 -21  106.95   10.48
  -3 -21 -21   93.25    9.58
   3 -21 -21  116.74   10.78
   3  21 -21  105.65   10.06
  -3 -21 -21   91.45   10.26
   3 -21 -21  111.89   10.67
  -3 -21 -23   28.42    6.59
  -3 -21 -23   22.08    6.60
   3 -21 -23   35.82    7.25
   3  21 -23   27.63    5.96
   3  21 -23   35.30    7.01
   3 -21 -23   33.03    6.42
   3  21 -25    0.27    2.42
   3  21 -25    0.27    3.67
   3 -21 -25    0.22    3.27
  -3 -21 -25    5.97    3.58
   3 -21 -25    0.22    3.04
   3  21 -27   19.74    4.39
   3 -21 -27   19.46    4.96
   3 -21 -27   30.73    5.61
  -3 -21 -27   23.70    5.02
   3 -21 -29   15.63    4.75
  -3 -21 -29   16.46    4.86
   3  21 -29   21.35    4.66
   3 -21 -29   17.92    4.85
   3  21 -31    0.95    2.23
   3 -21 -31    0.64    2.44
  -3 -21 -31    0.18    2.08
   3 -21 -33   12.29    3.16
  -3  21 -33   14.64    3.54
   3  21 -33   13.06    2.82
  -3 -21 -33   14.06    3.10
   3  23  -1   93.84    7.93
  -3  23   1   99.61    8.78
  -3  23  -1  101.54    9.03
   3  23   1   90.04   12.57
  -3 -23   1  108.78   13.77
  -3  23  -1   97.81    8.38
   3  23  -1   94.27   13.29
   3  23   1   97.69    8.28
  -3  23   1   81.12    7.65
   3  23   1  114.11   15.97
   3  23  -1  108.97    9.01
   3 -23  -1  103.47   13.24
   3  23   1  107.89    9.58
  -3 -23  -1  105.27   13.05
  -3  23  -1  105.24   15.31
  -3  23   1  110.50   15.87
   3 -23   1  113.18   14.17
  -3 -23  -3    1.22    7.06
   3  23   3    3.70    5.32
   3  23  -3    6.43    5.82
  -3  23   3    3.33    5.21
   3  23   3    3.41    8.20
  -3  23  -3    1.26    4.94
   3  23  -3    5.01    8.19
   3  23  -3    8.65    6.40
   3 -23  -3    1.31    7.05
  -3  23  -3    3.71    9.17
   3  23   3    5.03   10.53
   3 -23   3    1.88    7.80
  -3  23  -3    1.83    5.17
  -3  23   3    3.82    6.15
   3  23   3    4.72    6.16
  -3  23   3    0.78    5.93
  -3 -23   3    7.04    7.77
   3  23   5   69.02    8.96
  -3  23   5   74.04   10.30
   3  23  -5   71.55    9.11
  -3  23  -5   63.79    9.16
   3  23   5   80.43   14.68
  -3  23   5   74.12   15.64
  -3  23  -5   70.64   16.37
  -3 -23   5   61.35   12.19
   3  23  -5   66.12   13.58
   3 -23  -5   45.19    7.26
   3  23   5   84.28   10.11
  -3 -23  -5   64.70   13.69
  -3  23   5   57.71    8.37
  -3  23  -5   66.42    9.44
   3  23  -5   70.59    9.00
   3 -23   5   67.27   13.70
   3  23   5   51.73   14.11
   3 -23  -5   78.12   14.03
   3 -23   7  134.76   19.27
   3  23   7  124.94   12.80
  -3  23   7  149.32   14.38
  -3 -23  -7  131.67   18.99
   3  23   7  136.56   22.63
   3  23  -7  135.29   12.29
   3 -23  -7  125.87   17.58
  -3  23  -7  142.68   13.71
  -3  23  -7  108.21   11.50
   3 -23  -7  121.03   11.80
   3  23   7  185.93   15.55
   3  23   7  141.66   20.39
  -3  23  -7  144.78   23.16
   3  23  -7  134.16   20.87
  -3 -23   7  135.17   18.35
   3  23  -7  148.83   13.53
  -3  23   7  167.41   23.38
   3  23   9    1.53    3.16
  -3  23   9    0.08    4.08
  -3  23  -9    3.52    3.37
  -3  23  -9    0.59    6.38
   3  23  -9    7.39    3.93
   3  23   9    0.09    6.26
   3  23   9    0.09    3.69
   3  23  -9   11.99    7.88
  -3 -23   9    6.17    5.13
   3 -23  -9    3.38    3.26
  -3  23  -9    1.86    3.34
  -3 -23  -9    1.60    5.39
   3  23  -9    3.12    3.82
   3 -23   9    1.68    6.39
   3  23  11    7.52    5.62
  -3  23  11   19.49    7.67
  -3  23 -11    5.19    5.48
   3  23  11    6.63    8.78
  -3 -23  11    6.54    7.87
   3  23  11   10.98    5.93
   3 -23 -11   11.14    5.73
   3  23 -11   12.31    6.58
   3 -23  11    9.92    9.43
   3  23 -11    7.60    5.23
   3  23 -11    7.85    8.50
  -3  23 -11   21.67   12.91
   3  23 -13   22.28    5.48
  -3 -23  13   41.81    8.19
   3 -23  13   41.26    9.65
   3  23 -13   39.84    5.94
  -3  23  13   45.98    6.92
   3  23  13   47.09    6.57
  -3  23 -13   41.15   11.12
   3  23  13   40.86    9.87
   3  23 -13   42.03    5.51
   3 -23 -13   41.93    5.70
   3  23  13   46.13    6.62
  -3 -23  15   31.48    9.18
   3  23  15   23.44    6.05
   3 -23  15   28.47    9.61
   3  23 -15   25.64    6.12
   3 -23 -15   26.70    5.77
  -3  23 -15   26.35   10.87
   3  23  15    9.02    7.71
   3  23 -15   26.32    5.69
   3  23 -15   14.64    6.86
   3  23 -17    6.49    3.79
   3 -23 -17    6.74    3.18
   3  23  17    0.67    3.69
   3  23 -17    0.09    2.63
  -3 -23 -19   13.47    4.37
   3  23 -19   16.71    5.27
   3 -23 -19   16.68    5.27
   3  23 -19   18.26    4.58
   3 -23 -19   15.48    4.94
   3  23 -21   49.22    7.00
   3  23 -21   61.16    7.51
   3 -23 -21   57.46    7.64
  -3 -23 -21   45.96    7.05
   3 -23 -21   56.83    7.31
  -3 -23 -21   39.82    6.00
   3 -23 -23   36.75    6.24
   3  23 -23   31.41    5.78
   3  23 -23   36.21    5.83
  -3 -23 -23   28.97    5.36
   3 -23 -23   27.02    5.44
   3 -23 -25    1.10    2.96
   3 -23 -25    2.37    2.77
   3  23 -25    3.38    2.99
   3  23 -25    0.71    2.47
  -3 -23 -25    2.48    2.77
   3 -23 -27   18.14    4.60
   3  23 -27   24.05    5.01
  -3 -23 -27   19.21    4.59
   3 -23 -27   23.21    5.04
  -3  23 -29   16.71    3.94
   3 -23 -29   26.56    4.59
   3  23 -29   22.90    4.28
   3 -23 -29   22.08    4.32
  -3 -23 -29   20.42    3.89
  -3 -23 -31    0.02    2.00
   3  23 -31    1.43    2.21
   3 -23 -31    0.19    1.92
   3  25   1   94.41   10.15
  -3  25  -1   82.31   10.28
  -3 -25   1   71.73   14.12
  -3  25   1   66.51   14.88
  -3  25   1   63.66    8.35
   3  25  -1   69.45   13.51
  -3  25  -1   58.83    8.34
  -3  25   1   79.08    9.65
   3  25   1   93.46   10.26
   3  25   1   67.57   13.21
   3  25  -1   75.81    9.47
   3 -25  -1   69.86   14.53
  -3 -25  -1   77.62   15.07
  -3  25  -1   89.49   18.41
   3 -25   1   68.37   14.86
   3  25  -1   71.65    8.85
   3  25   3    0.90    3.29
  -3  25  -3    2.82    3.09
  -3  25  -3    0.16    5.52
   3  25  -3    6.63    6.05
  -3  25   3    1.00    2.76
   3  25  -3    1.72    2.74
  -3 -25  -3    6.93    5.24
   3  25   3    0.58    7.21
  -3  25  -3    1.41    2.82
   3  25  -3    4.47    3.71
  -3 -25   3    6.63    5.32
   3 -25  -3    0.02    7.17
  -3  25   3    6.81    7.27
  -3  25   3    0.12    3.71
   3  25   3    1.14    3.15
   3 -25  -3    3.06    3.78
   3 -25   3    1.92    7.90
   3  25   5   34.72    8.11
  -3  25   5   48.73    8.39
  -3  25   5   43.07   12.40
   3  25  -5   38.14    7.51
   3  25   5   29.92   10.69
  -3  25  -5   42.83    8.13
  -3 -25   5   36.82   10.47
   3 -25  -5   40.34   10.86
  -3  25  -5   30.77    6.94
  -3  25  -5   47.88   14.19
   3  25   5   46.86   15.92
   3 -25   5   52.56   13.93
   3  25  -5   38.24    7.73
   3  25  -5   24.15    9.85
   3  25   5   35.25    8.10
  -3 -25  -5   35.20   10.88
   3 -25  -5   35.69    7.06
   3  25   7   11.62    5.44
  -3  25   7    9.43    5.57
  -3  25   7   11.89    9.70
   3  25  -7    9.72    4.96
  -3  25  -7    4.85    4.70
  -3 -25   7    2.19    4.48
  -3  25  -7    9.38    9.36
   3 -25   7    2.69    7.72
  -3 -25  -7   10.23    8.57
   3  25   7    8.03    5.07
   3  25  -7   14.02    5.79
   3 -25  -7   12.27    8.57
   3 -25  -7    5.78    4.48
  -3  25  -7    4.39    4.36
   3  25  -7    4.60    7.21
   3  25   7    4.84    9.11
   3  25   9   54.41    7.67
  -3  25   9   59.68    8.51
  -3  25   9   42.44    8.27
   3 -25  -9   46.93    6.57
   3  25  -9   47.34    6.32
   3  25  -9   47.42   11.42
  -3  25  -9   31.93    9.07
  -3 -25   9   35.22    7.97
   3  25   9   25.62    9.26
  -3  25  -9   38.05    5.71
   3  25   9   49.83    7.24
  -3 -25  -9   37.48    8.11
   3 -25   9   31.51    8.65
   3  25  -9   49.02    6.56
   3  25   9   47.96    6.91
  -3  25  -9   43.34    6.92
   3  25  11   68.54    9.40
  -3  25  11   97.42   11.53
  -3 -25  11   60.25   11.40
   3  25 -11   77.76    9.13
  -3  25 -11   69.30    9.07
   3  25 -11   67.79    8.21
  -3  25  11   52.34   12.07
   3  25  11   71.93    9.19
   3 -25  11   61.55   13.13
   3  25 -11   61.78   13.86
   3 -25 -11   72.13    8.82
  -3  25 -11   75.09   16.13
   3  25  11   72.02   15.76
   3  25 -13   29.90    5.80
  -3  25  13   36.15    7.21
   3  25  13   28.73    6.32
  -3  25  13   22.52    6.72
   3  25 -13   41.75    7.31
  -3  25 -13   33.75    6.50
   3 -25 -13   33.65    6.34
   3  25 -15   32.65    5.62
  -3  25 -15   33.93    6.84
   3  25  15   39.70    7.15
   3  25 -15   32.82    5.76
   3 -25 -15   30.23    5.88
  -3  25 -17    0.29    3.54
   3  25 -17    0.95    3.17
   3  25  17    1.31    2.85
   3  25 -17    0.34    3.62
   3 -25 -17    0.02    2.86
   3 -25 -17    1.90    3.79
  -3  25 -19   37.93    6.51
   3  25 -19   43.12    6.74
   3 -25 -19   52.00    7.38
   3  25 -19   36.06    5.76
   3 -25 -19   45.27    6.70
   3  25 -21    7.55    3.52
  -3  25 -21   11.51    3.86
   3 -25 -21   10.44    3.45
   3  25 -21   18.83    4.62
   3 -25 -21   15.89    4.30
   3 -25 -23   18.41    4.49
  -3  25 -23   26.27    5.24
   3  25 -23   17.28    4.18
   3  25 -23   16.65    3.64
   3 -25 -23   24.15    4.95
   3  25 -25    3.16    1.90
   3  25 -25    0.26    3.06
  -3  25 -25    2.48    2.84
   3 -25 -25    2.56    3.00
   3 -25 -25    6.38    2.76
  -3  25 -27   35.95    5.24
   3 -25 -27   26.04    4.85
   3  25 -27   35.00    5.09
   3 -25 -27   37.99    5.31
   3  25 -29   24.78    4.04
  -3  25 -29   23.00    4.55
   3 -25 -29   23.90    4.39
  -3  27  -1   48.28    6.45
  -3  27   1   26.63    6.07
  -3  27  -1   87.78   15.47
  -3 -27   1   37.31    6.83
   3  27  -1   25.34    6.05
   3 -27  -1   34.00    7.31
   3 -27   1   54.75   10.40
   3  27   1   65.63   11.98
  -3  27   1   41.75    5.25
   3  27   1   57.22    6.45
  -3  27   1   37.87    4.44
   3  27   1   48.30    6.61
  -3 -27  -1   29.14    5.15
  -3  27  -1   52.25    6.59
   3  27  -1   38.75    4.92
   3  27  -1   52.46    5.99
  -3  27  -3    0.19   10.06
  -3  27   3    0.10    3.71
   3 -27  -3    6.73    7.43
   3  27  -3    0.00    3.12
  -3  27  -3    0.06    3.23
  -3  27   3    2.51    4.05
  -3 -27   3    2.35    5.92
  -3  27  -3    2.38    3.48
   3  27   3    2.36    7.64
  -3  27   3    0.59    5.22
   3  27  -3    1.94    6.71
   3 -27   3    1.78    4.37
  -3 -27  -3    2.25    5.83
   3  27   3    2.25    3.94
   3  27   3    0.65    3.92
   3  27  -3    1.94    3.65
   3  27  -5   53.23    7.66
   3  27   5   38.39    6.86
   3 -27  -5   35.84    6.03
  -3  27   5   39.39    6.68
   3  27  -5   42.41    6.59
  -3 -27   5   29.56    8.26
  -3  27  -5   36.14   10.72
   3 -27  -5   36.61    8.39
  -3  27  -5   35.16    6.47
   3  27  -5   34.61    9.77
  -3  27   5   44.78   11.77
  -3 -27  -5   53.56   11.90
   3 -27   5   51.92   11.59
  -3  27  -5   38.56    5.54
   3  27   5   53.11    8.55
   3  27   7   40.42    7.65
   3  27  -7   37.50    7.43
  -3  27  -7   32.91    7.32
   3  27  -7   28.14    8.61
  -3 -27  -7   29.28    8.85
  -3  27  -7   25.92    6.01
   3 -27  -7   34.05    6.85
  -3  27   7   43.85    8.37
   3  27  -7   46.34    7.88
   3  27   7   35.10    7.28
  -3  27   7   46.60   14.69
   3  27  -9    2.06    3.78
  -3  27  -9    6.15    4.11
   3 -27  -9    0.27    2.91
   3  27   9    1.76    3.39
   3  27  -9    1.40    3.26
   3  27   9    2.37    3.90
  -3  27  -9    1.31    3.76
  -3  27   9    1.63    3.85
  -3  27  11    3.11    4.85
   3  27  11    0.36    5.02
   3  27 -11    0.51    2.96
   3  27 -11    1.14    3.05
  -3  27 -11    0.41    5.08
   3 -27 -11    0.13    3.16
   3  27  11    0.36    3.72
   3  27 -13   96.15    8.61
   3  27 -13  101.39    9.11
   3 -27 -13  100.68    9.20
   3  27  13   87.54    9.19
  -3  27 -13   84.37    8.65
  -3  27  13  102.02   10.60
   3 -27 -15   12.48    5.06
  -3  27 -15   15.73    6.22
   3  27 -15   11.05    4.40
   3  27 -15   13.93    5.66
   3  27  15   13.62    5.75
   3 -27 -17    4.11    3.51
   3  27 -17    3.07    3.87
   3  27 -17    1.57    3.79
  -3  27 -17    4.19    4.50
   3  27  17    0.96    3.87
   3 -27 -17    1.64    3.21
  -3  27 -19   14.27    5.69
   3  27 -19   12.73    4.32
   3  27 -19   18.94    5.20
   3 -27 -19   14.15    4.92
   3 -27 -19   13.51    4.45
   3  27 -21   90.08    8.92
  -3  27 -21   83.75    9.81
   3 -27 -21   99.54    9.68
   3  27 -21   95.64    9.52
   3 -27 -21   88.09    9.73
   3  27 -23    0.90    2.10
   3 -27 -23    0.07    3.25
  -3  27 -23    0.50    3.09
   3  27 -23    3.00    2.80
   3 -27 -23    1.75    2.83
   3  27 -25    1.49    2.52
   3 -27 -25    0.26    2.49
   3 -27 -25    2.89    2.74
   3  27 -25    0.18    1.65
  -3  27 -25    0.20    2.55
   3 -27 -27   24.45    4.48
   3  27 -27   27.88    4.25
  -3  27 -27   30.70    5.10
   3 -27 -27   29.90    4.67
   3  29   1   55.25    7.91
  -3  29   1   58.90    8.21
  -3  29  -1   55.30    8.18
  -3  29  -1   63.83    8.20
  -3  29   1   47.17    6.61
   3  29   1   60.27    8.16
   3  29  -1   51.08    7.10
   3  29  -1   60.05    7.71
   3  29   3    0.22    3.60
  -3  29   3    3.21    3.90
   3  29  -3    4.67    4.52
   3  29  -3    1.90    3.89
  -3  29  -3    2.73    3.94
  -3  29  -3    0.42    3.53
   3  29   3    1.32    3.79
   3  29   5   29.70    5.95
  -3  29  -5   35.62    6.61
   3  29   5   36.51    6.42
  -3  29  -5   30.62    5.77
   3  29  -5   41.16    6.82
  -3  29   5   40.50    7.11
   3  29  -5   37.23    5.88
   3  29   7   38.07    8.80
   3  29  -7   50.21    9.15
  -3  29   7   49.58    9.33
  -3  29  -7   34.56    7.85
   3  29  -7   46.48    8.84
   3  29   7   42.41    8.66
  -3  29  -7   31.41    6.91
   3 -29  -7   36.76    7.63
   3  29   9   12.50    5.70
   3  29  -9    4.70    4.06
  -3  29   9   12.49    5.49
   3 -29  -9    6.81    4.74
   3  29  -9   13.51    5.27
  -3  29  -9    4.04    3.49
   3  29   9    8.48    5.26
  -3  29  -9    4.56    3.86
  -3  29  11   11.78    4.97
   3 -29 -11   19.90    5.46
  -3  29 -11    8.13    4.64
   3  29 -11   11.11    4.04
   3  29 -11    7.56    3.95
   3  29  11   10.11    4.03
   3  29  11    7.65    4.47
   3  29 -13   13.73    3.84
   3 -29 -13    4.50    2.99
   3  29  13   10.98    2.98
  -3  29 -13   19.75    4.86
   3  29 -13   19.52    4.72
   3  29 -15   44.71    7.44
  -3  29 -15   58.81    8.78
   3 -29 -15   48.88    7.59
   3  29 -15   69.83    9.02
   3  29  15   65.31    9.33
   3 -29 -15   55.16    8.10
   3  29 -17   13.02    4.74
   3 -29 -17    1.92    3.04
  -3  29 -17    6.39    4.07
   3  29  17    2.29    3.05
   3  29 -17    5.06    3.35
   3 -29 -17    5.88    3.38
   3  29 -19   15.45    3.77
  -3  29 -19   25.53    5.79
   3  29 -19   19.18    4.92
   3 -29 -19   22.32    5.02
   3 -29 -19   22.30    5.09
   3  29 -21   33.58    5.35
  -3  29 -21   37.97    6.60
   3  29 -21   48.34    6.62
   3 -29 -21   41.99    6.40
   3 -29 -21   36.73    6.26
   3  29 -23   13.21    3.03
   3  29 -23   11.00    3.31
   3 -29 -23   10.70    3.54
  -3  29 -23   10.01    3.24
   3 -29 -23   11.52    3.70
  -3  29 -25   17.46    3.43
   3 -29 -25   16.92    3.58
   3  29 -25   14.83    2.87
   3 -29 -25   18.08    3.59
  -3  31  -1   51.64    8.85
   3  31  -1   45.30    7.60
  -3  31   1   56.15    8.77
   3  31   1   55.26    8.47
   3  31  -1   44.15    7.32
   3  31   1   46.06    7.96
   3  31   3   12.18    5.52
   3  31  -3   15.69    6.05
  -3  31   3   14.16    5.65
  -3  31  -3    8.61    4.36
   3  31  -3   14.47    5.49
   3  31   3   11.29    5.53
  -3  31  -3   13.30    5.69
   3  31   5   11.27    5.99
   3  31  -5   12.58    5.28
  -3  31  -5   15.44    6.42
  -3  31   5   14.50    5.27
  -3  31  -5   11.59    5.14
   3  31  -5   12.86    5.58
   3  31   5   11.91    5.64
  -3  31   7   65.53    9.90
   3  31  -7   64.85    8.83
  -3  31  -7   63.31    9.01
   3  31   7   57.78    8.67
  -3  31  -7   47.95    7.15
   3  31  -7   65.93    8.81
   3  31   7   62.72    9.44
  -3  31   9   32.68    5.50
   3  31   9   30.33    5.90
   3  31  -9   29.89    5.13
   3  31  -9   30.25    5.32
  -3  31   9   27.53    5.62
   3  31   9   32.12    5.70
  -3  31  -9   21.56    4.65
  -3  31 -11    1.36    3.32
   3  31 -11    6.25    4.37
   3  31  11    5.57    4.17
   3  31 -11    7.92    4.21
  -3  31  11    4.19    4.69
   3  31 -13   44.59    6.54
  -3  31 -13   49.50    7.43
   3  31 -13   49.09    6.95
   3  31  13   45.93    7.28
   3 -31 -13   49.93    7.35
   3 -31 -13   38.65    6.37
   3  31 -15   40.98    5.77
   3  31  15   40.69    6.07
   3  31 -15   50.27    6.55
   3 -31 -15   42.14    6.25
  -3  31 -15   50.24    6.57
   3 -31 -15   42.89    6.02
   3 -31 -17    0.12    2.63
   3  31 -17    1.72    2.36
  -3  31 -17   11.59    4.07
   3  31  17    5.64    2.83
   3  31 -17    6.16    3.48
   3 -31 -17    0.12    2.53
   3  31 -19    1.07    2.11
   3 -31 -19   10.68    3.66
   3  31 -19   11.88    3.51
  -3  31 -19    2.01    2.70
   3 -31 -19   11.89    3.09
   3 -31 -21   21.27    4.05
   3  31 -21   13.63    2.93
   3 -31 -21   19.14    3.79
  -3  31 -21   14.97    3.60
   3  31 -21   17.08    3.79
  -3  31 -23   17.50    3.28
   3 -31 -23   12.13    2.46
   3  31 -23   12.52    2.63
   3 -31 -23   20.76    3.22
   3  31 -23    9.93    1.98
   3  33  -1   44.98    5.62
   3  33   1   36.52    5.91
   3  33  -1   52.46    6.88
  -3  33  -1   47.40    6.82
   3  33   1   39.69    5.53
  -3  33   1   44.56    6.45
   3  33  -3    3.51    4.62
  -3  33  -3    2.27    3.65
   3  33   3    4.53    4.11
  -3  33   3    0.16    3.50
   3  33  -3    2.52    3.11
   3  33   3    3.27    4.39
   3  33   5    0.01    3.68
   3  33   5    0.29    3.64
  -3  33   5    0.22    3.45
   3  33  -5    2.76    3.62
   3  33  -5    0.23    3.16
  -3  33  -5    2.92    3.96
   3  33   7   92.06   10.08
  -3  33   7  115.30   11.24
   3  33  -7  101.02    9.75
   3  33   7  114.93   10.71
   3  33  -7   92.79    9.17
  -3  33  -7   99.54    9.88
   3  33  -9   37.52    6.67
   3  33   9   40.74    7.33
  -3  33   9   35.03    6.80
   3  33  -9   41.65    7.06
  -3  33  -9   41.42    7.42
  -3  33   9   51.38    8.57
   3  33  11   17.58    4.71
   3  33 -11   10.26    3.49
   3  33 -11   12.11    3.55
  -3  33 -11   12.44    3.94
   3 -33 -11    4.35    2.93
  -3  33 -13   32.44    5.45
   3  33 -13   48.16    6.33
   3  33  13   38.11    5.77
   3  33 -13   41.61    5.90
   3 -33 -13   43.15    5.91
   3  33 -15   40.34    5.93
  -3  33 -15   40.42    6.26
   3  33  15   42.81    6.32
   3 -33 -15   48.93    6.59
   3  33 -15   42.18    6.14
   3  33 -17    1.61    2.11
   3  33 -17    1.89    2.09
   3 -33 -17    1.18    2.28
   3  33 -19   17.27    3.12
  -3  33 -19   15.55    3.57
   3  33 -19    9.58    2.35
   3 -33 -19    9.83    2.20
   3  35  -1   12.64    4.04
  -3  35   1   13.94    4.62
   3  35   1   13.76    4.59
   3  35   1   15.71    4.67
   3  35  -1    7.95    3.57
  -3  35  -1   12.27    4.32
   3  35  -1   19.89    4.97
  -3  35   3   27.92    5.91
   3  35  -3   32.41    5.90
  -3  35  -3   23.55    5.51
   3  35   3   24.03    5.72
   3  35  -3   40.75    6.90
   3  35  -3   25.48    5.21
   3  35   3   34.43    6.42
  -3  35   5   54.83    7.42
   3  35   5   48.29    6.91
   3  35  -5   44.17    6.52
   3  35   5   59.39    7.64
   3  35  -5   45.24    6.00
  -3  35  -5   40.73    6.35
  -3  35   5   47.18    6.70
  -3  35  -7   18.86    5.01
  -3  35   7   31.81    6.06
   3  35  -7   30.17    5.04
   3  35   7   33.80    6.34
   3  35  -7   23.58    5.02
  -3  35   7   28.72    5.38
   3  35  -9   14.10    3.65
  -3  35  -9   14.44    4.20
   3  35  -9   14.28    3.79
   3  35   9    8.67    3.87
  -3  35 -11    1.81    2.69
   3  35  11    4.03    3.71
   3  35 -11    0.03    2.37
   3  35 -11    0.03    2.21
   3  35 -13   61.95    5.95
   3  35  13   69.98    6.73
   3  35 -13   57.48    5.60
   3  35 -13   68.68    6.14
  -3  35 -13   77.72    7.01
   3  35 -15    8.70    2.86
   3  35 -15    5.30    2.19
  -3  35 -15    8.60    3.11
   3  35 -15    6.62    2.60
   3  37   1   30.05    4.78
   3  37  -1   27.62    4.93
  -3  37  -1   29.55    4.67
   3  37   1   27.91    4.45
   3  37  -1   27.18    4.57
  -3  37   1   34.59    5.32
  -3  37   3    0.26    2.87
   3  37  -3    6.97    2.89
  -3  37  -3    3.22    2.68
   3  37  -3    0.13    2.32
   3  37   3    0.45    3.23
  -3  37   3    1.14    2.22
   3  37   3    5.76    3.15
   3  37  -5   12.57    3.56
  -3  37  -5    9.02    3.49
  -3  37   5   12.39    3.45
   3  37  -5   18.10    4.31
   3  37   5   16.69    4.20
  -3  37   5   10.60    3.39
   3  37  -7   20.22    4.01
  -3  37  -7   19.10    4.01
   3  37  -7   18.25    3.89
   3  37   7   24.08    4.34
   3  37  -7   21.43    4.18
  -3  37   7   15.57    3.31
  -3  37  -9   10.06    2.75
   3  37   9    7.90    2.90
   3  37  -9    4.86    1.97
   3  37  -9    3.64    1.74
   3  37  -9   10.35    2.55
   4   0   0  263.89    9.07
   4   0  -2  632.28   14.52
   4   0   2  681.25   13.42
   4   0   4  253.12    7.68
  -4   0  -4  249.45    5.40
   4   0  -6 1478.81   35.75
  -4   0  -6 1389.78   20.74
   4   0  -8   28.20    9.73
   4   0  -8   28.30   10.01
  -4   0  -8    9.04   10.74
  -4   0  -8    4.85    5.90
   4   0 -10 1025.04   27.62
   4   0 -10  939.57   26.38
  -4   0 -10  999.61   21.97
   4   0 -12   15.24    7.94
   4   0 -12   21.41    8.36
  -4   0 -12   39.22    9.83
  -4   0 -12   33.61    7.14
  -4   0 -14    6.26    6.71
  -4   0 -14    3.15    8.17
   4   0 -14    5.06    4.49
   4   0 -14    6.91    3.11
   4   0 -16  455.60   25.41
  -4   0 -16  416.67   25.48
   4   0 -16  490.99   24.86
  -4   0 -16  451.24   24.25
   4   0 -18  417.01   26.24
  -4   0 -18  347.18   24.12
  -4   0 -18  350.43   24.52
   4   0 -18  416.47   24.58
   4   0 -20  434.08   28.52
  -4   0 -20  402.99   26.99
   4   0 -20  431.96   26.84
   4   0 -22  332.43   24.24
   4   0 -22  312.75   21.74
  -4   0 -22  295.47   21.56
   4   0 -24   45.20    6.91
   4   0 -24   56.97   12.32
  -4   0 -24   45.56   11.10
  -4   0 -24   52.66    8.14
   4   0 -24   31.13    5.95
  -4   0 -26    1.14    5.56
   4   0  26    2.99    8.61
   4   0 -26    2.39    5.23
  -4   0 -28  186.98   16.20
   4   0 -28  184.73   14.97
   4   0 -28  184.27   14.87
   4   0 -30  195.32   15.97
  -4   0 -30  176.40   15.66
   4   0 -30  207.28   15.46
   4   0 -32  111.07   12.38
   4   0 -32  115.43   11.98
   4   0 -34  201.30   14.83
   4   0 -34  223.09   14.46
   4   0 -36   75.45    8.15
   4   0 -38   43.42    5.92
   4   2   0  443.92   18.59
   4  -2   0  379.19   17.76
   4  -2   0  383.74   18.46
   4   2   0  438.32   18.13
   4   2   2    8.45    7.28
   4   2  -2    6.92    6.23
   4  -2   2    8.80    8.09
   4   2   2   10.54    8.95
   4   2  -2    6.08    6.69
  -4   2  -4  105.37    6.99
   4   2  -4  130.93    7.00
   4  -2   4  130.16    9.85
   4  -2   4   83.69    5.23
   4   2  -4  159.44    9.65
  -4   2  -6  152.99    4.77
   4  -2  -6  141.77    6.18
  -4   2  -6  155.29    6.61
  -4  -2  -6  157.07    6.43
   4   2  -6  153.29    6.20
   4  -2   6  149.16    6.17
   4  -2  -8  582.97   23.59
   4   2  -8  627.37   24.02
   4   2  -8  669.19   24.97
   4  -2  -8  716.30   25.60
  -4  -2  -8  608.53   24.54
  -4   2  -8  577.72   24.31
  -4   2  -8  608.14   18.80
   4  -2   8  585.51   21.48
  -4   2  10   27.79    2.13
  -4   2 -10   36.74    5.54
  -4  -2 -10   23.97    4.34
  -4   2 -10   33.94    3.62
   4   2 -10   31.49    4.20
   4  -2 -10   35.83    5.01
   4   2 -10   33.04    4.72
  -4  -2  10   32.35    3.32
   4  -2 -10   22.34    3.60
  -4   2 -12    6.39    4.24
  -4  -2  12    1.00    2.08
   4   2 -12    8.21    5.37
   4   2 -12    8.65    5.38
  -4   2 -12    5.52    5.78
  -4  -2 -12    5.94    5.34
   4  -2 -12    5.85    5.02
   4  -2 -12    5.43    4.79
  -4  -2 -12    7.09    4.39
  -4   2  12    6.55    3.00
  -4   2 -14    6.98    3.72
  -4  -2 -14    3.09    4.61
   4   2 -14    3.61    3.78
   4  -2 -14    6.17    3.91
  -4   2 -14    5.02    4.26
   4   2 -14    3.30    3.66
  -4   2  14    3.33    2.06
   4  -2 -14    7.06    3.91
  -4  -2 -14    6.30    3.54
   4  -2 -16   11.97    5.25
   4   2 -16   10.62    4.15
  -4   2 -16    4.40    3.43
  -4  -2 -16    5.41    4.35
   4   2 -16    7.14    4.01
   4  -2 -16    4.78    4.32
  -4   2 -16    9.57    4.59
  -4   2 -18  338.41   21.86
   4   2 -18  365.70   22.71
   4  -2 -18  381.74   24.97
  -4   2 -18  332.19   22.83
  -4  -2 -18  328.93   22.76
   4  -2 -18  404.72   23.89
   4   2 -18  361.76   23.78
   4   2 -20  322.18   25.18
  -4   2 -20  302.30   23.98
  -4  -2 -20  297.50   24.34
   4  -2 -20  350.61   24.26
   4   2 -20  311.79   22.62
   4  -2 -20  334.50   26.03
  -4   2 -20  306.28   24.13
  -4  -2 -22  195.76   19.97
   4   2 -22  191.24   18.37
   4  -2 -22  235.77   20.66
  -4   2 -22  207.48   20.22
   4   2 -22  222.66   22.06
   4   2  22  219.47   22.91
  -4  -2 -24   47.24    5.80
   4  -2 -24   42.69    4.47
  -4  -2 -24   46.47    8.31
   4   2 -24   54.12    9.32
   4   2  24   57.32    9.47
   4   2 -24   50.46    5.12
   4   2 -24   46.03    5.05
   4  -2 -24   47.31    4.97
  -4   2 -24   47.98    7.99
  -4   2 -24   52.69    6.14
   4   2 -26   27.13    4.96
  -4   2 -26   21.17    7.60
   4  -2 -26   25.78    5.31
  -4  -2 -26   21.52    4.56
   4   2 -26   14.37    6.90
   4   2  26   25.96    8.48
  -4   2 -26   26.00    5.45
   4   2 -26   18.68    4.07
   4  -2 -26   30.24    5.12
   4   2 -28   20.99    5.38
   4  -2 -28   15.51    4.78
   4   2  28    1.86    7.40
   4  -2  28    2.45    5.26
  -4   2 -28   15.39    5.66
   4   2 -28   19.27    5.91
  -4  -2 -28   12.97    4.88
   4   2 -30    3.45    3.67
   4  -2 -30    4.11    4.25
   4  -2 -30    4.11    4.22
  -4  -2 -30    3.35    3.99
  -4  -2 -30    0.96    4.07
   4   2 -30    0.93    3.69
   4  -2 -32  151.16   13.82
   4   2 -32  149.21   13.13
   4   2 -32  146.14   14.02
   4  -2 -32  156.59   13.40
  -4  -2 -32  150.16   15.04
   4   2 -34   98.71    8.99
   4  -2 -34   80.84    8.92
   4   2 -34   70.72    8.35
   4  -2 -34   88.09    8.44
   4  -2 -36  101.38    9.89
   4   2 -36  103.00    9.18
   4  -2 -36  105.12    9.49
   4   2 -38    4.80    3.11
   4  -2 -38    2.90    2.84
   4   4   0  771.91   32.48
   4   4   0  736.81   32.26
   4   4   0  718.85   27.01
   4   4   2   78.91    6.44
   4  -4   2   80.73    6.06
   4   4  -2   60.44    5.54
   4  -4  -2   67.46    5.42
   4   4   2   87.11    6.75
   4   4   2   97.32    4.50
   4   4  -2   72.02    6.07
   4  -4  -4  287.66   15.57
  -4   4  -4  210.58   15.46
   4  -4   4  237.99   19.13
   4   4   4  259.07   19.48
   4   4  -4  269.33   16.13
  -4  -4  -4  226.84   16.44
   4   4  -4  333.76   19.58
   4  -4  -6  127.64    4.25
   4   4   6  150.93    7.38
  -4   4  -6  147.77    6.75
  -4  -4  -6  130.88    6.24
   4  -4   6  147.03    6.23
  -4   4  -6  144.67    5.65
  -4   4   6  140.37    3.73
   4   4  -6  155.89    7.22
   4   4  -8  583.21   22.65
  -4   4   8  431.37   12.04
  -4   4  -8  442.49   21.62
  -4  -4  -8  487.16   21.31
   4  -4   8  516.87   21.53
  -4  -4   8  524.14   18.25
  -4   4  -8  456.64   18.97
   4   4   8  466.88   22.45
   4   4  -8  561.97   23.14
   4  -4  10    0.54    2.84
   4  -4 -10    4.62    4.19
  -4  -4  10    8.06    2.89
  -4   4 -10    1.19    2.35
  -4   4 -10   10.14    4.57
  -4   4  10    2.71    1.43
   4   4 -10    2.51    3.39
  -4  -4 -10    1.99    3.31
   4   4 -10    2.63    3.18
   4   4  10    2.35    3.64
  -4   4 -12    2.20    3.86
   4   4 -12    2.21    3.54
   4   4 -12    2.25    3.29
  -4   4  12    1.52    1.50
  -4  -4 -12    2.25    3.44
   4  -4 -12    0.67    3.81
   4  -4  12    4.57    2.47
  -4   4 -12    2.42    2.90
  -4  -4  12    4.16    2.15
  -4   4  14  125.64    8.41
   4  -4 -14  108.61   11.94
  -4  -4 -14  136.77   12.88
   4   4 -14  138.72   11.80
   4  -4  14  108.28    9.85
  -4   4 -14  138.85   12.90
   4   4  14  132.19   13.05
  -4   4 -14  131.49   11.07
   4   4 -14  125.35   11.87
   4  -4 -16  150.45   15.67
  -4  -4 -16  152.57   16.73
   4   4 -16  145.88   14.86
   4   4  16  150.15   17.43
   4   4 -16  157.91   16.73
  -4   4 -16  141.70   16.96
  -4   4 -16  134.65   14.46
  -4  -4 -18    3.71    3.97
  -4   4 -18   10.80    5.21
  -4   4 -18    6.53    4.44
   4   4 -18   20.25    5.29
   4   4  18    1.18    4.21
   4   4 -18    6.52    3.36
   4  -4 -18    3.55    3.65
   4   4 -20  226.65   19.45
   4   4 -20  221.05   17.81
   4  -4 -20  242.11   19.85
  -4  -4 -20  209.18   19.48
   4   4  20  199.41   19.60
  -4   4 -20  189.18   18.93
  -4   4 -20  177.90   16.56
   4   4 -22   96.00   14.22
   4   4 -22   77.34   12.47
  -4  -4 -22  100.10   14.27
   4  -4 -22  120.99   14.60
  -4   4 -22  103.44   14.64
   4   4 -22   98.76    9.03
   4   4  22   93.10   14.62
  -4   4 -22   92.16    9.91
   4  -4 -24    0.97    2.69
  -4  -4 -24    5.31    5.23
  -4   4 -24    0.09    4.80
   4  -4 -24    3.30    2.75
   4   4 -24    1.01    2.56
   4   4 -24    1.64    5.81
  -4   4 -24    0.09    3.19
   4   4 -24    2.93    3.52
  -4  -4 -24    2.91    3.16
   4   4  24    3.94    5.92
   4   4  26   17.96    5.80
   4   4 -26   16.18    3.56
   4   4 -26    9.84    3.48
  -4   4 -26    5.28    5.23
  -4  -4 -26   18.23    4.89
   4  -4 -26   19.74    3.73
   4  -4 -26   16.07    3.79
   4   4 -26   14.49    6.17
  -4   4 -26    8.64    3.77
   4   4 -28    2.06    2.94
   4   4  28    0.82    5.01
  -4  -4 -28    2.75    4.31
   4   4 -28    1.17    4.69
   4   4 -28    0.57    3.42
   4  -4 -28    0.16    4.01
   4   4 -30   43.07    7.39
  -4  -4 -30   35.54    7.36
   4   4 -30   41.14    7.71
   4  -4 -30   39.12    6.85
   4   4 -32    8.79    4.19
   4   4 -32    2.05    3.46
  -4  -4 -32    0.40    3.53
   4  -4 -32    0.69    4.30
   4  -4 -32    2.22    3.77
  -4  -4 -32    1.75    3.65
   4   4 -34   68.58    7.90
  -4  -4 -34   58.63    8.10
   4  -4 -34   64.47    8.31
   4  -4 -34   67.94    7.91
   4   4 -36   12.94    4.02
   4  -4 -36   14.97    3.67
   4  -4 -36   13.07    4.06
   4   4 -38    1.53    2.35
   4  -4 -38    0.07    2.62
   4   6   0 3257.13   50.41
   4   6   0 3295.53   45.30
   4  -6   0 3347.46   50.21
   4   6   2  173.06   14.32
   4   6  -2  176.28   13.09
   4   6   2  144.77    9.71
   4  -6  -2  167.97   13.47
   4  -6   2  179.82   13.70
   4   6  -2  196.49   13.41
   4   6   4  243.44   27.82
   4  -6   4  264.67   27.31
   4   6  -4  257.95   24.40
  -4  -6  -4  241.68   22.45
   4  -6  -4  280.48   23.70
   4   6   4  181.77   17.41
   4   6  -4  378.78   27.87
  -4   6  -4  176.64   22.40
  -4  -6  -6   46.44    7.81
   4   6  -6   54.41    8.82
   4  -6   6   51.69    9.38
  -4   6   6   56.38    7.02
  -4   6  -6   54.04    8.08
  -4  -6   6   44.80    7.73
  -4   6  -6   43.62    7.54
   4  -6  -6   61.43    6.87
   4   6  -6   55.39    9.50
   4   6   6   46.03    8.88
  -4   6   8  258.70   11.19
   4   6  -8  258.47   14.43
  -4   6  -8  233.48   14.90
  -4  -6   8  246.47   12.69
   4  -6   8  234.67   15.25
  -4   6  -8  243.08   14.17
  -4  -6  -8  251.47   14.12
   4   6  -8  269.21   15.46
   4   6   8  262.47   15.73
   4  -6  -8  237.73    9.82
  -4   6  10   19.69    4.28
   4   6 -10   25.33    6.55
   4  -6  10   25.03    6.66
  -4  -6 -10   29.28    7.35
  -4   6 -10   21.65    6.11
  -4  -6  10   24.72    5.54
  -4   6 -10   19.47    6.84
   4   6 -10   25.39    6.85
   4   6  10   17.88    6.71
   4   6 -12  131.53   10.19
   4  -6  12  120.86   10.11
  -4   6 -12  125.03   10.14
  -4   6 -12  113.24   10.76
  -4   6  12  126.39    7.89
  -4  -6  12  131.07    8.09
  -4  -6 -12  130.31   10.85
   4   6  12  110.30   10.87
   4   6 -12  147.63   11.53
   4   6 -14  930.82   30.20
   4   6  14  929.36   33.71
   4  -6  14  825.08   28.08
  -4   6 -14  954.68   31.52
   4  -6 -14  981.12   34.85
  -4  -6 -14  968.13   32.99
  -4   6 -14  966.12   33.85
  -4  -6  14  878.76   23.28
   4   6 -14  915.07   32.14
  -4   6 -16  187.12   15.37
   4   6 -16  186.79   14.93
   4  -6 -16  201.25   17.76
  -4  -6 -16  182.82   16.08
  -4   6 -16  188.39   16.83
   4  -6  16  154.15   13.19
   4   6  16  184.40   17.23
   4   6 -16  196.59   16.53
  -4   6 -18   92.98   11.05
   4  -6 -18  128.10   14.18
   4   6 -18   99.76   11.39
  -4   6 -18   92.28   12.34
  -4  -6 -18   99.62   12.28
   4   6  18  110.37   13.35
   4   6 -18  107.56   12.31
  -4  -6 -20   37.70    9.75
   4  -6 -20   40.91    9.71
   4   6 -20   38.01    9.03
  -4   6 -20   35.93    8.99
   4   6 -20   35.61    9.23
  -4   6 -20   26.33    8.65
   4   6  20   42.35   10.39
   4   6 -22   10.94    3.31
   4  -6 -22   10.92    3.16
  -4   6 -22   13.95    5.55
   4   6  22    5.69    4.87
  -4  -6 -22   19.50    7.27
   4  -6 -22    6.44    5.36
   4   6 -22   15.51    5.54
   4  -6 -22   11.82    3.20
  -4  -6 -22    8.79    2.95
   4   6 -24    1.27    2.43
   4   6  24    2.41    5.07
  -4   6 -24    2.37    5.86
   4  -6 -24    0.25    2.56
   4   6 -24    2.37    5.44
   4   6 -24    2.37    3.19
  -4  -6 -24    2.41    2.79
   4  -6 -24    0.10    2.41
   4   6 -26   13.15    3.68
   4   6  26   22.71    8.89
   4   6 -26   13.99    4.73
  -4   6 -26    7.24    4.61
   4   6 -26   13.21    5.76
   4  -6 -26   11.78    3.92
  -4  -6 -26   15.40    4.93
   4  -6 -26    7.48    3.76
  -4  -6 -28   14.62    5.11
   4   6  28   26.70    9.62
   4   6 -28   13.71    5.85
   4  -6 -28    8.22    3.36
   4   6 -28    7.38    3.69
   4   6 -28   15.14    4.87
   4  -6 -28   11.11    4.02
  -4  -6 -30   66.79   10.32
   4  -6 -30   73.70    9.61
   4   6 -30   66.80    9.43
   4   6 -32   31.69    5.88
  -4  -6 -32   35.73    7.38
   4  -6 -32   23.90    5.68
   4   6 -34   10.31    3.73
  -4  -6 -34    8.11    2.90
   4  -6 -34    2.52    3.42
  -4  -6 -34    5.15    3.54
   4  -6 -34    6.00    3.20
   4  -6 -36    0.12    2.85
   4  -6 -36    0.12    3.06
   4   6 -36    0.11    2.59
   4  -6 -38    2.73    2.39
   4  -6 -38    1.42    2.25
   4   6 -38    1.79    1.98
   4  -8   0  628.68   24.53
   4   8   0  638.27   23.68
   4   8   0  611.77   20.69
   4  -8   2  977.20   33.23
  -4  -8   2  955.87   33.03
   4  -8  -2  956.37   32.80
   4   8   2  935.14   34.25
   4   8   2  814.26   27.08
   4   8  -2  936.53   31.07
  -4  -8  -2  814.97   22.23
   4   8  -2  882.30   31.72
   4   8  -4   21.23   12.54
   4   8  -4   17.02   11.73
  -4  -8   4   15.19   11.42
   4  -8  -4   15.96   10.81
   4   8   4   10.17   11.85
   4  -8   4   13.62   11.74
  -4   8  -4    8.71   10.97
   4   8   4    8.26    8.67
   4   8  -4   12.71   11.50
  -4  -8  -4   13.70    8.98
   4   8  -6  194.88   12.74
  -4   8   6  174.81   11.43
   4   8   6  168.76   13.27
   4   8  -6  181.48   12.62
  -4  -8   6  170.97   11.20
   4  -8   6  172.44   12.71
  -4   8  -6  143.20   10.53
  -4  -8  -6  171.43   10.76
  -4   8  -6  176.53   12.41
   4  -8  -6  176.59   10.25
  -4   8   8   11.12    4.21
   4   8  -8   13.14    5.93
   4  -8   8   13.63    5.52
   4  -8  -8   10.04    3.23
  -4  -8  -8   11.14    4.42
  -4  -8   8   11.54    4.57
   4   8   8   10.84    5.01
  -4   8  -8   15.89    4.52
  -4   8  -8   13.74    4.24
   4   8  -8   11.80    5.38
   4   8 -10    0.10    4.05
  -4  -8  10    0.90    4.35
  -4   8 -10    1.09    3.61
   4  -8 -10    0.18    2.43
   4   8 -10    0.50    3.77
   4   8  10    0.13    5.05
  -4   8  10    0.10    3.46
   4  -8  10    0.22    4.86
  -4   8 -10    0.67    3.88
  -4  -8 -10    0.03    3.79
   4   8 -12 1347.80   38.66
   4   8 -12 1401.21   40.86
  -4   8  12 1376.22   32.50
  -4  -8  12 1316.69   32.48
  -4  -8 -12 1342.56   38.18
  -4   8 -12 1265.36   37.78
  -4   8 -12 1354.96   40.03
   4  -8  12 1321.42   37.64
  -4  -8 -12 1197.54   32.99
   4   8  12 1261.49   40.10
   4   8 -14  583.79   30.96
  -4  -8  14  592.09   26.15
  -4   8 -14  566.42   31.32
  -4  -8 -14  488.43   24.51
  -4   8 -14  605.29   32.91
  -4  -8 -14  580.86   31.57
   4  -8  14  597.91   30.22
   4   8 -14  577.70   32.11
   4   8  14  587.63   33.78
   4   8  16  399.71   23.02
   4   8 -16  417.38   21.42
   4  -8 -16  442.82   25.29
   4  -8  16  321.10   17.88
  -4  -8 -16  386.13   21.26
  -4   8 -16  371.86   21.00
  -4   8 -16  387.67   20.94
   4   8 -16  413.86   22.57
   4   8 -18   67.13    9.87
  -4   8 -18   67.90    9.27
   4  -8  18   51.08    8.26
   4  -8 -18   69.35   11.26
  -4  -8 -18   56.76    9.32
   4   8 -18   82.04   11.50
   4   8  18   79.33   11.82
  -4   8 -18   50.42    8.87
   4   8  20   35.83    6.68
   4   8 -20   34.46    6.65
  -4   8 -20   26.31    6.22
  -4  -8 -20   19.73    4.93
   4  -8 -20   46.23    8.24
  -4   8 -20   40.90    6.83
   4   8 -20   28.65    6.10
  -4   8 -22    7.40    4.84
   4   8 -22   17.67    6.86
   4  -8 -22   12.94    6.03
   4   8  22    7.19    6.64
   4   8 -22   13.33    3.92
  -4   8 -22    6.32    3.98
   4  -8 -22    5.14    2.86
  -4  -8 -22    8.54    3.44
   4  -8 -22    8.11    3.79
   4   8 -24   18.68    6.60
   4  -8 -24   13.15    6.37
   4   8  24   16.67   11.54
  -4   8 -24   10.96    9.66
   4   8 -24    9.44    9.17
  -4  -8 -24   11.22    5.69
   4  -8 -24   14.77    6.36
   4   8 -26    9.04    4.44
   4   8  26   10.97    7.87
   4  -8 -26    7.23    3.94
   4  -8 -26    9.15    4.28
   4   8 -26   18.22    8.20
  -4  -8 -26   13.24    5.13
   4  -8 -28  125.88   10.51
   4   8 -28  144.10   11.04
  -4  -8 -28  146.44   12.06
   4  -8 -28  146.63   11.15
   4   8 -30   54.66    6.82
   4  -8 -30   64.08    7.74
  -4  -8 -30   67.62    8.48
   4   8 -32   25.55    6.37
  -4  -8 -32   16.83    6.33
   4  -8 -32   16.52    5.73
  -4  -8 -34    6.51    3.07
   4  -8 -34    6.20    3.11
  -4  -8 -34   11.63    4.34
   4  -8 -34    8.85    3.88
   4   8 -34   11.24    4.14
   4  -8 -36    0.09    2.97
   4  -8 -36    3.50    3.51
   4   8 -36    1.60    2.77
   4  -8 -38   17.95    3.33
   4  -8 -38   19.94    3.72
   4   8 -38   22.04    3.21
   4 -10   0   11.54   12.17
  -4 -10   0   13.98   12.55
   4  10   0   16.98   13.08
   4  10   0   15.93   11.95
   4  10   2  419.51   13.74
   4 -10  -2  395.48   14.29
  -4 -10   2  426.67   15.13
  -4 -10  -2  372.92    8.36
  -4 -10  -2  410.03   15.18
   4  10  -2  410.90   15.35
   4  10  -2  414.52   14.60
   4  10   2  399.41   15.27
   4 -10   2  392.53   14.78
   4  10   4  258.14   11.02
   4 -10   4  213.07    9.83
  -4  10  -4  242.69   10.39
  -4 -10   4  229.52    9.92
  -4 -10  -4  244.75    6.98
   4  10   4  236.22    8.36
   4  10  -4  240.82   10.58
   4  10  -4  272.17   11.05
  -4 -10  -4  256.82   10.54
   4 -10  -4  260.23   10.27
   4  10   6  138.89   10.58
  -4 -10  -6  134.39    9.58
  -4 -10  -6  136.20    7.20
  -4  10   6  135.93    9.03
  -4  10  -6  139.26    9.60
   4  10   6  123.86    7.41
   4 -10   6  106.25    8.51
  -4 -10   6  132.94    8.66
   4 -10  -6  132.25    8.15
   4  10  -6  143.69    9.47
  -4  10  -6  115.82    7.61
  -4  10   8    6.44    3.66
  -4  10  -8    3.53    4.21
   4 -10  -8    4.58    2.70
  -4 -10  -8    3.97    4.27
  -4 -10  -8    3.50    3.68
   4  10  -8    4.55    4.51
   4  10   8    1.61    4.20
   4 -10   8    1.80    3.56
   4  10  -8    5.60    5.33
  -4 -10   8    8.64    4.65
  -4  10  -8    1.84    3.16
  -4  10 -10  408.94   26.17
  -4 -10 -10  443.49   25.39
   4  10  10  385.01   27.20
  -4  10  10  450.68   24.29
  -4  10 -10  443.26   25.01
   4  10 -10  413.30   25.27
  -4 -10  10  409.92   22.56
   4 -10  10  442.90   25.76
   4 -10 -10  408.33   18.57
   4  10 -10  431.14   26.40
  -4 -10 -10  436.15   23.84
   4  10 -12  691.45   27.59
  -4 -10 -12  653.24   24.91
  -4  10 -12  676.30   26.93
  -4 -10 -12  619.36   23.59
   4  10  12  625.45   28.50
   4 -10  12  671.39   26.52
  -4  10  12  715.45   24.92
  -4  10 -12  604.39   25.78
  -4 -10  12  664.17   23.35
   4  10 -12  664.01   27.88
  -4 -10  14  617.81   22.98
  -4  10 -14  605.14   26.61
   4 -10  14  602.07   25.77
  -4  10 -14  621.92   27.26
   4  10  14  581.83   28.95
   4  10 -14  620.78   26.92
  -4 -10 -14  637.66   26.48
   4  10 -14  614.53   27.24
  -4 -10 -14  511.79   20.48
   4  10  16  266.24   22.93
   4  10 -16  235.82   19.95
   4 -10  16  238.99   18.79
  -4 -10 -16  243.03   19.61
  -4  10 -16  217.48   19.45
   4  10 -16  247.50   20.76
  -4  10 -16  233.85   19.44
   4  10 -18   49.45   10.54
  -4 -10 -18   65.71   10.59
   4 -10 -18   74.09   13.20
  -4  10 -18   58.85   10.67
  -4  10 -18   62.48   11.13
   4  10 -18   75.95   12.36
   4 -10  18   56.51   10.23
   4  10  18   52.87   11.50
   4  10 -20    9.01    5.14
  -4  10 -20    0.61    3.72
   4  10 -20   10.28    2.75
   4 -10 -20    6.88    6.39
   4  10  20    0.51    5.84
   4 -10 -20    4.74    2.34
  -4  10 -20    0.61    4.56
   4 -10 -20    1.51    2.20
   4  10 -22   11.96    3.76
   4 -10 -22   14.42    3.97
  -4  10 -22    5.98    5.25
   4 -10 -22   15.10    5.82
   4  10  22    3.41    5.16
  -4 -10 -22   11.08    3.64
   4 -10 -22    9.28    3.90
   4  10 -22    3.09    4.69
  -4  10 -22   11.40    6.81
  -4 -10 -22    7.22    3.40
   4  10 -24    7.38    2.92
   4  10  24   10.87    6.12
   4  10 -24    3.73    4.27
  -4  10 -24   21.73    8.26
   4 -10 -24    1.74    3.14
  -4 -10 -24   12.02    4.10
   4 -10 -24    6.13    2.72
   4  10 -26   85.14   15.11
   4 -10 -26  107.71   10.37
  -4 -10 -26  102.30   10.52
   4  10  26   86.67   16.07
   4 -10 -26   96.64    9.76
   4  10 -26  111.61   10.03
   4 -10 -28  188.81   13.38
  -4 -10 -28  219.95   15.34
   4  10 -28  220.01   14.26
   4 -10 -28  218.75   14.56
   4  10 -30   59.84    8.41
   4 -10 -30   45.37    7.40
   4 -10 -30   41.08    6.71
  -4 -10 -30   53.20    8.79
  -4 -10 -32    0.84    3.72
   4 -10 -32    2.31    3.74
   4  10 -32    1.45    2.90
   4  10 -34    0.08    3.03
  -4 -10 -34    0.89    3.49
   4 -10 -34    0.90    2.96
  -4 -10 -36    0.09    1.78
  -4 -10 -36    0.09    2.92
   4 -10 -36    0.07    3.23
   4 -10 -36    2.38    2.45
   4  10 -36    0.05    3.07
   4 -10 -38   14.69    3.01
   4 -10 -38   20.92    3.81
   4  10 -38   19.39    3.37
  -4 -12   0   27.51    7.13
   4  12   0   30.80    7.93
   4 -12   0   29.52    6.88
   4  12   0   26.07    6.31
   4 -12  -2    2.08    4.59
   4  12  -2    3.25    5.16
   4  12   2    3.73    4.62
   4 -12   2    4.07    5.55
   4  12  -2    5.86    5.47
  -4 -12   2    7.67    5.95
  -4 -12  -2    6.49    6.44
   4  12   2    2.09    4.87
   4  12   4  137.77   11.80
  -4 -12  -4  134.54   12.89
   4 -12   4  100.20   11.92
   4 -12  -4  136.55   12.42
   4  12   4  127.03   13.05
   4  12  -4  132.07   13.15
  -4 -12  -4   89.19    5.44
  -4  12  -4  123.89   13.12
  -4 -12   4  130.36   12.28
   4  12  -4  132.99   12.80
   4  12   6    0.45    4.01
  -4  12  -6    2.53    3.13
  -4 -12  -6    2.37    2.55
  -4  12   6    0.71    5.57
  -4  12  -6    0.66    5.78
   4 -12  -6    1.40    3.99
   4 -12   6    0.55    4.97
  -4 -12   6    0.69    4.29
   4  12   6    0.23    5.98
  -4 -12  -6    0.23    4.78
   4  12  -6    0.19    5.32
  -4 -12   8    4.03    5.90
  -4  12  -8    7.62    7.09
  -4  12   8    2.21    5.87
  -4 -12  -8    1.72    4.52
   4  12  -8    0.69    5.38
  -4 -12  -8    1.90    6.32
  -4  12  -8    2.41    4.88
   4  12   8    3.38    7.64
   4 -12  -8    4.07    5.63
   4 -12   8    1.50    6.20
   4  12  10  316.75   24.07
  -4 -12  10  320.90   19.67
   4 -12  10  311.40   22.19
   4 -12 -10  308.53   17.22
  -4 -12 -10  303.60   18.10
  -4 -12 -10  314.78   21.35
  -4  12 -10  304.55   19.77
  -4  12 -10  313.32   22.06
   4  12 -10  332.80   22.71
  -4  12  10  331.77   21.81
   4  12  12  223.71   17.51
   4 -12  12  248.66   16.47
  -4 -12 -12  236.75   14.48
  -4 -12 -12  220.94   14.06
  -4  12  12  263.72   16.46
  -4 -12  12  238.40   14.63
  -4  12 -12  209.65   14.24
  -4  12 -12  218.97   16.13
   4  12 -12  249.02   17.52
  -4 -12 -14  224.90   15.53
   4  12  14  279.27   23.17
   4 -12  14  285.54   20.35
  -4 -12 -14  300.40   20.13
  -4 -12  14  319.19   19.48
  -4  12 -14  262.79   19.32
  -4  12 -14  302.36   21.89
   4  12 -14  316.61   22.42
   4  12  16  177.61   19.76
  -4  12 -16  144.45   16.05
  -4 -12  16  168.37   15.32
   4 -12  16  161.42   16.96
  -4  12 -16  148.60   16.86
   4  12 -16  175.51   18.31
  -4  12 -18    0.47    4.28
   4 -12  18    4.39    3.31
   4  12  18    0.50    5.47
   4  12 -18    6.34    3.67
  -4  12 -18    0.47    3.59
   4 -12 -18   14.95    5.61
   4  12 -20    0.79    2.23
  -4 -12 -20    0.89    2.44
   4  12 -20    1.64    4.29
   4  12  20    9.18    5.18
  -4  12 -20    7.47    5.84
   4 -12 -20    2.78    5.16
   4 -12 -20    2.34    2.28
  -4  12 -20    0.16    3.51
  -4 -12 -20    4.87    3.52
   4 -12 -20    2.63    3.07
   4 -12 -22    7.67    8.00
  -4 -12 -22    0.13    2.50
  -4  12 -22    0.51    4.42
   4  12  22    0.01    4.87
  -4 -12 -22    0.13    3.62
   4  12 -22   10.40    6.68
   4 -12 -22    1.48    2.69
  -4  12 -22    0.18    5.36
   4 -12 -22    0.03    2.24
   4  12 -22    0.18    2.82
   4  12 -24   10.23    6.27
   4  12  24    8.11    7.39
   4 -12 -24   10.41    4.67
  -4 -12 -24    6.94    4.26
   4 -12 -24    6.32    3.64
   4  12 -24    5.61    3.68
   4 -12 -26  191.49   14.70
   4  12 -26  199.77   14.21
  -4 -12 -26  170.07   14.29
   4 -12 -26  191.99   14.31
   4 -12 -28  121.23   10.66
   4  12 -28  139.24   11.04
  -4 -12 -28  125.48   11.52
   4 -12 -28  134.25   10.82
   4 -12 -30   20.21    4.56
  -4 -12 -30   18.69    5.13
   4 -12 -30   19.52    4.57
   4  12 -30   20.37    4.60
  -4 -12 -32    6.53    3.88
   4 -12 -32    6.51    3.30
   4  12 -32    2.21    2.86
   4 -12 -34   14.62    4.10
  -4 -12 -34   17.61    4.63
   4  12 -34   22.38    4.59
  -4 -12 -36    0.17    1.83
   4 -12 -36    3.64    2.85
   4  12 -36    0.61    2.30
  -4 -12 -36    1.03    2.63
   4 -12 -36    0.21    3.18
   4  14   0  191.68   18.12
  -4 -14   0  214.39   17.62
   4  14   0  228.33   17.75
   4 -14   0  191.06   16.11
  -4 -14   2  115.47   11.60
  -4 -14  -2  122.15   12.21
   4  14  -2  106.90   12.23
   4  14   2  111.99   11.43
   4 -14   2   92.64   10.60
  -4  14  -2  109.34   12.37
   4  14   2  103.87   12.49
   4 -14  -2  101.33   10.13
   4  14  -2  111.00   11.64
   4  14  -4    5.02    4.59
  -4  14  -4    2.77    2.84
   4 -14  -4    4.03    3.35
   4 -14   4    2.42    3.84
   4  14  -4    5.81    3.76
   4  14   4    0.50    4.35
  -4 -14  -4    0.50    4.61
   4  14   4    4.43    2.96
  -4  14  -4    0.93    4.19
  -4 -14   4    1.68    3.75
   4  14   6   19.60    7.08
   4  14   6   27.08    7.17
   4 -14  -6   18.97    5.71
  -4  14  -6   11.73    4.35
   4  14  -6   15.66    6.86
  -4  14  -6   22.18    7.45
  -4 -14  -6   24.99    7.99
   4 -14   6   20.04    6.16
  -4 -14   6   24.62    6.70
  -4  14   6   23.55    7.74
   4  14   8   12.80    6.48
  -4  14  -8    4.72    5.94
   4 -14   8   11.47    6.93
   4  14  -8    6.34    6.48
  -4 -14  -8    9.14    6.83
   4 -14  -8    7.78    5.68
  -4  14   8    8.01    6.69
  -4 -14   8    9.27    6.04
  -4  14  -8    6.08    4.66
   4  14   8    7.03    7.11
   4  14 -10   10.44    4.50
  -4 -14 -10    9.55    3.87
  -4  14 -10    3.83    2.67
  -4  14 -10    8.03    3.94
   4 -14  10    9.16    3.39
  -4 -14  10   10.81    4.03
   4 -14 -10    4.16    2.37
   4  14  10    5.77    4.34
  -4  14  10   18.38    4.71
   4  14  12   51.60   12.00
  -4  14 -12   37.78    9.11
  -4  14 -12   31.67    7.85
  -4  14  12   65.55   11.22
   4 -14  12   38.55    9.88
  -4 -14 -12   46.23    8.94
   4  14 -12   47.33   10.45
  -4 -14  12   45.96    9.10
  -4 -14  14  118.11   14.83
  -4  14 -14   87.06   12.90
   4 -14  14  129.57   16.60
   4  14  14  124.26   18.50
  -4  14 -14  100.50   15.52
   4  14 -14  113.89   16.31
  -4  14 -16   16.95    6.33
   4  14 -16   24.18    7.02
  -4  14 -16   13.80    5.87
  -4 -14  16   24.84    6.30
   4  14  16   23.39    7.68
   4 -14  16   18.24    5.45
   4  14  18   43.34   11.54
   4 -14 -18   39.73    6.13
  -4  14 -18   38.03    8.62
  -4  14 -18   40.97   10.06
   4  14 -18   46.78    6.56
   4 -14  18   28.47    8.58
   4  14 -18   35.77    9.45
   4  14  20   83.20   15.75
   4 -14 -20   77.66    8.56
  -4  14 -20   60.24   12.44
   4 -14 -20   66.32   15.19
  -4 -14 -20   81.91    9.47
   4  14 -20   78.43    8.08
  -4 -14 -20   63.49    7.95
   4 -14 -20   85.85    8.64
   4  14 -20   86.89   14.63
   4  14 -22   71.32   13.40
   4 -14 -22   76.73    8.37
  -4  14 -22   50.65   11.66
   4 -14 -22   80.95   13.71
   4 -14 -22   77.64    8.45
   4  14  22   77.91   14.98
  -4 -14 -22   65.81    8.82
  -4 -14 -22   68.95    8.42
   4  14 -22   73.57    8.25
   4  14 -24    1.66    3.81
   4 -14 -24   10.46    5.04
   4  14  24    3.78    6.32
  -4 -14 -24    8.18    4.55
   4  14 -24    8.90    4.38
   4 -14 -24    6.89    4.13
   4 -14 -26   61.59    8.57
   4 -14 -26   57.40    8.28
   4  14 -26   65.39    8.36
  -4 -14 -26   59.16    8.64
   4 -14 -28   49.51    6.49
   4 -14 -28   39.67    5.53
  -4 -14 -28   34.51    5.14
   4  14 -28   52.83    6.20
   4  14 -30    1.92    3.50
   4 -14 -30    0.78    2.95
  -4 -14 -30    0.58    3.14
   4 -14 -30    0.78    3.72
  -4 -14 -32   16.53    4.41
   4  14 -32   14.39    3.97
   4 -14 -32   11.79    3.58
   4  14 -34   90.88    8.19
  -4 -14 -34   73.48    8.21
   4 -14 -34   81.19    7.89
  -4 -14 -36   11.22    2.37
   4 -14 -36   12.34    2.85
  -4 -14 -36   15.32    3.46
   4 -14 -36   10.90    2.95
   4  14 -36    9.18    2.76
   4  16   0    1.57    3.71
  -4 -16   0    2.11    3.94
   4 -16   0    2.38    4.42
   4  16   0    2.02    4.88
   4  16   2   17.34    6.34
  -4 -16  -2   17.17    6.59
   4 -16  -2   26.98    6.50
   4  16  -2   16.70    7.46
  -4 -16   2   17.65    5.84
  -4  16  -2   19.27    7.26
   4  16   2   16.93    6.90
   4 -16   2   18.89    7.03
   4  16  -2   16.63    6.62
  -4 -16  -4  538.08   31.04
  -4 -16   4  523.16   28.64
   4 -16   4  420.07   27.84
   4 -16  -4  516.04   28.47
   4  16   4  501.50   32.35
   4  16   4  497.30   29.03
  -4  16  -4  537.77   35.31
   4  16  -4  598.07   32.49
   4  16  -4  528.90   33.64
   4  16   6   25.90    6.64
  -4 -16   6   55.46    9.10
   4  16  -6   54.17   10.06
  -4 -16  -6   65.35   10.70
   4  16   6   56.76   11.22
   4 -16  -6   63.48    9.69
  -4  16  -6   62.57   11.73
   4 -16   6   53.56    9.38
  -4 -16   8  273.19   22.57
  -4  16  -8  308.75   27.57
  -4 -16  -8  294.92   24.99
   4  16   8  271.61   23.39
   4 -16  -8  288.71   22.23
   4 -16   8  292.05   24.67
  -4  16   8  318.45   27.41
   4  16  -8  276.30   25.18
   4  16   8  262.13   26.76
   4 -16  10  156.96   13.92
   4  16  10  167.45   14.84
   4 -16 -10  152.49   10.82
  -4 -16 -10  172.61   13.02
   4  16  10  166.93   12.60
  -4  16  10  187.21   15.19
  -4  16 -10  167.99   14.39
  -4 -16  10  162.35   11.88
   4  16 -10  177.06   14.68
  -4  16 -12    1.48    4.75
  -4 -16  12    2.75    2.63
  -4  16  12    9.18    5.50
   4  16  12    0.46    5.96
   4  16 -12    1.80    3.72
   4 -16  12    6.49    3.80
  -4 -16 -12    2.04    3.75
   4  16 -14   11.67    4.92
  -4 -16  14    9.09    2.87
   4  16  14   21.21    4.42
   4 -16  14    6.29    4.23
  -4  16 -14   13.42    3.64
  -4  16 -16    2.47    5.28
   4  16 -16    0.42    3.81
  -4 -16  16    1.20    3.12
   4 -16  16    0.54    3.63
   4 -16 -16    0.26    2.17
   4  16  16    0.00    4.80
   4  16 -16    0.42    2.51
  -4  16 -18   12.68    7.81
   4  16  18   27.43    6.43
   4 -16 -18   42.89    7.28
  -4 -16 -18   25.12    6.33
   4  16 -18   46.54    7.42
   4 -16  18   33.42    9.43
   4  16  18   34.40   11.94
   4  16 -18   41.05   12.00
  -4 -16 -18   28.52    6.10
  -4 -16 -20  248.96   14.79
   4 -16 -20  283.89   27.58
   4  16  20  308.62   29.44
  -4 -16 -20  281.04   16.63
   4 -16 -20  296.27   16.08
   4  16 -20  310.51   15.78
  -4  16 -20  216.47   22.37
   4 -16 -20  287.48   15.56
   4  16 -20  292.31   26.11
   4 -16 -22  146.13   10.56
   4  16  22  128.85   18.23
  -4  16 -22   87.83   12.42
   4 -16 -22   85.44   12.65
  -4 -16 -22  138.44   11.63
   4 -16 -22  156.16   11.31
   4  16 -22  136.49   10.17
  -4 -16 -22  140.55   10.80
   4  16 -22  148.12   17.93
   4 -16 -24    2.68    3.19
   4 -16 -24    7.96    3.99
   4  16 -24    1.60    2.73
  -4 -16 -24    7.57    3.98
   4 -16 -26    0.89    3.21
   4  16 -26    0.94    2.78
  -4 -16 -26    0.85    3.54
   4 -16 -26    0.89    2.93
   4 -16 -28    1.38    2.72
   4 -16 -28    0.01    3.33
   4  16 -28    1.55    3.18
  -4 -16 -28    2.82    3.93
   4 -16 -30    0.01    2.80
   4  16 -30    3.22    2.59
   4 -16 -30    4.70    2.93
  -4 -16 -30    0.39    3.38
   4  16 -32   56.49    6.68
   4 -16 -32   51.34    6.58
  -4 -16 -32   51.19    7.09
   4 -16 -34   67.86    6.95
  -4 -16 -34   57.84    6.86
   4  16 -34   59.80    6.32
   4  16 -36   78.17    5.93
   4 -16 -36   83.72    6.49
  -4 -16 -36   62.40    4.78
   4 -16 -36   75.05    6.09
   4  18   0    5.03    3.80
  -4  18   0    5.53    6.72
   4 -18   0    5.53    4.28
  -4 -18   0    7.66    5.40
   4  18   0    8.71    5.11
   4  18  -2    6.74    6.01
  -4  18  -2    5.34    8.46
   4  18   2    2.88    6.05
  -4 -18  -2    9.30    7.54
   4 -18   2    5.20    7.37
   4 -18  -2    4.90    6.83
   4  18   2    2.52    6.51
  -4 -18   2    7.43    6.53
   4  18  -2    7.46    8.68
  -4  18  -4  269.65   21.14
   4 -18  -4  212.20   16.77
  -4 -18   4  229.68   16.26
   4 -18   4  212.43   16.08
  -4 -18  -4  210.10   16.58
   4  18   4  201.00   18.23
   4  18  -4  240.22   18.19
   4  18   4  232.36   17.69
  -4 -18   6  615.06   30.25
   4 -18   6  529.88   30.26
   4 -18  -6  606.65   29.56
   4  18   6  577.75   34.52
  -4 -18  -6  611.45   31.78
  -4  18  -6  686.51   37.93
   4  18   6  625.56   32.46
   4  18  -6  653.81   34.08
   4 -18   8  426.45   30.06
   4  18   8  452.87   34.00
   4  18   8  449.71   30.56
  -4 -18  -8  420.89   29.10
  -4  18  -8  473.87   34.35
  -4 -18   8  428.54   27.83
   4  18  -8  453.59   31.83
   4 -18  -8  434.33   26.92
  -4 -18  10  241.01   18.36
   4  18  10  235.17   22.92
   4 -18 -10  212.17   16.47
  -4  18 -10  248.76   22.11
   4 -18  10  215.70   20.73
   4  18  10  231.44   19.66
  -4  18  10  284.73   23.92
  -4 -18 -10  240.30   19.58
   4  18 -10  246.09   21.10
   4  18  12   26.43    9.40
  -4  18 -12   13.96    6.90
   4 -18  12   11.66    7.26
  -4 -18  12   11.82    5.40
  -4 -18 -12   16.87    6.19
   4  18 -12   19.17    7.68
  -4  18 -14    2.20    3.99
  -4 -18  14   18.44    6.74
   4  18  14   13.59    7.81
   4 -18  14    5.32    5.14
   4 -18 -14    0.74    2.38
   4  18 -14    8.37    5.92
   4  18 -14    8.13    3.12
   4  18  14    2.48    2.56
   4  18  16    5.95    5.30
  -4 -18  16    2.06    4.94
   4  18 -16   10.15    3.06
   4  18  16   13.13    3.98
   4  18 -16    8.56    4.20
   4 -18  16   12.55    4.99
  -4  18 -16   22.26    7.13
   4 -18 -16   15.84    3.31
   4  18  18    9.85    7.55
   4 -18  18   13.67    7.19
   4  18  18   14.47    5.09
   4  18 -18   30.50   10.26
  -4 -18 -18    8.10    3.69
   4  18 -18   33.43    6.14
  -4  18 -18    4.55    5.72
   4 -18 -18   31.48    6.69
  -4 -18 -18   14.76    4.45
   4  18 -20  357.03   16.96
   4  18  20  297.87   30.67
   4 -18 -20  342.79   17.19
  -4 -18 -20  274.62   16.66
   4 -18 -20  233.78   25.08
   4 -18 -20  360.63   17.97
  -4 -18 -20  267.20   15.63
  -4  18 -20  213.18   22.52
   4  18 -20  310.33   27.67
  -4 -18 -22  130.25   12.55
   4 -18 -22  146.28   12.52
   4 -18 -22  110.10   18.02
   4  18 -22  154.63   12.15
   4 -18 -22  156.47   12.88
  -4 -18 -22  130.16   11.71
   4 -18 -24   38.87    5.99
   4 -18 -24   40.49    5.90
   4  18 -24   42.27    5.93
  -4 -18 -24   50.79    6.54
   4 -18 -26   25.16    4.63
   4  18 -26   24.24    4.44
  -4 -18 -26   34.70    5.64
   4 -18 -26   23.10    4.42
   4  18 -28    0.33    2.78
   4 -18 -28    0.01    2.69
   4 -18 -28    0.67    3.84
  -4 -18 -28    1.68    3.36
   4 -18 -30    2.14    2.64
   4  18 -30    4.55    2.80
  -4 -18 -30    1.54    2.55
   4 -18 -30    0.04    2.67
  -4 -18 -32   23.18    4.79
   4  18 -32   31.47    5.09
   4 -18 -32   26.48    4.82
  -4 -18 -34   60.00    6.46
   4 -18 -34   70.33    6.72
   4  18 -34   62.71    6.12
   4 -20   0   89.32   12.19
   4  20   0   80.74   12.29
   4  20   0   75.32   13.17
  -4 -20   0   69.12   10.47
  -4  20   0  114.81   15.62
  -4  20   2    2.05    4.96
  -4  20  -2   10.42    9.73
   4  20   2    3.18    4.64
   4 -20   2    1.73    6.14
   4  20  -2    2.25    6.43
  -4 -20   2    2.25    4.92
  -4 -20  -2    3.18    5.09
   4 -20  -2    0.04    4.48
   4  20   2    0.01    5.66
   4  20  -2    0.64    5.82
   4  20   4   33.67   11.50
  -4 -20   4   56.30   11.51
   4  20   4   61.11   12.52
   4 -20  -4   54.76   11.87
   4 -20   4   47.90   11.23
   4  20  -4   44.96   10.73
  -4  20  -4   72.87   15.87
  -4 -20  -4   64.46   12.66
  -4 -20  -6  583.85   34.98
  -4 -20   6  568.03   32.58
   4 -20   6  579.69   34.70
  -4  20  -6  674.01   42.48
   4 -20  -6  583.23   32.95
   4  20   6  565.51   39.21
   4  20  -6  582.58   36.68
   4  20   6  586.29   36.76
   4  20   8  483.70   20.07
  -4 -20   8  561.45   30.12
   4 -20  -8  566.74   29.20
  -4 -20  -8  559.26   31.41
   4 -20   8  586.09   32.28
   4  20   8  522.71   35.26
   4  20   8  598.47   33.92
  -4  20  -8  539.51   34.96
   4  20  -8  598.69   34.06
   4 -20  10   37.34    7.54
   4  20  10   44.59    6.14
   4  20  10   33.63    5.63
   4  20  10   56.07   12.08
  -4  20 -10   57.81   12.38
   4  20  10   34.01    5.13
   4 -20 -10   39.98    5.33
  -4 -20  10   46.61    8.51
   4  20 -10   43.18    6.07
  -4 -20 -10   37.33    7.81
   4  20 -10   42.86    5.63
   4  20 -10   41.19    9.15
   4  20  12    2.35    3.83
   4  20  12    6.08    4.43
   4  20  12    5.96    7.43
   4  20 -12    2.30    2.82
   4 -20  12    5.93    6.91
  -4  20 -12    1.84    5.97
   4  20 -12    3.59    5.91
   4 -20 -12    1.32    2.76
  -4 -20 -12    5.73    5.57
  -4 -20  12    4.51    6.11
   4  20 -12    6.20    3.64
  -4 -20  14    4.20    4.48
   4  20 -14   12.41    7.71
   4 -20  14   15.16    8.45
   4  20 -14   11.32    5.19
  -4  20 -14   16.60    8.56
   4  20  14   18.40   11.24
   4  20  14   10.09    4.62
   4 -20 -14   18.89    5.40
   4  20 -14   18.78    5.39
   4  20  16    1.54   10.40
   4  20 -16    0.69    2.44
   4  20 -16    1.11    6.00
   4  20 -16    2.21    3.33
   4  20  16    5.28    4.57
  -4 -20  16    2.70    6.19
   4 -20  16    6.81    6.27
  -4  20 -16    1.26    6.76
   4 -20 -16    3.19    3.37
   4  20 -18   75.85    9.15
   4 -20  18   36.91   10.41
   4  20  18   64.79   15.34
  -4 -20 -18   42.55    6.66
   4  20  18   50.37    7.79
   4  20 -18   65.44   13.86
   4  20 -18   75.78    8.58
   4 -20 -18   83.50    9.21
  -4  20 -18   22.70    8.37
   4 -20 -20   96.11    9.22
   4  20 -20   90.51    9.24
   4 -20 -20  106.06    9.91
  -4 -20 -20   77.81    8.97
   4  20 -20   90.61    8.95
  -4 -20 -20   77.79    8.22
   4 -20 -22  110.69   10.67
   4  20 -22  102.39   10.31
   4 -20 -22  113.70   11.30
   4  20 -22  117.42   10.86
  -4 -20 -22   89.45    9.75
  -4 -20 -22   88.48   10.61
   4  20 -24  139.62   11.18
   4 -20 -24  138.17   11.64
  -4 -20 -24  125.41   11.04
   4 -20 -24  148.88   11.72
   4  20 -26    0.31    3.23
   4 -20 -26    2.17    3.17
  -4 -20 -26    3.51    3.04
   4 -20 -26    0.37    2.73
   4 -20 -28    3.36    2.83
   4 -20 -28    0.64    3.47
   4  20 -28    1.16    2.96
  -4 -20 -28    2.18    2.40
   4 -20 -30    2.19    2.56
  -4 -20 -30    4.79    2.76
   4  20 -30    3.64    2.66
   4 -20 -30    3.50    2.63
   4  20 -32   12.71    3.27
  -4 -20 -32    6.84    2.68
   4 -20 -32   13.95    3.70
   4  22   0   75.94    8.10
  -4  22   0   83.83    9.08
  -4  22   0  100.20   17.08
  -4 -22   0   84.23   12.87
   4 -22   0   92.93   13.84
   4  22   0   91.59   15.46
   4  22   0   93.11    9.59
   4  22   0   88.37   13.97
   4  22   2    5.24    3.01
  -4  22   2   15.46    9.29
  -4  22   2    6.98    3.08
  -4  22  -2   10.95    4.03
   4  22  -2   10.92    3.50
  -4 -22   2   10.32    5.03
  -4 -22  -2    8.32    4.36
   4  22  -2   13.63    4.42
  -4  22  -2   10.86    6.66
   4  22   2    7.56    5.26
   4  22  -2    2.66    4.88
   4  22   2    6.78    3.56
   4 -22  -2    4.75    4.16
   4  22   2    7.98    3.70
   4 -22   2   13.49    6.74
  -4  22   4   13.70    7.33
   4  22   4    4.76    3.16
  -4  22   4    0.65    2.83
   4  22  -4    7.92    3.50
   4  22   4   11.56    6.66
  -4 -22   4    4.34    5.03
   4 -22   4    1.76    5.34
   4 -22  -4   10.55    6.31
  -4  22  -4    6.16    3.11
   4  22   4    7.59    4.63
  -4 -22  -4    3.37    4.07
  -4  22  -4    9.63    8.66
   4  22  -4    4.77    2.41
   4  22   4    0.59    5.94
   4  22  -4    7.75    5.57
   4  22   6  260.37   16.88
   4  22  -6  291.33   17.36
  -4  22  -6  283.99   18.33
   4 -22  -6  240.60   15.74
  -4  22  -6  332.35   33.72
  -4 -22  -6  303.15   27.15
   4 -22   6  307.46   27.47
   4  22   6  279.10   30.00
  -4  22   6  315.51   19.69
   4  22   6  325.78   19.82
   4  22  -6  298.31   28.22
  -4 -22   6  291.24   25.11
   4  22  -6  269.22   16.35
   4  22   6  291.38   27.38
   4 -22  -6  293.22   25.35
   4  22   8  101.89   11.18
  -4  22   8  106.85   11.89
   4  22  -8  100.48   10.55
  -4  22  -8   92.63   10.77
  -4 -22   8   95.70   15.08
   4  22   8  113.65   12.05
  -4  22  -8   98.18   17.79
   4  22  -8  105.78   10.26
   4  22   8   83.54   17.17
   4 -22   8   85.46   14.80
   4 -22  -8   95.72    9.96
   4 -22  -8   92.87   13.89
   4  22  -8   99.89   17.08
  -4 -22  -8  104.65   16.43
   4  22  10   23.37    9.65
   4  22  10   27.09    6.39
  -4  22  10   29.01    6.31
   4  22 -10   33.93    6.48
  -4  22 -10   22.03    8.87
   4 -22  10   16.27    7.41
   4  22 -10   28.24    9.34
   4  22  10   23.15    5.61
   4  22  10   24.00    6.03
  -4 -22 -10   15.15    7.51
  -4 -22  10   19.35    6.90
   4  22 -10   31.63    5.58
   4 -22 -10   26.45    5.93
   4  22 -12  138.24   13.41
  -4 -22  12   97.77   16.25
   4  22  12  128.49   22.67
   4  22 -12  114.35   19.04
   4 -22  12  110.45   17.96
   4  22  12  120.23   12.79
  -4  22  12  135.98   14.29
   4  22 -12  125.19   11.48
   4 -22 -12  104.68   11.43
  -4  22 -12   97.20   19.07
   4  22  12  114.64   13.27
   4 -22 -14    0.46    3.73
   4 -22  14    1.58    5.85
  -4  22 -14    2.40    5.99
   4  22 -14    2.36    8.68
   4  22 -14    2.36    3.43
  -4 -22  14    1.09    5.19
   4  22  14    1.92    3.17
   4  22 -14    2.36    3.21
   4  22  14    2.58    7.83
  -4  22  14    2.41    3.07
   4 -22  16   37.93   11.21
  -4 -22  16   29.50    9.85
   4  22 -16   30.93   11.19
   4  22 -16   49.13    8.30
   4  22 -16   34.48    6.32
   4  22  16   46.48    8.00
  -4  22 -16   19.62    8.85
   4 -22 -16   44.15    7.24
   4  22  16   29.63   11.77
   4  22 -18  148.67   12.80
   4  22  18  126.82   12.55
   4  22 -18  149.17   11.94
   4 -22 -18  148.52   12.64
   4  22 -20    4.56    4.26
   4  22  20    0.26    4.28
  -4 -22 -20    0.26    3.18
   4  22 -20    0.65    3.00
   4 -22 -20    0.75    3.07
   4 -22 -20    0.75    3.40
   4  22 -22  141.92   12.38
   4  22 -22  156.03   12.76
   4 -22 -22  164.11   13.45
   4 -22 -22  157.84   13.24
   4 -22 -24   15.31    4.62
   4  22 -24   17.26    4.74
  -4 -22 -24   23.26    5.22
   4 -22 -24   19.84    4.81
   4  22 -26    0.14    3.19
   4 -22 -26    2.51    3.31
  -4 -22 -26    0.13    2.63
   4 -22 -26    0.07    3.07
   4  22 -28   18.14    3.93
  -4 -22 -28   20.91    4.08
   4 -22 -28   16.52    4.01
   4 -22 -28   22.10    4.49
   4  22 -30    0.04    2.18
   4 -22 -30    0.01    2.77
   4 -22 -30    0.01    2.11
  -4  22 -32    9.10    2.50
   4  22 -32    0.24    2.40
   4 -22 -32    9.13    2.67
   4  24   0  104.88   11.01
  -4  24   0  110.58   11.76
  -4 -24   0   95.93   16.41
   4 -24   0   87.05   17.46
  -4  24   0   89.25   10.01
   4  24   0  103.76   11.68
  -4  24   0  119.10   21.35
   4  24   0  110.02   17.67
   4  24   2   44.70    8.42
   4  24  -2   33.64    7.63
  -4  24   2   33.14    8.40
  -4 -24   2   21.86   10.86
   4 -24  -2   25.34   11.91
  -4  24   2   24.77   13.71
   4  24  -2   33.06   12.05
  -4 -24  -2   39.56   13.84
   4  24   2   18.33    9.80
   4  24   2   40.37    8.71
  -4  24  -2   24.71    7.48
   4  24  -2   33.03    7.62
   4  24   2   38.25   13.66
  -4  24  -2   25.44   12.91
  -4  24  -2   24.73    7.19
  -4  24   2   19.77    6.46
   4 -24   2   22.92   11.52
   4  24   4    0.11    3.30
  -4  24   4    0.03    6.96
  -4  24   4    2.88    3.57
   4  24  -4    2.85    3.18
  -4  24  -4    1.99    7.36
   4 -24   4    0.53    5.37
   4 -24  -4    1.14    5.37
  -4 -24   4    0.38    5.20
   4  24  -4    0.38    7.01
  -4  24  -4    0.53    3.75
   4  24   4    0.13    5.65
  -4 -24  -4    5.62    6.51
   4  24   4    2.17    4.05
   4  24  -4    0.96    3.30
   4  24   4    0.51    5.98
   4  24   6   15.50    8.30
   4  24   6   14.86    5.60
  -4  24   6   16.76    8.14
   4  24  -6   25.81    9.95
   4  24  -6   17.62    5.58
   4 -24   6   28.42   10.21
   4 -24  -6   19.99    8.06
  -4  24   6   16.83    5.57
   4  24   6   22.39    5.97
  -4  24  -6   20.90    9.20
  -4  24  -6   18.18    5.60
  -4 -24   6   18.63    7.47
   4  24  -6   20.78    5.80
  -4 -24  -6   12.93    7.26
   4 -24  -6   17.88    5.07
   4  24   8   18.42    5.03
  -4  24   8   26.85    6.31
   4  24  -8   12.64    3.73
   4  24   8   15.49    4.51
   4  24   8   22.45   10.44
  -4 -24   8   18.97    5.66
   4 -24   8    0.53    5.90
  -4  24  -8   14.69    7.44
  -4 -24  -8    5.85    4.90
  -4  24  -8   10.60    4.39
   4  24   8   16.20    4.81
  -4  24   8    7.20    4.92
   4  24  -8   19.05    4.68
   4  24  -8    1.98    4.36
   4 -24  -8   20.05    4.58
  -4  24  10   86.79   11.91
   4  24 -10   72.69    9.93
   4  24 -10   60.28    8.81
  -4 -24 -10   52.46   13.22
  -4 -24  10   51.25   12.27
   4  24  10   60.46    9.69
  -4  24 -10   59.02   15.93
   4  24 -10   65.65   15.89
   4  24  10   44.10   14.73
   4  24  10   61.79   10.41
   4 -24 -10   58.10    8.90
   4 -24  10   61.31   14.40
  -4  24 -10   56.16    9.71
  -4  24  12   66.38    9.37
  -4  24 -12   44.06    7.34
   4  24  12   39.09   11.69
   4  24  12   41.88    7.20
   4 -24  12   35.52   10.94
   4  24  12   45.04    7.69
   4  24 -12   50.00    7.47
  -4  24 -12   47.81   11.80
  -4 -24  12   34.84    8.87
   4 -24 -12   55.79    7.57
   4  24 -12   39.50    5.98
   4  24 -12   28.61    9.33
   4  24 -14  215.63   16.20
   4  24  14  199.46   16.63
   4 -24 -14  181.39   15.07
   4 -24  14  156.43   22.80
   4  24  14  175.75   27.64
   4  24 -14  184.05   14.44
  -4 -24  14  146.71   20.46
  -4  24 -14  179.43   26.70
   4  24 -14  158.91   23.40
   4  24  16    1.43    4.13
   4  24 -16    1.79    4.03
   4 -24 -16    1.78    3.87
   4  24 -16    1.79    3.29
   4 -24 -18    5.54    3.40
   4  24  18    5.23    3.56
   4  24 -18    3.19    3.11
   4  24 -18    3.54    3.33
   4 -24 -18    3.04    3.68
   4  24 -20   75.07    8.62
   4  24 -20   75.12    8.44
   4 -24 -20   77.19    9.11
   4 -24 -20   70.55    8.56
   4 -24 -22    0.16    3.25
   4  24 -22    0.05    2.86
   4  24 -22    3.72    3.59
   4 -24 -22    0.16    3.17
   4 -24 -24    1.16    3.19
   4  24 -24    0.43    2.49
   4 -24 -24    0.13    2.86
  -4  24 -26   34.24    6.23
   4  24 -26   36.81    5.59
   4 -24 -26   36.01    6.00
   4 -24 -26   34.24    5.75
  -4  24 -28   30.10    4.64
   4  24 -28   16.51    2.89
   4 -24 -28   21.37    3.88
   4 -24 -28   28.31    4.16
  -4  24 -30   12.28    3.26
   4  24 -30   14.27    2.97
   4 -24 -30   18.52    3.51
   4  26   0   80.79    9.56
  -4  26   0   82.68   10.38
  -4  26   0   84.32   17.96
   4 -26   0   79.11   16.10
  -4 -26   0   83.45   14.80
   4  26   0   89.72   10.23
  -4  26   0   66.11    8.62
   4  26   0   65.35   13.45
   4  26   2  112.68   11.82
   4  26  -2  114.88   11.62
  -4  26  -2  124.30   12.61
  -4 -26  -2  123.79   19.25
  -4 -26   2  108.42   17.69
  -4  26  -2  142.99   24.40
   4 -26   2   94.99   17.28
  -4  26   2  111.79   11.27
  -4  26  -2   96.04   10.61
   4  26   2  137.53   12.95
   4  26  -2  118.76   12.10
  -4  26   2  125.75   22.47
   4  26   2  104.68   18.28
   4  26  -2   86.27   16.66
   4 -26  -2  119.23   18.87
  -4  26   2  129.64   12.88
   4  26  -4    8.24    9.08
   4  26   4    0.94    3.52
  -4  26   4    2.61    3.83
   4  26  -4    3.59    3.54
  -4  26   4    6.07    8.88
   4  26   4    1.24    6.57
  -4 -26  -4    5.46    7.23
   4 -26   4    1.63    5.22
   4 -26  -4    1.42    6.27
  -4  26  -4    0.11    2.73
   4  26  -4    3.60    4.17
  -4  26  -4    0.78    3.20
  -4  26  -4    0.78    7.01
   4  26   4    1.24    3.44
   4 -26  -4    1.42    4.61
  -4 -26   4    6.18    6.60
   4  26   6   20.10    7.47
   4  26   6    3.80    3.09
  -4  26   6    9.85    4.67
   4  26  -6    0.50    3.16
  -4  26   6    0.78    8.53
   4  26  -6    3.58    2.96
  -4 -26  -6   14.75    6.74
  -4 -26   6    4.38    3.54
  -4  26  -6    1.17    3.50
   4  26   6   10.20    4.71
  -4  26  -6    5.16    6.73
   4  26  -6    9.98    6.08
   4 -26  -6    0.78    4.84
   4 -26  -6    1.05    3.07
   4 -26   6    0.65    8.02
   4  26   8   26.28    6.96
  -4  26   8   29.67    7.69
  -4  26   8   38.03   14.49
   4  26  -8   29.85    6.87
  -4  26  -8   26.02    6.62
   4 -26  -8   25.37    6.64
  -4  26  -8   23.17   11.96
  -4 -26   8   33.00   10.67
   4  26  -8   22.79   10.37
   4  26   8   27.99    6.99
   4  26   8   30.91    7.25
  -4 -26  -8   21.70    9.60
   4  26   8   24.03   12.45
   4  26  -8   28.56    6.69
   4 -26   8   16.60    8.35
   4  26  10   34.81    7.52
  -4  26  10   32.20    7.05
   4  26 -10   35.70    7.18
  -4  26 -10   21.54    5.92
   4  26  10   24.54    5.76
   4 -26 -10   31.51    6.73
   4  26 -10   32.13    6.46
   4  26 -12  167.13   13.81
  -4  26 -12  151.63   13.77
   4  26  12  149.93   13.68
   4  26 -12  144.68   12.55
   4 -26 -12  170.13   13.68
   4  26 -14  172.63   12.25
  -4  26 -14  172.61   13.00
   4  26  14  182.46   13.59
   4  26 -14  166.56   11.73
   4 -26 -14  160.18   12.19
   4  26 -16   63.67    8.37
   4  26  16   65.42    9.13
   4 -26 -16   59.89    8.45
  -4  26 -16   67.08    9.25
   4  26 -16   64.92    8.25
   4 -26 -18   15.93    4.93
  -4  26 -18   14.50    5.84
   4  26  18   13.51    4.81
   4  26 -18   16.67    4.64
   4  26 -18   17.30    5.23
   4 -26 -18   18.46    5.22
  -4  26 -20   33.44    5.76
   4  26 -20   27.23    4.66
   4 -26 -20   34.58    5.86
   4  26 -20   42.86    5.90
   4 -26 -20   41.42    6.18
   4  26 -22    3.66    3.53
  -4  26 -22    1.51    3.25
   4 -26 -22    0.18    3.11
   4  26 -22    0.03    2.73
   4 -26 -22    0.16    2.95
   4 -26 -24   63.60    7.15
   4  26 -24   64.86    7.04
  -4  26 -24   59.97    7.46
   4 -26 -24   67.35    7.12
  -4  26 -26   57.51    7.18
   4 -26 -26   47.36    6.06
   4 -26 -26   41.07    6.01
   4  26 -26   46.17    6.11
  -4  26 -28   64.73    6.68
   4 -26 -28   56.54    5.93
   4 -26 -28   59.26    5.86
   4  26 -28   64.09    5.76
  -4  28   0  175.74   13.93
   4  28   0  165.89   13.00
  -4  28   0  148.11   11.82
   4  28   0  181.49   13.62
   4  28   2  116.12   11.22
   4  28  -2  104.99   10.63
  -4  28   2  114.39   11.29
  -4  28  -2  105.81   11.15
   4  28   2  126.13   11.32
   4 -28  -2  103.37   10.41
  -4  28  -2   89.81    9.42
   4  28  -2  122.43   11.60
   4  28   4    9.54    4.80
  -4  28   4    6.34    4.80
   4  28  -4    5.70    4.27
  -4  28  -4    2.39    3.56
   4  28  -4    4.21    4.30
  -4  28  -4    3.03    3.82
   4  28   4    4.64    4.05
   4 -28  -4    0.85    3.12
   4  28   6   27.71    7.23
  -4  28   6   31.71    7.31
   4  28  -6   24.16    6.41
   4  28  -6   19.70    5.95
   4  28   6   38.93    8.23
  -4  28  -6   27.98    7.30
   4  28   6   31.01    7.49
   4 -28  -6   27.59    7.14
   4  28   8    4.84    3.97
  -4  28   8   10.02    5.12
   4  28  -8    8.04    4.03
  -4  28  -8    4.40    3.72
   4 -28  -8   11.63    5.12
   4  28   8    5.04    3.95
   4  28  -8   10.97    5.26
   4  28  10   25.32    5.33
  -4  28  10   28.45    5.41
   4  28 -10   33.73    5.43
   4  28  10   21.77    4.34
   4  28 -10   34.26    5.98
  -4  28 -10   20.94    4.30
   4 -28 -10   36.06    5.69
   4  28 -12  159.69   12.79
  -4  28 -12  129.35   12.02
   4  28  12  132.44   12.65
   4  28 -12  139.59   11.95
   4 -28 -12  133.38   11.99
  -4  28  12  168.56   14.93
   4  28 -14  195.75   14.89
  -4  28 -14  212.54   16.27
   4  28  14  189.27   15.81
   4 -28 -14  195.24   15.55
   4  28 -14  171.45   14.08
   4  28 -16  160.79   12.39
  -4  28 -16  163.99   13.31
   4  28 -16  165.30   12.72
   4 -28 -16  171.19   13.03
   4  28  16  171.00   13.74
   4 -28 -16  157.82   12.23
   4  28 -18    6.13    3.15
  -4  28 -18    9.76    5.85
   4  28  18   11.76    5.19
   4 -28 -18    6.79    3.79
   4  28 -18    9.40    4.47
   4 -28 -18    3.20    3.66
   4  28 -20    0.16    2.86
  -4  28 -20    0.68    3.07
   4 -28 -20    4.22    2.56
   4  28 -20    3.83    3.14
   4 -28 -20    8.60    3.50
   4  28 -22    3.71    2.36
   4  28 -22    1.41    2.81
  -4  28 -22    0.14    2.67
   4 -28 -22    0.14    2.74
   4 -28 -22    0.24    2.74
  -4  28 -24   34.91    5.15
   4  28 -24   32.43    4.87
   4 -28 -24   38.67    5.47
   4 -28 -24   31.54    4.71
  -4  28 -26   99.29    8.55
   4  28 -26   86.21    7.41
   4 -28 -26   91.95    8.10
   4 -28 -26   99.90    7.92
   4  30   0  193.37   15.58
  -4  30   0  189.91   15.37
   4  30   0  206.97   15.29
   4  30   2   34.30    8.88
  -4  30   2   37.33    9.12
  -4  30  -2   35.25    8.97
   4  30  -2   32.32    8.45
  -4  30  -2   29.16    7.39
   4  30  -2   42.32    9.11
   4  30   2   33.33    8.83
   4  30  -4   61.62    9.03
  -4  30  -4   46.60    8.56
   4  30   4   48.18    8.29
  -4  30   4   51.87    9.04
   4  30   4   66.68    9.45
   4  30   4   55.13    8.30
   4  30  -4   57.49    8.24
   4  30   6   10.30    5.07
   4  30   6    6.13    4.22
  -4  30   6    8.67    4.75
   4  30  -6    4.20    3.59
  -4  30  -6    0.02    4.95
   4  30   6   10.78    4.47
   4  30  -6    2.70    3.71
   4 -30  -6    7.72    3.23
   4  30   8   10.64    5.12
   4  30  -8   10.93    4.77
  -4  30  -8    1.62    4.06
   4  30   8   14.38    5.09
  -4  30   8   13.65    5.46
   4  30  -8   14.98    5.15
   4 -30  -8   15.07    4.62
  -4  30  10   14.38    6.53
   4  30 -10   10.96    4.98
  -4  30 -10    5.49    4.14
   4  30  10    8.65    4.87
   4  30 -10   13.00    4.96
   4 -30 -10   12.52    5.09
   4  30 -12   73.70    9.30
  -4  30 -12   61.75    8.44
   4  30  12   66.11    8.95
   4  30 -12   76.78    9.15
   4 -30 -12   73.45    9.35
   4  30 -14  159.71   12.04
  -4  30 -14  152.27   12.70
   4  30 -14  166.52   12.38
   4  30  14  153.26   12.70
   4 -30 -14  186.66   13.39
   4  30 -16   81.20    8.53
  -4  30 -16   85.91    9.71
   4  30 -16   90.60    9.04
   4  30  16   85.10    9.46
   4 -30 -16   87.29    9.26
   4 -30 -16   99.16    9.58
   4  30 -18    3.97    2.08
   4 -30 -18    3.03    3.12
   4  30  18    0.47    3.06
  -4  30 -18    6.47    3.45
   4  30 -18   15.55    3.89
   4 -30 -18    6.70    3.14
   4  30 -20    1.61    2.14
  -4  30 -20    0.32    2.89
   4 -30 -20    0.82    2.24
   4  30 -20    3.59    2.77
   4 -30 -20    2.49    3.31
   4  30 -22    3.90    1.50
   4 -30 -22    9.32    2.81
  -4  30 -22    2.67    2.36
   4  30 -22    6.03    2.54
   4 -30 -22    0.36    2.40
  -4  30 -24    0.36    2.51
   4  30 -24    4.50    2.46
   4 -30 -24    0.97    2.40
   4 -30 -24    1.78    1.87
   4  32   0   10.52    4.76
  -4  32   0   16.15    5.59
   4  32   0   11.73    4.47
   4  32   2   53.97    7.76
   4  32  -2   40.57    6.79
  -4  32   2   44.14    7.49
  -4  32  -2   42.79    6.97
   4  32   2   55.83    7.99
   4  32  -2   41.81    6.46
   4  32   2   47.93    6.92
   4  32   4    1.99    3.90
  -4  32   4    5.22    3.64
   4  32  -4    0.36    3.89
  -4  32  -4    2.00    3.53
   4  32   4    0.38    3.34
   4  32   4    0.38    3.45
   4  32  -4    0.36    4.17
   4  32   6   72.44   10.59
  -4  32   6   81.41   10.85
   4  32   6   78.95   10.86
   4  32  -6   73.45   10.14
   4  32  -6   72.50    9.92
  -4  32  -6   60.21    9.35
   4  32  -8   87.67    9.55
  -4  32  -8   88.71   10.08
   4  32   8   97.19   10.62
  -4  32   8   94.30   10.52
   4  32  -8   88.46    9.49
   4  32   8   92.00   10.59
   4  32 -10    0.51    2.78
  -4  32 -10    0.88    3.76
   4  32 -10    0.67    3.62
   4 -32 -10    0.45    2.82
  -4  32  10    0.45    3.87
   4  32  10    0.24    3.18
   4  32 -12   25.82    5.42
   4  32 -12   22.70    4.96
  -4  32 -12   14.96    4.38
   4 -32 -12   21.65    5.08
   4  32  12   22.52    5.62
  -4  32 -14   49.95    6.66
   4  32 -14   53.42    6.67
   4  32 -14   51.23    6.44
   4 -32 -14   57.45    7.00
   4 -32 -14   51.91    6.59
   4  32  14   44.87    6.58
   4  32 -16   26.31    4.25
  -4  32 -16   29.23    4.87
   4  32  16   31.51    5.20
   4 -32 -16   29.56    5.00
   4  32 -16   31.05    4.90
   4 -32 -16   33.44    5.34
  -4  32 -18    0.09    2.66
   4 -32 -18    4.80    2.89
   4  32 -18    0.97    2.36
   4 -32 -18    0.80    2.20
   4  32 -18    1.31    1.66
   4  32 -20    0.44    3.00
  -4  32 -20    2.84    2.30
   4  32 -20    7.52    2.50
   4 -32 -20    3.28    1.88
   4 -32 -20    9.47    2.47
   4  34   0    3.95    4.24
  -4  34   0    3.22    3.00
   4  34   0    3.95    3.31
   4  34   0    3.95    4.14
   4  34   2    4.04    3.62
   4  34  -2    1.77    3.44
  -4  34   2    3.90    3.84
  -4  34  -2    2.64    3.73
   4  34   2    1.72    3.54
   4  34  -2    7.88    4.36
   4  34  -2    0.09    2.90
   4  34   4   24.63    5.55
  -4  34   4   26.98    5.30
   4  34  -4   25.81    5.64
  -4  34  -4   25.17    5.69
   4  34   4   27.81    5.67
   4  34  -4   27.18    5.79
   4  34  -4   25.80    5.18
  -4  34   6  175.31   12.70
   4  34  -6  162.49   11.67
  -4  34  -6  165.56   11.90
   4  34   6  182.43   12.90
   4  34  -6  140.33   10.53
   4  34   6  157.30   12.05
   4  34  -8   71.01    8.09
  -4  34  -8   73.21    8.70
   4  34  -8   68.41    7.90
  -4  34   8   72.75    8.31
   4  34   8   83.26    9.35
  -4  34   8   88.92    9.41
   4  34 -10   28.27    5.27
  -4  34 -10   26.31    5.23
   4  34 -10   22.41    4.94
   4  34  10   25.52    5.30
   4  34 -12    9.61    2.72
  -4  34 -12    0.21    3.29
   4  34 -12    9.25    3.15
   4  34  12    6.64    2.97
   4 -34 -12    6.18    2.38
   4  34 -14    5.75    2.67
  -4  34 -14    9.64    3.71
   4  34  14   11.42    4.01
   4  34 -14   11.15    3.74
   4  34 -14    9.62    3.36
   4 -34 -14    7.30    3.68
   4  34 -16    0.37    2.11
   4  34 -16    0.37    1.99
  -4  34 -16    0.18    2.31
   4  34  16    0.31    1.69
   4  34 -16    0.10    1.49
   4 -34 -16    0.01    2.01
   4  34 -18    7.41    2.08
  -4  34 -18    7.26    2.61
   4  34 -18    8.82    2.46
   4 -34 -18    0.33    1.86
   4  36   0   14.63    4.66
  -4  36   0    7.98    3.75
   4  36   0   14.76    4.64
   4  36   2    5.73    3.21
   4  36  -2    7.62    3.61
  -4  36   2    8.97    3.45
  -4  36  -2    4.28    2.73
   4  36   2    0.85    2.88
   4  36  -2    8.95    3.39
   4  36  -4   90.91    8.65
  -4  36  -4   74.63    8.07
   4  36  -4  103.81    9.25
  -4  36   4   73.89    7.57
   4  36  -4   74.50    7.42
   4  36   4   96.21    9.13
  -4  36   4   88.46    8.63
  -4  36  -6  107.33    9.18
  -4  36   6   84.60    7.83
   4  36  -6  118.09    9.33
   4  36   6  121.27    9.93
   4  36  -6  117.36    9.33
   4  36  -6   98.58    8.23
  -4  36   6  111.49    9.41
   4  36  -8   46.32    5.67
  -4  36  -8   42.71    5.89
   4  36  -8   44.35    5.51
   4  36  -8   51.28    5.68
   4  36   8   49.38    6.30
   4  36 -10   23.59    3.63
  -4  36 -10   34.05    4.62
   4  36 -10   30.93    3.98
   4  36  10   32.90    4.63
   4  36 -10   30.95    3.90
   4  36 -12    0.95    1.74
  -4  36 -12    1.62    2.35
   4  36  12    4.85    2.83
   4  36 -12    0.04    1.94
   4  36 -12    0.06    1.76
  -4  38   0    1.40    2.33
   4  38   0    9.04    2.47
  -4  38   0    7.32    2.01
   4  38  -2    2.41    2.11
  -4  38   2    5.37    2.50
   4  38   2    8.98    2.88
  -4  38  -2    2.28    2.14
   4  38  -2    5.99    2.66
  -4  38   2    8.15    2.83
   5   1   1  423.47   11.00
   5   1  -1  409.13   11.73
   5  -1  -1  437.31   11.65
   5  -1   1  429.52   10.69
   5   1  -1  451.90   10.15
   5   1  -3  276.22   16.97
   5   1  -3  256.56   11.76
   5  -1   3  277.12   14.54
   5   1  -5  183.61   11.40
   5  -1  -5  194.72   12.16
   5   1   5  174.28    8.79
   5  -1   5  157.16    6.79
  -5   1  -5  192.56    7.80
   5   1  -7  624.40   22.40
   5  -1  -7  601.67   22.87
  -5  -1  -7  685.71   25.58
  -5   1  -7  662.61   25.50
   5   1  -7  678.37   23.93
  -5   1  -7  631.75   14.97
   5   1  -9  344.71   17.40
   5  -1  -9  352.82   17.57
  -5   1  -9  365.94   19.46
   5   1  -9  388.32   18.25
   5  -1  -9  390.95   18.23
  -5  -1  -9  374.24   19.48
  -5   1  -9  339.53   12.18
   5  -1 -11  409.21   16.46
  -5  -1 -11  363.08   10.63
   5   1 -11  446.04   16.78
  -5   1 -11  419.73   17.69
   5  -1 -11  437.43   16.68
  -5  -1  11  343.58   10.88
   5   1 -11  429.49   16.53
  -5  -1 -11  433.97   17.88
  -5   1 -11  420.11   12.93
  -5  -1 -13   42.88    5.96
   5   1 -13   46.05    7.15
  -5   1 -13   37.51    5.60
  -5  -1 -13   33.74    7.60
   5   1 -13   38.21    6.94
   5  -1 -13   27.09    6.28
   5  -1 -13   36.02    6.92
  -5   1 -13   32.74    7.15
  -5   1 -15   34.53    7.58
  -5  -1 -15   26.10    8.04
   5   1 -15   29.28    8.18
  -5   1 -15   28.32    8.44
   5  -1 -15   32.05    7.99
   5   1 -15   26.65    8.37
   5  -1 -15   37.71    9.05
   5   1 -17  382.71   27.30
   5  -1 -17  377.61   27.59
   5  -1 -17  390.79   26.72
   5   1 -17  431.37   27.56
  -5  -1 -17  361.50   27.29
  -5   1 -17  347.72   27.14
   5   1 -19  875.91   39.78
   5  -1 -19  889.01   40.34
   5   1 -19  927.87   38.63
   5  -1 -19  930.10   39.18
  -5  -1 -19  784.37   37.44
  -5   1 -19  818.05   38.95
   5   1 -21  607.44   33.45
   5  -1 -21  630.84   34.46
   5   1 -21  651.95   32.12
   5  -1 -21  631.34   32.03
  -5   1 -21  591.45   32.49
  -5  -1 -21  575.41   31.92
  -5   1 -23  223.33   15.22
   5   1 -23  228.41   22.79
   5  -1 -23  226.29   13.55
   5   1 -23  229.67   19.83
   5  -1 -23  239.37   21.68
   5  -1 -23  168.46   11.87
  -5  -1 -23  236.64   21.66
   5   1  23  223.75   22.91
  -5  -1 -23  211.54   14.29
  -5   1 -23  237.97   21.52
   5   1 -23  217.65   13.27
   5   1 -25   54.75    5.74
   5   1 -25   44.51    4.69
  -5  -1 -25   32.54    7.38
  -5   1 -25   46.07    8.58
   5  -1 -25   42.06    4.64
   5   1  25   50.88   10.24
   5   1 -25   49.94    8.94
  -5   1 -25   50.11    6.15
  -5  -1 -25   36.78    4.56
   5  -1 -25   37.33    4.28
   5   1 -27   35.69    5.75
   5   1  27   32.42   10.08
  -5   1 -27   25.43    7.71
  -5   1 -27   36.49    6.81
   5  -1  27   30.54   10.61
  -5  -1 -27   31.75    6.81
   5   1 -27   27.61    5.63
   5  -1 -27   26.03    5.12
   5   1 -29  102.32   12.84
  -5   1 -29   84.20   12.62
  -5  -1 -29   84.96   12.59
   5  -1 -29   97.80   12.17
   5   1 -29  102.92   11.97
   5  -1 -29   98.04   11.80
   5  -1 -31  224.00   14.83
   5  -1 -31  209.94   15.31
  -5  -1 -31  179.42   15.61
   5   1 -31  206.92   15.32
   5   1 -31  209.83   14.64
   5   1 -33  154.77   12.86
   5  -1 -33  157.84   12.75
   5   1 -33  173.45   12.70
   5  -1 -33  178.30   12.90
   5  -1 -35  202.71   15.07
   5   1 -35  236.56   15.07
   5  -1 -35  241.32   14.95
   5   1 -37  152.47   10.78
   5  -1 -37  135.84   10.12
   5  -1 -39   18.99    3.51
   5   1 -39   25.97    3.94
   5   3  -1  148.25    9.60
   5   3   1  145.55   10.21
   5   3  -1  154.68   10.99
   5  -3  -1  135.79   11.11
   5  -3   1   87.50   10.18
   5  -3  -1  110.65    9.82
   5  -3   1  127.00   10.04
   5   3  -1  120.59    7.75
   5   3   1  149.98   10.86
   5   3   1  113.59    5.72
   5   3   3  209.61   13.72
   5   3  -3  182.55   11.43
   5  -3   3  167.99   15.32
   5  -3  -3  250.63   17.54
   5  -3   3  131.71   11.51
   5   3   3  232.40   16.00
   5   3  -3  207.91   13.60
  -5  -3  -5  394.12   19.58
  -5   3  -5  389.35   15.55
   5  -3   5  384.45   19.74
   5   3  -5  420.98   15.09
   5   3   5  391.18   20.08
   5   3  -7  194.94   16.11
   5  -3  -7  232.65   17.33
  -5   3  -7  181.31   16.33
  -5  -3  -7  222.42   17.23
   5  -3   7  180.77   15.16
  -5   3  -7  198.37   12.98
   5   3  -7  186.22   15.88
   5   3  -9  610.43   22.32
   5  -3  -9  613.72   22.31
  -5   3  -9  572.04   23.36
  -5  -3  -9  571.74   22.39
  -5   3  -9  557.24   17.35
   5   3  -9  569.79   21.93
  -5   3 -11    0.72    4.61
  -5   3 -11    0.20    3.13
   5   3 -11    8.67    3.15
   5  -3 -11    1.88    3.15
   5   3 -11    1.18    3.56
   5  -3 -11    0.06    4.14
  -5  -3 -11    5.17    3.82
  -5  -3  11    0.39    3.65
  -5  -3  13    9.33    4.28
   5   3 -13   13.73    6.46
  -5   3 -13   10.08    6.89
   5   3 -13    9.34    6.89
  -5   3 -13   14.94    6.23
   5  -3 -13    7.44    6.45
  -5  -3 -13   11.19    7.09
   5  -3 -13    8.21    7.12
   5   3 -15   58.44    8.60
  -5   3 -15   70.92   10.39
   5  -3 -15   62.27    9.09
  -5  -3 -15   52.80    9.42
  -5   3 -15   57.32    7.73
   5   3 -15   59.98    9.10
   5   3 -17   38.18    8.69
   5   3 -17   44.12    9.09
   5  -3 -17   47.93    9.34
  -5  -3 -17   36.38    8.82
  -5   3 -17   34.08    7.85
  -5   3 -17   33.82    9.09
   5   3 -19  301.65   19.65
   5  -3 -19  321.38   19.71
   5   3 -19  289.22   18.29
  -5   3 -19  255.06   17.95
   5   3  19  246.81   19.13
  -5  -3 -19  249.90   17.50
   5   3  21  247.42   25.27
  -5  -3 -21  260.98   23.75
   5   3 -21  284.07   25.19
   5   3 -21  294.00   23.55
  -5   3 -21  249.45   23.92
   5  -3 -21  291.46   24.22
   5   3 -23   93.52   14.78
   5   3 -23   89.14   13.21
   5  -3 -23  115.95   15.34
  -5   3 -23   87.94   14.43
   5   3 -23  110.37    9.55
  -5  -3 -23  102.18   14.71
   5   3  23  110.26   16.68
  -5   3 -23  102.98   11.07
   5  -3 -23   85.30    8.82
  -5  -3 -23   96.10   10.04
   5  -3 -23   96.66    9.69
   5   3 -25    9.21    4.09
  -5  -3 -25    8.65    6.35
  -5   3 -25    5.20    4.40
   5  -3 -25    9.78    4.35
   5   3  25    5.93    6.67
   5   3 -25    0.76    4.74
  -5   3 -25    1.82    3.48
  -5  -3 -25    3.75    3.84
   5   3 -25    0.94    2.32
   5  -3 -25    2.02    2.54
   5   3 -27   29.03    5.60
   5   3 -27   29.24    6.66
  -5   3 -27   31.26   11.20
   5  -3 -27   24.73    5.52
   5   3 -27   25.43    9.59
  -5  -3 -27   25.71    6.38
   5  -3 -27   32.32    6.66
   5   3  27   25.21    9.38
   5   3 -29   31.96    4.72
  -5  -3 -29   27.73    5.86
   5   3 -29   31.55    5.91
   5  -3 -29   33.73    5.57
   5   3 -31   26.74    5.39
   5  -3 -31   33.03    6.18
   5  -3 -31   24.07    5.45
  -5  -3 -31   47.18    7.96
   5   3 -31   31.79    6.32
   5   3 -33  104.87   10.03
   5  -3 -33  115.00   10.40
   5   3 -33  135.57   10.70
   5  -3 -33  125.59   10.55
   5  -3 -35   76.29    8.88
   5   3 -35   77.77    8.58
   5  -3 -35   75.47    8.45
   5   3 -37   36.98    5.95
   5  -3 -37   32.57    6.08
   5  -3 -37   35.77    5.68
   5  -3 -39    1.48    1.95
   5   3 -39    0.53    1.80
   5   5   1  706.91   22.58
   5   5  -1  731.39   23.21
   5   5  -1  700.85   21.01
   5  -5  -1  724.57   22.29
   5   5   1  751.50   22.68
   5  -5   1  707.48   22.16
   5   5   1  693.53   16.77
   5   5  -1  730.03   19.76
   5  -5  -3   68.25    8.86
   5   5   3   51.77    5.28
   5   5  -3   59.41    8.31
   5   5  -3   67.72    9.16
   5   5   3   66.36   10.23
   5  -5   3   46.05   10.28
  -5  -5  -5   57.83    7.83
   5  -5   5   46.32    8.94
   5  -5  -5   68.42    6.92
  -5   5  -5   50.47    6.78
   5   5  -5   66.45    7.20
   5   5  -5   91.83    9.25
   5   5   5   51.43    8.20
   5  -5   7  608.37   21.47
  -5   5  -7  558.01   20.58
   5   5  -7  585.48   20.65
  -5   5  -7  575.94   18.71
  -5  -5  -7  552.12   19.82
   5   5  -7  599.56   21.53
   5   5   7  542.01   20.78
  -5   5  -9   22.96    3.38
   5  -5   9   22.37    4.00
  -5  -5  -9   25.99    4.34
   5   5  -9   21.96    3.18
   5   5  -9   21.50    3.67
   5  -5  -9   28.29    4.77
  -5   5  -9   16.31    3.42
  -5  -5   9   23.58    3.38
   5   5   9   23.97    4.37
  -5   5 -11   48.29    6.56
   5  -5  11   39.75    5.61
  -5   5 -11   41.28    4.64
  -5  -5  11   45.27    4.39
   5   5 -11   60.26    6.85
   5   5 -11   52.01    6.00
  -5  -5 -11   37.94    5.58
   5  -5 -11   46.16    6.54
   5   5  11   38.64    5.88
   5  -5  13  667.38   25.02
   5  -5 -13  758.69   30.17
   5   5 -13  775.46   27.84
  -5  -5  13  700.67   20.91
  -5   5 -13  754.31   30.18
  -5  -5 -13  742.78   28.67
  -5   5 -13  733.55   25.94
   5   5  13  650.18   28.69
   5   5 -13  789.43   29.31
   5   5 -15  261.24   16.71
   5  -5 -15  280.51   18.77
  -5   5 -15  243.44   17.35
  -5  -5 -15  273.33   18.14
   5   5 -15  258.61   17.36
   5   5  15  226.91   16.98
  -5   5 -15  242.68   15.27
   5   5 -17   99.94   10.45
  -5   5 -17   90.52   11.45
  -5  -5 -17   83.21   10.34
   5  -5 -17   95.41   10.78
   5   5  17   88.27   11.39
  -5   5 -17   90.85    9.86
   5   5 -17  101.85   11.06
  -5  -5 -19    1.24    5.31
   5   5 -19    2.99    4.82
  -5   5 -19    0.06    4.19
   5  -5 -19    3.86    6.59
   5   5  19    1.24    6.15
   5   5 -19    2.83    5.38
  -5  -5 -21   67.62   11.70
   5  -5 -21   71.14   11.43
   5   5 -21   49.75    9.60
  -5   5 -21   50.63   11.64
   5   5  21   60.09   11.71
   5   5 -21   71.77   11.81
   5   5 -23    0.36    2.75
   5   5 -23    1.67    4.11
   5  -5 -23    0.19    3.41
  -5   5 -23    1.02    5.16
   5  -5 -23    0.55    2.59
  -5  -5 -23    1.12    3.99
  -5  -5 -23    0.33    2.49
   5  -5 -23    0.55    2.75
   5   5  23    0.33    3.99
   5   5  25    3.68    6.70
   5   5 -25    0.03    2.69
  -5   5 -25    0.52    5.04
   5   5 -25    2.83    4.49
   5  -5 -25    1.90    3.22
  -5  -5 -25    0.38    2.96
   5   5 -25    0.33    2.58
   5  -5 -25    0.46    3.00
   5   5 -27   12.73    3.42
   5   5  27   14.46    7.95
  -5   5 -27   11.10    6.91
   5  -5 -27    0.73    3.13
   5   5 -27   24.51    8.19
   5   5 -27   11.14    3.47
  -5  -5 -27   14.31    4.62
   5  -5 -27    4.44    2.67
  -5  -5 -29   34.85    7.15
   5  -5 -29   31.32    6.28
   5   5 -29   34.85    6.17
   5   5 -29   29.83    6.43
   5  -5 -31   84.79   10.09
  -5  -5 -31   81.36   11.27
   5   5 -31   83.61    9.86
   5   5 -33   21.57    4.98
   5  -5 -33   21.26    4.94
  -5  -5 -33   21.57    5.75
   5  -5 -33   12.33    4.28
   5   5 -35   11.47    4.39
   5  -5 -35   10.17    4.18
   5  -5 -35   14.70    5.07
   5  -5 -37    1.72    2.25
   5  -5 -37    7.53    3.31
   5   5 -37    4.64    2.66
   5  -5 -39    3.90    2.50
   5   5 -39    0.73    1.66
   5   7  -1 1932.50   50.37
   5  -7   1 1788.53   49.66
   5   7  -1 1547.23   44.70
   5   7   1 1717.40   48.58
   5  -7  -1 1788.25   47.62
   5   7   1 1521.73   38.04
   5   7  -1 1682.97   43.31
   5   7   3    5.94    3.89
   5   7   3    6.73    6.31
   5   7  -3    2.94    5.48
   5   7  -3    2.09    5.00
  -5  -7  -3    1.98    3.88
   5  -7   3    1.62    6.51
   5  -7  -3    1.93    5.37
   5   7  -3    3.90    5.35
   5   7   5  139.35   12.97
   5   7  -5  163.67   12.41
   5   7  -5  174.84   13.02
   5  -7  -5  166.68   10.80
  -5  -7  -5  140.75   10.86
   5  -7   5  116.00   12.92
  -5   7  -5  152.49   11.57
   5   7   5  135.02    7.94
   5   7  -5  141.98   11.14
   5   7   7    1.20    2.67
   5   7   7    0.27    5.89
  -5   7  -7    0.40    4.90
   5  -7  -7    0.70    3.86
  -5  -7  -7    0.20    4.63
   5   7  -7    0.76    5.05
   5   7  -7    0.50    5.43
  -5  -7   7    0.88    4.20
  -5   7  -7    2.54    4.76
   5  -7   7    1.13    5.42
   5   7   9    0.71    4.91
  -5   7  -9    0.04    4.43
   5   7  -9    0.63    4.23
   5   7  -9    0.90    3.76
  -5  -7  -9    0.54    4.21
  -5   7   9    0.57    1.95
  -5  -7   9    7.45    2.09
  -5   7  -9    0.02    3.80
   5  -7  -9    0.51    2.28
   5  -7   9    0.10    4.07
   5   7 -11  547.34   29.19
  -5  -7 -11  508.03   28.46
  -5   7 -11  480.91   29.19
  -5  -7  11  483.92   24.24
  -5   7 -11  457.20   26.62
   5  -7  11  492.95   28.41
   5   7 -11  569.99   30.93
   5   7  11  433.87   28.30
   5  -7  13  945.99   36.39
   5   7 -13  960.88   37.23
  -5  -7  13  967.09   30.72
  -5  -7 -13  981.37   38.41
   5  -7 -13 1082.56   43.24
  -5   7 -13  975.25   36.87
   5   7 -13 1004.33   39.88
   5   7  13  935.77   39.89
  -5   7 -13  981.97   39.71
   5   7 -15  647.93   28.93
   5  -7  15  501.68   25.81
   5  -7 -15  727.20   32.98
  -5   7 -15  590.74   30.28
  -5  -7 -15  617.03   29.23
  -5   7 -15  546.09   26.48
   5   7  15  585.87   30.15
   5   7 -15  616.04   29.85
  -5   7 -17  257.37   16.03
   5   7 -17  329.39   18.32
   5  -7 -17  308.14   20.05
  -5  -7 -17  269.83   17.20
  -5   7 -17  274.18   18.27
   5   7 -17  307.45   18.50
   5   7  17  253.42   17.65
   5   7 -19   81.04   11.21
   5   7 -19   83.91   11.77
  -5  -7 -19   84.15   12.00
  -5   7 -19   74.21   11.51
   5  -7 -19   91.08   12.75
  -5   7 -19   75.32   10.90
   5   7  19   74.79   11.98
   5   7  21    2.23    5.53
   5   7 -21    4.07    2.93
   5   7 -21    2.91    4.96
  -5  -7 -21    3.70    5.43
   5  -7 -21   14.34    8.70
  -5   7 -21    5.22    6.28
   5   7 -21    8.92    7.36
   5  -7 -21    6.16    3.89
   5  -7 -21    4.10    3.20
   5   7 -23    1.95    3.51
   5   7  23    0.25    5.08
   5  -7 -23    0.05    5.01
   5   7 -23    0.29    3.97
  -5  -7 -23    0.63    5.11
  -5   7 -23    0.68    5.85
   5  -7 -23    0.07    3.18
  -5  -7 -23    0.62    3.37
   5  -7 -23    0.13    2.99
   5   7  25   36.57   11.85
  -5   7 -25   22.56   10.11
   5   7 -25   33.91   11.31
   5  -7 -25   40.53    7.21
   5  -7 -25   38.23    6.96
   5   7 -25   41.49    7.23
  -5  -7 -25   34.30    7.59
   5   7  27   66.99   14.36
  -5   7 -27   66.09   13.53
   5  -7 -27   75.02    8.90
   5   7 -27   65.15   13.34
  -5  -7 -27   84.99    9.94
   5   7 -27   88.11    8.84
   5  -7 -27   79.60    8.81
   5  -7 -29   80.00    7.83
  -5  -7 -29  101.54    9.85
   5  -7 -29   98.22    8.76
   5   7 -29  104.97    8.52
   5  -7 -31   78.02    8.86
  -5  -7 -31   80.81   10.56
   5   7 -31   78.25    8.45
  -5  -7 -33   56.54    9.86
   5  -7 -33   46.45    8.06
   5   7 -33   46.82    7.75
   5  -7 -33   43.72    7.91
   5  -7 -35    0.08    3.49
   5  -7 -35    0.08    2.94
   5   7 -35    0.06    3.31
   5  -7 -37    4.05    2.81
   5  -7 -37    2.96    2.23
   5   7 -37    6.76    2.63
   5   9  -1  914.33   30.16
  -5  -9   1  894.62   31.73
   5  -9   1  978.70   33.42
   5  -9  -1  941.43   32.82
   5   9  -1  853.75   31.68
   5   9   1  903.34   33.33
  -5  -9  -1  743.58   20.49
   5   9   1  823.40   27.62
  -5  -9  -3  215.46   10.30
   5   9   3  243.65   15.77
   5  -9  -3  247.09   14.40
  -5  -9   3  227.50   14.23
   5  -9   3  224.08   15.51
   5   9  -3  213.97   13.76
   5   9   3  214.99   11.47
   5   9  -3  246.73   14.31
   5   9  -5   72.55   12.06
   5   9   5   87.39   13.76
   5   9  -5   90.35   13.68
  -5  -9   5   82.31   12.20
  -5  -9  -5   69.35    9.84
   5  -9   5   52.96   13.13
  -5   9  -5   75.72   12.27
   5  -9  -5   88.02   11.82
   5   9  -5   83.58   13.08
   5   9   5   69.10    9.39
   5   9  -7    5.23    5.47
  -5   9  -7    4.09    5.29
   5  -9  -7    2.03    4.20
  -5  -9   7    1.27    4.47
   5   9   7    4.78    3.94
   5   9   7    7.12    6.67
  -5  -9  -7    8.45    5.20
  -5   9  -7    1.94    4.78
   5   9  -7    6.76    6.09
   5  -9   7    0.62    5.72
   5   9   9  252.16   17.58
   5   9  -9  299.17   18.27
  -5   9  -9  279.98   17.22
   5  -9  -9  283.47   12.98
   5  -9   9  301.99   18.29
  -5  -9   9  280.05   15.81
  -5  -9  -9  274.48   15.97
  -5   9   9  272.17   14.09
  -5   9  -9  274.76   16.52
   5   9  -9  289.42   18.01
   5   9  11  950.97   36.42
   5   9 -11 1043.61   35.92
  -5  -9 -11  987.52   32.99
  -5   9 -11  992.09   35.19
  -5   9 -11  937.69   33.98
   5  -9 -11  953.78   23.31
  -5  -9  11  936.21   29.73
   5   9 -11 1047.72   36.52
   5  -9  11  985.37   34.88
   5   9 -13  705.87   29.64
  -5  -9 -13  593.69   24.41
  -5  -9  13  683.04   24.64
  -5  -9 -13  662.28   27.94
  -5   9 -13  669.11   29.71
   5  -9  13  702.56   28.92
  -5   9 -13  631.10   27.91
   5   9  13  646.33   30.83
   5   9 -13  694.67   30.30
   5   9 -15  851.96   35.71
   5  -9  15  719.16   33.29
  -5  -9 -15  750.04   33.65
  -5  -9 -15  639.85   26.74
  -5   9 -15  773.00   36.12
  -5  -9  15  790.55   29.12
   5  -9 -15  884.93   41.15
  -5   9 -15  683.42   32.81
   5   9 -15  795.97   36.04
   5   9  15  731.46   36.54
  -5   9 -17  399.62   26.90
   5   9 -17  433.59   27.17
   5  -9 -17  488.91   30.74
  -5  -9 -17  398.66   25.95
   5  -9  17  348.20   24.18
  -5   9 -17  379.61   25.20
   5   9 -17  430.28   27.44
   5   9  17  421.67   29.10
   5   9 -19   94.91   14.39
  -5  -9 -19   74.42   12.85
  -5   9 -19   77.42   13.51
   5  -9 -19  105.12   16.83
  -5   9 -19   61.33   11.39
   5   9 -19   91.21   14.29
   5   9  19   82.10   14.76
  -5   9 -21   39.39    9.31
   5   9 -21   49.71    6.11
  -5  -9 -21   37.93    9.65
   5   9 -21   29.10    8.83
   5  -9 -21   39.09    9.61
   5   9  21   44.85   10.78
   5   9 -21   37.99    9.08
   5  -9 -21   39.70    5.78
   5  -9 -21   45.75    6.20
  -5  -9 -21   31.38    5.28
   5   9 -23   20.21    4.92
   5  -9 -23   18.96    8.20
  -5   9 -23   18.09    8.75
   5   9  23    9.13    6.46
   5   9 -23   10.53    6.94
   5  -9 -23    7.24    4.16
  -5  -9 -23   19.70    5.26
   5  -9 -23   18.76    4.95
  -5  -9 -25   74.39    9.07
  -5   9 -25   52.14   12.50
   5   9 -25   73.61   13.80
   5   9  25   74.70   14.59
   5  -9 -25   92.22    9.17
   5  -9 -25  100.94    9.86
   5   9 -25   92.28    8.73
   5  -9 -27  223.60   15.55
   5  -9 -27  203.43   14.77
  -5  -9 -27  226.01   16.90
   5   9 -27  236.94   15.17
   5  -9 -29  144.78   11.58
  -5  -9 -29  163.14   13.41
   5   9 -29  181.00   12.41
   5  -9 -29  169.90   12.26
   5  -9 -31   62.76    8.18
  -5  -9 -31   66.29    9.50
   5   9 -31   68.40    8.44
   5   9 -33   39.58    6.88
  -5  -9 -33   46.18    7.94
   5  -9 -33   37.67    6.41
   5  -9 -35    2.87    2.82
  -5  -9 -35   11.36    5.04
   5  -9 -35    9.86    4.19
   5   9 -35   10.55    3.96
   5  -9 -37   13.04    3.42
   5  -9 -37   13.75    3.69
   5   9 -37   16.60    3.87
  -5 -11  -1   64.87   12.10
   5 -11  -1   56.68   11.52
   5  11   1   42.95    9.59
  -5 -11  -1   37.25    5.31
  -5 -11   1   22.66    3.91
   5  11  -1   49.64   11.49
   5 -11   1   43.12   10.82
   5  11   1   45.39   11.30
  -5 -11   1   43.84   10.48
   5  11  -1   54.35   10.49
  -5 -11   3  979.16   27.69
   5  11   3  898.56   23.76
  -5 -11  -3  963.23   28.09
   5  11  -3  928.08   28.12
   5 -11   3  916.65   28.30
   5  11   3  917.84   28.83
   5 -11  -3  939.85   27.86
  -5 -11  -3  848.21   16.90
   5  11  -3  962.07   27.18
  -5  11  -5   12.17    8.06
  -5 -11  -5   14.98    8.96
   5 -11   5    9.41    8.46
  -5 -11  -5   12.93    5.96
  -5 -11   5   14.13    7.96
   5  11   5    7.17    5.79
   5 -11  -5   16.93    7.83
   5  11  -5    9.77    7.59
   5  11   5   14.86    9.25
   5  11  -5   18.48    8.67
  -5 -11   7    1.15    3.68
   5  11   7    0.14    3.17
  -5  11  -7    1.51    3.51
  -5 -11  -7    1.75    3.67
   5 -11  -7    0.13    4.01
   5  11  -7    0.29    4.67
   5  11   7    0.15    4.80
  -5  11  -7    0.02    4.41
  -5 -11  -7    0.57    2.73
   5 -11   7    0.38    3.65
   5  11   9  616.42   31.62
   5 -11  -9  649.44   24.51
   5 -11   9  645.50   31.28
  -5  11  -9  623.35   28.75
  -5 -11  -9  652.06   25.94
  -5 -11  -9  644.61   30.10
   5  11   9  575.80   23.74
   5  11  -9  688.83   31.49
  -5  11  -9  583.02   29.50
  -5  11   9  669.03   28.29
  -5 -11   9  621.47   27.49
   5  11  11  380.10   25.43
   5  11 -11  469.70   25.26
  -5 -11 -11  397.03   22.54
  -5 -11  11  420.23   21.32
   5 -11  11  456.81   25.26
   5 -11 -11  432.73   17.86
  -5  11 -11  383.61   22.39
  -5 -11 -11  410.08   21.28
   5  11 -11  438.89   25.35
  -5  11 -11  412.91   24.01
   5  11  13  767.44   36.25
   5  11 -13  822.20   34.97
  -5  11 -13  742.85   33.54
  -5 -11 -13  777.54   31.03
   5 -11  13  773.31   34.33
  -5 -11 -13  708.43   29.21
  -5 -11  13  777.39   29.58
  -5  11 -13  753.67   33.41
   5  11 -13  802.88   35.36
   5  11  15  459.80   28.32
   5  11 -15  470.51   26.58
  -5 -11  15  495.43   23.21
  -5  11 -15  433.37   25.60
  -5 -11 -15  429.84   24.06
   5 -11  15  450.43   25.51
  -5  11 -15  390.95   24.24
   5  11 -15  498.58   27.45
   5  11  17  165.63   15.95
   5 -11  17  162.23   14.02
  -5  11 -17  169.17   14.63
  -5 -11 -17  150.10   13.28
   5 -11 -17  170.85   16.99
  -5  11 -17  157.01   13.93
   5  11 -17  183.01   15.41
   5  11  19   68.33   14.02
   5 -11 -19   72.34    8.63
   5 -11 -19   73.01    8.27
  -5  11 -19   71.85   12.75
   5 -11 -19   66.96   14.42
  -5 -11 -19   68.81   12.29
  -5  11 -19   62.81   11.78
   5  11 -19   79.51    8.58
   5  11 -19   71.52   13.03
   5  11 -21    7.51    3.94
   5  11 -21    3.70    5.48
   5  11  21    6.66    7.76
   5 -11 -21    4.47    7.01
  -5  11 -21    0.20    4.41
   5 -11 -21    4.81    3.72
  -5 -11 -21    4.48    3.77
   5 -11 -21    3.59    3.56
  -5  11 -23   49.57   12.47
   5  11  23   49.48   12.77
   5 -11 -23   60.76   12.34
   5  11 -23   54.36    6.81
   5  11 -23   42.74   10.48
   5 -11 -23   54.62    7.16
  -5 -11 -23   51.43    7.51
   5 -11 -23   60.91    7.65
   5  11 -25   84.77   15.23
  -5  11 -25   63.96   13.40
   5  11  25   71.34   14.49
   5 -11 -25   81.55    8.94
   5  11 -25   80.40    8.51
  -5 -11 -25   83.29    9.77
   5 -11 -25  109.09   10.11
   5 -11 -27  249.41   14.91
   5 -11 -27  231.78   14.59
   5  11 -27  258.57   14.52
  -5 -11 -27  232.14   15.67
   5  11 -29  299.14   17.24
  -5 -11 -29  266.40   18.92
   5 -11 -29  264.53   16.97
   5 -11 -31    6.31    3.45
  -5 -11 -31   16.11    5.82
   5 -11 -31   16.51    4.71
   5  11 -31   18.53    5.12
  -5 -11 -33    2.99    3.62
   5 -11 -33    1.60    2.77
   5  11 -33    0.11    2.98
   5 -11 -35    6.78    3.09
   5  11 -35    3.65    2.68
  -5 -11 -35    7.42    3.33
   5 -11 -35    0.44    2.81
   5  11  37   11.06    4.28
   5 -11 -37   11.35    3.23
   5 -11 -37    7.67    2.79
   5  11 -37   12.53    3.10
  -5 -13   1   38.73   13.96
   5 -13   1   34.43   13.49
   5 -13  -1   33.78   13.04
   5  13  -1   28.65   14.03
  -5 -13  -1   31.86   13.65
   5  13   1   31.89   14.12
   5  13   1   38.20   12.74
   5  13  -1   36.96   13.67
   5  13  -3   32.53   10.70
  -5 -13   3   37.14   10.37
   5 -13   3   23.52    9.99
   5  13   3   32.64    9.56
   5 -13  -3   42.02   10.63
  -5 -13  -3   36.92   11.38
  -5  13  -3   35.07   10.51
   5  13   3   35.12   11.53
   5  13  -3   35.27   10.03
  -5  13  -5  108.60   12.15
   5  13   5  128.61   15.22
  -5  13  -5  134.43   16.15
   5 -13   5   99.17   14.56
  -5 -13  -5  139.67   14.94
   5  13   5  122.63   12.38
   5  13  -5  131.05   14.52
  -5 -13   5  131.24   13.87
   5  13  -5  143.35   14.71
   5 -13  -5  155.06   14.38
   5 -13   7   42.48    9.07
  -5 -13   7   42.94    8.42
  -5  13  -7   41.69    9.79
   5  13  -7   33.15    8.98
   5 -13  -7   29.70    7.06
  -5  13  -7   37.58    7.82
  -5 -13  -7   30.27    8.38
   5  13   7   36.96    7.79
   5  13   7   45.56   10.55
   5  13   9    2.51    3.14
  -5  13  -9    9.19    4.54
  -5  13  -9    4.06    4.01
  -5 -13  -9    2.90    2.79
  -5 -13   9    2.70    4.16
  -5 -13  -9    1.61    4.98
   5  13   9    0.70    4.28
   5 -13   9    6.42    4.06
   5 -13  -9   11.23    2.60
   5  13  -9    5.49    3.35
  -5 -13 -11  241.05   20.98
   5 -13  11  250.21   23.20
  -5  13 -11  222.24   20.00
  -5 -13 -11  221.45   17.48
   5  13  11  233.90   24.26
   5 -13 -11  255.50   17.50
   5  13 -11  268.71   23.61
  -5  13 -11  227.59   22.27
  -5 -13  11  263.76   20.50
   5  13  13  171.37   18.24
  -5  13 -13  175.33   15.38
  -5 -13 -13  162.72   13.95
  -5 -13 -13  162.43   14.23
  -5 -13  13  171.76   14.37
   5 -13  13  194.43   17.11
  -5  13 -13  178.77   16.53
   5  13 -13  182.66   16.90
   5  13  15  221.39   24.05
  -5 -13  15  245.20   20.23
  -5 -13 -15  211.75   19.00
  -5  13 -15  207.06   20.15
   5 -13  15  220.99   21.41
  -5  13 -15  196.88   20.98
   5  13 -15  239.41   23.15
   5 -13  17   12.15    5.34
   5  13  17    2.47    4.95
   5  13 -17    6.97    5.10
  -5  13 -17    4.87    3.99
  -5  13 -17    9.91    4.69
   5 -13  19    8.90    3.05
  -5  13 -19    7.56    3.33
   5  13  19   22.11    8.05
  -5  13 -19    0.14    3.07
   5  13 -19    9.35    5.80
   5 -13 -19   13.78    7.49
   5 -13 -19   10.98    3.46
  -5 -13 -19    6.39    3.22
  -5 -13 -19   15.30    3.90
   5  13 -19   10.53    3.71
   5 -13 -19   11.02    3.43
  -5  13 -21    1.65    3.65
   5 -13 -21    1.54    5.74
   5  13  21    0.22    4.98
  -5  13 -21    0.18    3.53
   5  13 -21    4.01    7.32
   5 -13 -21    0.16    2.75
  -5 -13 -21    0.30    2.49
   5  13 -21    0.51    2.53
   5 -13 -21    1.18    2.97
   5  13  23   15.52    5.41
   5 -13 -23   16.68    6.28
   5  13 -23    0.43    7.23
   5 -13 -23   14.68    3.92
  -5 -13 -23   14.86    4.12
   5 -13 -23   11.15    3.28
   5  13 -23   13.33    3.58
   5  13  25   37.31   11.67
   5 -13 -25   50.50    7.88
   5  13 -25   42.52    6.77
   5 -13 -25   37.69    7.02
  -5 -13 -25   36.85    7.22
   5  13 -27  239.36   15.45
   5 -13 -27  219.36   15.83
  -5 -13 -27  202.11   16.23
   5 -13 -27  221.00   15.29
  -5 -13 -29   36.96    6.20
   5 -13 -29   44.45    6.05
   5  13 -29   40.89    5.57
   5 -13 -29   34.89    5.24
   5 -13 -31    2.84    3.13
  -5 -13 -31    0.77    3.05
   5 -13 -31    1.69    3.28
   5  13 -31    2.77    3.41
   5  13 -33   52.33    6.45
   5 -13 -33   46.68    6.28
  -5 -13 -33   47.31    6.45
   5 -13 -35   27.79    4.29
   5 -13 -35   24.86    4.09
   5  13  35   16.40    4.63
  -5 -13 -35   27.32    4.65
   5  13 -35   26.69    4.21
   5 -13 -37    4.89    1.81
   5  13  37    2.71    2.65
   5  13 -37    5.71    2.11
   5 -13 -37   10.18    2.76
   5  15  -1    0.37    7.29
   5  15   1    1.08    6.48
  -5 -15   1    0.26    6.52
  -5 -15  -1    1.29    7.23
   5 -15  -1    0.58    6.25
   5  15  -1    0.04    5.89
   5  15   1    0.21    6.75
   5 -15   1    0.24    5.45
  -5 -15  -3  279.07   26.25
   5  15   3  304.10   28.83
   5  15   3  296.20   25.29
   5 -15   3  238.47   25.05
   5 -15  -3  289.09   24.82
  -5 -15   3  315.57   25.06
  -5  15  -3  379.14   31.21
   5  15  -3  269.50   27.63
   5  15  -3  300.61   26.09
  -5  15  -5  154.45   17.41
   5  15   5  218.01   22.35
   5  15   5  187.32   24.43
  -5  15  -5  237.32   27.23
  -5 -15   5  217.51   22.24
  -5 -15  -5  196.46   23.14
   5 -15   5  158.98   22.64
   5 -15  -5  245.91   22.59
   5  15  -5  225.63   25.58
   5  15  -5  219.47   23.94
   5  15   7  112.18   12.23
  -5 -15   7  103.66   10.46
  -5  15  -7   83.83   10.55
   5 -15   7   96.79   10.37
  -5  15  -7   78.70    7.90
  -5 -15  -7   88.43   10.42
   5 -15  -7   93.73    9.41
   5  15   7  106.31   10.07
   5  15  -7   94.02   10.34
  -5 -15   9  219.79   15.34
  -5 -15  -9  219.44   16.32
   5 -15  -9  227.92   14.47
   5  15   9  247.58   19.26
   5 -15   9  228.89   17.39
  -5  15  -9  199.92   13.22
   5  15   9  216.37   14.82
  -5  15  -9  231.24   17.43
   5  15  -9  235.89   17.76
  -5 -15  11   37.63    7.16
   5 -15  11   30.17    6.87
  -5  15 -11   19.44    4.74
   5  15 -11   32.11    6.94
  -5  15 -11   28.01    6.75
  -5 -15 -11   34.42    6.91
   5  15  11   29.35    8.18
  -5 -15  13   21.79    6.41
   5  15 -13   18.41    6.55
  -5  15 -13   14.71    5.90
   5 -15  13   26.56    7.39
  -5  15 -13   12.25    4.63
   5  15  13    9.00    4.66
  -5 -15 -13   12.92    3.98
   5  15 -15    2.25    4.02
  -5 -15  15    1.08    4.47
  -5  15 -15    0.93    3.42
   5  15  15    1.29    7.62
   5 -15  15    2.17    4.81
   5  15  17    7.01    4.39
  -5  15 -17    7.87    6.88
   5 -15  17    6.63    5.76
   5  15  17    7.13    8.39
   5 -15 -17   12.33    4.72
   5  15 -17   13.59    8.55
   5  15 -17   14.24    5.11
   5  15 -19  134.43   10.86
   5 -15 -19  144.10   20.95
  -5 -15 -19   82.73    9.55
   5  15  19  115.52   19.36
   5  15  19   90.94    9.99
   5 -15  19  108.26   15.93
   5 -15 -19  130.60   11.25
  -5 -15 -19   90.85    9.21
  -5  15 -19  103.32   16.08
   5  15 -19  134.45   18.56
   5  15  21  229.51   25.14
   5 -15 -21  237.70   14.09
   5 -15 -21  222.64   23.25
   5  15 -21  256.62   13.76
  -5 -15 -21  188.03   12.74
   5 -15 -21  240.60   14.12
  -5  15 -21  163.08   18.60
   5  15 -21  209.30   21.36
   5 -15 -23   70.51   13.18
   5 -15 -23   89.16    9.10
   5  15 -23   88.04    8.78
   5  15  23   96.22   17.10
  -5 -15 -23   78.80    8.92
   5 -15 -23   91.26    8.98
   5  15 -23   89.68   15.13
   5  15 -25    0.06    2.85
   5 -15 -25    0.03    3.88
  -5 -15 -25    6.03    3.17
   5 -15 -25    0.03    3.54
   5 -15 -27   11.84    3.11
  -5 -15 -27   11.22    2.93
   5  15 -27   11.66    3.30
   5 -15 -27    2.47    3.15
   5 -15 -29    0.19    3.35
  -5 -15 -29    0.05    2.90
   5  15 -29    0.75    3.25
   5 -15 -29    0.06    2.89
   5 -15 -31   18.24    4.25
  -5 -15 -31   26.17    5.62
   5  15 -31   30.18    5.40
   5 -15 -31   26.37    4.75
   5 -15 -33   95.09    8.15
   5  15 -33  102.34    8.29
  -5 -15 -33   85.82    8.44
   5  15 -35   94.29    7.58
   5 -15 -35  100.11    8.07
   5 -15 -35  106.77    8.03
  -5  17  -1   13.94    4.45
   5  17   1   11.95    5.41
  -5 -17  -1    5.99    4.32
   5  17  -1   11.42    3.80
   5 -17   1   15.76    5.07
   5  17   1    8.88    3.56
   5  17  -1   10.28    5.51
   5 -17  -1    9.30    3.64
  -5 -17   1   11.87    4.24
   5 -17  -3  216.37   24.12
   5  17   3  210.90   27.34
  -5 -17  -3  213.14   25.04
  -5 -17   3  209.63   23.23
  -5  17  -3  256.65   30.37
   5  17   3  206.28   24.28
   5  17  -3  211.10   27.33
   5  17  -3  223.01   25.56
   5 -17   3  157.63   23.13
  -5 -17   5 1039.84   40.86
   5 -17   5  922.21   41.49
  -5  17  -5 1145.66   51.04
  -5 -17  -5 1003.40   43.38
   5 -17  -5 1065.06   42.18
   5  17   5 1016.58   47.70
   5  17   5 1048.98   43.46
   5  17  -5 1142.42   46.15
   5  17   7  431.77   26.02
   5  17   7  409.96   29.39
  -5 -17  -7  408.39   25.95
   5 -17  -7  436.45   24.53
  -5 -17   7  417.17   24.10
  -5  17  -7  470.19   30.41
   5  17  -7  440.93   27.33
   5 -17   7  432.20   26.45
  -5 -17  -9  568.78   32.96
   5  17   9  577.11   37.30
   5 -17   9  551.34   33.07
   5 -17  -9  572.91   29.51
  -5 -17   9  598.88   31.62
  -5  17  -9  582.03   36.89
   5  17  -9  595.85   35.16
  -5 -17 -11  133.78   15.30
   5 -17  11  134.18   16.82
  -5  17 -11  154.50   18.03
   5  17  11  152.94   18.97
   5  17 -11  155.40   17.82
  -5 -17  11  143.20   15.27
   5  17  13   54.51   10.34
   5 -17 -13   62.22    6.56
  -5 -17  13   67.14    9.51
   5 -17  13   55.79   11.27
   5  17 -13   57.61   10.30
   5  17 -13   68.52    6.63
  -5  17 -13   62.93   11.04
  -5 -17 -13   49.49    8.13
   5 -17  15   15.26    7.01
  -5 -17  15   13.15    6.84
   5  17  15   13.43    4.80
   5  17 -15   17.85    8.54
   5 -17 -15   15.32    4.12
   5  17 -15   18.05    4.85
  -5  17 -15   20.27    8.44
   5  17  15   10.23    7.53
  -5 -17 -17    7.99    4.42
  -5  17 -17   13.03    8.39
   5  17  17   15.32    6.20
   5  17 -17   23.50   10.27
   5 -17  17   15.04    8.04
   5 -17 -17   26.21    6.32
   5  17 -17   18.69    5.26
   5  17  17   20.98   11.35
   5 -17 -19  313.83   30.28
   5  17  19  213.62   15.78
  -5 -17 -19  182.45   14.22
   5 -17 -19  305.60   17.12
   5  17 -19  309.64   16.41
   5 -17  19  219.86   23.31
  -5  17 -19  196.80   22.06
   5  17 -19  273.85   27.06
   5  17  19  246.85   28.05
   5 -17 -21  434.41   34.04
  -5 -17 -21  405.75   19.24
   5  17 -21  501.70   35.30
   5  17  21  475.60   22.74
   5  17  21  444.18   36.46
   5 -17 -21  543.31   22.25
   5  17 -21  542.11   21.20
   5 -17 -21  544.93   21.51
   5 -17 -23  183.43   13.63
   5  17 -23  180.25   12.71
  -5 -17 -23  158.68   12.62
   5 -17 -23  178.16   12.83
   5 -17 -25   18.84    4.62
   5  17 -25   16.99    4.08
  -5 -17 -25   17.74    4.24
   5 -17 -25   15.14    4.44
   5 -17 -27   57.72    7.37
   5  17 -27   69.28    7.58
  -5 -17 -27   68.68    8.15
   5 -17 -27   65.84    7.66
   5 -17 -29    4.56    3.36
  -5 -17 -29    1.95    2.83
   5 -17 -29    6.15    3.48
   5  17 -29    9.45    4.21
   5 -17 -31   53.14    7.04
  -5 -17 -31   55.04    7.35
   5  17 -31   68.02    7.40
   5 -17 -31   65.76    7.43
   5  17 -33  129.33    8.64
  -5 -17 -33  103.96    8.44
   5 -17 -33  122.15    8.56
   5  17 -35  111.50    7.62
   5 -17 -35  112.54    8.21
   5 -17 -35  123.53    8.17
   5  19   1   17.02    5.70
  -5  19  -1    2.97    8.81
  -5 -19  -1    5.27    4.00
   5  19  -1   17.28    6.23
   5 -19   1   10.28    4.79
   5  19  -1   17.28    6.27
   5 -19  -1    4.98    5.35
   5  19   1    5.66    3.90
  -5  19   1    3.65    8.69
  -5 -19   1    6.37    4.83
   5  19   3   92.60   15.97
   5 -19  -3   70.74   13.42
  -5 -19   3   77.97   12.79
  -5 -19  -3   97.60   14.10
  -5  19  -3  110.16   19.16
   5  19   3   85.57   13.77
   5  19  -3   85.08   14.23
   5  19  -3   84.67   15.75
   5 -19   3   81.97   13.71
  -5 -19   5  563.63   31.11
   5 -19   5  534.76   31.92
   5 -19  -5  565.77   31.43
   5  19   5  551.34   36.66
  -5 -19  -5  532.14   31.20
  -5  19  -5  608.70   39.53
   5  19   5  563.10   32.88
   5  19  -5  608.26   34.72
  -5 -19  -7 1101.30   45.03
   5 -19   7 1085.28   44.95
  -5 -19   7 1117.77   43.18
   5  19   7 1128.27   52.17
   5 -19  -7 1116.34   42.74
   5  19  -7 1161.95   48.21
  -5 -19  -9  214.07   22.12
  -5 -19   9  235.08   21.93
   5 -19   9  260.83   24.57
   5  19  -9  238.44   24.38
   5  19   9  198.41   25.02
   5 -19  -9  226.32   20.38
  -5  19  -9  242.03   25.74
  -5 -19  11  303.02   22.30
   5  19  11  259.74   15.25
   5  19  11  268.56   15.00
   5 -19  11  249.19   23.03
  -5 -19 -11  264.55   21.49
   5  19  11  312.84   27.59
   5  19 -11  270.15   23.53
   5  19  11  270.13   15.38
   5  19 -11  283.07   14.22
   5 -19 -11  281.09   14.80
  -5  19 -11  281.33   24.97
  -5  19 -13    5.69    6.29
  -5 -19  13    0.56    3.84
   5  19 -13    2.59    3.27
   5  19  13    2.33    2.94
   5  19  13    6.49    5.98
   5  19 -13    3.21    3.05
   5 -19  13    0.81    4.65
   5 -19 -13    1.05    2.60
   5  19 -13    7.04    6.65
  -5  19 -15   28.32    9.97
   5  19  15   24.00    9.23
   5 -19  15   18.35    7.44
  -5 -19  15   30.94    8.02
   5  19 -15   21.97    4.95
   5  19 -15   27.62    8.45
   5  19  15   27.47    5.90
   5 -19 -15   29.92    5.79
   5  19 -15   25.85    5.02
   5 -19  17   48.09   10.17
   5  19 -17   73.37   13.02
   5  19  17   59.34    7.57
   5  19 -17   63.04    6.71
   5 -19 -17   68.31    7.63
  -5  19 -17   36.30    9.63
   5  19  17   47.30   12.08
   5 -19 -19  185.30   13.57
   5  19  19  138.38   21.28
   5 -19 -19  143.57   20.75
  -5 -19 -19  104.97   10.66
   5  19 -19  179.82   21.82
   5  19 -19  170.61   12.22
   5  19  19  143.50   12.88
  -5  19 -19   88.27   15.67
   5 -19 -21  451.77   20.82
   5 -19 -21  428.85   21.10
   5  19  21  379.98   21.80
   5  19 -21  448.09   20.42
   5 -19 -23  122.33   11.14
  -5 -19 -23   99.02    9.98
   5  19 -23  115.65   10.40
   5 -19 -23  119.66   10.77
   5  19 -25  164.13   11.38
   5 -19 -25  158.40   11.82
  -5 -19 -25  142.65   11.28
   5 -19 -25  159.36   11.79
   5 -19 -27   15.13    4.77
   5  19 -27   17.88    4.71
  -5 -19 -27   15.55    4.67
   5 -19 -27   18.75    4.45
   5 -19 -29   19.28    5.14
   5  19 -29   20.53    4.67
  -5 -19 -29   16.82    4.51
   5 -19 -29   21.47    4.81
   5 -19 -31   29.56    5.17
   5  19 -31   40.08    5.42
  -5 -19 -31   27.74    4.70
   5 -19 -31   36.25    5.35
   5  19 -33   88.47    7.08
  -5 -19 -33   68.42    6.51
   5 -19 -33   86.21    7.13
   5  21  -1    0.71    6.26
  -5  21   1    7.85    8.21
  -5  21  -1    4.57    6.97
   5  21  -1    0.71    7.06
   5 -21   1    1.61    4.33
   5 -21  -1    5.71    6.29
   5  21  -1    8.04    4.32
   5  21   1    2.65    5.64
   5  21   1    0.28    4.98
  -5 -21  -1    7.37    5.21
   5  21   1    6.33    3.85
  -5 -21   1    2.83    5.69
   5  21   3   12.31    6.45
   5 -21   3   13.69   10.67
   5 -21  -3   19.19   11.60
  -5  21   3   26.52   15.23
  -5 -21  -3   21.16   11.62
   5  21   3   23.99   12.28
   5  21   3   20.00    8.12
  -5 -21   3   25.80   11.99
   5  21  -3   16.87   10.76
   5  21   3   17.44   12.67
   5  21  -3   13.88    6.79
  -5  21  -3   30.39   15.93
   5  21   5  116.23   12.34
   5  21  -5  142.24   12.65
  -5  21  -5  144.59   13.22
  -5 -21  -5  148.37   19.71
  -5 -21   5  152.23   19.13
   5 -21   5  168.53   21.01
   5 -21  -5  169.22   19.89
   5  21   5  160.64   23.81
   5  21   5  156.92   20.65
   5  21  -5  176.82   13.65
  -5  21  -5  179.03   24.80
   5  21  -5  166.25   21.49
   5  21   5  172.13   15.30
   5  21   7  426.63   20.10
   5  21  -7  402.23   18.77
  -5 -21  -7  445.73   30.03
  -5 -21   7  412.24   28.16
   5 -21  -7  454.75   29.07
   5  21   7  478.75   22.44
   5  21   7  431.08   34.80
   5  21  -7  411.57   18.63
   5 -21   7  436.53   30.29
   5  21  -7  457.99   31.97
  -5  21  -7  499.05   37.68
   5  21   9  289.82   17.51
   5  21  -9  339.59   18.10
  -5 -21  -9  329.33   26.79
  -5 -21   9  357.25   26.42
   5 -21   9  339.37   27.88
   5  21   9  311.94   18.06
   5  21   9  380.82   20.51
   5  21  -9  348.66   17.44
   5 -21  -9  340.18   17.89
  -5  21  -9  341.13   31.70
   5  21  -9  359.91   29.63
   5  21   9  334.34   32.40
   5  21  11   14.20    4.11
   5 -21 -11   13.77    3.16
   5  21 -11    9.38    2.41
  -5 -21  11   14.97    5.58
  -5  21 -11   28.65    8.42
   5 -21  11    1.35    5.18
   5  21  11   10.76    3.67
   5  21  11   13.23    5.55
  -5 -21 -11    8.47    3.74
   5  21 -11    8.29    2.73
   5  21 -11    8.93    5.29
  -5 -21  13    2.07    5.05
  -5  21 -13    2.45    6.13
   5  21 -13    0.92    4.58
   5  21  13    0.01    3.09
   5  21 -13    0.79    3.41
   5 -21  13    2.14    6.91
   5  21  13    0.43    6.72
   5 -21 -13    0.69    3.32
   5  21 -13    1.15    3.26
   5  21 -15   29.30    6.41
  -5  21 -15   20.57    8.11
  -5 -21  15   24.47    9.49
   5 -21  15   31.51   10.71
   5  21 -15   27.26    9.71
   5  21  15   43.34   13.92
   5 -21 -15   35.09    6.86
   5  21  15   42.90    7.75
   5  21 -15   27.37    5.73
   5  21 -17   96.04   10.96
   5  21  17   83.96   11.35
   5  21 -17   92.99   10.34
  -5  21 -17   44.05   14.13
   5  21  17   73.25   17.46
   5 -21 -17   98.18   11.17
   5 -21  17   42.81   12.48
   5  21 -17   79.19   16.64
   5  21  19  144.33   14.14
   5 -21 -19  152.64   13.21
   5  21 -19  154.96   12.53
   5 -21 -21   15.16    4.24
   5  21 -21   24.93    4.82
   5  21  21   14.25    4.12
   5 -21 -21   17.69    4.55
   5 -21 -23  225.22   14.76
   5  21 -23  231.49   14.32
   5 -21 -23  234.39   14.77
   5  21 -25   41.62    6.29
   5 -21 -25   39.48    6.60
   5 -21 -25   48.60    7.50
   5 -21 -27    0.76    3.36
   5  21 -27    1.09    3.11
   5 -21 -27    0.39    2.53
   5 -21 -29    1.32    2.51
   5  21 -29    0.17    2.60
   5 -21 -29    3.38    2.45
   5  21 -31   13.27    3.18
   5 -21 -31   13.34    3.34
   5  23   1   26.71    6.99
   5  23  -1   31.99    7.35
  -5  23   1   56.17   17.65
  -5  23   1   32.65    7.86
   5  23  -1   37.03    8.41
  -5  23  -1   38.40   15.30
   5  23   1   35.09   11.61
   5 -23   1   29.97   12.31
   5  23  -1   29.19   11.82
   5  23   1   34.34    8.65
  -5  23  -1   25.24    7.09
  -5 -23   1   33.90   11.46
  -5 -23  -1   29.10   10.86
   5 -23  -1   37.43   11.99
   5  23   1   30.96   12.87
   5  23   3    5.16    9.33
   5  23   3    2.47    3.02
  -5  23   3    4.94    6.13
   5  23  -3    2.95    2.99
  -5  23   3    2.84    3.52
  -5 -23   3    2.97    4.12
   5 -23   3    2.38    6.94
  -5  23  -3    5.92    3.58
  -5 -23  -3    5.16    6.01
   5  23   3    5.16    2.97
   5 -23  -3    2.77    4.75
  -5  23  -3    5.92    7.30
   5  23  -3    2.95    2.94
   5  23   3    5.16    5.32
   5  23  -3    3.22    5.15
  -5  23   5   18.31    7.61
   5  23   5   23.92    5.23
  -5  23   5   30.23    6.26
   5  23  -5   28.59    5.63
  -5  23  -5   23.36    9.28
  -5 -23  -5   12.34    6.94
   5 -23   5   13.98    7.04
   5 -23  -5   14.36    5.60
   5  23  -5   18.75    6.72
  -5  23  -5   24.65    5.36
   5  23   5   30.92    6.16
   5  23  -5   22.38    4.97
  -5 -23   5   27.38    9.49
   5  23   5   28.36   10.30
   5  23   7   59.22    8.56
   5  23  -7   90.08    9.70
  -5  23  -7   57.58    8.34
   5 -23  -7   83.31   13.03
   5  23   7   69.98    8.77
   5 -23   7   71.89   14.02
   5  23  -7   78.04    8.62
  -5 -23  -7   55.46   12.07
   5  23   7   92.40   10.85
  -5 -23   7   77.01   13.01
   5  23  -7   73.15   14.21
   5  23   7   62.96   14.71
  -5  23   7   86.03   10.38
   5 -23  -7   77.25    9.39
  -5  23  -7   80.81   17.16
  -5  23   9   19.67    6.85
   5  23  -9   10.82    5.01
   5  23   9   12.75    9.80
  -5  23  -9    9.57    5.41
  -5 -23  -9   17.97    9.93
  -5 -23   9    9.58    8.12
   5 -23   9   19.37    9.27
   5  23   9   13.70    5.93
   5  23   9   19.53    6.73
   5  23  -9   12.26    9.49
  -5  23  -9   10.10    8.88
   5  23  -9   13.54    5.65
   5 -23  -9    9.86    4.88
   5  23   9   11.95    6.20
  -5  23  11   62.13   11.57
   5  23  11   63.32   19.75
   5  23 -11   68.24   10.85
   5 -23  11   58.20   16.72
   5  23  11   57.63   10.78
   5  23 -11   57.07    9.66
   5 -23 -11   52.97    9.96
   5  23 -11   42.44   14.38
  -5  23 -11   63.47   18.82
  -5 -23  11   52.53   14.46
   5  23  11   55.01   11.00
   5  23 -13  102.00   10.25
  -5  23 -13   84.46   16.11
  -5 -23  13   76.17   12.60
   5  23  13   94.18   10.60
   5 -23  13   87.85   15.36
   5  23 -13   85.86    8.94
   5 -23 -13  104.05   10.09
   5  23  13  102.29   19.16
   5  23 -13   91.19   15.77
   5  23 -15   62.83    7.94
  -5 -23  15   50.15   11.01
   5  23 -15   42.91   11.21
   5  23 -15   65.66    8.14
   5  23  15   59.44    9.09
  -5  23 -15   41.90   12.03
   5 -23 -15   70.47    8.77
   5 -23  15   45.33   10.99
   5  23  15   58.94   16.15
   5  23 -17    2.31    3.18
   5  23  17    1.52    3.06
   5 -23 -17    1.29    3.41
   5  23 -17    7.24    3.46
   5  23 -19   38.68    6.99
   5  23 -19   41.36    7.11
   5 -23 -19   49.13    7.96
   5  23  19   36.98    7.79
   5 -23 -19   40.57    7.22
   5  23  21   15.52    4.65
   5 -23 -21   20.42    5.13
   5  23 -21   17.34    4.24
   5 -23 -21   18.41    4.90
   5  23 -23   12.89    3.51
   5 -23 -23   19.31    4.85
   5 -23 -23   18.57    4.83
   5 -23 -25    0.72    3.14
   5  23 -25    0.04    2.70
   5 -23 -25    0.06    2.69
   5 -23 -27   17.44    3.84
   5  23 -27   19.95    4.05
   5 -23 -27   21.61    4.44
  -5  23 -29    1.05    3.03
   5 -23 -29    9.69    2.93
   5  23 -29    3.46    2.07
   5 -23 -29   10.61    2.68
  -5  23 -31    0.05    2.68
   5  23 -31    0.12    2.53
   5 -23 -31    0.09    1.75
  -5  25   1  117.41   14.45
  -5  25  -1  105.63   13.74
  -5 -25  -1   91.27   18.96
  -5 -25   1   94.93   19.46
   5  25   1  117.57   14.31
   5 -25   1   97.64   20.76
   5  25  -1  128.04   14.45
  -5  25   1  115.63   26.34
  -5  25  -1  133.24   28.04
   5  25  -1   99.92   12.85
   5 -25  -1   92.94   20.87
   5  25   1   65.50   18.15
   5  25  -1   84.80   19.24
   5  25   1  106.87   13.18
   5  25   3   49.15    7.13
   5  25  -3   62.82    7.71
  -5  25   3   58.95    8.47
  -5  25   3   59.47   15.05
  -5  25  -3   63.36   15.05
   5  25  -3   46.62    6.78
  -5 -25  -3   35.26    9.72
   5 -25  -3   39.17    9.48
   5  25   3   40.29   12.17
  -5  25  -3   53.67    7.66
   5  25  -3   69.26   13.15
  -5 -25   3   50.86   10.47
   5  25   3   62.91    8.63
   5 -25   3   61.69   12.35
   5  25   5    0.07    3.51
  -5  25   5    5.94    3.80
  -5  25   5    4.85    8.62
   5  25  -5    2.68    3.91
  -5  25  -5    0.09    3.59
  -5  25  -5    8.90   10.21
  -5 -25  -5    0.07    4.21
  -5 -25   5    9.46    6.27
   5 -25   5    0.09    5.12
   5 -25  -5    0.06    7.72
   5  25   5    0.07    3.57
   5  25  -5    0.28    4.34
   5  25  -5    0.13    3.85
   5 -25  -5    0.18    3.28
   5  25   5    0.07    8.09
   5  25   7    5.92    3.53
  -5  25   7    1.18    4.23
  -5  25   7    7.53    8.53
   5  25  -7    0.26    3.50
  -5  25  -7    0.45    3.36
  -5 -25  -7    0.17    4.07
  -5 -25   7    9.99    6.63
   5 -25   7    0.21    6.81
   5  25  -7    0.26    6.15
   5  25   7    0.36    5.74
   5  25   7    4.10    3.79
  -5  25  -7   10.46   10.32
   5  25  -7    2.07    3.18
   5  25   7    0.36    3.41
   5 -25  -7    1.23    2.89
   5  25   9  113.76   11.45
   5  25  -9  129.61   11.42
  -5  25  -9  105.56   11.36
  -5 -25   9  125.98   17.11
  -5  25   9  148.17   13.33
   5  25   9  123.02   11.70
   5 -25   9   88.88   15.86
  -5  25   9  119.60   20.88
   5  25  -9  135.13   11.36
  -5 -25  -9   70.15   13.11
   5 -25  -9  121.40   11.28
  -5  25  -9  167.22   24.29
   5  25   9  127.28   11.80
   5  25  -9  122.32   18.93
   5  25   9   94.55   18.01
  -5  25  11   45.17    8.50
   5  25 -11   36.96    6.67
  -5  25 -11   22.78    6.32
  -5 -25  11   25.29    7.97
   5  25 -11   31.01   10.91
   5  25  11   28.31    6.45
   5  25 -11   34.71    6.66
   5 -25 -11   35.89    6.75
   5  25  11   39.67    7.61
   5  25 -13  410.48   22.20
  -5  25 -13  331.59   21.62
   5 -25 -13  401.19   22.08
   5  25  13  341.90   21.93
   5  25 -13  370.34   20.35
   5  25 -15  114.36   10.13
  -5  25 -15  104.38   10.40
   5  25 -15  102.69    9.34
   5 -25 -15  106.50   10.00
   5  25  15  101.78   10.03
   5  25 -17   58.64    6.70
  -5  25 -17   63.38    8.03
   5  25  17   64.11    8.17
   5 -25 -17   74.20    8.03
   5  25 -17   55.38    6.94
   5  25 -19    3.06    3.03
  -5  25 -19    0.04    4.41
   5  25 -19    0.85    3.27
   5  25  19    2.28    3.30
   5 -25 -19    0.00    3.37
   5 -25 -19    2.31    3.30
  -5  25 -21   52.16    7.59
   5  25  21   43.81    6.75
   5  25 -21   53.85    6.83
   5 -25 -21   71.29    8.11
   5 -25 -21   62.81    7.51
  -5  25 -23   71.29    9.75
   5 -25 -23   64.93    8.77
   5 -25 -23   76.16    9.35
   5  25 -23   64.81    8.33
  -5  25 -25   68.27    8.10
   5  25 -25   65.54    7.01
   5 -25 -25   61.90    7.42
   5 -25 -25   66.66    7.12
  -5  25 -27   65.81    7.34
   5  25 -27   53.59    5.91
   5 -25 -27   55.06    6.40
   5 -25 -27   56.76    6.20
  -5  25 -29   55.09    6.14
   5  25 -29   51.19    5.27
   5 -25 -29   48.15    5.51
   5 -25 -29   51.46    5.40
   5  27   1  222.33   16.11
  -5  27   1  247.45   17.42
  -5  27  -1  242.20   16.95
  -5 -27   1  234.90   24.29
   5 -27  -1  217.67   25.15
   5  27   1  264.07   17.44
   5  27  -1  273.28   17.49
   5  27  -1  238.25   16.04
  -5  27   1  270.36   33.46
  -5  27  -1  251.31   31.84
  -5 -27  -1  191.89   22.64
   5 -27   1  236.93   26.39
   5  27   3   87.43    8.83
  -5  27   3   95.28    9.25
   5  27  -3   84.10    8.19
  -5  27  -3   73.90    7.93
  -5 -27  -3   80.34   13.26
   5  27   3  101.68    9.41
   5  27  -3   97.84    9.07
   5 -27  -3   75.85   12.02
   5 -27  -3   86.36    8.71
   5  27  -5   47.28    8.06
   5  27   5   34.38    7.13
  -5  27   5   48.49    8.78
   5  27  -5   42.35    7.64
   5  27   5   54.28    8.98
   5  27   5   49.42    8.47
  -5  27  -5   36.74    7.59
   5 -27  -5   42.33    7.80
   5  27   7  150.68   14.80
  -5  27   7  191.62   16.72
   5  27  -7  167.34   14.55
  -5  27  -7  165.54   14.99
   5  27   7  181.40   15.54
   5  27  -7  155.30   13.99
   5  27   7  174.05   15.13
   5 -27  -7  139.18   13.59
   5  27   9    5.83    3.80
  -5  27   9   10.45    4.78
   5  27  -9   13.74    4.69
  -5  27  -9   12.75    4.17
   5  27  -9   22.57    6.13
   5 -27  -9   15.96    4.59
   5  27   9    9.24    4.03
  -5  27  11  299.65   20.30
   5  27 -11  271.77   17.29
  -5  27 -11  240.14   17.26
   5 -27 -11  280.91   17.99
   5  27  11  241.78   17.07
   5  27 -11  295.19   17.50
   5  27 -13  299.08   17.02
  -5  27 -13  284.26   17.73
   5  27  13  295.13   17.99
   5 -27 -13  312.01   17.81
   5  27 -13  287.15   16.54
   5  27 -15  354.09   18.82
  -5  27 -15  338.72   19.92
   5  27  15  367.63   20.66
   5  27 -15  383.26   19.25
   5 -27 -15  369.87   20.03
   5  27 -17  144.88   11.98
  -5  27 -17  146.50   13.58
   5  27 -17  174.83   13.12
   5  27  17  153.60   13.81
   5 -27 -17  172.26   13.79
   5 -27 -17  139.42   12.23
   5  27 -19    7.90    3.99
   5  27 -19    0.07    3.27
  -5  27 -19    1.33    3.89
   5  27  19    8.90    4.43
   5 -27 -19    3.78    3.27
   5 -27 -19    8.04    3.62
  -5  27 -21    0.80    3.49
   5 -27 -21    0.98    3.79
   5  27 -21    0.74    3.03
   5 -27 -21   12.88    3.62
  -5  27 -23   24.07    5.49
   5  27 -23   21.92    4.29
   5 -27 -23   31.69    5.30
   5 -27 -23   27.20    4.80
  -5  27 -25  211.88   12.75
   5  27 -25  218.06   11.81
   5 -27 -25  226.40   12.76
   5 -27 -25  216.33   12.01
   5 -27 -27   92.67    7.72
   5  27 -27   87.19    6.98
   5 -27 -27   92.81    7.47
   5  29   1  236.82   17.83
   5  29  -1  224.82   17.12
  -5  29   1  242.07   18.74
  -5  29  -1  227.07   17.99
   5  29   1  243.59   17.94
   5  29  -1  261.05   18.20
   5 -29  -1  216.15   17.30
   5 -29   1  186.52   15.97
   5  29   3   90.89    9.62
   5  29  -3   96.54   10.02
  -5  29   3   84.14    9.60
  -5  29  -3   93.74   10.16
   5  29   3   96.26   10.06
   5  29   3  104.26   10.21
   5  29  -3   78.83    8.83
   5 -29  -3   78.76    9.26
   5  29   5  122.89   13.46
  -5  29   5  154.06   15.19
   5  29  -5  146.01   13.70
  -5  29  -5  118.99   12.96
   5  29   5  150.51   14.60
   5  29  -5  144.75   13.41
   5  29   5  132.93   13.33
   5 -29  -5  133.58   13.24
   5  29   7    6.01    4.17
  -5  29   7    8.74    4.49
   5  29  -7    6.98    3.90
  -5  29  -7    3.72    3.81
   5  29  -7    7.34    4.24
   5  29   7   15.76    5.18
   5 -29  -7    5.88    3.47
   5  29   9   21.19    6.20
  -5  29   9   22.79    6.13
   5  29  -9   27.14    6.12
  -5  29  -9   21.52    5.70
   5  29   9   14.12    4.69
   5  29  -9   26.83    6.09
   5 -29  -9   25.24    6.17
   5  29 -11  123.88   12.16
  -5  29 -11   96.09   11.18
   5  29  11  103.90   11.77
   5  29 -11  117.30   11.70
   5 -29 -11  126.26   12.58
  -5  29  11  139.40   14.16
   5  29 -13  364.60   19.31
  -5  29 -13  351.11   19.97
   5  29 -13  338.86   19.14
   5 -29 -13  365.64   20.15
   5  29  13  336.26   20.16
   5  29 -15  292.54   16.07
  -5  29 -15  305.57   17.69
   5 -29 -15  346.31   18.69
   5  29 -15  324.36   17.56
   5  29  15  319.28   18.41
   5  29 -17  104.16    8.98
  -5  29 -17  115.40   11.00
   5  29 -17  120.87   10.22
   5  29  17  109.49   10.38
   5 -29 -17  117.50   10.75
   5 -29 -17  116.85   10.04
   5  29 -19   11.16    3.24
   5 -29 -19   14.56    4.11
   5  29  19    8.70    3.63
  -5  29 -19   11.21    4.67
   5  29 -19   11.88    3.78
   5 -29 -19   16.30    4.34
  -5  29 -21    0.02    3.31
   5  29 -21   12.58    3.54
   5 -29 -21    9.53    3.53
   5 -29 -21    8.02    3.28
   5 -29 -23   17.41    4.21
  -5  29 -23   14.46    4.38
   5  29 -23   16.96    4.11
   5 -29 -23   15.97    3.90
  -5  29 -25   54.52    6.31
   5  29 -25   61.83    6.03
   5 -29 -25   52.59    6.01
   5 -29 -25   67.25    6.41
   5  31   1   72.85   10.81
   5  31  -1   80.25   11.27
  -5  31   1   68.85   11.06
  -5  31  -1   58.56   10.03
   5  31   1   72.04   11.01
   5  31   1   60.98    9.64
   5  31  -1   65.47   10.31
  -5  31   3   68.46    8.80
   5  31   3   53.90    7.46
   5  31  -3   52.98    7.36
  -5  31  -3   52.34    7.21
   5  31   3   59.17    7.24
   5  31  -3   59.46    7.52
   5 -31  -3   49.16    6.82
   5  31   3   61.08    7.93
   5  31   5    1.70    4.01
  -5  31   5    2.45    4.57
   5  31  -5    1.41    3.31
  -5  31  -5    2.19    3.45
   5  31  -5    1.42    3.86
   5  31   5    5.28    4.88
   5  31   5    1.33    3.23
   5 -31  -5    2.45    3.57
  -5  31   7   67.06    9.50
   5  31  -7   55.10    8.18
   5  31   7   58.20    8.65
  -5  31  -7   53.98    8.11
   5  31   7   59.66    8.74
   5 -31  -7   57.47    8.50
   5  31  -7   60.48    8.17
  -5  31   9    0.71    3.23
   5  31  -9    0.03    2.75
   5  31   9    2.64    3.35
  -5  31  -9    0.00    4.56
   5 -31  -9    1.62    3.10
   5  31  -9    0.03    3.80
   5  31 -11   36.14    6.05
  -5  31 -11   25.09    5.42
   5  31 -11   44.76    7.04
   5  31  11   32.15    6.26
   5 -31 -11   33.70    6.33
   5  31 -13   97.85    9.47
  -5  31 -13   83.44    9.55
   5  31 -13  100.23   10.04
   5  31  13   84.63    9.88
   5 -31 -13   66.41    8.66
   5  31 -15  140.07   10.14
  -5  31 -15  135.03   10.87
   5  31 -15  148.53   10.92
   5  31  15  142.11   11.21
   5 -31 -15  149.81   11.52
   5 -31 -15  147.72   10.98
   5  31 -17   26.68    4.27
   5  31  17   24.33    4.46
  -5  31 -17   30.23    5.53
   5  31 -17   28.91    4.95
   5 -31 -17   31.06    5.30
   5 -31 -17   31.52    5.35
   5  31 -19    0.16    1.56
   5  31  19    0.79    2.52
  -5  31 -19    0.19    2.71
   5  31 -19    0.94    2.66
   5 -31 -19    2.20    3.35
   5 -31 -19    0.92    3.04
  -5  31 -21    1.29    2.38
   5  31 -21    2.01    2.27
   5 -31 -21    2.45    2.26
   5 -31 -21    6.17    3.00
   5  33   1    4.78    3.83
   5  33  -1    0.35    3.15
  -5  33   1    3.93    3.88
  -5  33  -1    0.96    2.99
   5  33   1    0.92    3.56
   5  33   1    0.25    3.96
   5  33  -1    6.41    4.17
   5  33  -1    0.53    3.69
   5  33   3    1.62    3.79
   5  33  -3    1.32    3.07
  -5  33   3    5.74    3.38
  -5  33  -3    2.43    3.92
   5  33   3    1.62    4.16
   5  33  -3    5.89    3.03
   5  33  -3    4.34    3.14
  -5  33   5  195.67   14.20
   5  33  -5  195.07   13.92
  -5  33  -5  171.52   13.12
   5  33   5  203.23   14.91
   5  33  -5  235.11   15.43
   5  33  -5  186.91   13.16
   5  33   5  179.73   13.78
  -5  33   7  124.53   11.01
   5  33  -7  135.33   10.94
  -5  33  -7  113.83   10.37
   5  33   7  132.24   11.39
   5  33  -7  112.50    9.80
   5  33  -9   31.33    5.80
  -5  33  -9   33.36    6.11
   5  33  -9   30.96    5.49
   5 -33  -9   36.12    6.43
   5  33   9   37.41    6.51
   5  33 -11    5.84    3.33
   5  33 -11    1.43    2.62
  -5  33 -11    7.73    2.96
   5  33  11    9.24    3.68
   5 -33 -11    4.32    2.57
   5  33 -11    0.12    3.40
   5  33 -13   17.72    3.94
  -5  33 -13    9.21    3.75
   5  33  13   15.01    4.08
   5  33 -13   14.77    3.50
   5  33 -13   14.91    3.92
   5 -33 -13   10.75    3.26
   5 -33 -13    5.22    2.97
   5  33 -15    6.40    2.51
  -5  33 -15    4.77    3.04
   5  33  15    7.06    3.02
   5  33 -15    4.14    2.60
   5 -33 -15    6.11    2.53
   5  33 -15    6.46    2.23
   5 -33 -15    0.33    2.48
   5  33 -17    0.13    1.70
  -5  33 -17    1.68    2.37
   5  33  17    3.86    2.66
   5  33 -17    1.32    2.47
   5 -33 -17    3.58    2.60
   5 -33 -17    0.67    2.01
  -5  33 -19   10.99    3.08
   5  33 -19   12.21    3.18
   5 -33 -19    7.87    2.32
   5 -33 -19   14.31    2.99
   5  35   1    0.07    2.85
   5  35  -1    3.44    3.50
  -5  35   1    0.26    2.94
  -5  35  -1    0.11    2.68
   5  35  -1    2.03    3.42
   5  35   1    0.07    3.48
   5  35  -1    0.14    3.42
  -5  35   3  104.31   10.60
   5  35  -3  114.17   10.84
  -5  35  -3  105.95   10.44
   5  35   3  131.78   11.91
   5  35  -3  133.07   11.91
   5  35   3  118.62   11.31
   5  35  -3  104.93    9.77
  -5  35   5  177.15   11.83
   5  35  -5  170.74   11.63
  -5  35  -5  135.18   10.51
   5  35  -5  196.03   12.34
  -5  35   5  153.10   10.55
   5  35  -5  171.63   10.77
   5  35   5  179.04   12.27
   5  35  -7  168.32   10.61
  -5  35  -7  153.21   10.47
   5  35   7  177.56   11.70
   5  35  -7  168.02   10.89
   5  35  -7  157.11    9.96
   5  35  -9   87.41    7.98
  -5  35  -9   76.80    8.11
   5  35   9  103.85    9.38
   5  35  -9   95.70    8.33
   5  35  -9   86.93    7.89
   5  35 -11    5.36    1.98
  -5  35 -11    1.41    2.74
   5  35  11    8.01    3.06
   5  35 -11    3.61    1.93
   5  35 -11    6.17    2.98
   5 -35 -11    4.02    2.30
   5  35 -13    4.14    1.93
  -5  35 -13    3.94    2.52
   5  35  13    6.82    2.70
   5  35 -13    4.48    1.85
   5  35 -13    7.56    2.69
   5 -35 -13   10.86    2.82
   5  35 -15    2.75    1.37
  -5  35 -15    9.18    2.83
   5  35  15    0.27    1.99
   5  35 -15    8.06    2.33
   5 -35 -15    4.12    1.80
  -5  37   1    3.66    2.28
  -5  37  -1    3.71    2.44
   5  37   1    2.07    2.26
   5  37  -1    0.47    2.40
   5  37  -1    0.47    2.83
   5  37  -3   93.35    7.96
  -5  37  -3   85.98    7.81
  -5  37   3   87.49    7.83
   5  37  -3  115.13    8.94
  -5  37   3   67.40    6.62
   5  37   3  114.38    9.09
   5  37  -5  142.11    9.45
  -5  37  -5  132.38    9.34
   5  37   5  154.80   10.48
  -5  37  -7  108.31    8.06
   5  37  -7  117.20    8.09
   5  37  -7  136.33    8.63
   5  37  -7  117.97    7.64
   5  37   7  129.64    9.11
   6   0   0  832.91    9.69
   6   0   2  260.90   15.65
   6   0  -2  279.73   18.64
   6   0  -2  277.51   13.03
   6   0  -4  940.77   25.25
   6   0   4  938.00   20.60
   6   0  -4 1149.97   29.85
   6   0  -6  216.59   16.54
   6   0  -6  258.03   18.17
   6   0  -8 2709.22   44.29
  -6   0  -8 2803.59   49.92
   6   0  -8 2728.00   45.21
   6   0 -10  215.52   15.05
   6   0 -10  216.69   15.37
  -6   0 -10  249.24   17.63
   6   0 -12 1046.36   31.46
   6   0 -12 1123.71   31.32
  -6   0 -12 1071.05   33.85
   6   0 -14   68.70    9.80
   6   0 -14   79.94   10.07
  -6   0 -14   73.32   10.68
  -6   0 -16    8.02    8.39
   6   0 -16    9.37    7.57
   6   0 -16    8.37    7.66
   6   0 -18 1080.53   44.44
   6   0 -18 1096.14   43.34
  -6   0 -18 1014.51   42.86
   6   0 -20 1271.63   50.19
   6   0 -20 1377.30   49.43
   6   0 -22  390.43   28.59
   6   0 -22  392.58   26.65
  -6   0 -22  366.77   26.73
  -6   0 -22  336.72   18.23
   6   0 -24  334.88   26.46
  -6   0 -24  305.48   18.97
   6   0 -24  309.37   16.90
  -6   0 -24  296.21   26.25
   6   0 -26    4.16    4.44
  -6   0 -26   12.53    6.66
   6   0  26    9.38   10.16
  -6   0 -26   13.23   10.06
   6   0 -26    4.45    4.84
  -6   0 -28  189.86   13.87
   6   0 -28  189.21   12.43
   6   0 -28  191.88   12.09
   6   0 -30  144.05   14.74
   6   0 -30  137.86   13.78
   6   0 -32  220.99   16.10
   6   0 -32  270.03   16.16
   6   0 -34  192.25   14.22
   6   0 -34  228.98   14.55
   6   0 -36  336.46   16.14
   6   0 -38   82.80    6.82
   6  -2   0  468.47   18.72
   6   2   0  495.12   19.24
   6   2   0  517.61   18.48
   6   2  -2   85.59    7.35
   6   2  -2  101.53    7.47
   6   2  -2  122.51   10.51
   6  -2  -2  125.98   10.66
   6   2   2  102.83    8.74
   6  -2   2  107.21    8.18
   6   2   2  112.95    9.71
   6   2  -4   97.35    8.43
   6   2   4   87.33    7.65
   6   2  -4  118.24   10.32
   6  -2  -4  108.22   10.23
  -6   2  -4   98.41    6.47
   6   2  -4   90.48    6.00
   6  -2   4   80.53    6.19
   6  -2  -6 1020.09   28.31
  -6  -2  -6  958.63   28.22
  -6   2  -6  944.21   18.62
   6   2  -6  932.77   25.39
   6   2  -8  354.76   19.38
   6  -2  -8  316.39   19.08
   6   2  -8  404.72   20.72
  -6   2  -8  391.35   21.77
   6  -2  -8  373.16   20.27
  -6  -2  -8  418.94   22.56
  -6   2  -8  382.88   13.91
   6   2 -10  963.59   28.77
   6  -2 -10  948.89   28.56
   6   2 -10  987.45   29.00
  -6   2 -10 1053.89   32.33
   6  -2 -10 1030.34   29.00
  -6   2 -10  903.40   20.37
  -6  -2 -10 1002.60   30.84
   6   2 -12   73.84    9.26
   6  -2 -12   72.01    9.34
   6   2 -12   92.72   10.59
  -6  -2 -12   91.46   11.16
  -6   2 -12   87.61   11.06
  -6  -2  12   77.49    7.09
   6  -2 -12   82.72    9.71
  -6   2 -12   88.12    7.82
  -6  -2 -14   20.02    7.31
  -6   2 -14   14.22    7.56
   6   2 -14   16.23    6.89
   6  -2 -14   17.54    6.84
   6   2 -14   18.63    6.76
   6  -2 -14   19.68    7.59
   6   2 -16   76.47   12.63
   6  -2 -16   69.64   11.90
   6   2 -16   78.90   12.45
   6  -2 -16   87.11   12.47
  -6  -2 -16   74.70   13.20
  -6   2 -16   72.85   12.93
   6   2 -18  383.38   24.30
   6   2 -18  394.26   23.91
   6  -2 -18  376.59   23.44
  -6   2 -18  358.34   24.12
  -6  -2 -18  344.01   23.56
   6   2 -20  728.26   37.18
   6   2 -20  728.51   35.46
   6  -2 -20  752.79   35.84
  -6  -2 -20  642.95   34.50
  -6   2 -20  690.37   35.74
   6   2 -22  408.08   30.53
   6  -2 -22  446.17   30.13
  -6   2 -22  365.09   28.54
  -6  -2 -22  352.75   27.50
   6   2 -22  407.23   27.94
  -6   2 -22  364.58   20.27
  -6  -2 -22  324.78   18.65
   6   2  22  391.96   31.69
   6  -2 -22  371.52   17.80
   6   2 -22  407.87   18.38
  -6  -2 -24   41.11   10.62
  -6  -2 -24   43.07    7.56
   6  -2 -24   36.91    9.61
  -6   2 -24   34.36   10.27
   6   2 -24   27.94    8.51
   6   2  24   34.58   11.26
   6  -2 -24   29.65    5.54
   6   2 -24   38.93   11.95
  -6   2 -24   34.27    7.11
   6   2 -24   34.23    6.05
   6  -2 -24   37.97    6.23
   6   2 -24   38.42    6.23
   6   2 -26   39.75    5.66
  -6   2 -26   24.97    7.29
  -6  -2 -26   31.95    8.76
   6  -2 -26   29.41    5.31
  -6  -2 -26   39.21    6.77
   6   2  26   23.67    5.89
   6   2 -26   28.28    5.01
   6  -2 -26   43.26    6.19
   6   2 -28    5.24    4.61
   6  -2 -28    2.61    3.09
  -6  -2 -28    1.98    4.89
   6   2 -28    4.09    5.02
   6  -2 -28    1.19    3.09
   6  -2 -30   92.36    9.77
  -6  -2 -30   91.34   10.76
   6   2 -30   92.59   10.03
   6   2 -30  103.65    9.94
   6  -2 -30  103.51    9.80
   6   2 -32  121.74   10.91
   6  -2 -32  114.72   10.72
   6   2 -32  120.59   10.45
   6  -2 -32  127.57   10.69
   6  -2 -34  176.19   13.09
   6   2 -34  179.81   12.08
   6  -2 -34  169.72   11.90
   6  -2 -36  128.37   10.67
   6   2 -36  155.88   11.24
   6  -2 -36  163.71   11.11
   6   2 -38   76.75    6.82
   6  -2 -38   74.17    6.73
   6   4   0  175.55   11.99
   6   4   0  158.23   11.50
   6  -4   0  120.17   11.70
   6  -4   0  116.86   12.37
   6   4   0  147.52    7.95
   6   4   2   17.63   11.24
   6   4  -2   15.59   11.29
   6   4  -2   14.34    9.93
   6  -4   2    6.34   10.33
   6  -4  -2    4.39   12.64
   6  -4  -2   15.13   10.37
   6  -4   2   20.64   11.67
   6   4  -2   13.17    9.61
   6   4   2   22.56   12.55
   6   4  -4   10.43    5.26
   6   4  -4   12.40    6.21
   6  -4   4    9.62    6.23
   6  -4  -4   15.56    6.78
   6   4  -4    6.96    4.16
   6   4   4   10.63    5.71
  -6  -4  -6   77.08    3.33
   6  -4   6   68.68    4.16
   6  -4   6   58.61    1.47
  -6   4  -6   82.35    3.00
   6   4  -6   77.40    3.52
   6  -4  -6   57.95    3.11
   6   4  -6   93.37    4.28
   6   4   6   82.22    4.00
   6   4  -8  350.21   17.53
  -6  -4  -8  346.18   18.00
   6  -4  -8  358.31   17.89
  -6   4  -8  319.03   14.07
  -6   4  -8  326.42   17.85
   6   4  -8  354.14   17.39
  -6  -4  10  107.77   10.06
   6   4 -10  113.47   12.00
   6  -4 -10  102.97   11.50
  -6   4 -10  115.86   13.40
  -6  -4 -10  103.91   12.14
  -6   4 -10   97.85    9.51
   6   4  10  101.19   12.02
   6   4 -10  110.30   12.03
   6  -4  10   89.22   11.52
  -6   4 -12  289.88   18.16
   6   4 -12  339.64   18.50
  -6  -4  12  325.28   14.49
   6  -4 -12  335.81   17.98
  -6  -4 -12  285.02   17.42
   6   4  12  251.27   17.08
  -6   4 -12  296.24   14.45
   6   4 -12  306.75   18.05
   6   4 -14  309.42   20.21
  -6   4 -14  275.98   20.66
  -6  -4 -14  276.90   19.88
   6  -4 -14  316.17   20.13
   6   4  14  251.29   19.75
  -6   4 -14  257.55   16.08
   6   4 -14  289.34   20.18
  -6   4 -16    9.54    5.99
  -6  -4 -16    0.20    4.01
   6  -4 -16    7.16    4.86
   6   4 -16    6.89    4.55
   6   4  16    1.34    4.08
   6   4 -16    6.03    4.25
   6   4 -18   27.50    4.81
  -6  -4 -18   20.91    4.51
   6   4 -18   34.93    6.53
   6  -4 -18   36.07    6.66
   6   4  18   16.40    4.92
  -6   4 -18   29.38    6.58
  -6   4 -20   47.98    9.06
   6   4 -20   65.66   10.03
   6   4 -20   60.85    9.76
  -6  -4 -20   46.89    8.18
   6   4  20   35.97    8.20
   6  -4 -20   55.11    9.16
   6   4 -22   84.51   16.23
   6   4 -22   87.99   14.54
   6  -4 -22   92.47   15.51
  -6  -4 -22   76.83   15.08
   6  -4 -22   66.82    9.03
  -6   4 -22   74.80   15.04
  -6  -4 -22   72.22    9.94
   6  -4 -22   79.79    9.88
   6   4  22   86.85   16.73
   6   4 -22   81.05    9.31
   6   4 -24    4.87    3.99
   6  -4 -24    0.62    2.75
   6  -4 -24    3.37    5.89
  -6   4 -24    0.47    4.51
  -6  -4 -24    3.46    6.46
   6   4 -24    2.82    7.13
  -6  -4 -24    2.33    3.77
   6  -4 -24    4.21    4.11
   6   4  24    0.02    4.47
   6   4 -26    0.77    2.58
  -6   4 -26    1.03    5.94
  -6  -4 -26    5.38    6.22
   6  -4 -26    1.14    3.49
   6   4 -26    0.83    5.01
   6   4  26    1.10    5.20
  -6  -4 -26    2.01    3.91
   6  -4 -26    1.14    3.75
   6   4 -28   24.73    6.32
   6  -4 -28   23.64    5.99
  -6  -4 -28   21.64    7.24
   6   4 -28   19.83    6.40
   6  -4 -28   26.69    6.64
   6   4 -30   11.12    3.38
   6  -4 -30   11.19    3.37
   6   4 -30    9.39    3.12
  -6  -4 -30    6.25    4.13
   6  -4 -30    3.65    3.36
   6   4 -32   17.30    5.21
   6  -4 -32   15.89    4.66
   6  -4 -32   14.59    4.17
   6  -4 -34   55.92    7.79
   6   4 -34   54.49    7.08
   6  -4 -34   56.69    7.26
   6  -4 -36   16.42    3.86
   6  -4 -36    9.69    3.88
   6   4 -36   15.98    4.37
   6  -4 -38    3.77    2.44
   6   4 -38    1.60    1.96
   6   6   0  557.96   24.56
   6   6   0  642.27   25.12
   6  -6   0  639.30   25.17
   6   6   0  569.68   19.74
   6   6   2  248.07   16.80
   6   6  -2  245.34   15.39
   6  -6   2  275.34   16.73
   6   6  -2  211.22   13.76
   6  -6  -2  252.79   14.76
   6   6   2  238.80   10.39
   6   6  -2  262.39   14.43
   6   6   4    9.67    3.92
   6  -6   4    2.32    3.96
   6   6   4    2.30    0.83
  -6  -6  -4    4.30    2.61
   6  -6  -4    3.11    2.53
   6   6  -4   11.71    3.67
   6   6  -4    4.97    2.90
   6   6  -4    7.12    2.43
   6   6   6   41.84    7.42
   6   6  -6   48.30    7.66
  -6  -6  -6   36.73    6.94
   6  -6   6   31.19    7.82
  -6   6  -6   44.82    6.79
   6   6  -6   43.78    6.55
   6   6  -6   60.02    8.36
   6  -6  -6   46.82    6.41
   6   6   8    0.13    5.73
  -6  -6  -8    0.50    5.85
   6   6  -8    0.04    4.79
  -6  -6   8    0.32    3.50
   6  -6   8    0.31    5.89
  -6   6  -8    0.01    5.00
   6   6  -8    0.81    5.69
  -6   6  -8    0.22    4.45
  -6  -6  10   44.77    7.87
   6  -6 -10   50.71    9.91
  -6   6 -10   43.09    9.77
  -6   6 -10   41.49    7.83
   6   6 -10   49.89    9.11
   6  -6  10   17.11    8.85
  -6  -6 -10   49.09    9.38
   6   6 -10   50.37    9.62
   6   6  10   35.38    8.56
  -6  -6  12 1194.20   35.00
  -6   6 -12 1127.21   37.27
   6  -6  12 1134.06   40.44
  -6   6 -12 1222.34   44.77
   6  -6 -12 1278.11   45.12
   6   6 -12 1181.66   40.51
  -6  -6 -12 1187.20   42.49
   6   6  12 1069.28   41.25
   6   6 -12 1246.00   43.44
   6  -6 -14  472.43   24.38
  -6   6 -14  397.94   23.42
   6  -6  14  380.29   20.50
   6   6 -14  442.72   22.36
  -6  -6 -14  414.55   22.82
  -6  -6  14  392.31   16.69
  -6   6 -14  375.12   19.23
   6   6  14  372.91   22.25
   6   6 -14  435.60   23.33
   6   6 -16  271.55   17.69
  -6  -6 -16  265.52   17.99
  -6   6 -16  259.42   18.77
   6  -6 -16  304.09   19.36
  -6   6 -16  245.96   15.60
   6   6  16  246.69   18.33
   6   6 -16  279.35   18.91
   6   6 -18   87.95   12.09
   6  -6 -18   95.83   13.07
  -6  -6 -18   76.66   11.34
  -6   6 -18   85.05   12.34
   6   6  18   71.24   11.75
   6   6 -18   86.72   12.57
   6   6 -20   10.26    6.76
  -6   6 -20    7.69    7.34
  -6  -6 -20    9.41    5.88
   6  -6 -20   14.22    7.19
   6   6 -20   16.52    7.62
   6   6  20    5.58    5.42
   6   6  22    5.97    6.00
   6   6 -22    2.40    2.55
  -6  -6 -22    0.56    2.64
   6   6 -22    0.39    3.62
  -6   6 -22    5.58    6.35
   6  -6 -22    0.61    4.95
  -6  -6 -22    7.86    6.00
   6   6 -22    0.39    3.66
   6  -6 -22    0.61    2.77
   6  -6 -22    0.61    2.60
   6   6  24   32.41   10.12
  -6   6 -24   21.70    9.64
  -6  -6 -24   21.84    7.71
   6  -6 -24   21.44    7.66
   6  -6 -24   31.30    5.73
   6   6 -24   29.73   10.19
  -6  -6 -24   29.80    6.55
   6   6 -24   38.25    6.20
   6  -6 -24   31.44    6.14
   6   6 -26   33.81    6.08
   6   6  26   27.70   10.93
  -6   6 -26   23.75    8.02
   6  -6 -26   22.98    5.24
   6   6 -26   28.74    9.76
  -6  -6 -26   48.44    8.29
   6  -6 -26   34.78    6.32
   6  -6 -28   94.61   10.66
  -6  -6 -28  109.34   12.75
   6  -6 -28  131.15   12.21
   6   6 -28  122.10   11.13
   6  -6 -30  106.14   10.58
  -6  -6 -30   98.39   11.58
   6   6 -30   92.39    9.24
   6   6 -32    9.60    3.69
   6  -6 -32   14.37    4.02
  -6  -6 -32   16.98    5.71
   6  -6 -32   10.13    3.39
   6   6 -34    0.32    2.65
   6  -6 -34    2.46    3.14
   6  -6 -34    0.35    2.68
   6  -6 -36    1.91    2.90
   6  -6 -36    0.05    2.80
   6   6 -36    0.89    2.63
   6  -6 -38   16.90    3.73
   6  -6 -38   16.34    3.69
   6   6 -38   18.04    3.79
   6   8   0 1802.75   36.41
   6   8   0 1769.00   31.32
   6   8  -2  346.28   20.43
   6   8   2  347.91   21.14
   6   8  -2  306.67   18.24
   6  -8  -2  366.78   19.17
   6  -8   2  366.02   20.88
   6   8   2  345.49   15.61
   6   8  -2  347.64   18.36
   6   8  -4    3.11    3.89
   6   8   4    0.69    5.92
   6  -8   4    1.93    6.46
   6  -8  -4    2.75    4.24
   6   8  -4    1.31    4.67
  -6  -8  -4    1.51    4.37
   6   8  -4    2.12    4.51
  -6   8  -4    1.36    4.82
   6   8   4    0.80    3.52
  -6   8  -6    8.56    5.79
   6   8   6    7.23    2.91
   6  -8   6    5.15    6.48
   6   8  -6   13.86    6.52
   6  -8  -6   11.32    5.20
  -6  -8  -6   12.18    5.41
   6   8  -6   17.47    6.86
  -6  -8   6    7.20    4.84
   6   8  -6   12.45    5.66
   6   8   6   13.12    6.82
  -6  -8  -8    4.77    4.16
  -6   8  -8    5.88    4.50
   6   8   8    4.03    6.00
   6   8  -8    5.50    3.93
  -6   8  -8    5.13    5.52
   6   8  -8    5.43    4.94
   6  -8  -8    6.03    3.54
  -6  -8   8    6.04    3.75
   6  -8   8    6.71    5.40
   6   8 -10 1230.34   37.59
  -6   8 -10 1186.26   38.79
  -6  -8  10 1206.51   33.64
  -6  -8 -10 1131.75   34.88
  -6   8 -10 1087.22   33.71
   6   8 -10 1266.43   39.60
   6  -8  10 1236.52   38.66
   6   8  10 1083.46   36.99
   6   8 -12  572.07   27.83
  -6  -8  12  530.75   23.47
   6  -8  12  526.98   27.50
  -6  -8 -12  566.11   27.70
  -6   8 -12  575.04   30.04
   6  -8 -12  611.90   31.69
  -6   8 -12  571.09   26.98
   6   8 -12  612.59   29.81
   6   8  12  487.41   28.23
   6   8 -14  822.70   37.89
  -6   8 -14  725.12   34.35
  -6  -8  14  782.70   30.82
  -6   8 -14  794.53   39.58
  -6  -8 -14  750.10   36.20
   6  -8  14  779.36   36.62
   6   8 -14  821.88   39.55
   6   8  14  720.92   37.81
   6   8 -16  697.28   30.32
   6  -8  16  559.72   26.22
   6  -8 -16  766.42   34.11
  -6  -8 -16  638.56   29.09
  -6   8 -16  671.27   31.76
  -6   8 -16  600.55   26.97
   6   8 -16  694.45   31.21
   6   8  16  631.22   30.90
   6   8 -18  242.30   20.79
  -6   8 -18  254.84   22.49
  -6  -8 -18  232.23   20.52
   6  -8 -18  275.30   23.41
   6   8  18  211.33   20.98
   6   8 -18  245.55   21.82
   6   8  20   35.19   10.72
  -6  -8 -20   29.81    9.04
   6  -8 -20   39.21   10.66
   6   8 -20   33.03    9.73
   6   8 -20   32.21    9.33
  -6   8 -20   40.14   10.91
   6  -8 -20   29.41    5.73
   6  -8 -20   32.89    6.06
   6   8 -20   39.67    6.29
   6   8  22   44.25   11.74
   6   8 -22   40.63   10.21
  -6   8 -22   42.72   11.35
  -6  -8 -22   37.39    9.72
   6   8 -22   33.12    9.56
   6  -8 -22   49.45    7.43
   6  -8 -22   57.16   11.99
   6  -8 -22   42.70    6.82
   6   8 -22   40.88    6.47
  -6  -8 -22   38.21    6.82
   6   8 -24   29.83    5.61
   6   8  24   31.91   10.25
  -6   8 -24   21.19    7.80
   6   8 -24   27.57    8.60
   6  -8 -24   24.75    7.89
   6  -8 -24   22.98    5.25
  -6  -8 -24   20.24    5.20
   6  -8 -24   31.65    6.08
   6   8  26  239.57   28.24
   6   8 -26  232.01   26.13
  -6   8 -26  206.81   24.03
   6  -8 -26  264.56   16.48
   6  -8 -26  289.11   17.35
  -6  -8 -26  271.41   18.55
   6   8 -26  275.78   16.00
   6  -8 -28  142.49   11.24
  -6  -8 -28  152.36   13.19
   6  -8 -28  161.15   12.06
   6   8 -28  155.62   11.28
   6   8 -30  165.94   11.83
   6  -8 -30  125.65   10.83
  -6  -8 -30  154.07   13.61
   6  -8 -30  157.66   12.22
  -6  -8 -32   78.34   10.44
   6   8 -32   79.87    9.08
   6  -8 -32   72.91    9.04
   6  -8 -34    6.26    3.71
   6  -8 -34   10.23    4.18
   6   8 -34    6.02    3.49
   6  -8 -36    9.68    3.46
   6  -8 -36   15.05    4.07
   6   8 -36   16.48    3.76
   6   8  38   44.03    6.43
   6   8 -38   53.18    5.19
   6  -8 -38   50.25    5.39
   6  -8 -38   49.47    4.99
   6  10   0  666.87   27.85
   6  10   0  640.59   23.85
   6  10  -2  762.90   25.50
  -6 -10   2  756.73   24.96
   6 -10  -2  805.85   26.08
   6 -10   2  819.19   26.48
  -6 -10  -2  704.32   17.81
   6  10   2  727.50   20.56
   6  10   2  717.30   26.10
   6  10  -2  767.68   23.51
  -6  10  -4   17.09    5.89
   6 -10   4   20.79    7.24
   6 -10  -4   16.63    5.14
   6  10  -4   30.31    5.50
  -6 -10  -4   22.59    3.72
  -6 -10   4   27.05    5.58
   6  10   4   30.22    6.86
   6  10  -4   34.72    6.14
   6  10   4   26.41    4.28
   6  10  -6   10.98    5.55
  -6  10  -6    6.89    4.86
   6  10  -6    9.78    5.75
   6  10   6    4.83    2.73
   6 -10  -6    8.71    4.44
  -6 -10   6    6.75    4.71
   6  10   6    9.50    5.68
   6  10  -6    5.33    4.56
  -6 -10  -6    7.26    3.53
   6 -10   6    2.62    4.65
   6  10   8  436.45   25.56
   6  10  -8  489.44   25.72
   6 -10  -8  468.05   20.94
  -6 -10  -8  444.39   21.22
  -6  10  -8  467.85   24.82
  -6 -10   8  464.76   23.48
   6 -10   8  440.99   26.22
  -6  10  -8  437.54   24.01
   6  10  -8  466.34   25.18
   6  10  10  546.54   28.88
   6  10 -10  713.94   30.31
  -6 -10  10  631.07   25.95
  -6  10 -10  624.91   29.11
  -6 -10 -10  612.53   25.40
   6 -10  10  676.65   30.19
  -6  10 -10  595.02   27.02
   6  10 -10  670.09   30.16
   6 -10 -10  633.64   21.86
   6  10  12  708.89   33.53
   6  10 -12  803.80   33.95
  -6 -10 -12  632.32   27.68
   6 -10  12  825.87   34.23
  -6  10 -12  753.75   33.50
  -6  10 -12  687.28   30.25
  -6 -10  12  717.29   27.73
   6  10 -12  801.44   34.06
  -6 -10 -12  711.75   29.22
   6  10  14  801.16   37.12
   6  10 -14  957.80   37.99
  -6 -10  14  916.33   31.70
  -6 -10 -14  818.40   33.11
  -6  10 -14  863.88   37.25
  -6 -10 -14  703.25   29.34
   6 -10  14  834.56   35.76
   6 -10 -14 1059.50   43.49
  -6  10 -14  782.73   33.29
   6  10 -14  927.13   38.12
   6  10  16  525.70   31.41
   6  10 -16  569.98   30.01
   6 -10 -16  651.37   35.02
  -6  10 -16  554.41   30.33
  -6 -10 -16  500.08   26.70
   6 -10  16  523.11   27.90
  -6  10 -16  476.01   25.98
   6  10 -16  578.13   30.56
   6  10  18  241.81   23.11
   6  10 -18  264.81   22.07
   6 -10 -18  297.39   24.53
  -6  10 -18  250.48   22.27
  -6 -10 -18  242.84   20.75
   6 -10  18  176.28   19.12
  -6  10 -18  234.48   19.86
   6  10 -18  276.12   22.43
   6  10  20   79.47   15.70
   6  10 -20   94.84   15.42
   6  10  20   71.65    9.47
  -6  10 -20   82.89   15.39
   6 -10 -20  107.03   17.71
   6 -10 -20   98.20   10.06
  -6 -10 -20   66.59   12.87
  -6 -10 -20   61.47    8.57
   6  10 -20  102.87    9.93
   6 -10 -20   89.72    9.73
   6  10 -20   94.54   15.88
   6  10 -22   39.02    5.19
  -6 -10 -22   29.57    4.94
  -6 -10 -22   34.65    6.93
   6 -10 -22   20.45    6.25
   6  10  22   31.29    7.85
   6  10  22   22.23    4.43
   6  10 -22   45.68    8.87
   6 -10 -22   38.11    5.12
  -6  10 -22   26.94    6.82
   6 -10 -22   44.42    5.90
   6  10  24   84.19   14.76
  -6  10 -24   54.60   12.14
   6 -10 -24   92.05   14.19
   6 -10 -24   98.20    9.31
   6  10 -24   84.31   14.08
  -6 -10 -24   76.83    8.98
   6  10 -24  102.39    8.94
   6 -10 -24  102.51    9.46
   6 -10 -26  199.22   13.85
  -6 -10 -26  214.26   15.60
   6  10 -26  202.17   13.20
   6 -10 -26  215.47   14.49
   6 -10 -28  358.45   19.08
   6  10 -28  348.70   18.37
  -6 -10 -28  332.45   20.74
   6 -10 -28  374.11   19.60
   6 -10 -30  149.74   12.68
   6 -10 -30  116.45   11.28
   6  10 -30  149.00   12.18
  -6 -10 -30  158.67   14.34
  -6 -10 -32   31.99    6.89
   6 -10 -32   31.84    5.99
   6  10 -32   33.99    6.15
   6 -10 -34   12.81    3.86
   6 -10 -34   24.08    5.12
   6  10 -34   20.49    4.77
   6 -10 -36   10.55    3.01
   6 -10 -36    5.70    2.81
   6  10 -36    8.34    3.04
  -6 -12   0  171.26   14.89
   6  12   0  190.80   16.57
   6 -12   0  185.65   15.85
   6  12   0  175.97   14.09
  -6 -12  -2  305.03   19.01
   6 -12   2  331.99   19.63
   6 -12  -2  351.75   19.85
   6  12  -2  300.46   19.80
  -6 -12   2  293.70   18.31
   6  12   2  294.21   19.59
   6  12   2  301.84   16.35
   6  12  -2  310.72   17.70
  -6 -12  -4   48.82    6.39
   6  12   4   53.14   10.94
  -6 -12   4   60.59   11.16
  -6 -12  -4   64.71   11.17
   6 -12  -4   66.19   10.42
  -6  12  -4   56.50   11.38
   6  12  -4   54.63   10.89
   6 -12   4   46.45   11.58
   6  12   4   54.79    8.09
   6  12  -4   61.14   10.69
  -6  12  -6    3.86    4.51
   6  12   6    4.63    3.19
   6 -12   6    9.67    4.95
   6 -12  -6    8.13    3.72
  -6 -12  -6    9.28    3.63
   6  12  -6    5.21    3.65
  -6 -12  -6    7.32    4.39
  -6 -12   6    6.27    4.68
   6  12   6    7.98    6.11
  -6  12  -6    4.11    4.56
   6  12  -6    5.21    3.19
   6  12   8   92.81   12.71
  -6 -12  -8  106.19   12.30
  -6 -12  -8  100.10    9.46
  -6 -12   8  118.47   11.92
   6 -12  -8  115.66   11.00
   6 -12   8  104.68   13.68
  -6  12  -8   98.81   12.47
   6  12  -8  114.98   12.80
  -6  12  -8   94.08   11.76
   6  12  10  234.53   17.94
  -6 -12 -10  247.39   16.83
  -6  12 -10  240.84   16.86
  -6 -12  10  268.45   16.24
   6 -12  10  281.46   18.60
  -6  12 -10  223.83   15.84
  -6 -12 -10  240.12   13.85
   6  12 -10  273.04   17.91
   6 -12 -10  272.09   14.18
   6  12  12  435.77   29.19
  -6 -12  12  474.86   24.86
   6 -12  12  476.12   28.16
  -6  12 -12  446.06   27.18
  -6 -12 -12  430.13   23.05
  -6 -12 -12  411.74   24.71
  -6  12 -12  422.48   26.56
   6  12 -12  479.76   28.41
  -6 -12 -14  499.52   27.94
   6  12  14  519.34   34.09
  -6 -12  14  606.29   29.48
  -6  12 -14  539.32   32.10
  -6 -12 -14  505.34   27.79
  -6  12 -14  472.70   29.86
   6  12 -14  598.62   33.88
   6 -12  14  553.57   32.40
   6  12  16  231.80   21.42
   6 -12 -16  263.42   23.92
  -6  12 -16  217.15   19.12
  -6 -12 -16  198.93   17.21
   6 -12  16  202.15   18.64
  -6  12 -16  176.18   17.02
   6  12 -16  224.05   20.00
   6  12  18   80.46   15.34
   6 -12  18   87.36   13.87
  -6  12 -18   74.53   13.69
   6 -12 -18   94.69    9.17
   6 -12 -18  103.82   16.33
  -6 -12 -18   88.70   13.51
   6  12 -18   96.82    9.11
  -6  12 -18   74.53   12.66
   6  12 -18   96.63   15.13
   6  12  20   32.24    6.61
  -6  12 -20   38.39   10.93
   6  12  20   26.26   10.25
   6 -12 -20   22.40    8.83
   6  12 -20   29.72    9.51
   6 -12 -20   30.92    5.95
   6  12 -20   29.13    5.61
  -6 -12 -20   21.52    5.40
   6 -12 -20   30.42    5.84
   6  12  22    5.77    3.34
   6 -12 -22    2.12    2.80
   6  12  22   11.09    8.07
   6 -12 -22    4.40    5.57
   6  12 -22    0.20    4.39
  -6  12 -22    0.02    5.52
  -6 -12 -22    5.31    2.60
   6 -12 -22    2.55    2.61
   6  12 -22    6.32    3.26
   6  12 -24   29.93    7.28
  -6  12 -24    6.51    5.06
   6 -12 -24   29.14    9.05
   6  12  24    8.56    4.35
   6 -12 -24   32.20    5.34
  -6 -12 -24   32.86    5.65
   6 -12 -24   31.99    5.48
   6  12 -24   25.19    4.69
   6 -12 -26  139.24   12.26
   6  12 -26  133.33   11.38
  -6 -12 -26  123.00   12.43
   6 -12 -26  138.58   12.12
   6  12 -28  279.07   15.95
  -6 -12 -28  254.37   17.51
   6 -12 -28  302.89   16.91
   6 -12 -28  266.45   16.45
   6 -12 -30   68.48    7.85
   6  12 -30   97.36    9.30
  -6 -12 -30   90.48   10.19
   6 -12 -30   78.14    8.44
  -6 -12 -32    0.80    3.20
   6 -12 -32    0.46    3.18
   6  12 -32    0.27    3.15
   6 -12 -34    0.80    2.40
   6  12 -34    1.80    2.47
   6 -12 -34    3.17    2.50
   6 -12 -36    0.40    2.13
   6  12  36    3.27    2.88
   6  12 -36    0.19    2.02
   6 -12 -36    0.16    2.69
  -6 -14   0   35.74   10.71
   6  14   0   27.85   10.75
   6  14   0   36.14   10.27
   6 -14   0   26.38   10.37
   6  14  -2    1.10    5.12
  -6 -14   2    2.85    5.25
   6  14   2    1.53    3.69
   6  14  -2    2.56    4.62
   6 -14  -2    0.96    3.93
   6 -14   2    2.20    4.24
  -6 -14  -2    1.58    5.65
   6  14   2    1.04    5.58
   6 -14   4  103.87   13.20
   6 -14  -4  106.75   12.51
   6  14   4  122.53   15.42
  -6 -14   4  115.92   13.48
  -6 -14  -4   93.83   12.83
  -6  14  -4  104.57   13.86
   6  14  -4   87.63   12.84
   6  14   4  104.25   11.77
   6  14  -4   99.69   12.42
   6 -14   6   51.78   10.07
   6 -14  -6   36.51    8.50
   6  14   6   24.83    8.89
  -6  14  -6   27.05    7.45
  -6 -14  -6   27.28    8.66
  -6  14  -6   42.73   11.80
   6  14   6   40.80    8.25
  -6 -14   6   36.45    9.05
   6  14  -6   28.05    8.05
  -6 -14   8  243.57   18.43
   6  14   8  217.65   21.34
  -6  14  -8  204.44   17.14
   6 -14  -8  238.59   17.52
  -6  14  -8  227.55   20.07
  -6 -14  -8  241.66   20.18
   6  14  -8  249.04   20.39
   6 -14   8  245.41   21.28
   6 -14  10    7.32    3.83
  -6 -14  10   15.98    5.55
  -6 -14 -10    9.96    4.36
  -6  14 -10   11.00    4.52
  -6  14 -10    6.70    3.42
   6 -14 -10    4.11    2.26
   6  14  10    6.48    5.33
   6  14 -10    6.43    3.60
  -6  14 -12   42.32    9.61
  -6 -14  12   37.27    8.56
  -6  14 -12   42.61   10.09
   6 -14  12   38.61   10.52
   6  14 -12   40.97    9.97
  -6 -14 -12   40.87    9.09
   6  14  12   43.21   11.49
  -6  14 -14   41.86   10.22
  -6 -14  14   40.62    9.56
   6 -14  14   41.62   11.17
  -6  14 -14   36.75   10.49
  -6 -14 -14   36.61    9.51
   6  14  14   45.23   12.76
   6  14 -14   51.87   13.02
   6 -14  16   32.74    8.72
  -6  14 -16   16.85    5.55
   6  14  16   35.92   10.35
   6  14 -16   30.78    8.06
   6 -14 -16   29.98    5.10
  -6  14 -16   19.75    7.20
   6  14 -16   31.07    5.15
   6  14  18    0.79    2.69
  -6  14 -18    6.95    6.81
  -6  14 -18    3.72    5.56
   6  14 -18    5.27    5.80
   6 -14 -18    0.40    4.86
   6  14  18    1.38    6.09
   6 -14 -18    0.40    2.23
   6 -14  18    0.22    4.85
   6  14 -18    1.69    2.54
   6  14 -20   67.44    6.92
   6 -14 -20   74.91   12.64
   6  14  20   45.63    6.32
   6  14 -20   52.90   10.06
   6  14  20   53.66   12.72
   6 -14 -20   65.37    7.23
   6 -14 -20   53.83    6.59
   6  14  22   31.62    6.51
   6  14  22   46.88   12.96
   6 -14 -22   41.94   12.46
   6  14 -22   39.98   10.54
   6 -14 -22   57.08    7.88
   6  14 -22   50.55    6.98
  -6 -14 -22   42.39    7.12
   6 -14 -22   46.37    7.20
   6 -14 -24   26.05    4.89
  -6 -14 -24   27.13    5.68
   6  14 -24   27.55    4.92
   6 -14 -24   31.62    5.20
   6 -14 -26   45.74    6.96
   6 -14 -26   49.07    7.09
  -6 -14 -26   45.70    7.06
   6  14 -26   42.13    6.20
   6 -14 -28   32.96    5.77
  -6 -14 -28   29.52    6.08
   6  14 -28   29.64    5.48
   6 -14 -28   31.12    5.77
   6 -14 -30    4.42    3.09
  -6 -14 -30    4.08    3.53
   6  14 -30    4.28    2.95
   6 -14 -30    2.70    2.66
   6  14 -32   45.28    5.89
  -6 -14 -32   33.46    5.76
   6 -14 -32   40.88    5.90
   6 -14 -34   81.75    7.23
   6  14 -34   91.21    7.38
   6 -14 -34   89.41    7.43
   6 -14 -36   16.10    3.11
   6  14  36    8.09    2.94
   6  14 -36   17.09    3.30
   6 -14 -36   10.77    2.65
   6  16   0    1.85   10.57
  -6 -16   0    1.50    9.19
   6  16   0    0.44    8.09
   6 -16   0    0.52    8.94
  -6 -16  -2  242.94   22.27
  -6 -16   2  251.00   22.11
   6 -16   2  209.07   22.39
   6  16   2  245.79   24.68
  -6  16  -2  267.77   26.61
   6  16   2  174.99   18.00
   6  16  -2  221.45   20.67
   6 -16  -2  246.13   21.93
   6  16  -2  224.85   23.53
   6 -16  -4  370.03   26.83
   6  16   4  365.18   30.74
  -6 -16  -4  356.96   27.21
  -6  16  -4  303.56   21.93
  -6 -16   4  399.43   27.32
   6 -16   4  405.54   28.12
  -6  16  -4  445.34   33.11
   6  16  -4  353.75   29.39
   6  16   4  350.53   24.35
   6  16  -4  382.10   27.18
  -6 -16  -6  776.74   38.57
  -6 -16   6  847.29   37.40
   6 -16   6  848.08   39.39
   6 -16  -6  938.97   38.72
   6  16   6  795.88   43.29
  -6  16  -6  821.83   43.25
   6  16  -6  875.40   40.09
   6  16   8  361.74   27.52
  -6  16  -8  309.94   19.75
   6 -16   8  357.63   24.69
  -6 -16  -8  379.84   24.54
   6 -16  -8  376.88   22.16
  -6 -16   8  380.49   22.77
  -6  16  -8  396.16   26.84
   6  16  -8  367.15   23.92
  -6 -16 -10  328.73   24.41
  -6 -16  10  335.08   22.94
   6 -16 -10  335.42   21.19
   6 -16  10  374.30   26.92
  -6  16 -10  327.65   25.59
   6  16 -10  372.68   26.33
   6  16  10  364.56   28.43
  -6 -16 -12   11.41    4.60
  -6 -16  12   17.74    4.24
  -6  16 -12   22.43    5.08
   6 -16  12   25.82    5.31
   6  16  12   30.02    7.38
   6  16 -12   36.43    7.15
   6  16 -14   36.43    5.57
   6 -16  14   26.11    9.40
   6  16 -14   46.10   10.28
   6  16  14   25.12    5.00
  -6  16 -14   27.31    8.50
  -6 -16  14   43.53    8.86
   6 -16 -14   38.84    5.82
   6  16  14   39.75   10.37
   6  16 -16   26.61   10.69
   6  16  16   18.44    6.28
   6 -16  16   20.99    9.49
  -6  16 -16   29.81   10.47
   6 -16 -16   31.55    7.01
   6  16 -16   34.56    6.78
   6  16  16   28.72   12.60
   6  16  18   76.68   17.00
   6  16  18   83.10   10.41
   6 -16 -18  122.28   20.86
   6 -16 -18   98.47   10.51
  -6  16 -18   50.43   12.20
   6  16 -18  110.47   10.46
   6 -16  18   70.11   15.23
   6  16 -18   96.71   17.22
   6  16  20  256.35   28.56
   6  16  20  255.66   17.11
   6 -16 -20  299.70   29.64
   6 -16 -20  335.72   17.61
   6  16 -20  302.61   16.22
   6 -16 -20  310.62   16.74
   6  16 -20  291.41   27.20
   6  16  22  389.36   21.07
   6 -16 -22  430.74   34.34
   6  16  22  342.78   32.99
   6 -16 -22  461.20   20.29
   6  16 -22  419.43   19.03
   6 -16 -22  471.06   20.37
   6  16 -22  394.05   32.17
   6 -16 -24   64.37    8.10
   6  16 -24   66.96    7.58
   6 -16 -24   67.07    8.00
  -6 -16 -24   50.22    7.34
   6 -16 -26   23.23    5.77
   6  16 -26   25.15    5.27
  -6 -16 -26   23.11    5.67
   6 -16 -26   26.17    5.84
   6  16  28    0.71    3.79
   6 -16 -28    1.84    2.80
   6  16 -28    1.18    2.75
  -6 -16 -28    1.98    3.12
   6 -16 -28    3.92    3.27
   6 -16 -30   42.33    5.93
   6  16 -30   48.15    6.52
  -6 -16 -30   39.85    6.35
   6 -16 -30   43.91    5.99
   6  16 -32  115.11    8.80
  -6 -16 -32   90.91    8.98
   6 -16 -32  126.46    9.38
   6 -16 -34  193.45   10.65
   6  16 -34  171.45   10.07
   6 -16 -34  179.05   10.39
   6  18   0   15.47    5.24
   6 -18   0   33.05    7.90
  -6 -18   0   28.36    6.21
   6  18   0   24.55    7.10
  -6  18   0   36.43    9.13
  -6 -18  -2  184.69   19.81
  -6 -18   2  177.70   18.59
   6 -18   2  156.22   18.89
   6 -18  -2  204.16   20.00
   6  18   2  188.49   23.01
   6  18  -2  165.06   21.64
   6  18   2  171.82   18.59
   6  18  -2  181.55   19.04
  -6  18  -2  225.68   25.30
  -6  18  -4  667.79   40.65
  -6 -18   4  562.74   30.95
   6 -18   4  583.12   32.33
  -6 -18  -4  566.28   32.17
   6 -18  -4  594.33   32.19
   6  18   4  556.22   30.90
   6  18   4  518.69   35.82
   6  18  -4  596.42   37.15
   6  18  -4  556.52   32.06
  -6 -18  -6  839.57   37.55
  -6 -18   6  895.97   36.52
   6 -18   6  864.08   38.28
   6 -18  -6  893.13   37.27
   6  18   6  853.79   42.76
  -6  18  -6  859.35   43.88
   6  18  -6  886.63   39.76
  -6 -18  -8  680.16   36.22
  -6 -18   8  679.71   34.10
   6 -18   8  679.50   38.13
   6 -18  -8  742.42   35.03
   6  18   8  716.35   42.13
  -6  18  -8  724.73   42.36
   6  18  -8  671.95   37.42
   6  18  10  306.55   18.02
  -6 -18 -10  358.80   28.27
  -6 -18  10  400.64   28.14
   6  18 -10  409.78   31.26
   6  18  10  386.48   33.73
   6 -18  10  380.70   31.87
   6 -18 -10  343.94   18.50
   6  18 -10  371.20   18.09
  -6  18 -10  377.76   31.51
   6  18  12  108.23   17.92
   6  18  12   75.07    8.86
  -6  18 -12   79.08   13.61
  -6 -18 -12   81.01   12.82
  -6 -18  12  111.65   14.42
   6 -18  12   94.33   14.36
   6  18 -12  103.81    9.17
   6 -18 -12  102.76    9.46
   6  18 -12  106.30   15.10
   6  18  14   38.28   10.83
  -6 -18  14   66.96   11.72
   6 -18  14   55.76   12.64
   6  18 -14   65.02   13.24
  -6  18 -14   50.15   11.45
   6 -18 -14   61.60    7.80
   6  18  14   53.58    8.32
   6  18 -14   67.50    7.78
   6  18  16   50.10   10.66
   6 -18 -16   64.02    7.38
  -6  18 -16   52.83   11.43
   6  18  16   53.35    7.16
   6  18 -16   77.56   13.38
   6  18 -16   60.47    6.77
   6 -18  16   45.60   10.46
   6 -18  18  172.82   20.69
   6  18  18  207.24   25.25
   6 -18 -18  250.27   27.17
   6 -18 -18  269.22   15.55
   6  18  18  228.52   15.66
   6  18 -18  241.44   14.41
  -6  18 -18  158.88   19.31
   6  18 -18  251.55   25.39
   6 -18 -20  392.34   19.55
   6  18  20  329.47   20.22
   6  18  20  290.77   31.83
   6 -18 -20  316.74   32.32
   6  18 -20  409.78   18.99
   6 -18 -20  374.25   19.08
   6  18 -20  364.43   31.93
   6 -18 -22  445.84   21.63
   6  18 -22  445.62   20.31
   6 -18 -22  446.36   21.08
   6 -18 -24  153.62   11.85
   6  18 -24  145.20   10.91
   6 -18 -24  164.81   11.99
   6  18 -26   60.21    7.23
   6 -18 -26   53.26    7.11
   6 -18 -26   58.91    7.28
  -6 -18 -26   40.27    6.04
   6 -18 -28   43.86    6.67
   6  18 -28   51.30    6.86
   6 -18 -28   45.60    6.54
  -6 -18 -28   31.39    6.03
   6 -18 -30   39.57    6.34
   6  18 -30   61.22    7.20
   6 -18 -30   51.91    6.98
  -6 -18 -30   40.66    6.45
   6  18 -32  123.03    9.37
   6 -18 -32  138.07    9.88
   6  18 -34  152.58    8.75
   6 -18 -34  140.61    8.74
   6 -18 -34  153.14    8.82
  -6  20   0   73.69    9.77
   6  20   0   66.13    6.84
  -6 -20   0   69.12    7.64
   6 -20   0   60.67    7.08
   6  20   0   53.90    6.17
  -6  20  -2   25.24   10.89
  -6 -20  -2   15.42    7.73
   6  20   2    9.77    6.62
   6 -20   2   17.41    8.34
   6 -20  -2   17.13    8.90
   6  20   2   19.50   10.68
  -6 -20   2   18.36    7.70
  -6  20   2   27.44   12.73
   6  20  -2   16.61    7.41
   6  20  -2   25.36   10.75
  -6 -20  -4  174.89   21.19
  -6 -20   4  199.13   21.74
   6 -20   4  213.57   23.86
   6 -20  -4  209.88   22.00
   6  20   4  201.58   26.73
   6  20  -4  195.09   14.40
  -6  20  -4  241.30   28.74
   6  20  -4  197.16   22.58
   6  20   6  496.62   20.82
  -6 -20  -6  594.15   33.60
  -6 -20   6  592.20   33.15
   6 -20   6  596.61   34.79
   6  20   6  478.27   20.82
   6 -20  -6  669.28   34.58
   6  20   6  575.24   39.39
   6  20   6  543.15   23.21
   6  20  -6  634.20   22.75
  -6  20  -6  654.14   42.14
   6  20  -6  651.08   37.28
   6  20   8  332.73   18.67
  -6 -20   8  410.01   28.77
   6 -20   8  407.44   30.71
   6  20   8  346.20   19.00
  -6  20  -8  419.68   34.80
   6  20   8  396.71   35.12
   6 -20  -8  434.31   28.60
   6  20   8  398.93   20.94
  -6 -20  -8  386.69   28.77
   6  20  -8  394.29   18.78
   6  20  -8  395.03   31.51
   6  20  10  187.87   14.98
   6  20 -10  181.59   13.95
  -6 -20 -10  184.26   21.11
   6 -20  10  204.01   24.00
   6  20  10  193.64   15.03
   6  20  10  203.22   26.12
   6  20  10  222.47   16.10
  -6 -20  10  226.90   22.84
   6  20 -10  199.97   14.22
   6 -20 -10  194.51   14.83
  -6  20 -10  202.82   25.16
   6  20 -10  196.11   23.45
   6  20 -12    5.77    2.59
   6 -20 -12   12.23    4.10
   6  20  12   21.65    9.58
  -6  20 -12   16.45    8.06
   6 -20  12   19.14    7.79
   6  20  12   14.07    4.64
   6  20 -12   14.57    6.87
  -6 -20  12    4.09    3.86
  -6 -20 -12    6.77    4.22
   6  20 -12   12.20    4.13
   6  20 -14    0.43    4.20
  -6 -20  14    0.86    4.51
   6  20  14    0.85    3.81
   6 -20  14    1.29    4.27
  -6  20 -14    1.43    5.70
   6  20  14    0.21    8.02
   6 -20 -14    2.13    3.48
   6  20 -14    4.34    3.80
   6  20  16   36.03   12.79
  -6  20 -16   23.44   10.13
   6 -20  16   41.11   11.64
   6  20 -16   39.71   12.29
   6  20  16   46.61    8.10
   6  20 -16   51.44    7.49
   6 -20 -16   50.07    8.05
  -6  20 -18  116.35   15.72
   6  20  18  203.67   14.37
   6 -20 -18  182.94   23.16
   6 -20  18  119.73   15.84
   6  20  18  150.09   21.30
   6 -20 -18  213.06   13.42
   6  20 -18  213.19   12.75
   6  20 -18  193.59   21.39
   6 -20 -20  255.12   15.62
   6  20 -20  242.84   15.04
   6  20  20  209.07   15.80
   6 -20 -20  246.04   15.13
   6  20  22  173.85   14.34
   6 -20 -22  195.86   13.65
   6  20 -22  186.86   13.04
   6 -20 -22  190.53   13.33
   6 -20 -24   96.83   10.19
   6  20 -24  104.20   10.03
   6 -20 -24  100.22   10.14
   6  20 -26   58.94    7.51
   6 -20 -26   54.96    7.85
   6 -20 -26   63.79    8.33
   6 -20 -28    6.89    2.97
   6  20 -28    2.70    2.53
   6 -20 -28    8.63    3.01
   6 -20 -30   19.82    4.29
   6  20 -30   24.84    4.17
   6 -20 -30   26.47    4.52
   6  20 -32   58.20    5.94
   6 -20 -32   62.63    6.18
   6  22   0    0.93    3.77
  -6  22   0    2.17    9.33
   6  22   0    0.07    5.38
  -6  22   0    0.71    4.03
   6  22   0    1.86    5.23
   6 -22   0    0.35    6.54
  -6 -22   0    0.99    6.81
   6  22   0    2.62    7.52
   6  22   2    0.94    3.04
  -6  22   2    1.09    7.88
   6  22  -2    0.19    3.16
  -6  22   2    0.16    3.58
  -6  22  -2    0.21    2.88
  -6 -22  -2    0.50    3.77
  -6 -22   2    0.04    5.74
   6 -22   2    3.62    5.69
   6 -22  -2    4.15    4.06
   6  22  -2    0.00    5.62
  -6  22  -2    3.97    8.88
   6  22   2    0.05    7.30
   6  22   2    1.18    3.65
   6  22  -2    0.00    3.62
   6  22   4   43.35    7.68
   6  22  -4   37.79    7.13
  -6  22   4   24.18    6.26
  -6  22  -4   27.27    6.62
  -6  22  -4   54.05   15.33
   6 -22  -4   29.26    9.05
  -6 -22  -4   28.52    9.99
   6 -22   4   32.94   11.02
   6  22  -4   39.00    6.85
  -6 -22   4   37.22   10.31
  -6  22   4   53.53   16.46
   6  22   4   38.78    7.56
   6  22   4   40.49   14.11
   6  22  -4   39.06   11.39
   6  22   6   60.97    7.81
   6  22  -6   57.14    7.67
  -6  22  -6   53.40    7.75
  -6  22   6   48.86    7.69
  -6  22  -6   58.00   14.27
   6  22   6   55.36   13.76
  -6 -22  -6   43.62    9.83
  -6 -22   6   66.73   12.07
   6  22   6   51.61    7.49
   6 -22   6   57.72   11.75
   6 -22  -6   54.79   10.46
   6  22  -6   54.06   11.80
   6  22   6   67.69    8.96
   6  22  -6   55.82    7.50
   6  22   8  320.96   18.81
   6  22  -8  346.55   18.35
  -6  22  -8  330.08   19.05
  -6 -22  -8  304.16   26.88
  -6 -22   8  335.64   27.26
   6 -22   8  373.42   31.21
   6 -22  -8  352.52   26.49
   6  22   8  358.00   19.59
   6  22   8  403.49   20.95
   6  22   8  326.64   33.41
   6  22  -8  358.59   18.29
   6 -22  -8  358.76   18.94
  -6  22  -8  367.32   33.85
   6  22  -8  383.27   31.01
   6  22  10    9.08    4.44
   6  22 -10    6.99    3.38
   6  22  10    8.48    4.33
   6  22  10    6.97    4.11
  -6 -22  10    8.47    6.09
   6 -22  10   20.57    8.58
  -6 -22 -10    5.03    5.25
  -6  22 -10   21.97    9.85
   6  22 -10    8.64    4.85
   6  22 -10   11.81    3.88
   6 -22 -10   16.16    4.97
   6  22  10   10.04    6.83
   6  22 -12    0.40    3.69
  -6 -22  12    1.55    7.22
  -6  22 -12    0.33    7.28
   6 -22  12    0.42    5.75
   6  22 -12    0.48    5.77
   6  22  12    0.41    3.40
   6  22  12    7.01    5.71
   6 -22 -12    0.31    3.30
   6  22 -12    0.48    3.94
   6  22 -14  115.92    9.66
  -6 -22  14   75.93   11.35
   6 -22  14   62.07   11.22
  -6  22 -14   60.46   12.51
   6  22 -14   95.07    8.26
   6  22  14   92.89   16.58
   6 -22 -14   94.06    8.70
   6  22  14   89.90    8.97
   6  22 -14   93.79   14.11
   6 -22 -16    0.93    3.43
   6  22  16    0.24    3.56
   6  22 -16    0.11    2.60
   6 -22 -18   56.14    8.69
   6  22 -18   51.47    7.69
   6  22  18   52.52    9.05
   6  22  20  162.07   14.00
   6  22 -20  160.08   12.15
   6 -22 -20  157.33   13.24
   6 -22 -20  159.38   12.38
   6 -22 -22    3.77    3.28
   6  22 -22    0.19    3.58
   6 -22 -22    0.87    2.98
   6  22 -24   87.38    8.78
   6 -22 -24   90.58    9.53
   6 -22 -24   83.58    8.98
   6 -22 -26    8.01    3.62
   6  22 -26    3.55    2.70
   6 -22 -26    3.47    2.70
   6 -22 -28    0.33    2.80
   6  22 -28    0.31    2.41
   6 -22 -28    2.64    2.51
   6 -22 -30    0.02    2.28
   6  22 -30    0.03    2.87
   6 -22 -30    0.02    2.54
   6  24   0   34.50    8.71
  -6  24   0   31.33    9.09
   6 -24   0   38.81   14.30
   6  24   0   40.21    9.37
  -6 -24   0   20.09   11.11
  -6  24   0   56.10   20.38
   6  24   2   41.40    8.46
  -6  24   2   58.72   10.14
  -6  24  -2   60.05    9.95
  -6  24   2   71.86   18.55
  -6  24  -2   75.28   20.19
  -6 -24   2   67.38   14.93
  -6 -24  -2   50.98   13.34
   6 -24   2   55.76   14.91
   6 -24  -2   56.17   14.78
   6  24  -2   49.44   13.98
   6  24   2   58.57    9.88
   6  24  -2   57.80    9.52
   6  24   2   62.19   18.20
   6  24  -2   52.82    9.02
   6  24   4    2.94    3.43
  -6  24   4   14.12    7.46
   6  24  -4   12.49    4.26
  -6  24   4   20.20    4.96
  -6  24  -4    1.00    3.55
  -6  24  -4    8.24    6.22
  -6 -24  -4   12.56    5.94
  -6 -24   4    4.89    4.93
   6 -24   4    3.45    4.19
   6  24  -4    1.01    7.94
   6 -24  -4    5.90    5.28
   6  24   4   10.66    4.10
   6  24  -4    8.74    2.84
   6  24   4   12.11    6.82
   6  24   6   20.34    6.08
  -6  24   6   27.57   12.57
  -6  24   6   24.33    5.67
   6  24  -6   33.20    7.17
  -6  24  -6   23.87   12.04
  -6 -24   6   22.69    9.00
   6 -24   6   14.04    8.87
   6 -24  -6   15.09    8.40
   6  24  -6   33.04   11.20
  -6 -24  -6   17.69    7.01
   6  24   6   26.76    6.37
  -6  24  -6   18.10    5.68
   6  24   6   24.38    6.41
   6  24  -6   28.97    6.56
   6 -24  -6   24.93    6.73
   6  24   6   37.91   14.77
   6  24   8   11.95    5.50
  -6  24   8   11.50    5.02
   6  24  -8   14.11    5.24
  -6  24  -8    9.96    5.25
  -6 -24  -8   16.85    7.68
  -6 -24   8    8.07    6.91
   6  24  -8   13.06    8.44
  -6  24  -8    3.82    6.66
   6  24   8    8.36    4.62
   6  24   8    7.17    8.28
   6  24   8   13.88    5.05
   6 -24   8   20.44    9.50
   6  24  -8   17.03    4.97
   6 -24  -8    9.36    4.45
   6  24  10    0.40    3.34
   6  24 -10    2.14    5.09
  -6  24 -10    0.82    3.98
  -6 -24 -10    7.33    5.38
  -6 -24  10    0.58    7.26
  -6  24 -10   10.92   12.10
   6 -24  10    3.10    8.42
   6  24  10    3.20    5.63
   6  24  10    1.25    8.21
   6  24 -10    1.68    8.13
   6 -24 -10    1.87    4.88
   6  24 -10    2.53    4.90
   6  24 -12  210.49   14.33
  -6  24 -12  186.33   14.52
  -6 -24  12  170.90   19.79
   6  24  12  220.78   15.69
   6 -24  12  180.16   21.84
   6  24 -12  199.76   13.63
   6 -24 -12  233.22   14.93
  -6  24 -12  154.43   22.02
   6  24 -12  160.38   21.32
   6  24 -14  154.42   14.34
   6  24  14  143.00   15.15
   6  24 -14  143.55   13.57
   6 -24 -14  155.69   14.88
   6  24 -16   79.32    8.14
   6  24 -16   68.63    7.28
   6 -24 -16   81.31    8.47
   6  24  16   69.25    8.01
   6  24  18    0.05    3.58
   6 -24 -18    0.27    3.07
   6  24 -18    1.15    3.00
   6  24  20    1.32    2.85
   6 -24 -20   16.51    4.15
   6  24 -20    9.10    3.77
   6 -24 -20   14.25    3.68
   6  24  22   19.76    5.28
   6 -24 -22   18.03    4.30
   6  24 -22   18.72    4.10
   6 -24 -22   19.09    4.72
   6  24 -24   62.35    7.52
   6 -24 -24   54.60    7.47
   6 -24 -24   54.58    7.74
   6  24 -26   14.64    3.74
   6 -24 -26   13.62    4.25
   6 -24 -26   14.95    4.26
  -6  24 -28   36.80    5.57
   6 -24 -28   38.55    5.54
   6  24 -28   35.16    4.72
   6 -24 -28   52.38    5.89
  -6  24 -30    9.77    2.77
   6  24 -30    8.62    2.23
   6 -24 -30   14.45    3.13
   6  26   0  288.89   19.18
  -6  26   0  281.20   19.82
  -6 -26   0  270.31   28.58
   6 -26   0  270.98   30.64
   6  26   0  328.95   20.56
  -6  26   0  354.13   41.05
   6  26   2  109.99   10.93
   6  26  -2  112.26   10.82
  -6  26   2  115.75   11.67
  -6  26  -2  100.29   10.40
  -6  26   2  101.08   20.33
  -6 -26   2  112.06   16.34
  -6  26  -2  126.60   22.20
   6 -26   2  104.64   17.69
  -6 -26  -2   97.34   15.15
   6 -26  -2   86.34   15.57
   6  26   2  117.32   11.30
   6  26  -2  126.64   11.72
   6  26   4   88.64    9.83
  -6  26   4  104.00   11.13
   6  26  -4   93.41    9.84
  -6  26  -4   85.40    9.26
  -6  26   4   89.71   18.09
  -6  26  -4   91.66   18.23
  -6 -26  -4   68.10   12.78
  -6 -26   4   83.03   13.74
   6  26   4   98.08   10.63
   6  26   4   76.64   16.02
   6 -26   4   96.91   16.26
   6  26  -4   61.40   12.63
   6 -26  -4   69.97   14.33
   6  26   4   92.44   10.00
   6  26  -4   87.30    9.45
   6 -26  -4   82.00    9.57
  -6  26   6   78.99    9.11
   6  26  -6   69.08    8.06
   6  26   6   57.00    7.38
   6  26  -6   30.90    8.12
  -6  26   6   59.41   14.93
  -6 -26  -6   52.87   10.60
  -6  26  -6   60.08   14.10
  -6  26  -6   53.47    7.24
   6  26   6   57.35    7.68
   6  26   6   69.60    8.51
   6  26  -6   61.51    7.26
   6 -26  -6   70.84    8.24
   6  26   8   16.31    5.17
  -6  26   8   27.50    5.99
   6  26  -8   26.90    5.77
   6  26   8   24.59    5.49
   6  26   8   31.29    6.22
  -6  26  -8   16.04    5.22
   6  26  -8   27.81    6.09
   6 -26  -8   28.44    6.71
   6  26 -10   84.44    9.96
  -6  26 -10   67.86    9.37
   6  26  10   65.98    9.19
   6 -26 -10   76.30    9.72
   6  26 -10   83.51    9.81
   6  26  10   52.14    8.89
   6  26 -12  323.63   18.14
  -6  26 -12  299.92   18.70
   6  26  12  302.59   18.89
   6  26 -12  300.38   17.33
   6 -26 -12  340.91   19.05
   6 -26 -14  393.23   20.23
   6  26 -14  395.07   19.30
  -6  26 -14  368.45   20.38
   6  26 -14  387.64   18.73
   6  26  14  362.76   20.16
   6  26 -16  249.69   15.84
  -6  26 -16  235.70   17.49
   6  26  16  232.36   17.35
   6  26 -16  258.86   16.25
   6 -26 -16  274.91   17.58
  -6  26 -18   36.01    6.18
   6  26  18   45.82    7.26
   6 -26 -18   42.42    6.43
   6  26 -18   42.53    5.86
   6 -26 -18   43.81    6.34
  -6  26 -20    5.46    3.75
   6  26  20    5.00    4.01
   6 -26 -20    6.51    3.51
   6  26 -20    9.42    4.06
   6 -26 -20   10.63    4.54
   6  26 -22    7.11    3.67
  -6  26 -22    4.19    3.86
   6 -26 -22    9.63    4.18
   6 -26 -22    2.43    2.88
  -6  26 -24   92.70    8.95
   6  26 -24  107.75    8.59
   6 -26 -24  123.65    9.70
   6 -26 -24  109.59    9.09
  -6  26 -26  177.79   11.84
   6 -26 -26  152.20   10.45
   6  26 -26  145.03    9.60
   6 -26 -26  147.40   10.01
  -6  26 -28   90.25    8.04
   6  26 -28   84.49    6.94
   6 -26 -28   77.31    7.15
   6 -26 -28   80.81    7.01
   6  28   0  314.91   20.56
  -6  28   0  295.01   20.63
   6  28   0  336.12   21.33
   6  28   2  199.44   14.07
   6  28  -2  223.97   14.53
  -6  28   2  208.19   14.70
  -6  28  -2  189.93   13.98
   6  28   2  237.06   15.65
   6  28   2  215.75   14.57
   6  28  -2  207.14   14.26
   6 -28  -2  196.28   14.15
   6  28   4  190.11   14.98
  -6  28   4  215.76   16.51
   6  28  -4  215.56   15.52
  -6  28  -4  189.84   15.20
   6  28   4  218.66   16.52
   6  28   4  226.87   16.45
   6  28  -4  245.74   16.36
   6 -28  -4  213.87   15.90
   6  28   6   88.01   12.30
  -6  28   6  109.10   13.53
   6  28  -6  104.50   12.51
  -6  28  -6   95.11   12.40
   6  28   6   96.77   12.71
   6  28   6  102.71   12.51
   6  28  -6   97.50   12.20
   6 -28  -6   83.44   11.96
   6  28   8   29.89    7.07
  -6  28   8   33.19    6.94
   6  28  -8   37.57    7.21
  -6  28  -8   29.38    6.98
   6  28   8   38.29    7.53
   6  28  -8   35.52    6.66
   6 -28  -8   36.99    7.39
   6  28 -10  104.16   10.67
  -6  28 -10   87.15   10.24
   6  28  10   86.66   10.54
   6  28 -10  102.80   10.74
   6 -28 -10  104.57   10.99
   6  28 -12  383.99   19.71
  -6  28 -12  359.93   20.28
   6  28  12  381.22   20.99
   6  28 -12  415.83   20.27
   6 -28 -12  407.84   21.33
   6  28 -14  513.10   21.85
  -6  28 -14  466.87   22.62
   6 -28 -14  523.78   23.50
   6  28  14  463.83   23.09
   6  28 -14  519.76   22.50
   6  28 -16  288.32   15.74
  -6  28 -16  286.09   17.62
   6  28  16  280.00   17.88
   6  28 -16  293.12   16.81
   6 -28 -16  328.35   17.99
  -6  28 -18   92.25    9.51
   6  28 -18  112.81    9.78
   6 -28 -18  111.45   10.25
   6  28  18  105.46   10.32
   6 -28 -18  123.48   10.28
  -6  28 -20   12.76    4.28
   6 -28 -20   17.67    4.39
   6  28  20   10.66    3.17
   6  28 -20   21.69    4.40
   6 -28 -20   18.31    4.18
   6 -28 -22   32.39    5.32
  -6  28 -22   28.73    5.64
   6  28 -22   31.01    5.16
   6 -28 -22   25.87    4.86
  -6  28 -24   94.36    8.27
   6  28 -24   98.11    7.42
   6 -28 -24   94.43    7.87
   6 -28 -24   98.52    7.71
  -6  28 -26  150.72   10.08
   6 -28 -26  143.64    9.48
   6  28 -26  137.47    8.89
   6 -28 -26  151.51    9.28
   6  30   0  129.87   13.68
  -6  30   0  126.05   13.60
   6  30   0  152.93   15.48
   6  30   0  142.12   13.92
   6 -30   0  123.09   13.26
   6  30   2  179.87   15.47
   6  30  -2  166.81   14.76
  -6  30   2  158.83   14.68
  -6  30  -2  162.83   14.55
   6  30   2  190.01   16.24
   6  30  -2  195.31   16.39
   6  30   2  171.77   14.47
   6  30  -2  198.91   15.36
   6 -30  -2  160.87   14.48
   6 -30   2  142.09   13.40
   6  30  -4   68.99    8.92
   6  30   4   52.80    8.04
  -6  30   4   62.89    8.30
  -6  30  -4   57.89    8.02
   6  30   4   73.65    9.31
   6  30   4   65.49    8.52
   6 -30  -4   55.19    7.45
   6  30  -4   63.86    7.95
   6  30   6   11.41    4.84
  -6  30   6   21.84    5.87
   6  30  -6   14.97    5.19
  -6  30  -6    7.29    3.66
   6  30   6   16.12    4.88
   6  30   6   11.92    4.84
   6  30  -6   10.79    4.29
   6 -30  -6   11.79    4.72
  -6  30   8    0.16    3.66
   6  30  -8    0.19    3.53
  -6  30  -8    0.21    3.88
   6  30   8    0.17    3.77
   6  30  -8    0.66    3.36
   6 -30  -8    0.93    3.05
   6  30 -10   57.23    8.00
  -6  30 -10   62.80    8.77
   6  30  10   59.57    9.02
   6  30 -10   70.79    9.01
   6 -30 -10   57.36    8.74
   6  30 -12  146.27   11.62
  -6  30 -12  133.55   11.84
   6  30  12  136.21   12.48
   6  30 -12  170.86   12.69
   6 -30 -12  130.66   11.81
   6  30 -14  260.83   14.59
  -6  30 -14  230.54   15.40
   6  30 -14  273.11   15.46
   6  30  14  262.22   16.25
   6 -30 -14  264.73   16.00
   6  30 -16  176.65   11.30
  -6  30 -16  187.52   13.69
   6  30  16  204.38   14.11
   6  30 -16  216.12   13.26
   6 -30 -16  218.73   14.13
   6 -30 -16  193.28   13.14
   6  30 -18   25.07    4.46
  -6  30 -18   22.93    4.65
   6  30  18   30.61    5.03
   6 -30 -18   16.87    3.66
   6 -30 -18   26.75    4.80
   6  30  20    0.14    2.78
   6  30 -20    0.09    2.79
   6 -30 -20    3.59    2.35
  -6  30 -20    3.28    2.89
   6 -30 -20    3.96    2.41
  -6  30 -22    7.19    3.19
   6  30 -22    9.11    3.42
   6 -30 -22    8.25    3.34
   6 -30 -22   10.96    3.58
   6  32   0   18.60    6.53
  -6  32   0   18.80    5.94
   6  32   0   26.40    7.53
   6  32   0   18.39    6.07
   6  32   2   21.17    5.10
   6  32  -2   21.58    5.25
  -6  32   2   20.95    4.97
  -6  32  -2   17.28    4.33
   6  32  -2   11.60    4.51
   6  32   2   13.86    4.47
   6  32   2   18.93    4.98
   6  32  -2   24.67    5.13
   6 -32  -2   25.84    5.25
   6  32   4    9.43    4.17
   6  32   4    9.70    5.11
  -6  32   4    8.67    4.45
   6  32  -4    6.83    4.66
  -6  32  -4   19.67    5.91
   6  32   4   14.45    5.31
   6  32  -4   12.56    5.25
   6  32  -4    5.71    4.02
   6 -32  -4    9.25    4.25
  -6  32   6  100.56   11.19
   6  32  -6   99.28   10.99
  -6  32  -6   86.09   10.33
   6  32   6  101.64   11.48
   6  32  -6  119.27   12.28
   6  32  -6  101.29   10.49
   6 -32  -6   92.03   10.52
   6  32   6   92.50   10.70
  -6  32   8   10.07    4.11
   6  32  -8    8.45    3.06
  -6  32  -8   12.93    4.12
   6  32  -8   16.12    4.49
   6  32  -8   10.36    3.70
   6  32   8   13.83    4.20
   6 -32  -8    3.72    3.18
   6  32 -10    1.48    2.52
  -6  32 -10    4.69    3.38
   6  32  10    1.86    3.06
   6  32 -10    2.20    2.98
   6  32 -10    0.25    3.13
   6 -32 -10    4.25    2.67
   6  32 -12    8.49    2.93
  -6  32 -12   13.81    4.02
   6  32 -12   12.80    3.67
   6  32 -12   10.10    3.42
   6  32  12    9.81    4.09
   6 -32 -12    3.60    2.85
   6  32 -14   45.52    5.46
  -6  32 -14   44.95    6.33
   6  32  14   46.40    6.41
   6  32 -14   36.46    4.82
   6  32 -14   54.55    6.52
   6 -32 -14   46.81    6.20
   6 -32 -14   50.91    6.28
   6  32 -16   11.25    2.84
  -6  32 -16    9.04    2.66
   6 -32 -16   13.20    3.56
   6  32  16   13.23    3.65
   6  32 -16    7.34    2.77
   6 -32 -16   11.33    3.13
  -6  32 -18    0.13    2.52
   6  32  18    1.35    2.37
   6  32 -18    1.37    2.44
   6 -32 -18    0.56    2.44
   6 -32 -18    0.56    2.25
  -6  32 -20   15.57    3.17
   6  32 -20   24.23    3.79
   6 -32 -20   25.67    3.83
   6 -32 -20   25.81    3.83
   6  34   0    2.58    2.94
  -6  34   0    0.31    3.38
   6  34   0    0.26    3.72
   6  34   0    0.26    3.43
   6  34   2   12.68    4.14
   6  34  -2   14.75    4.29
  -6  34   2   11.95    3.94
  -6  34  -2   13.38    3.73
   6  34   2   17.11    4.85
   6  34  -2   19.15    5.07
   6  34  -2    8.79    3.69
  -6  34   4  135.04   10.76
   6  34  -4  147.63   11.08
  -6  34  -4  132.92   10.87
   6  34   4  175.91   12.57
   6  34  -4  189.46   12.73
   6  34  -4  143.42   10.51
  -6  34   6  185.80   12.04
   6  34  -6  213.64   12.73
  -6  34  -6  171.55   11.57
   6  34   6  201.52   13.20
   6  34  -6  211.15   12.90
   6  34  -6  195.22   11.99
   6  34  -8  114.62    9.53
  -6  34  -8   84.39    9.01
   6  34   8  125.83   11.02
   6  34  -8  124.32   10.24
   6  34  -8  108.12    9.37
   6  34 -10   16.60    3.98
  -6  34 -10   14.98    4.42
   6  34 -10   22.50    4.45
   6  34  10   24.86    5.49
   6  34 -10   24.95    5.08
   6 -34 -10   15.95    3.92
   6  34 -12    8.33    2.75
  -6  34 -12    3.93    2.62
   6  34  12    8.79    3.12
   6  34 -12    7.43    2.30
   6  34 -12   10.63    3.34
   6 -34 -12    5.35    2.22
   6 -34 -12    9.60    3.18
   6  34 -14    0.50    1.88
  -6  34 -14    2.16    2.23
   6  34  14    0.49    2.55
   6  34 -14    7.88    2.07
   6  34 -14    0.50    2.08
   6 -34 -14    0.42    1.96
   6 -34 -14    4.85    2.37
  -6  34 -16    9.01    2.98
   6  34  16    9.27    2.54
   6  34 -16   10.94    2.80
   6 -34 -16    8.21    2.26
   6 -34 -16    3.77    2.00
  -6  36   0    1.35    2.70
   6  36   0    1.14    2.39
   6  36   0    1.14    3.21
  -6  36   2   41.84    5.94
  -6  36  -2   33.21    5.23
   6  36  -2   52.21    6.59
   6  36   2   48.81    6.48
   6  36  -2   45.65    6.07
   6  36  -4  175.22   10.67
  -6  36  -4  159.12   10.29
   6  36  -4  215.75   12.10
  -6  36   4  110.83    8.22
   6  36   4  210.43   12.34
   6  36  -4  172.63   10.07
  -6  36   4  141.16    9.49
   6  36  -6  160.57   10.37
   6  36  -6  181.93   11.25
   6  36  -6  162.72   10.28
   6  36   6  180.55   11.92
   6  36  -8  188.90   10.05
  -6  36  -8  172.27   10.45
   6  36  -8  200.18   10.55
   6  36  -8  192.03   10.16
   6  36   8  215.63   12.03
   6 -36  -8  156.32    9.24
   6  36 -10   22.29    3.24
  -6  36 -10   11.15    2.77
   6  36 -10   22.26    3.29
   6  36 -10   20.87    3.44
   6 -36 -10   20.72    3.21
   7   1   1  357.08   15.52
   7   1  -1  392.66   16.90
   7  -1   1  343.05   14.68
   7  -1  -1  363.49   16.08
   7  -1  -1  331.45   12.30
   7   1   1  355.14   14.95
   7   1  -1  334.98   13.27
   7  -1  -3  140.70    4.87
   7   1  -3  145.04    7.98
   7  -1   3  163.59    7.77
   7   1  -3  182.29   10.07
   7  -1  -3  189.44   10.15
   7   1   3  163.09    8.22
   7   1  -3  157.75    6.03
   7   1  -5  677.46   17.27
   7   1   5  663.27   14.18
   7   1  -5  710.81   19.71
   7  -1  -5  700.66   19.60
   7  -1   5  631.29   12.92
   7   1  -7 1319.88   33.58
   7  -1  -7 1314.31   33.31
   7   1  -7 1485.31   36.12
  -7  -1  -7 1496.70   39.55
   7  -1  -7 1488.40   36.14
   7   1  -9 1616.77   38.86
   7  -1  -9 1513.65   37.99
   7   1  -9 1676.62   39.08
  -7   1  -9 1770.44   44.12
   7  -1  -9 1645.96   38.35
  -7  -1  -9 1707.34   43.84
   7   1 -11  566.19   25.26
   7  -1 -11  550.14   25.01
   7   1 -11  601.57   25.08
  -7   1 -11  621.20   28.60
  -7  -1 -11  631.58   28.84
   7  -1 -11  563.31   24.30
   7   1 -13  229.02   18.38
   7  -1 -13  226.58   18.44
   7   1 -13  237.18   17.59
  -7   1 -13  250.62   19.82
  -7  -1 -13  245.33   19.33
   7  -1 -13  240.52   17.41
  -7   1 -15    6.69    6.72
  -7  -1 -15   12.43    7.39
   7   1 -15    8.47    6.15
   7  -1 -15    9.23    6.30
   7   1 -15    9.26    7.21
   7  -1 -15   10.22    7.02
   7   1 -17  213.36   19.75
   7  -1 -17  217.87   20.11
   7   1 -17  224.63   19.45
   7  -1 -17  218.16   18.98
  -7   1 -17  182.10   18.41
  -7  -1 -17  185.54   19.12
   7   1 -19 1044.65   46.01
   7   1 -19 1124.51   45.30
   7  -1 -19 1094.79   44.61
  -7   1 -19  964.57   44.72
  -7  -1 -19  968.82   43.99
   7   1 -21  608.20   20.57
   7   1 -21  584.71   35.30
   7  -1 -21  608.41   33.32
  -7   1 -21  536.23   32.34
  -7  -1 -21  532.03   31.94
   7   1 -21  645.21   34.48
  -7   1 -21  443.67   21.11
  -7  -1 -21  480.85   21.66
   7   1 -23  276.46   27.54
   7  -1 -23  295.51   26.07
  -7  -1 -23  257.44   24.86
   7   1 -23  297.85   25.27
  -7   1 -23  262.92   25.11
  -7   1 -23  249.11   17.66
  -7  -1 -23  234.89   17.28
   7   1  23  299.91   29.15
   7  -1 -23  238.06   14.49
   7   1 -23  311.13   16.16
   7  -1 -25   32.74    6.90
   7   1 -25   24.20    6.43
   7   1  25   36.15   13.25
  -7  -1 -25   24.88   10.94
  -7   1 -25   35.10   11.32
   7  -1 -25   27.06   10.68
   7  -1  25   33.62   13.01
   7  -1 -25   30.55    7.02
  -7  -1 -25   30.15    8.27
   7   1 -25   24.87    6.32
  -7   1 -27  100.22   16.36
  -7  -1 -27  113.94   16.87
  -7  -1 -27  110.35   12.37
   7  -1  27  112.24   17.95
   7   1 -27  140.84   11.35
   7  -1 -27  147.88   11.87
   7   1  27   93.86   16.69
   7   1 -27  167.06   11.94
   7  -1 -27  162.27   11.88
   7  -1 -29   64.00    7.21
   7   1 -29   57.93    6.97
   7  -1 -29   56.32    6.66
   7   1 -29   69.05    7.32
   7   1 -31   85.13   10.55
   7  -1 -31   87.53   11.08
   7   1 -31   81.80    9.96
   7  -1 -31   90.79   10.49
   7   1 -33  153.31   12.89
   7  -1 -33  175.35   13.88
   7   1 -33  199.88   13.79
   7  -1 -33  190.97   13.54
   7   1 -35  226.83   12.69
   7  -1 -35  222.89   12.71
   7   1 -37  144.71    9.72
   7  -1 -37  149.75    9.89
   7   3   1    0.51    4.63
   7   3  -1    0.09    4.29
   7   3   1    0.34    4.50
   7   3  -1    0.86    3.83
   7  -3  -1    0.07    4.03
   7   3  -1    0.06    2.78
   7  -3   1    0.84    4.54
   7   3  -3  149.13    7.51
   7   3   3  173.82    8.31
   7   3  -3  191.18   10.06
   7  -3   3  149.22    7.35
   7   3  -3  159.58    6.73
   7  -3  -3  198.76   10.37
   7   3   3  179.96    9.59
  -7   3  -5   35.88    3.05
   7  -3   5   34.74    2.04
   7  -3  -5   36.00    4.91
   7   3  -5   37.10    2.68
   7   3  -5   37.64    3.74
   7   3   5   41.73    4.29
   7   3  -5   38.91    4.88
   7   3  -7  723.74   24.38
   7  -3  -7  615.76   23.09
  -7  -3  -7  670.53   24.72
  -7   3  -7  628.73   16.63
   7   3   7  537.85   21.84
   7   3  -7  647.49   22.54
   7   3  -9  294.28   17.77
   7   3  -9  290.97   17.70
   7  -3  -9  277.34   17.73
  -7   3  -9  305.71   19.71
  -7  -3  -9  314.58   19.69
  -7   3  -9  254.04   12.02
   7   3   9  262.99   17.37
   7   3 -11  337.40   20.61
   7   3 -11  360.56   20.91
  -7   3 -11  342.68   22.82
  -7  -3 -11  349.13   22.24
   7  -3 -11  304.30   19.82
   7   3 -13  238.81   17.95
  -7  -3  13  238.68   13.78
   7   3 -13  229.16   16.97
  -7   3 -13  238.11   18.63
  -7  -3 -13  257.17   19.10
   7  -3 -13  252.23   17.47
   7  -3 -15    0.12    3.32
  -7   3 -15    1.40    5.24
  -7  -3 -15    2.97    6.04
   7   3 -15    0.76    4.59
   7   3 -15    1.14    4.72
   7   3  15    0.06    3.88
  -7   3 -17   65.68    8.75
   7  -3 -17   77.84    9.25
   7   3 -17   71.11    8.95
  -7  -3 -17   77.00    9.73
   7   3 -17   80.95    9.57
   7   3  17   63.34    8.71
   7   3 -19  185.66   17.40
   7   3 -19  175.36   16.00
  -7   3 -19  149.77   16.10
  -7  -3 -19  134.43   14.86
   7  -3 -19  177.69   16.06
   7   3  19  151.80   16.82
   7   3 -21  362.02   28.43
   7   3 -21  376.12   27.47
   7  -3 -21  380.71   27.81
  -7   3 -21  346.22   28.09
  -7  -3 -21  313.14   27.21
  -7  -3 -21  262.90   16.97
   7   3  21  317.74   28.60
   7   3 -21  389.54   17.39
   7   3 -23   33.64   11.10
   7  -3 -23   17.22    8.35
  -7   3 -23   22.05   10.00
  -7  -3 -23   21.01    9.16
   7  -3 -23   19.56    5.65
   7   3 -23   26.91   10.85
   7  -3 -23   34.11    6.88
   7   3  23   21.76   10.41
  -7  -3 -23   26.43    7.21
   7   3 -23   30.50    6.47
   7   3 -25   61.46   17.56
   7  -3 -25   36.17   14.11
  -7  -3 -25   37.62   13.97
  -7   3 -25   35.02   14.00
   7  -3 -25   38.46    8.70
  -7  -3 -25   45.30   10.53
   7  -3 -25   48.06    9.46
   7   3  25   39.48   15.00
   7   3 -25   51.32    9.12
   7   3  27   17.10    8.02
   7   3 -27   33.61    6.45
   7  -3 -27   23.14    5.72
  -7  -3 -27   32.13    7.45
   7  -3 -27   31.93    6.59
   7   3 -29   28.22    4.73
   7  -3 -29   22.64    4.16
  -7  -3 -29   31.38    6.38
   7  -3 -29   27.46    5.06
   7   3 -31   19.20    5.63
   7  -3 -31   21.55    5.70
   7  -3 -31   17.87    5.40
   7   3 -33   48.47    6.75
   7  -3 -33   45.63    6.49
   7  -3 -33   44.66    6.96
   7  -3 -35   83.36    8.50
   7   3 -35   94.71    8.80
   7  -3 -35  101.16    8.70
   7   3 -37   61.36    6.45
   7  -3 -37   57.14    6.13
   7   5  -1   46.61    4.43
   7   5   1   41.65    4.05
   7  -5  -1   43.41    5.07
   7  -5   1   32.62    4.35
   7  -5  -1   34.37    5.43
   7   5  -1   49.43    3.57
   7  -5   1   34.13    4.35
   7   5   1   37.78    2.34
   7   5  -1   49.79    4.22
   7   5   1   45.88    4.74
   7   5   3  108.03    7.65
   7  -5   3  102.67    8.21
   7  -5   3   77.51    7.32
   7  -5  -3  117.61    8.81
   7   5  -3  111.40    8.02
   7   5  -3   98.08    6.29
   7   5  -3  104.56    6.90
   7   5   3  110.22    8.20
   7   5   5   55.19    5.66
  -7   5  -5   61.08    4.59
  -7  -5  -5   67.51    6.17
   7   5  -5   50.54    4.12
   7  -5   5   24.53    3.59
   7  -5  -5   64.44    6.01
   7   5  -5   73.67    6.09
   7   5  -5   68.14    6.41
   7  -5   5   47.78    5.38
   7  -5   7    2.55    5.78
   7  -5   7    2.13    2.74
   7  -5  -7   13.34    5.95
   7   5  -7   16.23    5.93
  -7  -5  -7   13.47    6.67
  -7   5  -7   19.57    5.76
   7   5  -7   13.91    5.84
   7   5   7   13.39    6.52
   7   5  -9  143.36   11.81
   7  -5  -9  114.75   11.47
  -7   5  -9  120.28   11.96
   7  -5   9   96.76   10.40
  -7   5  -9  132.25    9.45
   7   5   9  123.61   11.38
   7   5  -9  130.11   11.73
  -7  -5  -9  134.43   12.04
   7   5 -11  407.40   17.92
   7  -5 -11  420.30   18.86
  -7   5 -11  392.05   20.11
  -7  -5  11  393.88   15.79
  -7  -5 -11  385.47   18.53
  -7   5 -11  369.39   14.61
   7   5  11  356.62   17.67
   7   5 -11  389.57   18.64
   7   5 -13  416.33   22.08
   7  -5 -13  393.92   21.54
  -7   5 -13  386.46   23.33
  -7  -5  13  382.53   17.87
  -7  -5 -13  387.59   22.25
   7   5  13  337.14   20.70
   7   5 -13  391.73   22.34
   7   5 -15  153.66   17.69
  -7   5 -15  141.57   17.08
  -7  -5 -15  142.78   17.20
   7  -5 -15  155.14   16.81
   7   5 -15  152.16   16.71
   7   5  15  124.71   16.43
  -7  -5 -17   10.33    7.08
   7   5 -17    8.35    5.48
  -7   5 -17   14.51    7.83
   7  -5 -17    8.55    5.67
   7   5 -17    6.19    5.66
   7   5  17    6.90    5.07
   7   5 -19    4.13    5.16
  -7   5 -19    1.23    4.98
   7  -5 -19    0.67    4.34
   7   5 -19    5.35    6.29
  -7  -5 -19    0.07    4.33
   7   5  19    1.77    3.83
   7   5 -21   11.00    2.76
  -7  -5 -21    0.78    4.62
   7  -5 -21   10.18    2.74
   7   5 -21   11.27    4.52
   7  -5 -21    5.20    4.63
   7   5 -21    1.45    4.82
  -7   5 -21   11.82    6.57
   7   5  21   10.86    3.38
  -7  -5 -21    6.56    2.22
   7   5  21    6.88    5.87
   7  -5 -21   13.09    3.40
   7   5  23    0.57    4.86
   7   5 -23   11.45    4.21
   7  -5 -23    9.62    6.76
  -7  -5 -23   12.45    9.00
   7   5  23    6.19    4.35
   7   5 -23   14.34    8.47
  -7   5 -23    0.93    5.86
   7  -5 -23   14.42    5.32
   7   5 -23    8.60    7.31
  -7  -5 -23    7.17    4.59
   7  -5 -23   12.41    5.02
   7   5  25   57.98   12.84
  -7   5 -25   40.91   10.08
  -7  -5 -25   41.71   10.52
   7  -5 -25   51.48   10.85
   7  -5 -25   47.77    6.80
   7   5 -25   39.25   10.64
   7  -5 -25   56.67    7.37
  -7  -5 -25   43.86    7.12
   7   5 -25   57.50    6.83
   7  -5 -27   51.62    8.92
  -7  -5 -27   55.16   10.18
   7  -5 -27   57.46    9.10
   7   5 -27   59.25    8.67
  -7  -5 -29   88.44   12.05
   7   5 -29   89.24    9.76
   7  -5 -29   91.94   10.55
   7   5 -31    2.82    2.86
   7  -5 -31    2.42    3.04
   7  -5 -31    1.58    3.07
   7   5 -33    0.27    3.66
   7  -5 -33    0.72    2.86
   7  -5 -33    3.15    3.52
   7  -5 -35    4.96    2.71
   7  -5 -35    4.72    2.48
   7   5 -35   11.87    3.84
   7  -5 -37    3.09    2.08
   7  -5 -37    2.02    2.08
   7   5 -37    7.82    2.63
   7   7   1  240.03   15.33
   7   7  -1  218.08   14.88
   7   7   1  215.83   15.29
   7  -7  -1  184.33   14.72
   7   7  -1  176.17   13.22
   7  -7   1  222.36   15.34
   7   7   1  191.91   10.28
   7   7  -1  195.09   12.17
   7   7   3  224.15   14.38
   7   7  -3  212.91   13.57
   7  -7   3  199.55   14.41
   7  -7  -3  196.61   11.95
   7   7  -3  193.16   11.78
   7   7  -3  210.99   12.39
   7   7   3  153.46    6.26
  -7   7  -5   20.04    4.07
   7   7   5   24.78    5.52
   7  -7   5   22.70    5.57
   7   7  -5   17.51    4.92
  -7  -7  -5   16.87    4.32
   7   7  -5   21.39    4.20
   7   7  -5   11.15    3.34
   7  -7  -5   15.21    3.72
  -7   7  -7    7.85    4.67
   7  -7   7    6.89    6.21
   7   7  -7   12.83    5.57
  -7  -7  -7    7.26    4.97
   7   7   7   10.34    6.09
   7   7  -7   15.12    5.99
   7  -7   7    0.42    2.63
   7   7  -9  292.86   19.09
  -7  -7   9  312.44   18.77
   7  -7   9  257.49   19.19
   7  -7  -9  314.62   21.26
  -7  -7  -9  286.49   19.02
  -7   7  -9  268.72   19.54
  -7   7  -9  256.71   16.53
   7   7  -9  293.67   20.01
   7   7   9  255.41   18.45
   7   7 -11  711.91   28.61
   7  -7 -11  713.57   30.34
  -7  -7  11  709.07   26.08
  -7   7 -11  679.82   30.42
  -7  -7 -11  656.82   28.45
   7  -7  11  590.14   27.88
  -7   7 -11  620.69   24.52
   7   7 -11  691.80   29.18
   7   7  11  616.92   27.93
   7   7 -13  619.84   28.87
  -7  -7  13  626.15   25.36
   7  -7 -13  698.96   31.82
  -7   7 -13  649.05   32.00
  -7  -7 -13  608.10   29.42
   7  -7  13  586.29   28.17
  -7   7 -13  559.30   25.07
   7   7  13  494.66   27.77
   7   7 -13  658.83   31.27
   7   7 -15  366.69   23.80
   7  -7 -15  370.05   25.48
  -7   7 -15  317.05   24.07
  -7  -7 -15  337.66   23.71
   7   7  15  306.88   23.17
   7   7 -15  354.99   24.72
   7   7 -17  214.34   17.28
  -7   7 -17  219.31   18.69
   7  -7 -17  246.69   18.82
  -7  -7 -17  189.42   16.41
   7   7  17  171.86   16.28
   7   7 -17  220.13   18.13
   7   7  19   35.56    8.96
   7   7 -19   37.65    9.07
  -7   7 -19   35.60   10.61
  -7  -7 -19   33.26    9.02
   7  -7 -19   50.70   10.84
   7   7 -19   47.17   10.45
   7   7 -21    3.31    2.75
   7   7  21    0.80    5.42
  -7  -7 -21    5.46    5.11
   7   7  21    4.49    3.41
  -7   7 -21    6.48    5.62
   7   7 -21    0.13    4.60
   7   7 -21   14.13    7.11
   7  -7 -21    5.35    2.75
   7  -7 -21    0.49    4.50
  -7  -7 -21    0.80    3.27
   7  -7 -21    3.79    2.95
   7   7  23   44.29   10.98
  -7  -7 -23   39.38   11.30
   7  -7 -23   37.84   10.15
   7   7  23   25.40    6.24
  -7   7 -23   36.45    9.64
   7   7 -23   33.98    9.79
   7  -7 -23   44.75    6.62
   7   7 -23   33.04    8.94
   7  -7 -23   48.05    7.24
   7   7 -23   40.49    6.26
  -7  -7 -23   43.02    7.35
  -7   7 -25   91.61   16.76
  -7  -7 -25   82.69   16.49
   7  -7 -25   71.93   14.62
   7   7 -25   71.96   15.32
   7  -7 -25   94.70   10.34
  -7  -7 -25  106.15   12.22
   7  -7 -25   97.33   10.64
   7   7 -25  102.06    9.93
   7   7  25   95.65   18.72
   7   7 -27  177.52   12.49
   7  -7 -27  180.27   13.56
  -7  -7 -27  155.79   14.43
   7  -7 -27  189.25   13.96
   7  -7 -29  160.17   12.51
  -7  -7 -29  184.13   15.70
   7  -7 -29  193.37   13.88
   7   7 -29  201.57   13.17
  -7  -7 -31   62.97    8.87
   7  -7 -31   53.08    7.51
   7   7 -31   58.98    7.20
   7  -7 -31   62.52    8.06
   7  -7 -33    0.05    2.99
   7  -7 -33    7.47    3.55
   7   7 -33    6.97    3.12
   7  -7 -35    0.90    2.50
   7  -7 -35    3.25    2.73
   7   7 -35    0.14    2.51
   7  -7 -37   27.02    4.01
   7   7  37   17.98    4.62
   7  -7 -37   20.13    3.28
   7   7 -37   18.35    3.20
   7   9   1  803.00   30.22
   7  -9   1  910.84   31.13
   7   9  -1  735.76   28.28
   7   9   1  783.65   23.33
   7   9  -1  748.16   25.01
   7  -9  -1  903.32   30.17
   7   9  -3   50.35    5.70
  -7  -9  -3   48.52    4.27
   7   9   3   42.74    4.80
   7  -9  -3   56.99    5.73
   7   9  -3   42.87    4.80
   7   9  -3   46.26    5.08
   7  -9   3   63.12    6.65
   7   9   3   56.89    3.95
   7   9   5   59.79   12.07
   7   9  -5   59.42   11.91
   7  -9  -5   65.56   10.70
   7  -9   5   47.83   12.86
  -7  -9   5   49.09   11.41
  -7  -9  -5   69.03   10.35
  -7   9  -5   56.38   10.96
   7   9  -5   55.66   10.34
   7   9  -5   67.90   11.90
   7  -9   7   16.97    8.51
   7  -9  -7   10.13    4.84
   7   9   7   20.74    7.83
  -7  -9  -7   16.63    5.96
   7   9  -7    9.67    5.83
   7   9  -7   12.66    5.80
  -7   9  -7   13.96    6.39
  -7  -9   7   13.32    5.14
   7   9   9  445.49   23.27
   7   9  -9  554.48   24.05
  -7  -9   9  550.25   22.56
  -7  -9  -9  489.85   21.73
  -7   9  -9  502.42   24.19
   7  -9   9  484.55   25.71
  -7   9  -9  436.28   20.18
   7   9  -9  532.60   24.07
   7   9  11  593.13   32.30
   7   9 -11  745.43   33.36
   7  -9 -11  894.95   39.03
  -7  -9  11  717.43   30.21
  -7   9 -11  729.29   35.19
  -7  -9 -11  673.77   30.72
  -7   9 -11  614.06   28.81
   7  -9  11  752.44   34.21
   7   9 -11  728.62   34.61
   7   9 -13  623.38   28.49
  -7  -9  13  576.33   24.22
   7  -9  13  624.14   28.74
   7  -9 -13  654.63   31.96
  -7  -9 -13  551.21   26.26
  -7   9 -13  573.30   29.20
  -7   9 -13  520.10   24.25
   7   9 -13  576.36   28.43
   7   9  13  502.80   26.90
   7   9 -15  846.43   38.50
   7  -9  15  661.77   34.13
   7  -9 -15  886.63   41.36
  -7   9 -15  732.57   38.43
  -7  -9 -15  659.40   33.51
  -7   9 -15  634.22   31.39
   7   9 -15  797.92   38.32
   7   9  15  625.78   36.08
   7   9 -17  321.08   26.07
   7  -9 -17  375.45   29.22
  -7   9 -17  301.20   26.70
  -7  -9 -17  289.86   24.79
   7   9 -17  335.68   27.30
   7   9  17  287.29   26.95
   7   9  19   80.39   12.77
   7   9 -19   79.87   12.10
  -7  -9 -19   82.86   12.06
   7  -9 -19  113.25   14.37
  -7   9 -19   86.50   13.33
   7  -9 -19  101.25    8.28
   7   9 -19   95.66    7.90
   7  -9 -19   98.31    8.28
   7   9 -19   91.43   12.61
   7   9  21   58.31   11.17
   7  -9 -21   69.23   11.61
   7   9 -21   61.23   10.70
   7   9  21   56.12    6.90
  -7   9 -21   58.00   10.45
  -7  -9 -21   56.36    9.57
   7  -9 -21   61.90    6.64
   7   9 -21   50.32    8.92
   7  -9 -21   65.65    6.62
   7   9 -21   73.50    7.09
  -7  -9 -21   40.77    5.39
   7   9 -23   32.20    5.35
   7   9  23   23.88    5.42
   7   9  23   27.91    9.75
   7   9 -23   18.54    7.27
  -7  -9 -23   13.32    4.91
  -7   9 -23   20.14    6.39
   7   9 -23   26.71    9.18
   7  -9 -23   33.85    5.61
   7  -9 -23   29.37    8.90
  -7  -9 -23   26.63    5.80
   7  -9 -23   35.26    6.11
   7   9 -25  134.92   17.63
   7   9  25  151.61   20.51
   7  -9 -25   96.77   15.85
  -7   9 -25  132.03   16.90
   7  -9 -25  149.25   11.14
  -7  -9 -25  173.61   13.39
   7   9 -25  157.54   10.76
   7  -9 -25  174.44   11.97
   7  -9 -27  278.85   17.51
  -7  -9 -27  281.16   19.69
   7   9 -27  277.58   16.64
   7  -9 -27  318.64   18.28
   7  -9 -29  196.99   13.81
  -7  -9 -29  190.28   15.49
   7   9 -29  207.66   13.38
   7  -9 -29  215.35   14.00
   7   9 -31  117.59   10.23
  -7  -9 -31  116.75   12.11
   7  -9 -31  106.16   10.17
   7  -9 -33    0.19    3.23
   7  -9 -33    2.04    2.40
   7   9 -33    3.26    2.46
   7  -9 -35    1.99    2.98
   7  -9 -35    1.19    2.16
   7   9 -35    1.72    2.29
   7   9  37   43.35    6.48
   7   9 -37   41.55    4.91
   7  -9 -37   39.49    5.17
   7  -9 -37   39.15    4.65
   7  11  -1 1077.35   35.99
  -7 -11  -1  989.64   23.68
   7 -11   1 1124.77   37.97
   7 -11  -1 1244.05   36.85
  -7 -11   1 1169.45   35.49
   7  11   1 1079.48   29.19
   7  11   1 1124.74   37.41
   7  11  -1 1064.97   30.51
   7  11  -3   61.70    7.92
   7 -11  -3   73.06    8.95
  -7 -11   3   78.91    9.11
   7 -11   3   71.87    9.73
  -7 -11  -3   69.06    5.91
   7  11  -3   69.36    7.60
   7  11   3   60.30    5.58
   7  11   3   70.36    9.10
  -7  11  -5    3.49    4.09
   7  11  -5    6.21    3.54
   7 -11  -5    3.83    4.94
  -7 -11   5    7.73    3.98
   7 -11   5    2.98    5.16
  -7 -11  -5    2.41    3.50
   7  11  -5    0.94    5.95
   7  11   5    2.89    5.31
   7  11  -7  122.36   14.37
   7  11   7   99.39   13.77
  -7 -11   7  127.02   14.03
   7 -11   7  121.06   14.95
  -7  11  -7   86.78   12.11
  -7  11  -7   96.64   12.78
   7 -11  -7  119.99   12.40
  -7 -11  -7  116.32   11.32
   7  11  -7  111.31   13.23
   7  11   9  205.29   17.12
   7  11  -9  288.88   19.06
  -7 -11   9  243.44   16.76
   7 -11   9  257.09   18.67
   7 -11  -9  222.22   13.77
  -7  11  -9  224.63   17.36
  -7 -11  -9  228.95   14.83
  -7  11  -9  197.99   15.21
   7  11  -9  235.00   17.41
   7  11  11  406.29   26.28
   7  11 -11  412.86   25.45
  -7 -11  11  406.58   23.02
   7 -11  11  392.73   26.41
  -7  11 -11  417.48   26.34
  -7 -11 -11  393.42   22.03
  -7 -11 -11  344.32   22.64
  -7  11 -11  363.71   22.83
   7  11 -11  418.49   26.01
   7  11  13  549.37   29.60
   7  11 -13  697.15   31.68
  -7 -11 -13  516.34   26.50
   7 -11 -13  782.05   36.98
  -7 -11 -13  579.52   26.52
  -7 -11  13  638.93   27.36
   7 -11  13  582.22   30.13
  -7  11 -13  547.16   27.16
  -7  11 -13  620.55   31.14
   7  11 -13  694.44   32.14
   7  11  15  520.29   33.07
   7  11 -15  611.65   34.72
  -7  11 -15  561.99   33.64
  -7 -11  15  579.65   28.58
   7 -11 -15  724.55   39.18
  -7 -11 -15  517.76   29.19
   7 -11  15  593.48   33.17
  -7 -11 -15  447.85   26.87
  -7  11 -15  457.71   27.76
   7  11 -15  570.81   33.35
   7  11  17  308.07   27.17
   7  11 -17  323.65   27.06
   7 -11 -17  380.12   29.28
  -7  11 -17  310.29   26.99
  -7 -11 -17  280.91   22.98
   7 -11  17  302.48   24.89
   7  11 -17  291.54   15.35
   7  11 -17  327.81   26.42
   7  11  19  104.58   16.69
   7  11 -19  121.75   16.45
   7 -11 -19  139.56   18.29
  -7 -11 -19   99.61   14.42
   7  11  19   98.76    9.90
  -7  11 -19  109.37   15.74
   7 -11 -19  118.95   10.03
   7  11 -19  128.02   10.00
   7 -11 -19  116.23   10.12
   7  11 -19  122.43   16.43
   7  11  21   30.24    6.84
   7  11  21   39.13   12.33
  -7 -11 -21   28.12    9.21
   7 -11 -21   33.13   10.18
   7  11 -21   31.76   10.08
   7 -11 -21   40.81    6.97
  -7  11 -21   30.94   10.56
   7  11 -21   41.42    6.79
   7 -11 -21   48.64    7.32
  -7 -11 -21   24.20    5.75
   7  11  23   13.98    7.62
   7  11  23    1.67    3.44
   7 -11 -23   24.56    4.10
  -7  11 -23    5.80    5.57
   7 -11 -23    3.32    4.56
   7  11 -23    2.14    3.94
  -7 -11 -23   10.60    3.14
   7 -11 -23   13.90    3.23
   7  11 -23   17.33    3.25
   7 -11 -25  107.92   10.15
   7  11 -25  106.32    9.41
  -7 -11 -25   96.17   10.85
   7 -11 -25  107.52   10.31
   7 -11 -27  277.93   16.93
   7  11 -27  285.92   15.96
  -7 -11 -27  246.62   17.94
   7 -11 -27  307.23   17.50
   7 -11 -29  165.67   13.63
   7  11 -29  198.20   13.64
  -7 -11 -29  184.29   16.08
   7 -11 -29  217.97   14.91
   7 -11 -31   29.89    5.46
   7  11 -31   52.93    6.77
  -7 -11 -31   41.87    7.35
   7 -11 -31   45.11    6.54
   7 -11 -33   14.18    3.56
   7 -11 -33   12.26    3.54
   7  11 -33   18.52    3.90
   7  11  35    1.13    3.37
   7 -11 -35    0.52    2.47
   7 -11 -35    0.89    2.71
   7  11 -35    0.34    2.50
   7 -11 -37   18.13    3.12
   7  11  37   12.72    3.59
   7  11 -37   19.62    3.35
   7 -11 -37   16.70    3.34
   7  13  -1  373.18   21.62
  -7 -13  -1  340.96   19.27
   7 -13  -1  336.04   20.80
   7  13   1  342.39   16.65
  -7 -13   1  355.23   19.73
   7 -13   1  372.04   21.14
   7  13  -1  332.72   17.37
   7  13   1  338.54   20.83
  -7 -13  -3  108.07   16.24
  -7 -13   3  108.86   15.57
   7 -13   3  104.61   16.74
   7 -13  -3  110.65   15.50
   7  13   3  101.65   16.83
   7  13  -3   86.90   15.38
  -7  13  -3   96.03   16.98
   7  13   3   87.56   11.91
   7  13  -3   97.56   14.57
  -7 -13  -5  196.61   12.94
   7  13   5  197.76   14.68
   7 -13  -5  222.67   13.33
  -7 -13   5  217.39   13.85
   7 -13   5  169.96   14.01
  -7  13  -5  205.32   14.67
   7  13  -5  190.57   13.32
   7  13  -5  195.92   12.57
  -7  13  -7   16.20    7.15
   7 -13  -7   12.97    5.71
   7  13   7    9.70    6.09
   7 -13   7   14.09    6.31
  -7 -13  -7    8.50    5.55
  -7  13  -7   16.02    5.90
   7  13  -7   15.99    6.71
  -7 -13   7   13.30    5.99
  -7  13  -9   22.20    5.19
   7 -13   9   24.41    7.38
   7 -13  -9   16.65    3.95
  -7  13  -9   35.32    7.14
   7  13  -9   30.80    5.65
  -7 -13  -9   20.90    5.42
   7  13   9   26.31    6.13
  -7 -13   9   33.43    6.64
   7  13  11   78.21   13.74
  -7 -13  11   91.99   12.72
   7 -13  11   89.75   14.90
  -7 -13 -11   89.93   13.41
  -7  13 -11   94.19   13.62
  -7  13 -11   88.38   13.08
   7  13 -11   85.22   13.40
   7  13  13  189.22   17.92
  -7 -13  13  204.76   15.72
  -7 -13 -13  152.55   12.35
  -7 -13 -13  149.57   14.07
   7 -13  13  171.52   17.35
  -7  13 -13  175.25   16.59
  -7  13 -13  161.51   14.89
   7  13 -13  195.05   17.46
   7  13  15  136.23   19.07
  -7 -13  15  165.75   17.29
   7 -13 -15  186.62   22.82
  -7  13 -15  134.59   18.35
  -7 -13 -15  121.00   14.78
   7 -13  15  152.72   18.87
  -7  13 -15  122.26   16.60
   7  13 -15  180.05   20.51
   7  13  17  145.63   19.48
   7 -13 -17  162.96   20.58
  -7  13 -17  150.89   18.34
   7 -13  17  157.75   18.70
   7 -13 -17  154.77   11.70
   7  13  17  114.22   10.74
   7  13 -17  156.43   11.29
  -7 -13 -17  125.64   15.70
   7  13 -17  141.22   17.89
   7 -13  19   13.15    8.51
   7  13  19   11.46    4.94
  -7  13 -19   11.23    6.53
   7  13  19   24.71   10.79
   7 -13 -19   27.11   10.54
   7  13 -19   26.05   10.01
   7 -13 -19   17.78    5.14
   7  13 -19   20.02    5.13
   7  13  21   18.20    5.99
   7 -13 -21   13.25    8.42
   7  13  21   11.36    9.19
   7  13 -21   21.10    9.26
   7 -13 -21   17.65    5.23
  -7  13 -21   16.38    8.84
   7  13 -21   11.02    4.01
   7 -13 -21   17.61    5.38
   7  13  23    0.13    4.36
  -7  13 -23   15.54    8.31
   7 -13 -23    0.26    4.01
   7  13  23    0.13    8.30
   7  13 -23    6.84    6.18
   7 -13 -23    2.26    2.93
  -7 -13 -23    0.43    2.63
   7  13 -23    0.14    3.14
   7 -13 -23    5.24    3.41
   7 -13 -25   13.93    4.12
  -7 -13 -25   15.39    4.75
   7  13 -25   11.47    4.09
   7 -13 -25   12.03    3.99
   7 -13 -27   74.60    9.98
   7  13 -27   76.39    9.30
  -7 -13 -27   64.02   10.43
   7 -13 -27   87.94   10.50
   7 -13 -29   96.28    9.11
   7  13 -29  121.15    9.36
  -7 -13 -29  117.53   11.07
   7 -13 -29  109.02    9.43
   7 -13 -31    0.06    2.78
  -7 -13 -31    0.08    3.66
   7  13 -31    0.04    2.71
   7 -13 -31    0.06    2.39
   7 -13 -33    7.17    3.19
   7  13  33    4.06    4.14
   7  13 -33    8.81    3.25
   7 -13 -33    5.99    3.13
   7 -13 -35   11.74    3.21
   7  13  35    4.01    2.87
   7  13 -35   16.11    3.69
   7 -13 -35    6.79    2.39
   7  15  -1    1.07    6.97
  -7 -15  -1    1.05    6.59
   7 -15   1    0.16    5.85
   7 -15  -1    0.50    5.34
   7  15   1    0.11    5.01
   7  15  -1    0.11    4.62
  -7 -15   1    1.47    6.17
   7  15   1    0.10    5.15
  -7  15  -3   25.26    8.15
  -7 -15  -3   26.45    7.27
   7 -15  -3   36.07    7.74
   7  15   3   33.25    9.62
   7  15  -3   23.61    6.49
   7  15   3   23.04    5.47
   7 -15   3   27.12    8.28
  -7 -15   3   32.37    7.65
   7  15  -3   26.25    7.80
  -7 -15  -5  362.99   22.58
  -7 -15   5  392.24   22.91
   7 -15   5  396.44   23.29
  -7  15  -5  373.06   25.47
  -7  15  -5  329.86   19.95
   7 -15  -5  405.05   22.10
   7  15   5  365.37   24.72
   7  15  -5  347.92   23.41
   7  15  -5  356.46   20.86
  -7 -15  -7  509.41   32.09
  -7 -15   7  540.93   31.23
   7 -15   7  535.03   32.71
   7  15   7  485.58   34.28
  -7  15  -7  497.50   30.49
   7 -15  -7  582.40   30.95
  -7  15  -7  531.08   34.55
   7  15  -7  524.13   32.45
  -7 -15   9  149.95   15.34
   7 -15   9  154.25   16.80
   7 -15  -9  172.44   15.32
   7  15   9  130.71   16.91
  -7 -15  -9  131.61   15.10
  -7  15  -9  128.72   14.54
  -7  15  -9  132.56   15.59
   7  15  -9  155.33   16.25
  -7 -15  11    2.63    3.51
  -7  15 -11    5.48    4.34
  -7  15 -11    4.42    3.61
  -7 -15 -11    2.23    4.14
   7  15  11   11.43    7.47
   7 -15  11    0.06    3.56
   7  15 -11    0.10    4.84
  -7 -15  13    0.51    4.10
  -7  15 -13    0.68    5.51
  -7 -15 -13    0.48    3.92
  -7  15 -13    1.41    3.13
   7  15 -13    1.09    4.42
   7  15  13    0.48    4.30
   7 -15  13    0.68    5.18
  -7 -15  15    3.67    3.44
  -7  15 -15   11.59    5.91
  -7  15 -15    4.79    4.53
   7  15 -15    2.28    4.73
   7 -15  15    8.06    6.26
   7  15  15    2.56    2.69
   7  15  15    3.59    5.64
   7 -15 -15    5.50    2.86
   7  15 -15    2.74    2.45
   7  15  17    0.25    2.59
   7  15 -17    0.69    4.41
   7 -15 -17    0.46    6.30
   7  15  17    1.62    4.33
   7 -15 -17    4.32    3.49
   7 -15  17    0.25    4.74
   7  15 -17    2.88    2.28
   7  15  19   29.83    6.40
   7 -15  19   28.62   10.04
   7 -15 -19   42.31   11.80
   7  15 -19   42.26   11.66
   7 -15 -19   47.24    7.38
   7  15  19   20.19    9.22
   7  15 -19   48.34    6.87
   7  15  21  167.79   22.45
   7 -15 -21  222.90   23.46
   7  15  21  154.97   12.93
   7 -15 -21  186.08   12.85
   7  15 -21  196.48   12.19
   7 -15 -21  191.14   12.79
   7  15 -21  189.54   21.19
   7  15  23   97.39   11.76
   7 -15 -23  114.07   11.31
   7  15 -23  112.75   10.38
   7 -15 -23  110.88   11.09
   7 -15 -25   25.46    5.11
  -7 -15 -25   16.60    4.72
   7  15 -25   26.43    4.96
   7 -15 -25   23.84    5.11
   7  15  27    0.29    4.43
   7 -15 -27    0.48    2.82
  -7 -15 -27    3.97    2.86
   7  15 -27    2.33    2.55
   7 -15 -27    2.92    3.12
   7 -15 -29    3.33    2.90
   7  15  29    3.97    3.79
  -7 -15 -29    4.01    3.27
   7  15 -29    0.36    2.60
   7 -15 -29    3.74    2.95
   7 -15 -31   19.74    4.38
  -7 -15 -31   24.83    5.43
   7  15 -31   30.00    4.97
   7 -15 -31   30.29    5.15
   7  15 -33  124.00    9.05
   7 -15 -33  113.70    9.05
   7  15 -35   55.69    5.57
   7 -15 -35   55.53    5.70
   7 -15 -35   47.93    5.27
  -7 -17   1   52.13   11.36
   7 -17   1   43.23   11.19
   7 -17  -1   67.42   12.12
  -7 -17  -1   53.72   12.35
  -7  17  -1   64.52   14.67
   7  17  -1   57.86   13.61
   7  17   1   39.56    9.92
   7  17  -1   45.01   10.30
   7  17   1   53.79   13.23
  -7 -17  -3  455.45   28.68
  -7 -17   3  439.49   27.25
   7  17  -3  445.38   31.32
   7  17   3  455.22   32.92
  -7  17  -3  530.94   35.59
   7 -17   3  388.03   28.18
   7 -17  -3  486.86   28.33
   7  17  -3  373.36   25.33
  -7 -17  -5  283.04   18.98
  -7 -17   5  302.21   19.07
   7 -17   5  294.32   19.98
   7  17   5  276.46   21.28
   7 -17  -5  312.07   18.87
  -7  17  -5  318.58   23.20
   7  17  -5  267.58   18.02
   7 -17  -7 1073.40   43.92
  -7 -17  -7  943.43   43.75
  -7 -17   7 1006.89   43.53
   7 -17   7  986.76   46.09
   7  17   7  901.49   48.64
  -7  17  -7  993.86   49.77
   7  17  -7  994.99   45.80
  -7 -17  -9  400.08   28.25
  -7 -17   9  388.22   26.14
   7 -17   9  426.05   29.62
   7 -17  -9  405.69   25.58
  -7  17  -9  412.78   30.39
   7  17   9  370.53   30.90
   7  17  -9  415.77   29.17
  -7 -17 -11  118.00   14.71
   7 -17  11  129.37   16.03
   7  17  11  112.77    9.59
   7  17  11  105.84   16.16
  -7 -17  11  138.77   14.77
   7  17 -11  126.73    9.46
   7 -17 -11  120.48    9.76
  -7  17 -11  120.71   15.65
   7  17 -11  128.86   15.62
   7 -17  13   25.80    9.36
  -7 -17 -13   16.37    5.84
  -7  17 -13   16.75    6.11
   7  17  13   25.89    5.54
   7  17 -13   23.03    8.93
  -7 -17  13   28.83    8.07
   7 -17 -13   27.29    5.56
   7  17 -13   29.77    5.70
   7  17  13   34.64   10.79
   7  17  15   52.55    7.04
  -7 -17  15   67.28   10.72
  -7  17 -15   33.85    9.08
   7  17 -15   68.23   12.18
   7 -17 -15   70.39    7.56
   7  17 -15   69.09    7.25
   7 -17  15   56.66   11.80
   7  17  15   48.06   11.30
   7 -17 -17  238.05   28.32
   7  17  17  177.22   14.48
   7  17  17  158.35   23.80
   7 -17  17  148.75   21.90
   7 -17 -17  214.00   14.78
   7  17 -17  217.27   13.90
   7  17 -17  185.96   22.39
   7 -17  19  144.90   19.26
   7  17  19  180.93   24.16
   7 -17 -19  246.47   27.03
   7 -17 -19  220.76   14.54
   7  17  19  180.96   14.40
   7  17 -19  205.38   13.30
   7  17 -19  194.40   22.67
   7 -17 -21  253.55   25.17
   7 -17 -21  299.23   15.71
   7  17  21  250.39   15.88
   7  17 -21  299.32   14.65
   7 -17 -21  313.76   15.61
   7  17  23  258.56   18.12
   7 -17 -23  315.93   17.44
   7  17 -23  301.99   16.19
   7 -17 -23  315.18   17.19
   7  17 -25   96.92    9.92
   7 -17 -25   95.31   10.49
   7 -17 -25   93.58   10.47
   7  17  27    1.14    3.86
   7 -17 -27    1.11    3.28
   7  17 -27    1.11    3.15
   7 -17 -27    2.29    3.57
   7 -17 -29   36.25    5.91
   7  17 -29   49.52    6.41
   7 -17 -29   42.23    6.45
   7 -17 -31   57.17    7.27
   7  17 -31   63.54    7.15
   7 -17 -31   64.88    7.46
   7  17 -33  193.37   10.45
   7 -17 -33  199.76   10.90
  -7 -19  -1   62.90   14.56
  -7 -19   1   58.42   14.40
   7 -19   1   55.99   15.82
   7 -19  -1   71.73   15.39
  -7  19   1   77.91   19.76
   7  19   1   86.83   19.88
  -7  19  -1   76.15   20.59
   7  19  -1   63.94   18.06
   7  19   1   59.16   13.66
   7  19  -1   61.13   14.55
  -7 -19  -3  173.97   15.22
  -7 -19   3  185.63   15.41
   7 -19  -3  187.37   15.62
   7  19   3  157.19   17.25
   7 -19   3  145.32   15.38
  -7  19  -3  194.75   19.47
   7  19  -3  183.24   18.54
   7  19  -3  174.61   15.42
  -7 -19   5  516.83   30.57
   7  19   5  426.12   19.20
   7  19   5  528.29   37.36
  -7 -19  -5  529.74   31.79
   7 -19  -5  524.01   30.96
   7 -19   5  549.92   32.57
  -7  19  -5  631.44   40.70
   7  19  -5  485.42   30.75
   7  19   7  218.02   15.31
  -7 -19  -7  270.63   24.99
  -7 -19   7  298.71   25.53
   7 -19  -7  296.37   25.03
   7  19   7  250.46   16.45
   7  19   7  240.46   28.15
   7  19   7  238.55   16.49
   7 -19   7  307.28   26.96
   7  19  -7  272.22   16.15
  -7  19  -7  329.01   30.95
   7  19  -7  263.83   25.53
  -7 -19   9  578.29   32.62
   7  19   9  513.04   22.27
   7 -19   9  576.38   35.58
   7  19   9  519.28   22.27
  -7 -19  -9  517.62   32.88
   7  19   9  565.22   39.27
   7  19  -9  539.42   20.82
   7 -19  -9  503.50   21.17
  -7  19  -9  532.98   36.84
   7  19  -9  578.42   35.60
   7  19   9  430.81   20.28
  -7 -19 -11   32.42   11.31
   7  19  11   32.31    7.92
  -7  19 -11   30.06   11.61
   7  19  11   38.81   14.45
   7 -19  11   20.38   11.09
   7  19 -11   32.73   11.73
   7  19 -11   33.06    6.90
   7 -19 -11   36.25    7.57
  -7 -19  11   35.87   11.07
   7  19  13   48.38   13.97
  -7 -19  13   55.62   12.08
   7  19 -13   54.55   13.57
   7  19 -13   49.79    7.56
   7 -19 -13   54.91    8.28
   7  19  13   54.65    8.80
   7 -19  13   38.26   11.85
  -7  19 -13   46.75   12.09
   7  19  15   13.70    6.30
  -7 -19  15   16.03    6.29
  -7  19 -15   10.18    6.03
   7  19 -15   15.59    6.70
   7 -19  15   10.69    5.72
   7 -19 -15   11.93    4.11
   7  19  15   12.71    4.77
   7  19 -15   17.77    4.42
   7  19  17  111.82   18.70
   7 -19  17  137.59   19.02
   7  19  17  161.47   13.25
   7 -19 -17  175.16   24.31
   7 -19 -17  177.87   12.62
   7  19 -17  170.88   11.74
   7  19 -17  161.55   19.80
   7 -19 -19  331.62   31.12
   7  19  19  309.34   18.25
   7 -19 -19  382.18   18.38
   7  19 -19  346.14   16.73
   7  19  21  183.35   15.26
   7 -19 -21  227.47   15.01
   7  19 -21  222.72   14.30
   7 -19 -21  241.32   15.06
   7  19  23  235.17   18.18
   7 -19 -23  251.03   16.82
   7  19 -23  240.34   15.40
   7 -19 -23  264.37   16.86
   7 -19 -25   16.23    3.86
   7  19 -25   14.80    3.80
   7 -19 -25   18.65    4.12
   7 -19 -27   29.07    4.85
   7  19 -27   28.92    4.33
   7 -19 -27   33.00    4.81
   7 -19 -29    9.07    3.58
   7  19 -29   10.97    3.65
   7 -19 -29    9.08    3.30
   7 -19 -31   72.55    7.27
   7  19 -31   85.00    7.37
   7 -19 -31   87.78    7.73
   7  19 -33  101.66    7.46
   7 -19 -33  109.95    7.82
   7 -19 -33   92.82    7.07
   7  21   1   10.96    7.43
   7  21   1   11.92    3.99
  -7  21   1    7.30    8.47
   7  21  -1   12.07    8.77
   7  21  -1    7.79    3.23
  -7  21  -1   12.04    9.36
  -7  21  -1    8.87    3.78
  -7 -21   1    0.95    4.53
   7 -21   1    0.54    5.52
   7 -21  -1    7.52    4.36
   7  21  -1   15.26    7.37
  -7 -21  -1    9.11    5.39
   7  21   1   15.19    5.12
   7  21  -1   13.00    4.39
   7  21   3   25.89    4.48
   7  21  -3   30.34    5.17
  -7  21  -3   27.98    5.48
   7  21   3   12.40    6.32
  -7 -21  -3   23.39    6.71
   7 -21  -3   20.15    6.10
   7 -21   3   23.24    6.63
   7  21  -3   34.44    8.29
  -7  21  -3   21.09    7.58
   7  21   3   24.73    4.52
  -7  21   3   37.58   11.70
   7  21   3   28.61    5.57
   7  21  -3   32.08    5.48
  -7 -21   3   19.97    5.12
   7  21   5  132.33   12.69
   7  21  -5  131.17   11.68
  -7  21  -5  132.64   12.91
  -7 -21  -5  122.09   18.22
  -7 -21   5  151.08   19.54
   7 -21   5  130.74   19.70
   7 -21  -5  176.93   20.59
   7  21   5  152.68   13.38
   7  21   5  153.77   14.00
   7  21   5  139.39   22.73
   7  21  -5  168.86   13.52
  -7  21  -5  184.59   25.40
   7  21  -5  163.41   20.81
   7  21   7  228.11   15.31
   7  21  -7  233.89   14.78
  -7 -21   7  263.62   24.15
   7 -21   7  243.99   25.52
   7  21   7  252.08   16.40
   7  21   7  256.35   28.91
   7  21   7  278.16   17.27
  -7 -21  -7  245.92   23.50
   7 -21  -7  263.09   23.76
   7  21  -7  283.50   16.45
  -7  21  -7  271.71   29.55
   7  21  -7  280.43   26.24
   7  21   9   19.51    3.86
   7  21  -9   28.64    5.16
  -7 -21   9   26.24    7.31
   7 -21   9   15.55    7.39
   7  21   9   20.51    4.32
   7  21   9   25.84    5.01
  -7  21  -9   30.69    9.11
   7  21  -9   21.49    9.29
   7  21   9   18.61    5.55
  -7 -21  -9   28.10    7.57
   7  21  -9   28.44    4.96
   7 -21  -9   28.39    5.16
  -7 -21 -11   47.24   13.62
  -7 -21  11   84.66   16.42
   7 -21  11   97.03   18.80
   7  21  11   74.61   11.28
   7  21  11   65.28   18.74
   7  21 -11   85.12   10.73
   7 -21 -11   94.99   11.84
  -7  21 -11   84.59   18.91
   7  21 -11   86.89   18.66
  -7 -21  13   14.59    7.76
   7 -21  13    0.03    5.93
  -7  21 -13   23.25   10.72
   7  21  13   20.21   11.41
   7  21  13   26.31    6.65
   7  21 -13   20.48   10.06
   7 -21 -13   24.98    6.29
   7  21 -13   24.16    5.57
  -7 -21  15    0.14    6.91
   7  21  15    0.34    4.95
   7  21  15    0.35    8.64
   7  21 -15    0.11    6.37
   7 -21  15    4.39    8.99
  -7  21 -15    8.67    6.15
   7 -21 -15    0.77    4.46
   7  21 -15    0.65    4.61
   7  21  17   15.13    6.33
   7 -21 -17   14.70    5.81
   7  21 -17   16.56    5.37
   7  21 -19  190.72   12.44
   7 -21 -19  197.17   13.69
   7  21 -21  289.97   15.34
   7 -21 -21  281.27   16.41
   7  21  21  240.89   16.33
   7 -21 -21  272.53   15.51
   7  21  23    2.16    3.73
   7 -21 -23    5.33    3.67
   7  21 -23    0.27    3.42
   7 -21 -23    4.05    3.62
   7 -21 -25   18.90    4.81
   7  21 -25   18.08    4.31
   7 -21 -25   14.07    4.14
   7 -21 -27    3.76    2.53
   7  21 -27    0.16    2.36
   7 -21 -27    0.89    2.60
   7 -21 -29    6.07    3.35
   7  21 -29    4.77    2.96
   7 -21 -29    2.93    2.23
   7 -21 -31    3.77    2.01
   7  21 -31   11.75    2.44
   7 -21 -31    7.36    2.01
   7  23   1   11.29    8.69
   7  23   1   15.21    4.67
   7  23  -1   13.39    4.69
  -7  23   1   20.46   11.52
  -7  23   1   15.53    5.00
  -7  23  -1   28.69   12.13
  -7  23  -1   13.83    4.94
  -7 -23  -1   14.10    7.70
  -7 -23   1    4.11    4.23
   7 -23   1   15.15    8.31
   7 -23  -1   16.23    8.05
   7  23  -1    0.92    5.77
   7  23   1   22.65    6.05
   7  23  -1   12.35    4.97
   7  23   3    2.40    2.61
  -7  23   3    8.18    7.05
   7  23  -3    0.31    2.62
  -7  23   3    4.19    3.79
  -7  23  -3    0.78    4.07
  -7  23  -3   19.20   12.11
   7  23   3    6.38    7.43
  -7 -23   3    2.80    4.62
   7 -23   3    1.82    4.96
   7 -23  -3    7.87    5.72
   7  23  -3    1.91    3.97
   7  23   3    1.16    3.92
  -7 -23  -3    0.19    6.99
   7  23   3    0.10    3.20
   7  23  -3    1.90    3.93
   7  23   5   10.45    3.58
   7  23  -5   17.52    4.40
  -7  23  -5    7.03    3.11
  -7  23  -5   41.90   12.52
  -7 -23  -5   12.83    6.66
  -7 -23   5   10.64    5.96
   7 -23   5   11.26    8.38
   7 -23  -5   19.25    6.91
   7  23   5    7.12    2.94
  -7  23   5    9.98    8.82
   7  23   5   11.21    3.92
   7  23  -5   15.05    6.21
   7  23   5   20.11    9.42
   7  23  -5   17.97    4.58
   7  23   7   38.97    7.84
   7  23  -7   55.47    8.64
  -7  23  -7   54.91    9.32
  -7  23  -7   64.71   17.55
   7  23   7   44.75    8.26
   7 -23   7   34.18   12.52
   7 -23  -7   43.16   11.81
   7  23  -7   40.15   12.27
   7  23   7   62.61    9.47
  -7 -23  -7   35.30   11.66
   7  23  -7   54.25    8.48
  -7 -23   7   50.36   12.81
   7 -23  -7   54.65    9.17
   7  23   7   45.54   14.88
   7  23   9   16.30    5.50
   7  23   9   23.82   11.85
   7  23  -9   24.26    5.87
  -7  23  -9   19.33    5.71
  -7 -23  -9    6.06    4.70
   7 -23   9   14.62    8.37
   7  23  -9   12.08    7.14
   7  23   9   18.96    5.62
   7  23   9   16.77    5.29
  -7 -23   9   27.23   10.11
   7  23  -9   25.30    6.28
  -7  23  -9   19.62   10.28
   7 -23  -9   15.39    5.02
   7  23 -11    1.93    4.22
  -7 -23  11    1.67    5.20
  -7  23 -11    0.99    8.62
   7  23  11    0.18    2.99
   7 -23  11    2.27    5.45
   7  23 -11    0.03    2.74
   7  23 -11    5.47    7.56
   7 -23 -11    0.01    2.85
   7  23  11    2.43    5.92
   7  23  13   98.45   10.00
  -7 -23  13   70.32   11.49
  -7  23 -13   64.03   12.47
   7  23 -13   98.62   15.67
   7  23 -13   99.70    9.21
   7 -23 -13  103.28    9.91
   7  23  15   71.29    9.23
   7  23 -15   86.33    8.86
   7 -23 -15   81.16    9.43
   7  23  17    5.43    4.55
   7 -23 -17    2.48    3.28
   7  23 -17    1.26    2.78
   7  23  19   53.27    8.48
   7  23 -19   62.86    7.81
   7 -23 -19   60.24    8.44
   7  23  21   52.13    8.72
   7  23 -21   61.06    7.76
   7 -23 -21   65.57    8.51
   7 -23 -21   70.09    8.74
   7  23  23    0.56    3.96
   7 -23 -23    0.13    2.93
   7  23 -23    0.26    3.78
   7 -23 -23    0.28    2.75
   7  23 -25    5.58    3.03
   7 -23 -25    6.78    3.56
   7 -23 -25   13.92    4.36
   7 -23 -27    7.27    3.49
   7  23 -27    6.92    3.31
   7 -23 -27    8.44    3.46
  -7  23 -29    4.65    2.43
   7 -23 -29    7.81    2.51
   7  23 -29    0.14    2.81
   7 -23 -29    0.20    2.59
   7  25   1  107.51   11.19
   7  25  -1  108.06   11.48
  -7  25   1  116.02   12.29
  -7  25  -1  108.77   11.85
  -7  25   1   95.11   21.80
  -7 -25   1   97.29   16.31
   7  25   1  120.48   12.18
   7 -25  -1   85.98   16.58
   7  25   1   71.74   18.09
   7  25   1  124.38   12.55
   7  25  -1  113.67   11.89
  -7 -25  -1   86.86   15.05
   7 -25   1   95.43   17.49
  -7  25  -1  109.85   24.33
   7  25  -3   62.78    8.26
   7  25   3   47.89    7.23
  -7  25   3   57.27    8.73
  -7  25   3   59.11   15.80
  -7  25  -3   56.51    7.98
  -7  25  -3   67.03   17.78
  -7 -25   3   55.05   11.25
   7  25   3   62.64    8.97
   7 -25   3   67.76   14.51
   7 -25  -3   51.56   12.27
   7  25   3   68.80    9.12
   7  25  -3   75.40    9.00
  -7 -25  -3   36.88   10.18
   7  25   3   52.90   15.42
   7  25   5   11.39    3.56
  -7  25   5   21.21    5.48
   7  25  -5   22.35    5.16
  -7  25   5   35.80   10.54
  -7  25  -5   17.76    4.39
  -7  25  -5   20.06   10.93
   7 -25   5   23.50    8.13
   7 -25  -5    7.45    5.30
   7  25   5   17.86    4.87
  -7 -25   5   21.47    6.17
   7  25   5    3.77    5.87
   7  25   5   22.84    5.55
   7  25  -5   23.73    5.57
  -7 -25  -5   17.91    6.43
   7  25   7    6.89    3.67
  -7  25   7    0.97    9.42
   7  25  -7    6.52    3.43
  -7  25  -7    7.24    3.61
  -7 -25  -7   11.92    7.90
  -7 -25   7   12.60    4.96
   7 -25   7    8.11    7.21
   7  25  -7   14.78    6.81
  -7  25  -7    0.06    6.08
   7  25   7    7.04    3.92
   7  25   7   11.03    4.81
   7  25  -7    4.22    2.99
   7 -25  -7   11.70    4.29
   7  25   7   15.30    7.32
   7  25  -9   40.36    8.20
  -7  25  -9   40.99    8.60
   7  25   9   42.93    8.89
   7 -25  -9   43.32    8.78
   7  25  -9   37.68    7.53
   7  25   9   41.67    8.19
   7  25   9   35.69    8.00
   7  25 -11  159.70   12.85
  -7  25 -11  121.23   12.43
   7  25  11  144.52   13.14
   7  25 -11  154.53   12.49
   7 -25 -11  142.24   12.65
   7  25 -13  233.10   15.67
  -7  25 -13  179.80   15.36
   7  25 -13  198.07   14.37
   7 -25 -13  221.42   16.27
   7  25  13  193.74   15.60
  -7  25 -15  277.05   17.13
   7  25  15  293.82   17.54
   7  25 -15  325.04   16.38
   7 -25 -15  334.30   17.58
  -7  25 -17   27.50    6.13
   7  25  17   33.40    7.22
   7 -25 -17   34.90    6.92
   7  25 -17   29.73    5.93
  -7  25 -19    0.35    5.83
   7  25  19    0.65    2.90
   7 -25 -19    0.23    3.57
   7  25 -19    0.12    3.22
   7 -25 -19    0.03    3.56
  -7  25 -21    0.82    3.34
   7  25  21   16.46    4.45
   7 -25 -21   12.91    3.80
   7  25 -21    5.67    2.70
   7 -25 -21    8.20    3.40
  -7  25 -23    3.02    4.49
   7  25  23    2.58    3.79
   7 -25 -23    5.65    4.22
   7  25 -23    1.72    3.06
   7 -25 -23    3.30    3.49
  -7  25 -25   96.16    9.24
   7  25 -25   93.81    7.81
   7 -25 -25   90.66    8.48
   7 -25 -25   98.13    8.36
  -7  25 -27   48.93    6.34
   7  25 -27   56.53    5.84
   7 -25 -27   55.20    6.35
   7 -25 -27   53.26    5.86
   7  27   1  205.38   14.83
   7  27  -1  218.29   15.44
  -7  27   1  205.34   15.66
  -7  27  -1  212.85   15.83
   7  27   1  251.57   16.93
   7  27  -1  256.06   16.93
   7  27   1  260.91   16.76
   7  27  -1  229.12   15.87
   7  27   3  130.86   13.03
   7  27  -3  155.58   14.00
  -7  27   3  148.72   14.24
  -7  27  -3  148.04   13.91
   7  27   3  169.75   15.02
   7  27   3  166.30   14.29
   7  27  -3  170.86   14.47
   7  27   5  185.24   14.77
  -7  27   5  202.73   16.05
   7  27  -5  216.87   15.52
  -7  27  -5  188.10   14.99
   7  27   5  201.78   15.67
   7  27   5  206.96   15.77
   7  27  -5  216.33   15.52
   7 -27  -5  170.80   14.83
   7  27   7    1.38    4.34
   7  27  -7    0.55    3.39
   7  27   7    1.30    3.98
  -7  27  -7    2.73    3.44
   7  27   7    1.24    3.56
   7  27  -7    0.55    4.36
   7 -27  -7    0.25    3.88
   7  27  -9   43.12    6.90
  -7  27  -9   50.82    7.60
   7  27   9   44.33    7.22
   7  27  -9   48.81    7.13
   7 -27  -9   49.15    7.42
   7  27 -11  140.07   11.82
  -7  27 -11  116.50   11.72
   7  27  11  117.37   11.85
   7  27 -11  132.66   11.85
   7 -27 -11  134.07   12.55
   7  27 -13  537.56   22.55
  -7  27 -13  471.83   23.07
   7  27  13  468.51   23.28
   7  27 -13  517.30   22.35
   7 -27 -13  549.24   24.35
  -7  27 -15  299.79   18.33
   7  27  15  335.03   19.62
   7  27 -15  324.41   17.96
   7 -27 -15  359.49   19.31
  -7  27 -17  120.80   11.21
   7  27  17  123.27   11.61
   7  27 -17  137.22   10.93
   7 -27 -17  144.89   12.17
  -7  27 -19   42.92    7.94
   7  27  19   45.90    8.13
   7  27 -19   50.02    7.64
   7 -27 -19   54.39    7.94
   7 -27 -19   55.27    8.11
  -7  27 -21    3.42    3.42
   7  27  21    6.38    3.56
   7  27 -21    6.90    3.31
   7 -27 -21   11.89    3.69
   7 -27 -21    9.34    3.62
  -7  27 -23   55.57    7.12
   7  27 -23   49.82    5.78
   7 -27 -23   63.48    6.99
   7 -27 -23   57.66    6.52
  -7  27 -25   56.82    7.51
   7  27 -25   55.35    6.38
   7 -27 -25   56.95    6.83
   7 -27 -25   61.77    6.70
   7  29   1  189.67   14.30
   7  29  -1  168.91   13.61
  -7  29   1  179.34   14.10
  -7  29  -1  170.18   13.88
   7  29   1  196.39   15.16
   7  29  -1  209.73   15.85
   7  29   1  187.61   13.88
   7  29  -1  186.46   14.31
   7 -29  -1  145.77   12.42
   7  29   3  247.82   18.41
   7  29  -3  246.75   18.08
  -7  29   3  245.22   18.95
  -7  29  -3  233.03   17.89
   7  29   3  261.03   19.55
   7  29  -3  305.87   20.81
   7  29  -3  255.36   18.48
   7 -29  -3  213.88   17.63
   7  29   3  261.26   18.40
   7  29   5   16.37    6.02
  -7  29   5   17.33    6.21
   7  29  -5   19.22    5.84
  -7  29  -5   19.08    6.07
   7  29   5   23.21    6.36
   7  29   5   18.47    6.10
   7  29  -5   15.10    5.10
   7  29  -5   21.90    6.45
   7 -29  -5   19.28    6.31
   7  29  -7   25.15    5.83
  -7  29  -7    9.37    4.21
   7  29   7   25.40    6.07
   7  29  -7   27.31    6.00
   7 -29  -7   18.45    5.72
   7  29   7   23.96    5.90
   7  29  -9   17.84    4.63
   7  29   9   27.78    6.31
  -7  29  -9   18.21    4.62
   7  29  -9   29.11    5.87
   7 -29  -9   19.67    4.95
   7  29 -11  147.65   11.40
  -7  29 -11  141.95   11.99
   7  29 -11  177.46   12.66
   7  29 -11  165.99   12.43
   7  29  11  146.01   12.14
   7 -29 -11  155.75   12.37
   7  29 -13  273.66   15.87
  -7  29 -13  265.35   17.30
   7  29 -13  306.26   16.86
   7  29  13  284.96   17.93
   7  29 -13  327.15   17.71
   7 -29 -13  304.98   18.14
  -7  29 -15  248.58   16.06
   7  29  15  248.90   16.34
   7  29 -15  311.00   16.42
   7 -29 -15  289.95   16.72
  -7  29 -17  124.85   10.90
   7  29 -17  138.85   10.70
   7  29  17  120.62   11.10
   7 -29 -17  144.19   11.38
   7 -29 -17  145.44   11.20
  -7  29 -19   22.54    4.96
   7  29  19   18.35    4.73
   7  29 -19   19.16    4.49
   7 -29 -19   25.81    5.11
   7 -29 -19   27.67    5.26
  -7  29 -21    0.40    2.60
   7  29  21    3.26    2.20
   7  29 -21    4.05    2.73
   7 -29 -21    4.05    2.73
   7 -29 -21    9.20    3.00
  -7  29 -23   34.98    5.05
   7  29 -23   36.34    4.45
   7 -29 -23   33.24    4.70
   7 -29 -23   40.67    4.97
   7  31   1   91.89   10.53
   7  31  -1   81.95    9.79
  -7  31   1   84.47    9.81
  -7  31  -1   72.17    9.21
   7  31   1  100.71   11.13
   7  31  -1   98.45   11.37
   7  31   1   92.30    9.89
   7  31  -1   92.65    9.76
   7 -31  -1   68.86    9.20
   7 -31   1   67.97    8.90
   7  31   3    9.89    5.04
   7  31  -3    9.63    3.74
  -7  31   3   13.47    4.73
  -7  31  -3    9.99    4.70
   7  31   3    9.29    5.24
   7  31  -3    8.47    4.56
   7  31   3   11.94    4.83
   7  31  -3   14.82    5.17
   7 -31  -3   12.68    4.35
   7 -31   3    3.76    3.42
  -7  31   5   12.76    5.18
   7  31  -5    8.83    4.63
  -7  31  -5    7.45    4.07
   7  31   5   11.78    4.91
   7  31  -5   10.56    4.73
   7  31  -5   13.83    5.32
   7 -31  -5   12.44    4.65
   7  31   5    9.71    4.51
   7  31  -7    0.71    2.98
  -7  31  -7    1.93    3.75
   7  31  -7    0.06    3.07
   7  31   7    1.84    3.60
   7  31  -7    0.71    3.39
   7 -31  -7    0.13    3.52
   7  31  -9    2.18    2.70
  -7  31  -9    0.56    3.48
   7  31   9    0.36    3.44
   7  31  -9    0.40    2.92
   7  31  -9    0.40    3.77
   7 -31  -9    0.57    2.81
   7  31 -11   15.40    3.97
  -7  31 -11   19.76    5.16
   7  31  11   21.21    5.43
   7  31 -11   15.23    4.07
   7  31 -11   16.88    4.68
   7 -31 -11   19.51    5.16
   7  31 -13   69.79    7.13
  -7  31 -13   62.20    8.14
   7  31  13   77.11    9.07
   7  31 -13   70.00    7.36
   7  31 -13   89.54    8.86
   7 -31 -13   77.82    8.55
  -7  31 -15   71.87    8.22
   7  31  15   75.10    8.37
   7  31 -15   98.95    8.98
   7 -31 -15   84.51    8.54
   7 -31 -15   78.31    8.20
  -7  31 -17   25.20    5.07
   7  31  17   20.38    4.43
   7  31 -17   21.46    4.24
   7 -31 -17   25.28    4.70
   7 -31 -17   25.14    4.47
  -7  31 -19    4.19    2.95
   7  31  19    0.12    2.13
   7  31 -19    4.63    2.40
   7 -31 -19    1.67    2.22
   7 -31 -19    0.15    2.50
  -7  31 -21    4.24    2.37
   7  31 -21    3.24    2.01
   7 -31 -21    6.63    2.40
   7 -31 -21    3.67    2.12
   7  33   1    4.30    2.98
   7  33  -1    3.72    3.06
  -7  33   1    3.15    2.78
  -7  33  -1    4.11    3.00
   7  33   1   10.30    3.67
   7  33  -1    5.50    3.22
   7  33   1    4.59    3.19
   7  33  -1    7.41    2.99
   7 -33  -1    7.29    2.93
  -7  33  -3   45.36    7.00
   7  33  -3   43.93    6.49
  -7  33   3   42.48    6.54
   7  33  -3   53.09    7.57
   7  33   3   51.50    7.60
   7  33  -3   47.35    6.24
   7 -33  -3   34.53    5.88
   7  33   3   46.47    6.97
  -7  33   5   79.02    8.27
   7  33  -5   82.84    8.16
  -7  33  -5   67.06    7.51
   7  33  -5   90.17    8.90
   7  33  -5   77.86    7.82
   7 -33  -5   76.31    8.00
   7  33   5   88.68    9.09
   7  33  -7   79.47    8.32
  -7  33  -7   74.29    8.65
   7  33  -7   85.23    8.95
   7  33   7   93.62    9.73
   7  33  -7   97.80    9.11
   7 -33  -7   74.51    8.35
   7  33  -9   15.27    3.48
  -7  33  -9   15.59    4.21
   7  33   9   21.97    5.19
   7  33  -9   20.42    4.42
   7  33  -9   14.45    3.77
   7 -33  -9   20.57    4.36
   7  33 -11    0.17    2.28
  -7  33 -11    7.66    3.28
   7  33  11    3.81    2.99
   7  33 -11    2.55    1.90
   7  33 -11    2.06    2.62
   7 -33 -11    0.11    2.50
  -7  33 -13    0.08    2.94
   7  33 -13    2.73    2.18
   7  33 -13    0.06    2.56
   7 -33 -13    2.15    2.51
   7  33  13    0.07    2.99
   7 -33 -13    0.12    3.34
  -7  33 -15    0.98    2.67
   7  33  15    0.66    2.25
   7  33 -15    1.68    2.64
   7 -33 -15    1.56    2.40
   7 -33 -15    0.31    2.13
   7  33 -17    5.88    2.51
  -7  33 -17    4.43    2.26
   7  33  17    7.49    2.67
   7 -33 -17    2.80    1.72
   7 -33 -17    4.11    2.06
  -7  35   1    7.74    3.06
  -7  35  -1    6.01    2.99
   7  35  -1    5.17    2.40
   7  35   1    5.22    2.70
   7  35  -1   12.39    4.11
   7  35  -1    2.18    2.38
   7  35  -3   50.62    6.01
  -7  35   3   49.67    5.86
  -7  35  -3   45.13    5.75
   7  35  -3   67.83    7.27
   7  35   3   67.85    7.39
   7  35  -3   62.40    6.31
   7  35  -5  128.38    9.30
  -7  35  -5  106.10    8.86
   7  35   5  161.86   11.24
   7  35  -5  143.48   10.22
   7  35  -5  137.22    9.36
   7  35  -7  179.60   10.80
   7  35  -7  196.90   11.74
   7  35   7  201.97   12.92
   7  35  -7  199.74   11.37
   7  35  -9   47.06    5.62
  -7  35  -9   44.30    6.06
   7  35  -9   53.22    6.13
   7  35   9   61.51    7.39
   7  35  -9   48.95    6.24
   7  35 -11    8.48    2.65
  -7  35 -11    5.37    2.65
   7  35  11   10.91    3.57
   7  35 -11    6.63    2.50
   7  35 -11    7.88    3.01
   7 -35 -11    6.55    2.64
   7 -35 -11   11.50    3.23
  -7  37  -1    8.29    2.55
   7  37  -1    9.01    2.69
  -7  37   1    5.31    1.71
  -7  37  -3   20.05    3.37
   7  37  -3   30.87    4.47
   7  37   3   32.80    4.66
   8   0   0    7.67   10.33
   8   0   0    8.97    8.58
   8   0   2   85.53   10.67
   8   0  -2   86.67   12.31
   8   0  -2   69.36    8.06
   8   0   4   45.38    6.44
   8   0  -4   40.17    7.68
   8   0  -6 1171.50   28.78
   8   0  -6 1297.40   31.83
   8   0  -8  781.91   28.01
   8   0  -8  865.83   28.88
  -8   0  -8  856.99   32.11
   8   0 -10 1600.93   46.17
   8   0 -10 1601.31   44.21
   8   0 -12   53.82    9.57
   8   0 -12   48.96    8.63
  -8   0 -12   58.07   10.39
  -8   0 -14    2.37    6.24
   8   0 -14    2.43    4.93
   8   0 -14    2.34    4.71
   8   0 -16    8.49    5.07
  -8   0 -16    0.12    4.14
   8   0 -16    0.28    3.90
   8   0 -18  486.11   32.79
   8   0 -18  451.79   29.43
  -8   0 -18  421.75   30.83
   8   0 -20  320.61   25.69
  -8   0 -20  297.98   25.78
   8   0 -22  424.47   30.17
  -8   0 -22  349.57   28.97
   8   0 -22  439.39   18.84
   8   0 -24    3.51    3.28
  -8   0 -24    2.22    5.23
   8   0 -24    0.45    3.81
   8   0  24    7.35    6.28
  -8   0 -26  164.08   19.97
   8   0  26  163.72   21.88
   8   0 -26  206.82   13.05
   8   0 -28   25.09    4.97
   8   0 -30   12.34    5.02
   8   0 -32   37.90    6.46
   8   0 -34  159.57   11.84
   8   0 -36   83.38    7.68
   8   0  38   89.79    8.34
   8   0 -38   78.39    6.41
   8   2   0   24.61    2.39
   8   2   0   24.45    2.99
   8  -2   0   26.30    3.22
   8   2  -2   36.50    4.95
   8   2   2   32.68    3.67
   8  -2   2   30.36    3.72
   8  -2  -2   35.12    4.70
   8   2  -2   37.91    3.51
   8   2  -2   22.11    3.00
   8  -2  -2   34.81    2.85
   8   2   2   37.45    4.42
   8   2  -4   98.92    8.19
   8   2   4  123.72    8.38
   8   2  -4  140.86   10.95
   8  -2   4  104.10    7.64
   8   2  -4   95.73    5.63
   8  -2  -4  135.37   10.77
  -8   2  -4  107.41    6.05
   8   2   4  133.79   10.10
   8   2  -6  227.33   14.21
   8   2  -6  228.52   15.73
   8  -2  -6  225.29   15.61
   8  -2   6  185.05    9.27
   8   2   6  215.05   14.75
   8   2  -8 1194.05   37.27
   8   2  -8 1310.24   38.94
  -8   2  -8 1266.10   41.36
  -8  -2  -8 1353.42   43.18
   8  -2  -8 1209.04   38.03
   8   2 -10  305.84   19.19
   8   2 -10  324.18   19.12
  -8  -2 -10  366.50   22.80
  -8   2 -10  346.86   22.37
   8  -2 -10  296.53   18.30
   8   2 -12   57.25   11.75
   8   2 -12   56.67   10.56
  -8   2 -12   59.50   12.06
  -8  -2 -12   57.52   11.80
   8  -2 -12   41.73    9.64
  -8  -2 -14   33.81   10.24
  -8   2 -14   30.20    9.71
   8   2 -14   26.39    8.34
   8  -2 -14   33.28    9.16
   8   2 -14   31.72    9.68
  -8   2 -16    1.50    4.74
   8   2 -16    0.35    4.40
   8  -2 -16    0.84    4.47
   8   2 -16    0.35    3.87
  -8  -2 -16    0.55    4.39
   8   2 -18  222.44   20.83
   8   2 -18  214.12   18.80
   8  -2 -18  222.23   19.71
  -8  -2 -18  179.20   18.27
  -8   2 -18  172.17   18.44
   8   2  18  165.18   18.23
   8   2 -20  398.35   32.01
   8   2 -20  352.71   28.36
   8  -2 -20  359.37   28.94
  -8   2 -20  391.48   31.25
  -8  -2 -20  365.88   29.73
   8   2  20  349.07   30.71
   8   2 -20  338.34   17.24
   8   2 -22   99.01   18.72
   8   2 -22  106.41   16.93
   8  -2 -22  119.28   18.04
  -8   2 -22   96.18   16.93
  -8  -2 -22   92.69   16.57
  -8  -2 -22   90.25   11.51
   8  -2 -22   92.82    9.93
   8   2  22   89.88   17.65
   8   2 -22  103.43   10.33
   8   2 -24   63.62   12.80
   8  -2 -24   50.42   11.24
  -8   2 -24   55.31   11.74
  -8  -2 -24   53.77   12.27
   8  -2 -24   63.29    7.50
   8   2  24   49.56   12.32
  -8  -2 -24   53.34    8.82
   8   2 -24   66.40    7.75
   8   2 -26    0.11    2.95
   8  -2 -26    0.26    2.73
  -8   2 -26    5.71    7.76
  -8  -2 -26    0.04    5.09
   8  -2 -26    0.26    2.48
   8   2  26    0.28    5.98
   8  -2 -28   31.29    8.50
   8   2 -28   29.36    8.00
   8  -2 -28   29.54    7.90
   8   2 -30    8.70    3.46
   8  -2 -30    3.12    3.04
   8  -2 -30    3.12    2.82
   8   2 -32   14.58    4.17
   8  -2 -32   16.33    4.26
   8  -2 -32   22.87    5.02
   8  -2 -34   79.64    8.41
   8   2 -34   89.24    8.80
   8  -2 -34   90.01    8.77
   8   2 -36   89.25    7.78
   8  -2 -36   91.35    7.70
   8   2  38   40.32    6.75
   8  -2  38   35.31    6.17
   8   2 -38   26.86    4.21
   8  -2 -38   29.41    4.44
   8   4   0    3.35    5.32
   8  -4   0    1.71    4.49
   8   4   0    1.31    3.02
   8   4   0    1.73    4.49
   8   4  -2   62.19    4.90
   8   4   2   75.07    6.79
   8   4  -2   77.22    5.93
   8   4  -2   73.41    6.62
   8  -4  -2   77.87    7.65
   8  -4   2   74.18    6.21
   8   4   2   82.57    7.21
   8   4   4   22.88    2.87
   8  -4   4   13.77    2.53
   8  -4  -4    4.78    3.29
   8   4  -4   17.99    2.10
   8   4   4   21.95    2.81
   8   4  -4   28.08    3.30
   8   4  -4   15.77    3.34
   8   4  -6   94.49    8.05
   8   4  -6  101.63    8.88
   8  -4   6   56.06    4.67
  -8  -4  -6   98.44    9.74
  -8   4  -6   79.60    6.33
   8  -4  -6  103.45    9.38
   8   4   6   72.71    7.41
   8   4  -8   61.80    8.30
   8   4  -8   75.29    9.31
   8  -4  -8   66.74    9.07
  -8   4  -8   64.83    6.41
  -8   4  -8   63.44    9.28
  -8  -4  -8   72.96    9.84
   8   4   8   55.87    8.12
   8   4 -10   26.68    8.93
  -8  -4 -10   22.07    9.52
   8  -4 -10   20.27    8.53
  -8   4 -10   24.10   10.33
   8   4 -10   21.87    8.65
   8   4  10   18.66    8.64
  -8  -4  12   64.83    6.24
   8   4 -12   60.40    6.47
  -8  -4 -12   58.06    7.02
   8  -4 -12   61.89    6.30
  -8   4 -12   60.37    7.53
   8   4 -12   59.71    6.32
   8   4  12   40.75    5.63
   8   4 -14  133.77   16.94
   8   4 -14  135.10   15.68
  -8   4 -14  131.49   17.26
  -8  -4 -14  143.13   17.45
   8  -4 -14  117.71   14.58
   8   4  14  113.90   15.54
   8  -4 -16    4.37    6.45
  -8  -4 -16    7.67    7.83
   8   4 -16    4.62    6.52
  -8   4 -16    4.96    7.35
   8   4 -16    9.48    8.07
   8   4  16    9.56    8.50
   8   4 -18    6.88    5.47
   8  -4 -18    6.19    5.21
  -8  -4 -18    5.04    4.62
  -8   4 -18    5.04    5.51
   8   4 -18    7.54    5.48
   8   4  18    7.99    6.59
   8   4 -20  176.08   20.67
   8   4 -20  166.67   18.87
   8   4  20  115.18   11.69
   8  -4 -20  149.31   17.95
  -8  -4 -20  145.14   19.45
  -8   4 -20  148.24   19.09
   8   4  20  135.54   19.41
   8   4 -20  157.29   11.48
   8   4  22   24.30    7.60
   8   4 -22   44.30   12.53
  -8   4 -22   27.18   11.09
  -8  -4 -22   29.24   10.68
   8  -4 -22   38.12   11.75
   8  -4 -22   27.95    6.53
   8   4 -22   31.60   12.56
   8  -4 -22   26.69    6.35
  -8  -4 -22   29.10    7.61
   8   4 -22   32.43    6.63
   8   4  22   31.81   12.19
   8   4 -24    1.30    2.99
   8   4 -24    1.30    6.69
  -8   4 -24    1.41    5.91
  -8  -4 -24    1.24    6.08
   8  -4 -24    1.19    4.12
   8  -4 -24    1.19    3.00
   8   4 -24    1.05    5.99
  -8  -4 -24    1.04    3.42
   8  -4 -24    0.24    2.32
   8   4  24    1.94    7.02
   8   4  26   44.46   12.35
  -8  -4 -26   28.72   10.01
  -8   4 -26   38.53   11.05
   8  -4 -26   43.64    7.05
   8  -4 -26   56.93    7.45
  -8  -4 -26   42.34    7.53
   8   4 -26   55.79    7.17
   8  -4 -28   39.38    7.32
   8  -4 -28   50.12    8.40
   8   4 -28   50.79    7.67
   8  -4 -28   48.69    8.21
   8   4 -30    6.36    3.11
   8  -4 -30    6.69    3.18
   8  -4 -30    0.49    3.01
   8   4 -32    8.85    3.97
   8  -4 -32    7.55    3.92
   8  -4 -32    9.75    3.97
   8   4 -34   10.78    3.72
   8  -4 -34    5.26    3.05
   8  -4 -34    1.68    2.93
   8   4 -36   51.78    5.91
   8  -4 -36   54.63    6.13
   8  -4 -38    0.22    1.76
   8   4  38    2.86    2.50
   8  -4  38    5.10    3.01
   8   4 -38    2.38    1.73
   8  -6   0    0.36    3.22
   8  -6   0    0.79    3.36
   8   6   0    0.81    1.98
   8   6   0    1.17    3.14
   8   6   0    2.14    3.57
   8   6   2  101.27   10.34
   8   6   2  106.30   10.46
   8   6  -2  125.89   11.20
   8   6  -2   94.23    9.15
   8  -6   2   73.44    8.83
   8  -6  -2   62.51   11.22
   8  -6   2  101.26   10.55
   8   6  -2   92.10    8.19
   8   6  -4   15.29    5.41
   8  -6   4    1.70    4.26
   8  -6   4    6.49    4.13
   8  -6  -4   16.04    5.70
   8   6  -4   12.73    4.71
   8   6   4   13.20    4.95
   8   6  -4    8.21    3.84
   8   6   6    3.34    7.93
   8   6  -6    5.25    8.04
  -8  -6  -6    8.15    9.05
   8  -6   6    0.34    8.17
   8  -6   6    0.01    5.03
   8  -6  -6    4.74    8.33
   8   6  -6    4.10    7.41
  -8   6  -6    4.90    6.64
   8   6  -6    2.47    5.87
   8   6   8    1.15    6.07
   8   6  -8    8.21    6.94
  -8  -6  -8    6.23    7.23
  -8   6  -8    0.52    4.77
  -8   6  -8    0.95    6.35
   8  -6  -8    3.81    7.38
   8   6  -8    3.96    6.39
   8  -6   8    2.71    5.84
  -8  -6  10  188.47   16.81
   8   6 -10  164.19   16.46
   8  -6 -10  145.40   16.58
  -8  -6 -10  175.58   18.00
  -8   6 -10  167.09   18.59
  -8   6 -10  147.93   13.46
   8   6  10  139.03   15.76
   8   6 -10  168.71   17.05
   8   6 -12  241.15   18.37
   8  -6 -12  272.07   19.96
  -8   6 -12  224.52   20.10
  -8  -6 -12  247.19   19.87
  -8  -6  12  254.24   17.54
   8   6  12  208.30   18.07
   8   6 -12  242.43   19.52
  -8   6 -14  286.32   18.99
  -8  -6 -14  266.52   18.11
   8   6 -14  269.94   16.75
   8  -6 -14  272.83   17.13
   8   6  14  227.66   16.15
   8   6 -14  266.31   17.83
   8   6 -16   57.44   12.68
   8   6 -16   43.16   10.87
  -8  -6 -16   47.59   11.69
  -8   6 -16   49.14   12.15
   8  -6 -16   49.22   11.16
   8   6  16   34.23    9.83
   8   6  18    0.68    7.45
   8   6 -18    4.11    4.00
  -8  -6 -18    3.45    3.88
  -8   6 -18   11.21    5.80
   8  -6 -18    0.39    4.12
   8   6 -18    4.55    4.57
   8   6  20    5.86    5.02
   8   6 -20   13.46    4.04
   8   6 -20    8.29    5.85
   8  -6 -20   23.55    8.63
   8   6  20    9.81    4.46
  -8  -6 -20   17.28    8.17
   8   6 -20    7.26    6.71
   8  -6 -20    9.39    3.39
  -8   6 -20   12.72    7.59
  -8  -6 -20   11.76    4.71
   8  -6 -20    9.77    3.99
   8   6 -22    2.32    2.31
   8   6  22    2.55    5.57
   8   6  22    2.55    3.38
  -8   6 -22    0.00    4.18
   8   6 -22    0.29    4.42
  -8  -6 -22    2.55    7.49
   8  -6 -22    2.11    6.45
   8  -6 -22    1.18    2.15
   8   6 -22    0.70    6.43
  -8  -6 -22    2.55    3.98
   8  -6 -22    0.12    2.25
   8   6 -24   10.54    4.37
   8   6  24    7.30    7.05
  -8   6 -24   19.06    9.15
   8   6  24    6.59    4.89
   8   6 -24    3.73    4.64
  -8  -6 -24   25.33   10.08
   8  -6 -24   11.48    6.93
   8  -6 -24   16.15    4.58
   8   6 -24   12.22    7.42
  -8  -6 -24   19.73    6.18
   8  -6 -24   12.26    4.26
   8  -6 -26  140.10   11.83
  -8  -6 -26  139.17   13.61
   8  -6 -26  152.60   12.27
   8   6 -26  144.14   11.47
   8  -6 -28  133.75   12.23
  -8  -6 -28  134.55   14.50
   8  -6 -28  154.39   12.66
   8   6 -28  154.58   12.41
   8   6 -30   18.50    4.63
   8  -6 -30   22.72    5.24
   8  -6 -30   25.43    5.37
   8   6 -32   15.32    4.50
   8  -6 -32   10.66    4.29
   8  -6 -32   15.15    5.03
   8  -6 -34    7.72    3.22
   8  -6 -34    9.62    3.21
   8   6 -34    5.43    3.03
   8  -6 -36    2.78    2.16
   8   6  36    0.05    2.96
   8  -6 -36    3.42    2.16
   8   6 -36    5.66    2.73
   8   8   0  104.80   10.60
   8  -8   0   78.25   10.57
   8   8   0  100.44   10.01
   8   8   0  101.08    7.62
   8   8  -2   57.54   10.01
   8   8   2   45.98    9.45
   8  -8  -2   57.09    9.49
   8   8  -2   48.65    8.73
   8  -8   2   23.61    9.53
   8   8  -2   54.83    8.05
   8   8   2   30.77    4.61
   8   8   4  118.24   13.72
   8   8  -4  130.86   14.23
  -8  -8  -4  131.20   12.93
   8  -8   4   84.21   15.09
   8   8  -4  101.46   11.48
   8  -8  -4  109.66   12.45
   8   8  -4  121.98   12.88
  -8   8  -6   12.74    7.28
   8  -8   6   26.46    9.85
  -8  -8  -6   22.72    8.56
   8   8   6   15.95    8.17
   8   8  -6   13.42    7.41
   8   8  -6   15.45    7.26
   8  -8   6    2.30    4.69
   8  -8  -6   18.06    8.35
   8   8  -6    8.71    5.52
   8   8  -8   89.57    9.52
  -8   8  -8   66.36    7.17
   8   8   8   60.73    8.22
   8  -8   8   76.34   10.77
   8  -8  -8   99.00   10.96
  -8   8  -8   70.52    8.15
  -8  -8  -8   72.77    8.30
  -8  -8   8   69.43    8.64
   8   8  -8   64.06    7.83
   8   8 -10  131.70   16.30
  -8  -8  10  149.22   16.22
   8  -8 -10  139.60   18.08
   8  -8  10  112.09   17.56
  -8   8 -10  154.20   18.61
  -8  -8 -10  139.72   16.57
  -8   8 -10  123.27   14.17
   8   8 -10  129.10   16.62
   8   8  10  108.04   15.65
   8   8 -12  458.02   26.85
  -8  -8  12  481.08   26.00
   8  -8 -12  498.71   29.72
  -8   8 -12  505.51   30.73
  -8  -8 -12  459.84   27.30
   8  -8  12  457.81   27.20
   8   8 -12  477.35   28.59
   8   8  12  397.13   25.98
   8   8 -14  362.01   27.52
  -8  -8  14  333.29   23.18
   8  -8 -14  358.47   28.62
  -8   8 -14  345.08   28.80
  -8  -8 -14  333.61   26.78
   8   8  14  271.14   25.47
   8   8 -14  370.48   28.72
   8   8 -16  140.98   16.09
  -8   8 -16  123.82   16.39
  -8  -8 -16  129.67   15.81
   8  -8 -16  147.61   16.53
   8   8  16  113.35   14.91
   8   8 -16  149.35   16.85
   8   8 -18   18.11    3.37
   8   8  18   28.05    7.67
  -8   8 -18   11.51    4.90
  -8  -8 -18   21.64    6.28
   8  -8 -18   17.55    5.18
   8   8 -18   29.89    7.57
   8   8 -18   18.38    5.09
   8   8 -20   15.38    4.08
   8   8 -20   12.67    6.16
  -8   8 -20   10.29    5.01
  -8  -8 -20   13.46    5.05
   8  -8 -20   10.03    5.42
   8   8  20   19.64    7.77
   8   8  20    9.90    3.53
   8   8 -20   16.27    6.64
   8  -8 -20   13.01    3.74
   8  -8 -20   13.09    3.87
   8   8 -22    1.88    2.77
   8   8  22    1.29    5.40
   8   8  22    1.29    3.16
  -8   8 -22    0.88    4.95
  -8  -8 -22    2.57    4.10
   8  -8 -22    0.27    4.39
   8   8 -22    0.33    4.22
   8   8 -22    0.50    3.73
   8  -8 -22    0.57    2.53
  -8  -8 -22    0.85    3.48
   8  -8 -22    0.29    2.40
   8   8  24   47.05    7.44
   8   8 -24   40.53   11.02
  -8   8 -24   47.43   11.39
  -8  -8 -24   38.33    9.98
   8  -8 -24   44.45   12.13
   8   8  24   53.93   13.12
   8  -8 -24   58.91    7.54
   8   8 -24   44.07   11.20
   8  -8 -24   62.45    7.56
   8   8 -24   54.83    6.84
  -8  -8 -24   51.08    7.76
   8  -8 -26  102.64   10.33
  -8  -8 -26   86.16   11.24
   8   8 -26  110.51   10.31
   8  -8 -26  110.70   10.61
   8  -8 -28  199.44   13.57
  -8  -8 -28  194.34   15.45
   8   8 -28  215.17   13.19
   8  -8 -28  242.43   14.55
   8  -8 -30   94.09    9.50
   8  -8 -30   72.01    8.32
   8   8 -30   97.87    8.91
   8  -8 -30   85.47    9.11
   8  -8 -32    5.02    3.56
   8  -8 -32    0.05    3.13
   8   8 -32    2.82    2.96
   8  -8 -34   24.58    4.87
   8  -8 -34   17.14    4.12
   8   8 -34   25.99    4.57
   8  -8 -36    3.52    2.12
   8   8  36    4.90    3.77
   8  -8 -36    3.81    2.44
   8   8 -36    8.40    3.02
   8  10   0 1190.21   35.63
   8  10   0 1104.53   27.73
   8  10   2  101.47   13.39
   8 -10   2  109.20   16.19
   8 -10  -2  117.75   15.12
  -8 -10  -2  117.79   11.88
   8  10  -2  110.70   13.59
   8  10   2   92.69    9.15
   8  10  -2  104.32   11.86
   8  10  -4    2.19    4.01
   8  10  -4    2.10    5.32
   8 -10   4    2.14    5.56
  -8 -10  -4    2.11    3.43
   8  10  -4    1.88    3.87
  -8  10  -4    1.67    3.97
   8  10   4    2.29    4.68
   8 -10  -4    1.69    3.94
  -8  10  -6   15.07    5.76
   8  10  -6   12.72    4.35
  -8 -10   6   16.26    6.08
  -8 -10  -6   20.21    5.10
   8  10  -6   15.19    5.05
   8  10   6   15.44    5.48
   8 -10   6   22.68    6.99
   8  10  -6   19.42    5.93
   8 -10  -6   18.00    4.99
  -8  10  -8    0.04    5.40
   8 -10   8    0.07    6.14
   8  10  -8    2.48    7.26
  -8  10  -8    0.17    5.63
  -8 -10  -8    0.22    5.12
   8  10   8    0.02    5.84
   8  10  -8    0.03    5.38
  -8 -10   8    0.48    5.42
   8  10  10  243.32   18.63
   8  10 -10  301.08   20.45
  -8 -10  10  296.12   19.52
   8 -10 -10  298.43   22.08
  -8 -10 -10  282.88   18.16
   8 -10  10  275.25   20.91
  -8  10 -10  299.86   21.37
  -8  10 -10  249.61   16.73
   8  10 -10  293.41   20.53
   8  10  12  243.55   17.65
   8  10 -12  303.94   19.09
  -8 -10  12  301.80   18.23
   8 -10 -12  310.98   21.39
  -8 -10 -12  291.78   17.93
   8 -10  12  284.96   20.03
  -8  10 -12  249.40   16.12
   8  10 -12  296.13   19.69
  -8  10 -12  291.32   20.20
   8  10  14  231.34   22.49
   8  10 -14  288.57   23.93
  -8 -10  14  307.64   21.85
   8 -10  14  270.22   23.20
   8 -10 -14  347.28   27.01
  -8 -10 -14  264.77   21.57
  -8  10 -14  288.65   25.29
   8  10 -14  300.54   24.60
   8  10  16  326.85   29.68
   8  10 -16  399.19   30.54
   8 -10 -16  428.79   33.19
  -8 -10 -16  331.94   27.18
  -8  10 -16  374.51   32.22
   8  10 -16  394.36   30.75
   8  10 -18   66.61   13.38
   8 -10 -18   74.13   13.97
   8  10  18   59.52   13.70
   8  10  18   50.62    8.00
  -8 -10 -18   53.08   11.47
  -8  10 -18   65.88   14.06
   8 -10 -18   68.31    8.28
   8  10 -18   67.55    8.11
   8  10 -18   70.41   13.82
  -8 -10 -20   18.94    8.46
   8  10  20   32.29   11.96
   8  10 -20   17.37    8.29
   8  10  20   20.75    6.26
   8 -10 -20   17.32    8.43
  -8  10 -20   18.60   10.17
   8  10 -20   31.72    9.63
   8 -10 -20   24.39    5.86
   8  10 -20   27.14    5.89
   8 -10 -20   21.83    5.95
   8  10 -22    1.80    2.31
   8  10 -22    1.68    3.92
   8  10  22    1.25    4.62
  -8 -10 -22    1.25    7.82
   8 -10 -22   11.02    7.04
   8  10  22    7.58    3.24
   8  10 -22    1.68    5.50
   8 -10 -22    6.76    3.41
  -8 -10 -22    1.25    3.19
  -8  10 -22    4.14    4.11
   8 -10 -22    6.99    3.29
   8  10  24   15.21    9.15
  -8  10 -24   19.13    8.13
   8 -10 -24    7.52    4.50
   8  10  24   20.79    6.28
   8  10 -24   13.95    7.29
   8 -10 -24    6.61    3.77
  -8 -10 -24   20.32    6.37
   8 -10 -24    5.93    3.31
   8  10 -24    7.35    3.24
   8 -10 -26  175.09   13.94
   8  10 -26  166.11   12.88
  -8 -10 -26  156.54   14.83
   8 -10 -26  182.74   14.16
   8 -10 -28  116.68   11.62
   8  10 -28  130.37   11.28
  -8 -10 -28  112.26   13.01
   8 -10 -28  137.23   12.29
   8 -10 -30   91.03    9.63
   8  10 -30  102.79    9.89
  -8 -10 -30   86.75   11.07
   8 -10 -30  112.01   10.42
   8 -10 -32    8.29    2.56
   8 -10 -32   15.64    3.15
   8  10 -32   12.15    3.05
   8 -10 -34   14.85    3.85
   8  10  34   19.79    5.99
   8 -10 -34   14.44    4.18
   8  10 -34   14.69    3.89
   8 -10 -36    0.16    1.95
   8  10  36    0.07    3.28
   8 -10 -36    6.00    2.48
   8  10 -36    1.59    2.12
   8 -12   0 1186.76   43.91
   8  12   0 1072.71   41.87
  -8 -12   0 1141.59   41.96
  -8 -12  -2  338.87   22.24
  -8 -12   2  366.40   22.42
   8 -12   2  373.03   24.29
   8 -12  -2  396.76   23.38
   8  12   2  356.95   23.44
   8  12  -2  354.31   22.86
   8  12  -2  322.36   18.49
  -8 -12   4   61.61    9.49
   8 -12  -4   67.17    9.66
   8  12   4   80.37   11.89
   8 -12   4   57.21   10.86
  -8  12  -4   77.09   10.69
   8  12  -4   65.08   10.17
   8  12  -4   59.51    9.08
   8  12   6   76.65   11.59
   8 -12  -6   81.91    9.94
   8 -12   6   84.54   12.43
  -8 -12  -6   67.00    7.81
  -8 -12   6   66.27   10.10
  -8  12  -6   68.04   10.09
   8  12  -6   68.53    9.98
   8  12  -6   68.44    9.65
  -8  12  -8   21.73    8.21
   8 -12   8   21.99    9.69
   8 -12  -8   25.76    7.46
  -8  12  -8   21.69    8.20
  -8 -12   8   24.24    8.83
   8  12  -8   19.89    7.71
   8  12   8   12.22    7.77
  -8 -12  -8   20.71    6.84
   8  12 -10   73.79   12.14
  -8 -12 -10   53.06   10.22
  -8 -12  10   64.63   10.46
  -8  12 -10   78.47   12.53
  -8 -12 -10   60.46    9.24
   8 -12  10   63.92   12.76
   8  12  10   56.65   10.94
  -8  12 -10   63.63   10.32
   8  12 -10   62.02   10.83
   8  12 -12  144.19   15.78
   8  12  12  131.52   15.14
  -8 -12 -12  113.55   13.35
  -8 -12  12  161.91   14.92
   8 -12  12  108.95   15.24
  -8 -12 -12  130.10   12.38
   8 -12 -12  155.94   17.78
  -8  12 -12  125.12   14.87
  -8  12 -12  112.78   12.19
   8  12 -12  153.56   15.39
   8  12  14  179.39   18.70
   8  12 -14  221.81   20.30
  -8 -12 -14  162.98   16.74
  -8 -12  14  219.30   17.53
   8 -12  14  151.07   18.94
   8 -12 -14  239.13   22.04
  -8 -12 -14  163.98   15.22
  -8  12 -14  186.52   18.63
   8  12 -14  204.02   18.84
   8  12  16  225.27   23.70
   8  12 -16  263.82   24.78
   8 -12  16  242.44   23.03
   8 -12 -16  279.03   27.14
  -8  12 -16  261.77   25.47
  -8 -12 -16  221.54   20.41
   8 -12 -16  249.10   14.56
   8  12  16  193.71   13.63
   8  12 -16  242.40   14.30
   8  12 -16  268.36   24.88
   8  12  18  173.97   21.60
   8  12  18  145.77   12.37
   8 -12 -18  212.47   23.24
  -8 -12 -18  146.41   17.35
  -8  12 -18  175.48   21.35
   8 -12 -18  182.79   12.83
   8  12 -18  179.50   12.36
   8  12 -18  183.31   21.23
   8  12  20    0.24    2.75
  -8 -12 -20    1.19    7.23
   8  12  20    8.33    7.73
   8 -12 -20    3.75    6.93
   8  12 -20    0.65    4.22
  -8  12 -20    0.61    5.35
   8 -12 -20    2.17    3.05
   8  12 -20    1.24    2.75
   8 -12 -20    0.54    2.62
   8  12  22    0.39    4.83
  -8  12 -22    5.48    4.25
   8  12  22    0.88    6.18
   8 -12 -22   16.76    7.05
   8  12 -22    0.34    3.95
   8 -12 -22    3.76    2.60
   8  12 -22    2.56    2.60
   8 -12 -22    0.75    2.88
   8  12  24   12.05    4.97
   8 -12 -24    1.19    3.07
  -8 -12 -24    2.71    3.58
   8  12 -24    3.60    2.51
   8 -12 -24    6.89    3.38
   8  12  26   43.53    8.37
   8 -12 -26   54.17    8.39
   8  12 -26   60.72    7.66
   8 -12 -26   61.04    8.38
  -8 -12 -26   43.60    7.90
   8 -12 -28  108.33   10.66
   8  12 -28  123.92   10.52
  -8 -12 -28  104.95   11.92
   8 -12 -28  123.09   11.17
   8 -12 -30   30.34    5.27
   8  12 -30   42.77    6.24
  -8 -12 -30   34.41    6.51
   8 -12 -30   33.98    5.73
   8 -12 -32    3.86    2.84
   8  12  32    4.63    3.55
   8  12 -32    8.78    3.26
   8 -12 -32    5.03    2.51
   8 -12 -34    2.02    2.39
   8  12  34    1.71    3.29
   8  12 -34    3.92    2.57
   8 -12 -34    2.22    2.58
   8 -12 -36    2.95    1.63
   8  12  36    0.10    2.85
   8  12 -36    7.26    2.37
   8 -12 -36    0.59    1.70
   8 -14   0  157.46   17.73
   8  14   0  186.11   17.84
  -8 -14   0  188.48   17.29
   8  14   0  177.42   14.01
  -8 -14  -2  202.93   18.61
  -8 -14   2  210.48   18.84
   8 -14   2  216.20   19.25
   8 -14  -2  187.13   19.04
   8  14   2  194.09   19.84
   8  14  -2  183.51   19.05
   8  14  -2  133.11   13.32
   8  14  -4   35.21    7.09
  -8  14  -4   52.66    9.23
   8  14   4   50.66    8.94
   8 -14   4   47.34    8.72
   8 -14  -4   43.38    7.53
   8  14  -4   32.41    6.53
  -8 -14   4   41.90    7.85
  -8 -14  -4   45.17    7.59
  -8 -14  -6  547.98   29.73
  -8 -14   6  586.97   30.01
  -8  14  -6  577.15   30.85
   8 -14   6  628.56   32.47
  -8  14  -6  568.05   31.63
   8  14  -6  558.80   30.28
   8 -14  -6  603.96   29.10
   8  14   6  526.86   32.20
   8  14  -6  517.26   27.97
  -8  14  -8    6.59    5.13
  -8 -14  -8    8.37    4.90
   8 -14   8    8.71    6.45
   8 -14  -8    4.12    3.33
  -8 -14   8    4.37    3.85
  -8  14  -8    5.96    4.52
   8  14  -8   10.32    5.51
   8  14   8   10.30    6.29
  -8  14 -10   14.13    6.62
  -8 -14  10   11.69    5.66
  -8  14 -10    6.20    5.47
   8  14 -10   10.47    6.17
  -8 -14 -10    9.13    5.11
   8 -14  10   14.12    6.41
   8  14  10    9.94    6.58
  -8 -14 -12   35.22    7.84
  -8  14 -12   45.76    7.97
  -8  14 -12   47.86    9.25
   8 -14  12   37.57   10.13
   8  14 -12   45.49    8.58
   8  14  12   29.57    6.98
  -8 -14  12   56.17    9.28
   8 -14  14   12.42    5.30
  -8  14 -14   23.68    6.11
  -8  14 -14   20.28    5.80
   8  14  14   28.92    5.18
  -8 -14  14   26.95    6.49
  -8 -14 -14   29.37    7.20
   8  14 -14   21.74    6.01
   8 -14 -14   34.93   11.27
   8  14  14   27.53    7.94
   8 -14 -14   29.77    4.73
   8  14 -14   25.89    4.17
  -8  14 -16   32.87   12.08
   8 -14  16    6.66    9.95
   8  14  16   21.19    6.12
   8 -14 -16   38.34   13.05
   8  14 -16   24.67    9.80
   8  14  16   24.39   11.29
   8  14  16    3.41    4.67
   8 -14 -16   28.36    6.60
   8  14 -16   32.25    6.61
   8 -14  18   26.91    9.42
   8  14  18   31.87    5.92
  -8  14 -18   27.16    8.27
   8 -14 -18   49.64   11.33
   8  14 -18   37.51    9.56
   8  14  18   31.59    9.89
   8  14  18    7.97    2.99
   8 -14 -18   38.81    5.90
   8  14 -18   43.72    5.88
   8  14  20    4.63    3.84
  -8  14 -20    0.61    4.63
   8 -14 -20   16.06    8.67
   8  14  20    7.85    8.12
   8  14 -20    4.37    5.61
   8 -14 -20   12.49    4.64
   8  14 -20    9.56    3.90
   8 -14 -20    9.18    4.19
   8  14 -22  101.35   17.41
   8  14  22   78.72   10.15
   8 -14 -22   89.71   16.77
   8  14  22   79.56   17.46
   8 -14 -22   93.28   10.01
   8  14 -22   95.23    9.58
   8 -14 -22   88.63    9.99
   8 -14 -24    2.67    2.85
   8  14  24    1.68    3.06
   8  14 -24    1.53    2.65
   8 -14 -24    2.24    3.15
   8  14  26    0.22    3.05
   8  14  26    0.20    3.98
   8 -14 -26    2.82    2.93
   8  14 -26    5.17    3.08
   8 -14 -26    1.15    2.75
   8 -14 -28   72.23    8.61
   8  14 -28   67.52    7.98
   8 -14 -28   67.35    8.25
   8  14  30    0.09    4.65
   8 -14 -30    4.63    2.83
  -8 -14 -30    8.92    4.05
   8  14 -30    8.06    3.29
   8 -14 -30    8.09    3.19
   8 -14 -32   24.84    4.69
   8  14 -32   15.52    3.86
   8 -14 -32   25.40    4.74
   8  14  34    8.15    2.91
   8  14 -34   16.23    3.21
   8 -14 -34   17.81    3.23
   8  16   0    0.27    3.80
   8 -16   0    0.14    5.05
  -8 -16   0    1.68    4.21
   8  16   0    0.02    4.25
  -8  16  -2    9.39    6.86
  -8 -16   2    8.25    5.62
   8 -16   2    5.37    5.71
   8 -16  -2    7.43    6.28
  -8 -16  -2    6.77    5.93
   8  16  -2    3.39    4.46
   8  16  -2    3.77    4.74
   8  16   2    0.14    4.84
  -8 -16   4  122.88   15.98
   8 -16   4  125.23   16.82
  -8  16  -4  137.22   18.77
   8  16   4  130.63   18.56
   8  16  -4   99.49   16.29
   8 -16  -4  125.47   16.04
  -8 -16  -4  110.49   15.47
   8  16  -4  110.92   14.52
  -8 -16  -6  358.83   27.90
  -8 -16   6  294.61   25.45
   8 -16   6  330.66   28.13
   8 -16  -6  300.92   24.87
   8  16   6  326.13   29.87
  -8  16  -6  319.41   26.47
  -8  16  -6  362.26   30.15
   8  16  -6  257.52   23.49
  -8 -16  -8  594.65   31.53
  -8 -16   8  672.12   32.69
   8 -16   8  638.77   33.87
   8 -16  -8  666.64   30.89
   8  16   8  586.28   34.56
  -8  16  -8  627.09   33.14
  -8  16  -8  599.59   33.45
   8  16  -8  597.98   31.59
  -8 -16 -10   13.51    5.77
  -8 -16  10    7.75    4.60
  -8  16 -10   18.07    7.10
   8  16  10   10.87    3.97
   8  16 -10    6.44    5.22
   8 -16  10    4.19    5.38
  -8  16 -10   19.06    7.59
   8  16  10    9.49    6.05
  -8 -16 -12    7.17    5.52
  -8  16 -12   12.79    5.96
   8 -16  12    2.56    4.12
  -8  16 -12   10.37    3.89
   8  16  12    0.71    3.36
   8  16 -12    5.83    5.22
  -8 -16  12   19.70    6.31
   8 -16 -12    5.96    2.89
   8  16 -12    0.36    2.53
   8  16  12    1.75    5.55
  -8 -16  14    0.31    5.47
   8 -16  14    0.25    5.24
   8  16  14    0.67    3.01
  -8  16 -14    1.03    4.65
   8  16 -14    0.31    5.71
   8 -16 -14    0.16    5.37
   8  16  14    0.44    2.36
   8 -16 -14    1.20    2.92
   8  16  14    0.44    6.20
   8  16 -14    0.01    2.28
   8 -16  16   32.96    9.95
   8  16  16   48.25    7.68
   8  16 -16   50.54   12.20
   8 -16 -16   50.29   13.99
   8  16  16   10.98    4.99
   8 -16 -16   54.04    7.50
   8  16 -16   53.04    7.34
   8  16  16   31.54   10.72
   8  16  18   15.01    4.26
   8 -16  18   51.61   11.11
   8  16  18   57.38    7.46
   8 -16 -18   73.84   13.70
   8  16 -18   66.91   12.04
   8 -16 -18   69.38    7.58
   8  16 -18   62.56    6.84
   8  16  18   55.61   12.90
   8  16  20   63.99    7.98
   8 -16 -20   75.19   13.51
   8  16 -20   65.37   12.79
   8 -16 -20   73.22    7.71
   8  16 -20   68.02    7.31
   8  16  20   66.14   13.48
   8 -16 -20   72.04    7.68
   8  16  22   79.21    9.56
   8 -16 -22  100.04    9.66
   8  16 -22   90.39    8.65
   8 -16 -22   95.38    8.95
   8  16  24  138.86   12.73
   8 -16 -24  172.11   12.34
   8  16 -24  160.07   11.19
   8 -16 -24  163.34   11.96
   8  16  26    0.15    4.37
   8  16  26    4.43    4.39
   8 -16 -26    5.22    3.34
   8  16 -26    1.93    2.68
   8 -16 -26    2.38    2.75
   8  16  28    0.18    3.24
   8 -16 -28    0.77    2.60
   8  16 -28    1.14    2.61
   8 -16 -28    6.32    3.43
   8  16  30    0.02    4.46
   8 -16 -30    0.14    3.28
   8  16 -30    3.08    2.96
   8 -16 -30    2.31    2.76
   8  16 -32   73.42    7.22
   8 -16 -32   72.54    7.36
   8  16 -34   92.19    6.92
   8 -16 -34   82.67    6.87
   8 -16 -34   90.18    6.96
  -8 -18   0   18.40    8.71
   8  18   0   11.43    8.87
  -8  18   0   17.26   10.73
   8 -18   0    9.77    6.95
  -8 -18  -2   88.29   14.51
  -8 -18   2   83.84   14.01
   8 -18   2   84.84   14.48
   8 -18  -2   79.93   13.92
   8  18  -2   69.24   14.63
   8  18   2   79.36   16.26
  -8  18  -2  110.56   18.86
   8  18  -2   60.79   11.43
  -8 -18  -4  126.02   16.21
  -8  18  -4  130.01   17.71
   8 -18  -4  151.78   16.37
   8 -18   4  137.37   17.18
   8  18   4  109.36   16.25
  -8 -18   4  112.58   14.41
   8  18  -4  103.82   16.38
   8  18  -4  111.66   14.26
  -8 -18  -6  225.54   20.03
  -8 -18   6  190.99   17.64
   8 -18   6  268.35   21.81
   8  18   6  207.45   12.58
   8  18   6  205.75   21.51
   8  18  -6  164.16   10.32
  -8  18  -6  253.17   22.97
   8 -18  -6  178.98   17.19
   8  18  -6  167.49   16.45
  -8 -18   8  541.33   33.48
   8 -18   8  428.61   32.51
   8 -18  -8  480.76   30.71
   8  18   8  371.89   19.48
   8  18   8  392.59   33.80
  -8 -18  -8  417.78   30.73
   8  18   8  308.72   17.51
   8  18  -8  434.28   19.39
  -8  18  -8  474.60   35.46
   8  18  -8  437.31   31.73
   8  18   8  304.22   17.23
  -8 -18 -10   60.28   13.11
  -8 -18  10   74.00   13.68
   8  18  10   55.68   14.41
   8  18  10   61.34    9.15
   8 -18  10   54.27   12.98
   8  18 -10   58.86   12.52
   8  18  10   48.07    7.53
  -8  18 -10   53.79   13.00
   8  18 -10   52.84    7.81
   8 -18 -10   64.25    8.90
   8  18  12    1.41    6.40
  -8 -18 -12    4.23    3.81
  -8  18 -12    6.77    4.10
   8  18  12    8.78    4.29
   8  18 -12   11.02    6.68
  -8 -18  12   16.48    6.45
   8 -18 -12    9.20    3.72
   8  18 -12   12.38    3.92
   8 -18  12    9.50    6.47
   8  18  14    6.54    7.24
  -8 -18  14    2.21    4.19
   8 -18  14    6.14    6.49
  -8  18 -14    0.46    3.75
   8  18  14   12.04    5.24
   8  18 -14   12.54    7.59
   8 -18 -14   13.53    5.24
   8  18 -14    6.17    3.51
   8  18  16   32.01    7.64
   8  18 -16   51.19   11.38
   8 -18 -16   59.50   13.73
   8  18  16   42.73    6.14
   8 -18 -16   61.04    7.27
   8  18 -16   57.79    6.44
   8 -18  16   26.19    7.62
   8  18  18  190.45   22.99
   8 -18 -18  214.44   25.17
   8  18  18  200.75   14.15
   8 -18  18  151.42   19.08
   8  18 -18  220.56   13.30
   8 -18 -18  230.34   13.98
   8  18 -18  205.98   22.22
   8 -18 -20  157.86   13.05
   8  18 -20  154.44   12.00
   8  18  20  118.76   12.87
   8 -18 -20  138.46   12.25
   8  18  22  108.72   12.84
   8 -18 -22  129.15   11.96
   8  18 -22  119.60   11.15
   8 -18 -22  115.71   11.58
   8  18  24   70.59    9.26
   8 -18 -24   87.66    9.02
   8  18 -24   74.86    7.89
   8 -18 -24   75.61    8.15
   8  18  26    0.31    2.84
   8 -18 -26    1.78    3.44
   8  18 -26    3.73    2.58
   8 -18 -26    0.31    2.77
   8  18  28    0.03    3.51
   8 -18 -28    1.09    2.76
   8  18 -28    1.34    2.66
   8 -18 -28    0.13    2.67
   8 -18 -30    5.95    2.79
   8  18 -30   14.06    3.65
   8 -18 -30   18.94    4.16
   8 -18 -32   67.98    6.53
   8  18 -32   63.84    6.30
   8 -18 -32   70.21    6.70
   8  20   0    0.62    2.34
  -8  20   0    0.13    6.54
  -8 -20   0    0.62    4.45
   8 -20   0    1.32    4.82
   8  20   0    1.85    2.50
   8  20   0    0.62    3.43
   8  20   0    0.62    5.68
   8  20   2   10.44    3.84
   8  20  -2   17.51    5.26
  -8  20  -2   17.33   10.28
  -8 -20  -2   20.49    7.44
  -8 -20   2   10.10    6.12
   8 -20   2   15.30    6.51
   8 -20  -2   15.15    7.11
   8  20   2   15.60   10.25
   8  20  -2   21.33    9.80
   8  20   2   16.14    5.35
   8  20   2   19.60    5.50
   8  20  -2   17.53    5.17
   8  20   4   75.72    7.88
   8  20   4  103.51   17.14
  -8  20  -4   86.33    8.87
  -8 -20  -4   95.57   14.68
  -8 -20   4   95.39   13.69
   8 -20  -4   97.20   14.49
   8  20   4  102.63    9.64
   8 -20   4   91.96   14.19
   8  20   4   94.00    9.35
   8  20  -4   97.60    9.30
  -8  20  -4  119.33   18.06
   8  20  -4   82.63   13.58
   8  20   6   75.05    7.75
  -8 -20  -6   96.43   14.61
  -8  20  -6   86.75   15.76
   8 -20   6  109.37   14.84
  -8 -20   6   72.55   11.21
   8  20   6   95.96    9.00
   8 -20  -6   74.89   11.77
   8  20  -6   64.59   10.47
   8  20   6  102.87    9.62
   8  20  -6   82.51    7.80
   8  20   6   97.23   16.14
  -8 -20  -8   78.95   16.45
  -8 -20   8   91.79   16.58
   8  20   8   74.99   10.43
   8 -20   8   74.24   17.00
   8  20   8   79.12   10.72
   8  20   8   69.13   17.72
   8  20  -8   89.22   10.66
  -8  20  -8   82.69   18.17
   8  20  -8   84.39   16.59
   8  20   8   69.96   10.16
   8  20  10   38.86    7.50
  -8  20 -10   48.32   13.08
   8  20  10   48.85    8.73
  -8 -20  10   47.23   11.94
   8 -20  10   41.30   12.49
  -8 -20 -10   38.32   11.39
   8  20  10   43.24   14.44
   8  20 -10   47.99    7.73
   8  20 -10   27.86   10.18
   8 -20 -10   42.02    7.87
   8  20 -12    0.05    4.71
  -8 -20 -12    2.58    3.86
  -8 -20  12    3.21    4.11
  -8  20 -12    4.75    4.74
   8 -20  12    0.21    7.63
   8  20  12   18.56    9.99
   8  20  12    4.26    2.71
   8 -20 -12    8.10    3.15
   8  20 -12    6.47    3.09
  -8 -20  14    8.97    6.32
   8  20  14    0.38    6.60
   8 -20  14    1.01    4.72
  -8  20 -14    0.11    7.14
   8  20  14    0.38    3.62
   8  20 -14    3.08    4.24
   8 -20 -14    0.06    3.46
   8  20 -14    0.08    2.74
   8  20  16    0.43    3.08
   8  20  16    1.33    9.19
   8  20 -16    0.87    5.91
   8 -20 -16    7.42    9.05
   8 -20  16    1.58    5.77
   8 -20 -16    0.39    2.62
   8  20 -16    1.47    3.78
   8  20  18   80.82    9.26
   8  20 -18   98.83    8.97
   8 -20 -18   95.51    9.52
   8 -20 -20  251.53   16.73
   8  20 -20  271.33   16.19
   8 -20 -20  240.12   15.90
   8  20  22   77.07   10.15
   8 -20 -22   91.49    9.73
   8  20 -22   74.30    8.48
   8 -20 -22   80.33    8.95
   8  20  24    0.32    2.95
   8 -20 -24    0.51    3.44
   8  20 -24    0.65    3.20
   8 -20 -24    0.75    3.25
   8 -20 -26    1.07    2.80
   8  20 -26    4.10    2.85
   8 -20 -26    5.30    3.02
   8 -20 -28    0.62    2.96
   8  20 -28    0.09    2.35
   8 -20 -28    1.48    3.14
   8 -20 -30    1.31    2.26
   8  20 -30    8.84    2.30
   8 -20 -30    0.30    2.38
   8 -20 -32   27.40    3.70
   8  20 -32   29.21    3.96
   8 -20 -32   29.09    4.01
   8  22   0    0.33    4.12
  -8  22   0    8.31    8.45
  -8  22   0    2.13    2.93
  -8 -22   0    8.20    5.15
   8 -22   0    2.38    5.34
   8  22   0    8.20    4.11
   8  22   0    0.92    3.74
   8  22   0    8.20    7.43
   8  22   2    6.32   10.04
   8  22   2    4.55    3.09
   8  22  -2    3.67    2.38
  -8  22   2    1.01    9.03
  -8  22  -2    2.03    8.22
  -8  22  -2    5.20    3.26
  -8 -22   2    2.80    4.74
   8 -22   2    5.20    8.22
   8 -22  -2    5.05    6.79
   8  22   2    2.42    3.24
   8  22  -2    2.97    5.82
   8  22   2    3.10    3.45
   8  22  -2    2.81    3.66
  -8 -22  -2    4.55    6.80
   8  22   4    2.21    2.92
   8  22  -4    2.38    2.60
  -8  22  -4    2.26    3.42
  -8  22  -4    5.28    6.58
  -8 -22   4    3.48    6.48
   8 -22   4    3.72    5.51
   8 -22  -4    3.43    6.31
  -8 -22  -4    2.05    5.53
   8  22   4    2.05    2.91
   8  22   4    2.76    5.56
  -8  22   4    2.50    8.34
   8  22   4    1.58    3.54
   8  22  -4    3.13    3.35
   8  22   6  126.96   11.95
   8  22  -6  132.50   11.40
  -8  22  -6  142.95   12.93
  -8 -22  -6  116.66   16.80
  -8 -22   6  158.95   19.49
   8 -22   6   94.37   18.53
   8  22   6  148.99   12.86
   8 -22  -6  129.11   18.39
   8  22   6  162.36   13.47
   8  22   6  122.80   21.76
   8  22  -6  165.00   12.87
  -8  22  -6  173.16   24.00
   8  22  -6  109.71   17.31
  -8  22  -8    7.67    4.07
  -8  22  -8    8.29    7.98
  -8 -22   8    8.58    5.65
   8 -22   8    8.67    6.63
  -8 -22  -8   15.42    7.54
   8  22   8    6.30    3.19
   8  22  -8    9.48    5.65
   8  22   8    5.70    3.89
   8  22  -8    9.78    3.79
   8 -22  -8    8.10    4.11
   8  22   8    1.43    8.32
   8  22   8    6.50    3.72
  -8 -22  10  130.42   17.25
   8 -22  10  151.49   19.42
  -8 -22 -10   80.79   13.41
   8  22  10  157.47   12.31
  -8  22 -10  121.25   17.85
   8  22 -10   91.90   15.96
   8  22  10  136.44   20.96
   8  22 -10  151.95   11.29
   8 -22 -10  155.59   12.03
  -8 -22  12   20.16    9.63
   8 -22  12   16.86   10.49
   8  22  12   29.37    7.89
   8  22 -12   20.57   10.72
  -8  22 -12   13.50    9.21
   8  22 -12   35.03    7.65
   8  22  12   13.66    9.76
   8 -22 -12   25.26    7.22
   8  22  14   50.51    6.54
   8 -22 -14   48.29    6.39
   8  22 -14   48.21    5.84
   8  22  16    9.94    4.94
   8 -22 -16   14.15    5.28
   8  22 -16   11.48    4.55
   8  22  18   13.66    4.59
   8 -22 -18   12.20    4.67
   8  22 -18    5.27    3.13
   8  22  20  138.32   13.49
   8  22 -20  147.35   11.69
   8 -22 -20  174.85   13.09
   8 -22 -20  154.93   12.50
   8  22  22   75.96    9.13
   8  22 -22   91.89    8.52
   8 -22 -22   91.37    8.90
   8 -22 -22   91.27    8.88
   8  22  24   47.55    7.23
   8  22 -24   64.94    7.17
   8 -22 -24   62.37    7.46
   8 -22 -24   68.41    7.58
   8 -22 -26    2.31    2.97
   8  22 -26    4.69    3.33
   8 -22 -26    2.32    3.14
   8 -22 -28   18.15    4.12
   8  22 -28   14.24    3.21
   8 -22 -28   11.69    2.96
   8 -22 -30    0.14    2.06
   8  22 -30    0.11    2.53
   8 -22 -30    0.14    2.17
   8  24   0   39.24    4.04
  -8  24   0   45.02    5.13
   8  24   0   65.21   10.25
  -8  24   0   64.31   12.59
  -8 -24   0   45.61    6.23
   8 -24   0   34.12    7.36
   8  24   0   45.88    4.75
   8  24   0   52.94    5.19
   8  24   2   21.27    7.05
   8  24  -2   22.09    6.75
  -8  24   2   56.73   18.47
   8  24   2   23.88   14.75
  -8  24  -2   18.36   14.21
   8  24  -2   31.17    7.72
  -8 -24   2   26.15   10.51
   8 -24   2   10.64    9.28
   8 -24  -2   26.63   12.56
   8  24   2   27.98    8.14
  -8  24  -2   20.81    6.85
   8  24   2   31.21    8.27
   8  24  -2   28.44    7.68
  -8 -24  -2   20.08   10.38
   8  24   4    3.74    5.24
   8  24  -4    1.09    3.82
  -8  24   4    0.18    9.28
  -8  24  -4    4.77    5.29
  -8  24  -4    0.66    6.16
  -8 -24  -4    1.32    6.66
  -8 -24   4    0.59    5.11
   8  24   4    4.69    9.92
   8 -24   4    2.35    7.27
   8 -24  -4    0.34    6.92
   8  24   4    0.25    3.76
   8  24   4    1.39    4.62
   8  24  -4    2.11    4.58
   8  24   6    7.02    4.77
  -8  24   6    4.59    7.99
   8  24  -6    7.68    4.99
  -8  24  -6    8.28    4.91
  -8  24  -6   20.08   12.94
  -8 -24  -6    7.36    7.20
  -8 -24   6    4.18    5.56
   8 -24   6   14.54   10.93
   8  24   6   10.92    6.09
   8  24   6   16.71    6.62
   8  24  -6   11.24    5.31
   8  24   6    7.56    9.02
   8  24  -8  201.87   13.97
  -8  24  -8  187.39   14.36
  -8 -24  -8  114.82   17.75
  -8 -24   8  172.20   20.11
   8 -24   8  145.51   21.63
   8  24   8  179.87   14.07
   8  24   8  179.08   13.57
   8  24  -8  221.02   14.69
   8  24   8  139.11   22.82
   8 -24  -8  194.07   14.92
  -8  24  -8  184.38   24.66
   8  24   8  168.95   13.48
  -8  24 -10    0.90    3.20
   8  24  10    0.25    3.24
   8  24 -10    0.06    3.25
   8 -24 -10    0.10    3.09
  -8  24 -12   29.57    6.43
   8  24  12   30.86    5.83
   8  24 -12   41.38    6.22
   8 -24 -12   29.43    6.26
  -8  24 -14  159.71   15.43
   8  24  14  174.46   16.55
   8  24 -14  192.44   15.18
   8 -24 -14  211.65   16.61
   8  24  16   77.52    8.51
   8  24 -16   80.58    7.61
   8 -24 -16   77.45    8.17
   8  24  18   10.02    4.74
   8 -24 -18   10.76    4.22
   8  24 -18    6.58    3.49
   8  24  20   23.59    5.08
   8 -24 -20   21.11    4.50
   8  24 -20   15.48    3.08
   8 -24 -20   20.45    4.59
   8  24  22    0.77    3.58
   8 -24 -22    0.43    3.02
   8  24 -22    3.38    3.06
   8 -24 -22    6.56    4.11
   8  24  24    0.67    2.94
   8 -24 -24    5.46    2.78
   8  24 -24    3.00    2.37
   8 -24 -24    5.82    3.43
  -8  24 -26   56.95    7.41
   8  24 -26   66.14    6.63
   8 -24 -26   55.26    6.66
   8 -24 -26   56.78    6.59
  -8  24 -28    0.14    2.59
   8 -24 -28    6.97    2.36
   8  24 -28    7.95    2.40
   8 -24 -28    4.67    1.94
   8  26   0   67.20    6.68
  -8  26   0   80.04    8.09
   8  26   0   80.68    7.90
   8  26   0   80.96    8.36
   8  26   2   70.49   10.02
   8  26  -2   76.70   10.56
  -8  26   2   84.09   11.53
  -8  26  -2   85.20   11.27
   8  26   2   89.85   11.95
   8  26  -2  105.58   12.71
   8  26   2  100.79   11.87
   8  26  -2  104.45   12.38
   8  26   4   89.47   11.66
   8  26  -4   83.65   11.19
  -8  26  -4   94.44   12.27
   8  26   4   99.99   12.55
   8  26  -4   91.50   12.41
   8  26   4   97.85   12.40
   8  26  -4  106.40   12.51
   8  26   6    0.26    3.60
   8  26  -6    1.57    4.84
   8  26  -6    0.07    2.72
  -8  26  -6    0.16    3.54
   8  26   6    1.76    3.64
   8  26  -6    1.79    4.12
   8  26   6    3.04    4.84
   8 -26  -6    0.09    3.31
   8  26  -8   61.52    8.29
  -8  26  -8   57.08    8.35
   8  26   8   58.05    8.70
   8  26  -8   75.06    9.26
   8 -26  -8   70.69    9.39
   8  26   8   58.11    8.31
   8  26 -10    5.71    3.61
  -8  26 -10    7.51    4.71
   8  26  10    3.14    3.71
   8  26 -10   12.51    4.79
   8  26 -10   10.13    4.55
   8 -26 -10   10.81    5.45
  -8  26 -12  124.50   11.74
   8  26 -12  150.82   12.01
   8  26  12  124.94   11.81
   8  26 -12  151.12   12.09
   8 -26 -12  146.26   12.35
  -8  26 -14  253.23   16.87
   8  26 -14  294.71   16.52
   8  26  14  272.41   17.45
   8 -26 -14  310.85   18.05
  -8  26 -16   84.22   10.96
   8  26  16  117.76   12.74
   8  26 -16  104.61   10.72
   8 -26 -16  113.07   11.89
  -8  26 -18    5.33    4.13
   8  26  18    2.16    3.27
   8  26 -18    4.98    3.11
   8 -26 -18    4.96    4.04
   8 -26 -18    4.96    3.48
  -8  26 -20    0.63    3.95
   8  26  20    2.28    3.28
   8  26 -20    2.83    2.68
   8 -26 -20    3.39    3.37
   8 -26 -20    0.06    3.13
  -8  26 -22    5.00    3.77
   8 -26 -22    6.17    3.59
   8  26 -22    5.19    3.22
   8  26  22    0.26    2.81
   8 -26 -22    1.63    3.24
  -8  26 -24    1.25    3.13
   8 -26 -24    0.00    2.37
   8  26 -24    0.09    2.31
   8 -26 -24    2.13    2.50
  -8  26 -26   48.79    6.11
   8  26 -26   52.28    5.54
   8 -26 -26   53.22    6.03
   8 -26 -26   52.73    5.77
   8  28   0  111.15   10.29
  -8  28   0  115.40   10.94
   8  28   0  130.05   11.73
   8  28   0  126.34   10.90
   8  28   2  145.70   12.51
   8  28  -2  148.57   12.27
  -8  28   2  149.09   12.80
  -8  28  -2  143.65   12.60
   8  28   2  169.08   13.89
   8  28  -2  197.29   14.86
   8  28   2  163.97   12.94
   8  28  -2  171.31   13.50
   8  28   4   53.98    9.23
   8  28  -4   56.28    9.14
  -8  28  -4   68.79   10.10
   8  28   4   65.23   10.13
   8  28  -4   76.23   10.78
   8  28   4   70.01    9.94
   8  28  -4   73.31   10.29
   8 -28  -4   52.06    9.33
   8  28  -6    0.43    4.01
  -8  28  -6    4.47    4.49
   8  28   6    1.41    4.27
   8  28  -6    0.58    3.23
   8  28   6    1.54    3.27
   8  28  -6    0.43    4.14
   8 -28  -6    1.35    3.28
   8  28   6    1.85    3.59
   8  28  -8    0.18    3.16
  -8  28  -8    0.93    3.28
   8  28   8    0.81    3.83
   8  28  -8    2.85    3.71
   8  28  -8    0.01    3.53
   8 -28  -8    0.80    4.47
   8  28 -10   27.66    6.21
  -8  28 -10   28.81    6.98
   8  28 -10   31.45    7.22
   8  28  10   37.57    7.98
   8  28 -10   39.15    7.46
   8 -28 -10   31.45    6.84
  -8  28 -12  114.17   11.52
   8  28 -12  147.81   12.10
   8  28  12  134.34   12.71
   8  28 -12  157.58   12.60
   8 -28 -12  147.36   12.83
  -8  28 -14  218.12   15.02
   8  28  14  219.87   15.54
   8  28 -14  240.76   15.00
   8 -28 -14  256.70   15.76
  -8  28 -16  111.55   11.35
   8  28  16  109.02   11.46
   8  28 -16  108.17   10.68
   8 -28 -16  119.87   11.38
  -8  28 -18   23.18    5.52
   8  28  18   26.34    5.56
   8  28 -18   31.81    5.71
   8 -28 -18   31.56    5.82
   8 -28 -18   31.64    5.76
  -8  28 -20    0.54    3.19
   8  28  20    0.56    3.58
   8  28 -20    0.59    2.39
   8 -28 -20    2.57    2.77
   8 -28 -20    0.61    2.63
  -8  28 -22    4.97    3.57
   8  28  22    2.39    2.86
   8  28 -22    3.56    2.75
   8 -28 -22    3.90    3.13
   8 -28 -22    6.28    3.13
  -8  28 -24   20.69    3.98
   8  28 -24   20.88    3.39
   8 -28 -24   21.78    3.65
   8 -28 -24   17.33    3.09
   8  30   0  103.08    9.90
  -8  30   0   97.94    9.45
   8  30   0  102.35   10.03
   8  30   0  107.98    9.73
   8 -30   0   73.82    8.50
   8  30   2   75.70   10.40
   8  30  -2   83.78   10.83
  -8  30   2   73.98   10.00
  -8  30  -2   66.08    9.78
   8  30   2   92.29   11.37
   8  30  -2   98.58   11.81
   8  30   2   80.81   10.23
   8  30  -2   75.29   10.02
   8 -30  -2   64.90    9.67
   8  30  -4    0.05    3.58
  -8  30  -4    0.05    3.29
   8  30   4    0.03    3.81
   8  30  -4    0.05    3.15
   8  30   4    0.02    3.38
   8  30  -4    0.02    3.75
   8 -30  -4    0.27    3.35
   8  30   4    0.03    4.09
   8  30  -6    5.90    4.07
  -8  30  -6   11.07    4.56
   8  30   6   12.34    5.15
   8  30  -6   14.78    5.34
   8  30  -6    7.19    4.64
   8 -30  -6    8.00    4.47
   8  30  -8   11.01    3.31
  -8  30  -8   21.01    4.37
   8  30   8   24.94    4.36
   8  30  -8   11.12    3.44
   8  30  -8   12.53    4.04
   8 -30  -8   20.13    4.49
   8  30 -10    0.14    2.89
  -8  30 -10    2.74    3.27
   8  30  10    0.13    3.77
   8  30 -10    0.44    2.59
   8  30 -10    2.36    3.05
   8 -30 -10    0.07    3.79
  -8  30 -12   73.17    8.70
   8  30 -12   76.84    8.13
   8  30 -12   89.30    9.51
   8  30  12   67.45    8.93
   8 -30 -12   88.18    9.48
  -8  30 -14   83.98    9.05
   8  30  14   91.27    9.56
   8  30 -14   96.60    8.84
   8 -30 -14   90.25    9.11
  -8  30 -16   38.41    6.17
   8  30  16   31.88    6.02
   8 -30 -16   42.26    6.53
   8  30 -16   37.94    5.83
   8 -30 -16   45.81    6.45
  -8  30 -18    8.49    3.39
   8  30  18   12.88    3.88
   8  30 -18   13.33    3.86
   8 -30 -18    8.82    3.47
   8 -30 -18   13.80    4.05
  -8  30 -20    5.41    3.18
   8  30  20    3.13    2.39
   8  30 -20    2.99    2.23
   8 -30 -20    2.22    2.41
   8 -30 -20    3.45    2.11
   8  32   0   66.26    9.14
  -8  32   0   55.33    8.27
   8  32   0   60.94    8.38
   8 -32   0   54.47    8.20
   8  32  -2    0.94    2.90
  -8  32   2    0.56    2.66
  -8  32  -2    0.24    3.86
   8  32   2    1.58    3.42
   8  32  -2    0.32    3.31
   8  32   2    0.14    2.99
   8  32  -2    0.32    3.57
   8 -32  -2    0.35    3.10
   8 -32   2    0.24    2.62
   8  32   2    0.28    3.39
   8  32  -4   30.88    5.86
  -8  32  -4   27.29    5.61
   8  32   4   35.07    6.70
   8  32  -4   40.75    6.92
   8  32  -4   32.68    5.60
   8 -32  -4   27.98    5.92
   8 -32   4   28.98    5.32
   8  32  -6   12.17    4.40
  -8  32  -6   15.73    5.17
   8  32   6   14.56    5.00
   8  32  -6   10.84    4.71
   8  32  -6   17.18    5.05
   8 -32  -6   12.59    4.35
   8 -32   6    9.24    3.79
   8  32  -8   27.29    4.18
  -8  32  -8   13.22    3.35
   8  32   8   26.67    4.93
   8  32  -8   21.82    4.14
   8  32  -8   26.73    4.73
   8 -32  -8   18.93    4.61
   8  32 -10    0.81    2.30
  -8  32 -10    0.01    3.05
   8  32  10    0.06    3.58
   8  32 -10    2.52    2.28
   8  32 -10    0.02    3.37
   8 -32 -10    1.23    2.47
  -8  32 -12   10.11    3.19
   8  32  12    0.53    2.66
   8  32 -12    0.56    2.06
   8  32 -12    4.96    2.74
  -8  32 -14    5.76    2.62
   8  32  14    0.40    2.98
   8  32 -14   13.24    3.65
   8 -32 -14    9.47    3.25
   8 -32 -14    3.34    2.75
  -8  32 -16    4.72    2.50
   8  32  16    9.87    3.05
   8  32 -16    6.97    2.29
   8 -32 -16    7.89    2.85
   8 -32 -16    4.45    2.29
  -8  32 -18    8.23    2.82
   8  32  18    5.19    1.94
   8  32 -18   10.31    2.64
   8 -32 -18   11.03    2.84
   8 -32 -18    7.81    2.45
  -8  34   0    3.10    2.51
   8  34   0    0.67    3.57
   8  34   0    0.67    2.78
   8 -34   0    0.54    2.46
  -8  34  -2    2.47    2.63
   8  34   2    9.61    3.67
   8  34  -2    8.14    3.60
   8  34  -2    7.79    3.19
   8 -34  -2    8.29    3.29
   8  34  -2    6.16    3.12
   8  34  -4   33.70    5.00
  -8  34  -4   27.16    4.58
   8  34   4   49.54    6.62
   8  34  -4   42.16    5.92
   8  34  -4   34.46    4.98
   8 -34  -4   28.93    4.56
   8  34  -6   74.42    6.52
  -8  34  -6   63.48    6.45
   8  34  -6   76.86    7.03
   8  34  -6   77.97    6.86
   8  34   6   93.53    8.52
   8 -34  -6   65.55    6.13
   8  34  -8   55.35    6.31
  -8  34  -8   50.43    6.65
   8  34   8   79.38    8.40
   8  34  -8   63.92    7.06
   8  34  -8   71.48    7.35
   8 -34  -8   57.06    6.74
  -8  34 -10    1.33    2.27
   8  34  10    8.67    3.50
   8  34 -10    3.75    2.26
   8  34 -10    4.03    2.90
   8 -34 -10    6.04    2.46
  -8  34 -12    0.30    2.55
   8  34  12    2.22    2.67
   8  34 -12    0.47    2.11
   8 -34 -12    0.37    1.98
   8 -34 -12    0.44    1.92
  -8  34 -14    0.04    1.95
   8  34  14    1.79    1.90
   8  34 -14    3.83    2.12
   8 -34 -14    2.21    1.85
   8 -34 -14    0.43    1.69
   8  36   0    0.27    2.27
  -8  36  -2    0.16    1.80
   8  36   2    2.35    2.60
   8  36  -2    2.09    2.26
  -8  36  -4   17.32    3.51
   8  36  -4   21.40    3.84
   8  36  -4   23.30    4.32
   8  36   4   27.05    4.71
  -8  36  -6  110.40    7.87
   8  36   6  160.79   10.54
   8  36  -6  130.99    8.64
   8  36  -6  139.20    8.53
   9   1  -1  276.82   13.18
   9   1   1  283.10   15.38
   9   1  -1  284.28   16.32
   9  -1   1  250.49   14.66
   9  -1  -1  296.04   16.14
   9  -1   1  257.00   13.16
   9  -1  -1  261.80   11.83
   9   1   1  263.79   14.07
   9  -1   3    1.04    3.09
   9  -1  -3    0.23    1.43
   9  -1  -3    0.24    2.86
   9   1  -3    0.73    3.06
   9   1  -3    1.90    2.28
   9   1   3    1.38    3.90
   9   1   3    0.51    2.95
   9   1   5   10.15    8.09
   9  -1   5    9.89    7.26
   9   1  -5   15.32   10.02
   9  -1  -5    6.18    8.60
   9   1   5    6.67    8.37
   9   1  -7  296.28   20.69
   9   1  -7  343.81   22.71
   9  -1  -7  309.66   21.65
   9   1  -9  326.76   18.95
   9   1  -9  364.95   19.38
   9  -1  -9  346.54   18.63
  -9   1  -9  377.10   22.70
   9   1 -11   71.52   10.09
   9  -1 -11   72.11    9.26
  -9   1 -11   85.94   11.85
   9   1 -11   59.51    8.48
  -9  -1 -11   96.34   12.38
   9   1 -13  195.60   18.33
   9   1 -13  193.66   16.38
   9  -1 -13  197.37   16.40
  -9   1 -13  222.94   20.00
  -9  -1 -13  236.58   20.13
  -9  -1 -15   60.31   11.66
  -9   1 -15   51.79   10.94
   9  -1 -15   35.18    7.87
   9   1 -15   60.18   11.30
   9   1 -15   42.78    8.36
  -9   1 -17    8.70    7.04
   9   1 -17   10.34    5.64
   9  -1 -17   15.81    7.09
  -9  -1 -17    9.58    6.90
   9   1 -17   10.49    6.36
   9   1  19   18.06    6.72
  -9   1 -19   55.98   15.11
  -9  -1 -19   65.83   15.87
   9   1 -19   25.11   11.23
   9  -1 -19   25.41    9.86
   9   1 -19   29.73   11.48
   9   1  19   32.06   12.02
   9   1 -19   42.53    7.36
   9   1 -21  106.62   15.35
   9  -1 -21   96.83   14.52
  -9  -1 -21   84.51   14.63
  -9   1 -21   84.15   14.64
   9   1  21   74.09   14.16
   9   1 -21   96.77    9.19
   9  -1 -21  128.21   10.12
   9   1 -23    0.79    2.40
   9  -1 -23    0.67    2.69
   9   1 -23    4.51    5.19
   9  -1 -23    2.96    6.63
  -9   1 -23    0.00    5.24
  -9  -1 -23    4.32    6.46
   9  -1  23    0.09    8.34
   9   1  23    4.32    5.68
   9   1 -25    0.12    2.56
   9  -1 -25    1.52    2.74
   9   1 -25    5.96    7.96
   9  -1 -25    0.78    5.97
  -9  -1 -25    2.38    6.90
  -9   1 -25    3.22    7.11
   9  -1  25    3.22    5.91
   9   1  25    3.12    6.20
   9   1 -27    3.89    2.80
   9  -1 -27    6.46    4.11
   9   1 -29    1.97    2.90
   9  -1 -29    2.12    3.13
   9   1 -31   19.31    4.64
   9  -1 -31   13.40    4.40
   9   1 -33    9.38    3.65
   9  -1 -33    7.54    3.79
   9   1 -35   27.74    4.61
   9  -1 -35   26.62    4.71
   9   1  37   25.88    5.70
   9  -1  37   28.39    5.52
   9   1 -37   22.50    3.92
   9  -1 -37   17.28    3.67
   9   3   1   64.59    5.66
   9   3   1   59.92    5.30
   9  -3   1   42.97    4.96
   9   3  -1   54.11    4.66
   9  -3  -1   64.77    5.81
   9   3  -1   53.31    5.33
   9   3  -3   83.95    8.15
   9   3   3  108.49    9.81
   9   3  -3  131.80   11.66
   9  -3   3  120.44    9.21
   9   3  -3  112.72    7.97
   9  -3  -3  103.47   10.94
   9   3   3  117.82   10.55
   9   3  -5   39.92    8.56
   9   3   5   53.39    8.94
   9   3  -5   72.61   11.20
   9  -3   5   45.20    7.45
   9  -3  -5   71.93   11.23
   9   3   5   57.94    9.99
   9   3  -7   57.84    8.07
  -9  -3  -7   64.78    9.34
   9   3  -7   59.30    8.00
   9  -3  -7   42.47    7.35
   9   3   7   68.41    8.32
   9   3  -9  218.56   16.97
   9   3  -9  228.03   16.95
   9  -3  -9  212.28   16.24
  -9  -3  -9  261.39   20.03
  -9   3  -9  235.17   19.02
   9   3   9  201.04   15.84
   9   3 -11   67.28   12.33
   9   3 -11   63.95   11.35
   9  -3 -11   61.24   10.79
  -9   3 -11   63.93   13.03
  -9  -3 -11   66.18   12.94
   9   3  11   62.90   11.27
  -9  -3 -13    5.49    5.73
  -9   3 -13    2.78    4.13
   9   3 -13    3.71    3.65
   9  -3 -13    1.68    4.07
   9   3 -13    0.70    4.27
   9   3  13    1.66    4.50
   9   3 -15  161.67   18.09
   9   3 -15  138.78   15.88
   9  -3 -15  129.25   14.98
  -9   3 -15  149.91   17.73
  -9  -3 -15  155.17   18.08
   9   3  15  140.07   16.74
   9  -3 -17    8.25    5.64
  -9   3 -17    3.26    4.40
   9   3 -17    7.05    5.00
   9   3 -17   11.34    7.02
  -9  -3 -17    7.01    5.61
   9   3  17    9.41    6.40
   9   3 -19  175.16   21.96
   9   3 -19  141.67   17.77
   9   3  19   99.12   10.95
   9  -3 -19  156.38   18.46
  -9  -3 -19  166.96   20.82
  -9   3 -19  186.59   21.90
   9   3  19  120.79   18.49
   9   3 -19  153.08   11.35
   9   3 -21   23.05    4.94
   9   3  21   20.23    5.96
   9   3 -21   19.83    8.68
  -9   3 -21    9.89    6.57
  -9  -3 -21   14.71    7.56
   9  -3 -21   13.85    7.34
   9   3 -21   25.62    9.51
  -9  -3 -21   15.99    5.12
   9   3  21   11.27    6.81
   9   3 -23   16.12    4.54
   9   3 -23   18.56    8.57
  -9   3 -23   19.02    9.42
  -9  -3 -23   14.65    8.12
   9  -3 -23   14.12    7.76
   9   3 -23   13.69    7.84
   9   3  23   15.60    9.42
   9   3 -25   37.61   10.30
   9  -3 -25   41.51   11.14
  -9   3 -25   50.67   11.32
  -9  -3 -25   54.82   11.99
   9  -3 -25   75.68    7.60
   9   3 -25   71.92    7.19
   9  -3 -25   63.18    7.34
   9   3  25   45.74   11.27
   9   3 -27    6.06    2.93
   9  -3 -27   10.31    3.60
   9  -3 -27    4.14    2.69
   9   3 -29   35.07    5.23
   9  -3 -29   40.98    5.78
   9  -3 -29   35.98    5.32
   9   3 -31    0.29    2.85
   9  -3 -31    0.10    3.15
   9  -3 -31    0.74    3.42
   9   3 -33    2.50    2.66
   9  -3 -33    3.41    2.50
   9  -3 -35   26.88    4.58
   9   3 -35   26.65    4.35
   9  -3 -37   12.85    2.90
   9   3  37   13.88    4.08
   9  -3  37   20.67    4.52
   9   3 -37    9.66    2.61
   9   5   1    1.83    4.34
   9   5  -1    7.12    5.90
   9   5   1    2.48    4.48
   9  -5   1    2.78    4.66
   9  -5  -1    4.45    5.87
   9   5  -1    1.68    3.16
   9   5  -1    4.35    4.43
   9   5   3   56.29   10.66
   9   5  -3   37.98    8.17
   9   5   3   50.38   10.52
   9   5  -3   55.50   10.96
   9  -5   3   49.03    9.45
   9  -5  -3   66.65   11.81
   9   5  -3   43.82    8.42
   9   5   5    3.83    4.72
  -9   5  -5    2.23    3.45
   9   5  -5    4.97    4.92
   9  -5   5    3.15    3.73
   9  -5  -5    4.48    5.25
   9   5  -5    4.02    4.72
   9   5  -5    1.46    2.76
   9   5  -7  111.79   11.92
   9   5  -7  107.74   12.04
   9  -5  -7   99.12   11.96
  -9  -5  -7  118.10   13.62
   9   5   7   93.21   11.12
   9   5  -9   35.69    9.54
   9   5  -9   39.53    9.99
   9  -5  -9   35.46    9.73
  -9  -5  -9   50.18   11.89
  -9   5  -9   39.42   10.58
   9   5   9   31.14    9.42
  -9   5 -11    9.50    8.47
   9  -5 -11    4.42    5.22
   9   5 -11    4.86    5.59
  -9  -5 -11    2.81    5.33
   9   5 -11    7.79    6.74
   9   5  11    4.39    6.01
   9   5 -13  131.50   14.67
  -9  -5  13  152.05   13.54
   9   5 -13  141.90   14.08
   9  -5 -13  134.29   13.64
  -9  -5 -13  165.67   15.68
  -9   5 -13  157.74   16.26
   9   5  13  133.08   13.90
   9   5 -15   51.71    9.76
  -9  -5 -15   58.03   10.85
  -9   5 -15   49.34   10.29
   9  -5 -15   39.30    8.27
   9   5 -15   62.05   11.03
   9   5  15   49.01    9.54
  -9   5 -17    0.18    5.27
   9   5 -17    2.36    4.66
  -9  -5 -17    7.66    5.40
   9  -5 -17    1.23    4.18
   9   5 -17    4.78    5.32
   9   5  17    0.10    5.80
   9   5  19   40.44    7.21
  -9   5 -19   43.50   11.69
   9   5 -19   52.04   11.50
   9  -5 -19   41.26   10.67
   9   5 -19   54.86   12.45
  -9  -5 -19   51.11   12.42
   9   5 -19   48.41    6.88
   9   5  19   43.72   11.88
   9   5  21   79.30   13.33
   9   5 -21  129.05   16.31
   9   5  21   88.71    9.66
  -9   5 -21   97.66   14.75
   9  -5 -21   86.82   12.90
  -9  -5 -21   81.44   13.52
   9  -5 -21   94.97    8.57
   9   5 -21   81.79   14.51
  -9  -5 -21   74.47    8.90
   9  -5 -21   91.56    8.25
   9   5 -21  105.89    8.88
   9   5 -23    7.12    3.26
   9   5  23    2.90    5.87
   9   5  23    7.11    4.68
   9   5 -23    0.00    4.70
  -9   5 -23   11.54    6.25
   9  -5 -23   10.92    7.09
  -9  -5 -23    6.90    5.26
   9  -5 -23    1.40    2.38
   9   5 -23    0.00    7.41
  -9  -5 -23    0.08    3.68
   9  -5 -23    2.29    2.26
   9   5 -25   13.88    4.86
   9   5  25    7.80    6.74
   9   5 -25    5.27    6.55
  -9   5 -25    3.45    4.45
  -9  -5 -25   16.41    9.55
   9  -5 -25    0.74    6.20
   9  -5 -25    9.55    3.59
   9   5 -25    9.46    7.64
  -9  -5 -25   14.68    5.69
   9  -5 -25   12.32    4.38
   9  -5 -27  132.60   12.37
   9  -5 -27  161.54   13.13
   9   5 -27  164.62   12.80
   9  -5 -27  175.13   13.82
   9   5 -29   17.19    4.67
   9  -5 -29   15.85    4.26
   9  -5 -29   19.01    4.41
   9   5 -31    2.30    2.77
   9  -5 -31    8.52    2.61
   9  -5 -33   13.48    4.26
   9  -5 -33   11.51    3.82
   9   5 -33   18.27    4.47
   9  -5 -35   29.41    4.87
   9   5  35   30.67    6.68
   9  -5 -35   22.85    4.21
   9   5 -35   31.26    4.76
   9  -5 -37    3.99    1.90
   9   5  37    3.48    2.70
   9   5 -37    5.15    1.61
   9   7  -1    2.16    3.35
   9   7   1    2.09    4.06
   9   7  -1    0.58    3.76
   9  -7   1    0.31    3.25
   9  -7  -1    1.14    4.94
   9   7  -1    0.22    2.10
   9   7   1    0.76    3.26
   9   7  -3    6.59    3.91
   9   7  -3    8.07    2.90
   9   7   3    4.56    5.01
   9  -7   3    6.71    4.84
   9  -7   3    7.01    3.02
   9  -7  -3    6.24    4.85
   9   7  -3    8.41    2.51
   9   7   5   13.64   10.18
   9   7  -5   16.79   10.72
   9  -7   5    9.44    8.12
   9  -7  -5    9.96   11.23
  -9  -7  -5   22.25   11.13
   9   7  -5    7.32    7.72
  -9   7  -5   10.28    8.71
   9  -7   5    8.77   11.13
   9   7  -5   10.30    9.13
  -9   7  -7    8.28    4.16
   9   7   7   15.08    6.28
   9   7  -7   11.96    5.17
  -9  -7  -7    8.03    4.94
   9  -7  -7   11.91    6.44
   9   7  -7   11.78    5.31
   9   7   9   20.33    7.20
   9   7  -9    7.62    3.79
  -9   7  -9   15.97    6.58
  -9  -7  -9   26.10    8.32
   9  -7  -9    6.25    4.16
   9   7  -9    7.47    4.96
   9   7  11   20.22    7.76
   9   7 -11   37.94    9.00
  -9   7 -11   27.34    8.62
  -9  -7 -11   30.21    8.31
   9  -7 -11   24.87    8.06
  -9  -7  11   37.94    8.56
   9   7 -11   34.10    9.39
   9   7 -13   74.69   14.46
   9   7 -13   80.30   13.91
  -9  -7  13   97.27   13.73
  -9   7 -13   91.08   15.81
  -9  -7 -13   86.12   14.76
   9  -7 -13   99.23   14.97
   9   7  13   64.05   13.17
   9   7  15   68.20   11.29
   9  -7 -15   75.33   11.73
  -9  -7 -15   76.88   12.13
   9   7 -15   67.72   10.63
  -9   7 -15   74.48   12.50
   9   7 -15   72.88   11.55
   9   7  17    4.52    6.59
   9   7 -17    6.51    6.04
  -9   7 -17   12.34    9.37
  -9  -7 -17    9.61    7.42
   9  -7 -17    4.59    6.69
   9   7 -17    6.88    7.27
   9   7 -19   28.08    4.89
   9   7  19   26.10    8.11
   9   7  19   28.74    5.30
   9   7 -19   24.11    7.93
  -9  -7 -19   37.87    9.47
  -9   7 -19   38.18   10.49
   9   7 -19   25.34    8.65
   9  -7 -19   27.83    5.00
   9  -7 -19   33.29    9.75
   9  -7 -19   17.06    4.08
   9   7 -21   27.33    5.34
   9   7  21   27.23    8.35
   9   7  21   27.84    5.83
   9   7 -21   15.74    6.82
  -9   7 -21   18.21    8.09
  -9  -7 -21   20.97    8.17
   9  -7 -21   37.34    9.36
   9   7 -21   25.37    9.15
   9  -7 -21   19.23    4.35
  -9  -7 -21   15.10    4.71
   9  -7 -21   27.53    5.08
   9   7 -23   38.58    5.57
   9   7  23   63.90   13.10
   9   7  23   45.49    7.21
   9   7 -23   32.42    8.14
  -9   7 -23   25.87    8.02
  -9  -7 -23   23.01    7.52
   9  -7 -23   15.40    7.31
   9  -7 -23   38.57    5.58
   9   7 -23   45.99   11.36
  -9  -7 -23   36.24    5.88
   9  -7 -23   39.95    5.72
   9  -7 -25   23.59   11.32
   9  -7 -25   30.12    6.76
   9   7 -25   36.87    6.81
  -9  -7 -25   19.46    6.38
   9  -7 -25   29.64    6.54
   9  -7 -27  114.02    9.31
   9   7 -27  132.65    9.74
   9  -7 -27  121.22    9.74
   9   7 -29   28.92    4.84
   9  -7 -29   35.22    5.45
   9  -7 -29   21.71    4.20
   9  -7 -29   29.92    4.95
   9  -7 -31   20.76    4.75
   9  -7 -31   12.13    3.90
   9   7 -31   15.38    3.85
   9   7 -33   52.60    6.21
   9  -7 -33   49.75    6.29
   9  -7 -33   43.56    6.02
   9  -7 -35   35.17    4.79
   9   7  35   35.69    6.10
   9  -7  35   40.53    5.73
   9  -7 -35   24.95    3.83
   9   7 -35   30.15    4.32
   9   9  -1   33.94    8.89
   9   9  -1   15.22    6.69
   9  -9   1   28.12    9.86
   9   9  -1   19.03    5.52
   9  -9   1   11.78    8.32
   9  -9  -1   22.52    8.84
   9  -9  -1   26.50    7.98
   9   9   1   26.71    8.43
   9  -9   3    5.64    4.93
  -9  -9  -3   11.63    4.38
   9  -9  -3   10.49    4.24
   9   9  -3    9.56    4.14
   9  -9   3    0.04    3.68
   9  -9  -3    0.06    4.82
   9   9  -3    6.73    5.36
   9   9   3   10.31    5.39
   9   9  -3   14.26    5.40
   9   9   5  102.45   12.95
   9   9  -5  112.46   12.94
   9  -9   5   55.15    9.76
   9  -9  -5   88.31   15.25
  -9  -9  -5  121.29   12.57
   9  -9   5   69.85   13.13
  -9   9  -5   94.34   11.05
   9   9  -5   84.37   10.22
   9   9  -5   94.08   11.30
  -9  -9   7   23.39    7.22
  -9   9  -7   30.57    6.58
   9   9  -7   38.57    7.70
  -9  -9  -7   34.93    7.17
   9   9   7   37.43    8.14
   9  -9  -7   46.54    9.55
   9   9  -7   41.25    8.03
   9  -9   7   35.21    8.02
   9   9   9   35.18   10.60
   9   9  -9   22.67    8.55
  -9   9  -9   23.88    9.54
  -9  -9  -9   29.91    9.47
  -9   9  -9   25.88    7.91
  -9  -9   9   11.76    6.98
   9  -9  -9   24.78   10.38
   9  -9   9    8.03   10.31
   9   9  -9   12.74    7.43
   9   9  11   10.76    7.04
   9  -9  11   17.73   10.45
   9   9 -11   27.45    9.56
  -9   9 -11   32.49   11.17
   9  -9 -11   24.31    9.95
  -9  -9 -11   21.91    8.19
  -9  -9  11   26.31    8.89
   9   9 -11   25.74    8.91
   9   9 -13   88.62   12.27
   9  -9 -13  100.52   13.69
   9   9  13   74.39   11.49
  -9   9 -13   98.23   13.81
  -9  -9 -13   84.25   11.61
  -9  -9  13   91.43   11.38
   9   9 -13   85.10   12.81
   9   9 -15   43.60   11.90
   9   9  15   27.90   10.10
  -9  -9 -15   51.78   11.92
  -9   9 -15   36.49   11.72
   9  -9 -15   43.91   11.27
   9   9 -15   40.74   11.14
   9   9 -17    8.17    4.69
   9   9  17   11.58    8.29
   9   9  17    3.70    3.91
  -9   9 -17    4.92    7.10
  -9  -9 -17    6.06    5.84
   9  -9 -17    5.18    6.05
   9   9 -17    4.99    6.75
   9   9 -17   10.91    8.06
   9  -9 -17    6.20    4.03
   9   9 -19    2.43    2.80
   9   9  19    0.70    2.51
   9   9  19    1.35    4.97
   9   9 -19    3.12    5.81
  -9  -9 -19    0.54    3.96
   9  -9 -19    6.97    7.19
   9   9 -19    4.36    6.21
   9  -9 -19    0.31    2.77
  -9   9 -19    7.72    7.11
   9  -9 -19    1.61    3.05
   9   9  21   66.34   16.85
   9   9 -21   58.61   15.53
   9   9  21   59.76    9.92
   9  -9 -21   64.00   14.71
   9   9 -21   54.47   14.15
  -9   9 -21   62.74   15.46
  -9  -9 -21   39.35   12.43
   9  -9 -21   55.08    8.48
   9   9 -21   55.98    8.47
   9  -9 -21   62.21    9.02
   9   9 -23   23.56    4.72
   9   9  23   32.27    9.95
   9   9  23   29.72    6.93
  -9   9 -23   19.74    7.17
  -9  -9 -23    0.37    6.33
   9   9 -23   20.16    7.91
   9  -9 -23   21.78    8.35
   9   9 -23   13.95    5.95
   9  -9 -23   16.33    4.25
   9  -9 -23   20.81    4.77
   9   9  25    6.00    3.19
   9  -9 -25   15.91    3.57
  -9  -9 -25    1.08    4.58
   9  -9 -25   18.57    4.07
   9   9 -25   20.87    4.03
   9  -9 -27   26.01    5.19
  -9  -9 -27   32.27    7.14
   9   9 -27   46.95    6.71
   9  -9 -27   46.05    6.67
   9  -9 -29   46.26    6.37
   9   9 -29   55.99    6.49
   9  -9 -29   53.98    6.89
   9  -9 -31    0.51    3.46
   9  -9 -31    2.63    2.80
   9   9 -31    2.46    2.53
   9   9  33   73.15    9.30
   9   9 -33   73.80    7.00
   9  -9 -33   61.99    6.88
   9  -9 -33   83.08    7.95
   9  -9 -35   31.89    4.09
   9   9  35   25.50    4.89
   9  -9  35   30.73    4.26
   9  -9 -35   21.40    3.61
   9   9 -35   32.36    4.04
   9 -11   1  381.41   25.47
   9 -11  -1  399.04   24.95
   9  11   1  322.76   23.44
  -9 -11  -1  339.86   19.13
   9  11  -1  300.80   22.77
   9  11  -1  277.17   17.27
   9 -11   3   23.25   10.10
   9 -11  -3   33.80    8.66
  -9 -11  -3   40.49    7.57
   9  11  -3   29.25    6.97
   9  11   3   36.49    9.10
   9  11  -3   30.43    8.63
   9  11  -5   92.44   12.13
   9  11  -5   55.01    8.20
  -9 -11   5   92.33   11.78
   9  11   5   89.58   12.08
   9 -11   5   78.30   12.47
  -9 -11  -5   81.72    9.48
  -9  11  -5   80.17   10.89
   9 -11  -5   77.07   10.77
   9  11  -5   70.04    9.36
   9  11  -7  161.91   15.38
   9  11   7  175.91   16.79
  -9 -11   7  159.44   15.73
   9 -11   7  153.57   17.02
  -9 -11  -7  176.04   13.70
  -9  11  -7  160.02   14.63
   9  11  -7  151.64   13.96
  -9 -11  -9    0.13    3.03
  -9  11  -9   12.86    5.33
  -9 -11   9    0.87    4.33
   9 -11   9    2.51    4.34
  -9  11  -9    4.34    4.16
   9  11  -9    5.33    5.09
   9  11   9    4.90    4.18
   9  11  -9    2.96    3.98
   9 -11  -9    3.23    5.43
   9  11 -11   64.88   12.78
  -9 -11  11   67.77   12.30
   9 -11  11   63.83   13.00
   9 -11 -11   64.60   13.59
  -9 -11 -11   69.19   11.72
  -9  11 -11   66.91   13.30
   9  11  11   52.69   11.75
   9  11 -11   55.01   11.59
  -9  11 -13    3.74    5.63
   9  11 -13   20.69    7.33
   9 -11  13    8.67    7.46
  -9 -11  13    2.55    3.64
   9  11  13   11.84    6.39
  -9 -11 -13   10.06    5.25
   9 -11 -13   20.99    7.98
   9  11 -13    7.31    4.64
  -9  11 -15   82.61   13.51
   9  11 -15   82.51   13.62
  -9 -11 -15   66.44   11.73
   9  11  15   62.37    7.12
   9 -11 -15   90.40   14.09
  -9 -11 -15   81.50   11.84
   9  11  15   68.78   12.56
   9  11 -15   79.25    7.70
   9 -11 -15   72.77    7.24
   9  11 -15   76.73    7.45
   9  11 -15   88.73   13.40
   9  11  17   81.31   14.45
   9  11 -17   95.05   15.52
   9  11  17   78.15    9.02
   9 -11 -17  107.55   17.05
  -9  11 -17  100.91   16.12
  -9 -11 -17   85.08   13.50
   9 -11 -17  100.65    9.57
   9  11 -17   96.66    9.15
   9  11 -17   93.51   15.42
   9  11 -19    0.20    3.92
   9  11  19    0.20    2.76
   9  11  19    0.15    4.78
  -9  11 -19    3.67    4.36
  -9 -11 -19    0.04    5.90
   9 -11 -19    0.31    6.45
   9  11 -19    1.41    4.62
   9 -11 -19    0.31    2.35
   9  11 -19    0.31    2.25
   9 -11 -19    0.47    2.66
   9  11 -21   19.99    7.24
   9  11  21   30.31    5.32
   9  11  21   42.72   11.82
  -9  11 -21   31.67   10.57
  -9 -11 -21   20.18    7.14
   9 -11 -21   38.03   10.24
   9  11 -21   17.26    6.53
   9 -11 -21   32.21    5.42
   9  11 -21   36.59    5.57
   9 -11 -21   30.79    5.61
  -9  11 -23   13.74    5.63
   9 -11 -23   27.44    8.77
   9  11  23   14.09    4.39
   9 -11 -23   19.20    4.77
   9 -11 -23   23.35    4.99
   9  11 -23   13.66    3.72
   9  11  25    1.39    4.12
   9 -11 -25    3.01    4.00
   9 -11 -25    5.18    4.12
   9  11 -25    4.12    3.18
   9 -11 -27   33.41    5.68
  -9 -11 -27   15.06    3.71
   9 -11 -27   34.50    5.45
   9  11 -27   30.88    5.29
   9  11  29   17.28    7.08
   9 -11 -29   20.23    5.18
   9 -11 -29   19.03    5.05
   9  11 -29   20.43    4.86
   9 -11 -31   15.23    4.14
   9  11  31   11.16    5.61
   9 -11 -31    6.81    2.76
   9 -11 -31   17.29    4.54
   9  11 -31   15.00    3.93
   9  11  33   39.38    7.02
   9  11 -33   49.76    6.01
   9 -11 -33   39.77    5.50
   9 -11 -33   49.24    6.09
   9  11  35   24.28    5.40
   9  11 -35   33.73    4.55
   9 -11 -35   28.04    4.27
   9 -11 -35   32.61    4.49
  -9 -13  -1  382.68   25.83
  -9 -13   1  390.68   25.96
   9  13  -1  360.77   25.51
   9 -13   1  380.55   27.76
   9 -13  -1  423.18   26.98
   9  13   1  367.22   25.95
  -9  13  -3   16.70    8.56
   9  13   3   15.24    8.17
  -9 -13   3   15.32    8.60
   9  13  -3   13.40    7.63
   9 -13   3   17.89    9.41
   9 -13  -3   17.91    8.60
  -9 -13  -3   15.24    8.69
   9  13  -3    9.46    5.66
  -9 -13  -5  336.19   28.01
   9 -13   5  311.28   29.24
   9  13   5  333.63   28.63
  -9 -13   5  373.62   28.61
   9 -13  -5  367.00   26.92
  -9  13  -5  333.32   27.67
   9  13  -5  283.74   25.07
   9  13  -5  288.21   23.69
  -9 -13  -7   85.00   12.29
  -9 -13   7  120.49   14.47
   9  13   7   98.62   13.88
   9 -13   7  112.90   14.34
   9 -13  -7   97.95   11.44
  -9  13  -7  115.31   14.53
  -9  13  -7  104.60   13.15
   9  13  -7  101.78   12.50
  -9  13  -9    7.08    4.28
   9 -13   9    0.11    4.72
  -9  13  -9    0.11    3.99
   9  13  -9    0.29    3.24
  -9 -13  -9    0.49    4.72
  -9 -13   9    4.07    3.29
   9  13   9    1.57    4.77
  -9  13 -11    0.40    7.15
  -9 -13  11    0.26    3.59
  -9  13 -11    0.40    3.91
   9 -13  11    0.99    4.25
  -9 -13 -11    1.57    3.81
   9  13 -11    1.48    3.94
   9 -13 -11    0.34    6.41
   9  13  11    0.35    6.13
  -9 -13 -13   69.53   11.83
  -9 -13  13  104.30   13.38
   9 -13  13  103.94   15.48
   9  13  13   86.32    8.18
   9 -13 -13  108.43   16.31
  -9  13 -13  114.86   15.85
   9  13  13   88.67   13.74
   9 -13 -13   79.07    7.96
   9  13 -13   85.69    7.46
   9  13 -13   92.27   12.74
   9  13  15   17.80    4.90
  -9  13 -15    9.22    4.56
   9 -13 -15   19.73    8.69
   9  13  15   20.08    8.21
   9  13 -15   20.95    7.70
   9  13  15    8.83    4.25
   9 -13 -15   23.74    5.04
   9 -13  15   17.58    7.77
   9  13 -15   24.04    4.40
  -9  13 -17   43.45   11.31
   9  13  17   40.68   11.02
   9 -13 -17   55.13   12.87
   9  13 -17   50.31   12.16
   9  13  17   10.32    4.97
   9 -13 -17   60.55    7.71
   9  13  17   42.59    6.85
   9  13 -17   50.83    6.75
   9  13  19   20.62    5.82
  -9  13 -19   17.17    9.09
   9 -13 -19   27.22    9.94
   9  13  19   11.76    6.44
   9  13 -19    4.39    4.05
   9  13  19    7.04    4.75
   9 -13 -19   19.71    5.22
   9  13 -19   17.67    5.13
   9  13  21   54.28    9.57
  -9  13 -21   34.31   13.08
   9 -13 -21   41.43   13.75
   9  13  21   51.52   16.18
   9  13  21   20.10    7.72
   9  13 -21   32.07   11.87
   9 -13 -21   54.13    8.66
   9  13 -21   59.01    8.68
   9 -13 -21   50.08    8.43
   9  13  23   11.96    4.97
   9  13  23    5.42    4.05
   9 -13 -23   12.53    3.83
   9  13 -23   11.75    3.54
   9 -13 -23   17.31    4.36
   9  13  25    4.84    3.29
   9  13  25    0.50    3.80
   9 -13 -25    0.50    2.52
   9  13 -25    0.27    2.90
   9 -13 -25    0.50    2.56
   9  13  27   24.85    5.61
   9  13  27   15.32    6.12
   9 -13 -27   20.87    4.45
   9  13 -27   31.70    5.12
   9 -13 -27   29.58    5.06
   9  13  29   35.51    7.80
   9 -13 -29   40.72    6.00
   9  13 -29   41.58    5.64
   9 -13 -29   40.44    5.91
   9 -13 -31    0.16    2.59
   9  13  31    0.24    4.12
   9 -13 -31    0.16    2.81
   9  13 -31    0.28    2.31
   9 -13 -31    0.16    2.23
   9 -13 -33    6.53    2.60
   9  13  33    3.37    3.38
   9  13 -33    6.25    2.46
   9 -13 -33    6.64    2.73
   9 -13 -35   12.33    2.15
   9  13  35   13.21    3.07
   9  13 -35   17.27    2.69
   9 -13 -35    8.75    2.16
  -9 -15  -1  184.91   19.98
  -9 -15   1  187.51   20.39
   9 -15  -1  203.89   21.32
   9  15   1  154.04   20.19
   9  15  -1  171.81   21.07
   9 -15   1  167.04   21.56
  -9  15  -3    2.86    5.85
  -9 -15  -3    1.83    6.06
  -9 -15   3    1.63    4.89
   9 -15   3    1.67    6.21
   9 -15  -3    1.42    5.21
   9  15   3    2.40    5.11
   9  15  -3    1.41    3.68
   9  15  -3    1.50    4.81
  -9 -15  -5  144.96   20.12
  -9 -15   5  120.01   18.86
   9 -15   5  136.43   21.70
   9 -15  -5  130.44   18.25
   9  15   5  119.44   19.82
  -9  15  -5  157.65   21.47
   9  15  -5  111.57   18.22
   9  15  -5  111.58   16.18
  -9 -15  -7  206.36   21.18
  -9 -15   7  224.31   21.90
   9 -15   7  210.70   23.38
   9 -15  -7  204.50   19.31
   9  15   7  215.10   23.24
  -9  15  -7  226.95   22.79
  -9  15  -7  204.57   21.52
   9  15  -7  183.61   19.38
  -9  15  -9   24.48    6.16
   9 -15   9    4.90    4.11
   9 -15  -9   19.15    5.02
  -9 -15   9   20.07    5.74
  -9  15  -9   20.95    6.60
  -9 -15  -9   18.77    6.20
   9  15  -9   36.19    7.91
   9  15   9   14.25    4.63
  -9  15 -11   18.32    6.16
   9 -15  11    0.66    4.89
  -9  15 -11    8.94    4.44
   9  15  11   13.05    3.18
  -9 -15 -11   16.72    6.10
   9  15 -11    6.89    3.70
   9 -15 -11    0.48    4.50
  -9 -15  11   20.41    6.73
   9 -15 -11    9.18    2.60
   9  15  11    7.49    4.58
   9  15 -11    9.36    3.01
  -9 -15 -13   19.71    8.42
  -9 -15  13   33.74    9.77
   9 -15  13   19.26    9.07
  -9  15 -13   29.78   10.31
   9  15  13   22.72    5.85
   9  15 -13   23.36    5.44
   9  15 -13   16.82    6.81
   9 -15 -13   32.69   12.74
   9  15  13    1.89    3.92
   9  15  13   27.83   10.04
   9 -15 -13   15.93    4.84
   9  15 -13   20.06    5.14
   9 -15  15   18.75    8.90
   9  15  15   12.45    4.58
  -9  15 -15   18.77    7.71
   9 -15 -15   10.22    5.58
   9  15 -15   21.16    8.44
   9  15  15    4.77    3.28
   9  15  15   15.07    7.94
   9 -15 -15    9.25    3.90
   9  15 -15   16.35    4.42
   9  15  17    1.36    3.08
  -9  15 -17    6.01    5.60
   9 -15 -17    0.03    5.07
   9  15 -17    3.75    3.73
   9  15  17    0.01    3.21
   9  15  17    3.82    4.82
   9 -15 -17    3.32    3.43
   9  15 -17    0.17    2.75
   9  15  19    2.24    3.63
   9 -15 -19    1.10    5.86
   9  15  19    3.06    4.55
   9  15  19    3.13    6.91
   9 -15 -19    1.93    2.97
   9  15 -19    2.92    3.09
   9  15  21    0.47    3.48
   9  15  21    6.18    3.12
   9 -15 -21    2.14    2.61
   9  15 -21    2.61    2.91
   9 -15 -21    1.46    2.90
   9  15  23   68.93    8.87
   9  15  23   37.28    7.23
   9 -15 -23   70.43    7.66
   9  15 -23   63.10    7.03
   9 -15 -23   55.51    6.89
   9  15  25    0.63    4.12
   9  15  25    0.63    4.73
   9 -15 -25    2.87    2.69
   9  15 -25    3.26    2.78
   9 -15 -25    0.96    3.06
   9  15  27   24.86    4.06
   9  15  27   34.15    6.17
   9 -15 -27   47.07    5.16
   9  15 -27   51.44    5.31
   9 -15 -27   52.23    5.45
   9  15  29   18.41    5.44
   9 -15 -29   16.96    4.28
   9  15 -29   24.26    4.93
   9 -15 -29   24.79    4.82
   9 -15 -31    1.10    2.83
   9  15  31    1.14    4.09
   9 -15 -31    1.10    3.03
   9  15 -31    1.02    2.63
   9 -15 -31    0.41    2.33
   9 -15 -33   10.89    2.74
   9  15  33   10.45    3.16
   9 -15 -33   16.56    3.19
  -9  17  -1   13.00    6.92
   9 -17   1   13.00    5.24
   9 -17  -1   12.78    5.34
  -9 -17   1   11.16    6.01
  -9 -17  -1   11.47    6.75
   9  17  -1   18.16    6.87
   9  17   1    8.81    6.89
  -9  17  -3   12.42    5.61
   9 -17   3   12.86    6.00
   9 -17  -3   11.16    5.79
  -9 -17   3   15.26    5.24
  -9 -17  -3   18.41    6.83
   9  17  -3   10.44    6.37
   9  17   3   12.84    5.98
  -9 -17  -5   91.64   15.52
   9 -17   5   91.47   16.63
   9  17   5   70.52    8.80
   9 -17  -5   51.63   12.35
  -9  17  -5   90.64   14.75
   9  17   5   89.34   16.65
   9  17  -5   53.89   10.61
  -9 -17   5   66.39   12.76
  -9  17  -5   93.18   16.35
  -9 -17  -7  114.49   16.76
  -9 -17   7  115.52   16.56
   9 -17  -7  112.77   15.44
   9  17   7   97.70   10.17
   9 -17   7  118.73   17.79
   9  17   7  107.85   18.17
   9  17  -7   95.30    9.29
  -9  17  -7  133.21   18.77
   9  17  -7   99.12   15.15
  -9  17  -7  117.36   16.91
   9  17   9   34.52    9.41
  -9  17  -9   50.80   10.16
  -9 -17  -9   32.09    8.35
   9 -17   9   37.70   10.56
   9  17   9   31.92    5.63
  -9 -17   9   48.66    9.37
   9  17  -9   37.02    8.22
   9  17  -9   37.04    5.41
   9  17  11   19.46    8.71
  -9 -17  11   31.50   10.52
  -9  17 -11   34.55   10.69
   9 -17  11   11.94   10.48
   9  17  11   22.68    6.13
  -9 -17 -11   19.68    9.28
   9  17 -11   26.55    9.25
   9 -17 -11   23.32    6.08
   9  17 -11   21.71    5.65
   9  17  13    6.25    5.60
  -9 -17  13    0.03    3.37
   9 -17  13    0.04    6.01
  -9 -17 -13    0.32    3.36
   9  17  13    0.47    2.55
   9  17 -13    0.03    6.84
   9 -17 -13    0.34    5.42
   9  17  13    0.03    3.94
   9 -17 -13    3.10    2.73
   9  17 -13    0.03    2.86
   9  17  15   12.69    5.19
   9 -17  15    0.19    5.42
   9 -17 -15    8.39    8.14
   9  17 -15    1.77    4.48
   9  17  15    0.06    2.97
   9 -17 -15    3.05    2.63
   9  17 -15    1.60    2.52
   9  17  15    0.97    6.28
   9 -17  17    6.88    6.25
   9  17  17    4.74    3.83
   9 -17 -17   23.78   10.70
   9  17 -17   10.85    7.25
   9  17  17    7.71    4.18
   9 -17 -17    8.72    4.39
   9  17 -17   11.88    4.19
   9  17  17    2.43    5.46
   9  17  19   42.02    8.90
   9 -17 -19   50.97    8.73
   9  17 -19   52.60    8.29
   9  17  21   14.08    5.54
   9  17  21   14.14    4.77
   9 -17 -21    6.93    3.75
   9  17 -21   12.15    3.94
   9 -17 -21   16.52    4.44
   9  17  23   18.24    3.20
   9  17  23   18.13    4.57
   9 -17 -23   33.59    4.96
   9  17 -23   23.28    4.06
   9 -17 -23   22.55    4.39
   9  17  25    8.91    3.99
   9  17  25    3.92    3.31
   9 -17 -25    3.81    3.00
   9  17 -25    2.71    2.63
   9 -17 -25    4.80    2.95
   9  17  27   20.05    5.56
   9 -17 -27   20.41    4.91
   9  17 -27   26.85    4.98
   9 -17 -27   29.48    5.54
   9  17 -29   38.92    5.40
   9 -17 -29   33.07    5.38
   9 -17 -29   42.65    5.97
   9 -17 -31    6.10    2.53
   9 -17 -31    1.99    2.08
   9  17 -31    6.49    2.95
   9 -17 -31    4.34    2.60
   9 -17 -33   27.83    3.54
   9  17 -33   24.71    3.51
   9 -17 -33   26.73    3.44
   9  19  -1   30.63    9.06
  -9  19  -1   27.09    9.08
   9 -19  -1   20.26    6.67
  -9 -19  -1   30.27    7.53
   9 -19   1   12.10    5.20
   9  19   1   18.77    8.94
   9  19   1   27.68    4.81
   9  19  -1   14.84    2.70
  -9  19   1   28.43    8.12
   9  19   1   22.37    3.99
   9  19  -1   29.20    4.55
  -9 -19   1   15.24    4.60
   9  19   3    7.70    2.66
  -9  19  -3    6.66    6.93
  -9 -19  -3   11.36    5.38
  -9 -19   3    5.63    5.94
   9 -19  -3    8.27    4.23
   9  19   3    6.76    2.40
   9  19  -3    5.63    3.96
   9 -19   3    6.37    4.26
   9  19   3    5.50    2.24
   9  19  -3    8.67    3.48
   9  19  -3    5.63    9.50
   9  19   3    9.17    5.23
   9  19   5    3.91    3.42
  -9  19  -5   15.46    9.71
  -9  19  -5    0.34    2.88
  -9 -19   5    2.73    3.77
   9 -19   5   22.19    8.51
   9 -19  -5    2.48    3.87
   9  19   5    6.98    3.71
   9  19  -5    0.41    3.19
  -9 -19  -5   24.23    8.44
   9  19   5    8.82    3.92
   9  19   5   18.25    8.34
   9  19  -5    3.11    2.40
  -9 -19  -7   79.26   13.97
  -9 -19   7   95.82   14.09
   9 -19   7   98.47   15.36
   9 -19  -7   83.27   12.53
   9  19   7   89.42    9.11
   9  19  -7   82.28    8.66
   9  19   7   69.49    7.97
   9  19   7   76.70   14.55
   9  19  -7  100.97    9.36
  -9  19  -7  102.52   16.58
   9  19  -7   81.94   13.15
   9  19   7   79.42    8.58
  -9  19  -9    0.75    5.12
  -9 -19  -9    1.56    5.88
  -9 -19   9    0.07    4.69
   9 -19   9    0.79    5.24
   9  19   9    9.89   10.57
   9  19   9    0.02    3.20
   9  19  -9    0.20    4.85
   9  19   9    0.61    3.76
   9  19  -9    0.09    2.99
  -9 -19 -11    3.09    5.24
  -9 -19  11    0.01    4.90
  -9  19 -11    4.11    7.74
   9  19  11    0.18    5.62
   9 -19  11    0.20    5.47
   9  19  11    1.88    4.16
   9  19 -11    2.69    7.79
   9 -19 -11    0.75    3.69
   9  19 -11    1.36    3.46
   9  19  13   30.46    8.44
  -9 -19  13   21.22    5.71
   9 -19  13   23.62    6.30
   9  19  13   31.72    5.72
   9  19 -13   24.89    7.43
   9 -19 -13   14.42    6.93
   9 -19 -13   22.58    4.34
   9  19 -13   28.17    4.59
   9  19  15   10.01    5.07
   9  19  15   25.80    6.09
   9 -19  15    1.02    4.54
   9 -19 -15   11.93    9.86
   9  19 -15    0.18    5.49
   9 -19 -15   15.72    4.30
   9  19 -15   17.44    4.59
   9 -19 -17    2.41    2.77
   9  19 -17    1.49    3.94
   9  19  17    0.52    3.78
   9  19  19   52.50    8.36
   9 -19 -19   54.73    8.00
   9  19 -19   61.23    8.02
   9  19  21   67.72    9.88
   9 -19 -21   62.88    8.70
   9  19 -21   74.52    8.83
   9 -19 -21   70.67    9.09
   9  19  23    1.63    3.27
   9  19  23    1.81    3.25
   9 -19 -23    5.33    3.42
   9  19 -23    0.15    3.34
   9 -19 -23    4.92    3.65
   9  19  25   17.61    5.63
   9 -19 -25   13.13    4.28
   9  19 -25    9.26    3.44
   9 -19 -25   12.13    3.87
   9 -19 -27   80.10    7.88
   9  19 -27   70.91    6.90
   9 -19 -27   90.30    7.96
   9 -19 -29    3.55    2.54
   9  19 -29    7.47    3.11
   9 -19 -29    2.80    2.33
   9 -19 -31    1.34    1.79
   9 -19 -31    0.00    2.26
   9  19 -31    4.18    2.40
   9 -19 -31    4.72    1.95
   9  21   1   19.61    4.78
   9  21  -1   15.75    4.02
   9  21  -1   22.47    9.98
  -9  21   1   30.36   11.83
  -9  21  -1   30.88   10.87
  -9 -21  -1   13.65    5.07
  -9 -21   1   14.24    6.04
   9 -21   1   11.72    5.35
   9 -21  -1    9.84    6.51
   9  21   1   18.90    4.81
   9  21  -1   17.60    3.14
   9  21   1   29.73    6.03
   9  21  -1   22.26    5.16
   9  21   1   34.87   12.52
   9  21   3   13.41    4.86
  -9  21  -3   17.29    5.22
   9  21   3   11.50    8.44
  -9 -21  -3    6.51    6.29
  -9 -21   3    1.11    4.89
   9 -21   3    7.22    6.96
   9 -21  -3    6.77    6.25
   9  21   3   11.73    5.03
   9  21  -3    3.35    3.24
  -9  21  -3   10.98    8.95
  -9  21   3   12.12   10.37
   9  21   3    9.24    4.09
   9  21  -3   20.84    5.69
   9  21   5   18.98    6.22
   9  21   5   20.98   11.04
  -9  21  -5   20.45    7.08
  -9  21  -5   32.43   14.06
  -9 -21  -5   21.16   10.29
  -9 -21   5   20.51    9.71
   9 -21   5   26.09   11.58
   9 -21  -5   15.44    8.47
   9  21   5   19.38    6.33
   9  21  -5   16.31    5.33
   9  21   5   19.00    6.18
   9  21  -5   14.42    5.84
  -9  21  -7   17.26    5.64
  -9  21  -7   16.15    9.49
  -9 -21  -7    6.75    6.61
  -9 -21   7    3.84    6.43
   9 -21   7   11.88    7.35
   9  21   7   19.81    5.45
   9  21  -7   16.38    4.84
   9  21   7   16.06    5.22
   9  21  -7   16.16    4.80
   9  21   7   17.60   11.37
   9  21   7   15.28    4.81
  -9 -21  -9   46.73   10.73
   9  21   9   66.81    8.35
  -9 -21   9   74.34   13.57
   9 -21   9   80.60   14.18
   9  21  -9   36.93    8.64
   9  21   9   55.68    6.89
  -9  21  -9   60.70   13.34
   9  21  -9   75.82    8.28
   9 -21  -9   67.42    8.42
   9  21   9   62.25   13.28
  -9 -21  11    0.69    4.99
  -9  21 -11    2.21    6.43
   9  21  11    0.06    2.86
   9 -21  11    2.21    7.16
   9  21 -11    1.76    7.30
   9  21  11    2.45    7.62
   9  21 -11    0.09    3.30
   9 -21 -11    1.95    3.37
  -9 -21 -11    2.45    5.36
   9  21  13   55.53   15.06
   9  21  13   66.38    9.81
  -9 -21  13   53.38   12.52
   9 -21  13   40.05   11.62
   9  21 -13   57.37   14.29
   9 -21 -13   48.17   14.85
   9  21 -13   75.17    9.04
   9 -21 -13   74.86    9.98
   9  21  15   51.35    8.86
   9  21 -15   52.03    7.97
   9 -21 -15   51.98    8.19
   9  21  17    1.26    3.25
   9 -21 -17    1.63    3.40
   9  21 -17    1.20    2.85
   9  21  19   28.47    6.53
   9 -21 -19   35.23    6.38
   9  21 -19   35.52    5.87
   9  21  21   88.87    9.99
   9  21 -21   84.73    8.23
   9 -21 -21   90.72    9.22
   9 -21 -21   94.98    8.93
   9  21  23    0.72    3.66
   9 -21 -23    2.31    3.79
   9  21 -23    0.12    2.65
   9 -21 -23    0.06    2.62
   9  21  25   68.78    8.57
   9  21 -25   78.99    7.66
   9 -21 -25   79.57    8.26
   9 -21 -25   87.22    8.49
   9 -21 -27   13.99    3.44
   9  21 -27   15.03    3.20
   9 -21 -27   16.55    3.66
   9 -21 -29   23.14    3.86
   9  21 -29   24.19    3.65
   9 -21 -29   21.02    3.23
   9  23   1   21.27   12.45
   9  23   1   22.88    6.14
   9  23  -1   16.31    5.75
  -9  23   1   16.00   11.82
  -9  23  -1   35.62   16.08
  -9 -23   1   22.64    9.64
   9 -23   1   23.25    9.94
   9 -23  -1   12.67    8.83
   9  23   1   24.77    6.68
   9  23  -1   22.68    6.54
  -9 -23  -1   29.06   10.43
   9  23   1   30.13    7.40
   9  23  -1   33.81    7.73
   9  23  -1   16.67   11.73
   9  23   3   12.28    3.40
   9  23  -3    8.95    2.48
  -9  23   3   12.64    5.90
   9  23   3    3.26    5.92
  -9  23  -3   23.76    4.59
  -9 -23  -3   10.94    4.11
  -9 -23   3    6.41    7.09
   9 -23   3    9.41    5.09
   9 -23  -3   13.57    4.21
   9  23   3   11.67    3.26
   9  23  -3    6.41    5.42
   9  23   3   10.08    3.12
   9  23  -3    7.40    3.08
   9  23   5    0.69    3.26
  -9  23   5    2.27    8.00
  -9  23  -5    6.90    5.00
  -9  23  -5   11.30   10.58
  -9 -23   5    1.27    5.33
   9 -23   5    7.12    7.58
   9 -23  -5    1.59    6.35
   9  23   5    5.06    4.39
   9  23  -5    2.01    4.19
   9  23   5    1.85    3.58
   9  23   5    1.29    5.13
   9  23  -5    4.35    4.32
  -9 -23  -5    4.12    6.07
  -9  23  -7   25.55    7.06
  -9  23  -7   47.89   15.81
  -9 -23  -7   12.00    9.02
  -9 -23   7   25.15   10.65
   9 -23   7    9.63    9.05
   9  23   7   15.16    5.73
   9  23  -7   21.37    6.38
   9  23   7   23.27   13.13
   9  23   7   21.65    6.68
   9  23  -7   24.74    6.56
  -9  23  -9   74.65   10.26
   9  23   9   78.93    9.98
  -9  23  -9   69.30   16.52
  -9 -23  -9   46.03   11.87
  -9 -23   9   68.96   13.98
   9  23  -9   82.21    9.94
   9  23   9   76.30    9.35
   9  23  -9   96.16   10.18
   9 -23  -9   87.69   10.45
  -9  23 -11    1.26    3.33
   9  23  11    1.65    4.10
   9  23 -11    1.39    3.75
   9 -23 -11    2.26    4.44
   9  23  13   85.16    9.21
   9  23 -13   75.83    7.73
   9 -23 -13   85.47    8.90
   9  23  15   77.37    9.86
   9  23 -15   85.54    9.17
   9 -23 -15   90.90    9.83
   9  23  17    0.62    3.21
   9 -23 -17    2.17    3.75
   9  23 -17    2.59    3.61
   9  23  19   33.64    7.51
   9 -23 -19   36.06    7.09
   9  23 -19   30.36    6.43
   9 -23 -19   23.26    5.77
   9  23  21   55.30    8.06
   9  23 -21   53.63    6.79
   9 -23 -21   66.08    8.00
   9 -23 -21   56.27    7.65
   9  23  23    3.82    3.02
   9 -23 -23    0.29    2.98
   9  23 -23    4.01    2.70
   9 -23 -23    2.08    2.63
   9  23  25   17.25    4.12
   9 -23 -25   20.73    3.95
   9  23 -25   15.34    3.35
   9 -23 -25   19.81    3.96
   9 -23 -27   14.64    3.52
   9  23 -27   13.57    3.33
   9 -23 -27   14.82    3.25
  -9  23 -29    2.79    2.17
   9 -23 -29    9.00    2.44
   9  23 -29    5.55    2.03
   9 -23 -29    5.18    2.07
   9  25   1   21.12    6.36
   9  25  -1   17.40    6.00
  -9  25  -1   21.72    6.53
   9  25   1   24.33    7.00
   9  25  -1   22.85    6.70
   9  25   1   28.82    7.17
   9  25  -1   24.84    7.01
   9  25   3    8.98    3.35
   9  25  -3    2.39    2.69
  -9  25  -3    4.54    3.75
   9  25   3    1.88    3.49
   9  25  -3    5.26    3.25
   9  25   3    7.70    3.36
   9  25  -3   10.71    4.33
   9  25   5    3.80    3.60
   9  25  -5    9.86    4.25
  -9  25  -5   14.46    5.93
   9  25   5    4.33    3.83
   9  25  -5    9.88    4.69
   9  25   5   13.53    5.16
   9  25  -5   12.76    5.50
  -9  25  -7  218.63   16.19
   9  25   7  210.89   16.14
   9  25  -7  264.02   17.01
   9  25   7  236.68   15.57
   9  25  -7  237.00   16.08
   9 -25  -7  233.48   16.41
  -9  25  -9   29.14    6.96
   9  25  -9   35.16    7.62
   9  25   9   35.04    7.64
   9  25  -9   32.57    7.17
   9 -25  -9   21.63    6.45
  -9  25 -11    1.02    3.49
   9  25  11    0.14    4.20
   9  25 -11    1.27    3.08
   9 -25 -11    0.46    3.37
  -9  25 -13   66.53    9.41
   9  25 -13   71.92    8.64
   9  25  13   69.30    9.15
   9 -25 -13   72.35    9.37
  -9  25 -15   68.47    8.90
   9  25  15   70.88    8.93
   9  25 -15   88.46    9.04
   9 -25 -15   95.24    9.89
  -9  25 -17    2.65    4.04
   9  25  17    2.07    3.74
   9  25 -17    3.13    3.43
   9 -25 -17    5.99    4.54
  -9  25 -19   35.53    6.47
   9  25  19   36.00    6.63
   9 -25 -19   28.29    5.81
   9  25 -19   30.19    5.60
   9 -25 -19   30.66    5.61
  -9  25 -21   22.51    5.34
   9  25  21   21.36    5.12
   9 -25 -21   25.97    5.42
   9  25 -21   19.84    4.39
   9 -25 -21   20.36    4.85
  -9  25 -23    5.38    3.58
   9  25  23    2.01    2.61
   9 -25 -23    0.10    2.65
   9  25 -23    2.45    2.29
   9 -25 -23    0.39    2.28
  -9  25 -25    4.49    3.72
   9 -25 -25    0.90    2.55
   9  25 -25    3.71    2.87
   9 -25 -25    3.41    2.58
  -9  25 -27   22.76    4.12
   9 -25 -27   26.85    3.88
   9  25 -27   26.58    3.74
   9 -25 -27   21.72    3.54
   9  27   1   24.79    5.91
   9  27  -1   19.02    5.30
  -9  27  -1   14.76    5.22
   9  27   1   31.38    7.19
   9  27  -1   30.07    6.92
   9  27   1   20.21    5.45
   9  27  -1   22.20    5.77
   9  27   3   39.00    6.31
   9  27  -3   52.97    7.16
  -9  27  -3   44.94    6.94
   9  27  -3   62.98    8.37
   9  27   3   47.48    7.20
   9  27   3   52.86    7.31
   9  27  -3   52.65    7.54
   9  27  -5   32.59    5.86
  -9  27  -5   36.78    6.85
   9  27   5   39.97    7.10
   9  27  -5   41.15    7.54
   9  27   5   30.64    6.11
   9  27  -5   38.03    6.48
   9 -27  -5   36.36    7.01
   9  27  -7   32.04    4.92
  -9  27  -7   34.47    5.19
   9  27   7   34.20    5.77
   9  27  -7   32.13    5.51
   9  27   7   34.04    5.26
   9  27  -7   46.80    6.20
   9 -27  -7   36.08    5.62
  -9  27  -9   52.46    7.56
   9  27   9   61.16    8.24
   9  27  -9   49.87    7.21
   9  27  -9   57.87    7.65
   9 -27  -9   52.08    7.62
  -9  27 -11    7.75    3.95
   9  27 -11    8.42    3.65
   9  27  11   17.15    5.30
   9  27 -11   21.17    5.80
   9 -27 -11   10.62    3.87
  -9  27 -13   31.24    6.30
   9  27  13   36.81    6.94
   9  27 -13   39.41    6.40
   9 -27 -13   45.21    7.58
  -9  27 -15   60.74    8.48
   9  27  15   80.47    9.34
   9  27 -15   89.91    9.25
   9 -27 -15   78.55    8.78
  -9  27 -17    0.10    4.50
   9  27  17    0.46    3.16
   9  27 -17    3.77    2.76
   9 -27 -17    0.46    3.31
  -9  27 -19   14.21    4.58
   9  27  19   15.76    5.11
   9  27 -19   16.97    4.63
   9 -27 -19   20.04    4.93
   9 -27 -19   18.63    4.77
  -9  27 -21    5.42    3.79
   9  27  21    4.27    3.23
   9  27 -21    1.47    2.17
   9 -27 -21    0.41    3.01
   9 -27 -21    2.53    2.63
  -9  27 -23   23.55    4.74
   9  27  23   14.83    3.74
   9  27 -23   13.71    3.12
   9 -27 -23    8.56    2.94
   9 -27 -23   20.21    3.81
  -9  27 -25    8.27    3.16
   9  27 -25    7.57    2.74
   9 -27 -25    7.73    2.65
   9 -27 -25   10.55    3.03
   9  29  -1   50.39    7.56
   9  29   1   53.08    7.41
  -9  29  -1   55.88    7.60
   9  29   1   61.85    8.62
   9  29  -1   67.95    9.16
   9  29  -1   60.04    8.03
   9  29   1   45.42    6.83
   9 -29  -1   48.04    7.27
   9  29  -3    2.35    3.39
  -9  29  -3    0.31    3.64
   9  29   3    0.28    4.22
   9  29  -3    0.17    3.66
   9  29   3    0.28    3.90
   9  29  -3    0.00    3.20
   9 -29  -3    0.35    4.06
   9  29   3    0.28    3.79
   9  29  -5   15.23    4.32
  -9  29  -5   13.98    4.87
   9  29   5   17.56    5.43
   9  29  -5   12.58    5.15
   9  29   5   17.49    4.85
   9  29  -5   19.17    5.81
   9 -29  -5   16.51    5.18
   9  29  -7   25.25    5.35
  -9  29  -7   25.75    5.91
   9  29   7   32.74    6.54
   9  29  -7   43.35    7.05
   9  29  -7   35.37    6.58
   9 -29  -7   25.48    5.63
  -9  29  -9    6.40    4.51
   9  29   9    3.82    4.77
   9  29  -9    2.14    3.10
   9  29  -9    1.37    3.68
   9 -29  -9    1.10    3.42
   9  29  11    2.97    3.40
   9  29 -11    1.34    2.36
  -9  29 -11    1.65    3.50
   9  29 -11    2.65    3.28
   9 -29 -11    1.93    3.07
  -9  29 -13   34.70    5.99
   9  29 -13   61.24    7.80
   9  29  13   46.34    7.64
   9 -29 -13   50.11    7.49
  -9  29 -15   19.81    4.95
   9  29  15   19.67    4.97
   9  29 -15   19.66    4.86
   9 -29 -15   20.82    4.88
  -9  29 -17    0.09    3.64
   9  29  17    0.19    3.59
   9  29 -17    1.19    2.69
   9 -29 -17    0.27    2.67
   9 -29 -17    0.54    2.41
  -9  29 -19    9.38    3.65
   9  29  19    8.32    3.50
   9  29 -19    3.89    2.54
   9 -29 -19   10.57    3.26
   9 -29 -19    0.02    2.45
  -9  29 -21   18.12    4.08
   9  29  21   13.38    3.57
   9  29 -21   14.16    3.35
   9 -29 -21   14.04    3.48
   9 -29 -21   14.24    3.34
   9  31  -1   17.51    5.38
  -9  31  -1   15.97    5.23
   9  31   1   24.15    6.63
   9  31  -1   25.42    6.48
   9  31   1   24.18    5.76
   9  31  -1   22.52    5.45
   9 -31  -1   22.32    6.06
   9 -31   1   17.53    5.27
   9  31   1   16.94    5.34
   9  31  -3    0.02    2.88
  -9  31  -3    0.02    3.46
   9  31   3    0.14    3.29
   9  31  -3    5.81    3.96
   9  31   3    3.02    2.86
   9  31  -3    0.70    3.48
   9 -31  -3    1.65    3.04
   9 -31   3    0.02    2.49
   9  31  -5   25.74    5.25
  -9  31  -5   23.78    5.45
   9  31   5   43.11    7.40
   9  31  -5   35.96    6.64
   9  31  -5   38.97    6.75
   9 -31  -5   27.75    5.79
   9  31  -7   13.48    3.74
  -9  31  -7   16.22    4.62
   9  31   7   15.25    4.82
   9  31  -7   20.54    5.06
   9  31  -7   21.13    5.20
   9 -31  -7   21.31    5.12
  -9  31  -9    3.01    3.13
   9  31   9    2.76    3.51
   9  31  -9    2.08    2.44
   9  31  -9    2.26    2.98
   9 -31  -9    3.59    3.01
  -9  31 -11    0.02    3.10
   9  31 -11    0.01    2.75
   9  31 -11    2.00    2.89
   9  31  11    3.31    2.83
   9 -31 -11    6.39    3.58
  -9  31 -13   18.42    3.68
   9  31  13   28.39    5.31
   9  31 -13   20.03    3.86
   9 -31 -13   20.89    4.33
  -9  31 -15    0.05    3.75
   9  31  15    0.03    3.26
   9  31 -15    0.02    2.38
   9 -31 -15    6.45    3.06
   9 -31 -15    0.05    2.93
  -9  31 -17    0.63    2.60
   9  31  17    0.43    2.83
   9  31 -17    0.08    2.30
   9 -31 -17    2.26    2.50
   9 -31 -17    0.35    2.33
  -9  31 -19    2.14    2.03
   9  31  19    6.85    2.40
   9  31 -19   10.86    2.90
   9 -31 -19   10.12    2.85
   9 -31 -19    7.60    2.65
   9  33   1    5.01    2.46
   9  33   1    9.39    3.39
   9  33  -1   12.37    3.23
   9  33  -1   10.37    3.52
   9 -33  -1    7.99    2.92
   9 -33   1    9.71    3.31
  -9  33  -3    6.15    3.56
   9  33   3   13.38    4.79
   9  33  -3    5.38    3.16
   9  33  -3    7.88    3.20
   9 -33  -3    4.84    2.88
   9 -33   3    3.74    2.37
  -9  33  -5    6.95    2.60
   9  33   5   12.77    3.98
   9  33  -5   11.96    3.73
   9  33  -5   10.87    3.95
   9 -33  -5    6.43    2.86
   9 -33   5    8.04    2.90
   9  33  -5    6.29    2.81
  -9  33  -7   29.79    4.78
   9  33   7   33.56    5.48
   9  33  -7   36.22    5.04
   9  33  -7   43.96    5.68
   9 -33  -7   32.99    4.78
   9 -33   7   15.62    3.21
  -9  33  -9   12.68    3.30
   9  33   9   17.68    4.05
   9  33  -9   10.03    2.39
   9  33  -9   10.57    2.90
   9 -33  -9   11.17    3.15
  -9  33 -11    4.50    2.69
   9  33  11   13.98    3.39
   9  33 -11   12.26    3.36
   9 -33 -11   14.41    3.31
  -9  33 -13    0.11    2.73
   9  33  13    0.71    2.21
   9  33 -13    0.48    2.41
   9 -33 -13    2.13    2.25
   9 -33 -13    0.24    2.26
  -9  33 -15   10.17    3.10
   9  33  15    2.69    2.21
   9  33 -15    4.55    2.18
   9 -33 -15    3.36    1.99
   9 -33 -15    4.88    2.23
   9  35   1    4.75    2.33
   9  35  -1   13.46    2.75
   9 -35  -1    5.10    1.66
   9  35   3    1.04    2.55
   9  35  -3    1.74    2.05
   9  35  -3    5.42    2.52
   9 -35  -3    0.01    1.79
  -9  35  -5   24.71    4.44
   9  35   5   33.41    5.93
   9  35  -5   26.58    4.80
   9  35  -5   30.24    4.78
   9 -35  -5   21.59    3.90
  -9  35  -7   11.14    2.91
   9  35  -7   16.56    3.14
   9  35   7   23.23    4.41
   9  35  -7   18.89    3.57
   9 -35  -7   16.15    3.06
  -9  35  -9    6.62    2.12
   9  35  -9    4.67    1.50
   9  35  -9    6.33    2.22
   9 -35  -9    2.92    1.32
  10   0   0 1289.39   43.10
  10   0   0 1118.83   34.25
  10   0   2  437.35   20.03
  10   0  -2  420.49   21.38
  10   0   2  389.29   18.31
  10   0   4   32.48    6.01
  10   0  -4   34.88    8.03
  10   0   4   32.05    6.61
  10   0  -6   94.40   12.20
 -10   0  -8  124.40   15.11
  10   0  -8   57.00    8.40
  10   0 -10   17.64    7.65
 -10   0 -10   36.45   11.15
  10   0 -12  165.67   18.85
 -10   0 -12  207.84   24.31
  10   0 -14  444.64   25.28
 -10   0 -14  546.30   31.70
 -10   0 -16   11.82    6.08
  10   0 -16    6.34    3.59
  10   0 -18  127.92   15.71
  10   0 -18  111.63    8.83
  10   0 -20   12.96    3.19
 -10   0 -20   21.82    6.60
  10   0 -20   15.55    6.39
  10   0  20   14.78    7.06
  10   0 -22   52.44   13.80
 -10   0 -22   61.76   15.08
  10   0  22   33.30   12.21
  10   0 -22   65.31    8.30
  10   0 -24   36.62    5.30
  10   0 -24   17.20    6.92
 -10   0 -24    6.53    6.10
  10   0  24   16.30    7.13
  10   0 -26  206.15   14.22
  10   0 -28   65.90    8.81
  10   0 -30  103.10    8.60
  10   0 -32   56.16    6.51
  10   0 -34    7.61    3.21
  10   0  34    4.11    4.44
  10   0  36    0.73    2.74
  10   0 -36    0.59    2.08
  10   2   0  462.44   16.62
  10   2   0  472.39   18.61
  10  -2   0  438.83   18.34
  10  -2   0  421.40   14.40
  10   2   2  360.11   21.35
  10   2  -2  318.18   17.17
  10   2  -2  385.88   24.01
  10  -2   2  356.34   21.05
  10  -2  -2  367.39   22.97
  10   2   2  348.33   20.74
  10   2   4  125.89   11.77
  10  -2   4  108.04   10.38
  10   2  -4  124.38   13.58
  10  -2  -4   98.56   12.34
  10   2   4  114.69   11.98
  10   2   6    0.41    2.71
  10   2  -6    0.76    3.34
  10  -2  -6    0.44    3.77
  10   2   6    1.41    3.56
 -10  -2  -8   21.12    9.92
  10   2  -8    0.89    3.87
  10  -2  -8    1.69    4.31
  10   2  -8    1.87    4.35
  10   2   8   17.10    7.42
 -10   2  -8   13.66    8.77
 -10   2 -10    0.11    4.30
 -10  -2 -10    0.06    4.97
  10   2 -10    0.16    3.52
  10  -2 -10    0.04    3.08
  10   2 -10    1.08    5.36
  10   2  10    1.54    3.44
  10   2 -12  235.96   22.23
  10   2 -12  224.47   19.46
  10  -2 -12  205.83   18.65
 -10   2 -12  286.54   25.11
 -10  -2 -12  286.75   25.07
  10   2  12  238.02   21.09
  10   2 -14  169.75   18.93
  10   2 -14  148.77   15.50
  10  -2 -14  140.56   15.07
 -10   2 -14  193.69   20.11
 -10  -2 -14  190.16   19.87
  10   2  14  150.67   16.94
  10   2 -16  132.50   16.47
  10   2 -16  128.03   14.82
  10  -2 -16  121.10   13.87
 -10  -2 -16  145.01   16.95
 -10   2 -16  141.82   16.69
  10   2  16  140.33   16.33
  10   2 -18    3.23    2.46
  10  -2 -18    2.74    2.33
  10   2  18    1.41    3.67
 -10   2 -18   10.06    9.03
  10   2 -18    0.10    5.40
 -10  -2 -18    8.99    9.66
  10  -2 -18    0.67    4.77
  10   2 -18    1.53    6.53
  10   2  18    1.31    5.26
  10   2 -20    0.02    2.70
  10  -2 -20    0.09    2.18
  10   2 -20    3.75    4.67
 -10  -2 -20    6.92    4.46
 -10   2 -20    7.30    5.31
  10  -2 -20    0.09    4.11
  10   2  20    0.32    6.41
  10   2 -22    0.46    2.53
  10  -2 -22    5.58    3.12
  10   2 -22    1.30    6.27
 -10   2 -22    0.25    5.96
 -10  -2 -22    0.63    7.62
  10  -2 -22    0.79    6.16
  10   2  22    1.78    6.43
  10   2 -24   79.68   17.43
  10  -2 -24   68.27   15.92
 -10   2 -24  102.17   18.50
 -10  -2 -24   87.35   17.24
  10  -2  24   91.19   19.17
  10   2 -24  102.29   10.26
  10   2  24   76.25   16.43
  10  -2 -24  110.69   10.77
  10   2 -26   57.91    7.51
  10  -2 -26   60.69    7.61
  10   2 -28  121.05    8.93
  10  -2 -28  119.22    8.99
  10   2 -30   88.85   10.11
  10  -2 -30   85.78    9.94
  10   2 -32   14.10    4.10
  10  -2 -32   18.04    4.80
  10  -2 -34    5.76    2.73
  10   2  34    0.65    3.63
  10  -2  34    0.32    3.58
  10   2 -34    0.59    2.35
  10  -2 -36    0.79    1.95
  10   2  36    1.77    3.05
  10  -2  36    2.62    2.93
  10   2 -36    0.39    1.81
  10   4   0   15.57    6.45
  10  -4   0   13.71    5.70
  10   4   0   13.91    5.81
  10   4   2  122.96    9.66
  10   4   2  118.34    9.48
  10  -4   2  111.11    9.15
  10   4  -2  107.89    7.99
  10  -4  -2  112.05   10.72
  10   4  -2  118.97   10.51
  10   4  -4   49.54    7.62
  10   4   4   52.03    8.28
  10   4  -4   69.17    9.83
  10  -4   4   60.44    7.22
  10  -4  -4   59.04    9.51
  10   4   4   62.52    8.79
  10   4   6   37.11    7.28
  10   4  -6   41.99    8.17
  10  -4  -6   46.53    8.63
  10   4  -6   33.80    6.98
 -10  -4  -8   28.96    7.22
  10   4  -8   17.24    5.23
  10  -4  -8   17.27    5.54
  10   4  -8   20.04    4.86
  10   4   8   26.88    5.88
 -10   4 -10    1.32    5.11
 -10  -4 -10    1.26    5.04
  10   4 -10    1.32    3.45
  10  -4 -10    1.31    3.71
  10   4 -10    3.31    4.96
  10   4  10    0.29    3.29
 -10  -4 -12   44.92   10.69
 -10   4 -12   22.83    8.75
  10  -4 -12   39.76    8.64
  10   4 -12   29.93    8.49
  10   4  12   23.91    7.85
  10   4 -12   33.85    8.66
  10   4 -14  100.50   13.79
  10   4 -14   91.48   11.52
 -10  -4 -14  114.52   14.99
  10  -4 -14  100.24   12.30
 -10   4 -14  118.24   15.35
  10   4  14  107.21   13.58
  10   4 -16   69.48   12.00
  10  -4 -16   66.34   11.72
 -10   4 -16   78.43   14.13
 -10  -4 -16   83.49   14.15
  10   4 -16   66.78   12.86
  10   4  16   74.45   13.55
  10   4 -18   15.51    2.50
  10   4  18   19.68    3.72
  10   4 -18   25.27    6.55
 -10   4 -18   15.50    7.45
 -10  -4 -18   35.16    8.17
  10  -4 -18   11.83    4.71
  10   4 -18   22.73    7.46
  10   4  18   13.79    5.86
  10   4 -20   31.21    5.81
  10   4  20   32.65    7.14
  10   4 -20   39.49   10.08
 -10   4 -20   37.71   11.93
 -10  -4 -20   27.18    8.62
  10  -4 -20   35.99   10.60
  10   4 -20   45.11   13.03
  10   4  20   28.52    9.85
  10   4  22    5.17    6.86
  10   4 -22    5.74    3.90
  10   4 -22    3.74    4.29
 -10   4 -22    3.79    5.95
 -10  -4 -22    5.47    6.90
  10  -4 -22   11.39    7.69
  10   4 -22    0.97    4.32
  10   4 -24   22.85    4.54
  10   4  24   14.80    7.21
  10  -4 -24   18.81    3.83
  10   4 -24    8.45    5.15
 -10  -4 -24    8.13    4.01
  10  -4 -24   13.50    7.01
 -10   4 -24   20.93    9.69
  10   4 -26   44.23    6.33
  10  -4 -26   45.97    6.59
  10   4 -28   84.76    9.33
  10  -4 -28   84.29    9.41
  10   4 -30   31.21    5.45
  10  -4 -30   25.13    4.40
  10  -4 -32    1.15    2.42
  10   4 -32    1.41    2.63
  10  -4 -34   19.37    3.78
  10   4  34   16.36    4.95
  10  -4  34   20.54    4.85
  10   4 -34   17.69    3.53
  10  -4 -36    6.64    2.48
  10   4  36    5.10    3.62
  10  -4  36    7.68    3.10
  10   4 -36    4.09    2.03
  10   6   0    2.46    4.79
  10  -6   0    2.17    3.93
  10   6   0    3.39    5.24
  10   6  -2   22.54    6.47
  10   6   2   29.44    7.98
  10   6  -2   31.39    7.81
  10   6   2   30.96    7.80
  10  -6   2   26.72    7.34
  10  -6  -2   31.20    8.75
  10   6  -2   13.01    4.55
  10   6   4    0.54    4.84
  10   6  -4    1.46    5.43
  10  -6   4    0.17    4.20
  10  -6  -4    0.28    3.67
 -10   6  -4    1.22    5.11
  10   6  -4    0.33    3.73
  10   6  -4    0.03    3.88
  10   6   6  164.04   13.24
  10   6  -6  120.52   11.06
  10   6  -6  141.07   12.34
  10  -6  -6  166.16   13.87
 -10  -6  -6  186.15   15.21
  10   6  -8   42.06   10.39
  10   6  -8   48.99   11.01
  10  -6  -8   49.12   10.93
 -10  -6  -8   69.14   14.42
  10   6   8   58.83   11.54
  10   6  10   24.68    5.39
  10   6 -10   45.97    7.15
 -10   6 -10   26.31    5.58
 -10  -6 -10   44.45    7.48
  10  -6 -10   35.21    6.14
  10   6 -10   33.41    6.65
  10   6  12    0.55    3.45
 -10  -6  12   11.74    4.71
  10   6 -12    5.81    3.66
 -10   6 -12    1.55    4.75
 -10  -6 -12   13.80    5.66
  10  -6 -12    3.04    4.10
  10   6 -12   10.00    5.29
  10   6  14   39.01    7.35
  10   6 -14   38.29    5.86
 -10   6 -14   31.79    6.54
 -10  -6 -14   33.26    5.81
  10  -6 -14   35.31    5.43
  10   6 -14   28.53    6.03
  10   6  16    5.30    5.17
  10   6  16    7.27    3.51
  10   6 -16   10.76    7.71
 -10   6 -16    5.23    5.90
 -10  -6 -16   14.70    7.35
  10   6 -16    6.13    3.08
  10  -6 -16   10.57    6.52
  10   6 -16    5.38    6.69
  10   6  18   70.20   13.81
  10   6 -18   98.02   15.12
  10   6  18   72.35    9.16
  10  -6 -18  100.53   15.29
 -10   6 -18  101.55   16.91
 -10  -6 -18  119.99   18.08
  10   6 -18   70.03   14.34
  10   6 -18   84.30    8.66
  10   6 -20  110.88   19.37
  10   6 -20  131.92   18.48
  10   6  20  109.39   12.06
  10  -6 -20  126.78   18.44
 -10   6 -20  137.46   20.68
 -10  -6 -20  124.11   19.18
  10  -6 -20   95.62    9.85
  10  -6 -20   91.93    9.63
  10   6 -20  115.31   10.61
  10   6  20   91.22   17.63
  10   6  22   68.80   12.88
  10   6  22   68.32    8.11
  10   6 -22   63.05   11.73
 -10   6 -22   85.05   14.37
 -10  -6 -22   57.42   10.61
  10  -6 -22   73.22   12.25
  10  -6 -22   62.43    6.49
  10   6 -22   66.66   12.78
  10  -6 -22   66.82    6.49
  10   6 -22   69.98    7.08
  10   6 -24   16.02    3.62
  10   6 -24    8.34    5.23
  10  -6 -24   11.00    4.84
  10  -6 -24   10.21    2.63
  10  -6 -24    7.88    2.76
  10   6 -26   27.38    5.11
  10  -6 -26   27.99    5.82
  10  -6 -26   27.92    5.20
  10  -6 -26   22.52    4.79
  10   6 -28   33.48    6.30
  10  -6 -28   31.08    5.91
  10  -6 -28   42.29    7.18
  10  -6 -30   14.71    4.26
  10  -6 -30    8.44    2.94
  10   6 -30   16.36    4.36
  10  -6 -32   23.91    5.15
  10   6  32   25.35    7.68
  10  -6 -32   20.74    4.75
  10   6 -32   21.42    4.83
  10   6  34   92.81   10.15
  10  -6  34   68.34    8.10
  10   6 -34   76.05    6.82
  10  -6 -34   79.59    7.41
  10   6  36   41.94    6.55
  10  -6  36   39.50    5.51
  10  -6 -36   36.92    4.77
  10   6 -36   24.46    3.88
  10   8   0   20.59    4.18
  10  -8   0   14.56    4.85
  10   8   0   13.38    4.04
  10   8  -2   36.27    8.11
  10   8  -2   29.66    6.10
  10  -8   2   18.44    6.34
  10  -8  -2   18.84    6.08
  10   8  -2   17.55    3.92
  10   8   2   18.77    5.53
  10   8   4  353.97   24.36
  10   8  -4  370.54   24.11
  10  -8   4  301.07   20.21
  10  -8  -4  369.29   25.94
 -10  -8  -4  420.76   25.97
  10   8  -4  285.89   19.09
 -10   8  -4  320.06   20.64
  10   8  -4  323.46   19.86
  10   8   6  119.86   16.41
  10   8  -6  114.15   16.03
  10  -8  -6  131.39   17.90
 -10  -8  -6  139.80   17.88
 -10   8  -6  104.42   13.79
  10   8  -6   81.36   13.28
  10   8   8  296.12   24.92
  10   8  -8  229.75   20.66
  10  -8  -8  230.94   22.95
 -10   8  -8  353.73   28.71
 -10  -8  -8  414.37   29.33
  10   8  -8  206.45   20.49
  10   8 -10   93.45   12.67
  10   8  10   87.13   11.31
  10   8 -10   91.57   11.93
 -10  -8  10   70.64   11.36
  10  -8 -10  104.51   12.81
 -10   8 -10   84.24   12.30
 -10  -8 -10  104.40   12.45
  10   8  12   16.05    5.91
  10   8 -12   22.93    6.56
  10  -8 -12   24.28    6.95
 -10  -8  12   23.00    6.82
  10   8 -12   23.46    7.58
 -10   8 -12   23.30    7.57
 -10  -8 -12   15.06    5.89
  10   8  14    0.01    5.26
  10   8 -14    3.58    4.90
 -10   8 -14    0.05    6.11
 -10  -8 -14    0.01    3.86
  10  -8 -14    0.01    4.40
  10   8 -14    0.02    3.75
  10   8 -16    3.64    3.19
  10   8  16    3.74    4.07
  10   8  16    8.10    4.07
 -10   8 -16    8.40    5.72
  10   8 -16    2.74    2.98
  10  -8 -16    6.33    6.51
 -10  -8 -16    9.05    7.06
  10   8 -16    0.74    4.87
  10   8 -16    6.03    6.07
  10   8  18   52.90    8.08
  10  -8 -18   60.13   13.02
  10   8 -18   52.14   12.28
 -10   8 -18   60.17   13.64
 -10  -8 -18   56.19   13.23
  10  -8 -18   59.69    7.83
  10   8 -18   51.31   12.90
  10   8 -18   66.51    8.31
  10  -8 -18   49.59    7.06
  10   8  18   73.00   15.25
  10   8  20  222.43   26.02
  10   8 -20  226.14   26.08
  10   8 -20  208.03   23.62
  10   8  20  212.96   15.87
  10  -8 -20  224.21   23.97
 -10   8 -20  207.01   26.13
 -10  -8 -20  213.20   24.38
  10  -8 -20  221.28   14.34
  10   8 -20  214.90   14.21
  10  -8 -20  205.45   13.88
  10   8  22  206.03   23.92
  10   8 -22  159.20   20.57
  10   8 -22  156.28   20.98
  10   8  22  180.03   14.22
  10  -8 -22  158.90   19.91
 -10   8 -22  178.83   21.27
 -10  -8 -22  151.45   19.29
  10  -8 -22  193.80   12.60
  10   8 -22  197.85   12.24
  10  -8 -22  185.07   12.29
  10   8  24   60.32    9.15
  10  -8 -24   57.27    7.33
  10   8 -24   57.97    7.32
  10  -8 -24   65.17    7.52
  10  -8 -26    4.17    2.48
  10  -8 -26    4.45    2.72
  10   8 -26    8.68    3.33
  10  -8 -28    3.08    3.11
  10  -8 -28    0.11    2.76
  10  -8 -28    0.27    2.94
  10   8 -28    0.20    2.78
  10  -8 -30   22.91    4.79
  10   8  30   24.01    6.83
  10  -8 -30   18.97    4.24
  10   8 -30   21.54    4.19
  10   8  32  108.72   10.74
  10  -8  32  104.24    9.04
  10   8 -32  116.12    8.09
  10  -8 -32  111.32    8.22
  10  -8 -32  119.54    8.62
  10   8  34   83.25    9.21
  10  -8  34   83.60    7.61
  10   8 -34   83.88    6.73
  10  -8 -34   73.57    6.56
  10  -8 -34   84.97    7.08
  10   8  36   83.19    8.22
  10   8 -36   88.08    6.29
  10  -8 -36   86.85    6.29
  10  10   0    0.14    4.15
  10 -10   0    0.76    3.33
  10 -10   0    0.06    4.17
  10 -10   2   21.59    6.88
  10 -10   2    7.95    5.50
  10 -10  -2   11.56    7.43
  10  10  -2   34.12    7.11
 -10 -10  -2   19.65    4.81
  10  10   2   24.72    6.43
  10  10  -4  210.92   19.00
  10  10   4  189.17   19.29
  10 -10   4  207.06   20.46
  10 -10   4  145.69   15.94
  10 -10  -4  220.10   21.24
 -10 -10  -4  249.00   19.61
  10  10  -4  156.81   15.47
 -10  10  -4  183.32   16.93
  10  10  -4  183.85   15.72
  10  10  -6  449.69   29.13
  10  10   6  462.92   29.79
 -10 -10   6  505.07   32.04
  10 -10   6  408.10   31.02
  10 -10  -6  546.90   33.47
 -10 -10  -6  503.79   29.05
 -10  10  -6  369.26   24.66
  10  10  -6  373.40   23.38
  10  10  -6  413.91   25.96
  10  10   8  231.76   19.40
  10  10  -8  205.12   18.00
 -10 -10   8  238.81   21.04
  10 -10  -8  206.07   20.48
  10 -10   8  169.76   20.03
 -10 -10  -8  267.17   20.14
 -10  10  -8  265.30   22.30
  10  10  -8  202.25   17.24
  10  10  10  102.72   13.21
  10  10 -10  113.21   13.58
 -10 -10  10  119.34   14.53
  10 -10 -10  104.13   13.96
 -10 -10 -10  104.88   12.69
 -10  10 -10  136.11   16.30
  10  10 -10  105.33   12.74
 -10 -10  12    9.01    4.57
  10  10 -12    8.92    4.43
  10  10  12    6.66    5.00
 -10 -10 -12    7.99    4.89
 -10  10 -12    6.42    4.78
  10 -10 -12    0.78    4.15
  10  10 -12    2.66    3.20
  10  10  14    0.49    5.63
  10  10  14    4.70    3.81
  10  10 -14    4.39    5.47
  10  10 -14    6.37    4.15
  10 -10 -14    5.71    7.85
 -10 -10 -14    6.35    6.23
  10  10  14    0.70    2.88
  10  10 -14    7.80    6.94
 -10  10 -14    5.69    6.37
  10  10  16   27.16    8.65
  10  10 -16   22.83    8.00
  10  10  16   17.14    4.08
 -10  10 -16   30.64    9.21
 -10 -10 -16   14.53    5.99
  10 -10 -16    7.92    4.90
  10  10  16    9.15    4.64
  10  10 -16   13.40    6.81
  10 -10 -16   18.96    4.29
  10  10 -16   13.43    3.54
  10  10 -18   18.80    7.85
  10  10  18   14.90    7.34
  10  10  18   14.54    5.36
 -10  10 -18    5.84    6.11
 -10 -10 -18    6.98    6.54
  10 -10 -18    9.38    6.67
  10  10 -18    6.73    5.50
  10 -10 -18    5.65    3.47
  10  10 -18    5.23    3.30
  10  10 -20  155.79   21.12
  10  10  20  147.12   20.76
  10  10 -20  159.78   20.82
  10  10  20  167.56   13.75
  10 -10 -20  175.89   21.16
 -10  10 -20  171.59   22.90
 -10 -10 -20  127.35   18.19
  10 -10 -20  189.28   12.99
  10  10 -20  164.89   12.20
  10 -10 -20  174.37   12.65
  10  10 -22  192.11   23.98
  10  10  22  226.96   27.14
  10  10 -22  182.91   23.70
  10  10  22  215.63   16.31
  10 -10 -22  197.89   23.34
 -10  10 -22  219.86   25.88
 -10 -10 -22  162.24   21.11
  10 -10 -22  244.01   15.14
  10  10 -22  240.17   14.48
  10 -10 -22  240.39   14.87
  10  10  24   27.22    6.29
  10 -10 -24   33.88    5.53
  10 -10 -24   33.14    5.31
  10  10 -24   34.35    5.56
  10  10  26    3.68    5.08
  10 -10 -26    7.65    2.68
  10 -10 -26   17.55    4.40
  10  10 -26   11.85    3.23
  10 -10 -28    0.07    2.52
  10 -10 -28    0.07    3.16
  10  10 -28    0.27    2.56
  10  10  30    3.23    4.47
  10 -10  30    1.86    2.71
  10 -10 -30    0.21    2.17
  10 -10 -30    2.54    2.55
  10  10 -30    5.27    2.82
  10  10  32  111.44   11.23
  10  10 -32  111.97    8.26
  10 -10 -32   90.67    8.00
  10 -10 -32  112.23    9.02
  10  10  34  126.41   11.23
  10  10 -34  129.36    8.37
  10 -10 -34  111.96    7.95
  10 -10 -34  141.22    8.90
  10 -12   0   97.54   14.68
  10  12   0   76.63   12.60
  10  12   2    4.59    6.26
 -10 -12   2    9.00    9.01
  10 -12   2    7.80    8.24
  10 -12  -2   10.48    8.10
  10 -12   2    4.18    6.70
  10  12  -2    5.85    7.27
 -10 -12   4  109.64   13.73
  10 -12  -4   98.19   12.79
  10 -12   4  111.42   13.88
  10 -12  -4   56.97   11.26
  10  12   4  103.69   13.05
 -10  12  -4   99.94   11.86
  10  12  -4  103.44   12.07
  10  12  -4   83.60    9.84
 -10 -12   6  327.86   24.89
  10  12   6  275.90   22.56
  10 -12   6  272.15   24.37
  10 -12  -6  291.53   25.66
 -10  12  -6  260.18   21.40
  10  12  -6  233.26   18.69
  10  12  -6  249.74   19.07
  10  12  -8  214.79   21.60
 -10 -12   8  251.86   24.22
  10  12   8  218.87   23.25
  10 -12  -8  223.64   25.25
  10 -12   8  176.30   23.79
 -10  12  -8  212.70   20.75
 -10  12  -8  268.10   25.95
  10  12  -8  207.30   20.42
  10  12 -10   12.87    6.23
 -10 -12  10   24.57    7.80
  10 -12  10   19.92    8.18
 -10  12 -10   31.12    9.82
  10 -12 -10   12.82    6.70
  10  12  10   22.02    7.36
  10  12 -10   23.73    7.19
 -10 -12  12    1.17    5.04
 -10 -12 -12    1.04    4.53
  10  12 -12    7.38    4.25
  10 -12  12   11.65    5.52
 -10  12 -12    1.15    6.75
  10  12  12    5.54    2.46
  10  12  12    8.28    4.30
  10 -12 -12   12.96    5.03
  10  12 -12   23.09    6.96
  10 -12 -12    6.59    2.29
 -10  12 -14    1.10    6.57
 -10 -12  14    1.25    4.12
  10  12 -14    0.24    4.71
  10  12  14    0.35    2.75
 -10 -12 -14    0.39    4.83
  10  12 -14    0.18    2.26
  10  12  14    1.05    5.85
  10 -12 -14    0.21    5.58
  10  12 -14    3.09    5.87
  10  12  14    1.05    3.59
  10 -12 -14    0.59    2.41
  10  12 -14    0.78    2.36
  10  12 -16    0.39    4.30
 -10  12 -16   13.01    7.09
  10  12  16    0.18    3.04
  10  12  16    0.84    4.15
  10 -12 -16    0.30    5.05
  10  12  16    0.18    4.19
  10  12 -16    0.18    3.84
  10 -12 -16    0.30    2.37
  10  12 -16    0.18    2.44
  10  12 -18    6.63    4.66
  10  12  18    7.44    4.05
 -10  12 -18    0.16    6.12
  10  12  18    2.77    5.43
  10 -12 -18   10.38    6.09
  10  12  18    5.04    4.56
  10  12 -18    0.18    7.67
  10 -12 -18    2.92    3.33
  10  12 -18    3.49    2.94
  10  12  20   37.26    7.11
 -10  12 -20   30.68   11.24
  10  12  20   43.12   11.85
  10 -12 -20   33.45   10.61
  10  12  20   29.29    7.12
  10  12 -20   35.88   10.85
  10 -12 -20   36.16    6.28
  10  12 -20   28.92    5.74
  10 -12 -20   28.88    5.88
  10  12  22   82.92    9.30
  10  12  22   82.52    9.94
  10 -12 -22   93.01    8.64
  10  12 -22  104.20    8.83
  10 -12 -22  107.12    9.19
  10  12  24   27.28    7.01
  10  12  24   22.63    6.62
  10 -12 -24   36.65    6.76
  10 -12 -24   35.06    6.73
  10  12 -24   33.96    6.09
  10  12  26    0.14    4.28
  10  12  26    1.73    4.13
  10 -12 -26    1.83    2.91
  10  12 -26    2.15    2.88
  10 -12 -26    5.95    3.71
  10  12  28    0.41    4.18
  10 -12 -28    4.74    2.96
  10  12 -28    2.99    2.36
  10 -12 -28    6.67    3.17
  10 -12 -30    5.30    2.93
  10  12  30    7.60    4.39
  10 -12 -30    0.26    2.19
  10  12 -30    0.14    2.40
  10 -12 -30    3.84    2.50
  10 -12 -32   37.02    4.56
  10  12  32   26.73    4.99
  10  12 -32   35.20    4.42
  10 -12 -32   37.06    4.54
  10  12  34   71.75    8.20
  10  12 -34   79.52    6.61
  10 -12 -34   70.08    6.32
  10 -12 -34   74.13    6.46
 -10 -14   0  369.12   27.48
  10 -14   0  332.99   28.36
  10  14   0  340.38   26.96
 -10 -14  -2   78.88   13.19
 -10 -14   2   74.38   12.87
  10  14  -2   68.39   11.98
  10 -14   2   70.89   13.95
  10 -14  -2   62.97   12.52
 -10  14  -2   71.44   12.42
  10  14   2   78.37   13.06
 -10  14  -4   27.61    7.89
  10  14   4   19.76    6.64
 -10 -14  -4   29.93    9.40
 -10 -14   4   33.67    8.82
  10  14  -4   36.38    8.85
  10 -14   4   30.46    9.34
  10 -14  -4   31.16    8.47
 -10 -14  -6   81.01   14.87
  10 -14   6   67.54   13.88
  10 -14  -6   70.03   12.87
  10  14   6   75.11   14.41
 -10  14  -6   83.48   14.85
 -10 -14   6   93.31   15.22
 -10  14  -6   88.84   14.98
  10  14  -6   78.69   12.85
 -10 -14  -8   91.98   16.22
 -10 -14   8  108.69   17.71
  10  14   8   75.73   15.30
  10 -14   8   87.48   16.62
  10 -14  -8   98.87   18.40
 -10  14  -8  117.14   18.71
 -10  14  -8  110.26   17.19
  10  14  -8   99.95   15.32
 -10 -14  10    3.91    5.09
  10 -14  10    1.63    6.86
 -10  14 -10   11.30    7.53
 -10 -14 -10   19.06    8.16
  10 -14 -10   11.32    7.92
  10  14 -10    9.78    5.68
  10  14  10    8.03    3.74
  10  14  10   15.38    6.85
  10  14 -10    5.85    3.15
  10 -14  12   13.11    7.67
 -10  14 -12   17.99    8.68
  10  14  12   14.66    4.53
 -10 -14 -12   16.70    8.41
  10  14 -12    6.81    3.58
  10 -14 -12    5.29    5.04
  10  14 -12    9.02    6.08
  10  14  12    5.23    3.43
 -10 -14  12   13.48    6.59
  10  14  12   14.37    7.44
  10 -14 -12   10.83    3.97
  10  14 -12   14.87    4.40
  10  14  14   56.59    7.23
 -10 -14 -14   29.31    8.71
 -10 -14  14   49.09   10.39
 -10  14 -14   46.26   10.60
  10  14 -14   43.92    6.32
  10 -14 -14   54.21   11.81
  10 -14  14   41.84   10.24
  10  14 -14   41.53    9.92
  10  14  14   27.29    6.28
  10  14  14   35.48    8.90
  10 -14 -14   45.63    6.23
  10  14 -14   41.57    5.69
  10  14  16    0.76    2.98
 -10  14 -16    4.35    4.91
  10 -14 -16    0.04    5.63
  10  14 -16    0.03    5.08
  10  14  16    2.36    2.97
  10  14  16    2.57    5.69
  10 -14 -16    0.51    2.63
  10  14 -16    0.03    2.74
  10  14  18    0.93    2.80
 -10  14 -18    5.56    8.34
  10 -14 -18    0.77    5.87
  10  14  18    0.93    3.75
  10  14 -18    3.67    4.43
  10  14  18    0.75    4.32
  10 -14 -18    0.32    2.26
  10  14 -18    0.28    2.92
  10  14  20    0.16    2.89
  10 -14 -20    0.16    6.75
  10  14  20    0.16    4.75
  10  14 -20    5.30    4.75
  10 -14 -20    4.69    2.70
  10  14 -20    2.00    2.76
  10 -14 -20    0.59    2.61
  10  14  22    2.71    3.00
  10  14  22    2.97    3.62
  10 -14 -22    5.12    3.72
  10  14 -22    2.47    2.39
  10 -14 -22    3.25    2.95
  10  14  24   26.37    6.53
  10  14  24   19.32    6.67
  10 -14 -24   34.80    5.84
  10  14 -24   36.00    5.99
  10 -14 -24   30.66    5.55
  10  14  26   22.34    4.30
  10  14  26   21.73    5.76
  10 -14 -26   24.61    4.39
  10  14 -26   30.99    4.54
  10 -14 -26   40.72    5.32
  10  14  28   20.35    5.90
  10 -14 -28   37.31    5.30
  10  14 -28   34.37    5.00
  10 -14 -28   32.67    4.97
  10 -14 -30    2.54    2.59
  10  14  30    8.95    4.42
  10 -14 -30    5.91    2.69
  10  14 -30    4.06    2.25
  10 -14 -30    9.34    3.24
  10 -14 -32    0.57    2.75
  10  14  32    0.52    3.86
  10  14 -32    0.58    1.97
  10 -14 -32    0.57    2.04
  10 -14 -34   15.54    2.74
  10  14  34   18.14    3.70
  10  14 -34   21.44    3.13
  10 -14 -34   15.51    2.81
 -10 -16   0  297.31   28.12
  10 -16   0  283.38   28.15
  10  16   0  290.90   30.14
 -10 -16  -2  149.95   19.95
 -10 -16   2  147.14   19.75
  10 -16   2  156.84   20.99
  10 -16  -2  184.06   20.69
  10  16   2  156.18   21.28
 -10  16  -2  170.75   21.96
  10  16  -2  139.84   19.65
 -10  16  -4    3.88    5.45
  10  16   4    4.27    2.61
 -10 -16  -4    5.62    6.62
 -10 -16   4    2.03    5.27
  10 -16  -4    0.70    3.59
  10  16   4    0.46    7.08
  10 -16   4   10.33    7.62
  10  16  -4    2.07    4.23
 -10 -16  -6   72.23   14.44
 -10 -16   6   55.11   13.06
  10 -16   6   59.06   14.96
  10  16   6   50.85   13.31
  10 -16  -6   50.05   12.12
  10  16   6   55.89    8.28
 -10  16  -6   70.11   14.84
  10  16  -6   44.00   10.55
 -10  16  -6   81.04   15.36
  10  16   8    2.63    4.38
 -10  16  -8   12.35    6.96
 -10 -16   8    0.39    4.12
  10 -16   8    0.15    5.30
 -10 -16  -8    0.55    3.77
 -10  16  -8    3.37    5.32
  10  16   8    6.68    3.69
  10  16  -8    5.28    3.27
  10  16  -8   11.06    5.82
  10  16   8    3.86    3.12
  10  16  -8    8.53    3.26
  10  16  10   14.25    8.11
 -10 -16 -10   25.50   10.01
 -10 -16  10   28.28   10.05
  10 -16  10   11.07    7.06
 -10  16 -10   15.09    9.15
  10  16  10   17.28    5.77
  10  16 -10   15.20    5.11
  10  16 -10   17.51    8.21
  10 -16 -10    7.26    9.09
  10  16  10   12.84    5.64
  10  16 -10   19.80    5.47
 -10 -16 -12   63.57   15.64
 -10 -16  12   79.06   16.38
  10 -16  12   48.34   13.72
 -10  16 -12   52.09   13.68
  10  16 -12   57.09    8.57
  10  16  12   41.06    8.09
  10 -16 -12   56.55   16.48
  10  16 -12   47.50   13.12
  10  16  12   58.43    9.23
  10  16 -12   62.48    8.60
  10 -16 -12   63.27    9.35
  10  16  12   58.01   15.19
 -10 -16  14   34.12   11.52
  10 -16  14   16.58   12.06
  10  16  14   36.66    7.34
  10 -16 -14   19.29   10.23
  10  16 -14   33.96   11.51
  10  16  14   25.94    6.50
  10 -16 -14   34.06    6.70
  10  16 -14   30.70    6.15
  10  16  14   31.71   11.49
  10  16  16   73.99    8.36
  10 -16 -16   69.41   14.25
  10  16 -16   83.12   13.67
  10  16  16   57.50    7.35
  10 -16 -16   64.67    7.43
  10  16 -16   67.79    6.94
  10  16  16   88.32   15.28
  10  16  18    3.23    4.47
  10 -16 -18    7.67    8.17
  10  16  18    3.28    4.47
  10  16 -18    0.44    3.58
  10 -16 -18    0.34    2.69
  10  16  18    8.40    5.61
  10  16 -18    0.20    2.82
  10  16  20    0.71    3.08
  10  16  20    4.31    3.46
  10 -16 -20    0.49    3.05
  10  16 -20    1.53    2.60
  10 -16 -20    0.49    3.49
  10  16  22    5.29    4.12
  10  16  22    8.85    5.30
  10 -16 -22    0.06    3.21
  10  16 -22    0.83    2.91
  10 -16 -22    0.33    3.37
  10  16  24   18.95    6.26
  10  16  24   14.75    6.25
  10 -16 -24   18.50    5.38
  10  16 -24   19.05    5.16
  10 -16 -24   17.74    5.20
  10  16  26   38.29    6.85
  10  16  26   32.41    6.16
  10  16 -26   46.82    5.85
  10 -16 -26   41.59    6.08
  10 -16 -26   39.00    5.57
  10  16  28   96.10    9.11
  10 -16 -28  116.15    8.78
  10  16 -28  117.02    8.26
  10 -16 -28  115.56    8.68
  10 -16 -30   17.90    3.68
  10  16  30   13.15    3.74
  10 -16 -30   17.92    3.87
  10  16 -30   24.99    4.12
  10 -16 -30   17.88    3.56
  10 -16 -32    0.17    1.95
  10  16  32    4.43    2.50
  10  16 -32    1.15    1.78
  10 -16 -32    1.61    1.67
 -10 -18   0  183.43   22.85
  10 -18   0  200.42   23.96
  10  18   0  167.70   14.22
  10  18   0  137.96   12.79
  10  18   0  158.01   24.50
 -10  18   0  183.96   27.26
 -10 -18  -2  185.80   22.08
 -10 -18   2  176.42   21.46
  10 -18   2  174.71   22.08
  10 -18  -2  189.16   21.27
  10  18   2  168.74   13.50
  10  18  -2  146.68   12.12
  10  18   2  183.98   24.67
  10  18   2  138.80   12.13
  10  18  -2  143.84   11.89
 -10  18  -2  184.34   24.31
  10  18  -2  177.24   23.55
  10  18   4   36.84    5.97
  10  18  -4   39.27    9.13
 -10  18  -4   62.52   12.68
 -10 -18  -4   43.72   10.96
 -10 -18   4   42.42   10.64
  10  18   4   51.82    7.27
  10 -18   4   41.97   11.66
  10 -18  -4   45.89   10.78
  10  18  -4   32.45    5.01
  10  18   4   37.99    6.06
  10  18   4   49.84   12.65
  10  18  -4   43.76    6.08
 -10  18  -6    1.00    5.35
 -10 -18   6    3.53    7.05
  10 -18   6    1.39    6.42
  10 -18  -6    1.83    3.97
  10  18   6    5.02    3.21
 -10 -18  -6    3.22    5.63
  10  18  -6    4.95    3.24
  10  18   6    4.10    6.82
  10  18   6    0.01    2.47
  10  18  -6    2.49    2.69
 -10  18  -8   34.56    8.81
 -10 -18  -8   16.85    7.51
 -10 -18   8   20.93    6.93
  10 -18   8    6.99    6.68
  10  18   8   24.20    8.38
  10  18   8   27.74    5.53
  10  18   8   21.21    4.47
  10  18  -8   33.24    5.38
  10  18  10   43.12   11.90
 -10 -18  10   51.09   11.43
  10 -18  10   18.86    8.89
 -10 -18 -10   35.00   10.43
  10  18  10   41.18    7.02
  10  18 -10   38.01    9.10
  10 -18 -10   19.15    8.59
  10  18 -10   51.04    7.08
  10 -18 -10   46.90    7.25
  10  18  12   62.29   14.27
 -10 -18  12   81.77   15.15
 -10 -18 -12   47.88   11.92
  10 -18  12   52.24   12.27
  10  18 -12   66.09    7.86
  10  18  12   42.08    6.51
  10  18  12   72.99    9.10
  10  18 -12   44.66   11.22
  10 -18 -12   81.84   16.25
  10  18 -12   68.70    8.00
  10 -18 -12   68.67    8.73
  10  18  14  105.46   17.18
  10  18  14  119.55   11.14
  10 -18  14   77.69   16.85
  10  18  14   81.16    8.83
  10 -18 -14   95.95   17.34
  10  18 -14   93.11   15.03
  10  18 -14  112.21    9.83
  10 -18 -14  102.76    9.92
  10  18  16   63.84    9.35
  10  18  16   43.60    7.28
  10 -18 -16   68.60   16.64
  10  18 -16   48.51   12.75
  10  18 -16   56.70    7.88
  10 -18 -16   58.46    8.23
  10  18  18   22.78    6.43
  10  18  18   26.12    6.10
  10 -18 -18   14.06    4.71
  10  18 -18   15.25    4.94
  10  18  20   10.08    4.49
  10  18  20    0.81    2.65
  10 -18 -20    7.51    3.34
  10  18 -20   10.28    3.65
  10  18  22    9.06    4.52
  10  18  22   12.49    4.62
  10 -18 -22    1.41    2.84
  10  18 -22    5.66    3.22
  10 -18 -22    1.66    3.14
  10  18  24   73.90   10.25
  10  18  24   49.69    8.30
  10 -18 -24   79.61    8.94
  10  18 -24   80.50    8.55
  10 -18 -24   77.78    8.62
  10  18  26   84.59    9.98
  10  18  26   87.97    9.15
  10 -18 -26  109.06    9.36
  10  18 -26   92.62    8.34
  10 -18 -26  108.49    9.33
  10 -18 -28  133.22    9.39
  10  18 -28  128.73    8.67
  10 -18 -28  117.38    8.77
  10 -18 -30   48.43    5.80
  10  18 -30   47.99    5.57
  10 -18 -30   51.87    5.79
  10 -18 -30   43.06    5.19
 -10 -20   0  168.42   22.54
  10 -20   0  192.59   24.86
  10  20   0  197.77   15.70
  10  20   0  168.18   14.55
 -10  20   0  220.58   29.90
  10  20   0  179.06   27.36
  10  20   2   54.57    7.76
 -10 -20  -2   66.48   13.52
 -10 -20   2   66.05   12.70
  10  20   2   68.58    8.86
  10  20  -2   66.87    8.19
  10 -20   2   78.44   14.57
  10 -20  -2   57.23   13.39
  10  20   2   87.27   17.87
  10  20   2   64.39    8.37
  10  20  -2   76.06    8.64
 -10  20   2   62.17   17.47
 -10  20  -2  116.26   20.20
  10  20  -2   56.07   14.14
  10  20   4   69.96   14.94
 -10  20  -4   82.98   16.20
 -10 -20  -4   66.97   13.57
 -10 -20   4   53.97   11.46
  10  20   4   67.22    8.13
  10 -20   4   55.79   12.13
  10 -20  -4   57.66   13.80
  10  20  -4   48.40    6.51
  10  20  -4   66.31    7.89
  10  20   4   53.72    7.11
  10  20   4   49.65    6.59
 -10  20  -6   33.29    7.33
 -10  20  -6   46.96   13.66
 -10 -20  -6   31.59   11.39
 -10 -20   6   44.22   12.70
  10 -20   6   10.76    9.46
  10 -20  -6   14.07    7.80
  10  20   6   31.81    6.68
  10  20  -6   33.90    6.23
  10  20   6   32.54    5.95
  10  20  -6   32.46    6.22
  10  20   6   35.72   12.50
 -10  20  -8    1.42    5.88
 -10 -20  -8    0.90    3.71
 -10 -20   8    0.73    5.20
  10 -20   8    0.50    8.00
  10  20   8    5.09    4.60
  10  20   8    2.03    3.41
  10  20   8    3.50    6.17
  10  20  -8    0.33    2.49
 -10 -20 -10    0.48    6.53
 -10 -20  10    2.81    4.47
  10  20  10    7.42    3.48
  10  20  10    0.48    5.66
  10 -20 -10    0.79    9.23
  10  20 -10    6.39    3.88
  10 -20 -10    5.55    3.09
  10  20  12  106.62   10.43
 -10 -20  12   81.34   14.50
  10 -20  12   83.16   15.19
  10  20  12  106.13   18.65
  10  20 -12   72.46   13.21
  10 -20 -12   95.34   16.99
  10  20 -12  112.58    9.96
  10 -20 -12  104.46   10.53
  10  20  14  155.08   14.27
  10  20 -14  176.19   13.32
  10 -20 -14  157.57   13.64
  10  20  16   52.44    8.68
  10  20 -16   54.89    7.69
  10 -20 -16   48.32    7.83
  10  20  18   12.56    5.43
  10 -20 -18    5.89    2.91
  10  20 -18    9.26    3.73
  10  20  20    5.23    4.59
  10 -20 -20    3.96    4.08
  10  20 -20    1.41    3.27
  10 -20 -20    3.45    3.70
  10  20  22    0.49    3.40
  10 -20 -22    2.84    3.44
  10  20 -22    0.16    2.61
  10 -20 -22    0.32    2.64
  10  20  24   36.62    6.70
  10  20 -24   49.66    6.21
  10 -20 -24   57.01    7.12
  10 -20 -24   52.35    6.67
  10  20  26  109.63   10.04
  10  20 -26  132.01    8.95
  10 -20 -26  133.03    9.69
  10 -20 -26  139.19    9.50
  10  20 -28   91.85    7.43
  10 -20 -28   95.48    8.06
  10 -20 -28   98.85    7.90
  10 -20 -30   26.36    3.56
  10  20 -30   37.90    4.41
  10 -20 -30   32.68    4.30
  10 -20 -30   33.96    4.28
  10  22   0   24.84    6.41
 -10  22   0   42.24   16.34
  10  22   0   23.52   12.41
  10 -22   0   16.86    9.59
  10  22   0   25.69    6.39
 -10 -22   0   22.67    9.87
  10  22   0   36.28    7.56
  10  22   2   66.11    8.43
 -10  22   2   92.48   19.46
  10  22   2   78.60   17.49
 -10  22  -2   79.77   18.34
 -10 -22  -2   76.76   14.06
 -10 -22   2   73.97   14.32
  10  22   2   83.66   10.07
  10  22  -2   68.15    8.74
  10 -22   2   65.07   13.59
  10 -22  -2   63.99   13.32
  10  22   2   77.15    9.27
  10  22  -2   78.73    9.51
 -10  22   4    2.10    5.73
 -10  22  -4   15.31   10.53
 -10 -22  -4    0.62    4.32
 -10 -22   4    0.92    5.08
  10 -22   4    1.19    5.76
  10 -22  -4    4.97    8.06
  10  22   4    5.37    4.34
  10  22  -4    0.92    3.94
  10  22   4    1.43    2.88
  10  22   4    2.58    7.59
  10  22  -4    5.15    4.57
  10  22   4    5.38    4.58
 -10  22  -6   52.01    7.34
  10  22   6   50.93   12.58
 -10  22  -6   46.64   10.66
 -10 -22  -6   21.21    8.24
 -10 -22   6   40.97   10.64
  10 -22   6   50.06   12.38
  10  22   6   43.98    6.78
  10  22  -6   47.60    6.24
  10  22   6   53.73    6.95
  10  22  -6   53.00    6.80
  10  22   8   98.30   16.00
 -10  22  -8  114.39   10.34
  10  22   8  102.23    9.39
 -10 -22  -8   67.25   11.84
 -10 -22   8   94.76   13.49
  10  22  -8  104.96    8.89
  10 -22   8   79.67   14.36
 -10  22  -8   70.35   12.40
  10  22   8  101.42    8.81
  10  22  -8  110.98    9.17
  10 -22  -8   97.11    9.24
 -10  22 -10    0.81    4.13
  10  22  10    0.86    3.44
  10  22 -10    1.40    2.85
  10 -22 -10    1.76    4.74
  10  22  12   53.44    9.05
  10  22 -12   47.22    7.44
  10 -22 -12   49.24    8.49
  10  22  14  115.01   10.91
  10  22 -14  132.34   10.36
  10 -22 -14  122.80   10.71
  10  22  16   37.87    7.46
  10 -22 -16   39.92    7.11
  10  22 -16   38.18    6.34
  10  22  18    0.61    4.10
  10 -22 -18    1.50    3.04
  10  22 -18    1.00    3.17
  10  22  20   16.68    5.79
  10 -22 -20   18.14    5.40
  10  22 -20   17.96    4.99
  10 -22 -20   24.24    5.46
  10  22  22   10.46    4.23
  10 -22 -22    4.47    2.87
  10  22 -22    4.62    2.53
  10 -22 -22    4.87    2.98
  10  22  24    0.05    2.76
  10 -22 -24    1.42    2.83
  10  22 -24    0.05    2.88
  10 -22 -24    2.85    2.68
  10  22 -26   88.81    7.53
  10 -22 -26   89.31    7.93
  10 -22 -26   99.81    8.00
  10 -22 -28   14.74    2.46
  10  22 -28   18.70    3.03
  10 -22 -28   21.23    3.16
  10  24   0   16.80    4.36
  10  24   0   12.62    3.59
  10  24   0   15.14    4.48
  10  24   2    0.96    3.63
  10  24  -2    1.34    3.05
  10  24   2    0.42    2.98
  10  24  -2    1.20    3.22
  10  24   2    1.56    2.91
  10  24  -2    0.67    3.86
 -10  24  -4    9.04    3.71
  10  24   4   14.14    5.24
  10  24  -4   15.38    4.79
  10  24   4   13.98    5.09
  10  24  -4   22.32    6.02
  10  24   4   16.73    5.22
 -10  24  -6  119.55   13.83
  10  24   6  129.89   13.77
  10  24  -6  137.34   13.93
  10  24   6  117.10   12.57
  10  24  -6  146.56   14.22
 -10  24  -8   51.65    6.81
  10  24   8   53.15    6.81
  10  24   8   48.13    6.14
  10  24  -8   48.54    5.95
  10  24  -8   49.20    6.23
  10 -24  -8   54.73    7.09
 -10  24 -10   56.77    9.11
  10  24  10   60.04    9.24
  10  24 -10   57.09    8.55
  10 -24 -10   56.74    8.94
  10  24  12    0.19    3.64
 -10  24 -12   11.51    4.41
  10  24 -12    2.02    3.39
  10 -24 -12   11.32    4.67
 -10  24 -14   47.33    9.56
  10  24  14   45.38    9.34
  10  24 -14   41.32    8.34
  10 -24 -14   51.49    9.60
 -10  24 -16    8.18    3.41
  10  24  16   11.74    3.61
  10  24 -16    2.71    2.94
  10 -24 -16    8.84    3.26
 -10  24 -18   12.35    4.72
  10  24  18   10.11    3.74
  10 -24 -18   13.91    4.60
  10  24 -18   13.56    4.44
 -10  24 -20   65.48    7.72
  10  24  20   72.58    8.14
  10  24 -20   75.40    7.18
  10 -24 -20   72.85    7.35
  10 -24 -20   81.76    7.64
 -10  24 -22   39.64    7.04
  10  24  22   43.98    7.26
  10  24 -22   42.59    6.03
  10 -24 -22   43.93    6.61
  10 -24 -22   41.58    6.26
 -10  24 -24    0.26    2.87
  10  24  24    1.54    2.50
  10 -24 -24    0.62    2.35
  10  24 -24    0.21    2.64
  10 -24 -24    0.53    2.47
 -10  24 -26    1.89    2.91
  10 -24 -26    0.40    2.45
  10  24 -26    0.24    2.06
  10 -24 -26    0.40    2.05
  10  26   0    0.01    3.64
  10  26   0    0.01    3.63
  10  26   0    0.01    3.67
  10  26   2    0.26    3.65
  10  26  -2    4.55    4.48
  10  26   2    0.26    4.48
  10  26  -2    0.58    3.35
  10  26   2    2.68    3.41
  10  26  -2    2.55    3.83
 -10  26  -4   37.22    7.15
  10  26  -4   53.42    8.63
  10  26   4   32.99    7.24
  10  26   4   38.41    7.20
  10  26  -4   38.77    7.38
 -10  26  -6  182.09   16.17
  10  26   6  177.04   16.26
  10  26  -6  195.59   16.31
  10  26   6  157.05   14.15
  10  26  -6  190.14   16.23
  10 -26  -6  152.33   15.59
 -10  26  -8  102.71    9.19
  10  26   8  113.63    9.75
  10  26  -8  116.48    9.25
  10  26  -8  113.25    9.42
  10 -26  -8   99.39    8.95
 -10  26 -10   50.83    7.46
  10  26 -10   66.44    7.71
  10  26  10   62.55    8.32
  10  26 -10   54.72    7.49
  10 -26 -10   48.93    7.44
 -10  26 -12    4.54    4.52
  10  26 -12    4.67    4.24
  10 -26 -12    0.73    3.28
  10  26  12    5.79    4.14
 -10  26 -14    5.60    3.65
  10  26  14    2.66    3.39
  10  26 -14    6.63    3.52
  10 -26 -14    5.67    3.31
 -10  26 -16    0.77    3.00
  10  26  16    0.11    3.19
  10  26 -16    0.12    3.39
  10 -26 -16    0.21    3.86
 -10  26 -18   60.14    8.48
  10  26  18   56.39    8.56
  10  26 -18   56.72    7.36
  10 -26 -18   60.60    7.90
  10 -26 -18   48.52    6.95
 -10  26 -20   91.04    9.24
  10  26  20  103.33    9.88
  10  26 -20   93.99    8.14
  10 -26 -20   99.50    8.95
  10 -26 -20   98.03    8.57
 -10  26 -22   55.12    7.03
  10  26  22   48.90    6.75
  10  26 -22   47.23    5.55
  10 -26 -22   57.21    6.55
  10 -26 -22   52.78    6.12
 -10  26 -24    9.13    2.91
  10  26  24    9.77    3.04
  10  26 -24    4.95    2.06
  10 -26 -24    6.16    2.44
  10 -26 -24    7.67    2.41
  10  28   0    5.62    3.76
  10  28   0    2.52    3.16
  10  28   0    1.02    3.53
  10  28  -2    1.85    2.78
  10  28   2    0.43    5.13
  10  28  -2    4.11    4.66
  10  28   2    1.33    3.08
  10  28  -2    1.82    3.41
  10  28  -4   59.50    8.00
 -10  28  -4   71.85    9.03
  10  28   4   75.89    9.79
  10  28  -4   84.62   10.02
  10  28   4   67.41    8.28
  10  28  -4   88.32    9.87
  10 -28  -4   61.21    8.64
 -10  28  -6  106.47   10.79
  10  28   6  127.59   12.25
  10  28  -6  132.98   12.05
  10  28  -6  114.43   11.09
  10 -28  -6  101.11   11.27
 -10  28  -8  119.48   11.02
  10  28   8  127.07   11.77
  10  28  -8  107.67   10.22
  10  28  -8  111.73   10.52
  10 -28  -8  102.46   10.42
 -10  28 -10   31.37    5.85
  10  28  10   51.85    7.50
  10  28 -10   33.98    5.19
  10  28 -10   46.83    6.93
  10 -28 -10   43.93    6.77
 -10  28 -12    3.53    4.02
  10  28  12    2.62    4.05
  10  28 -12    2.44    3.08
  10 -28 -12    1.02    4.37
 -10  28 -14    0.03    3.20
  10  28  14    2.03    4.18
  10  28 -14    2.15    3.43
  10 -28 -14    0.84    3.92
 -10  28 -16    6.57    2.89
  10  28  16    0.44    3.04
  10  28 -16    3.59    2.81
  10 -28 -16    0.11    3.23
 -10  28 -18   77.74    8.57
  10  28  18   83.81    9.34
  10  28 -18   87.34    8.09
  10 -28 -18   85.90    8.46
  10 -28 -18   80.01    8.10
 -10  28 -20   47.10    6.71
  10  28  20   53.81    6.95
  10  28 -20   56.84    6.20
  10 -28 -20   52.90    6.45
  10 -28 -20   49.09    6.16
 -10  28 -22   41.39    5.31
  10  28  22   40.26    5.10
  10  28 -22   49.21    5.02
  10 -28 -22   36.80    4.57
  10 -28 -22   44.70    4.86
  10  30   0   11.63    4.14
  10  30   0   10.64    2.88
  10 -30   0   11.93    3.64
  10  30   2    0.77    3.83
  10  30  -2    4.10    3.23
  10  30   2    0.77    3.09
  10  30  -2    0.94    3.46
  10 -30  -2    3.42    2.78
  10  30  -2    2.15    2.75
  10  30  -4   18.21    4.16
 -10  30  -4   18.70    4.35
  10  30   4   32.68    6.25
  10  30   4   21.24    4.67
  10  30  -4   25.28    5.42
  10 -30  -4   28.15    5.37
 -10  30  -6   51.13    7.54
  10  30   6   64.00    8.82
  10  30  -6   64.43    8.19
  10  30  -6   58.47    7.91
  10 -30  -6   53.39    7.67
 -10  30  -8   96.43   10.25
  10  30  -8   88.13    9.13
  10  30   8  127.66   11.74
  10  30  -8  105.77   10.02
  10 -30  -8   92.64    9.64
 -10  30 -10    6.73    3.52
  10  30  10    0.62    3.23
  10  30 -10    5.84    3.20
  10  30 -10    6.88    3.59
  10 -30 -10    2.22    2.83
 -10  30 -12    0.07    3.52
  10  30  12    0.19    2.88
  10  30 -12    0.87    2.52
  10 -30 -12    0.01    3.67
 -10  30 -14    3.14    2.82
  10  30  14    0.04    2.80
  10  30 -14    0.04    2.97
  10 -30 -14    0.82    2.60
 -10  30 -16    3.61    2.36
  10  30  16   11.55    4.00
  10  30 -16   16.74    4.15
  10 -30 -16   11.99    3.56
  10 -30 -16    9.91    3.31
 -10  30 -18   15.36    3.71
  10  30  18   15.42    4.24
  10  30 -18   16.20    3.52
  10 -30 -18   19.85    4.01
  10 -30 -18   18.92    3.90
  10  32   0    9.48    4.60
  10  32   0    5.35    3.47
  10 -32   0    8.45    4.33
  10  32   2    7.76    4.16
  10  32  -2    6.61    3.28
  10  32  -2    5.50    2.70
  10 -32  -2    6.92    2.97
  10 -32   2    9.70    3.22
  10  32   4    3.29    2.92
  10  32  -4    3.48    2.89
  10  32  -4    1.93    2.80
  10 -32  -4    2.96    2.75
  10 -32   4    5.90    3.16
 -10  32  -6   26.12    5.24
  10  32   6   27.85    6.06
  10  32  -6   30.86    5.62
  10  32  -6   35.00    5.85
  10 -32  -6   27.53    5.33
  10 -32   6   20.78    4.65
 -10  32  -8   14.95    3.28
  10  32   8   20.52    3.87
  10  32  -8   17.88    2.94
  10  32  -8   19.48    3.67
  10 -32  -8   18.60    3.56
 -10  32 -10    1.28    2.21
  10  32  10    0.79    2.63
  10  32 -10    0.96    2.75
  10 -32 -10    4.79    2.51
 -10  32 -12   10.92    3.40
  10  32  12   14.54    3.96
  10  32 -12   16.84    3.81
  10 -32 -12    9.17    3.34
 -10  32 -14    3.82    2.57
  10  32  14    3.13    2.77
  10  32 -14    3.77    2.48
  10 -32 -14    2.26    2.29
  10 -32 -14    3.68    2.09
 -10  32 -16    0.03    1.95
  10  32  16    0.02    2.31
  10  32 -16    0.04    2.03
  10 -32 -16    0.49    1.70
  10 -32 -16    0.03    1.83
  10  34   0   53.68    5.61
  10 -34   0   41.73    4.21
  10  34   2   27.86    4.82
  10  34  -2   15.73    3.47
  10  34  -2   19.75    3.42
  10 -34  -2   18.38    3.31
  10 -34   2   15.60    2.83
  10  34   4    1.29    2.58
  10  34  -4    0.24    2.87
  10  34  -4    2.06    2.50
  10 -34  -4    0.47    1.80
  10 -34   4    2.32    2.31
  10  34   6    5.49    2.67
  10  34  -6    0.32    2.04
  10  34  -6    0.32    1.91
  10 -34  -6    0.26    1.76
  10  34   8    3.11    2.82
  10  34  -8    0.81    1.92
  10  34  -8    1.55    2.10
  10 -34  -8    1.00    1.77
  10  34  10    0.07    2.06
  10  34 -10    0.19    1.81
  10 -34 -10    2.16    1.94
  11   1   1  732.64   29.98
  11   1  -1  778.51   32.58
  11  -1   1  756.91   30.88
  11  -1  -1  767.29   32.43
  11  -1   1  663.12   25.37
  11   1   1  699.33   27.13
  11   1   3  395.84   18.47
  11  -1   3  382.18   18.22
  11   1  -3  419.86   21.83
  11  -1  -3  424.92   22.04
  11  -1   3  384.76   18.25
  11   1   3  380.03   18.51
  11   1   5   96.17   11.19
  11   1  -5  118.23   14.83
  11  -1  -5  127.03   15.30
  11  -1   5   92.83   12.07
  11   1   5   76.50   11.16
  11   1  -7   58.64   10.54
  11  -1  -7   58.80   10.36
  11   1   7   74.52   11.21
 -11   1  -9   34.74    9.50
 -11  -1  -9   27.54    9.14
  11   1  -9   28.36    8.11
  11  -1  -9   27.32    7.51
  11   1   9   28.83    7.64
  11   1 -11  367.96   25.46
  11  -1 -11  376.08   25.62
 -11   1 -11  432.80   31.28
 -11  -1 -11  431.05   31.61
  11   1  11  329.44   25.07
  11   1 -13  317.92   23.16
  11  -1 -13  296.67   22.26
 -11   1 -13  414.83   30.01
 -11  -1 -13  427.17   30.95
  11   1  13  337.10   25.25
  11   1 -15  183.43   18.86
  11  -1 -15  165.68   17.92
 -11   1 -15  213.80   23.12
 -11  -1 -15  233.22   24.14
  11   1  15  158.70   19.43
  11   1 -17  124.59   16.30
  11  -1 -17  145.36   17.70
  11   1  17  122.97   11.52
 -11   1 -17  174.67   21.82
 -11  -1 -17  183.51   22.37
  11   1  17  121.93   18.27
  11   1 -17  104.53    9.23
  11   1 -19   29.45    4.72
  11  -1 -19   21.01    3.65
  11   1 -19   27.39    7.61
 -11   1 -19   31.84    9.00
 -11  -1 -19   17.84    6.24
  11  -1 -19   32.62    8.51
  11  -1  19   38.20    9.42
  11   1  19   25.36    7.69
  11   1 -21   45.65   11.94
 -11   1 -21   56.98   14.74
 -11  -1 -21   33.98   10.57
  11  -1 -21   31.44    9.68
  11  -1  21   21.77    8.13
  11   1  21   29.43   11.36
  11   1 -21   38.74    6.55
  11  -1 -21   45.85    7.21
  11   1 -23   68.42   15.15
 -11   1 -23   86.60   17.46
 -11  -1 -23   88.55   17.38
  11  -1 -23   57.48   14.04
  11  -1  23   83.51   18.44
  11   1  23   72.51   16.49
  11   1 -23  100.83   10.05
  11  -1 -23   88.18    9.86
  11   1 -25  252.79   15.38
  11  -1 -25  270.17   15.60
  11   1 -27  270.14   14.84
  11  -1 -27  264.43   15.17
  11   1 -29  261.90   14.85
  11  -1 -29  272.75   15.00
  11   1  31  100.07   11.05
  11   1 -31  105.39    8.83
  11  -1 -31   97.09    8.53
  11  -1  33   52.24    8.40
  11   1  33   44.72    7.81
  11   1 -33   51.03    6.43
  11  -1 -33   44.76    6.00
  11   1  35   10.99    4.22
  11  -1  35    6.74    3.35
  11   1 -35    3.27    1.87
  11  -1 -35    6.63    2.52
  11   3   1  295.38   17.31
  11   3   1  308.81   18.82
  11   3  -1  306.28   18.97
  11   3  -1  283.36   15.78
  11  -3   1  318.91   18.69
  11  -3  -1  304.38   18.95
  11  -3   1  265.87   14.56
  11   3   3  139.28   11.82
  11   3  -3  152.51   13.23
  11  -3   3  151.54   12.05
  11  -3  -3  145.35   13.37
  11   3   3  131.63   11.61
  11   3   5   37.64    7.13
  11   3  -5   52.23    9.81
  11  -3  -5   41.58    9.11
  11   3   5   42.46    8.06
  11   3   7    5.58    4.13
 -11  -3  -7   13.72    7.06
  11   3  -7    8.31    4.88
  11  -3  -7    3.50    3.59
 -11   3  -9   19.81    5.41
 -11  -3  -9   38.95    8.64
  11   3  -9   33.02    6.99
  11  -3  -9   29.14    6.91
  11   3  -9   23.08    6.12
  11   3   9   32.64    6.91
 -11  -3 -11   16.51    5.28
  11   3 -11   13.47    5.06
  11  -3 -11    2.63    4.10
 -11   3 -11   14.74    6.00
  11   3  11    8.65    3.19
  11   3 -13  320.67   28.00
  11   3 -13  312.70   24.16
  11  -3 -13  279.17   22.55
 -11   3 -13  389.64   30.27
 -11  -3 -13  422.90   31.83
  11   3  13  297.81   24.65
  11   3 -15  139.37   21.85
  11   3 -15  107.58   16.65
  11   3  15  104.84   11.16
  11  -3 -15  117.25   16.73
 -11   3 -15  153.77   21.52
 -11  -3 -15  162.83   21.72
  11   3 -15  103.61   10.90
  11   3  15  127.90   18.82
  11   3 -17    4.39    3.09
  11   3  17    7.69    4.48
  11   3 -17    7.11    6.19
 -11   3 -17   14.29    8.82
 -11  -3 -17    9.38    7.73
  11  -3 -17    8.65    6.23
  11   3 -17   12.94    8.63
  11   3  17    9.27    7.06
  11   3 -19   13.39    4.21
  11  -3 -19    7.47    3.18
  11   3  19   12.59    4.75
  11   3 -19   13.10    6.18
 -11   3 -19   15.22    8.74
 -11  -3 -19   21.28    8.90
  11  -3 -19    1.85    4.24
  11   3  19    5.28    4.92
  11   3 -21    1.34    2.48
  11  -3 -21    0.15    2.81
 -11   3 -21    0.05    4.44
 -11  -3 -21   10.86    6.01
  11  -3 -21    4.95    5.78
  11   3 -21    5.56    4.51
  11   3  21    0.07    6.78
  11   3  23   43.42   10.45
  11  -3 -23   47.96    6.27
  11   3 -23   36.93    9.34
 -11   3 -23   35.61    9.20
  11  -3 -23   61.19   12.65
 -11  -3 -23   41.11    9.12
  11  -3  23   46.38   10.87
  11   3 -23   57.56    6.55
  11   3 -25   50.34    6.21
  11  -3 -25   45.39    6.32
  11   3 -27  183.97   12.48
  11  -3 -27  203.69   13.19
  11   3 -29  115.90   10.37
  11  -3 -29  119.65   10.50
  11   3  31   56.44    9.32
  11  -3  31   38.36    7.12
  11   3 -31   56.07    6.77
  11  -3 -31   62.64    6.97
  11  -3 -33    0.07    2.79
  11   3  33    0.07    4.46
  11  -3  33    0.11    3.74
  11   3 -33    0.07    2.28
  11  -3 -35    0.04    2.06
  11   3  35    0.05    2.81
  11  -3  35    0.03    2.43
  11   3 -35    0.05    2.20
  11   5   1   20.05    3.80
  11   5  -1   31.78    5.08
  11  -5   1   18.27    3.05
  11  -5  -1   26.94    4.66
  11   5   1   30.60    4.31
  11   5  -1   24.28    3.66
  11   5   3    0.84    2.66
  11   5  -3    0.92    3.81
  11   5   3    0.84    2.80
  11  -5   3    6.39    3.20
  11  -5  -3    0.78    4.30
  11   5   5   31.44    4.90
  11   5  -5   38.48    5.10
  11  -5  -5   24.64    3.99
  11   5  -5   19.47    2.80
  11   5  -7   64.65   10.03
 -11  -5  -7   87.75   13.09
  11  -5  -7   67.20   10.17
  11   5  -7   54.19    8.87
  11   5   7   72.51   10.47
  11   5  -9   90.75   12.17
  11   5  -9  100.42   12.00
  11  -5  -9   86.37   12.08
 -11   5  -9  103.69   14.39
 -11  -5  -9  128.88   15.45
  11   5   9   86.82   10.96
  11   5  11    0.63    3.87
  11   5 -11    0.62    4.80
 -11   5 -11    0.81    5.98
 -11  -5 -11    0.61    5.24
  11  -5 -11    0.82    3.41
  11   5 -11    0.62    3.99
  11   5  13    0.39    3.96
  11   5 -13    1.14    4.55
 -11  -5 -13    0.96    4.50
 -11   5 -13    0.58    5.97
  11  -5 -13    0.89    4.71
  11   5 -13    0.49    3.96
  11   5 -15  102.06   17.62
  11   5 -15  101.13   14.66
  11   5  15   94.97    9.86
  11  -5 -15  101.79   14.89
 -11   5 -15  132.08   19.31
 -11  -5 -15  150.54   20.47
  11   5 -15  129.08   10.47
  11   5  15   75.29   11.17
  11   5  15   95.80   15.40
  11   5 -17    7.89    3.20
  11   5  17   11.67    6.69
  11   5  17    4.03    2.36
  11   5 -17    3.19    3.77
 -11   5 -17    3.65    5.12
 -11  -5 -17   11.02    6.94
  11  -5 -17    5.81    5.77
  11   5 -17    5.08    6.16
  11   5 -19   93.20   17.98
  11   5 -19   78.82   14.08
  11   5  19   99.54   10.99
  11  -5 -19   84.21   14.83
 -11   5 -19  105.18   17.71
 -11  -5 -19  117.93   18.97
  11   5 -19  107.23   10.01
  11   5  19   94.28   17.01
  11   5 -21   19.42    3.97
  11   5  21   20.61    7.82
  11  -5 -21   23.98    4.30
  11   5  21   17.38    4.32
  11   5 -21   28.07    8.29
 -11   5 -21   26.87    7.67
 -11  -5 -21    2.00    4.73
  11  -5 -21    4.73    4.74
  11   5 -21    2.69    6.06
  11   5 -23   33.40   11.32
 -11  -5 -23   29.50   10.99
  11  -5 -23   38.10   10.97
  11   5 -23   52.43    7.72
  11  -5 -23   46.68    7.51
  11   5 -25    8.62    2.80
  11  -5 -25   11.00    3.37
  11   5 -27   18.56    4.80
  11  -5 -27   15.31    4.32
  11  -5 -29   10.67    2.99
  11   5  29   12.41    5.45
  11   5 -29   23.65    4.96
  11  -5 -31    0.42    2.51
  11  -5  31    1.10    3.52
  11   5 -31    0.36    2.19
  11  -5 -33   33.01    5.03
  11   5  33   35.05    6.95
  11  -5  33   24.53    5.72
  11   5 -33   28.15    4.70
  11  -5  35   31.94    5.19
  11   5  35   34.32    6.07
  11   5 -35   29.36    4.28
  11  -5 -35   25.09    4.11
  11   7  -1   21.28    4.68
  11   7   1   14.27    4.71
  11   7  -1   21.35    5.37
  11  -7   1    4.37    3.27
  11  -7  -1    1.42    3.58
  11   7   1    9.94    3.55
  11   7  -3   93.29   11.65
  11   7   3   87.14   11.20
  11  -7  -3   75.00   11.69
  11  -7   3   75.08    9.17
  11   7  -5  234.96   17.39
  11   7   5  286.04   21.00
  11   7  -5  293.90   21.66
  11  -7  -5  289.06   22.61
  11   7  -7  297.78   22.18
  11   7   7  360.51   24.51
  11   7  -7  338.30   24.45
  11  -7  -7  369.80   25.74
  11   7   9  155.36   16.27
  11   7  -9  154.83   16.58
  11   7  -9  163.96   16.79
  11  -7  -9  163.05   17.36
 -11   7  -9  189.11   19.50
 -11  -7  -9  199.55   20.19
  11   7  11  127.54   15.08
  11   7 -11  149.78   17.12
  11   7 -11  149.95   15.69
 -11  -7  11  151.27   18.01
  11  -7 -11  132.06   15.36
 -11   7 -11  150.07   17.83
 -11  -7 -11  158.46   17.77
  11   7  13   29.20    7.58
 -11  -7  13   33.76    8.30
  11   7 -13   31.23    7.77
 -11   7 -13   39.96   10.47
  11  -7 -13   22.25    7.76
 -11  -7 -13   33.51    8.78
  11   7 -13   44.28   10.27
  11   7  15    1.16    4.09
  11   7  15    0.34    2.26
  11   7 -15    6.43    5.13
 -11   7 -15    0.47    5.90
 -11  -7 -15    0.34    5.70
  11  -7 -15    3.05    5.41
  11   7 -15    0.88    2.21
  11   7  15    0.19    2.89
  11   7 -15    6.79    4.20
  11   7 -15    1.14    1.78
  11   7 -17    9.94    4.78
  11   7  17    9.26    8.11
  11   7  17   19.90    5.99
  11   7 -17   20.45    9.59
 -11   7 -17   18.12   10.40
 -11  -7 -17   26.51   11.44
  11  -7 -17   16.21    8.94
  11   7  17    4.98    5.33
  11   7 -17   11.17    8.84
  11  -7 -17   11.87    4.84
  11   7 -19  248.77   27.05
  11   7 -19  221.62   23.36
  11   7  19  197.37   15.00
  11  -7 -19  240.34   24.98
 -11   7 -19  246.48   27.61
 -11  -7 -19  237.40   26.14
  11  -7 -19  199.46   13.42
  11   7 -19  261.04   15.13
  11   7  19  201.58   24.03
  11   7  21  299.62   28.57
  11   7 -21  298.11   28.00
  11   7 -21  261.83   24.65
  11   7  21  280.05   17.20
  11  -7 -21  293.12   25.55
 -11   7 -21  328.43   29.27
 -11  -7 -21  297.48   27.45
  11  -7 -21  299.02   15.27
  11   7 -21  344.52   15.89
  11  -7 -21  267.75   14.14
  11   7  23   97.69   11.01
  11  -7 -23  109.18    9.88
  11   7 -23  102.67    9.51
  11  -7 -23   97.30    9.29
  11  -7 -25   39.10    6.20
  11  -7 -25   29.43    5.06
  11  -7 -25   34.46    5.34
  11   7 -25   27.28    5.32
  11  -7 -27    0.86    2.70
  11   7  27    2.29    4.94
  11  -7 -27    0.50    2.59
  11   7 -27    1.65    2.63
  11  -7 -29   22.35    4.84
  11   7  29   15.05    5.86
  11  -7  29    6.92    4.14
  11  -7 -29   17.86    4.16
  11   7 -29   17.14    4.21
  11  -7  31   47.84    8.13
  11   7  31   58.65    9.46
  11   7 -31   52.21    6.88
  11  -7 -31   62.60    7.54
  11   7  33   97.86   10.39
  11  -7  33   76.96    7.65
  11   7 -33   94.60    7.35
  11  -7 -33   97.23    7.59
  11  -7  35  105.03    7.50
  11   7 -35  120.59    7.44
  11  -7 -35  118.58    7.54
  11   9   1   40.30    8.48
  11   9  -1   54.25    9.63
  11   9  -1   37.38    8.09
  11  -9   1   24.72    7.60
  11  -9  -1   41.93    9.23
  11   9  -3  245.85   21.90
  11   9   3  236.41   20.82
  11  -9   3  229.91   18.68
  11  -9  -3  231.08   22.26
  11   9  -3  208.81   18.04
  11   9  -5  335.39   21.14
  11   9  -5  432.15   27.10
  11   9   5  397.32   26.25
  11  -9  -5  464.80   29.32
 -11  -9  -5  510.20   30.33
  11   9  -7  444.38   27.31
  11   9   7  521.73   31.23
  11   9  -7  497.81   30.42
  11  -9  -7  546.01   33.63
  11   9  -9  300.85   23.06
  11   9   9  323.27   23.85
  11   9  -9  311.65   23.68
 -11  -9   9  395.63   29.25
  11  -9  -9  350.46   26.28
 -11   9  -9  414.18   29.51
 -11  -9  -9  417.06   28.28
  11   9 -11  151.71   15.18
  11   9  11  156.54   15.45
  11   9 -11  170.43   15.55
 -11  -9  11  191.93   17.79
  11  -9 -11  185.60   16.86
 -11   9 -11  205.88   19.31
 -11  -9 -11  165.95   16.12
  11   9  13   40.51    5.86
  11   9  13   33.56    8.39
  11   9 -13   43.41    9.67
 -11  -9  13   49.44   10.96
 -11   9 -13   62.66   11.66
 -11  -9 -13   52.66   11.17
  11   9 -13   46.21    6.05
  11  -9 -13   45.81    9.73
  11   9  13   35.37    6.77
  11   9 -13   36.39    8.91
  11   9  15   68.07    7.70
  11   9  15   75.05   12.96
  11   9 -15   74.80   12.06
 -11   9 -15   61.16   12.72
 -11  -9 -15   78.07   13.38
  11   9 -15   64.10    7.34
  11  -9 -15   70.80   12.39
  11   9  15   49.79    8.40
  11  -9 -15   59.22    6.56
  11   9 -15   76.26   13.66
  11   9 -15   54.48    6.48
  11   9  17   56.35    7.95
  11   9  17   66.07   13.99
  11   9 -17   42.88   10.69
 -11   9 -17   62.52   14.36
 -11  -9 -17   57.23   12.63
  11  -9 -17   58.21   12.49
  11   9  17   39.61    8.14
  11  -9 -17   45.92    6.52
  11   9 -17   57.85   13.17
  11   9 -17   59.41    7.51
  11   9  19  196.31   24.39
  11   9 -19  230.46   26.45
  11   9 -19  221.74   24.24
  11   9  19  217.83   15.98
  11  -9 -19  216.79   24.04
 -11   9 -19  225.79   27.67
 -11  -9 -19  191.54   23.38
  11   9  19  184.81   16.95
  11  -9 -19  198.34   13.99
  11   9 -19  217.10   14.05
  11  -9 -19  201.45   13.79
  11   9  21  381.02   33.91
  11   9 -21  350.14   32.29
  11   9 -21  367.31   32.17
  11   9  21  418.76   21.93
  11  -9 -21  406.52   32.57
  11   9  21  475.01   25.23
 -11   9 -21  434.91   36.21
 -11  -9 -21  345.26   30.60
  11  -9 -21  435.28   19.50
  11   9 -21  438.32   19.11
  11  -9 -21  404.98   18.95
  11   9  23  220.80   16.99
  11   9  23  236.66   18.39
  11  -9 -23  232.53   14.55
  11   9 -23  237.46   14.30
  11  -9 -23  234.16   14.30
  11   9  25   77.51   12.20
  11  -9 -25   65.48    8.73
  11   9 -25   73.41    8.63
  11  -9 -25   65.76    8.51
  11  -9 -27    8.06    3.00
  11   9  27   10.76    4.78
  11  -9  27    0.90    3.45
  11  -9 -27   13.91    3.28
  11  -9 -27    6.53    2.35
  11   9 -27   12.81    3.08
  11  -9 -29   40.95    5.91
  11   9  29   34.47    7.57
  11  -9  29   35.74    6.30
  11  -9 -29   37.50    5.14
  11  -9 -29   33.49    5.07
  11   9 -29   31.67    4.74
  11  -9  31  111.16   10.11
  11   9 -31  135.11    9.41
  11  -9 -31  116.08    8.81
  11  -9 -31  129.08    9.69
  11   9  33  156.63   12.78
  11   9 -33  148.05    9.42
  11  -9 -33  147.03    9.77
  11   9  35  122.93    9.65
  11   9 -35  136.49    7.71
  11  -9 -35  137.58    7.72
  11  11   1   50.30    9.85
  11 -11  -1   23.49    9.36
  11  11  -1   45.57    9.15
  11  11  -3   51.33    9.78
  11 -11   3   22.81    8.97
  11 -11  -3   45.26   10.21
 -11  11  -3   60.06   10.35
  11  11   3   64.68   11.04
  11  11  -5  462.57   27.58
 -11 -11   5  504.18   31.54
  11  11   5  378.57   25.85
  11 -11  -5  390.94   27.89
 -11  11  -5  408.69   25.29
  11  11  -7  356.62   25.16
 -11 -11   7  378.01   28.23
  11  11   7  332.42   25.04
  11 -11  -7  338.22   27.08
 -11 -11  -7  382.73   25.51
  11  11  -7  276.68   20.70
  11  11  -9  327.57   25.65
  11  11   9  299.31   24.77
 -11 -11   9  356.10   28.56
  11 -11  -9  364.44   28.50
 -11  11  -9  361.63   29.42
 -11 -11  -9  330.09   24.71
  11  11  -9  281.15   22.74
  11  11 -11  100.89   16.49
  11  11  11   80.60   15.46
 -11 -11  11  130.72   19.21
  11  11  11   88.19   10.29
  11 -11 -11  115.54   18.58
 -11  11 -11   88.99   17.09
 -11 -11 -11   88.12   15.35
  11  11 -11   76.79    9.44
  11  11  11   74.50   10.10
  11  11 -11   85.31   15.12
 -11 -11  13    0.17    4.17
  11  11 -13    0.17    5.30
  11  11  13    0.69    2.62
 -11 -11 -13    0.01    3.56
 -11  11 -13    3.77    6.82
  11  11  13    0.23    4.16
  11  11 -13    1.16    2.31
  11 -11 -13    0.42    5.02
  11  11  13    0.91    2.81
  11  11 -13    0.17    3.89
  11 -11 -13    1.49    2.98
  11  11 -13    1.43    1.90
  11  11 -15   90.30   15.50
  11  11 -15  103.14   15.79
  11  11  15   94.90   10.09
  11 -11 -15   87.24   14.55
 -11  11 -15  111.33   17.86
  11  11 -15   90.61    9.76
  11  11  15   68.25   13.53
  11  11  15   66.75    9.50
 -11 -11 -15   74.53   12.88
  11 -11 -15   96.19    9.42
  11  11 -15   81.25    8.60
  11  11 -17  130.78   19.55
  11  11  17  109.17   18.22
  11  11 -17  111.33   17.57
  11  11  17  107.23   11.41
  11 -11 -17  114.04   18.80
 -11  11 -17  116.35   19.66
  11  11  17  106.81   12.27
  11 -11 -17  115.77   10.69
  11  11 -17  123.43   10.64
  11  11  19   68.02    8.80
  11  11 -19   61.89   12.63
 -11  11 -19   76.07   16.07
  11  11  19   64.73   13.49
  11  11  19   74.36   10.23
  11 -11 -19   67.16   13.61
  11 -11 -19   71.42    8.18
  11  11 -19   47.99   11.15
  11  11 -19   70.12    7.89
  11 -11 -19   67.12    7.73
  11  11  21  265.27   17.18
  11  11  21  273.79   19.06
  11 -11 -21  269.61   15.46
  11  11 -21  274.59   15.22
  11 -11 -21  262.63   14.92
  11  11  23  162.75   14.82
  11  11  23  179.79   16.46
  11 -11 -23  168.00   12.89
  11  11 -23  179.85   12.70
  11 -11 -23  172.10   12.87
  11  11  25   37.34    7.26
  11  11  25   43.41    8.66
  11 -11 -25   44.32    6.66
  11  11 -25   40.51    6.25
  11 -11 -25   45.13    6.78
  11 -11 -27    6.89    2.55
  11  11  27   11.96    4.77
  11 -11 -27   10.83    3.65
  11  11 -27   16.03    3.90
  11 -11 -27   14.01    3.94
  11 -11 -29    0.10    2.28
  11  11  29    0.64    3.94
  11 -11 -29    1.10    2.21
  11  11 -29    0.52    2.70
  11 -11 -29    0.44    2.01
  11  11  31  105.50   11.47
  11  11 -31   92.38    7.77
  11 -11 -31   88.73    7.84
  11 -11 -31   93.88    8.10
  11  11  33  168.37   12.57
  11  11 -33  149.06    9.07
  11 -11 -33  128.76    8.46
  11 -11 -33  161.72    9.49
 -11 -13  -1   41.34   10.15
  11 -13   1   40.43   11.25
  11 -13  -1   44.16   10.81
  11  13   1   30.49    9.16
 -11 -13   1   43.56   11.45
  11 -13   1   16.17    7.59
  11 -13  -1   10.27    9.55
  11  13  -1   39.16   10.00
 -11  13  -3   36.53    9.93
  11  13   3   38.56    9.53
 -11 -13   3   54.95   12.58
  11 -13   3   33.51   11.25
  11  13  -3   39.04    9.53
  11 -13   3    3.90    6.23
  11 -13  -3   34.10   11.14
  11  13   5   28.35    9.28
 -11  13  -5   24.75    8.64
 -11 -13   5   32.88   11.53
  11 -13   5   17.74    9.84
  11 -13  -5   18.16    9.49
 -11 -13   7  264.52   24.74
  11  13   7  202.38   21.30
  11 -13   7  259.38   24.15
  11 -13  -7  184.54   23.00
 -11  13  -7  253.17   24.72
 -11 -13  -9   92.94   15.25
 -11 -13   9  104.04   15.60
  11  13   9   81.25   13.56
  11  13   9   81.10    8.29
  11  13  -9   80.09    8.04
  11  13   9   86.69    8.52
  11 -13   9  101.63   15.48
  11 -13  -9   75.53   14.39
 -11  13  -9  112.08   16.80
  11  13  -9   69.65   11.01
 -11 -13 -11   15.08    7.91
 -11 -13  11   22.10    6.91
 -11  13 -11   10.89    8.48
  11  13 -11   20.80    5.06
  11 -13 -11   33.41   10.55
  11  13  11   16.48    4.75
  11  13 -11   21.63    7.57
  11  13  11   18.94    7.50
  11 -13 -11   14.91    4.54
  11  13 -11   19.32    4.18
  11  13  11   22.58    5.22
 -11 -13 -13    0.01    6.32
 -11 -13  13    1.02    3.62
  11  13  13    4.70    4.27
  11  13 -13    1.76    2.77
  11 -13 -13    0.78    4.70
  11  13  13    2.92    3.81
  11  13 -13    0.54    4.28
  11  13  13    2.08    5.40
  11 -13 -13    2.30    3.48
  11  13 -13    2.60    2.81
 -11  13 -13   13.72   10.01
  11  13  15    3.96    3.04
 -11  13 -15    2.28    5.17
  11  13 -15    0.06    2.65
  11 -13 -15    2.19    4.53
  11  13  15    0.03    5.39
  11  13  15    0.03    3.08
  11  13 -15    8.80    6.06
  11 -13 -15    0.15    2.54
  11  13 -15    0.92    2.25
  11  13  17   31.31    6.15
 -11  13 -17   38.60   11.79
  11 -13 -17   23.45    8.42
  11  13  17   25.99    8.41
  11  13  17   27.75    6.55
  11  13 -17   13.26    6.75
  11 -13 -17   26.08    5.41
  11  13 -17   22.97    4.45
  11  13  19   71.86    7.91
 -11  13 -19   67.44   12.73
  11 -13 -19   54.64   11.91
  11  13  19   48.93   10.01
  11  13  19   48.28    7.46
  11 -13 -19   64.00    6.82
  11  13 -19   53.30   11.67
  11  13 -19   65.42    6.74
  11 -13 -19   64.49    6.30
  11  13  21    6.97    4.50
  11  13  21    8.33    5.23
  11 -13 -21   10.76    3.54
  11  13 -21   13.42    4.27
  11 -13 -21   13.04    4.37
  11  13  23   60.03    9.44
  11  13  23   58.81   10.30
  11 -13 -23   74.17    8.72
  11  13 -23   73.19    8.46
  11 -13 -23   70.31    8.67
  11  13  25    1.08    4.18
  11  13  25    1.08    4.13
  11 -13 -25    0.44    2.58
  11  13 -25    1.40    2.56
  11 -13 -25    2.74    2.74
  11 -13 -27   13.31    4.48
  11  13  27   10.69    5.16
  11 -13 -27    9.43    3.71
  11  13 -27   11.19    3.97
  11 -13 -27    6.31    3.35
  11 -13 -29    0.01    2.35
  11  13  29    0.63    3.76
  11 -13 -29    1.08    2.23
  11  13 -29    2.33    2.14
  11 -13 -29    3.04    2.62
  11 -13 -31    0.26    2.57
  11  13  31    0.50    3.26
  11  13 -31    0.26    2.01
  11 -13 -31    0.26    2.41
  11  13  33   58.38    7.04
  11  13 -33   68.31    6.00
  11 -13 -33   50.87    5.22
  11 -13 -33   59.58    5.56
 -11 -15  -1  232.48   24.75
 -11 -15   1  243.48   25.65
  11 -15   1  259.37   26.12
  11 -15  -1  253.78   24.94
  11  15   1  198.28   23.41
  11  15  -1  220.25   24.28
 -11  15  -1  237.05   24.61
  11  15  -3   40.13   11.23
 -11  15  -3   42.59   10.94
 -11 -15  -3   60.38   14.11
  11 -15   3   51.25   13.83
  11 -15  -3   45.52   12.89
 -11 -15   3   44.93   11.98
  11  15   3   52.39    7.55
  11  15   3   53.04   12.33
  11 -15  -3   25.18   12.32
 -11  15  -5   13.63    5.71
  11  15   5    1.42    5.71
 -11 -15  -5   17.04    6.33
  11 -15   5   14.18    7.73
  11  15   5   17.33    4.24
 -11 -15   5   14.29    7.00
  11 -15  -5    0.40    7.96
  11  15   5   10.08    3.44
  11  15   7    2.09    4.13
 -11 -15   7    3.22    3.93
  11 -15   7    8.02    6.48
 -11  15  -7   10.60    6.77
  11  15   7    5.32    3.44
 -11 -15  -7   12.67    7.66
  11  15  -7    6.38    3.32
  11 -15  -7    0.20    6.90
  11  15   7    2.97    2.41
  11  15  -7    6.13    2.77
 -11 -15  -9   33.35   11.77
  11  15   9   27.35    6.68
 -11 -15   9   19.59    9.97
  11 -15   9   21.89   10.67
 -11  15  -9   34.64   12.76
  11  15  -9   31.13    6.59
  11 -15  -9   23.27   11.58
  11  15  -9   18.41    8.70
  11  15   9   15.69    5.23
  11  15  -9   25.41    5.53
  11  15   9   35.57   12.05
 -11 -15  11   50.75   12.07
  11 -15  11   44.76   12.92
 -11  15 -11   58.05   14.29
  11  15 -11   42.74    6.84
  11  15  11   39.11    6.80
  11  15  11   33.84    7.15
 -11 -15 -11   43.48   13.05
  11 -15 -11   33.05   11.49
  11  15 -11   29.43    9.42
  11  15 -11   43.51    6.40
  11 -15 -11   36.78    6.29
  11  15  11   50.10   12.38
 -11 -15 -13   14.51    9.68
 -11 -15  13   30.86   11.21
  11  15  13   33.05    7.04
 -11  15 -13   47.45   13.93
  11  15 -13   48.86    7.69
  11  15  13   37.51    7.51
  11 -15 -13   30.41   12.59
  11  15 -13   29.93   10.47
  11 -15 -13   34.59    7.03
  11  15 -13   34.40    6.29
  11  15  13   22.07   10.04
  11  15  15   64.63    8.67
 -11  15 -15   61.29   14.37
  11  15  15   70.34    9.21
  11 -15 -15   74.35   15.98
  11  15 -15   41.75   12.00
  11 -15 -15   64.68    8.11
  11  15 -15   66.34    7.88
  11  15  15   72.50   14.89
  11  15  17   23.62    4.52
  11 -15 -17    5.35    4.96
  11  15  17   11.83    3.80
  11  15 -17   14.85    6.21
  11 -15 -17   20.13    4.03
  11  15  17   20.01    6.45
  11  15 -17   10.58    2.88
  11  15  19    0.98    3.54
  11  15  19    1.92    3.71
  11 -15 -19    0.85    2.70
  11  15 -19    0.63    2.71
  11 -15 -19    1.41    2.36
  11  15  21    0.25    3.96
  11  15  21    1.37    4.83
  11 -15 -21    3.30    3.61
  11  15 -21    0.37    3.13
  11 -15 -21    0.78    3.34
  11  15  23   17.04    5.22
  11  15  23   18.95    5.72
  11 -15 -23    8.03    3.70
  11  15 -23   14.37    3.69
  11 -15 -23   18.01    4.06
  11  15  25   24.93    6.32
  11  15  25   36.36    8.26
  11 -15 -25   26.55    5.69
  11  15 -25   29.29    5.60
  11 -15 -25   25.17    5.28
  11  15  27   67.32    8.60
  11 -15 -27   71.04    7.33
  11  15 -27   81.83    7.21
  11 -15 -27   61.44    6.73
  11  15  29   49.91    7.29
  11 -15 -29   49.98    6.05
  11  15 -29   55.89    6.09
  11 -15 -29   57.07    6.36
  11 -15 -29   50.32    5.99
  11 -15 -31   10.98    2.45
  11  15  31   10.68    3.47
  11  15 -31   16.82    2.93
  11 -15 -31   16.19    3.08
 -11 -17  -1  520.93   36.29
 -11 -17   1  524.58   37.03
  11 -17  -1  431.31   35.81
  11  17   1  430.81   20.98
  11  17  -1  431.03   20.45
  11 -17   1  240.54   25.25
  11  17  -1  368.06   18.65
  11  17   1  372.91   18.86
  11 -17   1  449.58   35.95
  11  17  -1  336.69   17.62
  11  17   1  412.61   35.26
 -11  17  -1  527.12   39.22
  11  17  -1  451.23   35.78
 -11 -17  -3  164.86   20.22
 -11 -17   3  167.69   21.74
  11 -17   3  167.29   20.26
  11 -17  -3  178.17   19.88
  11  17   3  156.83   12.47
  11  17  -3  140.19   11.21
  11 -17  -3  112.15   18.80
  11  17  -3  143.36   11.35
  11  17   3  119.71   10.15
  11  17   3  161.78   21.25
  11  17  -3  127.42   10.60
 -11  17  -3  182.29   21.63
  11  17  -3  145.37   19.44
 -11  17  -5   16.31    7.02
 -11 -17  -5   10.51    6.90
 -11 -17   5    7.71    5.43
 -11  17  -5    7.76    7.51
  11  17   5   15.13    4.68
  11  17   5   14.55    7.04
  11  17  -5    8.94    3.50
  11 -17   5   12.54    8.05
  11 -17  -5   13.24    8.44
  11  17   5    5.88    2.91
  11  17  -5    8.26    3.11
 -11 -17  -7   34.73    9.92
 -11 -17   7    8.88    4.87
  11 -17   7   24.79    8.72
  11  17   7   23.53    8.06
 -11  17  -7   20.66    8.53
  11  17   7   29.53    5.48
  11  17  -7   23.94    5.01
  11 -17  -7   26.69   11.74
  11  17   7   16.86    4.06
  11  17  -7   26.55    4.70
 -11 -17  -9  125.95   19.48
 -11 -17   9  137.54   20.39
  11 -17   9  132.85   19.60
  11  17   9  131.76   12.34
  11 -17  -9  120.82   20.75
  11  17   9  107.62   18.22
  11  17  -9  118.61   11.18
  11  17   9  105.75   10.35
  11  17  -9  125.55   10.87
  11  17  11   61.37   14.66
  11  17  11   56.95    8.29
 -11 -17 -11   30.19   11.54
 -11 -17  11   45.02   12.00
  11 -17  11   26.61   12.62
  11  17 -11   60.29    8.15
  11  17  11   57.88    7.88
  11 -17 -11   56.68   14.46
  11  17 -11   56.31    7.49
  11 -17 -11   58.87    7.96
 -11 -17 -13  106.57   19.42
 -11 -17  13  179.61   22.36
  11  17  13  186.12   14.32
  11 -17 -13  170.33   23.41
  11  17  13  166.32   22.21
  11  17 -13  221.94   14.70
  11  17  13  147.33   12.41
  11  17 -13  204.00   13.50
  11 -17 -13  199.99   14.01
  11  17 -13  137.02   18.88
  11  17  15  181.72   14.44
  11 -17 -15  210.06   25.90
  11  17  15  146.33   20.99
  11  17  15  159.33   12.87
  11  17 -15  191.96   13.01
  11 -17 -15  181.34   13.45
  11  17 -15  127.41   18.75
  11  17  17  110.53   11.24
  11  17  17   92.27    9.60
  11 -17 -17  107.84   10.08
  11  17 -17   98.01    9.43
  11  17  19   23.55    5.90
  11  17  19   18.44    5.35
  11 -17 -19   14.36    4.40
  11  17 -19   21.14    4.85
  11  17  21    8.86    5.41
  11  17  21    6.81    4.98
  11 -17 -21    1.22    2.83
  11  17 -21    0.79    3.19
  11 -17 -21    2.29    3.60
  11  17  23   92.25   10.92
  11  17  23   80.46   10.30
  11 -17 -23   88.10    9.50
  11  17 -23   92.63    9.00
  11 -17 -23   83.81    9.12
  11  17  25   83.49   10.30
  11  17  25   85.27   10.44
  11 -17 -25  115.71    9.81
  11  17 -25  100.66    8.82
  11 -17 -25  112.41    9.35
  11  17  27  173.27   13.12
  11 -17 -27  192.83   12.60
  11  17 -27  199.24   11.80
  11 -17 -27  203.48   12.19
  11  17  29   86.10    7.80
  11 -17 -29  104.81    7.76
  11  17 -29  101.24    7.19
  11 -17 -29  106.59    7.54
  11 -17 -29   91.39    6.79
  11  17  31   32.47    4.21
  11  17 -31   57.49    4.85
  11 -17 -31   56.23    4.78
  11 -17 -31   40.74    3.86
 -11 -19  -1  325.84   27.75
 -11 -19   1  316.77   27.44
  11 -19   1  287.73   26.90
  11  19   1  294.99   16.81
  11  19  -1  281.43   16.23
  11 -19  -1  307.35   27.85
  11  19   1  266.23   15.46
  11  19  -1  261.07   15.38
 -11  19   1  325.58   31.37
  11  19   1  282.10   28.74
 -11  19  -1  334.26   31.50
  11  19  -1  299.14   29.24
 -11 -19  -3  311.98   30.40
 -11 -19   3  304.26   30.03
  11 -19   3  281.29   30.34
  11 -19  -3  304.09   29.93
  11  19   3  308.66   19.17
  11  19  -3  254.61   17.13
  11  19   3  236.04   16.08
  11  19   3  271.68   32.12
  11  19  -3  284.40   17.49
 -11  19  -3  326.90   34.17
  11  19  -3  259.34   29.95
 -11  19  -5   38.23   10.93
 -11 -19  -5   23.45    9.92
 -11 -19   5   25.60    7.80
  11 -19   5   24.57   10.68
  11 -19  -5   11.55    7.50
  11  19   5   36.08    6.83
  11  19  -5   24.48    5.07
  11 -19  -5   11.99    8.15
  11  19   5   20.76    4.49
  11  19  -5   26.76    5.22
  11  19   5   18.92    8.76
 -11 -19  -7   85.35   15.09
  11  19   7   87.20    9.31
 -11 -19   7   79.64   14.56
  11 -19   7   58.49   12.03
  11 -19  -7   64.87   15.85
  11  19   7   94.97   16.20
  11  19  -7   84.29    8.28
 -11 -19  -9    9.64    5.93
 -11 -19   9   16.49    8.06
  11 -19   9    7.40    6.42
  11  19   9    9.38    3.85
  11  19   9    0.35    7.91
  11 -19  -9    2.24    8.37
  11  19  -9   10.45    3.48
 -11 -19  11  139.42   19.06
  11 -19  11  110.89   17.96
  11  19  11  116.44   11.57
 -11 -19 -11   68.31   14.67
  11 -19 -11  109.44   19.82
  11  19  11   85.76   15.83
  11  19 -11  116.70   10.54
  11  19  11  101.22    9.25
  11  19 -11  131.12   10.61
  11 -19 -11  117.22   11.14
  11  19  13  290.85   17.70
  11 -19 -13  237.40   27.99
  11  19  13  213.45   13.41
  11  19 -13  265.61   15.34
  11 -19 -13  280.36   16.73
  11  19  15  191.24   15.38
  11  19 -15  204.84   14.03
  11 -19 -15  188.65   14.17
  11  19  17  107.16   11.81
  11  19  17   86.98    9.36
  11  19 -17   95.95   10.00
  11 -19 -17   98.44   10.13
  11  19  19   39.51    8.14
  11  19  19   36.49    6.99
  11  19 -19   49.57    7.46
  11 -19 -19   37.05    7.17
  11  19  21   12.95    4.97
  11  19  21   12.67    4.39
  11 -19 -21    5.53    3.22
  11  19 -21    8.40    3.74
  11 -19 -21   17.54    4.73
  11  19  23   26.47    4.64
  11  19  23   21.95    4.16
  11 -19 -23   35.59    4.90
  11  19 -23   29.87    4.37
  11 -19 -23   34.22    5.07
  11  19  25  136.02   12.85
  11  19  25  148.02   11.41
  11 -19 -25  204.53   12.59
  11  19 -25  182.31   11.30
  11 -19 -25  186.03   11.71
  11  19  27  110.73    9.08
  11  19 -27  154.18    9.72
  11 -19 -27  158.18   10.39
  11 -19 -27  156.79   10.05
  11 -19 -27  118.67    8.39
  11  19 -29  187.35   10.02
  11 -19 -29  173.15   10.33
  11 -19 -29  177.77   10.13
 -11  21  -1  136.28   20.80
 -11 -21  -1  169.03   19.60
 -11 -21   1  144.33   18.48
  11 -21   1  165.72   20.30
  11  21   1  177.27   12.81
  11  21  -1  163.92   12.41
  11 -21  -1  143.62   19.30
  11  21   1  154.08   12.00
  11  21  -1  179.47   12.69
 -11  21   1  168.88   23.55
  11  21   1  132.33   20.65
  11  21  -1  133.91   19.63
 -11  21   3   77.69   17.11
 -11  21  -3   45.96   13.02
 -11 -21  -3   40.16   10.24
 -11 -21   3   41.91   11.02
  11  21   3   58.29    8.25
  11 -21   3   78.93   16.15
  11 -21  -3   45.01   11.06
  11  21  -3   49.59    7.10
  11  21  -3   57.09    8.07
  11  21   3   45.03    6.79
  11  21   3   53.39   14.67
 -11 -21  -5  143.39   19.37
 -11 -21   5  170.59   21.22
  11 -21   5  126.51   21.09
  11  21   5  204.75   14.35
  11  21  -5  197.88   13.55
  11  21   5  161.25   11.81
  11 -21  -5  120.87   17.44
  11  21  -5  185.99   13.30
  11  21   5  172.82   23.46
  11 -21  -5  108.05   19.24
 -11  21  -5  150.61   21.84
 -11 -21  -7    0.14    3.89
 -11 -21   7   22.71    9.02
  11 -21   7   18.87    9.06
  11  21   7   15.84    5.21
  11  21  -7   17.90    5.15
  11  21   7   11.61    4.18
  11 -21  -7    5.46    8.59
  11  21  -7   13.01    4.35
  11  21   7   25.66   10.47
 -11  21  -9    0.26    2.90
 -11 -21  -9    0.15    4.00
 -11 -21   9    0.21    3.25
  11  21   9    2.54    3.21
  11  21  -9    0.21    3.38
  11 -21  -9    0.90    3.12
  11  21  11   56.99    8.29
  11  21 -11   71.55    8.70
  11 -21 -11   74.90    9.43
  11  21  13  159.83   15.42
  11  21 -13  156.95   13.77
  11 -21 -13  154.94   14.41
  11  21  15  125.95   12.82
  11  21 -15  127.83   11.39
  11 -21 -15  129.06   11.98
  11  21  17   49.59    7.28
  11 -21 -17   44.74    5.85
  11  21 -17   33.12    4.94
  11  21  19    3.90    3.50
  11 -21 -19    2.38    3.21
  11  21 -19    0.01    2.72
  11 -21 -19    1.42    2.57
  11  21  21    3.68    3.37
  11 -21 -21    4.36    2.78
  11  21 -21    4.28    2.48
  11 -21 -21    1.33    2.59
  11  21  23    0.04    3.43
  11 -21 -23    4.45    2.55
  11  21 -23    0.01    2.63
  11 -21 -23    3.13    2.73
  11  21  25   44.36    7.26
  11  21 -25   47.40    5.96
  11 -21 -25   58.18    7.04
  11 -21 -25   45.00    6.30
  11  21 -27  127.50    8.36
  11 -21 -27  135.83    9.10
  11 -21 -27  153.34    9.17
  11  23   1   17.73    5.83
  11  23  -1   11.65    5.09
  11  23   1   25.76    6.38
  11  23  -1   18.99    5.73
  11  23   3    7.58    3.48
  11  23  -3    8.79    4.16
  11  23   3    7.36    3.58
  11  23  -3    4.55    3.20
  11  23   5    0.32    3.77
  11  23  -5    0.27    3.27
  11  23   5    3.77    3.39
  11  23  -5    3.69    4.67
 -11  23  -7   67.63    9.50
  11  23   7   68.12    9.66
  11  23  -7   59.06    8.55
  11  23   7   52.45    7.77
  11  23  -7   72.37    9.19
  11 -23  -7   58.26    8.91
 -11  23  -9   30.93    7.04
  11  23   9   39.87    7.77
  11  23  -9   32.60    6.48
  11 -23  -9   41.10    7.81
 -11  23 -11    0.05    3.22
  11  23  11    1.94    3.88
  11  23 -11    0.73    3.01
  11 -23 -11    1.94    3.37
 -11  23 -13   27.66    5.61
  11  23  13   24.16    5.55
  11  23 -13   34.31    5.71
  11 -23 -13   29.12    5.80
 -11  23 -15   31.94    6.26
  11  23  15   33.06    5.83
  11  23 -15   31.58    5.15
  11 -23 -15   41.01    6.49
  11  23  17    0.03    3.19
  11  23 -17    3.15    3.11
  11 -23 -17    0.02    2.94
  11  23  19   24.66    5.22
  11 -23 -19   21.63    4.94
  11  23 -19   20.26    4.39
  11 -23 -19   21.72    4.59
  11  23  21   33.38    6.21
  11 -23 -21   34.20    5.49
  11  23 -21   31.37    4.83
  11 -23 -21   25.40    4.46
  11  23  23    6.89    3.46
  11 -23 -23    6.55    2.84
  11  23 -23    2.65    2.69
  11 -23 -23    7.68    2.84
 -11  23 -25    5.52    2.71
  11  23  25    0.66    2.63
  11 -23 -25    9.01    2.75
  11  23 -25    0.51    2.18
  11 -23 -25    8.52    2.46
 -11  23 -27   17.35    3.89
  11  23 -27   25.22    3.69
  11 -23 -27   22.72    3.74
  11 -23 -27   21.51    3.43
  11  25   1    4.18    3.09
  11  25  -1    4.28    3.35
  11  25   1    7.89    3.54
  11  25  -1    6.26    4.08
  11  25   3    0.12    4.07
  11  25  -3    0.06    3.28
  11  25   3    0.12    2.77
  11  25  -3    7.61    3.89
  11  25   5  258.02   16.35
  11  25  -5  245.12   15.60
  11  25   5  218.13   13.70
  11  25  -5  228.33   15.39
 -11  25  -7   55.32    8.77
  11  25   7   54.59    8.84
  11  25  -7   57.81    8.35
  11  25  -7   61.29    9.02
  11 -25  -7   63.13    9.33
 -11  25  -9  101.56   11.84
  11  25  -9  105.03   11.61
  11  25   9  110.26   12.49
  11 -25  -9   97.86   11.73
 -11  25 -11   41.24    7.49
  11  25  11   49.63    8.15
  11  25 -11   45.39    7.31
  11 -25 -11   47.68    7.95
 -11  25 -13    0.55    4.82
  11  25  13    0.73    4.41
  11  25 -13    0.54    3.01
  11 -25 -13    0.52    3.84
 -11  25 -15    0.02    3.26
  11  25  15    0.66    3.73
  11  25 -15    0.87    3.39
  11 -25 -15    1.09    3.22
 -11  25 -17   23.06    5.58
  11  25  17   29.13    6.08
  11  25 -17   26.73    5.22
  11 -25 -17   25.62    4.98
 -11  25 -19   90.66    9.07
  11  25  19   93.62    9.45
  11  25 -19   84.29    7.78
  11 -25 -19   95.51    8.39
  11 -25 -19   90.23    8.36
 -11  25 -21  155.24   11.50
  11  25  21  148.77   11.72
  11  25 -21  133.65    9.58
  11 -25 -21  138.93   10.33
  11 -25 -21  131.20    9.64
 -11  25 -23   34.78    5.67
  11  25  23   41.58    6.20
  11 -25 -23   33.31    5.07
  11  25 -23   29.88    4.50
  11 -25 -23   31.51    4.61
 -11  25 -25    0.05    2.14
  11  25  25    4.74    2.49
  11 -25 -25    0.06    1.97
  11  25 -25    0.34    2.04
  11 -25 -25    0.37    1.78
  11  27   1    9.49    4.79
  11  27  -1    7.69    4.25
  11  27   1    5.22    2.92
  11  27  -1    5.76    3.42
  11  27   3  109.67   11.38
  11  27  -3  124.28   12.05
  11  27   3  100.21    9.95
  11  27  -3  117.42   11.23
  11  27   5  160.31   13.56
  11  27  -5  156.47   12.83
  11  27   5  153.83   11.65
  11  27  -5  166.39   12.89
  11 -27  -5  162.38   13.12
 -11  27  -7  219.08   15.49
  11  27   7  285.38   17.85
  11  27  -7  221.47   15.17
  11  27  -7  265.38   16.45
  11 -27  -7  208.04   15.11
 -11  27  -9   79.46    8.98
  11  27   9   93.57   10.34
  11  27  -9   88.96    8.95
  11  27  -9   83.66    9.16
  11 -27  -9   83.10    9.36
 -11  27 -11   86.22    9.43
  11  27  11   96.01   10.69
  11  27 -11   85.89    9.25
  11 -27 -11   91.71    9.32
 -11  27 -13   17.44    4.69
  11  27  13   22.55    5.84
  11  27 -13   12.14    4.18
  11 -27 -13    9.11    3.75
 -11  27 -15   14.91    5.30
  11  27  15   15.96    5.42
  11  27 -15   17.09    4.89
  11 -27 -15   13.28    4.67
 -11  27 -17   60.91    7.91
  11  27  17   73.05    8.69
  11  27 -17   73.21    7.66
  11 -27 -17   77.38    8.15
  11 -27 -17   61.37    7.15
 -11  27 -19  146.97   10.84
  11  27  19  163.14   12.08
  11  27 -19  160.00   10.40
  11 -27 -19  160.05   10.75
  11 -27 -19  151.12   10.17
 -11  27 -21  132.90    9.99
  11  27  21  148.33   10.86
  11  27 -21  152.83    9.35
  11 -27 -21  154.96   10.01
  11 -27 -21  160.24    9.89
  11  29   1   11.12    3.92
  11  29  -1   12.26    4.31
  11  29   1    0.36    3.37
  11  29  -1    3.31    3.72
  11 -29  -1    6.61    3.14
  11  29   3   40.52    6.87
  11  29  -3   34.59    6.16
  11  29   3   29.57    5.04
  11  29  -3   40.47    6.15
  11 -29  -3   38.63    6.58
  11  29   5  117.14   11.38
  11  29  -5  116.00   10.52
  11  29  -5  104.27    9.76
  11 -29  -5   99.77    9.85
  11  29   7  218.11   15.70
  11  29  -7  167.14   13.06
  11  29  -7  196.33   14.15
  11 -29  -7  153.35   12.76
 -11  29  -9  120.84   10.71
  11  29   9  139.29   12.17
  11  29  -9  115.83    9.81
  11  29  -9  123.68   10.81
  11 -29  -9  122.84   10.72
 -11  29 -11   16.15    4.39
  11  29  11   14.32    4.90
  11  29 -11   13.38    3.97
  11 -29 -11    5.26    2.91
 -11  29 -13   12.74    3.62
  11  29  13   22.74    4.88
  11  29 -13   20.95    3.87
  11 -29 -13    8.00    3.03
 -11  29 -15    9.30    3.06
  11  29  15   10.18    4.03
  11  29 -15   11.81    3.41
  11 -29 -15   13.88    3.81
 -11  29 -17   50.57    6.14
  11  29  17   56.24    6.96
  11  29 -17   62.64    6.39
  11 -29 -17   55.13    6.40
  11 -29 -17   57.61    6.31
 -11  29 -19  108.74    7.84
  11  29  19  106.15    8.45
  11  29 -19  121.79    7.76
  11 -29 -19  125.77    8.24
  11 -29 -19  119.41    7.81
  11  31   1    0.14    2.86
  11  31  -1    6.51    3.67
  11  31   1    0.66    2.91
  11  31  -1    2.90    2.49
  11 -31  -1    3.19    2.87
  11 -31   1    3.03    2.55
  11  31   3    6.59    3.46
  11  31  -3    4.92    2.60
  11  31  -3    0.18    3.06
  11 -31  -3    4.12    2.69
  11 -31   3    0.25    2.40
  11  31   5   17.98    4.60
  11  31  -5   28.36    5.27
  11  31  -5   17.50    4.30
  11 -31  -5   13.68    4.13
  11  31   7   87.86    9.94
  11  31  -7   80.28    8.31
  11  31  -7   79.90    8.41
  11 -31  -7   81.97    8.66
 -11  31  -9   38.27    5.71
  11  31   9   53.68    7.19
  11  31  -9   47.77    6.30
  11 -31  -9   49.35    6.29
 -11  31 -11    0.86    2.38
  11  31  11    0.02    3.21
  11  31 -11    0.03    3.10
  11 -31 -11    0.23    2.22
 -11  31 -13    0.03    1.93
  11  31  13    1.32    2.61
  11  31 -13    0.04    2.60
  11 -31 -13    2.06    2.53
 -11  31 -15    0.01    1.78
  11  31  15    0.04    2.63
  11  31 -15    0.01    1.91
  11 -31 -15    2.44    2.22
  11 -31 -15    0.01    2.00
  11  33  -1   42.87    5.56
  11  33   1   49.86    6.23
  11 -33  -1   30.07    4.40
  11 -33   1   29.31    4.39
  11  33   3   16.56    3.59
  11  33  -3   23.19    3.81
  11  33  -3   18.39    3.20
  11 -33  -3   14.94    3.15
  11 -33   3   15.62    2.92
  11  33  -5   10.43    3.49
  11  33  -5   10.15    3.20
  11 -33  -5    1.74    2.32
  11 -33   5    6.05    2.58
  11  33   5    6.02    3.13
  11  33   7    4.74    2.84
  11  33  -7    0.13    3.26
  11  33  -7    2.47    2.05
  11 -33  -7    0.07    1.90
  11 -33   7    0.80    1.79
  11  33   9    0.00    2.99
  11  33  -9    0.06    2.18
  11 -33  -9    0.66    1.74
  11 -33   9    0.01    1.65
  11  33  11    0.02    2.11
  11  33 -11    0.54    2.46
  11 -33 -11    0.75    2.11
  12   0   0  352.08   24.37
  12   0   2  534.71   22.79
  12   0  -2  587.32   26.08
  12   0   4  314.45   17.71
  12   0   4  326.07   18.63
  12   0  -6   48.25    7.65
  12   0   6   45.72    6.80
  12   0  -8  121.43   13.85
 -12   0  -8  163.52   17.39
  12   0   8  131.43   13.34
  12   0 -10  176.60   14.80
  12   0  10  148.74   13.03
  12   0 -12  608.24   32.49
  12   0  12  532.35   32.36
  12   0 -14   83.69   12.65
  12   0  14   63.44    7.86
  12   0 -14   80.06    8.05
  12   0  14   70.80    9.15
  12   0  14   68.50   12.49
  12   0 -16  313.49   24.53
 -12   0 -16  380.89   30.21
  12   0  16  296.04   17.93
  12   0  16  296.99   25.63
  12   0 -18    2.97    2.61
 -12   0 -18    8.55    5.80
  12   0 -18    8.23    5.11
  12   0  18   15.99    6.88
  12   0 -20  104.05   17.66
 -12   0 -20  133.61   21.65
  12   0  20  107.82   19.92
  12   0 -20  116.60   10.79
  12   0 -22   27.70    4.69
 -12   0 -22   22.30    7.42
  12   0 -22    7.79    6.22
  12   0  22    3.30    6.15
  12   0 -24  255.74   14.45
  12   0  26  224.29   17.85
  12   0 -26  266.96   15.61
  12   0  28  455.01   24.20
  12   0 -28  436.21   19.44
  12   0  30  192.31   14.31
  12   0 -30  196.14   11.50
  12   0  32   45.42    7.37
  12   0 -32   42.74    5.48
  12   0  34   15.68    4.19
  12   0 -34   12.00    2.66
  12   2   0  386.44   19.19
  12  -2   0  394.42   19.05
  12   2   2  302.44   18.44
  12   2   2  331.45   20.18
  12   2  -2  337.00   21.89
  12  -2   2  326.36   19.89
  12  -2  -2  329.68   21.93
  12   2   4  132.51   12.85
  12   2  -4  137.56   15.24
  12  -2  -4  146.46   15.28
  12  -2   4   98.62   10.76
  12   2   4  130.48   12.73
  12   2   6   30.81    6.41
  12   2  -6   41.44    8.39
  12  -2  -6   26.43    6.92
  12  -2   6   30.08    6.25
 -12   2  -8   40.10    9.46
 -12  -2  -8   34.90    9.24
  12   2  -8   35.78    8.16
  12  -2  -8   27.35    6.71
  12   2   8   29.66    6.83
  12   2 -10  104.15   12.46
  12  -2 -10   99.65   12.34
 -12   2 -10  111.42   14.76
 -12  -2 -10  134.69   16.32
  12   2  10   95.92   11.74
  12   2 -12  164.40   18.01
  12  -2 -12  166.11   18.21
 -12   2 -12  210.99   23.51
 -12  -2 -12  205.45   23.06
  12   2  12  167.28   18.45
  12   2 -14  307.94   24.94
  12  -2 -14  299.33   24.99
  12   2  14  268.97   16.57
 -12   2 -14  356.07   30.95
 -12  -2 -14  399.05   32.47
  12  -2 -14  242.94   15.19
  12   2 -14  320.53   16.48
  12   2  14  355.02   20.49
  12   2  14  287.67   25.95
  12   2  16   15.64    4.26
 -12   2 -16   30.60    9.73
 -12  -2 -16   29.64   10.04
  12   2 -16   12.40    5.98
  12   2 -16   21.24    4.86
  12  -2 -16    9.18    5.67
  12   2  16   22.67    6.16
  12  -2  16   13.93    5.00
  12   2  16   21.32    8.32
  12   2 -18   97.87   13.77
  12   2  18   91.07    9.70
 -12   2 -18  134.02   19.65
 -12  -2 -18  119.00   18.10
  12  -2 -18   82.85   13.14
  12   2  18  109.97   11.47
  12  -2  18   96.55   16.45
  12   2 -18   94.51    8.42
  12   2  18  105.88   16.56
  12   2 -20    0.73    2.50
  12  -2 -20    0.28    3.20
  12   2 -20    0.30    3.67
 -12   2 -20    0.95    5.70
 -12  -2 -20    0.06    5.53
  12  -2 -20    0.28    4.45
  12  -2  20    5.43    9.02
  12   2  20    1.33    5.07
  12   2  22   44.55   10.71
  12  -2 -22   50.67    6.19
  12   2 -22   34.46    8.14
  12  -2 -22   59.14   11.33
 -12   2 -22   56.76   12.07
 -12  -2 -22   45.35    9.92
  12  -2  22   28.64    8.64
  12   2 -22   61.70    6.66
  12   2 -24   76.39    8.72
  12  -2 -24   73.45    8.66
  12   2  26  212.80   17.64
  12   2 -26  220.50   14.08
  12  -2 -26  236.55   14.64
  12   2  28  284.08   19.30
  12  -2  28  259.91   17.78
  12   2 -28  304.25   15.25
  12  -2 -28  269.69   14.74
  12   2  30  142.23   14.06
  12  -2  30  120.39   13.15
  12   2 -30  115.65   10.18
  12  -2 -30  109.50   10.06
  12  -2 -32   29.00    4.57
  12   2  32   34.73    6.49
  12  -2  32   32.27    6.39
  12   2 -32   27.45    4.37
  12  -2  34    2.77    2.69
  12   2  34    5.99    3.44
  12   2 -34    4.62    1.91
  12  -2 -34    5.00    2.11
  12   4   0  371.55   25.03
  12  -4   0  338.14   23.88
  12   4   2   23.60    3.81
  12   4  -2   29.60    5.62
  12  -4   2   30.45    4.68
  12   4   2   21.31    3.29
  12  -4  -2   25.05    4.37
  12   4   4    0.52    4.62
  12   4   4    1.85    4.10
  12   4  -4    2.93    4.29
  12  -4  -4    0.69    4.22
  12   4   6    2.73    3.00
 -12  -4  -6    2.77    5.42
  12   4  -6    2.52    3.97
  12  -4  -6    4.43    3.69
  12   4   8   44.52    8.41
 -12   4  -8   50.05    9.85
 -12  -4  -8   66.35   12.37
  12   4  -8   37.86    8.04
  12  -4  -8   45.41    9.22
  12   4  10    0.88    3.96
 -12   4 -10    0.96    7.64
 -12  -4 -10    0.88    6.28
  12   4 -10    0.84    4.17
  12  -4 -10    1.24    4.71
  12   4  12   11.24    4.85
 -12  -4 -12   18.80    6.94
 -12   4 -12    6.92    6.22
  12   4 -12   14.39    5.43
  12  -4 -12   11.23    4.69
  12   4 -12    5.24    3.95
  12   4 -14   87.83   14.41
  12   4  14   90.16    9.77
  12  -4 -14   83.40   13.80
 -12   4 -14  108.94   18.17
 -12  -4 -14  122.26   18.69
  12   4 -14  104.31    9.82
  12   4  14  102.15   12.21
  12   4  14   96.22   15.38
  12   4  16   53.28   11.43
  12   4  16   39.22    6.40
  12   4 -16   49.24    9.84
 -12   4 -16   61.07   13.48
 -12  -4 -16   55.83   12.65
  12   4 -16   43.03    6.62
  12  -4 -16   39.95    9.95
  12   4  16   43.00    8.31
  12  -4  16   23.14    5.96
  12   4 -16   43.06    5.93
  12   4 -18   14.24    3.79
  12   4  18   19.15    7.69
  12   4  18    8.41    3.65
  12   4 -18   21.53    6.98
 -12   4 -18   11.09    7.08
 -12  -4 -18   17.92    7.01
  12  -4 -18    9.54    6.16
  12   4  18    8.00    4.15
  12  -4  18    5.66    4.46
  12   4 -20    4.21    2.75
  12   4  20    0.37    4.30
  12  -4 -20    0.24    2.73
  12   4  20    0.37    4.83
  12   4 -20    0.10    4.54
 -12   4 -20    2.13    6.38
 -12  -4 -20    5.02    5.84
  12  -4 -20    2.30    4.16
  12   4  20    5.42    4.28
  12   4 -22    4.97    4.01
  12  -4 -22    4.37    3.57
  12   4 -22    8.54    7.44
  12  -4 -22    9.84    7.88
  12   4  22    3.49    5.16
  12   4 -24    0.50    2.68
  12  -4 -24    0.01    2.65
  12   4  24    0.06    4.99
  12   4  26   79.19   11.49
  12   4 -26   85.48    8.98
  12  -4 -26   75.33    8.60
  12  -4 -28   34.40    6.09
  12   4  28   47.45   10.29
  12  -4  28   29.10    7.58
  12   4 -28   43.36    6.94
  12  -4 -30   28.95    4.75
  12   4  30   40.48    7.35
  12  -4  30   24.24    5.68
  12   4 -30   33.67    5.03
  12  -4 -32   10.23    3.06
  12   4  32    0.17    4.07
  12  -4  32    2.64    2.83
  12   4 -32    2.46    2.09
  12  -4 -34    9.16    2.55
  12  -4  34   15.04    3.60
  12   4  34    5.07    2.92
  12   4 -34    6.11    2.15
  12   6   0    0.93    3.90
  12  -6   0    0.02    3.45
  12   6   0    0.10    3.02
  12   6   2    7.32    5.83
  12   6  -2    9.15    5.58
  12  -6   2   20.31    6.59
  12  -6  -2    9.46    5.30
  12   6   2    8.19    5.15
  12   6   4  138.49   14.01
  12   6  -4  131.16   15.02
  12  -6  -4  141.51   14.79
  12   6   6  179.41   15.80
  12   6  -6  136.74   12.72
  12   6  -6  160.30   15.67
  12  -6  -6  168.46   16.53
 -12  -6  -6  210.57   19.97
  12   6   8  197.22   18.16
  12   6  -8  184.47   17.89
  12   6  -8  225.33   20.03
  12  -6  -8  196.90   19.71
 -12   6  -8  270.00   23.82
 -12  -6  -8  286.91   25.40
  12   6  10   76.60   13.72
  12   6 -10   73.21   13.80
  12   6 -10   74.97   13.31
  12  -6 -10   78.09   14.29
 -12   6 -10  112.16   17.71
 -12  -6 -10  123.71   19.18
  12   6  12   27.97    8.19
 -12  -6  12   24.01    8.62
  12   6  12   16.22    3.88
  12   6 -12   21.56    6.20
 -12   6 -12   18.91    7.74
 -12  -6 -12   29.47   10.12
  12  -6 -12   23.24    7.80
  12   6 -12   25.73    4.78
  12   6  12   20.60    5.47
  12   6 -12   16.68    7.72
  12   6  14    0.11    5.26
  12   6  14    0.11    2.67
  12   6 -14    0.03    4.99
 -12   6 -14    0.26    6.22
 -12  -6 -14    5.61    6.22
  12  -6 -14    1.72    4.16
  12   6 -14    0.03    2.65
  12   6  14    2.17    3.18
  12   6 -14    0.03    4.69
  12   6  16    0.48    5.34
  12   6  16    6.72    2.85
  12   6 -16   15.29    6.66
 -12   6 -16    6.33    5.43
  12  -6 -16    0.40    3.69
  12   6 -16    8.70    3.09
  12   6  16    3.38    3.65
  12  -6  16   13.25    4.20
 -12  -6 -16   14.68    7.81
  12   6 -16   12.64    6.50
  12   6 -16   10.22    3.40
  12   6  18   39.82   10.97
  12   6  18   48.17    7.75
  12   6 -18   44.46   10.75
 -12   6 -18   53.66   13.68
 -12  -6 -18   60.78   14.34
  12  -6 -18   45.24   11.11
  12   6  18   46.85    8.96
  12  -6  18   35.35    7.25
  12   6 -18   59.24   14.88
  12   6 -18   64.55    7.59
  12   6 -20  160.78   20.94
  12   6 -20  147.80   18.39
  12   6  20  159.11   13.21
  12  -6 -20  169.51   19.49
 -12   6 -20  169.54   22.92
 -12  -6 -20  154.74   20.54
  12   6  20  185.74   15.73
  12  -6  20   93.87   10.66
  12   6 -20  179.34   12.08
  12  -6 -20  157.45   11.21
  12   6  20  155.71   20.72
  12   6  22  105.21   12.60
  12   6  22   98.13   14.06
  12   6 -22  131.01   11.57
  12  -6 -22  129.26   11.75
  12  -6 -24   31.99    5.77
  12   6  24   31.39    8.19
  12  -6  24   21.54    7.02
  12   6 -24   30.67    5.54
  12  -6 -26    8.50    3.69
  12   6  26   11.47    5.88
  12  -6  26    5.76    4.45
  12   6 -26    6.37    3.18
  12  -6 -28    1.33    2.61
  12  -6  28    2.47    3.82
  12   6 -28    8.04    3.57
  12  -6 -30    0.53    2.29
  12   6  30    0.32    4.21
  12  -6  30    0.84    3.54
  12   6 -30    1.95    2.75
  12  -6  32   40.55    6.47
  12   6  32   44.48    7.51
  12   6 -32   40.71    5.58
  12  -6 -32   40.59    5.45
  12  -6  34   35.94    5.10
  12   6  34   50.70    7.02
  12   6 -34   41.23    4.85
  12  -6 -34   46.17    5.11
  12   8   0    6.84    4.33
  12   8   0    6.09    4.16
  12  -8   0    5.66    3.67
  12   8  -2   91.56   12.10
  12   8   2   74.43   10.65
  12  -8   2   61.10    9.14
  12  -8  -2   81.68   12.18
  12   8  -4  132.47   15.96
  12   8   4  114.23   14.76
  12  -8  -4  102.70   15.02
 -12  -8  -4  144.17   17.53
  12   8   6  563.61   30.64
  12   8  -6  543.16   31.16
  12  -8  -6  633.30   35.12
  12   8  -8  294.31   21.51
  12   8   8  272.94   21.16
  12   8  -8  314.37   22.89
  12  -8  -8  314.77   24.45
 -12   8  -8  378.60   27.93
  12   8 -10  213.21   21.08
  12   8  10  198.04   19.98
  12   8 -10  217.75   21.15
 -12  -8  10  279.39   25.56
  12  -8 -10  253.08   23.71
 -12   8 -10  275.87   25.96
 -12  -8 -10  295.84   26.77
  12   8 -12   85.79   12.65
 -12  -8  12   84.37   13.58
  12   8  12   70.28    7.35
  12   8  12   70.77   11.43
 -12   8 -12   77.95   13.63
 -12  -8 -12   90.10   14.05
  12   8 -12   68.77    7.00
  12   8  12   60.60    8.28
  12  -8 -12   74.30   12.34
  12   8 -12   60.17   11.55
  12   8  14   18.12    5.26
  12   8 -14   20.14    5.59
  12   8  14   28.23    3.38
 -12   8 -14   30.87    5.41
 -12  -8 -14    7.03    4.21
  12  -8 -14   26.44    6.37
  12   8 -14   19.32    2.94
  12   8  14    8.88    2.92
  12   8 -14    6.79    4.87
  12  -8 -14   17.34    2.65
  12   8 -14   15.40    1.95
  12   8  16   27.14   10.90
  12   8  16   23.39    6.05
  12   8 -16   19.63    8.58
 -12   8 -16   20.03    9.75
 -12  -8 -16   37.18   12.61
  12  -8 -16   24.39    9.68
  12   8 -16   22.58    5.72
  12   8  16   26.70    7.62
  12   8 -16   20.79   11.14
  12  -8 -16   20.16    5.31
  12   8 -16   16.87    4.78
  12   8 -18  108.45   18.04
  12   8 -18   88.50   14.79
  12   8  18   89.16    9.89
  12  -8 -18   96.03   15.87
  12   8  18   86.40   15.76
 -12   8 -18  109.66   18.90
 -12  -8 -18   90.74   16.72
  12   8  18  103.00   12.02
  12  -8 -18   92.11    9.05
  12   8 -18   94.99    9.18
  12   8  20  332.25   30.78
  12   8 -20  284.49   28.54
  12   8 -20  300.42   27.00
  12   8  20  344.78   19.32
  12  -8 -20  350.79   29.18
 -12   8 -20  363.75   32.92
 -12  -8 -20  327.74   29.86
  12   8  20  414.53   23.55
  12  -8  20  217.68   15.67
  12  -8 -20  315.23   15.93
  12   8 -20  335.90   16.53
  12   8  22  249.18   18.14
  12   8  22  277.76   21.45
  12  -8  22  199.39   16.66
  12  -8 -22  251.10   15.28
  12   8 -22  267.56   15.87
  12  -8 -22  273.77   16.23
  12  -8  24   97.55   11.46
  12   8 -24  111.61    9.92
  12  -8 -24  107.41   10.19
  12   8  26   73.52   10.85
  12  -8  26   54.73    8.34
  12   8 -26   57.45    6.96
  12  -8 -26   64.85    7.56
  12  -8 -28    8.88    4.14
  12   8  28   11.53    6.26
  12  -8  28   19.66    6.68
  12   8 -28    8.34    4.01
  12  -8  30   65.29    8.25
  12   8  30   70.39    9.69
  12   8 -30   69.43    7.26
  12  -8 -30   71.30    7.42
  12  -8  32   60.82    6.49
  12   8  32   79.02    8.88
  12   8 -32   73.78    6.53
  12  -8 -32   72.96    6.62
  12   8  34  163.25   11.84
  12   8 -34  157.59    8.62
  12  -8 -34  154.18    8.50
  12 -10   0   74.10   12.78
  12  10   0  104.72   13.34
  12  10   2   57.50   11.01
 -12 -10  -2   65.74   11.49
  12 -10   2   38.76    9.47
  12 -10  -2   39.32   11.81
  12  10  -4  257.02   22.64
  12  10   4  232.75   21.12
  12 -10  -4  222.64   23.08
  12  10  -6  327.09   23.86
  12  10   6  308.66   23.32
  12 -10  -6  393.74   27.09
 -12 -10  -6  427.05   28.37
  12  10  -8  368.36   27.31
  12  10   8  312.67   25.38
 -12 -10   8  431.07   32.23
  12 -10  -8  407.51   30.00
 -12  10  -8  439.75   31.96
 -12 -10  -8  422.48   30.19
  12  10 -10  231.74   22.39
  12  10  10  249.17   23.52
  12  10 -10  273.27   24.22
 -12 -10  10  318.73   28.76
  12  10  10  254.23   15.95
  12 -10 -10  286.40   26.45
 -12  10 -10  288.24   27.75
 -12 -10 -10  313.48   27.02
  12  10 -10  279.92   15.64
  12  10  10  278.42   17.16
 -12 -10  12   20.70    6.86
  12  10 -12    5.92    3.64
  12  10  12   25.76    4.45
 -12  10 -12   36.60    8.82
 -12 -10 -12   14.59    5.41
  12  10  12   26.70    7.18
  12  10 -12   26.52    4.02
  12 -10 -12   27.90    6.90
  12  10  12   24.43    4.95
  12  10 -12   22.83    6.69
  12 -10 -12   26.23    4.03
  12  10 -12   21.04    3.39
  12  10 -14   22.42    7.28
  12  10  14   22.74    5.04
 -12  10 -14   19.06    8.56
 -12 -10 -14   25.24    7.70
  12  10  14   19.92    7.32
  12  10 -14   25.41    4.78
  12 -10 -14   24.09    7.27
  12  10  14   25.54    6.09
  12  10 -14   24.68    7.68
  12 -10 -14   25.29    4.67
  12  10 -14   25.92    4.55
  12  10 -16  108.27   17.33
  12  10  16  129.81   17.74
  12  10 -16  124.34   17.10
  12  10  16  126.62   11.02
  12 -10 -16  124.69   16.94
 -12  10 -16  113.50   17.80
 -12 -10 -16  129.99   17.63
  12  10 -16  137.85   10.99
  12  10  16  154.26   12.99
  12 -10 -16  123.44    9.99
  12  10 -16  121.62    9.80
  12  10 -18  102.47   17.47
  12  10  18  113.77   18.63
  12  10 -18  135.41   19.12
  12  10  18  147.58   12.56
  12 -10 -18  161.19   20.53
 -12  10 -18  141.24   21.08
 -12 -10 -18   84.08   15.74
  12  10  18  171.96   15.04
  12 -10 -18  145.24   11.34
  12  10 -18  139.95   11.04
  12 -10 -18  118.79   10.09
  12  10 -20  219.00   23.63
  12  10  20  251.11   16.35
  12 -10 -20  237.91   13.91
  12  10 -20  245.73   13.99
  12 -10 -20  227.20   13.48
  12  10  22  245.00   18.77
  12  10  22  325.31   23.09
  12 -10 -22  276.46   16.79
  12  10 -22  286.59   16.66
  12 -10 -22  230.68   15.40
  12  10  24  133.55   14.02
  12  10  24  175.04   17.27
  12 -10 -24  135.92   11.64
  12  10 -24  135.56   11.54
  12 -10 -24  131.22   11.12
  12 -10 -24  140.36   11.92
  12 -10 -26   28.09    4.54
  12  10  26   22.52    6.38
  12 -10 -26   23.92    4.18
  12  10 -26   28.75    4.84
  12 -10 -26   37.43    5.17
  12 -10 -28    2.84    2.22
  12  10  28   10.75    5.12
  12 -10 -28    6.18    2.76
  12  10 -28    9.54    3.01
  12 -10 -28    1.52    2.03
  12  10  30   83.69   10.39
  12  10 -30   68.92    7.28
  12 -10 -30   64.51    7.14
  12  10  32  146.74   12.67
  12  10 -32  139.69    9.21
  12 -10 -32  146.23    9.43
  12 -12   0    3.36    4.36
  12  12   0    4.59    4.45
  12  12   2   42.54   10.42
  12 -12  -2   34.60   10.22
 -12  12  -2   39.46   11.45
  12  12   4   52.41    9.75
 -12 -12   4   68.57   13.46
  12 -12  -4   67.45   11.42
 -12 -12   6  158.71   18.92
  12  12   6  135.09   15.35
  12  12   6  144.75   10.63
  12 -12  -6  150.68   17.29
  12  12  -6  130.74    9.70
  12  12   6  157.61   10.98
 -12 -12   8  275.86   27.26
  12  12   8  184.79   20.51
  12  12   8  232.28   14.93
  12 -12  -8  244.44   24.69
 -12  12  -8  256.38   25.84
  12  12  -8  226.37   14.33
  12  12   8  237.48   14.91
  12  12 -10   38.24   11.27
  12  12  10   51.77   13.60
  12  12  10   48.31    8.06
 -12 -12  10   44.00   13.30
 -12  12 -10   71.49   15.99
  12  12 -10   45.43    8.06
  12  12  10   56.18    8.85
  12 -12 -10   44.36   13.25
  12  12 -10   38.79    6.54
  12  12 -12    1.03    6.03
 -12 -12  12    9.35    8.37
  12  12  12    5.57    4.08
 -12  12 -12    6.48    6.24
  12  12 -12    6.29    3.88
  12 -12 -12    0.90    6.08
  12  12  12    4.56    4.01
  12  12  12    1.37    4.59
  12  12 -12    4.84    5.69
  12 -12 -12    5.03    3.48
  12  12 -12    2.05    2.58
  12  12 -14   11.15    4.78
 -12 -12 -14    9.05    5.73
  12  12  14    0.64    3.23
 -12  12 -14    2.33    6.70
  12  12 -14    2.47    2.38
  12 -12 -14    5.07    6.46
  12  12  14   15.07    7.14
  12  12  14    0.64    4.22
  12  12 -14    0.65    6.14
  12 -12 -14    4.88    2.62
  12  12 -14    0.65    3.52
  12  12 -16   53.21   12.12
  12  12  16   51.86    7.81
 -12  12 -16   50.95   13.91
  12  12  16   69.65    9.94
  12 -12 -16   58.66   13.45
  12  12  16   25.79    8.89
  12 -12 -16   55.34    7.85
  12  12 -16   17.47    7.59
  12  12 -16   56.23    7.06
  12  12  18  104.40   17.39
  12  12  18  121.65   11.12
 -12  12 -18  108.80   18.27
  12  12  18  143.72   13.18
  12 -12 -18  103.62   16.12
  12 -12 -18  122.61   10.05
  12  12 -18   90.43   15.02
  12  12 -18  120.98    9.74
  12 -12 -18  112.71    9.44
  12  12  20  101.94   10.77
  12 -12 -20   98.06    9.30
  12  12 -20   92.94    8.97
  12 -12 -20   78.62    7.95
  12  12  22  110.79   12.27
  12  12  22  138.80   14.53
  12 -12 -22  103.08   10.03
  12  12 -22  105.50    9.99
  12 -12 -22  100.37    9.83
  12 -12 -24   50.19    7.23
  12  12  24   43.86    8.32
  12  12  24   68.42   10.90
  12 -12 -24   46.81    6.86
  12  12 -24   49.64    6.86
  12 -12 -24   56.08    7.45
  12 -12 -26    0.24    3.15
  12  12  26    0.10    4.13
  12 -12 -26    0.51    2.15
  12  12 -26    2.30    3.14
  12 -12 -26    2.99    2.78
  12 -12 -28    0.51    2.55
  12  12  28    2.40    4.64
  12 -12 -28    1.23    2.51
  12  12 -28    0.58    2.11
  12 -12 -28    0.35    1.90
  12 -12 -30    9.98    2.84
  12  12  30    8.83    4.84
  12  12 -30   11.25    3.26
  12 -12 -30    4.72    2.33
  12  12  32   64.22    7.71
  12  12 -32   68.59    6.20
  12 -12 -32   64.52    5.78
  12  14   0   63.69    6.99
 -12 -14   0   87.56   13.84
  12  14   0   64.54    6.76
  12 -14   0   49.83    8.80
  12  14   0   73.38   12.00
 -12  14  -2    5.41    5.70
 -12 -14  -2   18.33    6.72
 -12 -14   2   12.10    6.30
  12  14   2   12.28    2.85
  12  14  -2   21.80    7.32
  12  14   2   15.71    6.43
  12 -14  -2    9.61    6.09
  12  14  -2   16.82    3.80
  12  14   2   19.05    3.91
 -12 -14  -4    0.25    6.92
 -12 -14   4    0.28    5.11
  12  14   4    0.25    5.33
  12  14   4    0.25    3.76
  12  14  -4    0.28    3.42
  12  14   4    0.25    2.25
  12  14   6   24.76    8.69
 -12 -14  -6    8.41    8.03
 -12 -14   6   28.41   10.39
 -12  14  -6   36.50   11.61
  12  14   6   17.22    5.32
  12  14  -6   20.51    5.09
  12 -14  -6    5.95    5.33
  12  14   6   29.95    6.07
 -12 -14  -8    5.93    5.23
 -12 -14   8   14.24    9.06
 -12  14  -8   20.90    8.39
  12  14   8    9.46    2.93
  12  14  -8   13.72    3.79
  12 -14  -8    0.21    6.03
  12  14   8    9.53    3.37
  12  14  -8    7.95    2.39
  12  14   8   16.45    5.55
 -12 -14 -10    9.44    5.31
 -12 -14  10    0.03    4.75
 -12  14 -10   26.21   10.37
  12  14  10    5.08    2.58
  12  14 -10   10.33    3.48
  12 -14 -10    4.89    6.43
  12  14  10    6.02    3.37
  12  14 -10    9.97    3.43
  12  14  10   13.19    7.61
 -12 -14 -12   24.56   11.78
 -12 -14  12   20.20    9.15
  12  14  12   16.46    4.84
 -12  14 -12   18.65    8.93
  12  14 -12   21.63    5.73
  12 -14 -12   10.48    8.60
  12  14  12   19.42    4.72
  12 -14 -12   17.87    4.29
  12  14  12    5.07    6.34
  12  14 -12   13.47    3.77
 -12 -14 -14    0.11    5.16
  12  14  14    7.76    3.79
 -12  14 -14    0.12    4.97
  12  14 -14    3.98    2.51
  12 -14 -14    6.81    6.38
  12  14  14    9.34    3.80
  12  14 -14    2.52    4.55
  12  14  14    0.19    4.98
  12 -14 -14   10.55    4.13
  12  14 -14    0.68    2.50
  12  14  16   33.88    5.54
 -12  14 -16   36.60    8.43
  12 -14 -16   37.49    9.69
  12  14  16   43.67    6.73
  12  14 -16   16.85    5.98
  12  14  16   21.01    6.67
  12 -14 -16   33.20    5.39
  12  14 -16   29.74    4.52
  12  14  18   24.39    5.61
  12  14  18   36.10    6.48
  12 -14 -18   32.45    5.15
  12  14 -18   23.22    4.33
  12  14  20   12.91    5.00
  12  14  20   15.15    5.43
  12 -14 -20   14.39    4.05
  12  14 -20   13.65    3.94
  12 -14 -20   18.71    4.41
  12  14  22    7.45    4.39
  12  14  22    9.65    6.04
  12 -14 -22    6.59    3.84
  12  14 -22   12.33    4.37
  12 -14 -22   15.09    4.78
  12  14  24   16.05    5.11
  12  14  24   20.37    6.09
  12 -14 -24   11.26    3.37
  12  14 -24   12.40    3.82
  12 -14 -24    8.42    2.96
  12 -14 -26   24.51    4.22
  12  14  26   23.25    5.95
  12 -14 -26   26.41    4.59
  12  14 -26   32.79    5.11
  12 -14 -26   27.64    4.45
  12 -14 -28   22.05    4.25
  12  14  28   28.87    6.41
  12 -14 -28   16.87    4.19
  12  14 -28   24.95    4.47
  12 -14 -28   24.37    4.54
  12 -14 -30   11.79    2.28
  12  14  30   19.86    4.22
  12 -14 -30   12.28    2.63
  12  14 -30   11.92    2.58
  12 -14 -30   16.69    2.86
  12 -14 -32    3.24    1.73
  12  14  32    0.96    2.35
  12  14 -32    0.14    1.71
  12 -14 -32    1.29    1.38
 -12 -16   0  362.97   31.36
  12  16   0  291.80   17.17
  12 -16   0  226.27   24.45
  12  16   0  313.98   17.26
  12  16   0  276.76   27.90
 -12  16   0  314.53   30.42
 -12 -16  -2  267.96   25.39
 -12 -16   2  271.37   26.41
  12  16   2  227.72   14.44
  12  16  -2  217.64   13.57
  12 -16  -2  190.62   22.30
  12  16  -2  241.73   14.29
  12  16   2  215.26   13.48
  12  16   2  204.26   22.68
 -12  16  -2  234.47   23.56
 -12 -16  -4   28.64    9.47
 -12 -16   4   28.67   10.97
  12 -16   4   31.35    9.27
  12  16   4   35.81    6.32
  12  16  -4   33.43    5.74
  12  16   4   27.32    9.48
  12 -16  -4   22.31    8.26
  12  16   4   26.42    5.04
  12  16  -4   28.77    4.97
 -12 -16   6    0.07    7.09
  12  16   6   19.36    9.13
 -12  16  -6   11.21    7.01
  12  16   6   15.23    4.69
 -12 -16  -6    7.68    6.89
  12  16  -6    9.85    3.41
  12 -16  -6    9.73    9.42
  12  16   6   10.33    4.35
  12  16  -6    8.07    3.23
  12  16   8   38.78    8.98
 -12 -16  -8   46.52   10.77
 -12 -16   8   59.56   12.14
 -12  16  -8   22.90    7.01
  12  16   8   44.68    6.23
  12  16  -8   58.15    7.10
  12 -16  -8   46.43   10.28
  12  16   8   47.00    5.85
  12  16  -8   34.73    4.96
  12  16  10   47.02   10.98
  12  16  10   55.86    7.98
 -12 -16 -10   48.69   13.38
 -12 -16  10   41.50   12.50
 -12  16 -10   65.87   14.59
  12  16 -10   63.84    8.01
  12  16  10   56.28    7.12
  12 -16 -10   39.22   11.75
  12  16 -10   63.52    7.34
  12 -16 -10   56.43    7.43
  12  16  12   46.89   13.35
  12  16  12   53.92    8.89
 -12 -16 -12   25.22   12.36
 -12 -16  12   44.77   14.52
 -12  16 -12   60.71   16.50
  12  16 -12   70.09    9.77
  12  16  12   57.99    8.81
  12 -16 -12   66.86   16.86
  12  16 -12   57.91    8.37
  12 -16 -12   57.96    8.91
  12  16  14  248.56   17.22
  12  16  14  192.22   24.98
  12 -16 -14  251.21   28.70
  12  16 -14  254.08   16.77
  12  16  14  227.57   16.08
  12  16 -14  234.85   15.00
  12 -16 -14  229.40   15.45
  12  16  16   59.01    7.76
  12  16  16   62.90    7.62
  12  16 -16   55.30    6.73
  12 -16 -16   54.69    6.86
  12  16  18   66.89    8.53
  12  16  18   69.07    8.92
  12 -16 -18   58.90    7.30
  12  16 -18   56.03    7.15
  12  16  20    2.68    3.34
  12  16  20   10.54    4.89
  12 -16 -20    7.91    3.86
  12  16 -20    0.04    3.42
  12 -16 -20    3.98    2.86
  12  16  22   27.03    6.00
  12  16  22   35.54    6.84
  12 -16 -22   31.90    5.77
  12  16 -22   29.77    5.35
  12 -16 -22   32.36    5.83
  12  16  24   56.92    8.31
  12  16  24   68.32    9.02
  12 -16 -24   69.14    7.66
  12  16 -24   64.80    7.23
  12 -16 -24   71.26    7.47
  12  16  26   94.75   10.44
  12  16  26  126.45   11.49
  12 -16 -26  122.40    9.63
  12  16 -26  116.73    9.20
  12 -16 -26  114.45    8.98
  12 -16 -26   97.83    8.18
  12  16  28  104.82   10.10
  12 -16 -28  107.59    8.51
  12  16 -28  120.79    8.65
  12 -16 -28  110.01    8.38
  12 -16 -28   86.73    7.36
  12  16  30   43.57    6.10
  12 -16 -30   52.78    5.18
  12  16 -30   62.16    5.64
  12 -16 -30   62.96    5.55
 -12 -18   0  516.10   37.23
  12 -18   0  478.41   34.64
  12  18   0  455.83   20.94
  12  18   0  434.53   19.85
 -12  18   0  459.05   36.61
  12  18   0  368.54   32.48
 -12 -18  -2  385.98   31.46
 -12 -18   2  406.33   33.17
  12 -18   2  339.33   29.71
  12  18   2  364.24   19.05
  12  18  -2  374.07   18.43
  12 -18  -2  241.73   27.35
  12  18  -2  356.70   17.89
  12  18   2  294.30   16.26
  12  18  -2  316.32   16.40
  12  18   2  308.51   29.93
 -12  18  -2  355.01   32.37
 -12 -18  -4   92.15   16.73
  12 -18   4   79.86   15.52
 -12 -18   4   57.23   14.45
  12  18   4   71.37    9.36
  12  18  -4   57.64    7.84
  12  18  -4   77.89    9.33
  12  18   4   69.81    8.51
  12  18  -4   69.06    8.20
  12 -18  -4   79.36   17.16
  12  18   4   73.40   16.70
 -12 -18  -6   57.91   14.26
  12  18   6   50.58    8.32
 -12 -18   6   46.92   12.66
  12 -18   6   38.81   12.09
  12  18  -6   63.59    8.31
  12  18   6   56.53    7.42
  12 -18  -6   35.25   13.64
  12  18  -6   58.57    7.76
  12  18   6   47.54   12.19
 -12 -18  -8   31.95    9.91
 -12 -18   8   27.54    9.13
  12 -18   8   45.57    9.92
  12  18   8   45.24    6.75
  12  18   8   24.86    9.78
  12  18  -8   33.58    5.26
  12  18   8   27.40    4.35
  12  18  -8   20.42    4.10
 -12 -18 -10   33.97   10.37
 -12 -18  10   38.01   10.85
  12  18  10   31.14    9.50
  12  18  10   37.40    5.92
  12  18 -10   41.44    6.02
  12 -18 -10   28.42    8.99
  12  18  10   33.05    4.98
  12  18 -10   40.08    5.76
  12 -18 -10   36.22    6.06
 -12 -18  12  155.48   22.84
  12  18  12  197.75   15.58
  12 -18 -12  183.41   25.49
  12  18 -12  238.16   16.10
  12  18  12  177.56   13.35
  12  18 -12  197.09   13.95
  12 -18 -12  201.51   14.59
  12  18  14  237.75   14.37
  12  18 -14  262.71   15.25
  12 -18 -14  282.92   16.00
  12  18  16  182.63   14.95
  12  18  16  169.40   13.10
  12  18 -16  183.54   13.05
  12 -18 -16  190.78   13.80
  12  18  18   68.84   10.03
  12  18  18   69.53    9.10
  12  18 -18   65.50    8.35
  12 -18 -18   61.10    8.57
  12  18  20   35.64    7.00
  12  18  20   40.91    6.89
  12 -18 -20   30.41    5.44
  12  18 -20   35.82    5.88
  12 -18 -20   20.12    4.59
  12  18  22   24.44    5.99
  12  18  22   18.17    5.13
  12 -18 -22   21.14    4.82
  12  18 -22   21.98    4.74
  12 -18 -22   24.20    5.12
  12  18  24   72.33    8.70
  12  18  24   74.29    7.65
  12 -18 -24   75.71    7.30
  12  18 -24   80.90    7.19
  12 -18 -24   74.53    7.08
  12  18  26  146.83   12.49
  12  18  26  146.04   11.30
  12 -18 -26  167.96   10.89
  12  18 -26  164.47   10.35
  12 -18 -26  162.97   10.47
  12  18 -28  176.91   10.31
  12 -18 -28  164.76   10.69
  12 -18 -28  174.82   10.38
  12  18 -30   91.16    6.58
  12 -18 -30   78.13    6.11
  12 -18 -30   91.46    6.44
 -12 -20   0  208.87   22.25
  12 -20   0  189.49   21.50
  12  20   0  217.12   13.66
  12  20   0  216.53   12.87
 -12  20   0  173.09   22.42
  12  20   0  168.06   21.58
 -12 -20  -2  327.10   29.03
 -12 -20   2  295.62   28.00
  12 -20   2  331.87   28.82
  12  20   2  312.58   17.17
  12  20  -2  273.87   15.97
  12 -20  -2  192.90   22.80
  12  20   2  243.12   14.11
  12  20  -2  277.18   15.39
 -12  20   2  279.54   29.87
  12  20   2  229.20   25.54
 -12  20  -2  237.11   27.23
 -12 -20  -4   98.45   17.80
 -12 -20   4  107.96   19.92
  12  20   4   82.32   18.38
  12 -20   4  111.35   20.12
  12  20   4  115.26   11.89
  12  20  -4   93.52   10.35
  12  20  -4  102.92   10.58
  12 -20  -4   76.05   16.91
 -12 -20  -6    9.63    8.77
 -12 -20   6   13.01    9.17
  12 -20   6   24.00   10.78
  12  20   6   23.26    6.98
  12 -20  -6    3.01    9.16
  12  20  -6   13.32    5.42
  12  20   6   12.92    9.38
 -12 -20  -8    0.19    3.57
 -12 -20   8    0.23    3.29
  12  20   8    0.22    2.90
  12 -20  -8    0.20    6.03
  12  20  -8    0.23    3.00
  12  20  10   22.01    4.62
  12  20  10   22.97    3.92
  12  20 -10   27.94    4.53
  12 -20 -10   31.55    5.76
  12  20  12  161.32   14.18
  12  20 -12  183.24   13.66
  12 -20 -12  162.24   13.83
  12  20  14  189.74   15.97
  12  20  14  145.77   11.80
  12  20 -14  174.45   13.59
  12 -20 -14  178.29   14.14
  12  20  16  134.67   12.26
  12  20  16  103.22    9.43
  12  20 -16  135.00   10.58
  12 -20 -16  132.91   11.22
  12  20  18   47.73    8.35
  12  20  18   39.33    6.39
  12  20 -18   41.14    6.66
  12 -20 -18   44.28    7.11
  12  20  20   23.22    5.33
  12  20  20   22.77    4.63
  12 -20 -20   23.58    4.84
  12  20 -20   16.64    4.19
  12 -20 -20   16.21    3.95
  12  20  22    6.86    3.18
  12  20  22   10.44    3.25
  12 -20 -22    5.88    2.53
  12  20 -22    2.97    2.54
  12 -20 -22    1.78    2.36
  12  20  24   18.81    4.63
  12  20  24   28.64    4.51
  12 -20 -24   37.06    5.11
  12  20 -24   27.44    4.38
  12 -20 -24   36.96    4.88
  12  20 -26   96.89    7.42
  12 -20 -26   98.56    7.75
  12 -20 -26  107.97    7.64
  12  20 -28  125.76    8.03
  12 -20 -28  126.39    8.38
  12 -20 -28  131.96    8.12
  12  22   0  212.69   17.01
  12  22   0  199.46   15.70
  12  22   2   10.11    4.01
  12  22  -2    4.41    3.12
  12  22   2    0.31    3.34
  12  22  -2    5.24    3.13
  12  22   4   98.85   10.63
  12  22  -4   76.18    9.04
  12  22   4   71.96    8.45
  12  22  -4   89.47    9.98
  12  22   6   26.96    6.52
  12  22  -6   13.81    4.64
  12  22   6   13.40    4.55
  12  22  -6   23.67    5.81
  12  22   8   16.02    5.84
  12  22  -8   11.42    3.97
  12 -22  -8   18.83    6.40
 -12  22 -10    9.63    4.50
  12  22  10    5.86    3.72
  12  22 -10    3.46    2.78
  12 -22 -10    9.69    4.10
 -12  22 -12   37.60    8.33
  12  22  12   41.22    8.77
  12  22 -12   38.34    7.46
  12 -22 -12   34.14    8.43
 -12  22 -14   42.06    6.40
  12  22  14   48.82    6.79
  12  22 -14   43.73    5.65
  12 -22 -14   47.81    6.49
  12  22  16   45.07    8.57
  12  22 -16   42.38    7.15
  12 -22 -16   40.72    7.11
  12  22  18    0.43    3.37
  12 -22 -18    0.14    2.64
  12  22 -18    0.10    2.94
  12  22  20    0.01    3.11
  12 -22 -20    2.22    2.77
  12  22 -20    0.01    3.08
  12 -22 -20    1.33    2.40
  12  22  22    3.32    2.91
  12 -22 -22    4.02    2.84
  12  22 -22    0.72    3.09
  12 -22 -22    6.58    2.47
  12  22  24    0.10    3.12
  12 -22 -24    1.22    2.21
  12  22 -24    1.10    2.40
  12 -22 -24    1.82    2.01
 -12  22 -26   21.90    4.31
  12  22 -26   28.81    4.02
  12 -22 -26   26.89    3.98
  12 -22 -26   32.43    4.22
  12  24   0    4.95    2.87
  12  24   0    6.00    3.24
  12  24   2   18.31    5.38
  12  24  -2   15.85    5.62
  12  24   2   10.75    3.91
  12  24  -2   19.07    5.42
  12  24   4   82.42    9.60
  12  24  -4   68.04    8.49
  12  24   4   66.86    7.79
  12  24  -4   79.18    9.07
  12  24   6   27.43    6.96
  12  24  -6   30.53    5.91
  12  24   6   24.42    5.12
  12  24  -6   29.78    5.87
  12 -24  -6   28.44    6.34
  12  24  -8   50.53    8.14
  12  24   8   53.61    9.01
  12 -24  -8   51.85    8.64
 -12  24 -10   24.89    6.17
  12  24  10   24.52    6.74
  12  24 -10   25.36    6.06
  12 -24 -10   25.10    6.63
 -12  24 -12    0.55    4.25
  12  24  12    0.46    3.67
  12  24 -12    1.23    3.48
  12 -24 -12    0.48    3.14
 -12  24 -14    0.98    3.06
  12  24  14    4.03    4.20
  12  24 -14    2.54    3.26
  12 -24 -14    2.37    3.28
 -12  24 -16    2.06    2.76
  12  24  16    2.06    3.15
  12  24 -16    2.47    2.98
  12 -24 -16    9.68    4.17
 -12  24 -18   20.30    4.92
  12  24  18   36.95    6.34
  12  24 -18   23.59    4.55
  12 -24 -18   25.99    4.94
  12 -24 -18   25.75    4.73
 -12  24 -20   73.21    8.03
  12  24  20   62.41    8.10
  12  24 -20   69.04    6.93
  12 -24 -20   68.85    7.29
  12 -24 -20   68.17    7.04
 -12  24 -22   43.06    6.20
  12  24  22   50.62    7.05
  12  24 -22   55.04    5.95
  12 -24 -22   59.02    6.45
  12 -24 -22   54.58    6.00
 -12  24 -24    2.97    2.80
  12  24  24    1.86    2.88
  12 -24 -24    4.78    2.55
  12  24 -24    2.41    2.13
  12 -24 -24    6.89    2.56
  12  26   0    7.57    4.67
  12  26   0    4.36    3.38
  12  26   2   39.69    7.34
  12  26  -2   37.27    7.22
  12  26   2   33.13    6.08
  12  26  -2   34.73    6.61
  12  26   4  138.52   12.77
  12  26  -4  122.69   11.86
  12  26   4  108.96    9.87
  12  26  -4  136.72   12.05
  12  26   6  171.56   14.04
  12  26  -6  163.89   12.65
  12  26  -6  167.32   12.89
  12 -26  -6  156.12   12.98
  12  26   8  134.01   12.24
  12  26  -8   99.23   10.08
  12 -26  -8  106.94   10.91
 -12  26 -10   70.87    8.77
  12  26  10   79.61    9.99
  12  26 -10   80.00    8.93
  12 -26 -10   80.10    9.34
 -12  26 -12   33.39    5.96
  12  26  12   35.00    6.61
  12  26 -12   24.90    5.09
  12 -26 -12   37.30    6.22
 -12  26 -14   11.54    4.30
  12  26  14   12.78    5.30
  12  26 -14    3.71    2.98
  12 -26 -14   10.65    4.32
 -12  26 -16   35.91    5.87
  12  26  16   52.08    7.34
  12  26 -16   41.71    5.70
  12 -26 -16   36.95    5.69
 -12  26 -18   80.93    8.52
  12  26  18  104.82   10.17
  12  26 -18   94.22    8.34
  12 -26 -18   88.52    8.41
  12 -26 -18   93.80    8.24
 -12  26 -20  162.14   11.12
  12  26  20  193.03   12.65
  12  26 -20  168.62   10.18
  12 -26 -20  180.81   10.81
  12 -26 -20  166.56   10.25
 -12  26 -22   74.69    7.02
  12  26  22   87.86    8.14
  12  26 -22   86.85    6.84
  12 -26 -22   81.80    7.00
  12 -26 -22   76.00    6.55
  12  28   0   18.03    4.93
  12  28   0   12.27    3.25
  12  28  -2   56.21    8.17
  12  28   2   44.30    7.52
  12  28   2   36.67    5.67
  12  28  -2   39.91    6.36
  12 -28  -2   35.92    6.59
  12  28   4  100.79   10.32
  12  28  -4   88.10    9.49
  12  28  -4   92.63    9.27
  12 -28  -4   81.21    9.16
  12  28  -6  205.66   12.98
  12  28  -6  213.13   13.18
  12 -28  -6  199.45   13.26
  12  28   8  178.08   13.86
  12  28  -8  171.46   12.46
  12 -28  -8  158.32   12.10
  12  28  10   71.98    9.57
  12  28 -10   74.29    8.53
  12 -28 -10   70.27    8.40
 -12  28 -12   36.74    6.05
  12  28  12   38.26    6.84
  12  28 -12   40.45    6.03
  12 -28 -12   38.48    5.95
 -12  28 -14   14.09    3.99
  12  28  14   25.14    5.38
  12  28 -14   19.76    4.28
  12 -28 -14   18.41    4.65
 -12  28 -16   49.42    5.95
  12  28 -16   62.48    6.47
  12 -28 -16   53.91    5.87
  12 -28 -16   53.04    5.85
 -12  28 -18   72.35    6.67
  12  28  18   81.43    8.08
  12  28 -18   90.00    7.19
  12 -28 -18   83.27    7.01
  12 -28 -18   84.58    6.89
 -12  28 -20  165.23    9.23
  12  28  20  189.01   10.98
  12  28 -20  173.65    9.17
  12 -28 -20  187.45    9.78
  12 -28 -20  172.91    9.24
  12  30   0    0.18    3.48
  12  30   0    0.18    3.21
  12 -30   0    0.14    3.42
  12  30   2    4.14    2.89
  12  30  -2   11.11    4.00
  12  30  -2    0.44    3.09
  12 -30  -2    1.90    2.75
  12  30   4   41.33    6.00
  12  30  -4   28.13    4.82
  12  30  -4   26.58    4.37
  12 -30  -4   26.72    4.86
  12  30   6   85.14    9.66
  12  30  -6   78.55    8.10
  12  30  -6   70.00    7.77
  12 -30  -6   80.71    8.54
  12  30   8  134.86   12.16
  12  30  -8  120.15   10.51
  12 -30  -8  115.11   10.54
  12  30  10   38.04    6.27
  12  30 -10   28.06    5.31
  12 -30 -10   34.78    5.49
  12  30  12    3.16    2.57
  12  30 -12    0.41    2.29
  12 -30 -12    0.35    3.02
 -12  30 -14    6.45    2.15
  12  30  14    4.79    2.75
  12  30 -14    9.98    2.90
  12 -30 -14    8.45    2.54
 -12  30 -16    0.30    1.58
  12  30  16    0.35    2.40
  12  30 -16    0.30    2.09
  12 -30 -16    2.30    1.85
  12 -30 -16    0.30    1.95
  12  32   0   34.98    6.33
  12 -32   0   25.30    4.99
  12  32   2   14.41    3.47
  12  32  -2   11.25    2.83
  12  32  -2   12.44    2.43
  12 -32  -2    4.62    2.24
  12 -32   2    7.61    2.46
  12  32   4    0.11    3.15
  12  32  -4    0.11    2.81
  12  32  -4    0.11    2.40
  12 -32  -4    0.14    2.55
  12 -32   4    0.01    2.08
  12  32   6   22.06    4.73
  12  32  -6   11.50    3.09
  12  32  -6   11.28    3.30
  12 -32  -6   18.40    4.14
  12 -32   6   16.55    3.87
  12  32  -8   17.38    3.14
  12 -32  -8   22.58    3.68
  12 -32   8   18.24    3.20
  12  32  10    5.98    2.54
  12  32 -10    0.13    2.35
  12 -32 -10    6.86    2.58
  13   1   1  215.71   17.72
  13   1  -1  205.79   17.35
  13  -1   1  192.66   16.34
  13  -1  -1  212.49   17.94
  13   1   3  217.49   15.78
  13   1  -3  259.33   20.13
  13  -1  -3  256.90   20.12
  13   1   5   38.43    7.81
  13   1  -5   52.69    9.95
  13  -1  -5   39.69    9.08
  13  -1   5   36.95    7.24
  13   1   7   18.99    5.42
 -13  -1  -7   24.00    7.87
  13   1  -7   21.62    7.02
  13  -1  -7   20.62    6.37
  13  -1   7   15.89    4.92
  13   1  -9   88.28   12.79
  13  -1  -9   82.42   12.45
 -13   1  -9   91.88   14.14
 -13  -1  -9  115.27   15.88
  13  -1   9   87.01   12.21
  13   1   9   75.15   10.97
  13   1 -11   99.68   14.13
  13  -1 -11   82.17   13.33
  13   1  11  103.45   10.30
 -13   1 -11  133.15   18.76
 -13  -1 -11  129.32   18.69
  13   1 -11   97.59    9.19
  13   1  11  133.19   11.69
  13  -1  11   85.82   13.55
  13   1  11   89.39   13.55
  13   1 -13  196.13   20.98
  13  -1 -13  191.82   20.69
  13   1  13  163.07   13.42
 -13   1 -13  248.16   26.53
 -13  -1 -13  257.94   27.38
  13  -1 -13  210.87   13.61
  13   1 -13  215.21   13.91
  13  -1  13  183.42   15.57
  13   1  13  222.27   16.60
  13  -1  13  170.61   20.78
  13   1  13  186.01   21.02
  13   1 -15   68.84   12.34
  13   1  15   74.73    9.28
 -13  -1 -15  112.20   17.81
 -13   1 -15   85.25   16.07
  13  -1 -15   65.38   12.67
  13  -1 -15   83.55    8.73
  13   1 -15   84.39    8.83
  13   1  15  104.91   11.37
  13  -1  15   75.94   10.09
  13  -1  15   74.61   14.54
  13   1  15   68.78   12.92
  13   1 -17   15.98    6.10
 -13   1 -17   30.45    8.65
 -13  -1 -17   31.92    9.79
  13  -1 -17   28.40    8.78
  13   1  17   25.24    5.96
  13  -1  17   25.63    6.41
  13  -1  17   26.11    9.08
  13   1  17   18.16    7.41
  13   1 -19   24.11    4.86
  13   1 -19   22.70    8.24
 -13   1 -19   26.24    9.57
 -13  -1 -19   47.41   12.56
  13  -1 -19   17.43    7.51
  13   1  19   23.64    6.79
  13  -1  19   18.25    6.61
  13  -1  19   14.31    7.85
  13   1  19   23.49    9.78
  13   1 -21    4.30    2.55
  13  -1 -21    0.89    2.75
  13   1 -21    8.82    6.67
  13  -1 -21    0.40    5.63
  13   1  21    0.23    3.96
  13  -1  21    0.32    3.69
  13   1 -23   39.94    6.15
  13  -1 -23   39.46    5.96
  13   1  25   98.40   11.98
  13  -1  25   85.04   11.99
  13   1 -25   95.97    9.55
  13  -1 -25   89.70    9.42
  13   1  27  285.26   19.96
  13  -1  27  258.16   19.32
  13   1 -27  286.00   15.58
  13  -1 -27  268.97   15.44
  13   1  29  243.26   17.02
  13  -1  29  198.89   15.50
  13   1 -29  214.47   12.68
  13  -1 -29  199.16   12.34
  13  -1  31   43.54    6.54
  13   1  31   37.08    6.60
  13   1 -31   37.58    4.99
  13  -1 -31   35.49    4.74
  13  -1  33    4.42    3.54
  13   1  33    5.32    3.41
  13   1 -33    0.65    1.73
  13  -1 -33    0.21    1.75
  13   3   1  195.89   15.08
  13   3  -1  218.67   16.48
  13  -3   1  219.02   15.73
  13  -3  -1  215.50   16.62
  13   3   3   17.79    6.43
  13   3   3   14.99    5.39
  13   3  -3   19.01    7.12
  13  -3  -3   16.31    5.79
  13   3   5    4.33    2.98
  13   3  -5    1.16    3.51
  13  -3  -5    0.97    3.99
  13  -3   5    0.39    2.46
  13   3   7    1.11    2.86
 -13  -3  -7    3.29    4.37
  13   3  -7    0.46    4.70
  13  -3   7    0.21    3.41
  13   3   9    0.99    3.84
 -13   3  -9    1.01    5.50
 -13  -3  -9    0.20    4.79
  13   3  -9    0.88    4.52
  13  -3  -9    0.41    3.82
  13   3  11   55.66    8.79
  13   3  11   72.76    7.28
 -13   3 -11   86.08   13.03
 -13  -3 -11   83.02   13.74
  13   3 -11   66.86    9.88
  13   3 -11   78.66    7.07
  13  -3 -11   57.86   10.29
  13   3  11   83.02    8.52
  13   3  13   17.41    8.53
  13   3  13   21.69    6.22
 -13   3 -13   39.21   12.66
  13   3 -13   32.66   10.35
 -13  -3 -13   37.18   12.74
  13  -3 -13   34.63    6.62
  13   3 -13   33.17    6.58
  13  -3 -13   36.68   11.00
  13  -3  13   19.92    7.18
  13   3  13   30.63    7.53
  13   3 -15   80.09   12.98
  13   3  15   68.97    8.86
 -13   3 -15   72.30   14.72
 -13  -3 -15   92.62   16.56
  13   3 -15   76.72    8.33
  13  -3 -15   54.93   10.51
  13  -3  15   55.01    8.95
  13   3  15   90.07   11.22
  13   3  15   90.35   15.14
  13   3  17   29.10   10.44
  13   3  17   19.21    5.64
  13   3 -17   26.11    9.53
 -13   3 -17   28.67   10.59
 -13  -3 -17   26.25   10.22
  13  -3 -17   20.91    8.22
  13   3  17   29.92    8.32
  13  -3  17    9.60    5.25
  13  -3  17   32.85   11.91
  13   3 -19    0.86    2.18
  13   3  19    0.77    6.79
  13   3 -19    9.48    5.55
 -13   3 -19   16.86    7.91
 -13  -3 -19   11.17    7.32
  13  -3 -19    1.58    4.02
  13   3  19   12.36    5.16
  13  -3  19    3.50    3.51
  13  -3  19    6.77    6.34
  13   3 -21    1.09    2.92
  13  -3 -21    0.61    2.85
  13   3  21    1.77    4.74
  13  -3  21    0.78    4.05
  13   3 -23    1.01    2.46
  13  -3 -23    0.19    2.44
  13   3  23    2.02    4.29
  13  -3  23    0.74    4.09
  13   3  25   72.37   10.80
  13  -3  25   43.64    8.47
  13   3 -25   58.20    7.81
  13  -3 -25   59.50    7.72
  13   3  27  114.78   14.05
  13  -3  27   82.12   11.28
  13   3 -27  108.35   10.39
  13  -3 -27   95.10    9.84
  13   3  29   83.29   10.48
  13  -3  29   57.53    8.75
  13   3 -29   60.80    7.12
  13  -3 -29   71.39    7.52
  13  -3 -31   28.34    4.36
  13  -3  31   18.18    4.81
  13   3  31   16.75    5.24
  13   3 -31   19.61    3.81
  13  -3  33    1.12    2.71
  13   3  33    0.09    2.93
  13   3 -33    1.37    1.76
  13  -3 -33    0.14    2.02
  13   5   1   96.73   12.26
  13   5  -1   91.64   11.92
  13  -5   1   85.93   11.08
  13  -5  -1   90.34   12.32
  13   5   3   12.88    4.64
  13   5  -3   10.51    4.29
  13  -5  -3    8.31    4.72
  13   5   3   11.81    4.70
  13   5  -5   46.41    8.99
  13   5   5   44.37    7.80
  13  -5  -5   57.93    9.39
  13   5   7  115.73   13.19
  13   5  -7  119.15   14.95
  13  -5  -7  127.93   15.81
  13   5   9   27.96    7.99
  13   5  -9   37.57    8.88
 -13   5  -9   26.95    9.89
 -13  -5  -9   40.52   10.16
  13  -5  -9   38.59    9.63
  13   5   9   45.33    7.11
  13   5  -9   31.30    5.32
  13   5  11    0.45    3.29
  13   5  11   11.12    4.06
  13   5 -11    3.58    6.02
 -13   5 -11    4.42    5.55
 -13  -5 -11    2.90    4.41
  13  -5 -11    4.83    3.86
  13   5 -11    5.96    3.44
  13   5  11    2.73    2.78
  13   5  13   14.39    5.52
  13   5  13    8.71    3.56
  13   5 -13   12.52    5.12
 -13   5 -13    1.35    5.79
 -13  -5 -13    9.31    7.31
  13  -5 -13   11.44    2.92
  13  -5 -13    8.00    4.48
  13   5 -13   10.50    2.84
  13  -5  13   11.20    3.54
  13   5  13   10.81    4.44
  13   5  15    7.35    4.21
  13   5  15   16.75    4.88
  13   5 -15   23.61    7.06
 -13   5 -15   23.76    8.35
 -13  -5 -15   24.82    8.59
  13  -5 -15    2.86    4.09
  13   5 -15   19.24    4.48
  13  -5  15   16.71    5.25
  13   5  15   14.87    5.06
  13   5  17    1.09    4.85
  13   5  17    3.30    3.88
  13   5 -17    1.30    6.17
 -13   5 -17    1.95    4.55
 -13  -5 -17    9.25    7.66
  13  -5 -17   11.15    6.66
  13   5  17    0.69    3.86
  13  -5  17    2.53    3.59
  13   5 -17    2.42    2.92
  13   5  19   28.73    9.20
  13   5  19   25.31    5.78
  13   5 -19   24.06    7.66
 -13   5 -19   38.14   10.87
 -13  -5 -19   45.93   11.65
  13  -5 -19   18.76    7.14
  13   5  19   36.01    7.56
  13  -5  19   22.19    5.89
  13   5 -19   25.86    4.54
  13  -5  21   58.36    9.73
  13   5 -21   79.98    8.14
  13  -5 -23   26.23    5.54
  13  -5  23   14.09    7.19
  13   5 -23   26.84    5.39
  13  -5 -25    0.08    3.33
  13   5  25    0.03    4.90
  13  -5  25    0.02    3.51
  13   5 -25    0.04    2.98
  13  -5 -27    2.44    2.55
  13   5  27    5.18    5.07
  13  -5  27    0.61    3.47
  13   5 -27    4.66    3.13
  13  -5 -29    3.49    2.77
  13  -5  29    0.13    3.46
  13   5  29    6.34    4.64
  13   5 -29    7.27    3.23
  13  -5 -31    6.61    2.30
  13  -5  31    0.97    2.61
  13   5  31    0.93    3.94
  13   5 -31    2.33    2.05
  13  -5  33    7.06    2.66
  13   5  33    8.47    3.23
  13   5 -33    9.96    2.44
  13  -5 -33    9.47    2.37
  13   7  -1    4.13    4.94
  13  -7   1    0.22    3.87
  13  -7  -1    0.34    3.37
  13   7  -3    6.41    5.07
  13  -7  -3   15.63    6.93
  13   7   3   15.07    6.47
  13   7  -5  186.68   18.57
  13   7   5  167.25   16.28
  13  -7  -5  204.47   19.07
  13   7   7  205.48   19.12
  13   7  -7  223.90   21.11
  13  -7  -7  240.24   22.27
  13   7   9  149.54   18.29
  13   7  -9  164.39   19.65
  13   7   9  160.46   13.24
  13  -7  -9  181.12   21.32
 -13   7  -9  210.76   24.44
 -13  -7  -9  227.32   25.85
  13   7  -9  186.73   13.10
  13   7   9  200.69   15.37
 -13  -7  11   38.02   11.35
  13   7  11   41.58    7.36
  13  -7 -11   51.11   12.90
  13   7  11   23.80    8.65
  13   7 -11   49.37   11.61
 -13   7 -11   53.90   14.34
 -13  -7 -11   50.94   13.58
  13   7 -11   43.35    7.15
  13   7  11   49.77    8.65
  13   7 -11   34.77   11.00
  13   7  13    2.45    4.93
  13   7  13    1.00    2.85
  13   7 -13    4.95    6.19
 -13   7 -13   12.32    9.17
 -13  -7 -13    3.67    7.39
  13  -7 -13    1.57    5.09
  13   7 -13    0.46    2.42
  13   7  13    3.93    4.30
  13   7 -13    8.25    7.16
  13   7  15    0.05    4.49
  13   7  15    1.02    3.59
  13   7 -15    1.48    6.22
 -13   7 -15    2.33    7.22
 -13  -7 -15    2.32    6.36
  13  -7 -15    0.04    4.44
  13   7 -15    1.79    2.62
  13  -7  15    1.67    3.70
  13   7  15    0.00    3.65
  13   7 -15    0.71    5.63
  13   7  17   21.87    8.87
  13   7  17   19.37    4.96
  13   7 -17   22.87    7.11
 -13   7 -17   39.37   11.80
 -13  -7 -17   24.72   10.22
  13  -7 -17   11.13    5.22
  13  -7  17   17.32    4.73
  13   7  17   18.87    5.77
  13   7 -17    7.19    4.82
  13   7 -17   25.64    5.10
  13   7  19   68.41    9.43
  13   7  19   58.33   14.16
  13   7 -19   51.67   11.97
 -13   7 -19   58.32   13.93
 -13  -7 -19   61.61   14.70
  13  -7 -19   59.15   13.51
  13  -7  19   69.20    9.34
  13   7  19   93.82   11.72
  13   7 -19   74.46    8.40
  13   7  21  167.97   14.87
  13   7  21  192.27   18.06
  13  -7  21  160.62   14.33
  13   7 -21  144.27   11.78
  13   7  23  102.89   14.62
  13  -7  23   75.15   10.66
  13   7 -23   74.64    8.72
  13  -7 -23   81.03    9.28
  13  -7 -25   38.27    6.01
  13  -7  25   33.57    6.88
  13   7  25   43.14    8.59
  13   7 -25   38.87    5.85
  13  -7 -27   18.98    3.71
  13  -7  27   18.21    4.63
  13   7 -27   13.85    3.71
  13  -7 -29    1.08    3.28
  13  -7  29    0.52    3.94
  13   7  29    0.31    3.94
  13   7 -29    0.33    2.25
  13  -7 -31   15.74    3.49
  13  -7  31   15.09    4.01
  13   7  31   13.71    4.89
  13   7 -31   16.71    3.53
  13   7  33   47.00    6.16
  13   7 -33   48.84    4.74
  13  -7 -33   42.12    4.41
  13  -9   1   30.46    7.52
  13  -9  -1   29.23    7.35
  13   9  -3   20.06    7.35
 -13  -9  -3   25.99    5.73
  13  -9  -3   13.09    5.71
  13   9   3   20.32    6.15
  13   9  -5  202.94   21.53
  13   9   5  168.09   19.24
  13  -9  -5  186.65   20.80
  13   9  -5  196.81   13.41
  13   9   5  214.09   14.62
  13   9  -7  289.68   24.82
  13   9   7  234.63   21.94
  13   9   7  298.59   17.04
  13  -9  -7  262.95   25.24
  13   9  -7  268.49   15.15
  13   9   7  304.69   17.21
  13   9  -9  205.12   21.66
  13   9   9  187.92   20.56
 -13  -9   9  263.82   27.23
  13   9   9  239.03   15.78
  13  -9  -9  246.62   24.46
 -13   9  -9  260.95   26.81
 -13  -9  -9  275.18   27.60
  13   9  -9  250.47   15.04
  13   9   9  250.23   16.64
 -13  -9  11   42.11   10.24
  13   9 -11   44.89    9.47
  13   9  11   36.89    5.95
 -13   9 -11   52.92   11.58
 -13  -9 -11   50.47   11.15
  13   9 -11   52.86    6.81
  13   9  11   35.41    9.00
  13  -9 -11   43.81   10.41
  13   9  11   53.83    7.71
  13  -9 -11   36.92    5.47
  13   9 -13    0.36    4.92
  13   9  13    0.03    2.91
 -13   9 -13    0.10    7.75
 -13  -9 -13    2.20    5.50
  13   9  13    0.18    3.80
  13  -9 -13    0.24    5.22
  13   9 -13    0.36    2.94
  13   9  13    2.07    3.36
  13   9 -13    0.72    5.25
  13  -9 -13    0.24    2.31
  13   9 -15   10.03    6.28
  13   9  15    3.08    2.94
 -13   9 -15    4.72    6.34
  13   9  15   15.84    8.30
 -13  -9 -15    5.81    7.74
  13  -9 -15   12.11    7.19
  13   9 -15   10.67    4.50
  13   9  15   10.46    4.30
  13  -9 -15    8.88    3.95
  13   9 -15    8.03    7.59
  13   9 -15   10.07    4.00
  13   9  17   74.01    9.23
  13  -9 -17   95.28   16.19
  13   9 -17   61.77   12.59
  13   9  17   60.51   13.39
 -13   9 -17   73.51   15.46
 -13  -9 -17   63.83   15.38
  13   9  17  100.00   12.23
  13  -9 -17   58.46    7.00
  13   9 -17   72.46    8.23
  13   9 -17   58.03   14.33
  13   9  19  141.28   13.30
  13  -9 -19  115.56   10.48
  13   9 -19  136.78   11.23
  13   9  21  151.23   13.76
  13  -9 -21  150.37   11.37
  13   9 -21  164.83   12.04
  13   9  23  121.87   12.78
  13   9 -23  118.85   10.16
  13   9 -25   60.62    7.67
  13  -9 -25   55.59    7.44
  13  -9 -27    8.37    3.07
  13   9  27   14.90    5.64
  13   9 -27    9.57    3.35
  13  -9 -29    9.47    3.46
  13   9  29   11.43    5.90
  13   9 -29   12.06    4.06
  13   9  31   48.24    7.22
  13   9 -31   50.40    5.46
  13  -9 -31   45.43    5.07
  13   9  33   81.41    8.26
  13   9 -33   76.74    6.04
  13  -9 -33   59.77    5.04
  13  11   1   23.68    7.91
  13 -11  -1   14.63    7.01
  13  11  -1   23.62    5.37
  13  11   1   30.87    6.02
  13  11   3   61.52   10.11
  13  11   3   60.06    7.00
  13  11  -3   66.34    7.37
  13  11   3   63.46    6.91
  13 -11  -3   50.01   10.16
 -13 -11   5   81.86   14.03
  13  11   5   64.40    6.93
  13  11  -5   64.94    6.72
  13  11   5   69.96    7.37
  13 -11  -5   49.64   10.81
  13  11   5   51.24    9.43
  13  11  -7  217.29   21.59
 -13 -11   7  238.97   25.34
  13  11   7  185.22   19.53
  13  11   7  234.22   14.94
 -13  11  -7  255.90   25.13
  13 -11  -7  227.34   22.94
  13  11  -7  235.85   14.17
  13  11   7  233.16   14.68
  13  11  -9   90.81   17.33
 -13 -11   9  140.73   22.48
  13  11   9  105.56   18.14
  13  11   9  131.43   13.30
  13 -11  -9  127.16   21.01
 -13  11  -9  134.17   22.56
  13  11  -9  115.50   12.00
  13  11   9  134.07   13.41
 -13 -11  11   18.74   11.37
  13  11 -11    7.80    7.76
  13  11  11   12.74    5.41
 -13  11 -11    6.98    7.23
  13 -11 -11   12.58    8.37
  13  11 -11   11.19    4.98
  13  11  11   16.60    6.24
  13  11  11    7.87    7.24
  13 -11 -11    9.45    4.69
  13  11 -13    9.97    5.26
  13  11  13    4.45    2.99
 -13  11 -13    2.54    6.23
  13 -11 -13   11.53    5.38
  13  11 -13   15.68    3.98
  13  11  13   14.85    6.73
  13  11  13   11.45    4.53
  13 -11 -13    6.72    2.25
  13  11 -13   11.19    2.92
  13  11 -15   16.36    7.05
  13  11  15    0.80    3.00
 -13  11 -15    5.34    6.17
  13 -11 -15    8.18    5.57
  13  11 -15   10.10    4.25
  13  11  15    7.06    6.70
  13  11  15    0.33    5.20
  13  11 -15    0.54    8.00
  13 -11 -15    1.27    2.95
  13  11 -15    5.43    2.89
  13  11 -17   40.72   11.06
  13  11  17   43.15    7.06
 -13  11 -17   48.87   12.03
  13 -11 -17   48.18   11.49
  13  11  17   35.63    9.78
  13  11  17   54.40    9.43
  13 -11 -17   48.84    6.85
  13  11 -17   45.33    6.56
  13  11 -17   35.21   11.34
  13 -11 -17   45.48    6.27
  13  11  19  202.80   15.95
  13  11  19  230.93   18.97
  13 -11 -19  156.92   12.37
  13  11 -19  149.92   12.08
  13 -11 -19  142.18   11.47
  13  11  21  119.23   12.03
  13 -11 -21   89.69    8.93
  13  11 -21  102.41    9.42
  13 -11 -21   93.28    8.85
  13  11  23   77.93   10.30
  13 -11 -23   80.91    8.77
  13  11 -23   76.71    8.37
  13 -11 -23   64.14    7.70
  13  11  25   20.07    6.58
  13 -11 -25   10.57    3.50
  13  11 -25   17.36    4.51
  13 -11 -25   10.08    3.80
  13 -11 -27    0.49    2.08
  13  11  27    6.53    5.34
  13 -11 -27    1.52    2.51
  13  11 -27    2.18    2.92
  13 -11 -29   11.39    2.87
  13  11  29   16.78    6.06
  13  11 -29   12.30    3.37
  13 -11 -31   29.49    3.66
  13  11  31   33.79    5.63
  13  11 -31   42.96    4.84
 -13 -13  -1    0.20    5.91
 -13 -13   1    0.21    5.70
  13  13   1    0.20    2.48
  13 -13  -1    0.26    6.97
  13  13  -1    0.31    2.51
  13  13   1    0.20    2.46
  13  13   1    0.07    3.77
 -13 -13   3    2.28    7.47
  13  13   3    5.17    6.81
  13  13   3    1.56    3.77
  13 -13  -3    0.32    5.58
  13  13  -3    3.85    3.87
  13  13   3    0.10    2.76
  13  13   5   23.46    6.40
 -13 -13   5   19.09    6.38
  13  13   5   29.25    4.65
  13 -13  -5   10.91    4.77
  13  13  -5   21.17    3.44
  13  13   5   42.07    5.50
  13  13   7   30.41    8.11
 -13 -13   7   38.99   10.48
 -13  13  -7   43.71    9.19
  13  13   7   36.10    5.77
  13 -13  -7   25.75    7.52
  13  13  -7   41.63    6.46
  13  13   7   47.36    6.54
 -13 -13  -9    8.11    8.67
 -13 -13   9    8.59    9.09
  13  13   9    8.91    4.58
 -13  13  -9    4.29    5.50
  13  13  -9   10.48    4.75
  13 -13  -9   18.12   11.35
  13  13   9   10.78    4.96
  13  13   9   11.80    7.85
 -13 -13 -11    7.50    8.15
 -13 -13  11    5.19    7.07
  13  13  11    4.67    3.73
 -13  13 -11    8.80    7.21
  13  13 -11    6.46    4.02
  13 -13 -11    0.27    5.23
  13  13  11    4.68    3.56
  13 -13 -11    2.85    3.19
  13  13 -11    4.50    2.73
  13  13  11    0.50    6.18
 -13 -13 -13    0.50    5.29
  13  13  13   11.07    4.06
 -13  13 -13   14.17   10.06
  13  13 -13    0.48    2.88
  13 -13 -13    6.81    7.06
  13  13  13    8.35    3.35
  13  13  13    0.50    5.38
  13 -13 -13    5.98    2.99
  13  13 -13    4.02    2.56
  13  13  15    5.84    3.42
 -13  13 -15   13.31    7.27
  13  13 -15    7.26    3.97
  13 -13 -15    4.36    5.19
  13  13  15    9.95    3.72
  13  13  15    9.66    5.17
  13 -13 -15    6.97    3.15
  13  13 -15    0.09    3.12
  13  13  17   12.52    3.60
  13  13  17   17.78    4.69
  13 -13 -17    7.41    2.44
  13  13 -17    1.34    3.29
  13  13  19   71.43    9.03
  13 -13 -19   48.62    6.85
  13  13 -19   49.35    6.45
  13 -13 -19   43.94    6.23
  13  13  21   80.32   10.13
  13 -13 -21   77.66    8.19
  13  13 -21   73.44    7.81
  13 -13 -21   67.69    7.42
  13  13  23    6.76    5.04
  13  13  23   10.14    5.87
  13 -13 -23    4.45    3.38
  13  13 -23    0.18    2.36
  13 -13 -23    6.58    3.53
  13  13  25    6.67    3.95
  13 -13 -25   13.23    2.60
  13  13 -25   15.28    3.26
  13 -13 -25   11.52    2.97
  13  13  27   16.57    5.70
  13 -13 -27   10.61    3.72
  13  13 -27   11.25    3.79
  13 -13 -27    8.82    3.21
  13  13  29    5.61    3.52
  13 -13 -29    3.24    1.93
  13  13 -29    0.39    2.39
  13 -13 -29    1.88    1.57
  13  13  31    2.07    2.52
  13  13 -31    1.79    1.92
 -13 -15  -1   80.36   15.41
 -13 -15   1   89.44   16.12
  13  15   1   82.89    9.21
  13  15  -1   74.97    8.73
  13  15  -1   91.89    9.41
  13  15   1   84.97    9.00
  13 -15  -1   68.00   13.20
  13  15   1   68.61   13.26
 -13 -15  -3   34.45    9.70
 -13 -15   3   40.43   12.06
  13  15   3   43.51    6.36
  13 -15  -3   35.86    9.31
  13  15  -3   46.19    6.56
  13  15   3   35.37    5.48
  13  15   3   14.24    5.48
 -13 -15  -5    0.30    7.82
 -13 -15   5    9.30    9.11
 -13  15  -5   15.87    9.36
  13  15   5    5.84    3.98
  13  15   5   15.43    5.88
  13  15  -5    4.88    3.81
  13 -15  -5    0.43    5.96
  13  15   5    6.34    3.84
  13  15   7    8.74    8.80
 -13 -15  -7    1.39    6.75
 -13 -15   7    9.73   10.45
 -13  15  -7    0.13    4.97
  13  15   7    2.09    3.76
  13  15  -7    2.26    3.57
  13 -15  -7   11.84    9.89
  13  15   7    0.70    3.06
  13  15   9    1.28    6.83
 -13 -15  -9    3.33    6.07
 -13 -15   9    0.14    7.12
 -13  15  -9    2.88    9.26
  13  15   9    0.12    3.14
  13  15  -9    0.17    3.94
  13 -15  -9    5.18    7.19
  13  15   9    0.22    3.21
  13  15  -9    0.12    2.56
  13  15  11   12.04    6.51
 -13 -15 -11    5.18    6.90
 -13 -15  11    8.04    6.01
  13  15  11   19.24    5.60
 -13  15 -11   15.27   10.45
  13  15 -11   16.17    5.08
  13 -15 -11   21.87    9.73
  13  15  11   11.00    4.20
  13 -15 -11    6.86    3.59
  13  15 -11   14.69    4.27
  13  15  13   93.70   11.50
 -13 -15 -13   48.15   17.44
  13 -15 -13   98.17   19.24
 -13  15 -13   85.94   19.49
  13  15 -13  147.73   13.51
  13  15  13  100.88   11.57
  13  15 -13   97.29   10.43
  13 -15 -13   98.70   10.72
  13  15  13   62.45   15.31
  13  15  15   68.81    8.72
  13  15  15   69.31    8.97
  13  15 -15   56.42    7.20
  13 -15 -15   49.62    7.07
  13  15  17    7.04    3.71
  13 -15 -17   11.54    2.62
  13  15 -17   15.01    2.78
  13  15  19    8.01    4.82
  13  15  19    1.23    3.78
  13 -15 -19    5.96    4.07
  13  15 -19    0.03    2.50
  13 -15 -19    1.71    2.96
  13  15  21   10.45    4.68
  13  15  21    9.30    4.25
  13 -15 -21    5.07    2.79
  13  15 -21    1.53    2.36
  13 -15 -21    4.97    3.33
  13  15  23   10.10    4.68
  13  15  23   10.07    4.94
  13 -15 -23    3.60    2.97
  13  15 -23    7.10    3.63
  13 -15 -23    7.15    3.38
  13  15  25   62.18    9.56
  13  15  25   71.13    9.49
  13 -15 -25   55.32    6.91
  13  15 -25   61.32    7.20
  13 -15 -25   44.94    6.40
  13  15  27   55.64    7.66
  13 -15 -27   43.45    5.42
  13  15 -27   50.05    5.77
  13 -15 -27   45.20    5.14
  13  15  29   48.54    6.38
  13 -15 -29   38.50    4.28
  13  15 -29   50.10    4.98
  13 -15 -29   34.82    3.94
 -13 -17  -1  264.59   30.83
 -13 -17   1  252.91   30.29
  13  17   1  256.85   17.53
  13  17  -1  227.14   16.19
  13  17  -1  241.62   16.58
  13  17   1  247.38   16.70
 -13  17   1  173.41   25.40
 -13 -17  -3  116.03   17.72
 -13 -17   3  123.10   18.50
  13  17   3  125.84   11.18
  13  17  -3  101.64    9.25
  13  17  -3  108.34    9.71
  13  17   3  111.58    9.65
  13 -17  -3   72.70   13.62
  13  17   3   95.72   15.80
  13  17   5   55.25    8.34
 -13 -17  -5   38.54   12.04
 -13 -17   5   41.13   12.87
 -13  17  -5   26.17   10.55
  13  17  -5   47.34    7.43
  13  17   5   44.14    6.83
  13 -17  -5   27.98   10.07
  13  17   5   30.77   10.22
 -13 -17  -7   20.79    8.83
 -13 -17   7    7.91    6.38
 -13  17  -7    5.16    5.60
  13  17   7   17.11    4.96
  13  17   7    9.91    6.11
  13  17  -7   22.92    5.29
  13 -17  -7    2.28    4.95
  13  17   7   17.38    4.53
  13  17  -7   19.93    4.50
 -13 -17  -9    0.13    6.41
 -13 -17   9    0.26    5.79
  13  17   9    0.13    9.08
  13  17   9    1.86    2.88
  13  17  -9    3.29    2.60
  13  17   9    0.13    2.91
  13  17  -9    0.26    2.59
  13  17  11   79.13    8.81
  13  17  11   29.67    9.01
 -13 -17 -11   57.75   14.51
 -13 -17  11   53.06   13.58
  13  17 -11   83.82    8.75
  13  17  11   59.06    7.11
  13 -17 -11   75.10   14.18
  13  17 -11   73.05    7.61
  13 -17 -11   75.83    7.99
  13  17  13  207.12   16.58
  13  17 -13  203.88   16.36
  13  17  13  158.61   13.71
  13  17 -13  204.40   14.67
  13 -17 -13  170.24   14.30
  13  17  15  155.50   14.19
  13  17  15  136.70   12.42
  13  17 -15  131.68   11.47
  13 -17 -15  139.95   12.07
  13  17  17   61.75    9.41
  13  17  17   57.17    8.28
  13  17 -17   53.19    7.62
  13 -17 -17   52.44    7.58
  13  17  19    8.22    3.58
  13  17  19   23.07    5.47
  13 -17 -19   11.82    3.70
  13  17 -19   10.35    3.30
  13 -17 -19    8.37    2.95
  13  17  21    6.54    3.59
  13  17  21   13.90    4.12
  13 -17 -21    8.18    3.09
  13  17 -21   12.28    3.48
  13 -17 -21    0.92    2.18
  13  17  23   12.40    4.71
  13  17  23   13.66    4.41
  13 -17 -23   13.34    3.83
  13  17 -23   22.05    4.68
  13 -17 -23   17.58    4.14
  13  17  25   58.86    8.30
  13  17  25   72.45    8.60
  13 -17 -25   72.28    7.28
  13  17 -25   81.48    7.39
  13 -17 -25   65.36    6.62
  13  17  27   92.06    8.99
  13  17 -27  103.05    8.22
  13 -17 -27   88.24    7.82
  13 -17 -27   83.60    7.36
  13  17  29   82.52    6.70
  13 -17 -29   95.05    6.23
  13 -17 -29   84.66    5.75
 -13 -19  -1  264.75   30.43
 -13 -19   1  253.46   30.04
  13  19   1  285.10   17.78
  13  19  -1  273.20   17.32
  13  19  -1  259.95   16.40
  13  19   1  238.90   15.79
  13  19   3  109.34   10.87
 -13 -19  -3   95.59   16.57
  13  19  -3   96.93    9.80
 -13 -19   3   95.05   16.31
  13  19   3   60.81   14.09
  13  19  -3  104.27    9.83
  13  19   3   99.92    9.58
  13  19  -3   89.01    8.94
  13 -19  -3   83.34   15.14
 -13  19   3   81.02   16.27
  13  19   5   32.39   11.35
 -13 -19  -5   44.69   13.49
 -13 -19   5   37.58   11.21
  13  19   5   42.94    7.61
  13  19  -5   50.29    7.63
  13  19   5   41.73    6.79
  13 -19  -5   23.55    9.98
  13  19  -5   45.66    7.05
  13  19   7    0.57    3.92
  13  19  -7    0.55    3.20
  13 -19  -7    3.46    3.97
  13  19   7    0.57    2.40
  13  19  -7    3.57    2.67
  13  19   9    9.51    4.45
  13  19  -9    9.69    4.03
  13  19   9    1.41    2.28
  13  19  -9    4.19    2.59
  13 -19  -9    2.87    3.18
  13  19  11   69.93    9.82
  13  19 -11   74.79    9.78
  13  19  11   60.46    7.95
  13  19 -11   67.69    8.62
  13 -19 -11   64.29    8.93
  13  19  13  140.21   12.27
  13  19  13  127.09   10.10
  13  19 -13  127.21   10.67
  13 -19 -13  140.54   11.27
  13  19  15  143.14   13.59
  13  19  15  127.47   11.20
  13  19 -15  132.59   11.42
  13 -19 -15  134.97   11.79
  13  19  17   75.64   11.06
  13  19  17   71.97    9.38
  13  19 -17   64.80    9.05
  13 -19 -17   74.98    9.61
  13  19  19   14.69    5.31
  13  19  19   10.12    4.21
  13 -19 -19   19.42    4.95
  13  19 -19   10.60    3.88
  13 -19 -19   12.54    4.06
  13  19  21    2.93    3.72
  13 -19 -21    4.89    2.45
  13  19 -21   11.72    3.20
  13 -19 -21    6.15    2.48
  13  19  23   17.59    4.28
  13  19  23   11.79    3.15
  13 -19 -23   17.66    3.47
  13  19 -23   13.81    3.14
  13 -19 -23   15.99    3.23
  13  19  25   26.68    5.17
  13  19  25   25.12    4.35
  13 -19 -25   25.42    4.11
  13  19 -25   29.90    4.27
  13 -19 -25   29.66    4.28
  13  19 -27  125.16    8.09
  13 -19 -27  112.59    8.06
  13 -19 -27  111.23    7.65
  13  21   1  131.64   12.15
  13  21  -1  117.55   11.25
  13  21  -1  110.91   10.60
  13  21   3   87.46    9.72
  13  21  -3   73.93    8.71
  13  21  -3   75.33    8.44
  13  21   5    9.35    4.66
  13  21  -5    3.77    3.06
  13  21  -5    0.16    3.20
  13  21   7    1.10    4.14
  13  21  -7    9.00    3.14
  13  21   9    1.65    3.44
  13  21  -9    2.71    3.04
  13 -21  -9    2.99    3.62
  13  21  11   27.99    5.58
  13  21 -11   27.87    4.55
  13 -21 -11   24.21    4.92
 -13  21 -13   47.48    8.28
  13  21  13   54.53    9.26
  13  21  13   38.93    6.62
  13  21 -13   53.30    8.00
  13 -21 -13   55.30    8.59
  13  21  15   81.13   10.47
  13  21  15   58.72    7.37
  13  21 -15   66.37    8.45
  13 -21 -15   71.73    8.90
  13  21  17   14.71    4.80
  13  21  17   15.54    3.97
  13  21 -17   15.17    4.12
  13 -21 -17   13.13    3.67
  13  21  19    1.03    3.77
  13 -21 -19    1.04    2.44
  13  21 -19    0.94    2.83
  13 -21 -19    4.71    2.35
  13  21  21    2.05    3.12
  13 -21 -21    1.09    2.33
  13  21 -21    0.03    2.48
  13 -21 -21    0.01    2.56
  13  21  23    0.22    3.44
  13 -21 -23    0.09    2.54
  13  21 -23    0.16    2.67
  13 -21 -23    0.72    1.88
 -13  21 -25   19.73    4.01
  13  21  25   15.02    3.93
  13 -21 -25   12.89    2.95
  13  21 -25   21.02    3.29
  13 -21 -25   18.20    3.13
  13  23   1   30.94    6.91
  13  23  -1   35.17    7.21
  13  23   1   25.54    6.14
  13  23  -1   33.70    6.83
  13  23   3    2.56    3.58
  13  23  -3    0.64    3.52
  13  23   3    0.26    2.61
  13  23  -3    4.32    3.93
  13  23   5   33.62    7.35
  13  23  -5   25.02    6.31
  13  23  -5   29.64    6.71
  13  23   7   13.66    5.23
  13  23  -7   21.76    5.23
  13 -23  -7   18.26    5.68
  13  23   9    4.28    4.22
  13  23  -9    2.42    2.92
  13 -23  -9    3.06    3.24
  13  23  11    2.04    3.68
  13  23 -11    0.49    3.44
  13 -23 -11    7.66    3.89
 -13  23 -13    0.95    3.12
  13  23  13   13.17    3.97
  13  23 -13    7.41    3.10
  13 -23 -13   12.43    3.62
 -13  23 -15    2.28    3.06
  13  23  15    2.32    3.18
  13  23 -15    6.49    3.54
  13 -23 -15    6.66    3.37
 -13  23 -17    0.21    3.64
  13  23  17    0.17    3.56
  13  23 -17    2.21    2.50
  13 -23 -17    0.16    2.71
 -13  23 -19   12.26    3.80
  13  23  19   12.99    4.58
  13  23 -19   11.47    3.40
  13 -23 -19   13.42    4.12
  13 -23 -19    9.43    3.05
 -13  23 -21   19.55    4.11
  13  23  21   20.96    4.79
  13  23 -21   17.54    3.58
  13 -23 -21   22.24    4.11
  13 -23 -21   22.24    3.87
 -13  23 -23    8.62    2.82
  13  23  23    7.12    2.88
  13  23 -23   12.54    2.62
  13 -23 -23   10.85    2.75
  13 -23 -23   13.01    2.66
  13  25   1    0.33    3.50
  13  25  -1    0.46    3.71
  13  25   1    2.05    3.20
  13  25  -1    0.37    2.69
  13  25   3   62.47    8.75
  13  25  -3   51.05    7.58
  13  25  -3   44.17    7.23
  13  25   3   30.29    5.33
  13  25   5   47.65    7.88
  13  25  -5   40.56    6.65
  13  25  -5   46.66    7.23
  13 -25  -5   44.76    7.57
  13  25   7   89.23    9.95
  13  25  -7   81.48    8.90
  13 -25  -7   80.19    9.36
  13  25   9   29.61    6.60
  13  25  -9   28.67    5.34
  13 -25  -9   34.43    6.51
  13  25  11    5.98    4.42
  13  25 -11    4.52    2.95
  13 -25 -11   12.07    4.95
  13  25  13    0.88    3.77
  13  25 -13    1.53    3.50
  13 -25 -13    1.37    2.78
 -13  25 -15    3.54    2.58
  13  25  15    4.67    3.26
  13  25 -15    4.69    2.84
  13 -25 -15   10.64    3.09
 -13  25 -17   26.25    5.37
  13  25  17   26.94    5.84
  13  25 -17   23.15    4.81
  13 -25 -17   25.03    4.90
  13 -25 -17   20.23    4.48
 -13  25 -19   59.47    6.86
  13  25  19   78.17    8.38
  13  25 -19   73.15    7.00
  13 -25 -19   75.38    7.06
  13 -25 -19   61.77    6.24
 -13  25 -21   64.08    6.59
  13  25  21   65.92    7.69
  13  25 -21   66.75    6.31
  13 -25 -21   73.07    6.76
  13 -25 -21   66.78    6.20
  13  27   1   23.77    5.69
  13  27  -1   21.70    5.13
  13  27   1   12.13    3.72
  13  27  -1   16.66    4.02
  13  27  -3   39.47    6.89
  13  27   3   38.42    7.28
  13  27   3   28.92    5.45
  13  27  -3   34.47    6.44
  13 -27  -3   28.61    6.41
  13  27   5  124.49   11.61
  13  27  -5  108.44   10.22
  13  27  -5  110.30   10.42
  13 -27  -5  103.99   10.19
  13  27   7  104.51   10.21
  13  27  -7   92.18    8.75
  13 -27  -7  108.23    9.67
  13  27   9  105.48   10.37
  13  27  -9   85.27    8.49
  13 -27  -9   85.27    8.73
  13  27  11   24.49    5.99
  13  27 -11   14.66    4.19
  13 -27 -11   20.74    5.30
  13  27  13   14.07    4.40
  13  27 -13    9.24    3.19
  13 -27 -13   10.64    3.69
  13  27  15   24.35    5.91
  13  27 -15   23.61    4.58
  13 -27 -15   12.65    3.60
 -13  27 -17   29.98    4.07
  13  27  17   43.30    5.93
  13  27 -17   39.54    4.72
  13 -27 -17   45.70    5.08
  13 -27 -17   35.61    4.55
 -13  27 -19   80.23    6.69
  13  27 -19   97.32    7.26
  13 -27 -19  103.65    7.60
  13 -27 -19   98.21    7.19
  13  29   1    1.54    2.97
  13  29  -1    5.50    2.53
  13  29   1    0.56    2.45
  13  29  -1    0.63    2.64
  13 -29  -1    0.64    3.76
  13  29   3   24.93    5.43
  13  29  -3   15.38    3.88
  13  29  -3   19.49    4.21
  13 -29  -3   17.77    4.34
  13  29   5   76.02    8.92
  13  29  -5   62.90    7.38
  13  29  -5   70.22    7.48
  13 -29  -5   62.54    7.34
  13  29   7  104.12   10.10
  13  29  -7   87.18    8.27
  13 -29  -7   89.72    8.50
  13  29   9   67.12    8.33
  13  29  -9   54.20    7.03
  13 -29  -9   59.27    7.12
  13  29  11   32.52    6.15
  13  29 -11   29.57    5.24
  13 -29 -11   27.41    4.89
  13  29  13    0.12    2.54
  13  29 -13    2.28    2.01
  13 -29 -13    5.40    2.58
  13  29  15    8.63    3.41
  13  29 -15    6.30    2.46
  13 -29 -15    3.64    2.17
  13  31   1    7.27    3.12
  13  31  -1    4.31    2.78
  13 -31  -1    8.83    3.32
  13 -31   1   11.95    3.37
  13  31   3    3.84    2.99
  13  31  -3    0.03    2.80
  13  31  -3    0.03    2.73
  13 -31  -3    3.79    2.35
  13 -31   3    0.00    2.63
  13  31   5   16.24    4.47
  13  31  -5    9.88    2.94
  13  31  -5   11.72    3.18
  13 -31  -5   12.80    3.82
  13 -31   5   13.01    3.35
  13  31   7   45.13    6.20
  13  31  -7   39.98    4.87
  13 -31  -7   38.27    5.17
  13  31   9   28.09    5.12
  13  31  -9   19.71    3.61
  13 -31  -9   20.03    3.90
  13  31  11    5.30    3.06
  13  31 -11    2.81    1.98
  13 -31 -11    2.74    1.90
  13  33   1   37.72    4.78
  13  33  -1   39.39    4.58
  13 -33  -1   31.36    3.94
  13 -33   1   26.95    3.67
  14   0   0  127.46   19.89
  14   0  -2   98.64   12.12
  14   0  -4   28.91    8.80
  14   0  -6    0.00    4.03
  14   0   8   14.02    5.16
  14   0   8    6.02    2.54
 -14   0  -8   19.94    7.07
  14   0  -8    7.62    6.21
  14   0  -8   14.21    3.76
  14   0   8   10.34    3.22
  14   0  10   29.34    5.83
  14   0 -10   35.15    9.01
  14   0 -10   41.01    6.25
  14   0  10   43.18    6.84
  14   0  10   33.03    7.85
 -14   0 -12    5.20    5.38
  14   0 -12    3.26    5.21
  14   0 -12    5.28    3.28
  14   0  12   10.06    5.00
  14   0  12    4.94    5.77
  14   0 -14  228.92   21.65
 -14   0 -14  255.00   26.39
  14   0 -14  293.16   15.38
  14   0  14  246.35   17.09
  14   0  14  206.82   21.96
 -14   0 -16    0.59    7.54
  14   0 -16    0.21    7.56
  14   0  16    5.42    3.67
  14   0  16    0.59    5.69
  14   0 -18   50.67   10.96
 -14   0 -18   90.49   17.41
  14   0  18   71.25   10.38
  14   0  18   49.93   12.73
  14   0  20   18.26    6.36
  14   0 -22    4.97    4.05
  14   0  22    3.88    5.22
  14   0 -24    0.14    2.84
  14   0  24    2.29    4.20
  14   0  26  124.17   13.10
  14   0 -26  105.84    9.56
  14   0  28  182.19   14.58
  14   0 -28  146.31   10.43
  14   0  30   47.43    5.96
  14   0 -30   38.61    4.02
  14   0  32    0.01    2.45
  14   0 -32    0.67    1.81
  14   2   0  139.48   13.93
  14  -2   0  134.18   13.59
  14   2   2   67.81   11.22
  14   2  -2   79.57   13.31
  14  -2  -2   75.60   13.32
  14   2  -4    1.74    5.04
  14  -2  -4    5.77    5.92
  14   2   6    2.93    2.47
  14   2  -6    4.11    4.04
  14  -2  -6    0.09    4.25
  14   2   8    3.16    2.84
  14   2   8    0.16    3.05
 -14   2  -8    0.12    6.17
 -14  -2  -8    1.62    5.20
  14   2  -8    0.47    5.73
  14  -2  -8    0.05    5.94
  14   2  -8    0.47    2.72
  14   2   8    0.16    3.27
  14  -2   8    0.12    3.55
  14   2  10   19.31    7.78
  14   2  10   20.36    5.57
 -14   2 -10   29.44   11.27
 -14  -2 -10   32.58   11.23
  14   2 -10   11.20    6.53
  14  -2 -10   21.25    8.36
  14  -2 -10   13.77    4.09
  14   2 -10   18.26    4.88
  14  -2  10   21.57    5.57
  14   2  10   21.15    5.70
  14  -2  10   11.08    6.93
  14   2  12   31.96    9.24
  14   2  12   48.25    7.81
 -14   2 -12   63.95   13.94
 -14  -2 -12   57.21   14.14
  14   2 -12   41.31   10.25
  14  -2 -12   31.18    9.26
  14  -2 -12   41.46    6.44
  14   2 -12   50.35    7.16
  14  -2  12   47.33    7.84
  14   2  12   60.63    8.90
  14  -2  12   52.65   11.98
  14   2  14    3.98    3.80
  14   2  14    3.44    3.06
  14   2 -14    2.81    4.51
 -14   2 -14   16.39    8.72
 -14  -2 -14   12.35    7.20
  14  -2 -14    5.02    5.69
  14  -2 -14   10.39    3.65
  14   2 -14    8.48    3.80
  14  -2  14    6.94    3.64
  14   2  14   10.53    4.12
  14  -2  14    8.96    5.85
  14   2 -16   81.05   14.60
 -14   2 -16  113.53   19.74
 -14  -2 -16  122.24   20.97
  14  -2 -16   76.03   14.50
  14   2 -16  118.70   10.87
  14  -2  16  112.81   13.00
  14   2  16  136.76   13.81
  14  -2  16   89.30   17.03
  14   2  16   93.71   17.14
  14   2  18   22.04    9.05
  14   2 -18   22.75    7.30
 -14   2 -18   10.98    4.86
 -14  -2 -18   18.91    6.27
  14  -2 -18   10.85    4.59
  14  -2  18   15.47    5.39
  14   2  18   14.13    5.23
  14  -2  18    0.42    6.68
  14  -2  20    0.92    4.63
  14   2  20    2.76    4.47
  14  -2  22   14.59    6.61
  14   2  22   13.24    6.64
  14   2 -22    7.95    3.73
  14  -2 -24    7.32    3.99
  14  -2  24    0.55    4.22
  14   2  24    3.41    4.44
  14   2 -24    5.64    3.59
  14  -2  26   75.25    9.34
  14   2  26   86.06   10.56
  14   2 -26   70.00    7.45
  14  -2 -26   63.17    7.06
  14  -2  28  103.21   10.45
  14   2  28  104.27   10.91
  14   2 -28   77.46    7.31
  14  -2 -28   83.22    7.50
  14  -2  30   41.41    6.60
  14   2  30   46.87    7.15
  14   2 -30   34.96    4.92
  14  -2 -30   29.11    4.50
  14  -2  32    0.09    2.20
  14   2  32    0.49    2.73
  14   2 -32    0.03    2.17
  14  -2 -32    0.12    1.82
  14   4   0   86.82   14.08
  14  -4   0   82.15   13.82
  14   4   2   47.09    7.65
  14   4  -2   45.55    7.64
  14  -4  -2   46.86    8.07
  14   4  -4   16.51    5.91
  14  -4  -4    9.74    4.73
  14   4   6   46.71    8.44
  14   4  -6   41.40    9.05
 -14  -4  -6   71.09   12.79
  14  -4  -6   45.19    9.43
  14   4  -6   58.02    6.59
  14   4   6   70.97    7.61
  14   4   8   16.89    5.85
  14   4   8   16.61    3.92
  14   4  -8   11.55    4.61
 -14   4  -8   23.99    8.60
 -14  -4  -8   20.37    8.41
  14  -4  -8    9.75    5.45
  14   4  -8   15.92    3.92
  14   4   8   21.42    4.97
  14  -4   8   27.45    7.28
  14   4  10    4.92    5.00
  14   4  10    0.36    3.14
  14   4 -10    0.23    5.45
 -14   4 -10    0.11    5.72
 -14  -4 -10    0.36    6.78
  14  -4 -10    0.34    3.98
  14  -4 -10    0.34    1.71
  14   4 -10    0.23    2.21
  14  -4  10    0.19    2.61
  14   4  10    0.43    2.80
  14  -4  10    0.86    3.97
  14   4  12   14.77    5.29
  14   4  12   24.77    5.78
  14   4 -12   20.43    7.53
 -14   4 -12   24.46    8.95
 -14  -4 -12   36.81    9.56
  14  -4 -12   14.84    7.34
  14  -4 -12   24.54    4.66
  14   4 -12   24.07    4.49
  14  -4  12   19.74    4.68
  14   4  12   38.09    6.81
  14  -4  12   31.99    9.29
  14   4  14    5.20    4.11
  14   4  14    9.24    4.33
  14   4 -14   14.24    6.88
 -14   4 -14   11.59    6.99
 -14  -4 -14   11.62    7.42
  14  -4 -14    1.10    4.38
  14   4 -14   12.14    4.41
  14  -4  14    5.98    4.28
  14   4  14   10.99    5.03
  14  -4  14   10.98    7.49
  14   4  16    0.01    6.53
  14   4  16    8.19    4.31
  14   4 -16   11.25    4.67
 -14   4 -16    6.59    5.47
 -14  -4 -16   12.43    8.70
  14  -4 -16    9.09    6.23
  14   4 -16   12.46    4.30
  14  -4  16    5.92    4.07
  14   4  16   13.68    5.32
  14  -4  16   12.62    7.85
  14   4  18    3.04    5.12
  14   4  18    1.94    3.34
  14   4 -18    2.01    4.03
 -14   4 -18    2.81    6.93
 -14  -4 -18   13.87    9.46
  14  -4 -18    3.12    6.08
  14  -4  18    3.86    4.45
  14   4  18    6.38    5.30
  14  -4  18    0.18    6.08
  14  -4  20   42.05    8.05
  14   4  20   55.68    9.72
  14   4 -20   41.06    6.25
  14  -4  22   32.52    8.27
  14   4  22   38.71    9.19
  14   4 -22   23.05    5.45
  14  -4  24    0.21    4.04
  14   4  24    0.50    4.81
  14   4 -24    0.69    2.44
  14  -4 -26    8.42    3.22
  14  -4  26    1.17    3.57
  14   4  26    7.34    4.87
  14   4 -26    7.98    2.96
  14  -4 -28   23.96    4.47
  14  -4  28   37.88    7.04
  14   4  28   39.46    7.72
  14   4 -28   27.31    4.77
  14  -4  30   14.12    4.07
  14   4  30   13.20    4.51
  14   4 -30    8.82    2.56
  14  -4 -30   15.38    3.23
  14  -4  32    0.36    2.35
  14   4  32    0.19    3.15
  14   4 -32    3.26    1.92
  14  -4 -32    1.90    2.75
  14   6   0  120.21   13.24
  14  -6   0  122.28   13.30
  14   6   0  146.21    9.72
  14   6  -2    2.48    4.84
  14  -6  -2    2.33    3.40
  14   6  -2    0.29    1.96
  14   6   2    0.73    2.38
  14   6  -4   11.64    5.30
  14  -6  -4    9.25    5.26
  14   6  -4   13.73    3.24
  14   6   4   17.19    4.22
  14   6   6   82.53   12.00
  14   6  -6  101.16   14.71
  14  -6  -6  104.10   15.38
  14   6   6   87.37    9.48
 -14  -6  -6  130.86   18.32
  14   6  -6  101.43    9.12
  14   6   6  116.13   10.41
  14   6   8   65.23   13.15
  14   6  -8   89.19   15.34
  14  -6  -8   74.99   15.42
  14   6   8   89.33   10.85
 -14   6  -8   91.75   17.55
 -14  -6  -8  114.77   19.46
  14   6  -8   82.45    9.47
  14   6   8   92.88   11.28
  14   6  10   13.52    4.75
  14   6  10   16.40    7.03
  14   6 -10   18.49    7.97
 -14   6 -10   15.00    7.59
 -14  -6 -10   22.44    9.76
  14  -6 -10   13.28    7.96
  14   6 -10   17.91    4.66
  14   6  10   29.70    6.91
  14   6  12   14.45    6.20
  14   6  12   12.27    4.48
  14   6 -12   21.71    7.79
 -14   6 -12   10.17    5.54
 -14  -6 -12   16.59    8.16
  14  -6 -12   14.19    3.91
  14  -6 -12   22.64    8.67
  14   6 -12   17.38    4.11
  14  -6  12    8.10    3.01
  14   6  12   21.21    5.60
  14   6  14   18.56    7.99
  14   6  14   31.19    5.67
  14   6 -14   19.64    6.63
 -14   6 -14   33.61    9.21
 -14  -6 -14    4.63    6.67
  14  -6 -14   31.14    8.80
  14   6 -14   27.45    4.66
  14  -6  14   35.96    6.16
  14   6  14   34.57    6.07
  14   6  16   17.44    8.50
  14   6  16    3.34    3.40
  14   6 -16    3.63    4.14
 -14   6 -16    0.50    9.23
 -14  -6 -16    0.31    6.44
  14  -6 -16    3.44    4.75
  14   6 -16    0.37    2.59
  14  -6  16    4.87    2.88
  14   6  16    3.29    3.80
  14   6  18    7.33    7.11
  14   6  18    1.10    3.86
  14   6 -18    6.38    7.11
 -14  -6 -18   16.20   12.01
  14  -6 -18    1.19    5.77
  14  -6  18    4.38    4.15
  14   6  18    0.79    4.34
  14   6  20   37.40    7.93
  14   6  20   57.40   10.49
  14  -6  20   41.93    8.17
  14   6 -20   32.54    5.98
  14  -6  22   66.61    9.26
  14   6  22   81.80   11.90
  14   6 -22   50.21    6.92
  14  -6  24   11.84    5.12
  14   6  24   26.35    7.05
  14   6 -24   14.54    4.05
  14  -6  26    0.36    3.54
  14   6  26    0.32    4.19
  14   6 -26    0.44    2.52
  14  -6 -28    4.66    2.60
  14  -6  28    8.78    3.95
  14   6  28    4.58    4.05
  14   6 -28    5.02    2.56
  14  -6 -30    1.00    1.92
  14  -6  30    0.25    2.94
  14   6  30    0.05    3.20
  14   6 -30    0.10    1.92
  14  -6  32    0.38    1.88
  14   6  32    1.07    2.89
  14   6 -32    0.12    1.40
  14  -8   0    7.44    5.18
  14   8   0    0.13    3.07
  14   8  -2   16.55    6.91
  14  -8  -2    6.11    4.22
  14   8  -2   13.17    4.26
  14   8   2    9.31    3.14
  14   8   4   54.37    8.55
  14  -8  -4   48.41   12.67
  14   8  -4   44.10   12.36
 -14  -8  -4   70.34   14.77
  14   8  -4   59.40    8.57
  14   8   4   58.29    8.61
  14   8  -6   63.18   13.01
  14   8   6   72.69    9.60
  14  -8  -6   78.23   14.89
 -14  -8  -6   89.95   16.95
  14   8  -6   74.03    9.16
  14   8   6   88.64   10.36
  14   8   6   48.66   11.11
  14   8  -8  103.13   16.24
  14   8   8   81.74   13.94
  14   8   8  130.20   12.54
  14  -8  -8  106.86   17.19
 -14   8  -8  153.14   20.98
 -14  -8  -8  165.26   22.88
  14   8  -8  129.39   11.12
  14   8   8  147.24   12.92
 -14  -8  10   31.79    9.76
  14   8 -10   24.02    5.52
  14   8  10   44.95    6.67
 -14   8 -10   38.39    9.69
 -14  -8 -10   35.25    9.97
  14  -8 -10   46.08   10.33
  14   8  10   58.61    7.57
  14   8  10   30.34    6.15
  14   8 -10   49.79    6.22
  14   8  12   15.76    4.82
  14   8 -12    0.02    5.23
 -14   8 -12    6.88    5.78
 -14  -8 -12    9.72    8.17
  14   8  12    9.98    3.69
  14  -8 -12   10.99    7.40
  14   8 -12   16.53    4.70
  14   8  12   26.55    6.73
  14   8  14   22.78    5.71
  14   8 -14   16.44    7.28
 -14   8 -14   23.00    8.87
 -14  -8 -14   21.85    9.88
  14   8  14   10.88    5.41
  14  -8 -14   25.46    9.28
  14   8 -14   30.69    5.91
  14   8  14   32.68    6.96
  14   8  16   10.33    5.02
  14   8 -16    1.69    4.57
  14   8  16    0.40    7.75
 -14   8 -16    4.42    6.03
 -14  -8 -16   19.29   10.46
  14  -8 -16    7.39    7.24
  14   8 -16    8.84    4.30
  14   8  16    4.22    4.15
  14   8  18   46.16    8.25
  14   8  18   58.57    9.91
  14   8 -18   27.43    5.51
  14   8  20   36.80    7.68
  14   8 -20   37.45    6.53
  14  -8  22   78.06    9.74
  14   8  22   89.17   12.21
  14   8 -22   57.27    7.03
  14  -8  24   24.82    5.56
  14   8  24   40.25    7.97
  14   8 -24   28.91    5.15
  14  -8  26    2.63    2.82
  14   8  26    6.85    5.34
  14   8 -26    4.09    3.14
  14   8  28    0.35    3.70
  14   8 -28    1.20    2.39
  14   8  30    0.62    3.07
  14   8 -30    0.56    1.79
  14   8  32   35.04    5.70
  14   8 -32   21.62    3.34
  14  10   0    0.92    2.36
  14  10   2   10.55    4.26
  14 -10  -2    6.10    5.53
  14  10  -2    6.58    3.13
  14  10   2   11.78    4.47
  14  10   4    6.64    4.24
  14 -10  -4    9.04    6.36
  14  10  -4    7.94    3.88
  14  10   4   14.77    4.88
  14  10  -6   95.57   16.28
  14  10   6   81.65   14.42
  14  10   6  103.97   11.38
  14 -10  -6   97.75   16.79
  14  10  -6  108.04   10.48
  14  10   6  132.25   12.11
  14  10  -8  104.30   17.10
 -14 -10   8  105.00   19.63
  14  10   8   83.67   14.84
  14  10   8  126.24   12.33
  14 -10  -8  120.20   18.66
 -14  10  -8  127.14   20.46
  14  10  -8  121.25   11.35
  14  10   8  132.82   12.23
 -14 -10  10    0.05    4.13
  14  10 -10    9.76    5.08
  14  10  10    6.72    3.85
 -14  10 -10    0.03    7.42
  14 -10 -10   14.57    7.12
  14  10 -10   11.20    4.34
  14  10  10   16.46    4.99
  14  10  10    0.03    7.17
  14 -10 -10    0.15    2.22
  14  10 -12    4.15    6.01
  14  10  12    0.12    3.83
 -14  10 -12    0.26    8.09
  14 -10 -12    0.12    5.71
  14  10 -12    2.41    2.81
  14  10  12    3.10    5.50
  14  10  12    0.12    3.58
  14 -10 -12    3.60    2.18
  14  10 -14    0.46    6.11
  14  10  14    1.64    3.23
 -14  10 -14    0.54    5.72
  14 -10 -14    0.74    5.23
  14  10 -14    3.97    3.14
  14  10  14    6.93    5.25
  14  10  14    8.63    3.91
  14 -10 -14    4.24    2.25
  14  10 -16   14.77    7.36
  14  10  16    5.46    3.75
 -14  10 -16    0.09    6.88
  14  10 -16    4.12    3.21
  14 -10 -16    7.12    5.99
  14  10  16    8.75    6.02
  14  10  16    0.13    5.30
  14 -10 -16    5.27    2.99
  14  10 -16    7.30    3.68
  14  10  18   88.41   11.30
  14 -10 -18   81.04    8.68
  14  10 -18   68.57    8.31
  14  10  20  108.55   12.05
  14 -10 -20   87.90    8.88
  14  10 -20   91.00    9.10
  14  10  22   35.86    7.13
  14  10 -22   23.60    5.09
  14  10  24   30.02    6.85
  14  10 -24   15.92    4.01
  14  10  26    0.20    3.93
  14  10 -26    0.19    2.26
  14  10  28    0.13    3.27
  14  10 -28    0.11    1.99
  14  10  30    2.41    2.87
  14  10 -30    4.98    2.00
  14  12   0    3.20    2.80
  14  12   0    6.99    3.68
 -14 -12   2    0.44    5.13
  14  12   2    1.43    2.59
  14 -12  -2    0.34    4.46
  14  12  -2    1.68    2.64
  14  12   2    0.40    3.45
 -14 -12   4    8.96    6.95
  14  12   4   10.87    4.01
  14 -12  -4    7.76    6.37
  14  12  -4    5.00    2.86
  14  12   4   13.22    4.05
  14  12   6   37.31   10.06
  14  12   6   55.27    7.43
 -14 -12   6   55.92   13.70
 -14  12  -6   41.02   10.14
  14  12  -6   52.98    7.01
  14  12   6   50.90    6.93
  14 -12  -6   50.78   11.46
 -14 -12   8   17.81    8.35
  14  12   8   35.31    6.02
 -14  12  -8   25.41    7.12
  14 -12  -8   27.69    9.92
  14  12  -8   32.73    5.79
  14  12   8   34.69    6.12
  14  12   8   26.32    7.84
 -14 -12  10    4.07    7.89
  14  12  10    8.29    4.06
 -14  12 -10   10.08    6.46
  14 -12 -10   19.70    8.71
  14  12 -10    7.89    5.03
  14  12  10   14.77    5.34
  14 -12 -10    9.70    3.84
  14  12  10    7.04    6.25
  14  12  12    2.80    4.19
 -14  12 -12    1.31    8.73
  14 -12 -12    1.37    6.94
  14  12 -12    0.01    2.94
  14  12  12    0.36    3.54
  14  12  12    5.89    5.13
  14 -12 -12    0.25    2.56
 -14 -12 -14    0.19   11.17
  14  12  14   16.65    4.79
 -14  12 -14   10.32    9.57
  14 -12 -14   22.95    8.71
  14  12 -14   13.50    4.82
  14  12  14    6.33    4.10
  14  12  14   11.11    6.56
  14 -12 -14    9.11    3.54
  14  12 -14   18.25    4.33
  14  12  16    8.93    4.07
  14  12  16    8.60    4.67
  14 -12 -16   10.51    4.06
  14  12 -16   10.07    3.83
  14  12  18   55.23    8.02
  14  12  18   50.95    8.19
  14 -12 -18   27.84    4.57
  14  12 -18   28.59    4.95
  14 -12 -18   31.49    4.96
  14  12  20  113.72   12.26
  14 -12 -20   89.61    8.73
  14  12 -20  111.68    9.73
  14 -12 -20  100.33    9.03
  14  12  22   28.49    7.13
  14 -12 -22   26.06    5.37
  14  12 -22   25.35    5.53
  14  12  24    0.37    4.06
  14 -12 -24    0.35    2.62
  14  12 -24    1.89    2.56
  14  12  26    9.85    4.12
  14  12 -26    4.93    2.85
  14  12  28    1.85    3.00
  14  12 -28    4.00    1.76
  14  12  30    6.60    2.65
  14  12 -30    1.67    1.46
 -14 -14   0    0.81    6.97
  14  14   0   14.33    4.02
  14  14   0    9.79    3.66
 -14 -14  -2    0.27    7.30
 -14 -14   2    3.27    7.52
  14  14   2   19.47    4.53
  14  14  -2   17.94    4.56
  14  14   2   19.29    4.92
 -14 -14  -4    0.09   10.28
  14  14   4    2.81    3.40
  14 -14  -4    0.02    5.56
  14  14  -4    0.89    2.72
  14  14   4    0.09    3.04
 -14 -14   6    0.75    7.60
  14  14   6    0.16    4.67
 -14  14  -6    3.18    8.23
  14  14   6    0.50    3.18
  14 -14  -6    6.62    7.39
  14  14  -6    1.22    3.99
  14  14   6    2.92    4.06
  14  14   8    2.91    5.38
 -14 -14  -8    0.14    8.45
 -14 -14   8   12.59    6.98
  14  14   8   15.29    5.20
 -14  14  -8    0.64    5.23
  14 -14  -8    6.56    7.09
  14  14  -8    9.46    3.53
  14  14   8    8.93    3.54
  14  14  10   18.98    6.96
 -14 -14 -10   13.89    8.28
 -14 -14  10    0.89    4.34
  14  14  10   11.91    4.03
 -14  14 -10   18.35    7.29
  14 -14 -10   23.42   10.04
  14  14 -10   16.46    4.10
  14  14  10   15.33    3.82
  14 -14 -10   12.96    3.67
 -14 -14 -12    0.09    4.86
  14  14  12   16.03    5.33
 -14  14 -12   12.32    6.50
  14  14 -12   15.93    5.15
  14 -14 -12    5.61    5.07
  14  14  12   18.33    5.41
  14 -14 -12   16.97    4.42
  14  14 -12   13.34    3.46
  14  14  12   19.88    8.45
  14  14  14  109.40   11.04
  14  14 -14  111.82   11.00
  14  14  14  123.51   11.44
  14  14 -14  109.79    9.26
  14 -14 -14  102.94    9.17
  14  14  16    0.36    3.85
  14  14  16    0.75    3.81
  14 -14 -16    2.18    3.02
  14  14 -16    0.04    2.61
  14  14  18    2.16    4.95
  14  14  18    4.51    5.02
  14 -14 -18    1.13    2.70
  14  14 -18    1.38    3.24
  14 -14 -18    1.02    2.73
  14  14  20   59.24    8.87
  14  14  20   63.60    9.49
  14 -14 -20   49.60    6.85
  14  14 -20   45.67    6.69
  14 -14 -20   45.81    6.24
  14  14  22   15.60    5.56
  14  14  22   15.84    5.32
  14 -14 -22    5.40    2.86
  14  14 -22    7.84    3.34
  14 -14 -22   16.71    3.93
  14  14  24    6.19    4.22
  14  14  24    7.92    4.46
  14 -14 -24    4.72    2.74
  14  14 -24    6.80    3.12
  14 -14 -24    4.72    2.75
  14  14  26   41.60    6.63
  14  14 -26   33.49    4.65
  14 -14 -26   32.46    4.41
  14 -14 -26   21.55    3.49
  14  14  28   22.07    4.89
  14  14 -28   21.62    3.35
  14  14  30    1.40    2.26
  14  14 -30    0.34    1.47
 -14 -16   0   99.55   20.80
  14  16   0   77.63   10.56
  14  16   0   75.59   10.81
  14  16   2   53.99    8.15
  14  16  -2   39.94    7.09
 -14 -16  -2   41.22   12.55
 -14 -16   2   46.94   13.75
  14  16   2   43.95    7.40
  14  16  -2   43.25    7.04
 -14 -16  -4   27.14   10.10
 -14 -16   4   44.64   13.61
 -14  16  -4   25.04    9.30
  14  16   4   36.09    7.04
  14  16  -4   22.73    4.81
  14  16   4   28.29    5.52
 -14 -16  -6    8.91    7.92
 -14 -16   6   15.81    9.45
 -14  16  -6    6.10    6.56
  14  16   6   12.19    4.39
  14 -16  -6    0.26    7.89
  14  16  -6   10.78    4.41
  14  16   6    7.13    5.32
  14  16   6   10.45    3.92
 -14 -16  -8   16.30   10.38
 -14 -16   8    7.24    6.44
  14  16   8   10.31    6.50
  14  16   8   17.07    5.42
 -14  16  -8   19.66   10.49
  14  16  -8   15.55    5.26
  14 -16  -8    5.94    6.70
  14  16   8   15.28    4.67
  14  16  10    5.17    3.68
  14  16 -10    4.66    3.15
  14  16  10    0.09    3.04
  14  16 -10    1.43    2.52
  14 -16 -10    1.71    2.61
  14  16  12  109.10   11.69
  14  16 -12  126.79   11.90
  14  16  12  118.74   11.18
  14  16 -12   91.65    9.38
  14 -16 -12   99.42   10.20
  14  16  14   62.78    9.05
  14  16 -14   75.94    9.34
  14  16  14   59.25    8.28
  14  16 -14   63.66    8.07
  14 -16 -14   58.90    7.78
  14  16  16   65.36    9.92
  14  16  16   64.02    9.05
  14  16 -16   48.73    7.71
  14 -16 -16   62.81    8.36
  14  16  18    0.07    3.66
  14  16  18    1.60    3.22
  14 -16 -18    5.62    3.30
  14  16 -18    0.11    3.26
  14 -16 -18    0.20    2.32
  14  16  20    3.07    3.86
  14  16  20    0.36    3.37
  14 -16 -20    0.87    2.33
  14  16 -20    2.36    2.22
  14 -16 -20    1.03    2.25
  14  16  22    7.18    3.69
  14  16  22    8.12    4.51
  14 -16 -22    6.09    2.83
  14  16 -22   11.52    3.19
  14 -16 -22    9.94    3.21
  14  16  24   11.76    5.02
  14  16  24   15.63    5.09
  14 -16 -24   11.59    3.56
  14  16 -24   16.29    4.18
  14 -16 -24   10.31    3.31
  14  16  26   45.66    6.22
  14  16 -26   40.09    4.79
  14 -16 -26   38.53    4.60
  14 -16 -26   33.83    4.18
  14  16  28   37.94    5.15
  14  16 -28   49.47    4.57
  14 -16 -28   33.48    3.64
 -14 -18   0  128.31   22.64
  14  18   0  140.64   13.26
  14  18   0  138.83   13.01
  14  18   2   75.28   10.02
  14  18  -2   77.85    9.61
 -14 -18  -2   64.12   17.24
 -14 -18   2   63.44   16.20
  14  18  -2   69.32    9.54
  14  18   2   75.88    9.38
  14  18   4   41.78    7.87
  14  18   4   35.88    6.89
  14  18  -4   28.80    6.33
  14  18   6    2.48    3.15
  14  18  -6    0.07    2.88
  14  18   6    0.03    3.50
  14  18   8    6.49    4.22
  14  18  -8   12.86    3.53
  14  18   8   12.26    3.43
  14  18  -8   13.87    3.64
  14  18  10   12.42    4.34
  14  18 -10   15.29    4.71
  14  18  10   10.20    3.61
  14  18 -10   12.78    3.80
  14 -18 -10    6.68    3.52
  14  18  12   53.43    7.75
  14  18 -12   55.60    7.37
  14  18  12   46.46    6.51
  14  18 -12   50.77    6.71
  14 -18 -12   47.01    6.61
  14  18  14   74.95    9.35
  14  18  14   66.15    7.99
  14  18 -14   72.31    7.91
  14 -18 -14   89.27    8.81
  14  18  16   52.93    9.55
  14  18  16   46.50    7.58
  14  18 -16   46.96    7.14
  14 -18 -16   45.30    7.49
  14  18  18   13.24    4.64
  14  18  18   13.11    4.22
  14 -18 -18   10.90    4.10
  14  18 -18    9.38    3.97
  14 -18 -18   10.02    3.50
  14  18  20    0.05    3.95
  14  18  20    0.05    2.96
  14 -18 -20    4.98    2.63
  14  18 -20    0.60    2.26
  14 -18 -20    1.46    2.27
  14  18  22    2.58    3.72
  14  18  22    1.23    2.57
  14 -18 -22    0.09    2.84
  14  18 -22    1.26    2.06
  14 -18 -22    0.97    1.94
  14  18  24    0.04    3.59
  14  18  24   10.87    3.28
  14 -18 -24    7.36    2.59
  14  18 -24    8.20    2.52
  14 -18 -24    5.32    2.21
  14  18  26   23.44    3.80
  14  18 -26   32.43    3.99
  14 -18 -26   24.73    3.59
  14 -18 -26   23.64    3.26
  14  20   0  207.15   13.67
  14  20   0  162.77   12.19
  14  20   2   49.70    7.90
  14  20  -2   45.95    7.43
  14  20  -2   43.94    7.18
  14  20   2   32.74    6.43
  14  20   4    4.29    3.97
  14  20  -4    1.36    2.53
  14  20   4    4.11    3.55
  14  20   6   23.40    5.60
  14  20  -6   10.70    4.61
  14  20   6   16.70    4.72
  14  20  -6   20.61    4.76
  14  20   8    1.02    3.52
  14  20  -8    1.05    3.19
  14  20   8    0.51    2.16
  14  20  -8    1.05    3.34
  14 -20  -8    0.78    4.87
  14  20  10   15.15    5.11
  14  20 -10   14.08    4.41
  14  20  10   12.68    3.85
  14  20 -10    7.37    3.18
  14 -20 -10    8.50    3.94
  14  20  12   14.21    4.13
  14  20  12   14.27    3.16
  14  20 -12   14.28    3.61
  14 -20 -12   12.59    3.30
  14  20  14   56.59    9.58
  14  20  14   38.20    6.81
  14  20 -14   50.34    7.91
  14 -20 -14   47.92    8.07
  14  20  16   38.99    6.75
  14  20  16   27.08    4.68
  14  20 -16   31.90    5.26
  14 -20 -16   32.95    5.44
  14  20  18    1.30    3.64
  14  20  18    3.06    3.11
  14 -20 -18    0.16    2.61
  14  20 -18    2.42    2.86
  14 -20 -18    1.27    2.26
  14  20  20    2.91    3.13
  14  20  20    2.11    2.29
  14 -20 -20    0.33    2.63
  14  20 -20    6.73    2.71
  14 -20 -20    0.33    2.65
  14  20  22    0.04    3.53
  14  20  22    0.04    1.98
  14 -20 -22    0.03    2.18
  14  20 -22    0.02    2.27
  14 -20 -22    1.67    1.96
  14  20  24    0.33    3.08
  14  20  24    1.31    1.67
  14 -20 -24    0.99    2.01
  14  20 -24    2.21    2.03
  14 -20 -24    0.48    1.75
 -14  20 -26   16.79    3.41
  14 -20 -26   18.06    3.03
  14  20 -26   22.31    3.28
  14 -20 -26   16.96    2.79
  14  22   0    8.51    4.64
  14  22   2  125.45   12.18
  14  22  -2  107.44   11.15
  14  22   4   52.95    8.13
  14  22  -4   41.15    6.88
  14  22  -4   38.35    6.58
  14  22   6   20.58    5.92
  14  22  -6   16.80    4.90
  14  22   8    0.26    3.98
  14  22  -8    0.21    3.22
  14 -22  -8    0.64    2.98
  14  22  10    0.71    3.68
  14  22 -10    0.01    2.69
  14 -22 -10    0.77    2.99
  14  22  12   10.40    4.63
  14  22 -12    7.79    3.70
  14 -22 -12   14.21    4.92
  14  22  14   17.40    5.40
  14  22 -14   21.80    4.24
  14 -22 -14   23.16    4.96
  14  22  16    3.88    4.58
  14  22 -16    0.20    2.33
  14 -22 -16    0.04    2.41
 -14  22 -18    0.03    3.68
  14  22  18    0.01    3.22
  14  22 -18    0.01    3.11
  14 -22 -18    0.05    3.04
  14 -22 -18    0.05    3.20
 -14  22 -20    7.80    3.35
  14  22  20    5.66    3.60
  14  22 -20    6.78    3.07
  14 -22 -20    7.15    2.85
  14 -22 -20    7.18    2.93
 -14  22 -22   12.41    3.23
  14  22  22   11.11    3.69
  14  22 -22    8.05    2.58
  14 -22 -22   10.47    2.97
  14 -22 -22   10.09    2.76
 -14  22 -24    0.04    2.43
  14  22 -24    0.03    1.88
  14 -22 -24    0.01    1.87
  14 -22 -24    0.01    1.92
  14  24   0   79.44    9.20
  14  24   0   62.23    7.28
  14  24   2    9.10    3.67
  14  24  -2    6.09    3.42
  14  24  -2    9.27    3.48
  14  24   4    0.01    3.73
  14  24  -4    2.35    3.15
  14  24  -4    1.55    2.70
  14  24   6   60.74    8.49
  14  24  -6   60.34    7.67
  14 -24  -6   55.06    8.14
  14  24   8   30.17    6.09
  14  24  -8   14.44    4.29
  14 -24  -8   18.15    5.25
  14  24  10    1.97    3.69
  14  24 -10    0.02    3.39
  14 -24 -10    3.45    2.78
  14  24  12    0.04    3.33
  14  24 -12    5.86    3.17
  14 -24 -12    5.05    3.11
  14  24  14    0.24    3.53
  14  24 -14    0.10    2.65
  14 -24 -14    0.08    2.60
  14  24  16    1.24    3.46
  14  24 -16    0.32    2.43
  14 -24 -16    1.02    2.42
  14  24  18   12.93    4.05
  14  24 -18   15.64    3.54
  14 -24 -18   13.84    3.60
  14 -24 -18   11.17    3.00
 -14  24 -20   19.75    3.71
  14  24  20   30.64    5.43
  14  24 -20   25.17    3.87
  14 -24 -20   22.22    3.82
  14 -24 -20   21.70    3.69
 -14  24 -22    2.13    1.98
  14  24  22   15.00    3.44
  14  24 -22   10.94    2.32
  14 -24 -22   13.10    2.69
  14 -24 -22   13.53    2.43
  14  26   0    0.34    3.56
  14  26   0    1.75    2.77
  14  26   2    1.20    2.81
  14  26  -2    0.65    3.38
  14  26  -2    0.65    2.26
  14  26   4   27.51    5.94
  14  26  -4   31.62    5.63
  14  26  -4   25.65    4.80
  14 -26  -4   23.00    5.17
  14  26   6   58.55    8.43
  14  26  -6   37.93    5.85
  14 -26  -6   42.70    6.45
  14  26   8   52.60    8.04
  14  26  -8   47.48    6.62
  14 -26  -8   43.04    6.90
  14  26  10    9.88    4.14
  14  26 -10    5.38    3.08
  14 -26 -10    9.15    3.30
  14  26  12    0.04    4.16
  14  26 -12    0.02    3.20
  14 -26 -12    3.52    3.01
  14  26  14    0.11    3.25
  14  26 -14    2.77    2.37
  14 -26 -14    5.16    2.78
  14  26  16    6.01    2.99
  14  26 -16    6.06    2.30
  14 -26 -16    7.84    2.03
  14 -26 -16    0.57    2.53
  14  26  18   24.06    5.07
  14  26 -18   20.18    3.86
  14 -26 -18   18.42    3.75
  14 -26 -18   11.55    3.00
  14  28   0    0.55    2.86
  14  28   0    0.52    1.79
  14  28   2    5.15    3.76
  14  28  -2    3.20    2.73
  14  28  -2    0.02    1.95
  14 -28  -2    0.03    3.54
  14  28   4   37.53    6.71
  14  28  -4   34.66    5.73
  14  28  -4   27.79    4.89
  14 -28  -4   32.80    5.75
  14  28   6   43.61    7.00
  14  28  -6   28.39    4.93
  14 -28  -6   29.41    5.36
  14  28   8   48.84    7.09
  14  28  -8   41.97    5.68
  14 -28  -8   40.47    5.92
  14  28  10   27.76    5.25
  14  28 -10   28.62    4.40
  14 -28 -10   31.02    5.02
  14  28  12    0.01    2.59
  14  28 -12    2.78    2.46
  14 -28 -12    0.23    2.69
  14  28  14    2.97    2.74
  14  28 -14    0.45    1.77
  14 -28 -14    0.03    2.84
  14 -28 -14    0.03    2.15
  14  28  16    1.58    2.28
  14  28 -16    1.87    1.87
  14 -28 -16    0.02    1.76
  14 -28 -16    0.92    1.57
  14  30   0    5.05    2.54
  14 -30   0    2.82    2.26
  14  30   2    1.63    2.56
  14  30  -2    0.03    2.57
  14 -30  -2    0.67    2.56
  14 -30   2    0.02    2.81
  14  30   4    0.56    2.51
  14  30  -4    3.57    1.90
  14  30  -4    3.53    1.73
  14 -30  -4    4.67    2.27
  14 -30   4    3.08    2.39
  14  30   6   47.54    6.89
  14  30  -6   31.90    4.61
  14 -30  -6   34.68    5.48
  14  30   8   17.85    4.48
  14  30  -8   16.63    3.37
  14 -30  -8   14.90    3.69
  14  30  10   19.07    3.88
  14  30 -10    5.48    1.80
  14 -30 -10   13.54    3.01
  14  30  12    3.91    2.33
  14  30 -12    0.21    1.67
  14 -30 -12    0.17    2.25
  14  32   0   15.40    3.50
  14 -32   0   12.75    3.17
  14  32  -2    4.43    1.69
  14  32   2   15.22    3.01
  14 -32  -2   11.04    2.61
  14 -32   2   10.30    2.61
  15   1  -1   69.00   12.51
  15  -1  -1   76.96   12.70
  15  -1  -1   64.47    7.58
  15   1  -1   77.64    8.85
  15  -1   1   64.52    7.66
  15   1   1   70.18    8.10
  15   1  -3    0.35    3.26
  15  -1  -3    2.00    4.07
  15  -1  -3    3.05    2.65
  15   1  -3    0.35    2.53
  15  -1   3    2.26    2.10
  15   1   3    1.09    2.98
  15   1   5   16.05    5.90
  15   1  -5   21.57    9.56
  15  -1  -5   13.77    8.82
  15  -1  -5    9.88    4.43
  15   1  -5   12.50    4.79
  15  -1   5   13.48    5.07
  15   1   5   12.90    5.27
  15   1   7   25.89    6.43
 -15   1  -7   25.65   11.13
 -15  -1  -7   26.64   11.78
  15   1  -7   17.88    8.64
  15  -1  -7   25.86   10.10
  15  -1  -7   21.37    5.26
  15   1  -7   19.13    5.40
  15  -1   7   24.16    5.89
  15   1   7   28.08    6.32
  15   1   9    2.13    4.10
 -15   1  -9    0.06    4.94
 -15  -1  -9    0.73    6.77
  15   1  -9    1.39    4.35
  15  -1  -9    1.23    5.49
  15  -1  -9    1.49    3.18
  15   1  -9    0.05    2.41
  15  -1   9    0.32    2.66
  15   1   9    1.18    2.77
  15   1  11    0.19    4.05
 -15   1 -11    0.08    6.41
 -15  -1 -11    0.19    8.71
  15   1 -11    4.89    4.46
  15  -1 -11    2.72    4.37
  15  -1 -11    0.07    3.07
  15   1 -11    0.06    2.77
  15  -1  11    0.08    4.10
  15   1  11    0.19    3.17
  15  -1  11    0.08    4.07
  15   1  13    0.23    5.93
  15   1 -13    0.54    4.77
 -15   1 -13    3.62    8.72
 -15  -1 -13    8.96    7.58
  15  -1 -13    0.89    6.70
  15  -1 -13    1.88    2.65
  15   1 -13    0.54    2.45
  15  -1  13    1.25    3.09
  15   1  13    2.21    3.10
  15  -1  13    1.54    6.05
  15   1  15   21.39   10.65
  15   1 -15   36.20   12.71
 -15   1 -15   36.76   13.91
 -15  -1 -15   54.26   16.02
  15  -1 -15   31.45   11.90
  15  -1 -15   46.40    7.83
  15   1 -15   46.34    8.24
  15  -1  15   49.12    9.41
  15   1  15   48.85    9.58
  15  -1  15   37.49   12.63
  15   1  17    0.75    4.48
  15   1 -17    2.16    3.58
  15  -1 -17    6.71    4.80
  15  -1  17   12.40    5.13
  15   1  17   17.56    5.48
  15  -1  17    4.04    6.04
  15  -1  19   18.85    6.67
  15   1  19   23.11    7.13
  15  -1  21   16.13    5.70
  15   1  21   21.76    6.32
  15  -1  23   35.82    6.69
  15   1  23   19.79    6.17
  15  -1  25    0.99    4.77
  15   1  25    6.31    3.65
  15  -1  27   43.10    6.40
  15   1  27   53.11    7.23
  15   1 -27   41.71    4.71
  15  -1  29   26.41    5.52
  15   1  29   17.43    4.85
  15   1 -29   17.43    3.21
  15  -1  31    1.92    2.75
  15   1  31    0.40    2.48
  15   1 -31    0.57    1.31
  15   3  -1   35.12    8.88
  15  -3  -1   24.68    7.39
  15   3  -1   30.83    5.56
  15   3   1   27.96    5.13
  15   3  -3    9.51    4.02
  15  -3  -3    8.82    6.20
  15  -3  -3    0.97    2.14
  15   3  -3    3.15    2.40
  15  -3   3   11.72    2.89
  15   3   3    6.07    2.39
  15   3   5   37.33    7.04
  15   3  -5   26.28    8.19
  15  -3  -5   34.19   10.22
  15  -3  -5   36.08    5.57
  15   3   5   46.37    7.10
  15   3  -5   33.67    5.87
  15  -3   5   32.95    5.17
  15   3   7   36.01    7.04
 -15   3  -7   37.20   11.05
  15   3  -7   29.71    8.72
 -15  -3  -7   52.09   12.79
  15  -3  -7   32.25    9.68
  15  -3  -7   34.46    5.68
  15   3  -7   34.31    6.15
  15  -3   7   37.06    6.14
  15   3   7   44.46    7.39
  15   3   9    0.41    3.04
  15   3   9   13.79    4.29
  15   3  -9   10.87    5.58
 -15   3  -9    1.76    6.81
 -15  -3  -9    5.94    6.43
  15  -3  -9   13.54    7.12
  15  -3  -9    1.93    2.25
  15   3  -9    5.37    2.58
  15  -3   9    4.75    3.08
  15   3   9    6.88    3.83
  15   3  11    5.78    4.15
  15   3  11    0.09    3.64
  15   3 -11    2.33    4.04
 -15   3 -11    6.24    6.46
 -15  -3 -11    0.09    7.56
  15  -3 -11    5.81    4.50
  15  -3 -11    0.38    2.99
  15   3 -11    1.46    2.62
  15  -3  11    3.14    2.93
  15   3  11    0.65    3.45
  15   3  13    8.53    4.54
  15   3  13    7.86    2.85
  15   3 -13   24.39    7.34
 -15   3 -13   14.60    5.76
 -15  -3 -13   20.86    9.04
  15  -3 -13   10.28    5.13
  15  -3 -13   17.10    3.43
  15   3 -13    5.88    2.75
  15  -3  13   15.04    4.05
  15   3  13   15.85    4.24
  15  -3  13   10.25    4.10
  15   3  15    2.09    3.96
  15   3 -15    3.98    6.30
 -15   3 -15    4.07    7.81
 -15  -3 -15   10.10    8.29
  15  -3 -15    4.19    7.82
  15   3 -15    4.88    4.11
  15  -3  15    4.74    4.55
  15   3  15   12.31    5.99
  15  -3  15    3.87    6.87
  15  -3  17    0.81    5.61
  15   3  17    2.02    5.42
  15  -3  19    6.40    4.39
  15   3  19    4.85    5.00
  15  -3  21   41.34    8.19
  15   3  21   60.90    9.47
  15  -3  23   14.44    4.62
  15   3  23   10.54    4.85
  15  -3  25    0.02    3.68
  15   3  25    0.67    3.68
  15   3 -25    0.15    2.24
  15  -3  27   26.68    5.95
  15   3  27   30.18    6.53
  15   3 -27   11.49    3.08
  15  -3  29   29.93    4.90
  15   3 -29   30.65    3.96
  15  -3  31    0.14    2.13
  15   3  31    0.40    2.56
  15   3 -31    0.11    3.08
  15   5  -1   23.11    9.67
  15  -5  -1   26.48    9.58
  15   5  -1   23.54    5.76
  15   5   1   28.11    6.11
  15   5   3    7.56    4.48
  15   5  -3    3.46    5.23
  15  -5  -3    1.84    5.69
  15   5  -3    1.48    2.11
  15   5   3    1.64    2.51
  15   5   5   37.03    6.61
  15   5  -5   35.72    8.89
 -15  -5  -5   48.09   12.42
  15  -5  -5   36.19    9.53
  15   5  -5   41.98    6.53
  15  -5  -5   25.66    4.67
  15   5   5   38.58    6.37
  15   5   7   42.46    8.04
 -15   5  -7   39.21   11.89
  15   5  -7   23.22    8.30
 -15  -5  -7   48.69   12.96
  15  -5  -7   39.13   11.07
  15   5  -7   36.65    6.53
  15   5   7   48.87    7.75
  15  -5  -7   25.25    5.26
  15  -5   7   31.58    5.79
  15   5   9   23.90    6.02
  15   5  -9   15.18    6.59
 -15   5  -9   32.97   11.29
 -15  -5  -9   31.92   12.00
  15   5   9   11.81    6.69
  15  -5  -9   16.44    8.78
  15  -5  -9   14.45    3.75
  15   5  -9   27.45    5.75
  15  -5   9   19.58    4.74
  15   5   9   30.50    6.79
  15   5  11   13.19    5.56
  15   5  11    9.47    6.59
  15   5 -11   11.13    7.68
 -15   5 -11   12.07    8.81
 -15  -5 -11   14.69    8.48
  15  -5 -11    8.41    9.33
  15  -5 -11    7.18    4.06
  15   5 -11    5.99    4.03
  15  -5  11    7.91    4.76
  15   5  11   11.77    5.21
  15   5  13   74.09    8.52
  15   5  13   48.14    9.65
  15   5 -13   68.63   11.80
 -15   5 -13   78.40   13.62
 -15  -5 -13   64.80   12.28
  15  -5 -13   61.08   11.80
  15   5 -13   77.42    7.27
  15  -5  13   71.17    7.90
  15   5  13   77.38    8.71
  15  -5  13   51.72    9.77
  15   5  15    1.14    3.09
  15   5  15    0.31    4.38
  15   5 -15    2.06    4.57
 -15   5 -15    0.51    7.47
 -15  -5 -15    0.31    9.15
  15  -5 -15    7.65    5.83
  15   5 -15   12.42    4.74
  15  -5  15    0.75    3.66
  15   5  15    0.31    4.39
  15  -5  15    0.51    9.03
  15   5  17    0.25    3.15
  15  -5  17    0.11    3.29
  15   5  17    0.46    3.79
  15  -5  19    0.70    3.30
  15   5  19    2.84    5.03
  15  -5  21   55.74    8.88
  15   5  21   61.55    9.96
  15  -5  23    5.09    3.09
  15   5 -23    8.92    2.22
  15  -5  25    3.77    4.63
  15   5  25    0.67    4.04
  15   5 -25    0.63    2.33
  15  -5  27    4.78    2.75
  15   5  27   19.63    4.44
  15   5 -27   20.97    3.23
  15  -5  29   18.61    4.14
  15   5  29   25.79    5.66
  15   5 -29   20.58    3.81
  15  -5  31    0.83    2.39
  15   5  31    2.63    3.35
  15   5 -31    0.91    1.33
  15   7  -1   36.52    8.27
  15   7  -1   41.22    6.11
  15   7   1   43.18    6.30
  15   7  -3    0.05    5.17
 -15  -7  -3   10.64    7.24
  15   7   3    0.13    3.00
  15  -7  -3    4.80    4.32
  15   7  -3    3.34    2.45
  15   7   3    0.13    3.26
  15   7  -5    7.88    5.85
  15   7   5    4.69    3.51
 -15  -7  -5    3.23    5.83
  15  -7  -5    3.03    3.81
  15   7  -5    4.03    3.17
  15   7   5    5.31    3.50
 -15   7  -7   53.35   12.72
  15   7   7   43.91    6.89
  15   7  -7   36.68    9.34
 -15  -7  -7   60.71   13.51
  15   7  -7   47.04    6.53
  15  -7  -7   47.17   10.08
  15   7   7   51.36    7.10
  15   7   9   17.03    3.26
  15   7  -9   11.95    5.86
 -15   7  -9   25.11    6.85
 -15  -7  -9   13.11    4.98
  15  -7  -9   10.52    4.15
  15   7  -9   24.51    3.19
  15   7   9   10.38    3.30
  15   7   9   16.70    3.49
  15   7  11   37.34    7.16
  15   7 -11   23.99    8.23
 -15   7 -11   40.77   11.80
 -15  -7 -11   32.38   11.04
  15  -7 -11   27.05    8.32
  15   7  11   24.46    7.70
  15   7 -11   28.83    5.39
  15   7  11   43.89    7.59
  15   7  13   59.53    8.72
  15   7 -13   39.89    9.40
 -15   7 -13   76.00   15.93
 -15  -7 -13   43.84   13.04
  15   7  13   13.55    4.83
  15   7 -13   52.71    7.12
  15  -7 -13   41.03   11.25
  15   7  13   67.04    8.99
  15   7  15   21.81    5.96
  15   7 -15   16.23    6.88
 -15   7 -15   13.19    8.32
 -15  -7 -15   10.34    8.80
  15   7  15   17.40    9.51
  15  -7 -15    8.57    6.93
  15   7 -15   12.99    5.08
  15   7  15   19.84    6.26
  15   7  17    2.40    3.07
  15  -7  17    0.35    3.75
  15   7  17    6.54    5.10
  15   7  19   12.06    3.48
  15  -7  19   14.01    4.16
  15   7  19    9.18    4.07
  15  -7  21    5.38    3.70
  15   7 -21   10.57    3.61
  15  -7  23   21.77    5.08
  15   7  23   26.45    6.39
  15   7 -23   15.29    3.87
  15  -7  25    0.27    3.24
  15   7  25    1.91    4.33
  15   7 -25    1.35    2.47
  15  -7  27    1.58    3.22
  15   7  27   14.41    4.20
  15   7 -27    6.36    2.03
  15   7  29    6.14    3.35
  15   7 -29    2.59    1.65
  15   7  31    4.56    3.36
  15   7 -31    0.34    1.36
  15   9   1   17.56    5.37
  15   9  -1   10.22    4.63
  15   9   1   10.74    4.64
  15   9   3    0.43    2.66
  15  -9  -3    1.56    3.37
  15   9  -3    0.16    3.12
  15   9   3    0.47    3.37
  15   9  -5    6.55    6.53
  15   9   5   15.73    6.15
  15  -9  -5    4.72    6.92
  15   9  -5   10.86    4.83
  15   9   5   10.35    4.98
  15   9  -7   29.05    9.38
  15   9   7   35.77    7.21
 -15   9  -7   41.49   13.28
  15   9  -7   44.15    7.24
  15  -9  -7   25.72   10.19
  15   9   7   39.06    7.38
  15   9  -9    1.61    4.74
  15   9   9    4.16    3.27
 -15   9  -9    8.06    6.73
  15  -9  -9    8.07    5.12
  15   9  -9    0.25    3.09
  15   9   9    1.73    3.06
  15   9   9    0.11    4.64
  15   9 -11    5.08    8.32
  15   9  11    4.51    5.27
 -15   9 -11   14.00   11.02
  15  -9 -11   10.54   10.25
  15   9 -11    7.66    5.19
  15   9  11   10.03    6.07
  15   9  11    0.42    5.15
  15   9 -13   42.12    9.78
  15   9  13   36.27    5.61
 -15   9 -13   28.81    6.86
  15  -9 -13   13.34    6.04
  15   9 -13   38.53    5.96
  15   9  13   26.50    6.96
  15   9  13   36.55    5.80
  15   9  15   45.07    7.93
  15   9 -15   59.02    7.95
  15   9  15   64.75    9.77
  15   9  17    1.81    5.22
  15   9  17    0.82    4.32
  15   9  19   39.36    7.13
  15   9 -19   29.95    5.53
  15   9  21   13.00    5.38
  15   9 -21   16.97    4.63
  15   9  23    5.26    4.80
  15   9 -23    1.46    2.43
  15   9  25    4.44    4.52
  15   9 -25    0.25    2.05
  15   9  27    3.74    3.21
  15   9 -27    0.66    2.53
  15   9  29    3.16    3.23
  15   9 -29    1.89    1.54
  15   9  31    9.53    3.94
  15   9 -31    0.48    1.37
  15  11   1    1.48    3.21
  15  11  -1    0.03    3.23
  15  11   1    0.02    3.16
  15  11   3    0.73    2.78
  15 -11  -3    4.24    6.01
  15  11  -3    2.53    2.66
  15  11   3    0.30    3.24
 -15 -11   5   26.53   10.76
  15  11   5   11.26    4.46
  15 -11  -5   12.39    5.79
  15  11  -5    4.47    3.12
  15  11   5   10.39    3.90
 -15 -11   7   17.92    9.85
  15  11   7   30.85    6.77
 -15  11  -7   31.79   11.82
  15 -11  -7   15.42    7.99
  15  11  -7   22.60    6.37
  15  11   7   34.75    7.15
 -15 -11   9    2.50    6.07
  15  11   9   10.66    5.52
 -15  11  -9    5.87    8.40
  15 -11  -9    9.36    8.40
  15  11  -9    8.27    5.35
  15  11   9    5.37    5.10
  15 -11  -9    9.17    4.24
  15  11   9    4.21    5.08
  15  11  11    0.91    2.99
 -15  11 -11    6.18    8.05
  15 -11 -11    0.34    5.76
  15  11 -11    0.82    3.27
  15  11  11    0.49    3.56
  15 -11 -11    1.00    2.92
  15  11  11    0.49    4.53
  15  11  13   26.31    5.43
  15  11 -13   16.36    4.51
  15  11  13   17.97    5.30
  15 -11 -13   14.10    3.61
  15  11  15   93.60   11.65
  15  11 -15   99.65   11.04
  15  11  15   95.94   12.59
  15 -11 -15   81.56    9.25
  15  11  17    5.22    4.45
  15  11  17    0.20    3.95
  15 -11 -17    0.22    2.30
  15  11  19   54.10    8.94
  15  11 -19   50.58    6.91
  15  11  21   27.47    6.53
  15  11  21   32.02    7.91
  15  11 -21   16.49    4.26
  15  11  23    0.41    5.25
  15  11 -23    0.92    2.23
  15  11  25   14.62    5.15
  15  11 -25    1.88    2.21
  15  11  27    6.07    3.62
  15  11 -27    5.40    2.07
  15  11  29    0.07    3.65
  15  11 -29    0.27    1.97
 -15 -13  -1    0.05    5.95
 -15 -13   1    0.10    8.43
  15  13   1    0.05    2.67
  15  13  -1    3.50    3.50
  15  13   1    1.36    2.97
 -15 -13  -3    3.20    6.09
 -15 -13   3    4.08    5.08
  15  13   3   17.17    4.90
  15  13  -3    7.74    3.80
  15  13   3    5.19    3.81
 -15 -13  -5    0.67    9.22
 -15 -13   5    5.32    6.33
 -15  13  -5    4.94    5.91
  15  13   5   18.07    5.84
  15 -13  -5   10.33    8.36
  15  13  -5    4.10    4.20
  15  13   5    1.63    3.26
 -15 -13  -7    3.94    5.98
 -15 -13   7    8.20    7.68
  15  13   7   17.39    5.95
 -15  13  -7   21.00    9.88
  15 -13  -7   20.96    9.64
  15  13  -7    8.30    5.10
  15  13   7   10.32    4.95
  15  13   9   37.94    8.56
 -15 -13  -9    9.98    7.58
 -15 -13   9   28.71    9.11
  15  13   9   34.05    5.56
 -15  13  -9   39.18    9.33
  15 -13  -9   47.89   11.04
  15  13  -9   36.17    5.90
  15  13   9   30.71    5.32
  15 -13  -9   31.01    4.76
  15  13  11    3.74    3.33
  15  13 -11    4.50    2.76
  15  13  11    4.03    2.97
  15 -13 -11    6.24    2.90
  15  13  13   78.70    8.29
  15  13 -13   73.62    8.24
  15  13  13   72.98    8.18
  15 -13 -13   65.75    6.73
  15  13  15   40.74    7.13
  15  13 -15   33.91    6.54
  15  13  15   36.72    6.54
  15 -13 -15   37.31    5.53
  15  13  17    2.11    3.90
  15  13  17    2.58    4.18
  15 -13 -17    4.70    2.31
  15  13 -17    0.49    2.69
  15  13  19   27.62    5.93
  15  13  19   32.44    6.36
  15 -13 -19   27.74    4.59
  15  13 -19   22.67    4.14
  15  13  21   43.22    7.56
  15  13 -21   49.45    6.05
  15 -13 -21   36.61    5.36
  15  13  23    0.35    4.06
  15 -13 -23    0.05    1.78
  15  13 -23    0.03    2.02
  15  13  25    7.75    3.21
  15  13 -25    1.45    2.06
  15  13  27   17.85    4.55
  15  13 -27   12.32    2.91
  15  13  29    4.52    2.44
  15  13 -29    4.56    1.84
 -15 -15   1   19.67    8.72
  15  15   1   10.96    4.17
  15  15  -1   16.74    4.81
  15  15  -1   23.07    5.47
  15  15   1    9.21    3.99
 -15 -15  -3    5.49    6.41
 -15 -15   3    0.38    7.50
  15  15   3    9.65    5.01
  15  15  -3    1.47    3.23
  15  15   3    5.22    3.83
 -15 -15  -5    9.08    6.26
 -15 -15   5    8.39    8.22
  15  15   5    9.17    4.13
 -15  15  -5    8.03    5.62
  15 -15  -5    0.78    5.32
  15  15  -5    4.73    2.82
  15  15   5   14.74    3.65
 -15 -15  -7    6.05    8.37
 -15 -15   7   20.31   10.39
  15  15   7   35.44    7.63
 -15  15  -7   21.97    9.34
  15 -15  -7   34.42   11.67
  15  15  -7   30.31    6.46
  15  15   7   30.47    6.50
  15  15   9   58.76    8.51
  15  15  -9   59.27    7.76
  15  15   9   50.02    7.22
  15 -15  -9   43.00    6.49
  15  15  11    3.36    3.16
  15  15 -11    0.55    2.93
  15  15  11    1.02    3.22
  15 -15 -11    5.36    3.84
  15  15  13   57.70    8.99
  15  15 -13   63.48    8.74
  15  15  13   60.82    8.73
  15 -15 -13   46.60    7.06
  15  15  15   32.11    7.20
  15  15  15   36.37    6.91
  15 -15 -15   25.12    5.61
  15  15 -15   21.22    5.07
  15  15  17    0.85    4.85
  15  15  17    3.58    4.14
  15 -15 -17    0.72    2.40
  15  15 -17    0.10    3.09
  15 -15 -17    2.89    2.69
  15  15  19   11.31    4.78
  15  15  19    3.73    3.52
  15 -15 -19   10.75    3.29
  15  15 -19   10.61    3.38
  15 -15 -19    4.45    2.31
  15  15  21   32.96    6.75
  15  15  21   33.65    6.60
  15 -15 -21   25.56    4.54
  15  15 -21   19.84    4.43
  15 -15 -21   24.37    4.22
  15  15  23    7.76    3.81
  15  15  23   11.80    3.89
  15 -15 -23    2.44    1.86
  15  15 -23    3.89    2.33
  15  15  25   11.23    3.98
  15 -15 -25    2.35    1.58
  15  15 -25    7.38    2.76
  15  15  27   20.50    3.68
  15  15 -27   20.22    2.88
  15  17   1   15.83    5.27
  15  17  -1   25.76    6.18
  15  17  -1   25.47    6.43
  15  17   1   22.92    5.75
  15  17   3    5.58    3.45
  15  17  -3   10.66    4.34
  15  17   3   14.36    4.62
  15  17   5    0.19    3.33
  15  17  -5    0.21    3.68
  15  17   5    0.18    3.30
  15  17   7   31.66    7.92
  15  17  -7   28.87    7.54
  15  17   7   27.92    7.10
  15  17   9   36.77    7.02
  15  17  -9   27.08    5.78
  15  17   9   28.82    5.53
  15 -17  -9   21.32    5.33
  15  17  11    5.59    3.91
  15  17 -11    7.97    4.21
  15  17  11    9.33    3.65
  15 -17 -11   10.62    4.11
  15  17  13   28.77    6.76
  15  17 -13   16.38    5.04
  15  17  13   34.58    6.93
  15  17 -13   14.15    4.09
  15 -17 -13   22.47    5.37
  15  17  15   18.00    5.07
  15  17  15   25.47    5.03
  15  17 -15   12.98    3.82
  15 -17 -15   27.64    5.18
  15  17  17    0.59    3.39
  15  17  17    0.98    2.75
  15 -17 -17    0.47    3.03
  15  17 -17    0.58    2.33
  15 -17 -17    0.47    3.07
  15  17  19    9.25    4.29
  15  17  19    2.10    2.80
  15 -17 -19    5.33    3.18
  15  17 -19    3.61    2.53
  15 -17 -19    2.72    2.10
  15  17  21   29.82    6.63
  15  17  21   33.33    5.71
  15 -17 -21   12.37    3.12
  15  17 -21   23.25    4.09
  15 -17 -21   14.21    3.38
  15  17  23    8.59    4.00
  15  17  23    7.20    2.97
  15 -17 -23    5.63    2.36
  15  17 -23    2.57    1.83
  15 -17 -23    1.49    1.70
  15  17  25    4.16    2.08
  15 -17 -25    4.79    1.91
  15  17 -25    5.45    2.05
  15  17  27    5.43    2.50
  15  17 -27   15.08    2.84
  15  19   1   35.24    6.71
  15  19  -1   44.41    7.05
  15  19  -1   39.39    6.96
  15  19   1   30.47    6.11
  15  19   3    3.82    3.75
  15  19  -3    0.02    3.49
  15  19   3    0.96    2.52
  15  19   5   19.18    4.95
  15  19  -5   17.78    4.81
  15  19   5   12.50    4.16
  15  19   7   27.23    6.48
  15  19  -7   24.13    6.21
  15  19   7   20.93    5.42
  15  19   9    8.87    5.15
  15  19  -9    1.21    3.38
  15  19   9    3.79    3.39
  15 -19  -9    1.35    3.35
  15  19  11    3.61    4.41
  15  19 -11    3.03    3.73
  15  19  11    1.02    2.81
  15  19 -11    0.79    2.59
  15 -19 -11    1.15    4.02
  15  19  13    9.64    4.63
  15  19  13   15.75    3.43
  15  19 -13    5.37    2.44
  15 -19 -13    0.92    2.81
  15  19  15   13.13    3.55
  15  19  15   16.37    3.64
  15  19 -15   12.64    2.24
  15 -19 -15   12.66    3.03
  15  19  17    1.24    4.31
  15  19  17    0.79    2.37
  15  19 -17    0.31    2.76
  15 -19 -17    0.38    3.30
  15 -19 -17    0.38    2.75
  15  19  19   10.61    4.13
  15  19  19   15.68    3.68
  15  19 -19   18.10    3.74
  15 -19 -19    5.69    2.30
  15 -19 -19    8.19    2.43
  15  19  21   12.35    4.68
  15  19  21    8.91    3.49
  15 -19 -21    7.45    2.73
  15  19 -21   12.04    3.45
  15 -19 -21    8.31    2.82
 -15  19 -23    8.77    2.81
  15  19  23    1.04    3.00
  15  19  23    6.76    2.39
  15 -19 -23    3.44    1.70
  15  19 -23    5.55    1.94
  15 -19 -23    7.40    1.88
 -15  19 -25    0.37    2.14
  15  19  25    3.88    1.87
  15 -19 -25    0.50    1.46
  15  19 -25    2.53    1.70
  15 -19 -25    0.50    1.58
  15  21  -1   54.99    7.11
  15  21   1   36.32    6.09
  15  21  -1   44.10    5.77
  15  21   1   34.25    5.45
  15  21   3    0.01    3.68
  15  21  -3    4.12    4.34
  15  21  -3    0.01    2.75
  15  21   3    0.02    2.85
  15  21  -5   56.88    7.15
  15  21   5   45.19    6.06
  15  21   7   21.78    5.77
  15  21  -7    9.43    3.88
  15  21   7    8.12    3.62
  15 -21  -7   11.93    4.74
  15  21   9    0.43    3.25
  15  21  -9    0.02    2.38
  15  21   9    0.10    2.43
  15  21  -9    0.02    3.11
  15 -21  -9    0.03    4.03
  15  21  11    0.23    3.36
  15  21  11    0.23    2.18
  15  21 -11    0.63    2.76
  15 -21 -11    4.83    3.52
  15  21  13   10.30    4.80
  15  21  13   10.17    3.71
  15  21 -13   12.72    4.31
  15 -21 -13    6.12    3.54
  15  21  15    3.18    3.56
  15  21  15    0.93    2.69
  15  21 -15    3.52    2.23
  15 -21 -15    5.41    3.38
  15  21  17    3.57    3.23
  15  21  17    0.28    2.10
  15  21 -17    0.02    3.12
  15 -21 -17    0.11    3.96
  15 -21 -17    0.11    2.45
  15  21  19   12.23    4.58
  15  21  19   12.42    3.65
  15  21 -19   12.76    3.24
  15 -21 -19   10.87    3.31
  15 -21 -19   13.36    3.28
  15  21  21    5.36    3.20
  15  21 -21   12.62    2.91
  15 -21 -21   17.36    3.24
  15 -21 -21   16.93    3.12
  15  21 -23    0.46    1.49
  15 -21 -23    4.72    1.58
  15 -21 -23    2.82    1.54
  15  23   1   26.12    5.86
  15  23  -1   26.75    5.85
  15  23   3    0.58    4.09
  15  23  -3    0.41    2.39
  15  23   5   39.01    7.24
  15 -23  -5   35.49    6.63
  15  23   7   26.82    6.16
  15  23  -7   16.99    5.04
  15 -23  -7   23.03    5.71
  15  23   9    0.00    3.77
  15  23  -9    0.04    2.97
  15 -23  -9    0.02    3.41
  15  23  11    2.48    3.22
  15  23 -11    3.26    3.17
  15 -23 -11    5.00    3.72
  15  23  13    1.10    4.25
  15  23 -13   12.76    2.75
  15 -23 -13    3.71    3.09
  15  23  15    0.33    3.16
  15  23 -15    0.19    2.24
  15 -23 -15    2.65    2.70
  15  23  17    0.57    3.35
  15  23 -17    0.46    2.33
  15 -23 -17    0.40    3.14
  15 -23 -17    0.40    2.11
  15  23  19   11.94    4.34
  15  23 -19   10.56    2.94
  15 -23 -19   11.82    3.38
  15 -23 -19    5.54    2.41
  15  23  21   13.92    3.88
  15  23 -21   10.22    2.58
  15 -23 -21    4.36    1.94
  15 -23 -21    9.69    2.44
  15  25   1   18.44    4.80
  15  25  -1   10.58    3.73
  15  25   3    2.47    3.56
  15  25  -3    2.13    2.96
  15 -25  -3    2.22    3.42
  15  25   5    9.69    4.14
  15  25  -5   11.99    3.51
  15 -25  -5    8.89    3.58
  15  25   7   34.69    6.61
  15  25  -7   24.29    4.90
  15 -25  -7   28.22    6.14
  15  25   9    0.74    3.75
  15  25  -9    0.91    2.55
  15 -25  -9    0.85    3.15
  15  25  11    7.16    3.68
  15  25 -11   10.75    3.41
  15 -25 -11    9.17    3.69
  15  25  13    6.65    2.81
  15  25 -13    0.12    2.83
  15 -25 -13    1.12    2.65
  15  25  15    0.41    3.21
  15  25 -15    0.46    2.43
  15 -25 -15    1.30    1.98
  15 -25 -15    0.39    2.22
  15  25  17    0.13    3.03
  15  25 -17    0.16    1.75
  15 -25 -17    0.24    1.82
  15 -25 -17    1.09    1.79
  15  25  19    3.45    2.48
  15  25 -19    3.89    1.98
  15 -25 -19    1.09    1.60
  15 -25 -19    1.38    1.42
  15  27  -1    7.00    2.56
  15 -27  -1   14.51    3.61
  15  27   3    2.78    3.33
  15  27  -3    0.01    3.23
  15 -27  -3    0.77    2.69
  15  27   5    9.61    3.65
  15  27  -5    5.77    2.36
  15 -27  -5    7.30    3.34
  15  27  -7    7.21    2.55
  15 -27  -7    8.30    3.00
  15  27   9    4.41    3.14
  15  27  -9   12.90    3.49
  15 -27  -9   13.42    3.77
  15  27  11    0.06    2.94
  15  27 -11    3.42    2.26
  15 -27 -11    0.05    2.31
  15  27  13   12.85    3.80
  15  27 -13   11.84    3.05
  15 -27 -13    4.77    2.45
  15  27  15    2.86    2.40
  15  27 -15    2.26    1.67
  15 -27 -15    4.39    1.67
  15 -27 -15    1.17    1.62
  15  29  -1    9.30    3.46
  15  29   1   11.75    4.09
  15 -29  -1   10.33    3.97
  15 -29   1   11.78    3.89
  15  29   3    0.01    2.36
  15 -29  -3    0.11    2.23
  15 -29   3    0.11    2.25
  15  29   5    5.41    2.93
  15  29  -5    0.09    1.91
  15 -29  -5    3.62    2.50
  15  29  -7   10.64    2.70
  15 -29  -7    9.73    3.07
  15  29   9    4.00    2.77
  15  29  -9    3.46    1.75
  15 -29  -9   10.91    2.91
  15  29  11    0.35    2.45
  15  29 -11    0.22    1.45
  15 -29 -11    0.57    1.78
  15  31  -1    4.55    1.61
  15  31   1    0.29    2.43
  15 -31   1    6.45    1.99
  16   0   0   61.82   11.67
  16   0  -2    1.53    3.53
  16   0  -2    3.56    2.82
  16   0   2    6.92    3.43
  16   0  -4   52.90    8.21
  16   0   4   58.06    8.48
  16   0  -6   81.98   15.50
 -16   0  -6   97.32   18.15
  16   0  -6   85.04    9.31
  16   0   6   98.96   10.40
 -16   0  -8   69.81   18.11
  16   0  -8   38.49   13.47
  16   0  -8   53.68    8.78
  16   0   8   59.08    9.83
 -16   0 -10    9.16    5.93
  16   0 -10    3.00    4.90
  16   0 -10    8.46    3.12
  16   0  10   17.18    4.63
  16   0 -12    6.01    7.28
 -16   0 -12    5.54    6.81
  16   0 -12    4.02    2.30
  16   0  12    5.76    4.41
  16   0 -14   30.63   10.94
 -16   0 -14   45.01   13.37
  16   0 -14   47.33    7.61
  16   0  16  113.70   14.69
  16   0  18  109.87   12.18
  16   0  20   34.25    8.68
  16   0  22  128.97   12.49
  16   0  24   23.18    5.60
  16   0  26    0.19    3.12
  16   0  28    1.65    4.04
  16   0  30    0.03    2.16
  16  -2   0   33.20    3.03
  16   2   0   27.30    3.14
  16   2  -2    3.31    5.43
  16  -2  -2    3.96    5.31
  16  -2  -2    5.17    3.73
  16   2  -2    1.13    2.89
  16  -2   2    2.52    3.27
  16   2   2    0.97    3.08
  16   2  -4   12.39    8.13
  16  -2  -4   19.57    9.95
  16  -2  -4   19.15    4.41
  16   2  -4   28.84    5.96
  16  -2   4   29.55    5.52
  16   2   4   24.64    5.70
  16   2  -6   96.51   16.85
  16  -2  -6   82.45   15.95
  16   2   6  102.82   12.53
 -16   2  -6  120.69   20.60
 -16  -2  -6  119.40   20.74
  16  -2  -6   83.86    9.40
  16   2  -6  100.45   10.26
  16  -2   6   94.75   10.41
  16   2   6  109.69   11.27
  16   2  -8   38.08   10.26
 -16   2  -8   43.61   10.71
 -16  -2  -8   50.20   12.17
  16  -2  -8   41.14   10.28
  16  -2  -8   40.42    5.69
  16   2  -8   40.97    5.70
  16  -2   8   46.97    6.54
  16   2   8   40.65    6.68
  16   2 -10    1.08    4.31
 -16   2 -10    5.93    7.60
 -16  -2 -10    9.71    6.67
  16  -2 -10    6.28    7.52
  16  -2 -10    4.20    2.75
  16   2 -10    4.57    2.58
  16  -2  10    5.34    2.80
  16   2  10   15.19    4.65
  16   2 -12    4.45    5.10
 -16   2 -12    4.06    6.24
 -16  -2 -12   12.07    7.41
  16  -2 -12    9.54    4.16
  16  -2 -12   10.33    4.03
  16   2 -12    8.36    3.71
  16  -2  12   17.91    5.50
  16   2  12   17.73    5.45
  16   2 -14   10.18    4.94
 -16  -2 -14   22.71    7.53
  16  -2 -14    4.24    3.72
  16  -2 -14    8.77    3.21
  16   2 -14   11.08    3.18
  16  -2  14   17.70    4.62
  16   2  14   19.98    4.69
  16  -2  16    6.28    5.06
  16   2  16   14.69    6.47
  16  -2  18    0.35    3.06
  16   2  18    0.04    3.91
  16  -2  20   85.22   11.23
  16   2  20   98.45   12.97
  16  -2  22   66.80    9.46
  16   2  22   65.98   10.49
  16  -2  24   34.22    5.22
  16   2  24   27.76    5.40
  16  -2  26    0.23    3.01
  16   2  26    0.32    3.68
  16  -2  28    9.61    3.33
  16   2  28    5.70    3.66
  16  -2  30    0.69    2.26
  16   2  30    0.53    2.18
  16  -4   0    2.06    2.58
  16   4   0   14.53    3.26
  16   4  -2    6.98    5.12
  16  -4  -2    6.70    3.19
  16   4  -2    9.93    4.17
  16  -4   2    7.26    3.19
  16   4   2   10.16    3.64
  16   4   4    7.76    3.39
 -16  -4  -4    3.23    6.35
  16   4  -4    6.01    3.41
  16  -4  -4    9.02    4.37
  16  -4  -4    6.74    3.01
  16   4  -4    6.17    2.99
  16  -4   4    8.35    3.07
  16   4   4    6.53    2.51
  16   4   6   47.55    9.50
  16   4  -6   40.53   12.42
 -16  -4  -6   38.51   12.96
  16  -4  -6   34.62   11.97
  16  -4  -6   35.31    6.43
  16   4  -6   49.26    8.21
  16  -4   6   41.57    7.29
  16   4   6   46.90    8.54
  16   4   8   39.95    6.88
  16   4  -8   17.21    4.66
 -16   4  -8    7.38    5.73
 -16  -4  -8   24.63    7.52
  16  -4  -8   42.71    9.81
  16  -4  -8   23.55    4.01
  16   4  -8   24.97    4.12
  16  -4   8   23.05    4.12
  16   4   8   33.02    5.39
  16   4  10    6.74    5.32
  16   4 -10    5.72    5.47
 -16   4 -10   11.27    8.76
 -16  -4 -10    0.46    6.49
  16  -4 -10   18.69    8.44
  16  -4 -10    4.97    2.73
  16   4 -10    7.17    3.54
  16  -4  10    5.11    3.19
  16   4  10   10.03    3.60
  16   4  12   33.44    6.31
  16   4 -12   30.50    8.23
 -16   4 -12   36.05    9.79
 -16  -4 -12   29.61   10.36
  16  -4 -12   30.71    9.51
  16  -4 -12   36.98    5.42
  16   4 -12   31.82    5.32
  16  -4  12   39.25    6.36
  16   4  12   43.37    7.76
  16   4  14   16.73    6.23
  16   4 -14    9.20    6.56
 -16  -4 -14   17.28    9.43
  16  -4 -14    1.06    5.79
  16   4 -14   13.65    4.97
  16  -4  14   23.52    6.23
  16   4  14   24.34    7.35
  16  -4  16    9.43    5.49
  16   4  16   14.10    6.47
  16  -4  18    0.92    3.92
  16   4  18    0.39    4.78
  16  -4  20   15.42    4.39
  16   4  20   21.85    5.96
  16  -4  22   45.86    7.31
  16   4  22   32.60    7.83
  16  -4  24    8.52    4.19
  16   4  24   10.62    4.72
  16  -4  26    3.34    2.91
  16   4  26    1.12    4.05
  16  -4  28   25.22    4.73
  16   4  28   42.64    6.17
  16  -4  30    2.40    2.38
  16   4  30    4.39    3.57
  16   6   0   13.50    4.52
  16   6  -2   32.17    6.50
  16   6   2   43.88    7.46
  16   6   4    1.49    2.93
  16   6  -4    6.11    4.74
 -16  -6  -4    0.16    7.41
  16  -6  -4    0.17    6.32
  16   6  -4    2.37    2.56
  16   6   4    1.59    2.87
  16   6   6    4.13    3.29
  16   6  -6    5.67    5.02
 -16  -6  -6    8.15    6.42
  16  -6  -6    0.75    4.57
  16   6  -6    4.94    2.93
  16   6   6    2.41    2.67
  16   6   8   15.98    6.25
  16   6  -8   11.14    6.74
 -16   6  -8   10.98    8.06
 -16  -6  -8   18.78   10.65
  16  -6  -8    5.48    4.96
  16   6  -8    7.89    3.56
  16   6   8   16.96    5.45
  16   6  10   17.22    5.85
  16   6 -10   11.89    7.71
 -16   6 -10    7.80    7.96
 -16  -6 -10    5.18    6.44
  16  -6 -10   25.62    9.95
  16  -6 -10    5.47    4.13
  16   6 -10   16.95    5.15
  16  -6  10    9.23    4.58
  16   6  10   15.52    5.86
  16   6  12   93.23   10.71
  16   6 -12   56.35   12.22
 -16   6 -12   93.83   17.62
 -16  -6 -12   88.88   17.17
  16  -6 -12   77.00   14.89
  16   6 -12   98.16    9.23
  16  -6  12   98.31    9.56
  16   6  12  130.22   12.14
  16   6  14   24.14    6.43
  16   6 -14   28.27    5.35
  16  -6  14   23.25    6.07
  16   6  14   33.15    7.46
  16   6  16    3.71    4.37
  16   6 -16    5.02    4.27
  16  -6  16    2.80    3.69
  16   6  16    6.85    5.52
  16  -6  18    0.10    4.29
  16   6  18    0.13    4.12
  16  -6  20    5.27    3.22
  16   6  20    1.78    4.51
  16  -6  22    3.01    2.69
  16   6  22    6.98    4.05
  16  -6  24    0.83    3.05
  16   6  24    1.53    3.97
  16  -6  26   12.56    3.56
  16   6  26   25.57    5.60
  16  -6  28   16.58    3.31
  16   6  28   34.19    5.51
  16   6  30   22.84    5.40
  16   8   0  144.16   11.55
  16   8   2    5.34    3.84
  16   8  -2    2.36    2.94
  16   8   2    3.66    3.71
  16   8  -4   16.66    7.72
  16   8   4   11.11    4.23
  16  -8  -4    4.95    4.87
  16   8  -4   18.04    4.82
  16   8   4   14.87    4.62
  16   8  -6    0.30    7.13
 -16   8  -6    1.59    5.73
  16   8   6    0.89    3.61
  16  -8  -6    0.45    5.63
  16   8  -6    0.39    2.73
  16   8   6    4.63    3.23
  16   8  -8    6.45    6.64
  16   8   8    0.97    3.64
 -16   8  -8    0.85    8.75
  16  -8  -8    3.93    5.65
  16   8  -8    0.92    2.83
  16   8   8    0.97    3.62
  16   8  10   67.80   10.44
  16   8 -10   32.75   11.22
 -16   8 -10   68.48   17.62
  16  -8 -10   41.22   13.35
  16   8 -10   51.13    8.64
  16   8  10   61.59    9.60
  16   8  12   70.76    9.18
  16   8 -12   41.73   10.81
  16  -8 -12   54.73   11.97
  16   8 -12   72.53    8.32
  16   8  12   79.14   10.04
  16   8  14   74.37   10.30
  16   8 -14   61.48    8.19
  16   8  14   86.07   11.33
  16   8  16   67.22    9.60
  16   8  16   87.28   10.74
  16   8  18    0.65    4.17
  16   8  18    1.06    4.26
  16   8  20    4.66    4.50
  16   8  22    2.12    5.50
  16   8  24   11.24    5.60
  16   8  26   45.72    7.02
  16   8 -26   28.52    3.78
  16   8  28   24.83    5.88
  16   8  30    9.12    3.46
  16  10   0   38.94    7.20
  16  10   2   43.96    8.18
  16  10  -2   32.84    6.95
  16  10   2   38.02    7.70
  16  10   4    4.58    3.08
  16  10  -4    0.02    3.29
  16  10   4    0.94    2.86
 -16 -10   6    0.90    4.13
 -16  10  -6    0.70    6.29
  16  10   6    0.07    2.96
  16 -10  -6    0.35    4.55
  16  10  -6    0.62    3.07
  16  10   6    1.18    3.19
  16  10   8    6.09    3.61
 -16  10  -8    1.20    5.13
  16 -10  -8    2.59    5.09
  16  10  -8    1.87    4.57
  16  10   8    1.71    3.49
  16 -10  -8    1.27    3.00
  16  10 -10    4.49    5.78
  16  10  10    2.43    3.79
 -16  10 -10    2.14    8.12
  16 -10 -10    0.37    4.87
  16  10 -10    2.36    3.18
  16  10  10    3.94    4.13
  16  10  12   37.48    8.33
  16  10 -12   37.11    7.49
  16  10  12   29.85    8.01
  16  10  14  167.33   14.69
  16  10 -14  183.52   13.58
  16  10  14  179.94   15.97
  16  10  16   76.01   10.20
  16  10  16   78.71   10.75
  16  10  18    0.17    3.92
  16  10  18    0.14    3.71
  16  10  20    1.94    3.87
  16  10  20    3.23    4.40
  16  10  22    0.01    3.62
  16  10  24   27.76    5.90
  16  10 -24   16.35    3.14
  16  10  26   29.14    5.26
  16  10 -26   24.99    3.01
  16  10  28   13.64    4.39
  16  10 -28   10.46    2.41
 -16 -12   0    1.52    6.25
  16  12   0    7.63    3.59
 -16 -12   2   19.95    8.49
  16  12   2   35.56    6.34
  16  12  -2   18.07    6.14
  16  12   2   20.46    6.23
 -16 -12   4    2.85    6.70
  16  12   4   10.57    5.12
  16  12  -4    2.86    3.49
  16  12   4    2.18    4.13
 -16 -12   6    2.99    3.62
  16  12   6    1.75    3.22
 -16  12  -6    3.21    8.72
  16 -12  -6    2.95    6.98
  16  12  -6    2.63    2.96
  16  12   6    5.79    3.16
 -16 -12   8    9.11    6.35
  16  12   8    6.42    3.94
  16 -12  -8   18.09    6.95
  16  12  -8   11.69    4.79
  16  12   8    5.39    4.18
  16 -12  -8    6.43    3.71
  16  12  10   14.29    5.84
  16  12 -10   10.57    4.86
  16  12  10   10.64    5.24
  16 -12 -10    8.59    4.01
  16  12  12   26.65    5.71
  16  12 -12   31.33    5.83
  16  12  12   28.49    6.35
  16 -12 -12   30.07    4.99
  16  12  14  150.94   13.27
  16  12 -14  157.14   12.66
  16  12  14  176.31   14.62
  16 -12 -14  120.49   10.15
  16  12  16   42.74    7.99
  16  12  16   41.69    8.06
  16 -12 -16   28.17    5.40
  16  12  18    0.16    4.49
  16  12  18    0.71    3.66
  16  12  20   13.11    5.13
  16  12  20   19.66    5.69
  16  12  22    3.57    4.10
  16  12 -22    0.70    1.79
  16  12  24    4.66    3.68
  16  12 -24    4.35    2.17
  16  12  26   10.19    3.55
  16  12 -26    6.95    2.00
  16  12  28   14.56    4.07
  16  12 -28   11.88    2.36
 -16 -14   0    0.29    7.01
  16  14   0    8.24    3.48
  16  14   0    1.71    3.32
  16  14   2    4.84    2.98
  16  14  -2    4.48    2.78
  16  14   2    4.88    3.26
  16  14   4    5.24    4.47
  16  14  -4    8.96    5.00
  16  14   4    3.37    3.99
  16  14   6   16.48    4.64
  16  14  -6    8.07    3.40
  16  14   6    8.03    3.52
  16  14   8   78.93    9.95
  16  14  -8   81.10   10.06
  16  14   8   67.87    9.08
  16 -14  -8   58.31    7.73
  16  14  10   24.27    5.13
  16  14 -10   26.08    5.40
  16  14  10   16.44    4.32
  16 -14 -10   24.15    4.61
  16  14  12   35.20    7.60
  16  14 -12   31.31    6.60
  16  14  12   30.41    6.89
  16 -14 -12   24.95    5.57
  16  14  14   17.60    4.41
  16  14 -14   27.11    4.74
  16  14  14   20.32    4.77
  16 -14 -14   19.57    3.62
  16  14  16   32.88    7.13
  16  14  16   41.65    6.98
  16 -14 -16   30.90    4.93
  16  14  18    9.68    3.42
  16 -14 -18    2.90    2.24
  16  14  20   24.03    6.43
  16  14  20   27.09    6.08
  16 -14 -20   22.46    4.09
  16  14 -20   18.89    4.04
  16  14  22   24.21    4.80
  16  14 -22   11.31    2.30
  16  14  24    0.05    3.86
  16  14 -24    0.05    2.52
  16  14  26    4.10    2.90
  16  14 -26    0.90    2.81
  16  16   0    4.10    3.91
  16  16   0    7.65    4.18
  16  16   2    0.55    3.09
  16  16  -2    0.64    3.11
  16  16   2    0.50    2.67
  16  16   4    3.03    3.69
  16  16  -4    0.55    3.02
  16  16   4    0.61    2.99
  16  16   6   26.83    6.34
  16  16  -6   28.38    6.25
  16  16   6   20.42    5.22
  16  16   8   97.47   11.90
  16  16  -8  106.02   11.43
  16  16   8   93.10   10.34
  16 -16  -8   88.07   10.11
  16  16  10   12.16    4.45
  16  16 -10   12.20    4.47
  16  16  10    7.92    3.53
  16 -16 -10   10.90    3.60
  16  16  12    0.63    3.79
  16  16 -12    0.50    2.97
  16  16  12    0.63    2.97
  16 -16 -12    0.54    2.35
  16  16  14   13.83    4.29
  16  16  14   16.42    4.04
  16 -16 -14   11.95    2.99
  16  16  16    4.29    3.49
  16  16  16    0.55    3.17
  16 -16 -16    0.11    3.57
  16 -16 -16    0.11    2.26
  16  16  18    1.07    3.52
  16  16  18    2.25    2.82
  16 -16 -18    0.01    2.45
  16  16 -18    6.18    2.96
  16  16  20   77.17   10.01
  16  16  20   79.61    9.30
  16  16 -20   50.14    6.46
  16 -16 -20   54.37    6.47
  16  16  22   35.55    5.46
  16 -16 -22   22.22    3.58
  16  16 -22   25.70    3.84
  16  16  24    7.34    2.99
  16  16 -24    0.72    1.86
  16  16  26    0.13    2.24
  16  16 -26    4.66    1.71
  16  18   0    2.60    2.91
  16  18   0    0.20    3.67
  16  18   2    0.32    2.96
  16  18  -2    0.19    2.69
  16  18   2    1.61    3.11
  16  18   4   27.00    6.34
  16  18  -4   26.70    6.22
  16  18   4   25.16    5.73
  16  18   6   61.54    9.48
  16  18  -6   48.47    8.20
  16  18   6   33.50    6.56
  16  18   8   39.38    7.67
  16  18  -8   47.43    7.79
  16  18   8   42.44    6.88
  16 -18  -8   34.69    6.55
  16  18  10   31.28    6.13
  16  18 -10   19.77    4.56
  16  18  10   24.05    4.78
  16 -18 -10   18.83    4.29
  16  18  12    0.39    3.67
  16  18  12    0.27    2.84
  16 -18 -12    0.33    2.40
  16  18  14    0.19    4.30
  16  18  14    0.19    3.23
  16 -18 -14    0.19    3.15
  16  18 -16    0.93    2.18
  16 -18 -16    2.74    2.32
  16 -18 -16    1.03    1.94
  16  18  18   42.93    6.85
  16  18  18   33.34    5.32
  16  18 -18   24.04    4.31
  16 -18 -18   27.07    4.24
  16 -18 -18   25.55    3.88
  16  18  20   34.92    6.90
  16  18  20   36.55    6.11
  16  18 -20   26.82    4.57
  16 -18 -20   25.71    4.42
  16 -18 -20   27.12    4.37
  16  18  22   47.18    6.39
  16  18 -22   44.59    5.24
  16 -18 -22   43.60    5.04
  16  18  24    4.21    2.23
  16 -18 -24    5.03    1.78
  16  18 -24    6.71    2.08
  16  20   0    0.34    2.71
  16  20   0    0.34    3.42
  16  20   2    4.75    3.37
  16  20  -2    1.43    2.44
  16  20   2    1.86    2.48
  16  20   4   46.32    6.99
  16  20  -4   45.29    6.29
  16  20   4   39.50    5.70
  16  20   6   53.73    8.28
  16  20  -6   56.75    7.61
  16  20   6   53.02    6.95
  16 -20  -6   49.98    7.56
  16  20   8   30.52    6.07
  16  20  -8   19.11    4.32
  16  20   8   25.24    4.84
  16 -20  -8   20.52    4.77
  16  20  10    7.54    3.30
  16  20 -10    0.26    2.46
  16  20  10    9.20    3.21
  16 -20 -10    6.95    2.90
  16  20  12    1.48    3.79
  16  20  12    0.82    2.29
  16 -20 -12    0.18    2.43
  16  20  14    0.04    4.63
  16  20  14    0.63    2.22
  16  20 -14    0.07    2.71
  16 -20 -14    0.01    2.83
  16  20  16    4.88    3.80
  16  20  16    3.86    2.41
  16  20 -16    1.67    2.03
  16 -20 -16    4.97    2.46
  16 -20 -16    2.14    2.24
  16  20  18   25.07    4.19
  16  20 -18   25.05    4.05
  16 -20 -18   21.85    4.00
  16 -20 -18   30.15    4.10
  16  20  20   30.32    4.36
  16 -20 -20   30.75    4.37
  16  20 -20   27.59    4.03
  16 -20 -20   28.88    3.94
  16  20 -22   21.44    3.48
  16 -20 -22   17.04    2.99
  16 -20 -22   16.97    2.88
  16  22   0   66.41    7.84
  16  22   0   54.89    6.14
  16  22  -2    6.94    3.62
  16  22   2    1.34    3.05
  16  22  -2    0.15    2.29
  16  22   2    0.17    2.65
  16  22   4    2.13    3.07
  16  22  -4    4.05    2.87
  16  22   4    0.01    2.71
  16  22   6   78.28    9.88
  16  22  -6   71.39    8.02
  16  22   6   66.52    7.65
  16 -22  -6   63.71    8.44
  16  22   8    2.29    3.03
  16  22  -8    6.72    3.14
  16  22   8    4.72    2.18
  16 -22  -8   10.53    3.82
  16  22  10    0.01    3.67
  16  22  10    0.01    1.84
  16 -22 -10    0.65    2.62
  16  22  12    1.19    2.93
  16  22  12    1.98    2.14
  16 -22 -12    2.39    2.65
  16  22  14    1.39    3.02
  16  22  14    0.70    2.40
  16  22 -14    0.67    2.41
  16 -22 -14    0.93    2.99
  16  22  16    0.57    3.49
  16  22 -16    1.04    2.09
  16 -22 -16    0.16    2.26
  16 -22 -16    0.16    2.43
  16  22  18    6.38    3.80
  16  22 -18    9.62    2.99
  16 -22 -18    6.77    2.74
  16 -22 -18    4.39    2.03
  16  22  20   30.47    5.55
  16  22 -20   25.16    3.73
  16 -22 -20   18.20    3.54
  16 -22 -20   18.71    3.22
  16  24   0   14.30    4.77
  16  24  -2   43.13    7.01
  16  24   2   49.60    7.76
  16  24   4   19.58    5.09
  16 -24  -4    9.73    3.90
  16  24   6    6.55    3.43
  16 -24  -6    7.57    3.81
  16  24   8    1.78    3.14
  16 -24  -8    4.04    2.50
  16  24  10    0.34    3.37
  16 -24 -10    6.83    2.96
  16  24  12   12.54    3.98
  16 -24 -12    7.03    3.08
  16  24  14   12.73    4.50
  16  24 -14   10.01    3.23
  16 -24 -14    5.28    2.73
  16 -24 -14    9.12    2.91
  16  24  16    0.93    2.95
  16  24 -16    1.02    1.95
  16 -24 -16    1.27    1.88
  16 -24 -16    2.03    1.72
  16  24  18    0.03    2.56
  16  24 -18    0.01    1.48
  16 -24 -18    0.03    1.71
  16 -24 -18    0.03    1.45
  16  26   0   85.38    8.11
  16  26  -2   10.07    3.41
  16  26   2   21.72    4.78
  16 -26  -2   14.28    3.98
  16  26   4    0.10    3.12
  16 -26  -4    0.07    2.85
  16  26   6    0.59    3.03
  16 -26  -6    0.59    3.14
  16  26   8    0.13    2.90
  16 -26  -8    1.18    2.28
  16  26  10    5.69    3.11
  16 -26 -10    5.65    2.93
  16  26  12   25.22    4.93
  16 -26 -12   18.54    3.89
  16 -26 -14   27.97    3.91
  16 -26 -14   20.89    3.11
  16  28   0   53.65    6.05
  16 -28   0   54.53    6.46
  16  28   2   22.64    4.66
  16 -28  -2   15.02    3.95
  16 -28   2   18.54    4.33
  16  28   4    8.98    3.15
  16 -28  -4    5.83    2.64
  16  28   6    0.54    2.18
  16 -28  -6    0.03    2.71
  16  28   8    1.18    2.15
  16 -28  -8    0.01    2.58
  16  28  10    8.35    3.18
  16 -28 -10    5.55    2.02
  17  -1  -1    2.06    2.34
  17   1  -1    1.56    4.01
  17  -1   1    2.33    2.35
  17   1   1    2.62    3.55
  17  -1  -3   21.77    3.46
  17   1  -3   24.95    4.19
  17  -1   3   24.76    3.71
  17   1   3   26.98    4.42
  17   1  -5   92.07   15.79
  17  -1  -5   89.63   16.97
 -17   1  -5  186.71   23.98
 -17  -1  -5  155.77   23.33
  17  -1  -5  147.07   11.40
  17   1  -5  150.51   11.64
  17  -1   5  161.39   12.09
  17   1   5  149.55   12.44
  17   1  -7  110.64   17.76
  17  -1  -7  137.91   18.62
 -17   1  -7  197.34   25.51
 -17  -1  -7  190.85   24.73
  17  -1  -7  167.66   11.95
  17   1  -7  170.34   12.19
  17  -1   7  174.61   12.98
  17   1   7  197.27   13.95
  17   1  -9   61.62   11.72
  17  -1  -9   84.28   13.94
 -17   1  -9  104.43   17.50
 -17  -1  -9   86.62   16.21
  17  -1  -9   83.50    7.87
  17   1  -9   85.01    8.06
  17  -1   9   89.60    8.80
  17   1   9   91.23    9.02
  17   1 -11   12.32    6.95
  17  -1 -11   14.03    7.48
 -17   1 -11   22.11   10.86
 -17  -1 -11   37.44   14.02
  17  -1 -11   21.43    5.29
  17   1 -11   21.22    5.61
  17  -1  11   27.83    6.87
  17   1  11   35.15    7.75
  17  -1 -13   36.60    5.27
  17   1 -13   40.33    6.24
  17  -1  13   38.95    6.36
  17   1  13   41.81    6.54
  17  -1  15    5.55    7.37
  17   1  15    5.26    7.66
  17  -1  17   15.93    6.30
  17   1  17   25.41    7.83
  17  -1  19   93.12   10.40
  17   1  19   90.15   10.39
  17  -1  21  140.78   12.29
  17   1  21  147.66   12.67
  17  -1  23  119.03   11.90
  17   1  23  125.21   12.08
  17  -1  25   36.60    6.64
  17   1  25   31.43    6.43
  17  -1  27    3.82    2.91
  17   1  27    5.09    3.54
  17  -1  29    3.95    2.58
  17   1  29    0.80    2.46
  17  -3  -1    0.97    2.95
  17   3  -1    1.22    3.19
  17  -3   1    5.68    2.62
  17   3   1    1.39    2.59
  17  -3  -3   13.54    4.28
  17   3  -3    8.67    4.29
  17  -3   3    8.14    3.65
  17   3   3    6.66    3.92
  17   3  -5   50.24   10.34
 -17  -3  -5   65.71   12.90
  17  -3  -5   49.60    9.83
  17  -3  -5   69.38    6.23
  17   3  -5   78.42    7.20
  17  -3   5   65.25    6.46
  17   3   5   86.47    7.81
  17   3  -7   59.58   11.64
 -17   3  -7   74.87   15.04
 -17  -3  -7   93.32   17.53
  17  -3  -7   83.23   14.63
  17  -3  -7   78.61    7.91
  17   3  -7   89.62    8.67
  17  -3   7   81.84    8.41
  17   3   7   94.68    9.70
  17   3  -9   21.83    6.98
 -17   3  -9   43.10   12.90
 -17  -3  -9   38.31   10.91
  17  -3  -9   12.58    6.12
  17  -3  -9   34.01    5.44
  17   3  -9   36.57    5.69
  17  -3   9   41.61    6.30
  17   3   9   45.22    7.16
  17   3 -11   22.86    6.42
  17  -3 -11    9.26    2.99
  17  -3 -11   12.88    2.86
  17   3 -11   14.75    3.22
  17  -3  11   16.35    4.34
  17   3  11   26.33    4.97
  17  -3 -13    4.74    2.49
  17   3 -13    8.28    2.89
  17  -3  13    7.04    2.93
  17   3  13    4.78    3.41
  17   3 -15    7.19    4.19
  17  -3  15    7.84    4.34
  17   3  15   11.38    5.93
  17  -3  17   14.28    4.03
  17   3  17   12.26    5.25
  17  -3  19   27.68    7.06
  17   3  19   20.16    7.54
  17  -3  21   85.07    9.86
  17   3  21   80.18   10.60
  17  -3  23   55.39    7.77
  17   3  23   51.85    7.86
  17  -3  25   14.37    4.85
  17   3  25   13.89    5.24
  17  -3  27    2.16    3.08
  17   3  27    3.86    4.39
  17  -3  29    1.37    1.89
  17   3  29    0.84    2.22
  17  -5  -1    9.20    3.60
  17  -5   1   11.55    4.18
  17   5  -1   17.80    4.90
  17   5   1   12.71    4.18
  17   5   3    0.11    3.29
  17   5  -3    4.75    4.33
 -17  -5  -3   12.19    8.85
  17  -5  -3    0.26    2.89
  17   5  -3    0.36    2.55
  17  -5   3    3.45    2.36
  17   5   3    0.62    2.58
  17   5   5    0.47    3.41
  17   5  -5    4.10    5.24
 -17  -5  -5    5.34    7.01
  17  -5  -5   21.09    7.87
  17  -5  -5    4.17    2.30
  17   5  -5    4.02    2.91
  17  -5   5    2.01    2.61
  17   5   5    7.85    4.01
  17   5   7    7.97    4.60
  17   5  -7   11.19    6.71
 -17   5  -7   18.01    9.42
 -17  -5  -7    0.03    9.18
  17  -5  -7   15.19    7.05
  17  -5  -7    4.69    3.03
  17   5  -7   12.42    4.13
  17  -5   7    5.75    3.66
  17   5   7   18.26    5.24
  17   5   9    1.99    4.19
  17   5  -9    3.11    5.25
 -17   5  -9    5.53    8.90
 -17  -5  -9    3.72    8.56
  17  -5  -9    5.74    8.11
  17  -5  -9    0.69    3.56
  17   5  -9    0.65    2.95
  17  -5   9    0.43    3.55
  17   5   9    4.73    4.92
  17   5  11   25.40    7.84
  17  -5 -11   19.75    6.40
  17  -5  11   23.71    6.91
  17   5 -11   25.85    6.53
  17   5  11   31.06    8.02
  17   5 -13   31.67    5.95
  17  -5  13   22.06    5.46
  17   5  13   27.47    6.67
  17   5 -15   14.63    4.47
  17  -5  15   14.78    5.06
  17   5  15   19.15    6.51
  17  -5  17    0.18    3.27
  17   5  17    0.09    4.43
  17  -5  19    4.60    3.74
  17   5  19    8.04    5.08
  17  -5  21    3.48    3.08
  17   5  21    4.91    4.69
  17  -5  23    7.72    3.65
  17   5  23    5.14    4.06
  17  -5  25    9.56    3.16
  17   5  25    1.40    3.66
  17  -5  27   20.20    3.64
  17   5  27   19.61    4.52
  17   5  29   24.76    5.23
  17   7   1   59.56    7.47
  17   7  -1   49.03    6.63
  17   7   3   35.48    7.21
  17   7  -3   29.71    5.93
  17   7   3   39.39    6.84
  17   7  -5    0.08    5.18
  17   7   5   12.42    4.62
 -17  -7  -5   15.50   10.12
  17   7  -5    9.94    3.81
  17   7   5    2.09    3.16
  17   7   7    4.43    3.79
  17   7  -7    1.91    3.87
 -17   7  -7    0.17    7.83
  17  -7  -7    9.11    6.47
  17   7  -7    2.17    2.53
  17   7   7    0.20    4.01
  17   7   9   29.29    6.80
  17   7  -9   19.80    6.42
  17  -7  -9   27.44    9.30
  17   7  -9   28.30    5.63
  17   7   9   39.17    6.97
  17   7  11   81.61    9.99
  17   7 -11   78.54    8.12
  17   7  11   87.63    9.93
  17   7  13   99.07   12.66
  17   7 -13  108.46   10.90
  17   7  13  125.55   13.72
  17   7  15   90.07    9.92
  17   7 -15   82.28    8.08
  17   7  15  113.70   11.06
  17   7  17   36.63    6.93
  17   7  19    0.47    4.59
  17   7  21    0.02    3.62
  17   7  23   22.08    6.07
  17   7  25   45.07    7.39
  17   7  27   56.93    7.53
  17   9  -1  106.68   10.93
  17   9   1  114.88   11.11
  17   9   3   32.19    6.20
  17   9  -3   27.71    5.57
  17   9   3   26.52    4.97
  17   9   5   38.17    6.96
 -17   9  -5   34.11   12.09
  17   9  -5   26.69    5.17
  17   9   5   32.70    6.29
  17   9   7   13.30    4.65
  17   9  -7    7.07    3.35
  17   9   7    7.07    3.87
  17   9   9   24.58    5.51
  17   9  -9   28.03    5.16
  17   9   9   30.27    6.06
  17   9  11  111.27   13.92
  17   9 -11   86.67   10.77
  17   9  11   99.85   12.86
  17   9  13  157.02   14.69
  17   9 -13  150.82   12.36
  17   9  13  190.30   15.46
  17   9  15  204.59   15.48
  17   9 -15  205.50   13.31
  17   9  15  246.69   16.80
  17   9  17   55.03    7.61
  17   9  17   77.97    9.04
  17   9  19    1.19    5.67
  17   9  21    7.09    4.89
  17   9  23   23.98    5.28
  17   9  25   77.99    9.60
  17   9  27   78.32    8.60
  17  11  -1   60.10    8.51
  17  11   1   59.49    8.46
  17  11   3   59.60    8.78
  17  11  -3   52.00    7.94
  17  11   3   48.32    8.11
  17  11   5    8.86    3.87
  17  11  -5    3.39    3.32
  17  11   5    2.75    3.71
  17  11   7    7.91    3.00
  17  11  -7    0.20    2.95
  17  11   7    2.92    3.06
  17 -11  -7    3.19    2.61
  17  11   9    1.38    4.40
  17  11  -9    0.04    2.85
  17  11   9    1.38    3.86
  17  11  11   13.95    3.89
  17  11 -11   21.64    5.01
  17  11  11   15.45    4.78
  17  11  13  236.74   18.40
  17  11 -13  237.19   16.11
  17  11  13  262.17   18.58
  17  11  15  153.15   14.92
  17  11  15  162.15   15.17
  17  11  17   40.09    8.49
  17  11  17   53.79    9.23
  17  11  19    9.15    4.36
  17  11  21    0.30    4.50
  17  11  23   16.18    5.46
  17  11  25   32.82    5.78
  17  11  27   28.82    5.21
  17  13   1   19.38    4.44
  17  13  -1   19.75    5.48
  17  13   1   19.47    5.31
  17  13   3   15.13    4.69
  17  13  -3   11.30    4.81
  17  13   3    9.59    4.42
  17  13   5    0.50    4.11
  17  13  -5    2.28    3.46
  17  13   5    0.50    3.42
  17  13   7   20.90    5.19
  17  13  -7   19.81    5.06
  17  13   7   22.23    5.20
  17 -13  -7   22.78    4.83
  17  13   9   26.43    5.63
  17  13  -9   28.20    5.47
  17  13   9   20.89    5.15
  17 -13  -9   18.31    3.90
  17  13  11    8.14    3.85
  17  13 -11   11.41    4.45
  17  13  11    5.95    3.87
  17 -13 -11   14.17    4.40
  17  13  13   46.71    7.08
  17  13 -13   51.89    6.88
  17  13  13   45.37    7.08
  17 -13 -13   45.10    5.71
  17  13  15   97.09   11.24
  17  13  15   90.89   10.60
  17  13  17   15.04    6.22
  17  13  17   15.43    5.56
  17  13  19    2.82    4.27
  17  13  19    2.46    3.71
  17  13  21    4.57    3.95
  17  13  23    0.20    3.08
  17  13  25    3.03    3.07
  17  15   1    0.70    3.17
  17  15  -1    0.00    2.83
  17  15   1    0.70    3.21
  17  15   3    0.00    2.84
  17  15  -3    0.77    3.51
  17  15   3    0.95    3.03
  17  15   5   31.76    7.19
  17  15  -5   21.41    6.05
  17  15   5   18.97    5.76
  17  15   7   66.21    8.67
  17  15  -7   71.09    8.74
  17  15   7   61.05    8.02
  17 -15  -7   51.53    6.75
  17  15   9   50.41    7.06
  17  15   9   60.20    7.31
  17  15  -9   47.47    6.76
  17 -15  -9   39.63    5.68
  17  15  11    0.40    4.14
  17  15 -11    5.98    3.67
  17  15  11   10.56    4.15
  17 -15 -11    7.99    3.30
  17  15  13    1.08    3.55
  17  15 -13    0.61    2.83
  17  15  13    4.62    3.71
  17 -15 -13    2.99    2.63
  17  15  15    9.80    4.87
  17  15  15    2.45    3.17
  17 -15 -15    5.05    2.54
  17  15  17    1.36    4.14
  17  15  17    0.52    3.48
  17 -15 -17    0.21    2.14
  17  15  19   40.46    7.83
  17  15  19   38.11    7.04
  17 -15 -19   20.94    4.35
  17  15  21   46.33    6.99
  17  15  23   12.06    4.35
  17  15  25    0.20    2.03
  17  17   1    2.37    2.77
  17  17   1    2.17    2.74
  17  17   3   45.81    7.50
  17  17  -3   39.14    6.57
  17  17   3   39.90    6.43
  17  17   5   51.72    7.98
  17  17  -5   53.38    7.51
  17  17   5   52.66    7.13
  17  17   7  105.19   11.50
  17  17  -7  118.31   11.01
  17  17   7  106.59   10.11
  17 -17  -7   91.13    9.60
  17  17   9   63.07    9.17
  17  17  -9   61.96    8.34
  17  17   9   65.05    8.22
  17 -17  -9   51.16    7.47
  17  17  11   34.04    7.32
  17  17 -11   28.49    6.02
  17  17  11   28.20    6.13
  17 -17 -11   30.64    5.93
  17  17  13    1.30    3.40
  17  17  13    1.30    3.75
  17 -17 -13    1.22    2.80
  17  17  15    5.86    5.06
  17  17  15    4.75    3.61
  17 -17 -15    3.79    2.73
  17  17  17   26.09    5.72
  17  17  17   39.24    5.66
  17 -17 -17   29.23    4.44
  17  17  19   78.37    9.51
  17  17  19   73.09    8.17
  17 -17 -19   50.03    5.90
  17  17  21   77.25    7.35
  17 -17 -21   48.51    4.81
  17  17  23   40.24    5.31
  17  19   1   13.79    4.75
  17  19  -1    5.10    2.75
  17  19   1    7.66    2.85
  17  19   3   29.87    5.78
  17  19  -3   22.99    4.52
  17  19   3   12.67    3.57
  17  19   5  112.90   11.21
  17  19  -5  103.89    9.71
  17  19   5   97.28    9.02
  17  19   7   94.39    9.18
  17  19  -7   68.66    7.16
  17  19   7   72.06    6.98
  17 -19  -7   71.83    7.51
  17  19   9   67.16    8.90
  17  19  -9   65.52    7.57
  17  19   9   51.04    6.53
  17 -19  -9   50.16    6.95
  17  19  11   20.45    5.32
  17  19  11   17.52    3.91
  17 -19 -11   18.49    4.28
  17  19  13    5.63    4.40
  17  19  13    5.84    3.30
  17 -19 -13    3.64    2.98
  17  19  15   27.47    6.45
  17  19  15   21.82    4.79
  17 -19 -15    9.17    3.34
  17 -19 -15    7.35    2.92
  17  19  17   52.85    7.62
  17  19  17   40.67    5.63
  17 -19 -17   38.61    4.95
  17  19  19   55.42    6.06
  17 -19 -19   58.09    5.45
  17  19  21   54.92    5.38
  17 -19 -21   55.62    4.64
  17  21   1    0.39    2.74
  17  21  -1    0.21    3.18
  17  21   1    0.15    2.72
  17  21   3   13.72    4.04
  17  21  -3    7.71    2.68
  17  21   3   11.52    2.74
  17  21   5   34.73    5.73
  17  21  -5   48.58    5.76
  17  21   5   37.16    5.02
  17 -21  -5   45.66    6.05
  17  21   7   74.74    8.63
  17  21  -7   71.06    7.27
  17  21   7   63.79    6.65
  17 -21  -7   60.30    7.19
  17  21   9   19.82    5.33
  17  21   9   11.86    3.45
  17 -21  -9   13.93    4.01
  17  21  11    0.31    3.65
  17  21  11    2.15    2.25
  17 -21 -11    1.90    2.78
  17  21  13    0.95    3.04
  17  21  13    0.95    2.68
  17 -21 -13    4.49    2.09
  17  21  15    4.52    2.81
  17  21  15    4.51    1.82
  17 -21 -15    0.45    1.87
  17 -21 -15   10.74    2.38
  17  21  17    7.76    2.53
  17 -21 -17   13.44    3.01
  17 -21 -17   11.31    2.56
  17  21  19   37.48    6.07
  17 -21 -19   30.28    4.25
  17  23   1   22.40    5.18
  17  23   3    0.52    2.94
  17 -23  -3    1.23    3.09
  17  23   5   15.43    4.56
  17 -23  -5   14.60    4.33
  17  23   7   11.77    3.82
  17 -23  -7   11.55    3.95
  17  23   9    1.32    2.69
  17 -23  -9    0.04    2.54
  17  23  11    4.96    3.16
  17 -23 -11    0.05    2.08
  17  23  13    2.75    2.89
  17 -23 -13    4.69    2.23
  17 -23 -13    3.00    1.67
  17  23  15    3.97    2.91
  17 -23 -15    3.47    2.13
  17 -23 -15    1.32    1.63
  17  23  17    0.01    2.24
  17 -23 -17    0.35    1.73
  17 -23 -17    1.07    1.59
  17  25   1   64.50    7.50
  17 -25  -1   75.44    8.10
  17  25   3   17.17    4.41
  17 -25  -3   10.61    4.01
  17  25   5    2.83    2.62
  17 -25  -5    1.12    2.66
  17  25   7    0.84    3.12
  17 -25  -7    0.81    2.55
  17  25   9    4.95    2.47
  17 -25  -9    0.20    2.36
  17  25  11   15.90    3.85
  17 -25 -11   11.44    2.55
  17 -25 -13   38.93    4.78
  17 -25 -13   30.23    4.03
  17  27   1   71.76    6.56
  17 -27  -1   83.00    7.45
  17 -27   1   83.83    7.54
  17  27   3   25.39    4.74
  17 -27  -3   25.75    4.40
  17 -27   3   24.40    4.68
  17  27   5   15.28    3.99
  17 -27  -5    9.34    3.18
  17  27   7    0.06    2.55
  17 -27  -7    0.05    2.74
  17  27   9   16.21    3.64
  17 -27  -9   13.59    2.77
  18   0   0    1.20    4.21
  18   0  -2   18.35    6.07
  18   0   2   13.78    5.65
 -18   0  -4   96.75   21.26
  18   0  -4   77.89    9.62
  18   0   4   94.31   10.86
 -18   0  -6  188.79   23.70
  18   0  -6  190.50   11.59
  18   0   6  182.74   12.21
  18   0  -8  234.83   16.45
  18   0   8  229.84   18.07
  18   0 -10   67.49    9.10
  18   0  10   77.79   10.61
  18   0 -12   58.58    6.15
  18   0  12   63.70    7.32
  18   0  14   10.48   10.63
  18   0  16  152.41   13.57
  18   0  18   24.98    6.78
  18   0  20  180.57   14.33
  18   0  22  135.87   10.69
  18   0  24  119.79   11.57
  18   0  26   28.09    5.42
  18   0  28    8.09    2.53
  18  -2   0    0.28    3.46
  18   2   0    0.25    4.27
  18  -2  -2    1.33    3.62
  18   2  -2    1.15    3.46
  18  -2   2    1.25    4.03
  18   2   2    1.31    3.96
 -18   2  -4   90.84   19.28
 -18  -2  -4   81.54   18.37
  18  -2  -4   70.36    8.44
  18   2  -4   77.92    9.25
  18  -2   4   78.28    8.93
  18   2   4   87.95   10.22
  18  -2  -6  147.83    9.91
  18   2  -6  142.23   10.10
  18  -2   6  160.20   11.10
  18   2   6  170.85   11.83
  18  -2  -8  103.60   10.38
  18   2  -8  107.00   10.81
  18  -2   8  112.05   11.72
  18   2   8  120.45   12.34
  18  -2 -10   65.17    9.20
  18   2 -10   72.69    9.72
  18  -2  10   83.09   10.81
  18   2  10   95.65   12.10
  18  -2 -12    4.24    2.39
  18   2 -12    4.00    2.66
  18  -2  12    3.29    3.35
  18   2  12    4.46    3.36
  18   2 -14   39.82    5.89
  18  -2  14   33.05    6.16
  18   2  14   48.96    7.18
  18  -2  16   17.04    5.26
  18   2  16   11.31    5.77
  18  -2  18   72.41    9.04
  18   2  18   67.78    9.57
  18  -2  20   77.30    8.70
  18   2  20   73.56   10.10
  18  -2  22  124.62   11.45
  18   2  22  126.21   12.68
  18   2  24   49.64    6.68
  18  -2  24   47.90    5.98
  18  -2  26   17.08    3.04
  18   2  26   17.03    3.95
  18  -2  28    2.78    1.88
  18   2  28    0.11    2.06
  18  -4   0   10.03    4.19
  18   4   0   13.90    4.64
 -18  -4  -2    2.62    6.26
  18  -4  -2    0.68    2.51
  18   4  -2    0.01    2.82
  18  -4   2    0.15    2.25
  18   4   2    0.59    3.60
 -18  -4  -4   10.72    5.22
  18  -4  -4    9.84    3.47
  18   4  -4   17.42    4.56
  18  -4   4   11.49    3.81
  18   4   4   11.71    3.97
  18  -4  -6   35.53    5.70
  18   4  -6   37.18    5.49
  18  -4   6   39.09    6.21
  18   4   6   48.88    6.46
  18  -4  -8   28.42    4.83
  18   4  -8   34.84    5.60
  18  -4   8   20.96    4.61
  18   4   8   38.09    6.43
  18  -4 -10    0.31    2.98
  18   4 -10    2.04    3.18
  18  -4  10    0.15    2.73
  18   4  10    0.61    3.73
  18   4 -12    0.94    3.76
  18  -4  12    0.21    2.85
  18   4  12    0.03    4.15
  18   4 -14    0.21    3.18
  18  -4  14    2.86    4.75
  18   4  14    3.53    5.69
  18  -4  16    3.98    2.57
  18   4  16    1.66    3.45
  18  -4  18   19.50    5.80
  18   4  18   25.12    7.25
  18  -4  20   29.78    5.20
  18   4  20   22.33    5.88
  18  -4  22   25.89    5.79
  18   4  22   21.06    6.49
  18  -4  24    7.53    3.44
  18   4  24   11.13    4.63
  18  -4  26    5.42    3.00
  18   4  26    3.84    3.43
  18   6   0   52.80    7.56
  18   6  -2   19.86    4.70
  18   6   2   19.46    4.79
  18   6   4   19.25    5.51
  18   6  -4   15.74    4.43
  18   6   4   10.74    4.25
  18   6   6    0.02    4.34
  18   6  -6    0.01    3.17
  18   6   6    1.15    3.26
  18   6   8   11.92    3.81
  18   6  -8   13.41    3.94
  18   6   8    8.41    4.24
  18   6 -10   20.25    4.97
  18   6  10   19.34    4.33
  18   6 -12   37.73    5.84
  18   6  12   49.17    6.93
  18   6 -14  102.40    9.48
  18  -6  14   92.27    9.91
  18   6  16   54.37    9.35
  18  -6  16   36.41    6.59
  18  -6  18   10.15    3.89
  18   6  18    1.47    3.61
  18   6  20    0.57    4.97
  18   6  22    0.67    3.24
  18   6  24   20.05    4.52
  18   6  26   32.16    5.83
  18   8   0   68.69    8.75
  18   8  -2  119.72   11.14
  18   8   2  126.29   11.68
  18   8   4   45.27    7.37
  18   8  -4   34.28    5.53
  18   8   4   32.23    5.88
  18   8   6   46.35    8.93
  18   8  -6   39.22    7.06
  18   8   6   39.46    7.53
  18   8   8   34.65    7.87
  18   8  -8   31.11    6.44
  18   8   8   26.16    6.66
  18   8  10   53.98    9.07
  18   8 -10   46.44    7.43
  18   8  10   56.97    8.77
  18   8  12  157.67   14.17
  18   8 -12  144.45   11.59
  18   8  12  166.92   13.57
  18   8 -14  217.30   14.54
  18   8  14  269.83   18.58
  18   8  16  138.59   12.60
  18   8  18   44.23    7.20
  18   8  20    9.21    3.59
  18   8  22   15.55    4.01
  18   8  24   61.18    7.49
  18   8  26   91.01    8.95
  18  10   0  138.81   12.98
  18  10  -2   85.76   10.11
  18  10   2   90.09   10.59
  18  10   4   74.71    9.83
  18  10  -4   67.27    8.54
  18  10   4   74.30    9.22
  18  10   6   38.49    7.38
  18  10  -6   31.90    6.30
  18  10   6   32.30    6.23
  18  10   8   10.14    5.43
  18  10  -8   11.95    4.77
  18  10   8    3.20    3.38
  18  10  10   43.96    7.67
  18  10 -10   41.66    6.57
  18  10  10   45.73    7.11
  18  10  12  177.31   16.04
  18  10 -12  210.31   14.29
  18  10  12  224.38   16.65
  18  10  14  242.96   17.48
  18  10 -14  225.68   14.33
  18  10  16  153.28   13.84
  18  10  18   70.89    9.84
  18  10  20   10.96    4.41
  18  10  22   19.23    5.51
  18  10  24   46.12    6.45
  18  10  26   64.38    7.30
  18  12   0   80.76   10.44
  18  12   2   44.53    7.56
  18  12  -2   47.68    7.66
  18  12   2   46.42    7.64
  18  12   4   27.81    6.01
  18  12  -4   21.47    5.55
  18  12   4   24.38    5.93
  18  12   6    0.57    3.68
  18  12  -6    2.89    3.19
  18  12   6    2.41    3.00
  18 -12  -6    3.43    2.95
  18  12   8    6.18    3.43
  18  12  -8    0.71    3.11
  18  12   8    0.20    4.02
  18 -12  -8    0.92    2.24
  18  12  10    7.99    3.66
  18  12 -10   18.93    4.41
  18  12  10    4.34    3.74
  18  12  12   74.95    9.63
  18  12 -12   87.13    9.30
  18  12  12   93.45   10.21
  18  12  14  104.29   12.10
  18  12 -14  116.68   10.59
  18  12  14  135.18   12.32
  18  12  16   80.65   10.12
  18  12  16   94.76   10.15
  18  12  18   16.81    5.70
  18  12  20    0.70    3.37
  18  12  22    2.06    3.36
  18  12  24   10.79    3.39
  18  14   0   12.48    5.32
  18  14   2   14.88    4.39
  18  14  -2    6.36    3.12
  18  14   2    3.13    2.85
  18  14   4    2.07    2.78
  18  14  -4    2.79    3.03
  18  14   4    2.45    2.97
  18  14   6   20.16    5.00
  18  14  -6   21.64    5.37
  18  14   6   16.15    4.61
  18 -14  -6   13.77    3.57
  18  14   8   24.41    5.72
  18  14  -8   37.59    6.30
  18  14   8   25.71    5.93
  18 -14  -8   19.58    4.52
  18  14  10    1.14    3.44
  18  14 -10    0.61    3.13
  18  14  10    0.63    3.13
  18 -14 -10    5.77    3.03
  18  14  12    0.21    3.75
  18  14 -12    0.00    3.22
  18  14  12    2.80    3.19
  18 -14 -12    0.63    2.15
  18  14  14   34.42    6.97
  18  14  14   33.44    6.32
  18  14  16    2.70    3.28
  18  14  16    2.94    3.29
  18  14  18    1.19    3.12
  18  14  20   18.46    5.16
  18  14  22    7.49    3.45
  18  14  24    0.27    2.10
  18  16   0    2.07    3.25
  18  16   2    6.59    3.46
  18  16  -2    0.25    3.39
  18  16   2    3.76    2.98
  18  16   4   42.84    7.69
  18  16  -4   46.31    7.64
  18  16   4   38.20    6.77
  18  16   6  107.15   10.64
  18  16  -6   95.27    9.12
  18  16   6  102.57    9.47
  18 -16  -6   73.89    8.08
  18  16   8   54.93    8.87
  18  16  -8   58.46    8.35
  18  16   8   61.98    8.36
  18 -16  -8   43.49    7.15
  18  16  10   54.75    8.70
  18  16 -10   57.13    8.12
  18  16  10   59.48    8.30
  18 -16 -10   42.66    6.54
  18  16  12    4.29    3.59
  18  16  12    7.07    3.20
  18 -16 -12    1.15    2.21
  18  16  14    3.66    3.27
  18  16  14    5.09    2.94
  18 -16 -14    1.96    2.01
  18  16  16    4.93    3.58
  18  16  16    2.22    2.62
  18 -16 -16    6.08    2.33
  18  16  18   60.57    8.10
  18  16  18   53.02    7.11
  18  16  20   46.20    6.45
  18  16  22   44.28    5.95
  18  18   0   10.77    3.56
  18  18   2   32.46    6.01
  18  18  -2   23.08    4.73
  18  18   2   20.60    4.31
  18  18   4   55.16    7.65
  18  18  -4   62.67    7.36
  18  18   4   59.29    7.06
  18  18   6  123.80   11.34
  18  18  -6  105.46    9.45
  18  18   6  111.95    9.71
  18 -18  -6   91.51    8.96
  18  18   8  119.62   11.60
  18  18  -8  118.36   10.08
  18  18   8  115.90    9.79
  18 -18  -8  102.41    9.23
  18  18  10   52.81    8.50
  18  18 -10   47.02    7.25
  18  18  10   41.34    6.73
  18 -18 -10   35.77    6.10
  18  18  12   33.35    6.73
  18  18  12   25.67    5.11
  18 -18 -12   18.54    4.14
  18  18  14   22.35    6.20
  18  18  14   17.85    4.45
  18 -18 -14   10.32    3.00
  18  18  16   29.43    6.09
  18  18  16   36.03    5.23
  18 -18 -16   23.91    3.84
  18  18  18   69.79    7.89
  18  18  18   72.07    6.77
  18 -18 -18   48.68    4.89
  18  18  20   87.97    7.06
  18  20   0    3.64    2.69
  18  20   2   22.07    5.19
  18  20  -2   15.34    4.03
  18  20   2   20.90    4.46
  18  20   4   35.44    6.20
  18  20  -4   31.17    5.34
  18  20   4   23.41    4.44
  18 -20  -4   29.29    5.46
  18  20   6   93.90    9.57
  18  20  -6   84.74    8.13
  18  20   6   78.36    7.74
  18 -20  -6   82.78    8.33
  18  20   8   76.03    8.52
  18  20  -8   64.03    7.24
  18  20   8   52.95    6.68
  18 -20  -8   68.36    7.47
  18  20  10   45.22    7.46
  18  20  10   34.13    5.60
  18 -20 -10   33.87    5.24
  18  20  12   10.90    4.39
  18  20  12    7.01    2.97
  18 -20 -12    5.64    2.32
  18  20  14    6.38    1.95
  18 -20 -14    9.22    2.19
  18  20  16   29.50    5.81
  18  20  16   15.73    3.68
  18 -20 -16   23.97    3.87
  18  20  18   29.38    3.89
  18 -20 -18   29.09    3.67
  18  22   0    0.17    1.73
  18  22   2    0.47    2.77
  18  22  -2    1.47    1.97
  18  22   2    0.47    2.85
  18 -22  -2    7.24    2.78
  18  22   4   24.89    4.99
  18  22  -4   26.19    4.50
  18  22   4   22.68    4.20
  18 -22  -4   27.49    5.07
  18  22   6    7.97    3.37
  18  22  -6    4.03    2.62
  18  22   6    6.90    2.35
  18 -22  -6   11.94    3.46
  18  22   8   40.14    6.69
  18  22   8   24.62    4.26
  18 -22  -8   39.96    5.92
  18  22  10    4.47    3.72
  18  22  10    1.04    1.90
  18 -22 -10    3.56    2.42
  18  22  12    0.11    2.66
  18  22  12    0.90    2.14
  18 -22 -12    0.03    1.85
  18 -22 -12    0.67    2.30
  18  22  14    0.09    2.92
  18 -22 -14    0.06    1.84
  18  22  16    0.07    2.67
  18 -22 -16    0.06    1.38
  18 -24   0   75.52    8.50
  18  24   2    6.33    3.03
  18 -24  -2    8.45    3.46
  18  24   4    3.82    2.47
  18 -24  -4    3.89    2.35
  18  24   6    3.25    2.36
  18 -24  -6    6.53    2.66
  18  24   8    1.13    2.59
  18 -24  -8    1.09    2.27
  18  24  10    2.74    2.68
  18 -24 -10    0.02    1.76
  18 -24 -12   13.53    2.83
  18 -24 -12   13.39    2.55
  18 -26   0   77.73    7.01
  18  26   2   54.50    5.73
  18 -26  -2   65.68    6.37
  18 -26   2   67.35    6.54
  18  26   4   18.17    3.80
  18 -26  -4    8.60    2.62
  18  26   6    2.86    2.24
  18 -26  -6    0.20    2.29
  19  -1  -1    1.33    3.99
  19   1  -1    1.52    4.26
  19   1   1    1.32    4.52
  19  -1  -3   25.10    4.72
  19   1  -3   30.21    4.85
  19  -1   3   27.86    5.09
  19   1   3   29.06    5.41
  19  -1  -5  108.87   11.37
  19   1  -5  106.59   11.62
  19  -1   5  108.82   11.95
  19   1   5  107.07   12.53
  19  -1  -7  138.76   11.24
  19   1  -7  152.29   12.03
  19  -1   7  150.20   12.64
  19   1   7  173.73   13.78
  19  -1  -9  104.88    9.29
  19   1  -9  105.11    9.56
  19  -1   9  108.24   10.47
  19   1   9  112.08   10.64
  19  -1 -11   37.69    7.40
  19   1 -11   33.16    7.14
  19  -1  11   39.38    8.47
  19   1  11   46.73    9.06
  19   1 -13    1.76    2.83
  19  -1  13    0.33    3.50
  19   1  13    0.22    3.78
  19  -1  15   68.32    8.21
  19   1  15   67.04    8.54
  19  -1  17   51.78    8.35
  19   1  17   61.43    9.24
  19  -1  19   42.48    6.11
  19   1  19   38.89    6.56
  19  -1  21  101.81    9.69
  19   1  21   89.81    9.69
  19  -1  23   62.14    6.96
  19   1  23   63.63    7.41
  19  -1  25   32.38    4.42
  19   1  25   32.02    4.40
  19  -3  -1    0.12    3.04
  19  -3   1    0.15    3.05
  19   3  -1    0.09    3.03
  19   3   1    0.16    4.48
  19  -3  -3    6.29    3.48
  19   3  -3   12.75    4.12
  19  -3   3    6.55    3.99
  19   3   3    9.75    3.95
  19  -3  -5   45.84    7.00
  19   3  -5   58.58    7.78
  19  -3   5   46.97    7.47
  19   3   5   64.76    8.64
  19  -3  -7   68.99    7.61
  19   3  -7   65.59    8.12
  19  -3   7   67.02    8.34
  19   3   7   74.20    9.36
  19  -3  -9   39.74    5.90
  19  -3   9   46.89    6.84
  19   3  -9   44.78    6.42
  19   3   9   36.21    7.48
  19  -3 -11    0.13    2.80
  19   3 -11    0.12    2.63
  19  -3  11    0.19    3.47
  19   3  11    0.36    3.46
  19   3 -13   27.94    5.39
  19  -3  13   23.86    5.10
  19   3  13   15.57    5.57
  19  -3  15    1.49    3.49
  19   3  15    0.63    4.36
  19  -3  17    8.58    3.43
  19   3  17    8.49    4.18
  19  -3  19   53.35    7.78
  19   3  19   57.55    8.59
  19   3  21   32.80    6.72
  19  -3  21   32.89    5.68
  19  -3  23   34.59    5.07
  19   3  23   33.30    5.46
  19  -3  25    1.11    2.09
  19   3  25    2.14    2.93
  19   5  -1   33.35    7.26
  19  -5  -1   15.00    5.32
  19  -5   1   12.56    4.64
  19   5   1   25.82    6.40
  19  -5  -3    2.16    2.34
  19   5  -3    0.46    2.95
  19  -5   3    0.28    2.59
  19   5   3    1.61    3.69
  19  -5  -5    0.03    3.00
  19   5  -5    0.27    2.93
  19  -5   5    0.01    2.38
  19   5   5    4.73    3.87
  19  -5  -7   11.89    3.75
  19   5  -7    7.97    3.05
  19  -5   7    5.29    2.79
  19   5   7   17.51    5.10
  19  -5  -9    9.94    2.67
  19   5  -9    3.00    2.96
  19  -5   9    6.00    2.43
  19   5   9    1.94    3.21
  19   5 -11    1.14    3.12
  19  -5  11    0.44    2.45
  19   5  11    0.33    3.38
  19   5 -13    7.92    4.21
  19  -5  13    9.02    3.84
  19   5  13   10.78    5.34
  19   5  15   54.72    8.96
  19  -5  15   36.48    6.31
  19  -5  17    9.96    4.32
  19   5  17    5.87    4.53
  19  -5  19    6.80    3.34
  19   5  19    7.87    4.18
  19  -5  21    7.30    3.22
  19   5  21   14.14    4.31
  19   5  23    0.11    3.07
  19   5  25    5.79    3.44
  19   7  -1   60.48    9.21
  19   7   1   61.97    9.28
  19   7  -3   42.30    7.32
  19   7   3   49.66    8.00
  19   7  -5    8.00    3.84
  19   7   5    9.84    4.69
  19   7  -7   12.06    4.33
  19   7   7   18.29    5.54
  19   7  -9   10.10    4.01
  19   7   9   13.08    4.51
  19   7 -11   22.70    4.65
  19   7  11   29.27    5.62
  19   7 -13  105.26   10.91
  19   7  13  151.67   14.45
  19   7  15  131.48   13.00
  19   7  17   42.76    7.69
  19   7  19    4.37    3.61
  19   7  21    0.86    3.18
  19   7  23    8.73    3.89
  19   7  25   32.71    5.18
  19   9  -1   81.53    9.96
  19   9   1   87.41   10.39
  19   9  -3   88.94    9.78
  19   9   3   91.70   10.39
  19   9   5   32.07    6.75
  19   9  -5   30.30    5.72
  19   9   5   26.90    5.43
  19   9   7   12.27    4.74
  19   9  -7   19.79    4.75
  19   9   7   18.44    4.57
  19   9   9   16.85    4.83
  19   9  -9   11.47    4.11
  19   9   9    7.22    3.77
  19   9 -11   66.16    9.26
  19   9  11   77.96   10.98
  19   9 -13  220.08   14.64
  19   9  13  258.37   18.01
  19   9  15  128.67   11.84
  19   9  17   78.15    9.65
  19   9  19   31.80    5.87
  19   9  21    0.65    2.86
  19   9  23   20.64    4.29
  19  11  -1   83.88    9.95
  19  11   1   91.65   10.40
  19  11  -3   26.92    5.38
  19  11   3   20.78    5.37
  19  11   5   29.02    7.38
  19  11  -5   36.75    7.01
  19  11   5   35.75    7.27
  19  11   7    0.28    3.79
  19  11  -7    0.33    3.22
  19  11   7    0.28    5.31
  19  11   9    0.80    4.57
  19  11  -9    3.31    3.24
  19  11   9    0.80    4.95
  19  11  11   89.08   10.56
  19  11 -11  104.04    9.07
  19  11  11  101.47    9.82
  19  11  13   80.41   10.96
  19  11 -13   91.61   10.10
  19  11  13  101.10   11.57
  19  11  15  107.48   11.36
  19  11  17   64.14    8.81
  19  11  19    7.04    4.35
  19  11  21    5.19    3.37
  19  11  23    6.21    2.29
  19  13  -1   30.62    6.49
  19  13   1   33.21    6.86
  19  13   3    6.45    3.27
  19  13  -3    0.25    4.06
  19  13   3    3.80    2.87
  19  13   5    1.10    3.35
  19  13  -5    0.79    3.12
  19  13   5    3.36    3.03
  19 -13  -5    0.78    3.36
  19  13   7    1.12    3.84
  19  13  -7   10.71    3.73
  19  13   7    1.12    3.55
  19  13   9    0.25    4.74
  19  13  -9    0.00    3.05
  19  13   9    0.25    3.71
  19  13  11    0.44    3.58
  19  13 -11    7.69    3.23
  19  13  11    6.14    3.89
  19  13  13   28.98    5.90
  19  13  13   36.40    5.69
  19  13  15   23.32    5.49
  19  13  17    4.70    3.85
  19  13  19    0.04    2.60
  19  13  21    0.91    2.31
  19  15  -1    0.64    3.39
  19  15   1    0.71    3.02
  19  15   3    9.68    4.44
  19  15  -3    0.03    3.20
  19  15   3    0.26    2.87
  19  15   5   36.07    7.44
  19  15  -5   52.10    7.86
  19  15   5   45.00    7.20
  19 -15  -5   26.76    5.66
  19  15   7   43.90    7.71
  19  15  -7   42.84    7.02
  19  15   7   43.29    7.05
  19 -15  -7   31.77    5.69
  19  15   9    7.76    3.50
  19  15  -9   16.54    4.26
  19  15   9   11.36    3.39
  19 -15  -9   12.45    3.43
  19  15  11    5.32    3.46
  19  15 -11   11.52    4.09
  19  15  11    8.89    3.92
  19 -15 -11    5.51    2.54
  19  15  13    0.73    2.96
  19  15  13    0.15    2.58
  19  15  15    0.21    3.58
  19  15  15    0.62    3.01
  19  15  17   10.07    4.45
  19  15  19   23.61    4.87
  19  15  21   16.96    3.62
  19  17  -1    3.45    3.14
  19  17   1    3.52    3.45
  19  17  -3    2.40    3.71
  19  17   3    6.06    3.46
  19  17   5   89.24    9.72
  19  17  -5   97.34    8.88
  19  17   5   90.09    8.56
  19 -17  -5   72.69    7.53
  19  17   7   80.61    9.65
  19  17  -7   79.22    8.82
  19  17   7   70.59    8.40
  19 -17  -7   59.80    7.36
  19  17   9   55.76    8.01
  19  17  -9   54.21    7.16
  19  17   9   61.16    7.21
  19 -17  -9   46.87    5.82
  19  17  11   16.00    5.64
  19  17  11   15.88    4.28
  19 -17 -11   10.43    3.25
  19  17  13   13.93    4.61
  19  17  13    9.75    3.17
  19 -17 -13    7.27    2.14
  19  17  15    7.46    3.52
  19  17  15    5.37    2.68
  19  17  17   21.97    4.12
  19  17  19   59.14    6.35
  19  19  -1    1.65    3.21
  19  19   1    1.28    3.43
  19  19   3   32.60    6.09
  19  19  -3   25.01    4.56
  19  19   3   19.29    4.30
  19 -19  -3   24.29    4.91
  19  19   5   35.69    6.23
  19  19  -5   40.70    5.78
  19  19   5   27.96    4.86
  19 -19  -5   28.46    5.05
  19  19   7  109.49   10.39
  19  19  -7   97.64    8.71
  19  19   7   85.79    8.30
  19 -19  -7   83.14    8.09
  19  19   9   55.62    7.52
  19  19   9   45.45    6.08
  19 -19  -9   41.10    5.76
  19  19  11   23.11    4.95
  19  19  11   21.01    3.78
  19 -19 -11   18.79    3.55
  19  19  13   10.09    4.31
  19  19  13    6.90    3.16
  19 -19 -13    3.24    2.07
  19  19  15   13.29    4.11
  19  19  15   10.30    2.71
  19 -19 -15    5.16    2.16
  19  19  17   18.22    2.92
  19  21  -1    0.69    2.37
  19  21   1    1.11    1.85
  19 -21  -1    0.16    2.43
  19  21   3   11.57    3.98
  19  21  -3    3.98    2.47
  19  21   3    7.19    2.66
  19 -21  -3   10.00    3.43
  19  21   5   24.18    4.52
  19  21  -5   15.14    3.62
  19  21   5   17.11    3.40
  19 -21  -5   17.35    3.80
  19  21   7   26.04    5.16
  19  21   7   19.15    3.91
  19 -21  -7   18.12    3.85
  19  21   9   45.46    6.66
  19  21   9   34.83    5.02
  19 -21  -9   36.93    5.07
  19  21  11    9.60    3.57
  19  21  11    2.75    2.38
  19 -21 -11    5.69    2.63
  19  21  13    1.95    3.00
  19  21  13    0.12    1.45
  19 -21 -13    0.31    2.17
  19 -23  -1   10.22    4.06
  19 -23   1   10.97    4.04
  19  23   3    0.11    2.01
  19 -23  -3    0.06    2.05
  19  23   5    2.07    2.50
  19 -23  -5    0.41    2.02
  19  23   7    7.06    3.22
  19 -23  -7    6.23    2.55
  19  23   9    3.62    2.11
  19 -23  -9    0.37    1.69
  19  23  11    0.94    2.29
  19 -23 -11    0.01    1.62
  19 -25  -1   36.45    4.85
  19 -25   1   37.09    4.91
  19 -25  -3   13.04    3.09
  19 -25   3   16.94    3.49
  20   0   0    0.79    2.75
  20   0  -2    0.20    2.52
  20   0   2    0.66    3.83
  20   0  -4   17.29    3.98
  20   0   4   18.94    4.56
  20   0  -6   72.78    8.19
  20   0   6   76.93    8.82
  20   0  -8   31.89    6.23
  20   0   8   30.15    6.64
  20   0 -10   49.05    6.06
  20   0  10   51.35    6.93
  20   0 -12    6.86    3.01
  20   0  12   11.19    3.66
  20   0  14    5.69    4.89
  20   0  16   16.05    4.73
  20   0  18   20.42    4.34
  20   0  20   18.74    4.62
  20   0  22   35.36    3.88
  20   0  24    2.03    1.94
  20  -2   0    2.84    3.18
  20   2   0    3.22    3.27
  20  -2  -2    0.26    2.52
  20   2  -2    0.25    3.86
  20  -2   2    0.31    3.39
  20   2   2    0.26    3.62
  20  -2  -4   11.09    3.37
  20   2  -4   11.46    4.11
  20  -2   4   17.41    4.50
  20   2   4   11.60    3.86
  20  -2  -6   30.25    5.37
  20   2  -6   32.12    6.13
  20  -2   6   34.94    6.24
  20   2   6   33.40    6.81
  20  -2  -8   60.22    7.37
  20   2  -8   66.61    8.21
  20  -2   8   63.92    7.96
  20   2   8   62.91    8.93
  20  -2 -10    0.85    2.25
  20  -2  10    1.42    2.93
  20   2  10    3.42    3.12
  20   2 -12    2.06    2.38
  20  -2  12    1.80    2.98
  20   2  12    0.47    3.07
  20  -2  14    0.48    2.61
  20   2  14    0.28    3.76
  20  -2  16    8.18    2.89
  20   2  16    6.61    3.35
  20  -2  18   13.86    4.12
  20   2  18    8.15    3.99
  20  -2  20   23.09    4.51
  20   2  20   30.99    5.29
  20  -2  22   11.13    2.98
  20   2  22   12.83    3.62
  20  -2  24    6.32    1.70
  20   2  24    6.17    2.29
  20  -4   0    8.89    3.48
  20   4   0    5.98    3.63
  20  -4  -2    3.82    2.91
  20   4  -2    3.67    3.11
  20  -4   2    0.24    2.12
  20   4   2    5.44    3.99
  20  -4  -4    0.10    3.03
  20   4  -4    0.12    3.23
  20  -4   4    8.11    3.33
  20   4   4    0.14    3.33
  20  -4  -6   17.73    4.47
  20   4  -6   20.50    5.69
  20  -4   6   18.54    5.24
  20   4   6   21.26    6.21
  20  -4  -8    9.43    3.24
  20   4  -8   10.57    4.34
  20  -4   8    9.71    3.66
  20   4   8    9.61    4.58
  20   4 -10    0.37    2.55
  20  -4  10    0.03    2.82
  20   4  10    1.32    3.20
  20   4 -12    1.67    2.62
  20  -4  12    1.46    3.06
  20   4  12    0.92    3.75
  20  -4  14    7.57    3.30
  20   4  14    8.51    4.18
  20  -4  16    1.12    2.24
  20   4  16   15.80    4.05
  20  -4  18    7.60    2.35
  20   4  18    3.01    2.85
  20  -4  20   10.79    3.35
  20   4  20   18.17    4.30
  20   4  22    9.24    3.41
  20   4  24    0.17    2.23
  20   6   0   23.01    5.40
  20   6  -2   18.49    5.88
  20   6   2   19.98    6.33
  20   6  -4    0.14    3.58
  20   6   4    0.17    3.39
  20   6  -6    1.05    3.64
  20   6   6    1.78    3.86
  20   6  -8    4.61    3.10
  20   6   8    1.46    3.23
  20   6 -10    0.19    2.75
  20   6  10    1.60    3.36
  20   6 -12    4.24    3.34
  20   6  12   13.31    5.27
  20   6  14   39.59    7.07
  20   6  16   46.97    7.72
  20   6  18    0.03    2.88
  20   6  20    4.45    3.14
  20   6  22    0.44    2.57
  20   8   0   32.20    6.48
  20   8  -2   28.71    6.18
  20   8   2   29.63    6.28
  20   8  -4   15.75    4.22
  20   8   4   13.44    4.25
  20   8  -6    0.23    3.15
  20   8   6    0.21    4.78
  20   8  -8    5.35    3.61
  20   8   8    0.32    3.81
  20   8 -10    0.19    3.36
  20   8  10    0.03    4.73
  20   8 -12   41.84    6.82
  20   8  12   56.68    7.87
  20   8  14   93.80   10.28
  20   8  16   40.28    6.86
  20   8  18   15.51    4.61
  20   8  20    0.06    2.99
  20   8  22    0.22    2.35
  20  10   0   42.86    7.38
  20  10  -2   21.70    4.53
  20  10   2   23.06    5.05
  20  10  -4    6.59    3.08
  20  10   4    3.74    3.29
  20  10  -6    0.52    3.26
  20  10   6    0.42    4.80
  20  10  -8    2.39    2.80
  20  10   8    0.03    4.75
  20  10 -10    8.85    3.22
  20  10  10    1.91    3.74
  20  10 -12   44.76    7.35
  20  10  12   65.78    9.16
  20  10  14   62.23    7.41
  20  10  16   31.00    6.36
  20  10  18   11.64    3.71
  20  10  20    0.09    2.54
  20  10  22    0.03    2.40
  20  12   0   38.29    6.54
  20  12  -2    6.28    3.68
  20  12   2    8.52    4.16
  20  12  -4    0.49    4.05
  20  12   4    0.46    3.17
  20  12  -6    3.54    3.39
  20  12   6    0.04    3.18
  20  12  -8    8.22    3.22
  20  12   8    0.68    3.28
  20  12 -10    7.48    2.73
  20  12  10    2.22    3.88
  20  12 -12   17.01    4.69
  20  12  12   28.26    5.85
  20  12  14   17.27    4.77
  20  12  16    9.91    4.10
  20  12  18    0.53    2.38
  20  12  20    0.05    2.58
  20  14   0    9.42    2.99
  20  14  -2    0.85    3.04
  20  14   2    0.80    2.60
  20  14   4    7.00    3.35
  20  14  -4    6.17    3.22
  20  14   4    6.25    3.43
  20 -14  -4    0.14    2.30
  20  14   6   16.50    5.28
  20  14  -6   32.79    6.15
  20  14   6   28.86    6.09
  20  14   8    4.58    3.23
  20  14  -8    6.39    3.62
  20  14   8    4.40    3.21
  20  14  10    1.76    3.65
  20  14 -10    0.29    2.47
  20  14  10    0.13    2.84
  20  14  12    3.38    3.37
  20  14  14    0.50    2.97
  20  14  16    0.04    2.35
  20  14  18    6.47    3.07
  20  16   0    0.01    3.41
  20  16  -2    0.44    3.60
  20  16   2    0.55    3.88
  20 -16  -2    0.65    3.35
  20  16   4   13.47    3.97
  20  16  -4    9.11    3.24
  20  16   4    9.92    3.39
  20 -16  -4    5.53    2.73
  20  16   6   38.75    6.77
  20  16  -6   47.31    6.47
  20  16   6   48.08    6.67
  20 -16  -6   32.64    5.19
  20  16   8   19.12    5.18
  20  16  -8   22.26    4.82
  20  16   8   28.09    5.71
  20 -16  -8   17.72    4.07
  20  16  10    4.83    3.14
  20  16 -10    1.24    2.28
  20  16  10    0.17    2.92
  20  16  12    1.09    2.42
  20  16  14    0.20    2.68
  20  16  16    0.77    2.06
  20  18   0    0.24    3.33
  20  18  -2    0.00    2.52
  20  18   2    0.69    2.75
  20 -18  -2    1.41    2.24
  20  18   4    8.63    2.89
  20  18  -4    9.67    3.21
  20  18   4   13.17    3.41
  20 -18  -4    9.83    2.56
  20  18   6   37.98    6.41
  20  18  -6   38.11    6.08
  20  18   6   40.13    6.02
  20 -18  -6   23.28    4.56
  20  18   8   25.02    4.47
  20  18  -8   23.62    4.33
  20  18   8   23.02    3.99
  20 -18  -8   15.74    2.89
  20  18  10   15.03    4.01
  20  18  10   16.36    3.50
  20 -18 -10   13.56    2.83
  20  18  12    0.18    2.01
  20  18  14    0.04    2.25
  20  20   0    4.30    1.94
  20 -20   0    0.77    2.82
  20  20  -2    0.49    1.92
  20  20   2    0.12    2.21
  20 -20  -2    0.09    2.00
  20  20  -4    6.29    2.27
  20  20   4    7.55    2.49
  20 -20  -4    8.82    2.80
  20  20   6    5.10    2.76
  20  20  -6   11.01    3.28
  20  20   6    3.49    2.44
  20 -20  -6    4.85    2.45
  20  20   8   41.97    5.29
  20  20   8   39.97    4.55
  20 -20  -8   31.82    3.95
  20  20  10    8.29    3.09
  20  20  10   11.91    3.09
  20 -20 -10    5.76    2.22
  20  20  12    0.18    2.04
  20 -20 -12    1.61    1.46
  20  22   0    7.91    2.63
  20 -22   0    9.13    3.30
  20  22  -2    0.90    1.84
  20  22   2    0.66    1.62
  20 -22  -2    0.17    1.90
  20 -22   2    0.31    2.37
  20  22   4    0.19    1.57
  20 -22  -4    1.61    2.11
  20  22   6    6.68    1.96
  20 -22  -6   10.57    2.75
  20  22   8    4.19    1.64
  20 -22  -8    7.80    2.16
  21  -1  -1   14.01    3.93
  21   1  -1   13.18    4.24
  21  -1   1   11.37    3.47
  21   1   1   16.36    4.22
  21  -1  -3   12.44    4.57
  21   1  -3    8.72    4.76
  21  -1   3    1.00    3.00
  21   1   3    0.98    2.82
  21  -1  -5    6.10    2.71
  21   1  -5    8.89    3.04
  21  -1   5    0.30    2.63
  21   1   5    0.83    2.77
  21  -1  -7    6.15    3.08
  21   1  -7    7.48    3.45
  21  -1   7    2.04    2.40
  21   1   7    3.52    2.89
  21  -1  -9    6.97    2.98
  21   1  -9    2.06    2.26
  21  -1   9    3.76    2.90
  21   1   9    2.82    2.58
  21   1 -11    9.02    3.66
  21  -1  11    8.22    4.14
  21   1  11   13.01    4.33
  21  -1  13    8.09    3.77
  21   1  13    3.31    3.49
  21  -1  15    6.02    3.04
  21   1  15    3.33    2.60
  21  -1  17    0.05    2.17
  21   1  17    0.16    3.25
  21  -1  19    6.47    2.41
  21   1  19    2.70    2.23
  21  -1  21    3.61    1.85
  21   1  21    1.97    1.87
  21  -3  -1   10.38    2.91
  21  -3   1    8.84    3.24
  21   3  -1   16.17    4.20
  21   3   1    9.58    3.51
  21  -3  -3    0.93    2.37
  21   3  -3    2.69    3.60
  21  -3   3    0.25    2.46
  21   3   3    0.16    3.14
  21  -3  -5    0.05    2.33
  21   3  -5    0.07    2.76
  21  -3   5    0.12    2.48
  21  -3  -7    8.82    3.12
  21   3  -7   20.22    4.91
  21  -3   7   13.00    3.90
  21   3   7   16.68    5.17
  21  -3  -9    0.04    2.02
  21   3  -9    1.40    2.41
  21  -3   9    0.18    2.97
  21   3   9    0.39    3.21
  21   3 -11    1.77    2.82
  21  -3  11    0.46    2.37
  21   3  11    2.12    3.35
  21  -3  13   21.44    4.74
  21   3  13   24.33    5.14
  21  -3  15    2.88    2.29
  21   3  15    3.30    2.80
  21  -3  17    0.01    2.73
  21   3  17    0.01    3.47
  21  -3  19    4.29    1.95
  21   3  19    0.13    2.53
  21   3  21    6.33    2.13
  21   5  -1    6.35    2.85
  21   5   1    4.80    2.98
  21   5  -3    4.31    3.85
  21   5   3    2.43    3.69
  21   5  -5    8.78    3.43
  21   5   5    3.47    3.53
  21   5  -7    6.59    3.90
  21   5   7    4.35    3.98
  21   5  -9   16.56    4.19
  21   5   9   11.80    4.50
  21   5 -11    0.66    2.52
  21   5  11    2.46    4.19
  21   5  13    3.20    2.68
  21   5  15   17.81    4.14
  21   5  17    0.66    3.05
  21   5  19    4.57    2.98
  21   5  21    4.13    2.43
  21   7  -1    7.04    3.48
  21   7   1    5.10    2.96
  21   7  -3    0.29    2.90
  21   7   3    0.05    2.91
  21   7  -5    1.39    2.71
  21   7   5    3.29    3.88
  21   7  -7   29.60    6.33
  21   7   7   25.32    6.57
  21   7  -9   14.31    3.83
  21   7   9    5.16    3.14
  21   7 -11    0.19    2.60
  21   7  11    0.18    3.47
  21   7  13    4.76    2.96
  21   7  15   18.41    4.63
  21   7  17    3.93    3.26
  21   7  19    2.97    2.24
  21   7  21    9.54    2.66
  21   9  -1    3.13    2.96
  21   9   1    8.00    3.84
  21   9  -3    0.26    2.67
  21   9   3    0.12    3.48
  21   9  -5   13.84    4.72
  21   9   5   10.26    4.63
  21   9  -7   12.73    4.54
  21   9   7   16.97    5.86
  21   9  -9    7.39    3.20
  21   9   9    5.25    3.12
  21   9 -11    0.31    2.88
  21   9  11    1.92    3.33
  21   9  13    8.52    3.71
  21   9  15    7.62    3.84
  21   9  17    2.30    2.89
  21   9  19    0.21    2.18
  21  11  -1    3.15    2.65
  21  11   1    8.11    2.99
  21  11  -3    0.48    2.83
  21  11   3    0.77    3.63
  21  11  -5   19.81    4.81
  21  11   5   16.15    4.76
  21  11  -7    7.43    3.88
  21  11   7   14.36    5.37
  21  11  -9    3.19    3.48
  21  11   9    2.44    2.82
  21  11 -11    0.16    2.94
  21  11  11    0.17    3.36
  21  11  13    9.36    3.53
  21  11  15    2.03    2.50
  21  11  17    0.17    2.62
  21  11  19    0.06    2.39
  21  13  -1    5.90    2.76
  21  13   1    2.20    2.71
  21  13  -3    0.22    2.53
  21  13   3    0.38    3.10
  21  13  -5   11.83    4.09
  21  13   5   12.95    4.26
  21  13  -7   13.06    4.38
  21  13   7   17.11    4.92
  21  13  -9    1.09    2.78
  21  13   9    1.87    2.60
  21  13  11    2.02    2.91
  21  13  13    1.56    2.38
  21  13  15    0.01    2.33
  21  13  17    0.48    2.37
  21  15  -1    0.52    2.31
  21  15   1    4.17    2.74
  21 -15  -1    4.52    2.36
  21  15  -3    0.55    2.32
  21  15   3    0.21    3.12
  21  15  -5    6.29    3.14
  21  15   5    5.61    2.90
  21  15  -7   13.08    4.12
  21  15   7   14.45    4.42
  21  15  -9    0.47    2.15
  21  15   9    0.09    2.75
  21  15  11    1.28    2.41
  21  15  13    0.05    2.11
  21  15  15    0.66    2.54
  21  17  -1   10.62    3.57
  21  17   1    7.42    3.28
  21 -17  -1    8.52    3.16
  21 -17   1   12.66    3.81
  21  17  -3    0.54    2.48
  21  17   3    0.17    2.43
  21 -17  -3    1.48    2.05
  21  17  -5    2.60    2.13
  21  17   5    1.05    2.06
  21  17  -7    9.67    3.48
  21  17   7    7.43    3.36
  21  17   9    0.07    2.27
  21  17  11    0.79    2.44
  21  17  13    8.20    3.18
  21  19  -1    8.77    2.80
  21  19   1    8.98    2.44
  21 -19  -1    8.07    2.37
  21 -19   1   12.41    3.07
  21  19  -3    3.75    2.73
  21  19   3    0.25    1.83
  21 -19  -3    5.92    2.20
  21 -19   3    2.50    2.39
  21  19  -5    3.64    1.84
  21  19   5    3.67    1.98
  21 -19  -5    0.77    3.00
  21  19   7    1.37    1.95
  21  19   9    8.26    2.24
  21  21  -1    4.71    1.70
  21  21   1    7.84    1.77
  21 -21  -1    3.64    1.61
  21 -21   1    9.09    2.16
  21  21   3    0.62    1.60
  21 -21  -3    0.35    1.68
  21 -21   3    2.96    1.95
  22   0   0   43.09    7.37
  22   0  -2   17.89    3.64
  22   0   2   20.95    4.42
  22   0  -4    6.30    2.86
  22   0   4    4.92    2.52
  22   0  -6    6.67    2.74
  22   0   6    8.55    3.36
  22   0  -8    0.18    3.18
  22   0   8    0.33    2.97
  22   0  10   23.58    4.67
  22   0  12    8.17    3.48
  22   0  14   31.52    5.91
  22   0  16   28.43    4.30
  22   0  18    1.05    2.38
  22  -2   0   25.70    3.72
  22   2   0   22.94    3.57
  22  -2  -2   15.77    3.95
  22   2  -2   16.49    4.55
  22  -2   2   19.22    4.26
  22   2   2    9.75    4.14
  22  -2  -4    8.63    3.20
  22   2  -4   11.40    4.03
  22  -2   4    7.17    2.98
  22   2   4    3.41    2.51
  22  -2  -6    0.08    2.07
  22   2  -6    0.21    2.77
  22  -2   6    2.70    2.78
  22   2   6    0.13    2.45
  22  -2  -8    4.13    2.27
  22   2  -8    0.71    2.35
  22  -2   8    0.29    2.18
  22   2   8    1.23    2.61
  22   2 -10    0.72    2.48
  22  -2  10    2.88    2.99
  22   2  10    0.43    3.18
  22  -2  12   20.97    4.25
  22   2  12   21.48    4.54
  22  -2  14   24.05    4.64
  22   2  14   24.99    4.85
  22  -2  16   14.00    3.37
  22   2  16   12.30    3.29
  22  -2  18    0.52    1.70
  22   2  18    0.12    2.08
  22  -4   0    2.98    2.20
  22   4   0    8.16    3.53
  22  -4  -2    2.39    1.97
  22   4  -2   14.07    3.69
  22   4   2   11.19    3.86
  22   4  -4    0.25    2.67
  22   4   4    0.10    3.05
  22   4  -6    1.28    2.53
  22   4   6    3.44    3.42
  22   4  -8   11.57    3.74
  22   4   8    5.84    3.67
  22   4 -10    2.73    2.80
  22   4  10    1.41    2.98
  22   4  12   13.20    3.52
  22   4  14   19.08    4.77
  22   4  16    1.26    2.14
  22   4  18    0.17    2.54
  22   6   0    0.65    2.73
  22   6  -2    0.53    3.57
  22   6   2    1.39    3.12
  22   6  -4    1.93    3.14
  22   6   4    0.28    2.93
  22   6  -6   25.16    5.03
  22   6   6   28.92    5.67
  22   6  -8   25.85    5.15
  22   6   8   25.94    5.96
  22   6 -10    3.37    3.17
  22   6  10   10.85    4.48
  22   6  12    1.83    3.27
  22   6  14    5.65    4.04
  22   6  16    0.03    2.50
  22   6  18    2.37    2.01
  22   8   0    0.60    3.60
  22   8  -2    0.61    3.28
  22   8   2    0.92    2.70
  22   8  -4   22.53    5.11
  22   8   4   19.45    4.94
  22   8  -6   28.85    5.13
  22   8   6   33.05    6.09
  22   8  -8   50.00    6.57
  22   8   8   42.64    7.03
  22   8 -10    1.90    2.30
  22   8  10    6.59    3.61
  22   8  12    0.84    2.58
  22   8  14    0.24    2.76
  22   8  16    0.20    2.09
  22  10   0    0.19    3.91
  22  10  -2    0.64    3.61
  22  10   2    0.63    3.57
  22  10  -4   29.07    5.04
  22  10   4   31.53    5.19
  22  10  -6   47.05    6.21
  22  10   6   40.77    6.21
  22  10  -8   21.43    4.51
  22  10   8   18.78    5.09
  22  10 -10    6.32    3.02
  22  10  10   11.07    3.94
  22  10  12    0.37    3.29
  22  10  14    0.19    3.41
  22  10  16    0.26    3.01
  22  12   0    0.10    2.92
  22  12  -2    0.19    3.14
  22  12   2    0.40    2.72
  22  12  -4   12.34    3.12
  22  12   4   11.77    3.48
  22  12  -6   34.53    5.29
  22  12   6   35.66    5.65
  22  12  -8   11.08    3.57
  22  12   8    5.41    3.38
  22  12  10    2.53    2.91
  22  12  12    0.02    2.57
  22  12  14    0.03    2.15
  22  14   0    3.46    2.17
  22  14  -2    3.06    2.39
  22  14   2    0.19    2.31
  22  14  -4    3.24    2.25
  22  14   4    1.33    2.31
  22  14  -6    5.73    2.96
  22  14   6    9.05    3.59
  22  14  -8    5.56    2.66
  22  14   8    7.28    2.80
  22  14  10    1.76    2.38
  22  14  12    1.59    1.93
  22  16   0   20.95    4.32
  22  16  -2    3.42    2.70
  22  16   2    7.55    3.18
  22  16  -4    2.38    2.58
  22  16   4    0.05    2.50
  22  16  -6    0.06    1.95
  22  16   6    0.09    1.98
  22  16   8    0.03    2.35
  22  16  10    2.56    2.52
  22  18   0   24.51    4.33
  22  18  -2   15.39    3.10
  22  18   2   19.40    3.53
  22 -18   2   13.07    2.63
  22  18  -4    2.24    1.82
  22  18   4    3.19    1.72
  22 -18   4    2.99    1.72
  23  -1  -1   32.67    5.07
  23   1  -1   35.37    5.56
  23  -1   1   30.91    5.12
  23   1   1   39.53    5.88
  23  -1  -3   10.60    2.73
  23   1  -3   11.24    3.24
  23  -1   3   15.02    3.35
  23   1   3   14.20    3.56
  23  -1  -5    8.95    2.86
  23   1  -5   14.93    3.62
  23  -1   5   13.89    3.45
  23   1   5   16.19    3.81
  23   1  -7    1.12    2.38
  23  -1   7    1.04    2.19
  23   1   7    1.14    2.46
  23  -1   9   10.62    3.49
  23   1   9    8.03    3.26
  23  -1  11    7.31    2.68
  23   1  11    5.28    2.58
  23  -1  13   26.27    4.23
  23   1  13   29.41    4.72
  23  -1  15   38.88    4.63
  23   1  15   56.71    5.77
  23  -3  -1   10.53    2.76
  23  -3   1    9.35    2.71
  23   3  -1    8.37    2.73
  23   3   1   11.90    3.14
  23  -3  -3   10.72    2.77
  23   3  -3   14.29    3.70
  23  -3   3   14.30    3.61
  23   3   3   14.26    3.59
  23  -3  -5    0.05    1.73
  23   3  -5    0.02    2.37
  23  -3   5    1.09    2.04
  23   3   5    0.09    2.40
  23   3  -7    0.02    2.51
  23   3   7    1.56    2.31
  23   3   9    2.69    2.32
  23   3  11    9.44    3.00
  23   3  13   17.12    3.99
  23   3  15   18.27    3.87
  23   5  -1    1.39    2.28
  23   5   1    0.84    2.62
  23   5  -3    0.26    2.99
  23   5   3    0.50    2.51
  23   5  -5    0.90    2.50
  23   5   5    1.37    2.44
  23   5  -7   21.92    4.54
  23   5   7   22.44    4.71
  23   5  -9    4.09    2.53
  23   5   9    8.12    3.41
  23   5  11    0.03    2.15
  23   5  13   12.43    3.35
  23   5  15    0.05    2.19
  23   7  -1    0.35    2.92
  23   7   1    0.28    3.30
  23   7  -3    1.29    2.77
  23   7   3    8.27    2.53
  23   7  -5   34.40    5.26
  23   7   5   35.61    5.69
  23   7  -7   32.37    5.28
  23   7   7   33.97    5.72
  23   7  -9   24.83    4.43
  23   7   9   20.65    4.27
  23   7  11    2.16    2.68
  23   7  13    0.03    2.91
  23   9  -1    0.12    3.62
  23   9  -3   23.94    5.07
  23   9   3   20.20    4.80
  23   9  -5   43.26    5.87
  23   9   5   46.76    6.24
  23   9  -7   45.84    6.21
  23   9   7   55.42    6.81
  23   9   9   19.96    4.39
  23   9  11    0.85    2.34
  23   9  13    8.18    2.51
  23  11  -1    0.16    2.80
  23  11   1    0.20    3.00
  23  11  -3    8.30    3.03
  23  11   3    6.22    2.77
  23  11  -5   43.23    6.11
  23  11   5   47.65    6.20
  23  11   7   40.87    5.39
  23  11  -7   23.50    4.57
  23  11   9    7.90    3.27
  23  11  11    5.77    2.96
  23  13  -1    1.47    2.19
  23  13   1    0.07    2.17
  23  13  -3    0.19    2.29
  23  13   3    0.22    2.46
  23  13  -5    8.70    3.19
  23  13   5   11.83    3.39
  23  13  -7    8.75    2.88
  23  13   7   14.11    3.37
  23  13   9    1.45    2.01
  23  15  -1    9.75    3.29
  23  15   1   11.77    3.32
  23  15  -3    0.15    1.91
  23  15   3    4.08    2.05
  24   0   0   30.75    5.38
  24   0  -2   13.66    3.13
  24   0   2   20.03    3.81
  24   0  -4   23.80    4.09
  24   0   4   26.46    4.39
  24   0   6    2.21    1.77
  24   0   8    5.94    2.29
  24   0  10    0.87    1.63
  24   0  12   15.53    2.58
  24  -2   0    9.59    2.45
  24   2   0   14.27    3.07
  24   2  -2   19.77    4.04
  24   2   2   21.78    4.29
  24   2  -4    3.77    2.23
  24   2   4   10.91    3.11
  24   2  -6    1.44    1.72
  24   2   6    5.06    2.56
  24   2   8    0.00    2.04
  24   2  10    3.67    2.30
  24   4   0    9.51    3.46
  24   4  -2    2.11    1.97
  24   4   2    0.23    2.64
  24   4  -4    0.01    2.83
  24   4   4    2.13    2.23
  24   4  -6    0.24    2.03
  24   4   6    3.31    2.21
  24   4   8    4.15    2.40
  24   4  10    0.03    1.72
  24   6   0    0.03    2.21
  24   6  -2    0.01    2.54
  24   6   2    0.01    2.06
  24   6  -4   12.35    3.40
  24   6   4    7.71    3.31
  24   6  -6   11.68    2.56
  24   6   6   15.90    3.25
  24   6   8   17.17    3.89
  24   6  10    2.87    2.36
  24   8   0    0.04    3.34
  24   8  -2    4.65    2.09
  24   8   2    3.23    2.31
  24   8   4   28.38    4.99
  24   8  -4   18.77    4.21
  24   8  -6   33.80    5.03
  24   8   6   50.06    5.98
  24   8   8   24.89    4.34
  24  10   0    0.11    3.18
  24  10  -2    2.36    2.48
  24  10   2    4.64    1.97
  24  10   4   27.36    4.60
  24  10  -4   19.75    4.19
  24  10  -6   35.79    5.01
  24  10   6   52.59    5.89
  25   1  -1   13.83    2.72
  25   1   1   12.64    2.65
  25   1   3   20.71    2.73
  25   3  -1   14.62    3.11
  25   3   1    9.09    2.69
  25   3  -3    3.48    1.68
  25   3   3    0.44    1.76
   0   0   0    0.00    0.00


_computing_structure_solution     'SHELXT 2014/5 (Sheldrick, 2014)'
;
_shelx_hkl_checksum              25154
_olex2_submission_special_instructions 'No special instructions were received'
loop_
_space_group_symop_operation_xyz
'x, y, z'
'-x, -y, z'
'-x, y, -z'
'x, -y, -z'
'x, y+1/2, z+1/2'
'-x, -y+1/2, z+1/2'
'-x, y+1/2, -z+1/2'
'x, -y+1/2, -z+1/2'
'x+1/2, y, z+1/2'
'-x+1/2, -y, z+1/2'
'-x+1/2, y, -z+1/2'
'x+1/2, -y, -z+1/2'
'x+1/2, y+1/2, z'
'-x+1/2, -y+1/2, z'
'-x+1/2, y+1/2, -z'
'x+1/2, -y+1/2, -z'
'-x, -y, -z'
'x, y, -z'
'x, -y, z'
'-x, y, z'
'-x, -y+1/2, -z+1/2'
'x, y+1/2, -z+1/2'
'x, -y+1/2, z+1/2'
'-x, y+1/2, z+1/2'
'-x+1/2, -y, -z+1/2'
'x+1/2, y, -z+1/2'
'x+1/2, -y, z+1/2'
'-x+1/2, y, z+1/2'
'-x+1/2, -y+1/2, -z'
'x+1/2, y+1/2, -z'
'x+1/2, -y+1/2, z'
'-x+1/2, y+1/2, z'
loop_
_atom_site_label
_atom_site_type_symbol
_atom_site_fract_x
_atom_site_fract_y
_atom_site_fract_z
_atom_site_U_iso_or_equiv
_atom_site_adp_type
_atom_site_occupancy
_atom_site_site_symmetry_order
_atom_site_calc_flag
_atom_site_refinement_flags_posn
_atom_site_refinement_flags_adp
_atom_site_refinement_flags_occupancy
_atom_site_disorder_assembly
_atom_site_disorder_group
Zr01 Zr 0.500000 0.500000 0.57238(2) 0.03038(19) Uani 1 4 d S T P . .
Zr02 Zr 0.58325(2) 0.55457(2) 0.500000 0.03319(18) Uani 1 2 d S T P . .
O003 O 0.56277(13) 0.54128(6) 0.60556(7) 0.0355(5) Uani 1 1 d . . . . .
O004 O 0.61605(15) 0.57736(7) 0.55980(7) 0.0482(7) Uani 1 1 d . . . . .
O005 O 0.5833(3) 0.500000 0.53540(12) 0.0709(16) Uani 1 2 d S T P . .
O006 O 0.500000 0.55418(16) 0.53503(14) 0.0701(15) Uani 1 2 d S T P . .
O007 O 0.6868(2) 0.55155(15) 0.500000 0.0615(12) Uani 1 2 d S T P . .
O008 O 0.5680(3) 0.62141(11) 0.500000 0.0788(17) Uani 1 2 d S T P . .
C009 C 0.62980(19) 0.59430(10) 0.62710(9) 0.0399(9) Uani 1 1 d . . . . .
C00A C 0.750000 0.72673(12) 0.750000 0.0337(10) Uani 1 2 d S T P . .
C00B C 0.60048(19) 0.56949(10) 0.59475(10) 0.0395(8) Uani 1 1 d . . . . .
C00C C 0.6856(2) 0.63950(10) 0.68789(10) 0.0423(9) Uani 1 1 d . . . . .
C00D C 0.71610(19) 0.70535(9) 0.72134(10) 0.0375(8) Uani 1 1 d . . . . .
C00E C 0.6771(2) 0.72839(10) 0.69087(11) 0.0470(10) Uani 1 1 d . . . . .
H00A H 0.664218 0.754452 0.701518 0.071 Uiso 1 1 calc GR . . . .
H00B H 0.640403 0.712469 0.684205 0.071 Uiso 1 1 calc GR . . . .
H00C H 0.702164 0.732818 0.667619 0.071 Uiso 1 1 calc GR . . . .
C00F C 0.6305(2) 0.61679(11) 0.69436(10) 0.0462(9) Uani 1 1 d . . . . .
H00F H 0.612361 0.616745 0.719356 0.055 Uiso 1 1 calc R . . . .
C00G C 0.71675(19) 0.66244(9) 0.72063(10) 0.0395(9) Uani 1 1 d . . . . .
C00H C 0.6023(2) 0.59442(11) 0.66454(11) 0.0469(9) Uani 1 1 d . . . . .
H00H H 0.565489 0.579596 0.669342 0.056 Uiso 1 1 calc R . . . .
C00I C 0.750000 0.64064(14) 0.750000 0.0503(15) Uani 1 2 d S T P . .
C00J C 0.7103(2) 0.64000(13) 0.65078(11) 0.0575(12) Uani 1 1 d . . . . .
H00J H 0.746493 0.655367 0.645745 0.069 Uiso 1 1 calc R . . . .
C00K C 0.6821(2) 0.61785(13) 0.62015(11) 0.0577(12) Uani 1 1 d . . . . .
H00K H 0.699152 0.619131 0.594873 0.069 Uiso 1 1 calc R . . . .
C00L C 0.750000 0.59398(16) 0.750000 0.074(2) Uani 1 2 d S T P . .
H00D H 0.709727 0.584127 0.759064 0.111 Uiso 0.5 1 calc GR . . A -1
H00E H 0.782723 0.584127 0.767219 0.111 Uiso 0.5 1 calc GR . . A -1
H00G H 0.757549 0.584127 0.723717 0.111 Uiso 0.5 1 calc GR . . A -1
loop_
_atom_site_aniso_label
_atom_site_aniso_U_11
_atom_site_aniso_U_22
_atom_site_aniso_U_33
_atom_site_aniso_U_23
_atom_site_aniso_U_13
_atom_site_aniso_U_12
Zr01 0.0544(4) 0.0166(3) 0.0201(3) 0.000 0.000 0.000
Zr02 0.0574(3) 0.0201(2) 0.0221(2) 0.000 0.000 -0.00372(15)
O003 0.0591(15) 0.0207(10) 0.0267(11) -0.0029(8) -0.0059(11) -0.0019(10)
O004 0.087(2) 0.0344(12) 0.0233(12) -0.0019(10) -0.0035(12) -0.0197(13)
O005 0.148(5) 0.0149(15) 0.050(2) 0.000 0.055(3) 0.000
O006 0.054(3) 0.108(4) 0.048(3) 0.046(2) 0.000 0.000
O007 0.051(2) 0.094(4) 0.039(2) 0.000 0.000 -0.002(2)
O008 0.178(5) 0.0158(16) 0.043(2) 0.000 0.000 0.008(2)
C009 0.071(3) 0.0254(15) 0.0236(16) -0.0007(12) -0.0090(16) -0.0080(15)
C00A 0.051(3) 0.021(2) 0.029(2) 0.000 -0.004(2) 0.000
C00B 0.060(2) 0.0275(16) 0.0308(18) -0.0046(13) -0.0034(16) -0.0085(15)
C00C 0.075(3) 0.0194(15) 0.0327(18) 0.0024(13) -0.0078(18) 0.0002(15)
C00D 0.064(2) 0.0200(15) 0.0282(16) 0.0022(12) -0.0051(16) -0.0026(15)
C00E 0.073(3) 0.0249(16) 0.043(2) 0.0066(14) -0.0137(19) 0.0032(16)
C00F 0.075(3) 0.0352(18) 0.0283(17) -0.0077(14) -0.0002(17) 0.0000(17)
C00G 0.069(3) 0.0193(15) 0.0302(17) 0.0039(12) -0.0105(17) -0.0011(15)
C00H 0.069(3) 0.0360(18) 0.0362(19) -0.0028(15) -0.0014(19) -0.0052(17)
C00I 0.097(5) 0.018(2) 0.036(3) 0.000 -0.016(3) 0.000
C00J 0.090(3) 0.052(2) 0.0304(19) -0.0014(16) -0.007(2) -0.029(2)
C00K 0.093(3) 0.051(2) 0.0296(18) -0.0034(16) 0.001(2) -0.026(2)
C00L 0.148(7) 0.023(3) 0.051(3) 0.000 -0.038(4) 0.000
loop_
_atom_type_symbol
_atom_type_description
_atom_type_scat_dispersion_real
_atom_type_scat_dispersion_imag
_atom_type_scat_source
C C 0.0181 0.0091 'International Tables Vol C Tables 4.2.6.8 and 6.1.1.4'
H H 0.0000 0.0000 'International Tables Vol C Tables 4.2.6.8 and 6.1.1.4'
O O 0.0492 0.0322 'International Tables Vol C Tables 4.2.6.8 and 6.1.1.4'
Zr Zr -0.1862 2.2449 'International Tables Vol C Tables 4.2.6.8 and 6.1.1.4'
loop_
_geom_angle_atom_site_label_1
_geom_angle_atom_site_label_2
_geom_angle_atom_site_label_3
_geom_angle
_geom_angle_site_symmetry_1
_geom_angle_site_symmetry_3
Zr02 Zr01 Zr02 60.828(13) 19_565 .
Zr02 Zr01 Zr02 60.352(15) 17_666 19_565
Zr02 Zr01 Zr02 91.025(15) 3_656 19_565
Zr02 Zr01 Zr02 91.025(15) 17_666 .
Zr02 Zr01 Zr02 60.827(13) 17_666 3_656
Zr02 Zr01 Zr02 60.352(15) 3_656 .
O003 Zr01 Zr02 166.32(6) . 17_666
O003 Zr01 Zr02 75.29(6) 2_665 17_666
O003 Zr01 Zr02 75.29(6) 20_655 3_656
O003 Zr01 Zr02 110.70(6) 19_565 17_666
O003 Zr01 Zr02 110.70(6) 2_665 19_565
O003 Zr01 Zr02 166.32(6) 20_655 19_565
O003 Zr01 Zr02 110.70(6) 20_655 .
O003 Zr01 Zr02 75.29(6) 19_565 19_565
O003 Zr01 Zr02 111.36(7) 19_565 .
O003 Zr01 Zr02 166.32(6) 19_565 3_656
O003 Zr01 Zr02 111.36(7) . 19_565
O003 Zr01 Zr02 110.70(6) . 3_656
O003 Zr01 Zr02 75.29(6) . .
O003 Zr01 Zr02 111.36(7) 20_655 17_666
O003 Zr01 Zr02 166.32(6) 2_665 .
O003 Zr01 Zr02 111.36(7) 2_665 3_656
O003 Zr01 O003 75.25(12) . 19_565
O003 Zr01 O003 75.25(12) 2_665 20_655
O003 Zr01 O003 74.34(13) 2_665 19_565
O003 Zr01 O003 118.39(12) 20_655 19_565
O003 Zr01 O003 118.39(12) . 2_665
O003 Zr01 O003 74.34(13) . 20_655
O005 Zr01 Zr02 90.18(13) . 3_656
O005 Zr01 Zr02 90.18(13) 2_665 .
O005 Zr01 Zr02 35.32(7) 2_665 17_666
O005 Zr01 Zr02 35.32(7) . 19_565
O005 Zr01 Zr02 90.18(13) . 17_666
O005 Zr01 Zr02 35.33(7) . .
O005 Zr01 Zr02 90.18(13) 2_665 19_565
O005 Zr01 Zr02 35.32(7) 2_665 3_656
O005 Zr01 O003 78.75(13) 2_665 2_665
O005 Zr01 O003 142.11(6) . 2_665
O005 Zr01 O003 142.11(6) 2_665 .
O005 Zr01 O003 78.74(13) . .
O005 Zr01 O003 142.11(6) 2_665 19_565
O005 Zr01 O003 78.75(13) . 19_565
O005 Zr01 O003 142.11(6) . 20_655
O005 Zr01 O003 78.75(13) 2_665 20_655
O005 Zr01 O005 109.1(3) 2_665 .
O005 Zr01 O006 70.21(10) . .
O005 Zr01 O006 70.20(10) . 2_665
O005 Zr01 O006 70.21(10) 2_665 .
O005 Zr01 O006 70.21(10) 2_665 2_665
O006 Zr01 Zr02 34.90(7) . 3_656
O006 Zr01 Zr02 34.90(7) 2_665 17_666
O006 Zr01 Zr02 90.10(13) . 17_666
O006 Zr01 Zr02 34.90(7) . .
O006 Zr01 Zr02 90.10(13) 2_665 .
O006 Zr01 Zr02 90.10(13) . 19_565
O006 Zr01 Zr02 34.90(7) 2_665 19_565
O006 Zr01 Zr02 90.10(13) 2_665 3_656
O006 Zr01 O003 142.62(7) . 2_665
O006 Zr01 O003 78.66(14) 2_665 2_665
O006 Zr01 O003 142.62(7) 2_665 20_655
O006 Zr01 O003 142.62(7) 2_665 .
O006 Zr01 O003 78.67(14) . .
O006 Zr01 O003 78.66(13) 2_665 19_565
O006 Zr01 O003 142.62(7) . 19_565
O006 Zr01 O003 78.66(13) . 20_655
O006 Zr01 O006 108.5(3) . 2_665
Zr01 Zr02 Zr01 88.975(15) 17_666 .
Zr01 Zr02 Zr02 59.824(8) 17_666 3_656
Zr01 Zr02 Zr02 59.586(6) 17_666 19_565
Zr01 Zr02 Zr02 59.586(6) . 19_565
Zr01 Zr02 Zr02 59.824(8) . 3_656
Zr02 Zr02 Zr02 90.0 3_656 19_565
O004 Zr02 Zr01 72.09(7) 18_556 17_666
O004 Zr02 Zr01 161.05(7) . 17_666
O004 Zr02 Zr01 72.09(7) . .
O004 Zr02 Zr01 161.05(7) 18_556 .
O004 Zr02 Zr02 107.82(8) . 3_656
O004 Zr02 Zr02 109.07(6) . 19_565
O004 Zr02 Zr02 107.82(8) 18_556 3_656
O004 Zr02 Zr02 109.07(6) 18_556 19_565
O004 Zr02 O004 126.82(13) 18_556 .
O005 Zr02 Zr01 88.50(13) 18_556 .
O005 Zr02 Zr01 88.50(13) . 17_666
O005 Zr02 Zr01 35.72(12) . .
O005 Zr02 Zr01 35.72(12) 18_556 17_666
O005 Zr02 Zr02 34.10(9) . 19_565
O005 Zr02 Zr02 90.02(15) 18_556 3_656
O005 Zr02 Zr02 90.02(15) . 3_656
O005 Zr02 Zr02 34.10(9) 18_556 19_565
O005 Zr02 O004 76.65(13) . .
O005 Zr02 O004 140.51(11) . 18_556
O005 Zr02 O004 140.51(11) 18_556 .
O005 Zr02 O004 76.65(13) 18_556 18_556
O005 Zr02 O005 68.20(19) . 18_556
O005 Zr02 O007 87.85(19) . .
O005 Zr02 O007 87.85(19) 18_556 .
O005 Zr02 O008 145.00(9) 18_556 .
O005 Zr02 O008 145.00(9) . .
O006 Zr02 Zr01 88.41(14) . 17_666
O006 Zr02 Zr01 35.75(11) 18_556 17_666
O006 Zr02 Zr01 35.74(11) . .
O006 Zr02 Zr01 88.41(14) 18_556 .
O006 Zr02 Zr02 34.01(10) 18_556 3_656
O006 Zr02 Zr02 34.01(10) . 3_656
O006 Zr02 Zr02 89.66(14) . 19_565
O006 Zr02 Zr02 89.66(14) 18_556 19_565
O006 Zr02 O004 75.84(15) 18_556 18_556
O006 Zr02 O004 139.09(12) . 18_556
O006 Zr02 O004 139.09(12) 18_556 .
O006 Zr02 O004 75.84(15) . .
O006 Zr02 O005 71.45(17) 18_556 18_556
O006 Zr02 O005 71.45(17) . .
O006 Zr02 O005 108.0(2) 18_556 .
O006 Zr02 O005 108.0(2) . 18_556
O006 Zr02 O006 68.0(2) 18_556 .
O006 Zr02 O007 145.88(10) 18_556 .
O006 Zr02 O007 145.87(10) . .
O006 Zr02 O008 83.3(2) 18_556 .
O006 Zr02 O008 83.3(2) . .
O007 Zr02 Zr01 118.65(8) . .
O007 Zr02 Zr01 118.65(8) . 17_666
O007 Zr02 Zr02 177.43(13) . 3_656
O007 Zr02 Zr02 87.43(13) . 19_565
O007 Zr02 O004 73.08(10) . .
O007 Zr02 O004 73.08(10) . 18_556
O007 Zr02 O008 101.0(2) . .
O008 Zr02 Zr01 115.27(11) . 17_666
O008 Zr02 Zr01 115.27(11) . .
O008 Zr02 Zr02 81.55(17) . 3_656
O008 Zr02 Zr02 171.55(17) . 19_565
O008 Zr02 O004 73.85(10) . 18_556
O008 Zr02 O004 73.85(10) . .
C00B O003 Zr01 132.3(2) . .
C00B O004 Zr02 134.2(2) . .
Zr02 O005 Zr01 108.95(17) . .
Zr02 O005 Zr01 108.96(17) 19_565 .
Zr02 O005 Zr02 111.80(19) 19_565 .
Zr02 O006 Zr01 109.36(16) 3_656 .
Zr02 O006 Zr01 109.36(16) . .
Zr02 O006 Zr02 112.0(2) . 3_656
C00H C009 C00B 119.7(3) . .
C00K C009 C00B 120.7(3) . .
C00K C009 C00H 119.5(3) . .
C00D C00A C00A 119.9(2) . 14_665
C00D C00A C00A 119.9(2) 11_656 14_665
C00D C00A C00D 120.2(4) 11_656 .
O003 C00B C009 116.0(3) . .
O004 C00B O003 125.7(3) . .
O004 C00B C009 118.3(3) . .
C00F C00C C00G 121.0(3) . .
C00J C00C C00F 118.1(3) . .
C00J C00C C00G 120.9(4) . .
C00A C00D C00E 120.5(3) . .
C00A C00D C00G 120.4(3) . .
C00G C00D C00E 119.1(3) . .
C00D C00E H00A 109.5 . .
C00D C00E H00B 109.5 . .
C00D C00E H00C 109.5 . .
H00A C00E H00B 109.5 . .
H00A C00E H00C 109.5 . .
H00B C00E H00C 109.5 . .
C00C C00F H00F 119.2 . .
C00H C00F C00C 121.5(4) . .
C00H C00F H00F 119.2 . .
C00D C00G C00C 120.5(3) . .
C00D C00G C00I 119.7(3) . .
C00I C00G C00C 119.7(3) . .
C009 C00H H00H 120.4 . .
C00F C00H C009 119.2(4) . .
C00F C00H H00H 120.4 . .
C00G C00I C00G 119.7(4) . 11_656
C00G C00I C00L 120.2(2) 11_656 .
C00G C00I C00L 120.2(2) . .
C00C C00J H00J 119.4 . .
C00C C00J C00K 121.2(4) . .
C00K C00J H00J 119.4 . .
C009 C00K C00J 120.3(4) . .
C009 C00K H00K 119.8 . .
C00J C00K H00K 119.8 . .
C00I C00L H00D 109.5 . .
C00I C00L H00E 109.5 . .
C00I C00L H00G 109.5 . .
H00D C00L H00E 109.5 . .
H00D C00L H00G 109.5 . .
H00E C00L H00G 109.5 . .
loop_
_geom_bond_atom_site_label_1
_geom_bond_atom_site_label_2
_geom_bond_distance
_geom_bond_site_symmetry_2
Zr01 Zr02 3.5010(4) 17_666
Zr01 Zr02 3.5010(4) .
Zr01 Zr02 3.5010(4) 19_565
Zr01 Zr02 3.5010(4) 3_656
Zr01 O003 2.196(2) .
Zr01 O003 2.196(2) 20_655
Zr01 O003 2.196(2) 2_665
Zr01 O003 2.196(2) 19_565
Zr01 O005 2.161(4) 2_665
Zr01 O005 2.161(4) .
Zr01 O006 2.168(4) 2_665
Zr01 O006 2.168(4) .
Zr02 Zr02 3.5448(7) 19_565
Zr02 Zr02 3.5196(9) 3_656
Zr02 O004 2.267(2) .
Zr02 O004 2.267(2) 18_556
Zr02 O005 2.140(2) .
Zr02 O005 2.140(2) 18_556
Zr02 O006 2.123(3) .
Zr02 O006 2.123(3) 18_556
Zr02 O007 2.190(5) .
Zr02 O008 2.195(4) .
O003 C00B 1.269(4) .
O004 C00B 1.256(4) .
C009 C00B 1.495(5) .
C009 C00H 1.396(5) .
C009 C00K 1.366(6) .
C00A C00A 1.512(8) 14_665
C00A C00D 1.393(4) 11_656
C00A C00D 1.393(4) .
C00C C00F 1.396(6) .
C00C C00G 1.490(5) .
C00C C00J 1.362(6) .
C00D C00E 1.518(5) .
C00D C00G 1.394(4) .
C00E H00A 0.9600 .
C00E H00B 0.9600 .
C00E H00C 0.9600 .
C00F H00F 0.9300 .
C00F C00H 1.380(5) .
C00G C00I 1.409(4) .
C00H H00H 0.9300 .
C00I C00L 1.516(7) .
C00J H00J 0.9300 .
C00J C00K 1.396(5) .
C00K H00K 0.9300 .
C00L H00D 0.9600 .
C00L H00E 0.9600 .
C00L H00G 0.9600 .
loop_
_platon_squeeze_void_nr
_platon_squeeze_void_average_x
_platon_squeeze_void_average_y
_platon_squeeze_void_average_z
_platon_squeeze_void_volume
_platon_squeeze_void_count_electrons
_platon_squeeze_void_content
1 0.296 -0.012 -0.004 16470 3927 ' '
