#------------------------------------------------------------------------------
#$Date: 2019-11-03 10:47:28 +0200 (Sun, 03 Nov 2019) $
#$Revision: 221189 $
#$URL: file:///home/coder/svn-repositories/cod/cif/4/12/80/4128058.cif $
#------------------------------------------------------------------------------
#
# This file is available in the Crystallography Open Database (COD),
# http://www.crystallography.net/
#
# All data on this site have been placed in the public domain by the
# contributors.
#
data_4128058
loop_
_publ_author_name
'Castillo-Blas, Celia'
'L\'opez-Salas, Nieves'
'Guti\'errez, Mar\'ia C'
'Puente-Orench, In\'es'
'Guti\'errez-Puebla, Enrique'
'Ferrer, M. Luisa'
'Monge, M \'Angeles'
'G\'andara, Felipe'
_publ_section_title
;
 Encoding Metal-Cation Arrangements in Metal-Organic Frameworks for
 Programming the Composition of Electrocatalytically Active Multimetal
 Oxides.
;
_journal_issue                   4
_journal_name_full               'Journal of the American Chemical Society'
_journal_page_first              1766
_journal_page_last               1774
_journal_paper_doi               10.1021/jacs.8b12860
_journal_volume                  141
_journal_year                    2019
_chemical_formula_moiety         'C17 H8 Ca0.07 Co0.5 F6 Mn0.43 O4'
_chemical_formula_sum            'C17 H8 Ca0.07 Co0.5 F6 Mn0.43 O4'
_chemical_formula_weight         446.18
_space_group_crystal_system      hexagonal
_space_group_IT_number           179
_space_group_name_Hall           'P 65 2 (0 0 1)'
_space_group_name_H-M_alt        'P 65 2 2'
_symmetry_space_group_name_Hall  'P 65 2 (0 0 1)'
_symmetry_space_group_name_H-M   'P 65 2 2'
_atom_sites_solution_hydrogens   geom
_atom_sites_solution_primary     direct
_audit_creation_date             2018-05-16
_audit_creation_method
;
Olex2 1.2
(compiled 2018.04.26 svn.r3504 for OlexSys, GUI svn.r5492)
;
_cell_angle_alpha                90
_cell_angle_beta                 90
_cell_angle_gamma                120
_cell_formula_units_Z            12
_cell_length_a                   21.2499(7)
_cell_length_b                   21.2499(7)
_cell_length_c                   15.2397(6)
_cell_measurement_reflns_used    4166
_cell_measurement_temperature    250
_cell_measurement_theta_max      56.413
_cell_measurement_theta_min      2.401
_cell_volume                     5959.7(4)
_computing_cell_refinement       'SAINT v8.37A (Bruker, 2015)'
_computing_data_reduction        'SAINT v8.37A (Bruker, 2015)'
_computing_molecular_graphics    'Olex2 (Dolomanov et al., 2009)'
_computing_publication_material  'Olex2 (Dolomanov et al., 2009)'
_computing_structure_refinement  'XL (Sheldrick, 2008)'
_computing_structure_solution    'XS (Sheldrick, 2008)'
_diffrn_ambient_temperature      250
_diffrn_measured_fraction_theta_full 0.993
_diffrn_measured_fraction_theta_max 0.993
_diffrn_measurement_device_type  'Vantec 500'
_diffrn_measurement_method       '\f and \w scans'
_diffrn_radiation_type           CuK\a
_diffrn_radiation_wavelength     1.54178
_diffrn_reflns_av_R_equivalents  0.1257
_diffrn_reflns_av_unetI/netI     0.0642
_diffrn_reflns_Laue_measured_fraction_full 0.993
_diffrn_reflns_Laue_measured_fraction_max 0.993
_diffrn_reflns_limit_h_max       24
_diffrn_reflns_limit_h_min       -24
_diffrn_reflns_limit_k_max       24
_diffrn_reflns_limit_k_min       -25
_diffrn_reflns_limit_l_max       16
_diffrn_reflns_limit_l_min       -17
_diffrn_reflns_number            35814
_diffrn_reflns_point_group_measured_fraction_full 0.994
_diffrn_reflns_point_group_measured_fraction_max 0.994
_diffrn_reflns_theta_full        65.842
_diffrn_reflns_theta_max         65.842
_diffrn_reflns_theta_min         2.401
_diffrn_standards_number         0
_exptl_absorpt_coefficient_mu    6.615
_exptl_absorpt_correction_T_max  1.0000
_exptl_absorpt_correction_T_min  0.4890
_exptl_absorpt_correction_type   multi-scan
_exptl_absorpt_process_details
'SADABS-2016/2 (Bruker,2016/2) was used for absorption correction. wR2(int) was 0.1476 before and 0.1007 after correction. The Ratio of minimum to maximum transmission is 0.4890. The \l/2 correction factor is Not present.'
_exptl_crystal_colour            blue
_exptl_crystal_colour_primary    blue
_exptl_crystal_density_diffrn    1.492
_exptl_crystal_description       needle
_exptl_crystal_F_000             2660
_exptl_crystal_size_max          0.08
_exptl_crystal_size_mid          0.02
_exptl_crystal_size_min          0.02
_refine_diff_density_max         0.425
_refine_diff_density_min         -0.521
_refine_diff_density_rms         0.083
_refine_ls_abs_structure_details
;
 Flack x determined using 879 quotients [(I+)-(I-)]/[(I+)+(I-)]
 (Parsons, Flack and Wagner, Acta Cryst. B69 (2013) 249-259).
;
_refine_ls_abs_structure_Flack   -0.017(7)
_refine_ls_extinction_method     none
_refine_ls_goodness_of_fit_ref   1.003
_refine_ls_hydrogen_treatment    constr
_refine_ls_matrix_type           full
_refine_ls_number_parameters     256
_refine_ls_number_reflns         3435
_refine_ls_number_restraints     0
_refine_ls_restrained_S_all      1.003
_refine_ls_R_factor_all          0.0795
_refine_ls_R_factor_gt           0.0605
_refine_ls_shift/su_max          0.001
_refine_ls_shift/su_mean         0.000
_refine_ls_structure_factor_coef Fsqd
_refine_ls_weighting_details
'w=1/[\s^2^(Fo^2^)+(0.1002P)^2^] where P=(Fo^2^+2Fc^2^)/3'
_refine_ls_weighting_scheme      calc
_refine_ls_wR_factor_gt          0.1502
_refine_ls_wR_factor_ref         0.1618
_reflns_Friedel_coverage         0.700
_reflns_Friedel_fraction_full    0.996
_reflns_Friedel_fraction_max     0.996
_reflns_number_gt                2702
_reflns_number_total             3435
_reflns_threshold_expression     'I > 2\s(I)'
_iucr_refine_instructions_details
;

    1.res created by SHELXL-2014/7

TITL 1 in P6522 #179
REM reset to P6522 #179
CELL 1.54178 21.2499 21.2499 15.2397 90 90 120
ZERR 12 0.0007 0.0007 0.0006 0 0 0
LATT -1
SYMM -Y+X,+X,0.833+Z
SYMM -Y,+X-Y,0.667+Z
SYMM -X,-Y,0.5+Z
SYMM +Y-X,-X,0.333+Z
SYMM +Y,-X+Y,0.167+Z
SYMM -Y+X,-Y,-Z
SYMM -X,-X+Y,0.333-Z
SYMM +Y,+X,0.667-Z
SYMM -Y,-X,0.167-Z
SYMM +Y-X,+Y,0.5-Z
SYMM +X,+X-Y,0.833-Z
SFAC C H Ca Co F Mn O
UNIT 204 96 0.8 6 72 5.2 48
EADP Mn2 Ca2
 
L.S. 12
PLAN  20
SIZE 0.02 0.02 0.08
TEMP -23.15
BOND
fmap 2
acta
REM <olex2.extras>
REM <HklSrc "%.\\CCB_MnCoCa122_0m.hkl">
REM </olex2.extras>
 
WGHT    0.100200
FVAR       0.18477   0.86664
CO1   4    0.716908    0.283092    0.083333    10.50000    0.04093    0.04093 =
         0.03386   -0.00427   -0.00427    0.02195
PART 1
MN2   6    0.650664    0.325332   -0.083333    20.50000    0.03674    0.03437 =
         0.03556    0.00329    0.00000    0.01837
PART 0
O1    7    0.575606    0.266868    0.021853    11.00000    0.04400    0.04979 =
         0.04927    0.00448    0.00110    0.01796
O2    7    0.744965    0.374051    0.020425    11.00000    0.04783    0.03493 =
         0.04390    0.00009    0.00066    0.01823
F3    5    0.295414    0.093956    0.348785    11.00000    0.08975    0.06551 =
         0.11722    0.01469    0.03570    0.04846
O4    7    0.655896    0.230244   -0.108367    11.00000    0.05934    0.04760 =
         0.05153   -0.00795    0.00381    0.02806
O5    7    0.701749    0.204252    0.008988    11.00000    0.07675    0.05103 =
         0.05012   -0.02164   -0.01132    0.03451
F6    5    0.251272    0.110456    0.232056    11.00000    0.08970    0.07315 =
         0.15592    0.05555    0.03055    0.05675
C7    1    0.368135    0.110797    0.107948    11.00000    0.04629    0.05036 =
         0.05627    0.00921   -0.01042    0.01724
AFIX  43
H7    2    0.327380    0.095798    0.071530    11.00000   -1.20000
AFIX   0
C8    1    0.718917    0.102146   -0.081795    11.00000    0.05985    0.05227 =
         0.05749   -0.01671   -0.01166    0.03224
AFIX  43
H8    2    0.735954    0.113175   -0.023752    11.00000   -1.20000
AFIX   0
F9    5    0.187659    0.015825    0.309948    11.00000    0.06534    0.08860 =
         0.15125    0.05156    0.03727    0.04733
F10   5    0.174547   -0.083891    0.188646    11.00000    0.05660    0.08074 =
         0.12043    0.04513   -0.01817   -0.00832
F11   5    0.262193   -0.048484    0.095772    11.00000    0.09428    0.06803 =
         0.07798   -0.00565   -0.02986    0.01791
C12   1    0.421077    0.103386    0.242725    11.00000    0.04951    0.04538 =
         0.04523    0.01220    0.00015    0.01824
AFIX  43
H12   2    0.416550    0.083337    0.298935    11.00000   -1.20000
AFIX   0
C13   1    0.680322    0.193517   -0.069821    11.00000    0.04605    0.03385 =
         0.06831   -0.00444    0.00831    0.01487
C14   1    0.435560    0.163857    0.080126    11.00000    0.04220    0.04957 =
         0.05626    0.01474   -0.00505    0.01765
AFIX  43
H14   2    0.440089    0.185458    0.024920    11.00000   -1.20000
AFIX   0
C15   1    0.496438    0.186125    0.130831    11.00000    0.04404    0.03933 =
         0.04892   -0.00028   -0.00160    0.02121
C16   1    0.667128    0.067837   -0.251636    11.00000    0.06020    0.04675 =
         0.05163   -0.01635   -0.00862    0.02646
AFIX  43
H16   2    0.648513    0.055514   -0.308921    11.00000   -1.20000
AFIX   0
C17   1    0.286362    0.019245    0.228121    11.00000    0.04420    0.04469 =
         0.07092    0.02029    0.00287    0.01711
C18   1    0.569519    0.239903    0.096397    11.00000    0.04119    0.03137 =
         0.04423   -0.00077   -0.00126    0.01352
C19   1    0.684989    0.136174   -0.119336    11.00000    0.04468    0.04654 =
         0.04949   -0.01155   -0.00420    0.02390
F20   5    0.205046    0.011209    0.112272    11.00000    0.05878    0.08197 =
         0.13330    0.04241   -0.02378    0.01768
C21   1    0.728206    0.050955   -0.129884    11.00000    0.06251    0.04769 =
         0.06847   -0.01633   -0.01307    0.03075
AFIX  43
H21   2    0.751993    0.028331   -0.104140    11.00000   -1.20000
AFIX   0
C22   1    0.232624   -0.025137    0.154410    11.00000    0.05616    0.05167 =
         0.10717    0.03396   -0.02933   -0.00193
C23   1    0.658769    0.119428   -0.205718    11.00000    0.05797    0.04583 =
         0.05956   -0.00846   -0.00642    0.02951
AFIX  43
H23   2    0.635937    0.142833   -0.231925    11.00000   -1.20000
AFIX   0
C24   1    0.360360    0.079107    0.190889    11.00000    0.04464    0.03413 =
         0.06091    0.01251   -0.00477    0.01021
C25   1    0.702457    0.033689   -0.215067    11.00000    0.04775    0.03852 =
         0.05877   -0.01687   -0.00273    0.01835
C26   1    0.488664    0.156674    0.213931    11.00000    0.04244    0.04251 =
         0.04920   -0.00144   -0.00852    0.01626
AFIX  43
H26   2    0.529368    0.172933    0.250755    11.00000   -1.20000
AFIX   0
C28   1    0.254574    0.058008    0.279912    11.00000    0.05928    0.06223 =
         0.10890    0.03807    0.02395    0.03570
PART 2
CA2   3    0.638808    0.319404   -0.083333   -20.50000    0.03674    0.03437 =
         0.03556    0.00329    0.00000    0.01837
HKLF 4
 
REM  1 in P6522 #179
REM R1 =  0.0605 for    2702 Fo > 4sig(Fo)  and  0.0795 for all    3435 data
REM    256 parameters refined using      0 restraints
 
END  
     
WGHT      0.1002      0.0000 

REM Highest difference peak  0.425,  deepest hole -0.521,  1-sigma level  0.083
Q1    1   0.5313  0.0107 -0.4735  11.00000  0.05    0.42
Q2    1   0.6813  0.2712 -0.0242  11.00000  0.05    0.41
Q3    1   0.4886 -0.0215 -0.4760  11.00000  0.05    0.40
Q4    1   0.4909 -0.0363 -0.4180  11.00000  0.05    0.34
Q5    1   0.7574  0.2645  0.0116  11.00000  0.05    0.31
Q6    1   0.6762  0.1636  0.0776  11.00000  0.05    0.26
Q7    1   0.2714  0.0000  0.0000  10.50000  0.05    0.25
Q8    1   0.7096  0.1296 -0.3294  11.00000  0.05    0.24
Q9    1   0.5842  0.2352 -0.1415  11.00000  0.05    0.23
Q10   1   0.5807  0.2395 -0.0379  11.00000  0.05    0.22
Q11   1   0.5796  0.0710 -0.4297  11.00000  0.05    0.22
Q12   1   0.4373  0.1742  0.1911  11.00000  0.05    0.22
Q13   1   0.1697  0.0433  0.1830  11.00000  0.05    0.22
Q14   1   0.7218  0.1885 -0.0915  11.00000  0.05    0.22
Q15   1   0.5919  0.0206 -0.3107  11.00000  0.05    0.21
Q16   1   0.3691  0.0995  0.0098  11.00000  0.05    0.21
Q17   1   0.5288  0.0896  0.3932  11.00000  0.05    0.21
Q18   1   0.5200  0.1400  0.3064  11.00000  0.05    0.21
Q19   1   0.1727  0.0000  0.0000  10.50000  0.05    0.21
Q20   1   0.8269  0.0000  0.0000  10.50000  0.05    0.20

  REM The information below was added by Olex2.
  REM
  REM R1 = 0.0605 for 2702 Fo > 4sig(Fo) and 0.0795 for all 35842 data
  REM n/a parameters refined using n/a restraints
  REM Highest difference peak 0.42, deepest hole -0.52
  REM Mean Shift 0, Max Shift -0.001.

  REM +++ Tabular Listing of Refinement Information +++
  REM R1_all = 0.0795
  REM R1_gt = 0.0605
  REM wR_ref = 0.1618
  REM GOOF = 1.003
  REM Shift_max = -0.001
  REM Shift_mean = 0
  REM Reflections_all = 35842
  REM Reflections_gt = 2702
  REM Parameters = n/a
  REM Hole = -0.52
  REM Peak = 0.42
  REM Flack = -0.017(7)

  
;
_cod_data_source_file            Mn0.23Co0.50Ca0.27(hfipbb).cif
_cod_data_source_block           1
_cod_original_cell_volume        5959.6(5)
_cod_original_formula_sum        'C17 H8 Ca0.07 Co0.50 F6 Mn0.43 O4'
_cod_database_code               4128058
_shelx_shelxl_version_number     2014/7
_shelx_space_group_comment
;
The symmetry employed for this shelxl refinement is uniquely defined
by the following loop, which should always be used as a source of
symmetry information in preference to the above space-group names.
They are only intended as comments.
;
_shelx_estimated_absorpt_t_max   0.879
_shelx_estimated_absorpt_t_min   0.620
_olex2_refinement_description
;
1. Fixed Uiso
 At 1.2 times of:
  All C(H) groups
2. Uiso/Uaniso restraints and constraints
Uanis(Mn2) = Uanis(Ca2)
3. Others
 Sof(Ca2)=0.5*(1-FVAR(2))
 Sof(Mn2)=0.5*FVAR(2)
4.a Aromatic/amide H refined with riding coordinates:
 C7(H7), C8(H8), C12(H12), C14(H14), C16(H16), C21(H21), C23(H23), C26(H26)
;
_olex2_submission_special_instructions 'No special instructions were received'
loop_
_space_group_symop_operation_xyz
'x, y, z'
'x-y, x, z+5/6'
'-y, x-y, z+2/3'
'-x, -y, z+1/2'
'-x+y, -x, z+1/3'
'y, -x+y, z+1/6'
'x-y, -y, -z'
'-x, -x+y, -z+1/3'
'y, x, -z+2/3'
'-y, -x, -z+1/6'
'-x+y, y, -z+1/2'
'x, x-y, -z+5/6'
loop_
_atom_site_label
_atom_site_type_symbol
_atom_site_fract_x
_atom_site_fract_y
_atom_site_fract_z
_atom_site_U_iso_or_equiv
_atom_site_adp_type
_atom_site_occupancy
_atom_site_site_symmetry_order
_atom_site_calc_flag
_atom_site_refinement_flags_posn
_atom_site_refinement_flags_adp
_atom_site_refinement_flags_occupancy
_atom_site_disorder_assembly
_atom_site_disorder_group
Co1 Co 0.71691(4) 0.28309(4) 0.0833 0.0379(4) Uani 1 2 d S T P A .
Mn2 Mn 0.6507(4) 0.3253(2) -0.0833 0.0353(12) Uani 0.87(3) 2 d S T P A 1
O1 O 0.5756(3) 0.2669(3) 0.0219(4) 0.0501(14) Uani 1 1 d . . . . .
O2 O 0.7450(3) 0.3741(3) 0.0204(3) 0.0433(12) Uani 1 1 d . . . . .
F3 F 0.2954(4) 0.0940(4) 0.3488(5) 0.087(2) Uani 1 1 d . . . . .
O4 O 0.6559(3) 0.2302(3) -0.1084(4) 0.0522(14) Uani 1 1 d . . . . .
O5 O 0.7017(4) 0.2043(3) 0.0090(4) 0.0582(16) Uani 1 1 d . . . . .
F6 F 0.2513(4) 0.1105(3) 0.2321(6) 0.099(3) Uani 1 1 d . . . . .
C7 C 0.3681(5) 0.1108(5) 0.1079(6) 0.054(2) Uani 1 1 d . . . . .
H7 H 0.3274 0.0958 0.0715 0.065 Uiso 1 1 calc R . . . .
C8 C 0.7189(5) 0.1021(5) -0.0818(7) 0.055(2) Uani 1 1 d . . . . .
H8 H 0.7360 0.1132 -0.0238 0.066 Uiso 1 1 calc R . . . .
F9 F 0.1877(3) 0.0158(4) 0.3099(6) 0.098(3) Uani 1 1 d . . . . .
F10 F 0.1745(4) -0.0839(4) 0.1886(6) 0.105(3) Uani 1 1 d . . . . .
F11 F 0.2622(4) -0.0485(4) 0.0958(5) 0.090(2) Uani 1 1 d . . . . .
C12 C 0.4211(4) 0.1034(4) 0.2427(6) 0.0491(19) Uani 1 1 d . . . . .
H12 H 0.4165 0.0833 0.2989 0.059 Uiso 1 1 calc R . . . .
C13 C 0.6803(4) 0.1935(4) -0.0698(6) 0.052(2) Uani 1 1 d . . . . .
C14 C 0.4356(4) 0.1639(5) 0.0801(6) 0.052(2) Uani 1 1 d . . . . .
H14 H 0.4401 0.1855 0.0249 0.062 Uiso 1 1 calc R . . . .
C15 C 0.4964(4) 0.1861(4) 0.1308(6) 0.0439(18) Uani 1 1 d . . . . .
C16 C 0.6671(5) 0.0678(4) -0.2516(7) 0.053(2) Uani 1 1 d . . . . .
H16 H 0.6485 0.0555 -0.3089 0.064 Uiso 1 1 calc R . . . .
C17 C 0.2864(5) 0.0192(5) 0.2281(6) 0.056(2) Uani 1 1 d . . . . .
C18 C 0.5695(4) 0.2399(4) 0.0964(5) 0.0410(17) Uani 1 1 d . . . . .
C19 C 0.6850(5) 0.1362(4) -0.1193(6) 0.0464(19) Uani 1 1 d . . . . .
F20 F 0.2050(3) 0.0112(4) 0.1123(5) 0.099(3) Uani 1 1 d . . . . .
C21 C 0.7282(5) 0.0510(5) -0.1299(7) 0.058(2) Uani 1 1 d . . . . .
H21 H 0.7520 0.0283 -0.1041 0.070 Uiso 1 1 calc R . . . .
C22 C 0.2326(6) -0.0251(6) 0.1544(10) 0.085(4) Uani 1 1 d . . . . .
C23 C 0.6588(5) 0.1194(5) -0.2057(6) 0.053(2) Uani 1 1 d . . . . .
H23 H 0.6359 0.1428 -0.2319 0.063 Uiso 1 1 calc R . . . .
C24 C 0.3604(5) 0.0791(4) 0.1909(6) 0.051(2) Uani 1 1 d . . . . .
C25 C 0.7025(4) 0.0337(4) -0.2151(6) 0.050(2) Uani 1 1 d . . . . .
C26 C 0.4887(4) 0.1567(4) 0.2139(6) 0.0469(19) Uani 1 1 d . . . . .
H26 H 0.5294 0.1729 0.2508 0.056 Uiso 1 1 calc R . . . .
C28 C 0.2546(6) 0.0580(6) 0.2799(9) 0.074(3) Uani 1 1 d . . . . .
Ca2 Ca 0.639(4) 0.3194(19) -0.0833 0.0353(12) Uani 0.13(3) 2 d S T P A 2
loop_
_atom_site_aniso_label
_atom_site_aniso_U_11
_atom_site_aniso_U_22
_atom_site_aniso_U_33
_atom_site_aniso_U_23
_atom_site_aniso_U_13
_atom_site_aniso_U_12
Co1 0.0409(7) 0.0409(7) 0.0339(9) -0.0043(7) -0.0043(7) 0.0219(8)
Mn2 0.037(3) 0.0344(11) 0.0356(10) 0.0033(6) 0.000 0.0184(15)
O1 0.044(3) 0.050(3) 0.049(4) 0.004(3) 0.001(3) 0.018(2)
O2 0.048(3) 0.035(3) 0.044(3) 0.000(2) 0.001(2) 0.018(2)
F3 0.090(5) 0.066(4) 0.117(6) 0.015(4) 0.036(4) 0.048(4)
O4 0.059(4) 0.048(3) 0.052(4) -0.008(3) 0.004(3) 0.028(3)
O5 0.077(4) 0.051(3) 0.050(4) -0.022(3) -0.011(3) 0.035(3)
F6 0.090(4) 0.073(4) 0.156(7) 0.056(4) 0.031(4) 0.057(4)
C7 0.046(5) 0.050(5) 0.056(6) 0.009(4) -0.010(4) 0.017(4)
C8 0.060(5) 0.052(5) 0.057(5) -0.017(4) -0.012(5) 0.032(4)
F9 0.065(4) 0.089(5) 0.151(7) 0.052(5) 0.037(4) 0.047(4)
F10 0.057(4) 0.081(5) 0.120(6) 0.045(4) -0.018(4) -0.008(3)
F11 0.094(5) 0.068(4) 0.078(5) -0.006(4) -0.030(4) 0.018(4)
C12 0.050(5) 0.045(4) 0.045(5) 0.012(4) 0.000(4) 0.018(4)
C13 0.046(4) 0.034(4) 0.068(7) -0.004(4) 0.008(4) 0.015(4)
C14 0.042(4) 0.050(5) 0.056(5) 0.015(4) -0.005(4) 0.018(4)
C15 0.044(4) 0.039(4) 0.049(5) 0.000(3) -0.002(4) 0.021(3)
C16 0.060(5) 0.047(4) 0.052(5) -0.016(4) -0.009(4) 0.026(4)
C17 0.044(4) 0.045(4) 0.071(7) 0.020(4) 0.003(4) 0.017(4)
C18 0.041(4) 0.031(4) 0.044(5) -0.001(3) -0.001(3) 0.014(3)
C19 0.045(4) 0.047(4) 0.049(5) -0.012(4) -0.004(4) 0.024(4)
F20 0.059(3) 0.082(4) 0.133(7) 0.042(4) -0.024(4) 0.018(3)
C21 0.063(5) 0.048(5) 0.068(6) -0.016(4) -0.013(5) 0.031(4)
C22 0.056(6) 0.052(6) 0.107(10) 0.034(6) -0.029(6) -0.002(5)
C23 0.058(5) 0.046(5) 0.060(6) -0.008(4) -0.006(4) 0.030(4)
C24 0.045(4) 0.034(4) 0.061(6) 0.013(4) -0.005(4) 0.010(3)
C25 0.048(5) 0.039(4) 0.059(5) -0.017(4) -0.003(4) 0.018(4)
C26 0.042(4) 0.043(4) 0.049(5) -0.001(3) -0.009(4) 0.016(4)
C28 0.059(6) 0.062(6) 0.109(10) 0.038(6) 0.024(6) 0.036(5)
Ca2 0.037(3) 0.0344(11) 0.0356(10) 0.0033(6) 0.000 0.0184(15)
loop_
_atom_type_symbol
_atom_type_description
_atom_type_scat_dispersion_real
_atom_type_scat_dispersion_imag
_atom_type_scat_source
C C 0.0181 0.0091 'International Tables Vol C Tables 4.2.6.8 and 6.1.1.4'
H H 0.0000 0.0000 'International Tables Vol C Tables 4.2.6.8 and 6.1.1.4'
Ca Ca 0.3641 1.2855 'International Tables Vol C Tables 4.2.6.8 and 6.1.1.4'
Co Co -2.3653 3.6143 'International Tables Vol C Tables 4.2.6.8 and 6.1.1.4'
F F 0.0727 0.0534 'International Tables Vol C Tables 4.2.6.8 and 6.1.1.4'
Mn Mn -0.5299 2.8052 'International Tables Vol C Tables 4.2.6.8 and 6.1.1.4'
O O 0.0492 0.0322 'International Tables Vol C Tables 4.2.6.8 and 6.1.1.4'
loop_
_geom_angle_atom_site_label_1
_geom_angle_atom_site_label_2
_geom_angle_atom_site_label_3
_geom_angle
_geom_angle_site_symmetry_1
_geom_angle_site_symmetry_3
O2 Co1 O2 107.8(3) . 10_665
O2 Co1 Ca2 85.1(10) . 5_665
O2 Co1 Ca2 85.1(10) 10_665 .
O2 Co1 Ca2 48.8(9) . .
O2 Co1 Ca2 48.8(9) 10_665 5_665
O5 Co1 O2 114.1(3) 10_665 10_665
O5 Co1 O2 108.3(3) . 10_665
O5 Co1 O2 114.1(3) . .
O5 Co1 O2 108.3(3) 10_665 .
O5 Co1 O5 104.4(4) . 10_665
O5 Co1 Ca2 155.5(11) . 5_665
O5 Co1 Ca2 82.3(2) 10_665 5_665
O5 Co1 Ca2 155.5(11) 10_665 .
O5 Co1 Ca2 82.3(2) . .
Ca2 Co1 Ca2 101.5(7) . 5_665
O1 Mn2 O1 100.6(4) . 12_554
O1 Mn2 O2 88.6(2) . .
O1 Mn2 O2 165.6(2) . 12_554
O1 Mn2 O2 88.6(2) 12_554 12_554
O1 Mn2 O2 165.6(2) 12_554 .
O2 Mn2 O2 84.7(3) . 12_554
O4 Mn2 O1 87.8(2) 12_554 12_554
O4 Mn2 O1 95.6(3) . 12_554
O4 Mn2 O1 95.6(3) 12_554 .
O4 Mn2 O1 87.8(2) . .
O4 Mn2 O2 95.8(3) 12_554 12_554
O4 Mn2 O2 95.8(3) . .
O4 Mn2 O2 80.3(2) . 12_554
O4 Mn2 O2 80.3(2) 12_554 .
O4 Mn2 O4 174.8(5) 12_554 .
C18 O1 Mn2 144.6(6) . .
C18 O1 Ca2 149.1(16) . .
Co1 O2 Mn2 97.0(2) . .
Co1 O2 Ca2 95.3(6) . .
C18 O2 Co1 115.5(5) 10_665 .
C18 O2 Mn2 123.8(5) 10_665 .
C18 O2 Ca2 122.5(6) 10_665 .
C13 O4 Mn2 137.2(6) . .
C13 O4 Ca2 139.7(9) . .
C13 O5 Co1 127.5(6) . .
C14 C7 C24 119.7(8) . .
C19 C8 C21 120.2(9) . .
C24 C12 C26 121.4(8) . .
O4 C13 C19 119.0(8) . .
O4 C13 Ca2 25.4(5) . .
O5 C13 O4 123.2(8) . .
O5 C13 C19 117.9(8) . .
O5 C13 Ca2 97.7(6) . .
C19 C13 Ca2 144.4(7) . .
C15 C14 C7 121.7(8) . .
C14 C15 C18 120.5(8) . .
C14 C15 C26 118.7(8) . .
C26 C15 C18 120.8(7) . .
C23 C16 C25 121.7(9) . .
C22 C17 C24 111.8(8) . .
C25 C17 C22 107.6(8) 4_655 .
C25 C17 C24 110.1(7) 4_655 .
C28 C17 C22 108.4(10) . .
C28 C17 C24 106.7(7) . .
C28 C17 C25 112.3(8) . 4_655
O1 C18 O2 122.7(7) . 10_665
O1 C18 C15 120.1(7) . .
O1 C18 Ca2 19.2(12) . .
O2 C18 C15 117.2(7) 10_665 .
O2 C18 Ca2 104.2(12) 10_665 .
C15 C18 Ca2 137.9(12) . .
C8 C19 C13 119.3(8) . .
C8 C19 C23 120.2(8) . .
C23 C19 C13 120.4(8) . .
C25 C21 C8 120.3(9) . .
F10 C22 C17 109.9(10) . .
F11 C22 F10 107.5(11) . .
F11 C22 C17 112.1(9) . .
F11 C22 F20 108.5(11) . .
F20 C22 F10 104.9(9) . .
F20 C22 C17 113.5(10) . .
C16 C23 C19 118.9(8) . .
C7 C24 C17 123.4(8) . .
C12 C24 C7 118.3(8) . .
C12 C24 C17 118.3(8) . .
C16 C25 C17 118.6(8) . 4_654
C21 C25 C16 118.7(8) . .
C21 C25 C17 122.6(9) . 4_654
C12 C26 C15 120.0(8) . .
F3 C28 F6 103.8(10) . .
F3 C28 C17 112.4(9) . .
F6 C28 C17 112.6(10) . .
F9 C28 F3 106.6(10) . .
F9 C28 F6 105.1(8) . .
F9 C28 C17 115.4(10) . .
Co1 Ca2 Co1 129(2) . 3_654
O1 Ca2 Co1 162.8(14) 12_554 .
O1 Ca2 Co1 62.6(5) . .
O1 Ca2 Co1 162.8(14) . 3_654
O1 Ca2 Co1 62.6(5) 12_554 3_654
O1 Ca2 O1 110(3) . 12_554
O1 Ca2 O2 87.2(6) . .
O1 Ca2 O2 160(2) 12_554 .
O1 Ca2 O2 87.2(6) 12_554 12_554
O1 Ca2 O2 160(2) . 12_554
O1 Ca2 O4 90.7(8) . .
O1 Ca2 O4 99.0(10) . 12_554
O1 Ca2 O4 90.7(8) 12_554 12_554
O1 Ca2 O4 99.0(9) 12_554 .
O1 Ca2 C13 113.5(7) 12_554 .
O1 Ca2 C13 82.7(3) . .
O1 Ca2 C13 113.5(7) . 12_554
O1 Ca2 C13 82.7(3) 12_554 12_554
O1 Ca2 C18 121(3) . 12_554
O1 Ca2 C18 11.7(5) . .
O1 Ca2 C18 121(3) 12_554 .
O1 Ca2 C18 11.7(5) 12_554 12_554
O2 Ca2 Co1 97.9(19) . 3_654
O2 Ca2 Co1 36.0(4) 12_554 3_654
O2 Ca2 Co1 97.9(19) 12_554 .
O2 Ca2 Co1 36.0(4) . .
O2 Ca2 O2 78(2) . 12_554
O2 Ca2 C13 77.8(11) . .
O2 Ca2 C13 81.0(11) 12_554 .
O2 Ca2 C13 77.8(11) 12_554 12_554
O2 Ca2 C13 81.0(11) . 12_554
O2 Ca2 C18 148.5(18) . 12_554
O2 Ca2 C18 148.5(18) 12_554 .
O2 Ca2 C18 76.9(3) 12_554 12_554
O2 Ca2 C18 76.9(3) . .
O4 Ca2 Co1 66.7(7) . .
O4 Ca2 Co1 105.5(12) . 3_654
O4 Ca2 Co1 66.7(7) 12_554 3_654
O4 Ca2 Co1 105.5(12) 12_554 .
O4 Ca2 O2 76.1(14) 12_554 .
O4 Ca2 O2 76.1(14) . 12_554
O4 Ca2 O2 90.6(17) . .
O4 Ca2 O2 90.6(17) 12_554 12_554
O4 Ca2 O4 163(4) 12_554 .
O4 Ca2 C13 14.9(4) . .
O4 Ca2 C13 154(3) . 12_554
O4 Ca2 C13 14.9(4) 12_554 12_554
O4 Ca2 C13 154(3) 12_554 .
O4 Ca2 C18 101.4(7) . 12_554
O4 Ca2 C18 101.4(7) 12_554 .
O4 Ca2 C18 85.5(6) 12_554 12_554
O4 Ca2 C18 85.5(6) . .
C13 Ca2 Co1 114.4(13) . 3_654
C13 Ca2 Co1 51.8(4) . .
C13 Ca2 Co1 51.8(4) 12_554 3_654
C13 Ca2 Co1 114.4(13) 12_554 .
C13 Ca2 C13 153(2) . 12_554
C18 Ca2 Co1 50.90(16) . .
C18 Ca2 Co1 168.0(3) . 3_654
C18 Ca2 Co1 168.0(4) 12_554 .
C18 Ca2 Co1 50.90(16) 12_554 3_654
C18 Ca2 C13 75.4(3) . .
C18 Ca2 C13 116.3(4) 12_554 .
C18 Ca2 C13 116.3(4) . 12_554
C18 Ca2 C13 75.4(3) 12_554 12_554
C18 Ca2 C18 133(2) . 12_554
loop_
_geom_bond_atom_site_label_1
_geom_bond_atom_site_label_2
_geom_bond_distance
_geom_bond_site_symmetry_2
Co1 O2 1.964(5) 10_665
Co1 O2 1.964(5) .
Co1 O5 1.912(6) 10_665
Co1 O5 1.912(5) .
Co1 Ca2 3.33(3) .
Co1 Ca2 3.33(3) 5_665
Mn2 O1 2.162(7) 12_554
Mn2 O1 2.162(7) .
Mn2 O2 2.348(8) 12_554
Mn2 O2 2.348(8) .
Mn2 O4 2.113(6) .
Mn2 O4 2.113(6) 12_554
O1 C18 1.250(10) .
O1 Ca2 2.03(4) .
O2 C18 1.316(9) 10_665
O2 Ca2 2.51(5) .
F3 C28 1.332(15) .
O4 C13 1.276(11) .
O4 Ca2 2.134(12) .
O5 C13 1.264(11) .
F6 C28 1.363(11) .
C7 C14 1.374(12) .
C7 C24 1.403(12) .
C8 C19 1.375(13) .
C8 C21 1.405(12) .
F9 C28 1.327(12) .
F10 C22 1.347(12) .
F11 C22 1.323(17) .
C12 C24 1.375(12) .
C12 C26 1.382(11) .
C13 C19 1.478(11) .
C13 Ca2 3.215(19) .
C14 C15 1.372(11) .
C15 C18 1.489(11) .
C15 C26 1.385(12) .
C16 C23 1.385(12) .
C16 C25 1.395(13) .
C17 C22 1.542(15) .
C17 C24 1.553(11) .
C17 C25 1.529(11) 4_655
C17 C28 1.521(15) .
C18 O2 1.316(9) 10_665
C18 Ca2 3.17(3) .
C19 C23 1.404(13) .
F20 C22 1.343(13) .
C21 C25 1.385(13) .
C25 C17 1.529(11) 4_654
Ca2 Co1 3.33(3) 3_654
Ca2 O1 2.03(4) 12_554
Ca2 O2 2.51(5) 12_554
Ca2 O4 2.134(11) 12_554
Ca2 C13 3.215(19) 12_554
Ca2 C18 3.17(3) 12_554
loop_
_refln_index_h
_refln_index_k
_refln_index_l
_refln_F_squared_meas
_refln_F_squared_sigma
_refln_scale_group_code
1 -1 0 713.46 47.2858 3
1 0 0 737.803 47.5718 1
1 0 0 723.545 47.3426 2
1 0 0 729.469 48.1554 3
0 1 0 701.105 47.4597 3
1 -1 0 760.576 47.7033 1
1 -1 0 681.171 47.2802 2
0 -1 0 703.713 47.4099 3
0 1 0 718.088 47.4703 1
0 1 0 650.402 47.525 2
0 -1 0 734.757 47.5951 2
0 -1 0 745.064 47.4826 1
-1 1 0 681.683 47.2867 2
-1 1 0 732.583 47.3418 3
-1 0 0 713.755 48.0758 3
-1 1 0 693.708 47.6626 1
-1 0 0 686.91 47.5523 1
-1 0 0 754.003 47.3686 2
-1 -1 0 747.627 47.0762 2
-1 2 0 676.096 46.1407 3
2 -1 0 726.885 47.1666 1
2 -1 0 657.169 47.4315 3
-2 1 0 657.062 46.4513 2
-2 1 0 703.594 47.322 1
1 -2 0 715.415 46.953 2
1 1 0 658.787 46.9394 2
-1 -1 0 690.018 47.5392 3
-1 2 0 728.228 47.2074 2
1 1 0 677.42 47.8262 3
1 -2 0 743.485 47.1704 1
-2 1 0 708.181 47.7356 3
-1 2 0 677.893 47.1146 1
2 0 0 9157.98 611.766 2
-2 0 0 9633.29 613.133 3
-2 2 0 9477.75 612.472 1
-2 0 0 9664.91 612.318 1
-2 0 0 9897.05 611.84 2
2 -2 0 8837.06 611.572 3
2 0 0 9628.32 612.14 1
0 -2 0 9293.18 612.199 2
2 0 0 8224.52 612.807 3
0 -2 0 9023.54 611.81 3
0 2 0 9073.61 611.998 1
0 2 0 9589.73 612.365 2
0 2 0 9114.17 612.069 3
2 -2 0 9517.73 612.321 1
2 -2 0 8903.8 611.639 2
0 -2 0 9850.79 612.045 1
-2 2 0 9999.99 611.873 3
-2 2 0 8902.19 611.733 2
2 1 0 1145.9 81.9869 3
3 -2 0 1289.64 80.7433 1
-2 -1 0 1264.54 81.6356 3
3 -2 0 1332.48 79.7807 2
3 -1 0 1020.27 81.0614 3
3 -1 0 1230.47 80.4207 1
2 1 0 1113.3 80.1272 2
-1 3 0 1320.53 79.589 3
1 -3 0 1156.03 80.3503 1
1 -3 0 1321.95 80.5904 2
1 -3 0 1235.17 79.284 3
2 -3 0 1310.46 80.7155 1
2 -3 0 1228.57 80.0489 2
-2 3 0 1145.15 80.6487 1
-2 3 0 1203.15 80.3868 2
-3 1 0 1125.15 80.6939 1
-3 1 0 1302.03 79.5643 2
-1 3 0 1201.31 80.5553 1
-1 3 0 1114 80.5322 2
1 2 0 1119.76 80.4984 2
1 2 0 1177.2 81.2823 3
-2 -1 0 1130.01 80.1366 2
3 -2 0 1168.77 80.6771 3
-1 -2 0 1084.21 79.7995 1
-1 -2 0 1296.75 80.659 2
-1 -2 0 1219.24 80.78 3
-3 2 0 1113.66 79.5433 2
-2 3 0 1288.08 79.0929 3
-3 1 0 1114.1 81.5476 3
-3 2 0 1085 80.7359 1
0 -3 0 3020.21 194.41 3
0 -3 0 2775.68 194.539 1
0 -3 0 3144.18 195.13 2
-3 0 0 2975.52 196.35 3
0 3 0 2862.58 194.965 3
-3 0 0 2804.53 194.264 2
3 -3 0 2902.19 193.995 3
3 0 0 2770.83 194.243 2
3 0 0 3063.81 194.833 1
-3 3 0 2799.3 194.305 2
3 -3 0 2993.89 194.165 2
3 -3 0 3196.27 195.31 1
-3 -1 0 42.0744 12.1523 3
-3 -1 0 31.7262 8.07983 2
1 -4 0 35.4936 6.28679 3
3 1 0 34.0651 7.93459 1
-1 -3 0 38.6557 8.83935 2
-4 3 0 54.3829 10.6874 3
3 -4 0 25.2938 8.1027 2
4 -1 0 27.3045 7.96871 1
-3 4 0 31.8626 5.96521 3
-4 1 0 38.6189 12.6602 3
-4 1 0 31.5345 7.04722 2
4 -3 0 39.9836 9.81876 1
4 -3 0 39.3018 7.41573 2
-4 3 0 19.7699 6.66935 2
1 -4 0 41.0992 9.44748 2
3 -4 0 40.3513 9.50628 1
-1 -3 0 33.7629 9.13227 3
4 -3 0 18.1232 7.21439 3
-1 4 0 29.6516 8.21638 3
1 -4 0 32.9382 8.12548 1
-1 -3 0 26.2166 7.55719 1
-4 0 0 1159.98 80.4019 2
0 -4 0 1094.51 80.7057 1
0 -4 0 1240.62 81.3576 2
-4 0 0 1327.03 83.9719 3
4 -4 0 1168.03 80.0418 2
0 -4 0 1157.78 80.3142 3
4 -4 0 1204.19 81.4153 1
4 0 0 1192.94 80.9262 1
-3 -2 0 30.451 13.3906 3
-5 3 0 27.954 12.3918 3
5 -3 0 35.1427 10.3041 1
-2 -3 0 26.532 9.5152 2
5 -2 0 34.8123 9.81255 1
-3 5 0 18.1908 5.26442 3
-5 2 0 24.9922 6.62481 2
-3 -2 0 18.2758 8.54034 2
3 -5 0 15.1302 7.97 1
-5 2 0 12.5702 13.6057 3
-2 -3 0 17.4163 7.53203 1
-2 -3 0 16.8708 9.83005 3
3 -5 0 21.3719 8.60285 2
-2 5 0 19.1715 6.69328 3
2 -5 0 31.1264 9.23934 2
2 -5 0 22.8952 9.12845 1
-3 5 0 11.4453 4.1454 3
4 1 0 1526.22 99.584 1
-4 -1 0 1472.52 99.3867 2
4 -5 0 1563.86 100.348 1
-1 -4 0 1346.07 99.3066 3
-1 -4 0 1351.48 98.9864 1
4 -5 0 1459.76 98.7816 2
1 -5 0 1470.37 99.7307 2
-4 5 0 1650.56 98.3232 3
5 -4 0 1514.77 98.565 2
-5 4 0 1468.33 100.46 3
1 -5 0 1417.64 99.5669 1
5 -4 0 1543.68 100.25 1
-4 -1 0 1554.39 102.064 3
1 -5 0 1434.45 98.1373 3
-5 1 0 1333.49 101.507 3
-1 -4 0 1464.84 99.939 2
5 -1 0 1483.51 99.6397 1
-5 1 0 1374.68 98.4987 2
-5 0 0 1745.84 124.221 2
0 -5 0 2035.78 125.692 2
-5 0 0 2004.37 127.884 3
5 -5 0 1719.73 123.666 2
5 -5 0 1979.55 125.744 1
0 -5 0 1748.51 124.646 1
5 0 0 1889 124.898 1
-5 5 0 1780.42 124.655 3
0 -5 0 1790.9 123.974 3
-3 -3 0 916.183 68.3057 1
-6 3 0 888.998 70.8887 3
6 -3 0 1026.99 69.6838 1
3 -6 0 1104.37 69.5396 2
-6 3 0 927.3 67.2676 2
-3 -3 0 1045.42 71.3304 3
3 -6 0 940.362 69.3514 1
-3 6 0 1139.4 66.4604 3
-3 -3 0 931.03 69.3789 2
2 -6 0 453.443 32.5199 2
-2 -4 0 378.888 30.8375 1
2 -6 0 370.98 31.6156 1
-6 2 0 372.287 34.3114 3
-4 -2 0 412.209 35.8392 3
2 -6 0 404.009 28.7501 3
4 -6 0 398.132 31.0721 2
-4 -2 0 380.15 31.4951 2
-2 -4 0 375.544 31.6523 2
-2 -4 0 430.707 32.4617 3
6 -2 0 421.952 32.3715 1
4 -6 0 373.318 31.7897 1
-6 2 0 374.567 29.872 2
6 -4 0 442.558 32.4742 1
-4 6 0 453.712 28.6772 3
-6 4 0 430.525 35.1294 3
-1 -5 0 110.558 14.3136 1
1 -6 0 85.2295 13.3507 1
5 -6 0 117.297 15.6131 1
1 -6 0 95.3266 14.8621 2
-6 5 0 86.4298 15.5518 3
-1 -5 0 65.1136 12.3157 3
5 -6 0 71.0477 11.3453 2
5 1 0 99.0793 13.6561 1
6 -1 0 104.298 14.6993 1
-1 -5 0 116.722 15.6307 2
-5 -1 0 103.838 18.4346 3
-5 6 0 86.7877 12.8903 3
6 -5 0 82.2801 12.1959 2
-6 1 0 77.0433 11.6678 2
-5 -1 0 68.5981 12.407 2
-6 1 0 70.6911 16.1506 3
6 -5 0 82.7998 13.7295 1
1 -6 0 79.3614 11.7196 3
0 -6 0 206.067 21.0249 2
-6 0 0 247.606 27.1098 3
0 -6 0 201.467 19.089 3
6 -6 0 228.911 22.295 1
-6 0 0 205.067 19.634 2
-6 6 0 228.567 21.7283 3
6 -6 0 200.486 18.8728 2
0 -6 0 198.613 20.24 1
6 0 0 207.079 20.489 1
4 -7 0 97.0644 15.4197 1
3 -7 0 122.549 16.9571 2
-3 7 0 125.958 10.6366 3
-7 4 0 112.356 18.518 3
7 -4 0 120.132 17.1223 1
-7 3 0 134.543 20.5812 3
-3 -4 0 123.222 16.979 2
-3 -4 0 114.07 14.5996 1
3 -7 0 101.082 16.3992 1
4 -7 0 118.375 16.2048 2
-4 -3 0 112.205 17.1681 2
7 -3 0 118.159 16.9777 1
-4 -3 0 127.943 21.4133 3
-7 4 0 105.771 12.4909 2
-3 -4 0 124.144 17.7796 3
-4 7 0 90.706 9.30606 3
-7 3 0 116.387 13.4882 2
2 -7 0 10.2918 10.1728 2
-5 7 0 8.4627 6.87456 3
2 -7 0 3.4181 6.04386 3
-7 2 0 7.26032 8.48977 2
-7 5 0 5.78926 11.287 3
-5 -2 0 6.56458 15.1826 3
5 -7 0 10.6649 10.076 2
7 -5 0 -2.6548 9.62811 1
-2 -5 0 1.13796 10.8531 2
-2 -5 0 4.76869 9.71643 3
5 -7 0 -4.3354 9.43902 1
-5 -2 0 2.28114 8.64217 2
7 -2 0 1.265 8.97408 1
2 -7 0 8.59357 9.55513 1
7 -5 0 -0.1965 4.6396 4
-2 -5 0 0.60038 9.04342 1
-7 2 0 8.40612 13.0414 3
-7 6 0 71.3132 14.3639 3
-1 -6 0 65.4995 12.8167 1
7 -1 0 75.561 12.9253 1
-1 -6 0 84.7116 14.8608 2
7 -6 0 103.565 16.4477 1
1 -7 0 77.5323 14.2048 2
-6 -1 0 69.7776 12.7458 2
-7 1 0 76.2198 17.9111 3
-6 -1 0 102.968 20.6902 3
6 1 0 66.9305 12.6009 1
6 -7 0 85.7932 14.6109 1
-6 7 0 86.5643 14.209 3
6 1 0 54.9029 9.89094 6
-1 -6 0 72.7485 12.7332 3
6 -7 0 69.6367 11.6485 2
-7 1 0 88.1397 13.5383 2
7 -6 0 82.8084 11.906 2
1 -7 0 87.0309 14.1985 1
1 -7 0 73.847 11.9216 3
-7 7 0 168.498 19.2803 3
0 -7 0 152.267 17.3529 3
0 -7 0 173.161 21.2785 2
7 -7 0 184.712 21.1896 1
0 -7 0 173.092 18.9669 1
7 -7 0 132.511 15.5171 4
7 -7 0 173.029 17.3042 2
-7 0 0 206.677 25.7416 3
7 0 0 174.354 18.9802 1
7 0 0 142.731 15.5182 6
-7 0 0 181.042 19.4632 2
-4 -4 0 519.581 39.7821 1
-4 -4 0 536.153 42.5247 3
-4 -4 0 498.415 40.7928 2
4 -8 0 489.074 40.7585 1
-8 4 0 520.73 43.7704 3
-8 4 0 468.966 37.3083 2
8 -4 0 544.825 41.1279 1
4 -8 0 492.819 36.5144 5
4 -8 0 602.946 40.9744 2
3 -8 0 93.3169 15.2813 2
8 -5 0 78.3491 12.145 4
-3 -5 0 76.7586 15.9365 3
-3 -5 0 77.0448 15.3265 2
8 -3 0 89.0838 15.7448 1
5 -8 0 65.9153 10.1332 5
3 -8 0 79.9518 11.5872 5
5 -8 0 100.951 15.487 2
3 -8 0 72.8718 14.9133 1
-5 -3 0 110.686 17.0282 2
-3 -5 0 89.5009 14.8689 1
-5 -3 0 118.48 21.0957 3
-8 3 0 58.8375 17.0134 3
8 -5 0 96.6961 16.1325 1
-8 3 0 92.3678 12.9844 2
5 -8 0 100.412 16.5951 1
-8 5 0 77.6483 17.3194 3
-8 2 0 -3.2268 14.9761 3
8 -2 0 -1.8377 6.23746 6
8 -2 0 10.7953 11.0421 1
2 -8 0 -0.9929 5.87825 3
6 2 0 6.91494 8.41642 6
-2 -6 0 7.40603 10.8423 1
6 -8 0 1.42591 11.6898 1
6 -8 0 -2.8552 5.40021 5
-8 2 0 3.75628 8.81663 2
6 -8 0 4.84675 10.1329 2
-8 6 0 4.19468 12.6769 3
8 -6 0 7.61082 8.69098 4
-2 -6 0 5.28016 11.1142 2
-2 -6 0 2.30124 10.5084 3
2 -8 0 -1.202 6.69241 5
8 -6 0 10.2583 12.7076 1
2 -8 0 16.5749 11.6578 1
-6 -2 0 11.5074 17.0206 3
-6 -2 0 16.5841 11.941 2
2 -8 0 1.7734 10.8311 2
8 -7 0 108.253 17.2425 1
-8 7 0 77.817 15.5566 3
7 -8 0 80.639 13.367 2
1 -8 0 117.943 17.69 2
7 1 0 100.997 14.6161 6
-8 1 0 117.842 23.8529 3
7 -8 0 105.411 17.5248 1
8 -1 0 103.84 16.6735 1
-7 -1 0 106.756 22.171 3
1 -8 0 103.056 17.1335 1
8 -7 0 103.791 14.0978 2
1 -8 0 79.3236 13.1516 3
1 -8 0 84.9667 11.2913 5
-1 -7 0 102.065 16.9904 1
8 -1 0 86.1018 13.6451 6
8 -7 0 101.126 13.3756 4
-1 -7 0 99.4897 16.1029 3
-8 1 0 88.0393 14.168 2
7 -8 0 76.6739 11.997 4
-1 -7 0 95.143 16.6077 2
-7 -1 0 105.05 16.083 2
-8 0 0 575.704 46.8612 3
8 -8 0 539.289 40.7939 1
0 -8 0 446.895 33.2727 5
0 -8 0 460.508 38.3399 1
-8 0 0 471.937 37.6189 2
8 0 0 472.956 35.2089 6
8 0 0 485.539 37.8679 1
0 -8 0 479.406 39.1445 2
8 -8 0 490.667 35.0476 4
8 -8 0 454.287 35.9587 2
0 -8 0 384.749 35.8771 3
-9 5 0 -0.5434 8.06944 2
-9 5 0 -7.8523 15.168 3
5 4 0 3.43608 9.02031 6
9 -5 0 3.58558 11.324 1
4 -9 0 6.68166 12.3101 2
4 -9 0 -3.0375 11.5213 1
-5 -4 0 9.12801 16.16 3
9 -5 0 2.41717 7.73048 4
9 -4 0 -4.102 11.7656 1
9 -4 0 3.63497 8.40641 4
-9 4 0 19.2267 17.3496 3
5 -9 0 11.268 13.0437 1
5 -9 0 13.8325 13.0078 2
-9 4 0 4.59654 9.40504 2
4 -9 0 -1.2046 7.82046 5
-4 -5 0 11.0558 11.4258 1
4 5 0 1.42046 6.56615 6
-4 -5 0 8.60019 14.0399 2
5 -9 0 -1.5876 6.69949 5
-5 -4 0 3.89305 10.4398 1
-5 -4 0 14.3175 13.8927 2
-4 -5 0 -0.3899 12.9216 3
-3 -6 0 47.1092 13.4587 1
9 -6 0 76.9557 11.961 4
6 -9 0 41.1032 13.5246 1
3 -9 0 76.3286 16.5826 2
6 -9 0 40.2247 8.29943 5
-3 -6 0 52.2221 13.9753 2
-3 -6 0 45.8686 13.8493 3
3 -9 0 61.0082 15.0828 1
9 -3 0 67.8704 15.5397 1
-6 -3 0 44.6324 14.4471 2
3 -9 0 68.3569 9.73579 5
6 3 0 59.5331 11.4769 6
9 -3 0 37.4984 7.84504 6
6 -9 0 50.0658 13.2546 2
9 -3 0 25.5914 8.0351 4
-9 3 0 21.5138 10.1207 2
-9 6 0 60.0002 17.1699 3
-9 3 0 46.8026 18.4748 3
-6 -3 0 59.9465 19.0513 3
9 -6 0 37.5137 14.5343 1
2 -9 0 8.34951 7.8467 5
-9 2 0 8.88731 10.698 2
9 -7 0 9.01866 14.1034 1
-7 -2 0 19.598 13.2887 2
2 -9 0 3.51587 12.836 2
-9 2 0 8.74156 17.9364 3
7 -9 0 10.9381 13.1378 1
7 -9 0 4.27775 10.0379 2
-2 -7 0 3.09217 10.9759 1
7 2 0 6.5631 9.64323 6
7 -9 0 2.42651 5.91306 4
-2 -7 0 13.3091 11.7813 3
-7 -2 0 11.1277 19.3519 3
7 -9 0 7.86838 7.9954 5
2 -9 0 7.72879 12.2759 1
9 -2 0 19.3288 12.1029 1
-2 -7 0 11.5101 14.0256 2
9 -7 0 11.9287 8.81851 4
9 -2 0 12.5316 8.47415 6
-9 7 0 -2.2454 14.2876 3
-9 1 0 14.8337 20.3549 3
9 -1 0 1.0687 12.0146 1
8 -9 0 16.1848 14.4445 1
-1 -8 0 -1.5815 10.4658 3
9 -1 0 4.01896 7.85359 6
-1 -8 0 5.22247 12.016 1
9 -8 0 -1.9795 8.37085 2
1 -9 0 0.89143 13.0365 2
8 -9 0 1.2914 8.10608 4
-1 -8 0 8.23195 13.8256 2
1 -9 0 8.39124 12.3622 1
9 -8 0 4.87635 9.21931 4
-1 -8 0 6.64005 5.49715 5
9 -8 0 2.00967 12.4744 1
1 -9 0 7.93148 7.69645 5
-8 -1 0 -3.1015 20.3468 3
8 1 0 7.94591 9.43591 6
-8 -1 0 2.18693 12.0614 2
8 -9 0 5.2085 6.99411 5
8 -9 0 1.74808 10.1835 2
-9 1 0 3.15905 11.9436 2
9 -9 0 16.5216 15.4099 1
9 -9 0 0.29426 9.58578 2
-9 0 0 1.61175 12.6956 2
9 -9 0 6.68493 6.25578 5
-9 0 0 10.1894 19.422 3
0 -9 0 7.28929 16.3166 2
0 -9 0 2.07641 12.711 1
0 -9 0 8.02693 7.25074 5
9 0 0 15.6263 12.3404 1
9 0 0 6.66932 8.70053 6
9 -9 0 8.32374 9.13385 4
5 5 0 930.154 64.7601 6
5 -10 0 849.198 68.8865 1
5 -10 0 1039.67 63.791 5
5 -10 0 984.894 68.287 2
10 -5 0 1047.06 70.3196 1
-5 -5 0 824.044 68.3499 2
-5 -5 0 867.51 67.0385 1
-10 5 0 886.623 71.5609 3
-5 -5 0 899.378 70.4251 3
10 -5 0 908.644 64.38 4
4 -10 0 91.3797 17.5153 2
-10 6 0 86.7297 20.4569 3
4 -10 0 77.3523 17.4747 1
4 -10 0 103.41 12.3151 5
-4 -6 0 86.1472 18.7079 2
10 -6 0 106.447 19.3256 1
10 -6 0 89.0676 13.5606 4
10 -4 0 101.837 19.1679 1
-4 -6 0 109.726 17.9177 1
-4 -6 0 90.8221 18.9335 3
-10 4 0 81.3027 23.441 3
6 -10 0 88.3826 12.0373 5
-6 -4 0 99.6199 19.8063 2
10 -4 0 88.7512 12.9905 4
6 -10 0 94.9494 17.3575 2
6 -10 0 104.461 19.7432 1
6 4 0 98.4858 15.8069 6
-6 -4 0 91.5235 21.6514 3
10 -4 0 94.1676 11.8428 6
-6 -4 0 88.0441 15.7041 1
-10 3 0 8.16661 20.7141 3
7 -10 0 13.8032 13.8592 1
10 -7 0 28.5464 10.7023 4
7 -10 0 19.7102 8.50027 5
-10 7 0 -4.0462 18.1079 3
-7 -3 0 13.342 15.4166 2
-7 -3 0 13.2356 18.5352 3
-3 -7 0 18.0149 15.6704 2
10 -7 0 12.4161 14.7706 1
3 -10 0 18.7652 14.1733 1
7 3 0 15.1985 10.0407 6
7 -10 0 21.3689 12.0351 2
3 -10 0 25.4432 8.09652 5
10 -3 0 22.0665 13.2597 1
10 -3 0 24.8709 9.14712 4
3 -10 0 13.5486 16.7627 2
-3 -7 0 16.1362 13.5603 3
-3 -7 0 10.9642 12.2614 1
10 -3 0 28.9525 8.98171 6
8 -10 0 22.5524 14.9641 1
-10 2 0 11.9544 19.5427 3
8 -10 0 19.6539 8.45748 5
2 -10 0 15.8291 14.5001 1
10 -2 0 34.7406 9.61209 6
8 -10 0 1.0336 11.6627 2
8 2 0 36.1698 11.0915 6
10 -2 0 21.671 14.0296 1
8 -10 0 20.9651 8.66566 4
10 -8 0 27.8402 14.7711 1
2 -10 0 32.0217 15.5915 2
-8 -2 0 21.1489 15.0614 2
2 -10 0 36.1173 8.37963 5
-2 -8 0 21.2665 13.2623 1
10 -8 0 27.9252 9.44815 4
10 -2 0 -0.2542 7.89008 4
-2 -8 0 -2.0523 12.4982 3
-8 -2 0 40.2905 23.436 3
-2 -8 0 40.2616 17.1383 2
10 -9 0 137.26 16.7319 4
9 1 0 139.944 16.0755 6
10 -1 0 114.192 15.8358 6
-9 -1 0 171.763 30.7157 3
-10 1 0 103.94 27.2107 3
10 -9 0 140.291 22.7811 1
9 -10 0 140.264 15.7188 4
10 -1 0 90.8583 18.0789 1
-1 -9 0 134.004 13.6981 5
-1 -9 0 104.051 21.0497 2
1 -10 0 136.712 14.2753 5
1 -10 0 118.612 21.2691 2
9 -10 0 159.516 24.4445 1
9 -10 0 147.404 14.9701 5
10 -10 0 55.2035 9.92541 5
0 -10 0 85.7533 10.5306 5
0 -10 0 55.488 18.827 2
10 0 0 81.0431 12.4216 6
10 -10 0 44.6374 16.7769 1
-10 0 0 63.5338 26.8883 3
0 -10 0 2.61274 22.3995 1
-5 -6 0 0.88808 14.2605 2
-6 -5 0 -0.9561 12.1957 1
6 -11 0 0.37733 14.0258 2
5 -11 0 10.9206 8.89587 5
-5 -6 0 -0.0527 14.1314 3
-11 6 0 -2.1617 20.4499 3
6 -11 0 8.44847 8.59769 5
5 6 0 14.925 11.0849 6
-11 5 0 -3.0337 20.4114 3
6 5 0 12.4428 10.5244 6
5 -11 0 16.589 15.9548 1
11 -5 0 2.20961 14.1928 1
11 -6 0 7.17936 16.5523 1
11 -5 0 8.97571 9.7584 4
11 -5 0 2.77169 6.78732 6
6 -11 0 6.90908 15.6025 1
11 -6 0 7.6092 9.7693 4
5 -11 0 10.7224 16.3753 2
-5 -6 0 0.55356 13.6658 1
-6 -5 0 -4.0447 16.6446 3
-6 -5 0 4.52975 15.558 2
11 -7 0 272.017 30.9912 1
7 -11 0 293.35 23.8567 5
7 -11 0 252.067 30.9826 1
4 -11 0 271.315 31.3042 2
4 -11 0 323.058 23.8803 5
7 4 0 294.858 25.9221 6
4 -11 0 212.001 29.1769 1
11 -4 0 299.046 24.9693 4
-7 -4 0 329.594 38.3983 3
11 -7 0 299.966 24.8885 4
11 -4 0 286.055 23.3919 6
-4 -7 0 277.887 32.296 2
11 -4 0 300.256 31.9112 1
11 -8 0 77.4393 12.6848 4
8 3 0 75.6148 13.0429 6
8 -11 0 81.8139 11.3768 5
3 -11 0 47.1637 17.0169 2
-8 -3 0 44.7841 23.7558 3
3 -11 0 16.5202 15.659 1
11 -3 0 66.667 11.3548 6
11 -3 0 22.3417 14.2897 1
-3 -8 0 19.6501 16.1219 2
3 -11 0 71.2841 10.7409 5
11 -8 0 60.9491 18.6626 1
8 -11 0 39.6434 16.4214 1
11 -3 0 58.7844 11.9394 4
-11 3 0 35.2478 22.9185 3
8 -11 0 51.9921 10.1596 4
11 -9 0 144.488 16.8219 4
9 -11 0 137.257 15.4404 4
-9 -2 0 103.479 28.4242 3
9 -11 0 77.9505 21.1433 1
9 2 0 155.306 17.9499 6
2 -11 0 70.1928 20.9903 2
-2 -9 0 132.213 12.7803 5
2 -11 0 129.577 14.3649 5
11 -9 0 106.423 22.6509 1
11 -2 0 127.146 15.5447 6
-2 -9 0 87.8006 20.567 2
9 -11 0 133.024 14.8804 5
11 -11 0 119.348 15.9285 4
0 -11 0 105.429 13.8718 5
11 0 0 126.526 17.1369 6
11 -11 0 111.375 13.7668 5
12 -5 0 74.3424 11.9167 6
12 -7 0 91.3801 13.4326 4
12 -5 0 66.8089 12.1006 4
5 7 0 68.7309 13.8584 6
5 -12 0 79.4329 11.4706 5
7 -12 0 70.0524 10.7715 5
-7 -5 0 -3.5583 26.4737 3
7 5 0 95.7785 14.5304 6
12 -9 0 52.9678 12.0854 4
9 -12 0 44.659 10.4855 5
9 -12 0 37.0972 9.90318 4
3 -12 0 37.5922 9.87686 5
12 -3 0 33.8044 10.8726 4
9 3 0 41.7467 11.6655 6
12 -3 0 45.7036 11.0708 6
2 -12 0 16.058 8.81406 5
10 -12 0 16.7589 9.20903 5
-2 -10 0 14.7152 7.48139 5
12 -2 0 16.0542 9.75817 6
10 -12 0 17.6733 9.69837 4
12 -10 0 20.6004 10.2056 4
10 2 0 29.615 11.4184 6
12 -11 0 25.6746 10.8551 4
11 1 0 26.665 11.6199 6
12 -1 0 19.9586 10.8546 6
11 -12 0 27.32 9.32334 5
1 -12 0 11.6305 8.20152 5
-1 -11 0 17.9125 8.56918 5
12 -11 0 0.72149 6.89755 5
11 -12 0 19.7518 10.6199 4
0 -12 0 150.537 16.4687 5
12 -12 0 147.894 16.4794 5
12 0 0 159.661 19.3779 6
12 -12 0 160.076 18.4499 4
6 -13 0 272.313 21.9445 5
13 -6 0 210.433 21.0951 6
13 -6 0 271.334 23.9507 4
6 7 0 270.815 25.6456 6
13 -7 0 238.245 23.2688 4
7 6 0 265.888 25.5467 6
7 -13 0 258.22 22.4853 5
13 -5 0 574.744 44.5028 4
5 8 0 622.776 46.0698 6
13 -8 0 560.066 44.158 4
8 -13 0 599.208 43.7458 5
13 -5 0 566.031 43.9695 6
5 -13 0 689.254 44.0276 5
8 5 0 610.321 45.5707 6
9 4 0 57.7436 13.5241 6
13 -4 0 32.9459 11.9152 4
9 -13 0 38.8121 9.63892 5
13 -4 0 44.9911 11.804 6
4 -13 0 51.0951 11.1663 5
9 -13 0 26.4477 8.42936 4
13 -9 0 66.7959 12.5572 4
13 -10 0 243.476 22.0265 4
10 -13 0 203.501 20.228 5
13 -3 0 204.069 22.2344 4
3 -13 0 227.131 20.4844 5
10 3 0 230.99 22.8781 6
13 -3 0 225.489 21.689 6
10 -13 0 212.192 21.0393 4
2 -13 0 66.5876 11.1658 5
11 -13 0 81.4106 12.5551 5
13 -2 0 77.1007 14.0369 6
-2 -11 0 62.8329 10.7662 5
11 -13 0 68.5912 12.9856 4
13 -11 0 99.2528 14.9094 4
11 2 0 85.4241 14.2313 6
13 -1 0 18.8713 11.1165 6
1 -13 0 26.1695 9.72497 5
12 -13 0 19.695 10.9215 4
-1 -12 0 18.1168 8.56526 5
13 -12 0 -0.0534 7.78022 5
13 -12 0 27.3503 11.3814 4
12 1 0 29.1522 12.4876 6
12 -13 0 25.2906 9.68359 5
0 -13 0 435.601 33.0216 5
13 0 0 497.145 35.3212 6
13 -13 0 357.889 32.7319 5
13 -13 0 453.65 34.6067 4
14 -7 0 72.1798 13.008 4
7 -14 0 59.7089 11.0908 5
7 7 0 80.2474 15.9181 6
14 -6 0 134.599 17.4291 6
6 8 0 190.151 22.0114 6
8 6 0 160.945 21.3029 6
14 -8 0 145.703 18.1579 4
8 -14 0 171.341 17.7452 5
14 -6 0 148.481 19.373 4
6 -14 0 172.378 18.3607 5
9 -14 0 25.8122 10.1955 5
5 -14 0 37.8263 10.356 5
9 5 0 14.9107 11.8223 6
5 9 0 -2.7081 11.554 6
14 -5 0 22.5473 10.6514 6
14 -9 0 16.7167 9.54048 4
14 -5 0 26.4469 11.0511 4
10 -14 0 232.989 21.8961 5
4 -14 0 226.752 21.8844 5
14 -4 0 213.88 23.1999 4
14 -10 0 250.002 23.8328 4
14 -4 0 254.349 23.6318 6
10 4 0 243.277 24.7296 6
11 3 0 4.04748 10.7997 6
14 -11 0 5.33133 11.242 4
3 -14 0 4.12832 9.4111 5
-3 -11 0 -0.8125 6.88307 5
14 -3 0 7.80473 11.2028 6
14 -3 0 -1.0344 8.67104 4
11 -14 0 7.38629 9.7593 5
11 -14 0 7.77582 9.77609 4
12 -14 0 67.2145 12.4168 5
14 -12 0 77.5239 14.5327 4
12 2 0 61.9236 13.9839 6
14 -2 0 75.1804 14.9001 6
2 -14 0 69.1634 12.2666 5
12 -14 0 49.7772 12.6008 4
13 -14 0 -0.0022 10.5773 4
13 -14 0 10.4237 9.52238 5
-1 -13 0 -2.0193 8.37885 5
13 1 0 4.39232 12.479 6
14 -13 0 -5.1543 10.359 4
14 -1 0 2.95176 11.6215 6
1 -14 0 2.3277 9.18343 5
0 -14 0 3.64972 8.85726 5
0 14 0 4.18716 5.54657 11
-14 14 0 2.86768 6.13399 10
14 -14 0 -0.4387 7.86598 5
14 -14 0 8.7615 10.9057 4
14 0 0 12.7939 12.4617 6
7 -15 0 134.988 17.7438 5
8 7 0 140.674 21.4498 6
15 -8 0 109.474 18.3706 4
15 -7 0 130.028 18.0163 4
8 -15 0 115.121 16.5901 5
7 8 0 146.617 21.4565 6
9 -15 0 284.489 24.8789 5
15 -9 0 275.084 26.1372 4
15 -6 0 274.75 25.3477 6
15 -6 0 283.858 26.3345 4
9 6 0 300.714 28.992 6
6 -15 0 322.815 25.631 5
10 -15 0 37.8972 11.3632 5
15 -5 0 26.9569 11.9124 6
5 -15 0 51.8362 12.2364 5
15 -10 0 25.9797 11.578 4
15 -5 0 32.7221 12.279 4
10 5 0 28.6254 12.5638 6
15 -4 0 33.3295 12.5882 6
4 -15 0 60.023 12.2138 5
11 -15 0 46.4108 11.5447 5
15 -4 0 30.2706 11.6322 4
11 4 0 66.6964 14.698 6
15 -11 0 74.3781 14.5573 4
12 -15 0 0.94845 9.59263 4
12 3 0 2.54162 11.3659 6
3 -15 0 -3.8798 9.37356 5
12 -15 0 3.84109 10.2309 5
15 -3 0 7.8493 11.9391 6
15 -12 0 3.93357 11.8931 4
13 -15 0 53.3762 12.8445 4
-15 13 0 43.6037 8.43288 10
2 13 0 43.7054 8.27937 11
-13 15 0 31.3774 7.40385 10
15 -13 0 77.4445 14.1621 4
2 -15 0 61.1943 11.6256 5
13 2 0 73.8177 14.8795 6
15 -2 0 55.2563 13.5339 6
13 -15 0 76.4571 13.0453 5
14 1 0 27.32 14.6604 6
14 -15 0 9.72183 9.35324 5
-1 15 0 11.3269 7.39076 11
14 -15 0 17.5245 11.7623 4
-15 14 0 22.4229 8.49209 10
1 14 0 19.6693 8.27712 11
-1 -14 0 6.90336 8.67307 5
15 -14 0 18.5889 11.9124 4
15 -14 0 1.95961 5.90134 7
1 -15 0 10.6108 9.42995 5
15 -1 0 16.5105 13.3774 6
-14 15 0 7.21995 7.58016 10
15 -15 0 9.22164 11.8584 4
-15 15 0 2.15694 8.08964 10
-15 0 0 -1.1484 5.45129 9
0 -15 0 5.95626 9.4389 5
15 0 0 3.78212 13.2955 6
15 -15 0 -4.8728 5.14338 7
0 15 0 -2.5848 7.33992 11
9 7 0 42.3986 14.5502 6
7 9 0 20.9218 13.125 6
16 -7 0 34.6833 13.0846 4
16 -9 0 32.5545 12.095 4
7 -16 0 41.0869 11.3291 5
9 -16 0 39.3642 11.5902 5
16 -10 0 -3.086 5.46946 7
16 -6 0 11.864 12.219 4
6 -16 0 18.4602 11.368 5
-10 -6 0 4.56988 6.54004 9
6 -16 0 -4.222 6.07061 8
-6 -10 0 -0.1284 5.90655 9
10 6 0 18.8936 13.1445 6
16 -6 0 7.77757 10.6709 6
10 -16 0 9.56124 10.0903 5
16 -10 0 14.2932 11.5302 4
16 -5 0 60.9907 14.027 6
16 -11 0 73.115 9.65335 7
11 -16 0 70.5726 12.4646 5
-11 -5 0 48.358 9.0382 9
11 5 0 63.0692 14.8797 6
5 -16 0 69.5433 12.7788 5
16 -11 0 77.8298 14.2147 4
16 -5 0 57.9228 13.8371 4
16 -12 0 11.3522 11.8551 4
-4 -12 0 0.38763 5.93287 9
-16 12 0 4.21759 7.52766 10
12 4 0 10.6916 12.9566 6
-12 -4 0 4.51143 7.07638 9
4 -16 0 -1.5421 10.2021 5
4 -16 0 1.70921 6.02185 8
16 -12 0 -0.4488 7.84291 7
12 -16 0 2.55081 10.2246 5
4 12 0 -0.1518 6.76896 11
-12 16 0 2.47007 6.17451 10
12 -16 0 -1.1324 9.75929 4
16 -4 0 0.21062 12.4831 6
3 -16 0 49.6166 12.115 5
3 13 0 28.6286 8.44146 11
13 3 0 60.2918 15.03 6
-13 -3 0 50.2507 9.36975 9
16 -13 0 67.0552 14.2817 4
-13 16 0 47.4394 8.79258 10
16 -13 0 42.7679 9.14333 7
13 -16 0 36.7362 11.0111 4
-3 16 0 29.9241 7.64461 11
16 -3 0 53.3933 15.1175 6
13 -16 0 43.8397 11.7751 5
-16 13 0 38.8616 9.57461 10
2 14 0 27.4843 8.41188 11
16 -14 0 44.6707 8.93781 7
-16 14 0 31.8373 9.2272 10
14 2 0 58.4022 15.619 6
16 -2 0 29.8286 13.8663 6
-2 16 0 28.9511 8.17797 11
-14 16 0 42.0671 8.89604 10
14 -16 0 40.0722 11.8807 4
16 -14 0 29.5136 12.1466 4
-2 -14 0 12.4208 6.29243 9
-14 -2 0 33.0617 8.45506 9
2 -16 0 34.5262 10.8118 5
14 -16 0 14.8106 10.2464 5
16 -15 0 15.8443 7.75394 7
15 -16 0 16.6477 11.2618 4
-15 16 0 24.4681 8.75832 10
15 1 0 29.5357 15.5022 6
-1 -15 0 6.9666 6.44608 9
16 -1 0 26.7972 14.3259 6
-16 15 0 20.9358 9.02092 10
-15 -1 0 23.3931 8.13525 9
1 15 0 29.351 8.95101 11
-1 16 0 11.9502 7.80427 11
1 -16 0 24.125 9.95193 5
16 -15 0 28.1878 12.6227 4
16 -16 0 42.6594 8.13859 7
-16 0 0 35.8769 8.23774 9
16 0 0 42.6448 15.2797 6
-16 16 0 37.4127 9.52844 10
16 -16 0 41.3604 12.4639 4
0 16 0 35.6048 8.66891 11
17 -8 0 13.5799 11.9259 4
9 8 0 21.27 13.9902 6
-17 9 0 1.44586 7.89028 10
-8 -9 0 20.8142 9.32105 9
8 -17 0 11.8758 11.9373 5
17 -8 0 -3.6944 6.68329 7
17 -9 0 -0.2441 6.4383 7
-9 17 0 -0.136 6.54082 10
8 9 0 3.08078 13.2719 6
8 -17 0 8.21214 8.09806 8
9 -17 0 19.5009 10.4616 5
-9 -8 0 13.475 9.44225 9
9 -17 0 18.4424 7.77955 8
17 -9 0 14.926 12.0953 4
7 -17 0 3.50696 11.0641 5
-7 -10 0 3.51249 8.50038 9
-17 10 0 3.44184 7.21189 10
10 7 0 14.1611 14.2677 6
-10 17 0 0.05896 5.67756 10
17 -10 0 17.0111 11.776 4
-10 -7 0 3.5893 9.08063 9
17 -10 0 3.84901 7.6206 7
7 -17 0 7.49901 8.22181 8
10 -17 0 2.98128 6.7689 8
17 -7 0 8.23119 11.8303 4
10 -17 0 2.2157 10.7139 5
7 10 0 -2.5713 7.67035 11
6 -17 0 55.7635 9.38628 8
-17 11 0 64.2466 10.8129 10
11 6 0 44.6238 14.6837 6
11 -17 0 33.2521 7.53744 8
6 -17 0 48.1297 12.2427 5
17 -6 0 40.2176 12.1397 6
6 11 0 49.6327 8.47424 11
17 -11 0 51.2169 13.0451 4
17 -6 0 34.5562 12.502 4
-11 17 0 51.3457 9.26106 10
17 -11 0 55.2073 9.41627 7
-6 -11 0 45.2353 9.75239 9
11 -17 0 58.2885 13.0043 5
-11 -6 0 62.1879 10.5537 9
12 5 0 121.537 18.6819 6
-17 12 0 68.5338 12.1345 10
5 12 0 89.4977 13.1109 11
-12 17 0 102.102 12.8059 10
17 -12 0 124.619 18.9917 4
12 -17 0 126.828 16.0486 5
5 -17 0 126.926 12.1239 8
17 -5 0 106.98 16.8345 6
17 -12 0 119.28 14.7586 7
-5 -12 0 75.0484 11.6782 9
5 -17 0 118.626 15.6889 5
-12 -5 0 104.25 12.6913 9
13 -17 0 29.3297 11.3917 5
17 -13 0 24.4745 8.96292 7
-13 -4 0 13.6377 8.86737 9
-13 17 0 17.5308 8.36709 10
-4 -13 0 10.9677 8.31877 9
-17 13 0 21.8004 9.41437 10
17 -4 0 12.8314 13.1086 6
17 -13 0 17.7549 11.9294 4
4 -17 0 8.50954 7.56016 8
4 -17 0 15.7081 10.7879 5
13 -17 0 1.39915 5.28479 8
-4 17 0 18.5271 8.02811 11
13 4 0 19.2492 14.4057 6
4 13 0 0.85884 7.82574 11
-3 17 0 10.1291 8.09682 11
3 -17 0 5.77804 6.82827 8
14 3 0 9.64446 14.3418 6
-14 17 0 3.93245 7.61456 10
-17 14 0 1.89718 8.49495 10
17 -14 0 9.92611 11.7735 4
3 -17 0 14.7655 10.2683 5
17 -3 0 12.7163 13.8131 6
-3 -14 0 6.66569 8.1819 9
17 -14 0 12.5883 8.29598 7
14 -17 0 2.70062 9.64478 5
3 14 0 11.4097 8.18218 11
-14 -3 0 9.28735 8.27155 9
15 2 0 127.282 19.4606 6
2 -17 0 67.8423 9.6699 8
2 -17 0 80.4345 13.17 5
-2 17 0 89.023 11.4632 11
17 -15 0 105.803 16.663 4
-15 17 0 128.001 12.4909 10
17 -15 0 79.3696 10.6829 7
2 15 0 90.0891 11.1308 11
-17 15 0 98.9739 11.8765 10
-15 -2 0 98.4518 13.0894 9
-2 -15 0 63.8449 10.8327 9
17 -2 0 79.1284 16.548 6
17 -1 0 15.1379 13.9302 6
-16 17 0 -0.101 7.73676 10
1 -17 0 0.9533 5.8814 9
16 1 0 1.43128 14.2196 6
-17 1 0 -0.9403 6.93979 9
1 -17 0 2.89763 5.83799 8
16 -17 0 5.19694 9.58464 4
-17 16 0 2.46617 8.81946 10
17 -16 0 12.0822 11.5327 4
17 -16 0 7.30883 7.15738 7
1 16 0 -5.7401 8.05545 11
-1 -16 0 2.6606 7.7863 9
-1 17 0 1.32183 7.85598 11
-16 -1 0 3.93864 7.37334 9
1 -17 0 -1.18 11.0966 5
16 -17 0 5.59182 6.72879 7
-17 17 0 96.9068 13.3103 10
-17 0 0 97.3484 12.8269 9
0 -17 0 54.2931 10.169 9
17 -17 0 76.2824 10.0162 7
17 0 0 123.383 19.1424 6
0 17 0 111.097 11.5737 11
9 -18 0 42.3867 8.79177 8
-9 -9 0 68.96 11.377 9
-9 18 0 58.0299 8.69728 10
18 -9 0 44.3687 13.2009 4
9 -18 0 70.1667 12.9083 5
18 -9 0 53.5592 9.34552 7
-18 9 0 22.7244 8.80842 10
10 -18 0 76.6805 13.6647 5
-18 10 0 46.6492 10.6132 10
18 -10 0 69.6692 9.87598 7
-8 -10 0 86.2151 11.4424 9
10 -18 0 81.3134 9.83017 8
-18 8 0 43.4349 8.70902 10
18 -8 0 55.498 13.725 4
18 -10 0 79.7574 14.4331 4
-10 18 0 67.2241 9.66986 10
10 8 0 62.5279 16.1689 6
8 -18 0 76.3889 13.4094 5
8 10 0 45.2992 7.85259 11
18 -8 0 50.2735 8.25843 7
-18 7 0 2.26512 9.52016 10
7 -18 0 15.2275 11.4474 5
-7 -11 0 10.1013 8.78496 9
7 11 0 2.92995 7.58903 11
11 -18 0 18.6366 10.9203 5
11 -18 0 7.07334 7.44705 8
11 7 0 9.03425 14.796 6
18 -11 0 17.3943 8.14825 7
-18 11 0 3.67348 8.6906 10
-11 -7 0 8.62551 9.62569 9
-11 18 0 6.642 8.18131 10
18 -7 0 13.1541 11.1093 4
18 -11 0 9.25076 11.1586 4
7 -18 0 18.4388 8.15998 8
-7 18 0 -1.0185 6.24902 10
12 -18 0 15.2397 7.41408 8
18 -12 0 4.94314 8.09136 7
12 6 0 18.8081 14.6321 6
18 -12 0 6.59588 10.9408 4
6 12 0 0.73285 7.86748 11
-12 -6 0 -6.661 8.84992 9
6 -18 0 13.3135 8.39271 8
-6 18 0 0.46068 6.68491 11
12 -18 0 4.45878 10.3122 5
-6 -12 0 2.88284 8.43523 9
6 -18 0 5.15481 11.1468 5
-12 18 0 2.18551 7.91772 10
-18 12 0 1.39685 9.2579 10
5 13 0 6.2861 7.87921 11
18 -13 0 8.46254 12.6835 4
-5 -13 0 13.6751 8.45821 9
-18 13 0 6.60687 9.07414 10
-13 18 0 7.98829 7.91787 10
5 -18 0 17.0691 11.4917 5
18 -5 0 4.77881 11.0032 6
13 -18 0 13.4634 7.32312 8
13 5 0 2.73873 14.5051 6
-5 18 0 8.40709 7.92376 11
-13 -5 0 10.3555 9.12827 9
13 -18 0 11.7281 10.5487 5
18 -13 0 10.3863 7.94554 7
5 -18 0 4.05686 7.78704 8
14 4 0 8.52744 13.4539 6
18 -14 0 12.844 7.9308 7
-14 18 0 19.4461 8.29773 10
14 -18 0 16.5062 6.95671 8
-18 14 0 9.74423 8.94206 10
4 -18 0 10.5356 7.27685 8
4 -18 0 8.13935 10.3058 5
18 -14 0 10.8285 12.4158 4
-14 -4 0 7.47142 8.45971 9
-4 18 0 19.6737 8.56296 11
14 -18 0 1.99647 9.36699 5
-4 -14 0 12.2012 8.07624 9
18 -4 0 11.1676 12.8375 6
4 14 0 5.88624 7.9787 11
-18 3 0 0.16188 5.75237 9
-15 18 0 6.86957 7.70603 10
3 -18 0 0.45913 9.04771 5
-18 15 0 -1.737 8.03714 10
18 -15 0 2.57415 11.7266 4
18 -3 0 8.14198 12.9993 6
15 3 0 6.88238 13.9319 6
-15 -3 0 4.63636 8.04361 9
-3 18 0 8.88878 8.19965 11
3 15 0 0.78472 7.87443 11
15 -18 0 -4.9165 5.33008 8
-3 -15 0 3.45727 7.85989 9
3 -18 0 2.6368 6.87818 8
18 -15 0 0.72868 7.30456 7
-2 18 0 14.7139 7.99038 11
18 -16 0 19.5589 11.6203 4
-2 -16 0 11.2652 7.74314 9
16 2 0 13.7353 14.2959 6
-16 -2 0 9.67198 7.82716 9
-18 16 0 12.0455 8.71315 10
2 -18 0 -2.4635 6.57286 8
18 -16 0 14.1683 7.32751 7
16 -18 0 -0.6628 4.87108 7
-16 18 0 16.0905 8.26924 10
18 -2 0 13.9512 13.6009 6
2 16 0 5.16882 7.98691 11
-18 2 0 11.5385 7.01057 9
18 -1 0 3.2437 13.0955 6
-17 -1 0 6.6666 7.26556 9
-17 18 0 4.75334 8.38745 10
17 1 0 19.2329 14.2715 6
1 17 0 6.73236 8.01999 11
18 -17 0 -1.1074 9.1743 4
17 -18 0 6.41447 6.23667 7
1 -18 0 -2.9949 6.04545 8
1 -18 0 2.21129 6.18648 9
-1 -17 0 7.9753 7.58558 9
-1 18 0 1.41464 7.30113 11
-18 17 0 11.1514 8.79566 10
18 -17 0 1.77378 6.75807 7
-18 1 0 0.35797 7.06747 9
-18 18 0 16.1099 8.72738 10
18 0 0 -1.4879 11.3844 6
-18 0 0 8.61788 7.25268 9
0 -18 0 11.2454 7.19017 9
0 18 0 16.3266 7.52535 11
18 -18 0 14.3309 6.2521 7
-19 9 0 10.0072 9.21721 10
10 -19 0 5.83423 7.17996 8
-10 -9 0 12.7625 9.22152 9
19 -9 0 11.2945 7.82581 7
-19 10 0 15.2724 9.42023 10
-9 19 0 8.8345 7.68091 10
-9 -10 0 3.5377 8.10475 9
9 -19 0 11.7483 11.2079 5
19 -9 0 9.72828 11.6172 4
19 -10 0 5.81513 11.4634 4
19 -10 0 6.74995 7.70257 7
10 -19 0 11.0221 10.7499 5
9 -19 0 6.12172 7.9922 8
9 10 0 2.72594 6.63194 11
-10 19 0 -0.1516 7.52136 10
-19 11 0 11.3375 9.2614 10
-8 19 0 12.038 7.09298 10
-19 8 0 26.4723 8.7172 10
11 -19 0 33.0547 7.84652 8
8 11 0 26.9685 7.77974 11
-8 -11 0 25.6963 8.75549 9
11 8 0 4.10945 13.3497 6
19 -11 0 30.439 12.6095 4
8 -19 0 23.1528 11.8482 5
11 -19 0 32.9182 11.228 5
19 -8 0 1.08833 10.3235 4
-11 -8 0 34.8535 9.94433 9
-11 19 0 32.7775 8.79413 10
19 -8 0 24.4895 7.4318 7
8 -19 0 31.9364 8.67694 8
19 -11 0 18.3551 7.77767 7
-12 -7 0 47.1268 10.0134 9
7 -19 0 35.1669 11.886 5
-12 19 0 56.2568 9.6157 10
7 12 0 37.4928 8.64132 11
-7 -12 0 47.302 9.46229 9
-7 19 0 12.4999 7.11274 11
7 -19 0 44.8208 8.83895 8
12 7 0 25.1898 14.4667 6
19 -12 0 29.7813 8.2488 7
12 -19 0 26.433 7.75699 8
12 -19 0 35.8225 11.7801 5
-19 7 0 21.8885 7.18822 10
-19 12 0 28.7021 9.70012 10
19 -12 0 30.0005 12.0713 4
-6 -13 0 15.1681 8.37865 9
-13 19 0 12.2981 8.04224 10
13 -19 0 16.3542 10.3981 5
-19 13 0 12.9082 9.12071 10
6 -19 0 14.8743 7.29022 8
6 13 0 9.73822 7.88618 11
-13 -6 0 9.39018 8.96047 9
13 -19 0 13.2071 7.39408 8
13 6 0 20.8164 14.7722 6
19 -13 0 17.1922 12.3762 4
-6 19 0 14.0055 8.05049 11
6 -19 0 20.6601 11.3121 5
19 -13 0 20.663 7.77782 7
-14 19 0 8.76545 7.95234 10
5 -19 0 3.28273 10.1994 5
5 14 0 0.61166 7.4334 11
19 -14 0 9.35532 11.8998 4
5 -19 0 6.46038 6.94954 8
-14 -5 0 0.69238 8.07772 9
14 5 0 16.8881 14.1148 6
-19 14 0 -0.0423 8.60032 10
-5 -14 0 9.86698 7.72239 9
14 -19 0 5.54011 7.00158 8
19 -14 0 8.18322 7.97913 7
-5 19 0 3.26587 8.00103 11
14 -19 0 -0.9103 12.3821 5
4 -19 0 42.0459 8.27943 8
-15 -4 0 32.2525 8.93913 9
15 4 0 55.4487 15.5408 6
-4 -15 0 25.975 8.2896 9
19 -15 0 41.4888 8.25905 7
-4 19 0 38.474 9.15515 11
4 15 0 37.5404 8.55424 11
-19 15 0 41.3131 9.48126 10
19 -15 0 42.4529 12.8921 4
-15 19 0 49.925 9.40273 10
15 -19 0 28.7467 7.48165 8
-16 -3 0 3.49803 7.31644 9
19 -16 0 12.1019 10.8064 4
-19 16 0 10.1093 8.43499 10
16 -19 0 -2.1664 4.71215 8
-3 -16 0 15.9058 7.49235 9
16 3 0 23.0984 13.7187 6
3 -19 0 3.4871 6.5319 8
-19 3 0 1.53567 4.46352 9
-3 19 0 4.01421 7.68058 11
19 -16 0 8.17782 7.04088 7
-16 19 0 10.5473 7.91998 10
3 16 0 14.2053 7.75511 11
-19 2 0 1.11195 6.3528 9
-2 19 0 6.66751 7.43653 11
17 -19 0 0.90947 4.91785 7
17 2 0 3.44512 12.2525 6
2 17 0 7.3116 7.24766 11
-17 -2 0 -2.2846 6.9984 9
2 -19 0 9.88779 6.22477 8
-19 17 0 0.80062 7.85953 10
-17 19 0 11.1684 8.21626 10
19 -17 0 4.56351 6.55309 7
-2 -17 0 5.90391 7.13757 9
1 18 0 57.5253 8.52919 11
19 -18 0 54.7926 7.4967 7
1 -19 0 27.7355 5.81012 8
-18 19 0 49.8771 9.2526 10
18 -19 0 50.6207 7.39039 7
-19 1 0 33.4156 7.79965 9
-1 -18 0 30.7108 7.73523 9
-18 -1 0 32.5003 7.82855 9
-1 19 0 58.6185 8.66991 11
-19 0 0 4.0451 6.53488 9
0 19 0 1.08385 6.28986 11
-19 19 0 7.73024 8.0377 10
19 -19 0 6.96611 5.68372 7
0 -19 0 2.8064 5.60609 9
10 10 0 65.8642 8.9406 11
10 -20 0 94.532 11.7699 8
-10 -10 0 112.61 14.152 9
20 -10 0 95.8464 13.159 7
10 -20 0 75.9855 13.198 5
-10 20 0 97.8664 12.0504 10
-20 10 0 100.55 13.0413 10
9 11 0 33.4886 7.70576 11
20 -11 0 27.2454 11.9292 4
20 -11 0 31.1599 8.06791 7
-20 9 0 21.4028 9.08664 10
11 -20 0 40.2693 8.038 8
-9 -11 0 34.4714 8.86369 9
11 -20 0 18.4788 10.5979 5
-9 20 0 27.0568 8.0511 10
-20 11 0 26.9455 9.25841 10
20 -9 0 30.5051 8.23686 7
9 -20 0 53.5412 8.98693 8
-11 -9 0 45.1163 9.7739 9
9 -20 0 42.4775 12.3314 5
-11 20 0 49.7908 8.97223 10
-12 -8 0 12.6151 8.79056 9
12 -20 0 3.22359 9.47816 5
-8 20 0 9.93961 7.00683 10
12 -20 0 22.8869 7.37218 8
8 -20 0 11.9101 7.65964 8
20 -8 0 9.5925 6.79147 7
-20 8 0 23.3486 8.53189 10
8 -20 0 10.7107 11.1412 5
-8 20 0 -2.7245 6.01996 11
-8 -12 0 6.72448 7.59306 9
20 -12 0 11.9821 7.21637 7
20 -12 0 7.31615 11.112 4
-20 12 0 2.84689 8.46709 10
8 12 0 6.2599 7.15546 11
-12 20 0 8.26947 7.87103 10
-13 20 0 10.6064 7.67342 10
7 -20 0 11.119 6.97358 8
13 -20 0 2.06621 6.69445 8
20 -13 0 9.33525 11.2277 4
-13 -7 0 10.581 8.3764 9
-20 13 0 2.75154 8.19407 10
20 -13 0 1.46728 6.97814 7
7 -20 0 12.7863 9.87684 5
-20 7 0 7.61083 6.69357 10
13 -20 0 -1.7064 9.2798 5
7 13 0 8.43544 7.07686 11
-7 20 0 -1.7143 4.64427 10
-7 -13 0 8.96941 7.21696 9
-7 20 0 7.51003 7.85807 11
20 -14 0 16.274 7.43437 7
-6 -14 0 10.0838 6.99581 9
-6 20 0 12.7653 8.00021 11
-20 14 0 8.34447 8.25129 10
-14 -6 0 -1.5707 7.92601 9
6 -20 0 5.44851 6.77579 8
6 -20 0 -1.3348 8.49717 5
-14 20 0 5.16763 7.75443 10
14 6 0 -0.5845 15.15 6
14 -20 0 11.2032 6.74636 8
20 -14 0 13.276 11.0465 4
6 14 0 6.94729 6.88595 11
-5 20 0 17.8645 7.92853 11
20 -15 0 1.08475 10.5388 4
-15 -5 0 21.5527 8.27395 9
-5 -15 0 15.6689 7.33901 9
5 15 0 20.0184 7.62686 11
-15 20 0 17.4265 8.02379 10
15 -20 0 20.2092 6.88976 8
-20 15 0 15.3784 8.41026 10
15 5 0 -1.7288 13.7257 6
5 -20 0 16.7648 7.13386 8
20 -15 0 18.5274 7.17047 7
16 -20 0 1.95146 5.75581 8
-4 20 0 0.97757 7.39289 11
-16 20 0 1.97955 7.50396 10
-4 -16 0 -1.117 6.6347 9
20 -16 0 1.73949 6.60013 7
4 -20 0 -3.8211 5.95632 8
-20 16 0 4.43822 8.17396 10
-16 -4 0 1.89432 7.01295 9
4 16 0 1.92317 6.91143 11
-3 -17 0 6.58731 6.58135 9
3 -20 0 14.8184 6.25718 8
-17 20 0 13.6728 7.77384 10
-3 20 0 20.8283 7.44778 11
20 -17 0 19.2496 6.58513 7
-17 -3 0 14.8059 7.35149 9
3 17 0 9.2548 6.92029 11
-20 3 0 0.68155 4.31742 9
-20 17 0 9.96327 7.79922 10
2 -20 0 2.65619 5.26591 8
-2 20 0 9.15241 6.51754 11
-20 18 0 -2.375 6.96566 10
-18 -2 0 6.32659 6.65486 9
18 -20 0 -2.972 3.5355 7
20 -18 0 5.21934 5.69431 7
2 18 0 -1.1029 6.29887 11
-18 20 0 8.45944 7.62041 10
-2 -18 0 5.29904 6.25169 9
-20 2 0 1.10091 4.38519 9
-1 -19 0 27.4397 6.46418 9
20 -19 0 33.3036 6.36359 7
19 -20 0 18.9043 5.49102 7
-19 20 0 30.7829 8.40394 10
-20 1 0 22.3712 5.74823 9
-20 19 0 50.3403 9.17155 10
-1 20 0 36.6208 7.02105 11
1 19 0 30.8384 6.9595 11
-19 -1 0 29.298 7.24709 9
-20 0 0 22.0123 5.6671 9
20 -20 0 24.4447 5.77355 7
0 20 0 26.3659 6.35996 11
-20 20 0 37.153 8.3012 10
10 -21 0 5.57765 6.30083 8
11 -21 0 -1.165 8.57319 5
11 10 0 -3.0874 4.0354 11
-21 11 0 -3.6815 7.39578 10
-11 21 0 -1.822 6.77295 10
10 11 0 4.39433 5.99326 11
-21 10 0 4.26096 7.41454 10
-10 21 0 2.45249 6.93721 10
21 -11 0 -0.2144 6.40287 7
11 -21 0 5.67474 6.12982 8
-11 -10 0 2.9528 7.52483 9
21 -10 0 -0.8848 6.43378 7
10 -21 0 1.26328 8.28725 5
-10 -11 0 6.59127 7.10375 9
-21 12 0 -3.0937 7.67067 10
9 12 0 1.44782 6.05112 11
-9 21 0 -1.5693 6.65155 10
-9 -12 0 3.8273 6.80465 9
21 -12 0 -0.5771 6.19644 7
12 -21 0 7.9848 6.63533 8
21 -9 0 0.79725 6.0534 7
-12 21 0 5.96393 7.33038 10
-21 9 0 8.56425 7.4947 10
9 -21 0 3.66048 6.52977 8
9 -21 0 -0.1854 7.86803 5
-12 -9 0 -3.5796 7.64786 9
-13 21 0 8.9883 7.02089 10
8 -21 0 12.7557 6.68357 8
-21 8 0 9.91063 7.16115 10
-8 21 0 2.92875 6.07066 10
8 13 0 1.02321 6.166 11
-13 -8 0 -2.1939 7.56683 9
21 -13 0 6.81559 6.19153 7
-8 -13 0 -2.3962 6.27598 9
13 -21 0 7.36848 6.6009 8
-8 21 0 -3.0146 5.76938 11
21 -8 0 -4.2621 4.44309 7
-21 13 0 9.86594 7.62636 10
8 -21 0 -0.0419 12.1436 5
7 -21 0 43.5546 7.32379 8
-21 14 0 26.8537 8.21492 10
-14 -7 0 50.7473 9.06861 9
21 -14 0 29.0203 6.95755 7
-14 21 0 21.9522 7.54322 10
7 14 0 28.4169 7.40001 11
14 -21 0 28.7249 7.24922 8
-7 -14 0 30.69 7.59188 9
-7 21 0 33.0899 8.18367 11
-6 21 0 -1.0132 6.84368 11
-15 -6 0 -2.6201 7.22532 9
6 -21 0 0.34004 6.05689 8
-15 21 0 -1.7328 6.83423 10
-21 15 0 4.45051 7.46923 10
15 -21 0 2.39097 6.28559 8
21 -15 0 4.52246 6.32767 7
-6 -15 0 -0.8108 5.94086 9
6 15 0 -1.2037 6.14807 11
5 16 0 34.1856 7.01114 11
16 -21 0 19.9889 6.34913 8
-16 21 0 25.1325 7.8077 10
-5 21 0 25.3211 7.50145 11
21 -16 0 19.7833 6.63258 7
-5 -16 0 19.4195 6.84516 9
-21 16 0 30.183 8.19887 10
5 -21 0 27.8861 6.44566 8
-16 -5 0 33.0328 7.68356 9
-17 -4 0 2.6352 6.61397 9
-21 17 0 2.41147 7.16057 10
21 -17 0 6.09431 5.61201 7
17 -21 0 -3.1344 4.5644 8
4 -21 0 7.28998 5.73634 8
-4 -17 0 7.46428 5.96751 9
-4 21 0 14.7842 6.77107 11
-17 21 0 5.54083 7.27965 10
4 17 0 2.73129 6.03939 11
3 18 0 27.9406 6.5832 11
-21 18 0 37.5845 7.87084 10
-3 -18 0 16.8495 5.94639 9
21 -18 0 24.0964 5.88251 7
-18 -3 0 16.1004 6.64128 9
3 -21 0 19.3388 5.61352 8
-3 21 0 16.1245 6.47706 11
-18 21 0 18.4388 7.52427 10
21 -19 0 12.7292 5.35822 7
-2 -19 0 14.1973 5.19516 9
-21 19 0 12.2493 7.29255 10
-19 -2 0 14.4352 6.2722 9
2 19 0 16.2071 5.76871 11
-19 21 0 14.0375 7.329 10
-2 21 0 8.52009 5.81515 11
21 -20 0 4.99808 4.71449 7
1 20 0 1.97033 5.24427 11
-20 -1 0 -1.0009 4.20593 9
-1 21 0 1.08169 5.43645 11
-21 20 0 6.28691 6.9294 10
-20 21 0 -0.3766 6.73326 10
-21 21 0 34.0531 7.70956 10
0 21 0 33.0624 5.99698 11
-22 11 0 21.7019 7.32192 10
-11 -11 0 49.0144 8.14379 9
-11 22 0 18.9385 6.77976 10
11 -22 0 27.0383 6.08374 8
22 -11 0 30.898 6.70838 7
12 -22 0 5.05284 5.29827 8
-12 22 0 -5.0665 6.15049 10
-10 22 0 2.20914 6.09056 10
-22 12 0 7.27063 6.5167 10
-22 10 0 8.61282 6.54838 10
22 -10 0 5.87415 5.8107 7
10 12 0 7.13904 5.62898 11
10 -22 0 -0.1019 5.53718 8
22 -12 0 6.77809 5.96571 7
-12 -10 0 0.14342 6.50745 9
-10 -12 0 0.25137 5.88439 9
-22 13 0 1.49948 6.6087 10
-22 9 0 2.15536 6.00355 10
13 -22 0 10.0179 5.50966 8
9 13 0 11.8071 6.038 11
22 -9 0 1.51737 4.36955 7
-13 22 0 7.08608 6.42658 10
-9 22 0 3.43824 5.16566 10
22 -13 0 7.58484 5.75297 7
9 -22 0 9.18114 6.08034 8
-13 -9 0 11.0753 7.01359 9
-9 -13 0 3.27993 6.17727 9
-22 14 0 1.07574 6.36898 10
8 14 0 -0.5544 5.63485 11
-14 22 0 0.72304 6.17988 10
8 -22 0 5.98117 5.69139 8
22 -14 0 7.02831 5.75511 7
-8 -14 0 -2.9553 5.6846 9
-8 22 0 -1.9977 5.02002 11
-14 -8 0 -0.9547 6.70407 9
14 -22 0 -0.5588 5.33711 8
-22 8 0 1.81507 6.4819 10
-7 22 0 8.71214 6.5292 11
-7 -15 0 2.6469 5.56994 9
-15 22 0 0.38755 6.08288 10
22 -15 0 4.89889 4.942 7
7 -22 0 2.0122 5.4333 8
-15 -7 0 4.00085 6.61215 9
7 15 0 9.14763 5.78965 11
-22 15 0 9.90429 6.81696 10
15 -22 0 5.31172 5.16125 8
-6 -16 0 6.29243 5.40673 9
22 -16 0 12.9351 5.37913 7
-16 22 0 3.6991 6.277 10
-16 -6 0 11.831 6.38239 9
16 -22 0 8.11353 4.89529 8
6 -22 0 7.85792 5.34817 8
6 16 0 10.2024 5.62251 11
-22 16 0 20.8426 7.40877 10
-6 22 0 16.4095 6.71902 11
-17 22 0 -3.5663 5.93172 10
-5 22 0 4.50848 5.73651 11
17 -22 0 -3.5474 3.65299 8
5 -22 0 1.86774 5.01593 8
22 -17 0 4.34713 5.21689 7
-17 -5 0 -1.2947 5.63293 9
-22 17 0 0.50791 6.52911 10
5 17 0 1.11861 5.41942 11
-5 -17 0 5.51311 5.36749 9
22 -18 0 8.76427 5.20222 7
-4 22 0 2.62286 5.67381 11
-4 -18 0 1.60458 5.06982 9
-18 -4 0 1.44399 5.7436 9
4 18 0 6.78337 5.53045 11
-18 22 0 2.43359 6.21936 10
-22 18 0 4.49363 6.43144 10
4 -22 0 -2.0088 4.54559 8
-3 22 0 1.19195 5.15086 11
22 -19 0 -2.9452 4.5756 7
3 -22 0 -2.0044 5.03759 8
-3 -19 0 0.9652 3.71488 9
-19 -3 0 0.55515 5.23437 9
3 19 0 -1.4764 5.29138 11
-19 22 0 1.01732 5.85757 10
-22 19 0 4.17394 6.62581 10
-2 22 0 12.964 5.40464 11
-22 20 0 10.3483 6.58391 10
2 20 0 8.59079 5.36351 11
-20 22 0 7.29102 6.46363 10
-20 -2 0 0.7686 3.81136 9
22 -20 0 10.7792 4.58286 7
1 21 0 17.5256 5.5636 11
-21 22 0 7.76923 6.74683 10
-1 22 0 11.7035 5.6389 11
-22 21 0 8.6874 7.1908 10
-12 -11 0 15.339 6.28354 9
-23 12 0 2.05046 5.78383 10
-11 23 0 4.75443 5.32435 10
-11 -12 0 14.9661 5.6694 9
12 -23 0 8.81056 4.90295 8
11 -23 0 10.4616 5.14021 8
-12 23 0 4.43171 5.32446 10
23 -11 0 9.52022 4.90967 7
23 -12 0 12.828 5.19008 7
-23 11 0 1.20196 5.50807 10
-23 10 0 4.71294 4.63285 10
10 13 0 -0.9427 4.53819 11
-10 23 0 -1.8139 5.11617 10
-23 13 0 1.79592 5.73215 10
13 -23 0 -1.0246 4.76791 8
10 -23 0 1.95204 5.05018 8
23 -10 0 -2.2719 3.70837 7
23 -13 0 2.93258 4.76406 7
-10 -13 0 0.63594 5.1785 9
-13 23 0 5.76475 5.47925 10
-13 -10 0 3.69572 5.8962 9
14 -23 0 1.65074 4.57264 8
-14 -9 0 1.53689 5.8285 9
-23 14 0 -3.2547 5.86317 10
9 -23 0 5.97585 4.88467 8
-14 23 0 2.12054 5.42696 10
23 -14 0 -1.3491 4.65528 7
9 14 0 4.85388 5.18197 11
-9 -14 0 1.35473 5.01865 9
-15 -8 0 7.43191 5.87743 9
8 15 0 3.87505 4.9821 11
-15 23 0 1.40559 5.32716 10
15 -23 0 6.83006 4.65461 8
-23 15 0 5.81339 6.37863 10
-8 -15 0 -0.4884 5.00347 9
23 -15 0 3.72002 4.63544 7
8 -23 0 3.53863 4.6941 8
-7 -16 0 3.63578 5.12419 9
-7 23 0 -2.1363 5.50341 11
-16 -7 0 4.93995 5.35679 9
-23 16 0 9.14894 6.20248 10
23 -16 0 4.14586 4.89269 7
16 -23 0 -0.5684 4.59363 8
7 16 0 0.46432 4.95843 11
-16 23 0 -0.6014 5.18494 10
7 -23 0 7.88302 4.60774 8
-23 17 0 3.45558 6.27017 10
6 -23 0 -2.5862 4.36522 8
-17 23 0 -3.1951 4.95431 10
-6 -17 0 3.22034 5.43121 9
-17 -6 0 -3.9327 5.13539 9
-6 23 0 0.46504 4.58806 11
23 -17 0 5.85122 4.8623 7
6 17 0 -6.0333 4.68253 11
5 -23 0 5.1209 3.93371 8
5 18 0 11.1558 5.33641 11
-5 23 0 6.0777 5.08345 11
23 -18 0 3.07555 4.70635 7
-18 -5 0 1.76537 5.23246 9
-23 18 0 16.0655 6.74708 10
-18 23 0 4.78053 5.27645 10
-5 -18 0 4.51571 4.69294 9
-4 23 0 0.83953 4.76619 11
-19 23 0 2.99201 5.48686 10
-23 19 0 7.19213 6.7351 10
4 19 0 1.23612 5.14816 11
23 -19 0 3.03703 4.62468 7
-19 -4 0 0.01852 4.18728 9
3 20 0 9.39607 5.61621 11
23 -20 0 6.56335 4.28176 7
-23 20 0 16.672 7.15158 10
-20 23 0 4.1132 5.96602 10
-3 23 0 8.87374 5.26252 11
-24 12 0 0.67057 6.03311 10
12 -24 0 5.70378 4.30018 8
24 -12 0 6.10906 4.45895 7
-12 -12 0 7.28746 5.29588 9
-13 -11 0 1.65288 5.16429 9
24 -13 0 2.82817 4.68897 7
-24 13 0 1.87152 4.59119 10
-13 24 0 -0.5443 3.34573 10
11 -24 0 1.42235 4.33821 8
-11 -13 0 0.44541 4.83754 9
13 -24 0 5.32002 4.38735 8
-24 14 0 1.16893 5.40694 10
-14 24 0 2.34008 4.1791 10
10 -24 0 3.51905 4.55332 8
24 -14 0 3.66034 4.52216 7
-14 -10 0 2.11159 4.97113 9
-10 -14 0 0.49728 4.73931 9
-24 15 0 2.40606 5.52897 10
9 15 0 -0.4577 2.90306 11
9 -24 0 -2.143 4.2186 8
-15 24 0 3.60708 4.42221 10
24 -15 0 0.26233 4.35464 7
-15 -9 0 -1.3817 4.76272 9
-9 -15 0 -0.6235 4.71949 9
8 -24 0 0.40433 4.05855 8
-24 16 0 2.04349 5.81097 10
16 -24 0 -0.9747 3.49044 8
24 -16 0 0.36389 4.45076 7
-8 -16 0 0.97755 4.86033 9
8 16 0 -1.3326 4.07384 11
-16 -8 0 -0.1977 4.83633 9
-16 24 0 0.9426 4.4134 10
-7 -17 0 1.20781 4.88479 9
7 -24 0 2.06863 3.9956 8
-17 24 0 -0.8364 4.63603 10
24 -17 0 1.11749 4.8475 7
7 17 0 3.35135 4.82017 11
-17 -7 0 1.53121 5.09839 9
-24 17 0 4.71498 5.99427 10
6 -24 0 2.46717 2.41993 8
-18 24 0 7.37949 5.27293 10
6 18 0 5.35845 5.22227 11
-24 18 0 12.2909 6.5912 10
24 -18 0 5.83521 5.00008 7
13 -25 0 -0.7016 4.69263 8
12 -25 0 2.22051 4.3557 8
11 -25 0 9.66512 4.53841 8
14 -25 0 1.37682 4.44206 8
0 0 -1 0.81344 2.5052 2
0 0 1 -1.3556 2.67147 2
1 -1 1 6.45248 3.0445 3
-1 0 -1 12.2567 4.06498 3
1 -1 1 12.6212 3.42369 1
-1 1 -1 10.5068 2.18398 2
-1 1 -1 11.3807 3.66699 1
-1 0 1 14.6771 3.708 2
1 -1 -1 13.7877 4.46798 3
-1 0 -1 14.5114 3.00429 2
-1 0 1 12.076 4.4878 3
1 0 1 6.33408 2.68951 2
1 0 1 8.69653 3.93959 3
1 -1 1 13.2368 2.62507 2
-1 0 1 7.04584 3.97752 1
0 -1 -1 15.226 4.46128 3
0 -1 1 16.5223 3.97352 2
1 0 -1 10.796 4.02149 1
1 -1 -1 10.0262 4.44648 2
0 -1 1 8.59943 3.10666 1
0 1 1 10.8383 2.27434 1
-1 1 1 12.3003 4.179 3
0 1 1 10.3867 4.3061 2
1 0 -1 9.20005 4.51 3
-1 1 1 11.3705 3.75509 1
0 1 -1 8.15177 3.29847 1
1 -1 -1 12.3852 3.67487 1
-1 0 -1 10.4418 2.39934 1
0 1 -1 7.2812 3.77112 2
-1 1 -1 12.0153 3.17641 3
0 -1 -1 13.1362 4.27763 2
-1 1 1 9.35425 4.0939 2
0 1 -1 9.59263 3.4969 3
1 0 1 13.0565 2.26452 1
0 1 1 8.20632 4.50137 3
0 -1 -1 14.309 2.44859 1
0 -1 1 10.8149 3.23643 3
1 -2 -1 520.146 32.4855 1
-1 -1 -1 530.389 32.657 2
-1 2 1 409.804 32.6123 2
2 -1 -1 457.432 33.2813 3
-1 -1 -1 466.471 32.9363 3
1 -2 1 460.574 31.4675 3
-2 1 -1 506.582 32.838 3
-2 1 1 401.642 32.6007 1
-1 2 1 420.394 32.4312 3
1 -2 1 518.554 32.8673 1
-1 2 1 451.934 32.3186 1
-1 -1 1 513.865 32.8456 2
-1 -1 1 500.145 33.1439 3
2 -1 1 483.711 32.3244 1
-1 2 -1 465.923 32.7548 1
-1 -1 -1 447.674 31.4688 1
-2 1 1 487.109 32.9334 3
1 1 1 479.065 32.4934 2
1 1 1 398.834 32.8372 3
2 -1 1 432.738 32.7324 3
1 1 -1 462.463 33.3791 3
2 -1 -1 515.993 33.1376 1
-2 1 1 429.782 32.5162 2
1 -2 -1 477.335 32.7006 2
-2 1 -1 495.028 32.6172 1
1 1 -1 479.024 32.9079 2
1 -2 1 483.363 32.054 2
-1 2 -1 477.424 32.2852 2
2 -2 1 13.1959 5.56153 1
0 2 1 11.9313 4.20688 1
-2 2 1 12.8341 6.10253 2
-2 2 -1 13.4702 6.33764 1
2 0 -1 16.9851 6.2752 1
2 0 1 15.7637 3.97577 1
0 2 1 13.1505 5.84624 2
0 -2 -1 15.8572 5.45526 3
2 -2 -1 5.17329 5.27167 3
-2 2 1 8.25262 6.12678 1
-2 0 1 12.204 6.26504 1
2 0 1 14.7055 7.70565 3
0 -2 1 6.11713 4.97931 3
2 -2 1 12.4433 3.15628 2
0 -2 1 13.9821 5.71861 2
2 -2 1 1.29174 3.9604 3
2 -2 -1 8.65906 5.30713 1
-2 0 -1 12.7978 4.8075 1
0 2 -1 19.1175 5.30012 3
2 0 -1 13.3204 7.36331 3
0 -2 -1 16.1562 4.14535 1
-2 0 -1 16.4495 4.18527 2
-2 2 -1 9.4736 3.87509 3
-2 0 -1 17.3374 6.34845 3
-2 2 1 21.0381 5.78483 3
0 2 -1 11.7628 5.98682 2
0 -2 -1 19.9625 6.08922 2
2 0 1 10.109 3.74417 2
-2 0 1 24.5176 7.559 3
2 0 -1 4.89383 4.75478 2
2 -2 -1 22.7177 6.19514 2
0 -2 1 17.0395 5.40176 1
-2 0 1 13.3283 4.66835 2
-2 2 -1 11.3155 3.59402 2
0 2 -1 7.86607 5.09825 1
0 2 1 5.69522 4.68886 3
2 -3 1 359.543 24.6789 1
3 -2 -1 367.589 24.3859 2
-2 -1 -1 355.616 25.6254 3
-1 -2 1 359.259 24.8705 2
1 -3 -1 338.095 24.0173 3
2 -3 1 270.898 21.9789 3
-2 -1 -1 331.509 23.6602 1
-1 3 -1 343.602 22.7253 3
1 -3 -1 338.915 24.9235 2
-2 3 1 348.37 23.9968 3
2 -3 1 355.705 23.6604 2
-3 1 1 343.074 25.5118 3
3 -2 -1 300.168 25.0261 3
-2 3 1 276.598 24.4535 1
-1 3 -1 306.366 24.6202 2
-2 -1 -1 312.718 24.0062 2
-3 2 -1 372.15 25.2857 3
3 -2 -1 354.794 25.1175 1
3 -1 1 309.798 22.2696 2
-1 -2 1 339.032 24.1007 1
3 -1 1 259.635 24.9854 3
3 -1 1 342.59 24.2476 1
-1 -2 1 373.923 25.6442 3
-3 2 -1 287.583 24.5146 1
1 -3 -1 321.51 24.119 1
2 -3 -1 355.92 25.8608 2
-3 1 -1 381.338 26.4067 1
-1 -2 -1 397.905 24.854 1
1 -3 1 385.731 25.8491 2
-1 3 1 305.941 25.3411 3
3 -1 -1 390.065 26.7501 1
-3 1 -1 390.456 24.048 2
2 -3 -1 345.407 26.0374 1
3 -2 1 378.269 25.9853 1
-2 -1 1 372.055 25.7845 2
-3 2 1 300.282 25.6362 2
1 2 -1 366.565 27.7563 3
-1 3 1 328.546 25.3981 1
2 1 1 306.548 25.3106 2
-1 -2 -1 333.323 26.1413 2
1 -3 1 324.875 24.3643 3
-2 3 -1 332.66 25.4452 2
-3 2 1 332.129 26.328 3
1 -3 1 389.06 26.3944 1
-2 -1 1 383.401 27.899 3
-3 1 -1 341.546 27.2254 3
-1 -2 -1 370.359 26.6767 3
3 -2 1 296.621 25.5626 3
3 -3 -1 28.83 7.7628 2
0 3 1 9.81523 6.23799 3
3 0 1 19.7152 5.89212 1
0 -3 1 21.3289 7.26753 3
-3 3 1 4.97395 5.7067 2
0 -3 -1 24.9515 7.60285 3
-3 0 1 18.9095 7.26744 2
3 0 1 14.2939 5.41691 2
3 0 -1 0.65111 6.62511 3
-3 0 -1 12.8145 7.41483 1
-3 3 -1 24.0029 5.62286 3
-3 3 1 21.364 7.29337 3
0 3 1 16.8139 6.5517 1
0 -3 1 21.4941 6.95967 2
0 -3 1 22.5261 6.79117 1
3 -3 -1 17.1182 7.01232 1
-3 3 -1 19.6312 6.14806 2
0 -3 -1 27.8732 8.08441 2
0 3 -1 17.3644 7.77576 3
-3 0 -1 21.7746 6.04429 2
-3 0 1 32.2135 10.7202 3
-3 3 -1 4.19881 5.91426 1
-3 0 -1 25.3264 9.94174 3
0 -3 -1 20.593 5.83266 1
3 0 -1 27.9068 7.6237 1
3 -3 1 26.1324 4.92926 2
3 -3 1 16.8592 6.16685 3
3 0 1 2.66129 6.00133 3
3 -3 -1 16.1815 6.30826 3
3 -3 1 25.5784 7.95228 1
2 -4 1 447.288 30.9835 2
-2 -2 1 458.306 31.4866 2
-2 -2 -1 396.696 29.9973 1
-4 2 1 385.132 32.7366 3
2 -4 -1 431.699 32.0592 2
-2 -2 1 439.754 33.9216 3
-4 2 -1 482.294 29.1258 2
4 -2 -1 447.787 31.8222 1
2 -4 1 463.141 31.8152 1
-2 -2 -1 419.686 32.3185 3
4 -2 1 449.891 31.5911 1
2 -4 -1 398.829 31.437 1
-4 2 -1 394.408 28.9359 2
-4 2 -1 413.395 33.4231 3
-2 -2 -1 385.684 31.3723 2
-1 4 -1 91.7278 10.4621 3
-4 1 1 82.4545 10.7923 2
4 -3 -1 108.452 13.0451 1
3 -4 1 117.722 11.1089 2
4 -3 -1 112.084 12.5302 2
1 -4 -1 89.706 11.5354 1
-4 3 -1 101.007 13.9327 3
-4 3 -1 114.385 10.0754 2
4 -1 1 93.7235 11.5666 1
3 -4 1 94.1905 13.2343 1
-4 1 1 89.0693 14.2451 3
-1 -3 1 93.8543 10.8583 1
-3 -1 -1 107.634 16.9497 3
4 -1 1 83.5114 8.8396 2
-1 -3 1 98.4197 13.0584 2
1 -4 -1 91.9015 11.5571 3
-3 -1 -1 88.2436 12.2507 2
-1 -3 1 130.978 14.6119 3
1 -4 -1 98.9122 14.1144 2
-3 4 1 96.0784 11.4793 3
-1 -3 -1 92.9507 13.6465 2
4 -3 1 112.56 9.8864 2
4 -3 1 106.829 13.2785 1
-4 3 1 103.39 13.4543 3
-3 -1 1 120.697 16.3634 3
-3 -1 1 102.688 11.6914 2
3 -4 -1 112.831 12.8082 2
-4 1 -1 122.049 10.7082 2
-4 1 -1 90.4829 15.6169 3
1 -4 1 132.091 13.7994 2
3 1 1 119.556 11.7716 1
3 -4 -1 98.8702 13.3392 1
-1 -3 -1 100.644 11.3157 1
1 -4 1 110.034 13.3157 1
1 -4 1 127.369 10.3265 3
4 -1 -1 108.365 13.3358 1
-1 -3 -1 120.656 14.1067 3
4 0 1 142.709 13.4441 1
4 -4 -1 148.355 15.1244 2
4 -4 1 147.405 15.4103 1
4 0 -1 163.861 15.524 1
0 -4 -1 137.945 14.1423 1
4 -4 1 137.069 12.6729 2
4 -4 -1 131.909 16.0872 1
4 -4 1 118.375 12.9664 3
0 -4 1 129.962 15.0936 1
0 -4 1 166.889 16.2887 2
-4 4 1 130.527 14.9997 3
0 -4 -1 161.088 15.3969 3
0 -4 -1 153.298 15.7084 2
-4 0 1 174.764 20.2929 3
-4 0 1 143.103 15.0084 2
-4 0 -1 171.006 20.2833 3
-4 0 -1 136.055 13.9898 2
-4 4 -1 171.948 14.2058 3
0 -4 1 173.013 14.8505 3
5 -2 1 129.844 14.6158 1
2 -5 -1 114.511 14.5054 1
-2 -3 1 120.776 13.2118 1
-5 2 1 109.044 12.8555 2
-2 -3 1 121.303 14.3508 2
2 -5 -1 130.069 15.4429 2
3 -5 1 131.15 15.7681 1
3 -5 1 133.074 13.9716 2
-3 -2 -1 112.112 15.3362 2
-3 -2 -1 120.698 16.4298 3
-3 5 1 120.266 13.3819 3
-2 -3 1 146.799 17.2599 3
-5 3 -1 118.485 17.6483 3
-5 3 -1 132.105 10.4832 2
-5 2 1 120.484 17.6381 3
5 -3 -1 127.148 14.9794 1
-2 -3 -1 176.851 16.5991 1
3 -5 -1 183.83 18.9081 1
2 -5 1 213.258 18.6237 1
5 -2 -1 191.567 18.8648 1
2 -5 1 228.961 18.462 2
3 -5 -1 194.383 18.276 2
-5 2 -1 181.868 22.6891 3
-5 3 1 176.258 19.4274 3
-3 -2 1 235.392 23.8093 3
-3 -2 1 185.301 17.7086 2
5 -3 1 204.993 18.9843 1
-2 -3 -1 200.246 19.874 3
-5 2 -1 223.741 15.5264 2
-2 -3 -1 173.29 17.9327 2
4 -5 1 135.638 10.9959 3
5 -4 -1 155.588 16.907 1
-1 -4 1 136.681 16.2603 1
4 -5 1 168.573 14.8549 2
1 -5 -1 160.539 17.3214 2
-1 -4 1 173.484 17.3263 3
-5 4 -1 150.772 18.7047 3
-1 -4 1 171.549 17.632 2
5 -1 1 153.316 15.6793 1
-5 1 1 153.008 15.1981 2
-4 -1 -1 146.763 15.7381 2
4 1 -1 174.193 17.3622 1
1 -5 -1 143.08 15.5673 1
-4 5 1 146.814 15.3335 3
5 -4 -1 164.5 15.9379 2
-4 -1 -1 178.231 21.8466 3
1 -5 -1 147.527 15.5147 3
-5 1 1 152.207 19.4709 3
4 -5 1 181.091 17.8883 1
-4 -1 1 125.841 19.4157 3
-1 -4 -1 109.376 12.6202 1
4 1 1 125.051 13.5777 1
-5 4 1 118.197 15.1941 3
-5 1 -1 161.362 20.8966 3
5 -4 1 128.324 15.6452 1
-1 -4 -1 103.207 14.4067 2
5 -4 1 123.277 11.5162 2
1 -5 1 119.056 15.0827 2
1 -5 1 131.592 11.8689 3
-5 1 -1 121.758 12.6744 2
5 -1 -1 120.022 14.4292 1
1 -5 1 123.2 13.79 1
-1 -4 -1 118.417 14.9493 3
4 -5 -1 100.31 15.051 1
4 -5 -1 120.474 14.2602 2
-4 -1 1 116.785 13.3585 2
0 -5 1 155.028 16.7925 1
5 0 1 159.162 15.5967 1
0 -5 -1 164.773 17.8439 2
-5 0 -1 168.545 23.9642 3
0 -5 -1 182.528 17.5226 3
5 -5 -1 166.25 15.7709 2
5 -5 -1 145.289 18.193 1
-5 5 1 157.09 16.9757 3
0 -5 1 170.246 17.5296 2
-5 0 1 159.934 16.6191 2
-5 0 1 176.724 22.3141 3
-5 0 -1 144.312 16.0784 2
0 -5 1 165.758 16.3024 3
5 -5 1 155.456 14.1828 2
0 -5 -1 147.28 16.2177 1
5 -5 1 165.502 17.2161 1
5 0 -1 184.324 18.3121 1
-6 3 1 112.374 17.3341 3
3 -6 -1 89.4525 14.8406 1
-3 -3 1 91.9275 13.5599 2
-3 -3 1 92.8135 15.6796 3
3 -6 1 89.4994 14.0143 1
-3 -3 1 100.045 13.6458 1
3 -6 1 89.9602 13.455 2
6 -3 1 95.85 15.0206 1
-6 3 -1 78.3158 17.1487 3
-3 -3 -1 76.6356 12.03 1
-3 -3 -1 116.874 17.2859 3
6 -3 -1 110.333 15.2776 1
-6 3 -1 94.591 10.4839 2
3 -6 -1 140.958 16.8189 2
-3 6 1 76.584 11.728 3
-3 -3 -1 95.0554 14.3435 2
-2 -4 1 82.4181 12.4375 1
4 -6 1 73.6307 11.6407 2
-4 6 1 64.0952 10.5634 3
-4 -2 -1 74.3123 16.5801 3
2 -6 -1 81.818 14.932 2
-2 -4 1 79.726 14.1022 3
-2 -4 1 76.2635 13.2189 2
-6 2 1 72.0468 15.6032 3
6 -2 1 84.7536 12.6115 1
-6 4 -1 77.8662 15.906 3
4 -6 1 90.6175 14.9108 1
6 -4 -1 76.1287 13.4074 1
-6 2 1 71.088 10.987 2
2 -6 -1 63.8061 12.0595 1
-4 -2 -1 55.1927 11.9688 2
4 -6 -1 100.028 15.8273 1
-2 -4 -1 109.987 13.8413 1
6 -4 1 119.685 16.243 1
-2 -4 -1 140.212 16.9146 3
2 -6 1 117.697 14.8391 1
2 -6 1 110.954 9.74459 3
2 -6 1 132.779 15.8345 2
-6 4 1 114.954 17.0397 3
-6 2 -1 147.512 22.1852 3
-4 -2 1 135.112 18.7781 3
4 -6 -1 113.449 15.8626 2
6 -2 -1 111.48 15.4256 1
-2 -4 -1 122.966 15.2797 2
-6 2 -1 113.536 12.1897 2
-4 -2 1 116.617 15.4557 2
5 -6 1 28.4128 8.59994 2
-6 1 1 16.088 14.2244 3
-6 5 -1 19.7404 12.3119 3
-1 -5 1 34.2927 10.4085 1
6 -1 1 21.5011 9.48938 1
-5 -1 -1 28.1758 14.6488 3
5 1 -1 23.5942 10.3604 1
6 -5 -1 26.2661 9.73188 2
-1 -5 1 35.5362 11.0754 2
-1 -5 1 31.0175 10.6853 3
1 -6 -1 20.496 8.89635 3
-5 -1 -1 16.4553 9.79347 2
-6 1 1 28.5266 10.1658 2
6 -5 -1 28.8122 11.7809 1
-5 6 1 20.7801 9.21854 3
1 -6 -1 27.4241 10.0793 1
5 -6 1 27.6042 11.7107 1
1 -6 -1 37.4564 11.805 2
-5 6 -1 46.3431 5.70061 3
1 -6 1 63.0277 11.6189 1
5 -6 -1 44.957 10.4326 2
-1 -5 -1 49.7155 9.96979 1
5 -6 -1 40.5169 10.9648 1
6 -5 1 47.0036 8.09524 2
-1 -5 -1 53.4992 12.4714 2
-6 1 -1 45.0951 16.0119 3
-1 -5 -1 43.5948 10.7952 3
5 1 1 51.7591 10.0924 1
1 -6 1 44.0285 7.70635 3
-6 1 -1 42.6583 9.29552 2
1 -6 1 54.1008 12.0976 2
-5 -1 1 51.8183 11.08 2
-6 5 1 45.5039 11.4528 3
-5 -1 1 76.7959 18.9936 3
6 -5 1 52.3331 11.9128 1
6 -1 -1 50.8764 10.7363 1
6 -6 -1 43.1203 12.5983 1
0 -6 1 35.7412 11.368 2
-6 0 1 56.8529 18.6449 3
0 -6 1 44.8131 9.04448 3
6 0 -1 60.6237 12.8235 1
-6 0 1 40.7423 10.6818 2
0 -6 -1 51.4957 13.9958 2
6 -6 -1 55.4808 11.2222 2
-6 0 -1 40.8484 16.8545 3
-6 0 -1 39.1771 10.5665 2
0 -6 -1 52.8033 11.607 3
6 0 1 46.8563 10.4761 1
0 -6 -1 36.0419 10.3709 1
0 -6 1 35.7717 11.0068 1
6 -6 1 51.7308 12.7753 1
-6 6 1 47.9791 11.9188 3
6 -6 1 42.0061 8.34126 2
-6 6 -1 40.089 9.5831 3
-7 3 1 198.827 25.4871 3
4 -7 1 197.562 20.6169 1
3 -7 -1 189.982 20.6748 1
-4 -3 -1 223.728 23.1039 3
-3 -4 1 210.052 23.1006 3
-4 -3 -1 176.71 20.5763 2
-4 -3 -1 195.182 18.4931 1
-7 3 1 197.35 18.4803 2
7 -4 -1 208.358 22.2129 1
-4 7 1 205.117 18.0312 3
-3 -4 1 200.892 21.5368 2
-7 4 -1 172.531 15.7679 2
3 -7 -1 204.739 21.8492 2
4 -7 1 204.491 19.8882 2
-7 4 -1 184.286 25.0445 3
7 -3 1 202.878 20.5479 1
-3 -4 1 191.26 19.8387 1
-3 -4 -1 312.28 28.7341 3
-3 -4 -1 305.686 25.3732 1
3 -7 1 340.211 26.9702 2
-4 -3 1 319.828 30.3678 3
4 -7 -1 327.214 27.5216 2
-3 -4 -1 315.183 27.9161 2
7 -3 -1 317.368 28.3742 1
-4 -3 1 291.708 26.9692 2
-7 3 -1 273.657 23.2136 2
7 -4 1 343.831 28.1284 1
-7 3 -1 311.609 32.5546 3
4 -7 -1 301.841 27.7466 1
3 -7 1 328.322 27.1652 1
-7 4 1 306.57 29.9165 3
-7 5 -1 183.587 23.1595 3
-2 -5 1 184.093 20.486 2
5 -7 1 172.306 20.5108 1
-7 2 1 159.509 22.8884 3
2 -7 -1 156.407 18.4654 1
7 -2 1 166.109 18.4416 1
7 -5 -1 162.764 19.2294 1
-5 -2 -1 144.346 19.0924 2
5 -7 1 156.127 16.8043 2
-7 2 1 156.96 17.9028 2
-2 -5 1 151.896 18.795 1
2 -7 -1 162.543 20.3899 2
-5 -2 -1 182.508 25.6839 3
-2 -5 1 164.679 20.1569 3
-5 7 1 142.494 16.0752 3
-2 -5 -1 144.04 18.2143 2
-7 2 -1 140.441 15.1288 2
5 -7 -1 150.934 18.7911 1
5 -7 -1 148.552 16.2015 2
7 -5 1 157.163 18.9387 1
-2 -5 -1 146.329 18.7151 3
2 -7 1 183.668 18.9115 2
-7 2 -1 159.525 24.7993 3
2 -7 1 156.792 18.4828 1
-2 -5 -1 160.346 17.1254 1
-7 5 1 150.305 19.8403 3
-5 -2 1 148.322 18.2981 2
-5 -2 1 180.58 23.5739 3
2 -7 1 122.863 12.1693 3
7 -2 -1 151.405 19.2244 1
6 1 -1 21.0128 8.01159 6
-6 -1 -1 60.5541 18.2608 3
-7 1 1 44.3278 16.8136 3
7 -1 1 33.5471 9.80833 1
7 -6 -1 50.6918 14.1958 1
-6 -1 -1 35.4533 11.662 2
7 -6 -1 38.3483 10.8735 2
-1 -6 1 51.8607 14.1085 2
1 -7 -1 52.1942 14.7479 2
-1 -6 1 44.061 11.8753 3
7 -6 -1 31.7409 9.22376 4
-7 6 -1 43.3274 13.5371 3
6 -7 1 49.1991 13.6935 1
1 -7 -1 39.7903 10.286 3
-6 7 1 44.3195 10.8975 3
-1 -6 1 33.0894 11.0909 1
-7 1 1 46.4225 11.7295 2
1 -7 -1 47.9164 11.7782 1
6 -7 1 41.0627 9.74395 2
1 -7 1 62.4003 12.9246 1
1 -7 1 57.9441 9.93332 3
-1 -6 -1 66.4918 11.8888 1
-7 1 -1 51.6583 19.3476 3
-1 -6 -1 56.2548 12.8589 3
-7 6 1 51.8466 13.2139 3
6 1 1 39.2671 9.35172 6
-7 1 -1 62.2568 11.3354 2
7 -1 -1 60.5557 12.3241 1
-1 -6 -1 61.5494 13.5348 2
6 -7 -1 80.1163 15.1326 1
-6 -1 1 62.9743 16.6311 3
7 -6 1 63.4608 9.60457 2
1 -7 1 67.4738 13.2268 2
7 -6 1 62.0191 12.958 1
6 -7 -1 57.4315 11.9485 2
-6 -1 1 63.9 13.2644 2
6 1 1 72.0314 12.2238 1
7 -7 -1 82.2683 12.7613 4
7 -7 -1 96.2331 16.1562 1
7 0 -1 89.0395 13.4836 6
0 -7 -1 119.395 18.5124 2
-7 0 1 125.608 21.9746 3
0 -7 -1 57.3865 9.13686 5
7 0 -1 100.49 15.3968 1
0 -7 -1 76.2212 13.4804 1
7 -7 1 65.0126 11.0773 4
0 -7 1 91.0328 13.1723 3
-7 7 1 86.8309 14.6814 3
7 -7 -1 91.3066 13.8806 2
0 -7 -1 99.7239 15.7864 3
-7 0 -1 109.936 22.7599 3
7 0 1 73.2403 12.0251 6
-7 0 -1 79.4136 14.0424 2
7 -7 1 96.9214 16.0462 1
7 0 1 80.6133 13.4897 1
-7 0 1 93.1951 14.3862 2
0 -7 1 91.174 15.2229 2
0 -7 1 81.7344 13.9782 1
7 -7 1 91.3285 12.2083 2
-4 -4 1 59.8266 13.3584 2
4 -8 1 70.505 14.8691 1
-4 -4 1 74.6775 14.0667 1
-8 4 1 56.6971 16.3974 3
-8 4 -1 84.3168 19.8354 3
8 -4 1 61.0152 10.1297 4
8 -4 1 71.0292 14.0279 1
-8 4 -1 41.0933 8.78044 2
4 -8 -1 60.1778 9.66454 5
4 -8 -1 55.2934 13.6223 1
4 -8 1 46.5121 12.796 2
8 -4 -1 68.6494 15.1792 1
4 -8 -1 77.8796 15.6138 2
4 -8 1 65.7173 9.71037 5
-8 4 1 74.7224 11.8578 2
-4 -4 -1 67.901 15.3258 3
-4 8 1 47.0584 9.56259 3
-4 -4 -1 81.4764 12.6374 1
-4 -4 -1 51.9922 13.7381 2
-4 -4 1 60.5048 16.7719 3
5 3 -1 2.57016 6.64891 6
-5 -3 -1 18.9176 12.0275 2
8 -3 1 4.08841 5.29319 4
-3 -5 1 27.7568 12.0755 1
5 -8 1 30.85 11.4022 2
-5 -3 -1 15.4689 15.0767 3
5 -8 1 21.2378 7.48533 5
3 -8 -1 12.8028 13.2595 2
8 -5 -1 20.3309 11.7256 1
5 -8 1 14.212 11.4098 1
-8 5 -1 8.04509 5.78815 2
-8 5 -1 31.1327 16.9548 3
8 -3 1 34.0343 13.389 1
8 -5 -1 18.5517 9.21157 4
3 -8 -1 21.1985 8.04796 5
-3 -5 1 19.4395 11.5741 2
3 -8 -1 10.4734 10.5732 1
-8 3 1 23.0961 16.512 3
-8 3 1 27.8031 10.4046 2
-3 -5 1 22.1303 13.5742 3
-5 8 1 9.93038 7.81242 3
3 -8 1 49.8093 8.4254 5
3 -8 1 35.4009 11.5242 1
5 3 1 34.3371 9.4468 6
-8 3 -1 46.9878 19.6979 3
-3 -5 -1 53.8052 11.9297 1
-5 -3 1 33.8428 11.6163 2
-3 -5 -1 41.4185 13.6451 2
-8 5 1 38.6257 16.2423 3
5 -8 -1 31.6346 12.2954 1
8 -5 1 49.8962 10.4565 4
-8 3 -1 25.4015 8.24911 2
-5 -3 1 48.9463 16.6088 3
5 -8 -1 40.4106 11.9916 2
8 -5 1 51.5357 13.8313 1
-3 -5 -1 41.0373 14.1375 3
5 -8 -1 27.8918 7.53911 5
3 -8 1 52.9611 13.474 2
8 -3 -1 60.5827 14.7415 1
8 -2 1 40.7971 12.4564 1
6 -8 1 25.4972 7.76549 5
2 -8 -1 46.2897 14.6842 2
6 -8 1 45.0747 11.3479 2
-6 8 1 18.8598 8.70927 3
6 2 -1 29.5706 9.786 6
6 -8 1 43.6446 13.8543 1
-6 -2 -1 54.1894 19.6248 3
-6 -2 -1 37.0285 13.7118 2
-8 6 -1 43.5183 16.4087 3
-2 -6 1 57.6626 13.68 1
2 -8 -1 29.9233 12.0815 1
2 -8 -1 46.0889 8.93626 5
8 -6 -1 47.9377 14.4877 1
8 -6 -1 37.1593 10.6515 4
-8 2 1 47.7254 18.3413 3
-8 2 1 42.5351 12.2217 2
-2 -6 1 31.0668 12.8383 3
-2 -6 1 50.0616 14.7892 2
-8 2 -1 87.1193 13.8858 2
-6 -2 1 125.91 22.1066 3
-8 2 -1 128.811 25.1297 3
2 -8 1 97.3628 16.2145 1
2 -8 1 95.8119 16.6086 2
6 -8 -1 94.1078 14.9677 2
-2 -6 -1 87.2082 15.9783 3
8 -2 -1 109.348 16.6959 1
8 -6 1 105.427 16.7928 1
2 -8 1 93.071 11.3226 5
-6 -2 1 83.1642 15.858 2
8 -2 -1 78.5885 11.4528 6
6 2 1 95.8499 14.718 6
-2 -6 -1 112.193 18.3137 2
6 -8 -1 106.107 17.7117 1
-8 6 1 87.9641 17.4486 3
8 -6 1 92.5589 14.2232 4
-2 -6 -1 88.0977 14.5245 1
1 -8 -1 22.5507 7.70785 5
1 -8 -1 25.6011 13.4599 2
-7 -1 -1 13.2818 18.1037 3
8 -7 -1 17.818 10.6351 2
7 -8 1 17.499 8.54323 2
1 -8 -1 19.898 11.6084 1
-8 7 -1 1.01018 12.7758 3
-7 -1 -1 19.3269 12.5176 2
-7 8 1 5.86711 9.18291 3
-1 -7 1 19.3212 11.5333 1
-8 1 1 16.0821 10.8516 2
7 -8 1 11.3233 6.00494 5
-1 -7 1 20.7721 12.5277 2
8 -7 -1 13.9009 8.71068 4
8 -7 -1 23.6026 14.268 1
-8 1 1 5.66945 14.5003 3
7 1 -1 16.3961 9.77358 6
1 -8 -1 20.3221 10.0691 3
-1 -7 1 17.0814 9.95793 3
8 -1 1 18.8745 8.0854 6
7 -8 1 23.6844 13.2286 1
7 -8 1 9.26819 7.03583 4
8 -1 1 15.2664 10.0933 1
-1 -7 -1 42.9769 12.587 3
-7 -1 1 36.478 12.538 2
1 -8 1 32.3264 11.3117 1
7 1 1 36.6656 9.70855 6
-7 -1 1 54.0136 18.4567 3
8 -7 1 45.2736 10.2603 4
-8 7 1 36.8158 13.6109 3
8 -1 -1 37.6289 9.84892 6
8 -1 -1 43.0634 13.2539 1
-8 1 -1 34.1445 10.7985 2
-1 -7 -1 23.6656 10.5688 1
8 -7 1 46.6989 14.6117 1
7 -8 -1 43.2953 11.7882 2
-1 -7 -1 21.1913 6.44362 5
1 -8 1 37.4024 13.059 2
7 -8 -1 44.605 9.70402 4
7 -8 -1 38.8515 12.735 1
1 -8 1 32.6021 7.12679 5
-8 1 -1 33.5126 18.539 3
8 -7 1 17.5625 7.95351 2
-1 -7 -1 55.4267 14.4808 2
8 -8 1 6.96071 7.67833 2
8 0 1 14.1996 9.08206 6
8 0 -1 18.4375 8.64083 6
-8 8 1 -0.2821 11.4052 3
0 -8 1 0.387 4.3717 5
0 -8 -1 4.38633 10.8884 1
-8 0 1 14.216 12.2986 2
0 -8 1 -3.7019 7.82456 3
-8 0 -1 20.6326 12.409 2
8 -8 -1 13.4489 9.55105 4
8 -8 1 24.5914 8.52577 4
0 -8 -1 16.0358 11.5116 3
8 -8 -1 12.3796 11.928 1
-8 0 -1 16.3454 18.7343 3
0 -8 -1 16.7214 7.42189 5
8 0 -1 12.3938 11.2301 1
8 -8 1 23.0771 13.6957 1
8 0 1 18.1513 10.9104 1
0 -8 1 34.7122 14.3265 2
-8 0 1 21.0482 17.4411 3
8 -8 -1 17.621 10.6717 2
0 -8 -1 23.2252 13.8011 2
0 -8 1 12.0131 10.9685 1
8 -8 1 13.9293 6.42715 5
5 -9 1 96.0778 18.2618 1
-9 5 -1 95.2579 22.2531 3
4 -9 -1 103.511 18.201 1
-4 -5 1 97.7496 17.5009 2
9 -5 -1 91.5471 13.2873 4
5 -9 1 96.5511 15.7425 2
5 4 -1 83.5324 12.8707 6
-4 -5 1 105.333 20.2284 3
-5 -4 -1 117.792 21.4921 3
-9 4 1 78.1629 13.6703 2
-5 -4 -1 87.012 17.3804 2
-5 -4 -1 84.6528 14.3293 1
-4 -5 1 95.2802 16.229 1
9 -4 1 86.1552 12.9606 4
9 -5 -1 121.513 19.6481 1
5 -9 1 89.9427 12.6812 5
9 -4 1 120.072 19.3556 1
-9 4 1 68.9697 20.2683 3
4 -9 -1 112.61 18.873 2
4 -9 -1 99.7151 13.448 5
5 4 1 156.826 18.2953 6
9 -4 -1 162.921 17.7175 4
-4 -5 -1 172.025 20.2078 1
-9 5 1 163.955 18.638 2
9 -5 1 196.653 22.5566 1
-9 4 -1 180.797 30.1725 3
4 -9 1 203.714 22.109 2
-9 5 1 152.598 25.5949 3
5 -9 -1 159.098 16.4048 5
4 -9 1 173.824 22.3853 1
-5 -4 1 164.046 20.5226 1
-4 -5 -1 168.743 22.7946 2
-5 -4 1 181.218 26.3224 3
9 -5 1 151.819 17.7316 4
5 -9 -1 194.357 22.6436 2
9 -4 -1 169.514 21.4427 1
-5 -4 1 141.579 20.2084 2
4 -9 1 175.271 15.4648 5
-4 -5 -1 137.645 22.6993 3
5 -9 -1 179.164 22.4506 1
3 -9 -1 80.7174 11.1697 5
3 -9 -1 75.0511 16.6005 2
6 3 -1 62.9975 12.4025 6
-3 -6 1 64.8109 16.5547 3
-9 3 1 49.1875 17.885 3
-3 -6 1 85.9531 16.5787 1
6 -9 1 74.0772 16.981 1
6 -9 1 76.6336 10.4827 5
9 -6 -1 85.4952 13.0373 4
-9 3 1 71.1011 14.3307 2
-6 -3 -1 57.301 15.9532 2
9 -3 1 60.1535 10.4399 4
-6 -3 -1 86.9634 21.2608 3
9 -6 -1 86.7059 17.5688 1
9 -3 1 90.5779 16.8642 1
3 -9 -1 87.7334 16.5471 1
-3 -6 1 71.6519 16.3835 2
6 -9 1 84.2193 14.4244 2
-9 6 -1 62.2867 19.5845 3
-3 -6 -1 18.2156 13.206 3
6 -9 -1 37.4691 12.8691 2
3 -9 1 41.5295 13.1697 2
3 -9 1 48.3329 14.7507 1
3 -9 1 24.6858 7.5366 5
9 -6 1 28.1866 13.8286 1
-9 6 1 37.9074 17.1998 3
9 -3 -1 33.3992 13.3143 1
-9 3 -1 28.5213 20.1511 3
-3 -6 -1 25.3543 13.725 2
-6 -3 1 24.5494 16.6881 3
9 -3 -1 32.9182 9.06596 6
6 -9 -1 32.6379 9.08917 5
-6 -3 1 13.4866 11.6333 2
6 3 1 27.2269 9.42103 6
9 -6 1 45.7394 10.6726 4
-3 -6 -1 30.267 12.398 1
6 -9 -1 34.1997 13.7761 1
2 -9 -1 188.978 23.0116 2
9 -7 -1 196.637 18.8693 4
-9 2 1 185.298 26.1278 3
-2 -7 1 212.923 24.8304 2
-2 -7 1 181.173 22.1829 1
-7 -2 -1 187.966 23.3369 2
2 -9 -1 157.294 21.6708 1
7 -9 1 164.931 15.9603 5
9 -7 -1 224.954 24.822 1
7 2 -1 152.379 17.474 6
-2 -7 1 160.137 21.3033 3
9 -2 1 183.923 21.2214 1
7 -9 1 219.393 24.7505 1
-9 2 1 164.75 20.019 2
7 -9 1 162.215 17.9667 2
-7 -2 -1 224.555 30.14 3
2 -9 -1 180.394 15.9843 5
9 -2 1 176.236 17.5164 6
-2 -7 -1 171.931 21.4804 1
7 2 1 211.083 20.1409 6
9 -2 -1 201.608 23.6251 1
-9 2 -1 198.534 32.6619 3
7 -9 -1 201.619 22.0777 2
2 -9 1 220.804 23.0892 2
-2 -7 -1 172.203 23.1055 2
-2 -7 -1 186.205 22.4281 3
7 -9 -1 190.323 24.5866 1
2 -9 1 199.988 17.3784 5
-7 -2 1 229.663 29.9498 3
2 -9 1 204.907 23.599 1
7 -9 -1 187.101 17.5528 4
7 -9 -1 179.794 17.6273 5
9 -7 1 211.186 24.7136 1
9 -7 1 212.536 18.6199 4
9 -2 -1 186.381 18.6555 6
-9 7 1 195.426 26.4151 3
-7 -2 1 185.48 23.3053 2
9 -1 1 44.6698 13.6451 1
-9 1 1 34.8373 13.0962 2
9 -8 -1 63.8841 17.2304 1
8 -9 1 48.6611 9.62661 4
8 1 -1 58.8814 10.9542 6
-1 -8 1 62.4881 17.414 2
9 -1 1 60.4489 11.1164 6
8 -9 1 49.2579 9.25494 5
9 -8 -1 66.7537 12.0772 4
1 -9 -1 54.6514 18.4109 2
-9 1 1 45.7335 19.9112 3
9 -8 -1 42.2379 12.2197 2
-8 -1 -1 33.446 14.9921 2
1 -9 -1 70.0415 9.88072 5
-1 -8 1 48.538 14.4862 1
-8 -1 -1 55.8668 24.4035 3
1 -9 -1 54.3844 15.0789 1
8 -9 1 58.7201 15.5004 1
1 -9 1 40.4507 7.71569 5
-1 -8 -1 54.1152 8.78487 5
8 -9 -1 40.1382 15.5656 1
1 -9 1 48.2516 14.8806 1
9 -8 1 40.9815 9.82101 4
-1 -8 -1 25.9531 11.8733 1
8 1 1 52.4598 10.7519 6
-8 -1 1 49.3623 19.5267 3
9 -8 1 35.8886 13.8782 1
9 -1 -1 57.0393 15.1479 1
8 -9 -1 20.8501 6.92659 5
1 -9 1 42.5026 15.934 2
-1 -8 -1 36.1575 15.7551 2
-9 8 1 5.06739 17.4417 3
9 -1 -1 44.1589 10.4295 6
-1 -8 -1 37.4461 13.6357 3
-9 1 -1 43.7415 22.0027 3
8 -9 -1 38.7772 12.5646 2
-8 -1 1 37.1254 14.3378 2
8 -9 -1 38.6038 9.45053 4
9 -9 -1 1.42993 9.81722 4
0 -9 1 1.53688 6.895 5
0 -9 -1 -2.022 14.3793 2
9 0 -1 7.51097 9.63335 6
0 -9 1 -5.1109 12.9577 1
0 -9 1 -4.7598 15.1282 2
9 0 1 -0.6979 11.0815 1
9 0 -1 13.8754 13.4899 1
9 -9 1 1.88077 9.11853 4
0 -9 -1 8.21197 7.58066 5
-9 0 -1 -0.4568 22.1296 3
-9 0 1 6.56785 12.7563 2
9 -9 -1 4.50053 13.1429 1
9 -9 1 7.75574 14.7286 1
0 -9 -1 2.57349 11.8412 1
9 -9 -1 2.48598 11.251 2
-9 0 1 -4.2772 19.1112 3
9 -9 1 9.80389 7.18354 5
9 0 1 6.95671 8.49352 6
-5 -5 -1 411.254 39.1192 3
-10 5 -1 439.175 42.2636 3
-5 -5 1 370.682 35.0817 2
10 -5 1 470.603 37.1938 1
5 -10 1 403.367 34.514 2
-5 -5 -1 312.229 32.9488 1
10 -5 -1 382.99 31.1429 4
5 5 1 385.859 31.1396 6
5 5 -1 400.738 31.786 6
5 -10 -1 439.672 35.4451 2
5 -10 -1 391.512 30.2883 5
-5 -5 1 440.56 39.8192 3
-5 -5 -1 321.758 35.0822 2
5 -10 -1 399.535 36.6519 1
-10 5 1 393.292 39.6511 3
10 -5 1 400.885 31.1293 4
5 -10 1 436.262 29.7544 5
5 -10 1 411.638 37.0144 1
10 -5 -1 491.622 38.4505 1
-5 -5 1 385.096 34.86 1
-6 -4 -1 34.634 15.5643 2
4 -10 -1 38.2337 15.2609 1
-6 -4 -1 50.1466 19.8706 3
6 -10 1 47.1237 14.4833 2
-4 -6 1 33.664 15.0971 2
-6 -4 -1 24.7736 11.6834 1
4 -10 -1 56.2272 10.1581 5
10 -6 -1 41.5448 16.0528 1
4 -10 -1 35.0771 15.5124 2
-10 6 -1 21.7728 20.6011 3
-4 -6 1 44.7299 16.758 3
-4 -6 1 48.2179 15.8101 1
6 -10 1 31.7765 14.7872 1
6 -10 1 47.6999 8.95159 5
10 -4 1 62.2359 17.5446 1
10 -6 -1 38.6611 9.70511 4
-10 4 1 28.4019 18.1094 3
4 6 1 46.6418 11.0092 6
10 -4 1 47.965 10.6751 4
6 4 -1 41.3407 10.5057 6
-10 6 1 33.5867 16.4043 3
-6 -4 1 35.6214 13.8042 1
10 -6 1 43.7777 15.8258 1
4 -10 1 43.7855 15.6621 1
-6 -4 1 50.1655 20.4206 3
6 4 1 47.0126 11.6982 6
10 -4 -1 45.2216 9.90709 6
6 -10 -1 27.073 15.2086 1
-4 -6 -1 60.8154 18.1603 3
10 -6 1 53.896 11.2259 4
-4 -6 -1 22.2023 12.5942 1
6 -10 -1 56.6855 10.5616 5
10 -4 -1 62.8823 17.5668 1
-10 4 -1 38.2611 22.4126 3
4 -10 1 70.7233 10.2305 5
-6 -4 1 47.161 16.2914 2
6 -10 -1 42.9561 15.7498 2
4 -10 1 62.8565 16.4439 2
-4 -6 -1 56.1843 17.8493 2
10 -4 -1 52.158 11.7705 4
-3 -7 1 166.414 23.7261 3
7 -10 1 238.405 27.0912 1
10 -7 -1 242.703 20.7669 4
10 -7 -1 236.048 27.3124 1
-7 -3 -1 167.872 25.112 2
3 -10 -1 167.657 24.009 1
3 -10 -1 224.348 19.0652 5
7 -10 1 214.647 18.6552 5
10 -3 1 193.732 18.7149 6
7 3 -1 190.651 20.7963 6
-3 -7 1 212.571 27.0375 2
3 -10 -1 252.13 27.9115 2
10 -3 1 198.613 19.5807 4
10 -3 1 217.368 26.538 1
-10 3 1 203.576 30.2354 3
-3 -7 1 210.601 25.4207 1
-7 -3 -1 237.995 32.9727 3
10 -7 1 325.521 24.1605 4
-3 -7 -1 233.914 27.8854 3
10 -3 -1 296.023 29.2453 1
3 -10 1 261.699 28.7737 1
-7 -3 1 252.859 28.457 2
10 -3 -1 239.602 23.0841 4
3 -10 1 303.144 29.7567 2
7 -10 -1 263.556 29.7415 1
-3 -7 -1 266.45 30.2844 2
7 -10 -1 273.88 22.6863 5
-10 3 -1 271.459 35.0918 3
-7 -3 1 325.279 35.917 3
10 -3 -1 281.346 23.1996 6
7 -10 -1 243.892 21.282 4
10 -7 1 298.177 29.5279 1
7 3 1 256.317 23.1782 6
3 -10 1 302.443 22.3847 5
7 -10 -1 247.339 26.5803 2
10 -2 1 145.585 16.33 6
10 -2 1 131.317 21.3663 1
8 -10 1 129.735 14.8335 5
-10 2 1 123.668 26.222 3
2 -10 -1 89.4929 18.9156 1
10 -8 -1 154.82 17.2759 4
-8 -2 -1 158.815 27.5038 3
2 -10 -1 160.159 15.3292 5
-2 -8 1 103.425 19.552 1
-2 -8 1 156.95 23.567 2
2 -10 -1 152.934 22.7552 2
8 -10 1 154.163 24.155 1
8 -10 1 146.027 14.9284 4
8 2 -1 135.247 16.079 6
10 -8 -1 108.47 20.4908 1
8 -10 -1 200.037 18.5012 4
-8 -2 1 227.988 33.0457 3
2 -10 1 171.399 24.7365 1
10 -8 1 236.371 26.9819 1
2 -10 1 217.025 26.4862 2
10 -8 1 231.499 19.9396 4
10 -2 -1 194.22 18.1432 6
8 -10 -1 181.16 18.2757 5
-10 2 -1 158.391 29.5095 3
-8 -2 1 156.435 23.4801 2
10 -2 -1 183.595 24.5361 1
8 -10 -1 176.013 25.9667 1
8 -10 -1 139.524 21.0656 2
-2 -8 -1 204.303 16.7072 5
8 2 1 220.213 20.6062 6
-2 -8 -1 197.908 27.1472 2
2 -10 1 196.963 16.8301 5
10 -9 -1 50.6374 11.734 4
1 -10 -1 41.9848 17.6584 2
-1 -9 1 40.0476 16.7118 2
9 -10 1 51.488 9.75615 5
-9 -1 -1 18.1673 20.275 3
10 -1 1 52.7737 10.8939 6
9 -10 1 56.0429 10.9296 4
1 -10 -1 45.5263 8.79471 5
1 -10 -1 4.51654 13.431 1
-1 -9 1 36.5718 7.4994 5
9 1 -1 47.0256 10.7097 6
-10 1 1 27.6552 20.1682 3
10 -9 -1 48.2133 18.511 1
-1 -9 1 27.0871 14.3298 1
9 -10 1 36.3073 17.4068 1
9 -10 -1 -0.3453 13.6175 1
10 -9 1 15.8337 16.1719 1
9 -10 -1 22.2546 9.72368 4
1 -10 1 4.2502 13.5323 1
10 -1 -1 17.6403 9.79155 6
-1 -9 -1 6.42838 15.8346 2
-10 1 -1 10.7457 23.8946 3
-1 -9 -1 18.0154 7.87723 5
10 -9 1 22.7542 9.82077 4
1 -10 1 10.4047 16.2744 2
9 -10 -1 18.6867 8.28093 5
1 -10 1 11.7975 7.41637 5
9 1 1 18.2334 10.1892 6
-9 -1 1 0.23441 13.699 2
10 -9 1 16.3469 7.38894 5
10 -1 -1 10.5038 13.2056 1
-9 -1 1 13.2934 20.0756 3
0 -10 -1 104.995 23.1365 2
10 -10 1 146.898 25.1135 1
10 -10 1 161.973 16.2719 5
10 0 -1 178.949 18.7269 6
10 -10 1 193.799 17.5261 4
10 0 1 182.569 18.5054 6
-10 0 -1 100.297 28.2337 3
0 -10 -1 174.358 16.0993 5
10 -10 -1 118.947 23.6188 1
0 -10 1 114.049 22.4183 2
-10 0 1 118.575 26.9452 3
0 -10 1 189.503 15.6694 5
10 -10 -1 173.943 18.0297 4
5 6 1 86.7126 14.0175 6
11 -5 1 67.3612 18.5885 1
-5 -6 1 54.5977 18.4125 2
-5 -6 1 39.2516 19.0594 3
11 -6 -1 66.0639 19.0335 1
11 -5 1 91.3336 12.8169 4
5 -11 -1 85.8951 11.1557 5
-6 -5 -1 39.0866 17.9752 2
-11 5 1 26.9523 20.1391 3
5 -11 -1 34.0369 15.7065 1
11 -6 -1 76.3539 11.6964 4
-5 -6 1 44.6101 15.963 1
6 5 -1 86.0879 14.2426 6
-6 -5 -1 50.3265 18.5305 3
6 -11 1 67.4994 18.9959 1
5 -11 -1 63.196 19.1256 2
-5 -6 -1 31.6196 18.1091 2
-11 5 -1 -1.003 21.8574 3
11 -5 -1 77.1725 12.4579 4
11 -5 -1 61.8082 10.2857 6
-6 -5 1 46.8202 17.9756 2
-11 6 1 1.70246 17.7876 3
6 5 1 49.4398 11.2579 6
-6 -5 1 43.1338 19.017 3
6 -11 -1 38.7223 16.6958 2
11 -6 1 49.9283 17.4113 1
-6 -5 1 25.9659 13.979 1
5 6 -1 42.8957 12.0294 6
11 -5 -1 36.3853 16.7363 1
6 -11 -1 34.3363 16.1295 1
5 -11 1 26.5022 15.7163 2
5 -11 1 55.75 17.6558 1
6 -11 -1 71.2094 11.3939 5
-5 -6 -1 25.4946 17.5068 3
11 -6 1 62.2068 11.4329 4
11 -4 1 58.429 17.5808 1
-11 4 1 38.3155 19.9096 3
4 -11 -1 94.9597 12.2998 5
11 -4 1 96.7414 13.1945 4
7 -11 1 81.3761 11.6834 5
7 -11 1 67.8041 19.1341 1
4 7 1 71.4126 12.4475 6
7 4 -1 84.6212 13.7996 6
11 -7 -1 79.761 12.9447 4
-7 -4 -1 79.4351 24.0515 3
11 -4 1 72.162 10.9182 6
4 -11 -1 63.4152 18.0364 2
-4 -7 1 78.9897 20.196 2
11 -7 -1 65.9701 18.8236 1
7 4 1 107.466 15.7477 6
-4 -7 -1 54.8761 18.9301 2
11 -7 1 53.439 15.9984 1
4 -11 1 67.1244 18.5151 1
7 -11 -1 100.528 12.6429 5
11 -7 1 87.8877 13.4092 4
7 -11 -1 71.4744 18.5388 1
11 -4 -1 76.2976 12.1314 6
4 -11 1 89.5187 12.7938 5
-7 -4 1 47.1004 17.4274 2
4 -11 1 71.4105 18.5819 2
-11 4 -1 15.7355 24.2108 3
-7 -4 1 79.0277 23.2699 3
11 -4 -1 95.8124 14.7514 4
11 -4 -1 53.6405 15.4572 1
11 -8 -1 92.4572 13.6803 4
-11 3 1 17.5072 19.1894 3
8 -11 1 35.9858 17.5465 1
11 -3 1 58.8487 10.3453 6
3 -11 -1 61.5469 10.7751 5
-8 -3 -1 38.4576 24.035 3
8 -11 1 38.699 8.58153 4
11 -3 1 64.7001 11.7264 4
8 -11 1 65.5316 10.4136 5
11 -8 -1 59.7555 19.1362 1
-3 -8 1 52.3624 19.4379 2
8 3 -1 74.199 13.3755 6
3 -11 -1 47.973 18.9131 2
8 -11 -1 100.055 14.0919 5
-8 -3 1 71.3556 24.7939 3
8 -11 -1 54.9107 18.1965 1
3 -11 1 67.0081 18.6521 1
11 -8 1 92.8062 13.9319 4
8 3 1 99.591 15.9239 6
11 -8 1 82.1653 19.2819 1
-3 -8 -1 73.7472 21.1164 2
11 -3 -1 97.6612 14.9834 4
3 -11 1 87.1099 12.8111 5
8 -11 -1 98.7597 13.1358 4
11 -3 -1 68.3512 18.0865 1
11 -3 -1 88.0777 14.2519 6
3 -11 1 54.7991 19.1319 2
-3 -8 -1 84.8581 10.4653 5
-2 -9 1 314.799 36.4035 2
11 -2 1 348.774 28.3293 6
11 -2 1 288.754 27.1015 4
2 -11 -1 369.238 27.2711 5
11 -9 -1 418.051 29.6231 4
9 2 -1 363.567 28.6441 6
9 -11 1 392.226 28.0944 4
9 -11 1 297.541 36.2448 1
-9 -2 -1 344.544 43.831 3
11 -9 -1 307.206 36.0222 1
9 -11 1 384.014 27.5716 5
9 -11 -1 348.01 26.2452 4
9 2 1 358.901 27.1604 6
11 -2 -1 294.698 26.4441 6
-9 -2 1 277.987 40.6515 3
2 -11 1 312.569 24.467 5
-2 -9 -1 344.958 24.7941 5
9 -11 -1 332.738 26.0114 5
11 -9 1 320.93 26.7093 4
11 -9 1 230.119 32.7899 1
11 0 1 58.2049 12.5508 6
0 -11 1 47.2499 9.50952 5
11 -11 1 57.7268 11.7555 4
0 -11 -1 46.96 9.76372 5
11 -11 1 47.2053 10.0726 5
11 0 -1 51.7861 12.7184 6
11 -11 -1 56.8746 12.1619 4
12 -6 -1 57.4225 9.80336 6
6 6 -1 84.8275 13.9349 6
6 -12 1 97.1387 13.7602 5
-6 -6 1 -0.0261 18.2871 2
6 -12 1 2.69536 17.7528 1
12 -7 -1 80.6133 12.8862 4
-5 -7 1 2.34056 18.5055 2
7 5 -1 95.4085 15.1964 6
12 -5 1 58.8013 10.5681 6
5 7 1 98.0784 14.4806 6
7 -12 1 82.0884 11.4732 5
-7 -5 -1 -4.3103 33.0822 3
5 -12 -1 94.5908 11.8135 5
12 -5 1 54.1039 11.1783 4
12 -5 -1 75.1246 13.2444 4
12 -5 -1 68.8081 11.72 6
7 5 1 101.967 14.9542 6
12 -7 1 72.5726 12.0953 4
5 -12 1 102.037 12.8002 5
7 -12 -1 83.312 12.4519 5
5 7 -1 63.3078 14.1802 6
4 -12 -1 94.6561 12.0564 5
4 8 1 66.3443 12.6533 6
8 -12 1 77.8233 11.6226 5
8 4 -1 94.2995 15.12 6
12 -8 -1 85.0682 13.7642 4
12 -4 1 72.6081 12.6589 4
12 -4 1 79.5384 12.2187 6
12 -4 -1 57.7283 12.261 4
8 -12 -1 65.1361 11.7303 5
4 -12 1 40.4051 9.21059 5
12 -4 -1 37.7983 10.1847 6
8 4 1 35.0566 11.5118 6
8 -12 -1 32.5644 8.53094 4
12 -8 1 69.4577 12.7918 4
3 -12 -1 97.7646 14.0317 5
9 3 -1 117.299 16.0489 6
9 -12 1 109.564 13.4123 5
12 -9 -1 109.576 16.6273 4
12 -3 1 91.8119 13.7996 4
9 -12 1 81.7352 12.3775 4
12 -3 1 111.236 14.1344 6
9 3 1 102.906 14.428 6
9 -12 -1 98.959 14.3266 4
9 -12 -1 106.181 15.1824 5
12 -3 -1 95.8382 14.0693 4
12 -9 1 113.173 16.503 4
-3 -9 -1 116.793 12.8892 5
12 -3 -1 95.8056 15.7596 6
3 -12 1 104.299 13.8009 5
10 -12 1 53.2163 10.727 5
12 -2 1 64.4684 12.3573 6
12 -10 -1 66.216 13.0215 4
10 2 -1 68.7369 13.4342 6
10 -12 1 53.8773 10.9338 4
2 -12 -1 41.6401 9.41325 5
2 -12 1 99.3915 13.7711 5
12 -2 -1 102.25 16.3871 6
10 -12 -1 100.281 15.2194 4
-2 -10 -1 102.006 13.6301 5
10 2 1 108.003 17.7317 6
12 -10 1 105.431 15.6987 4
10 -12 -1 108.86 14.9874 5
11 -12 1 131.398 17.0755 4
12 -1 1 132.94 16.3699 6
12 -11 -1 141.335 17.4785 4
11 1 -1 140.828 18.6753 6
11 -12 1 139.099 15.5279 5
1 -12 -1 113.13 14.8366 5
-1 -11 1 109.948 14.1892 5
1 -12 1 92.9652 12.3589 5
12 -11 1 109.03 14.5979 4
12 -11 1 77.0272 11.9435 5
12 -1 -1 98.8691 15.0833 6
11 -12 -1 69.5765 12.196 5
11 -12 -1 94.3018 14.3587 4
11 1 1 91.0408 14.1055 6
-1 -11 -1 104.314 12.5691 5
12 0 1 251.043 23.6192 6
12 -12 1 213.271 20.8809 5
12 0 -1 250.139 24.1743 6
0 -12 1 231.775 20.476 5
12 -12 -1 235.078 22.7768 4
0 -12 -1 240.154 20.8471 5
12 -12 1 238.268 22.397 4
7 6 -1 10.6582 12.055 6
13 -6 1 -0.93 6.83139 6
6 -13 -1 10.1876 9.68045 5
7 -13 1 2.75395 8.87584 5
13 -7 -1 0.57424 7.09476 6
13 -7 -1 10.1768 10.6852 4
6 7 1 15.4977 11.4841 6
13 -6 1 16.522 10.5866 4
13 -6 -1 10.2685 10.2424 4
13 -6 -1 6.28113 8.75254 6
13 -7 1 0.23151 9.5644 4
6 -13 1 6.57098 9.19282 5
7 -13 -1 -1.3098 9.12356 5
7 6 1 10.2488 11.2922 6
6 7 -1 3.46987 12.4974 6
8 5 -1 145.238 19.885 6
5 8 1 137.532 19.0684 6
8 -13 1 117.204 15.6636 5
13 -8 -1 121.637 17.3348 4
13 -5 1 124.53 18.2371 4
5 -13 -1 130.966 15.1604 5
13 -5 1 120.376 15.5135 6
13 -5 -1 124.445 17.9486 4
13 -8 1 147.599 17.9193 4
5 -13 1 160.833 17.0502 5
13 -5 -1 141.149 17.7713 6
8 5 1 131.567 17.4979 6
8 -13 -1 142.658 16.8105 5
4 -13 -1 31.9857 9.43223 5
4 9 1 0.1812 10.6946 6
13 -9 -1 33.953 11.9759 4
13 -4 1 22.3982 9.98046 6
9 4 -1 40.4331 12.8273 6
13 -4 1 33.9744 11.6013 4
9 -13 1 38.1946 9.96799 5
4 -13 1 23.3208 9.08176 5
9 4 1 28.9915 12.0849 6
9 -13 -1 17.2396 9.14549 4
13 -9 1 25.669 10.0872 4
13 -4 -1 21.2076 11.3081 4
9 -13 -1 24.7615 9.80993 5
13 -4 -1 20.503 10.947 6
13 -3 1 61.6858 13.3384 4
3 -13 -1 87.7078 12.8069 5
10 -13 1 70.8967 12.3675 4
13 -3 1 93.9414 14.0289 6
10 -13 1 105.702 13.4207 5
10 3 -1 71.546 13.3907 6
13 -10 -1 111.358 15.2468 4
3 -13 1 83.4272 12.299 5
13 -3 -1 80.0396 14.0391 6
-3 -10 -1 62.429 10.5168 5
10 -13 -1 45.0293 11.381 4
10 3 1 90.8477 15.0917 6
13 -10 1 67.7214 12.3497 4
10 -13 -1 56.6078 11.9239 5
2 -13 -1 129.478 15.9645 5
11 2 -1 138.409 18.8927 6
13 -2 1 120.578 17.7392 6
11 -13 1 125.478 16.0224 5
13 -11 -1 155.443 18.3676 4
11 -13 1 136.128 17.3923 4
-2 -11 -1 130.926 15.4244 5
11 -13 -1 116.825 17.228 5
13 -2 -1 115.165 18.1894 6
2 -13 1 128.081 15.6348 5
11 -13 -1 130.183 17.1494 4
13 -11 1 140.862 17.7224 4
11 2 1 146.676 19.653 6
-1 -12 1 28.1307 9.26807 5
1 -13 -1 35.9859 9.61209 5
12 1 -1 50.3937 13.5399 6
13 -1 1 36.1887 11.6336 6
12 -13 1 32.3924 11.601 4
13 -12 -1 50.95 13.0473 4
12 -13 1 49.9855 10.7396 5
13 -12 1 51.827 11.8625 4
12 1 1 91.0752 15.2378 6
12 -13 -1 55.1848 11.1794 5
13 -12 1 49.4376 10.5698 5
1 -13 1 55.1242 10.3423 5
13 -1 -1 94.103 15.6065 6
-1 -12 -1 47.7676 10.4634 5
12 -13 -1 49.3671 12.2622 4
13 -13 1 17.4107 11.328 4
13 -13 1 16.0938 9.15312 5
13 0 1 17.1679 11.6326 6
13 -13 -1 13.7578 11.4479 4
13 0 -1 22.2484 12.5311 6
0 -13 -1 7.78307 8.40223 5
0 -13 1 -4.0651 8.73108 5
14 -7 -1 3.0079 7.80182 6
14 -7 1 16.2065 10.887 4
7 7 1 16.8202 12.8381 6
7 7 -1 12.9883 13.074 6
7 -14 1 1.43885 8.90452 5
7 -14 -1 6.32717 9.62976 5
14 -7 -1 20.6815 11.4808 4
14 -6 1 137.189 18.0859 4
14 -8 -1 127.177 18.0352 4
6 8 1 141.737 21.0114 6
6 -14 -1 150.273 17.5816 5
8 6 -1 129.2 20.7722 6
8 -14 1 117.094 15.6526 5
14 -6 -1 124.989 17.7962 4
6 -14 1 126.486 16.4304 5
8 -14 -1 109.507 16.2728 5
8 6 1 122.412 19.2909 6
6 8 -1 127.601 18.5624 6
14 -6 -1 97.5324 15.9575 6
14 -8 1 120.74 17.2074 4
14 -5 1 13.7917 11.0179 4
5 9 1 12.9215 12.5202 6
14 -5 1 20.1458 10.6971 6
5 -14 -1 21.609 9.72401 5
9 5 -1 23.7828 12.211 6
9 -14 1 15.6439 9.66864 5
14 -9 -1 24.7407 11.3349 4
5 -14 1 22.4813 10.1208 5
9 -14 -1 17.5842 9.75227 5
9 -14 -1 0.21061 6.96426 4
14 -5 -1 29.849 12.0277 4
14 -9 1 24.5767 10.8298 4
14 -5 -1 17.3077 10.6255 6
9 5 1 36.6812 13.3559 6
10 4 -1 320.813 28.9245 6
14 -4 1 301.208 27.2952 4
14 -10 -1 319.468 27.5814 4
10 -14 1 304.942 25.9655 5
14 -4 1 291.788 26.9486 6
4 -14 -1 323.413 25.6282 5
4 -14 1 318.833 25.3854 5
10 4 1 284.503 26.6563 6
10 -14 -1 298.543 25.7295 5
14 -4 -1 262.997 26.6644 4
14 -4 -1 301.066 27.2291 6
10 -14 -1 285.342 24.8279 4
14 -10 1 324.161 26.9593 4
11 3 -1 59.1841 14.2267 6
11 -14 1 49.8164 11.4008 5
3 -14 -1 46.1017 11.3674 5
14 -11 -1 47.0299 12.4945 4
14 -3 1 25.2782 11.0963 4
14 -3 1 42.3184 12.3555 6
11 -14 1 41.122 10.9172 4
11 -14 -1 69.1182 12.5126 5
14 -11 1 89.9647 14.2595 4
3 -14 1 73.8891 12.2336 5
11 3 1 52.9339 13.0942 6
14 -3 -1 76.4887 14.6909 6
11 -14 -1 57.4586 12.3826 4
-3 -11 -1 47.7381 10.1321 5
14 -12 -1 34.0455 11.9705 4
12 2 -1 53.041 14.0985 6
-2 -12 1 -0.4327 9.77261 5
2 -14 -1 31.8561 10.2889 5
12 -14 1 27.38 10.2189 5
14 -2 1 40.8482 12.8214 6
12 -14 1 36.43 11.2765 4
14 -2 -1 49.5485 14.011 6
12 2 1 47.0687 13.4299 6
-2 -12 -1 28.1401 9.90643 5
12 -14 -1 42.8221 11.2077 5
12 -14 -1 41.6535 12.1815 4
2 -14 1 41.0671 11.1137 5
14 -12 1 41.996 12.2412 4
13 -14 1 36.6062 12.1641 4
13 1 -1 43.7729 14.7348 6
1 -14 -1 25.3815 9.85855 5
14 -13 -1 35.7811 12.4574 4
-1 -13 1 21.6487 8.05364 5
13 -14 1 29.1258 10.4721 5
14 -1 1 44.629 13.3776 6
13 -14 -1 11.3066 9.04722 5
-1 -13 -1 29.7801 10.1884 5
1 -14 1 22.6525 10.0973 5
13 -14 -1 38.3396 12.2717 4
14 -13 1 35.1998 12.6224 4
14 -1 -1 34.0996 13.2604 6
13 1 1 34.3833 13.2481 6
0 -14 1 7.10954 8.64529 5
-14 14 1 -0.6207 5.96747 10
14 0 1 6.75621 12.8258 6
14 0 -1 13.4185 13.3104 6
14 -14 1 13.9842 11.5073 4
0 14 -1 -3.9157 5.8706 11
14 -14 -1 -4.3026 10.3451 4
0 -14 -1 4.44984 9.2381 5
14 -14 1 3.4336 9.63281 5
0 14 1 4.66001 5.94423 11
-14 14 -1 3.05427 6.12538 10
7 8 1 27.1545 13.883 6
8 -15 1 38.9935 10.8012 5
8 7 -1 45.5486 15.1087 6
15 -7 1 40.0332 12.4783 4
15 -8 -1 36.6831 12.5388 4
7 -15 -1 39.4911 11.6768 5
15 -7 -1 38.1185 12.8145 4
15 -8 1 41.4623 12.2877 4
7 8 -1 44.2103 14.7535 6
15 -7 -1 21.1751 9.72835 6
7 -15 1 37.3219 10.2141 5
8 -15 -1 43.5921 11.6373 5
8 7 1 38.7543 13.1584 6
15 -6 1 19.5986 11.3881 4
6 9 1 -0.1719 12.5711 6
9 6 -1 10.321 13.1317 6
15 -9 -1 18.6705 11.2135 4
9 -15 1 10.725 9.2738 5
6 -15 -1 13.6541 10.7572 5
15 -6 1 10.7922 9.74586 6
15 -6 -1 8.63401 10.9599 6
15 -6 -1 10.0162 11.5169 4
6 -15 1 4.09661 9.78787 5
15 -9 1 17.2955 10.9075 4
9 -15 -1 7.25974 9.72877 5
6 9 -1 -4.5598 12.4726 6
9 6 1 18.1641 12.6531 6
15 -5 1 39.4164 13.2021 4
10 5 -1 50.4698 14.756 6
5 -15 -1 46.3545 11.8371 5
15 -5 1 33.661 12.3458 6
15 -10 -1 37.5532 12.0931 4
10 -15 1 32.4117 10.2028 5
5 -15 1 45.2233 11.6508 5
15 -10 1 15.7954 10.4349 4
15 -5 -1 21.0625 11.6835 4
10 5 1 35.7956 12.5373 6
15 -5 -1 15.9792 11.5576 6
10 -15 -1 14.0908 10.414 5
15 -4 1 53.9667 13.7783 6
11 -15 1 40.7411 10.8301 5
15 -11 -1 84.2238 14.6872 4
11 4 -1 67.0998 15.9377 6
15 -4 1 56.7966 13.5905 4
4 -15 -1 60.8407 12.0988 5
15 -11 1 75.037 13.6604 4
11 -15 -1 41.5417 10.7424 4
4 -15 1 65.082 12.5262 5
11 -15 -1 43.8224 12.0607 5
15 -4 -1 49.8816 13.1541 6
11 4 1 68.618 14.9377 6
15 -12 -1 73.2937 14.399 4
3 -15 -1 64.1002 12.4617 5
15 -3 1 46.4453 13.7497 6
12 -15 1 50.9459 11.7639 5
12 -15 1 45.4089 11.245 4
12 3 -1 53.3333 14.5886 6
12 -15 -1 64.8592 13.2836 4
12 3 1 81.8999 15.6736 6
12 -15 -1 53.5854 12.1032 5
3 -15 1 65.6214 12.5003 5
15 -12 1 82.2478 14.4168 4
15 -3 -1 79.9394 15.3894 6
-15 13 -1 77.9728 9.19519 10
15 -13 -1 63.7952 8.41844 7
-13 15 -1 160.921 16.362 10
15 -2 -1 216.18 23.862 6
13 2 1 233.975 24.6238 6
-2 -13 -1 195.287 19.3757 5
13 -15 -1 209.117 22.1765 4
2 13 -1 184.767 16.7274 11
15 -13 1 213.705 22.3611 4
13 -15 -1 184.574 19.7694 5
2 -15 1 196.932 20.082 5
-15 13 1 190.048 16.741 10
-1 15 -1 8.47063 7.25592 11
-14 15 1 10.5845 7.10476 10
-1 -14 1 -0.9134 9.86937 5
15 -14 -1 5.54983 6.73702 7
15 -1 1 9.15986 12.8715 6
-15 14 -1 17.2922 8.09046 10
14 -15 1 7.93356 9.54887 5
-14 -1 -1 10.4308 6.91006 9
14 1 -1 3.4434 12.7328 6
1 -15 -1 13.2274 9.581 5
15 -14 -1 14.985 11.1155 4
-1 -14 1 0.15308 5.35859 9
14 -15 1 11.2528 11.1887 4
1 14 1 19.9963 7.90579 11
-14 15 -1 8.30227 8.11057 10
15 -1 -1 15.3324 13.7001 6
1 14 -1 8.79454 7.93016 11
-1 15 1 13.4214 7.33718 11
15 -14 1 -1.3105 5.46878 7
15 -14 1 11.4665 11.1282 4
14 -15 -1 10.9285 11.5221 4
1 -15 1 9.60623 9.65805 5
-15 14 1 7.17242 7.5086 10
-1 -14 -1 7.38285 9.46363 5
14 1 1 24.8575 13.0051 6
0 -15 -1 118.865 16.8671 5
-15 15 -1 136.726 13.8183 10
15 0 -1 158.676 22.4738 6
0 15 -1 102.737 14.7162 11
-15 15 1 107.676 13.2305 10
15 -15 1 135.879 19.4731 4
15 -15 -1 98.7882 12.56 7
15 -15 -1 124.902 19.4815 4
15 0 1 140.346 21.2542 6
0 15 1 104.885 14.4587 11
-15 0 -1 106.989 13.5509 9
8 -16 -1 1.2888 5.69362 8
-8 -8 -1 -3.4506 5.84925 9
8 -16 1 0.59872 5.53868 8
8 8 1 0.96736 12.9119 6
-8 -8 1 7.42561 6.88647 9
8 8 -1 4.87733 14.753 6
8 -16 1 -8.0753 9.58196 5
8 -16 -1 4.04512 10.5658 5
16 -8 1 4.91035 11.0961 4
16 -8 -1 2.29659 10.8535 4
9 7 -1 63.8736 16.4825 6
9 -16 1 62.1559 12.1145 5
7 -16 -1 96.3301 14.8731 5
16 -7 1 65.8669 13.6161 4
7 9 1 60.676 15.6088 6
16 -9 -1 51.9362 12.7569 4
-7 -9 -1 -3.1091 7.21838 9
16 -7 -1 51.6164 12.82 4
-9 -7 1 5.80901 6.45355 9
7 -16 1 18.5436 6.17043 8
16 -9 1 50.3235 11.6588 4
16 -7 -1 1.92857 8.99938 6
7 9 -1 -2.9447 12.9165 6
9 7 1 66.4769 15.0513 6
9 -16 -1 54.1459 11.548 5
6 -16 -1 4.85356 7.08816 8
-6 -10 1 11.3925 7.76297 9
6 -16 -1 23.3209 11.0142 5
6 10 1 -1.6622 17.1095 6
10 6 -1 30.5966 15.5853 6
10 -16 1 1.82124 4.66884 8
16 -10 -1 22.7208 11.18 4
-10 -6 -1 15.0298 7.67242 9
10 -16 1 38.2297 11.2892 5
16 -6 1 11.2394 10.1045 6
16 -6 1 23.6013 12.2215 4
16 -10 -1 0.73991 5.85603 7
-16 10 1 1.14395 6.85033 10
10 -16 -1 30.9312 10.7675 5
16 -6 -1 25.5045 12.0342 6
10 6 1 43.271 13.8606 6
16 -6 -1 44.7119 12.8169 4
6 -16 1 43.7458 11.991 5
16 -10 1 25.1996 10.8918 4
16 -10 1 10.2815 6.12714 7
11 -16 1 123.993 16.512 5
16 -5 1 83.2358 14.6679 4
11 5 -1 148.792 22.08 6
16 -11 -1 122.701 18.5357 4
16 -5 1 99.5283 15.7616 6
5 -16 -1 68.0303 10.1496 8
-11 -5 -1 99.745 13.8321 9
16 -11 -1 92.289 12.083 7
-5 -11 1 80.2477 10.8745 9
5 -16 1 124.095 16.6899 5
11 -16 -1 128.901 16.4267 5
16 -11 1 111.522 12.6239 7
-11 16 -1 88.3441 10.7767 10
16 -5 -1 120.613 19.3665 6
-16 11 1 88.4866 12.439 10
16 -5 -1 70.0497 13.6766 4
16 -11 1 129.992 18.5796 4
5 11 -1 56.116 9.23212 11
4 -16 -1 213.949 19.0867 8
12 -16 1 243.677 23.3761 5
16 -12 -1 227.475 20.5202 7
16 -4 1 267.401 25.1772 6
4 -16 -1 272.211 23.302 5
-12 -4 -1 234.759 20.7874 9
12 4 -1 284.736 27.8675 6
-4 -12 1 191.715 19.8866 9
16 -12 1 232.299 20.53 7
4 12 -1 220.234 20.8349 11
12 -16 -1 246.508 24.1133 5
16 -4 -1 278.723 26.0181 6
4 -16 1 285.407 23.9836 5
-16 12 1 227.694 20.9191 10
16 -12 1 309.213 26.169 4
-12 16 -1 232.762 19.9289 10
12 4 1 259.812 26.1394 6
13 -16 1 6.74346 10.3653 5
3 -16 -1 14.9607 10.1468 5
3 -16 -1 -7.8682 6.82863 8
-13 16 1 3.78138 6.89379 10
3 13 1 6.89384 7.73886 11
-3 -13 1 -0.311 7.03384 9
-3 16 -1 0.53469 6.00182 11
-16 13 -1 6.08377 7.57042 10
-13 -3 -1 9.95415 8.11444 9
13 3 -1 8.75504 13.1459 6
16 -13 -1 11.0035 12.2399 4
16 -3 1 -0.3762 12.9893 6
13 -16 1 -2.7225 8.1473 4
16 -13 -1 3.34025 7.91249 7
16 -13 1 12.7134 8.03191 7
-16 13 1 7.00316 8.46655 10
16 -3 -1 16.7284 12.8322 6
3 13 -1 2.08214 7.70075 11
-13 16 -1 7.04226 7.82854 10
13 3 1 4.29634 12.4816 6
16 -13 1 -0.3186 11.9336 4
-13 -3 1 1.77555 5.35953 9
13 -16 -1 17.3704 10.5681 5
3 -16 1 6.31328 10.4446 5
-3 16 1 14.3567 7.13221 11
13 -16 -1 9.84161 10.6474 4
-2 16 -1 71.2249 10.7452 11
-14 16 1 110.592 11.5665 10
2 -16 -1 72.6654 12.5932 5
14 -16 1 66.5825 13.0314 5
14 2 -1 114.31 18.6591 6
2 -16 -1 67.0317 9.13024 8
-14 -2 -1 78.4346 10.8723 9
16 -14 -1 81.972 10.5532 7
-2 -14 1 78.2964 10.8083 9
2 14 1 96.5435 11.0855 11
16 -14 -1 103.314 16.085 4
14 -16 1 60.9735 13.3383 4
-16 14 -1 87.0032 11.5937 10
16 -2 1 85.9804 16.5439 6
-2 16 1 43.7512 8.63653 11
14 -16 -1 45.4485 13.0917 4
14 2 1 42.3184 14.5706 6
2 14 -1 46.9057 9.42154 11
2 -16 1 46.5843 11.8075 5
-14 16 -1 55.9574 9.99236 10
16 -2 -1 59.6974 15.6843 6
16 -14 1 60.0967 9.3646 7
16 -14 1 59.785 13.8209 4
-16 14 1 54.9053 9.96396 10
16 -15 -1 66.4998 9.90564 7
15 -16 1 54.0695 13.1114 4
-15 -1 -1 76.5356 10.664 9
-1 -15 1 64.321 10.1303 9
-15 16 1 49.4185 9.42924 10
15 1 -1 54.8262 15.8631 6
-1 16 -1 48.8536 9.68756 11
1 15 1 60.1673 9.73937 11
-16 15 -1 70.1274 10.7719 10
16 -1 1 67.8948 15.9937 6
1 -16 -1 59.0312 11.9944 5
16 -15 -1 44.2951 13.266 4
-1 16 1 86.192 10.7523 11
15 1 1 149.604 19.8218 6
-16 1 -1 85.3464 12.7048 9
15 -16 -1 86.5368 15.0022 4
15 -16 -1 70.9988 9.42848 7
16 -1 -1 86.7625 16.6386 6
1 -16 1 49.7425 11.4296 5
16 -15 1 110.113 16.4065 4
-15 16 -1 105.614 13.4124 10
1 15 -1 84.5145 11.0296 11
-16 15 1 97.472 12.6578 10
16 -15 1 94.8556 13.2203 7
0 -16 1 29.3177 8.42425 9
16 -16 -1 58.8958 9.08149 7
-16 16 -1 56.7886 10.0538 10
16 -16 1 57.8179 8.65211 7
-16 0 -1 30.25 8.51038 9
0 -16 -1 20.7069 9.37009 5
16 0 1 39.4195 15.4971 6
16 0 -1 67.031 16.4557 6
16 -16 -1 41.9331 13.3005 4
0 16 1 52.7757 9.7496 11
-16 16 1 39.4377 9.40935 10
16 -16 1 32.02 12.5756 4
0 16 -1 51.4962 9.17503 11
8 -17 -1 34.6762 11.3277 5
8 9 1 25.3639 14.2594 6
9 -17 1 27.0119 7.72691 8
17 -8 1 41.4647 13.2107 4
-9 -8 -1 32.3331 9.55629 9
8 -17 -1 47.9635 8.78965 8
17 -9 -1 40.9551 12.5402 4
9 8 -1 39.6135 16.3242 6
-8 -9 1 41.9359 10.6126 9
-8 17 -1 18.2724 6.32372 10
17 -9 -1 12.5221 6.67177 7
-17 8 1 23.3657 7.83176 10
9 -17 1 40.2744 12.1435 5
-17 9 1 46.7453 9.68888 10
17 -9 1 22.5522 7.49003 7
-9 -8 1 62.8627 11.2771 9
9 -17 -1 39.5583 8.65213 8
-9 17 -1 44.9544 8.70118 10
9 8 1 50.7101 14.8123 6
17 -9 1 57.5953 13.9956 4
17 -8 -1 42.0766 13.0148 4
8 -17 1 47.1432 8.70153 8
9 -17 -1 55.0171 12.381 5
-8 -9 -1 50.8156 9.93495 9
8 -17 1 65.5821 13.7065 5
17 -7 1 34.4735 12.9519 4
17 -10 -1 23.4292 12.1874 4
10 7 -1 32.3335 15.9963 6
10 -17 1 20.3631 7.17944 8
-7 -10 1 29.2859 9.85814 9
-10 -7 -1 25.3898 9.79281 9
7 -17 -1 13.816 11.3343 5
10 -17 1 19.6928 10.575 5
-17 7 1 3.04562 6.67011 10
17 -10 -1 25.1336 7.84789 7
7 -17 -1 26.5321 8.86918 8
17 -7 -1 -0.1333 9.22551 6
-10 17 -1 25.249 8.0848 10
10 -17 -1 27.4669 7.95227 8
17 -10 1 29.3043 8.04064 7
10 7 1 35.7301 14.4305 6
17 -7 -1 38.3291 12.8792 4
10 -17 -1 28.8176 11.1709 5
7 -17 1 37.1491 8.72164 8
7 -17 1 40.3494 12.0216 5
-10 -7 1 26.4261 9.36585 9
-17 10 1 28.8471 9.61707 10
17 -10 1 41.5285 12.9443 4
7 10 -1 23.2332 7.44634 11
-7 -10 -1 20.3496 8.45657 9
-17 11 -1 5.17192 6.51971 10
11 -17 1 14.8983 6.83813 8
17 -6 1 -0.0614 9.25177 6
6 11 1 -2.0062 4.9908 11
6 -17 -1 14.3585 10.9465 5
11 -17 1 20.463 10.0168 5
-17 6 1 3.82339 8.06161 10
17 -11 -1 24.2812 12.3239 4
6 -17 -1 17.6883 8.49232 8
-6 -11 1 16.5592 8.69907 9
17 -11 -1 19.5151 7.78424 7
-11 17 1 0.07869 5.19609 10
11 6 -1 19.3601 14.9469 6
-6 17 -1 -1.4501 5.95714 10
17 -6 1 17.0736 12.0755 4
-11 -6 -1 10.417 9.20664 9
17 -11 1 18.1097 8.07978 7
-11 -6 1 11.4331 9.37886 9
11 -17 -1 5.87808 10.4796 5
17 -6 -1 8.067 11.4117 4
-6 -11 -1 15.7717 8.47339 9
11 -17 -1 8.85248 6.37531 8
6 -17 1 9.7817 7.85446 8
-11 17 -1 6.87715 7.98974 10
-17 11 1 12.6678 9.95128 10
11 6 1 17.8265 13.7449 6
-6 17 1 -0.3228 5.77303 11
6 -17 1 4.93778 10.9599 5
6 11 -1 5.5647 7.9836 11
17 -6 -1 9.65364 11.8963 6
17 -11 1 34.683 13.1178 4
17 -5 1 -2.4855 13.5914 4
5 -17 -1 14.7145 8.34094 8
17 -12 -1 16.6228 8.50395 7
-5 -12 1 6.86002 8.54525 9
12 -17 1 21.8835 10.8516 5
12 -17 1 17.394 6.65772 8
5 -17 -1 9.24364 10.9321 5
5 12 1 12.0998 7.55158 11
-12 17 1 8.03887 7.19817 10
12 5 -1 6.15426 13.9138 6
-12 -5 -1 19.5936 9.39662 9
-17 12 -1 9.88979 8.46534 10
17 -12 -1 15.1159 12.0928 4
17 -5 1 3.10034 12.075 6
-5 -12 -1 7.74771 7.93144 9
17 -12 1 12.0011 12.4968 4
5 12 -1 5.17218 8.25845 11
-12 17 -1 7.21165 8.01382 10
-5 17 1 11.5477 7.04005 11
17 -12 1 21.0772 8.69319 7
12 -17 -1 -6.269 5.77346 8
5 -17 1 4.5724 7.58017 8
5 -17 1 11.2938 10.5359 5
-17 12 1 10.231 8.85802 10
12 -17 -1 8.3569 11.1358 5
-12 -5 1 14.5748 9.23044 9
17 -5 -1 17.0816 13.0617 6
12 5 1 13.7133 13.1003 6
13 -17 1 0.9086 9.85808 5
17 -13 -1 5.15778 8.04054 7
13 4 -1 20.8506 14.6806 6
4 -17 -1 6.79242 10.2391 5
-13 -4 -1 3.75441 8.84938 9
-4 -13 1 1.874 8.122 9
4 13 1 7.19507 7.36925 11
-13 17 1 -8.7803 7.24996 10
17 -13 -1 1.36434 12.3002 4
4 -17 -1 2.82338 7.4507 8
-4 17 -1 8.84809 7.35172 11
17 -4 1 10.5304 12.9767 6
-17 13 -1 0.77236 8.78912 10
13 -17 1 5.34303 5.94734 8
-4 -13 -1 7.82033 7.34517 9
-17 13 1 -0.3291 8.57044 10
-13 -4 1 1.69105 8.2728 9
17 -4 -1 16.4944 13.1492 6
4 -17 1 3.61076 10.8175 5
-4 17 1 10.9601 7.5326 11
13 4 1 10.0901 13.3702 6
13 -17 -1 8.80789 10.599 5
-13 17 -1 4.38571 8.08712 10
17 -13 1 11.7931 8.25844 7
17 -13 1 8.83117 12.5749 4
4 13 -1 5.31497 8.34596 11
4 -17 1 -1.0443 7.75312 8
14 -17 1 1.33545 10.1193 5
-14 -3 -1 -0.0374 8.59012 9
3 14 1 0.60152 7.91997 11
17 -3 1 6.57163 13.6428 6
14 -17 1 -1.3639 5.07345 8
-3 17 -1 6.61794 8.50087 11
-17 14 -1 1.00488 8.76319 10
17 -14 -1 -0.983 7.92835 7
3 -17 -1 -2.3176 7.16042 8
-3 -14 1 4.55017 7.92999 9
17 -14 -1 4.1097 11.7122 4
3 -17 -1 7.4236 9.92629 5
14 3 -1 2.59809 13.3524 6
-14 17 1 3.00745 7.52048 10
-17 14 1 18.2861 9.20534 10
-3 -14 -1 17.0192 7.31951 9
-14 17 -1 20.635 8.81119 10
-3 17 1 16.1088 8.16037 11
-17 3 -1 6.39643 6.14208 9
17 -14 1 20.5391 8.46488 7
17 -14 1 13.3114 11.9471 4
3 -17 1 11.9659 10.4987 5
3 14 -1 20.6382 8.76617 11
3 -17 1 12.8115 6.97445 8
-14 -3 1 9.30439 8.24913 9
14 -17 -1 -2.1864 12.3952 5
17 -3 -1 17.9401 14.0333 6
14 3 1 9.58422 13.5255 6
14 -17 -1 -0.7765 11.4079 4
-2 17 -1 18.0724 9.0218 11
17 -15 -1 17.42 12.8406 4
2 -17 -1 7.22414 7.34272 8
2 -17 -1 17.6437 10.7417 5
17 -15 -1 5.91379 7.38681 7
2 15 1 13.3309 8.38009 11
17 -2 1 10.4872 13.5845 6
-15 -2 -1 26.4835 8.83442 9
-2 -15 1 9.86827 8.36504 9
15 2 -1 18.2342 14.8212 6
-17 15 -1 3.18327 8.39137 10
15 -17 1 -2.6095 14.0986 5
-15 17 1 19.338 8.19148 10
17 -2 -1 5.56281 13.8047 6
2 -17 1 0.52982 5.2081 8
-15 17 -1 4.4468 8.07719 10
15 -17 -1 10.8084 9.6456 4
15 2 1 8.96535 14.7046 6
-2 17 1 4.00789 7.75423 11
17 -15 1 8.40051 12.4018 4
-2 -15 -1 3.53237 6.11908 9
2 -17 1 1.07804 8.31049 5
2 15 -1 2.23827 8.56436 11
-17 15 1 1.69499 8.43664 10
15 -17 -1 -0.5301 4.23346 7
-17 2 -1 9.2105 7.72224 9
-15 -2 1 6.0233 7.77769 9
17 -15 1 1.82879 7.59434 7
1 -17 -1 72.0331 9.04855 8
16 -17 1 48.1529 8.30775 7
16 1 -1 76.1019 17.0229 6
17 -16 -1 72.1484 9.53036 7
17 -16 -1 75.4774 14.816 4
1 16 1 78.5942 10.4255 11
-16 -1 -1 60.3737 9.73904 9
-1 -16 1 53.6323 10.0143 9
17 -1 1 99.5653 17.5065 6
-1 17 -1 55.7068 9.92157 11
-17 16 -1 62.2388 10.953 10
-16 17 1 75.7031 10.1427 10
1 16 -1 103.296 14.5219 11
1 -17 1 82.3843 11.5476 9
17 -16 1 128.877 18.7239 4
16 -17 -1 109.939 17.4417 4
16 -17 -1 89.7975 12.6152 7
-17 16 1 107.908 13.7118 10
17 -16 1 113.663 13.7165 7
-16 17 -1 110.633 13.9871 10
17 -1 -1 148.467 23.2881 6
16 1 1 86.6143 17.424 6
-1 17 1 96.5408 13.4993 11
-16 -1 1 98.0606 13.2244 9
-17 1 -1 103.991 13.7773 9
17 -17 1 19.2659 7.14117 7
17 -17 -1 16.1129 6.99796 7
17 -17 1 0.24316 9.94528 4
-17 17 -1 27.5099 8.9068 10
0 17 -1 21.5993 8.20101 11
-17 0 -1 29.581 8.37749 9
0 17 1 34.0226 8.80924 11
17 0 -1 27.9975 15.2037 6
-17 0 1 26.6101 7.04401 9
0 -17 1 24.4771 8.17031 9
17 0 1 28.6446 14.5544 6
17 -17 -1 16.2357 10.3298 4
-17 17 1 32.4369 8.93044 10
0 -17 -1 18.5712 6.08275 8
9 9 -1 5.26213 6.16486 11
18 -9 -1 23.3356 12.7116 4
-18 9 1 21.0783 9.17798 10
18 -9 1 14.7003 7.73557 7
9 -18 -1 4.96454 7.71803 8
9 -18 1 36.7589 12.0698 5
9 -18 1 21.649 8.29131 8
9 9 1 14.4717 12.9983 6
-9 -9 1 26.9094 9.59958 9
18 -9 1 26.2291 13.445 4
-9 18 -1 19.679 7.77 10
-9 -9 -1 20.6814 9.23662 9
18 -9 -1 17.0933 7.90469 7
9 -18 -1 31.2488 11.9139 5
8 -18 -1 27.7909 11.8957 5
-10 -8 -1 24.8837 9.57001 9
18 -8 1 28.2962 13.1698 4
-18 8 1 13.8706 9.14296 10
18 -8 1 9.07187 7.03166 7
10 -18 1 33.748 7.89561 8
-8 -10 1 24.5437 9.36775 9
18 -10 -1 25.2192 12.1186 4
10 8 -1 21.306 14.7472 6
-18 10 -1 21.8664 7.95759 10
-10 18 1 3.73868 6.01615 10
18 -10 -1 30.8892 8.5579 7
-8 18 -1 23.9339 7.74202 10
8 -18 -1 36.4595 8.59106 8
10 -18 1 28.3445 11.3107 5
8 -18 1 31.8261 8.50784 8
-8 -10 -1 24.1382 8.62461 9
18 -10 1 27.3274 12.8629 4
10 -18 -1 23.5419 11.3558 5
8 10 -1 32.0924 8.02797 11
10 8 1 36.6196 14.9242 6
-18 10 1 18.4926 9.67735 10
18 -10 1 24.6612 8.45925 7
10 -18 -1 27.8939 8.16629 8
-10 -8 1 32.2245 9.80402 9
-10 18 -1 35.1767 8.84001 10
8 -18 1 42.4253 12.7705 5
18 -8 -1 23.8322 12.424 4
-7 -11 1 78.8708 11.1461 9
7 -18 -1 60.3455 9.79637 8
7 11 1 43.0282 8.25622 11
-11 18 1 57.1505 9.12685 10
11 -18 1 48.1744 8.47075 8
7 -18 -1 55.3751 12.9312 5
11 -18 1 58.8049 12.5686 5
18 -7 1 45.1101 13.6089 4
18 -11 -1 61.9812 14.2587 4
-11 -7 -1 88.9156 11.9463 9
-7 18 -1 39.7542 8.14836 10
18 -11 -1 41.0165 9.08261 7
-18 7 1 44.7193 9.82065 10
-18 11 -1 41.767 10.0211 10
11 7 -1 61.2401 17.5012 6
7 -18 1 61.6016 13.505 5
18 -11 1 44.2977 9.10094 7
-7 -11 -1 41.4961 9.59384 9
-18 11 1 43.7113 10.7903 10
-11 -7 1 62.7975 11.2583 9
18 -11 1 64.9754 14.5104 4
11 -18 -1 47.7721 12.3211 5
-11 18 -1 61.1193 10.2404 10
11 7 1 36.5826 14.6256 6
11 -18 -1 38.3942 8.52479 8
7 11 -1 49.9822 9.43979 11
7 -18 1 57.3135 9.50914 8
6 -18 -1 13.6488 11.2956 5
-6 -12 1 11.1636 8.80493 9
18 -12 -1 20.0885 7.93019 7
18 -12 -1 15.8972 12.5785 4
-18 6 1 18.7829 8.02453 10
6 -18 -1 15.6795 7.73795 8
-6 18 -1 12.2336 6.60022 10
-12 -6 -1 16.6575 9.58923 9
12 6 -1 13.5165 14.6371 6
-18 12 -1 14.992 9.59814 10
12 -18 1 21.1073 7.29718 8
-12 18 1 11.6848 8.0465 10
12 -18 1 11.9891 10.6656 5
6 12 1 15.6809 7.76678 11
12 6 1 13.2309 13.2928 6
-6 18 1 11.4059 7.54818 11
12 -18 -1 16.0994 7.64184 8
-12 18 -1 4.60062 8.26507 10
6 12 -1 2.64699 8.0765 11
18 -6 -1 0.13529 10.9457 6
-6 -12 -1 10.933 8.4831 9
12 -18 -1 24.3385 11.4313 5
18 -12 1 14.1295 12.4698 4
6 -18 1 8.05255 7.91941 8
18 -12 1 17.9673 8.31626 7
6 -18 1 18.4774 11.3312 5
-12 -6 1 4.00712 9.13192 9
-18 12 1 6.42469 9.34551 10
13 -18 1 36.0032 7.87202 8
18 -13 -1 67.8443 14.0231 4
-18 13 -1 26.4913 9.54407 10
5 -18 -1 46.491 12.1844 5
-18 5 1 30.4398 7.65116 10
-13 -5 -1 79.4811 11.421 9
-5 -13 1 73.9843 10.4505 9
5 -18 -1 52.0462 8.6273 8
5 13 1 49.6824 9.09222 11
-5 18 -1 53.7496 9.59621 11
18 -13 -1 71.8166 10.1379 7
13 -18 1 66.322 13.1466 5
18 -5 1 -0.4319 13.6546 6
13 5 -1 36.708 15.3909 6
-13 18 1 74.166 10.2794 10
18 -5 -1 50.3305 14.0217 6
-13 -5 1 55.4177 10.2588 9
18 -13 1 46.9537 9.48922 7
5 13 -1 68.8013 10.1971 11
13 -18 -1 63.9154 12.4883 5
-13 18 -1 46.173 9.5265 10
-18 13 1 43.8215 10.2553 10
5 -18 1 50.9381 12.5189 5
13 -18 -1 35.78 8.20101 8
-5 18 1 36.9428 8.74174 11
5 -18 1 51.6787 9.31017 8
18 -13 1 66.779 14.964 4
13 5 1 60.5559 15.5498 6
-5 -13 -1 29.6047 9.05534 9
4 14 1 -1.305 7.62865 11
-4 18 -1 9.52654 8.57485 11
18 -4 1 -6.489 11.1176 6
-4 -14 1 2.70092 8.02546 9
18 -14 -1 10.2944 12.7523 4
-4 18 -1 -1.493 4.94569 10
14 4 -1 6.14588 14.171 6
18 -14 -1 7.60954 7.47566 7
4 -18 -1 7.01307 10.1012 5
14 -18 1 12.0928 6.65463 8
-18 4 1 5.52811 6.31596 10
4 -18 -1 -2.1374 6.79416 8
-14 -4 -1 -3.4523 8.2058 9
-18 14 -1 9.25716 9.01783 10
14 -18 1 6.94034 10.5262 5
-14 18 1 4.67304 7.4017 10
14 4 1 16.078 13.4211 6
4 -18 1 9.1483 10.962 5
4 14 -1 11.8493 8.33666 11
-18 14 1 5.28892 8.74773 10
18 -14 1 17.0504 8.17445 7
18 -14 1 20.5922 12.8696 4
14 -18 -1 -1.3945 5.53978 8
-14 18 -1 11.2227 8.25276 10
18 -4 -1 13.874 13.1408 6
4 -18 1 -1.0798 7.45944 8
-18 4 -1 11.3875 6.39136 9
-4 -14 -1 3.01612 8.00179 9
-14 -4 1 2.01144 8.18105 9
-4 18 1 7.84027 8.18368 11
-15 -3 -1 52.5744 9.59234 9
3 -18 -1 65.7988 12.8621 5
18 -15 -1 50.1227 8.93805 7
-3 -15 1 53.7052 9.82798 9
-3 18 -1 61.6484 10.3205 11
18 -3 1 39.1198 13.3043 6
15 -18 1 62.7537 8.19243 8
3 15 1 69.9241 9.90255 11
18 -15 -1 86.3672 15.9263 4
15 3 -1 63.8019 15.6519 6
-15 18 1 59.4151 9.49824 10
3 -18 -1 67.3812 9.16944 8
-18 15 -1 63.0511 10.5289 10
-15 18 -1 103.148 12.1735 10
18 -15 1 96.7754 16.5646 4
-15 -3 1 94.2321 11.682 9
18 -15 1 79.8141 10.4657 7
-18 15 1 132 13.1686 10
-3 -15 -1 80.4889 11.2075 9
18 -3 -1 78.1781 16.7814 6
3 15 -1 93.105 11.2866 11
3 -18 1 60.596 9.66411 8
-3 18 1 100.817 11.4557 11
15 3 1 91.0275 17.5214 6
-18 3 -1 90.1359 13.1623 9
-18 16 -1 26.3968 9.71839 10
18 -16 -1 20.6125 7.56287 7
2 16 1 26.9377 8.0333 11
-2 -16 1 21.2469 8.35355 9
2 -18 -1 11.7316 6.93856 8
-2 18 -1 24.5866 8.7079 11
16 2 -1 30.7124 15.3592 6
18 -2 1 20.666 13.1628 6
-16 -2 -1 9.78015 7.52502 9
18 -16 -1 27.5086 12.5022 4
-16 18 1 16.1747 7.95862 10
2 -18 -1 -2.2828 8.6091 5
-18 16 1 18.6259 9.14636 10
2 -18 1 13.2824 6.55905 8
2 -18 1 13.7774 7.375 9
-18 2 -1 14.3773 7.90941 9
16 2 1 16.2091 14.3969 6
-16 -2 1 13.539 7.83358 9
2 16 -1 20.3162 8.34062 11
18 -16 1 16.0406 7.397 7
-2 -16 -1 12.999 7.45609 9
18 -16 1 13.5682 11.765 4
-2 18 1 19.364 8.14137 11
16 -18 -1 7.37235 5.92584 7
18 -2 -1 22.5206 13.8162 6
-16 18 -1 11.5921 8.93263 10
-17 18 1 17.1214 8.16979 10
-1 18 -1 15.6328 8.07093 11
17 1 -1 21.1596 14.5562 6
-1 -17 1 25.0966 8.2514 9
1 17 1 28.8364 8.40473 11
18 -1 1 6.54731 11.9268 6
18 -17 -1 13.3319 6.57068 7
1 -18 -1 23.0107 6.77515 8
17 -18 1 15.1471 6.57512 7
18 -17 -1 -0.585 9.44282 4
-18 17 -1 27.3095 9.11701 10
-17 -1 -1 16.62 7.82873 9
1 17 -1 13.0223 7.492 11
1 -18 1 -3.0069 3.86589 8
18 -1 -1 17.6056 13.692 6
18 -17 1 12.624 6.91436 7
17 1 1 15.2379 14.094 6
-17 -1 1 2.24094 6.83688 9
18 -17 1 -0.1432 10.3772 4
-18 17 1 8.08048 8.76136 10
-1 18 1 12.8974 7.74736 11
-1 -17 -1 4.01922 6.19932 9
-18 1 -1 3.53944 7.49663 9
17 -18 -1 5.39879 6.3918 7
1 -18 1 12.7989 7.87214 9
-17 18 -1 -0.8748 8.63231 10
-18 18 -1 118.243 12.4658 10
0 18 -1 91.0533 10.8917 11
0 -18 1 78.1349 10.9908 9
-18 18 1 106.523 13.0273 10
-18 0 -1 95.429 13.0596 9
0 18 1 96.3493 13.4101 11
18 -18 1 95.2301 12.2333 7
-18 0 1 85.24 11.4662 9
18 -18 -1 83.9431 10.0974 7
19 -9 1 14.1916 12.2677 4
10 -19 1 17.0809 7.62588 8
19 -9 1 15.464 7.86033 7
-19 9 1 7.70799 9.17661 10
-10 19 1 9.42173 7.0043 10
9 -19 -1 14.8163 7.93825 8
19 -10 -1 19.8626 12.3423 4
10 -19 1 26.358 11.4774 5
19 -10 -1 3.87983 7.648 7
9 -19 -1 14.2951 11.1168 5
-9 -10 1 16.9709 9.22955 9
-9 19 -1 12.92 7.69633 10
-19 10 -1 11.7242 8.17801 10
10 9 -1 8.83418 6.47401 11
-10 -9 -1 10.086 8.6848 9
9 -19 1 27.7436 8.07975 8
9 -19 1 23.9054 11.8496 5
10 -19 -1 24.52 7.99301 8
10 -19 -1 22.6108 11.5347 5
-19 10 1 21.3772 9.7291 10
19 -9 -1 14.3078 8.00596 7
19 -10 1 13.1261 12.1539 4
-19 9 -1 9.08618 6.89795 10
-9 19 1 -0.1952 5.57772 10
-10 -9 1 31.3748 9.57633 9
9 10 -1 18.0328 7.33109 11
19 -10 1 24.4339 7.99148 7
-10 19 -1 19.6789 8.14843 10
19 -9 -1 19.1805 11.4755 4
-9 -10 -1 21.7027 8.34513 9
11 -19 1 70.0321 13.402 5
-19 11 -1 41.1026 10.5197 10
8 11 1 46.8795 8.67121 11
19 -11 -1 57.8589 9.54073 7
-11 -8 -1 95.9684 11.943 9
8 -19 -1 68.5241 9.98709 8
-19 8 1 41.9802 10.0489 10
-11 19 1 68.1505 10.2544 10
19 -11 -1 39.219 12.834 4
19 -8 1 54.0088 9.25597 7
8 -19 -1 95.1582 14.6995 5
11 -19 1 48.6038 8.66158 8
-8 19 -1 66.6112 9.77165 10
-8 -11 1 66.1386 10.6712 9
-19 11 1 58.5132 11.2119 10
11 -19 -1 61.0058 12.764 5
11 8 1 17.8081 13.4841 6
8 11 -1 71.319 9.78102 11
8 -19 1 55.5578 8.88105 8
19 -8 -1 37.1587 8.01725 7
-11 -8 1 67.8339 11.094 9
-8 -11 -1 63.6473 10.1338 9
19 -11 1 48.8731 13.4193 4
8 -19 1 65.1022 13.3629 5
-11 19 -1 44.9922 8.99624 10
19 -11 1 52.8728 9.29755 7
11 -19 -1 46.2739 8.60428 8
19 -12 -1 60.6245 13.5166 4
-7 -12 1 59.3857 10.1454 9
19 -12 -1 38.0887 8.38036 7
7 12 1 41.5942 8.99235 11
-12 19 1 51.4759 9.50155 10
12 -19 1 46.4762 8.47518 8
-19 12 -1 49.2513 10.386 10
7 -19 -1 59.1504 13.1249 5
12 7 -1 50.7508 15.503 6
7 -19 -1 61.3251 9.25424 8
-7 19 -1 56.3071 8.89704 10
12 -19 1 57.9637 12.649 5
-12 -7 -1 78.3582 11.663 9
-19 7 1 21.1464 9.49628 10
-7 19 1 40.1579 8.77017 11
12 -19 -1 39.711 8.6829 8
12 7 1 47.7842 15.4983 6
7 -19 1 54.8657 9.07422 8
12 -19 -1 51.2171 12.3062 5
7 -19 1 48.6942 13.0349 5
19 -12 1 35.2736 8.74402 7
7 12 -1 50.1005 9.10412 11
-12 -7 1 66.0758 11.0182 9
-12 19 -1 38.0579 8.86343 10
-7 -12 -1 53.3582 9.49606 9
-19 12 1 44.1586 10.5194 10
19 -12 1 50.2218 13.0087 4
-13 19 1 18.8821 8.24476 10
13 -19 1 11.3617 10.1671 5
-6 -13 1 11.3647 7.96109 9
13 6 -1 19.6284 14.6341 6
-13 -6 -1 10.1209 8.71838 9
6 -19 -1 16.1861 10.6201 5
13 -19 1 16.2171 7.13086 8
-6 19 -1 12.6486 7.67123 11
19 -13 -1 12.8681 12.1027 4
-19 13 -1 6.70845 8.80961 10
6 -19 -1 16.4193 7.15674 8
-6 19 -1 9.71579 6.98896 10
19 -13 -1 17.4478 7.26004 7
6 13 1 13.6844 7.8513 11
-19 6 1 13.9631 8.45584 10
-13 19 -1 8.17835 8.03014 10
6 13 -1 2.82478 7.43975 11
19 -13 1 14.3899 8.21802 7
6 -19 1 10.0559 7.9226 8
-13 -6 1 6.54194 8.64175 9
19 -13 1 5.93916 12.7748 4
6 -19 1 10.9128 10.9431 5
13 -19 -1 8.6907 7.25004 8
-6 -13 -1 5.51195 7.28109 9
-6 19 1 7.97249 7.83152 11
13 -19 -1 2.87374 9.51649 5
-19 13 1 9.35746 9.03121 10
13 6 1 14.7542 14.3112 6
-19 5 1 6.80231 7.8208 10
-14 -5 -1 2.99404 8.32416 9
-5 19 -1 12.4087 8.8663 11
14 5 -1 17.5427 14.6521 6
5 -19 -1 5.43994 9.9528 5
-5 -14 1 7.0505 7.90338 9
19 -14 -1 5.79493 11.7828 4
19 -14 -1 8.94514 7.7974 7
5 14 1 13.3318 7.50569 11
-19 14 -1 -0.1584 8.53488 10
14 -19 1 5.22651 6.93343 8
14 -19 1 5.03799 9.46762 5
-14 19 1 1.22122 7.5846 10
5 -19 -1 0.94982 7.0819 8
-5 19 -1 6.01732 6.56498 10
14 -19 -1 7.51461 6.91447 8
5 -19 1 -1.8762 9.84986 5
14 5 1 2.15894 13.2635 6
-19 5 -1 1.63215 4.84712 9
5 -19 1 -0.8211 7.14394 8
-5 -14 -1 3.19815 7.75013 9
19 -14 1 10.6438 11.8327 4
-19 14 1 -0.9269 8.50605 10
-14 19 -1 -1.5868 7.95322 10
5 14 -1 2.33166 7.41906 11
-5 19 1 8.39668 7.69564 11
19 -14 1 -2.0072 7.45868 7
-14 -5 1 3.42887 8.36453 9
-15 -4 -1 6.87538 7.93105 9
4 -19 -1 6.88946 9.3678 5
-19 4 1 5.2793 6.29076 10
19 -15 -1 16.6894 7.31182 7
19 -15 -1 14.2308 12.2556 4
15 4 -1 18.2822 14.2686 6
4 -19 -1 9.42421 6.97629 8
4 15 1 13.0745 7.69744 11
-4 19 -1 10.9259 8.41706 11
-4 -15 1 9.53601 7.6498 9
-4 19 -1 -3.7921 4.85744 10
15 -19 1 1.12112 6.5213 8
-19 15 -1 7.65688 8.51357 10
-15 19 1 4.54586 7.55167 10
-15 19 -1 5.48905 8.25659 10
-4 -15 -1 0.76377 7.44379 9
-4 19 1 2.96174 7.60695 11
19 -15 1 8.45235 7.33205 7
15 4 1 13.8811 13.8854 6
15 -19 -1 2.74703 5.29856 8
-15 -4 1 2.62342 8.24645 9
4 -19 1 6.13699 6.9584 8
4 -19 1 -0.8977 14.7909 5
4 15 -1 11.9376 7.88075 11
-19 4 -1 4.14964 6.92938 9
19 -15 1 4.71251 11.5744 4
-19 15 1 8.42238 8.56261 10
-16 -3 -1 54.5571 9.41927 9
-3 -16 1 56.292 9.41677 9
-3 19 -1 59.8824 10.0117 11
-16 19 1 68.6478 10.0404 10
-19 16 -1 71.8776 11.1652 10
16 -19 1 60.2702 8.45303 8
19 -16 -1 36.7242 12.6119 4
3 16 1 69.4075 9.5348 11
19 -16 -1 69.2816 9.04546 7
3 -19 -1 51.0363 8.30368 8
16 3 -1 64.257 15.8859 6
19 -16 1 55.4422 8.71436 7
19 -3 -1 -0.0203 16.0669 6
-16 19 -1 76.2421 10.2215 10
-3 -16 -1 41.2114 8.59976 9
-3 19 1 75.5539 9.87399 11
3 -19 1 78.4318 8.86318 8
-19 3 -1 47.3382 8.41036 9
16 3 1 70.9414 16.2702 6
19 -16 1 38.8337 11.8447 4
3 -19 1 47.2 8.12263 9
2 17 1 32.585 8.26117 11
-2 -17 1 24.545 7.80767 9
17 2 -1 0.71857 11.9621 6
-2 19 -1 16.113 7.97405 11
19 -17 -1 17.5564 6.58044 7
-19 17 -1 25.2223 8.78844 10
-17 -2 -1 17.8144 7.58998 9
2 -19 -1 19.719 6.67851 8
-17 19 1 26.1201 8.16996 10
19 -17 1 21.0367 6.94293 7
-19 17 1 20.772 9.12794 10
-17 19 -1 11.0126 8.52195 10
2 17 -1 28.1785 8.05715 11
-2 19 1 18.1132 7.69687 11
-2 -17 -1 5.51624 6.71931 9
2 -19 1 10.748 7.33877 9
-17 -2 1 20.9389 7.46948 9
17 -19 -1 6.72442 5.77696 7
17 2 1 -3.5063 11.378 6
-19 2 -1 9.19311 7.17587 9
2 -19 1 5.99016 5.85296 8
19 -18 -1 0.38095 5.94962 7
-1 19 -1 5.18325 7.01181 11
-18 -1 -1 1.4702 7.00116 9
-19 1 1 -0.1409 4.30366 9
-1 -18 1 -1.2581 6.74191 9
1 18 1 12.5316 7.34295 11
1 -19 -1 1.83624 5.57767 8
18 -19 1 5.37957 5.55779 7
-18 19 1 -0.1912 7.78746 10
-19 18 -1 3.41457 7.97871 10
-18 19 -1 0.10575 8.30289 10
18 -19 -1 5.88704 5.865 7
19 -18 1 -0.71 6.19781 7
1 18 -1 3.49714 6.51596 11
-19 18 1 7.32011 7.88793 10
-1 19 1 4.96456 6.86917 11
-1 -18 -1 3.16353 5.00349 9
1 -19 1 0.81895 6.649 9
-18 -1 1 4.90559 6.60987 9
-19 1 -1 3.53839 6.81901 9
-19 19 -1 7.29955 7.74312 10
0 -19 -1 -1.0218 3.38662 8
0 19 1 12.8313 7.10781 11
-19 0 -1 5.57155 6.7063 9
-19 0 1 7.08717 4.81715 9
0 19 -1 7.28909 6.43378 11
0 -19 1 6.87023 6.42304 9
-19 19 1 3.53802 7.66351 10
19 -19 -1 9.45392 5.71543 7
19 -19 1 3.9969 5.35848 7
10 -20 1 17.9245 7.77003 8
10 -20 1 13.5044 10.8812 5
-20 10 -1 -3.6882 7.56874 10
-20 10 1 8.31764 9.14123 10
-10 -10 -1 14.2222 8.01129 9
20 -10 1 19.847 7.91864 7
10 10 -1 7.56293 6.74752 11
10 -20 -1 16.7689 10.296 5
-10 -10 1 12.1035 8.57282 9
-10 20 -1 11.7308 7.48976 10
10 -20 -1 21.4406 7.23703 8
20 -10 -1 10.0163 7.13622 7
-10 20 1 14.9949 7.27081 10
20 -10 1 0.82536 10.2762 4
20 -10 -1 -0.9424 16.2291 4
20 -11 -1 4.47582 6.87174 7
11 -20 1 17.1534 10.3084 5
-9 20 -1 12.7799 7.54794 10
20 -9 1 4.1886 7.36694 7
11 9 -1 9.99401 5.82156 11
11 -20 1 6.04135 6.96525 8
-20 11 -1 12.6418 8.33949 10
9 11 1 9.09129 6.35835 11
-9 -11 1 6.95474 8.44971 9
9 -20 -1 13.1899 6.67928 8
-11 -9 -1 7.84986 8.01869 9
-11 20 1 6.6997 7.52132 10
20 -11 -1 9.80442 11.1657 4
9 -20 -1 12.4041 10.2433 5
-20 9 1 3.71015 8.51271 10
-9 -11 -1 4.37513 7.5301 9
-9 20 1 0.23574 4.5652 10
-20 9 -1 -2.1784 6.13555 10
-20 11 1 0.1737 8.14417 10
20 -9 -1 9.21832 6.94651 7
-11 -9 1 7.08007 8.72747 9
-11 20 -1 8.0181 7.39914 10
20 -11 1 12.5048 10.907 4
11 -20 -1 3.12651 9.94326 5
-9 20 1 -0.7297 5.61915 11
9 -20 1 1.48132 7.30937 8
9 11 -1 2.6669 6.76777 11
11 -20 -1 7.69911 6.90912 8
9 -20 1 5.4913 10.6621 5
20 -11 1 9.39618 7.36636 7
-8 20 -1 12.1094 7.5089 10
12 -20 1 21.5515 10.1049 5
-20 12 -1 11.0807 8.26765 10
-20 8 1 10.5776 8.57185 10
-12 -8 -1 27.9139 9.43004 9
-12 20 1 25.3551 8.33082 10
8 -20 -1 13.7962 10.4127 5
20 -8 1 14.5221 7.18775 7
20 -12 -1 18.5645 11.4852 4
12 -20 1 16.6206 6.99816 8
-8 -12 1 14.2674 7.85021 9
8 12 1 11.4845 7.08955 11
20 -12 -1 22.2441 7.33034 7
8 -20 -1 11.7067 7.07063 8
12 -20 -1 6.32388 9.69992 5
12 -20 -1 25.57 7.59896 8
8 -20 1 25.5188 7.98268 8
-12 -8 1 28.5577 9.3688 9
8 -20 1 32.6339 11.7207 5
-20 12 1 21.7793 9.11917 10
-8 20 1 24.0947 8.07682 11
-12 20 -1 24.7101 7.88457 10
20 -12 1 19.9754 11.7144 4
-8 -12 -1 25.8998 8.09326 9
20 -12 1 37.4046 7.99046 7
8 12 -1 32.7061 7.75932 11
7 -20 -1 12.7863 10.4259 5
20 -13 -1 12.3915 6.75181 7
7 13 1 21.2315 7.48086 11
-20 13 -1 13.4623 8.48077 10
-7 20 -1 20.6135 7.47162 10
-7 -13 1 18.7637 7.90419 9
20 -13 -1 24.7875 12.0412 4
-7 20 -1 -2.2023 6.34656 11
20 -7 1 -3.7147 5.57029 7
7 -20 -1 11.2187 7.00941 8
-13 20 1 15.6355 7.89522 10
-13 -7 -1 29.3529 9.22344 9
-20 7 1 7.60346 7.89766 10
13 -20 1 16.1742 7.05238 8
13 -20 1 9.72553 9.33528 5
-13 20 -1 23.6181 7.919 10
-7 -13 -1 14.8513 7.41919 9
13 7 1 -2.3284 17.1666 6
-13 -7 1 21.3684 8.52775 9
7 13 -1 12.2674 7.52895 11
20 -13 1 23.2436 7.62769 7
13 -20 -1 10.4548 7.13064 8
-7 20 1 18.098 7.75734 11
20 -13 1 4.65862 11.2712 4
-20 13 1 21.1172 8.66796 10
7 -20 1 16.258 9.95834 5
7 -20 1 20.7513 7.42313 8
6 -20 -1 31.2728 7.5292 8
20 -14 -1 16.8698 11.693 4
-6 20 -1 23.9492 8.55245 11
-6 20 -1 21.9161 7.48478 10
6 -20 -1 11.8757 9.21108 5
14 -20 1 17.069 6.92385 8
-20 14 -1 22.8546 8.687 10
-6 -14 1 27.0492 7.98831 9
-14 -6 -1 29.1967 8.90407 9
6 14 1 29.0925 7.82044 11
-14 20 1 10.8547 7.91768 10
20 -14 -1 20.3143 7.20271 7
-20 6 1 2.81326 8.10026 10
6 -20 1 9.84139 6.88825 8
-6 -14 -1 13.126 7.1935 9
20 -14 1 18.0923 7.45938 7
-20 6 -1 1.0719 6.33432 9
14 -20 -1 17.3464 7.06449 8
20 -14 1 19.7909 11.789 4
6 14 -1 14.0915 7.10072 11
-14 20 -1 16.4039 7.67606 10
-20 14 1 7.5448 8.09014 10
14 6 1 -1.1692 12.6176 6
6 -20 1 -0.5676 8.42237 5
-14 -6 1 10.3071 8.33719 9
-6 20 1 15.2677 7.68685 11
-5 20 -1 77.7242 10.6887 11
20 -15 -1 93.0906 12.6971 7
15 -20 1 67.0195 9.30383 8
-5 -15 1 102.432 10.7663 9
-15 20 1 70.3625 10.1589 10
-20 15 -1 78.9684 11.2113 10
5 15 1 77.2469 9.97807 11
-5 20 -1 68.4932 9.96912 10
5 -20 -1 92.0501 9.94903 8
-15 -5 -1 106.861 13.2378 9
20 -15 1 99.3767 12.7108 7
15 -20 -1 85.1441 11.2345 8
-15 -5 1 118.18 12.2068 9
-5 -15 -1 80.61 12.044 9
-15 20 -1 94.2284 12.945 10
5 15 -1 96.8254 12.6289 11
5 -20 1 92.6503 11.9053 8
-20 15 1 92.026 12.6674 10
-5 20 1 70.1122 10.6163 11
-20 16 -1 25.439 8.72852 10
-16 20 1 36.6817 8.35525 10
20 -16 -1 33.3934 7.13264 7
4 -20 -1 34.2827 7.26387 8
4 16 1 32.9136 7.83682 11
-4 20 -1 32.9639 8.45427 11
-4 -16 1 52.367 8.34185 9
16 -20 1 32.6623 7.07442 8
-16 -4 -1 28.7912 8.07612 9
-16 -4 1 17.3898 7.83125 9
-4 -16 -1 12.7345 6.71325 9
-20 16 1 13.5082 7.91541 10
4 -20 1 13.7518 6.5592 8
-16 20 -1 29.3015 8.79233 10
4 16 -1 23.5182 7.41214 11
-4 20 1 18.0351 7.39794 11
20 -16 1 23.0509 7.17136 7
-20 4 -1 20.6374 6.5709 9
4 -20 1 0.80029 5.45396 9
-3 -17 1 3.35648 6.63561 9
20 -17 -1 3.03069 5.94112 7
-3 20 -1 11.9899 7.38418 11
-17 -3 -1 -0.7477 6.88448 9
-20 17 -1 9.34942 8.21723 10
3 -20 -1 -5.0184 5.86517 8
-17 20 1 4.68619 7.5282 10
3 17 1 1.808 6.75646 11
17 -20 1 2.20524 4.84754 8
20 -17 1 4.18472 6.27575 7
-3 -17 -1 2.85577 6.13437 9
-20 3 -1 3.76187 6.25148 9
3 -20 1 2.3174 5.77738 8
-20 17 1 1.44047 8.4773 10
-17 -3 1 -1.0907 6.43165 9
3 -20 1 4.20139 5.27377 9
-17 20 -1 5.03562 7.66646 10
-3 20 1 2.87129 6.69679 11
3 17 -1 3.47189 6.45534 11
20 -18 -1 50.8915 7.53316 7
2 18 1 64.3876 8.38905 11
2 -20 -1 48.7974 7.14937 8
-18 20 1 55.3585 9.09588 10
-20 18 -1 65.0583 9.66543 10
-2 -18 1 47.6048 8.04823 9
-2 20 -1 45.9732 8.12774 11
-18 -2 -1 43.8529 8.42885 9
18 -20 -1 28.4194 5.68467 7
-20 2 -1 33.2338 7.22259 9
-20 18 1 53.7637 9.10147 10
2 18 -1 45.0805 7.35301 11
-18 -2 1 36.7464 7.3826 9
2 -20 1 35.5124 6.89507 9
-2 -18 -1 22.5055 6.02665 9
20 -18 1 35.3182 6.69518 7
-2 20 1 49.1325 7.98611 11
1 19 1 25.0285 6.80698 11
-1 -19 1 18.454 6.30593 9
-19 20 1 25.7228 7.63819 10
-1 20 -1 19.125 6.4622 11
-19 -1 -1 16.1389 6.83876 9
19 -20 1 8.77419 4.50224 7
-20 19 -1 22.7191 7.95137 10
20 -19 -1 15.0623 5.70227 7
1 -20 -1 12.1615 4.17018 8
-20 1 -1 11.6393 6.23437 9
-20 19 1 15.7429 7.88169 10
-19 -1 1 9.23023 5.53284 9
19 -20 -1 12.5464 5.43267 7
1 19 -1 13.0474 5.91729 11
1 -20 1 7.83053 5.75436 9
-19 20 -1 16.0901 7.8496 10
-1 20 1 17.1282 6.48465 11
20 -19 1 17.8827 5.85704 7
-20 20 1 3.20106 7.07237 10
-20 20 -1 -2.4885 6.96328 10
0 -20 1 5.37067 5.15474 9
20 -20 1 7.74476 4.84045 7
-20 0 -1 1.96528 5.50943 9
20 -20 -1 0.64613 4.86761 7
0 20 1 2.73176 6.04776 11
0 20 -1 2.43106 5.32333 11
21 -10 1 1.45633 6.81227 7
11 -21 1 -3.0033 8.30809 5
21 -11 -1 8.82812 6.47458 7
10 -21 -1 0.61264 8.38301 5
10 11 1 -2.0203 3.91177 11
-21 11 -1 4.73017 7.29193 10
-21 10 1 3.74385 8.09755 10
10 -21 -1 4.56791 5.89299 8
-11 -10 -1 12.178 7.32701 9
-11 21 1 7.84837 6.91592 10
-10 -11 1 5.5789 7.51828 9
11 -21 1 8.64475 6.27295 8
-10 21 -1 0.77913 6.84481 10
11 10 -1 11.2758 6.17307 11
10 -21 1 20.2511 7.42066 8
-10 21 1 7.53656 5.39347 10
-10 -11 -1 3.12739 6.7867 9
21 -11 1 14.0844 6.9974 7
11 -21 -1 12.1412 6.06364 8
21 -10 -1 13.7865 6.65108 7
10 -21 1 0.21592 8.36219 5
10 11 -1 9.08217 6.47189 11
-21 10 -1 9.62448 6.8536 10
-11 -10 1 13.5289 8.05281 9
-21 11 1 9.66233 7.76293 10
-11 21 -1 8.7778 7.03894 10
12 -21 1 56.02 7.52481 8
9 12 1 29.736 6.90829 11
9 -21 -1 63.1273 8.17324 8
-21 9 1 31.973 8.70265 10
21 -12 -1 30.59 7.28512 7
-9 21 -1 49.5502 8.1822 10
-12 21 1 34.0025 7.97885 10
21 -9 1 53.9306 8.13601 7
-21 12 -1 33.7071 8.47381 10
-12 21 -1 24.8058 7.35405 10
-12 -9 1 44.8413 8.86727 9
12 -21 -1 24.3163 6.3791 8
21 -12 1 48.7605 7.94973 7
9 -21 1 -1.2417 9.47143 5
-9 -12 -1 33.2912 7.69385 9
9 -21 1 35.0286 7.71967 8
9 12 -1 23.8567 7.06935 11
21 -9 -1 24.1179 6.45023 7
-21 12 1 41.5 8.69001 10
-9 21 1 10.9383 6.14936 11
-21 13 -1 11.0782 7.56938 10
13 -21 1 12.9394 6.32456 8
-8 21 -1 16.7087 7.77293 10
-8 -13 1 19.5399 7.19043 9
8 13 1 12.8176 6.80902 11
-21 8 1 11.8962 7.83982 10
8 -21 -1 18.527 6.73477 8
8 -21 -1 -1.5571 14.5186 5
21 -8 1 8.91055 5.68053 7
-13 21 1 5.2005 7.07147 10
-13 -8 -1 25.5034 8.24427 9
21 -13 -1 18.3001 6.59958 7
-13 21 -1 17.0799 7.17021 10
-8 21 1 15.0711 7.29362 11
8 -21 1 23.5805 6.95499 8
13 -21 -1 15.9266 6.08936 8
-8 -13 -1 10.9748 6.84073 9
-21 13 1 21.2954 8.09507 10
21 -13 1 15.5784 6.76078 7
8 13 -1 12.8275 6.57621 11
-13 -8 1 21.3164 8.27871 9
-7 -14 1 15.6826 6.74885 9
-7 21 -1 1.40592 5.97626 11
-21 7 1 12.0921 7.73145 10
7 14 1 10.4523 6.67191 11
21 -14 -1 19.266 6.26305 7
7 -21 -1 15.8896 6.45813 8
-14 21 1 23.469 7.41813 10
14 -21 1 23.6964 6.50785 8
-14 -7 -1 36.8513 8.4578 9
-21 14 -1 10.0933 7.70557 10
-7 21 -1 9.06107 7.08784 10
7 -21 1 8.29624 6.22844 8
-7 -14 -1 12.4026 6.60111 9
-14 21 -1 9.46597 6.98244 10
-14 -7 1 12.3941 7.90146 9
-7 21 1 15.815 7.39307 11
-21 14 1 9.58089 7.45174 10
7 14 -1 11.1541 6.32847 11
21 -14 1 17.447 6.59129 7
14 -21 -1 10.9801 5.63968 8
-6 21 -1 7.03643 7.36793 11
15 -21 1 3.91092 5.90654 8
-21 15 -1 5.09687 7.9666 10
-6 -15 1 16.8206 6.55851 9
-6 21 -1 4.54017 6.21968 10
6 15 1 2.61959 6.35599 11
-21 6 1 5.65425 6.81636 10
-15 -6 -1 2.71076 7.33679 9
6 -21 -1 6.15885 6.03213 8
21 -15 -1 3.36616 5.97996 7
6 -21 1 19.8252 6.51375 8
-6 -15 -1 11.1918 6.50285 9
21 -15 1 20.3734 6.73834 7
15 -21 -1 14.9822 5.70155 8
-6 21 1 21.9065 7.35348 11
6 15 -1 18.5745 6.8545 11
-21 15 1 19.7519 7.93151 10
-15 -6 1 14.3951 7.69831 9
-15 21 -1 10.075 7.32358 10
-5 21 -1 9.08701 7.2201 11
-21 16 -1 7.72108 7.48648 10
5 -21 -1 4.55795 5.78541 8
-16 -5 -1 14.4948 7.20963 9
-16 21 1 3.89233 6.9916 10
-21 5 1 0.95596 5.68557 10
-5 21 -1 -1.7361 5.45219 10
21 -16 -1 8.12919 6.00412 7
16 -21 1 2.632 5.81393 8
-5 -16 1 4.58783 5.98308 9
5 16 1 8.44401 6.33967 11
21 -16 1 6.2023 6.2087 7
5 16 -1 5.94806 6.33942 11
16 -21 -1 3.84459 4.27075 8
-21 5 -1 0.68581 4.43194 9
-5 -16 -1 3.38612 5.89107 9
-5 21 1 0.07732 6.63189 11
5 -21 1 6.37507 6.02759 8
-16 21 -1 0.1465 6.92491 10
-21 16 1 -1.8875 7.15596 10
-16 -5 1 4.13721 7.03496 9
4 17 1 38.2656 7.28649 11
-4 21 -1 31.0025 7.35371 11
-21 17 -1 37.903 8.44162 10
4 -21 -1 27.1687 6.25591 8
-17 21 1 23.9698 7.54632 10
17 -21 1 25.7256 5.97625 8
21 -17 -1 34.9045 6.68847 7
-17 -4 -1 22.2471 7.50918 9
-4 -17 1 24.3137 6.69212 9
-17 -4 1 18.6263 6.61686 9
-4 -17 -1 17.1655 6.07761 9
-17 21 -1 21.8982 7.70262 10
4 17 -1 16.894 6.37353 11
21 -17 1 16.2829 6.31743 7
4 -21 1 9.52915 5.72175 8
-4 21 1 21.5431 6.72919 11
-21 17 1 28.5365 8.23393 10
-18 -3 -1 20.2006 6.95041 9
3 -21 -1 10.51 5.30934 8
-3 21 -1 13.1236 6.58551 11
3 18 1 11.0548 6.31067 11
-21 18 -1 14.3859 7.68772 10
-3 -18 1 7.70793 5.98728 9
21 -18 -1 8.45339 5.46875 7
-18 21 1 14.5668 6.86571 10
-3 21 1 16.5807 6.30306 11
-18 -3 1 9.64522 6.2041 9
-3 -18 -1 14.591 5.26113 9
-18 21 -1 14.214 7.71226 10
3 18 -1 19.6905 6.43046 11
-21 18 1 17.9168 7.7089 10
3 -21 1 8.57297 4.75229 8
-21 3 -1 10.8543 4.64775 9
21 -18 1 14.5381 5.60173 7
2 -21 -1 1.26089 4.07169 8
2 19 1 -2.9932 5.80873 11
21 -19 -1 3.41898 5.12421 7
-19 21 1 -1.8343 6.51575 10
-21 19 -1 4.91309 7.06304 10
-19 -2 -1 2.03868 6.04872 9
-2 -19 1 2.38904 5.52476 9
-2 21 -1 -0.0885 5.41484 11
2 19 -1 0.61394 5.50011 11
21 -19 1 4.8041 5.02012 7
-19 21 -1 2.15609 7.07804 10
-19 -2 1 -2.1814 4.81443 9
-21 19 1 3.93097 7.14407 10
-21 2 -1 2.05178 4.71738 9
-2 21 1 5.18825 5.54146 11
-20 21 1 9.4778 6.76266 10
-1 -20 1 7.73883 4.53758 9
-21 20 -1 17.9022 7.2997 10
1 20 1 7.40339 5.84122 11
-1 21 -1 13.5449 5.38404 11
-20 -1 -1 11.0469 5.34897 9
21 -20 -1 9.66698 4.77869 7
-21 20 1 14.067 7.34075 10
-1 21 1 12.9929 5.52355 11
21 -20 1 7.71088 4.58485 7
-21 1 -1 10.0004 4.23648 9
1 20 -1 7.88548 5.17459 11
-20 21 -1 16.1678 7.1608 10
20 -21 -1 -2.4175 3.46728 7
-21 21 1 10.6195 6.6792 10
-21 21 -1 13.7521 7.02921 10
0 21 -1 17.7778 5.75146 11
0 21 1 14.554 5.53796 11
11 11 -1 18.3876 5.68827 11
-11 -11 -1 22.2088 6.6445 9
22 -11 1 27.7467 6.37109 7
-11 22 1 7.56936 4.86437 10
-11 -11 1 41.6556 7.82601 9
11 -22 1 26.6446 6.13475 8
22 -11 -1 32.5874 6.44776 7
11 -22 -1 26.5489 6.00803 8
-11 22 -1 14.9971 6.63914 10
-22 11 -1 15.3943 6.26155 10
-22 11 1 20.3886 7.23841 10
-22 10 1 4.6077 6.74178 10
22 -10 1 5.52184 5.78238 7
22 -12 -1 13.8842 5.87867 7
-10 22 -1 3.80233 6.37148 10
10 -22 -1 8.09486 5.36593 8
-22 12 -1 2.9798 6.52131 10
-12 22 1 6.16769 6.18186 10
-10 -12 1 0.37797 6.57788 9
12 10 -1 -1.9521 3.78189 11
10 12 1 -3.283 3.72968 11
12 -22 1 8.7142 5.78803 8
-12 -10 -1 5.41978 6.16282 9
-12 -10 1 1.00878 6.58947 9
-22 10 -1 2.82488 5.12628 10
22 -12 1 5.60964 5.73866 7
22 -10 -1 7.18867 5.60472 7
-10 -12 -1 0.23512 6.05833 9
-22 12 1 2.16023 6.94017 10
-12 22 -1 5.86589 6.26247 10
10 12 -1 2.97761 5.8875 11
12 -22 -1 5.86992 5.35851 8
10 -22 1 7.95248 5.61092 8
9 13 1 26.0715 6.08508 11
-9 22 -1 12.6854 7.13834 10
22 -13 -1 30.5456 6.30312 7
-22 13 -1 21.2635 7.26452 10
-9 -13 1 30.487 6.83726 9
-13 -9 -1 28.0381 7.4927 9
22 -9 1 13.6863 5.68307 7
-22 9 1 20.2026 7.18636 10
13 -22 1 26.7757 6.39528 8
-13 22 1 32.5061 7.14229 10
9 -22 -1 37.2214 6.67882 8
-13 -9 1 22.3889 7.31791 9
13 -22 -1 22.7836 5.8246 8
-9 -13 -1 30.7995 6.61945 9
22 -13 1 19.194 6.24159 7
-22 13 1 28.1511 7.36344 10
9 -22 1 37.8701 6.37831 8
9 13 -1 25.2459 6.33664 11
-13 22 -1 13.3072 6.65309 10
-14 -8 -1 -3.0936 6.461 9
-8 22 -1 2.42337 6.65752 10
-14 22 1 10.1693 6.1001 10
8 -22 -1 1.23215 5.55445 8
-22 14 -1 -0.5935 6.64118 10
8 14 1 -1.6882 5.49447 11
-8 -14 1 2.23207 5.81742 9
14 -22 1 8.17192 5.80167 8
22 -14 -1 2.04496 5.16215 7
-22 8 1 8.08032 7.02031 10
-8 -14 -1 -2.9476 5.39531 9
-8 22 1 5.77169 6.4804 11
22 -14 1 3.36341 5.43894 7
8 -22 1 3.00187 5.4228 8
-22 14 1 4.08023 6.65368 10
-14 22 -1 1.53468 6.03276 10
8 14 -1 9.02071 5.73458 11
-14 -8 1 4.63619 6.45819 9
14 -22 -1 1.66151 5.2017 8
22 -15 -1 15.7543 5.4437 7
7 -22 -1 12.4494 5.57934 8
-7 -15 1 17.0786 5.96652 9
15 -22 1 16.7107 5.97037 8
7 15 1 16.1798 6.06448 11
-22 7 1 8.11925 6.15201 10
-7 22 -1 -2.8154 6.0498 11
-15 22 1 9.36595 6.35958 10
-7 22 -1 -0.0694 4.8209 10
-15 -7 -1 9.85965 6.46384 9
-22 15 -1 9.53671 7.40365 10
-15 -7 1 11.8635 6.79085 9
-22 15 1 16.5856 6.91873 10
7 15 -1 2.76703 5.58064 11
22 -15 1 15.2268 5.7808 7
-15 22 -1 10.295 6.41087 10
15 -22 -1 14.8954 5.4316 8
-7 22 1 9.11292 6.46038 11
-7 -15 -1 11.8552 5.96434 9
7 -22 1 14.8032 5.76587 8
-22 16 -1 22.4782 7.32841 10
6 16 1 5.62864 5.94611 11
22 -16 -1 23.1419 5.9611 7
-16 22 1 15.6267 6.52738 10
16 -22 1 15.4132 5.93023 8
-16 -6 -1 28.9506 7.13329 9
-6 -16 1 16.0053 5.86159 9
-6 22 -1 17.5848 6.27749 11
6 -22 -1 16.95 5.65164 8
16 -22 -1 15.6951 4.68212 8
-6 -16 -1 15.1873 5.95079 9
-22 16 1 29.4017 7.25956 10
22 -16 1 13.5819 5.8997 7
-16 22 -1 9.92682 6.38644 10
6 16 -1 16.577 5.76827 11
-6 22 1 25.3655 6.5724 11
-16 -6 1 16.0836 6.51201 9
6 -22 1 24.6459 5.60096 8
-22 17 -1 12.4655 7.0124 10
22 -17 -1 10.7343 5.33823 7
-5 22 -1 10.1624 6.3572 11
-17 -5 -1 7.878 6.06458 9
5 17 1 11.4067 5.7761 11
-17 22 1 3.0193 6.12516 10
-5 -17 1 8.24543 5.38586 9
5 -22 -1 7.80994 5.04508 8
17 -22 1 7.18654 5.08984 8
22 -17 1 5.15015 5.1166 7
-17 -5 1 4.57801 6.36936 9
-5 22 1 16.6488 6.38815 11
5 -22 1 11.6878 5.08424 8
-5 -17 -1 2.59346 5.32742 9
-22 17 1 5.5322 6.63724 10
-17 22 -1 19.7862 6.72317 10
5 17 -1 10.7927 5.48888 11
4 18 1 13.528 5.60376 11
-4 -18 1 8.19007 5.31981 9
-22 18 -1 10.5592 7.0487 10
-18 -4 -1 5.88599 5.83627 9
-4 22 -1 8.31305 5.70446 11
-18 22 1 -1.8539 5.9225 10
4 -22 -1 6.63106 4.63831 8
22 -18 -1 3.6748 4.93463 7
4 -22 1 5.36356 4.10229 8
-18 -4 1 7.29565 5.59842 9
4 18 -1 9.71687 5.36602 11
-4 -18 -1 8.30754 4.31834 9
-22 18 1 15.6995 6.90702 10
-18 22 -1 5.41834 6.58894 10
-4 22 1 13.7978 5.94073 11
22 -18 1 15.1425 5.27846 7
-22 19 -1 22.5591 7.20994 10
-3 -19 1 5.92489 4.93471 9
-19 -3 -1 12.6437 5.78238 9
-19 22 1 4.97559 5.9131 10
3 -22 -1 7.37799 3.59469 8
3 19 1 14.7605 5.55363 11
-3 22 -1 13.5072 5.25014 11
22 -19 -1 8.91745 4.94454 7
3 19 -1 14.732 5.38348 11
22 -19 1 6.73976 4.78288 7
-19 -3 1 5.10245 3.93814 9
-22 19 1 3.71223 6.40119 10
-3 22 1 10.1055 5.54049 11
-19 22 -1 12.4204 6.38424 10
-20 -2 -1 9.13088 4.94345 9
-2 -20 1 1.05237 3.59322 9
-2 22 -1 7.45633 5.2832 11
-22 20 -1 10.2508 6.67675 10
22 -20 -1 3.68293 4.16161 7
2 20 1 8.50004 5.47334 11
-20 22 1 4.35714 6.01299 10
-2 22 1 7.03728 5.49022 11
-20 22 -1 7.35386 6.45717 10
-22 20 1 7.7524 7.28851 10
2 20 -1 3.73373 5.01257 11
22 -20 1 4.50143 4.1247 7
-1 22 -1 5.87972 5.21731 11
-22 21 -1 12.2416 7.15677 10
22 -21 -1 -2.7392 3.89339 7
1 21 1 3.50371 5.81234 11
-21 22 1 7.0189 6.81607 10
-1 22 1 5.06553 5.31913 11
1 21 -1 -2.4817 4.66696 11
-21 22 -1 3.69065 6.52133 10
-22 21 1 2.91827 7.02398 10
-12 23 1 -0.8431 5.48902 10
11 -23 -1 13.5518 4.93825 8
-23 11 1 8.16117 5.91751 10
12 -23 1 8.78785 4.77597 8
-11 -12 1 5.6171 5.78086 9
23 -12 -1 10.9372 5.27634 7
-12 -11 -1 17.9787 5.73364 9
-23 12 -1 5.65864 4.69435 10
23 -11 1 13.313 5.40941 7
-11 23 -1 14.7877 6.32309 10
-23 12 1 20.3504 6.3727 10
12 -23 -1 24.9767 5.26763 8
-12 23 -1 6.1477 5.72533 10
11 -23 1 19.118 5.37498 8
-11 -12 -1 17.1682 5.78981 9
11 12 -1 13.0714 4.46194 11
23 -11 -1 24.9448 5.45906 7
-12 -11 1 19.888 6.42545 9
23 -12 1 19.2901 5.67202 7
-13 -10 -1 34.094 6.45709 9
23 -10 1 13.3992 5.0245 7
23 -13 -1 17.7884 5.44593 7
-23 10 1 19.5019 6.31872 10
-23 13 -1 14.0158 6.12973 10
-10 23 -1 15.3514 6.02507 10
-10 -13 1 28.4308 6.36671 9
13 -23 1 20.935 5.19069 8
10 -23 -1 28.6433 5.49746 8
-13 23 1 14.2584 4.56143 10
-13 23 -1 16.0509 5.77695 10
13 -23 -1 17.5423 5.01422 8
10 13 -1 16.5164 5.1769 11
23 -13 1 16.0076 5.46121 7
10 -23 1 23.4561 5.3898 8
-23 13 1 28.5988 6.59351 10
-13 -10 1 26.0088 6.34713 9
-10 -13 -1 14.4639 5.48995 9
23 -10 -1 -4.7589 5.92375 7
-14 -9 -1 9.98692 6.05437 9
9 -23 -1 7.65435 4.96732 8
9 14 1 4.49849 4.38391 11
14 -23 1 10.339 4.82995 8
-14 23 1 6.42507 5.12874 10
-23 9 1 11.5301 5.77357 10
-9 -14 1 8.85231 5.40449 9
-9 23 -1 5.26746 5.04855 10
23 -14 -1 9.98873 5.22917 7
-23 14 -1 8.37332 6.3166 10
23 -14 1 7.79449 5.09397 7
-14 23 -1 6.5483 5.61035 10
9 14 -1 2.16494 5.09001 11
-9 -14 -1 8.52937 5.26005 9
-14 -9 1 5.43052 5.68849 9
-23 14 1 3.49096 5.77012 10
9 -23 1 1.73144 4.87332 8
14 -23 -1 7.55179 4.83183 8
-15 23 1 4.03815 5.40715 10
15 -23 1 19.2263 4.96117 8
-15 -8 -1 24.9465 6.35245 9
8 -23 -1 11.9088 4.88732 8
8 15 1 15.0689 5.15036 11
-8 -15 1 17.1298 5.45574 9
-23 8 1 1.19348 6.68763 10
-23 15 -1 13.7148 6.18183 10
23 -15 -1 16.6264 4.97809 7
-15 -8 1 24.811 6.30664 9
-15 23 -1 17.0792 5.91102 10
23 -15 1 27.1338 5.2843 7
8 15 -1 15.1909 5.54812 11
-8 -15 -1 31.6908 5.9334 9
15 -23 -1 20.7515 5.11934 8
-23 15 1 27.377 6.55443 10
8 -23 1 33.3959 5.40681 8
7 -23 -1 5.81255 4.63267 8
23 -16 -1 5.25671 4.64641 7
-16 -7 -1 4.63083 5.55483 9
-7 -16 1 5.2048 5.14002 9
7 16 1 4.70863 4.58931 11
16 -23 1 3.75926 4.43244 8
-23 16 -1 9.64872 6.01771 10
-16 23 1 -1.9266 5.05637 10
7 -23 1 4.14231 4.32729 8
7 16 -1 12.4314 5.37956 11
-7 23 1 1.14298 5.152 11
-16 -7 1 2.45195 5.24485 9
-7 -16 -1 1.69769 4.85959 9
16 -23 -1 1.11951 3.62698 8
23 -16 1 4.54714 4.95878 7
-16 23 -1 4.10219 5.4962 10
-23 16 1 4.45592 6.10938 10
-17 -6 -1 25.851 6.05077 9
-17 23 1 14.1537 5.39906 10
17 -23 1 10.0478 3.79722 8
23 -17 -1 18.0223 5.15578 7
-23 17 -1 25.1953 6.83629 10
6 17 1 17.7153 5.2861 11
6 -23 -1 23.3673 4.7816 8
-6 -17 1 15.5989 5.511 9
6 17 -1 22.418 5.57923 11
-6 23 1 18.1901 5.87168 11
6 -23 1 17.7172 4.74333 8
-6 -17 -1 14.0581 4.98137 9
-23 17 1 12.6628 6.22039 10
-17 -6 1 14.1657 5.59957 9
-17 23 -1 11.5729 5.63015 10
23 -17 1 23.1832 5.11921 7
-5 23 -1 -3.0711 4.40707 11
-23 18 -1 19.1211 6.59635 10
-5 -18 1 12.4335 5.20801 9
5 18 1 11.3677 4.9465 11
-18 23 1 5.55201 5.16211 10
-18 -5 -1 10.495 5.98318 9
23 -18 -1 11.7605 4.7057 7
5 -23 -1 13.3789 4.25456 8
-23 18 1 6.68338 6.42107 10
-5 23 1 4.02619 5.38979 11
-18 -5 1 0.83677 4.70399 9
23 -18 1 4.48501 4.51944 7
5 18 -1 6.89797 5.2248 11
-18 23 -1 1.93358 5.66609 10
5 -23 1 2.18443 2.86816 8
23 -19 -1 6.4329 4.83055 7
-23 19 -1 12.2309 6.6731 10
-19 -4 -1 8.85505 5.53019 9
4 -23 -1 -0.9193 2.58702 8
4 19 1 8.00809 5.02781 11
-4 -19 1 11.2681 4.58614 9
-4 23 -1 -0.1874 3.66982 11
-19 23 1 7.54743 5.48144 10
4 19 -1 5.22462 5.20915 11
-23 19 1 6.0278 6.6369 10
-19 23 -1 4.22241 6.07293 10
23 -19 1 5.07903 4.63655 7
-4 23 1 6.87315 5.29444 11
3 20 1 14.1463 6.01436 11
-3 23 -1 -0.7453 3.16087 11
3 20 -1 4.93209 5.86113 11
-3 23 1 5.30912 5.26808 11
-20 23 -1 1.7359 6.44663 10
-24 12 1 16.5885 5.61484 10
-12 24 -1 13.2963 5.0488 10
24 -12 1 30.7678 5.1357 7
-12 -12 1 34.1837 6.266 9
-12 -12 -1 32.1461 5.81656 9
12 -24 -1 25.2772 4.86234 8
12 -24 1 33.2355 5.11295 8
24 -13 -1 1.3018 4.46286 7
11 -24 -1 0.75163 4.08352 8
24 -11 1 -3.1462 3.82418 7
-11 -13 1 -1.5027 5.00826 9
-24 11 1 3.91214 4.43559 10
13 -24 1 8.16162 4.29356 8
-11 24 -1 -0.4722 3.68565 10
-13 -11 -1 0.0994 4.65431 9
-13 24 -1 0.66795 4.92871 10
13 -24 -1 0.00167 4.21615 8
-11 -13 -1 2.16817 4.74465 9
-24 13 1 8.12743 5.41833 10
24 -13 1 -0.0965 4.41924 7
11 -24 1 6.4096 4.59363 8
-13 -11 1 0.59775 4.81449 9
-14 -10 -1 8.41216 5.20354 9
14 -24 1 10.9691 4.62146 8
24 -14 -1 9.16018 4.70994 7
-10 -14 1 6.6032 4.83837 9
10 -24 -1 8.32158 4.47933 8
-24 14 1 9.42459 5.46715 10
-10 -14 -1 8.13035 4.95386 9
-14 24 -1 2.15605 4.64665 10
-14 -10 1 13.2345 5.35479 9
24 -14 1 9.63163 4.60983 7
10 14 -1 2.16546 3.12781 11
10 -24 1 7.92702 4.36607 8
14 -24 -1 6.02688 4.28429 8
15 -24 1 11.4525 4.40995 8
24 -15 -1 14.6641 5.01606 7
-24 15 -1 2.38022 4.00832 10
-15 -9 -1 15.3293 5.41444 9
9 -24 -1 25.1766 4.72308 8
-9 -15 1 10.121 5.06593 9
-15 -9 1 20.6104 5.22796 9
-24 15 1 21.5147 6.25475 10
15 -24 -1 7.74214 4.16014 8
24 -15 1 15.8946 4.66279 7
-9 -15 -1 20.2402 5.26601 9
9 15 -1 15.7297 4.24819 11
-15 24 -1 8.03228 4.88794 10
9 -24 1 21.6068 4.68764 8
-16 -8 -1 2.32517 5.06913 9
-16 24 1 -0.1153 2.95589 10
8 -24 -1 -0.3121 4.21562 8
8 16 1 -2.7012 4.63609 11
24 -16 -1 3.25862 4.69873 7
-8 -16 1 7.29761 4.95641 9
-24 16 -1 3.27184 4.66221 10
16 -24 1 0.57703 4.18309 8
-24 16 1 0.68895 5.76004 10
-8 -16 -1 2.51971 4.73307 9
-16 -8 1 0.62944 4.70188 9
8 16 -1 -0.0297 4.35815 11
24 -16 1 -3.3547 4.16101 7
8 -24 1 2.69813 4.09194 8
-16 24 -1 3.97761 4.69115 10
-24 17 -1 12.5465 5.42499 10
24 -17 -1 15.0632 5.00267 7
-17 -7 -1 19.5264 6.02521 9
-17 24 1 0.29929 3.77074 10
7 -24 -1 13.0041 4.26522 8
7 17 1 5.5063 3.45065 11
-7 -17 1 13.5534 5.28956 9
24 -17 1 12.354 4.96794 7
7 17 -1 14.6431 5.01949 11
-24 17 1 31.0378 7.15953 10
7 -24 1 16.8303 4.13752 8
-17 -7 1 17.9757 5.11654 9
-17 24 -1 6.85801 5.09939 10
-24 18 -1 2.25489 5.17561 10
24 -18 -1 3.18751 4.65587 7
6 18 1 2.38209 4.02842 11
6 -24 -1 2.24067 3.60079 8
-18 24 1 -1.249 3.04768 10
-18 24 -1 -1.482 5.51025 10
24 -18 1 -2.7354 4.60582 7
-24 18 1 1.76266 6.19396 10
6 18 -1 -0.0474 5.34667 11
13 -25 1 9.41669 4.44234 8
12 -25 -1 8.82326 4.43692 8
13 -25 -1 0.69331 4.25657 8
12 -25 1 -0.6333 4.32056 8
11 -25 -1 5.4748 4.4094 8
14 -25 -1 14.091 4.29199 8
0 0 2 4.78112 3.67453 1
0 0 2 -4.9972 5.3091 2
0 1 2 803.233 57.7607 1
1 -1 2 951.337 58.68 1
0 -1 2 836.247 58.5878 1
1 0 2 933.788 57.8837 1
0 1 2 747.006 58.8634 2
-1 0 -2 893.344 58.4766 2
-1 1 2 821.452 59.5482 2
0 -1 -2 889.505 57.8227 1
-1 1 2 898.155 59.4275 3
0 -1 2 885.455 58.586 2
1 0 2 804.655 58.4141 2
0 -1 2 907.71 59.1063 3
-1 1 -2 947.158 58.8139 1
-1 1 2 820.123 58.6008 1
-1 0 -2 935.382 57.8614 1
-1 0 -2 858.416 59.5261 3
-1 0 2 891.375 59.4123 3
0 -1 -2 809.444 58.9564 2
-1 0 2 872.53 59.2999 1
1 -1 -2 929.784 59.3672 2
1 -1 2 881.409 58.1407 2
-1 2 -2 1267.66 84.4478 2
2 -1 -2 1114.58 84.8985 1
2 -1 2 1307.21 84.22 1
1 1 2 1145.25 84.4968 2
1 -2 -2 1397.13 85.4361 2
-2 1 2 1075.34 84.9724 1
1 -2 2 1400.62 85.0475 1
-2 1 2 1333.72 85.4699 3
-1 -1 2 1261.77 85.1034 3
-2 1 -2 1192.97 85.1253 3
-1 -1 -2 1198.78 84.7142 2
2 -1 2 1250.4 83.5904 2
-1 2 -2 1125.05 84.8941 1
1 -2 2 1304.57 84.3422 2
-1 -1 -2 1386.03 85.9404 3
-1 2 2 1171.14 84.2344 1
1 -2 2 1318.29 84.3897 3
-1 -1 2 1325.33 84.8121 2
1 -2 -2 1426.37 84.5473 1
-2 1 -2 1302.93 84.4273 1
-2 0 -2 551.944 35.9106 1
2 0 2 451.484 35.9735 2
0 -2 -2 541.67 38.105 3
0 -2 2 535.688 37.0822 3
-2 0 -2 527.058 38.0215 3
2 -2 2 558.679 35.8884 2
0 2 2 525.789 35.5998 1
0 -2 2 556.246 37.1819 2
-2 2 2 508.593 37.7308 3
0 -2 2 536.358 37.0733 1
-2 2 -2 485.628 37.2075 1
0 2 -2 518.608 37.276 3
-2 0 2 564.505 37.2645 2
2 -2 2 447.402 36.5511 3
-2 0 2 551.371 38.0585 3
2 0 2 553.738 35.7034 1
0 -2 -2 477.35 37.2828 2
-2 2 -2 539.969 36.8487 3
-2 0 -2 574.983 36.403 2
2 -2 -2 571.006 37.6594 2
2 -2 2 558.56 36.9764 1
2 -2 -2 540.13 37.3898 1
2 0 -2 512.726 37.5701 1
-3 2 -2 267.42 22.9279 1
-2 3 2 343.31 23.1231 1
-3 2 2 439.963 35.1683 3
-1 3 2 428.781 33.718 1
-1 -2 -2 504.537 35.8587 3
1 -3 2 514.324 34.9118 1
-3 1 -2 487.556 32.4402 2
3 -2 2 493.721 34.4897 1
-1 -2 -2 480.141 35.3366 2
-2 3 -2 470.645 34.1257 2
-3 1 -2 421.02 35.0334 3
-2 -1 2 513.368 36.193 3
2 -3 -2 501.005 35.204 2
-3 1 -2 455.537 34.3283 1
1 -3 2 530.358 34.4138 2
2 -3 -2 456.412 34.8649 1
1 -3 2 488.718 33.7869 3
3 -1 -2 488.471 35.4394 1
-1 -2 -2 539.309 32.7016 1
-2 -1 2 507.852 34.761 2
0 -3 -2 1883.84 119.481 3
3 -3 -2 1686.98 118.965 1
0 -3 2 1770.89 118.791 1
-3 0 -2 1670.77 119.502 3
0 -3 -2 1664.8 119.118 2
0 -3 2 1919.74 118.896 2
3 0 -2 1923.12 119.599 1
0 3 2 1668 117.393 1
0 -3 2 1838.93 118.459 3
-3 3 2 1617.89 118.772 3
3 0 2 1681.04 117.413 1
3 -3 2 1693.92 117.06 2
3 -3 2 1821.96 118.743 1
-3 3 -2 1773.37 117.211 2
0 -3 -2 1989.09 117.788 1
3 0 2 1500.66 117.329 2
-3 0 2 1843.33 119.835 3
-3 0 2 1857.46 118.704 2
-3 0 -2 1798.64 118.06 1
-3 3 -2 1808.4 117.905 3
3 -3 -2 1830.16 119.036 2
-2 -2 -2 745.848 59.116 1
4 -2 2 919.912 60.8419 1
2 -4 2 924.071 61.4279 1
-4 2 -2 831.705 61.6682 3
2 -4 -2 922.647 61.575 2
-4 2 2 825.649 62.0345 3
-2 -2 2 948.165 62.3026 3
-2 -2 -2 968.173 59.2403 1
-2 -2 -2 864.991 61.3946 2
-2 -2 -2 931.96 62.4956 3
2 -4 2 857.989 60.2875 2
-2 -2 2 933.289 61.1573 2
4 -2 -2 853.356 61.8655 1
2 -4 2 894.372 59.1783 3
2 -4 -2 842.923 60.9665 1
1 -4 -2 687.809 46.9456 2
-3 4 2 620.572 46.4821 3
4 -3 -2 688.27 46.8331 2
-3 -1 -2 681.62 48.2443 3
3 -4 2 657.036 46.658 1
4 -1 2 610.68 43.6573 2
4 -3 -2 590.758 46.7782 1
-1 -3 2 657.846 46.066 1
3 -4 2 662.477 44.8208 2
1 -4 -2 624.601 45.604 1
4 -1 2 640.255 45.3054 1
-4 3 -2 619.483 45.9142 3
-3 -1 -2 660.315 46.1432 2
1 -4 -2 665.312 46.4916 3
-4 1 2 687.01 47.6855 3
-1 -3 2 688.086 46.6578 3
-1 -3 2 712.991 46.8446 2
-4 1 2 621.98 45.9626 2
1 -4 2 588.196 42.5728 3
-1 -3 -2 653.787 42.1724 1
-1 -3 -2 645.211 44.856 3
4 -1 -2 662.661 44.9175 1
-4 1 -2 563.422 44.9225 3
-1 -3 -2 576.127 44.1788 2
1 -4 2 634.091 43.629 2
4 -3 2 627.43 43.8366 1
-3 -1 2 597.351 45.0394 3
3 -4 -2 630.842 44.1138 2
3 1 2 616.177 42.1368 1
-3 -1 2 624.919 43.7397 2
-4 3 2 568.438 44.4332 3
1 -4 2 642.972 44.2965 1
3 -4 -2 589.352 44.1458 1
4 0 2 117.896 12.5837 1
-4 0 -2 119.243 13.7871 2
0 -4 -2 116.524 12.9187 1
-4 0 -2 109.855 16.4057 3
4 -4 2 126.973 14.2536 1
4 0 -2 137.917 15.2387 1
4 -4 2 134.456 10.9071 2
0 -4 -2 130.972 16.7127 2
0 -4 2 129.485 14.8401 1
0 -4 -2 139.374 15.974 3
0 -4 2 110.83 13.4506 3
4 -4 -2 123.472 15.6863 2
-4 0 2 115.356 14.1582 2
-4 0 2 126.227 16.2914 3
4 -4 -2 108.882 15.9916 1
-4 4 2 130.997 15.5218 3
0 -4 2 126.469 15.1648 2
-4 4 -2 139.404 12.7907 3
3 -5 2 774.144 54.2861 1
-2 -3 2 825.442 55.1443 3
-5 2 2 704.094 55.0657 3
-5 3 -2 747.824 54.4378 3
5 -2 2 771.304 53.2679 1
-3 5 2 727.737 53.1475 3
3 -5 2 783.803 52.5661 2
-3 -2 -2 781.735 55.5798 3
2 -5 -2 690.511 53.2577 1
5 -3 -2 722.836 54.7169 1
-2 -3 2 808.244 53.8601 2
2 -5 -2 770.463 54.2056 2
-2 -3 2 776.85 53.6433 1
-3 -2 -2 722.168 53.7211 2
-2 -3 -2 611.657 45.1994 3
3 -5 -2 572.333 44.3608 1
-5 2 -2 548.927 45.7614 3
-3 -2 2 648.362 44.298 2
-3 -2 2 695.506 46.7686 3
-5 3 2 592.829 45.681 3
-2 -3 -2 621.309 45.1416 2
2 -5 2 670.446 43.932 2
5 -2 -2 679.82 45.8736 1
5 -3 2 619.147 44.1792 1
3 -5 -2 637.617 44.5491 2
2 -5 2 649.412 44.9966 1
2 -5 2 514.399 41.4806 3
-2 -3 -2 566.073 42.2548 1
-1 -4 2 493.118 36.3699 1
4 -5 2 507.611 36.7703 1
1 -5 -2 507.492 37.8267 2
4 -5 2 480.591 33.8792 2
-5 4 -2 465.817 35.4525 3
1 -5 -2 470.524 35.7878 3
5 -1 2 452.481 34.7223 1
-4 -1 -2 496.33 38.2411 3
-4 5 2 496.801 35.9443 3
-1 -4 2 500.539 36.1531 2
-1 -4 2 490.565 36.7654 3
1 -5 -2 444.244 35.0318 1
5 -4 -2 431.368 36.1727 1
5 -4 -2 491.048 36.169 2
-5 1 2 499.888 38.4277 3
-5 1 2 438.62 35.0116 2
-4 -1 -2 469.624 35.7395 2
-5 4 2 329.598 27.6344 3
4 -5 -2 316.102 27.2495 1
1 -5 2 286.324 24.4573 3
1 -5 2 338.137 26.3973 1
-1 -4 -2 318.88 27.9102 2
4 1 2 322.118 24.474 1
5 -4 2 327.274 22.2129 2
1 -5 2 354.019 26.3846 2
-4 -1 2 343.263 29.8279 3
4 -5 -2 338.814 27.1027 2
5 -1 -2 326.896 27.6344 1
-1 -4 -2 351.714 28.1903 3
-4 -1 2 309.057 26.0594 2
-5 1 -2 322.338 28.8761 3
5 -4 2 342.088 26.7628 1
-1 -4 -2 292.359 24.3659 1
0 -5 2 1621.57 109.257 3
-5 5 -2 1625.19 108.156 3
5 0 2 1498.76 108.453 1
5 -5 -2 1495.94 110.492 1
5 -5 2 1768.77 110.656 1
0 -5 -2 1435.92 108.589 1
-5 5 2 1630.64 110.236 3
-5 0 2 1494.56 109.42 2
0 -5 2 1774.2 110.557 2
0 -5 2 1728.17 110.371 1
5 -5 -2 1685.69 110.051 2
5 -5 2 1408.14 107.238 2
5 0 -2 1728.85 110.933 1
-5 0 -2 1670.38 112.452 3
0 -5 -2 1694.1 110.381 3
0 -5 -2 1538.85 110.405 2
-5 0 2 1807.5 112.769 3
-5 0 -2 1561.62 108.913 2
-3 6 2 190.379 19.4755 3
-3 -3 2 227.843 24.2912 3
6 -3 2 209.165 20.3096 1
-3 -3 -2 182.508 21.0502 2
-6 3 2 204.098 23.3249 3
3 -6 -2 198.837 21.8656 2
-6 3 -2 203.319 23.287 3
3 -6 2 227.803 19.0588 2
-3 -3 2 212.726 20.01 2
-3 -3 2 228.235 19.73 1
3 -6 2 217.388 21.2136 1
-3 -3 -2 221.365 22.7871 3
6 -3 -2 221.401 21.417 1
-3 -3 -2 180.043 17.1009 1
3 -6 -2 188.598 20.215 1
-4 6 2 673.825 49.0286 3
-4 -2 -2 603.854 49.3263 2
6 -2 2 676.002 48.8011 1
4 -6 2 664.448 47.7028 2
2 -6 -2 635.25 48.9799 1
-4 -2 -2 712.17 51.6476 3
-6 4 -2 696.463 50.4944 3
-2 -4 2 687.449 49.394 1
4 -6 2 714.425 50.2894 1
2 -6 -2 714.244 50.1562 2
-2 -4 2 712.079 50.7915 3
-2 -4 2 733.563 50.1069 2
6 -4 -2 659.971 50.284 1
-6 2 2 662.698 48.7398 2
-6 2 2 640.415 51.2668 3
-6 2 -2 660.058 38.7922 2
4 -6 -2 588.728 42.5865 2
-2 -4 -2 568.131 43.336 2
-2 -4 -2 565.069 42.7571 3
-4 -2 2 572.2 42.2837 2
-4 -2 2 603.962 45.6236 3
2 -6 2 588.034 42.0525 2
2 -6 2 592.507 42.7049 1
6 -2 -2 602.445 43.1581 1
-6 4 2 531.715 43.2347 3
4 -6 -2 542.828 42.4916 1
-2 -4 -2 489.887 39.8467 1
6 -4 2 576.372 42.1474 1
2 -6 2 497.114 38.1745 3
-6 2 -2 515.263 44.4527 3
-5 -1 -2 580.585 42.4318 3
-6 5 -2 475.678 36.706 3
-1 -5 2 498.412 37.778 2
-6 1 2 534.107 41.1838 3
1 -6 -2 443.719 36.4562 1
1 -6 -2 510.177 38.8318 2
6 -5 -2 444.902 37.6932 1
-5 6 2 496.064 37.4052 3
-1 -5 2 499.094 37.5375 3
6 -5 -2 478.076 36.8673 2
1 -6 -2 477.56 37.1344 3
6 -1 2 477.49 36.4045 1
-1 -5 2 528.224 37.9829 1
-6 1 2 487.934 37.2739 2
5 -6 2 505.091 38.5138 1
-5 -1 -2 461.01 37.2662 2
5 -6 2 463.784 34.9903 2
1 -6 2 400.043 29.8256 3
-5 -1 2 429.731 36.7694 3
-1 -5 -2 372.294 30.477 1
-6 1 -2 373.638 30.1788 2
1 -6 2 441 32.5947 1
5 -6 -2 382.861 32.9308 1
1 -6 2 430.432 32.2547 2
5 -6 -2 428.534 32.6793 2
-6 1 -2 415.116 37.1591 3
6 -5 2 426.576 32.8427 1
-6 5 2 406.336 33.7726 3
6 -1 -2 450.591 34.0873 1
5 1 2 413.414 30.6228 1
-5 -1 2 387.608 31.9287 2
-1 -5 -2 409.916 34.2064 2
6 -5 2 391.686 28.1707 2
-1 -5 -2 399.988 33.4335 3
-6 0 -2 41.2497 10.9786 2
-6 6 -2 40.7892 8.18199 3
6 0 -2 42.5429 11.1943 1
6 0 2 40.4005 9.45141 1
0 -6 2 48.5168 12.8625 2
-6 6 2 46.4256 12.868 3
6 -6 -2 46.8989 12.2108 2
-6 0 2 45.7243 11.7173 2
-6 0 2 53.9142 17.099 3
6 -6 2 47.3794 7.30692 2
-6 0 -2 51.1141 16.2406 3
0 -6 -2 40.0916 12.5092 3
0 -6 -2 39.1824 10.3258 1
0 -6 2 52.7943 11.5229 1
0 -6 -2 61.6159 14.1263 2
6 -6 2 39.4544 11.3709 1
6 -6 -2 51.8981 13.9402 1
0 -6 2 50.8935 10.1385 3
-7 3 2 456.306 34.731 2
7 -3 2 453.187 35.1401 1
7 -4 -2 504.885 37.9142 1
-4 -3 -2 400.474 35.7208 2
-4 -3 -2 475.175 38.6103 3
4 -7 2 424.202 33.922 2
-3 -4 2 468.916 38.0036 3
-3 -4 2 474.255 35.6211 2
-4 -3 -2 408.13 32.7542 1
3 -7 -2 419.48 35.1517 1
-7 3 2 377.908 36.7099 3
3 -7 -2 493.672 36.3201 2
-4 7 2 441.882 34.5376 3
-3 -4 2 432.482 35.4127 1
-7 4 -2 436.75 38.5479 3
4 -7 2 485.195 36.6648 1
-7 3 -2 379.531 37.1884 3
-3 -4 -2 393.817 34.0806 3
4 -7 -2 432.856 33.6666 2
3 -7 2 427.346 32.749 2
7 -4 2 436.91 34.223 1
-4 -3 2 440.764 34.0209 2
-3 -4 -2 360.406 34.1747 2
7 -3 -2 487.17 35.7636 1
3 -7 2 461.045 33.9487 1
-3 -4 -2 393.418 31.1368 1
-7 4 2 366.809 34.1404 3
4 -7 -2 390.407 33.5074 1
-4 -3 2 434.349 37.2067 3
-2 -5 2 1065.75 71.0372 2
-2 -5 2 955.63 70.2927 1
-5 7 2 1044.3 70.0393 3
-5 -2 -2 1043.6 73.4559 3
2 -7 -2 919.329 69.8074 1
5 -7 2 906.611 67.0714 5
-5 -2 -2 977.009 70.7103 2
7 -5 -2 1031.82 71.9508 1
-7 2 2 993.942 70.0217 2
5 -7 2 980.789 68.587 2
-2 -5 2 971.656 70.9589 3
5 -7 2 1100.92 71.7703 1
-7 2 2 868.067 72.0484 3
7 -2 2 1065.86 70.4959 1
2 -7 -2 853.78 66.7971 5
-7 5 -2 1068.08 71.6689 3
2 -7 -2 1125.59 71.7574 2
7 -5 2 832.012 58.3601 1
7 -2 -2 823.877 58.7047 1
7 -5 2 741.871 55.3198 4
-5 -2 2 841.687 61.1861 3
2 -7 2 885.987 59.0103 1
-2 -5 -2 790.724 59.3096 2
5 -7 -2 765.659 58.6242 1
5 2 2 735.734 55.5409 6
5 -7 -2 844.363 58.4311 2
-2 -5 -2 718.372 55.8923 1
-7 5 2 819.776 59.8898 3
2 -7 2 850.657 58.1251 2
-5 -2 2 781.125 57.7458 2
-2 -5 -2 829.407 59.218 3
-7 2 -2 807.857 62.6704 3
1 -7 -2 28.331 10.5719 3
6 -7 2 11.9216 6.04144 5
-7 6 -2 21.6555 9.93302 3
1 -7 -2 25.8711 10.6691 1
-1 -6 2 36.13 13.0464 2
7 -6 -2 31.7742 13.164 1
-1 -6 2 29.645 10.8552 3
1 -7 -2 22.8912 7.13096 5
7 -1 2 26.1758 10.5609 1
-1 -6 2 24.5354 11.5851 1
6 1 -2 18.4554 9.41696 6
6 -7 2 29.2914 11.7682 1
7 -1 2 7.89875 6.00503 6
-6 7 2 18.6126 11.2737 3
7 -6 -2 28.1391 10.9815 2
6 -7 2 23.8712 8.25797 2
7 -6 -2 16.2033 8.88809 4
-7 1 2 25.8568 15.508 3
1 -7 -2 31.9676 13.4323 2
-7 1 2 25.09 11.7035 2
-6 -1 -2 25.3802 16.7839 3
-6 -1 -2 25.968 11.3365 2
7 -1 -2 7.66152 10.1504 1
-6 -1 2 18.8534 11.1388 2
7 -6 2 -0.8183 4.53009 2
-1 -6 -2 10.7032 8.528 1
-6 -1 2 24.8974 16.8875 3
6 1 2 10.939 8.32378 1
7 -6 2 0.51716 5.50362 5
6 -7 -2 7.40877 10.9994 1
6 -7 -2 10.9257 10.6334 2
1 -7 2 6.60424 10.3896 1
-1 -6 -2 1.94446 4.82059 5
-7 1 -2 8.42282 15.657 3
6 -7 -2 4.08636 5.57565 4
1 -7 2 14.8604 7.30229 3
-7 1 -2 9.77818 8.94883 2
1 -7 2 2.18683 12.0983 2
6 1 2 9.54358 8.6879 6
7 -6 2 7.3133 10.9656 1
-7 6 2 4.69248 12.0236 3
-1 -6 -2 11.388 11.5749 3
-1 -6 -2 9.21558 12.8377 2
7 -1 -2 3.81762 8.86091 6
7 -6 2 5.3005 8.03815 4
7 -7 2 60.1844 9.08117 5
7 0 -2 90.4612 15.8323 1
0 -7 -2 86.497 13.6576 1
7 0 2 77.0941 12.497 1
7 0 -2 78.4398 12.7347 6
7 0 2 86.9724 11.7062 6
7 -7 2 84.5655 14.9781 1
0 -7 2 73.0758 14.3787 1
7 -7 -2 68.5999 14.9597 1
0 -7 2 70.1638 12.0905 3
0 -7 -2 76.9724 16.2066 2
0 -7 -2 68.3247 10.5345 5
-7 0 -2 59.72 13.1964 2
-7 0 2 100.659 21.5475 3
7 -7 -2 62.6947 10.4781 4
-7 7 2 90.45 15.8478 3
7 -7 -2 97.1829 15.165 2
7 -7 2 61.2701 10.4638 4
-7 0 2 83.4555 14.7866 2
0 -7 2 83.6829 15.1839 2
0 -7 -2 72.5203 14.7362 3
-7 0 -2 82.9273 20.8094 3
-4 -4 2 384.182 31.5245 2
4 -8 -2 362.87 32.0139 1
-4 -4 2 358.682 33.9099 3
4 4 2 324.018 28.3094 6
-8 4 -2 418.875 37.1718 3
4 -8 2 386.299 30.7269 2
-8 4 2 400.198 30.84 2
8 -4 2 308.94 27.6424 4
-4 -4 2 390.374 32.2213 1
4 -8 -2 308.328 26.8571 5
8 -4 -2 428.355 34.0066 1
-4 8 2 372.961 30.1989 3
-4 -4 -2 324.314 32.3928 2
-8 4 2 361.236 34.9253 3
8 -4 2 403.259 32.0681 1
-4 -4 -2 389.863 34.5455 3
4 -8 2 382.919 27.4645 5
4 -8 -2 413.27 33.3788 2
4 -8 2 408.5 32.2071 1
-4 -4 -2 349.152 28.8625 1
5 -8 2 119.747 12.4193 5
8 -5 -2 147.325 20.947 1
-3 -5 2 120.64 18.3094 1
-5 -3 -2 105.597 18.0875 2
3 -8 -2 131.033 13.7809 5
5 -8 2 141.896 18.5315 1
-5 -3 -2 149.783 23.8662 3
-5 8 2 121.081 16.5373 3
3 -8 -2 112.808 18.3937 1
-8 5 -2 143.675 22.7909 3
-8 3 2 92.3092 19.1465 3
-3 -5 2 137.705 19.568 2
-8 3 2 122.892 16.8686 2
3 -8 -2 119.76 18.6387 2
8 -5 -2 87.246 15.0996 4
8 -3 2 103.865 14.2107 4
-3 -5 2 151.375 20.2816 3
8 -3 2 132.392 18.1615 1
5 -8 2 135.497 15.9654 2
-5 -3 -2 105.451 14.5909 1
3 -8 2 205.753 20.835 2
3 -8 2 197.425 22.245 1
-5 -3 2 185.129 24.5574 3
5 3 2 167.526 17.8009 6
-3 -5 -2 155.702 17.5511 1
-3 -5 -2 166.458 22.7278 2
8 -5 2 188.587 17.6994 4
8 -3 -2 148.148 15.2045 6
8 -5 2 194.785 21.7557 1
5 -8 -2 175.72 21.4242 1
3 -8 2 167.712 15.07 5
-8 5 2 172.914 23.6213 3
-8 3 -2 194.302 28.1734 3
-5 -3 2 187.687 21.613 2
5 -8 -2 171.514 21.0653 2
-3 -5 -2 179.199 22.5159 3
8 -3 -2 186.025 21.7774 1
-8 6 -2 45.919 14.5837 3
-8 2 2 55.4158 14.022 2
6 -8 2 50.7144 14.3929 1
-6 -2 -2 51.4606 17.3023 3
-2 -6 2 54.1343 13.1709 1
2 -8 -2 54.7021 15.5879 2
-2 -6 2 67.6153 15.0468 2
6 -8 2 57.2731 11.2935 2
-6 8 2 40.6848 12.3169 3
-8 2 2 61.0808 19.8806 3
2 -8 -2 49.7598 12.7759 1
6 2 -2 39.1237 10.7881 6
8 -2 2 54.0204 13.2777 1
2 -8 -2 45.3266 8.39028 5
-2 -6 2 64.0068 14.6885 3
8 -6 -2 45.3109 10.3915 4
6 -8 2 44.2028 7.96036 5
8 -6 -2 41.1853 14.976 1
-6 -2 -2 50.0503 14.5558 2
2 -8 2 56.6704 13.2329 2
-8 2 -2 45.3452 19.0696 3
2 -8 2 44.2665 7.4866 5
8 -6 2 43.537 13.1911 1
-8 6 2 37.2049 14.1984 3
-2 -6 -2 28.2501 6.64267 5
6 -8 -2 70.7507 14.146 2
2 -8 2 61.7022 14.165 1
8 -2 -2 56.527 14.8138 1
-6 -2 2 45.1128 12.5138 2
-6 -2 2 84.0308 21.0134 3
-2 -6 -2 64.8037 15.8112 3
-2 -6 -2 63.2953 16.7333 2
-2 -6 -2 37.7933 9.98669 1
8 -2 -2 49.7646 9.76615 6
6 -8 -2 30.7367 13.8858 1
6 -8 -2 32.772 7.67882 4
8 -6 2 52.0308 10.0044 4
6 2 2 60.9847 10.7471 6
-8 1 2 243.566 28.5922 3
-8 1 2 215.478 23.4253 2
1 -8 -2 215.169 21.9166 3
7 1 -2 190.816 20.0846 6
1 -8 -2 195.992 21.8676 1
-7 -1 -2 187.871 23.4265 2
7 -8 2 254.97 25.3934 1
1 -8 -2 230.183 24.6828 2
8 -7 -2 200.659 21.6802 2
-1 -7 2 181.29 21.5957 1
-1 -7 2 210.129 21.9156 3
1 -8 -2 219.885 17.3423 5
8 -7 -2 194.355 18.7356 4
8 -1 2 209.383 20.7871 1
8 -1 2 204.519 19.4795 6
-7 8 2 168.524 22.2674 3
7 -8 2 194.772 17.0988 5
-1 -7 2 236.393 25.1005 2
-7 -1 -2 218.212 29.2047 3
8 -7 -2 202.537 24.8106 1
-1 -7 -2 156 18.3352 1
7 -8 -2 164.787 16.7525 4
-1 -7 -2 172.282 22.4526 2
8 -7 2 184.436 17.6443 4
7 -8 -2 163.522 22.7096 1
-1 -7 -2 174.249 22.7862 3
-7 -1 2 163.62 21.0715 2
-7 -1 2 183.404 26.4622 3
1 -8 2 141.354 18.9703 1
8 -7 2 192.637 22.0562 1
7 -8 -2 186.776 20.991 2
-1 -7 -2 168.301 15.1473 5
1 -8 2 190.533 22.3129 2
8 -1 -2 153.779 18.001 6
8 -7 2 138.042 14.5483 5
-8 1 -2 156.749 27.5718 3
-8 7 2 141.935 21.7568 3
8 -1 -2 187.644 22.1508 1
7 1 2 179.43 17.9152 6
0 -8 2 -0.3393 4.5167 5
-8 0 -2 1.52869 12.4814 2
-8 0 2 -8.9745 16.9801 3
0 -8 -2 -0.0976 10.6155 1
0 -8 -2 2.8126 12.3866 3
8 0 -2 2.95725 12.2398 1
8 0 2 10.8356 10.0676 1
0 -8 2 1.90633 12.0485 1
8 -8 -2 -3.9891 12.3433 1
0 -8 -2 -0.8829 7.07422 5
-8 8 2 -1.739 11.6145 3
8 0 2 -1.6222 9.46468 6
-8 0 2 1.45487 11.9774 2
0 -8 2 8.00971 14.0268 2
0 -8 2 -1.7556 8.39514 3
8 -8 2 -2.1072 8.7086 4
8 -8 -2 -1.7538 10.9301 2
8 -8 2 4.29987 7.11907 5
8 -8 -2 0.90619 9.11378 4
-8 0 -2 -0.1998 17.0633 3
0 -8 -2 6.29742 15.4415 2
8 -8 2 14.8865 13.5856 1
8 0 -2 6.60504 10.1715 6
4 -9 -2 49.9608 14.3939 1
4 -9 -2 50.9171 15.9461 2
5 -9 2 68.4617 10.1274 5
-5 -4 -2 31.6469 15.9708 3
5 4 -2 39.3623 10.7292 6
-4 -5 2 54.2998 16.6421 3
4 5 2 46.4336 10.4902 6
-5 -4 -2 46.5456 15.6093 2
-4 -5 2 60.3675 15.2909 1
4 -9 -2 56.5166 10.2362 5
5 -9 2 45.0091 13.1671 2
-5 -4 -2 21.6679 9.96772 1
-4 -5 2 33.7282 13.3744 2
9 -4 2 52.4628 14.8589 1
5 -9 2 42.7131 14.0899 1
9 -5 -2 57.3992 12.1798 4
9 -5 -2 57.5254 16.5857 1
-9 5 -2 42.79 18.5967 3
9 -4 2 40.4075 10.3437 4
-9 4 2 41.3322 19.5034 3
-9 4 2 61.0491 13.9028 2
-4 -5 -2 31.3036 16.305 2
9 -4 -2 19.5434 10.1423 4
-5 -4 2 27.7462 13.9459 2
9 -5 2 32.8711 13.5121 1
9 -4 -2 38.0654 15.5244 1
-9 5 2 27.0889 12.1882 2
5 4 2 21.9721 9.16196 6
4 -9 2 36.6324 8.59932 5
-4 -5 -2 31.5916 15.4442 3
4 -9 2 39.2368 13.3162 1
-5 -4 2 45.1113 17.4413 3
5 -9 -2 33.7786 8.62392 5
-9 4 -2 23.3787 18.3643 3
4 -9 2 42.1418 13.2276 2
-5 -4 2 39.8385 13.3824 1
-9 5 2 26.9074 15.4141 3
-4 -5 -2 14.2142 9.99766 1
5 -9 -2 31.8452 14.0708 2
9 -5 2 36.0258 9.52765 4
9 -4 -2 28.7835 8.087 6
5 -9 -2 28.4783 13.839 1
9 -6 -2 210.736 20.9758 4
6 3 -2 196.174 21.1678 6
-9 6 -2 174.015 27.5304 3
9 -3 2 200.596 19.6854 4
-6 -3 -2 214.676 26.2797 2
3 -9 -2 232.376 25.234 2
9 -6 -2 248.715 26.9321 1
-3 -6 2 216.486 23.8222 1
-3 -6 2 210.609 25.2998 3
6 -9 2 236.123 18.3721 5
-6 -3 -2 241.895 29.0712 3
9 -3 2 254.082 24.9738 1
-9 3 2 206.485 23.4834 2
6 -9 2 236.848 26.7131 1
3 -9 -2 246.551 18.7361 5
3 -9 -2 195.444 23.9287 1
-9 3 2 226.543 31.1889 3
-3 -6 2 226.973 24.9947 2
6 -9 2 190.525 21.699 2
-6 -3 2 266.752 27.9526 2
9 -3 -2 269.111 22.1377 6
-6 -3 2 287.428 32.2646 3
6 -9 -2 268.747 28.452 1
6 -9 -2 256.089 22.4505 5
9 -6 2 276.198 23.4549 4
3 -9 2 269.513 28.1641 1
3 -9 2 289.245 22.0015 5
6 3 2 259.801 23.7351 6
6 -9 -2 259.33 26.0702 2
-9 3 -2 291.358 35.8755 3
3 -9 2 264.209 25.7717 2
-3 -6 -2 273.586 28.894 3
-3 -6 -2 263.421 29.848 2
-9 6 2 259.867 29.9147 3
9 -3 -2 285.087 27.4858 1
9 -6 2 294.702 28.6671 1
7 -9 2 778.956 55.7608 1
-9 2 2 728.219 59.7165 3
9 -2 2 646.444 50.2139 4
9 -7 -2 790.776 51.2902 4
-2 -7 2 580.687 53.2351 3
-2 -7 2 742.37 54.9613 2
2 -9 -2 805.019 57.174 2
-2 -7 2 757.469 55.5112 1
2 -9 -2 604.836 53.3418 1
2 -9 -2 816.454 49.9918 5
9 -2 2 706.327 50.3104 6
7 2 -2 661.09 51.1096 6
-9 2 2 707.744 54.035 2
-7 -2 -2 759.527 59.7773 3
-7 -2 -2 601.716 54.7539 2
7 -9 2 695.062 49.5333 5
9 -2 2 799.759 54.8504 1
9 -7 -2 729.871 56.328 1
2 -9 2 756.181 53.8682 2
9 -7 2 710.183 54.1143 1
7 2 2 801.741 50.9544 6
7 -9 -2 614.545 54.2226 1
-2 -7 -2 751.798 48.6133 5
9 -2 -2 735.18 49.7825 6
9 -2 -2 777.004 55.468 1
2 -9 2 721.023 48.648 5
7 -9 -2 581.705 48.6753 5
7 -9 -2 698.608 49.174 4
-2 -7 -2 723.175 54.8618 3
-9 2 -2 700.763 61.2051 3
7 -9 -2 687.698 52.7317 2
-2 -7 -2 644.9 54.5626 2
2 -9 2 645.453 53.2603 1
-7 -2 2 811.609 59.1992 3
-9 7 2 616.261 54.8583 3
9 -7 2 755.683 49.963 4
-7 -2 2 631.061 52.8524 2
9 -8 -2 117.41 18.4086 2
9 -8 -2 103.04 19.4019 1
1 -9 -2 130.708 14.3071 5
9 -8 -2 142.239 16.7753 4
-1 -8 2 143.992 21.1489 2
-1 -8 2 116.923 19.5819 1
8 -9 2 141.192 15.7829 4
9 -1 2 129.161 16.3291 6
-9 1 2 109.291 18.9277 2
8 -9 2 112.669 13.9734 5
1 -9 -2 156.695 23.6591 2
-9 1 2 136.412 26.0592 3
9 -1 2 101.309 17.4417 1
8 -9 2 156.569 22.8366 1
-8 -1 -2 167.417 29.4278 3
8 1 -2 130.176 17.2587 6
-8 -1 2 124.541 23.7819 3
9 -8 2 152.264 22.6194 1
9 -1 -2 142.134 21.5138 1
-1 -8 -2 157.156 14.7218 5
8 -9 -2 139.361 20.6773 2
1 -9 2 142.211 14.5584 5
1 -9 2 144.174 21.6474 1
8 -9 -2 159.767 16.4923 4
8 -9 -2 129.796 22.5453 1
9 -8 2 163.435 17.3775 4
-1 -8 -2 140.172 22.0928 3
-9 1 -2 152.956 29.5096 3
-1 -8 -2 123.028 21.7451 2
9 -1 -2 167.239 18.1841 6
8 1 2 162.518 17.0329 6
9 -8 2 155.326 15.1241 5
-8 -1 2 156.79 20.3746 2
1 -9 2 154.487 23.102 2
9 0 2 94.2656 13.5141 6
0 -9 2 53.4109 15.7478 1
9 0 -2 103.151 14.1522 6
0 -9 -2 76.3876 20.5819 2
9 -9 -2 82.7317 12.6857 4
9 -9 2 67.7716 17.4337 1
-9 0 2 68.2837 17.1241 2
0 -9 2 63.6987 10.0077 5
-9 0 2 78.7214 22.2324 3
9 -9 2 100.996 13.04 4
9 -9 2 76.6951 10.711 5
-9 0 -2 68.8357 24.9755 3
9 -9 -2 45.2788 14.4283 2
0 -9 2 77.4515 18.6645 2
0 -9 -2 78.0077 11.8101 5
9 -9 -2 69.0733 19.4171 1
5 -10 2 170.497 22.8535 1
5 -10 -2 139.054 22.3448 1
10 -5 -2 157.911 15.948 6
5 -10 2 170.389 15.5861 5
10 -5 -2 182.059 25.6541 1
10 -5 -2 174.784 18.9411 4
10 -5 2 166.941 24.187 1
5 -10 2 148.808 20.9661 2
5 -10 -2 196.71 24.7892 2
5 5 2 157.784 18.6134 6
10 -5 2 168.454 17.9202 4
-10 5 2 184.727 28.6443 3
5 5 -2 156.117 18.5319 6
-5 -5 2 174.646 26.7089 3
5 -10 -2 154.207 15.8299 5
-5 -5 -2 187.33 27.5036 3
-5 -5 -2 113.762 22.4393 2
-5 -5 2 150.157 22.5964 1
-5 -5 2 157.259 23.8368 2
-10 4 2 7.32404 12.2897 2
-6 -4 -2 7.61291 18.6132 3
6 -10 2 23.2966 7.82528 5
4 -10 -2 18.879 14.0244 1
-6 -4 -2 17.1274 16.386 2
6 -10 2 -2.8981 11.9729 2
-10 6 -2 -3.4382 19.9827 3
10 -6 -2 -0.3225 7.64085 6
-4 -6 2 13.879 16.261 3
6 4 -2 12.0273 10.4341 6
10 -4 2 14.3557 14.6384 1
4 -10 -2 15.5107 15.1481 2
10 -4 2 31.4249 10.5873 4
10 -4 2 -0.093 5.52439 6
-4 -6 2 28.5118 15.9029 2
10 -6 -2 29.6319 15.8059 1
-10 4 2 13.8756 20.0556 3
10 -6 -2 13.9284 10.7233 4
4 -10 -2 30.0237 9.75291 5
4 6 2 26.052 9.98928 6
6 -10 2 29.5628 16.0895 1
-4 -6 2 24.8016 15.2655 1
10 -4 -2 63.114 16.7017 1
4 -10 2 86.65 11.2444 5
10 -6 2 77.2487 12.9281 4
-10 6 2 41.2126 20.5659 3
-6 -4 2 51.2673 16.7266 2
6 -10 -2 58.1753 17.0368 2
-10 4 -2 28.399 21.2859 3
-6 -4 2 41.3603 14.8592 1
-10 6 2 22.5697 13.4224 2
-6 -4 2 63.2779 20.9613 3
10 -6 2 48.9602 16.6492 1
6 -10 -2 49.9114 16.8034 1
4 -10 2 42.4404 15.0083 2
4 -10 2 58.9461 17.6796 1
6 4 2 51.4396 11.4243 6
-4 -6 -2 45.3289 18.0206 3
10 -4 -2 60.7583 12.6531 4
-4 -6 -2 46.2044 19.271 2
10 -4 -2 63.0108 10.5445 6
6 -10 -2 56.7457 11.1865 5
7 -10 2 128.691 14.8704 5
7 3 -2 128.009 17.814 6
-3 -7 2 147.075 22.0038 2
-10 3 2 120.807 26.1936 3
3 -10 -2 141.578 15.056 5
7 -10 2 161.965 24.151 1
3 7 2 102.148 15.756 6
3 -10 -2 165.55 24.6726 2
10 -7 -2 135.125 17.1362 4
-7 -3 -2 116.344 24.7419 3
10 -3 2 108.121 19.3414 1
10 -7 -2 145.342 23.1774 1
-3 -7 2 104.593 19.2175 1
10 -3 2 114.234 14.7253 6
10 -3 2 133.952 16.1425 4
10 -7 2 172.702 18.882 4
10 -3 -2 211.462 25.5227 1
7 3 2 168.533 19.0308 6
7 -10 -2 168.563 17.4039 5
10 -3 -2 138.128 16.9051 4
-10 3 -2 128.774 26.8302 3
3 -10 2 189.568 16.2362 5
-7 -3 2 116.205 23.9296 3
7 -10 -2 165.592 23.2917 2
-3 -7 -2 157.247 25.7507 3
10 -7 2 165.96 23.9358 1
3 -10 2 162.283 23.7131 2
10 -3 -2 170.461 17.6919 6
-3 -7 -2 178.411 15.3552 5
-3 -7 -2 142.895 25.1098 2
-7 -3 2 157.844 23.4691 2
7 -10 -2 167.346 16.2169 4
3 -10 2 147.505 23.2685 1
7 -10 -2 157.167 25.0113 1
2 -10 -2 156.264 15.6689 5
10 -2 2 143.511 15.7729 6
10 -8 -2 140.581 22.6784 1
-10 2 2 90.2244 22.5749 3
-2 -8 2 114.153 20.3621 1
10 -2 2 141.513 17.4515 4
8 -10 2 144.151 15.4285 5
2 -10 -2 168.481 24.4224 2
-8 -2 -2 148.371 29.8422 3
10 -8 -2 163.55 16.8749 4
-2 -8 2 191.63 27.3563 2
8 -10 2 145.755 15.6883 4
8 2 -2 156.495 18.1839 6
8 -10 2 167.251 25.107 1
2 -10 2 203.053 25.4464 2
2 -10 2 207.694 17.4998 5
-2 -8 -2 207.865 17.2246 5
2 -10 2 160.698 24.7231 1
10 -2 -2 208.949 26.0546 1
10 -8 2 176.736 16.8418 5
-2 -8 -2 174.144 27.6197 2
10 -2 -2 197.829 19.8003 6
-10 2 -2 202.299 34.041 3
8 -10 -2 188.648 18.1352 5
8 2 2 192.616 19.4259 6
8 -10 -2 178.753 24.1801 2
8 -10 -2 204.978 26.8775 1
8 -10 -2 188.252 18.3267 4
-8 -2 2 158.862 24.7842 2
-8 -2 2 191.476 29.1343 3
10 -8 2 186.061 19.5455 4
10 -8 2 200.332 25.7984 1
-1 -9 2 51.676 18.5421 2
-9 -1 -2 32.3332 24.6319 3
10 -9 -2 55.4564 18.3411 1
10 -1 2 84.3471 12.9856 6
9 -10 2 77.5913 11.0085 5
1 -10 -2 75.9582 10.2545 5
9 -10 2 85.8592 12.3287 4
-1 -9 2 43.2954 16.6845 1
10 -9 -2 71.4054 11.9765 4
-10 1 2 56.2324 20.8275 3
9 1 -2 104.923 14.9447 6
1 -10 -2 59.2424 19.4817 2
9 -10 2 76.4798 19.8775 1
10 -9 2 92.7958 20.1371 1
10 -1 -2 56.0444 15.8786 1
10 -1 -2 121.718 14.8854 6
9 -10 -2 54.9991 10.3534 5
-1 -9 -2 88.6895 22.5926 2
-1 -9 -2 95.853 12.1986 5
1 -10 2 80.2167 19.0531 2
9 -10 -2 88.2939 14.107 4
-9 -1 2 64.565 21.4894 3
-10 1 -2 73.4044 27.1382 3
1 -10 2 99.412 12.2524 5
10 -9 2 87.0689 12.317 5
10 -9 2 117.403 14.0159 4
9 -10 -2 59.6247 19.3546 1
9 1 2 102.608 13.921 6
1 -10 2 65.7913 17.5999 1
10 -10 2 9.82032 7.94316 5
10 -10 -2 2.83616 9.82152 4
10 0 2 9.77406 9.75383 6
10 0 -2 9.79733 11.3803 6
10 -10 2 12.5144 8.97153 4
-10 0 2 0.56494 20.7151 3
10 -10 -2 3.62043 15.5877 1
10 -10 2 7.0786 16.4047 1
0 -10 2 8.00838 7.26082 5
0 -10 -2 12.7063 7.8194 5
0 -10 2 -0.7362 14.2553 1
0 -10 2 8.25242 15.846 2
0 -10 -2 1.80089 17.4968 2
-10 0 -2 4.74624 23.5538 3
11 -6 -2 109.223 12.9971 6
-6 -5 -2 74.9679 21.3487 3
5 -11 -2 111.223 13.9613 5
-5 -6 2 113.363 21.6911 2
5 -11 -2 100.966 21.0714 2
11 -6 -2 126.418 16.9926 4
11 -5 2 117.725 16.4616 4
6 -11 2 130.492 23.0874 1
6 5 -2 130.606 18.4824 6
5 6 2 123.426 17.5231 6
6 -11 2 127.528 13.5608 5
11 -6 -2 134.848 23.9042 1
11 -5 -2 98.3801 21.3778 1
5 -11 2 107.325 12.4947 5
-6 -5 2 65.3277 17.1558 1
6 -11 -2 104.608 14.5573 5
5 -11 2 83.9161 20.1622 1
6 5 2 128.368 17.0258 6
-6 -5 2 69.4061 21.6139 3
11 -6 2 99.7051 15.2905 4
-5 -6 -2 54.5256 20.0538 3
11 -5 -2 106.182 14.143 6
-6 -5 2 56.0903 17.006 2
5 6 -2 91.7136 14.5074 6
6 -11 -2 77.7187 18.706 2
11 -5 -2 102.811 16.275 4
7 4 -2 169.796 18.9797 6
-7 -4 -2 150.433 29.4752 3
-4 -7 2 167.158 25.2712 2
7 -11 2 183.784 17.1783 5
7 -11 2 165.349 27.5829 1
11 -4 2 167.816 18.5981 4
4 7 2 167.832 19.3572 6
11 -7 -2 153.04 25.5097 1
11 -4 2 157.918 16.872 6
4 -11 -2 196.966 17.691 5
11 -7 -2 164.083 19.1912 4
4 -11 -2 184.643 27.392 2
7 -11 -2 57.4689 17.1431 2
-7 -4 2 89.6903 18.7525 2
11 -7 2 98.9398 18.8986 1
-4 -7 -2 56.3257 20.88 2
-7 -4 2 84.5138 16.6395 1
8 -11 2 14.9138 15.112 1
11 -8 -2 12.9635 10.6255 4
8 -11 2 2.10006 5.98032 4
8 -11 2 14.4955 8.31686 5
3 -11 -2 13.7905 8.56906 5
-3 -8 2 1.16931 14.8062 1
8 3 -2 11.4846 10.0654 6
11 -3 2 9.21034 8.51666 6
-3 -8 2 16.9058 19.4571 2
11 -3 2 12.117 9.9609 4
-11 3 2 -4.2487 20.2986 3
11 -8 -2 12.4733 17.5157 1
-8 -3 -2 -3.3781 23.5868 3
3 -11 -2 1.44574 17.0508 2
3 8 2 8.77507 8.94399 6
11 -3 -2 23.5976 9.85471 4
8 -11 -2 -0.8174 18.4108 2
3 -11 2 31.4803 8.937 5
-3 -8 -2 41.2209 8.50602 5
-11 3 -2 -2.209 23.5201 3
11 -8 2 35.0338 10.1545 4
-3 -8 -2 3.48368 19.673 2
3 -11 2 20.149 16.6044 1
11 -3 -2 16.9102 14.7286 1
8 -11 -2 21.9216 10.09 5
11 -8 2 17.1969 6.81217 5
-8 -3 2 0.43677 14.4232 2
11 -8 2 1.53703 16.0058 1
-8 -3 2 18.8605 21.4639 3
11 -3 -2 28.7243 10.1786 6
8 -11 -2 25.4496 9.28276 4
8 -11 -2 -3.4844 16.656 1
3 -11 2 -0.2496 15.2937 2
8 3 2 49.4011 12.104 6
11 -9 -2 19.9969 17.0664 1
2 -11 -2 37.5789 18.9186 2
-11 2 2 -0.7126 20.1701 3
-9 -2 -2 48.3895 25.2952 3
9 -11 2 44.7556 18.0809 1
-2 -9 2 0.1071 19.6508 1
-2 -9 2 45.1971 18.7675 2
-9 -2 2 15.7026 21.639 3
-2 -9 -2 2.03908 19.8054 2
-11 2 -2 -3.2991 30.9249 3
2 -11 2 1.73741 24.2322 2
11 -1 2 110.577 16.8527 6
11 -10 -2 142.624 17.755 4
10 1 -2 147.929 17.6826 6
10 -11 2 128.505 15.2023 5
10 -11 2 111.636 16.1021 4
1 -11 -2 132.441 13.7495 5
10 -11 -2 116.078 15.5962 5
11 -1 -2 139.419 18.438 6
11 -10 2 140.738 17.4032 4
1 -11 2 136.899 14.6009 5
11 -10 2 137.529 15.2374 5
10 1 2 148.305 18.3432 6
-1 -10 -2 136.049 15.131 5
10 -11 -2 129.666 16.5386 4
11 -11 2 6.24471 9.31296 4
11 -11 2 0.8286 8.26981 5
11 -11 -2 4.67193 9.47757 4
0 -11 2 -2.8324 7.29853 5
0 -11 -2 5.08228 7.47096 5
11 0 2 11.3049 10.7393 6
11 0 -2 2.30266 10.0317 6
12 -6 -2 6.81753 8.82174 6
6 -12 2 4.36586 8.55697 5
6 6 -2 -1.4768 12.2037 6
12 -6 -2 0.45429 16.8864 1
6 6 2 2.96667 9.56515 6
12 -6 -2 4.82158 10.4002 4
6 -12 -2 6.0328 8.38683 5
6 -12 2 1.38752 18.5714 1
12 -6 2 1.70511 9.49608 4
12 -7 -2 -1.9062 19.0935 1
7 5 -2 84.3986 14.3206 6
12 -5 2 43.2855 8.89589 6
-5 -7 2 -0.6061 25.2794 2
7 -12 2 -0.1595 19.533 1
5 7 2 65.8093 12.9526 6
12 -5 -2 83.3434 13.7258 4
12 -7 2 65.004 12.5992 4
5 7 -2 54.2173 13.9792 6
12 -5 -2 -2.802 28.6998 1
12 -5 -2 93.3653 13.2198 6
5 -12 2 107.53 12.7001 5
7 -12 -2 67.5765 11.7495 5
7 5 2 105.371 15.1366 6
8 4 -2 47.8131 13.8859 6
8 -12 2 24.2908 8.44642 5
4 8 2 32.788 12.1353 6
12 -8 -2 29.2929 10.6105 4
12 -4 2 31.4005 11.6802 4
4 -12 -2 32.1561 9.40246 5
12 -4 2 31.7288 9.92466 6
8 -12 -2 51.1712 11.7175 5
4 -12 2 36.2555 8.99789 5
12 -8 2 47.2807 11.9372 4
-4 -8 -2 37.4328 8.30812 5
12 -4 -2 41.5962 12.2275 4
8 -12 -2 38.9557 9.96759 4
8 4 2 49.7489 12.5132 6
12 -4 -2 39.7319 11.3512 6
9 -12 2 93.4828 12.1931 5
9 3 -2 101.499 16.1148 6
12 -3 2 62.1989 11.8679 6
9 -12 2 60.0204 10.8977 4
3 -12 -2 89.0856 11.8379 5
12 -3 2 77.811 13.589 4
12 -3 -2 97.1516 15.7349 6
9 3 2 113.172 17.0837 6
-3 -9 -2 110.44 13.7126 5
9 -12 -2 100.477 14.9728 4
12 -9 2 110.273 15.4211 4
9 -12 -2 114.436 14.8069 5
3 -12 2 112.62 14.1004 5
12 -2 2 34.7846 11.092 6
12 -2 2 31.8782 10.7564 4
2 -12 -2 46.381 10.5668 5
10 2 -2 32.3762 12.4073 6
12 -10 -2 39.5922 11.7401 4
10 -12 2 35.3199 9.63869 5
10 -12 2 30.1285 10.07 4
-2 -10 -2 19.6365 8.94517 5
10 -12 -2 21.59 10.7731 4
12 -10 2 10.675 7.93746 5
12 -10 2 24.5628 11.2862 4
10 -12 -2 14.0883 9.49804 5
10 2 2 17.1481 11.1054 6
2 -12 2 8.94433 8.30163 5
12 -2 -2 16.812 11.1828 6
11 1 -2 146.059 19.6512 6
11 -12 2 103.688 16.3428 4
12 -1 2 123.822 17.5194 6
1 -12 -2 120.854 14.7474 5
12 -11 -2 129.608 17.906 4
11 -12 2 103.427 14.869 5
12 -11 2 114.14 15.6055 5
11 -12 -2 126.05 16.8158 4
12 -11 2 109.422 16.7782 4
11 1 2 122.191 17.1082 6
12 -1 -2 132.588 18.5293 6
-1 -11 -2 112.485 14.9663 5
1 -12 2 114.395 15.0169 5
12 -12 2 17.5034 8.90454 5
0 -12 -2 9.86454 8.69582 5
12 -12 2 20.0629 10.229 4
12 0 2 9.96662 10.9468 6
0 -12 2 18.088 8.46797 5
12 0 -2 14.9112 12.4754 6
12 -12 -2 11.498 10.9592 4
13 -7 -2 4.59024 7.99086 6
7 6 -2 4.97759 13.5062 6
13 -6 2 -1.038 10.4636 4
6 7 2 7.16239 10.6018 6
13 -7 -2 5.84058 10.4716 4
7 -13 2 11.4817 9.32561 5
6 -13 -2 5.57483 9.38723 5
13 -6 -2 15.905 9.97248 6
7 6 2 13.9512 10.7295 6
7 -13 -2 14.4711 10.142 5
13 -7 2 10.8714 10.3284 4
6 -13 2 10.0688 8.42223 5
13 -6 -2 11.3271 10.7089 4
6 7 -2 3.31256 13.0762 6
13 -5 2 33.3121 10.1416 6
5 8 2 49.5865 13.6736 6
8 -13 2 55.3105 10.8951 5
8 5 -2 68.3713 15.5438 6
5 -13 -2 64.021 11.5989 5
13 -8 -2 39.0099 11.7231 4
13 -5 2 45.6209 11.889 4
8 5 2 52.6608 12.7629 6
8 -13 -2 38.6503 10.3825 5
13 -5 -2 38.2012 10.9991 6
5 8 -2 -2.1983 16.2607 6
5 -13 2 39.2098 9.39304 5
13 -5 -2 52.6266 12.6812 4
13 -8 2 38.1243 10.7238 4
13 -9 -2 186.019 20.3506 4
13 -4 2 176.92 19.13 6
9 4 -2 213.145 23.2761 6
13 -4 2 180.438 20.3795 4
9 -13 2 165.074 18.3967 5
4 9 2 183.021 21.4752 6
4 -13 -2 204.427 19.5905 5
13 -9 2 270.113 24.228 4
-4 -9 -2 240.444 20.7101 5
9 -13 -2 222.713 21.7066 4
4 -13 2 247.528 21.8113 5
13 -4 -2 252.445 23.9999 4
13 -4 -2 259.627 23.4576 6
9 -13 -2 236.188 22.7329 5
9 4 2 241.611 24.3664 6
13 -10 -2 83.9527 14.5808 4
13 -3 2 76.2225 13.2184 6
10 -13 2 85.3502 12.5968 5
10 3 -2 68.5983 15.1748 6
10 -13 2 49.0399 10.9528 4
13 -3 2 46.1977 12.7702 4
3 -13 -2 94.113 13.3043 5
13 -10 2 108.56 16.9031 4
13 -3 -2 102.902 17.1398 6
10 -13 -2 98.3544 14.4888 4
-3 -10 -2 113.889 14.5045 5
10 3 2 146.477 18.0155 6
10 -13 -2 91.4841 14.0186 5
3 -13 2 105.205 14.5795 5
13 -2 2 7.31369 9.42553 4
13 -11 -2 10.2358 10.8664 4
2 -13 -2 4.20757 8.46397 5
13 -2 2 11.4489 10.5298 6
11 -13 2 7.14013 9.34481 4
11 2 -2 23.9063 12.595 6
11 -13 2 11.5497 8.7711 5
2 -13 2 3.77498 9.02018 5
13 -2 -2 0.25197 10.5317 6
-2 -11 -2 5.22877 8.61583 5
11 -13 -2 7.38152 9.89912 5
13 -11 2 3.94282 10.7454 4
11 -13 -2 6.27866 10.2659 4
13 -11 2 8.78846 8.54249 5
11 2 2 1.209 10.1529 6
12 1 -2 54.0255 14.762 6
13 -1 2 32.0739 12.5002 6
12 -13 2 28.4098 11.2368 4
12 -13 2 41.3743 10.7489 5
13 -12 -2 43.7353 12.6885 4
1 -13 -2 44.6241 10.6445 5
12 -13 -2 3.98686 8.25276 5
12 -13 -2 9.79748 11.2457 4
12 1 2 22.8249 12.5967 6
13 -12 2 13.8249 8.85678 5
1 -13 2 10.425 8.77449 5
13 -12 2 16.0529 11.0758 4
13 -1 -2 13.0044 10.6261 6
-1 -12 -2 8.24207 9.38682 5
13 0 -2 8.75158 12.6371 6
0 -13 2 6.54996 8.31039 5
0 -13 -2 9.78503 9.60416 5
13 -13 2 8.76449 9.64053 5
13 -13 2 2.74782 10.3262 4
13 0 2 -0.5759 11.6097 6
13 -13 -2 -8.1909 10.5657 4
7 -14 -2 1.75058 8.96909 5
7 7 2 15.5522 11.086 6
14 -7 -2 6.65578 10.8801 4
7 -14 2 5.13157 9.39149 5
14 -7 2 9.54649 10.9559 4
7 7 -2 11.1278 14.3165 6
14 -7 -2 11.8671 9.36344 6
8 -14 2 101.829 13.6503 5
14 -8 -2 59.1764 12.5036 4
6 8 2 77.8794 15.1144 6
14 -6 2 75.0179 13.8085 4
8 6 -2 75.9019 16.5905 6
6 -14 -2 59.0076 11.5405 5
14 -6 -2 57.3974 13.3635 4
8 6 2 61.1966 13.3002 6
6 -14 2 94.6128 13.0229 5
14 -8 2 85.2563 14.6208 4
6 8 -2 43.9827 15.1265 6
14 -6 -2 66.311 13.3959 6
8 -14 -2 80.3691 13.5438 5
14 -9 -2 32.7638 11.8952 4
14 -5 2 25.3879 11.7426 4
5 9 2 17.7393 12.3686 6
14 -5 2 31.0765 10.4673 6
9 -14 2 29.4501 9.42585 5
9 5 -2 37.7822 15.0838 6
5 -14 -2 48.3577 12.0109 5
9 5 2 52.8109 13.7538 6
14 -5 -2 35.8715 12.2599 6
14 -5 -2 51.2285 13.1306 4
9 -14 -2 37.4213 11.1573 5
14 -9 2 49.7737 12.8346 4
5 -14 2 41.1328 11.1425 5
14 -4 2 33.8063 11.3627 6
14 -4 2 35.2118 12.0156 4
10 -14 2 56.4777 11.2457 5
14 -10 -2 52.7859 12.6782 4
4 -14 -2 51.2536 11.1598 5
10 4 -2 63.5754 15.0337 6
4 -14 2 55.6223 11.4439 5
14 -4 -2 34.8862 12.1848 4
10 -14 -2 43.7962 11.6897 5
14 -10 2 72.0508 14.2368 4
14 -4 -2 64.35 13.8011 6
10 4 2 40.1734 12.6888 6
10 -14 -2 32.471 10.7187 4
-4 -10 -2 39.6891 9.46461 5
11 -14 2 120.532 16.4704 5
14 -3 2 114.86 19.1107 4
11 3 -2 149.785 21.5232 6
11 -14 2 110.542 16.0175 4
3 -14 -2 137.514 16.4537 5
14 -11 -2 168.761 19.5541 4
14 -3 2 145.921 18.6534 6
11 3 2 147.52 18.7064 6
14 -11 2 119.384 18.3249 4
11 -14 -2 102.07 17.2027 4
3 -14 2 143.987 15.8489 5
11 -14 -2 82.8593 14.2117 5
-3 -11 -2 108.725 15.3993 5
14 -3 -2 120.111 16.9423 6
12 2 -2 36.8503 13.6366 6
2 -14 -2 31.5816 10.5761 5
12 -14 2 27.0151 10.3093 5
14 -2 2 25.0464 11.8269 6
14 -12 -2 40.8774 12.8538 4
12 -14 2 30.8765 11.1503 4
-2 -12 -2 21.1336 9.58298 5
12 -14 -2 21.8949 10.0394 5
12 -14 -2 31.1759 12.0268 4
14 -2 -2 36.4264 13.6326 6
14 -12 2 14.3722 8.89953 5
12 2 2 34.9073 13.5095 6
2 -14 2 27.8507 10.2251 5
14 -12 2 34.9364 12.5517 4
14 -13 -2 15.1366 12.0163 4
13 1 -2 20.5009 13.7804 6
1 -14 -2 19.2772 9.78745 5
13 -14 2 14.9039 9.93999 5
14 -1 2 11.7021 11.6554 6
13 -14 2 6.97179 10.8827 4
14 -13 2 9.68944 9.62287 5
-1 14 2 -0.1458 5.82251 11
14 -1 -2 -3.9114 11.2139 6
14 -13 2 0.07003 10.3934 4
13 1 2 13.1449 12.748 6
1 -14 2 7.1999 9.1658 5
13 -14 -2 7.98811 11.5834 4
-1 -13 -2 8.32119 9.38297 5
0 -14 -2 12.1725 9.59178 5
14 0 2 23.0928 13.1487 6
14 -14 2 27.4555 12.2212 4
14 -14 2 14.4899 9.85003 5
-14 14 -2 7.37102 6.67466 10
14 0 -2 31.7009 13.8571 6
14 -14 -2 8.10267 11.1776 4
0 14 2 16.7549 7.05675 11
0 14 -2 -1.1055 5.56956 11
-14 14 2 5.70792 5.55332 10
-14 0 -2 9.82103 5.50574 9
0 -14 2 -1.2499 7.17756 5
7 -15 -2 146.29 16.8908 5
7 8 2 109.37 17.5849 6
8 -15 2 126.927 16.6764 5
15 -8 -2 125.442 18.7309 4
15 -7 2 128.643 18.9602 4
8 7 -2 87.6113 18.7772 6
7 -15 2 155.515 17.7137 5
7 8 -2 149.819 23.1226 6
15 -7 -2 151.669 20.0404 4
15 -7 -2 135.208 18.2502 6
8 -15 -2 150.797 18.9935 5
8 7 2 155.141 21.0925 6
15 -8 2 135.122 19.8883 4
9 6 -2 36.2317 15.2814 6
6 9 2 37.9421 13.8355 6
6 -15 -2 65.365 13.175 5
15 -9 -2 36.3211 11.7868 4
9 -15 2 44.0074 10.1723 5
15 -6 2 37.6844 12.7141 4
15 -9 2 45.9154 12.0276 4
6 -15 2 62.1631 12.5313 5
15 -6 -2 55.5803 12.8104 6
9 6 2 47.3321 13.5698 6
9 -15 -2 48.3042 12.353 5
15 -6 -2 36.0177 12.8605 4
10 -15 2 160.075 18.8605 5
15 -10 -2 159.08 20.3522 4
15 -5 2 177.967 21.4123 4
15 -5 2 160.508 19.4434 6
10 5 -2 212.593 24.7427 6
5 -15 -2 169.984 19.5522 5
10 5 2 207.275 24.2549 6
5 -15 2 233.977 21.5057 5
15 -5 -2 189.007 23.1072 4
10 -15 -2 210.474 22.166 5
15 -5 -2 208.351 23.6561 6
15 -10 2 250.557 23.9103 4
11 -15 2 108.847 14.0967 5
15 -4 2 54.4156 14.0576 4
15 -4 2 67.3134 13.787 6
11 4 -2 95.1722 17.5562 6
15 -11 -2 63.8403 13.9165 4
4 -15 -2 82.3514 13.3599 5
11 4 2 138.108 20.1931 6
11 -15 -2 122.828 17.6854 4
15 -11 2 163.871 20.0956 4
4 -15 2 147.981 18.3738 5
11 -15 -2 144.123 18.2766 5
15 -4 -2 142.057 20.8246 6
-12 -3 -2 33.0869 7.30994 9
12 -15 2 57.7425 11.2326 5
12 -15 2 37.4758 9.84191 4
3 -15 -2 74.0149 11.9018 5
15 -12 -2 27.3622 7.29416 7
15 -3 2 56.4036 13.0322 6
15 -3 2 0.14298 10.2264 4
-12 15 -2 39.6121 7.40971 10
12 -15 -2 58.4861 11.7677 5
-3 -12 -2 63.5014 10.6011 5
3 12 -2 34.3483 7.29873 11
-15 12 2 23.2322 7.32673 10
2 -15 -2 44.5665 10.8719 5
2 13 2 31.1858 7.08087 11
15 -13 -2 56.087 13.9653 4
13 2 -2 41.7282 13.7517 6
15 -2 2 51.0876 14.0012 6
13 -15 2 34.4831 10.7077 5
-13 -2 -2 34.4632 8.42779 9
15 -13 -2 31.0586 7.90314 7
13 -15 2 37.5957 12.0635 4
2 13 -2 52.9619 8.99388 11
13 -15 -2 46.6372 12.9174 4
15 -13 2 58.7134 13.0927 4
15 -2 -2 73.5165 15.876 6
-2 -13 -2 75.8279 12.2769 5
-15 13 2 61.225 9.89653 10
2 -15 2 59.5163 11.8772 5
-13 15 -2 46.8523 8.62189 10
13 2 2 92.5059 16.4308 6
-2 15 2 55.5797 8.77742 11
1 -15 -2 48.8676 11.5486 5
-14 15 2 35.3689 7.60448 10
15 -14 -2 47.2839 13.2068 4
-14 -1 -2 39.93 8.82281 9
1 14 2 41.8662 8.86609 11
14 -15 2 41.0537 11.1171 5
-15 14 -2 45.1323 8.99838 10
15 -14 -2 38.2275 8.82569 7
14 1 -2 52.8361 15.0557 6
-1 15 -2 32.0536 8.04535 11
14 -15 2 34.1188 12.5258 4
15 -1 2 54.2716 14.7449 6
-1 15 2 44.4303 9.04855 11
-15 14 2 34.6719 8.3828 10
14 -15 -2 33.8818 12.6768 4
-14 15 -2 40.4161 9.36947 10
14 1 2 31.0691 13.4109 6
15 -1 -2 42.5924 14.8365 6
-15 1 -2 36.8818 7.95952 9
-1 -14 -2 51.472 11.5824 5
15 -14 2 40.4478 12.8786 4
1 14 -2 40.0672 8.74238 11
1 -15 2 40.7543 10.6463 5
-15 0 -2 27.668 8.26231 9
15 -15 -2 30.8704 13.4805 4
15 0 2 20.3796 13.0324 6
0 15 -2 29.5247 8.99523 11
15 0 -2 35.4279 14.6072 6
15 -15 -2 20.959 7.30824 7
0 -15 -2 16.99 10.1694 5
-15 15 2 27.8603 8.38159 10
15 -15 2 3.15059 9.95645 5
-15 15 -2 25.2422 8.4862 10
0 15 2 21.5305 7.88466 11
15 -15 2 21.4042 12.22 4
8 -16 -2 -3.4348 5.73361 8
-8 16 -2 0.14817 5.21173 10
16 -8 2 17.5702 11.5982 4
-8 -8 2 7.59167 6.65191 9
8 -16 2 3.92341 6.20047 8
8 -16 -2 13.3986 10.8922 5
8 8 -2 20.3282 15.6702 6
8 8 2 7.73108 12.968 6
-8 -8 -2 -0.4227 5.8255 9
-16 8 2 1.55615 6.90315 10
8 -16 2 18.203 10.4197 5
16 -8 -2 27.8791 12.5639 4
9 -16 2 123.279 16.5896 5
16 -7 2 129.91 17.7852 4
16 -9 -2 124.641 17.2476 4
9 7 -2 79.7828 18.7123 6
9 -16 2 91.1219 11.5168 8
-7 -9 2 91.0122 13.5884 9
7 -16 -2 143.418 17.0131 5
7 9 2 109.45 18.1272 6
-9 16 -2 70.4452 9.55445 10
-16 9 2 87.6636 11.2599 10
7 -16 2 95.4045 10.0869 8
16 -6 2 56.3513 13.878 4
10 -16 2 58.4686 11.8599 5
10 6 -2 64.3383 16.7043 6
-10 -6 -2 37.6707 8.52868 9
-6 -10 2 48.7038 9.77759 9
6 -16 -2 32.6382 8.40314 8
16 -10 -2 51.7818 12.8262 4
10 -16 2 26.7305 6.40473 8
6 10 2 12.9175 12.3678 6
-16 6 2 3.3978 11.1379 10
10 6 2 33.5406 14.0302 6
-10 16 -2 31.9621 7.59204 10
6 -16 2 9.44374 5.75236 8
6 -16 2 39.0425 11.597 5
6 10 -2 13.0409 6.66295 11
-16 10 2 29.4926 9.09131 10
16 -10 2 49.5531 12.9532 4
16 -10 2 25.5857 7.15857 7
16 -6 -2 51.3449 13.2516 4
10 -16 -2 32.2482 11.7657 5
16 -6 -2 36.7766 12.4375 6
16 -5 2 21.6697 12.3844 6
11 5 -2 43.4596 16.0512 6
16 -5 2 26.4593 12.4748 4
-5 -11 2 34.5042 9.16809 9
16 -11 -2 30.8448 8.29905 7
5 -16 -2 34.7642 10.9397 5
-11 -5 -2 39.2852 9.55269 9
5 -16 -2 31.8918 8.30532 8
11 -16 2 46.4964 11.3718 5
16 -11 -2 35.4072 11.9954 4
11 -16 -2 61.8298 13.2058 5
11 5 2 42.9181 14.0071 6
16 -5 -2 72.2031 15.2847 6
-11 16 -2 48.2366 9.24734 10
16 -11 2 64.0229 9.65451 7
5 11 -2 47.3725 9.46217 11
16 -11 2 74.123 14.4475 4
-16 11 2 54.5073 11.1182 10
5 -16 2 64.8345 12.904 5
12 4 -2 143.318 22.7832 6
12 -16 2 117.858 15.1783 5
16 -12 -2 85.9887 11.3001 7
-4 -12 2 79.6136 11.3807 9
16 -4 2 120.748 17.1269 6
-12 -4 -2 91.5331 11.8395 9
16 -12 -2 136.094 19.068 4
4 -16 -2 115.902 16.7585 5
4 -16 -2 94.2879 11.419 8
16 -12 2 148.972 20.3028 4
4 12 -2 125.965 15.1617 11
16 -4 -2 151.307 21.923 6
-16 12 2 123.815 16.021 10
16 -12 2 128.033 14.5794 7
12 4 2 144.413 21.2694 6
12 -16 -2 128.86 17.813 5
4 -16 2 139.467 18.0825 5
-12 16 -2 125.274 14.4656 10
3 -16 -2 35.1688 8.26414 8
3 13 2 32.0111 8.03214 11
-13 16 2 22.4881 6.66513 10
13 3 -2 43.6404 14.5351 6
13 -16 2 -0.3495 11.7951 4
-3 -13 2 28.3441 8.54992 9
-16 3 2 3.96901 9.85358 10
16 -13 -2 39.6638 13.1774 4
16 -13 -2 47.8633 9.26874 7
16 -3 2 40.6459 13.9498 6
-16 13 -2 33.1332 8.45157 10
-13 -3 -2 40.6992 9.07829 9
3 -16 -2 36.3577 11.3492 5
13 -16 2 51.3234 12.0784 5
13 -16 -2 25.6172 11.6169 4
16 -13 2 49.2969 13.9411 4
3 -16 2 26.0509 10.9839 5
3 13 -2 37.7793 9.03542 11
13 -16 -2 11.7633 9.85813 5
-13 16 -2 40.3732 9.70739 10
16 -3 -2 51.6398 15.0286 6
-16 13 2 36.7435 9.3905 10
13 3 2 50.6297 15.0294 6
16 -13 2 44.9942 8.83531 7
-3 16 2 40.1668 8.58848 11
-14 16 2 27.9066 7.85987 10
16 -14 -2 38.0524 13.2825 4
16 -14 -2 40.5425 8.9128 7
-16 2 2 3.15219 10.3504 10
14 -16 2 32.2254 11.5252 5
14 -16 2 16.7468 10.1457 4
-2 -14 2 30.6386 8.65493 9
16 -2 2 31.3611 13.6659 6
2 -16 -2 23.689 7.51766 8
-2 16 -2 30.3521 8.62867 11
2 -16 -2 30.8484 10.8632 5
-16 14 -2 30.2996 9.45906 10
14 2 -2 53.3573 15.8794 6
2 14 2 38.0861 8.63751 11
-14 -2 -2 43.1246 9.41603 9
-2 16 2 63.7125 9.34011 11
-14 16 -2 63.7034 10.2527 10
14 -16 -2 56.8585 13.4429 4
16 -2 -2 47.8123 14.7651 6
-16 14 2 61.9689 10.2008 10
14 2 2 53.7313 14.7527 6
16 -14 2 55.5363 13.7663 4
-16 2 -2 49.1427 9.56658 9
16 -14 2 46.8593 9.15189 7
2 -16 2 40.6411 11.2965 5
2 14 -2 43.2643 9.29078 11
-2 -14 -2 29.0779 9.54909 5
-1 16 -2 -2.1001 4.84832 10
-15 16 2 20.3075 8.04345 10
-15 -1 -2 15.48 7.86748 9
-1 16 -2 23.1994 9.03723 11
16 -15 -2 15.8427 7.37191 7
15 -16 2 4.85884 9.35893 5
1 -16 -2 13.3228 6.9688 8
1 15 2 18.1309 7.86647 11
15 1 -2 34.5408 15.6081 6
1 -16 -2 15.436 10.1406 5
-16 1 2 2.79194 7.57481 10
-16 15 -2 2.39296 8.38534 10
16 -15 -2 20.0092 13.2235 4
15 -16 2 21.0406 11.0089 4
15 -16 2 -2.0451 5.77747 7
-1 -15 2 15.5037 7.85848 9
16 -1 2 12.5228 13.41 6
15 -16 -2 19.0782 11.6304 4
-16 1 -2 12.7944 8.05953 9
-1 -15 -2 7.90578 8.5808 5
16 -15 2 15.1449 7.66185 7
15 -16 -2 4.272 6.50898 7
15 1 2 17.483 13.9117 6
1 15 -2 15.2702 8.4376 11
16 -1 -2 14.2993 14.3999 6
-15 16 -2 8.21094 8.1856 10
-1 16 2 12.7493 7.78062 11
-16 15 2 1.21933 8.16029 10
16 -15 2 0.82104 11.8563 4
16 0 2 14.1815 13.7706 6
16 -16 -2 1.83964 6.70164 7
16 -16 2 9.57204 7.03409 7
16 -16 2 19.3168 11.7985 4
0 -16 -2 3.25667 9.35644 5
0 16 2 4.03036 7.9547 11
-16 0 2 2.47748 9.15101 10
0 16 -2 -1.4967 4.88735 10
0 -16 -2 0.5529 6.76635 8
0 16 -2 -2.0289 8.18231 11
-16 16 2 4.25252 7.61122 10
16 0 -2 5.58267 14.3322 6
16 -16 -2 10.5247 11.9734 4
-16 16 -2 -0.8674 8.53532 10
-16 0 -2 -3.9894 7.54359 9
8 -17 -2 127.508 14.8042 8
9 8 -2 158.8 24.3413 6
9 -17 2 139.817 14.2889 8
8 9 2 159.941 22.7008 6
-8 17 -2 119.935 13.4268 10
-8 -9 2 136.088 16.4488 9
-17 8 2 121.959 15.5281 10
-9 -8 -2 111.953 15.2068 9
17 -9 -2 162.41 19.7247 4
8 -17 -2 155.456 19.4043 5
17 -8 2 98.3414 12.785 7
9 -17 2 167.129 18.2139 5
17 -8 2 140.669 21.4645 4
-9 17 -2 106.695 11.6841 10
9 8 2 113.06 17.8464 6
-8 -9 -2 109.345 12.4256 9
8 9 -2 78.0206 10.641 11
-17 9 2 103.572 12.9333 10
8 -17 2 86.9647 14.0805 5
17 -9 2 87.3064 11.0831 7
9 -17 -2 88.8299 14.5721 5
8 -17 2 94.9484 12.7015 8
17 -8 -2 99.488 16.1003 4
17 -9 2 112.517 16.7381 4
9 -17 -2 101.936 11.556 8
-9 -8 2 106.49 14.9054 9
17 -10 -2 17.2669 11.5452 4
7 -17 -2 11.9805 7.9255 8
-10 -7 -2 13.1467 8.65985 9
10 7 -2 23.9247 15.8519 6
7 -17 -2 34.6235 12.0902 5
-7 -10 2 25.5088 10.0045 9
7 10 2 -0.6984 12.0096 6
-7 17 -2 18.0782 7.16878 10
17 -7 2 22.28 12.9807 4
17 -7 2 0.48835 6.27968 7
17 -10 -2 22.6803 8.27714 7
10 -17 2 40.6574 11.739 5
10 -17 2 18.6601 6.7653 8
-17 7 2 20.6904 8.6509 10
10 -17 -2 55.1704 12.7218 5
17 -10 2 51.8083 9.47506 7
-10 -7 2 47.5888 10.1642 9
17 -10 2 58.2856 13.1789 4
-17 10 2 82.3327 11.7064 10
10 7 2 62.2209 15.5717 6
7 -17 2 50.1784 8.41344 8
17 -7 -2 43.022 13.2657 4
-10 17 -2 73.1012 10.5254 10
-7 -10 -2 32.6501 8.54808 9
10 -17 -2 46.193 8.83461 8
7 10 -2 59.5871 9.56758 11
7 -17 2 70.4312 13.11 5
-6 -11 2 153.891 17.8848 9
-17 6 2 123.575 14.557 10
6 -17 -2 150.621 15.7536 8
17 -11 -2 160.748 20.0291 4
11 -17 2 156.504 18.6071 5
17 -6 2 158.607 21.8618 4
-6 17 -2 124.743 13.3751 10
17 -11 -2 136.107 15.9205 7
-11 -6 -2 146.031 15.9765 9
11 -17 2 127.888 14.5203 8
11 6 -2 216.793 25.7795 6
6 -17 -2 174.866 19.4443 5
11 -17 -2 179.582 20.4419 5
-6 17 2 140.278 15.715 11
17 -11 2 210.803 21.8225 4
-11 17 -2 167.212 16.3727 10
6 -17 2 162.077 16.1549 8
11 6 2 177.555 23.4317 6
-17 11 2 165.183 17.5944 10
-11 -6 2 177.076 17.7415 9
17 -6 -2 178.672 21.3379 6
6 -17 2 178.978 20.7681 5
6 11 -2 155.543 17.2247 11
17 -11 2 178.927 17.2082 7
-5 -12 2 81.5117 11.2998 9
12 5 -2 79.7725 17.3306 6
17 -12 -2 85.7924 14.9098 4
5 12 2 50.0993 8.35093 11
17 -5 2 15.0782 11.3074 6
5 -17 -2 52.766 12.1173 5
-5 17 -2 53.5903 8.13988 10
12 -17 2 71.4825 12.8636 5
5 -17 -2 75.5766 9.66749 8
-17 12 -2 28.8238 8.13046 10
17 -12 -2 51.2224 9.01136 7
-17 5 2 45.3935 9.44202 10
12 -17 2 44.3992 7.81702 8
-5 17 2 45.2273 9.24907 11
17 -12 2 57.7711 9.82202 7
17 -5 -2 51.9211 14.6202 6
5 12 -2 47.5932 9.86383 11
5 -17 2 62.7288 9.23755 8
12 -17 -2 44.6942 12.5216 5
-17 12 2 52.1953 11.4833 10
5 -17 2 47.3482 12.1453 5
12 5 2 62.2343 15.0918 6
17 -12 2 38.9601 12.9841 4
-12 17 -2 67.1813 10.6144 10
-12 -5 2 51.4188 9.95219 9
4 -17 -2 41.9888 12.0524 5
4 -17 -2 43.8873 9.05019 8
13 4 -2 69.6876 16.634 6
-4 17 -2 44.6299 8.00816 10
4 13 2 37.4235 8.48802 11
-17 4 2 28.9764 8.56506 10
-17 13 -2 40.7085 10.0785 10
-4 -13 2 58.0907 10.2206 9
-13 17 2 33.1168 7.96791 10
17 -13 -2 55.8059 13.7957 4
17 -13 -2 62.6127 9.88494 7
13 -17 2 40.8119 7.94276 8
13 -17 2 31.9674 11.2956 5
-13 -4 -2 57.6714 10.4367 9
17 -4 2 51.1256 14.2401 6
-4 17 2 30.4439 8.46073 11
4 13 -2 49.828 9.84186 11
13 4 2 39.9479 14.2829 6
-17 13 2 52.9869 10.6488 10
4 -17 2 26.2325 7.72462 8
17 -13 2 50.7773 9.41457 7
4 -17 2 44.2345 12.1122 5
17 -4 -2 28.0963 13.5141 6
-17 4 -2 25.4955 8.00467 9
13 -17 -2 16.9144 10.7392 5
17 -13 2 36.2476 13.2693 4
-13 -4 2 29.9202 8.43666 9
-13 17 -2 56.0743 10.6184 10
-14 17 2 41.236 8.50827 10
-3 17 -2 60.2579 10.2476 11
-17 14 -2 28.0952 9.68456 10
3 14 2 54.0927 9.30083 11
17 -14 -2 54.1685 14.1277 4
14 -17 2 45.2136 7.87988 8
-14 -3 -2 58.1808 9.69119 9
14 3 -2 62.4287 17.0489 6
-3 -14 2 40.1361 9.25747 9
17 -3 2 40.624 14.4132 6
3 -17 -2 37.2427 12.0321 5
14 -17 2 35.0933 11.4705 5
-17 3 2 48.3124 9.2335 10
-3 17 -2 40.0497 7.78608 10
17 -14 -2 62.0438 9.77544 7
3 -17 -2 50.3234 8.80041 8
3 -17 2 30.2839 11.3481 5
17 -14 2 45.8117 13.7341 4
3 14 -2 46.3974 9.88861 11
-14 -3 2 24.0162 7.88411 9
3 -17 2 22.1719 6.99902 8
17 -14 2 41.0264 8.78027 7
14 3 2 54.0805 15.7726 6
-17 14 2 39.0622 9.84834 10
-14 17 -2 61.5056 11.0248 10
17 -3 -2 38.692 14.6758 6
-3 17 2 39.9493 8.39386 11
-17 3 -2 38.8066 9.2814 9
17 -15 -2 1.07634 7.18381 7
-2 17 -2 3.28834 8.60499 11
-17 15 -2 18.986 10.0256 10
-2 17 -2 5.72547 6.28167 10
2 -17 -2 2.52049 6.87985 8
2 15 2 5.96238 7.8439 11
15 2 -2 18.3205 14.9245 6
15 -17 2 -1.9525 9.28246 5
-15 -2 -2 0.80418 7.52954 9
-2 -15 2 2.35503 7.77847 9
-15 17 2 5.96816 7.21889 10
2 -17 -2 16.3494 10.6193 5
15 -17 2 8.64525 5.74463 8
17 -2 2 7.45243 13.6773 6
-17 2 2 6.94093 7.43709 10
17 -15 -2 18.2557 12.5317 4
-17 15 2 11.2654 8.30804 10
-2 17 2 17.0336 8.12988 11
-15 -2 2 6.08196 5.87043 9
15 -17 -2 9.89441 6.25382 7
17 -15 2 11.3442 7.79375 7
-17 2 -2 27.1496 8.61128 9
2 -17 2 -4.3543 6.81432 8
-15 17 -2 18.674 8.76208 10
17 -15 2 12.2839 12.0384 4
2 15 -2 22.0035 8.69952 11
15 -17 -2 6.89934 10.1198 4
15 2 2 15.5827 13.7604 6
17 -2 -2 22.1961 14.5466 6
-1 17 -2 11.5773 5.91664 10
-17 16 -2 24.9171 9.24956 10
-17 1 2 6.2655 7.15365 10
16 -17 2 20.2633 6.62929 7
17 -1 2 31.0132 14.4492 6
-1 17 -2 35.7118 9.15577 11
1 -17 -2 22.3839 7.35523 8
16 1 -2 52.9306 16.5793 6
16 -17 2 -0.7856 5.92601 8
17 -16 -2 29.3161 13.1347 4
-1 -16 2 29.6565 8.44938 9
1 16 2 26.3375 8.63131 11
1 -17 -2 16.0811 9.36258 5
-16 17 2 25.5764 8.39595 10
17 -16 -2 20.0624 7.14601 7
-16 -1 -2 17.6827 7.83611 9
16 -17 -2 13.0959 10.8538 4
1 16 -2 -2.4724 6.05342 10
17 -16 2 18.0299 7.80481 7
17 -16 2 13.6815 11.5312 4
17 -1 -2 7.80454 14.5483 6
-16 17 -2 28.678 9.264 10
-16 -1 2 0.2043 5.502 9
-1 -16 -2 1.60908 5.1158 8
-17 16 2 15.2507 8.20176 10
-17 1 -2 17.4719 8.23076 9
-1 17 2 16.3172 8.33341 11
16 -17 -2 14.0853 6.89918 7
16 1 2 27.8493 15.1745 6
1 16 -2 16.6526 8.12837 11
0 17 2 7.71351 8.37119 11
0 -17 -2 1.57548 6.31727 8
0 17 -2 -2.4568 4.68353 10
17 -17 -2 2.69734 6.66181 7
-17 0 2 2.22463 6.56079 10
-17 0 -2 7.88627 7.67111 9
17 0 2 1.07606 14.0583 6
17 -17 -2 9.47487 10.3239 4
17 -17 2 7.81591 6.9537 7
17 0 -2 11.9319 14.6857 6
-17 17 -2 7.7536 8.68125 10
0 17 -2 1.38742 7.82777 11
0 -17 2 4.28259 7.45518 9
-17 17 2 13.2773 8.2331 10
9 -18 -2 14.5121 7.71212 8
18 -9 -2 15.1407 7.41375 7
9 -18 2 17.6948 11.1148 5
18 -9 2 15.8026 7.70869 7
9 9 2 9.85633 12.6955 6
9 -18 -2 17.131 10.9463 5
18 -9 -2 17.3496 12.3601 4
-9 -9 2 27.6198 9.80691 9
-18 9 2 24.398 9.96999 10
9 -18 2 20.8005 7.5312 8
-9 -9 -2 15.4292 8.49258 9
9 9 -2 19.1025 7.49258 11
18 -9 2 25.7984 12.772 4
-9 18 -2 10.1385 7.63588 10
-8 -10 2 90.7822 12.0027 9
10 8 -2 76.2416 9.56999 11
18 -8 2 71.3866 15.041 4
8 -18 -2 66.3297 9.89172 8
-8 18 -2 107.78 10.9719 10
-18 8 2 63.9651 11.4961 10
18 -10 -2 88.2151 10.8094 7
10 -18 2 70.2925 9.5804 8
18 -8 2 81.7179 10.2876 7
8 -18 -2 109.002 15.2654 5
10 -18 2 107.833 15.3446 5
18 -10 -2 58.5195 14.0363 4
-10 -8 -2 74.8475 11.3751 9
-18 10 2 114.663 13.4752 10
8 -18 2 100.218 14.8505 5
-8 -10 -2 104.76 12.2468 9
10 -18 -2 103.955 11.704 8
8 10 -2 93.9411 11.4834 11
10 8 2 104.276 17.9611 6
8 -18 2 114.962 11.4654 8
10 -18 -2 96.9889 15.542 5
18 -10 2 102.175 11.6469 7
18 -10 2 79.0838 15.1647 4
-10 -8 2 121.662 15.8455 9
-10 18 -2 109.867 12.0357 10
18 -8 -2 81.5358 15.5075 4
18 -7 2 4.09393 6.0498 7
-7 18 -2 33.3569 8.06806 10
-7 -11 2 37.0924 10.1541 9
-18 11 -2 3.79659 6.54105 10
18 -11 -2 21.6179 7.92364 7
7 -18 -2 15.9872 7.94455 8
-11 -7 -2 31.8078 9.37867 9
18 -7 2 25.3573 12.7868 4
7 -18 -2 37.1246 12.4658 5
11 -18 2 22.7107 7.0922 8
-18 7 2 22.2587 9.13158 10
11 -18 2 27.4798 10.5727 5
18 -11 -2 30.2473 12.9627 4
11 7 -2 32.9442 16.3592 6
18 -11 2 33.9834 13.0329 4
-7 -11 -2 30.3995 8.80394 9
7 -18 2 29.2351 8.44911 8
18 -11 2 37.7883 8.38857 7
7 11 -2 31.9982 8.6769 11
-18 11 2 28.1472 10.2153 10
-11 -7 2 36.5431 10.0254 9
11 7 2 29.3713 14.0852 6
-11 18 -2 35.0488 9.23523 10
11 -18 -2 27.9499 11.6284 5
7 -18 2 47.0318 12.9435 5
11 -18 -2 33.4626 8.77251 8
-7 18 2 29.9365 8.26784 11
12 6 -2 23.7964 16.1438 6
-12 -6 -2 23.1446 9.28286 9
12 -18 2 23.9489 7.28897 8
6 -18 -2 27.6152 8.48787 8
6 12 2 21.461 7.75329 11
18 -12 -2 22.1263 8.04779 7
-6 -12 2 27.9576 9.48376 9
-18 12 -2 30.7711 9.37634 10
-18 6 2 23.7629 9.00697 10
-6 18 -2 27.731 7.80437 10
18 -6 2 -5.3188 17.8077 4
6 -18 -2 37.5475 12.5329 5
18 -12 -2 27.9032 12.4871 4
-12 18 2 19.5539 7.69085 10
12 -18 2 32.7527 10.987 5
6 -18 2 31.0744 8.35434 8
6 -18 2 34.2748 11.8325 5
18 -12 2 32.3638 13.6287 4
12 -18 -2 29.5563 12.1583 5
18 -6 -2 -1.2956 10.7138 6
-6 18 2 16.1594 7.75184 11
12 -18 -2 15.3122 8.11723 8
-12 18 -2 29.6112 9.01361 10
-12 -6 2 30.6139 9.68894 9
6 12 -2 33.0156 9.0212 11
-18 12 2 45.141 11.238 10
18 -12 2 42.9151 9.27279 7
12 6 2 25.4569 13.4619 6
-6 -12 -2 29.286 8.52979 9
5 -18 -2 13.5643 10.7631 5
-13 -5 -2 3.48925 8.77047 9
18 -13 -2 29.4774 13.5691 4
-5 18 -2 -4.4786 7.10905 10
13 5 -2 11.7557 15.2682 6
-13 18 2 8.16127 7.879 10
13 -18 2 14.1389 6.82668 8
-5 18 -2 -1.7128 7.09424 11
-5 -13 2 11.3465 8.53257 9
-18 5 2 -0.0657 8.14339 10
13 -18 2 15.632 10.9043 5
18 -13 -2 17.9421 7.99192 7
5 -18 -2 10.7167 7.42895 8
-18 13 -2 2.86502 9.1006 10
5 13 2 6.98193 7.67039 11
-13 18 -2 24.9183 9.10834 10
-5 -13 -2 14.9906 7.61045 9
-18 5 -2 16.3671 7.98482 9
13 -18 -2 0.70247 8.91687 5
18 -13 2 24.6865 8.45838 7
13 5 2 18.9762 13.5309 6
-5 18 2 18.4972 8.03502 11
-18 13 2 23.4906 9.76394 10
5 13 -2 24.4608 8.37843 11
5 -18 2 11.0156 11.2679 5
-13 -5 2 18.6873 9.02063 9
18 -13 2 15.3563 13.3076 4
13 -18 -2 6.48329 6.07973 8
5 -18 2 21.1008 7.91974 8
18 -5 -2 14.7191 12.4651 6
-14 -4 -2 16.0266 8.694 9
14 -18 2 13.5616 10.6125 5
4 14 2 17.1317 7.57759 11
18 -14 -2 22.7043 8.31032 7
-18 14 -2 17.9767 9.15761 10
-14 18 2 13.6434 7.73552 10
-4 -14 2 27.8473 8.93237 9
-4 18 -2 17.4904 7.55471 10
18 -4 2 -1.1738 10.4935 6
18 -14 -2 24.8341 12.8786 4
4 -18 -2 21.5216 7.61313 8
14 -18 2 12.1217 6.91945 8
-4 18 -2 18.7817 9.12084 11
-18 4 2 8.58606 8.74576 10
4 -18 -2 16.3668 10.8182 5
14 4 -2 23.8211 14.972 6
-14 18 -2 27.635 9.43574 10
4 14 -2 17.3857 8.85847 11
-14 -4 2 19.9215 8.77617 9
4 -18 2 11.7495 10.3852 5
18 -4 -2 14.7558 13.0179 6
14 4 2 23.952 13.361 6
-18 4 -2 18.0238 7.8919 9
-4 -14 -2 9.01659 6.97183 9
18 -14 2 12.2432 12.8013 4
4 -18 2 24.0522 8.1161 8
18 -14 2 21.4987 8.12244 7
-18 14 2 9.48885 9.15878 10
-4 18 2 14.5797 7.66433 11
-15 18 2 16.2891 7.63249 10
3 15 2 20.3537 7.78809 11
-15 -3 -2 31.5347 8.66037 9
3 -18 -2 17.5591 7.13249 8
-18 3 2 12.872 8.44357 10
-18 15 -2 24.1721 9.9852 10
-3 -15 2 25.2974 8.60804 9
18 -3 2 5.64644 11.6509 6
15 3 -2 39.6188 15.7241 6
18 -15 -2 22.0075 7.38222 7
3 -18 -2 16.8049 10.0435 5
15 -18 2 -0.496 9.9925 5
18 -15 -2 28.5962 13.1586 4
-3 18 -2 15.8199 7.52738 10
-3 18 -2 29.6877 9.45761 11
15 -18 2 30.2473 7.30267 8
-3 -15 -2 6.57279 6.34883 9
15 3 2 11.5022 14.3548 6
3 -18 2 8.3037 6.72528 8
-3 18 2 6.2875 7.56779 11
-18 15 2 10.3525 8.72179 10
18 -3 -2 13.0306 13.1256 6
3 15 -2 17.0658 8.58828 11
18 -15 2 17.4002 12.111 4
-18 3 -2 8.56891 7.75433 9
15 -18 -2 -4.4209 4.28927 7
18 -15 2 15.5967 7.55121 7
-15 18 -2 15.2727 9.11562 10
-15 -3 2 6.2583 7.7784 9
18 -16 -2 31.8054 7.60987 7
16 -18 2 33.7085 6.99893 8
2 16 2 33.7328 8.68806 11
-2 18 -2 25.9934 8.92075 11
-18 2 2 12.6507 8.48379 10
-18 16 -2 41.4345 9.95283 10
18 -16 -2 31.1492 12.1879 4
-16 -2 -2 37.0182 8.95676 9
2 -18 -2 30.4408 7.60456 8
-2 18 -2 24.4394 7.43817 10
18 -2 2 12.0599 11.7099 6
-16 18 2 40.71 8.6808 10
16 2 -2 40.6341 15.3114 6
-2 -16 2 44.4641 9.37752 9
18 -16 2 18.7131 7.6449 7
16 -18 -2 15.0487 6.52451 7
-2 18 2 18.0447 8.0306 11
-2 -16 -2 -2.3977 7.34995 9
18 -2 -2 10.7728 13.202 6
18 -16 2 8.58722 10.8949 4
2 16 -2 14.5155 7.97355 11
-16 18 -2 18.1842 9.10716 10
16 2 2 13.1001 14.6156 6
-16 -2 2 20.4789 7.35295 9
-18 2 -2 11.7926 7.95357 9
-18 16 2 16.3094 8.31325 10
1 17 2 13.7189 7.82548 11
-17 18 2 11.0166 7.68432 10
-17 -1 -2 4.59471 7.3174 9
17 -18 2 -2.6481 4.8107 8
-1 18 -2 4.88827 5.89412 10
18 -17 -2 0.90648 9.44047 4
18 -17 -2 11.2336 6.6129 7
-1 18 -2 9.45911 8.09525 11
1 -18 -2 8.45179 6.44459 8
17 1 -2 14.3153 14.4273 6
-18 1 2 11.71 7.25352 10
-18 17 -2 15.5933 9.41235 10
-1 -17 2 6.59785 7.78194 9
18 -1 2 -0.96 11.345 6
17 -18 2 7.26213 6.06975 7
17 -18 -2 4.78726 6.33841 7
1 17 -2 1.33191 7.41924 11
18 -17 2 1.65889 6.8299 7
-17 -1 2 -0.1457 4.30306 9
-18 1 -2 7.9622 7.49222 9
1 -18 2 4.84702 7.29726 9
1 17 -2 -3.2515 4.63437 10
-1 18 2 8.73266 7.96702 11
-1 -17 -2 1.85297 5.02969 8
18 -1 -2 9.4935 12.7032 6
17 1 2 9.29077 13.5112 6
-18 17 2 -3.967 7.69678 10
-17 18 -2 8.89581 8.76856 10
0 -18 -2 12.9777 5.95965 8
0 18 -2 15.7953 7.59848 11
-18 0 -2 4.87554 7.27076 9
0 18 -2 -1.7772 4.55703 10
-18 18 2 15.8768 8.00385 10
18 0 -2 0.79163 10.6337 6
0 18 2 16.9837 7.90558 11
0 -18 2 9.59527 7.6665 9
-18 0 2 2.22623 7.03586 10
18 -18 2 10.9854 6.57187 7
18 -18 -2 10.8122 6.44539 7
-18 18 -2 6.83211 8.60794 10
-9 -10 2 22.7745 9.40681 9
-10 -9 -2 23.8884 8.38437 9
19 -9 2 17.59 12.9991 4
10 -19 2 26.1419 12.0243 5
10 -19 2 28.5874 7.87852 8
9 -19 -2 21.2414 7.23456 8
19 -9 2 23.6362 8.1185 7
10 9 -2 27.3899 7.84877 11
19 -10 -2 36.738 13.1977 4
-9 19 -2 29.1756 8.35447 10
-19 9 2 19.8947 9.37899 10
9 -19 -2 21.2783 10.302 5
19 -10 -2 13.5218 7.66716 7
9 -19 2 21.5655 7.62571 8
-9 19 2 5.99436 6.61905 11
9 -19 2 17.411 11.1645 5
-9 -10 -2 17.7402 8.55203 9
19 -10 2 17.7098 7.90226 7
19 -10 2 7.27512 12.2152 4
-19 10 2 6.44266 9.339 10
-10 19 -2 8.83004 7.40207 10
9 10 -2 11.0753 7.46134 11
10 -19 -2 12.7326 7.13387 8
19 -9 -2 5.62698 11.4107 4
-10 -9 2 17.3305 9.02468 9
10 -19 -2 7.1994 10.1739 5
10 9 2 -0.7212 13.2382 6
19 -9 -2 17.4661 7.4046 7
11 -19 2 32.7092 7.02574 8
-8 19 -2 20.1898 7.41505 10
-19 11 -2 13.4648 7.01653 10
8 -19 -2 26.034 11.2764 5
-11 19 2 1.89708 5.70085 10
-19 8 2 15.7531 9.03121 10
19 -11 -2 33.695 13.3475 4
19 -8 2 23.3602 12.2461 4
19 -11 -2 11.5248 7.35688 7
-11 -8 -2 31.4491 9.04294 9
11 -19 2 19.6943 10.7083 5
8 -19 -2 20.7317 7.69073 8
-8 -11 2 30.1517 9.22923 9
19 -8 2 24.8071 8.06571 7
11 8 -2 16.4461 6.901 11
8 11 -2 23.2874 7.68228 11
-19 11 2 30.8372 9.99461 10
-11 -8 2 28.5984 9.32895 9
8 -19 2 21.2849 7.7278 8
-8 19 2 20.8896 7.51991 11
-19 8 -2 1.15885 6.07881 9
-11 19 -2 18.1047 7.77895 10
11 8 2 19.9124 12.6192 6
11 -19 -2 23.611 11.0295 5
-8 -11 -2 32.527 8.49724 9
19 -11 2 31.0328 13.3034 4
19 -11 2 21.1757 7.88554 7
11 -19 -2 16.2318 7.58841 8
8 -19 2 31.2229 11.6621 5
19 -12 -2 30.2498 7.98037 7
19 -7 2 20.5379 6.95878 7
-12 -7 -2 39.8469 9.5268 9
7 12 2 25.3151 7.7084 11
-7 19 -2 15.9147 7.65797 10
-19 7 2 28.5238 9.39742 10
-19 12 -2 18.2964 8.68911 10
-7 -12 2 56.8167 10.1717 9
12 -19 2 7.10299 10.1833 5
12 7 -2 -3.9595 14.5448 6
7 -19 -2 41.1418 12.5511 5
12 -19 2 32.7027 7.13783 8
19 -12 -2 20.8059 12.1197 4
7 -19 -2 41.412 8.6862 8
-12 19 2 29.8262 8.1963 10
7 -19 2 26.1988 7.84462 8
-7 19 2 15.3308 7.66199 11
12 -19 -2 14.7083 7.24161 8
-12 19 -2 23.3123 8.49044 10
12 7 2 7.56307 13.0683 6
-12 -7 2 17.8359 9.03713 9
19 -12 2 19.4476 7.87259 7
19 -12 2 27.9596 12.9473 4
7 12 -2 22.7415 8.354 11
-19 7 -2 3.51228 5.95131 9
-7 -12 -2 28.9772 8.0814 9
-19 12 2 22.0824 10.2647 10
7 -19 2 17.9785 11.6637 5
12 -19 -2 21.1763 10.5818 5
19 -13 -2 6.55441 11.6009 4
-19 6 2 -3.5414 8.31565 10
-13 -6 -2 5.75919 8.55684 9
13 -19 2 17.3027 10.7981 5
6 -19 -2 7.79312 10.8188 5
6 13 2 4.52175 7.34467 11
-13 19 2 1.45 7.75525 10
-6 -13 2 2.11994 7.93864 9
-19 13 -2 2.58914 8.58157 10
-6 19 -2 -8.1107 7.26477 10
13 6 -2 7.01171 14.3179 6
6 -19 -2 4.03744 7.51634 8
19 -13 -2 -0.2322 7.17338 7
13 -19 2 2.39276 6.39689 8
-19 6 -2 5.638 7.26364 9
6 13 -2 4.25416 7.47679 11
13 -19 -2 2.05366 6.61413 8
19 -13 2 12.7694 8.17864 7
6 -19 2 4.77814 7.5012 8
19 -13 2 2.41425 12.374 4
-19 13 2 -1.6137 9.15546 10
6 -19 2 4.37845 10.8948 5
-13 -6 2 4.67379 8.39046 9
-6 19 2 10.2929 7.36482 11
-6 -13 -2 8.4978 7.43925 9
13 6 2 12.8509 12.9264 6
-13 19 -2 4.59077 7.76902 10
5 -19 -2 6.04249 7.03462 8
-19 14 -2 -0.7632 8.67696 10
19 -14 -2 18.7221 12.8797 4
5 14 2 14.3538 7.74187 11
-5 19 -2 7.15359 7.40876 10
5 -19 -2 13.5875 11.2729 5
-14 19 2 0.50006 7.62088 10
14 -19 2 8.99025 6.71644 8
-5 19 -2 12.9836 8.66919 11
19 -14 -2 2.91034 6.92405 7
14 5 -2 17.4905 14.4153 6
-19 5 2 -0.6993 8.14572 10
14 -19 2 4.81471 9.8338 5
-5 -14 2 11.8783 7.73767 9
-14 -5 -2 7.18906 8.4903 9
-5 19 2 6.10198 7.10806 11
5 -19 2 0.61772 7.83239 8
19 -14 2 4.4515 12.12 4
-5 -14 -2 2.37472 7.19988 9
-19 5 -2 -1.1883 7.39487 9
14 -19 -2 5.90895 6.10418 8
-14 19 -2 6.46922 8.77661 10
5 14 -2 8.21571 7.58214 11
-19 14 2 13.1711 9.53607 10
19 -14 2 10.4416 7.75052 7
5 -19 2 0.18781 8.65427 5
14 5 2 -1.3361 12.8466 6
-14 -5 2 4.53024 8.2006 9
-15 19 2 12.0631 7.78366 10
4 -19 -2 10.7416 6.79506 8
-4 19 -2 6.05097 7.58663 10
15 4 -2 6.76563 13.6311 6
-15 -4 -2 14.5266 8.32597 9
-4 19 -2 15.3313 8.76474 11
-19 15 -2 21.4331 9.67048 10
15 -19 2 7.24205 6.42904 8
4 15 2 6.32398 7.55112 11
4 -19 -2 16.3351 9.77108 5
19 -15 -2 12.3875 7.20769 7
19 -15 -2 17.5878 12.0064 4
-4 -15 2 11.1984 7.68758 9
-19 4 2 6.13086 8.13552 10
19 -15 2 8.96703 11.7547 4
19 -15 2 5.13061 7.42065 7
4 15 -2 10.6117 7.57504 11
4 -19 2 -0.1994 6.67534 8
-19 15 2 1.00299 8.63106 10
-19 4 -2 2.08261 7.36463 9
-15 -4 2 4.83088 7.90533 9
-4 -15 -2 7.16336 6.86598 9
-15 19 -2 10.8523 8.82878 10
15 4 2 9.15922 13.3154 6
-4 19 2 3.47576 7.37327 11
-19 3 2 14.5844 8.32689 10
-16 -3 -2 46.6226 8.70759 9
19 -16 -2 18.4841 10.7098 4
-3 19 -2 30.3298 8.01787 10
-3 -16 2 38.9043 8.5034 9
-19 16 -2 23.0792 9.2599 10
16 3 -2 20.3476 13.8859 6
16 -19 2 29.729 6.88229 8
3 16 2 46.8118 8.70197 11
-16 19 2 42.2562 8.79031 10
-3 19 -2 38.7694 9.14976 11
19 -16 -2 48.6204 8.09749 7
3 -19 -2 39.4733 7.68502 8
3 -19 2 24.1875 7.85142 9
-3 -16 -2 19.1584 6.47322 9
19 -16 2 30.5846 7.69275 7
-16 -3 2 32.548 8.46586 9
16 3 2 22.9935 13.6946 6
3 -19 2 25.941 6.94823 8
-16 19 -2 49.883 9.88141 10
-3 19 2 38.7743 8.31111 11
3 16 -2 46.0414 8.58375 11
-19 3 -2 33.1962 8.08295 9
19 -16 2 1.24272 9.96394 4
-19 16 2 33.6402 9.03708 10
17 -19 2 -3.6907 4.11965 7
-2 19 -2 9.96945 6.59022 10
-17 19 2 0.19224 7.32508 10
19 -17 -2 5.2808 6.41524 7
17 2 -2 -0.3367 11.6032 6
2 -19 -2 1.45159 6.01839 8
-19 2 2 4.18249 7.07045 10
-2 -17 2 2.99227 7.18447 9
-17 -2 -2 5.94946 7.18525 9
-2 19 -2 4.50903 7.61052 11
-19 17 -2 6.1542 8.75994 10
17 -19 2 5.08183 5.30063 8
2 17 2 7.24093 7.24578 11
-17 -2 2 4.50523 6.30355 9
2 -19 2 -3.4816 3.8333 8
-2 19 2 6.14272 7.30321 11
17 2 2 -2.4575 11.0835 6
-19 17 2 14.3225 8.40348 10
2 -19 2 6.68457 7.25146 9
17 -19 -2 4.80453 5.93437 7
-19 2 -2 4.94343 7.1105 9
19 -17 2 5.28552 6.6576 7
-17 19 -2 5.04002 8.07752 10
2 17 -2 7.20579 6.65392 11
-1 -18 2 1.45619 7.11786 9
-1 19 -2 -3.5875 4.66718 10
-1 19 -2 3.36058 7.01003 11
1 -19 -2 7.89069 5.71381 8
-19 18 -2 6.87801 8.41028 10
-19 1 2 3.63447 5.78549 10
-18 19 2 5.1632 7.34601 10
-18 -1 -2 4.04785 7.3172 9
19 -18 -2 12.6407 6.12751 7
18 -19 2 3.66402 5.43216 7
1 18 2 7.80983 7.03756 11
-19 18 2 -1.9372 7.45708 10
-18 -1 2 0.5373 4.20856 9
18 -19 -2 0.47328 5.89248 7
19 -18 2 0.71715 6.21535 7
-1 -18 -2 -1.4611 3.48138 8
1 -19 2 1.64965 6.96355 9
-18 19 -2 3.70119 7.94929 10
-19 1 -2 0.32221 6.70677 9
1 18 -2 7.69715 6.36475 11
-1 19 2 7.40255 7.28111 11
0 -19 -2 -3.297 4.60769 8
-19 0 -2 0.30818 6.6457 9
-19 19 -2 4.81818 7.86471 10
19 -19 2 2.86786 5.64897 7
0 19 -2 0.4227 5.86645 11
-19 19 2 10.3448 7.27316 10
19 -19 -2 0.92416 5.56799 7
0 -19 2 6.30145 6.83334 9
0 19 2 4.21212 7.05748 11
20 -10 -2 53.6299 8.41646 7
10 -20 2 70.1784 9.30123 8
10 10 -2 46.4393 8.5333 11
-10 -10 2 57.8339 9.88014 9
10 -20 -2 68.2164 8.68426 8
10 -20 2 70.9166 13.2705 5
-10 20 -2 56.3854 9.12562 10
-20 10 2 36.3607 9.80497 10
20 -10 2 59.5799 9.04769 7
10 -20 -2 40.2641 11.0069 5
-10 -10 -2 60.8758 9.66928 9
9 -20 -2 33.2115 7.44041 8
9 -20 -2 49.8939 11.6326 5
-9 20 -2 31.6431 7.96571 10
20 -11 -2 51.1361 8.09159 7
-11 -9 -2 55.7272 9.3183 9
11 -20 2 38.098 11.1123 5
11 -20 2 52.7501 8.04182 8
20 -9 2 40.264 8.27223 7
-20 11 -2 23.0498 7.02875 10
11 9 -2 35.3069 7.77874 11
-20 9 2 42.8667 9.44747 10
9 -20 2 49.4174 12.1256 5
20 -9 -2 36.4864 7.59398 7
20 -11 2 37.5235 8.17507 7
11 -20 -2 23.4825 9.81584 5
-11 -9 2 41.2782 9.35184 9
20 -11 2 39.0538 12.7622 4
-9 -11 -2 32.3953 8.17121 9
-9 20 2 40.6388 8.11838 11
11 -20 -2 53.517 7.91081 8
9 11 -2 40.1607 8.09361 11
-20 11 2 48.4158 10.2729 10
9 -20 2 55.9568 8.50016 8
-11 20 -2 52.1912 8.8202 10
8 12 2 32.7479 7.37987 11
8 -20 -2 30.4987 11.0684 5
-12 -8 -2 40.4948 9.05821 9
12 -20 2 20.0503 10.0503 5
12 8 -2 21.1373 5.96596 11
12 -20 2 51.5614 7.72168 8
-8 -12 2 40.2856 8.95445 9
-8 20 -2 32.5277 8.05154 10
-20 8 2 41.2563 9.19308 10
20 -8 2 40.8614 8.09925 7
-12 20 2 25.7712 7.94405 10
-20 12 -2 23.1368 8.48908 10
8 -20 -2 44.609 8.08677 8
20 -12 -2 29.7341 7.17633 7
20 -12 -2 17.7321 11.2743 4
20 -12 2 46.0781 8.44864 7
-12 -8 2 46.0602 9.78058 9
12 -20 -2 29.596 7.39906 8
-8 -12 -2 52.5593 8.93468 9
8 -20 2 61.08 12.4608 5
-20 12 2 52.1979 10.3808 10
8 12 -2 54.1311 8.69943 11
-12 20 -2 50.7767 8.89677 10
20 -12 2 49.9874 12.878 4
8 -20 2 57.8684 8.78738 8
-8 20 2 47.0801 8.55775 11
-20 7 2 17.3477 8.43204 10
7 -20 -2 32.5865 7.59699 8
13 -20 2 21.0532 6.79031 8
20 -13 -2 25.5197 11.5994 4
-20 13 -2 23.8034 8.5155 10
20 -7 2 11.1592 5.87333 7
-7 20 -2 32.0983 8.32138 10
-13 20 2 25.4473 7.97133 10
7 13 2 25.7019 7.68034 11
-13 -7 -2 30.6015 9.03484 9
7 -20 -2 31.2614 10.8595 5
-7 -13 2 34.2277 8.62137 9
20 -13 -2 30.8876 7.29872 7
13 -20 2 15.8355 9.28507 5
20 -13 2 17.1356 7.40557 7
13 -20 -2 22.4596 6.6925 8
7 -20 2 -2.9777 8.82699 5
20 -13 2 31.7252 12.5137 4
-7 -13 -2 36.2583 7.95545 9
-20 7 -2 21.0538 6.44738 9
-7 20 2 28.6842 7.74496 11
-20 13 2 31.5999 9.39845 10
-13 -7 2 38.8879 9.20916 9
13 7 2 -3.5033 22.1271 6
7 -20 2 30.9437 7.8206 8
7 13 -2 30.0386 7.6152 11
-13 20 -2 42.8757 8.82742 10
-14 20 2 3.22194 7.67651 10
6 14 2 2.37059 7.14971 11
-14 -6 -2 8.22325 8.17105 9
20 -14 -2 1.48587 10.2462 4
6 -20 -2 -2.0074 6.51419 8
-6 20 -2 0.92966 7.31928 10
6 -20 -2 -1.0522 9.16953 5
-6 -14 2 5.34773 7.21017 9
-20 6 2 4.33171 7.91137 10
14 -20 2 3.89344 6.29282 8
20 -14 -2 8.82566 6.29753 7
-20 14 -2 5.49804 8.73665 10
-6 20 -2 -2.8927 6.40743 11
-6 20 2 -3.8374 7.12814 11
-14 -6 2 -2.2855 7.77843 9
14 6 2 -2.0143 12.1192 6
20 -14 2 -2.565 10.4759 4
-20 14 2 4.18595 8.18517 10
-14 20 -2 4.22194 7.52212 10
6 14 -2 2.10472 6.73408 11
20 -14 2 12.4675 7.56249 7
6 -20 2 1.51378 6.65799 8
14 -20 -2 5.98322 5.8586 8
-20 6 -2 -0.8386 6.72722 9
-6 -14 -2 -2.5952 6.43739 9
15 -20 2 39.641 7.31366 8
20 -15 -2 29.961 7.17726 7
5 -20 -2 42.7497 7.58486 8
-5 20 -2 36.1703 8.41515 10
5 15 2 38.3807 7.98319 11
-15 20 2 32.9517 8.24736 10
-15 -5 -2 50.7966 9.03395 9
-20 5 2 22.8794 8.28004 10
-20 15 -2 21.1579 9.04259 10
-5 20 -2 38.4773 8.84772 11
-5 -15 2 39.6684 8.02944 9
-20 5 -2 56.1578 8.74683 9
20 -15 2 70.504 9.2194 7
5 -20 2 44.5177 8.0806 8
-5 -15 -2 41.8841 8.30757 9
-15 20 -2 87.0251 10.8606 10
-15 -5 2 71.5907 10.0144 9
5 15 -2 66.7635 9.11064 11
-5 20 2 45.4893 8.63473 11
-20 15 2 88.348 11.3958 10
-20 16 -2 2.52132 8.56273 10
-16 -4 -2 -0.2526 7.21853 9
16 -20 2 5.7261 6.42735 8
4 -20 -2 8.18029 6.21683 8
-4 20 -2 7.88034 7.37889 10
-20 4 2 -0.6193 7.29587 10
-4 -16 2 5.51197 6.78493 9
-4 20 -2 4.45237 7.61291 11
20 -16 -2 9.34505 6.39709 7
-16 20 2 3.45797 7.42005 10
4 16 2 10.7541 7.04627 11
-20 4 -2 1.04234 6.27744 9
4 16 -2 5.49287 6.69926 11
4 -20 2 -4.047 5.97898 8
20 -16 2 1.91655 6.79797 7
-20 16 2 1.3005 8.18497 10
4 -20 2 5.37111 6.6022 9
-4 -16 -2 -3.3163 5.83732 9
-16 -4 2 1.11292 7.00897 9
-16 20 -2 1.23922 8.29051 10
-4 20 2 9.21099 6.86096 11
-3 -17 2 16.2329 7.09254 9
3 17 2 14.5767 7.09963 11
-3 20 -2 6.60404 6.27058 10
3 -20 -2 15.388 6.10808 8
-20 17 -2 11.7193 8.21912 10
-17 20 2 8.22018 7.46302 10
17 -20 2 12.5189 6.10798 8
20 -17 -2 10.4214 6.16756 7
-17 -3 -2 11.4606 7.1848 9
-3 20 -2 18.0201 7.54572 11
-20 3 2 11.2999 6.91568 10
-3 -17 -2 -2.6701 4.42702 9
-20 3 -2 12.6704 6.63817 9
3 -20 2 10.4017 6.75902 9
3 -20 2 1.63316 5.16727 8
-17 20 -2 23.4487 8.79387 10
-3 20 2 21.4142 6.9902 11
-20 17 2 13.642 8.2679 10
3 17 -2 27.1187 7.15416 11
17 -20 -2 -2.1062 3.52149 7
20 -17 2 4.7205 6.2465 7
-17 -3 2 6.87388 6.31534 9
-2 20 -2 -2.6002 5.02242 10
-20 18 -2 -3.7125 7.86243 10
18 -20 2 -4.1639 5.81996 8
-2 -18 2 5.62609 6.25377 9
-18 -2 -2 7.29401 6.96183 9
20 -18 -2 6.85826 5.79439 7
2 18 2 7.94303 6.73809 11
-18 20 2 8.96878 7.38851 10
-2 20 -2 12.0801 6.70411 11
-20 2 2 1.90182 7.23306 10
2 -20 -2 8.23489 5.43848 8
-18 -2 2 3.25838 4.30797 9
2 -20 2 -0.8798 6.1825 9
-18 20 -2 7.17467 7.47846 10
-20 18 2 7.78727 7.70958 10
2 18 -2 5.04466 5.89789 11
18 -20 -2 -0.0068 4.96031 7
20 -18 2 5.21727 5.97855 7
-20 2 -2 -1.0693 5.9169 9
-2 20 2 7.58821 6.36268 11
-1 -19 2 3.75338 6.07479 9
20 -19 -2 2.95717 5.18547 7
1 19 2 3.79091 6.52771 11
1 -20 -2 2.8543 4.78679 8
19 -20 2 -3.1929 3.24207 7
-19 20 2 1.20416 6.84305 10
-19 -1 -2 0.74344 6.14473 9
-1 20 -2 -2.929 5.70409 11
-20 19 -2 5.15734 7.69916 10
-20 19 2 7.71982 7.36692 10
1 19 -2 6.98364 5.72088 11
1 -20 2 3.60085 5.94925 9
-20 1 -2 3.88395 5.96895 9
-19 20 -2 10.2105 7.60433 10
20 -19 2 3.86743 5.13073 7
19 -20 -2 3.16301 5.04246 7
-1 20 2 -0.2371 6.45633 11
20 -20 -2 2.02515 4.67916 7
0 -20 2 3.53739 5.52333 9
0 20 -2 3.67539 5.58247 11
-20 0 -2 10.0656 5.90183 9
-20 20 -2 8.1293 7.24226 10
20 -20 2 4.42743 4.20371 7
-20 20 2 1.22648 6.85497 10
0 20 2 7.55389 6.34042 11
10 -21 -2 10.2694 6.01198 8
-10 -11 2 6.60037 7.34721 9
-21 11 -2 0.78856 5.30194 10
11 -21 2 -2.5021 9.4418 5
11 -21 2 15.843 6.72876 8
-21 10 2 13.6059 8.21697 10
21 -11 -2 10.6237 6.41115 7
11 10 -2 10.6507 6.2198 11
-10 21 -2 14.7644 7.08704 10
-11 -10 -2 13.0701 7.20077 9
21 -10 2 18.1306 7.13233 7
10 -21 2 10.5502 6.7274 8
-11 -10 2 10.8229 7.78709 9
10 11 -2 9.99435 6.62103 11
-10 -11 -2 8.19091 6.76787 9
21 -11 2 8.82311 7.03517 7
-21 11 2 8.11458 8.15476 10
11 -21 -2 7.25711 5.97134 8
-11 21 -2 12.9022 6.97657 10
-10 21 2 0.35316 5.454 11
21 -10 -2 10.4831 6.24406 7
10 -21 2 -2.4881 12.9679 5
-9 -12 2 26.4948 7.79483 9
-21 12 -2 13.3809 6.83131 10
-9 21 -2 4.3509 6.83808 10
-12 -9 -2 22.8254 7.54967 9
21 -12 -2 17.4354 6.6199 7
9 -21 -2 16.8877 6.31852 8
-21 9 2 5.87611 7.83326 10
-12 21 2 8.18355 5.35441 10
21 -9 2 15.8202 6.94424 7
12 -21 2 13.7884 6.31436 8
12 9 -2 5.24406 5.50878 11
-9 -12 -2 10.6899 6.65782 9
-9 21 2 19.2199 7.12574 11
21 -12 2 10.032 6.8258 7
9 -21 2 23.5577 7.16342 8
12 -21 -2 15.4772 6.33399 8
-21 12 2 22.3613 8.51448 10
21 -9 -2 5.13327 5.537 7
-12 -9 2 21.4768 8.35232 9
9 12 -2 7.99223 6.59228 11
-12 21 -2 15.8518 7.38333 10
8 13 2 8.59237 6.24046 11
-8 21 -2 13.7109 7.48348 10
-8 -13 2 22.1559 7.54493 9
-21 13 -2 9.0715 7.51538 10
13 -21 2 16.2423 6.2621 8
8 -21 -2 23.3328 6.91658 8
21 -8 2 8.72722 6.10114 7
-21 8 2 6.17514 7.73409 10
-13 21 2 12.0525 6.67694 10
21 -13 -2 12.6811 6.09985 7
-13 -8 -2 18.7616 7.24577 9
13 8 -2 -1.2042 3.79193 11
-13 21 -2 6.03543 6.98852 10
13 -21 -2 9.83601 5.85293 8
-8 -13 -2 8.06539 6.5237 9
8 -21 2 13.1855 6.94378 8
21 -13 2 11.7803 6.51038 7
-21 8 -2 0.81444 4.13504 9
-8 21 2 18.5379 7.10216 11
-21 13 2 11.1134 7.88657 10
8 13 -2 11.2271 6.45395 11
-13 -8 2 14.6117 7.69506 9
-7 21 -2 10.8456 7.28521 10
-21 14 -2 9.11213 7.8939 10
-14 -7 -2 12.5349 7.45132 9
21 -14 -2 11.3185 5.85255 7
-14 21 2 6.53624 6.87392 10
-21 7 2 10.0635 7.1897 10
14 -21 2 17.4295 6.35647 8
7 14 2 14.9612 6.59112 11
-7 -14 2 8.78417 6.25957 9
7 -21 -2 17.0809 6.41865 8
7 -21 2 11.4809 6.31671 8
7 14 -2 2.35148 6.14826 11
-7 21 2 9.517 6.78389 11
-21 14 2 5.05465 7.43874 10
21 -14 2 4.295 6.44341 7
-14 -7 2 4.81693 7.3023 9
-14 21 -2 5.17295 6.82946 10
-21 7 -2 2.56878 4.19296 9
14 -21 -2 12.2668 5.71699 8
-7 -14 -2 13.1442 6.34157 9
-6 21 -2 -3.3341 5.55231 11
-15 21 2 9.90813 6.7951 10
21 -15 -2 5.17162 5.42795 7
-21 15 -2 11.2018 7.80082 10
-21 6 2 -1.1361 7.00203 10
-6 -15 2 -1.7406 6.35158 9
6 15 2 9.79645 6.67414 11
15 -21 2 9.91481 6.16839 8
-6 21 -2 2.30355 7.11938 10
6 -21 -2 9.32994 5.94744 8
-15 -6 -2 3.64071 7.13915 9
15 -21 -2 13.2027 5.3036 8
-15 21 -2 6.35529 7.09264 10
-15 -6 2 16.0453 7.60339 9
21 -15 2 20.4264 6.85627 7
-6 -15 -2 11.8455 6.29237 9
-21 6 -2 10.632 5.6209 9
6 -21 2 1.25851 5.28088 9
-21 15 2 11.8574 7.4756 10
6 -21 2 16.5223 6.35021 8
-6 21 2 13.422 6.88513 11
6 15 -2 13.6666 6.21187 11
5 16 2 30.2986 7.31531 11
-5 21 -2 27.6783 7.68359 11
-16 -5 -2 40.1296 8.15121 9
-21 16 -2 33.199 8.64142 10
-5 -16 2 32.8045 7.38268 9
5 -21 -2 26.1503 6.55307 8
16 -21 2 23.8015 6.47612 8
-16 21 2 35.8873 7.64178 10
-5 21 -2 22.4844 7.53349 10
21 -16 -2 38.8274 7.04694 7
-21 5 2 17.0051 7.62281 10
-5 21 2 18.3526 6.78212 11
5 16 -2 17.0257 6.18945 11
5 -21 2 9.73351 5.92735 8
-21 16 2 23.6675 8.15428 10
-16 -5 2 24.0216 7.06492 9
21 -16 2 20.3997 6.89639 7
-21 5 -2 11.286 5.80076 9
5 -21 2 2.43268 4.64119 9
-16 21 -2 19.1486 7.45721 10
-5 -16 -2 5.82803 5.92119 9
-17 21 2 13.0497 6.98222 10
-4 21 -2 1.38865 5.36329 10
21 -17 -2 28.0253 6.48533 7
17 -21 2 11.7333 5.79968 8
4 -21 -2 11.4248 5.63516 8
-21 17 -2 19.3454 8.12265 10
4 17 2 31.3058 6.75107 11
-4 -17 2 7.31372 5.97636 9
-21 4 2 9.95684 6.34327 10
-17 -4 -2 32.1068 7.53566 9
-4 21 -2 18.9984 7.20294 11
4 -21 2 18.0793 5.56605 8
4 -21 2 12.388 5.50227 9
-21 4 -2 17.6742 6.19516 9
-21 17 2 18.8508 8.08821 10
-4 -17 -2 4.84037 4.72162 9
-17 -4 2 11.202 6.22433 9
4 17 -2 22.257 6.09685 11
21 -17 2 16.447 6.10997 7
-17 21 -2 15.7901 7.37263 10
-4 21 2 23.2291 6.82344 11
3 18 2 16.4335 6.4734 11
-18 21 2 11.7347 6.77831 10
-3 21 -2 16.6751 6.24019 11
-18 -3 -2 15.1272 7.05559 9
-3 -18 2 15.5153 6.12121 9
3 -21 -2 15.7767 5.40665 8
21 -18 -2 10.0875 5.59891 7
-21 18 -2 23.777 7.99339 10
-21 3 -2 12.7036 5.97061 9
3 18 -2 11.3908 5.79906 11
-18 21 -2 19.8217 7.38275 10
21 -18 2 17.0879 5.82346 7
-3 21 2 16.321 6.22499 11
3 -21 2 8.204 5.7746 9
-18 -3 2 8.80365 4.64919 9
-21 18 2 14.5494 7.59126 10
-2 -19 2 23.0933 6.13163 9
-19 -2 -2 33.0494 7.10193 9
-19 21 2 23.9742 7.05937 10
-2 21 -2 37.5149 6.78663 11
2 19 2 28.09 6.63285 11
-21 19 -2 46.1617 8.42448 10
21 -19 -2 24.5575 5.76841 7
2 -21 -2 23.3731 5.15839 8
-21 2 -2 18.5088 5.79427 9
-19 21 -2 33.4081 7.63588 10
-2 21 2 30.2019 6.06974 11
2 -21 2 19.7561 5.595 9
2 19 -2 14.4701 5.34452 11
-21 19 2 20.3083 7.41541 10
21 -19 2 15.6286 5.22056 7
21 -20 -2 0.6112 4.25644 7
-1 21 -2 3.7974 5.23623 11
1 20 2 3.36176 5.86987 11
-20 -1 -2 5.35261 5.34989 9
-21 20 -2 7.44151 6.81257 10
-1 -20 2 3.69088 5.19041 9
-20 21 2 2.21069 6.31749 10
-21 20 2 5.09237 6.85067 10
21 -20 2 2.9989 4.11032 7
-20 21 -2 4.70789 6.4664 10
1 20 -2 2.88554 4.99953 11
-21 1 -2 4.45401 5.30832 9
-1 21 2 3.17044 5.39716 11
1 -21 2 0.37128 4.18368 9
20 -21 -2 -2.9621 3.06457 7
0 -21 2 -2.4344 4.38588 9
-21 21 -2 12.6557 6.59601 10
-21 0 -2 12.5897 4.90289 9
0 21 2 26.2775 6.59052 11
-21 21 2 6.83618 6.22684 10
0 21 -2 14.1393 5.31882 11
-11 22 -2 21.1326 6.83292 10
11 11 -2 30.6574 6.40967 11
-11 -11 2 28.7147 7.55393 9
11 -22 2 46.293 7.31106 8
22 -11 -2 21.9998 6.2978 7
-11 -11 -2 28.0713 6.95981 9
11 -22 -2 29.6787 6.06743 8
-22 11 2 29.742 7.53143 10
22 -11 2 33.9501 6.95129 7
22 -10 2 1.13046 5.8721 7
-22 10 2 1.39633 6.66746 10
-10 22 -2 -0.9832 6.32756 10
-22 12 -2 0.68984 6.06743 10
-12 -10 -2 -1.1574 5.83449 9
12 10 -2 1.84448 4.81007 11
-10 -12 2 -0.919 6.47144 9
12 -22 2 0.83255 5.3834 8
10 -22 -2 0.74462 5.1597 8
22 -12 -2 6.33243 5.61612 7
12 -22 -2 8.18541 5.35993 8
-12 -10 2 -1.0168 6.70722 9
22 -12 2 7.67372 6.14979 7
-12 22 -2 5.05067 6.2084 10
-10 -12 -2 0.25652 5.66103 9
22 -10 -2 4.75522 5.35149 7
10 12 -2 3.42488 5.36628 11
10 -22 2 8.86329 6.19034 8
-22 12 2 3.23202 6.70641 10
-10 22 2 -0.6398 4.75399 11
-13 22 2 1.82745 4.04137 10
-13 -9 -2 5.75665 6.05626 9
13 -22 2 9.75163 5.58859 8
22 -13 -2 7.13822 5.51679 7
-22 9 2 13.1599 7.10972 10
13 9 -2 -2.1445 4.57047 11
22 -9 2 6.19629 5.8468 7
-22 13 -2 8.99454 6.33217 10
9 13 2 -1.9837 3.65609 11
-9 22 -2 5.63841 6.60756 10
9 -22 -2 9.85752 5.76664 8
-9 -13 2 11.0092 6.44818 9
9 -22 2 8.56762 5.81794 8
-22 13 2 11.6883 6.82701 10
13 -22 -2 8.60659 5.59764 8
-13 -9 2 2.9451 6.87395 9
-9 -13 -2 6.59074 5.81566 9
22 -13 2 1.86783 5.81527 7
-9 22 2 7.0942 6.25718 11
9 13 -2 13.9416 6.1097 11
-13 22 -2 6.07666 6.1901 10
-22 8 2 2.04981 6.55911 10
8 14 2 8.82519 5.60596 11
-14 -8 -2 13.2119 6.84519 9
8 -22 -2 9.8513 5.70809 8
-8 -14 2 7.31191 6.25571 9
-8 22 -2 1.50621 6.53152 10
22 -14 -2 8.14338 5.32201 7
-14 22 2 9.32566 5.73825 10
-22 14 -2 5.95474 6.57749 10
14 -22 2 11.1844 5.70897 8
8 14 -2 17.5632 6.27652 11
-8 -14 -2 13.0982 5.96333 9
14 -22 -2 11.3974 5.52757 8
8 -22 2 15.2054 5.83049 8
-8 22 2 13.5926 6.4159 11
-14 -8 2 14.5501 6.88593 9
-14 22 -2 14.0407 6.715 10
-22 14 2 13.0962 6.79388 10
22 -14 2 14.1981 5.93899 7
7 15 2 -1.5724 5.57273 11
-15 22 2 1.99084 5.85058 10
-7 22 -2 2.19586 6.68757 10
-15 -7 -2 1.36617 6.27395 9
7 -22 -2 1.02506 5.52304 8
-7 -15 2 3.02215 5.45612 9
15 -22 2 2.20806 5.24635 8
-22 7 2 -0.474 6.64564 10
22 -15 -2 5.23145 5.08666 7
-22 15 -2 3.22128 6.83317 10
22 -15 2 4.86986 5.70842 7
7 15 -2 10.2671 5.75737 11
-22 15 2 2.30399 6.52328 10
7 -22 2 -2.3197 5.34468 8
-7 -15 -2 2.33483 5.33783 9
-15 -7 2 7.02288 6.5433 9
-7 22 2 3.80733 6.00755 11
15 -22 -2 3.37087 4.78132 8
-15 22 -2 1.66371 6.20763 10
-6 22 -2 3.44713 6.48676 10
22 -16 -2 1.52764 5.22472 7
16 -22 2 -0.0033 5.25941 8
-16 -6 -2 -0.1695 6.18833 9
6 16 2 0.88498 5.6827 11
-22 6 2 2.62085 6.31567 10
-6 -16 2 3.82288 5.45557 9
6 -22 -2 2.36328 5.06772 8
-22 16 -2 1.89107 6.82009 10
-16 22 2 8.09165 5.96347 10
6 -22 2 12.6568 5.43681 8
-6 22 2 3.17355 5.90517 11
-22 16 2 10.6318 7.00524 10
22 -16 2 7.17015 5.48202 7
6 16 -2 7.30943 5.50947 11
-6 -16 -2 10.3692 5.20483 9
-16 -6 2 3.46597 5.9526 9
-16 22 -2 6.03357 6.24481 10
-17 22 2 1.78996 5.93345 10
-17 -5 -2 1.49034 6.27193 9
-5 -17 2 2.15781 5.32459 9
-5 22 -2 -1.5987 5.95801 10
5 17 2 1.30676 5.53021 11
17 -22 2 3.0005 5.01569 8
-22 17 -2 4.0653 7.04238 10
22 -17 -2 2.59646 5.37711 7
-5 22 -2 -0.1037 4.81445 11
5 -22 -2 -1.9678 4.63927 8
-22 5 2 4.65631 6.30251 10
-5 -17 -2 1.25845 3.87926 9
5 -22 2 0.89465 4.76804 8
-22 5 -2 0.407 3.58145 9
5 17 -2 5.05635 5.35563 11
-22 17 2 1.55917 7.07641 10
-5 22 2 6.84105 5.52934 11
22 -17 2 3.48949 5.03386 7
-17 22 -2 2.68857 6.22852 10
-17 -5 2 5.05278 5.62111 9
-18 -4 -2 3.11791 5.83154 9
-4 -18 2 3.8847 5.09318 9
4 -22 -2 5.41595 4.63714 8
22 -18 -2 7.52921 4.93964 7
-4 22 -2 5.73881 5.30049 11
18 -22 2 -3.4171 5.16962 8
-18 22 2 2.35451 5.60569 10
4 18 2 7.41432 5.37699 11
-22 18 -2 2.82476 6.86281 10
22 -18 2 1.72398 4.68284 7
4 18 -2 3.74324 5.27264 11
-22 4 -2 0.8827 3.46455 9
-4 22 2 3.44184 5.67663 11
-18 22 -2 -3.6686 6.15903 10
-22 18 2 7.48361 7.16814 10
-18 -4 2 2.68236 3.95439 9
-3 22 -2 17.6468 5.86489 11
3 19 2 28.9948 6.32476 11
-19 22 2 16.6365 6.20876 10
3 -22 -2 23.12 4.60478 8
22 -19 -2 20.4798 4.98176 7
-19 -3 -2 17.4248 6.15002 9
-22 19 -2 28.7051 7.25687 10
-3 -19 2 24.3669 5.72786 9
-22 19 2 4.44432 6.6704 10
3 19 -2 14.7657 5.47103 11
-19 22 -2 13.4261 6.1583 10
22 -19 2 0.51163 4.4012 7
-3 22 2 12.8645 5.51574 11
22 -20 -2 2.18897 4.17975 7
2 20 2 0.89697 5.41477 11
-20 -2 -2 3.30776 5.15692 9
-22 20 -2 -1.1103 6.73988 10
-20 22 2 -2.3282 5.53152 10
-2 -20 2 1.38372 4.40936 9
-2 22 -2 2.18141 5.03614 11
-22 20 2 3.75512 6.65577 10
-20 22 -2 -3.6284 5.67561 10
22 -20 2 -3.9082 3.51698 7
-2 22 2 0.11581 5.28554 11
2 20 -2 3.45222 5.27203 11
1 21 2 22.8265 6.26391 11
-22 21 -2 24.1006 7.00485 10
-21 22 2 11.747 6.42617 10
-1 22 -2 14.2687 5.12785 11
-21 22 -2 23.7287 7.07746 10
-1 22 2 18.9793 5.81174 11
-22 21 2 17.7267 7.35181 10
1 21 -2 15.2216 5.67602 11
-12 -11 -2 7.47579 5.39326 9
12 -23 2 11.0853 5.12654 8
-11 23 -2 5.51343 6.03478 10
23 -12 -2 12.0378 5.28693 7
23 -11 2 8.85729 5.21365 7
11 -23 -2 12.4688 4.95998 8
-23 11 2 7.37432 5.87039 10
12 11 -2 7.05881 3.92713 11
-11 -12 2 7.67241 5.86363 9
-12 23 -2 4.31649 5.65357 10
23 -12 2 15.0164 5.5297 7
-23 12 2 12.6992 5.95326 10
-12 -11 2 8.14337 5.68665 9
23 -11 -2 8.7583 4.78408 7
11 12 -2 6.19546 4.74041 11
11 -23 2 11.1741 4.90704 8
-11 -12 -2 7.45301 5.26754 9
12 -23 -2 10.3673 4.68421 8
23 -10 2 15.9581 5.00896 7
-10 -13 2 31.0843 6.50813 9
-23 10 2 23.2399 6.89476 10
-13 -10 -2 14.6158 5.58964 9
-10 23 -2 12.0966 6.11465 10
13 -23 2 19.7598 5.01458 8
23 -13 -2 20.982 5.39891 7
10 -23 -2 23.8736 5.12794 8
-23 13 2 21.234 6.40543 10
23 -13 2 17.4825 5.47357 7
10 13 -2 7.28001 4.9664 11
10 -23 2 16.5532 5.14685 8
-13 -10 2 13.8098 5.9228 9
13 -23 -2 7.49175 4.62229 8
-13 23 -2 3.4992 5.37401 10
-10 -13 -2 8.38669 5.24093 9
-14 -9 -2 13.6099 5.62564 9
14 -23 2 12.6295 5.18047 8
-23 14 -2 1.61237 6.59907 10
9 -23 -2 8.03044 5.09959 8
-23 9 2 6.36835 5.93726 10
23 -14 -2 16.4562 5.36773 7
-9 -14 2 13.1474 5.87268 9
-9 23 -2 14.6511 6.43229 10
-9 23 2 0.72593 4.55541 11
14 -23 -2 7.18346 4.51753 8
23 -14 2 6.3035 4.93032 7
-14 -9 2 3.87517 5.62988 9
-14 23 -2 -3.1305 5.32562 10
9 -23 2 10.4277 4.75044 8
-9 -14 -2 9.69615 5.05709 9
-23 14 2 11.5234 6.05655 10
9 14 -2 10.8428 4.53189 11
15 -23 2 6.18773 5.028 8
-15 -8 -2 -1.8973 5.48248 9
8 15 2 1.70401 3.66644 11
-15 23 2 -0.1088 3.74845 10
8 -23 -2 4.84255 4.86402 8
-8 -15 2 -2.5961 4.93955 9
-23 15 -2 1.51282 5.01802 10
23 -15 -2 2.89711 4.71641 7
-23 8 2 4.89864 5.72884 10
-8 23 -2 6.22388 5.74087 10
-8 23 2 6.61952 5.24447 11
-15 23 -2 3.65803 5.55969 10
8 -23 2 4.12734 4.59886 8
8 15 -2 4.16722 5.07509 11
23 -15 2 2.858 4.88997 7
-15 -8 2 3.92033 5.61422 9
15 -23 -2 1.34345 4.16974 8
-8 -15 -2 -0.0227 4.77917 9
-23 15 2 5.2002 5.74028 10
-16 -7 -2 7.65923 5.77939 9
23 -16 -2 5.23674 4.64441 7
-7 23 -2 -1.9421 4.85302 10
-16 23 2 6.63926 4.20593 10
7 -23 -2 7.67464 4.60897 8
-23 16 -2 4.58339 5.95871 10
-23 7 2 1.58815 4.49926 10
-7 -16 2 7.42552 5.09459 9
7 16 2 7.17947 4.66036 11
16 -23 2 10.6172 5.12992 8
7 16 -2 5.87104 4.96049 11
-23 16 2 15.0622 6.24547 10
23 -16 2 10.2641 5.02137 7
-16 23 -2 2.4093 5.65167 10
7 -23 2 9.71743 4.48853 8
-7 23 2 14.2834 5.70839 11
-16 -7 2 4.54609 5.01747 9
-7 -16 -2 8.25863 4.74484 9
6 17 2 3.08115 4.66102 11
-17 -6 -2 3.47516 5.87662 9
-17 23 2 0.06487 4.1991 10
17 -23 2 0.64233 4.44485 8
-6 -17 2 4.28246 4.92997 9
23 -17 -2 0.80517 4.86361 7
6 -23 -2 5.78782 4.35949 8
-23 17 -2 3.10663 6.17274 10
23 -17 2 3.8993 4.4953 7
6 17 -2 0.26119 5.01784 11
-23 17 2 3.81418 6.12952 10
-17 23 -2 2.38777 5.64423 10
-17 -6 2 1.42101 4.56697 9
6 -23 2 2.14928 3.98079 8
-6 23 2 3.13018 5.5609 11
-18 23 2 6.89809 4.71392 10
5 -23 -2 9.39151 4.1738 8
-5 -18 2 16.4685 5.43206 9
23 -18 -2 16.6496 4.88281 7
-18 -5 -2 19.5645 6.25027 9
5 18 2 13.4041 5.17014 11
-23 18 -2 15.3434 6.51483 10
-23 18 2 18.5791 6.88807 10
-18 23 -2 4.13765 6.05483 10
5 18 -2 13.2409 5.32287 11
-5 23 2 16.0363 5.64749 11
23 -18 2 19.9538 4.97913 7
-23 19 -2 -0.6789 6.66997 10
23 -19 -2 0.69576 4.68892 7
-19 -4 -2 4.20803 5.72751 9
4 -23 -2 -2.9881 2.71781 8
-19 23 2 -0.522 4.14807 10
4 19 2 2.18292 5.40803 11
-4 -19 2 -1.2675 5.07605 9
-23 19 2 1.18433 6.6978 10
23 -19 2 3.03312 4.47968 7
-4 23 2 2.71338 5.68019 11
4 19 -2 1.37163 5.41542 11
-19 23 -2 -1.5408 6.08641 10
24 -12 2 2.76844 4.25256 7
-12 -12 2 10.1821 4.97435 9
-12 -12 -2 2.63836 4.91159 9
-24 12 2 8.37976 5.60347 10
-12 24 -2 3.31699 4.85546 10
12 -24 2 8.88232 4.52552 8
24 -12 -2 -2.97 3.74482 7
12 -24 -2 6.84069 4.33788 8
24 -11 2 -2.8768 2.89261 7
-24 11 2 9.759 5.43419 10
-13 -11 -2 5.31875 4.86068 9
11 -24 -2 9.43212 4.3123 8
-11 24 -2 1.82556 5.06657 10
24 -13 -2 7.11523 4.67138 7
13 -24 2 4.03594 3.99636 8
24 -13 2 7.14221 4.39255 7
11 -24 2 9.15762 4.43882 8
-11 -13 -2 6.563 4.63133 9
-13 24 -2 9.3501 5.24513 10
-24 13 2 17.358 5.70442 10
13 -24 -2 6.89936 4.26019 8
-13 -11 2 11.9489 5.28411 9
11 13 -2 0.68818 3.00936 11
10 -24 -2 6.16914 4.1816 8
-10 -14 2 1.04054 4.81224 9
-14 -10 -2 -1.7679 4.83191 9
-10 24 -2 -1.7104 4.22898 10
-24 10 2 1.50973 4.78287 10
14 -24 2 4.36117 4.31744 8
24 -14 -2 6.48161 4.82644 7
-14 24 -2 3.38635 4.76977 10
10 -24 2 3.45605 4.35255 8
-10 -14 -2 5.54529 4.7622 9
10 14 -2 1.47571 4.04199 11
-24 14 2 4.1443 5.31334 10
14 -24 -2 3.63421 4.35449 8
-14 -10 2 2.29729 4.93852 9
24 -14 2 4.08369 4.54044 7
-9 -15 2 5.15774 5.26213 9
-15 -9 -2 3.35611 5.30874 9
-24 9 2 2.02374 4.04668 10
15 -24 2 3.16623 4.4538 8
24 -15 -2 3.59112 4.7617 7
9 -24 -2 5.17401 4.31662 8
-24 15 2 1.18938 5.68233 10
-9 -15 -2 2.94518 4.34441 9
24 -15 2 2.83241 4.19949 7
9 15 -2 -0.5477 4.12287 11
-15 -9 2 -1.4456 4.64719 9
15 -24 -2 -0.4857 2.8832 8
-15 24 -2 4.21142 5.03855 10
9 -24 2 2.70153 4.12765 8
24 -16 -2 6.37069 4.5908 7
8 -24 -2 4.14106 4.13125 8
16 -24 2 0.99633 4.32617 8
-8 -16 2 2.56368 4.53104 9
-16 -8 -2 7.88622 5.63363 9
-16 24 -2 4.82914 4.95673 10
24 -16 2 10.2895 4.50001 7
-16 -8 2 10.3734 4.4698 9
8 -24 2 3.87558 4.03311 8
-8 -16 -2 -0.0496 4.38396 9
8 16 -2 8.4894 4.52111 11
-24 16 2 7.12495 6.30683 10
-17 -7 -2 2.64249 5.82307 9
-7 -17 2 6.15872 5.01417 9
24 -17 -2 4.79668 4.53614 7
17 -24 2 -3.0132 2.68129 8
7 -24 -2 3.91679 4.26941 8
7 17 -2 11.4037 4.68783 11
-24 17 2 8.14004 6.14859 10
24 -17 2 9.43284 4.72953 7
-17 24 -2 5.78809 5.49366 10
6 -24 -2 5.4416 4.04104 8
0 0 3 -0.6917 6.188 3
0 0 3 5.57823 4.37027 1
0 0 3 9.0823 5.37194 1
0 0 3 0.28728 4.43239 2
0 -1 3 -2.1669 6.29817 3
0 1 3 -1.1371 5.18512 2
-1 0 3 5.33789 7.44236 3
0 -1 3 4.4768 4.96428 2
-1 0 3 0.26098 4.03258 1
0 -1 -3 4.32251 6.54 2
0 -1 3 3.60007 4.90882 1
-1 0 -3 3.6787 5.62789 2
1 -1 3 2.78667 5.64161 2
1 -1 3 -0.2991 5.50612 3
1 0 3 -4.9765 4.82495 2
0 1 3 -1.1666 3.85256 1
1 -1 3 1.43766 5.42809 1
-1 1 3 5.63091 7.51728 3
1 -1 -3 5.39716 7.21546 2
-1 1 3 -8.4326 5.34523 1
1 0 3 2.07251 4.44353 1
1 -1 -3 3.55075 5.06527 1
1 -2 -3 38.2563 6.99486 1
1 -2 -3 39.2492 8.97934 2
1 -2 3 37.5911 7.38078 1
2 -1 3 19.3184 5.81226 2
-1 -1 3 38.5299 9.25173 3
-2 1 -3 24.989 6.69021 1
-2 1 -3 36.7537 9.33078 3
-1 -1 -3 43.9532 9.87748 3
1 -2 3 39.6528 7.45594 2
-1 -1 3 27.6556 7.2131 2
2 -1 3 29.9039 6.39511 1
2 -1 -3 38.2651 8.85234 1
-1 -1 -3 26.9289 7.84403 2
-2 1 3 51.0327 10.9408 3
1 -2 3 43.0909 7.9172 3
0 -2 -3 121.409 9.46228 1
-2 0 -3 100.17 11.6221 2
0 -2 3 114.792 12.4585 1
-2 0 -3 115.901 9.49929 1
2 -2 3 107.816 11.9237 1
2 0 3 100.894 9.5685 1
2 -2 -3 133.9 14.0728 2
0 -2 3 113.902 12.5754 3
-2 0 3 116.596 14.2805 3
-2 2 3 125.016 14.0507 3
0 2 3 109.133 9.42137 1
0 -2 3 131.383 12.7255 2
-2 0 3 125.201 12.3642 2
2 -2 3 132.569 11.1212 2
0 -2 -3 109.238 13.0005 2
2 -2 -3 111.823 13.84 1
-2 0 -3 107.394 15.2126 3
2 -3 3 87.5412 11.4594 1
-1 -2 3 71.5414 11.7923 1
-2 -1 -3 92.1487 11.8601 2
-3 1 3 97.1204 15.146 3
3 -1 3 83.1933 9.96847 1
-1 -2 3 92.4809 12.7581 3
2 -3 3 110.277 11.1975 3
3 -2 -3 92.5603 12.8626 1
-1 -2 3 84.264 11.8535 2
-3 2 -3 96.3493 13.0185 3
-2 -1 -3 81.5055 14.1832 3
1 -3 -3 95.6685 11.5768 1
1 -3 -3 79.7993 12.4635 2
2 -3 3 73.7745 10.6879 2
-2 3 3 86.5428 12.5373 3
3 -1 -3 78.5336 13.3968 1
3 -2 3 83.9103 8.69353 2
-3 1 -3 122.164 15.2725 3
1 -3 3 94.0317 10.9694 2
-2 -1 3 94.6342 12.3229 2
3 -2 3 88.0235 8.42884 2
1 -3 3 106.522 11.6643 3
2 -3 -3 85.1735 12.4595 1
-2 -1 3 97.8693 13.5881 3
-1 -2 -3 121.825 15.4655 3
1 -3 3 86.1793 12.124 1
3 -2 3 83.7804 10.7467 1
-3 2 3 82.0416 14.0824 3
-1 -2 -3 86.7233 12.8823 2
2 -3 -3 94.1951 13.141 2
0 -3 -3 368.263 30.5225 2
0 -3 -3 421.511 32.2875 3
3 0 3 392.207 27.7186 1
0 -3 3 439.002 30.3612 2
-3 0 3 425.465 32.0421 3
0 -3 3 414.355 30.1019 3
0 -3 3 392.984 30.5352 1
3 0 -3 383.676 31.1655 1
-3 0 -3 357.537 28.8566 2
3 -3 -3 423.481 31.4451 1
-3 3 3 371.831 31.2502 3
-3 0 -3 394.941 32.0409 3
-3 0 3 397.599 29.9923 2
3 -3 -3 420.16 30.9994 2
3 -3 3 407.718 28.1382 2
3 -3 3 415.931 30.137 1
2 -4 3 74.2718 10.7793 2
-2 -2 3 135.824 15.0065 2
-2 -2 3 77.5085 12.9705 1
-2 -2 3 88.8179 14.8119 3
4 -2 3 100.315 11.6595 1
-4 2 -3 102.167 14.9603 3
2 -4 -3 91.3722 13.8731 2
-2 -2 -3 107.261 14.4324 2
2 -4 -3 92.4062 13.0589 1
2 -4 3 104.992 13.5843 1
4 -2 -3 68.5028 12.4358 1
-2 -2 -3 118.928 17.3863 3
2 -4 3 73.8798 10.9569 3
-4 1 3 383.856 30.7571 3
-3 -1 -3 385.548 30.4911 3
4 -1 3 392.088 26.7215 1
-3 -1 -3 352.247 28.2302 2
4 -3 -3 339.92 28.3615 2
3 -4 3 384.203 28.4397 1
-4 3 -3 323.888 27.9723 3
-1 -3 3 363.605 28.2893 3
1 -4 -3 353.818 27.1519 1
1 -4 -3 314.185 28.1887 2
4 -3 -3 321.856 29.0032 1
-3 4 3 325.253 28.9693 3
-1 -3 3 355.248 27.9833 1
3 -4 3 329.453 25.7679 2
-1 -3 3 372.71 27.7716 2
-4 1 3 389.385 28.3172 2
-3 -1 3 447.125 33.3859 2
-4 3 3 403.771 34.1799 3
3 -4 -3 437.605 34.1882 1
-4 1 -3 452.078 35.7614 3
1 -4 3 450.069 32.9628 2
-1 -3 -3 469.23 35.8548 3
1 -4 3 448.848 33.7633 1
-1 -3 -3 423.852 34.7071 2
-4 1 -3 420.706 30.329 2
1 -4 3 443.278 32.5491 3
-3 -1 3 457.958 34.9979 3
3 -4 -3 482.007 34.9403 2
4 -3 3 448.984 32.9416 1
4 -1 -3 436.577 34.7866 1
-4 4 3 210.906 21.5052 3
4 -4 -3 223.745 20.6847 2
0 -4 -3 209.73 21.3447 2
0 -4 3 213.045 19.5302 3
-4 0 3 224.081 23.2946 3
4 0 -3 219.894 21.6422 1
0 -4 3 228.005 20.5537 1
-4 4 -3 185.948 18.7785 3
-4 0 3 237.134 19.6522 2
4 -4 -3 216.234 21.3082 1
4 -4 3 252.104 20.3599 1
-4 0 -3 225.547 19.076 2
0 -4 -3 230.997 22.2503 3
4 -4 3 189.271 16.2886 2
4 0 3 203.859 17.0675 1
0 -4 -3 254.904 18.6427 1
0 -4 3 250.669 20.5676 2
-4 0 -3 196.36 21.9653 3
5 -2 3 116.414 13.9345 1
-3 -2 -3 118.702 17.623 3
-3 -2 -3 96.3666 8.89475 1
3 -5 3 98.4866 11.9197 2
5 -3 -3 90.0746 14.8084 1
-2 -3 3 109.583 15.583 3
-5 3 -3 94.7369 15.9643 3
2 -5 -3 128.011 17.086 2
-2 -3 3 99.1633 13.7879 2
3 -5 3 94.4581 14.8676 1
-2 -3 3 96.9484 13.7652 1
-5 2 3 137.333 18.3571 3
-3 -2 -3 111.226 16.7071 2
-3 5 3 91.6559 14.5734 3
3 -5 3 91.2329 10.7402 3
2 -5 -3 91.7966 14.3367 1
-3 -2 3 46.2475 13.6158 3
5 -3 3 36.2015 9.32784 1
5 -2 -3 25.0915 10.4461 1
3 -5 -3 31.3383 11.1126 2
2 -5 3 32.7112 10.3009 1
-5 2 -3 26.079 12.0212 3
3 -5 -3 25.0067 10.5207 1
-2 -3 -3 22.7595 4.93162 1
-2 -3 -3 28.4979 12.5103 2
2 -5 3 28.1959 7.44963 3
-3 -2 3 28.1647 10.1319 2
-5 3 3 30.9506 12.5468 3
2 -5 3 37.4362 9.14566 2
-2 -3 -3 26.1452 12.2779 3
4 -5 3 58.4434 9.81316 2
1 -5 -3 63.5119 11.6755 1
-5 1 3 76.7397 12.2949 2
5 -4 -3 122.078 16.0888 2
-5 4 -3 88.7323 13.1351 3
-4 -1 -3 101.269 16.6617 3
5 -1 3 76.288 11.6304 1
-1 -4 3 113.775 15.2612 1
1 -5 -3 90.4482 15.4628 2
-1 -4 3 70.1094 12.4048 2
5 -4 -3 103.893 16.9999 1
-5 1 3 88.0169 16.1423 3
-4 -1 -3 78.1756 13.3888 2
4 -5 3 110.146 14.9371 1
-4 5 3 80.4336 13.7733 3
-1 -4 3 58.1105 11.9747 3
-5 4 3 117.559 17.3103 3
1 -5 3 89.7079 12.161 3
4 -5 -3 123.875 16.5104 1
1 -5 3 95.1734 13.9921 2
-5 1 -3 85.6607 16.1427 3
-1 -4 -3 77.6698 14.8808 3
-1 -4 -3 109.049 17.3587 2
-1 -4 -3 83.6988 10.5454 1
4 -5 -3 114.391 15.3471 2
-4 -1 3 117.692 18.4867 3
5 -4 3 96.9923 14.0912 1
-4 -1 3 92.4562 13.9737 2
5 -1 -3 98.9419 15.7589 1
-5 1 -3 75.7723 9.31625 2
1 -5 3 77.9093 13.1803 1
0 -5 3 803.082 55.8197 1
0 -5 -3 720.757 56.1246 2
5 -5 3 807.492 55.798 1
-5 5 -3 668.188 53.3267 3
5 -5 3 696.43 51.7609 2
-5 5 3 805.06 56.7431 3
0 -5 -3 787.296 56.1545 3
-5 0 -3 799.883 54.2413 2
0 -5 3 681.615 54.2784 3
-5 0 3 864.167 58.3422 3
5 -5 -3 799.668 56.7637 1
-5 0 3 737.071 55.0806 2
5 0 3 687.633 52.8232 1
5 0 -3 912.156 57.4874 1
0 -5 3 863.65 55.9199 2
0 -5 -3 724.862 53.5611 1
5 -5 -3 816.974 55.7907 2
-5 0 -3 798.2 58.5312 3
6 -3 -3 11.9767 10.7873 1
-3 -3 -3 4.46603 4.92862 1
-3 -3 -3 11.971 11.8393 2
-3 6 3 4.96842 10.2983 3
3 -6 3 4.55816 4.99743 3
3 -6 3 16.6192 8.48711 2
3 3 3 -1.3719 4.66918 6
-3 -3 3 16.1051 11.6758 3
-6 3 -3 17.7205 12.5508 3
-3 -3 3 4.38685 9.33334 2
6 -3 3 15.1742 9.69712 1
-3 -3 3 1.04424 10.1398 1
6 -3 3 -2.6768 4.50371 4
3 -6 3 1.92063 9.77314 1
3 -6 -3 2.59919 11.5476 2
-3 -3 -3 19.3347 13.3929 3
-6 3 3 13.3121 12.3581 3
3 -6 -3 9.63359 10.546 1
-4 6 3 1178.2 85.0476 3
-2 -4 3 1130.87 85.337 3
-4 -2 -3 1387.15 88.0944 3
2 -6 -3 1317.02 86.096 2
-2 -4 3 1306.92 85.4183 1
-6 2 3 1223.08 84.862 2
2 -6 -3 1203.05 84.5311 1
-4 -2 -3 1070.62 81.712 1
-6 2 3 1224.03 87.1037 3
6 -4 -3 1221.52 86.4647 1
-4 -2 -3 1284.78 85.5629 2
4 -6 3 1150.3 82.8854 2
6 -2 3 1223.05 83.8634 1
-2 -4 3 1263.11 85.2395 2
-6 4 -3 1223.68 85.5878 3
4 -6 3 1212.92 85.0547 1
6 -2 -3 1322.39 94.9011 1
-4 -2 3 1372.59 93.873 2
-4 -2 3 1403.79 96.1675 3
2 -6 3 1390.86 94.3606 1
2 -6 3 1392.17 93.416 2
-2 -4 -3 1356.07 95.1497 2
-6 4 3 1309.13 95.1422 3
-2 -4 -3 1229.1 90.975 1
-2 -4 -3 1451.89 96.1075 3
4 -6 -3 1457.42 95.0117 2
6 -4 3 1359.3 93.6304 1
4 -6 -3 1354.18 94.577 1
-6 2 -3 1341.28 95.9624 3
-6 1 3 399.632 33.4693 3
-6 1 3 376.638 30.4417 2
6 -1 3 383.51 29.0563 1
-5 6 3 388.037 32.0357 3
1 -6 -3 347.345 29.5973 1
6 -5 -3 379.462 32.9449 1
-1 -5 3 416.449 31.9173 2
6 -5 -3 357.763 30.7334 2
5 -6 3 383.757 27.709 2
5 -6 3 370.272 31.4611 1
-6 5 -3 355.754 30.1414 3
1 -6 -3 411.191 33.7559 2
-5 -1 -3 415.191 31.7543 2
1 -6 -3 306.437 26.8661 5
-1 -5 3 407.018 31.1243 1
-5 -1 -3 424.377 35.6502 3
-1 -5 3 355.065 30.8765 3
5 -6 -3 433.317 34.2076 2
1 -6 3 431.375 33.4765 2
6 -5 3 454.824 34.0789 1
1 -6 3 477.32 34.6977 1
-5 -1 3 487.737 37.9222 3
-6 1 -3 474.2 38.3922 3
5 -6 -3 424.735 35.721 1
-1 -5 -3 380.69 30.9584 1
-5 -1 3 439.209 33.9208 2
-1 -5 -3 473.866 36.2657 3
6 -1 -3 337.912 30.4255 6
-1 -5 -3 407.936 35.2838 2
-6 5 3 448.965 36.0013 3
1 -6 3 368.091 31.651 3
-6 0 3 211.142 22.1831 2
0 -6 3 221.229 21.374 2
0 -6 3 209.901 20.47 3
6 -6 3 225.993 22.4535 1
6 -6 -3 199.595 18.0051 4
0 -6 -3 181.235 19.1271 1
0 -6 -3 183.141 16.3631 5
-6 0 -3 214.56 25.5151 3
0 -6 3 233.512 22.0591 1
6 0 3 189.147 18.162 1
6 -6 -3 208.374 23.4112 1
-6 0 -3 203.576 20.2505 2
6 0 -3 216.156 22.298 1
0 -6 -3 236.691 23.42 3
6 -6 -3 210.111 22.062 2
6 0 3 181.742 17.6225 6
6 0 -3 197.418 18.2546 6
-6 0 3 197.86 24.0667 3
-6 6 3 245.112 23.7517 3
0 -6 -3 202.246 24.6455 2
4 -7 3 196.993 17.1448 5
4 -7 3 211.994 19.3813 2
-7 3 3 213.109 26.1292 3
-3 -4 3 236.155 22.6727 1
-7 4 -3 218.417 25.2421 3
-3 -4 3 214.594 24.5223 3
3 -7 -3 207.808 21.9725 1
4 -7 3 216.988 22.644 1
-4 -3 -3 213.373 24.1343 3
-3 -4 3 196.815 22.0088 2
7 -3 3 167.75 17.1744 4
3 -7 -3 239.749 23.8333 2
7 -4 -3 182.684 23.5045 1
7 -4 -3 150.975 17.3109 4
7 -3 3 207.133 21.6126 1
-4 -3 -3 210.846 23.927 2
-7 3 3 222.056 20.7351 2
-4 7 3 216.938 22.6438 3
7 -3 -3 260.316 25.1518 1
-7 3 -3 268.597 28.5942 3
-3 -4 -3 235.088 26.641 2
-3 7 3 269.961 25.1921 3
4 -7 -3 258.192 25.2146 1
-7 4 3 276.123 28.0964 3
-4 -3 3 299.096 25.8622 1
-4 -3 3 271.33 24.517 2
7 -4 3 249.195 21.7862 4
-3 -4 -3 249.633 26.6457 3
-4 -3 3 292.637 28.5633 3
3 -7 3 219.974 19.4602 5
3 -7 3 243.362 25.0838 1
4 -7 -3 256.994 24.9661 2
7 -4 3 270.072 24.3947 1
3 -7 3 281.359 23.3635 2
4 3 3 238.514 21.8733 6
-2 -5 3 227.534 24.3335 3
-5 -2 -3 250.509 28.0742 3
2 -7 -3 184.881 17.4199 5
5 -7 3 224.874 19.2707 2
2 -7 -3 206.126 22.1157 1
5 -7 3 261.482 24.2833 1
-2 -5 3 231.603 23.5422 2
7 -2 3 221.727 21.5736 1
-5 -2 -3 210.618 24.6593 2
5 -7 3 221.01 18.3438 5
-5 7 3 227.532 22.9547 3
7 -5 -3 199.53 25.4322 1
-2 -5 3 238.625 24.0766 1
2 -7 -3 248.948 24.6879 2
-7 2 3 219.304 22.6238 2
-7 2 3 223.022 26.1556 3
-7 5 -3 232.627 23.7943 3
7 -5 -3 188.718 19.1571 4
2 -7 3 216.066 20.9842 2
7 -2 -3 173.082 17.9757 6
-5 -2 3 191.491 20.088 2
-2 -5 -3 181.659 24.0723 2
5 -7 -3 219.017 22.5002 2
7 -5 3 191.537 18.1953 4
2 -7 3 193.514 21.3823 1
-2 -5 -3 196.261 24.2057 3
-2 -5 -3 158.065 14.9956 5
5 2 3 190.377 17.8074 6
7 -5 3 197.711 20.9019 1
-5 -2 3 200.088 25.3433 3
5 -7 -3 176.995 22.378 1
-7 5 3 225.36 24.5254 3
7 -2 -3 222.187 23.736 1
-7 2 -3 172.786 26.3267 3
7 -1 3 1074.62 75.522 1
-1 -6 3 1031.8 76.6008 3
1 -7 -3 971.714 75.7071 1
-1 -6 3 1109.19 77.3844 2
7 -1 3 918.72 73.9049 6
-6 -1 -3 1130.83 80.8457 3
6 -7 3 1084.07 73.4313 5
-6 -1 -3 1099.1 77.1192 2
-6 7 3 1141.02 78.3024 3
7 -6 -3 1094.22 78.8918 1
6 -7 3 1187.01 78.4024 1
-7 1 3 1139.02 77.587 2
1 -7 -3 1130.84 73.5592 5
7 -6 -3 1101.99 74.4097 4
7 -6 -3 1114.66 77.2502 2
-7 1 3 1150.48 80.3421 3
-1 -6 3 1176.58 77.6848 1
6 1 -3 934.818 74.4717 6
1 -7 -3 1173.37 79.2352 2
6 -7 -3 1125.32 77.3557 2
7 -1 -3 1156.07 78.3706 1
-7 1 -3 1095.59 81.6421 3
1 -7 3 1116.78 77.2981 1
-6 -1 3 1164.96 80.3995 3
-6 -1 3 981.185 76.2799 2
-1 -6 -3 1022.76 72.8758 5
7 -6 3 1092.48 77.0003 1
6 -7 -3 1006.88 73.4651 4
6 -7 -3 1060.77 78.2272 1
1 -7 3 1149.27 77.1083 2
7 -1 -3 1003.21 73.8153 6
6 1 3 1111.26 74.4372 6
-1 -6 -3 1063.59 78.066 2
-7 6 3 1171.56 78.9829 3
7 -6 3 1034.35 73.6356 4
-1 -6 -3 1117.02 78.1696 3
-7 0 3 205.631 24.4584 2
7 -7 3 235.223 24.2089 1
0 -7 -3 221.639 26.9788 2
7 0 -3 227.439 24.026 1
7 -7 -3 217.884 22.3853 2
0 -7 3 239.524 24.3507 1
7 -7 3 191.898 17.4976 5
7 -7 -3 213.109 19.0451 4
0 -7 3 224.145 24.65 2
0 -7 -3 227.705 24.2074 3
0 -7 -3 219.809 18.4247 5
-7 0 -3 210.187 30.6014 3
-7 0 3 224.175 27.1252 3
7 -7 3 201.624 18.8092 4
7 0 -3 220.661 21.182 6
7 -7 -3 217.509 25.8935 1
-7 7 3 227.739 25.7546 3
7 0 3 223.398 20.4959 6
-4 -4 3 118.123 19.2024 1
4 -8 -3 124.398 19.4355 2
8 -4 -3 95.1507 13.5033 4
-4 -4 3 110.334 20.3751 3
8 -4 -3 82.1994 12.357 6
-4 -4 -3 92.7621 18.9327 3
8 -4 -3 101.289 18.8894 1
-8 4 3 106.599 20.4361 3
-4 -4 3 93.7446 16.3477 2
-4 -4 -3 121.901 20.8134 2
8 -4 3 94.4254 13.2116 4
4 -8 3 117.619 18.5431 1
4 -8 -3 102.893 12.3537 5
-4 8 3 94.6541 15.8586 3
-8 4 -3 117.538 21.7415 3
8 -4 3 118.589 18.7237 1
4 -8 3 109.38 15.387 2
-8 4 3 119.64 17.694 2
4 -8 -3 96.5195 17.133 1
4 -8 3 106.985 12.6483 5
4 4 3 83.6189 14.1442 6
3 5 3 249.145 22.7112 6
5 3 -3 232.038 22.9142 6
8 -3 3 297.944 25.8478 1
-3 -5 3 284.684 29.1563 3
-5 -3 -3 277.264 31.4954 3
5 -8 3 274.146 21.0333 5
3 -8 -3 254.31 26.0006 1
8 -5 -3 250.367 23.0763 4
-8 5 -3 318.376 29.2081 3
8 -3 3 247.797 22.4195 4
5 -8 3 291.23 26.5479 1
-8 3 3 236.34 28.3305 3
-5 8 3 286.584 26.4161 3
-3 -5 3 305.6 27.5221 1
-5 -3 -3 251.102 29.0219 2
5 -8 3 255.111 23.0978 2
8 -5 -3 255.031 28.5253 1
-3 -5 3 284.129 26.1629 2
3 -8 -3 296.756 27.6091 2
-8 3 3 279.948 26.2087 2
3 -8 -3 227.2 20.8063 5
5 -8 -3 113.87 19.3494 1
-5 -3 3 122.502 19.3487 2
5 -8 -3 140.585 20.9095 2
8 -5 3 139.503 19.6252 1
-3 -5 -3 171.644 23.7692 2
8 -3 -3 158.013 21.6306 1
-3 -5 -3 164.111 24.2205 3
-5 -3 3 158.311 19.0864 1
3 -8 3 142.451 14.0674 5
-8 5 3 140.527 23.434 3
8 -5 3 150.339 16.5431 4
8 -3 -3 125.015 15.7182 6
-3 -5 -3 133.306 12.8785 5
5 3 3 128.901 16.2248 6
3 -8 3 131.005 18.6753 1
-8 3 -3 168.099 27.9142 3
-5 -3 3 168.096 24.9665 3
3 -8 3 144.987 18.4315 2
-6 -2 -3 456.133 39.9363 3
-2 -6 3 404.23 35.8279 3
6 2 -3 364.535 32.9819 6
6 -8 3 466.819 31.3838 5
6 -8 3 479.022 37.7166 1
2 -8 -3 449.739 31.1725 5
-2 -6 3 456.89 36.941 2
8 -2 3 367.158 31.1591 4
-8 2 3 421.544 35.9167 2
2 -8 -3 517.482 39.4558 2
-6 8 3 439.003 36.3303 3
8 -2 3 434.862 34.6623 1
8 -6 -3 449.765 32.6248 4
2 -8 -3 391.717 34.8403 1
8 -6 -3 405.235 38.3306 1
-8 2 3 382.087 38.1853 3
-6 -2 -3 387.134 37.0833 2
8 -2 3 383.504 31.5053 6
-2 -6 3 471.252 37.1605 1
-2 -6 -3 597.144 45.9065 3
-6 -2 3 480.526 42.6986 2
6 2 3 591.052 40.4461 6
2 -8 3 555.106 42.7746 2
6 -8 -3 495.856 38.4538 4
8 -6 3 514.823 42.971 1
-6 -2 3 551.947 47.9242 3
-8 6 3 558.592 46.175 3
8 -2 -3 577.637 45.0766 1
8 -6 3 577.558 39.8663 4
2 -8 3 538.487 38.1321 5
-2 -6 -3 497.445 44.8995 2
2 -8 3 539.71 43.3351 1
-2 -6 -3 551.663 38.1208 5
6 -8 -3 495.805 44.0195 1
-8 2 -3 567.076 50.1746 3
8 -2 -3 522.868 39.6213 6
6 -8 -3 546.115 43.0166 2
8 -7 -3 394.824 37.9581 1
7 -8 3 423.079 33.143 4
-7 8 3 413.263 37.5629 3
-8 1 3 478.684 38.5708 2
7 -8 3 497.684 39.2062 1
-8 1 3 473.858 41.7299 3
1 -8 -3 487.045 40.6973 2
8 -1 3 460.362 34.0625 6
8 -7 -3 439.656 37.0669 2
-1 -7 3 438.985 37.8147 1
1 -8 -3 468.625 32.6396 5
-7 -1 -3 494.811 43.4781 3
-1 -7 3 461.37 38.6231 2
7 1 -3 393.253 34.4359 6
8 -7 -3 478.038 34.1246 4
7 -8 3 401.642 32.2635 5
7 -8 -3 295.258 24.2713 4
1 -8 3 300.099 29.3566 2
8 -7 3 288.28 28.9499 1
8 -1 -3 291.544 24.5873 6
7 -8 -3 298.699 28.728 2
-1 -7 -3 310.61 23.1167 5
-8 1 -3 297.251 37.0097 3
8 -7 3 327.541 25.0945 4
-7 -1 3 286.49 28.7085 2
-8 7 3 265.135 30.8378 3
7 -8 -3 279.531 31.096 1
-1 -7 -3 304.382 32.2164 2
8 -1 -3 302.319 29.8864 1
7 1 3 296.919 24.5854 6
-1 -7 -3 319.426 30.884 3
8 -7 3 268.111 22.4283 5
1 -8 3 306.988 28.6033 1
-7 -1 3 302.497 35.1708 3
-8 0 3 549.299 47.5105 2
0 -8 -3 536.205 49.8668 2
8 -8 3 633.428 44.0753 4
0 -8 3 652.742 49.282 2
8 -8 -3 654.807 44.1855 4
0 -8 3 573.092 47.5035 1
8 -8 -3 585.297 47.3396 2
0 -8 -3 604.044 48.0602 3
8 0 -3 650.372 44.9807 6
8 -8 -3 565.627 49.8032 1
-8 0 3 632.511 52.5079 3
8 0 3 613.813 43.8814 6
8 -8 3 601.992 48.4311 1
-8 0 -3 604.699 55.711 3
0 -8 -3 660.275 42.9079 5
8 -8 3 561.662 42.4202 5
5 -9 3 1054.08 67.4839 5
-9 5 -3 1087.96 76.205 3
-4 -5 3 1023.84 72.2596 2
9 -5 -3 968.767 68.8624 4
-4 -5 3 1002.05 72.9091 1
5 -9 3 1117.07 73.8774 1
4 5 3 960.698 68.5542 6
9 -4 3 1092.88 72.5292 1
-5 -4 -3 911.443 73.8728 2
-4 -5 3 940.618 73.4301 3
9 -4 3 993.07 68.4956 4
-5 -4 -3 1052.64 75.3061 3
5 -9 3 846.907 69.3845 2
5 4 -3 863.754 68.585 6
-9 4 3 1067.14 72.1782 2
-9 4 3 924.902 75.2655 3
9 -5 -3 1085.66 74.9377 1
4 -9 -3 926.817 67.4031 5
9 -5 -3 989.775 67.6672 6
4 -9 -3 892.313 71.6576 1
4 -9 -3 1055.81 73.1954 2
-9 5 3 1034.81 80.3409 2
-4 -5 -3 1129.92 76.3853 5
9 -4 -3 1097.55 78.2618 4
9 -5 3 1147.19 81.7237 1
5 -9 -3 1049.66 81.7622 1
9 -4 -3 1255.18 83.9379 1
4 -9 3 1214.24 77.1134 5
4 -9 3 1076.99 79.878 2
-5 -4 3 1009.21 81.2868 1
5 -9 -3 1176.66 82.9044 2
5 -9 -3 1073.03 77.2555 5
-5 -4 3 1144.06 81.7562 2
-4 -5 -3 1253.53 85.3289 3
-9 4 -3 1241.12 87.2961 3
4 -9 3 1194.73 82.6546 1
-9 5 3 998.159 83.3607 3
-5 -4 3 1220.05 85.3169 3
5 4 3 1114.55 78.2955 6
9 -5 3 1265.59 78.4424 4
9 -4 -3 1094.52 77.3728 6
-4 -5 -3 1125.24 83.9809 2
9 -6 -3 346.126 29.5691 4
-3 -6 3 387.276 34.3897 3
3 6 3 382.505 29.8723 6
-9 3 3 405.138 33.3799 2
6 -9 3 412 28.6767 5
-9 3 3 368.431 37.4825 3
9 -3 3 339.694 33.0638 1
3 -9 -3 469.463 37.9374 2
6 -9 3 417.366 35.8013 1
-6 -3 -3 399.166 38.5087 3
-3 -6 3 383.034 35.3785 1
-6 -3 -3 276.102 35.9439 2
6 3 -3 354.675 30.2713 6
-3 -6 3 381.112 33.7839 2
3 -9 -3 383.27 28.8847 5
9 -6 -3 365.881 36.4224 1
9 -3 3 398.469 29.9789 4
-6 -3 3 319.566 34.407 3
6 3 3 336.034 27.1858 6
9 -6 3 340.604 31.6529 1
9 -3 -3 332.161 25.6967 6
9 -6 3 356.144 26.379 4
6 -9 -3 303.122 31.7939 1
6 -9 -3 350.971 31.7695 2
6 -9 -3 287.706 25.2484 5
-3 -6 -3 306.759 24.0598 5
-3 -6 -3 319.911 32.4352 3
-9 3 -3 342.221 40.1035 3
-9 6 3 335.009 34.5304 3
-3 -6 -3 313.202 34.2862 2
3 -9 3 325.256 24.43 5
-6 -3 3 292.037 29.396 2
3 -9 3 328.271 30.232 1
6 -9 -3 295.437 24.8162 4
9 -3 -3 336.689 32.8192 1
3 -9 3 332.817 29.9089 2
9 -7 -3 859.195 68.5717 1
2 -9 -3 952.737 61.5797 5
-9 2 3 907.513 67.0301 2
7 -9 3 977.644 68.5969 1
-7 -2 -3 902.702 71.2579 3
9 -2 3 815.137 62.2846 4
-2 -7 3 867.457 67.3115 1
9 -2 3 895.311 62.5466 6
-9 2 3 879.006 71.4323 3
7 2 -3 849.143 63.4701 6
9 -7 -3 962.957 63.1735 4
7 -9 3 846.393 61.5135 5
-2 -7 3 895.679 66.822 2
2 -9 -3 994.936 69.3464 2
-2 -7 -3 1054.9 78.1611 3
7 2 3 1216.65 73.7589 6
2 -9 3 1003.15 75.9715 2
9 -2 -3 1121.92 78.4312 1
7 -9 -3 1121.14 77.3974 2
-7 -2 3 1119.69 81.5125 3
2 -9 3 1041.08 76.8003 1
2 -9 3 1058.92 71.4533 5
9 -2 -3 1088.49 72.6873 6
-2 -7 -3 1057.93 71.4606 5
-7 -2 3 994.216 76.7358 2
9 -7 3 1104.43 73.0592 4
7 -9 -3 1024.77 78.2377 1
7 -9 -3 1062.12 72.1832 4
9 -7 3 1102.15 77.1541 1
-2 -7 -3 906.399 77.283 2
-9 7 3 907.168 77.7398 3
-9 2 -3 934.148 82.828 3
9 -1 3 274.698 22.6154 6
-1 -8 3 219.657 27.2937 1
9 -1 3 220.242 20.8974 4
1 -9 -3 232.241 20.1808 5
1 -9 -3 227.849 30.3017 2
-9 1 3 243.8 27.5452 2
-1 -8 3 285.304 28.9399 2
8 -9 3 214.399 20.2522 5
9 -8 -3 248.222 22.2104 4
8 1 -3 232.755 23.3332 6
8 -9 3 228.298 26.2115 1
-9 1 3 262.497 32.4959 3
-8 -1 -3 258.958 37.4162 3
9 -8 -3 224.443 28.5868 1
8 -9 3 233.343 21.2861 4
9 -8 3 221.672 26.4047 1
1 -9 3 222.994 18.7118 5
-1 -8 -3 183.641 25.9905 3
-1 -8 -3 260.99 19.8466 5
9 -1 -3 257.262 22.7748 6
-1 -8 -3 239.654 30.5977 2
-9 1 -3 163.347 31.4905 3
9 -8 3 221.076 20.7516 4
8 -9 -3 236.172 21.2038 4
1 -9 3 250.887 27.7743 2
8 -9 -3 237.554 26.1262 2
9 -1 -3 258.22 28.301 1
1 -9 3 244.637 26.727 1
9 -8 3 245.311 19.786 5
-8 -1 3 204.122 26.6494 2
-8 -1 3 249.526 31.7532 3
8 -9 -3 196.33 27.9262 1
8 1 3 236.68 21.2814 6
-9 0 -3 78.2609 28.1462 3
9 -9 -3 88.2016 21.0153 1
-9 0 3 54.7284 16.7191 2
0 -9 3 84.1129 18.7759 1
9 -9 3 118.165 13.5925 5
0 -9 -3 95.9028 23.2761 2
9 0 3 96.5712 13.4674 6
9 -9 -3 136.627 15.3483 4
9 -9 3 106.015 15.4196 4
-9 0 3 106.846 27.0792 3
0 -9 -3 96.4389 11.9599 5
9 0 -3 109.855 15.4058 6
9 -9 3 81.8977 19.577 1
9 -9 -3 47.5058 15.5569 2
0 -9 3 85.0258 18.6066 2
5 -10 -3 2.40085 13.7201 1
10 -5 3 5.08464 9.41298 4
-10 5 3 0.21401 13.5666 2
-5 -5 -3 -2.5701 19.2422 2
-5 -5 -3 2.82248 5.7318 5
-10 5 -3 -8.9399 23.158 3
10 -5 -3 -1.9495 10.5794 4
10 -5 -3 1.26802 8.16834 6
5 5 3 4.05815 9.65126 6
-5 -5 3 -2.9105 13.8904 1
-5 -5 3 -3.4768 14.6673 2
5 -10 3 8.05121 15.7355 1
5 5 -3 -3.2764 9.90794 6
-5 -5 -3 -8.2442 16.2571 3
5 -10 -3 0.67379 5.84689 4
-5 -5 3 4.40797 16.6432 3
5 -10 -3 5.25474 8.85047 5
5 -10 3 2.47118 7.24568 5
10 -5 3 8.0076 13.3729 1
5 -10 3 1.48126 13.0364 2
10 -5 -3 8.26804 16.98 1
-10 5 3 3.8552 17.3136 3
5 -10 -3 10.8822 16.0667 2
10 -6 -3 22.9256 11.2754 4
-6 -4 -3 27.2991 18.5195 3
4 -10 -3 27.5755 17.6254 2
-4 -6 3 14.846 14.4228 2
6 -10 3 20.189 7.78533 5
-4 -6 3 -1.061 15.2318 3
-10 4 3 15.8669 20.7158 3
6 -10 3 30.7576 15.4665 1
-6 -4 -3 -0.3122 21.5276 2
10 -6 -3 26.6119 16.5584 1
6 4 -3 12.0924 11.9914 6
-4 -6 3 22.7612 14.2215 1
4 -10 -3 18.4756 8.19843 5
4 -10 -3 -0.2306 19.7925 1
10 -4 3 -1.7266 15.5284 1
-10 4 3 6.4969 14.155 2
10 -4 3 29.0912 10.6464 4
10 -6 -3 17.4145 7.693 6
4 6 3 25.8154 10.2006 6
6 -10 -3 33.7275 8.13005 4
-6 -4 3 35.2561 15.6663 1
-10 6 3 12.7586 13.6144 2
-4 -6 -3 18.4678 19.8054 2
10 -4 -3 19.8718 15.6585 1
10 -6 3 39.5506 12.024 4
6 -10 -3 6.14532 15.3729 1
6 4 3 28.236 9.58272 6
-4 -6 -3 35.3309 19.2777 3
10 -4 -3 39.6774 10.8347 6
10 -4 -3 23.1443 11.287 4
-10 6 3 11.2015 18.6609 3
4 -10 3 6.01308 12.4332 2
-4 -6 -3 21.9011 6.83086 5
-10 4 -3 6.48439 22.8853 3
4 -10 3 37.3833 16.0601 1
6 -10 -3 30.3106 9.88567 5
-6 -4 3 49.2511 19.2911 3
-6 -4 3 17.8577 14.3384 2
10 -6 3 28.7338 15.6564 1
4 -10 3 40.4 8.92465 5
6 -10 -3 32.6292 17.0234 2
10 -3 3 166.542 18.4693 6
-10 3 3 170.397 30.1685 3
10 -7 -3 165.86 19.6828 4
10 -3 3 190.975 19.6666 4
7 3 -3 169.062 19.8589 6
10 -7 -3 167.619 27.3342 1
-3 -7 3 166.649 25.3125 1
3 -10 -3 199.443 17.9028 5
7 -10 3 195.955 17.5404 5
-7 -3 -3 200.238 31.9035 3
7 -10 3 172.28 24.5928 1
3 -10 -3 187.402 27.4125 2
-3 -7 3 182.765 26.207 2
3 7 3 179.109 19.4865 6
-7 -3 3 136.059 22.3138 2
-3 -7 -3 158.699 13.9871 5
10 -3 -3 136.148 16.729 6
7 -10 -3 132.304 21.6733 2
7 -10 -3 137.9 14.8397 4
10 -3 -3 153.844 25.081 1
10 -7 3 92.566 19.5558 1
3 -10 3 156.927 23.7475 1
-3 -7 -3 114.92 24.6692 2
-7 -3 3 101.125 22.3763 3
-10 3 -3 65.3609 25.9752 3
-3 -7 -3 84.3903 20.1173 3
3 -10 3 152.432 14.899 5
7 -10 -3 133.769 15.7842 5
10 -3 -3 123.321 16.0893 4
10 -7 3 138.453 16.0434 4
7 3 3 158.408 18.3566 6
-10 2 3 1.44382 17.2067 2
10 -8 -3 25.3819 17.6768 1
8 2 -3 39.4506 12.7536 6
8 -10 3 32.2233 8.49197 5
10 -8 -3 42.8752 11.9842 4
2 -10 -3 29.4664 19.8316 2
2 -10 -3 33.1487 8.34987 5
-2 -8 3 10.0814 14.2612 1
8 -10 3 26.4647 9.33964 4
10 -2 3 34.351 10.6083 6
-8 -2 -3 19.4173 22.4597 3
-2 -8 3 20.6057 16.0047 2
10 -2 3 33.7289 11.1592 4
8 -10 3 15.0021 14.8538 1
2 8 3 24.7579 9.55475 6
-10 2 3 30.5 22.3281 3
8 -10 -3 50.2486 10.5423 5
10 -8 3 61.8446 12.3687 4
-8 -2 3 53.4781 21.5293 3
10 -8 3 20.9684 14.6961 1
-2 -8 -3 20.0442 17.7259 2
10 -2 -3 64.5638 12.8061 6
10 -8 3 44.7087 8.95912 5
8 -10 -3 67.7465 11.631 4
-10 2 -3 8.43603 22.2077 3
8 -10 -3 4.2955 16.5215 1
2 -10 3 41.6896 16.5906 1
-8 -2 3 21.1932 15.5007 2
2 -10 3 49.5146 9.01856 5
2 -10 3 27.4315 15.5361 2
-2 -8 -3 58.6488 9.33072 5
10 -2 -3 29.7238 15.3346 1
8 -10 -3 36.0249 16.7305 2
8 2 3 60.6079 12.5565 6
1 -10 -3 260.755 21.2313 5
-10 1 3 232.038 38.0115 3
9 -10 3 264.043 21.5082 5
9 1 -3 260.462 24.4945 6
9 -10 3 262.492 22.7275 4
10 -1 3 244.492 23.2825 4
1 -10 -3 189.227 31.1776 2
10 -1 3 222.28 22.1499 6
10 -9 -3 281.755 23.7545 4
-1 -9 -3 65.6294 22.565 2
1 -10 3 95.8198 19.4729 1
-9 -1 3 132.336 26.39 3
10 -1 -3 114.652 21.4988 1
10 -10 -3 420.097 33.3251 4
10 0 3 410.026 33.5678 6
10 -10 3 402.749 31.4973 5
0 -10 -3 397.854 31.0287 5
10 -10 3 420.659 33.0522 4
10 0 -3 489.426 34.8696 6
-5 -6 3 52.6484 16.5829 2
-5 -6 3 26.2537 16.4174 1
-11 5 3 2.9156 23.6099 3
-6 -5 -3 27.6757 18.9465 3
6 -11 3 57.9018 16.7735 1
-6 -5 -3 46.3465 6.92753 5
11 -6 -3 58.8417 18.3819 1
5 -11 -3 50.0071 17.2434 2
-6 -5 3 -6.0578 20.8474 3
11 -5 -3 65.0867 17.5596 1
-6 -5 3 55.6047 17.7227 2
6 -11 -3 46.8136 17.7118 2
-5 -6 -3 12.3155 19.1518 3
5 -11 3 66.5127 17.0509 1
-6 -5 3 27.7314 14.9872 1
6 -11 -3 37.0369 7.42371 4
7 -11 3 36.0232 17.8964 1
-4 -7 3 24.0545 16.4312 2
4 -11 -3 16.9616 17.6794 2
11 -7 -3 32.5891 18.9544 1
-7 -4 -3 27.9015 23.5222 3
11 -4 3 65.5863 12.4091 4
7 4 -3 66.1188 13.4791 6
11 -7 -3 49.1516 11.9993 4
-11 4 3 1.79927 24.2886 3
11 -7 -3 27.4055 7.79322 6
-4 -7 3 14.0443 16.8322 1
11 -4 -3 75.214 13.8637 4
11 -4 -3 60.8608 12.127 6
4 -11 3 84.084 11.3657 5
11 -4 -3 21.9333 16.0813 1
11 -7 3 79.7973 13.2267 4
7 -11 -3 62.2479 11.997 5
-4 -7 -3 63.0921 9.56006 5
4 -11 3 35.5513 17.8707 1
7 -11 -3 65.7995 10.6736 4
-4 -7 -3 -4.82 25.588 3
7 4 3 69.3928 12.6342 6
11 -7 3 63.848 10.5756 5
-8 -3 -3 9.58725 24.7188 3
8 -11 3 73.5058 10.0902 5
3 -11 -3 12.465 20.7081 2
11 -8 -3 -0.3385 18.3272 1
-3 -8 3 3.50758 17.2768 1
-11 3 3 4.02347 23.5982 3
-3 -8 3 5.83545 17.8562 2
3 8 3 61.9401 12.0427 6
11 -3 3 70.8867 11.4105 6
8 -11 3 4.28789 16.946 1
11 -8 -3 68.1355 11.9611 4
11 -3 3 73.3407 12.9206 4
11 -8 3 97.7849 14.5531 4
-3 -8 -3 82.0898 10.8296 5
3 -11 3 73.6773 11.0436 5
-8 -3 3 -1.4199 25.2863 2
8 3 3 112.211 15.4405 6
11 -8 3 73.8529 11.4427 5
11 -3 -3 45.2014 11.5059 4
11 -3 -3 61.5491 11.9995 6
8 -11 -3 71.7834 11.9657 4
8 -11 -3 69.4027 12.3384 5
2 -11 -3 122.322 13.7279 5
2 -11 -3 -2.9205 34.3595 2
9 2 -3 105.425 16.4847 6
11 -2 3 65.9085 13.5248 4
9 -11 3 87.0005 13.2962 4
11 -2 3 106.792 14.2719 6
9 -11 3 92.8896 12.5834 5
11 -9 -3 126.887 16.3814 4
11 -2 -3 89.0505 14.3098 6
11 -9 3 65.8162 11.1014 5
9 -11 -3 82.2721 13.226 4
9 2 3 96.7427 14.5143 6
2 -11 3 83.1745 11.5211 5
9 -11 -3 64.0352 12.0793 5
-2 -9 -3 90.5769 11.8057 5
11 -9 3 92.2613 14.0283 4
11 -10 -3 86.8163 14.6025 4
10 -11 3 97.9369 12.6111 5
11 -1 3 54.5111 13.179 4
1 -11 -3 106.796 12.8377 5
10 -11 3 86.3944 13.6461 4
11 -1 3 91.5783 14.0647 6
10 1 -3 93.3256 15.8948 6
11 -10 3 66.8048 11.1878 5
10 1 3 78.5425 14.4815 6
10 -11 -3 66.1699 13.3877 4
-1 -10 -3 56.7089 10.0368 5
1 -11 3 67.1902 10.7966 5
11 -10 3 75.4768 13.4124 4
11 -1 -3 87.9004 14.8024 6
11 0 3 28.0961 11.4751 6
11 -11 3 22.9254 10.5514 4
11 0 -3 45.9048 13.2305 6
0 -11 -3 31.7627 9.81878 5
11 -11 -3 32.1132 12.1047 4
11 -11 3 28.2893 8.65921 5
0 -11 3 14.8202 7.73254 5
12 -6 3 23.9313 11.2081 4
6 6 -3 9.42123 12.669 6
12 -6 -3 14.2694 11.4137 4
-6 -6 -3 12.7452 6.43228 5
12 -6 -3 6.99519 8.97425 6
6 6 3 11.8683 10.8645 6
6 -12 3 11.5427 8.5488 5
6 -12 -3 8.80784 9.71374 5
5 7 3 13.1601 10.9198 6
5 -12 -3 7.48657 9.07467 5
7 -12 3 6.58985 8.57733 5
12 -7 -3 4.23439 7.80101 6
7 5 -3 21.1015 13.8388 6
12 -5 3 1.74343 6.95225 6
12 -5 3 15.6623 11.0232 4
12 -7 -3 -2.3723 10.9893 4
-5 -7 -3 7.74582 7.43305 5
7 5 3 22.5756 11.7351 6
12 -7 3 0.08843 7.36074 5
5 7 -3 -0.5699 11.0367 6
12 -5 -3 17.7074 9.64631 6
7 -12 -3 14.7349 8.13986 4
12 -7 3 16.8335 10.0223 4
12 -5 -3 20.3885 11.7424 4
7 -12 -3 13.8845 9.88944 5
5 -12 3 12.8232 9.00971 5
12 -4 3 86.7767 14.5326 6
8 -12 3 112.124 14.4633 5
4 -12 -3 115.447 15.0137 5
12 -8 -3 88.5743 13.9316 4
4 8 3 95.5695 15.4375 6
8 4 -3 107.707 17.2092 6
12 -4 3 78.4293 13.6654 4
12 -8 3 138.369 16.4949 4
8 4 3 145.036 17.559 6
12 -8 3 95.1246 13.6575 5
12 -4 -3 122.975 15.763 6
8 -12 -3 90.4663 14.4832 4
8 -12 -3 87.8234 14.0846 5
-4 -8 -3 110.334 13.4606 5
4 -12 3 92.6998 14.3764 5
12 -4 -3 124.183 16.7417 4
3 9 3 17.9796 10.744 6
9 3 -3 29.2146 13.5468 6
12 -3 3 17.6737 9.95025 6
9 -12 3 13.6817 8.44457 4
9 -12 3 25.5071 8.55743 5
3 -12 -3 27.3808 8.83047 5
12 -9 -3 21.2504 11.2647 4
12 -3 3 14.273 10.5968 4
9 -12 -3 24.3935 9.81582 4
12 -9 3 23.1853 10.8205 4
3 -12 3 18.3125 9.29904 5
9 -12 -3 13.345 9.53401 5
12 -3 -3 -1.6611 9.65091 4
12 -3 -3 17.8535 11.1821 6
12 -9 3 21.6566 9.19021 5
-3 -9 -3 17.3088 8.33244 5
9 3 3 17.0482 11.43 6
12 -2 3 30.0901 12.0495 4
10 2 -3 48.5536 13.7162 6
12 -10 -3 34.6765 12.7685 4
10 -12 3 27.5112 10.3385 4
2 -12 -3 30.1022 8.89156 5
12 -2 3 32.3641 11.516 6
10 -12 3 23.1455 8.78937 5
10 2 3 48.5585 13.0409 6
12 -10 3 32.4523 11.9168 4
-2 -10 -3 24.2465 9.18001 5
10 -12 -3 26.5794 10.1882 5
10 -12 -3 35.9368 11.7331 4
12 -10 3 22.5592 8.78093 5
2 -12 3 24.6858 9.19041 5
12 -2 -3 30.6289 12.4713 6
12 -11 -3 267.816 24.879 4
11 -12 3 228.573 23.2161 4
11 1 -3 242.79 24.881 6
12 -1 3 240.779 24.0849 6
11 -12 3 238.923 21.8218 5
1 -12 -3 240.097 21.8401 5
12 -1 -3 277.573 25.4056 6
1 -12 3 227.988 21.4897 5
11 1 3 258.769 25.2969 6
-1 -11 -3 257.026 22.1427 5
12 -11 3 238.577 21.9251 5
12 -11 3 244.097 24.127 4
11 -12 -3 251.761 24.1395 4
12 -12 3 125.183 16.624 5
12 -12 -3 152.849 19.7421 4
12 -12 3 125.87 18.1245 4
0 -12 -3 129.033 15.9753 5
12 0 -3 157.342 20.7385 6
12 0 3 122.872 19.9692 6
6 -13 -3 22.9173 10.9045 5
6 7 3 20.2367 11.5986 6
7 -13 3 30.704 10.5675 5
7 6 -3 29.0222 14.3972 6
13 -6 3 21.2591 11.4762 4
13 -7 -3 20.9063 9.30435 6
13 -7 -3 16.2726 11.1709 4
6 7 -3 21.0997 14.0522 6
7 -13 -3 7.41554 9.7025 5
7 6 3 14.8442 11.6294 6
-6 -7 -3 4.95481 6.37365 5
13 -7 3 3.95483 10.5416 4
7 -13 -3 1.54382 8.88141 4
13 -6 -3 4.48231 9.32301 6
6 -13 3 10.9215 8.21572 5
13 -6 -3 9.95514 11.2439 4
8 5 -3 12.5732 13.9754 6
8 -13 3 19.2322 9.37038 5
5 -13 -3 17.8041 9.99158 5
13 -5 3 23.3198 11.1126 4
13 -5 3 11.5988 9.05816 6
13 -8 -3 29.9608 12.0572 4
13 -8 -3 -2.0633 6.51245 6
5 8 3 16.3334 12.202 6
-5 -8 -3 9.74807 8.08364 5
5 -13 3 16.5219 8.36926 5
8 -13 -3 23.6433 9.11287 4
8 5 3 18.1784 11.1119 6
13 -5 -3 15.6861 11.3305 4
13 -8 3 1.06489 7.60199 5
13 -5 -3 12.9495 10.2189 6
8 -13 -3 21.5803 11.0457 5
13 -8 3 12.0093 11.4834 4
13 -9 -3 69.174 14.0521 4
13 -4 3 53.3402 11.9173 6
4 9 3 65.2826 14.4657 6
9 4 -3 54.7783 14.0369 6
9 -13 3 93.7206 12.3742 5
13 -4 3 44.7039 12.2739 4
4 -13 -3 73.2342 11.9641 5
-4 -9 -3 79.8322 11.6319 5
9 -13 -3 69.7413 12.363 4
13 -9 3 82.5973 14.0315 4
9 4 3 73.6523 14.4135 6
13 -9 3 44.0709 10.5438 5
4 -13 3 108.02 13.4343 5
13 -4 -3 58.1436 13.739 4
13 -4 -3 82.475 14.1764 6
9 -13 -3 82.9505 13.63 5
10 3 -3 57.4477 15.0954 6
13 -3 3 46.1347 11.9888 6
13 -10 -3 71.0859 14.7196 4
10 -13 3 28.8754 9.45396 4
13 -3 3 49.1785 13.1434 4
3 -13 -3 51.6446 10.6453 5
10 -13 3 54.4169 10.9665 5
13 -10 3 75.5004 13.9743 4
10 -13 -3 47.686 11.8399 4
10 3 3 37.481 11.681 6
-3 -10 -3 54.5515 10.3472 5
13 -3 -3 47.8489 12.957 6
13 -10 3 42.3345 10.172 5
10 -13 -3 39.7382 11.3632 5
3 -13 3 53.9477 11.4872 5
13 -11 -3 55.7648 13.433 4
2 -13 -3 51.7901 10.2709 5
11 -13 3 36.5204 10.9324 4
11 2 -3 51.9811 14.1629 6
13 -2 3 46.2464 12.4549 4
11 -13 3 61.5886 11.2492 5
13 -2 3 52.009 13.1088 6
13 -11 3 75.8935 13.9757 4
11 -13 -3 55.686 11.8173 5
11 -13 -3 90.556 14.3654 4
-2 -11 -3 91.6442 12.8643 5
11 2 3 97.8707 16.4774 6
2 -13 3 60.2368 11.5182 5
13 -11 3 67.5747 11.9517 5
13 -2 -3 109.482 16.4732 6
12 -13 3 40.5917 10.397 5
12 1 -3 47.8327 14.6819 6
1 -13 -3 38.139 10.9225 5
13 -12 -3 36.258 12.459 4
13 -1 3 19.2299 12.7875 6
12 -13 3 25.592 11.1985 4
13 -1 -3 55.4197 14.4892 6
-1 -12 -3 31.7081 9.9282 5
13 -12 3 39.4404 10.9517 5
12 1 3 40.6508 13.6546 6
12 -13 -3 44.1022 13.0623 4
13 -12 3 36.2874 11.9197 4
1 -13 3 27.2994 9.80545 5
13 0 -3 136.439 20.6261 6
0 -13 -3 81.6064 13.4449 5
13 -13 3 108.265 17.6619 4
13 -13 -3 144.097 18.5253 4
13 0 3 128.253 20.1974 6
13 -13 3 106.039 16.0207 5
7 -14 3 66.9954 11.3921 5
14 -7 -3 83.733 14.9623 4
7 7 -3 83.3764 18.0208 6
7 -14 -3 72.9001 12.8306 5
14 -7 -3 64.3311 12.4046 6
14 -7 3 73.5071 14.2609 4
7 7 3 65.4425 14.7634 6
14 -6 3 27.7549 11.6943 4
6 -14 -3 18.4065 10.6753 5
14 -8 -3 4.67861 7.81186 6
8 6 -3 25.125 14.9172 6
6 8 3 37.3387 13.2959 6
14 -8 -3 27.2959 12.4091 4
8 -14 3 25.4972 9.84983 5
8 -14 -3 48.8072 12.5068 5
6 -14 3 65.6711 12.2974 5
8 6 3 61.514 14.1988 6
6 8 -3 -0.749 13.0445 6
14 -6 -3 32.8421 12.4525 4
14 -8 3 41.2727 12.1266 4
14 -6 -3 36.1177 11.6847 6
5 9 3 48.804 13.8467 6
5 -14 -3 76.6152 12.2862 5
14 -9 -3 54.045 12.7197 4
9 5 -3 64.022 16.5049 6
14 -5 3 57.3026 13.8258 4
9 -14 3 65.0826 11.3303 5
14 -5 3 54.9937 11.589 6
9 -14 -3 48.8503 11.7481 4
5 -14 3 116.832 14.1691 5
14 -5 -3 92.2077 15.738 4
9 5 3 67.0189 13.2366 6
9 -14 -3 108.065 15.2686 5
-5 -9 -3 66.1225 11.5523 5
14 -5 -3 85.6923 14.6897 6
14 -9 3 115.306 16.2854 4
10 4 -3 94.9836 18.4028 6
14 -4 3 74.3541 13.9616 6
14 -4 3 61.8517 14.511 4
4 -14 -3 120.09 14.8547 5
10 -14 3 100.978 13.9133 5
14 -10 -3 98.3652 15.4746 4
4 -14 3 63.1678 11.9425 5
10 -14 -3 75.7876 13.2739 4
10 4 3 61.3032 13.6564 6
14 -10 3 92.1361 15.2959 4
14 -4 -3 72.5705 13.7413 6
10 -14 -3 57.664 13.0846 5
-4 -10 -3 76.8055 11.9147 5
3 -14 -3 23.0722 9.70121 5
14 -3 3 24.3842 12.2445 4
11 -14 3 7.26414 8.44411 4
14 -3 3 38.7814 12.2705 6
14 -11 -3 28.9946 12.792 4
11 3 -3 38.0962 15.0216 6
11 -14 3 34.3214 10.0394 5
14 -11 3 41.5922 13.33 4
11 -14 -3 10.1465 10.8403 5
14 -3 -3 13.3474 12.4157 6
11 3 3 15.0845 12.4975 6
3 -14 3 15.489 9.51735 5
-3 -11 -3 20.6596 9.24853 5
11 -14 -3 7.58818 10.8536 4
14 -11 3 21.8387 9.34853 5
12 -14 3 99.4067 16.4264 4
12 -14 3 110.304 16.0371 5
12 2 -3 134.132 21.1597 6
14 -2 3 115.09 18.4973 6
14 -12 -3 142.753 19.9087 4
2 -14 -3 118.512 16.5263 5
2 -14 3 132.043 16.5928 5
14 -2 -3 141.651 20.6005 6
14 -12 3 128.921 17.0618 5
12 -14 -3 119.846 18.8928 4
12 2 3 149.578 21.3107 6
14 -12 3 135.651 19.2517 4
-2 -12 -3 135.292 16.4547 5
13 -14 3 117.181 15.5088 5
1 -14 -3 115.231 16.767 5
14 -1 3 115.735 19.4246 6
13 1 -3 151.167 21.8457 6
14 -13 -3 132.331 20.002 4
13 -14 3 115.12 17.7406 4
1 -14 3 118.581 15.6458 5
14 -13 3 122.532 18.8214 4
13 -14 -3 138.054 19.4951 4
14 -1 -3 131.482 21.2339 6
14 -13 3 114.277 17.1864 5
13 1 3 134.176 21.0328 6
-1 -13 -3 115.596 17.0415 5
-14 0 -3 74.9601 10.2992 9
14 -14 -3 69.9183 14.9456 4
14 0 -3 60.421 15.367 6
14 0 3 66.4616 15.4549 6
14 -14 3 71.3931 12.8798 5
14 -14 3 66.361 14.357 4
0 -14 -3 49.6633 11.9623 5
0 14 3 61.2779 9.53524 11
8 7 -3 119.267 20.5884 6
15 -8 -3 111.761 17.0035 4
8 -15 3 94.3947 14.0421 5
7 8 3 95.8031 16.7424 6
7 -15 -3 73.7297 14.0192 5
15 -8 3 127.26 17.0119 4
8 -15 -3 98.9838 15.6575 5
8 7 3 105.594 16.9258 6
15 -7 -3 71.0783 15.1967 4
15 -7 -3 77.5208 13.7696 6
15 -9 -3 5.97508 11.219 4
9 6 -3 26.2823 16.5499 6
15 -6 3 17.4312 12.2252 4
6 -15 -3 14.7388 9.43402 5
6 9 3 12.5508 12.3989 6
9 -15 3 15.2935 10.3547 5
9 -15 -3 22.6548 12.0343 5
15 -9 3 11.4322 10.9868 4
6 -15 3 14.9955 9.97844 5
15 -6 -3 8.10975 10.8981 6
15 -6 -3 13.87 12.6376 4
-6 -9 -3 1.49815 8.14189 5
9 6 3 19.2618 12.804 6
5 -15 -3 21.7201 10.5611 5
5 10 3 10.7715 11.7419 6
15 -10 -3 40.1239 13.0181 4
15 -5 3 16.1846 12.614 4
5 -15 -3 -4.0616 5.23575 8
10 5 -3 22.0226 15.7298 6
10 -15 3 16.0526 8.99202 5
15 -5 3 11.2683 9.96941 6
-5 -10 -3 2.15265 7.90719 5
5 -15 3 1.69378 9.79772 5
15 -5 -3 -1.9035 11.7419 4
15 -5 -3 21.5988 11.9511 6
10 -15 -3 18.2112 9.2066 4
15 -10 3 24.2107 12.804 4
15 -10 3 1.64959 8.00804 7
5 10 -3 -1.4832 8.24792 11
-10 15 -3 -0.2863 6.67769 10
10 -15 -3 18.5808 11.3472 5
10 5 3 8.63008 11.5263 6
4 -15 -3 -6.1216 6.2414 8
15 -11 -3 7.57893 12.4758 4
15 -4 3 -0.7313 10.6829 6
-11 -4 -3 2.27339 5.74555 9
15 -11 -3 -6.628 5.92987 7
-4 -11 3 3.91067 6.47064 9
11 4 -3 10.1319 14.4855 6
4 -15 -3 4.06317 10.2774 5
15 -4 3 2.77594 11.4982 4
11 -15 3 10.1123 8.87134 5
-15 11 3 2.18791 6.35014 10
11 -15 -3 15.7934 11.0896 5
15 -11 3 19.1179 12.8902 4
-4 15 3 3.92737 5.3957 11
-4 -11 -3 8.37178 8.77141 5
-11 15 -3 2.7553 6.16506 10
11 -15 -3 11.0421 10.6903 4
11 4 3 10.8539 11.5619 6
15 -11 3 1.95944 5.69939 7
15 -4 -3 7.80389 11.9179 6
4 -15 3 10.9259 10.1508 5
4 11 -3 -4.9445 6.44105 11
15 -3 3 14.2933 12.0058 6
3 -15 -3 5.16136 6.63954 8
12 -15 3 -3.4834 8.1639 4
12 -15 3 10.9168 9.81158 5
12 3 -3 14.2688 14.1647 6
15 -12 -3 2.07495 12.0264 4
3 -15 -3 14.4408 10.8004 5
-12 -3 -3 12.6443 7.58589 9
-3 15 -3 0.36124 5.50116 10
-15 3 3 4.91167 9.16181 10
15 -3 3 -4.1667 10.3529 4
15 -12 -3 13.9965 8.02094 7
-12 15 -3 9.51044 6.87273 10
-3 -12 -3 10.401 9.32182 5
15 -12 3 1.99518 8.33526 5
15 -12 3 3.89768 6.01398 7
15 -12 3 24.5034 12.4106 4
-15 12 3 13.3061 7.8194 10
12 3 3 8.17624 13.014 6
-15 3 -3 2.50751 5.81753 9
3 12 -3 10.7134 7.54091 11
12 -15 -3 5.88704 9.83021 5
12 -15 -3 12.2505 11.2193 4
15 -3 -3 17.966 13.1958 6
-3 15 3 8.31787 6.88769 11
3 -15 3 7.89824 10.3647 5
2 -15 -3 7.38403 7.09389 8
13 -15 3 8.83508 9.91524 5
-2 15 -3 1.10933 4.37713 10
15 -13 -3 16.0166 8.07992 7
15 -13 -3 17.3483 12.8466 4
-15 2 3 4.54929 6.53965 10
2 13 3 10.3196 6.44399 11
13 2 -3 26.8902 14.6869 6
-13 -2 -3 8.46443 7.69502 9
2 -15 -3 15.4797 10.7415 5
15 -2 3 17.6479 12.2723 6
13 -15 3 18.999 10.7151 4
15 -13 3 15.9821 6.85801 7
-15 2 -3 15.4875 7.81014 9
15 -13 3 35.9395 13.1647 4
-2 15 3 46.5589 8.99695 11
-13 15 -3 24.1243 8.25198 10
-15 13 3 20.5232 7.75806 10
2 13 -3 28.6977 8.84403 11
15 -2 -3 37.187 14.0486 6
15 -13 3 11.9277 9.69515 5
2 -15 3 19.6456 10.1935 5
-2 -13 -3 28.5725 10.2742 5
13 2 3 33.5691 14.2382 6
13 -15 -3 30.1454 12.3364 4
14 -15 3 84.0553 13.587 5
-14 -1 -3 63.3476 9.96988 9
1 14 3 82.549 10.1789 11
1 -15 -3 71.5189 9.44855 8
14 1 -3 103.5 17.6633 6
1 -15 -3 59.2364 12.0037 5
15 -14 -3 84.4693 10.647 7
15 -14 -3 76.5102 14.9299 4
-1 15 -3 48.0179 9.16701 11
15 -1 3 76.2067 15.238 6
-15 14 -3 55.7166 9.98417 10
14 -15 3 79.1409 14.3054 4
14 1 3 105.773 17.687 6
1 14 -3 90.4673 11.6255 11
15 -14 3 78.544 13.7812 5
15 -1 -3 95.7893 17.5756 6
-15 14 3 88.1241 11.0541 10
-1 15 3 98.3477 11.3397 11
-1 -14 -3 69.0895 12.7032 5
-14 15 -3 75.4254 11.2106 10
14 -15 -3 83.2497 15.2674 4
15 -14 3 96.2748 15.8295 4
-15 1 -3 88.3324 11.3128 9
-15 0 3 19.5713 7.57132 10
15 -15 -3 10.3864 7.45804 7
15 -15 3 18.1062 12.0894 4
15 0 3 7.20066 13.3681 6
15 -15 3 16.2556 10.0919 5
0 -15 -3 12.6751 7.09978 8
0 15 -3 9.92402 6.09879 10
0 15 -3 14.4537 8.59667 11
0 -15 -3 20.4206 10.2188 5
15 -15 -3 20.2237 12.9693 4
-15 0 -3 9.11951 7.90364 9
15 -15 3 -1.6026 5.0835 7
-15 15 3 12.572 7.76575 10
-15 15 -3 6.59986 8.83193 10
0 15 3 10.7947 7.82499 11
15 0 -3 19.23 14.4156 6
8 8 3 34.5749 14.1287 6
8 -16 -3 21.4241 10.6385 5
16 -8 3 7.86353 5.78617 7
8 8 -3 -0.3533 5.63331 11
-16 8 3 32.6042 9.39584 10
8 -16 -3 -3.1165 5.95334 8
16 -8 3 31.6089 12.9857 4
16 -8 -3 41.3046 13.6028 4
8 -16 3 41.447 11.735 5
-8 -8 3 11.0083 6.81559 9
-8 -8 -3 -1.7718 7.31738 9
-8 16 -3 15.8638 6.73696 10
8 -16 3 13.5321 6.61138 8
16 -8 -3 1.30502 8.64325 6
8 8 -3 12.9646 15.2812 6
-7 16 -3 3.15262 6.53059 10
-9 -7 -3 -0.4 5.98352 9
9 -16 3 17.6104 10.9157 5
9 -16 3 12.2184 6.60176 8
16 -7 3 7.0518 12.2919 4
7 9 3 2.10861 12.7434 6
9 7 -3 9.64656 16.3374 6
16 -9 -3 3.03508 12.0851 4
7 -16 -3 6.06383 7.11036 8
-7 -9 3 8.53856 8.26161 9
-16 7 3 17.0659 8.94111 10
16 -9 -3 -6.077 7.78797 7
7 -16 -3 2.76145 10.5303 5
16 -7 -3 10.448 10.9275 6
7 9 -3 5.54524 6.89543 11
9 -16 -3 10.2372 11.177 5
9 7 3 13.0372 12.9742 6
7 -16 3 5.18335 6.34446 8
-16 9 3 12.827 9.81968 10
16 -7 -3 12.2216 12.6077 4
16 -9 3 6.65862 6.75706 7
-9 16 -3 5.6442 7.62326 10
-9 -7 3 -2.9786 7.51098 9
16 -9 3 11.1739 12.1671 4
7 -16 3 5.68646 10.118 5
10 -16 3 34.4408 7.11524 8
-6 -10 3 44.6659 9.97837 9
-10 -6 -3 26.3927 8.06223 9
6 -16 -3 56.1668 12.5982 5
-16 6 3 44.7326 9.54086 10
10 6 -3 44.596 17.2082 6
10 -16 3 33.0749 10.354 5
-6 16 -3 35.7403 7.40811 10
16 -6 3 41.0415 13.8186 4
16 -10 -3 61.5277 14.2108 4
6 -16 -3 15.7906 7.7255 8
6 10 3 16.7837 13.1411 6
16 -10 -3 26.7899 7.2533 7
-10 16 -3 39.865 9.3042 10
6 10 -3 38.4979 8.45582 11
16 -10 3 40.9818 13.1357 4
16 -6 -3 33.8238 12.5172 6
10 -16 -3 36.2068 12.2534 5
10 6 3 38.4767 14.3104 6
16 -6 -3 37.6844 13.7453 4
16 -10 3 40.4121 8.81537 7
6 -16 3 14.454 6.25742 8
-16 10 3 36.564 10.3443 10
6 -16 3 53.7401 12.5619 5
11 -16 3 28.4456 10.4858 5
16 -11 -3 41.458 13.7715 4
16 -5 3 6.42608 9.85146 6
16 -11 -3 21.3877 7.97673 7
-16 5 3 30.4026 8.782 10
-11 -5 -3 27.4987 8.26569 9
5 -16 -3 49.509 12.9097 5
5 -16 -3 36.9348 8.95663 8
-5 16 -3 28.8593 6.72772 10
16 -5 3 30.3519 13.4884 4
11 -16 3 36.4659 7.38381 8
11 5 -3 58.6876 17.9161 6
-5 -11 3 36.2928 9.24255 9
-5 16 3 29.409 7.97493 11
11 5 3 37.3249 13.7872 6
-16 11 3 36.0544 10.2002 10
16 -5 -3 39.9901 13.8112 6
5 11 -3 50.4126 9.61819 11
5 -16 3 44.6071 12.3328 5
11 -16 -3 42.5263 12.4351 5
-11 16 -3 40.7595 9.95524 10
16 -11 3 34.0667 8.97804 7
16 -11 3 69.7164 15.1248 4
4 -16 -3 2.5857 10.432 5
16 -12 -3 15.7529 13.4696 4
-4 -12 3 7.81932 8.38095 9
16 -12 -3 8.96659 8.27494 7
-4 16 -3 8.83673 6.13958 10
16 -4 3 3.89627 11.5031 6
12 -16 3 0.41505 6.07212 8
12 -16 3 14.1488 9.98854 5
-12 -4 -3 0.01259 8.11477 9
4 -16 -3 2.39732 7.40169 8
16 -4 3 1.38951 11.5018 4
-16 4 3 12.7386 8.24122 10
4 12 3 -0.2391 5.27338 11
12 4 -3 26.1832 15.7615 6
-16 12 3 22.0457 9.67001 10
12 -16 -3 17.7523 11.2104 5
-4 16 3 12.0905 7.74139 11
16 -12 3 13.9846 8.32941 7
-12 16 -3 18.9636 8.53133 10
4 -16 3 11.5243 10.5866 5
16 -12 3 21.7194 13.2016 4
12 4 3 15.8436 12.8358 6
-4 -12 -3 5.74133 8.14488 5
-16 4 -3 16.8928 7.89029 9
4 12 -3 10.7836 8.76395 11
12 -16 -3 16.2127 11.0083 4
16 -4 -3 19.169 12.6344 6
-13 -3 -3 144.98 15.5891 9
16 -13 -3 160.31 15.9633 7
3 -16 -3 153.561 18.8162 5
16 -13 -3 188.327 22.0414 4
-16 3 3 123.649 13.905 10
13 -16 3 124.721 12.839 8
13 3 -3 162.19 24.1446 6
3 -16 -3 132.13 14.4036 8
-3 -13 3 120.798 14.7848 9
3 13 3 109.162 13.9982 11
13 -16 3 156.145 18.571 5
16 -3 3 150.236 21.2171 6
-3 16 -3 112.894 13.062 10
16 -13 3 120.766 14.8748 7
13 -16 -3 119.918 18.4777 4
-3 16 3 101.649 14.8035 11
-16 3 -3 113.006 14.5241 9
3 -16 3 102.312 15.1355 5
13 3 3 134.47 21.5252 6
-13 16 -3 117.086 14.9019 10
16 -13 3 147.534 20.237 4
16 -3 -3 143.999 21.5674 6
-16 13 3 133.726 14.5367 10
3 13 -3 100.022 14.5669 11
-3 -13 -3 109.652 16.1565 5
14 2 -3 19.3887 14.9731 6
16 -14 -3 21.0109 12.7037 4
-2 16 -3 13.9942 7.09957 10
-16 14 -3 7.44676 9.24347 10
2 -16 -3 3.249 10.0547 5
14 -16 3 11.5128 10.4014 5
-2 16 -3 15.692 8.14461 11
-16 2 3 11.4378 8.63728 10
16 -14 -3 15.9125 7.94755 7
14 -16 3 -0.6909 8.96961 4
2 -16 -3 5.54296 7.07565 8
2 14 3 13.6771 7.84657 11
16 -2 3 18.0652 12.9231 6
-14 -2 -3 10.4769 8.03363 9
-14 16 3 7.01069 6.69647 10
14 -16 3 20.0879 6.18592 8
2 -16 3 -2.2144 8.30544 5
-16 2 -3 0.21105 7.97109 9
14 -16 -3 -3.4045 5.34774 7
-14 16 -3 1.84277 8.86424 10
-2 16 3 11.5194 8.14135 11
-14 -2 3 3.91889 6.73354 10
2 14 -3 -2.7744 5.09422 10
-2 -14 -3 7.40419 9.13994 5
16 -14 3 10.0977 12.3583 4
-16 14 3 -1.9348 8.35871 10
14 -16 -3 11.7925 11.7012 4
2 14 -3 9.71656 8.80105 11
14 2 3 12.8486 13.573 6
16 -14 3 6.59115 7.55329 7
16 -2 -3 17.005 13.4659 6
-15 -1 -3 10.4304 8.2006 9
-16 1 3 20.8936 8.88786 10
15 -16 3 8.61937 10.5303 4
-1 16 -3 25.3228 9.22995 11
15 1 -3 29.5523 16.136 6
-15 16 3 26.4173 7.77812 10
16 -15 -3 24.1684 13.1538 4
16 -15 -3 22.0247 7.72599 7
15 -16 3 9.27694 5.42476 8
1 15 3 13.0264 8.10526 11
1 -16 -3 19.9399 7.65287 8
15 -16 3 20.0631 10.7932 5
1 -16 -3 18.1454 10.7138 5
-1 16 -3 17.0422 7.36746 10
15 -16 3 -3.758 6.20008 7
-16 15 -3 15.2323 9.4602 10
16 -1 3 4.38061 12.761 6
15 -16 -3 11.7059 7.20532 7
16 -15 3 16.9773 12.8664 4
-1 -15 -3 11.4928 6.76013 8
-15 -1 3 14.1227 8.37363 10
-16 1 -3 20.2169 8.695 9
-15 16 -3 21.2436 9.79866 10
15 1 3 14.7767 13.7686 6
-1 -15 -3 10.2786 9.41792 5
1 15 -3 20.0219 8.98748 11
-1 16 3 6.6256 7.90837 11
16 -1 -3 27.4899 14.821 6
1 15 -3 8.35679 6.72756 10
16 -15 3 10.9977 7.4253 7
15 -16 -3 23.0806 12.6371 4
-16 15 3 15.7594 8.41751 10
16 -16 3 56.1431 8.64947 7
0 16 -3 55.2012 10.2433 11
16 -16 -3 49.8323 8.87306 7
16 -16 -3 44.1017 13.6721 4
0 16 -3 50.1321 8.61689 10
16 0 -3 60.7358 16.8298 6
0 -16 -3 41.8494 11.2023 5
-16 0 3 56.0839 10.201 10
16 0 3 68.7068 15.7872 6
-16 0 -3 46.6245 9.22677 9
16 -16 3 24.9555 11.6329 4
0 16 3 32.0104 8.80874 11
-16 16 -3 62.4182 11.3954 10
0 -16 -3 39.2181 7.89386 8
-16 16 3 38.6973 8.52044 10
8 -17 -3 7.99715 7.58411 8
9 -17 3 18.7298 7.59031 8
9 -17 3 12.0181 10.6093 5
17 -8 3 17.2149 7.92645 7
8 9 3 15.3997 13.6459 6
17 -9 -3 13.5077 12.5949 4
9 8 -3 -3.1077 14.906 6
17 -9 -3 6.30103 6.47547 7
-9 -8 -3 11.6111 7.83723 9
-17 8 3 26.2421 9.87851 10
9 8 -3 11.8082 7.48112 11
-8 17 -3 13.5375 7.54203 10
-8 -9 3 9.91577 9.53148 9
17 -8 3 15.6798 12.1628 4
8 -17 -3 11.2178 11.0696 5
-17 9 3 16.4598 10.3569 10
8 9 -3 14.6238 7.85119 11
-9 17 -3 17.0695 8.24508 10
8 -17 3 7.47086 7.34325 8
9 -17 -3 8.36767 7.0543 8
-9 -8 3 10.8775 9.11571 9
9 8 3 7.05782 13.7691 6
17 -9 3 18.8775 12.6146 4
9 -17 -3 20.7148 11.0919 5
17 -8 -3 16.0491 12.8739 4
17 -9 3 6.90591 7.67976 7
-8 -9 -3 5.91053 7.51908 9
-8 17 3 0.15501 6.09578 11
8 -17 3 15.6821 10.7597 5
-17 7 3 39.3775 10.0115 10
17 -7 3 23.018 6.87056 7
7 -17 -3 29.4992 11.2245 5
17 -10 -3 41.1761 13.5524 4
7 -17 -3 29.7675 7.91392 8
17 -10 -3 25.8264 8.31955 7
-7 -10 3 36.2901 10.5321 9
10 7 -3 24.4597 6.58391 11
7 10 3 14.8039 12.9931 6
-10 -7 -3 20.1395 8.50708 9
17 -7 3 27.0585 13.0057 4
-7 17 -3 38.6513 8.607 10
10 -17 3 34.1669 11.5541 5
10 -17 3 35.1381 7.85106 8
10 7 -3 40.4691 17.5591 6
-10 -7 3 46.8029 10.0708 9
17 -7 -3 23.8802 12.9963 4
7 -17 3 38.8715 7.95541 8
10 -17 -3 31.2067 7.79056 8
17 -7 -3 32.4099 12.0063 6
10 7 3 34.572 14.8905 6
7 10 -3 40.257 9.01831 11
7 -17 3 58.2964 12.3318 5
10 -17 -3 53.4489 12.7978 5
-10 17 -3 43.6448 9.30079 10
-17 10 3 58.7576 11.7223 10
-7 17 3 30.4973 8.13091 11
17 -10 3 35.96 8.66688 7
17 -10 3 51.194 14.2497 4
-7 -10 -3 28.9578 7.39772 9
11 -17 3 53.2841 11.8393 5
6 -17 -3 77.0157 10.5298 8
17 -11 -3 75.8464 15.277 4
-6 17 -3 100.12 10.4843 10
-6 -11 3 75.452 11.4965 9
17 -6 3 64.4995 15.0023 4
11 -17 3 79.5455 9.67903 8
-11 -6 -3 57.184 10.2223 9
6 -17 -3 70.1759 13.3908 5
17 -11 -3 71.3042 10.3598 7
11 6 -3 97.3386 19.5295 6
-17 6 3 85.8611 11.966 10
17 -11 3 76.9243 10.5302 7
-17 11 3 102.508 13.526 10
-11 17 -3 99.785 11.8812 10
-17 6 -3 55.7665 9.53586 9
-6 17 3 80.4118 10.5352 11
6 -17 3 66.3036 9.40357 8
11 -17 -3 66.7129 13.7023 5
-11 -6 3 66.3014 10.4993 9
17 -11 3 69.3553 15.2963 4
11 6 3 71.9026 16.0149 6
6 11 -3 65.3882 10.4603 11
6 -17 3 56.8855 12.7537 5
17 -6 -3 47.3607 13.9376 6
-5 17 -3 62.013 8.97889 10
5 -17 -3 41.9265 8.812 8
12 5 -3 64.0477 18.2651 6
17 -12 -3 52.8366 9.20146 7
5 -17 -3 63.2204 13.7171 5
17 -12 -3 56.8985 14.8488 4
-17 5 3 46.6027 10.2838 10
12 -17 3 34.7637 10.8136 5
12 -17 3 51.8162 8.22141 8
-12 -5 -3 45.1065 9.80261 9
-5 -12 3 76.7142 11.4464 9
12 -17 -3 28.7676 10.9278 5
-12 17 -3 42.1717 10.1229 10
17 -12 3 41.3851 14.347 4
5 -17 3 27.0965 11.5159 5
-17 12 3 50.1333 11.4213 10
17 -12 3 34.8163 8.98657 7
5 12 -3 41.0605 9.43726 11
12 5 3 35.5282 13.447 6
17 -5 -3 30.2024 13.312 6
-17 5 -3 31.438 8.79233 9
-12 -5 3 33.3527 8.1745 9
5 -17 3 32.6505 8.03056 8
-5 17 3 30.0625 8.55872 11
-4 17 -3 2.03966 6.7192 10
13 -17 3 8.01432 10.646 5
17 -4 3 6.63439 11.4934 6
13 -17 3 1.48924 6.54108 8
-13 -4 -3 -3.8524 8.48434 9
4 -17 -3 7.86257 7.76567 8
4 -17 -3 2.77882 10.5895 5
-17 4 3 7.83387 8.84402 10
-4 -13 3 0.64129 8.69851 9
4 13 3 7.64622 7.51653 11
13 4 -3 12.8575 15.9276 6
17 -13 -3 10.4013 12.5009 4
17 -13 -3 10.7342 7.9233 7
-17 13 -3 4.29206 8.1602 10
-13 17 3 2.72094 5.51099 10
-4 17 3 1.18072 7.49664 11
-17 4 -3 8.45252 7.73528 9
-17 13 3 2.87941 9.47237 10
-13 17 -3 1.35835 8.64698 10
4 -17 3 5.80678 7.02517 8
17 -13 3 14.3887 12.8434 4
13 4 3 7.61042 12.7681 6
4 -17 3 14.4262 10.943 5
-13 -4 3 -1.3141 5.24587 9
4 13 -3 -3.581 4.44448 10
4 13 -3 13.5166 8.82775 11
17 -4 -3 10.774 13.4932 6
17 -13 3 6.97158 7.91675 7
3 -17 -3 79.1738 10.0157 8
17 -3 3 57.4362 14.6669 6
-14 -3 -3 72.7806 10.411 9
-14 17 3 49.4279 9.05585 10
14 -17 3 84.1496 14.1253 5
-3 -14 3 63.3727 10.3205 9
17 -14 -3 79.9415 10.1817 7
14 3 -3 106.036 19.17 6
3 -17 -3 53.5748 12.7024 5
-17 14 -3 45.3643 10.909 10
17 -14 -3 83.8256 16.1173 4
-3 17 -3 71.28 10.8963 11
-3 17 -3 93.2864 10.2557 10
-17 3 3 64.4764 10.8945 10
3 14 3 63.7643 9.9163 11
14 -17 3 59.7454 8.92166 8
14 -17 -3 9.28347 10.3873 4
3 14 -3 29.0154 6.63184 10
-14 -3 3 27.505 7.34887 10
14 3 3 54.3222 15.2673 6
3 -17 3 1.55174 9.04216 5
17 -14 3 57.9421 13.8797 4
17 -3 -3 76.7928 15.9942 6
2 -17 -3 15.5468 10.338 5
-15 17 3 13.6382 7.72443 10
2 -17 -3 14.5846 7.17971 8
15 2 -3 17.1931 14.4724 6
-2 -15 3 6.26627 7.57914 9
17 -2 3 -1.6521 12.733 6
-15 -2 -3 8.86711 7.82996 9
-2 17 -3 4.7453 7.38608 10
15 -17 3 3.90297 9.58945 5
-17 2 3 6.15871 8.46259 10
15 -17 3 18.0001 6.99194 8
17 -15 -3 16.429 7.47504 7
2 15 3 4.00248 7.88083 11
-17 15 -3 11.1336 10.0047 10
-2 17 -3 8.54549 9.0216 11
17 -15 -3 16.8372 12.6619 4
-2 -15 -3 1.80495 4.76305 8
17 -2 -3 7.02836 13.1077 6
2 15 -3 19.7699 7.12948 10
-17 15 3 -1.4644 8.25267 10
15 -17 -3 3.58932 6.72363 7
17 -15 3 8.59832 12.6463 4
-17 2 -3 5.89841 8.01337 9
15 2 3 7.16209 13.7817 6
-2 17 3 14.2297 8.1688 11
-15 -2 3 7.51812 8.46954 10
-15 17 -3 7.17029 9.39077 10
2 15 -3 13.9856 8.30915 11
15 -17 -3 7.91025 10.5069 4
17 -15 3 15.6223 7.60047 7
1 -17 -3 3.32994 9.00248 5
16 1 -3 -0.5566 14.0313 6
17 -16 -3 11.7297 12.0427 4
17 -1 3 11.0372 12.7258 6
-1 17 -3 5.82993 7.11562 10
16 -17 3 5.1293 5.71777 7
-16 17 3 4.95846 7.70327 10
-17 1 3 2.14373 8.43903 10
17 -16 -3 10.3843 7.17031 7
-17 16 -3 14.7949 9.65942 10
-1 -16 3 5.78718 7.70598 9
1 16 3 5.78934 7.42987 11
1 -17 -3 7.35267 6.9179 8
16 -17 3 5.03864 6.27798 8
-16 -1 -3 5.52297 7.6032 9
-1 17 -3 11.9426 8.74624 11
-1 17 3 11.6888 8.19616 11
-1 -16 -3 10.5984 6.51613 8
17 -16 3 12.3455 7.36395 7
1 16 -3 18.6892 8.6573 11
17 -1 -3 11.4801 13.6483 6
-16 17 -3 12.3067 9.49854 10
16 -17 -3 19.861 10.8612 4
1 16 -3 11.4164 7.32676 10
-16 -1 3 10.2531 8.74845 10
-17 16 3 11.315 7.77523 10
16 1 3 10.6335 14.1292 6
17 -16 3 14.3081 10.7078 4
16 -17 -3 8.30694 7.0435 7
-17 1 -3 16.0706 7.88611 9
-17 17 -3 6.46187 9.72232 10
0 17 -3 8.57991 8.37828 11
-17 17 3 7.48743 7.76657 10
0 -17 3 3.92321 7.43112 9
0 -17 -3 7.50931 6.47316 8
-17 0 -3 7.14064 7.68564 9
17 -17 -3 5.83667 9.54907 4
17 -17 3 0.33431 6.86722 7
17 0 3 11.4482 13.2085 6
17 -17 3 -2.5204 4.66043 8
0 17 3 7.43611 7.76539 11
0 17 -3 2.5223 7.16945 10
-17 0 3 6.55255 8.55397 10
17 -17 -3 8.22701 6.8944 7
17 0 -3 13.2171 13.8131 6
-18 9 3 2.26063 9.51682 10
18 -9 3 -3.3685 7.5498 7
-9 18 -3 4.78421 7.94898 10
18 -9 -3 22.9454 12.9683 4
9 9 3 4.61347 13.0861 6
-9 18 3 13.7111 7.24682 11
9 -18 3 17.8099 10.4622 5
-18 9 -3 0.5951 4.85783 9
9 -18 3 -0.4728 6.94682 8
9 9 -3 8.70178 7.71325 11
-9 -9 -3 5.8988 7.71153 9
-9 -9 3 4.04689 8.76832 9
18 -9 -3 4.86798 7.01774 7
9 -18 -3 19.5127 11.0161 5
9 -18 -3 9.45632 7.61392 8
18 -9 3 13.1938 12.5598 4
10 -18 3 28.7692 7.60906 8
8 -18 -3 38.1926 11.7611 5
-18 8 3 24.8914 9.7365 10
-8 18 -3 29.2178 8.16445 10
-10 -8 -3 30.4042 8.80306 9
18 -10 -3 35.1615 8.07482 7
18 -8 3 24.3869 8.26739 7
18 -8 3 41.3645 14.5143 4
8 -18 -3 17.7616 7.71852 8
-8 -10 3 32.2525 9.93156 9
18 -10 -3 35.0484 13.5073 4
10 8 -3 24.5172 8.12953 11
10 -18 3 30.3598 12.2217 5
10 8 3 8.13614 13.6169 6
18 -8 -3 -6.7151 5.1032 7
18 -10 3 8.04506 7.91769 7
8 -18 3 4.6422 10.9591 5
18 -10 3 13.0619 12.7167 4
-8 18 3 20.2879 8.04787 11
8 10 -3 12.8475 7.95498 11
18 -8 -3 -0.7252 11.2728 4
10 -18 -3 18.3165 10.8835 5
-10 18 -3 16.9534 8.5606 10
8 -18 3 17.041 7.14189 8
-18 8 -3 5.7657 6.96231 9
-10 -8 3 15.3732 9.27251 9
-18 10 3 13.7673 9.50802 10
-8 -10 -3 6.98781 7.92751 9
10 -18 -3 5.84403 7.35428 8
-18 7 3 10.0743 9.23777 10
18 -7 3 7.79009 13.0152 4
18 -7 3 10.6243 7.47987 7
11 7 -3 7.67799 15.0552 6
18 -11 -3 7.85576 7.09848 7
11 -18 3 11.2795 6.77065 8
-7 -11 3 8.73556 9.07353 9
-11 -7 -3 13.2924 8.50253 9
7 -18 -3 8.36932 10.3821 5
-7 18 -3 11.0118 7.37763 10
18 -11 -3 13.1243 13.0358 4
7 -18 -3 8.12895 7.81736 8
11 7 -3 1.3718 6.52646 11
11 -18 3 5.91076 10.2145 5
-7 -11 -3 14.4734 7.8584 9
11 7 3 18.1573 14.1623 6
7 11 -3 19.8561 8.6 11
11 -18 -3 13.0496 7.07272 8
18 -11 3 22.0338 8.26598 7
-18 7 -3 9.44191 7.961 9
-18 11 3 27.8689 11.3312 10
18 -11 3 21.5584 12.3792 4
-11 -7 3 11.6165 8.79604 9
-7 18 3 23.2748 8.44087 11
7 -18 3 16.9443 11.8089 5
7 -18 3 17.3881 7.34236 8
11 -18 -3 16.8037 10.6257 5
-11 18 -3 27.3293 9.06796 10
12 -18 3 4.57682 10.1372 5
18 -12 -3 17.8118 11.888 4
12 -18 3 7.99588 6.39998 8
-18 6 3 1.4314 8.40517 10
12 6 -3 -5.0031 4.56367 11
18 -6 3 -2.2094 5.55138 7
6 -18 -3 1.53577 7.86669 8
-6 -12 3 4.22822 9.07117 9
6 -18 -3 9.17725 11.1689 5
-6 18 -3 11.9587 7.31171 10
6 12 3 3.76423 5.97404 11
18 -6 3 -2.4953 11.673 4
12 6 -3 5.74788 16.0153 6
-18 12 -3 1.15928 7.77767 10
-12 -6 -3 -1.0729 8.07783 9
18 -12 -3 3.99433 7.04755 7
12 -18 -3 5.71866 9.63027 5
-12 -6 3 -2.3924 8.29352 9
-6 -12 -3 4.80321 7.11774 9
6 12 -3 6.72974 8.63091 11
6 -18 3 8.42893 11.1462 5
12 6 3 9.42474 13.4238 6
-6 18 3 4.4914 7.40333 11
18 -6 -3 -2.8871 10.2394 6
12 -18 -3 3.8806 6.29611 8
18 -12 3 2.38466 12.1874 4
6 -18 3 6.15016 7.6676 8
-18 6 -3 7.60424 8.06616 9
-18 12 3 -0.7746 10.2308 10
-12 18 -3 -1.9487 8.14332 10
18 -12 3 7.04543 7.98177 7
5 13 3 35.3173 8.14887 11
-13 18 3 18.2128 7.14073 10
-18 13 -3 13.9268 9.06436 10
13 5 -3 25.2545 16.4171 6
-5 18 -3 27.1796 8.28278 10
5 -18 -3 44.412 12.4423 5
13 -18 3 43.1605 12.2275 5
5 -18 -3 26.4041 7.82736 8
18 -13 -3 29.5019 7.73241 7
18 -13 -3 31.7288 12.7191 4
-13 -5 -3 39.5487 9.43042 9
-5 -13 3 45.1488 9.87389 9
-18 5 3 21.8054 8.92627 10
13 -18 3 25.5032 7.08108 8
-18 13 3 45.8629 10.8904 10
13 5 3 21.6598 13.6415 6
18 -13 3 33.1392 8.34318 7
18 -13 3 36.7957 14.166 4
18 -5 -3 37.9658 13.0687 6
5 -18 3 29.3034 11.3568 5
5 -18 3 43.7569 8.56377 8
-13 18 -3 46.9445 10.622 10
5 13 -3 34.6866 9.01063 11
-18 5 -3 27.8767 8.6421 9
-5 -13 -3 17.2886 7.00523 9
-13 -5 3 39.338 9.45609 9
-5 18 3 40.4424 8.76568 11
-4 18 -3 5.45927 7.85213 11
-14 -4 -3 10.1863 8.31726 9
-18 4 3 8.00567 8.83518 10
4 -18 -3 12.6486 7.24983 8
14 -18 3 13.9104 10.8186 5
4 14 3 5.38368 7.3736 11
14 4 -3 21.0042 15.5134 6
-14 18 3 4.99305 7.50202 10
-4 -14 3 13.5324 8.49985 9
18 -14 -3 16.5126 13.0781 4
4 -18 -3 11.3744 10.7555 5
-4 18 -3 2.34542 7.10717 10
-18 14 -3 2.66378 9.28611 10
18 -14 -3 6.59571 7.31952 7
14 -18 3 8.21045 6.65918 8
-14 18 -3 -1.6737 8.80912 10
4 -18 3 -1.9404 8.77074 5
-4 18 3 7.67664 7.35033 11
18 -14 3 9.39672 13.4721 4
-18 4 -3 -2.5332 7.65661 9
4 -18 3 2.66215 7.32805 8
14 4 3 12.1018 12.7965 6
18 -14 3 1.00851 7.41128 7
4 14 -3 3.13141 8.24516 11
-14 -4 3 -1.4901 7.20776 9
-4 -14 -3 -0.4876 6.73793 9
-14 -4 3 10.2609 7.50111 10
18 -4 -3 12.7301 12.5279 6
-18 14 3 7.55559 9.18903 10
18 -15 -3 5.16015 12.0962 4
3 15 3 0.9554 7.30128 11
-18 15 -3 4.58615 9.55973 10
3 -18 -3 4.02093 9.90931 5
15 3 -3 -2.637 13.6547 6
-3 18 -3 6.5013 8.74952 11
-15 -3 -3 -0.4349 8.07692 9
15 -18 3 -0.3489 9.64456 5
18 -15 -3 4.80444 7.02812 7
-18 3 3 1.76436 8.42682 10
-15 18 3 12.0212 7.65424 10
-3 -15 3 3.45738 7.95177 9
-3 18 -3 -2.3412 7.28723 10
3 -18 -3 -1.544 6.90555 8
15 -18 3 8.12258 6.61563 8
3 15 -3 -0.9452 6.18124 10
-18 3 -3 -2.2339 7.25896 9
15 -18 -3 0.35436 5.54622 7
-15 -3 3 -0.275 5.27474 9
-18 15 3 5.63865 8.44702 10
3 15 -3 5.29125 7.45935 11
-3 18 3 -1.093 7.0462 11
-15 -3 3 10.9002 8.50878 10
15 3 3 4.55319 13.4082 6
18 -15 3 1.74433 7.19004 7
3 -18 3 -0.5203 5.64593 8
18 -3 -3 6.51294 12.6759 6
18 -15 3 13.229 12.2294 4
-15 18 -3 10.9465 8.70336 10
18 -16 -3 9.46879 6.82655 7
-2 -16 3 7.4611 7.865 9
2 16 3 7.79591 7.81442 11
-18 2 3 -7.0295 8.20772 10
18 -2 3 -1.8249 16.9886 6
2 -18 -3 2.54671 6.4903 8
18 -16 -3 13.4541 12.2154 4
-16 18 3 6.61406 7.37961 10
-2 18 -3 0.11454 7.32398 10
2 -18 -3 -0.6609 7.80198 5
-16 -2 -3 5.98605 7.5571 9
16 -18 3 6.19112 6.37913 8
16 2 -3 14.0673 13.3841 6
-2 18 -3 4.72583 8.53213 11
-18 16 -3 5.17124 9.29817 10
2 16 -3 12.6591 7.49916 11
-18 2 -3 4.02858 7.48637 9
18 -16 3 5.86125 7.35452 7
16 -18 -3 6.64914 6.56339 7
-16 18 -3 0.7949 8.8544 10
18 -2 -3 7.10201 13.0989 6
18 -16 3 -0.911 9.23663 4
16 2 3 5.15037 12.8927 6
-2 18 3 3.00995 7.88749 11
-18 16 3 10.0279 8.14296 10
2 16 -3 -1.1932 6.53533 10
-16 -2 3 3.61516 8.56809 10
-2 -16 -3 1.82248 5.16869 8
18 -17 -3 1.15824 9.88903 4
17 -18 3 0.99834 5.74939 8
17 -18 3 -2.5552 5.69751 7
-17 18 3 4.8963 7.36759 10
1 17 3 3.46911 7.64308 11
-1 18 -3 7.90071 8.24143 11
18 -17 -3 2.51925 6.51596 7
-18 17 -3 3.80839 9.27502 10
17 1 -3 3.97912 12.7693 6
-17 -1 -3 0.92055 7.46799 9
1 -18 -3 0.57035 6.22175 8
-18 1 3 -1.5751 8.18879 10
-1 -17 3 1.63649 7.35297 9
-1 18 -3 0.41961 7.18705 10
-1 -17 -3 4.06351 5.7721 8
-18 1 -3 -7.5462 7.05748 9
17 1 3 -1.2217 11.5972 6
1 17 -3 9.82905 6.74894 10
-1 18 3 -2.0959 7.69524 11
-17 18 -3 4.38885 8.96438 10
1 -18 3 8.84792 7.2765 9
18 -17 3 1.28846 6.63868 7
-18 17 3 4.31124 7.57438 10
-17 -1 3 3.67294 8.07395 10
1 17 -3 -1.6184 7.18146 11
18 -1 -3 2.73581 12.0543 6
17 -18 -3 -2.1601 6.28375 7
-18 0 3 9.80885 8.34878 10
0 -18 -3 24.7302 6.0982 8
0 18 3 10.768 7.78083 11
0 18 -3 16.3707 7.32922 10
-18 18 3 9.22348 7.73307 10
0 18 -3 18.4676 7.59646 11
-18 18 -3 11.8598 9.22352 10
-18 0 -3 17.2284 7.66148 9
18 0 -3 -0.8217 19.3629 6
0 -18 3 13.6896 7.41859 9
18 -18 -3 23.8404 6.91284 7
18 -18 3 11.8786 6.80981 7
10 -19 3 -3.0109 6.56926 8
-9 -10 3 4.05617 8.05153 9
-19 9 3 1.87769 8.99476 10
19 -10 -3 4.53575 6.94376 7
19 -9 3 4.94289 11.8791 4
-19 10 -3 0.05502 5.11814 9
19 -10 -3 8.99782 11.6211 4
10 -19 3 5.32067 11.109 5
19 -9 3 1.55596 7.1803 7
10 9 -3 4.65669 7.3271 11
-9 19 -3 8.95584 7.35676 10
-10 -9 -3 0.44102 7.51794 9
9 -19 -3 8.88948 10.5485 5
-10 19 3 -3.8967 7.0831 11
9 -19 -3 1.80338 7.22873 8
-19 10 3 2.85474 9.20742 10
10 9 3 3.26135 14.5365 6
9 10 -3 5.63874 7.2272 11
10 -19 -3 4.58048 10.7778 5
19 -10 3 18.4797 12.448 4
-9 19 3 3.03258 7.7173 11
10 -19 -3 6.47473 7.10302 8
-9 -10 -3 5.57108 7.49523 9
19 -10 3 6.21653 7.26883 7
-10 19 -3 8.05926 7.72119 10
-19 9 -3 6.62627 6.87048 9
19 -9 -3 1.84579 6.8927 7
-10 -9 3 2.76783 8.19863 9
9 -19 3 11.1395 11.3423 5
9 -19 3 -1.5614 6.48821 8
-11 19 3 0.1958 7.65184 11
19 -11 -3 -1.4652 6.74756 7
19 -8 3 5.74099 7.32013 7
11 -19 3 17.8967 10.7335 5
19 -8 3 -1.2139 11.078 4
11 -19 3 6.51391 6.75529 8
11 8 -3 4.35557 6.72786 11
-19 11 -3 0.861 4.63991 9
-8 -11 3 2.75769 8.24497 9
-11 -8 -3 4.3724 7.553 9
-8 19 -3 11.0011 7.01349 10
8 -19 -3 9.01947 10.662 5
19 -11 -3 16.6014 12.4307 4
8 -19 -3 0.93832 6.86483 8
-19 8 3 4.79472 8.65583 10
8 11 -3 4.8275 7.14118 11
-8 -11 -3 0.85908 7.26138 9
11 -19 -3 2.34881 6.94266 8
11 8 3 4.20341 12.5915 6
19 -8 -3 -6.4817 5.235 7
-19 8 -3 8.8649 7.16849 9
8 -19 3 -2.2009 7.34099 8
-19 11 3 12.0078 9.95196 10
-11 19 -3 6.01324 7.66279 10
-11 -8 3 8.92791 8.66336 9
19 -11 3 10.3989 7.26919 7
8 -19 3 9.73039 11.0398 5
19 -11 3 2.79479 11.9646 4
-8 19 3 4.64538 7.32573 11
11 -19 -3 1.13811 10.0806 5
12 -19 3 18.9585 6.72296 8
-7 19 -3 18.4821 7.46987 10
12 -19 3 20.287 10.112 5
19 -12 -3 25.146 7.59742 7
-12 19 3 0.70497 5.87035 10
19 -7 3 12.7454 7.11465 7
7 -19 -3 31.1045 8.18723 8
-12 -7 -3 15.2443 7.90955 9
7 -19 -3 13.8782 11.4399 5
-19 7 3 22.793 8.91638 10
-7 -12 3 20.846 8.62978 9
19 -12 -3 21.6649 12.1935 4
-19 12 -3 0.52104 6.49452 10
12 7 -3 16.5801 6.38593 11
7 12 3 11.0545 5.61541 11
12 -19 -3 -0.9251 11.0422 5
-12 -7 3 21.8829 8.87247 9
-19 12 3 27.735 10.7954 10
7 12 -3 18.3262 7.55126 11
-12 19 -3 22.2607 8.07904 10
7 -19 3 21.9344 7.64459 8
7 -19 3 25.1864 11.1738 5
19 -12 3 19.0499 12.8344 4
-7 -12 -3 23.1669 8.02294 9
12 7 3 16.1111 12.9304 6
-7 19 3 21.1709 7.51727 11
12 -19 -3 12.4838 6.82369 8
19 -12 3 18.6027 7.64114 7
-19 7 -3 18.7652 8.03636 9
13 6 -3 -2.082 15.177 6
13 -19 3 34.303 7.56855 8
-19 6 3 37.1762 9.44186 10
6 13 3 45.7333 8.65168 11
6 -19 -3 43.5984 12.2229 5
6 -19 -3 70.3879 9.19856 8
-13 -6 -3 63.6827 9.6116 9
-6 19 -3 61.1028 9.30221 10
13 -19 3 66.0916 12.647 5
-13 19 3 36.4726 8.22539 10
-6 -13 3 55.7693 9.80145 9
19 -13 -3 43.9727 13.0579 4
-19 13 -3 37.5946 9.61584 10
19 -13 -3 57.3214 8.49278 7
6 -19 3 39.3441 8.43897 8
-13 19 -3 59.3636 10.0912 10
19 -13 3 44.3552 14.0667 4
-19 13 3 77.9882 12.0053 10
6 13 -3 54.9478 9.0081 11
13 6 3 34.0309 14.3575 6
19 -13 3 61.6998 9.52686 7
13 -19 -3 25.2702 7.19795 8
-13 -6 3 50.8569 9.51418 9
-6 19 3 44.7236 8.70174 11
-6 -13 -3 44.4807 8.55522 9
-19 6 -3 40.2324 8.95991 9
6 -19 3 22.1766 9.75431 5
-19 5 3 2.87464 8.06114 10
19 -14 -3 8.06455 7.22339 7
-5 19 -3 -3.6242 6.73413 11
-5 19 -3 9.18088 7.57566 10
14 -19 3 15.2281 6.48793 8
5 -19 -3 9.50754 7.05633 8
14 -19 3 2.51684 9.06694 5
5 14 3 1.82011 7.35843 11
-5 -14 3 10.0127 8.48528 9
-19 14 -3 2.92702 8.92762 10
-14 -5 -3 13.127 7.87223 9
5 -19 -3 8.01618 10.7996 5
-14 19 3 1.11905 7.52617 10
14 5 -3 1.41573 13.1939 6
19 -14 -3 9.60063 11.853 4
5 14 -3 13.2222 7.78051 11
14 5 3 16.0039 12.8037 6
-19 5 -3 13.6207 7.61691 9
-14 -5 3 7.46559 6.73469 10
-5 -14 -3 4.526 6.74572 9
-19 14 3 19.8192 9.34845 10
14 -19 -3 -4.0421 4.80493 8
-14 -5 3 8.09119 7.98228 9
-14 19 -3 8.38697 8.81846 10
19 -14 3 16.9294 7.61703 7
-5 19 3 7.78241 6.85951 11
5 -19 3 13.7102 7.50084 8
19 -14 3 26.0441 12.9475 4
19 -15 -3 41.4765 13.2001 4
-19 4 3 26.2296 8.65029 10
15 4 -3 9.82677 12.8839 6
-15 -4 -3 47.087 9.13683 9
-19 15 -3 29.0417 9.70162 10
19 -15 -3 30.8996 7.58744 7
-4 19 -3 25.1328 9.04121 11
-4 -15 3 27.7677 8.37234 9
4 -19 -3 22.3459 7.20202 8
-15 19 3 34.6505 8.24909 10
-4 19 -3 26.8139 8.14249 10
15 -19 3 24.6376 6.90229 8
4 15 3 24.3417 8.03285 11
4 -19 -3 15.4009 9.3083 5
-4 -15 -3 -0.3795 4.89273 9
15 -19 -3 -2.2899 5.33483 7
-15 -4 3 7.40012 7.3429 10
-19 4 -3 11.2868 7.34573 9
-15 -4 3 8.08567 7.50534 9
19 -15 3 8.14658 10.8124 4
19 -15 3 24.3237 7.73098 7
-15 19 -3 16.2805 8.22402 10
15 4 3 -2.4408 12.1995 6
4 15 -3 10.4462 7.63694 11
4 -19 3 11.9131 6.88504 8
-4 19 3 18.9493 7.10343 11
-19 15 3 20.9985 9.1714 10
-3 19 -3 10.4237 7.51509 10
-16 -3 -3 8.9922 7.66587 9
16 -19 3 5.04047 6.30384 8
-3 19 -3 -4.7742 7.99155 11
-19 3 3 1.59932 7.99927 10
19 -16 -3 1.13542 9.47661 4
-19 16 -3 13.0863 9.28538 10
-3 -16 3 6.81639 7.4706 9
16 3 -3 -0.8448 11.693 6
3 16 3 6.06766 7.46028 11
3 -19 -3 8.39279 6.37423 8
-16 19 3 4.16384 7.38705 10
19 -16 -3 10.9369 6.70571 7
16 -19 -3 5.9968 5.68398 7
-16 19 -3 9.87665 8.81161 10
16 3 3 3.49899 11.9001 6
19 -16 3 12.5569 7.14898 7
-3 19 3 14.8342 7.22539 11
-19 16 3 7.21623 8.27811 10
3 16 -3 16.1038 7.26006 11
-16 -3 3 7.94893 7.69471 10
3 -19 3 4.9263 4.89228 8
-16 -3 3 9.84704 5.63893 9
-19 3 -3 4.55202 7.06993 9
-19 2 3 11.8201 7.93636 10
-19 17 -3 -0.5285 9.11014 10
-2 -17 3 -4.886 6.84428 9
2 17 3 3.22125 7.01857 11
-2 19 -3 2.27113 6.93685 10
-17 -2 -3 -6.1733 7.30548 9
2 -19 -3 -0.2698 6.03341 8
17 -19 3 -0.2323 5.77754 8
-2 19 -3 5.46124 7.49052 11
19 -17 -3 4.05049 6.22129 7
-17 19 3 -0.9526 6.75809 10
-19 2 -3 0.4784 6.96555 9
2 -19 3 6.59106 6.94666 9
-2 19 3 2.7054 7.35602 11
-17 -2 3 7.803 7.32274 10
17 -19 -3 0.4999 5.75618 7
-2 -17 -3 -0.1567 3.83288 8
2 17 -3 3.25029 6.60028 11
19 -17 3 4.83225 6.68165 7
-17 19 -3 5.72068 8.66614 10
-19 17 3 0.69983 7.55836 10
-18 -1 -3 18.8062 7.67692 9
1 18 3 14.857 7.13375 11
1 -19 -3 9.24494 5.70436 8
-1 19 -3 15.8107 6.97669 10
-19 18 -3 20.7192 8.97334 10
-19 1 3 9.52691 7.69938 10
18 -19 3 3.12845 4.44581 7
19 -18 -3 11.1177 6.19219 7
18 -19 3 5.59021 4.23595 8
-18 19 3 11.7512 7.42411 10
-1 -18 3 13.6244 7.20702 9
-1 19 -3 15.9644 7.23172 11
-1 -18 -3 7.40209 5.07581 8
-18 19 -3 19.3456 8.67661 10
19 -18 3 17.2348 6.82134 7
1 18 -3 3.36749 5.80726 10
1 -19 3 13.8626 7.01228 9
18 -19 -3 8.10671 5.82781 7
-18 -1 3 9.22169 7.21808 10
-19 18 3 13.359 7.83723 10
-1 19 3 15.5201 7.48633 11
1 18 -3 10.3363 6.76495 11
-19 1 -3 10.2861 6.72216 9
-19 19 3 -0.5165 6.9879 10
0 -19 3 4.77139 6.67114 9
0 19 -3 7.53453 5.58973 10
0 19 3 8.40396 7.11702 11
-19 0 3 6.20514 6.48541 10
19 -19 3 7.0231 5.7776 7
-19 0 -3 6.37013 6.48417 9
19 -19 -3 6.68173 5.46524 7
-19 19 -3 7.36324 8.31998 10
0 19 -3 13.8957 6.54616 11
0 -19 -3 10.102 5.10955 8
-20 10 -3 0.34517 5.44474 9
-10 -10 -3 6.98548 7.09726 9
10 -20 -3 3.35723 9.51452 5
10 10 -3 6.40465 7.10521 11
-20 10 3 1.14258 8.93604 10
10 -20 3 4.38506 9.66943 5
20 -10 -3 0.02303 6.63268 7
-10 -10 3 3.72619 7.89282 9
20 -10 3 0.49676 10.8957 4
-10 20 3 8.1306 7.04829 11
-10 20 -3 13.12 7.27749 10
10 -20 -3 10.8097 6.65295 8
20 -10 3 -2.867 6.78795 7
10 -20 3 1.76576 6.98449 8
-11 20 3 3.79795 5.76961 11
20 -11 -3 11.6583 7.03253 7
11 -20 3 16.985 10.5754 5
-9 -11 3 11.7671 7.72498 9
20 -9 3 6.87233 7.14748 7
11 -20 3 6.79602 6.43813 8
-20 9 3 10.0929 8.19755 10
9 -20 -3 4.30481 6.70914 8
9 -20 -3 0.69676 9.90556 5
-20 11 -3 0.39147 4.52825 9
-11 -9 -3 12.5943 7.61292 9
11 9 -3 2.81737 6.34119 11
-9 20 -3 2.12808 6.76304 10
20 -11 3 0.97183 10.8552 4
9 -20 3 14.7111 7.33106 8
20 -11 3 9.91668 7.09361 7
-9 20 3 13.3298 7.14938 11
-11 20 -3 10.0704 7.60237 10
11 -20 -3 -0.8159 10.6243 5
11 -20 -3 11.5805 6.88944 8
9 11 -3 13.6156 7.23142 11
20 -9 -3 13.8753 6.77341 7
9 -20 3 13.0849 10.0395 5
-9 -11 -3 4.4025 6.99728 9
-11 -9 3 20.2324 8.41533 9
-20 11 3 14.7321 8.97645 10
-20 9 -3 7.06865 6.72674 9
-8 -12 3 21.1816 8.38092 9
-12 -8 -3 7.84422 7.26134 9
20 -12 -3 11.1632 6.65679 7
-20 8 3 4.60768 8.07681 10
-8 20 -3 6.36923 7.02604 10
8 -20 -3 13.2988 6.5009 8
20 -12 -3 0.50709 10.7948 4
8 -20 -3 5.96122 9.81394 5
12 -20 3 5.07278 9.6857 5
20 -8 3 9.84268 6.98933 7
8 12 3 -3.7201 4.65697 11
12 8 -3 15.8948 6.33335 11
12 -20 3 8.53981 5.90454 8
-12 20 -3 11.7674 7.35268 10
-8 20 3 14.6254 7.20565 11
20 -12 3 10.5981 10.9958 4
12 -20 -3 16.1133 6.57618 8
-12 -8 3 6.37812 8.03372 9
8 -20 3 18.6584 7.11946 8
8 -20 3 -1.8007 8.27872 5
-8 -12 -3 14.2522 7.06032 9
20 -12 3 9.36274 6.85463 7
-20 8 -3 4.11353 6.60992 9
8 12 -3 16.9513 7.07197 11
-20 12 3 21.0313 9.35542 10
-13 20 3 5.48419 5.16096 10
20 -7 3 21.9642 6.77141 7
7 13 3 24.93 7.27595 11
-13 -7 -3 44.5884 8.76696 9
-7 20 -3 18.436 7.47797 10
-20 7 3 26.6944 8.47484 10
20 -13 -3 3.82966 10.3753 4
-7 -13 3 49.9435 9.12372 9
20 -13 -3 24.2988 6.89283 7
13 -20 3 1.41902 8.97001 5
13 -20 3 24.1826 6.46294 8
7 -20 -3 21.1227 9.85551 5
7 -20 -3 37.3632 7.40558 8
-20 13 -3 21.1203 7.91608 10
13 7 -3 25.4614 6.11603 11
20 -13 3 36.0973 12.5331 4
-13 20 -3 44.7274 8.67332 10
-7 20 3 38.5479 7.99356 11
13 -20 -3 35.0038 7.16673 8
20 -13 3 36.9208 8.1661 7
-13 -7 3 49.151 9.33926 9
7 -20 3 50.0432 8.23482 8
-20 7 -3 26.8326 7.44216 9
-20 13 3 78.8836 11.5656 10
-7 -13 -3 20.282 7.41477 9
7 13 -3 29.7635 7.64453 11
-14 -6 -3 45.801 8.49942 9
-6 20 -3 24.0158 7.9198 10
-20 6 3 19.2138 8.36183 10
-14 20 3 38.0851 8.16628 10
20 -14 -3 32.9939 6.97955 7
14 -20 3 31.4897 6.81075 8
6 14 3 34.5092 7.82427 11
6 -20 -3 34.594 7.43561 8
-20 14 -3 20.5184 8.65234 10
-6 -14 3 35.9762 8.39199 9
-14 20 -3 26.8999 8.3286 10
-6 20 3 23.3771 7.01443 11
-20 14 3 47.4605 10.2111 10
20 -14 3 37.0156 8.09672 7
14 -20 -3 17.2609 5.9407 8
6 14 -3 41.5381 7.98878 11
-14 -6 3 23.9273 8.34554 9
6 -20 3 41.4884 7.96145 8
-6 -14 -3 14.6122 6.73578 9
20 -14 3 -0.7872 9.72336 4
-14 -6 3 2.60718 9.26475 10
-20 6 -3 21.7788 7.30515 9
5 -20 -3 -0.652 6.66543 8
-5 20 -3 5.07152 7.42966 10
20 -15 -3 1.41633 16.2873 4
-15 20 3 2.88801 7.11244 10
-20 5 3 5.46663 7.53389 10
20 -15 -3 7.99412 6.65583 7
-5 -15 3 3.61907 6.63696 9
-5 20 -3 -1.8424 6.26483 11
-15 -5 -3 -2.8447 7.06084 9
-20 15 -3 5.42924 8.49807 10
5 15 3 7.11241 7.06059 11
15 -20 3 4.67021 5.7294 8
-20 15 3 7.78523 8.67282 10
-5 -15 -3 1.65569 5.7554 9
-20 5 -3 10.242 6.95651 9
-15 20 -3 3.86983 7.61156 10
5 15 -3 7.7254 6.64055 11
20 -15 3 3.08742 6.9747 7
5 -20 3 4.68005 6.48127 8
-15 -5 3 2.05034 7.75688 10
-15 -5 3 0.80331 7.34056 9
-5 20 3 4.59768 6.99587 11
-16 -4 -3 4.25308 7.21462 9
4 16 3 6.16243 6.87981 11
-20 16 -3 11.1389 8.93107 10
4 -20 -3 9.04124 6.30811 8
20 -16 -3 13.4775 6.30209 7
-4 20 -3 4.20751 7.17755 10
-4 20 -3 9.5505 7.67691 11
-4 -16 3 13.1984 6.76884 9
-20 4 3 1.91567 7.12595 10
16 -20 3 6.52979 5.88571 8
-16 20 3 7.76837 7.16771 10
4 -20 3 3.01666 5.85207 8
-16 20 -3 13.983 7.61177 10
-16 -4 3 15.4565 6.74311 9
-4 20 3 9.58141 6.78052 11
-16 -4 3 4.92485 6.68769 10
4 16 -3 17.8257 6.84952 11
-20 16 3 13.6565 8.24393 10
-20 4 -3 10.5933 6.63964 9
20 -16 3 12.5482 6.77928 7
-17 20 3 1.01564 6.76971 10
-20 17 -3 0.6784 8.27959 10
3 -20 -3 2.83351 5.58902 8
-3 -17 3 4.66408 6.44069 9
20 -17 -3 0.83113 5.89059 7
-17 -3 -3 -3.5794 7.00609 9
17 -20 3 -2.4239 5.54096 8
-3 20 -3 0.33093 6.95349 10
3 17 3 1.10526 6.86182 11
-20 3 3 0.33295 7.13896 10
-3 20 -3 4.39521 7.05557 11
-17 20 -3 4.36252 7.50065 10
-20 3 -3 2.72134 6.12627 9
-17 -3 3 0.40706 4.0281 9
-20 17 3 0.58428 7.51411 10
-3 20 3 -1.1404 6.57954 11
-17 -3 3 3.63457 7.87297 10
3 -20 3 -3.4468 4.30509 8
17 -20 -3 2.7938 4.1284 7
3 17 -3 0.37392 5.58406 11
3 -20 3 0.62259 6.02651 9
20 -17 3 1.95761 6.40889 7
-18 20 3 5.67912 7.10534 10
2 -20 -3 0.15313 5.16356 8
-2 20 -3 10.4158 6.77195 11
20 -18 -3 5.48788 5.62862 7
-2 -18 3 5.1554 6.42945 9
-20 18 -3 15.386 8.46324 10
-2 20 -3 2.92588 6.47464 10
18 -20 3 4.65322 4.89668 8
2 18 3 7.01159 6.98869 11
-20 2 3 7.95652 6.93986 10
-18 -2 -3 6.74355 6.88596 9
-20 18 3 2.54941 7.47347 10
-20 2 -3 0.41403 6.2085 9
-2 20 3 13.166 6.91779 11
20 -18 3 -0.7723 5.52016 7
18 -20 -3 4.06001 5.1056 7
2 18 -3 -1.1271 5.539 11
-18 20 -3 0.03798 7.22036 10
2 -20 3 2.48245 6.71628 9
-20 19 -3 1.96949 7.43405 10
-19 20 3 -0.9002 6.6559 10
-20 1 3 2.60168 5.33956 10
-1 -19 3 1.63181 5.8883 9
-1 20 -3 -1.8503 5.98557 11
1 19 3 -3.8079 6.44725 11
-19 -1 -3 -1.7142 6.20922 9
20 -19 -3 3.69115 4.88957 7
-1 20 -3 -0.863 4.14954 10
1 -20 -3 6.11166 4.8866 8
-1 20 3 -6.9336 6.25533 11
-1 -19 -3 -0.6276 3.07875 8
20 -19 3 0.79581 5.30394 7
-20 1 -3 3.62625 5.95981 9
19 -20 -3 5.7734 5.07461 7
-19 20 -3 -5.7484 7.12351 10
1 -20 3 1.72396 6.25025 9
-20 19 3 0.01125 6.82664 10
1 19 -3 -1.0042 5.44521 11
-20 0 -3 12.7287 5.66126 9
-20 20 -3 17.9512 7.38685 10
-20 20 3 17.6941 7.02567 10
0 20 3 21.672 6.62308 11
20 -20 -3 11.7837 4.91779 7
0 -20 3 21.3662 6.10784 9
0 20 -3 13.1445 5.77138 11
11 10 -3 3.50922 5.92679 11
-21 10 3 0.41857 7.75561 10
-10 21 -3 5.94912 6.71474 10
-10 -11 3 -1.4595 7.05274 9
-11 21 3 -1.3701 5.49034 11
10 -21 -3 0.78311 5.96337 8
-21 11 -3 0.36586 5.76679 9
21 -11 -3 7.67894 6.15298 7
-11 -10 -3 4.37996 6.44983 9
21 -10 3 2.06758 6.47167 7
11 -21 3 2.90981 6.44151 8
-21 11 3 0.32826 7.76012 10
-11 -10 3 -1.2776 7.28542 9
-10 21 3 4.97776 6.35522 11
-10 -11 -3 11.9979 6.59052 9
11 -21 -3 4.63541 5.83255 8
21 -10 -3 1.85035 6.07669 7
-21 10 -3 0.30295 4.21857 9
-11 21 -3 2.47147 6.83496 10
21 -11 3 8.96069 6.59236 7
10 -21 3 8.38758 6.50543 8
10 11 -3 0.67952 6.12982 11
-12 -9 -3 6.60998 6.58297 9
12 9 -3 8.59578 5.76951 11
21 -9 3 9.45627 6.44472 7
21 -12 -3 4.54501 6.15098 7
12 -21 3 8.77775 6.07078 8
-9 21 -3 7.23934 6.80401 10
9 -21 -3 11.2529 5.90069 8
-9 -12 3 7.51638 6.97553 9
-21 9 3 10.0768 7.94449 10
-12 -9 3 7.6614 7.64855 9
21 -9 -3 -0.4067 4.60983 7
-21 9 -3 -1.7298 5.21259 9
9 12 -3 2.27444 6.28706 11
9 -21 3 3.42041 6.37604 8
-9 21 3 4.12782 6.32235 11
12 -21 -3 9.62522 5.87167 8
21 -12 3 5.44626 6.32179 7
-12 21 -3 10.0233 7.02463 10
-21 12 3 11.1274 7.70951 10
-9 -12 -3 8.42358 6.44142 9
13 -21 3 57.4559 7.72275 8
-8 -13 3 66.8115 9.028 9
21 -13 -3 61.5351 8.1816 7
-21 8 3 51.251 8.92761 10
8 -21 -3 43.4184 7.40657 8
-13 -8 -3 64.6654 8.86517 9
13 8 -3 38.2248 6.83315 11
-8 21 -3 29.3798 7.88418 10
21 -8 3 49.0681 7.88132 7
8 13 -3 37.9118 7.42867 11
-8 -13 -3 29.4908 7.32172 9
13 -21 -3 47.1336 7.10817 8
-21 13 3 36.7697 8.59912 10
8 -21 3 57.9481 7.97297 8
-13 -8 3 39.8656 8.21539 9
-8 21 3 38.963 7.41848 11
-21 8 -3 43.193 7.06026 9
-13 21 -3 48.3203 8.39604 10
21 -13 3 42.1476 7.4882 7
14 7 -3 -1.5425 4.82039 11
21 -14 -3 10.4878 5.80176 7
14 -21 3 18.0035 6.07873 8
-21 7 3 14.7979 7.70051 10
-14 21 3 2.36783 4.83479 10
-14 -7 -3 14.9581 6.74246 9
-7 21 -3 12.3146 7.21279 10
-7 -14 3 17.8097 7.29222 9
7 -21 -3 15.2924 6.29167 8
7 14 3 5.258 6.10317 11
-21 14 -3 10.1192 6.93491 10
21 -7 3 -2.7041 4.81714 7
-14 21 -3 10.2624 6.92238 10
21 -14 3 25.1993 6.92093 7
-21 7 -3 12.1435 6.06334 9
-7 -14 -3 6.56876 6.09544 9
-7 21 3 14.4086 6.87562 11
7 14 -3 17.1678 6.49326 11
7 -21 3 16.8579 6.5337 8
-14 -7 3 10.5796 7.32493 9
-21 14 3 14.6617 8.2276 10
14 -21 -3 12.9434 5.58712 8
15 -21 3 10.6893 6.00888 8
-21 6 3 2.99188 7.21272 10
6 -21 -3 18.2317 6.44147 8
-15 -6 -3 16.9692 7.25994 9
-21 15 -3 12.4501 7.53881 10
-15 21 3 7.53306 6.21914 10
21 -15 -3 13.9436 5.72351 7
6 15 3 3.40808 6.56244 11
-6 -15 3 8.44064 6.62706 9
-6 21 -3 15.5174 7.40179 10
-15 -6 3 3.77995 6.8663 9
-21 6 -3 1.24605 5.81611 9
6 -21 3 5.58106 5.778 8
21 -15 3 7.18644 6.30502 7
15 -21 -3 -3.0449 3.75412 8
6 15 -3 2.3807 6.01177 11
-15 21 -3 7.97587 7.09427 10
-6 -15 -3 8.3116 5.64088 9
-6 21 3 3.5147 6.18546 11
-21 15 3 9.72699 8.0414 10
-21 16 -3 12.4969 7.86774 10
5 16 3 6.05715 6.33897 11
-16 -5 -3 19.6123 7.15412 9
-16 21 3 14.9357 6.78418 10
-5 -16 3 12.0118 6.32722 9
16 -21 3 9.03284 5.98876 8
-5 21 -3 -1.3228 5.18603 11
-5 21 -3 3.42187 6.90035 10
5 -21 -3 12.7687 5.78982 8
21 -16 -3 20.9702 6.14314 7
-21 5 3 8.61871 7.12328 10
21 -16 3 20.7608 6.56253 7
5 16 -3 24.2439 6.46826 11
-16 21 -3 16.781 7.38244 10
-21 16 3 17.222 7.92198 10
5 -21 3 18.9943 6.25581 9
-21 5 -3 18.0276 6.03721 9
-5 21 3 14.063 6.48298 11
5 -21 3 17.8211 5.98244 8
-16 -5 3 18.351 6.63334 9
-17 21 3 18.8493 6.83506 10
17 -21 3 11.0526 5.70595 8
-4 21 -3 18.5882 6.60436 11
-21 4 3 7.59262 6.90359 10
4 -21 -3 16.0427 5.50258 8
-4 -17 3 10.9454 6.03949 9
4 17 3 11.2489 6.45105 11
21 -17 -3 22.3591 6.10616 7
-21 17 -3 8.6604 7.74573 10
-4 21 -3 8.19316 6.71423 10
-17 -4 -3 6.63747 6.76764 9
21 -17 3 7.62685 6.26325 7
-21 17 3 16.7063 7.69564 10
-4 21 3 17.0681 6.37513 11
4 17 -3 23.4197 6.2416 11
-17 21 -3 15.581 6.90214 10
4 -21 3 7.1062 6.14121 9
-21 4 -3 13.9732 6.02936 9
-18 21 3 -0.3319 6.25502 10
-21 3 3 7.8693 6.28073 10
-18 -3 -3 8.02984 6.6291 9
3 18 3 8.5484 6.08677 11
18 -21 3 4.51228 4.88037 8
-3 21 -3 5.01176 6.27361 11
3 -21 -3 7.19821 4.78083 8
-21 18 -3 -3.0595 7.50646 10
-3 -18 3 -1.6214 5.91812 9
21 -18 -3 5.52702 4.96693 7
-3 21 -3 2.81649 6.03142 10
-3 21 3 3.30551 5.85482 11
3 -21 3 2.71296 5.86318 9
21 -18 3 4.06404 5.48612 7
-21 18 3 5.33834 7.09006 10
-21 3 -3 0.19241 5.62517 9
-18 21 -3 3.05144 6.48963 10
3 18 -3 6.18397 5.34051 11
-2 -19 3 4.00643 5.49546 9
2 19 3 6.47498 5.92604 11
21 -19 -3 6.30001 4.7777 7
-19 -2 -3 8.50968 5.92944 9
2 -21 -3 10.7477 4.17425 8
-21 19 -3 4.7137 7.24933 10
-2 21 -3 0.66949 5.46326 11
-19 21 3 10.85 6.27411 10
-2 21 3 -3.1869 6.05953 11
2 19 -3 4.36816 5.156 11
2 -21 3 8.02942 5.74166 9
-21 2 -3 -0.7226 5.30401 9
-19 21 -3 7.95376 6.58574 10
21 -19 3 -0.203 4.83804 7
19 -21 -3 -2.0788 3.17226 7
-21 19 3 2.0694 6.59072 10
1 -21 -3 0.4634 2.53637 8
-20 21 3 6.26742 6.12562 10
-1 21 -3 7.51761 5.54496 11
-1 -20 3 2.87177 5.34448 9
1 20 3 4.99687 5.78664 11
21 -20 -3 5.31917 4.39227 7
-21 20 -3 2.60241 6.72274 10
-20 -1 -3 0.54804 5.57364 9
-20 21 -3 5.08053 6.30252 10
20 -21 -3 -0.7097 2.86481 7
-21 1 -3 1.79292 5.26417 9
1 -21 3 4.51672 5.15972 9
-1 21 3 -0.0175 5.63307 11
1 20 -3 5.20411 5.36314 11
21 -20 3 -1.569 2.86536 7
-21 20 3 -2.4076 6.33484 10
0 -21 3 4.75519 4.78017 9
21 -21 -3 -1.2811 2.72175 7
0 21 3 -2.1413 6.32229 11
-21 0 -3 1.54638 4.7071 9
0 21 -3 3.53642 5.30266 11
-21 21 -3 0.26764 6.2801 10
-21 21 3 -1.0889 6.07259 10
11 11 -3 4.44568 5.36998 11
11 -22 3 4.63415 5.74309 8
-11 22 3 0.07912 4.41761 11
-11 -11 -3 6.68584 5.78034 9
-11 22 -3 5.27595 6.1682 10
22 -11 -3 1.78211 5.49238 7
11 -22 -3 5.38661 5.30579 8
-11 -11 3 3.96964 6.39107 9
-22 11 3 9.60128 6.78031 10
22 -11 3 12.525 6.11323 7
-10 -12 3 20.5387 6.5793 9
22 -10 3 18.1375 6.03418 7
-10 22 -3 8.33358 6.63146 10
12 -22 3 20.6242 5.9638 8
10 -22 -3 11.1622 5.43059 8
12 10 -3 12.5577 5.71703 11
-22 10 3 22.1632 7.46869 10
22 -12 -3 11.2312 5.84042 7
-12 -10 -3 15.1601 6.08509 9
-12 -10 3 22.847 6.99407 9
-10 22 3 17.4511 6.28408 11
12 -22 -3 12.2965 5.359 8
-22 12 3 16.8854 7.00962 10
22 -12 3 18.7653 6.10964 7
-12 22 -3 13.7198 6.27153 10
-10 -12 -3 9.82909 5.91444 9
10 -22 3 23.3855 6.2212 8
22 -10 -3 6.30441 4.83799 7
10 12 -3 21.2325 5.95502 11
-9 22 -3 2.39731 6.44811 10
13 -22 3 2.06825 5.3751 8
-22 9 3 8.22888 6.84505 10
13 9 -3 1.18938 4.5569 11
-13 -9 -3 2.53781 5.53933 9
-9 -13 3 -0.6375 5.98274 9
22 -9 3 2.41193 5.69709 7
9 -22 -3 2.73469 5.18123 8
22 -13 -3 3.69965 5.29465 7
-13 22 -3 -1.2288 5.93553 10
-9 22 3 3.72407 6.00171 11
9 -22 3 5.13698 5.80448 8
-22 13 3 2.68049 6.81179 10
9 13 -3 2.02359 5.45874 11
-13 -9 3 -1.892 6.23716 9
-22 9 -3 0.42502 3.38567 9
22 -13 3 3.72214 5.49418 7
-9 -13 -3 -0.2643 5.43678 9
13 -22 -3 2.69216 4.96524 8
14 -22 3 23.3211 5.91041 8
-14 -8 -3 29.1113 6.6928 9
8 -22 -3 30.7808 6.1203 8
-8 22 -3 13.527 6.89522 10
-22 8 3 25.7471 7.43019 10
-8 -14 3 36.0319 7.14034 9
22 -14 -3 26.376 6.03277 7
14 -22 -3 11.8756 5.08412 8
-22 14 3 24.6742 7.51078 10
8 -22 3 19.6229 5.61305 8
-8 -14 -3 16.3452 5.78892 9
8 14 -3 24.6236 6.39804 11
-8 22 3 23.9379 6.4346 11
-14 -8 3 20.9092 6.77681 9
-14 22 -3 20.2323 6.81751 10
22 -14 3 25.7053 5.90051 7
-22 8 -3 9.27186 4.14271 9
7 -22 -3 14.7269 5.41477 8
-22 7 3 9.94053 6.76858 10
-22 15 -3 8.7946 5.43272 10
7 15 3 12.4824 5.36221 11
-15 22 3 -0.1474 4.89793 10
-15 -7 -3 15.5228 6.31895 9
-7 -15 3 11.5166 5.96716 9
-7 22 -3 4.34363 6.75414 10
22 -15 -3 17.4539 5.5058 7
15 -22 3 11.0719 5.4092 8
-22 15 3 19.1825 7.30113 10
-15 22 -3 15.6638 6.69517 10
22 -15 3 15.6524 5.9899 7
-22 7 -3 11.1994 4.89366 9
7 15 -3 20.9971 5.95464 11
7 -22 3 22.0494 5.69308 8
7 -22 3 0.68566 4.79005 9
-15 -7 3 14.6778 6.5248 9
-7 -15 -3 13.309 5.3734 9
-7 22 3 17.194 6.21038 11
-16 -6 -3 2.79793 5.9906 9
-16 22 3 -0.1442 3.98833 10
-6 -16 3 8.63686 5.45041 9
-6 22 -3 2.04045 6.43161 10
22 -16 -3 10.9237 5.21563 7
-22 16 -3 6.4024 6.69124 10
6 -22 -3 1.6081 5.15791 8
6 16 3 4.3537 5.57263 11
-22 6 3 0.65164 6.16569 10
16 -22 3 7.59228 5.39063 8
6 16 -3 10.9722 5.63298 11
-22 6 -3 4.84702 4.5688 9
6 -22 3 3.27867 4.97105 8
-6 22 3 9.43095 5.82327 11
-16 -6 3 9.51262 5.63972 9
-22 16 3 17.3821 7.38738 10
-16 22 -3 11.8927 6.54708 10
6 -22 3 0.47304 4.11569 9
22 -16 3 17.1137 6.01634 7
-22 5 3 0.44138 5.99157 10
-22 17 -3 -1.025 6.55234 10
22 -17 -3 7.61696 4.99428 7
17 -22 3 0.5713 5.05018 8
-5 22 -3 3.78913 5.87198 10
5 -22 -3 3.87965 4.73924 8
-5 -17 3 2.31535 5.10263 9
-17 -5 -3 5.35142 6.21774 9
5 17 3 -0.434 5.39286 11
-17 22 3 2.1097 5.17685 10
5 17 -3 9.64111 5.60203 11
-17 22 -3 2.22427 6.03332 10
5 17 -3 1.96868 4.30652 12
-22 17 3 5.98903 7.07969 10
-17 -5 3 0.71981 4.98347 9
-22 5 -3 1.47257 4.40486 9
5 -22 3 -1.513 3.35997 8
-5 22 3 6.98413 5.66577 11
22 -17 3 8.126 5.21465 7
5 -22 3 3.17576 4.28837 9
4 18 3 14.3202 5.58624 11
4 -22 -3 18.638 4.60694 8
-18 22 3 13.5193 5.52098 10
-4 -18 3 22.0326 5.50992 9
-22 4 3 4.7489 4.5305 10
-4 22 -3 -4.4177 6.25861 10
22 -18 -3 14.4253 4.89102 7
-22 18 -3 15.2659 6.93697 10
-18 -4 -3 21.7818 6.59658 9
18 -22 3 17.0309 4.42115 8
22 -18 3 11.6646 4.92694 7
4 18 -3 10.7281 5.25985 12
-18 22 -3 14.0162 5.95594 10
4 18 -3 19.1277 5.51403 11
-4 22 3 13.7772 5.69162 11
4 -22 3 4.81537 4.11063 9
-22 18 3 12.3994 6.71745 10
-22 4 -3 11.6616 4.63797 9
-19 -3 -3 4.57737 5.53444 9
22 -19 -3 5.01206 4.4519 7
-19 22 3 5.60972 5.16702 10
-22 19 -3 7.96752 6.83831 10
3 19 3 8.79672 5.41047 11
-3 22 -3 -0.0303 4.07635 11
-3 -19 3 4.98009 5.03758 9
3 -22 -3 8.78592 4.01195 8
-22 19 3 -0.5364 6.20133 10
22 -19 3 2.33012 4.2293 7
3 19 -3 -1.0009 4.97631 12
3 19 -3 3.54596 5.18446 11
-3 22 3 3.39381 5.72852 11
-19 22 -3 0.01036 5.6664 10
-22 3 -3 1.15867 4.02296 9
3 -22 3 -0.7414 4.15724 9
2 20 3 3.88024 5.92517 11
-2 -20 3 -0.0657 5.20725 9
-2 22 -3 -1.272 4.15008 11
-20 22 3 0.18136 4.59836 10
22 -20 -3 3.65185 4.3128 7
-20 -2 -3 0.15248 5.27363 9
-22 20 -3 7.26606 6.47356 10
-22 20 3 2.3594 6.65744 10
-22 2 -3 3.35107 3.34624 9
-2 22 3 -2.4545 5.57358 11
2 20 -3 1.6154 5.38478 11
22 -20 3 -3.214 2.94811 7
2 20 -3 0.91029 5.29384 12
-20 22 -3 2.42738 6.2168 10
-23 11 3 -4.7207 5.95159 10
-12 -11 -3 5.6571 5.03901 9
12 11 -3 4.77255 4.72216 11
12 -23 3 3.18739 5.18219 8
23 -12 -3 3.09191 4.73145 7
11 -23 -3 4.54056 4.74199 8
-11 23 -3 4.91439 5.60583 10
-11 -12 3 0.08746 5.35132 9
23 -11 3 7.02685 5.37148 7
11 12 -3 4.96727 4.68685 11
-12 -11 3 5.10969 5.57529 9
11 -23 3 -4.0728 4.5461 8
-23 12 3 1.30309 5.84627 10
12 -23 -3 7.19819 4.49989 8
23 -12 3 -1.4475 5.13146 7
-11 -12 -3 3.87425 4.82314 9
-12 23 -3 1.44442 5.66623 10
23 -11 -3 -3.5941 3.67507 7
23 -10 3 1.56357 4.98987 7
-10 -13 3 6.5425 5.46057 9
-13 -10 -3 -1.465 4.95281 9
-10 23 -3 4.23536 5.77502 10
23 -13 -3 8.56711 5.00913 7
-23 10 3 9.09958 6.02342 10
13 10 -3 -1.4179 3.52719 11
13 -23 3 4.57997 5.0672 8
10 -23 -3 6.12866 4.53534 8
10 13 -3 6.57867 4.73501 11
23 -13 3 1.19878 5.14472 7
-13 23 -3 -0.5444 5.40302 10
13 -23 -3 6.54735 4.59428 8
-13 -10 3 2.3464 5.39546 9
-10 23 3 -1.689 4.43913 11
-10 -13 -3 4.62789 4.78939 9
10 -23 3 3.76515 4.49998 8
-23 13 3 2.45483 5.81192 10
9 -23 -3 8.16169 4.48838 8
23 -14 -3 6.85382 4.91525 7
-14 -9 -3 -1.0246 4.93437 9
14 -23 3 8.94946 4.84742 8
-23 9 3 -0.1843 5.36846 10
-9 -14 3 2.834 5.39799 9
-9 23 -3 1.26431 5.79109 10
-9 23 3 3.62113 5.34484 11
23 -14 3 -3.8151 4.92558 7
-14 -9 3 0.45142 5.23073 9
-14 23 -3 -1.8841 5.31051 10
9 14 -3 0.79402 4.52711 11
9 -23 3 5.15484 4.4766 8
14 -23 -3 3.21557 4.51581 8
-9 -14 -3 3.53315 4.83324 9
-23 14 3 -3.5627 5.61314 10
15 -23 3 5.15211 4.97382 8
-23 8 3 4.81006 6.06734 10
8 -23 -3 0.3855 4.48723 8
-8 23 -3 1.06797 5.77195 10
-15 -8 -3 2.64661 5.13837 9
-8 -15 3 -1.4199 4.94941 9
23 -15 -3 0.69165 4.6814 7
8 -23 3 4.76338 4.48191 8
23 -15 3 4.57948 4.7572 7
-15 -8 3 2.05908 5.0989 9
-8 -15 -3 2.08837 3.94164 9
-23 15 3 1.23092 5.96993 10
-15 23 -3 0.48353 5.30024 10
-8 23 3 4.50697 5.2791 11
8 15 -3 2.55799 4.68233 11
15 -23 -3 -1.7992 3.90489 8
-16 -7 -3 6.9951 5.70741 9
-23 7 3 -3.1432 5.83881 10
7 -23 -3 5.30754 4.40762 8
23 -16 -3 1.84758 4.42661 7
-7 23 -3 3.76377 5.62688 10
16 -23 3 4.5817 4.86423 8
-7 -16 3 -0.4805 4.95694 9
23 -16 3 1.69807 4.7593 7
7 16 -3 0.47513 4.75982 11
-7 23 3 5.51228 5.42261 11
-23 16 3 2.58059 6.22867 10
-16 -7 3 3.08533 4.09707 9
7 -23 3 0.40116 4.22313 8
-16 23 -3 1.17661 5.23963 10
-6 -17 3 -0.624 4.9122 9
23 -17 -3 5.93264 4.69194 7
17 -23 3 8.27548 5.02314 8
6 17 3 0.60844 3.5471 11
-17 -6 -3 4.01425 5.88699 9
-23 6 3 2.96253 4.31245 10
-6 23 -3 -2.6063 4.25423 10
6 -23 -3 2.23356 4.19678 8
6 17 -3 0.87777 4.57536 11
-23 17 3 6.66825 6.64104 10
23 -17 3 6.86966 4.73763 7
-17 23 -3 2.44901 5.75843 10
-6 23 3 5.7973 5.38782 11
6 -23 3 -2.2198 2.87889 8
23 -18 -3 -0.8032 4.7513 7
18 -23 3 -3.7307 5.30085 8
5 18 3 -1.2378 4.26168 11
5 -23 -3 7.19266 4.05145 8
-18 -5 -3 -0.6499 5.8051 9
-5 -18 3 -1.191 5.02577 9
-5 23 3 -3.0155 5.59689 11
-23 18 3 1.60492 6.47118 10
-18 23 -3 3.71678 5.32423 10
5 18 -3 0.8596 5.00851 11
23 -18 3 3.14042 4.20503 7
4 19 3 10.7665 5.0518 11
23 -19 -3 12.3801 4.98751 7
-4 -19 3 7.89525 5.50398 9
-19 -4 -3 8.85316 5.99516 9
4 -23 -3 7.44206 3.5561 8
-23 19 3 10.8461 6.96719 10
4 19 -3 15.2598 5.53228 11
-4 23 3 10.8287 6.0126 11
-19 23 -3 18.0882 6.66847 10
23 -19 3 10.7745 4.55049 7
-12 24 -3 0.41949 5.10869 10
12 -24 3 12.0787 4.43237 8
-12 -12 3 7.26469 4.80493 9
12 -24 -3 10.2562 4.31205 8
-12 -12 -3 6.67577 4.76463 9
12 12 -3 -1.0342 3.38021 11
24 -12 3 10.8599 4.88034 7
-24 12 3 1.15901 5.09656 10
24 -13 -3 2.09117 3.68345 7
11 -24 -3 3.87547 4.21218 8
-24 11 3 0.12839 5.53874 10
-11 24 -3 3.39075 5.34431 10
-13 -11 -3 6.65082 4.81127 9
24 -11 3 -2.0553 3.08918 7
-11 -13 3 4.83172 4.80382 9
13 -24 3 1.04455 4.31148 8
-11 -13 -3 0.82962 4.41511 9
-24 13 3 4.95473 5.58468 10
24 -13 3 -0.2081 4.26721 7
-13 -11 3 3.733 4.69269 9
13 -24 -3 3.09101 4.15975 8
11 -24 3 5.6345 4.21243 8
-13 24 -3 4.35302 5.15701 10
11 13 -3 5.67672 3.79157 11
-14 -10 -3 -1.4198 4.77226 9
-10 -14 3 3.04794 4.79703 9
-24 10 3 6.58596 5.80019 10
10 -24 -3 7.19004 4.2001 8
14 -24 3 2.29617 4.14607 8
24 -14 -3 5.70545 4.58455 7
-10 24 -3 5.09709 5.03382 10
-24 14 3 10.6838 5.81058 10
-14 24 -3 -2.2501 5.3358 10
24 -14 3 -4.0384 4.48277 7
-10 -14 -3 1.84799 3.80092 9
10 14 -3 6.54439 4.2622 11
-14 -10 3 4.64138 4.53128 9
10 -24 3 5.52163 4.22731 8
14 -24 -3 4.49478 3.50487 8
-15 -9 -3 2.7307 4.99311 9
24 -15 -3 7.28808 4.65323 7
9 -24 -3 -4.2151 4.1386 8
15 -24 3 2.6481 4.46845 8
-24 9 3 -2.4659 5.00727 10
-9 -15 3 0.77318 4.98027 9
-9 24 -3 -1.7754 4.15944 10
9 15 -3 0.48119 4.22964 11
9 -24 3 1.42501 4.15892 8
-15 -9 3 1.59261 3.89158 9
-15 24 -3 1.91194 5.23743 10
24 -15 3 2.40924 4.62045 7
-24 15 3 2.31042 5.60231 10
16 -24 3 2.23867 4.64325 8
8 -24 -3 2.11991 4.28285 8
-24 8 3 0.40575 5.31112 10
24 -16 -3 3.68568 4.77499 7
-16 -8 -3 1.44573 5.56588 9
-8 -16 3 2.75241 5.18613 9
24 -16 3 0.5624 4.45312 7
-24 16 3 1.85379 6.21228 10
-16 24 -3 5.19036 5.53718 10
8 16 -3 4.45093 4.69951 11
-8 24 3 -2.6896 5.12298 11
8 -24 3 0.81037 2.98937 8
7 -24 -3 11.5533 4.3965 8
17 -24 3 -1.9673 2.77251 8
-7 24 3 -0.3184 3.32788 11
-17 24 -3 5.48738 5.70533 10
7 17 -3 25.3568 5.61466 11
0 0 4 0.60826 9.26385 3
0 0 4 4.96672 5.39709 1
0 -1 4 32.3008 7.41341 2
0 -1 -4 33.1961 8.86346 2
-1 0 4 46.2477 11.2577 3
-1 1 4 38.7793 10.1554 3
0 1 4 34.9115 6.05676 1
0 -1 4 33.4298 8.99998 3
1 -1 4 37.54 6.88822 2
1 -1 4 40.743 7.85342 1
1 0 4 35.5933 6.85761 1
0 -1 4 49.906 8.03098 1
-1 -1 4 4.97622 9.06022 3
1 -2 -4 -5.4072 8.37312 2
-1 -1 4 2.34739 6.08976 1
1 -2 4 5.53535 6.03008 2
-1 -1 4 -3.996 6.62304 2
-1 -1 -4 12.1989 8.03089 2
1 -2 -4 6.407 5.53472 1
1 -2 4 -0.6535 6.10788 1
2 -1 4 -3.9879 5.7106 1
-2 1 4 1.96589 8.66795 3
-1 2 4 3.7056 9.04349 3
1 -2 4 4.6627 6.77221 3
-2 0 -4 4.25891 6.77077 2
2 -2 4 2.79105 6.41068 1
-2 2 4 4.59494 9.27738 3
-2 0 4 -0.7788 9.13682 3
0 -2 -4 12.1773 9.19228 2
2 0 4 -7.791 4.20803 1
0 -2 4 1.20217 7.55101 3
-2 0 -4 9.85985 9.40303 3
-2 0 4 3.15815 7.17756 2
2 -2 4 14.5788 5.87913 2
2 -2 -4 8.05323 8.30636 2
2 -2 -4 14.2983 7.75097 1
0 2 4 -0.8236 3.3972 1
0 -2 4 -1.2108 6.89682 1
0 -2 4 2.47039 6.9525 2
-3 1 4 899.81 60.2928 3
-2 -1 -4 920.314 60.8958 3
3 -2 -4 805.896 58.84 1
-2 3 4 782.966 59.2961 3
-2 -1 -4 826.029 58.0759 2
3 -1 4 823.118 56.4587 1
2 -3 4 823.181 57.8649 3
-1 -2 4 797.12 57.7899 2
-1 -2 4 819.737 58.779 3
1 -3 -4 774.116 58.823 2
1 -3 -4 799.225 56.5584 1
2 -3 4 861.879 58.0637 1
-1 -2 4 846.58 58.096 1
2 -3 4 849.263 57.185 2
3 -2 4 763.515 53.7505 1
1 -3 4 801.56 54.6848 3
-1 -2 -4 775.125 55.3949 2
-2 -1 4 807.911 54.9059 2
3 -1 -4 689.614 55.2333 1
3 -2 4 767.308 52.6729 2
2 -3 -4 780.899 54.5236 1
2 -3 -4 716.312 55.3078 2
-3 2 4 813.969 56.2658 3
-3 1 -4 672.278 55.8351 3
-2 -1 4 841.634 56.6739 3
-1 -2 -4 853.933 57.5289 3
1 -3 4 782.779 54.2338 2
1 -3 4 828.13 54.8019 1
3 -3 4 75.6534 10.1493 2
0 -3 4 101.528 13.6185 3
3 -3 -4 105.728 15.1721 2
3 -3 -4 77.9583 12.7801 1
3 -3 4 75.9224 12.0711 1
0 -3 -4 78.4592 13.6351 2
0 -3 4 81.4647 12.0889 2
-3 0 -4 94.929 16.4668 3
-3 0 -4 67.718 10.2352 2
-3 0 4 80.8636 12.2487 2
-3 0 4 103.079 16.4918 3
-3 3 4 90.7334 15.0318 3
0 -3 4 73.1629 11.8168 1
3 0 4 77.6642 7.68813 1
-2 -2 4 789.063 55.7848 2
2 -4 -4 759.149 56.7968 2
-4 2 -4 722.977 56.882 3
-4 2 4 818.495 57.5721 3
-2 -2 4 807.663 56.2153 1
-2 -2 4 811.03 57.2821 3
4 -2 -4 810.402 57.3886 1
4 -2 4 757.137 52.6544 2
4 -2 4 798.81 54.6117 1
2 -4 4 822.033 55.9108 1
-2 4 4 728.179 56.6561 3
-2 -2 -4 743.105 56.5028 2
2 -4 4 809.684 55.1489 3
-2 -2 -4 885.604 59.2028 3
2 -4 -4 769.248 55.4762 1
2 -4 4 772.412 54.852 2
3 -4 4 80.8565 12.2112 3
-1 -3 4 77.8896 13.2771 2
-3 -1 -4 76.0764 16.6622 3
3 -4 4 59.5598 9.52168 2
-4 1 4 87.9644 14.1254 2
-4 1 4 85.5272 15.4872 3
1 -4 -4 82.0605 15.3818 2
-1 -3 4 67.7922 12.0132 1
-4 3 -4 56.2893 12.5056 3
4 -3 -4 59.2375 12.7786 1
3 -4 4 75.3526 12.1552 1
-1 -3 4 70.8881 12.9337 3
-3 -1 -4 73.4018 12.5162 2
1 -4 -4 55.8667 9.82885 1
-3 4 4 76.4841 15.0183 3
4 -1 4 92.5798 10.7231 1
-3 -1 4 118.013 15.5294 2
-1 -3 -4 119.226 17.2713 2
3 -4 -4 117.402 16.2629 1
4 -1 -4 114.968 16.4793 1
-4 3 4 106.245 17.2319 3
4 -3 4 122.417 13.7357 1
1 -4 4 98.6782 14.8306 3
-4 1 -4 111.953 18.3947 3
1 -4 4 113.002 14.9818 1
4 -3 4 98.6817 9.76266 2
3 -4 -4 124.288 15.991 2
-3 -1 4 116.348 16.8771 3
-1 -3 -4 136.688 19.3546 3
1 -4 4 121.566 14.0919 2
4 -4 -4 278.494 25.5261 1
-4 0 -4 278.126 26.8141 3
0 -4 4 277.616 22.5365 2
0 -4 4 270.518 23.0434 3
-4 4 4 245.887 24.2567 3
-4 0 4 286.988 26.7581 3
4 -4 4 296.503 23.2858 1
4 -4 4 235.719 19.3502 2
-4 0 4 264.997 22.8292 2
0 -4 4 266.763 23.5068 1
4 0 4 223.016 18.7246 1
0 -4 -4 286.527 25.8486 2
4 -4 -4 253.907 23.8279 2
-4 0 -4 249.099 21.1672 2
3 -5 4 769.312 54.0729 1
3 -5 4 701.31 51.7158 2
2 -5 -4 735.648 53.2265 1
5 -2 4 815.631 52.5853 1
-5 3 -4 715.911 54.9742 3
-2 -3 4 764.46 54.0419 1
2 -5 -4 740.697 54.8839 2
-3 5 4 686.216 54.456 3
-2 -3 4 693.129 53.0849 2
-3 -2 -4 711.706 54.0781 2
-2 -3 4 747.918 54.6508 3
3 -5 4 710.996 51.7382 3
-5 2 4 804.366 56.5446 3
-3 -2 -4 819.049 57.4264 3
5 -3 -4 735.193 55.2504 1
-3 -2 4 924.241 62.5704 2
3 -5 -4 941.731 63.5549 2
-2 -3 -4 816.347 63.307 2
-5 2 -4 890.61 64.5412 3
2 -5 4 827.806 60.5981 3
-3 -2 4 815.857 63.1029 3
5 -3 4 898.796 61.2818 1
3 -5 -4 911.387 62.8121 1
5 -2 -4 789.815 62.9 1
-3 -2 4 919.547 62.5094 1
2 -5 4 873.597 62.1367 1
-2 -3 -4 940.519 64.7763 3
-5 3 4 808.666 63.3011 3
2 -5 4 876.538 61.1223 2
-5 1 4 33.6528 10.7925 2
5 -4 -4 29.8193 13.1013 1
-5 1 4 41.8682 13.7752 3
-1 -4 4 42.9567 12.6849 1
-5 4 -4 24.7712 10.3388 3
4 -5 4 35.6214 8.85123 3
1 -5 -4 25.3451 9.07568 1
-4 -1 -4 31.2749 10.7302 2
-1 -4 4 33.202 11.1444 2
-1 -4 4 36.5057 11.0672 3
4 -5 4 15.7356 7.01904 2
5 -1 4 42.6654 8.03464 1
4 -5 4 41.1945 11.28 1
-4 5 4 33.0789 12.9711 3
-4 -1 -4 39.597 15.1094 3
1 -5 -4 28.0974 11.923 2
5 -4 -4 18.3463 6.67589 4
-1 -4 -4 84.9316 15.2995 2
5 -1 -4 50.0202 8.99201 6
-5 1 -4 82.9251 17.6842 3
1 -5 4 101.528 14.1318 2
5 -1 -4 75.2792 14.541 1
-4 -1 4 94.925 14.505 2
-1 -4 -4 90.5899 16.042 3
-4 -1 4 88.7965 17.2035 3
1 -5 4 85.6569 13.9915 1
-1 -4 -4 61.9138 9.39318 5
4 -5 -4 84.9042 15.0758 2
-5 4 4 95.4135 16.9963 3
4 -5 -4 104.748 16.3562 1
5 -4 4 99.7641 13.7604 1
1 -5 4 59.8689 11.7154 3
-5 0 -4 167.918 22.7857 3
0 -5 4 164.32 17.8211 2
5 -5 4 178.03 18.8746 1
0 -5 4 171.562 19.4166 1
0 -5 4 150.238 17.9427 3
-5 5 4 170.566 21.3317 3
0 -5 -4 173.486 22.5756 2
0 -5 -4 186.842 21.9321 3
-5 0 4 183.142 22.9812 3
5 -5 -4 148.577 15.1752 4
5 -5 -4 192.267 20.7937 2
0 -5 -4 155.055 13.9993 5
5 -5 -4 180.184 22.7694 1
5 0 -4 130.519 14.8649 6
-5 0 -4 147.103 16.1997 2
-5 0 4 168.75 18.7374 2
-3 -3 -4 56.2984 17.4244 3
3 -6 -4 48.2494 13.0905 1
-3 6 4 37.2053 13.8191 3
-3 -3 4 35.4352 12.4512 1
-3 -3 -4 26.5843 6.82129 5
-6 3 4 28.1955 14.8309 3
6 -3 4 38.9513 9.42354 4
-6 3 -4 31.5211 15.3765 3
-3 -3 -4 37.1421 14.9019 2
3 -6 4 35.0455 11.8599 1
3 -6 4 27.3288 9.35646 2
3 -6 4 18.7819 5.99097 5
-3 -3 4 46.317 13.6207 3
6 -3 -4 32.3035 13.232 1
6 -3 -4 31.7781 8.08724 6
3 -6 4 23.5964 7.47048 3
6 -3 4 47.0139 11.3793 1
3 -6 -4 38.756 13.6558 2
3 3 4 28.7757 8.63636 6
-3 -3 4 35.7571 11.0371 2
4 -6 4 20.9978 6.95386 3
-2 -4 4 35.7827 11.1862 1
2 -6 -4 31.4762 11.9341 1
2 -6 -4 25.6384 7.16435 5
-4 -2 -4 34.1663 15.4821 3
-2 -4 4 25.0265 11.0182 2
2 4 4 24.8354 8.30135 6
-2 -4 4 44.7642 11.8555 3
-4 -2 -4 20.962 6.29388 5
6 -2 4 48.5776 10.6363 1
-6 4 -4 41.0188 13.7975 3
-6 2 4 45.9475 11.7597 2
-4 -2 -4 35.6505 14.3493 2
2 -6 -4 30.5685 12.9743 2
6 -4 -4 44.8132 15.5026 1
-4 6 4 45.9528 13.4424 3
6 -2 4 27.194 8.29251 4
6 -4 -4 27.288 7.96352 4
6 -4 -4 10.2034 5.99112 6
-6 2 4 39.7387 15.4234 3
4 -6 4 33.9598 11.0174 1
4 -6 4 22.9367 8.16686 2
-4 -2 4 10.0716 12.3207 3
-2 -4 -4 9.24344 13.1351 3
-2 -4 -4 19.9344 15.0984 2
4 -6 -4 17.6526 12.0864 1
6 -2 -4 9.49118 7.82358 6
6 -4 4 5.73624 8.49164 4
2 -6 4 17.5973 9.27171 2
4 2 4 8.91545 8.94316 6
4 -6 -4 6.87893 7.18719 4
-6 2 -4 4.72824 5.98793 5
-2 -4 -4 4.17332 6.23663 5
-4 -2 4 5.05806 11.4456 2
4 -6 -4 22.9878 12.576 2
2 -6 4 13.6697 7.75887 3
6 -4 4 19.2001 9.7245 1
-6 4 4 8.22135 13.5531 3
-6 2 -4 22.5479 15.6186 3
2 -6 4 23.8612 10.3474 1
6 -2 -4 6.04807 10.9795 1
1 -6 -4 97.3819 16.8697 2
-6 5 -4 92.3862 15.2918 3
-6 1 4 111.662 16.9562 2
-5 -1 -4 132.107 21.3352 3
-1 -5 4 97.5847 15.8934 2
-5 6 4 94.298 16.7323 3
1 -6 -4 80.5097 10.8226 5
5 1 -4 70.222 12.0748 6
6 -5 -4 86.0066 17.2566 1
-5 -1 -4 115.037 17.4216 2
-1 -5 4 98.1048 16.1051 3
6 -5 -4 104.79 13.0483 4
-6 1 4 106.861 18.8606 3
6 -1 4 78.582 12.1933 1
-1 -5 4 134.964 17.7997 1
-5 -1 -4 96.0661 10.1258 5
5 -6 4 113.009 17.0015 1
6 -1 4 92.0152 12.7543 4
6 -5 4 140.338 17.9462 1
-1 -5 -4 130.914 12.3935 5
-6 1 -4 124.894 12.1733 5
-5 -1 4 162.925 18.4231 2
5 1 4 123.285 14.4938 6
5 -6 -4 110.072 13.9109 4
-1 -5 -4 139.661 21.3262 3
6 -5 4 129.419 15.0125 4
-6 5 4 150.721 22.2168 3
1 -6 4 160.037 17.7369 2
-6 1 -4 134.501 22.5152 3
6 -1 -4 137.824 19.8499 1
1 -6 4 123.604 17.8941 1
1 -6 4 93.3171 14.9437 3
6 -1 -4 134.743 15.4558 6
-5 -1 4 139.792 21.7326 3
5 -6 -4 144.738 19.7466 2
5 -6 -4 140.077 20.4538 1
-1 -5 -4 149.961 22.524 2
0 -6 -4 264.165 29.6284 2
0 -6 -4 277.992 27.0319 3
6 -6 4 276.57 22.3042 4
-6 0 4 310.245 27.1489 2
6 -6 -4 278.19 30.5127 1
6 -6 4 288.734 27.0318 1
0 -6 4 242.338 24.4213 3
-6 0 -4 288.767 33.0442 3
-6 0 -4 260.787 20.7468 5
0 -6 4 281.3 25.2432 2
6 -6 -4 271.629 22.3737 4
0 -6 -4 267.236 21.0194 5
6 0 -4 238.727 22.2636 6
-6 6 4 276.819 28.8288 3
6 -6 -4 267.304 25.9651 2
-6 0 4 303.994 30.3172 3
6 0 4 281.127 22.5627 6
0 -6 4 273.364 26.2358 1
7 -3 4 132.674 16.9843 1
7 -3 4 108.104 14.0934 4
7 -4 -4 101.132 13.0855 6
-7 3 4 115.491 17.0721 2
4 -7 4 111.531 11.9907 5
-3 -4 4 117.094 17.9749 2
-4 -3 -4 154.794 24.9749 3
-3 -4 4 127.422 17.3211 1
7 -4 -4 67.5084 15.5547 1
-7 4 -4 133.678 21.5022 3
4 -7 4 112.739 16.6838 1
3 -7 -4 100.12 17.0432 1
-4 -3 -4 92.1763 11.1346 5
-7 3 4 81.4446 17.8822 3
4 -7 4 94.1635 13.8422 2
-4 -3 -4 117.305 20.2941 2
-4 7 4 110.687 17.7766 3
3 -7 -4 93.9997 12.58 5
7 -4 -4 88.0037 13.7242 4
-3 -4 4 136.872 20.5803 3
3 4 4 92.012 13.3236 6
3 -7 -4 108.292 18.7726 2
7 -4 4 163.202 19.5638 1
-3 7 4 156.138 21.4517 3
-7 3 -4 162.495 25.5156 3
7 -4 4 164.915 17.1152 4
-3 -4 -4 172.677 25.8301 3
-3 -4 -4 132.278 13.5485 5
3 -7 4 144.84 19.8517 1
-3 -4 -4 154.571 23.911 2
4 -7 -4 165.205 21.9634 1
4 -7 -4 165.105 22.2832 2
-4 -3 4 151.953 21.1589 3
3 -7 4 152.35 14.852 5
4 3 4 161.342 16.2787 6
-7 4 4 154.578 24.4775 3
3 -7 4 185.467 17.8373 2
4 -7 -4 138.703 14.8421 4
7 -3 -4 147.248 22.6455 1
-4 -3 4 160.422 20.2637 2
-4 -3 4 171.27 21.5319 1
7 -3 -4 146.016 16.0497 6
-2 -5 4 143.581 20.4169 3
-5 -2 -4 148.688 22.4661 2
7 -5 -4 125.794 13.469 6
-5 -2 -4 175.258 27.0093 3
-5 -2 -4 134.353 12.736 5
7 -2 4 129.308 15.6008 4
2 -7 -4 135.69 14.2928 5
2 -7 -4 154.464 20.9905 2
7 -2 4 109.096 16.4021 1
5 -7 4 143.814 13.3481 5
-7 5 -4 137.814 20.8452 3
-2 -5 4 166.972 21.2861 1
2 5 4 112.1 15.0495 6
5 2 -4 127.695 16.089 6
-7 2 4 139.779 19.9349 2
5 -7 4 154.028 20.2738 1
-5 7 4 154.776 20.8792 3
-2 -5 4 142.611 18.4067 2
-7 2 4 145.995 24.5107 3
7 -5 -4 124.308 15.3477 4
7 -5 -4 106.366 19.7048 1
-7 2 -4 221.546 18.3335 5
5 -7 -4 238.947 24.7708 2
7 -2 -4 225.288 19.7509 6
2 -7 4 221.741 23.9197 1
2 -7 4 243.17 23.2016 2
5 -7 -4 223.068 26.3617 1
-7 2 -4 264.388 31.6553 3
5 -7 -4 197.221 18.5706 4
-7 5 4 258.466 28.3342 3
-2 -5 -4 218.153 18.5157 5
7 -5 4 228.648 23.416 1
-5 -2 4 249.308 23.3283 2
5 2 4 231.474 21.3307 6
7 -2 -4 213.094 25.9489 1
7 -5 4 241.751 20.6442 4
-5 -2 4 219.26 27.6187 3
-2 -5 -4 227.078 26.2386 3
-2 -5 -4 229.419 27.8904 2
-1 -6 4 85.6817 15.4815 3
-6 -1 -4 111.347 22.4105 3
7 -6 -4 146.221 22.6859 1
-6 7 4 115.086 20.2428 3
7 -1 4 101.465 13.9336 4
-1 -6 4 121.515 17.8987 1
1 6 4 80.8207 12.0998 6
-6 -1 -4 101.79 11.3134 5
-7 1 4 114.544 18.4046 2
-7 1 4 88.5706 18.8485 3
6 -7 4 118.154 19.5728 1
1 -7 -4 120.316 13.2009 5
7 -6 -4 92.3282 14.2426 4
-1 -6 4 125.809 18.5913 2
6 1 -4 106.477 14.5524 6
7 -1 4 110.898 14.6014 6
1 -7 -4 126.864 21.5143 2
-7 6 4 145.696 22.6085 3
-1 -6 -4 83.9123 19.2646 2
-6 -1 4 110.565 21.1335 3
6 1 4 116.878 14.5637 6
7 -1 -4 101.182 15.3746 6
6 -7 -4 102.109 13.7614 4
1 -7 4 109.267 16.6893 1
-1 -6 -4 110.168 19.5016 3
6 -7 -4 93.8061 19.5363 1
-7 1 -4 97.8175 11.6031 5
-6 -1 4 114.442 18.0047 2
-1 -6 -4 93.8889 11.5166 5
7 -1 -4 100.248 18.9343 1
7 -6 4 96.6418 13.6579 4
6 -7 -4 122.113 19.3288 2
1 -7 4 118.209 17.9893 2
7 -6 4 114.089 17.9403 1
-7 1 -4 90.6134 21.685 3
7 -7 4 464.137 38.589 1
7 0 4 467.445 34.7307 6
-7 0 4 470.186 39.1677 2
-7 0 -4 472.423 46.0898 3
-7 0 4 501.693 43.3895 3
0 -7 -4 477.764 33.3339 5
7 -7 -4 460.758 34.1163 4
-7 7 4 445.309 40.9561 3
0 -7 -4 457.803 39.6353 3
-7 0 -4 443.867 32.4742 5
7 -7 -4 467.636 38.7262 2
0 -7 4 456.814 37.7898 2
7 0 4 380.745 33.2331 4
7 -7 -4 495.76 41.4406 1
7 -7 4 436.548 33.9969 4
0 -7 -4 424.861 40.023 2
0 -7 4 482.403 38.9278 1
7 0 -4 459.006 34.5791 6
8 -4 -4 346.723 26.9736 6
4 -8 -4 317.724 25.8213 4
-4 -4 4 334.752 33.907 3
-8 4 4 357.233 31.9593 2
4 -8 -4 390.01 33.3323 2
-8 4 -4 369.368 37.4051 3
4 -8 -4 313.59 26.3975 5
-4 8 4 334.646 31.4378 3
8 -4 -4 339.711 33.8041 1
-4 -4 -4 294.527 34.8217 2
4 -8 -4 273.677 31.7528 1
8 -4 4 409.849 28.0692 4
-4 -4 4 382.961 32.2083 1
4 -8 4 364.528 26.468 5
8 -4 4 346.757 30.9648 1
-4 -4 -4 341.931 25.419 5
-4 -4 -4 375.523 35.4962 3
-8 4 4 340.067 36.0091 3
4 -8 4 354.105 31.9386 1
4 -8 4 318.073 28.4843 2
-4 -4 4 371.814 32.0584 2
4 4 4 322.956 27.8223 6
8 -4 -4 324.253 27.719 4
3 5 4 27.9865 9.24704 6
-3 -5 4 42.3103 13.7167 2
-5 -3 -4 65.9599 19.7723 3
-5 -3 -4 25.4073 17.96 2
-8 3 4 34.9191 14.0541 2
-8 3 4 30.9104 15.4749 3
-3 -5 4 62.1035 16.6561 1
8 -3 4 38.1347 9.76729 4
8 -3 4 13.8712 11.5623 1
-5 -3 -4 42.672 7.84857 5
8 -5 -4 33.7263 7.91944 6
3 -8 -4 34.9097 15.5159 2
3 -8 -4 49.0311 9.63145 5
3 -8 -4 -1.4773 12.7117 1
-8 5 -4 34.0014 17.4979 3
8 -5 -4 36.7376 11.139 4
5 -8 4 60.9414 16.2733 1
5 -8 4 54.0599 9.53814 5
8 -5 -4 17.2397 15.3436 1
-3 -5 4 55.9713 16.5243 3
-5 8 4 27.2812 14.3464 3
5 3 -4 31.549 10.7227 6
-3 -5 -4 38.9989 17.1417 3
-3 8 4 42.4964 15.0986 3
8 -5 4 28.2201 9.48975 4
-3 -5 -4 27.6375 18.6309 2
8 -3 -4 38.0374 16.4611 1
8 -5 4 33.8816 13.4655 1
8 -3 -4 36.1263 10.0838 6
-8 3 -4 38.9985 19.8224 3
3 -8 4 30.8488 8.24404 5
8 -3 -4 23.7937 9.14022 4
5 -8 -4 26.9969 8.60565 5
5 -8 -4 27.7518 8.6384 4
-3 -5 -4 33.0137 8.04508 5
-5 -3 4 44.6749 17.9136 3
-5 -3 4 33.9056 13.0805 2
-5 -3 4 34.2096 14.6264 1
-8 5 4 23.0291 15.4889 3
3 -8 4 25.899 13.2244 1
5 3 4 28.5231 10.7838 6
3 -8 4 39.7866 12.1899 2
5 -8 -4 30.216 15.5584 1
5 -8 -4 26.9486 14.2473 2
-8 2 4 79.1544 20.4184 3
6 2 -4 76.4832 13.1001 6
-6 -2 -4 71.8831 23.0676 3
8 -6 -4 54.6722 9.18462 6
-2 -6 4 94.9612 17.6407 2
8 -2 4 95.6461 12.2723 4
6 -8 4 89.8935 17.8884 1
-6 -2 -4 65.1605 9.71266 5
-2 -6 4 63.5891 15.8772 3
6 -8 4 78.051 10.7746 5
2 -8 -4 59.3192 9.80777 5
8 -6 -4 68.7753 11.6379 4
2 -8 -4 82.3203 19.2601 2
2 6 4 61.0656 11.1304 6
-8 2 4 51.329 14.9997 2
8 -2 4 71.7732 12.0259 6
8 -6 -4 39.9618 17.4586 1
-6 8 4 55.1388 16.6008 3
-2 -6 4 75.3892 17.6857 1
2 -8 4 81.3083 15.8229 2
6 -8 -4 73.934 16.9324 2
-2 -6 -4 94.0098 21.3647 3
2 -8 4 80.2748 10.1588 5
8 -6 4 52.3985 14.7751 1
8 -6 4 80.0597 12.8879 4
2 -8 4 67.9641 15.7753 1
6 -8 -4 56.5583 17.0538 1
-2 -6 -4 65.142 19.6897 2
-6 -2 4 50.4207 17.6655 3
8 -2 -4 57.0851 17.1925 1
8 -2 -4 75.0533 12.1213 6
-8 6 4 73.5665 19.7756 3
6 -8 -4 71.3939 10.9346 4
-8 2 -4 67.1882 23.7098 3
6 2 4 69.051 11.8417 6
-6 -2 4 63.9059 14.8912 2
-2 -6 -4 76.0407 10.8667 5
7 -8 4 119.636 20.2257 1
1 7 4 94.7395 14.2844 6
7 -8 4 116.121 13.1494 5
7 -8 4 113.111 14.8389 4
7 1 -4 87.1823 14.8298 6
8 -7 -4 76.3304 19.5596 1
8 -7 -4 101.053 13.9579 4
-8 1 4 95.6872 22.0522 3
-7 8 4 59.194 17.8982 3
8 -1 4 110.182 15.1536 6
-7 -1 -4 84.8076 10.9653 5
-1 -7 4 90.1196 18.4462 2
-8 1 4 111.496 18.9265 2
1 -8 -4 102.588 12.1485 5
-1 -7 4 102.718 18.5511 1
8 -1 4 100.19 14.1287 4
1 -8 -4 82.2642 20.0581 2
-7 -1 -4 121.835 26.9383 3
1 -8 4 88.8543 17.4139 1
-8 1 -4 72.9361 10.5815 5
-7 -1 4 74.5012 20.8992 3
8 -7 4 81.7425 12.4046 4
-1 -7 -4 77.0801 10.5784 5
-7 -1 4 64.3797 16.3995 2
-1 -7 -4 71.9009 20.888 2
8 -1 -4 64.9937 17.8804 1
1 -8 4 69.4964 16.8815 2
-1 -7 -4 55.1372 17.4179 3
-8 1 -4 72.5867 24.752 3
7 -8 -4 41.225 17.6423 1
7 -8 -4 63.4682 16.1565 2
7 -8 -4 73.3422 12.0203 4
-8 7 4 57.3985 19.0486 3
7 1 4 89.2865 13.1053 6
8 -1 -4 73.5943 12.6287 6
8 -7 4 57.4125 15.3755 1
0 -8 -4 74.7229 11.1302 5
8 0 4 59.4719 10.8237 4
0 -8 4 94.5483 18.7264 1
-8 0 -4 81.0324 10.1144 5
8 -8 4 66.2439 11.4162 4
8 -8 4 59.7744 16.3673 1
8 -8 -4 67.9315 16.7675 2
0 -8 -4 54.8998 19.4278 2
8 -8 4 90.6788 10.9376 5
8 -8 -4 107.691 13.483 4
-8 0 4 67.5747 16.9896 2
-8 0 -4 44.7808 22.2304 3
0 -8 -4 50.0014 16.8757 3
8 0 -4 94.0439 14.7776 6
8 0 4 84.841 13.85 6
-8 0 4 53.1766 19.4333 3
8 -8 -4 55.2348 18.5848 1
0 -8 4 87.2113 18.3998 2
-9 4 4 464.598 39.5644 2
-4 -5 4 467.797 40.3577 2
-5 -4 -4 475.584 32.8671 5
4 -9 -4 499.213 42.5255 2
4 5 4 426.803 35.1672 6
9 -5 -4 390.168 40.6233 1
5 4 -4 440.162 35.5593 6
9 -5 -4 470.728 34.3503 6
9 -4 4 464.282 35.1016 4
-9 4 4 415.293 43.2968 3
5 -9 4 445.984 39.6471 1
-5 -4 -4 499.101 45.8691 3
-4 -5 4 459.202 42.173 3
4 -9 -4 421.26 33.8232 5
-4 -5 4 534.44 41.4665 1
9 -5 -4 480.005 35.8727 4
5 -9 4 462.776 33.2698 5
5 -9 -4 386.004 30.111 5
-9 4 -4 292.456 40.1479 3
4 -9 4 383.638 35.7232 1
-4 -5 -4 416.561 29.0248 5
-9 5 4 363.193 39.3152 3
9 -4 -4 416.806 30.7646 6
5 4 4 380.775 31.3223 6
-4 -5 -4 408.84 39.3826 3
-5 -4 4 385.01 39.6737 3
9 -4 -4 403.832 31.9651 4
9 -4 -4 385.163 38.2745 1
5 -9 -4 378.803 29.4882 4
4 -9 4 413.243 29.4924 5
-5 -4 4 475.767 38.4383 1
-9 5 4 382.882 34.2812 2
5 -9 -4 365.506 35.9396 2
-4 -5 -4 284.369 38.1321 2
9 -5 4 462.269 31.8209 4
-5 -4 4 435.715 36.5003 2
9 -3 4 95.4756 13.8771 6
-6 -3 -4 80.5733 23.2675 3
-9 3 4 72.7926 20.1595 3
-3 -6 4 95.545 18.8664 2
3 -9 -4 102.779 13.7194 5
3 6 4 98.7452 15.8112 6
9 -6 -4 93.4316 13.6811 6
9 -3 4 102.633 13.8588 4
6 -9 4 95.8951 12.4572 5
-3 -6 4 130.399 22.4162 1
-6 -3 -4 97.7333 11.3988 5
9 -6 -4 130.642 15.856 4
6 3 -4 115.944 15.6211 6
-9 3 4 108.755 19.876 2
6 -9 4 77.6021 17.7301 1
3 -9 -4 89.3181 19.7718 2
9 -6 -4 74.3563 20.3686 1
-3 -6 -4 145.11 25.088 3
6 -9 -4 158.994 16.3372 4
6 -9 -4 188.788 25.9456 2
-6 -3 4 149.695 23.5835 2
-6 -3 4 176.06 28.369 3
3 -9 4 178.448 23.2037 1
9 -3 -4 152.141 18.1416 4
-3 -6 -4 163.606 15.3375 5
-9 6 4 174.007 28.5241 3
9 -3 -4 154.225 25.2586 1
3 -9 4 165.748 15.7683 5
9 -6 4 181.357 18.6987 4
-6 -3 4 177.902 24.866 1
6 -9 -4 142.134 17.086 5
-9 3 -4 103.894 26.855 3
-3 -6 -4 85.0182 23.5894 2
6 3 4 188.943 18.9829 6
9 -3 -4 160.237 18.1153 6
9 -2 4 87.3841 12.9924 6
2 -9 -4 89.5912 22.8296 2
9 -7 -4 90.4995 14.1102 4
-2 -7 4 68.2456 17.8681 2
9 -2 4 100.421 13.8197 4
7 -9 4 78.2482 13.0574 4
2 -9 -4 85.6907 12.199 5
7 2 -4 93.433 15.26 6
-9 2 4 88.0996 23.558 3
9 -7 -4 78.7462 21.3108 1
7 -9 4 102.616 20.0845 1
-7 -2 -4 84.3129 10.4629 5
2 7 4 92.0376 13.6558 6
-2 -7 4 83.7012 19.881 1
7 -9 4 87.8151 12.0973 5
-7 -2 -4 69.3275 24.37 3
-9 2 4 72.2922 19.0762 2
-2 -7 -4 99.9747 11.9317 5
9 -7 4 52.816 15.5005 1
7 -9 -4 107.597 12.7763 4
-9 2 -4 58.3277 25.5471 3
-9 7 4 33.9535 20.3578 3
-7 -2 4 90.3799 23.8537 3
2 -9 4 48.3316 15.6673 2
-7 -2 4 73.5711 17.6741 2
2 -9 4 81.2963 10.659 5
-2 -7 -4 57.2366 22.8206 2
-2 -7 -4 78.2008 20.5722 3
7 2 4 101.715 16.2468 6
9 -2 -4 80.6117 19.8509 1
7 -9 -4 65.7666 16.8232 2
2 -9 4 82.8375 17.262 1
9 -2 -4 122.836 14.8968 6
-8 -1 -4 26.2652 24.8686 3
9 -1 4 31.6657 10.5189 4
-8 -1 -4 31.7643 7.12909 5
8 -9 4 33.3105 16.9503 1
-9 1 4 16.3489 19.4764 3
1 8 4 33.1429 10.5052 6
1 -9 -4 37.9398 8.87519 5
1 -9 -4 29.6178 18.3212 2
9 -8 -4 14.3857 19.3753 1
8 -9 4 44.5457 10.9701 4
9 -1 4 43.5687 11.3717 6
-9 1 4 22.6732 16.6274 2
8 1 -4 41.2785 12.6189 6
8 -9 4 34.3309 9.31457 5
-1 -8 4 36.7456 17.2145 2
9 -8 -4 36.3967 11.8859 4
-1 -8 4 25.5095 16.2966 1
9 -8 4 56.3733 9.50367 5
-1 -8 -4 -5.1802 15.93 3
-1 -8 -4 32.3272 20.4947 2
1 -9 4 29.9387 16.864 2
-9 1 -4 29.6788 7.13594 5
1 -9 4 55.0531 8.75228 5
-9 1 -4 29.5428 25.6768 3
8 -9 -4 0.52798 17.6848 1
1 -9 4 34.0425 14.1459 1
8 -9 -4 56.077 11.3258 4
8 -9 -4 25.6202 15.6908 2
9 -8 4 15.3541 14.4927 1
8 1 4 53.0374 11.4808 6
9 -8 4 58.8184 11.5559 4
-8 -1 4 41.2382 22.9208 3
9 -1 -4 50.8762 11.8463 6
-8 -1 4 42.0983 17.0738 2
9 0 4 82.3532 12.5452 6
9 -9 -4 75.9493 11.9118 4
9 -9 -4 -1.5453 18.0281 1
0 -9 4 54.9881 17.3824 1
-9 0 -4 22.7668 26.5747 3
-9 0 4 1.00068 16.6184 2
9 0 4 83.259 12.41 4
0 -9 -4 40.0586 21.8693 2
-9 0 4 46.0807 22.1656 3
0 -9 4 4.24014 16.6402 2
5 5 -4 352.017 29.9679 6
10 -5 4 338.682 28.3835 4
5 -10 4 356.741 27.3373 5
5 5 4 336.322 28.9968 6
10 -5 -4 300.126 35.6328 1
5 -10 -4 345.069 28.1212 5
5 -10 -4 345.302 27.2586 4
5 -10 -4 354.766 35.5327 2
-5 -5 4 416.502 36.8042 1
10 -5 -4 367.767 28.4314 6
5 -10 4 342.908 33.5505 1
-5 -5 4 349.787 35.221 2
-5 -5 -4 378.143 26.6581 5
10 -5 -4 383.177 30.321 4
-5 -5 -4 351.333 38.6144 3
10 -4 4 134.945 17.0115 4
6 -10 4 112.598 13.2212 5
4 -10 -4 116.543 15.3175 5
10 -6 -4 124.052 18.1208 4
-4 -6 4 121.22 21.4431 2
4 6 4 109.785 15.3939 6
-4 -6 4 132.494 24.0242 1
4 -10 -4 121.694 23.8141 2
-6 -4 -4 111.741 25.6623 3
10 -6 -4 101.886 23.4054 1
-10 4 4 81.7426 24.2841 3
6 4 -4 148.926 18.3557 6
6 -10 4 127.145 22.6213 1
10 -6 -4 133.581 15.0072 6
-6 -4 -4 131.257 12.8803 5
4 -10 4 48.5233 15.9071 1
6 4 4 94.4731 13.5975 6
6 -10 -4 72.6438 11.2835 4
-6 -4 4 49.0077 17.0503 1
4 -10 4 68.0116 10.4801 5
10 -4 -4 83.865 12.8987 6
10 -4 -4 59.317 19.1262 1
6 -10 -4 78.9224 20.4421 2
-4 -6 -4 74.5615 11.2781 5
-6 -4 4 22.4997 20.3568 3
-6 -4 4 69.057 19.154 2
10 -6 4 111.97 14.707 4
10 -4 -4 91.8927 15.1445 4
6 -10 -4 59.0972 11.2301 5
-4 -6 -4 72.0806 23.2219 3
-7 -3 -4 64.1362 8.98878 5
-3 -7 4 50.6269 19.2356 1
7 -10 4 88.5382 11.3513 5
-3 -7 4 52.4717 18.3671 2
3 -10 -4 61.7709 10.8246 5
3 -10 -4 24.5242 17.6608 2
10 -3 4 57.5746 12.6153 4
7 -10 4 41.3819 17.6011 1
7 3 -4 58.7918 13.7992 6
10 -7 -4 10.0089 17.2928 1
-7 -3 -4 38.8185 23.707 3
10 -7 -4 52.652 12.169 4
3 7 4 81.6039 13.4147 6
-10 3 4 43.5042 22.6154 3
10 -3 4 59.4456 11.5273 6
10 -7 -4 61.1985 10.5813 6
7 -10 -4 34.9463 10.2504 5
10 -7 4 41.1842 10.703 4
7 3 4 56.4057 11.5332 6
-3 -7 -4 -4.2852 22.9592 2
7 -10 -4 9.63194 17.1161 2
-7 -3 4 40.8864 17.0747 2
-10 3 -4 -13.669 44.289 3
10 -3 -4 44.3573 11.9694 4
10 -3 -4 50.8546 11.3211 6
-3 -7 -4 51.0515 9.12378 5
7 -10 -4 44.5991 9.7707 4
-3 -7 -4 -9.1338 18.9538 3
3 -10 4 45.1452 9.04595 5
-7 -3 4 32.5213 16.6577 1
10 -3 -4 32.4879 18.6054 1
3 -10 4 39.8564 16.8942 1
-7 -3 4 37.4377 21.743 3
10 -8 -4 40.2057 12.0775 4
10 -2 4 56.8445 11.6359 4
10 -8 -4 -1.7366 18.3962 1
8 2 -4 50.5026 13.7696 6
8 -10 4 41.1552 10.505 4
8 -10 4 49.2049 9.18971 5
-8 -2 -4 26.9942 6.91918 5
2 -10 -4 58.7854 10.9591 5
10 -2 4 53.6416 11.7763 6
-8 -2 -4 -0.5865 23.9275 3
-10 2 4 10.159 22.6755 3
-2 -8 4 8.9478 16.2402 1
2 -10 -4 19.2255 20.6424 2
2 8 4 45.2304 11.8615 6
8 -10 4 2.30331 17.222 1
-2 -8 4 8.56894 17.4848 2
8 2 4 83.5896 13.3614 6
8 -10 -4 87.1662 12.9126 4
10 -2 -4 95.2019 14.3924 6
8 -10 -4 58.8779 11.0382 5
10 -2 -4 28.9935 18.6099 1
10 -8 4 72.3811 13.2613 4
2 -10 4 41.9531 17.3036 1
-2 -8 -4 83.1593 10.8998 5
2 -10 4 78.985 10.7418 5
-2 -8 -4 -1.4719 27.6536 2
10 -8 4 74.3437 10.7859 5
-1 -9 4 1.81477 17.9779 1
1 -10 -4 -0.6115 24.385 2
-9 -1 -4 -7.9557 38.9217 3
10 -1 4 50.1352 11.9485 4
1 -10 -4 63.9342 11.1707 5
10 -9 -4 56.7755 13.4326 4
1 9 4 24.7093 10.0661 6
9 -10 4 57.2047 11.953 4
-10 1 4 1.0673 22.6263 3
9 1 -4 42.6646 12.3619 6
10 -1 4 64.5783 12.7743 6
9 -10 -4 19.2735 9.45315 4
9 1 4 31.5128 11.5647 6
10 -9 4 20.8353 9.93447 4
1 -10 4 0.0443 15.6359 1
-1 -9 -4 31.1678 9.0991 5
1 -10 4 25.5615 7.91401 5
10 -1 -4 37.5674 13.0592 6
10 -9 4 31.0935 8.90444 5
9 1 4 -0.9016 9.1423 4
-9 -1 4 2.44112 24.7231 3
10 0 -4 11.9934 12.1697 6
10 -10 -4 6.39552 10.1319 4
0 -10 4 0.21038 5.99971 5
0 -10 -4 15.3917 8.9884 5
10 -10 4 11.2707 10.406 4
10 0 4 7.07115 9.43862 4
10 0 4 8.44332 9.86158 6
10 -10 4 4.86832 7.91804 5
11 -5 4 35.9795 11.8519 4
-5 -6 4 -4.3482 21.2609 1
5 -11 -4 27.4526 9.91677 5
6 -11 4 33.341 9.53212 5
-6 -5 -4 27.1384 7.48412 5
11 -6 -4 27.8717 12.9795 4
5 6 4 38.8136 11.5523 6
5 -11 -4 -0.5234 31.4002 2
6 -11 4 -1.5897 26.9467 1
-5 -6 4 2.00319 15.5716 2
11 -6 -4 25.2604 9.50487 6
11 -6 -4 -2.7295 31.3796 1
6 5 -4 30.5964 13.9101 6
-6 -5 4 -0.5798 18.0209 2
5 6 -4 20.3509 11.0769 6
11 -5 -4 15.5981 12.4376 4
-5 -6 -4 16.9448 7.48616 5
-6 -5 4 -3.3353 19.5737 1
11 -6 4 28.0157 10.0324 4
6 -11 -4 25.8047 9.08979 4
11 -5 -4 22.4737 9.74591 6
6 5 4 21.1417 10.0112 6
5 -11 4 4.37441 18.7112 1
5 -11 4 23.5639 8.8954 5
6 -11 -4 28.0958 10.187 5
11 -5 -4 -2.0179 23.2653 1
7 -11 4 164.97 15.6391 5
-7 -4 -4 149.72 14.1878 5
7 4 -4 150.802 19.7703 6
11 -4 4 149.67 19.0025 4
4 7 4 150.771 18.9981 6
11 -7 -4 155.631 16.7811 6
4 -11 -4 151.41 16.9633 5
11 -4 4 137.366 16.478 6
11 -7 -4 139.8 19.8092 4
-4 -7 -4 140.062 14.9211 5
11 -4 -4 137.776 17.5521 6
11 -4 -4 136.674 19.7381 4
7 4 4 125.055 18.4989 6
11 -7 4 152.781 19.3323 4
4 -11 4 142.474 15.3551 5
7 -11 -4 122.877 16.2813 4
7 -11 -4 141.952 17.3711 5
11 -8 -4 53.3558 13.2892 4
11 -3 4 53.5334 11.7054 4
3 -11 -4 74.0706 11.7882 5
3 8 4 49.5332 12.2647 6
8 3 -4 63.5922 13.9546 6
8 -11 4 61.3351 10.068 5
-8 -3 -4 34.3147 7.45412 5
11 -3 4 64.6206 12.3828 6
-3 -8 -4 26.5628 8.84207 5
11 -8 4 43.5058 10.2519 5
8 -11 -4 43.5886 10.8467 4
11 -3 -4 32.8381 11.4016 4
11 -8 4 34.2303 11.5004 4
3 -11 4 33.528 9.76754 5
8 -11 -4 43.6207 11.5179 5
8 3 4 38.2034 11.5891 6
11 -3 -4 45.3315 12.1933 6
2 9 4 61.6345 12.8705 6
11 -9 -4 84.4701 15.008 4
9 2 -4 82.3389 16.2947 6
9 -11 4 67.5328 11.2222 5
11 -2 4 51.1716 12.408 4
11 -2 4 53.9322 12.2796 6
2 -11 -4 83.7635 12.5439 5
9 -11 4 69.5703 12.1303 4
11 -9 4 40.2916 10.3318 5
11 -2 -4 58.7921 13.7632 6
9 2 4 54.7898 12.982 6
11 -9 4 47.6492 12.8124 4
9 -11 -4 34.6601 10.7152 5
2 -11 4 55.4672 10.3316 5
9 -11 -4 66.0138 12.3747 4
-2 -9 -4 50.9081 10.1851 5
11 -1 4 1.53091 9.64882 6
10 -11 4 8.68131 9.75836 4
1 -11 -4 8.35225 9.25746 5
1 10 4 -0.3941 9.17991 6
11 -1 4 6.83585 10.9662 4
10 1 -4 10.6782 12.5138 6
11 -10 -4 6.79423 11.6083 4
10 -11 4 10.4438 8.30868 5
11 -10 4 15.9648 10.2463 4
-1 -10 -4 24.5713 9.29231 5
11 -1 -4 19.7186 12.075 6
10 1 4 20.5729 10.8744 6
10 -11 -4 20.3396 11.295 4
1 -11 4 21.8506 8.76246 5
11 -10 4 22.0151 9.15045 5
11 -11 -4 131.864 17.9954 4
0 -11 -4 106.815 15.8459 5
11 0 -4 122.839 18.408 6
11 -11 4 118.474 14.9051 5
11 -11 4 123.445 16.8755 4
11 0 4 128.964 17.7282 6
12 -6 -4 -0.8314 12.1102 4
6 6 4 5.21407 10.6273 6
12 -6 4 9.29725 10.7811 4
6 -12 -4 1.84665 7.43165 4
6 -12 4 4.6953 8.52078 5
-6 -6 -4 -2.1428 7.3093 5
12 -6 -4 3.28598 9.60929 6
6 6 -4 -3.2302 13.1628 6
6 -12 -4 2.82338 9.46515 5
7 -12 4 82.9025 11.7422 5
12 -7 -4 108.833 16.6535 4
5 7 4 70.3143 13.8116 6
12 -5 4 75.6492 13.9337 4
12 -7 -4 60.8521 11.988 6
-7 -5 -4 74.8281 10.5511 5
7 5 -4 94.5572 17.9294 6
5 -12 -4 96.0185 13.6707 5
12 -5 -4 74.9322 12.5702 6
5 -12 4 84.9232 12.2311 5
7 5 4 57.3158 12.4411 6
-5 -7 -4 62.539 10.6195 5
12 -5 -4 62.8143 15.012 4
7 -12 -4 72.2251 12.1015 4
12 -7 4 105.962 16.1845 4
7 -12 -4 58.0362 12.6644 5
12 -8 -4 43.7616 10.3143 6
4 -12 -4 77.8345 12.5592 5
12 -4 4 56.8231 11.5024 6
12 -8 -4 54.0601 13.7518 4
8 4 -4 60.4277 15.9286 6
12 -4 4 78.0079 14.6505 4
8 -12 4 58.9448 10.5607 5
4 8 4 45.3796 12.3798 6
12 -4 -4 79.2611 15.569 4
8 -12 -4 60.4408 12.9117 5
12 -8 4 67.0347 12.4877 5
8 4 4 65.7465 13.3933 6
8 -12 -4 84.0586 13.094 4
12 -8 4 118.688 16.3407 4
12 -4 -4 76.0358 12.9073 6
4 -12 4 62.2181 11.3266 5
-4 -8 -4 85.9421 12.2156 5
3 -12 -4 7.48824 9.19621 5
9 -12 4 2.00264 7.56292 4
3 9 4 0.17754 10.3547 6
12 -3 4 1.01553 9.35963 6
9 -12 4 0.99659 8.3426 5
12 -9 -4 9.63787 12.1898 4
12 -3 4 -2.4161 11.4872 4
9 3 -4 9.58616 13.5733 6
12 -9 4 10.0198 10.2281 4
9 3 4 7.43283 11.4843 6
3 -12 4 5.66478 8.29622 5
12 -9 4 5.93704 8.93926 5
12 -3 -4 2.46524 11.092 6
9 -12 -4 8.82427 10.2937 5
9 -12 -4 10.384 10.1379 4
-3 -9 -4 6.78294 8.47782 5
12 -3 -4 -1.8335 10.0298 4
12 -2 4 39.4549 12.0145 6
2 10 4 23.6906 10.8051 6
2 -12 -4 50.324 11.5694 5
10 2 -4 43.3146 13.9078 6
12 -2 4 33.889 12.9661 4
10 -12 4 35.6972 11.0893 4
10 -12 4 42.4279 10.2204 5
12 -10 -4 32.2133 12.2218 4
12 -10 4 20.0013 11.8447 4
10 -12 -4 6.15695 10.4665 4
2 -12 4 12.8943 9.41395 5
10 2 4 18.6846 12.6749 6
10 -12 -4 -2.2197 8.5888 5
-2 -10 -4 12.4988 8.20706 5
12 -2 -4 9.58399 11.636 6
12 -10 4 11.019 9.47346 5
12 -1 4 127.409 19.9485 4
11 -12 4 134.31 16.4781 5
11 1 -4 152.264 21.4496 6
1 -12 -4 158.977 17.5245 5
12 -11 -4 159.593 20.7182 4
11 -12 4 141.569 18.9111 4
12 -1 4 139.28 19.1972 6
12 -11 4 161.725 18.1482 5
12 -1 -4 192.042 22.3751 6
12 -11 4 150.492 20.4044 4
11 -12 -4 153.23 19.7298 4
1 -12 4 143.122 17.1722 5
-1 -11 -4 163.345 17.4525 5
11 1 4 161.792 21.5095 6
12 -12 -4 20.3161 12.5664 4
12 0 -4 28.6178 13.9693 6
12 -12 4 19.8822 9.83654 5
12 0 4 5.42668 10.3896 6
12 -12 4 11.9674 11.0555 4
0 -12 -4 12.674 9.07707 5
13 -7 -4 12.5072 12.426 4
7 6 -4 17.7398 15.3229 6
7 -13 4 17.116 8.44815 5
-7 -6 -4 13.9656 7.98986 5
13 -6 4 25.62 12.2494 4
6 7 4 23.6258 12.266 6
13 -7 -4 18.5892 10.1777 6
6 -13 -4 17.2432 9.73677 5
7 6 4 8.15497 10.5022 6
6 -13 4 7.84692 9.89956 5
6 7 -4 0.87278 13.5325 6
13 -6 -4 19.0053 13.4089 4
7 -13 -4 4.87697 7.83692 4
13 -6 -4 12.0733 10.2519 6
-6 -7 -4 11.3823 8.21824 5
13 -7 4 13.2583 11.7991 4
7 -13 -4 8.43207 10.2082 5
8 5 -4 64.7791 16.5766 6
8 -13 4 60.4195 11.0106 5
13 -8 -4 51.8669 11.2623 6
13 -5 4 47.1096 13.0718 4
13 -8 -4 46.0617 13.6439 4
5 8 4 64.7916 14.4985 6
5 -13 -4 51.6739 11.6106 5
13 -8 4 65.2201 14.0096 4
13 -5 -4 58.9781 13.2159 6
5 -13 4 65.4495 11.7251 5
8 5 4 51.9593 13.6662 6
8 -13 -4 57.4866 12.9459 5
8 -13 -4 36.2364 11.1362 4
-5 -8 -4 45.2953 10.0384 5
13 -8 4 46.7366 11.1534 5
13 -5 -4 53.9079 14.3559 4
9 4 -4 111.41 19.0971 6
13 -4 4 121.644 17.2673 4
4 -13 -4 97.1078 13.335 5
13 -9 -4 139.64 18.5643 4
9 -13 4 115.88 15.3776 5
4 9 4 62.2431 14.6226 6
13 -4 4 87.2722 13.9838 6
13 -9 4 49.211 11.312 5
13 -4 -4 60.5903 13.0102 6
9 -13 -4 68.665 12.9496 4
9 4 4 66.593 13.8833 6
13 -9 4 70.4181 13.9752 4
-4 -9 -4 66.3369 11.4091 5
13 -4 -4 56.5905 13.9361 4
9 -13 -4 56.8733 12.7 5
4 -13 4 56.7416 11.1575 5
3 10 4 124.681 20.8575 6
10 3 -4 189.632 24.0927 6
13 -3 4 144.429 21.3947 4
13 -10 -4 191.55 22.6212 4
3 -13 -4 176.494 18.9019 5
13 -3 4 166.084 19.8239 6
10 -13 4 158.977 17.4098 5
-3 -10 -4 200.198 19.5678 5
10 -13 -4 201.924 21.4362 4
10 3 4 208.792 23.62 6
13 -3 -4 205.619 21.6919 6
10 -13 -4 166.143 20.8361 5
3 -13 4 203.172 19.9028 5
13 -10 4 191.382 20.9723 5
13 -10 4 228.445 23.3662 4
2 -13 -4 15.7367 9.84788 5
13 -2 4 4.16912 11.4281 6
11 -13 4 14.1819 10.5783 4
11 2 -4 15.1365 13.1485 6
13 -11 -4 2.41511 11.6673 4
11 -13 4 15.8833 9.36158 5
13 -2 4 18.0866 12.0994 4
13 -11 4 19.1664 9.6875 5
11 -13 -4 23.3202 12.0556 4
13 -2 -4 33.1007 13.5357 6
13 -11 4 22.2477 11.8529 4
-2 -11 -4 14.8769 8.88126 5
2 -13 4 26.0852 10.1864 5
11 2 4 19.9288 11.3785 6
1 -13 -4 104.542 14.5355 5
12 1 -4 119.095 18.8045 6
13 -1 4 112.317 17.1232 6
12 -13 4 87.3909 15.0417 4
13 -12 -4 107.967 16.9292 4
12 -13 4 83.3425 13.4384 5
13 -12 4 106.847 16.3948 4
-1 -12 -4 100.967 15.3428 5
12 -13 -4 88.6667 15.6639 4
13 -1 -4 145.472 19.3479 6
12 1 4 109.642 16.2768 6
13 -12 4 84.6827 13.0965 5
13 -13 4 10.3162 9.84242 5
13 -13 -4 6.16653 11.8775 4
0 -13 -4 9.75455 9.92953 5
13 -13 4 13.4393 11.6522 4
-13 0 -4 2.82437 5.6139 9
13 0 4 18.3723 12.7826 6
13 0 -4 15.1734 13.8182 6
14 -7 -4 9.41173 10.5913 6
-7 -7 -4 2.16459 7.26892 5
7 -14 -4 -1.8263 9.86878 5
7 7 4 5.1334 11.7877 6
7 -14 4 6.37412 9.73211 5
14 -7 4 1.67552 10.6739 4
7 7 -4 9.01992 15.4885 6
14 -7 -4 0.97888 12.568 4
8 6 -4 109.664 20.1584 6
14 -8 -4 125.158 18.5776 4
14 -6 4 89.4537 15.6178 4
6 8 4 111.496 17.3246 6
6 -14 -4 138.466 16.6591 5
14 -8 -4 119.283 17.1272 6
-6 -8 -4 72.2169 12.0306 5
14 -6 -4 108.102 15.7406 6
14 -8 4 77.6809 14.2955 4
8 -14 -4 77.0127 13.8658 5
8 6 4 117.339 17.7285 6
14 -6 -4 126.891 18.4144 4
9 -14 4 102.102 13.9955 5
14 -5 4 99.1168 16.7138 4
9 5 -4 124.193 20.9204 6
5 -14 -4 115.707 15.6705 5
14 -9 -4 88.5018 16.2329 4
5 9 4 96.5364 17.3834 6
9 -14 -4 137.28 18.5072 5
14 -9 4 154.186 21.2557 4
9 -14 -4 129.208 18.4357 4
5 -14 4 139.298 17.8545 5
14 -5 -4 143.987 21.5317 4
-5 -9 -4 144.176 16.727 5
9 5 4 138.365 20.6028 6
14 -5 -4 146.386 19.6236 6
14 -10 -4 111.416 17.7553 4
10 4 -4 131.073 20.3283 6
14 -4 4 94.5412 16.8109 4
10 -14 4 125.713 15.1958 5
14 -4 4 100.327 15.5625 6
4 -14 -4 161.01 17.4012 5
4 10 4 107.706 17.5059 6
4 -14 4 98.2746 14.1929 5
14 -10 4 112.555 16.3023 5
-4 -10 -4 131.385 16.3201 5
14 -10 4 125.565 20.0857 4
10 -14 -4 119.106 18.1259 4
10 4 4 117.348 19.1307 6
14 -4 -4 127.306 19.7839 6
10 -14 -4 83.6685 14.6749 5
14 -3 4 145.51 20.7628 6
11 -14 4 143.032 18.2152 5
14 -3 4 151.337 21.3944 4
11 3 -4 174.725 24.7062 6
14 -11 -4 184.355 22.9436 4
3 -14 -4 177.483 19.305 5
-3 -11 -4 160.851 18.1557 5
11 3 4 152.061 21.8932 6
3 -14 4 162.42 19.2573 5
14 -11 4 160.484 18.8571 5
11 -14 -4 163.095 20.4741 4
14 -3 -4 188.284 22.1965 6
14 -11 4 167.318 22.2262 4
2 -14 -4 -6.7774 5.49329 8
14 -2 4 6.56454 10.9234 4
14 -12 -4 0.66207 12.5863 4
14 -2 4 7.16403 12.2615 6
12 2 -4 9.89909 14.2494 6
12 -14 4 6.24185 10.1007 4
-14 2 4 5.01571 6.80205 10
14 -12 -4 -2.1462 6.44522 7
2 -14 -4 10.0678 9.5603 5
12 -14 4 13.1648 9.06717 5
-12 -2 -4 1.95587 5.81379 9
-2 14 -4 1.83959 4.52902 10
14 -12 4 21.2152 13.2995 4
-2 -12 -4 8.50631 9.55584 5
14 -12 4 7.06083 9.5438 5
14 -2 -4 8.04377 13.1445 6
2 -14 4 13.2262 9.74359 5
12 -14 -4 6.63537 11.5587 4
12 2 4 6.9219 12.586 6
2 12 -4 -4.5421 7.9305 11
-2 14 4 4.03009 6.09015 11
-14 2 -4 0.70975 6.19739 9
-1 14 -4 33.829 6.80115 10
-13 -1 -4 41.9212 8.63886 9
13 1 -4 85.0437 17.1936 6
13 -14 4 53.186 11.4972 5
1 -14 -4 49.2835 11.6168 5
14 -1 4 62.9502 14.6356 6
1 -14 -4 43.3875 7.60287 8
-14 1 4 42.0386 8.0303 10
14 -13 -4 80.4762 15.9765 4
14 -13 -4 45.0127 8.83394 7
13 -14 4 57.3918 13.1343 4
13 -14 -4 60.2145 14.5606 4
14 -13 4 59.7438 12.6116 5
13 1 4 49.8491 14.0269 6
-14 1 -4 36.1888 8.98389 9
-1 -13 -4 47.0827 11.4002 5
14 -13 4 48.0129 13.6923 4
-1 14 4 39.4428 8.52898 11
14 -1 -4 49.9523 14.9431 6
0 -14 -4 15.9266 6.93031 8
14 -14 -4 27.9119 13.6816 4
0 14 -4 -2.0978 6.67102 11
0 -14 -4 30.334 10.8008 5
-14 14 4 1.10553 5.17815 10
0 14 -4 22.2982 7.17979 10
-14 14 -4 -0.7982 6.81227 10
-14 0 -4 12.9863 8.08916 9
0 14 4 23.7283 7.98281 11
14 0 4 21.4805 13.7965 6
14 0 -4 21.7163 14.8966 6
-14 0 4 20.9553 7.61873 10
14 -14 -4 12.3728 7.72631 7
14 -14 4 16.3959 10.6812 5
14 -14 4 20.2021 12.356 4
15 -8 -4 20.3475 11.0901 6
8 -15 4 26.6132 10.504 5
7 8 4 34.8812 14.3022 6
15 -8 -4 27.2508 13.6176 4
8 7 -4 39.117 18.073 6
7 -15 -4 40.253 11.9169 5
15 -7 4 31.2342 13.0283 4
-15 7 4 9.63002 7.50142 10
15 -8 4 12.9946 11.2621 4
-7 -8 -4 1.41476 7.30498 5
7 -15 4 5.0139 10.0792 5
15 -7 -4 0.26776 12.811 4
7 8 -4 -1.6229 6.92792 11
8 -15 -4 9.76106 11.3426 5
-8 15 -4 -0.5388 5.11883 10
-15 8 4 -3.2379 7.07727 10
15 -7 -4 -2.5177 10.9144 6
8 7 4 14.4177 13.1357 6
15 -8 4 5.84431 6.25139 7
9 -15 4 22.046 10.4543 5
6 -15 -4 -4.8777 5.46906 8
-6 15 -4 4.94828 5.11966 10
6 -15 -4 18.6149 11.1713 5
15 -9 -4 18.3608 12.8886 4
9 6 -4 17.4385 16.8439 6
6 9 4 18.3567 12.9799 6
-15 6 4 12.0527 8.01877 10
15 -6 4 15.3737 12.8107 4
6 9 -4 1.68044 6.3342 11
9 6 4 27.0166 12.1175 6
-6 15 4 2.98153 7.33937 11
-6 -9 -4 14.5326 8.73347 5
9 -15 -4 15.2716 11.3016 5
15 -6 -4 17.5611 13.3991 4
15 -9 4 11.0785 6.01163 7
6 -15 4 18.3698 10.4587 5
15 -6 -4 6.31002 11.1898 6
-9 15 -4 2.7765 5.39488 10
9 -15 -4 1.40793 8.24643 4
-15 9 4 3.18602 7.20355 10
15 -9 4 23.8136 12.8362 4
-5 15 -4 26.1009 6.11414 10
10 5 -4 47.0381 17.7349 6
5 -15 -4 14.3677 7.04192 8
5 -15 -4 56.0514 12.7758 5
-15 5 4 39.0923 8.99945 10
10 -15 4 59.3783 11.859 5
15 -10 -4 66.0651 14.7524 4
5 10 4 41.8056 13.8139 6
15 -5 4 48.5903 14.6996 4
-5 -10 -4 62.3259 12.0363 5
10 -15 -4 59.616 12.9503 5
15 -10 4 59.6488 14.2697 4
5 -15 4 80.9569 13.2324 5
15 -10 4 57.4626 8.89197 7
10 -15 -4 49.5574 12.6295 4
15 -5 -4 92.5483 15.7799 6
5 10 -4 46.3737 8.9295 11
10 5 4 78.3727 15.2932 6
11 -15 4 48.5928 11.3732 5
4 11 4 2.22651 15.5285 6
4 -15 -4 43.2985 12.5499 5
11 4 -4 48.3935 16.9931 6
-4 15 -4 21.673 6.29129 10
15 -11 -4 23.002 7.90945 7
15 -11 -4 55.0454 14.6347 4
15 -4 4 40.0736 12.2696 6
4 -15 -4 40.9447 8.52451 8
-15 4 4 46.047 9.17808 10
-11 -4 -4 21.9433 6.80864 9
15 -4 4 41.9412 13.5584 4
-4 -11 -4 28.9493 10.6263 5
11 -15 -4 23.3506 10.8483 5
4 11 -4 26.0657 8.07647 11
11 -15 -4 25.211 12.249 4
15 -4 -4 26.0014 13.353 6
15 -11 4 29.3364 13.0648 4
-15 11 4 14.8765 7.4961 10
15 -11 4 33.7956 8.05083 7
-11 15 -4 24.3735 7.66187 10
-15 4 -4 23.1981 7.68812 9
15 -11 4 14.3596 9.16846 5
4 -15 4 19.2824 11.0098 5
11 4 4 39.3725 14.2764 6
-4 15 4 24.1942 7.48724 11
-15 3 4 33.8805 9.1917 10
3 -15 -4 17.388 7.94773 8
12 -15 4 29.5844 10.8462 5
3 -15 -4 29.5944 11.5199 5
-12 -3 -4 22.3181 7.65644 9
15 -3 4 25.0358 12.3696 6
12 3 -4 38.0097 15.7139 6
15 -3 4 17.2558 12.1493 4
15 -12 -4 21.0597 8.8135 7
-3 15 -4 33.9185 7.45623 10
15 -12 -4 40.7647 14.6917 4
-3 -12 -4 10.5899 10.3843 5
15 -12 4 26.5759 7.79323 7
-12 15 -4 10.2317 7.61995 10
-15 12 4 14.4147 7.9479 10
12 3 4 18.2934 13.1379 6
12 -15 -4 9.63626 11.9655 4
3 12 -4 -1.777 5.00541 10
15 -3 -4 17.0941 12.5848 6
3 -15 4 8.82896 10.0909 5
15 -12 4 10.1859 13.3376 4
15 -12 4 15.728 10.2192 5
-15 3 -4 27.9973 9.25314 9
-3 15 4 17.4233 8.60129 11
3 12 -4 20.3229 8.04948 11
15 -2 4 51.3803 14.1921 6
2 -15 -4 43.3659 8.89895 8
13 -15 4 45.9711 11.5497 5
-15 2 4 48.0216 9.99473 10
-2 15 -4 33.5458 7.6515 10
13 2 -4 49.6363 15.4362 6
-13 -2 -4 50.2042 9.21198 9
15 -13 -4 54.3393 9.78461 7
2 13 4 36.3096 7.73404 11
15 -13 -4 58.1835 15.0549 4
2 -15 -4 50.0847 11.6723 5
15 -13 4 50.4927 12.0824 5
13 2 4 81.0897 16.5665 6
-2 -13 -4 54.1993 11.5963 5
-13 15 -4 40.9655 9.62694 10
15 -13 4 47.2294 13.5552 4
2 13 -4 40.6442 7.90787 10
15 -2 -4 46.0323 14.388 6
-2 15 4 53.2416 9.65224 11
15 -13 4 49.7554 9.05331 7
-15 2 -4 43.3792 9.56613 9
-15 13 4 26.9453 8.39393 10
2 13 -4 50.9091 9.98647 11
13 -15 -4 61.2715 14.7715 4
-14 -1 -4 14.7278 8.7798 9
1 -15 -4 10.2766 10.4537 5
-1 15 -4 11.3468 7.38656 10
-1 15 -4 0.16957 7.43924 11
-14 15 4 3.26516 5.03893 10
14 1 -4 19.7514 14.6241 6
-15 14 -4 6.63166 7.53258 10
14 -15 4 20.9033 11.2715 5
15 -14 -4 11.2751 8.29169 7
-15 1 4 1.25928 8.50378 10
15 -1 4 13.7667 12.6267 6
14 -15 4 15.3757 11.4178 4
1 -15 -4 10.6387 7.18181 8
1 14 4 7.92538 7.80397 11
15 -14 -4 15.4986 12.817 4
14 1 4 16.7393 13.9012 6
-15 1 -4 7.63777 8.41711 9
1 14 -4 11.512 7.35363 10
-15 14 4 2.30179 7.70332 10
14 -15 -4 14.2092 12.5487 4
-1 15 4 9.05131 8.13193 11
1 14 -4 16.7574 8.85927 11
15 -14 4 22.108 12.6615 4
-1 -14 -4 0.77977 6.43376 8
-1 -14 -4 7.08908 9.64404 5
-14 15 -4 7.87282 9.76529 10
-14 -1 4 15.1183 8.32135 10
15 -14 4 4.81203 6.64203 7
15 -1 -4 20.2982 14.5792 6
15 -14 4 11.1127 10.4684 5
14 -15 -4 8.31452 7.5721 7
15 -15 -4 23.3821 13.5028 4
0 -15 -4 7.68919 7.28877 8
15 -15 -4 0.78125 7.61217 7
0 15 -4 13.3021 9.05608 11
0 15 -4 6.7099 7.28082 10
-15 15 -4 6.61308 9.86224 10
15 0 4 1.98846 13.266 6
15 0 -4 11.1629 14.56 6
-15 0 -4 8.93112 8.37703 9
15 -15 4 -0.3941 5.15739 7
15 -15 4 9.16216 11.8229 4
0 15 4 6.8742 7.85041 11
-15 0 4 7.17562 8.87656 10
15 -15 4 11.1781 11.0773 5
-15 15 4 6.56137 7.47315 10
0 -15 -4 -1.9782 9.32821 5
-16 8 4 3.73437 10.2599 10
-8 -8 4 0.97894 6.26094 9
-8 16 -4 0.33305 7.03835 9
16 -8 4 16.5864 12.1289 4
8 8 -4 4.90193 7.71077 11
8 -16 -4 -1.9982 6.57417 8
16 -8 -4 11.486 13.4356 4
8 -16 4 7.90237 10.5716 5
-8 16 -4 2.80578 6.9674 10
-16 8 -4 -1.1783 5.22316 9
-8 16 4 4.70959 5.37435 11
8 -16 -4 17.355 11.8373 5
16 -8 4 14.2343 7.17292 7
8 8 4 6.91615 12.396 6
8 -16 4 5.81415 6.81629 8
16 -8 -4 6.33364 10.2162 6
9 7 -4 87.2604 12.4444 11
9 -16 4 131.879 17.4692 5
16 -7 4 151.57 19.3112 4
7 -16 -4 99.2175 15.2236 5
-7 16 -4 89.9027 12.0427 10
7 9 4 101.597 17.2559 6
-16 7 4 106.78 14.7058 10
-7 -9 4 108.222 13.794 9
9 7 -4 147.218 23.0278 6
7 -16 -4 94.4545 12.9992 8
16 -9 -4 135.424 20.3415 4
9 -16 4 105.774 12.3175 8
7 -16 4 93.2623 11.7364 8
9 -16 -4 124.966 18.4412 5
16 -7 -4 92.0044 16.5373 4
-7 16 4 74.4869 11.3138 11
16 -7 -4 115.838 18.5917 6
16 -9 4 122.885 19.2857 4
7 9 -4 113.818 13.5567 11
-16 7 -4 87.8744 11.8999 9
7 -16 4 92.2926 13.8702 5
16 -9 4 107.574 13.4668 7
9 7 4 128.375 20.4873 6
-9 16 -4 105.404 12.747 10
-16 9 4 115.895 15.5666 10
-10 -6 -4 30.822 7.96852 9
6 -16 -4 37.6938 12.5223 5
16 -10 -4 51.0866 14.9299 4
-6 16 -4 36.7535 8.08165 10
-6 -10 4 32.5176 9.6461 9
-16 6 4 39.3889 10.463 10
6 -16 -4 24.6439 8.60189 8
10 6 -4 37.7964 18.3844 6
16 -10 -4 24.0327 7.99943 7
10 -16 4 43.1463 11.4145 5
6 10 4 23.3478 12.9196 6
16 -6 4 39.3503 14.2176 4
-16 10 4 23.4491 10.5401 10
6 10 -4 28.9577 8.94208 11
-6 16 4 28.2471 8.30974 11
-16 6 -4 22.2654 8.0757 9
-10 16 -4 25.1893 8.37136 10
16 -6 -4 36.941 13.4059 6
10 6 4 18.9843 12.8892 6
16 -10 4 24.0622 8.30375 7
16 -10 4 40.0723 15.2883 4
16 -6 -4 4.09835 12.0121 4
-6 -10 -4 1.10239 8.63908 5
6 -16 4 28.8705 6.86557 8
6 -16 4 39.1673 11.7044 5
10 -16 -4 19.8761 11.5433 5
-16 5 4 133.456 15.4141 10
-5 16 -4 130.491 13.2427 10
11 -16 4 145.475 18.6186 5
-11 -5 -4 111.614 14.6147 9
16 -5 4 137.083 21.5154 4
16 -11 -4 136.257 15.4859 7
16 -11 -4 164.484 21.698 4
-5 -11 4 143.726 16.4612 9
5 -16 -4 189.455 20.2364 5
5 -16 -4 153.208 15.7852 8
-16 11 4 152.454 16.9959 10
-5 16 4 129.598 15.9266 11
5 -16 4 149.942 19.5411 5
-16 5 -4 162.672 16.708 9
11 -16 -4 147.379 19.6292 5
16 -11 4 159.382 16.1931 7
11 5 4 134.015 22.0075 6
16 -11 4 178.568 22.4314 4
-11 16 -4 124.266 15.4377 10
5 11 -4 141.551 16.9223 11
16 -5 -4 187.72 22.3765 6
-12 -4 -4 114.872 13.997 9
4 -16 -4 125.269 14.5226 8
16 -12 -4 142.239 21.3129 4
12 4 -4 177.146 26.5316 6
16 -4 4 103.338 16.9226 4
16 -4 4 125.263 18.2202 6
-16 4 4 105.9 14.0615 10
4 -16 -4 137.43 19.3146 5
16 -12 -4 116.528 14.743 7
-4 -12 4 132.183 14.7567 9
-4 16 -4 103.308 12.5908 10
12 -16 4 150.392 17.5967 5
12 4 4 112.221 17.9286 6
4 -16 4 126.892 18.2712 5
4 12 -4 108.478 14.438 11
16 -12 4 125.533 20.2098 4
-16 12 4 120.979 15.5307 10
-4 -12 -4 115.061 17.011 5
16 -12 4 120.36 15.3005 7
-4 16 4 94.5935 13.8675 11
4 12 -4 89.307 11.5861 10
-16 4 -4 123.062 14.9795 9
12 -16 -4 114.625 18.6514 4
16 -4 -4 132.689 21.0071 6
-12 16 -4 137.04 14.1219 10
-3 16 -4 22.0192 7.46361 10
3 -16 -4 18.0994 11.5963 5
3 -16 -4 19.6435 8.17451 8
3 13 4 12.6093 7.34623 11
13 -16 4 15.5 10.3587 5
-16 13 -4 -0.1442 7.15773 9
16 -13 -4 44.4164 14.6393 4
16 -3 4 15.594 12.2651 6
-16 3 4 23.1724 8.95611 10
16 -13 -4 20.3574 8.56998 7
-13 -3 -4 14.8547 7.77094 9
13 3 -4 29.5 15.6724 6
-3 16 4 32.3682 9.20955 11
3 13 -4 31.613 9.11046 11
-16 3 -4 34.0687 9.42482 9
-3 -13 -4 26.5888 10.9851 5
13 3 4 29.3445 14.3125 6
3 -16 4 23.3853 9.98422 5
-13 16 -4 32.8039 10.0759 10
-16 13 4 41.1392 10.3658 10
13 -16 -4 30.3681 13.1146 4
3 13 -4 29.4889 7.78865 10
16 -3 -4 34.6131 14.4496 6
16 -13 4 28.4931 8.50402 7
16 -13 4 27.2998 13.6402 4
-14 -2 -4 100.686 11.7075 9
2 14 4 90.1272 10.4617 11
16 -14 -4 70.0768 10.6223 7
14 -16 4 73.5556 13.2285 5
14 2 -4 54.1094 16.0985 6
-16 14 -4 53.2281 10.6712 10
2 -16 -4 78.8945 10.078 8
-16 2 4 74.2471 11.5166 10
16 -14 -4 85.1639 16.2994 4
2 -16 -4 84.8268 14.4348 5
-2 16 -4 85.4125 10.461 10
16 -2 4 64.1439 15.1502 6
2 14 -4 60.4303 10.3779 11
14 2 4 65.3976 16.3495 6
-16 2 -4 54.3372 9.99003 9
16 -14 4 60.5523 9.50573 7
-2 16 4 86.1029 10.7974 11
14 -16 -4 42.8166 8.67206 7
-14 -2 4 31.5398 9.52414 10
16 -2 -4 75.6696 16.7105 6
-2 -14 -4 38.053 7.76378 8
16 -14 4 77.3184 15.4521 4
14 -16 -4 69.6854 14.7157 4
2 14 -4 75.5695 9.62986 10
-16 14 4 44.1683 9.49513 10
-2 -14 -4 63.7184 12.8118 5
-14 16 -4 47.5189 10.9753 10
-15 -1 -4 -0.3547 7.74077 9
-15 16 4 0.06623 7.10194 10
-1 16 -4 -9.9437 8.73173 11
1 -16 -4 5.05413 9.71649 5
-1 16 -4 3.47709 7.0918 10
1 -16 -4 7.00228 7.37903 8
-16 1 4 7.00665 8.52467 10
16 -1 4 4.92632 12.3837 6
-16 15 -4 -3.9387 10.2626 10
15 -16 4 -2.7356 7.29809 7
1 15 4 3.01589 7.53832 11
16 -15 -4 0.31127 12.4915 4
15 1 -4 2.14097 14.5652 6
16 -15 -4 4.37483 7.66089 7
15 -16 4 7.62564 10.5688 5
-16 15 -4 -0.2454 5.19708 9
-15 16 -4 3.63878 9.96229 10
15 -16 -4 -3.8366 12.2627 4
16 -15 4 -1.1374 13.855 5
-1 -15 -4 3.84605 9.77726 5
16 -1 -4 36.0202 15.623 6
1 15 -4 3.79312 7.35665 10
15 -16 -4 6.24471 7.50199 7
16 -15 4 7.90287 7.18768 7
16 -15 4 11.3339 12.1646 4
-15 -1 4 4.78133 8.85931 10
-16 15 4 5.84262 7.77258 10
1 15 -4 1.61842 8.32138 11
-16 1 -4 6.72169 8.3617 9
-1 16 4 4.88683 7.84124 11
-1 -15 -4 1.60134 6.59567 8
15 1 4 10.0284 13.6573 6
-15 16 -4 0.62844 5.80597 9
-16 16 4 7.52498 7.6049 10
-16 16 -4 0.40187 5.26387 9
16 0 4 15.9177 13.0649 6
16 -16 -4 10.3776 7.36697 7
-16 0 -4 2.6437 8.04981 9
0 16 4 1.82667 7.28549 11
0 -16 -4 8.67121 9.15811 5
16 -16 4 0.19168 13.0766 5
0 16 -4 16.1969 8.55761 11
0 16 -4 2.93753 7.26812 10
16 -16 4 7.22574 6.81999 7
16 -16 4 -3.7834 9.79675 4
-16 16 -4 5.53546 10.3409 10
16 -16 -4 18.0149 12.7272 4
16 0 -4 14.7935 15.3731 6
-16 0 4 4.36396 8.87363 10
0 -16 -4 3.28194 6.58874 8
17 -9 -4 21.4616 12.9533 4
8 -17 -4 25.7168 12.1786 5
-9 -8 -4 17.0082 8.02931 9
-17 9 -4 5.10599 6.83804 9
17 -8 4 24.8724 13.5487 4
-9 17 4 13.4678 6.68587 11
-17 8 4 32.9651 10.5582 10
8 -17 -4 15.2953 7.94136 8
-8 17 -4 12.8275 7.95338 10
17 -9 -4 13.2577 7.33405 7
8 9 4 18.9307 13.9086 6
-8 -9 4 17.934 9.37658 9
17 -8 4 16.0143 8.00742 7
9 8 -4 11.8983 7.98677 11
9 -17 4 16.04 7.07431 8
9 -17 4 12.5353 10.4493 5
17 -9 4 19.0714 8.19035 7
17 -8 -4 1.35739 11.3206 6
-9 -8 4 29.0335 9.52243 9
8 9 -4 16.8147 8.26154 11
9 -17 -4 10.1026 7.84833 8
9 -17 -4 12.7996 11.6262 5
-8 17 4 12.2432 7.42758 11
-9 17 -4 21.4189 8.6484 10
8 -17 4 14.0013 11.0289 5
9 8 4 24.768 13.6652 6
17 -9 4 27.3672 13.2248 4
17 -8 -4 25.5289 13.6189 4
-8 -9 -4 17.1367 6.94385 9
8 -17 4 16.2388 7.14712 8
-17 9 4 32.4113 11.0331 10
17 -8 -4 -7.158 7.14199 7
-17 8 -4 6.30414 7.56006 9
17 -10 -4 0.86097 7.75009 7
-7 -10 4 4.80933 9.09112 9
10 7 -4 2.83974 6.87877 11
-17 10 -4 7.78716 6.37737 9
10 7 -4 -1.0412 15.229 6
-7 17 -4 3.2618 7.06148 10
17 -7 4 12.6338 7.53163 7
10 -17 4 18.1346 11.4174 5
7 -17 -4 3.95081 10.8782 5
10 -17 4 5.75932 6.78037 8
-10 -7 -4 5.58508 8.00624 9
-17 7 4 8.77281 9.3092 10
-10 17 4 3.62976 5.75911 11
7 -17 -4 -1.4378 7.29929 8
7 10 4 -3.1475 12.3775 6
17 -7 4 8.03266 13.4717 4
17 -10 -4 11.2128 12.4333 4
7 -17 4 9.70247 10.9728 5
10 -17 -4 6.60714 6.69655 8
-10 -7 4 14.899 8.1241 9
17 -10 4 4.15337 12.6516 4
7 10 -4 8.70184 8.6387 11
17 -7 -4 -3.7989 12.1507 4
17 -10 4 13.5966 8.23562 7
10 7 4 15.3351 13.2091 6
-7 17 4 4.25677 7.99618 11
-17 7 -4 13.4245 8.57483 9
-17 10 4 14.926 10.963 10
-7 -10 -4 -1.4078 5.66381 9
-10 17 -4 4.51177 6.56069 9
10 -17 -4 13.252 11.3023 5
7 -17 4 15.1501 6.94142 8
-10 17 -4 13.372 8.52399 10
17 -7 -4 19.8584 11.8034 6
6 -17 -4 15.0275 11.0814 5
11 -17 4 6.1949 6.42405 8
-6 17 -4 12.3447 7.08488 10
-11 -6 -4 17.4888 7.97653 9
6 -17 -4 11.1003 7.91767 8
-6 -11 4 6.84739 9.12933 9
17 -11 -4 13.3586 7.87317 7
11 6 -4 11.5522 16.6254 6
-17 6 4 31.4736 10.107 10
11 -17 4 14.7112 10.6444 5
17 -11 -4 27.3748 13.128 4
-17 11 -4 12.7721 6.14031 9
17 -6 4 6.37452 6.55265 7
17 -6 4 25.1444 13.8665 4
11 6 -4 14.5159 6.68796 11
-6 17 4 42.9232 9.02225 11
6 -17 4 49.1472 8.22301 8
6 -17 4 61.6385 13.1686 5
-11 17 -4 34.2432 9.13282 10
11 6 4 54.7808 15.1006 6
11 -17 -4 51.718 12.9342 5
17 -11 4 49.7793 9.68236 7
17 -6 -4 40.693 14.02 6
17 -11 4 67.1471 15.6425 4
6 11 -4 57.3665 10.0149 11
-17 11 4 69.9113 12.283 10
-17 6 -4 50.7454 9.75523 9
-17 5 4 16.7362 9.09097 10
-5 17 -4 14.6447 7.50716 10
17 -12 -4 10.7731 8.14671 7
5 -17 -4 15.3915 8.21305 8
17 -5 4 9.4062 12.04 4
12 -17 4 18.1594 10.8772 5
-12 -5 -4 12.5961 7.64064 9
-5 -12 4 20.5483 9.01588 9
12 -17 4 14.8228 6.40752 8
-17 12 -4 2.33166 5.12825 9
5 -17 -4 18.0737 11.1613 5
12 5 -4 23.8249 16.3379 6
17 -12 -4 25.737 12.6022 4
12 5 -4 12.1909 5.76536 11
5 12 4 -1.5274 5.09131 11
12 5 4 20.9025 13.4479 6
-17 5 -4 29.8046 8.91114 9
5 -17 4 26.4947 11.713 5
17 -12 4 42.5216 14.614 4
17 -12 4 31.9745 9.02238 7
-5 17 4 33.4674 8.77502 11
-12 17 -4 15.4541 9.17998 10
5 12 -4 40.4729 9.67653 11
5 -17 4 27.1396 7.16135 8
17 -5 -4 19.5619 12.9411 6
-17 12 4 30.5004 10.737 10
-4 17 -4 14.1609 7.43478 10
4 13 4 26.6529 7.84651 11
13 -17 4 25.7489 7.35357 8
17 -13 -4 38.6869 8.98007 7
4 -17 -4 43.1613 12.6487 5
13 -17 4 21.5304 10.6749 5
17 -13 -4 22.9253 13.4549 4
-4 -13 4 36.4039 9.52742 9
-13 -4 -4 35.2933 8.60319 9
13 4 -4 37.702 16.1385 6
-17 4 4 15.7107 9.11099 10
4 -17 -4 29.4991 8.31273 8
-4 17 4 12.2541 7.99322 11
17 -13 4 7.53785 8.10888 7
4 13 -4 13.017 6.83209 10
4 -17 4 0.40795 5.72238 8
-13 17 -4 -0.059 5.13795 9
-13 17 -4 12.6124 9.66003 10
13 4 4 22.8466 14.08 6
4 13 -4 18.0052 8.43404 11
-17 4 -4 15.0674 8.73934 9
17 -13 4 33.2217 14.409 4
17 -4 -4 27.4956 14.1824 6
4 -17 4 5.24831 9.51615 5
-17 13 4 33.6296 10.6366 10
3 14 4 8.41165 7.85205 11
-17 14 -4 5.7336 8.99441 10
17 -3 4 4.49063 10.0546 6
3 -17 -4 21.3344 7.65864 8
-17 14 -4 1.97877 5.00429 9
14 -17 4 23.9473 6.74199 8
-3 17 -4 -2.0775 7.26263 11
3 -17 -4 12.6288 10.4947 5
17 -14 -4 20.1791 13.4189 4
17 -14 -4 10.5665 7.837 7
-14 17 4 4.78852 6.2821 10
-3 -14 4 12.0513 8.35035 9
14 -17 4 17.9933 11.0329 5
14 3 -4 26.52 15.436 6
-14 -3 -4 13.0803 7.96683 9
-3 17 -4 15.7075 7.80125 10
-17 3 4 12.0555 8.75852 10
-17 3 -4 10.7197 8.11026 9
17 -3 -4 24.9393 14.4833 6
-3 17 4 11.2031 8.07847 11
-3 -14 -4 2.68437 5.21891 8
3 14 -4 12.4151 7.06471 10
17 -14 4 16.3241 7.98526 7
-14 17 -4 9.42919 9.95982 10
3 14 -4 15.0985 8.30223 11
-17 14 4 21.0502 9.23835 10
-14 17 -4 -0.4497 5.19578 9
14 -17 -4 2.67908 9.97363 4
14 -17 -4 4.22635 6.41637 7
17 -14 4 15.9763 12.2528 4
-3 -14 -4 1.8833 13.5534 5
14 3 4 12.074 14.3217 6
-14 -3 4 13.9975 9.08361 10
-17 15 -4 23.786 10.7016 10
2 -17 -4 19.5544 10.2469 5
-2 17 -4 8.12881 7.5825 10
2 -17 -4 17.9047 7.45175 8
15 -17 4 7.64295 10.2914 5
17 -2 4 11.1678 11.3226 6
15 2 -4 27.047 14.7384 6
2 15 4 22.7496 8.09524 11
17 -15 -4 25.4304 13.7069 4
17 -15 -4 15.4541 7.53313 7
15 -17 4 27.5823 7.01061 8
-2 17 -4 18.2148 9.04333 11
-2 -15 4 35.632 8.93817 9
-15 -2 -4 24.4937 8.40509 9
-17 2 4 14.4923 8.46692 10
-15 17 4 14.6357 7.57683 10
2 15 -4 16.0268 7.5941 10
-17 15 4 9.78237 7.97005 10
2 15 -4 14.5489 8.50338 11
17 -15 4 14.678 7.45973 7
15 -17 -4 8.43136 6.94973 7
15 2 4 4.66464 13.2075 6
17 -2 -4 15.4359 14.3942 6
-2 -15 -4 0.22724 8.15717 5
-15 -2 4 10.3928 8.89993 10
-17 2 -4 15.8855 8.44283 9
15 -17 -4 11.2354 10.9523 4
-2 -15 -4 7.48325 6.60458 8
-15 17 -4 1.05615 5.26706 9
-15 17 -4 14.9358 9.6159 10
-2 17 4 23.2412 8.36947 11
17 -15 4 18.986 12.4854 4
-1 17 -4 8.6089 7.49041 10
-17 1 4 7.3669 8.288 10
16 -17 4 7.44567 6.46445 8
-16 -1 -4 -3.1275 8.02059 9
-1 17 -4 5.24163 8.5053 11
-17 16 -4 0.07416 4.64323 9
17 -16 -4 6.55075 7.00463 7
17 -1 4 2.36791 11.3524 6
1 -17 -4 -2.7469 6.42439 8
16 -17 4 -0.7175 4.61041 7
-17 16 -4 2.24399 10.2631 10
16 1 -4 17.6748 14.7926 6
-16 17 4 0.86411 7.37019 10
-1 -16 4 5.98139 7.39411 9
1 16 4 2.59287 7.60321 11
17 -16 -4 17.7972 12.7576 4
1 -17 -4 -1.219 8.93867 5
16 1 4 15.4941 13.0418 6
1 16 -4 8.26199 8.18814 11
-16 17 -4 1.18439 4.7289 9
17 -1 -4 8.70624 14.0828 6
16 -17 -4 9.34837 10.321 4
17 -16 4 12.093 7.10004 7
-17 1 -4 2.99709 7.75096 9
17 -16 4 -4.5151 11.4041 4
-16 17 -4 6.40081 9.79728 10
-1 17 4 3.43093 7.54583 11
16 -17 -4 -0.7788 6.68211 7
-16 -1 4 5.8397 8.85645 10
-1 -16 -4 8.37393 6.45643 8
-17 16 4 5.23337 7.57742 10
-1 -16 -4 0.01362 13.1169 5
1 16 -4 1.80289 7.08145 10
0 -17 -4 -2.595 6.0781 8
0 17 4 -0.5331 7.51879 11
0 17 -4 -0.0255 7.06539 10
17 0 -4 13.6394 13.9595 6
-17 17 -4 10.4345 10.1621 10
17 -17 4 3.45753 6.51295 7
17 -17 4 10.1069 6.21947 8
0 17 -4 3.02719 8.03239 11
-17 17 -4 0.96735 6.7283 9
17 -17 -4 -2.0492 6.65354 7
17 -17 -4 2.15 10.1218 4
-17 0 -4 -2.26 7.65473 9
-17 17 4 -5.4177 7.33644 10
17 0 4 0.11331 10.657 6
-17 0 4 1.15854 8.64102 10
0 -17 4 -3.7997 7.06964 9
18 -9 -4 36.9081 8.66194 7
18 -9 -4 39.2135 13.3606 4
9 -18 4 37.4331 12.3583 5
18 -9 4 46.8294 14.4002 4
9 -18 -4 36.067 12.1902 5
-9 18 -4 34.7272 8.80072 10
9 9 -4 34.167 8.82522 11
-9 -9 -4 32.3186 8.55471 9
9 9 4 37.0325 14.6358 6
18 -9 4 33.9835 8.52899 7
9 -18 4 36.0132 7.51901 8
-9 -9 4 28.2321 9.4087 9
-9 18 4 32.1147 8.7102 11
-18 9 4 50.8071 11.5665 10
9 -18 -4 33.7284 8.3319 8
-18 9 -4 32.5686 8.62987 9
18 -10 -4 56.2332 9.86351 7
18 -10 -4 84.4437 16.116 4
18 -8 4 68.1151 15.3159 4
18 -8 4 72.1142 10.1962 7
-10 18 4 62.2734 10.0087 11
-10 -8 -4 43.0918 9.54039 9
-8 -10 4 70.1148 10.906 9
8 -18 -4 47.7346 13.0205 5
8 -18 -4 69.0373 9.71982 8
10 -18 4 100.384 9.86039 8
-18 10 -4 74.2485 10.1192 9
10 -18 4 67.1021 13.3096 5
-18 8 4 76.9355 11.9742 10
10 8 -4 71.1747 9.7665 11
-8 18 -4 99.6705 10.5722 10
-18 10 4 90.9419 12.7628 10
10 8 4 62.0096 15.8639 6
18 -10 4 54.8571 14.1335 4
-8 18 4 80.0218 10.3933 11
10 -18 -4 49.1895 13.0886 5
-10 -8 4 76.0522 11.221 9
8 10 -4 62.6129 9.8837 11
8 -18 4 56.9136 12.6154 5
18 -10 4 56.491 9.7102 7
-18 8 -4 49.6923 9.45886 9
8 -18 4 73.0023 9.22237 8
10 -18 -4 50.8923 9.1246 8
-8 -10 -4 54.9973 9.70178 9
-10 18 -4 88.728 10.7995 10
18 -7 4 24.7991 13.0358 4
11 -18 4 19.3118 7.26024 8
18 -11 -4 25.3584 8.12528 7
18 -11 -4 25.7821 12.9897 4
11 7 -4 22.7232 7.28372 11
-11 -7 -4 28.2041 8.52174 9
-11 18 4 8.5926 6.59498 11
-18 11 -4 9.3028 7.51309 9
-7 18 -4 19.831 7.44277 10
18 -7 4 21.6786 8.07103 7
-18 7 4 29.468 9.49044 10
-7 -11 4 25.404 9.3844 9
7 -18 -4 10.2833 7.69709 8
7 -18 -4 20.7697 11.8903 5
11 -18 4 38.8212 11.8746 5
-18 11 4 53.713 11.494 10
-7 18 4 37.3405 8.65075 11
-11 18 -4 24.1481 8.0777 9
7 11 -4 57.0005 9.67883 11
7 -18 4 48.983 12.4487 5
7 -18 4 24.6931 7.45258 8
18 -11 4 61.084 14.9822 4
11 -18 -4 28.0435 11.5931 5
18 -11 4 33.391 8.77554 7
-18 7 -4 40.6946 9.15211 9
-11 18 -4 58.2799 9.90885 10
11 -18 -4 32.487 8.19718 8
-7 -11 -4 27.6364 7.76241 9
-11 -7 4 47.2973 9.58874 9
11 7 4 34.5878 14.7038 6
-6 -12 4 25.8109 9.04207 9
12 -18 4 26.5199 6.94139 8
18 -12 -4 18.7966 7.82405 7
-18 12 -4 22.0533 7.45241 9
12 6 -4 17.2034 15.544 6
18 -6 4 32.4787 7.55357 7
18 -12 -4 29.0265 13.27 4
18 -6 4 -2.3858 12.1071 4
6 -18 -4 32.2422 8.26301 8
-6 18 -4 29.4609 8.01081 10
12 -18 4 34.5463 11.4551 5
-12 -6 -4 31.0376 8.2212 9
12 6 -4 23.2721 7.08896 11
6 -18 -4 43.5053 12.8978 5
-18 6 4 23.1763 9.2307 10
18 -12 4 38.2123 13.8182 4
-12 18 -4 23.7928 7.47385 9
-12 18 -4 20.0585 8.43946 10
18 -6 -4 13.9915 11.554 6
-18 6 -4 46.3771 9.27338 9
-18 12 4 30.5602 10.807 10
6 12 -4 47.3461 9.24068 11
18 -12 4 50.2377 9.28765 7
6 -18 4 27.045 7.32081 8
12 -18 -4 6.53445 5.98622 8
6 -18 4 31.9259 11.6666 5
-12 -6 4 39.9683 9.00353 9
-6 18 4 44.7102 8.79361 11
12 6 4 49.6559 14.8784 6
-5 18 -4 46.5885 8.70814 10
-18 13 -4 37.1377 7.7387 9
-18 5 4 31.9182 9.57038 10
-5 -13 4 35.4951 9.27887 9
18 -13 -4 44.0237 8.48239 7
18 -13 -4 47.7319 13.7082 4
5 13 4 38.6804 8.10583 11
5 -18 -4 52.1862 13.3202 5
5 -18 -4 58.749 9.3228 8
13 5 -4 52.7861 17.1423 6
13 5 -4 39.539 7.10568 11
13 -18 4 51.2987 8.08233 8
-13 -5 -4 35.5461 8.36311 9
13 -18 4 26.3176 10.7551 5
-13 18 -4 46.2108 9.62892 10
5 13 -4 56.4067 9.6388 11
18 -13 4 65.1894 15.2344 4
18 -5 -4 48.5908 14.3304 6
-18 13 4 84.9455 12.1555 10
-13 -5 4 43.2802 8.59526 9
-18 5 -4 50.5434 9.30678 9
-5 18 4 56.0157 9.15029 11
18 -13 4 60.6511 9.30784 7
5 -18 4 66.8386 9.43445 8
13 5 4 70.601 15.5478 6
4 -18 -4 27.0539 11.1965 5
4 -18 -4 22.7266 7.60642 8
-18 4 4 20.9927 8.75226 10
14 -18 4 23.7457 6.94266 8
18 -14 -4 37.4071 13.9069 4
-14 -4 -4 37.5393 8.61992 9
-14 18 4 7.33565 6.03898 10
4 14 4 20.0366 7.98176 11
14 -18 4 24.9505 10.8525 5
-18 14 -4 15.1179 9.06189 10
14 4 -4 23.4105 15.0589 6
18 -14 -4 27.3617 7.98645 7
-4 -14 4 38.6045 9.49049 9
-4 18 -4 19.1758 7.7051 10
-18 14 -4 5.8647 5.43682 9
18 -14 4 23.0971 12.4608 4
-14 18 -4 19.6118 9.02267 10
18 -4 -4 29.2868 13.6329 6
4 14 -4 24.505 8.0076 11
14 4 4 28.4857 14.2277 6
-14 -4 4 27.0333 9.28457 10
18 -14 4 32.0556 7.95587 7
-18 4 -4 26.3177 8.29914 9
-18 14 4 22.0564 9.63157 10
4 -18 4 17.7518 7.20069 8
-4 18 4 17.1314 7.6165 11
-3 -15 4 8.20233 8.14371 9
15 -18 4 0.42689 8.94975 5
3 -18 -4 16.8737 7.1667 8
3 -18 -4 9.29581 9.63574 5
-3 18 -4 11.5276 7.52442 10
18 -15 -4 14.8046 12.4568 4
-18 15 -4 5.0871 10.1116 10
3 15 4 10.1108 7.85541 11
-15 18 4 14.5942 7.34197 10
-15 -3 -4 12.1705 8.16543 9
15 3 -4 15.7394 14.397 6
18 -15 -4 13.894 7.46327 7
15 -18 4 13.7563 6.87225 8
-18 3 4 5.79447 8.45959 10
-18 15 -4 -1.1601 4.43675 9
-3 18 -4 18.5104 8.76174 11
3 15 -4 32.4429 7.59358 10
18 -3 -4 32.7342 13.725 6
-18 3 -4 40.2224 8.8178 9
-3 18 4 44.0651 8.77104 11
-15 -3 4 24.987 9.40177 10
18 -15 4 33.0407 12.9756 4
-3 -15 -4 21.3542 6.13903 8
15 3 4 41.6586 14.3565 6
18 -15 4 30.4221 7.83198 7
15 -18 -4 28.8102 7.15624 7
3 15 -4 23.0797 8.01561 11
-15 18 -4 41.0555 10.6309 10
-18 15 4 23.2981 8.97628 10
-18 16 -4 7.17082 10.2464 10
-16 18 4 -0.6709 6.92027 10
16 2 -4 7.43104 13.4416 6
2 -18 -4 -0.8857 7.67956 5
2 16 4 6.50752 7.87792 11
-18 2 4 4.12616 8.31844 10
-2 -16 4 7.34091 7.4415 9
2 -18 -4 2.65858 6.37807 8
18 -16 -4 1.24196 6.67768 7
18 -16 -4 1.18695 11.2185 4
-2 18 -4 4.96746 8.16624 11
-18 16 -4 0.26835 4.99186 9
16 -18 4 2.02058 6.35306 8
-16 -2 -4 5.34514 7.90276 9
-2 18 -4 2.08733 7.19694 10
-16 18 -4 0.4681 9.30433 10
-16 -2 4 6.01261 8.71532 10
-18 2 -4 3.27935 7.2638 9
-2 -16 -4 4.33255 5.83559 8
-2 18 4 5.53709 7.34411 11
18 -16 4 5.06976 6.96947 7
16 2 4 0.31206 11.9504 6
18 -2 -4 6.15888 11.9066 6
-18 16 4 5.5258 7.70034 10
2 16 -4 10.332 6.74614 10
2 16 -4 -2.8461 7.07369 11
16 -18 -4 2.62878 6.35624 7
-18 17 -4 10.9827 9.81884 10
18 -17 -4 7.86008 6.30194 7
17 -18 4 1.02607 4.60228 7
-1 18 -4 13.8043 8.1486 11
-17 -1 -4 13.171 7.74511 9
-18 1 4 -0.2556 8.0414 10
1 17 4 9.52722 7.73249 11
-1 18 -4 2.0612 7.12674 10
17 1 -4 1.86975 11.9193 6
1 -18 -4 7.37637 6.1437 8
-17 18 4 10.4009 7.52666 10
17 -18 4 14.4054 6.36976 8
-1 -17 4 12.7713 7.46046 9
1 -18 4 17.7009 7.70068 9
-1 18 4 22.3074 8.39287 11
-18 1 -4 11.0852 7.68041 9
-1 -17 -4 10.9505 5.92768 8
17 -18 -4 13.049 6.41878 7
18 -1 -4 1.05839 10.951 6
1 17 -4 10.9033 6.94472 10
-17 18 -4 8.92882 9.70299 10
-17 -1 4 6.60578 8.53645 10
1 17 -4 11.4318 7.43417 11
18 -17 4 21.6363 7.0314 7
18 -17 4 -1.2351 4.53335 8
-18 17 4 14.8586 7.96714 10
0 18 4 -0.6224 7.53598 11
-18 18 4 1.80382 7.08698 10
0 -18 -4 1.18168 5.54992 8
0 -18 4 2.9764 6.94081 9
-18 0 -4 -2.0451 6.99986 9
0 18 -4 -7.5136 6.89529 11
18 -18 -4 5.0346 6.01074 7
-18 0 4 0.58771 7.88868 10
18 -18 4 -4.1635 5.97204 7
0 18 -4 4.49386 6.91153 10
-18 18 -4 5.33211 9.40582 10
18 -18 4 4.21263 4.88014 8
19 -9 4 22.415 12.2027 4
-10 -9 -4 18.5591 7.73384 9
19 -10 -4 0.14886 12.123 4
9 -19 -4 33.6703 11.9908 5
10 -19 4 27.5133 7.10079 8
19 -10 -4 22.4666 7.6737 7
-9 -10 4 18.0498 8.37091 9
9 -19 -4 9.80819 7.17495 8
-9 19 -4 20.3967 7.70187 10
-10 19 4 20.4829 8.15605 11
-19 9 4 38.8304 10.3057 10
-19 10 -4 25.8948 7.97249 9
10 -19 4 24.1955 10.9989 5
19 -9 4 22.9172 7.89047 7
10 9 -4 18.9135 7.21596 11
-19 10 4 54.6822 11.3662 10
-9 -10 -4 20.0521 7.78819 9
9 -19 4 28.3127 7.01497 8
9 10 -4 27.1253 8.16728 11
-10 -9 4 28.6487 8.72068 9
-9 19 4 27.0649 8.15035 11
9 -19 4 34.679 11.2971 5
-19 9 -4 32.77 7.92202 9
-10 19 -4 32.7836 8.52799 10
10 -19 -4 29.9406 11.4497 5
10 9 4 -1.5462 18.2829 6
19 -9 -4 25.4225 7.63921 7
19 -10 4 21.7667 7.79901 7
10 -19 -4 28.3109 7.77518 8
19 -10 4 26.5028 13.1114 4
-11 -8 -4 56.0516 9.38769 9
8 -19 -4 62.869 13.2495 5
19 -11 -4 54.8054 13.7411 4
-8 19 -4 64.057 9.50322 10
-11 19 4 40.1246 8.92082 11
11 8 -4 51.4304 8.58239 11
-8 -11 4 53.6524 10.0659 9
8 -19 -4 59.8631 9.14042 8
19 -11 -4 59.8197 9.07676 7
-19 11 -4 58.5263 9.28562 9
11 -19 4 47.9153 12.4651 5
11 -19 4 93.0661 9.41193 8
19 -8 4 70.0136 9.52783 7
-19 8 4 61.9911 10.6 10
-8 19 4 66.9681 9.78841 11
-8 -11 -4 55.7433 9.42067 9
-11 -8 4 98.7717 11.2882 9
19 -11 4 66.801 9.59632 7
8 -19 4 80.2583 13.7805 5
19 -11 4 76.6872 14.7749 4
11 8 4 46.7386 13.6547 6
-19 8 -4 82.5904 10.1804 9
8 11 -4 56.7733 9.42729 11
11 -19 -4 76.8818 9.50264 8
8 -19 4 60.4818 8.58499 8
12 -19 4 20.6761 10.8771 5
7 -19 -4 22.5828 7.42327 8
-19 7 4 30.1553 9.29965 10
19 -7 4 13.3569 7.53433 7
-7 -12 4 26.5811 8.57951 9
12 -19 4 24.7309 6.85327 8
-19 12 -4 25.3365 7.99954 9
19 -12 -4 35.9322 8.07468 7
-12 -7 -4 32.4217 8.30089 9
19 -12 -4 17.8082 11.8809 4
12 7 -4 32.1261 7.06331 11
-7 19 -4 20.5551 7.77347 10
7 -19 -4 33.164 11.6815 5
-12 19 -4 30.4305 8.55852 10
19 -12 4 29.9684 13.5052 4
12 7 4 24.6312 13.0267 6
7 12 -4 27.2195 7.96811 11
12 -19 -4 17.9819 7.00161 8
7 -19 4 22.9772 7.73738 8
-7 -12 -4 24.8603 7.60213 9
-12 -7 4 30.1378 8.79991 9
-19 12 4 43.9789 11.1728 10
-7 19 4 32.7935 8.04057 11
-19 7 -4 39.6519 8.5117 9
19 -12 4 27.5077 8.02477 7
7 -19 4 8.42405 9.23917 5
19 -6 4 8.61124 6.37824 7
-19 6 4 14.3469 8.30837 10
19 -13 -4 13.4393 6.88939 7
-13 -6 -4 14.2451 7.52446 9
6 -19 -4 27.4258 11.8072 5
6 13 4 15.1488 6.79071 11
-19 13 -4 11.6265 7.01897 9
13 -19 4 14.0511 10.0655 5
-6 19 -4 17.1112 7.58505 10
13 -19 4 14.1373 6.72167 8
13 6 -4 7.22505 6.28944 11
6 -19 -4 12.4809 7.29787 8
-6 -13 4 15.2597 8.41022 9
19 -13 -4 15.5949 12.0386 4
13 6 4 0.49055 11.7808 6
13 -19 -4 1.45528 5.12826 8
-13 19 -4 2.08411 7.63526 10
19 -13 4 19.6088 12.5845 4
-13 -6 4 7.75043 7.80019 9
-6 -13 -4 4.64869 5.49307 9
-19 13 4 10.4275 9.9734 10
19 -13 4 9.69478 7.41414 7
6 -19 4 -0.1206 7.2056 8
-19 6 -4 6.38229 7.64373 9
6 13 -4 6.95043 7.43997 11
-6 19 4 8.1745 6.89 11
-19 14 -4 2.91167 7.33017 10
14 -19 4 8.30745 6.21167 8
-19 14 -4 -1.6338 5.05703 9
19 -14 -4 12.9628 6.7051 7
14 5 -4 5.33091 4.88138 11
19 -14 -4 10.8861 11.5976 4
-5 19 -4 5.17084 7.2966 10
-19 5 4 5.10718 7.907 10
5 14 4 3.04494 7.12018 11
5 -19 -4 10.3112 10.3092 5
5 -19 -4 14.7243 7.201 8
14 -19 4 -2.2652 9.36887 5
-14 19 4 1.57974 4.73538 10
-5 -14 4 3.67427 8.14287 9
-14 -5 -4 -0.1728 7.03748 9
-19 14 4 1.27309 8.69164 10
5 14 -4 0.80464 7.14433 11
-14 -5 4 6.54877 7.03925 9
14 5 4 2.56638 11.6913 6
-14 -5 4 -0.0951 8.24852 10
-14 19 -4 -1.6034 4.4431 9
-14 19 -4 3.95916 7.75149 10
-19 5 -4 2.9377 7.37768 9
5 -19 4 -2.2373 7.09604 8
19 -14 4 4.96903 7.34565 7
-5 19 4 4.55104 6.93885 11
19 -14 4 10.5962 11.7559 4
4 -19 -4 46.8222 7.90103 8
19 -15 -4 17.424 11.4833 4
-4 19 -4 37.7607 8.60933 10
-15 19 4 40.0521 8.18969 10
-15 -4 -4 49.757 8.89858 9
-4 -15 4 64.6028 10.2129 9
19 -15 -4 52.0772 8.36092 7
-19 4 4 45.428 9.29411 10
4 15 4 35.2248 8.20336 11
15 -19 4 42.1432 7.37546 8
-19 15 -4 29.1305 10.135 10
15 4 4 27.7663 12.3133 6
4 -19 4 35.6814 7.7441 8
19 -15 4 44.8208 8.23964 7
-15 19 -4 65.9446 10.2681 10
-19 4 -4 44.3165 8.39293 9
-19 15 4 35.6654 9.29904 10
4 15 -4 39.8799 7.96178 11
-4 19 4 52.3223 8.33866 11
-15 -4 4 20.6609 9.30439 10
-16 19 4 17.0821 7.52027 10
-3 19 -4 27.5212 7.79104 10
-16 -3 -4 26.1525 8.13522 9
-3 -16 4 30.3622 8.22152 9
-3 19 -4 28.747 8.58975 11
3 16 4 27.1128 7.83837 11
-19 3 4 17.1994 8.25959 10
19 -16 -4 28.6406 7.47707 7
19 -16 -4 2.21603 17.4428 4
16 -19 4 22.3387 6.42154 8
3 -19 -4 20.3257 6.66889 8
-19 16 -4 10.5562 9.62772 10
-19 3 -4 39.2143 8.02829 9
-16 19 -4 30.937 9.24724 10
3 16 -4 44.6823 8.17746 11
-3 19 4 41.2085 8.49344 11
-16 -3 4 7.81732 8.53168 10
19 -16 4 36.9136 7.76237 7
-3 -16 -4 16.8159 4.73071 8
16 3 4 -1.8039 12.064 6
16 -19 -4 18.0402 6.4171 7
-19 16 4 36.3395 8.76702 10
-2 19 -4 8.93916 7.80966 11
19 -17 -4 15.5538 6.14587 7
17 -19 4 12.0208 5.84985 8
-17 -2 -4 14.343 7.7717 9
-2 -17 4 9.71961 7.19241 9
2 17 4 12.9993 7.74534 11
-19 17 -4 8.21899 9.16788 10
-2 19 -4 14.8527 7.34918 10
-17 19 4 15.6279 7.12294 10
2 -19 -4 5.73174 5.71858 8
-19 2 4 10.6793 7.65317 10
19 -17 4 9.56582 6.51952 7
-19 17 4 6.39624 7.46841 10
-2 -17 -4 6.99864 5.10851 8
-19 2 -4 7.06704 6.73479 9
-17 19 -4 5.55015 8.42967 10
17 -19 -4 4.98798 5.75795 7
-17 -2 4 7.29916 8.34754 10
2 17 -4 10.7471 6.85904 11
2 -19 4 1.43989 6.71044 9
-2 19 4 -2.8339 7.28168 11
1 -19 -4 0.21797 5.29379 8
-1 19 -4 -1.483 6.45319 10
1 18 4 -3.348 7.25083 11
-1 -18 4 2.55535 6.64216 9
-1 19 -4 4.61066 6.93417 11
19 -18 -4 7.47914 5.59347 7
-18 -1 -4 -4.0067 6.82275 9
18 -19 4 -3.6694 3.69725 7
-18 19 4 -3.3299 6.64698 10
18 -19 4 2.266 5.29562 8
-19 1 4 1.12322 7.38232 10
-19 18 -4 -4.1249 8.44322 10
18 -19 -4 2.42997 5.52685 7
1 18 -4 5.94248 6.40084 10
1 -19 4 6.81432 6.8253 9
-19 1 -4 2.93213 6.57467 9
-19 18 4 7.85515 7.23279 10
1 18 -4 8.23759 6.43454 11
-18 -1 4 8.43403 7.69069 10
19 -18 4 2.32824 6.06327 7
-18 19 -4 2.98659 8.09829 10
-1 -18 -4 2.36443 5.08178 8
-1 19 4 -0.1623 7.03293 11
19 -19 -4 9.46207 5.11246 7
0 19 -4 2.97511 6.41927 11
-19 0 4 3.04834 6.91492 10
0 19 -4 8.97992 6.18149 10
-19 0 -4 2.25394 6.22908 9
19 -19 4 7.87496 5.08105 7
0 -19 -4 8.88039 4.88165 8
-19 19 4 7.22879 6.96569 10
0 -19 4 4.44408 6.41816 9
0 19 4 6.56423 7.21559 11
-19 19 -4 8.6274 8.03707 10
20 -10 -4 40.4561 8.30899 7
10 -20 4 90.6302 8.96315 8
-10 -10 4 53.5497 9.35459 9
20 -10 4 68.6518 8.85936 7
10 -20 -4 48.3959 8.23148 8
10 10 -4 60.3059 8.52854 11
-20 10 -4 48.4271 8.60333 9
-10 -10 -4 58.3541 9.17551 9
-10 20 -4 69.974 9.5173 10
-10 20 4 65.1834 9.11436 11
-9 -11 4 75.1457 10.2423 9
-20 9 4 109.886 12.0647 10
-9 20 -4 83.9073 10.1197 10
-11 20 4 68.1178 9.71074 11
9 -20 -4 59.4415 8.98493 8
20 -9 4 84.6543 9.81673 7
11 -20 4 84.9447 8.9211 8
11 9 -4 53.0336 8.82028 11
-11 -9 -4 80.2307 10.1582 9
-20 11 -4 82.8094 12.0145 9
20 -11 -4 79.7454 9.84138 7
9 -20 4 104.53 9.74336 8
9 11 -4 75.2623 9.14664 11
11 -20 -4 50.0688 8.5503 8
20 -11 4 70.0382 8.98446 7
-20 11 4 102.501 12.0342 10
-11 -9 4 73.3621 10.0185 9
-20 9 -4 78.075 9.54065 9
-9 20 4 54.8384 8.98735 11
20 -9 -4 42.157 8.27022 7
-9 -11 -4 69.4578 9.49359 9
8 -20 -4 46.1004 8.20182 8
12 8 -4 43.6632 7.86644 11
-8 20 -4 56.876 9.27835 10
12 -20 4 66.237 8.39454 8
-12 -8 -4 51.4613 8.76647 9
20 -8 4 34.211 8.02704 7
20 -12 -4 53.2768 8.38663 7
-20 12 -4 44.686 8.64087 9
-20 8 4 63.6502 10.1286 10
-8 -12 4 77.5595 10.0035 9
20 -12 4 -1.8903 10.0959 4
20 -12 4 38.794 7.5293 7
12 -20 -4 28.8434 6.9009 8
8 -20 4 44.8626 7.69431 8
8 12 -4 56.8697 8.55828 11
-12 -8 4 58.6632 9.32425 9
-8 -12 -4 22.4742 7.32154 9
-8 20 4 25.2738 7.29626 11
-20 12 4 56.5469 10.7929 10
-12 20 -4 39.9184 8.47455 10
-20 8 -4 31.0593 7.50519 9
-20 7 4 18.5674 8.08681 10
20 -13 -4 9.58638 6.47836 7
7 13 4 -2.6362 4.40462 11
-13 -7 -4 8.38937 6.65351 9
7 -20 -4 13.6924 6.34477 8
-20 13 -4 10.3247 5.96188 9
7 -20 -4 -1.6273 8.84382 5
13 -20 4 -0.8555 8.77457 5
20 -7 4 18.7445 6.57313 7
13 -20 4 11.3807 5.89805 8
-7 -13 4 26.7408 8.01024 9
-7 20 -4 11.3957 7.10981 10
13 7 -4 12.0221 6.10215 11
20 -13 4 19.1993 7.34601 7
7 13 -4 13.249 7.07553 11
-13 -7 4 15.7255 7.43363 9
-13 20 -4 18.759 7.86272 10
-20 7 -4 12.8029 6.68666 9
13 -20 -4 14.2715 5.81586 8
-7 20 4 10.2901 6.38548 11
20 -13 4 -4.7552 9.83025 4
7 -20 4 16.0732 6.98516 8
-20 13 4 24.0828 9.60187 10
7 13 -4 -0.4033 4.39151 12
-7 -13 -4 6.51403 6.36117 9
-6 20 -4 9.90005 7.35303 10
6 14 4 12.1599 6.72148 11
20 -14 -4 16.711 6.3865 7
-20 14 -4 0.12251 6.75584 10
-20 14 -4 0.36509 4.57307 9
-20 6 4 23.3375 8.04533 10
6 -20 -4 0.91508 12.8866 5
-6 -14 4 19.218 7.71685 9
-14 -6 -4 10.2435 6.81646 9
6 -20 -4 18.9593 6.73062 8
14 6 -4 19.6658 5.67513 11
14 -20 4 28.9982 6.31517 8
6 14 -4 23.5667 7.54784 12
6 14 -4 53.1664 8.33603 11
-6 20 4 40.3201 7.68543 11
-20 14 4 35.3831 9.30689 10
20 -14 4 31.4902 7.54126 7
-14 20 -4 31.3278 7.91927 10
-14 -6 4 20.8725 8.3727 10
-20 6 -4 22.7171 7.21921 9
6 -20 4 30.2923 7.34465 8
-14 -6 4 37.2616 8.27978 9
-5 20 -4 7.95092 7.38689 10
-15 20 4 -0.0451 4.77411 10
20 -15 -4 6.59289 5.91281 7
15 -20 4 16.115 6.03112 8
5 -20 -4 9.27752 6.50952 8
-15 -5 -4 3.59538 6.59692 9
5 15 4 5.18843 6.76342 11
-20 15 -4 7.13803 7.64494 10
-5 -15 4 7.72956 7.3477 9
-20 5 4 5.8221 7.28092 10
-15 20 -4 10.9222 7.56243 10
-20 15 4 -1.3722 8.31992 10
-15 -5 4 10.1765 8.08661 10
-15 -5 4 4.48576 5.67542 9
20 -15 4 6.37413 6.64219 7
-5 20 4 7.97279 6.20989 11
5 15 -4 9.79366 6.49786 11
5 -20 4 0.99545 6.04968 8
-20 5 -4 2.18763 6.36463 9
-16 -4 -4 11.212 7.34282 9
20 -16 -4 13.7808 6.31913 7
-4 -16 4 4.31747 7.0062 9
-20 4 4 1.21116 7.0788 10
-4 20 -4 -1.372 5.65181 11
-4 20 -4 9.66624 7.1304 10
4 16 4 3.97621 7.03093 11
16 -20 4 5.44142 5.94951 8
-20 16 -4 6.34685 8.50053 10
4 -20 -4 11.696 5.98529 8
-16 20 4 7.49207 6.29606 10
-4 20 4 13.0545 6.80599 11
-20 4 -4 11.2899 6.62567 9
-16 -4 4 12.0964 8.03792 10
20 -16 4 21.639 6.99619 7
-20 16 4 15.4538 7.97786 10
-16 20 -4 14.9866 7.51394 10
4 -20 4 -2.596 4.04144 8
4 16 -4 16.4259 6.18541 11
3 -20 -4 8.36698 5.54388 8
17 -20 4 8.94138 5.7269 8
-20 3 4 12.2566 7.29601 10
-17 20 4 2.10307 6.53784 10
-17 -3 -4 7.51337 7.10153 9
-3 -17 4 1.81272 6.35129 9
-20 17 -4 8.43071 8.40612 10
-3 20 -4 8.47836 6.84257 11
3 17 4 5.67954 6.81838 11
-3 20 -4 9.41571 6.8086 10
20 -17 -4 11.7007 5.67796 7
-20 3 -4 11.5131 6.26932 9
-20 17 4 6.24741 7.59214 10
-17 20 -4 10.5943 7.45383 10
3 17 -4 8.27106 6.18565 11
3 -20 4 9.04762 6.43818 9
20 -17 4 7.52207 6.06164 7
-3 20 4 2.8525 7.05471 11
-17 -3 4 8.93896 7.4361 10
17 -20 -4 2.4386 4.67497 7
-2 20 -4 10.4401 6.85929 10
20 -18 -4 6.28392 5.29706 7
-18 20 4 11.8285 6.82778 10
-2 -18 4 15.8629 6.58154 9
-20 2 4 9.92941 6.89288 10
2 -20 -4 10.8987 5.21228 8
-18 -2 -4 14.5509 6.98228 9
18 -20 4 11.0326 5.10009 8
-2 20 -4 20.096 6.86118 11
-20 18 -4 9.68699 8.27041 10
2 18 4 14.0978 6.89452 11
2 -20 4 11.1405 6.61148 9
-18 -2 4 14.0963 7.07496 10
2 18 -4 15.136 6.2956 11
-18 20 -4 13.3325 7.42316 10
-2 -18 -4 0.97639 3.07028 8
-2 20 4 19.626 7.12639 11
-20 2 -4 12.0841 6.08564 9
20 -18 4 10.8575 5.85748 7
-20 18 4 14.9322 7.22672 10
18 -20 -4 12.7999 5.18943 7
-19 20 4 2.24964 6.5341 10
1 19 4 -1.6498 6.26535 11
-20 1 4 -0.781 6.38908 10
20 -19 -4 7.76326 5.01591 7
1 -20 -4 2.18663 4.47404 8
-20 19 -4 -0.4092 7.01961 10
-19 -1 -4 2.93005 6.18118 9
-1 -19 4 4.15104 5.70464 9
-1 20 -4 7.05036 5.89988 11
-1 20 -4 3.69146 5.90242 10
20 -19 4 1.44422 4.91807 7
-1 20 4 7.16188 6.47014 11
19 -20 -4 6.64177 4.8521 7
-19 20 -4 12.9458 7.22053 10
1 -20 4 3.48027 5.9264 9
-20 1 -4 6.13337 5.74491 9
-1 -19 -4 2.68215 3.57028 8
1 19 -4 6.58655 5.76856 11
-20 19 4 8.29289 6.84588 10
-19 -1 4 7.27989 6.23927 10
0 20 4 5.10739 6.22839 11
-20 0 -4 0.0155 5.42602 9
-20 20 4 3.40287 6.21922 10
0 -20 4 3.02767 5.63621 9
0 -20 -4 3.68094 3.41635 8
-20 20 -4 2.65279 6.66238 10
0 20 -4 3.413 5.61217 11
20 -20 -4 -1.3122 4.24002 7
-20 0 4 5.70815 4.65631 10
-11 21 4 24.1502 6.80096 11
10 -21 -4 17.6213 6.16676 8
-11 -10 -4 13.8046 6.55672 9
-10 -11 4 17.0965 7.0654 9
11 10 -4 26.6727 6.45858 11
-21 11 -4 22.3143 6.66277 9
-21 10 4 39.2939 8.69804 10
-10 21 -4 20.848 7.1148 10
21 -11 -4 27.3626 7.01217 7
21 -10 4 36.1221 7.00187 7
11 -21 4 32.8617 6.92506 8
-11 21 -4 36.2869 7.47696 10
10 11 -4 28.1614 6.53064 11
-21 11 4 33.8056 8.36759 10
21 -10 -4 27.1772 6.66859 7
-11 -10 4 30.6011 7.68014 9
11 -21 -4 28.5489 6.49399 8
-21 10 -4 20.9871 6.74863 9
10 -21 4 36.1457 7.00857 8
-10 21 4 27.6718 6.92789 11
-10 -11 -4 17.0653 6.58952 9
21 -11 4 35.2098 7.10486 7
-9 21 -4 21.986 7.57363 10
9 -21 -4 12.5036 5.93425 8
21 -9 4 21.2883 6.60918 7
12 9 -4 22.3166 6.2276 11
-9 -12 4 25.6727 7.52994 9
-21 9 4 22.8108 7.76774 10
12 -21 4 14.9709 6.12559 8
-12 21 4 6.1616 5.43255 11
-12 -9 -4 5.90917 6.06751 9
21 -12 -4 19.183 6.48848 7
-21 12 -4 19.5053 5.9527 9
-9 -12 -4 24.5199 6.69148 9
9 12 -4 33.1916 6.97546 11
-12 -9 4 18.5992 7.49841 9
-21 9 -4 24.8848 6.71581 9
-21 12 4 24.9401 8.57507 10
-12 21 -4 21.6085 7.16379 10
12 -21 -4 18.4058 6.0986 8
21 -12 4 17.4393 6.60592 7
9 -21 4 31.8172 6.90752 8
-9 21 4 26.2171 6.678 11
-8 -13 4 62.1276 8.50092 9
21 -8 4 36.0326 7.26979 7
-8 21 -4 22.5449 7.61936 10
21 -13 -4 43.9925 7.32103 7
-21 8 4 47.1749 8.32211 10
13 8 -4 29.9922 6.91673 11
13 -21 4 37.5316 6.70622 8
-13 -8 -4 49.7316 7.79932 9
8 -21 -4 54.7657 7.51579 8
-8 -13 -4 33.7362 6.86392 9
13 -21 -4 31.7151 6.37648 8
8 -21 4 44.7338 7.17873 8
-13 -8 4 44.6526 8.01286 9
-21 8 -4 27.5709 6.84684 9
-13 21 -4 34.4291 7.83549 10
8 13 -4 58.5651 7.84235 11
-21 13 4 41.1292 9.12194 10
21 -13 4 46.3693 7.30819 7
-8 21 4 38.9021 7.3222 11
-13 -8 4 14.5025 6.75082 10
-7 -14 4 25.6705 7.24876 9
-14 -7 -4 11.8538 6.38487 9
21 -14 -4 11.5404 5.82314 7
14 -21 4 19.6101 5.74874 8
7 -21 -4 22.9729 6.49419 8
7 14 4 -2.3916 4.14708 11
14 7 -4 12.0998 5.22721 11
-21 7 4 14.2043 7.17866 10
21 -7 4 1.83434 4.44794 7
-7 21 -4 18.602 7.11392 10
-7 -14 -4 9.95354 5.09671 9
-21 7 -4 12.1006 5.83639 9
-21 14 4 32.7562 8.61641 10
-14 -7 4 11.4029 6.54384 10
-14 21 -4 12.0157 7.2666 10
7 14 -4 15.9958 6.35495 11
14 -21 -4 10.6086 4.52241 8
-14 -7 4 16.1408 7.01522 9
-7 21 4 20.4004 6.16075 11
21 -14 4 21.0175 6.63843 7
7 -21 4 22.3579 6.70395 8
7 14 -4 -0.2047 4.8501 12
6 15 4 5.01357 6.08564 11
-15 -6 -4 9.10551 6.31105 9
15 -21 4 13.1132 5.4592 8
6 -21 -4 11.7483 6.08406 8
-21 6 4 8.23875 6.84813 10
-6 21 -4 6.43717 7.13289 10
21 -15 -4 8.87063 5.59055 7
-6 -15 4 7.86707 6.33744 9
6 -21 4 6.36119 5.80771 8
-6 21 4 7.48858 6.36203 11
6 15 -4 2.91093 5.5199 12
6 15 -4 4.07882 6.09235 11
21 -15 4 7.84828 6.12996 7
-15 21 -4 11.0873 6.9293 10
-15 -6 4 5.748 6.1089 9
-15 -6 4 6.50799 6.41165 10
-21 6 -4 5.13419 5.47555 9
-21 15 4 3.61066 7.86942 10
-16 -5 -4 25.5242 7.15791 9
-5 21 -4 19.962 7.10758 10
-5 -16 4 17.6956 6.55579 9
5 16 4 12.1738 6.46332 11
-21 5 4 10.8735 7.01103 10
21 -16 -4 22.1017 5.68577 7
-21 16 -4 6.83341 6.39914 10
16 -21 4 26.316 5.85526 8
5 -21 -4 17.7677 5.44984 8
-21 16 4 55.7845 8.81365 10
5 16 -4 23.1506 6.65818 12
-16 -5 4 17.5928 6.33519 10
5 -21 4 24.8582 5.42411 8
-5 21 4 30.5094 6.74158 11
-21 5 -4 19.8094 5.99558 9
-16 21 -4 29.7753 7.19178 10
5 16 -4 32.5722 6.75517 11
21 -16 4 31.2404 6.56583 7
-17 21 4 19.1709 5.27886 10
-21 4 4 18.3198 6.9991 10
-17 -4 -4 38.7445 7.21277 9
-21 17 -4 28.1045 7.61311 10
4 -21 -4 21.4378 5.45853 8
-4 -17 4 31.28 6.67535 9
4 17 4 25.9946 6.70771 11
21 -17 -4 33.1009 5.86987 7
-4 21 -4 14.1733 6.96781 10
17 -21 4 37.6532 6.12755 8
4 -21 4 26.5732 6.64141 9
-17 21 -4 33.1554 7.46875 10
-21 17 4 51.7847 8.5131 10
4 17 -4 28.0957 6.77294 12
-21 4 -4 33.2377 6.44218 9
4 17 -4 37.349 6.7161 11
-4 21 4 29.6657 6.80243 11
21 -17 4 47.1423 6.88945 7
3 18 4 11.1713 6.13147 11
-18 21 4 4.65218 5.39304 10
-3 21 -4 -3.0047 4.72825 11
18 -21 4 10.7963 5.20448 8
-21 18 -4 2.1512 7.17397 10
-21 3 4 10.6904 6.60134 10
21 -18 -4 0.31886 4.61558 7
-18 -3 -4 6.36804 6.53897 9
-3 21 -4 3.1116 6.18578 10
3 -21 -4 5.81389 4.55097 8
-3 -18 4 2.70439 5.59102 9
21 -18 4 10.9733 5.56801 7
3 18 -4 2.80335 5.89603 12
-3 21 4 1.26818 6.40337 11
-21 3 -4 3.27449 5.34326 9
3 18 -4 5.19391 5.42597 11
3 -21 4 3.2574 5.68984 9
-21 18 4 4.56604 6.65607 10
-18 21 -4 15.7729 7.03176 10
-21 2 4 14.1354 6.09292 10
-2 21 -4 12.6337 5.56379 10
2 -21 -4 23.0162 4.5562 8
-19 21 4 20.8825 6.01415 10
-21 19 -4 17.9983 6.74197 10
-19 -2 -4 22.5532 6.32646 9
21 -19 -4 15.0176 4.94057 7
-2 21 -4 16.1312 5.36003 11
2 19 4 24.7893 6.25964 11
-2 -19 4 21.6103 5.75782 9
-19 21 -4 29.7058 7.14396 10
2 19 -4 19.4477 6.00638 12
2 -21 4 15.6651 5.97788 9
-2 21 4 33.2211 6.91629 11
2 19 -4 24.4486 5.84333 11
21 -19 4 13.8392 4.95544 7
-21 2 -4 24.0877 6.02616 9
-21 19 4 23.5132 6.77045 10
-1 21 -4 0.81699 6.3014 12
-1 21 -4 2.85075 5.04472 11
21 -20 -4 4.14341 4.24416 7
-1 -20 4 9.57996 5.70459 9
1 20 4 2.81333 5.74718 11
1 -21 -4 3.27964 2.75157 8
-20 21 4 -1.5691 5.00063 10
-20 -1 -4 4.7183 5.56351 9
-21 20 -4 2.20869 6.16436 10
1 -21 4 3.44652 5.43538 9
1 20 -4 2.7137 5.40943 11
-21 20 4 2.75828 6.15973 10
1 20 -4 0.29772 5.66406 12
-21 1 -4 7.80884 5.40351 9
-1 21 4 1.80767 6.24553 11
-20 21 -4 2.61095 6.87876 10
20 -21 -4 -1.8885 2.56459 7
0 21 -4 23.7414 6.53206 12
0 21 4 26.1226 6.83598 11
-21 0 -4 29.0349 6.45595 9
-21 21 -4 34.4539 7.32467 10
0 -21 4 28.7211 5.91658 9
0 21 -4 15.8546 4.61255 11
22 -11 -4 9.88696 5.3789 7
-11 22 -4 14.0023 6.68819 10
-22 11 4 23.986 7.40276 10
11 -22 -4 15.8755 5.31743 8
-11 -11 -4 4.02293 5.26123 9
11 11 -4 16.2057 5.58231 11
-22 11 -4 2.82531 4.07117 9
22 -11 4 13.5282 5.85231 7
-11 -11 4 15.6196 6.47932 9
-11 22 4 9.46944 5.59866 11
11 -22 4 16.7203 5.80715 8
-12 -10 -4 0.52316 5.24153 9
12 10 -4 2.21221 5.22436 11
22 -10 4 4.07232 5.6573 7
12 -22 4 3.15173 5.39909 8
-12 22 4 -0.7782 5.1239 11
-10 -12 4 1.03342 5.83233 9
22 -12 -4 5.28569 5.24167 7
-10 22 -4 4.66064 6.07356 10
10 -22 -4 3.71075 4.99211 8
-22 10 4 6.34553 6.76541 10
22 -12 4 8.91226 5.52183 7
10 12 -4 1.70091 5.09952 11
-10 -12 -4 1.98144 5.18766 9
12 -22 -4 3.24756 5.00523 8
22 -10 -4 -3.2032 4.78733 7
10 -22 4 6.6889 5.4558 8
-12 22 -4 -1.3734 6.04719 10
-22 12 4 -2.196 6.58392 10
-10 22 4 0.77763 5.47987 11
-12 -10 4 -1.6643 5.74718 9
-22 10 -4 0.30186 5.01609 9
13 9 -4 22.1413 5.76364 11
9 -22 -4 24.2712 5.80406 8
13 -22 4 40.9942 6.3191 8
22 -9 4 17.9431 5.90222 7
-9 -13 4 25.4379 6.44032 9
-22 9 4 20.9233 7.07186 10
-13 -9 -4 12.5355 5.75226 9
-9 22 -4 11.1338 6.68127 10
22 -13 -4 17.0104 5.53513 7
-9 -13 -4 21.0005 5.86361 9
22 -13 4 25.6142 5.98503 7
9 -22 4 31.4901 6.34937 8
-13 -9 4 29.7036 6.84721 9
9 13 -4 23.4385 5.82479 11
-13 22 -4 30.3541 6.90709 10
13 -22 -4 21.8186 5.34378 8
-22 9 -4 17.5676 5.54792 9
-22 13 4 24.5605 7.64331 10
-9 22 4 23.7068 6.07319 11
14 8 -4 11.2834 4.07521 11
-14 -8 -4 21.0155 6.15366 9
-8 22 -4 14.507 6.67042 10
14 -22 4 9.59587 5.27972 8
-22 8 4 23.3779 6.88112 10
8 -22 -4 16.7661 5.14708 8
22 -14 -4 23.9007 5.53264 7
-8 -14 4 22.4602 6.3736 9
22 -8 4 -1.2179 4.22721 7
-22 8 -4 17.0833 5.41365 9
-14 22 -4 23.6307 6.6449 10
8 14 -4 18.6277 5.62132 11
-8 22 4 21.167 6.17301 11
-8 -14 -4 11.4356 4.73058 9
22 -14 4 19.6151 5.75473 7
-22 14 4 21.1056 7.3423 10
8 -22 4 17.8495 5.43504 8
14 -22 -4 15.1907 4.43409 8
-14 -8 4 21.2939 6.22701 9
22 -15 -4 3.875 4.73854 7
-22 7 4 10.0653 6.11387 10
-15 -7 -4 4.23157 5.48398 9
15 -22 4 10.9768 5.29648 8
-7 22 -4 12.9603 6.59204 10
7 -22 -4 7.72017 5.03799 8
-7 -15 4 3.7525 5.076 9
-7 22 4 5.56364 5.63759 11
-22 7 -4 6.79955 4.9527 9
-15 -7 4 4.53208 5.04596 9
-22 15 4 23.3586 7.36972 10
7 15 -4 10.2925 5.32236 11
-15 22 -4 1.79067 6.09233 10
7 -22 4 13.0088 4.98813 8
22 -15 4 14.4964 5.73748 7
-16 -6 -4 20.8104 6.27781 9
-22 6 4 19.2274 6.23082 10
6 16 4 6.17345 4.27923 11
-6 -16 4 17.1209 5.78972 9
6 -22 -4 21.4539 5.32325 8
16 -22 4 14.2056 5.33912 8
22 -16 -4 20.1278 4.95413 7
-6 22 -4 13.3105 6.56241 10
6 -22 4 21.2617 5.62933 9
-22 6 -4 18.2003 5.08057 9
-6 22 4 28.5814 6.15139 11
6 16 -4 24.3321 5.83692 11
-16 22 -4 25.2175 6.91221 10
-22 16 4 23.735 7.33169 10
22 -16 4 25.1492 5.94342 7
6 -22 4 17.7836 4.63545 8
5 -22 -4 10.9583 4.57064 8
-17 -5 -4 12.5697 6.05563 9
5 17 4 15.5033 5.4593 11
22 -17 -4 14.7663 4.9926 7
-5 22 -4 4.92257 6.03236 10
-5 -17 4 15.0186 5.7631 9
-22 5 4 11.9435 6.13698 10
17 -22 4 18.2844 5.40862 8
22 -17 4 10.6725 5.27564 7
-22 5 -4 9.42537 4.63076 9
-22 17 4 6.54885 6.60412 10
5 17 -4 15.6761 5.42224 11
-17 22 -4 9.58176 6.2674 10
5 -22 4 13.9521 5.44769 9
-5 22 4 16.3277 5.80706 11
5 17 -4 7.88578 4.56629 12
4 18 4 0.09192 5.49343 11
-22 4 4 4.44799 5.70462 10
4 -22 -4 5.56101 4.21378 8
22 -18 -4 4.76083 4.66773 7
18 -22 4 1.19606 4.64849 8
-4 -18 4 2.71657 5.11543 9
-18 -4 -4 0.07684 5.89715 9
-4 22 -4 1.22621 5.50471 10
4 -22 4 2.559 4.96643 9
4 18 -4 5.58072 4.8469 11
22 -18 4 7.34941 4.68663 7
-4 22 4 5.26235 5.28217 11
-22 18 4 -0.3874 6.12219 10
4 18 -4 1.1522 4.67683 12
-22 4 -4 2.89744 4.37789 9
-18 22 -4 4.39353 6.29105 10
3 -22 -4 15.4443 4.14342 8
-19 -3 -4 25.8124 6.88981 9
-3 -19 4 14.7146 5.54784 9
-3 22 -4 24.7518 6.63927 12
22 -19 -4 20.9695 5.19084 7
3 19 4 18.2834 5.90045 11
-19 22 -4 35.6682 7.24736 10
3 -22 4 8.69351 4.77607 9
-22 19 4 17.1812 6.41256 10
-3 22 4 27.8693 6.6414 11
22 -19 4 18.7367 4.18737 7
3 19 -4 10.5412 5.09395 12
3 19 -4 20.3427 5.49038 11
-22 3 -4 10.2808 4.61206 9
-2 22 -4 5.98263 6.68271 12
22 -20 -4 3.65941 4.26592 7
2 -22 -4 -0.7679 2.82278 8
2 20 4 9.10154 6.14327 11
-2 22 4 11.6398 6.68025 11
-20 22 -4 3.04386 6.7319 10
2 20 -4 6.40001 5.19879 12
2 20 -4 5.44273 5.23281 11
-22 20 4 1.82222 6.23708 10
12 11 -4 11.4717 4.82843 11
11 -23 -4 6.59153 4.4018 8
-12 -11 -4 7.36148 5.01802 9
23 -11 4 8.13436 5.40946 7
23 -12 -4 11.8011 4.55448 7
-11 -12 4 9.55969 5.20992 9
-11 23 -4 2.7544 5.59605 10
-23 11 4 7.71044 5.93425 10
12 -23 4 21.6682 5.20018 8
-23 12 4 11.9223 5.99347 10
-12 -11 4 8.79022 5.54286 9
12 -23 -4 12.9287 4.59444 8
-11 23 4 -0.5136 5.42642 11
11 12 -4 12.3162 4.83454 11
11 -23 4 11.6148 5.0357 8
-12 23 -4 6.3114 5.67106 10
23 -12 4 17.1808 5.42939 7
-11 -12 -4 5.33206 4.70139 9
13 10 -4 14.0376 4.41887 11
-23 10 4 15.033 6.01748 10
10 -23 -4 7.31619 4.37452 8
-13 -10 -4 6.80269 4.84093 9
23 -10 4 7.56873 4.98464 7
13 -23 4 16.4796 4.96497 8
-10 23 -4 5.42513 5.69313 10
23 -13 -4 11.0075 5.00599 7
-10 -13 4 7.22194 5.08018 9
-13 23 -4 5.50842 5.55527 10
-23 13 4 13.4587 6.2963 10
-13 -10 4 9.6557 5.58876 9
23 -13 4 0.70173 4.86628 7
10 13 -4 9.14579 4.83529 11
13 -23 -4 6.62903 4.40547 8
10 -23 4 15.3696 4.8458 8
-10 23 4 8.39726 5.06617 11
-10 -13 -4 7.65771 4.53149 9
9 -23 -4 5.63632 4.28241 8
23 -14 -4 9.28187 4.87445 7
-9 -14 4 2.46389 4.9318 9
-23 9 4 1.41948 5.78355 10
-14 -9 -4 3.93093 5.31422 9
-9 23 -4 4.5128 5.89324 10
14 -23 4 6.73839 4.61528 8
-23 14 4 4.44042 6.13176 10
-9 23 4 1.26438 5.14669 11
-14 23 -4 3.98616 5.40922 10
14 -23 -4 3.55512 3.10282 8
9 14 -4 2.85093 4.6675 11
23 -14 4 4.72878 4.73728 7
9 -23 4 2.86556 4.33399 8
-9 -14 -4 0.48197 3.26325 9
-14 -9 4 6.47092 4.93018 9
-23 8 4 4.07386 5.80796 10
-8 23 -4 4.72002 5.56147 10
23 -15 -4 7.85959 4.5668 7
-15 -8 -4 6.93752 5.55106 9
15 -23 4 8.38992 4.71272 8
-8 -15 4 6.01203 5.04116 9
8 -23 -4 7.66672 4.50683 8
-23 8 -4 1.59723 3.93176 9
-15 23 -4 9.32147 5.82659 10
-8 23 4 8.76139 5.48297 11
-15 -8 4 -0.001 3.60739 9
23 -15 4 8.46353 5.08184 7
-23 15 4 11.3121 6.15747 10
8 -23 4 5.27322 4.14009 8
8 15 -4 12.1987 4.57988 11
-7 -16 4 5.30053 5.18906 9
-23 7 4 11.2769 6.19958 10
-7 23 -4 7.2056 5.5837 10
-16 -7 -4 4.91386 5.42466 9
16 -23 4 8.79095 4.81887 8
7 -23 -4 12.3945 4.60922 8
23 -16 -4 4.36849 4.49274 7
-7 23 -4 9.37821 6.29096 12
-23 7 -4 -0.0238 2.65927 9
-23 16 4 0.59059 6.27602 10
-16 23 -4 3.14513 5.46931 10
23 -16 4 7.00272 4.67653 7
-7 23 4 -0.1901 5.18725 11
7 16 -4 1.14697 4.66588 11
7 -23 4 0.92691 2.74614 8
-17 -6 -4 3.70875 5.36032 9
-6 23 -4 2.43649 6.5571 12
23 -17 -4 0.57239 4.37856 7
-23 6 4 7.14097 5.75916 10
17 -23 4 -1.0975 4.76332 8
-6 -17 4 2.9953 5.07837 9
6 -23 -4 5.54939 4.00106 8
-6 23 -4 1.31342 4.99221 10
6 17 -4 0.99978 4.94805 11
-23 17 4 4.23601 6.61237 10
-6 23 4 0.26432 5.71601 11
23 -17 4 1.80593 4.46921 7
-17 23 -4 -2.8976 5.15895 10
-23 6 -4 0.02051 3.56033 9
18 -23 4 0.36038 3.6715 8
23 -18 -4 10.8845 4.90607 7
-5 -18 4 7.7833 5.2787 9
-18 -5 -4 5.90468 5.73829 9
5 -23 -4 10.6512 4.4696 8
-5 23 -4 7.9932 6.71516 12
-5 23 4 -0.7146 5.70505 11
5 18 -4 2.45212 4.73434 11
23 -18 4 5.03831 4.58402 7
-23 18 4 3.56859 6.74553 10
-18 23 -4 6.58814 6.15495 10
24 -12 4 1.58682 4.5699 7
-24 12 4 1.07664 5.54363 10
12 -24 4 -1.2551 4.1578 8
12 -24 -4 1.28807 4.1292 8
12 12 -4 0.64211 3.00508 11
-12 -12 4 1.19603 4.56017 9
-12 -12 -4 -0.3342 3.90094 9
-12 24 -4 0.9575 5.39051 10
-13 -11 -4 9.13907 4.77023 9
13 -24 4 12.0796 4.6659 8
-24 11 4 5.85288 5.75316 10
-11 24 -4 8.22112 5.68794 10
11 -24 -4 10.2479 4.2046 8
24 -11 4 -2.881 3.83339 7
-11 -13 4 8.93578 4.85263 9
11 -24 4 4.34714 4.22061 8
-24 13 4 6.79973 5.68434 10
13 -24 -4 2.26774 3.45383 8
11 13 -4 3.75668 4.30854 11
-13 -11 4 7.05104 4.40124 9
-13 24 -4 5.95723 5.62139 10
24 -13 4 3.45126 4.72981 7
10 -24 -4 5.41311 4.54379 8
-10 24 -4 -0.0496 5.27802 10
14 -24 4 5.49773 4.55151 8
24 -14 -4 -0.1933 3.82014 7
-24 10 4 -0.5483 5.84042 10
-14 -10 -4 4.1518 5.02023 9
-10 -14 4 0.20614 4.82501 9
-14 24 -4 1.51487 5.7012 10
-14 -10 4 0.83686 3.46398 9
24 -14 4 4.26681 4.55323 7
-24 14 4 1.48561 5.70414 10
10 14 -4 0.37231 4.16386 11
10 -24 4 3.32447 4.16693 8
-9 -15 4 4.11474 5.48156 9
9 -24 -4 6.03481 4.25107 8
24 -15 -4 6.87901 4.72267 7
-15 -9 -4 6.22281 5.55699 9
15 -24 4 9.04521 4.73171 8
-24 9 4 6.7826 6.0776 10
-9 24 -4 1.54117 5.24818 10
9 -24 4 6.60773 3.49626 8
9 15 -4 7.9138 4.99472 11
24 -15 4 5.55555 4.65672 7
-15 24 -4 5.19127 6.04772 10
-24 15 4 11.8964 6.03399 10
16 -24 4 9.44185 4.76958 8
8 -24 -4 9.57591 4.34165 8
0 0 5 4.66541 7.05616 1
0 0 5 1.16142 10.5078 3
1 0 5 19.5868 7.16399 1
-1 0 5 34.4396 11.5747 3
1 -1 5 22.4861 7.27498 2
1 -1 5 6.73922 10.3944 3
0 1 5 19.3639 6.48096 1
-1 0 5 33.4923 7.82045 1
-1 1 5 23.3533 10.6044 3
0 -1 5 35.2017 9.05644 1
1 -1 5 26.8033 8.27853 1
0 -1 5 23.3563 7.79812 2
0 -1 5 28.8459 11.1086 3
-1 -1 5 147.537 17.9974 3
2 -1 5 133.44 13.7056 1
-1 2 5 154.183 18.2669 3
1 -2 5 147.163 16.2349 3
-1 -1 5 138.165 14.6126 1
1 1 5 113.567 10.658 1
-1 -1 -5 120.472 16.026 2
-1 -1 5 129.048 14.9874 2
1 -2 5 145.44 15.0318 1
-2 1 5 145.916 17.3808 3
1 -2 -5 125.664 15.7771 2
1 -2 5 135.977 14.014 2
0 -2 5 6.86036 9.10249 3
2 0 5 6.04199 4.94768 1
-2 0 -5 0.15093 3.21032 5
2 -2 5 3.97128 7.42759 1
-2 0 5 7.48856 10.0701 3
-2 0 5 5.61091 8.13205 2
0 -2 -5 0.81416 3.92965 4
0 2 5 9.0113 4.72424 1
2 -2 5 13.109 6.58893 2
0 -2 5 17.8872 8.60584 1
0 -2 5 4.77911 7.14826 2
-2 2 5 9.03004 10.3164 3
2 -2 -5 0.21152 3.5574 4
0 -2 -5 9.74331 10.4607 2
-1 -2 5 83.7748 13.3168 1
2 -3 5 93.7692 12.6544 2
-3 1 5 105.353 16.1115 3
-1 -2 5 104.524 14.6233 2
-2 3 5 105.193 17.2255 3
3 -2 -5 89.6503 14.6572 1
-2 -1 -5 94.2798 13.686 2
1 2 5 61.4617 10.7249 6
2 -3 5 91.3209 13.2306 3
2 -3 5 105.936 13.2001 1
1 -3 -5 103.297 16.3973 2
-1 -2 5 95.3281 15.8789 3
1 -3 -5 59.2815 10.0677 4
3 -2 5 65.0607 10.6869 1
2 -3 -5 52.2401 8.81063 4
-2 -1 5 82.8137 12.4637 1
-1 -2 -5 65.2351 13.1545 2
1 -3 5 87.4338 13.3188 3
-3 2 5 91.3431 16.3067 3
1 -3 5 87.9574 12.5372 1
3 -2 5 66.1082 9.69907 2
-2 -1 5 73.7191 13.9939 3
2 -3 -5 57.4214 10.0249 1
-2 -1 5 63.3908 11.5134 2
1 -3 5 80.3739 11.7421 2
2 -3 -5 67.9186 14.1934 2
-3 0 -5 16.7356 5.90516 5
3 0 -5 6.42789 4.95843 6
-3 3 5 26.9663 12.7735 3
0 -3 -5 28.8848 12.0221 2
0 -3 5 22.5848 10.5061 3
0 -3 5 16.0549 8.99747 1
3 -3 5 27.9443 8.46028 2
-3 0 5 34.5694 10.858 2
3 -3 5 12.4569 8.58304 1
0 -3 -5 5.21398 6.28488 4
-3 0 -5 18.8009 8.30703 2
3 -3 -5 9.60676 6.23831 4
3 -3 -5 20.6419 9.93437 1
0 -3 5 29.2997 9.92826 2
0 3 5 18.8974 6.46361 6
3 -3 -5 22.3127 10.4356 2
-3 0 5 24.4182 12.3813 3
-3 0 -5 23.2342 12.2045 3
4 -2 -5 140.903 18.5927 1
-4 2 -5 142.972 18.8727 3
2 -4 5 149.336 16.198 2
2 -4 -5 144.14 15.7586 1
-2 -2 -5 166.612 19.4186 2
4 -2 5 117.494 12.6569 2
4 -2 5 156.63 15.2769 1
2 -4 5 171.381 17.1188 1
2 -4 -5 154.48 14.7854 4
-2 -2 5 161.979 18.1297 1
-2 -2 -5 204.161 23.7096 3
2 -4 5 164.795 17.5961 3
-2 -2 5 150.986 17.235 2
2 2 5 155.458 15.3085 6
2 -4 -5 127.759 18.3639 2
-2 4 5 142.941 19.4786 3
-4 2 -5 149.932 13.1705 5
-2 -2 5 169.763 20.2037 3
-4 2 5 167.698 20.5843 3
-2 -2 -5 157.535 14.0586 5
-1 -3 5 15.5928 10.3848 2
3 -4 5 22.5676 8.17874 2
-3 4 5 29.4724 13.3282 3
-1 -3 5 19.4393 10.6218 1
3 -4 5 22.8585 9.35761 3
1 3 5 15.8442 8.04128 6
4 -1 5 13.9137 6.44823 1
-3 -1 -5 20.1488 6.96288 5
-3 -1 -5 9.31677 13.3826 3
1 -4 -5 25.3207 7.78548 4
-1 -3 5 16.8817 11.0101 3
-3 -1 -5 21.2436 9.8373 2
4 -3 -5 12.1776 11.3617 1
3 -4 5 20.1847 9.34219 1
1 -4 -5 21.949 13.2082 2
4 -3 -5 14.1369 6.67356 4
-4 1 5 14.7903 13.574 3
-4 1 5 21.1616 11.4679 2
-1 4 5 14.1047 6.69486 6
-4 3 5 29.9017 13.0785 3
-3 -1 5 25.6382 11.0992 2
4 -1 -5 32.1589 8.24473 6
-4 1 -5 29.7738 7.20487 5
3 -4 -5 21.9425 10.0919 1
3 1 5 18.7852 8.04839 6
3 -4 -5 24.2446 7.87748 4
3 -4 -5 29.0802 11.7459 2
4 -3 5 24.1804 8.52803 1
1 -4 5 30.3537 9.97405 1
-4 1 -5 21.0355 13.2808 3
-1 -3 -5 14.9381 12.3655 2
-1 -3 -5 26.7721 7.09746 5
-3 -1 5 37.0997 14.0949 3
4 -3 5 11.5825 5.68566 2
1 -4 5 19.4991 10.5795 3
1 -4 5 27.4932 9.42041 2
4 -4 -5 324.99 28.4516 1
0 -4 -5 268.95 22.4773 5
4 -4 -5 347.607 24.1767 4
-4 0 -5 334.764 31.6249 3
-4 0 -5 330.464 22.8266 5
0 4 5 270.592 23.7325 6
-4 0 5 341.573 26.9058 2
0 -4 5 301.219 27.0028 3
4 0 5 290.177 23.809 6
4 -4 -5 376.932 29.4031 2
-4 4 5 299.697 28.1248 3
-4 0 5 335.18 30.3002 3
0 -4 -5 239.122 22.5445 4
-4 0 -5 259.519 23.8834 2
4 0 -5 264.044 23.4537 6
0 -4 5 339.944 26.4708 2
0 -4 5 330.151 26.9689 1
4 -4 5 324.508 26.2036 1
-3 -2 -5 583.969 41.8568 5
2 3 5 605.035 43.1435 6
-3 -2 -5 731.653 50.8987 3
-2 -3 5 578.631 45.2789 1
3 -5 5 565.231 44.0434 3
3 -5 5 606.29 45.863 1
-3 5 5 602.947 47.5698 3
5 -2 5 509.644 43.0695 1
-2 -3 5 656.201 47.5324 3
-2 -3 5 612.194 45.7922 2
2 -5 -5 586.057 47.7513 2
-5 3 -5 573.562 47.1035 3
-5 2 5 679.663 49.2315 3
3 -5 5 523.295 43.277 2
5 -3 -5 601.132 47.5743 1
2 -5 -5 601.52 42.6197 4
-3 -2 -5 632.078 46.8443 2
-5 2 5 701.783 46.8793 2
5 -2 5 638.711 43.1884 4
-2 -3 -5 576.979 40.6207 5
-3 -2 5 619.179 45.05 1
-3 -2 5 623.174 46.7404 3
2 -5 5 588.301 42.9127 2
-3 -2 5 563.739 43.8144 2
2 -5 5 592.159 43.3865 3
3 -5 -5 595.861 46.173 2
3 -5 -5 550.324 40.7573 4
5 -2 -5 543.446 45.5102 1
5 -3 5 599.206 41.1987 4
-5 2 -5 562.221 46.7755 3
5 -2 -5 544.099 41.2595 6
-2 -3 -5 673.142 48.8015 3
-2 5 5 557.934 45.7389 3
3 -5 -5 582.923 44.1875 1
-5 2 -5 557.848 40.3289 5
2 -5 5 590.32 43.9946 1
5 -3 5 547.57 42.407 1
-2 -3 -5 606.31 46.1164 2
3 2 5 567.019 41.7534 6
-5 3 5 605.037 47.1677 3
4 -5 5 296.218 24.9133 1
1 -5 -5 251.189 20.5273 4
1 -5 -5 301.492 28.7228 2
4 1 -5 217.342 21.1935 6
-4 -1 -5 258.57 24.3842 2
-5 1 5 303.262 29.4862 3
5 -4 -5 282.896 27.4361 1
-4 5 5 268.447 27.629 3
-4 -1 -5 295.462 30.9815 3
-4 -1 -5 274.913 20.2711 5
-1 -4 5 257.837 25.5024 1
-1 -4 5 295.596 26.0814 3
-1 -4 5 279.833 24.9653 2
4 -5 5 255.867 22.5818 3
-5 1 5 281.539 25.0242 2
1 4 5 233.876 21.7383 6
1 -5 -5 240.428 20.6368 5
5 -4 -5 246.527 21.6246 4
-5 1 -5 349.548 24.9283 5
-5 4 5 345.853 32.0879 3
-1 -4 -5 339.336 30.809 2
-1 -4 -5 325.67 24.4422 5
-4 -1 5 332.515 32.4408 3
1 -5 5 347.754 27.7955 2
1 -5 5 295.111 27.7185 3
4 1 5 339.747 26.2523 6
5 -4 5 357.118 26.111 4
-4 -1 5 336.46 28.6486 2
4 -5 -5 342.92 30.0083 2
5 -4 5 344.27 27.8204 1
1 -5 5 304.877 28.471 1
4 -5 -5 312.342 25.08 4
4 -5 -5 366.829 31.0712 1
-5 1 -5 338.397 33.8726 3
5 -1 -5 312.483 25.6972 6
-1 5 5 264.063 25.0155 6
-5 0 -5 127.681 12.9264 5
5 -5 -5 114.277 17.8256 2
0 -5 -5 103.837 12.4367 5
5 -5 5 112.89 14.1141 4
0 5 5 75.5464 12.3803 6
5 0 5 96.2391 14.6186 6
5 -5 -5 106.933 14.1768 4
5 0 -5 92.8408 13.977 6
5 -5 -5 112.801 19.6926 1
0 -5 5 106.668 16.4421 3
-5 0 5 130.757 21.4539 3
-5 0 5 112.079 17.1783 2
5 -5 5 125.774 16.3881 1
0 -5 5 130.402 17.3275 2
0 -5 -5 127.527 21.2595 2
-5 0 -5 101.75 20.7763 3
0 -5 5 139.135 19.0209 1
-5 5 5 97.9796 17.7903 3
-3 -3 -5 2.18461 14.3996 2
-3 -3 -5 3.14093 16.0631 3
-3 6 5 7.92923 13.1918 3
3 -6 -5 5.90775 14.4029 2
3 -6 5 2.30506 8.52046 3
-3 -3 5 -4.7453 11.6321 1
3 3 -5 0.33738 5.05587 6
3 -6 -5 -1.211 11.1358 1
3 -6 5 -0.259 8.15676 2
3 -6 -5 6.50197 6.87066 5
3 -6 5 10.8281 11.2446 1
-6 3 5 -1.7479 14.6771 3
-3 -3 5 11.4909 12.8521 3
6 -3 -5 -2.6679 7.60003 4
6 -3 -5 2.94125 14.3728 1
-3 -3 -5 10.1702 6.9921 5
3 -6 -5 5.7428 7.76804 4
3 3 5 -0.4356 8.84078 6
6 -3 -5 5.39162 8.39953 6
6 -3 5 0.02495 9.26397 1
6 -3 5 1.68332 8.65436 4
-3 -3 5 1.13069 11.0708 2
-6 3 -5 -1.3188 13.8238 3
-2 -4 5 65.3448 14.7401 2
-2 -4 5 62.0211 15.4306 3
4 2 -5 45.7414 9.27657 6
-6 4 -5 74.5849 16.0701 3
2 -6 -5 82.3311 18.7753 2
-6 2 5 72.1906 17.7376 3
-4 -2 -5 55.6422 15.4852 2
-2 -4 5 64.8532 15.0197 1
-4 6 5 69.2463 16.3612 3
-4 -2 -5 78.5169 9.83077 5
6 -4 -5 54.057 9.86272 4
4 -6 5 76.3469 15.1788 1
6 -2 5 78.2556 11.5247 4
2 -6 -5 73.9499 10.1502 5
-6 2 5 87.2641 16.5484 2
2 -6 -5 82.2182 10.9804 4
6 -4 -5 75.7695 18.1952 1
2 4 5 58.144 10.8056 6
-4 -2 -5 65.9951 19.0072 3
6 -2 -5 49.5926 9.73595 6
-2 -4 -5 48.9705 17.08 2
4 -6 -5 49.8426 15.4341 1
-6 4 5 65.8769 18.394 3
-4 -2 5 57.1949 15.271 1
-2 6 5 48.3823 9.49122 6
6 -2 -5 57.4387 15.7277 1
6 -4 5 48.6036 11.7187 1
2 -6 5 32.4515 7.73634 5
6 -4 5 69.9937 11.2468 4
4 -6 -5 54.0177 15.5401 2
-2 -4 -5 52.5566 17.1444 3
-2 -4 -5 72.6714 9.6229 5
-6 2 -5 61.8584 18.9215 3
-4 -2 5 47.3394 15.8745 3
4 2 5 55.5103 10.329 6
2 -6 5 61.9716 13.488 1
2 -6 5 60.972 12.3166 2
-6 2 -5 67.1967 9.73123 5
4 -6 -5 61.7672 10.4421 4
-4 -2 5 65.6024 14.4711 2
6 -5 -5 374.404 28.9002 4
6 -1 5 373.008 28.492 6
1 -6 -5 383.538 28.0417 5
1 5 5 329.72 28.7559 6
-5 6 5 357.82 33.5139 3
-6 1 5 389.103 32.4972 2
1 -6 -5 405.308 35.3552 2
-1 -5 5 398.007 33.2462 1
5 -6 5 319.552 27.6425 4
-6 1 5 430.437 37.5052 3
-1 -5 5 404.193 32.8362 2
1 -6 -5 373.545 27.9139 4
5 -6 5 403.239 33.2043 1
6 -5 -5 397.541 35.4579 1
-5 -1 -5 400.101 38.538 3
6 -1 5 361.382 28.7271 4
-1 -5 5 357.223 32.805 3
-5 -1 -5 415.944 27.8658 5
5 1 -5 323.41 28.8002 6
-1 6 5 347.705 30.3768 6
6 -5 5 441.138 30.786 4
5 -6 -5 399.24 36.9695 1
-5 -1 5 421.52 38.635 3
-6 5 5 372.132 36.1217 3
-6 1 -5 406.401 39.8929 3
5 -6 -5 378.912 30.2322 4
-5 -1 5 417.81 35.5281 2
5 -6 -5 407.758 35.3534 2
6 -1 -5 400.162 31.345 6
5 1 5 400.19 31.0924 6
-1 -5 -5 422.91 29.5887 5
-1 -5 -5 415.914 38.3776 2
1 -6 5 397.971 34.3819 1
-1 -5 -5 448.067 38.8097 3
6 -5 5 411.854 33.852 1
1 -6 5 411.588 33.9238 2
-6 1 -5 443.554 30.1819 5
0 -6 5 21.2657 12.4134 1
6 -6 5 24.3858 9.24295 4
0 -6 5 34.2895 13.4325 2
6 0 5 21.3399 8.82448 4
0 -6 5 -2.355 9.91352 3
0 -6 -5 12.336 6.8416 5
6 -6 -5 18.3885 15.8287 1
-6 0 -5 17.0026 7.75791 5
0 -6 -5 11.0675 16.6405 2
-6 0 5 19.0011 13.536 2
6 -6 -5 23.6773 13.4972 2
-6 0 -5 30.7635 20.8346 3
6 -6 -5 28.2768 9.7523 4
0 6 5 21.017 8.65499 6
-6 6 5 7.13073 14.257 3
6 0 5 16.2224 9.76147 6
-6 0 5 33.1619 17.4081 3
6 0 -5 21.7147 9.59222 6
6 -6 5 20.4471 12.357 1
3 4 5 179.737 18.1545 6
7 -4 -5 155.067 17.7634 4
3 -7 -5 161.397 15.8154 5
7 -3 5 196.067 18.1639 4
-3 -4 5 176.485 20.6382 2
3 -7 -5 174.429 16.6831 4
-3 -4 5 170.752 22.5971 1
-4 7 5 184.616 24.9588 3
-4 -3 -5 122.214 22.6597 2
-3 -4 5 197.439 24.0783 3
7 -4 -5 158.069 25.0121 1
-4 -3 -5 186.291 15.8035 5
-7 3 5 177.908 27.1865 3
7 -4 -5 167.992 16.4226 6
-4 -3 -5 205.094 29.871 3
3 -7 -5 202.985 26.4615 2
4 3 -5 133.805 15.8989 6
-7 3 5 168.083 23.0175 2
4 -7 5 180.125 16.3018 5
4 -7 5 184.506 22.4499 1
-7 4 -5 162.506 24.4881 3
-3 -4 -5 273.293 29.9467 3
-3 -4 -5 242.753 29.0317 2
7 -4 5 257.887 22.2955 4
-4 -3 5 246.743 24.5157 2
4 -7 -5 279.358 29.8518 2
-4 -3 5 265.146 28.7925 3
7 -3 -5 245.497 29.1489 1
4 3 5 265.589 22.7517 6
3 -7 5 189.813 22.6401 2
-7 4 5 238.01 28.5215 3
-3 7 5 237.001 27.223 3
4 -7 -5 255.147 21.1664 4
7 -3 -5 224.116 21.4612 4
-7 3 -5 247.254 32.552 3
4 -7 -5 236.204 20.5065 5
-3 -4 -5 236.984 19.4593 5
3 -7 5 254.522 26.1133 1
3 -7 5 225.77 20.0145 5
7 -3 -5 250.607 21.8205 6
-4 -3 5 304.74 28.3625 1
2 5 5 19.263 9.24815 6
7 -5 -5 19.887 8.57294 4
-2 -5 5 20.8618 12.8509 3
5 2 -5 19.5238 9.77249 6
2 -7 -5 21.3427 15.5147 2
-7 2 5 24.6756 14.2307 2
5 -7 5 36.9218 14.6318 1
-2 -5 5 24.7572 14.2031 1
-2 -5 5 20.3525 12.7996 2
-7 2 5 21.9347 17.2114 3
2 -7 -5 31.1568 9.00395 5
-5 -2 -5 -1.6157 20.0863 2
-5 -2 -5 20.6316 7.25125 5
7 -2 5 23.5784 9.22585 6
-5 7 5 24.4583 16.0429 3
2 -7 -5 20.069 8.42429 4
7 -5 -5 11.5945 16.0529 1
-5 -2 -5 36.7875 20.5623 3
7 -2 5 27.5584 9.43221 4
-7 5 -5 2.62364 13.2558 3
7 -2 -5 -2.8151 12.4077 1
2 -7 5 4.74216 11.9442 1
-7 5 5 -10.386 16.3935 3
5 -7 -5 5.86905 16.5857 1
-2 -5 -5 -3.8455 16.9041 2
5 2 5 20.1281 9.37695 6
2 -7 5 -0.3607 7.11948 5
7 -2 -5 3.47439 6.34084 4
-7 2 -5 4.7967 7.06069 5
-2 -5 -5 12.9252 7.60863 5
-5 -2 5 8.46531 12.4458 1
-2 -5 -5 7.60813 15.6566 3
5 -7 -5 -1.3738 6.96966 5
7 -2 -5 4.57316 9.25196 6
-7 2 -5 15.2223 18.5143 3
-5 -2 5 8.20247 13.97 3
5 -7 -5 11.425 8.85817 4
7 -5 5 11.9203 11.4336 1
2 -7 5 15.3886 11.0001 2
-5 -2 5 17.2658 12.8154 2
-2 7 5 1.08403 7.15824 6
7 -5 5 13.6203 9.48334 4
5 -7 -5 -0.0585 15.3353 2
7 -6 -5 545.314 47.3667 1
1 -7 -5 547.287 47.0947 2
6 -7 5 557.564 43.9958 1
-6 7 5 541.335 46.2874 3
6 1 -5 478.674 39.2689 6
-7 1 5 547.806 44.5933 2
7 -6 -5 569.49 39.7598 4
-1 -6 5 567.68 44.4038 1
-7 1 5 544.597 47.0235 3
1 6 5 481.11 39.1134 6
-1 -6 5 521.407 43.5073 2
-6 -1 -5 549.616 38.0423 5
6 -7 5 559.472 39.0885 4
-6 -1 -5 582.666 51.8708 3
1 -7 -5 497.699 38.2484 5
7 -1 5 512.826 39.192 4
7 -1 5 551.737 39.8137 6
6 -7 -5 586.132 41.947 4
-7 6 5 567.315 49.2781 3
-1 -6 -5 643.833 50.0283 3
7 -6 5 640.873 42.2998 4
-1 7 5 522.907 41.5951 6
-1 -6 -5 624.051 41.1167 5
6 -7 -5 536.085 46.2645 2
7 -6 5 485.012 44.8331 1
-7 1 -5 567.856 51.8614 3
6 -7 -5 457.52 47.755 1
-6 -1 5 606.911 50.1286 3
1 -7 5 563.14 45.9906 1
-6 -1 5 632.762 46.725 2
6 1 5 533.816 41.7735 4
6 1 5 629.502 42.7839 6
-1 -6 -5 563.685 49.366 2
-7 1 -5 657.193 41.3721 5
7 -1 -5 608.361 42.8565 6
1 -7 5 530.638 44.9809 2
7 0 5 126.749 15.8469 6
-7 0 5 148.176 25.4097 3
7 0 -5 133.273 16.2414 6
7 -7 -5 73.783 21.0562 1
0 -7 -5 115.179 22.8415 2
0 -7 -5 142.722 14.5462 5
0 -7 5 127.583 19.3764 1
-7 7 5 129.04 23.3329 3
0 -7 5 124.702 19.9913 2
7 0 5 120.051 15.6762 4
7 -7 5 107.123 18.8695 1
7 -7 -5 145.81 22.4153 2
-7 0 -5 138.092 13.8868 5
0 7 5 123.795 16.019 6
-7 0 -5 139.822 29.6192 3
-7 0 5 131.512 22.1257 2
7 -7 5 140.305 16.6324 4
7 -7 -5 119.464 14.979 4
-4 -4 5 576.882 44.029 1
4 -8 5 549.815 37.5048 5
4 -8 -5 561.81 45.4733 2
-4 8 5 439.191 44.0235 3
-8 4 5 507.849 43.7148 2
4 -8 -5 511.946 37.6814 4
-8 4 5 505.817 47.2485 3
-4 -4 -5 523.681 37.0792 5
8 -4 -5 493.705 46.1717 1
4 4 5 494.193 38.9055 6
8 -4 -5 522.388 38.5639 6
-4 -4 5 449.428 44.0747 3
4 -8 -5 509.955 37.9298 5
-4 -4 5 500.665 43.0625 2
-4 -4 -5 589.41 49.4748 3
8 -4 -5 517.685 38.8208 4
8 -4 5 603.614 39.1583 4
4 -8 5 503.031 42.8631 1
5 -8 5 82.4717 17.6861 1
-8 3 5 67.7444 15.9389 2
-3 -5 5 89.2339 19.7996 1
-3 -5 5 81.6352 17.1819 2
3 5 5 91.9907 13.2541 6
-3 -5 5 42.6501 16.0862 3
5 3 -5 61.6334 12.0227 6
3 -8 -5 82.5854 21.2813 2
8 -5 -5 71.3003 11.539 6
-5 -3 -5 78.315 24.5697 3
8 -3 5 69.1006 11.0746 4
8 -5 -5 54.1121 18.5245 1
-5 -3 -5 74.6556 9.99492 5
-5 8 5 41.0223 16.3374 3
3 -8 -5 77.7858 11.5591 5
-8 3 5 60.4297 19.1424 3
8 -5 -5 57.7798 11.7035 4
5 -8 5 82.2204 10.97 5
3 -8 -5 65.697 10.4984 4
-3 -5 -5 109.063 11.6969 5
-5 -3 5 67.5665 19.7284 3
-5 -3 5 82.7079 17.8121 1
5 -8 -5 104.421 21.7468 2
-5 -3 5 92.9035 18.5756 2
-3 -5 -5 46.27 20.4492 2
3 -8 5 74.7761 10.6915 5
8 -3 -5 110.357 13.9664 6
5 -8 -5 81.3675 13.1998 4
-3 -5 -5 69.1276 20.5021 3
5 3 5 107.798 14.1843 6
8 -3 -5 81.6829 13.0575 4
8 -3 -5 50.2158 17.7304 1
-3 8 5 54.0381 18.1487 3
-8 3 -5 65.0804 24.9953 3
8 -5 5 84.4217 12.1976 4
5 -8 -5 83.4276 12.012 5
3 -8 5 96.8545 17.9558 1
-8 5 5 100.468 23.6034 3
2 -8 -5 435.304 35.9824 4
2 6 5 503.151 37.8202 6
-2 -6 5 513.218 42.4497 1
8 -6 -5 434.372 44.9878 1
-6 -2 -5 514.634 35.9445 5
2 -8 -5 520.619 36.8684 5
6 -8 5 535.989 36.2839 5
8 -2 5 518.48 37.6541 6
-8 2 5 527.258 43.5982 2
-6 -2 -5 582.939 50.0287 3
-2 -6 5 520.026 42.8848 2
8 -6 -5 475.731 37.3246 4
6 2 -5 509.349 38.8205 6
6 -8 5 493.991 42.9019 1
8 -2 5 526.239 37.7921 4
-8 2 5 506.257 45.5269 3
2 -8 -5 480.863 45.817 2
6 -8 -5 528.975 43.3683 2
-2 -6 -5 511.931 35.1066 5
8 -2 -5 480.492 36.2383 6
6 -8 -5 488.167 35.8268 4
-8 2 -5 432.045 48.6436 3
8 -6 5 516.536 36.5382 4
2 -8 5 434.202 40.1235 1
6 2 5 504.666 36.4401 6
8 -2 -5 427.433 43.1533 1
-6 -2 5 470.217 43.5274 3
2 -8 5 520.48 34.8048 5
-6 -2 5 464.376 40.1179 2
-8 6 5 424.296 44.1415 3
6 2 5 456.313 35.3233 4
-2 -6 -5 481.585 43.2763 3
-1 -7 5 109.023 20.0321 2
-1 -7 5 162.473 23.9553 1
-8 1 5 115.094 20.9991 2
8 -1 5 161.708 17.0255 4
8 -7 -5 168.15 18.1873 4
-8 1 5 129.504 24.596 3
1 7 5 156.039 17.6663 6
-7 -1 -5 112.888 28.6672 3
-7 -1 -5 168.173 15.208 5
7 -8 5 162.207 17.9929 4
8 -1 5 141.978 17.4967 6
1 -8 -5 137.313 24.7788 2
7 -8 5 162.405 15.6489 5
1 -8 -5 155.557 16.1101 5
7 -8 5 119.675 21.1965 1
7 1 -5 158.517 18.1477 6
1 -8 5 99.1055 20.0589 2
7 1 5 153.909 18.3944 6
-1 8 5 136.362 16.9191 6
-7 -1 5 173.711 29.3945 3
7 1 5 163.882 17.0647 4
-8 1 -5 167.334 15.9987 5
8 -1 -5 175.493 19.427 6
-1 -7 -5 161.534 15.5468 5
8 -7 5 154.812 16.9915 4
7 -8 -5 157.855 17.286 4
1 -8 5 158.751 23.0571 1
-1 -7 -5 140.91 24.6503 3
-8 1 -5 164.908 32.1638 3
-7 -1 5 149.399 22.443 2
7 -8 -5 147.822 22.8674 2
-8 0 -5 23.1343 23.6054 3
0 -8 -5 50.0419 9.82607 5
8 0 5 24.0273 10.0626 6
8 0 -5 43.1176 12.4762 6
0 -8 5 -0.0047 15.3188 2
8 0 5 21.3264 9.57462 4
0 -8 5 15.2809 14.4638 1
8 -8 5 1.79814 15.6401 1
0 8 5 31.4542 10.0539 6
8 -8 -5 36.6864 11.3456 4
-8 0 5 23.0935 18.1156 2
8 -8 -5 17.7198 16.1416 2
-8 0 -5 37.4707 8.66917 5
-8 0 5 18.8858 18.94 3
8 -8 5 32.5132 10.8687 4
0 -8 -5 8.59052 19.5345 2
-4 -5 5 262.642 29.1151 2
4 -9 -5 298.228 24.0017 4
-5 -4 -5 296.199 22.9187 5
5 -9 5 296.606 23.7985 5
4 -9 -5 286.155 23.7449 5
4 5 5 310.919 26.0387 6
-5 -4 -5 297.086 36.6789 3
4 -9 -5 321.135 35.063 2
-4 -5 5 309.157 33.8546 1
9 -5 -5 316.426 26.2702 4
9 -5 -5 305.345 24.131 6
-9 4 5 215.165 31.7532 3
-9 4 5 227.93 28.43 2
9 -4 5 314.117 25.3981 4
5 -9 5 280.981 30.5722 1
5 4 -5 303.434 26.3309 6
-5 -4 5 347.339 34.5883 2
-4 -5 -5 369.671 28.3911 5
-9 5 5 282.718 37.3907 3
9 -5 5 471.338 31.4759 4
9 -4 -5 408.457 31.3452 4
9 -4 -5 380.563 30.4184 6
5 4 5 387.716 30.5169 6
5 -9 -5 414.238 40.2394 2
-9 5 5 288.27 33.3735 2
5 -9 -5 409.405 30.2922 5
9 -4 -5 312.458 37.938 1
-4 -5 -5 390.019 39.8918 3
4 -9 5 409.059 29.151 5
4 -9 5 349.327 35.3879 1
-5 -4 5 434.862 38.5054 1
5 -9 -5 407.842 29.788 4
3 6 5 268.675 23.6757 6
3 -9 -5 261.767 33.7768 2
6 -9 5 206.727 28.5334 1
-3 -6 5 239.474 28.826 2
-9 3 5 203.612 32.7314 3
-9 3 5 171.658 25.9446 2
9 -3 5 237.812 22.4684 6
-3 -6 5 250.176 30.9341 1
9 -3 5 260.166 22.6662 4
6 3 -5 257.242 24.5555 6
3 -9 -5 268.25 21.9841 5
-6 -3 -5 260.595 20.3352 5
9 -6 -5 265.714 23.705 4
-6 -3 -5 271.396 39.7111 3
6 -9 5 234.347 20.3794 5
3 -9 -5 258.656 21.0118 4
9 -6 -5 264.986 22.1904 6
-3 -6 -5 230.773 33.4476 3
6 3 5 319.384 24.9815 6
-6 -3 5 287.864 31.9901 1
9 -6 5 264.162 23.8963 4
-6 -3 5 257.656 29.9216 2
6 -9 -5 248.587 22.6714 5
9 -3 -5 208.246 30.7219 1
9 -3 -5 296.089 24.1521 4
3 -9 5 222.732 28.3672 1
9 -3 -5 247.271 23.8665 6
-6 -3 5 195.034 32.8021 3
6 -9 -5 257.151 22.552 4
6 -9 -5 264.09 31.7141 2
-3 -6 -5 259.17 21.2564 5
3 -9 5 284.643 21.7011 5
9 -2 5 115.85 15.999 6
-2 -7 5 61.6765 18.3713 2
-2 -7 5 73.5815 20.7877 1
-7 -2 -5 109.275 12.5465 5
9 -7 -5 135.683 16.3264 4
2 7 5 97.6656 16.1994 6
-9 2 5 54.7711 22.7657 3
7 -9 5 103.394 15.2995 4
2 -9 -5 104.445 13.2941 5
7 2 -5 136.697 17.2813 6
9 -2 5 122.964 15.7336 4
-7 -2 -5 83.4539 28.7175 3
7 -9 5 113.073 13.0321 5
-7 -2 5 57.3119 21.03 3
9 -2 -5 41.7315 19.2621 1
2 -9 5 59.8982 15.6231 1
7 -9 -5 105.166 14.1981 4
9 -7 5 110.787 15.6549 4
7 2 5 97.6765 13.5043 4
7 -9 -5 78.6809 20.0593 2
-2 -7 -5 -0.6288 26.5398 2
-7 -2 5 69.4946 17.0947 2
-9 2 -5 -2.5012 27.3284 3
1 -9 -5 113.999 14.624 5
8 -9 5 109.626 14.485 5
-8 -1 -5 90.4493 12.585 5
9 -1 5 106.993 15.3406 4
9 -1 5 105.018 16.341 6
9 -8 -5 113.6 17.2683 4
-9 1 5 38.5301 23.1659 3
8 -9 5 107.526 16.3103 4
8 1 -5 112.044 16.2918 6
1 8 5 105.149 16.6469 6
-1 9 5 77.0181 12.9097 6
-1 -8 -5 90.5721 13.2364 5
-9 1 -5 100.935 12.946 5
8 1 5 96.6323 15.108 4
9 -1 -5 121.976 15.9139 6
8 1 5 133.883 16.5103 6
9 -8 5 125.221 15.5832 4
1 -9 5 64.8394 10.9494 5
8 -9 -5 102.39 14.3429 4
-9 0 -5 529.022 37.9773 5
9 -9 5 529.872 39.9965 4
9 0 5 490.444 40.0875 6
9 -9 -5 559.883 40.2938 4
0 -9 -5 572.007 38.6464 5
0 9 5 513.862 39.9425 6
9 0 5 524.767 39.4493 4
9 0 -5 509.825 41.3579 6
9 -9 5 505.155 38.6403 5
10 -5 -5 99.2513 15.6915 4
5 -10 5 110.984 12.7254 5
5 -10 -5 83.6717 12.5683 4
10 -5 -5 101.241 14.2239 6
10 -5 5 106.924 16.2457 4
-5 -5 -5 82.3543 12.108 5
5 5 5 95.6907 14.4994 6
5 5 -5 76.6203 14.5888 6
5 -10 -5 83.7901 13.243 5
6 -10 5 74.3314 11.1307 5
10 -4 5 66.9187 13.1799 4
4 -10 -5 67.6203 11.0951 4
-6 -4 -5 -3.2518 22.9184 3
4 -10 -5 -2.4786 21.0762 2
6 4 -5 69.8865 14.7717 6
10 -6 -5 58.5386 11.3824 6
4 6 5 70.7545 13.3713 6
-10 4 5 3.48606 24.3131 3
4 -10 -5 70.1195 12.1868 5
10 -6 -5 96.7533 15.1012 4
-6 -4 -5 55.9288 9.22637 5
10 -4 -5 30.3596 10.2172 6
10 -4 -5 -1.7134 18.5774 1
10 -4 -5 45.2978 12.7364 4
-6 -4 5 1.85448 16.3093 2
6 4 5 46.5796 12.3204 6
6 -10 -5 33.9237 10.2954 5
-4 -6 -5 48.7467 9.20847 5
-6 -4 5 -4.0857 16.7343 1
4 -10 5 -0.1583 18.3286 1
6 -10 -5 4.51594 20.0548 2
4 -10 5 47.6395 9.75445 5
10 -6 5 38.9198 10.9764 4
6 -10 -5 47.6496 10.7172 4
3 -10 -5 110.069 15.4749 5
10 -3 5 125.133 17.0435 4
7 3 -5 119.829 19.5826 6
10 -3 5 113.437 16.1935 6
7 -10 5 121.106 15.3679 5
-7 -3 -5 105.684 13.0134 5
3 -10 -5 -0.7366 38.379 2
3 7 5 121.931 17.9599 6
10 -7 -5 163.074 18.5515 4
3 -10 5 91.0013 13.992 5
10 -7 5 129.711 16.1255 4
7 3 5 130.725 16.5908 6
-3 -7 -5 97.423 13.5277 5
10 -3 -5 104.969 16.65 4
7 -10 -5 92.1499 15.3198 4
7 -10 -5 107.634 14.6072 5
10 -3 -5 106.749 15.3797 6
2 8 5 318.764 28.2837 6
10 -8 -5 311.324 27.5634 4
8 -10 5 284.469 27.0323 4
10 -2 5 322.787 27.5827 4
8 -10 5 338.025 25.4795 5
10 -2 5 316.862 27.558 6
-8 -2 -5 326.208 24.978 5
2 -10 -5 323.159 25.6416 5
8 2 -5 341.339 30.0343 6
10 -2 -5 259.746 24.4543 6
10 -8 5 211.141 22.5146 4
-2 -8 -5 232.224 20.3945 5
8 2 5 230.776 23.6955 6
2 -10 5 233.91 20.0948 5
8 -10 -5 226.871 21.9993 4
1 -10 -5 106.036 14.827 5
10 -9 -5 103.956 15.8536 4
1 9 5 84.3082 14.8657 6
9 -10 5 116.49 15.8496 4
-9 -1 -5 80.6005 12.5397 5
10 -1 5 113.93 15.7955 4
9 1 -5 102.921 17.0672 6
10 -1 5 110.319 16.2198 6
9 -10 5 120.252 13.7611 5
10 -9 5 88.8852 14.4896 4
9 -10 -5 135.316 16.6055 4
-1 -9 -5 101.776 13.6964 5
9 1 5 97.7917 13.952 4
10 -9 5 96.8421 14.6714 5
1 -10 5 72.596 11.1328 5
10 0 5 134.742 17.5653 4
-10 0 -5 117.863 14.2798 5
10 0 5 143.34 19.2014 6
0 10 5 91.236 15.2686 6
10 -10 -5 144.23 19.2194 4
0 -10 -5 146.389 15.957 5
10 -10 5 117.015 15.5461 5
10 -10 5 129.169 18.551 4
10 0 -5 143.36 19.0732 6
11 -6 -5 190.399 21.9745 4
-6 -5 -5 187.84 17.3922 5
5 -11 -5 176.421 19.7579 5
6 5 -5 201.696 23.6126 6
6 -11 5 179.425 18.0942 5
11 -6 -5 211.608 20.2426 6
5 -11 -5 171.167 18.126 4
5 6 5 174.669 20.8318 6
11 -5 5 181.438 20.5358 4
11 -5 -5 207.386 23.1145 4
6 5 5 205.295 22.072 6
-5 -6 -5 171.889 17.9496 5
6 -11 -5 206.964 19.7148 4
5 -11 5 205.681 19.0735 5
5 6 -5 198.432 22.0193 6
11 -6 5 223.92 22.2346 4
11 -5 -5 196.818 20.9815 6
-7 -4 -5 124.956 14.6022 5
11 -7 -5 148.997 17.4628 6
7 4 -5 163.505 20.8314 6
7 -11 5 137.165 14.7048 5
4 7 5 129.783 18.1367 6
11 -7 -5 141.512 19.7248 4
11 -4 5 108.297 16.613 6
4 -11 -5 119.991 16.1902 5
11 -4 5 134.27 18.1031 4
7 -11 -5 181.317 20.3235 4
11 -4 -5 204.634 21.8078 6
11 -4 -5 224.529 23.3071 4
7 -11 -5 176.601 20.4467 5
11 -7 5 209.264 21.9677 4
7 4 5 186.929 22.1287 6
4 -11 5 202.378 19.2456 5
-4 -7 -5 204.281 18.4933 5
8 3 -5 171.083 23.4792 6
11 -3 5 173.409 19.5885 6
3 8 5 160.518 19.9129 6
11 -3 5 185.294 20.0172 4
-8 -3 -5 156.474 16.3957 5
8 -11 5 186.964 17.6104 5
11 -8 -5 164.344 21.0733 4
3 -11 -5 170.117 17.3581 5
11 -3 -5 195.101 21.7104 4
3 -11 5 220.122 19.7 5
11 -8 5 232.525 22.8514 4
8 -11 -5 206.411 21.2026 4
8 3 5 236.992 23.1388 6
11 -3 -5 205.846 21.7953 6
-3 -8 -5 220.866 19.6312 5
8 -11 -5 166.722 20.7824 5
11 -2 5 175.122 20.9143 6
11 -2 5 167.564 20.5409 4
9 -11 5 173.752 19.8955 4
9 2 -5 199.329 24.3216 6
11 -9 -5 199.483 22.1271 4
9 -11 5 177.154 18.4693 5
-9 -2 -5 183.88 16.9641 5
2 9 5 192.566 21.8283 6
2 -11 -5 214.201 19.7865 5
2 -11 5 175.738 17.9129 5
9 2 5 183.11 22.0951 6
-2 -9 -5 189.495 18.3532 5
11 -9 5 189.943 19.2805 5
11 -9 5 182.912 21.3225 4
11 -2 -5 171.845 22.166 6
9 -11 -5 174.894 20.378 4
10 1 -5 2.46648 12.1128 6
1 10 5 -5.4689 11.0221 6
11 -1 5 5.50718 11.4599 6
11 -10 -5 2.91689 11.4547 4
10 -11 5 5.49654 10.3965 4
-10 -1 -5 2.15134 7.35648 5
10 -11 5 6.57232 7.76337 5
1 -11 -5 -9.7296 7.6858 5
11 -1 5 -2.6216 10.9148 4
11 -10 5 9.84652 8.72476 5
11 -1 -5 12.7189 12.9509 6
-1 -10 -5 17.8888 9.24528 5
1 -11 5 2.96375 7.17381 5
10 1 5 9.37114 9.54671 4
10 -11 -5 21.7314 12.4584 4
11 -10 5 6.60684 11.1248 4
10 1 5 17.3357 12.0209 6
11 0 5 15.5152 12.626 6
11 -11 5 5.50224 10.9866 4
0 -11 -5 17.6685 8.62226 5
11 0 5 18.7924 11.6626 4
11 -11 -5 10.8559 11.9935 4
11 -11 5 24.8685 10.2568 5
11 0 -5 23.5283 13.5301 6
12 -6 -5 26.2854 11.4288 6
6 6 -5 29.769 14.2069 6
12 -6 -5 19.2552 12.7973 4
6 -12 5 26.3983 9.92334 5
6 -12 -5 26.6324 9.70146 4
12 -6 5 29.9028 12.2305 4
6 6 5 18.7408 11.5182 6
6 -12 -5 24.0413 11.5752 5
-6 -6 -5 11.4474 8.3848 5
12 -7 -5 71.2135 15.9222 4
-7 -5 -5 75.5409 11.167 5
5 -12 -5 64.2277 12.028 5
5 7 5 61.4713 13.7469 6
12 -7 -5 84.2197 13.7359 6
12 -5 5 80.955 14.9613 4
7 -12 5 79.3188 12.0433 5
7 5 -5 49.1083 16.0558 6
7 -12 -5 46.3339 11.7583 4
12 -5 -5 53.3222 12.7663 6
7 5 5 68.2612 13.8526 6
12 -5 -5 46.191 14.7218 4
7 -12 -5 49.8499 13.0409 5
5 -12 5 57.0805 11.4243 5
-5 -7 -5 56.0835 10.7725 5
12 -7 5 57.2445 13.3812 4
8 -12 5 110.076 15.4959 5
12 -4 5 107.364 16.6814 6
-8 -4 -5 112.321 14.3233 5
8 4 -5 152.367 21.0102 6
12 -8 -5 151.223 19.456 4
4 8 5 95.1807 16.1227 6
4 -12 -5 151.772 16.696 5
12 -4 5 113.037 18.839 4
12 -4 -5 68.482 13.3238 6
-4 -8 -5 65.8255 10.8456 5
4 -12 5 54.3028 11.2441 5
12 -4 -5 74.8403 15.5185 4
8 -12 -5 82.5719 13.6907 4
8 -12 -5 54.5505 12.6031 5
8 4 5 83.1078 14.9682 6
12 -8 5 72.8732 13.944 4
12 -3 5 32.3578 11.7673 6
3 9 5 41.8796 13.3775 6
9 -12 5 52.2943 11.1027 5
-9 -3 -5 28.2795 8.44497 5
12 -3 5 43.6949 13.3881 4
9 3 -5 42.113 15.9727 6
3 -12 -5 42.8686 11.0317 5
12 -9 -5 41.7542 14.0731 4
9 3 5 12.6308 12.047 6
-3 -9 -5 11.7369 8.96437 5
9 -12 -5 5.63823 10.0553 5
12 -3 -5 21.3229 12.5228 6
12 -9 5 8.24762 9.57994 5
3 -12 5 3.65966 8.65942 5
12 -9 5 -0.3944 11.751 4
9 -12 -5 7.0285 11.0502 4
10 -12 5 86.4921 14.2935 4
12 -2 5 80.955 14.7955 6
2 10 5 76.8266 15.0221 6
12 -10 -5 110.705 17.807 4
2 -12 -5 109.877 14.3503 5
12 -2 5 50.9864 13.9705 4
10 2 -5 97.6243 18.1915 6
10 -12 5 105.463 13.5278 5
12 -10 5 43.8179 13.0792 4
10 2 5 74.6231 15.1497 6
12 -2 -5 62.5727 14.537 6
12 -10 5 67.9865 12.2931 5
10 -12 -5 64.7965 13.8449 4
-2 -10 -5 44.3344 10.5555 5
2 -12 5 44.256 10.7186 5
12 -1 5 150.181 20.4335 6
1 -12 -5 147.888 16.5915 5
11 -12 5 138.958 17.0596 5
12 -1 5 139.591 20.7747 4
11 1 -5 172.507 23.1621 6
12 -11 -5 157.135 21.5731 4
11 -12 5 140.467 20.2728 4
12 -11 5 151.571 20.5613 4
11 -12 -5 162.742 21.0748 4
12 -1 -5 171.39 23.3548 6
-1 -11 -5 161.634 17.8291 5
11 1 5 160.741 22.0714 6
12 -11 5 144.585 18.4965 5
12 -12 -5 2.77134 12.8088 4
12 0 5 -11.564 11.2191 6
12 -12 5 1.44983 8.76289 5
12 0 -5 6.1972 13.9098 6
0 -12 -5 2.81042 8.76055 5
12 0 5 5.73837 9.83127 4
12 -12 5 -4.426 11.3771 4
13 -7 -5 38.9206 12.0889 6
13 -7 -5 44.995 14.3595 4
7 -13 5 52.2878 10.816 5
13 -6 5 33.0093 12.4415 4
7 6 -5 41.1362 16.4396 6
6 7 5 24.916 12.3398 6
6 -13 -5 50.9318 12.9636 5
-7 -6 -5 46.5556 10.0671 5
13 -6 -5 74.0163 16.4437 4
-6 -7 -5 57.6313 11.3151 5
6 -13 5 65.1827 11.5976 5
7 -13 -5 39.1466 12.6542 5
13 -7 5 56.906 14.0092 4
13 -6 -5 74.0261 14.2987 6
7 -13 -5 59.4968 11.7147 4
7 6 5 61.9017 15.0023 6
13 -5 5 85.0262 15.6911 4
8 -13 5 89.6704 12.6091 5
13 -8 -5 84.2882 16.6745 4
-8 -5 -5 69.5559 10.9722 5
8 5 -5 75.7287 17.7002 6
5 8 5 56.1828 14.0016 6
5 -13 -5 68.5154 12.8392 5
13 -8 5 110.646 16.8151 4
-5 -8 -5 73.9658 12.4279 5
5 -13 5 89.8045 13.6558 5
13 -8 5 78.994 13.4433 5
8 -13 -5 113.115 16.0068 5
13 -5 -5 105.726 18.3003 4
13 -5 -5 100.419 16.2161 6
8 5 5 119.272 17.2432 6
8 -13 -5 103.022 15.0027 4
13 -9 -5 63.8304 14.9508 4
13 -4 5 71.6353 12.8956 6
9 -13 5 111.485 14.2734 5
4 -13 -5 74.7323 13.3886 5
4 9 5 60.992 14.4279 6
9 4 -5 76.8896 18.6402 6
13 -4 5 59.0936 14.0581 4
4 -13 5 101.576 15.8206 5
9 -13 -5 119.954 18.5259 4
13 -4 -5 89.0434 16.6826 4
13 -4 -5 127.321 19.5964 6
9 4 5 123.27 20.3026 6
9 -13 -5 94.0987 15.1164 5
13 -9 5 119.529 16.8471 5
13 -9 5 151.214 18.7424 4
-4 -9 -5 122.932 16.3128 5
3 -13 -5 126.012 16.9098 5
13 -3 5 114.179 16.5161 6
10 -13 5 133.445 15.4132 5
3 10 5 75.2257 15.7046 6
13 -10 -5 110.598 17.4285 4
13 -3 5 101.754 16.7797 4
10 3 -5 147.875 21.0271 6
13 -3 -5 125.111 20.5094 6
13 -10 5 123.021 20.1114 4
10 -13 -5 125.934 19.1306 4
-3 -10 -5 119.011 16.4396 5
13 -10 5 111.978 15.3812 5
10 3 5 123.34 17.7159 6
3 -13 5 112.995 16.3804 5
11 -13 5 23.9844 9.99585 5
11 2 -5 8.90121 14.4609 6
11 -13 5 16.3451 10.7609 4
13 -2 5 12.3156 12.9733 4
2 11 5 2.028 10.5982 6
13 -11 -5 12.0134 12.56 4
2 -13 -5 16.3837 11.1462 5
13 -2 5 13.4914 12.0436 6
13 -11 5 13.6599 12.0109 4
2 -13 5 11.2714 9.5814 5
13 -11 5 6.41504 10.2168 5
11 -13 -5 -0.3565 12.0766 4
-2 -11 -5 1.69276 9.09576 5
13 -2 -5 8.77416 13.6425 6
11 2 5 3.17624 11.9086 6
13 -1 5 11.7022 11.6203 4
12 -13 5 23.5936 10.3629 5
12 1 -5 27.3425 15.2422 6
-13 1 5 5.34944 6.25061 10
13 -12 -5 46.0563 14.8579 4
13 -1 5 29.0557 13.3632 6
1 -13 -5 34.8912 11.0482 5
12 -13 5 17.0577 12.0204 4
12 1 5 35.47 12.4987 6
-1 -12 -5 41.8176 11.1227 5
13 -12 5 43.7151 11.4034 5
13 -12 5 21.8905 12.1558 4
12 -13 -5 43.2868 14.5656 4
13 -1 -5 81.2874 16.6583 6
13 -13 -5 15.3645 7.56848 7
13 -13 5 35.5989 13.7771 4
0 13 -5 18.9021 6.65477 10
13 -13 5 35.8585 11.1972 5
0 13 5 3.66873 5.66021 11
13 0 -5 41.6359 16.3136 6
0 -13 -5 37.824 10.9599 5
13 -13 -5 43.2077 14.9933 4
13 0 5 34.3267 14.0086 6
0 -13 -5 21.6677 6.22686 8
-13 0 -5 21.3038 7.85016 9
7 7 5 0.41039 11.6758 6
7 -14 5 8.58994 10.1468 5
14 -7 5 -15.008 11.4132 4
7 -14 -5 6.27279 11.4461 5
-7 -7 -5 5.19563 9.01409 5
7 7 -5 3.11546 14.7505 6
14 -7 -5 -0.6648 11.2978 6
14 -7 -5 -8.497 13.228 4
7 -14 -5 1.39545 12.4573 4
8 -14 5 10.4294 8.77558 5
14 -6 5 -3.4913 12.1431 4
14 -8 -5 9.77601 13.4931 4
14 -8 -5 3.63886 11.3304 6
8 6 -5 12.8705 16.4281 6
6 8 5 -0.4491 12.2771 6
6 -14 -5 0.57116 11.0862 5
-8 -6 -5 7.51823 8.07108 5
8 6 5 -0.694 12.1812 6
-6 -8 -5 9.97547 9.52496 5
14 -8 5 8.97097 9.87147 5
14 -8 5 2.59828 11.7958 4
6 -14 5 2.1448 9.7056 5
8 -14 -5 1.49101 9.43642 4
14 -6 -5 3.08101 11.3406 6
14 -6 -5 6.07789 13.9524 4
8 -14 -5 2.52257 11.7994 5
5 9 5 12.2343 12.4014 6
9 5 -5 31.2289 17.3639 6
-9 -5 -5 -0.2793 6.5666 5
14 -5 5 7.29096 12.0574 4
14 -9 -5 31.1091 14.2582 4
5 -14 -5 16.423 10.8529 5
9 -14 5 18.8005 9.79514 5
14 -5 5 1.25628 8.79958 6
14 -5 -5 13.2158 13.4202 4
14 -9 5 35.5247 13.9836 4
5 -14 5 17.213 10.0084 5
14 -5 -5 27.0066 12.8538 6
9 5 5 10.1941 11.7508 6
14 -9 5 15.5165 10.5867 5
14 -9 5 5.82847 6.84672 7
9 -14 -5 23.4904 11.8606 4
9 -14 -5 15.3911 11.3 5
-5 -9 -5 11.0622 9.9714 5
-5 14 5 -0.0825 7.03837 11
10 4 -5 4.41001 16.1482 6
4 -14 -5 -6.0365 5.33181 8
14 -10 -5 -6.0315 7.61119 7
-4 14 -5 2.43633 4.45944 10
4 10 5 11.5469 12.4811 6
14 -4 5 6.23 12.6317 4
4 -14 -5 10.5394 10.3767 5
10 -14 5 5.54313 9.37222 5
14 -10 -5 10.2283 12.1618 4
-14 4 5 6.4794 7.1266 10
14 -4 5 4.36922 10.1418 6
4 10 -5 -2.7664 6.02355 11
10 4 5 10.692 12.8157 6
-4 -10 -5 4.33228 9.51392 5
14 -10 5 5.9626 5.43977 7
14 -10 5 3.82417 12.512 4
4 -14 5 -0.0506 10.2037 5
14 -10 5 14.298 11.0819 5
10 -14 -5 6.20771 11.5799 4
10 -14 -5 0.09884 10.6293 5
4 10 -5 -4.7361 6.16886 10
14 -4 -5 5.32772 11.7072 6
-14 4 -5 3.01604 6.23675 9
-4 14 5 7.2325 5.84057 11
14 -11 -5 38.6187 9.40228 7
14 -3 5 56.8552 13.3264 6
-3 14 -5 38.6016 7.27593 10
-14 3 5 40.8538 8.94352 10
3 11 5 8.54357 11.7045 6
14 -3 5 47.5178 14.4086 4
3 -14 -5 73.6968 13.6729 5
14 -11 -5 57.2944 15.0843 4
3 -14 -5 17.8967 7.61964 8
11 -14 5 43.1912 10.5139 5
11 3 -5 75.3984 18.5351 6
11 -14 -5 79.7491 15.9401 4
-14 3 -5 85.2964 12.8419 9
3 -14 5 94.1557 14.2821 5
14 -11 5 89.7284 16.5291 4
-3 -11 -5 112.364 15.1548 5
14 -3 -5 101.072 18.0016 6
11 3 5 104.214 18.0913 6
14 -11 5 84.7518 14.0771 5
-12 -2 -5 5.61386 6.96177 9
12 -14 5 9.28918 9.70829 4
-2 14 -5 13.5191 7.04582 10
-14 12 -5 0.26364 6.66879 9
14 -12 -5 12.8209 13.6267 4
2 -14 -5 6.24166 7.77038 8
12 -14 5 18.0563 10.4258 5
12 2 -5 29.9649 15.9934 6
14 -12 -5 8.59408 8.71643 7
2 -14 -5 15.2225 10.1544 5
-14 2 5 10.9072 8.36373 10
14 -2 5 8.94677 12.4235 4
14 -2 5 7.50399 12.18 6
12 -14 -5 16.6909 12.9228 4
2 12 -5 3.45321 6.38537 10
12 2 5 5.49919 12.8429 6
2 12 -5 -2.5553 6.16564 11
-14 2 -5 6.92074 8.51489 9
2 -14 5 -0.7357 7.33532 5
-2 14 5 11.2936 7.53838 11
14 -12 5 8.7131 12.8532 4
14 -2 -5 11.7511 13.2645 6
14 -12 5 4.61877 5.37847 7
-2 -12 -5 5.54592 9.91053 5
14 -12 5 8.97481 10.1237 5
14 -13 -5 31.4593 14.0048 4
13 -14 5 36.5843 11.5454 5
-14 1 5 27.6421 8.74377 10
1 13 5 15.8187 7.08774 11
13 -14 5 22.1343 12.1827 4
14 -13 -5 28.5022 9.70376 7
-13 -1 -5 21.2255 7.88764 9
13 1 -5 49.885 16.7158 6
14 -1 5 25.0315 12.5328 6
-1 14 -5 17.2923 7.22305 10
1 -14 -5 26.6339 8.18066 8
1 -14 -5 19.8877 10.225 5
-1 -13 -5 32.6972 11.1055 5
14 -13 5 34.7194 11.5213 5
13 1 5 45.3175 14.4939 6
14 -1 -5 61.2076 16.6288 6
-1 -13 -5 28.0019 7.71974 8
-14 1 -5 43.7131 10.411 9
-1 14 5 28.821 8.76913 11
1 13 -5 43.3827 8.39549 10
13 -14 -5 37.425 13.8721 4
13 -14 -5 34.6862 8.82353 7
14 -13 5 33.7682 14.3967 4
0 -14 -5 -1.3631 9.31119 5
14 0 -5 1.38013 14.1044 6
-14 14 -5 7.45211 6.34101 9
14 -14 -5 7.15201 8.7638 7
-14 0 5 4.60784 8.6094 10
14 -14 5 4.25151 10.7086 5
0 14 -5 2.46979 7.36976 10
14 -14 5 14.887 12.4145 4
0 14 5 -2.4949 7.9204 11
14 0 5 4.5842 12.5593 6
14 -14 -5 8.11352 12.7758 4
0 -14 -5 5.54138 7.34878 8
-14 0 -5 9.66856 8.54377 9
0 14 -5 -1.749 6.90455 11
-7 15 -5 18.4839 6.82244 10
-15 8 -5 9.27191 6.09161 9
-15 7 5 11.2745 9.45847 10
8 7 -5 7.15807 16.3782 6
15 -7 5 13.1281 6.20649 7
-7 15 -5 3.5074 6.32173 9
-8 -7 -5 -0.0834 7.18368 5
7 -15 -5 17.6814 11.8926 5
-8 15 5 2.59375 5.01701 11
15 -8 -5 10.0304 12.0115 6
7 -15 -5 -4.7692 7.27535 8
8 7 -5 12.6111 7.44758 11
15 -8 -5 28.1224 14.4118 4
15 -7 5 5.72838 11.5686 4
7 8 5 8.36876 13.6703 6
8 -15 5 12.0244 10.4467 5
-8 15 -5 7.86967 6.30818 9
-7 15 5 10.9063 5.86043 11
15 -8 5 8.21643 11.3568 4
8 -15 -5 14.8679 12.3123 5
7 -15 5 21.4319 10.0061 5
8 7 5 17.4128 13.898 6
-8 15 -5 11.4347 6.69569 10
-7 -8 -5 14.845 9.44071 5
15 -7 -5 17.6297 14.3338 4
-15 8 5 16.926 9.49739 10
15 -8 5 21.9439 7.54796 7
15 -7 -5 4.2744 12.0417 6
7 8 -5 13.584 7.89625 11
-15 7 -5 12.4174 7.07101 9
-6 15 -5 -1.1894 6.4945 10
15 -6 5 7.68035 5.74127 7
-15 6 5 2.11 9.77572 10
15 -9 -5 -5.78 6.56362 7
-15 9 -5 1.24595 5.2284 9
15 -9 -5 9.99342 13.3095 4
9 6 -5 -1.8131 5.72218 11
6 -15 -5 4.21395 10.6902 5
6 9 5 5.43206 13.0846 6
15 -6 5 6.06284 12.4739 4
9 -15 5 0.95131 9.98608 5
9 6 -5 8.10683 17.3693 6
6 -15 -5 -3.471 6.33395 8
9 6 5 0.5174 11.7644 6
9 -15 -5 14.6512 11.7372 5
15 -9 5 6.79723 13.1871 4
-6 15 5 8.66617 6.89526 11
6 9 -5 4.32226 8.00319 11
15 -9 5 3.68791 7.67294 7
-6 -9 -5 0.77088 9.47238 5
15 -6 -5 12.3485 13.7194 4
-15 9 5 10.0188 8.64137 10
-15 6 -5 2.33171 7.2944 9
6 -15 5 0.31076 9.89571 5
9 -15 -5 0.20318 8.42351 4
15 -6 -5 6.54495 12.0661 6
-9 15 -5 4.98636 6.29655 10
-9 15 -5 -1.5864 5.46197 9
15 -9 5 3.64321 9.14801 5
10 5 -5 11.4033 5.76308 11
-15 5 5 17.1582 10.0638 10
-10 -5 -5 0.39526 5.53629 9
-15 10 -5 6.80002 5.19522 9
5 -15 -5 13.538 8.00422 8
5 10 5 7.83097 13.4872 6
10 -15 5 14.0526 10.519 5
10 5 -5 19.8915 17.6223 6
15 -10 -5 18.9405 13.7953 4
-5 15 -5 16.0354 6.74395 10
-5 -10 5 10.4504 7.05716 9
15 -5 5 19.9206 13.6547 4
5 -15 -5 21.1055 11.0795 5
15 -10 -5 4.44061 7.61111 7
15 -10 5 20.6733 12.9279 4
5 10 -5 14.546 6.33829 10
-5 15 5 25.446 7.93728 11
10 -15 -5 27.5084 11.8929 5
-15 10 5 15.9464 8.73693 10
-15 5 -5 33.1057 9.52456 9
10 5 5 32.6971 14.0159 6
-10 15 -5 24.5632 7.54926 10
-5 -10 -5 22.3663 10.5883 5
10 -15 -5 35.0105 12.2651 4
15 -5 -5 26.383 13.5128 6
15 -10 5 19.4602 10.298 5
15 -10 5 31.8579 8.719 7
5 -15 5 22.9343 10.9614 5
-10 15 -5 2.80567 5.69869 9
5 10 -5 15.9088 8.1321 11
15 -4 5 30.2859 11.3412 6
-4 15 -5 36.0825 7.87479 10
-15 4 5 50.0289 10.4032 10
4 -15 -5 38.3159 12.0141 5
15 -11 -5 40.7661 9.64446 7
-15 11 -5 36.8671 6.9466 9
4 11 5 2.29716 12.2181 6
-11 -4 -5 39.4725 7.97585 9
4 -15 -5 50.2098 9.45595 8
15 -4 5 32.1308 13.9597 4
11 -15 5 60.4054 11.7192 5
11 4 -5 58.9854 18.5781 6
15 -11 -5 44.3067 14.1982 4
11 -15 -5 58.0499 14.5969 4
15 -11 5 47.403 13.9325 4
-15 11 5 31.0024 8.96544 10
15 -11 5 72.8591 10.0818 7
11 4 5 70.2231 15.5936 6
4 11 -5 58.3203 9.83639 11
-4 -11 -5 69.3436 13.2256 5
4 -15 5 67.8055 13.3814 5
15 -4 -5 65.7772 15.4873 6
-11 15 -5 49.1577 8.91899 10
-4 15 5 48.2717 9.25911 11
4 11 -5 48.388 8.21812 10
15 -11 5 59.9896 12.279 5
-3 15 -5 60.0087 9.05384 10
12 3 -5 83.6288 18.8492 6
15 -3 5 56.9917 14.8266 4
15 -3 5 46.1383 13.5177 6
15 -12 -5 77.37 11.1424 7
15 -12 -5 80.6568 16.4622 4
3 -15 -5 71.6972 13.7076 5
-12 -3 -5 64.1047 10.2584 9
3 -15 -5 51.8163 9.64576 8
12 -15 5 83.2876 13.4332 5
-15 3 5 63.0317 11.16 10
-15 12 -5 56.0436 8.53952 9
-3 -12 -5 58.1436 12.1963 5
15 -3 -5 51.1593 15.475 6
-15 12 5 30.5869 8.83237 10
-12 15 -5 52.454 9.97717 10
12 -15 -5 45.4847 14.55 4
3 12 -5 33.9865 9.14976 11
-3 15 5 65.9142 10.298 11
-12 15 -5 30.7825 7.26473 9
3 -15 5 28.0469 10.7091 5
15 -12 5 47.7562 11.7796 5
15 -12 5 37.1511 8.74063 7
15 -12 5 57.4218 15.1667 4
12 3 5 53.403 14.9732 6
-15 3 -5 67.8598 10.7512 9
3 12 -5 39.3954 8.09127 10
13 2 -5 39.6558 16.7893 6
-15 13 -5 20.3555 6.96154 9
2 13 5 16.5528 7.40443 11
15 -13 -5 26.9565 9.30874 7
-13 -2 -5 17.7509 8.2432 9
15 -13 -5 35.0047 14.9747 4
15 -2 5 13.0832 12.6398 6
-2 15 -5 33.3531 8.4848 10
13 -15 5 28.259 10.9964 5
2 -15 -5 26.9955 8.45173 8
2 -15 -5 21.4766 10.6386 5
-15 2 5 20.822 9.37378 10
15 -13 5 42.7689 8.80706 7
-2 -13 -5 37.9901 7.7662 8
-13 15 -5 47.0165 10.3426 10
15 -2 -5 42.559 15.341 6
13 -15 -5 28.9288 8.14865 7
15 -13 5 39.1194 12.0229 5
13 -15 -5 48.0235 15.3333 4
2 13 -5 51.5891 8.99142 10
15 -13 5 58.0064 14.962 4
-15 13 5 35.3593 8.58154 10
-2 15 5 51.8962 9.86392 11
-2 -13 -5 52.5066 12.3461 5
2 13 -5 34.9524 9.2416 11
13 2 5 33.9822 14.6338 6
-13 15 -5 31.4216 8.09362 9
-15 2 -5 54.4501 10.656 9
-15 14 -5 27.2527 7.1921 9
15 -1 5 38.3055 14.1397 6
1 -15 -5 26.6801 10.712 5
1 -15 -5 27.4142 8.30377 8
-1 15 -5 2.76899 7.23663 11
-15 1 5 28.704 9.22065 10
-14 -1 -5 26.5506 8.47897 9
14 1 -5 14.6012 14.3997 6
15 -14 -5 41.7782 15.1159 4
14 -15 5 36.004 11.7113 5
-1 15 -5 30.9769 8.13124 10
1 14 5 28.5249 8.61586 11
15 -14 -5 12.0282 8.62617 7
14 -15 5 -4.2713 10.4166 4
-15 14 -5 1.49299 11.8552 10
-15 14 5 29.5936 7.91592 10
-15 1 -5 41.8014 10.1472 9
-14 15 -5 19.6228 9.78983 10
-1 -14 -5 42.9413 12.3047 5
15 -14 5 34.0976 12.049 5
15 -14 5 21.8086 7.83117 7
1 14 -5 31.3014 9.48871 11
14 -15 -5 34.3425 14.598 4
-1 -14 -5 28.2691 7.64207 8
-14 15 -5 27.005 7.60914 9
14 -15 -5 22.2992 8.38993 7
15 -14 5 44.7203 13.9194 4
-14 -1 5 29.8195 9.52784 10
1 14 -5 32.4758 8.08594 10
14 1 5 25.5682 14.1062 6
15 -1 -5 49.6317 16.4603 6
-1 15 5 33.5218 9.12461 11
0 15 -5 68.4041 9.68466 10
15 -15 5 48.5365 7.81956 7
-15 15 -5 57.4624 11.9527 10
15 0 -5 94.1008 19.0322 6
-15 15 5 46.8526 8.66086 10
15 0 5 42.3221 14.7875 6
15 -15 5 31.656 12.0786 4
15 -15 5 48.8781 12.3585 5
0 -15 -5 58.2241 8.93584 8
-15 15 -5 55.7045 8.94413 9
-15 0 -5 69.404 10.7515 9
0 15 5 60.3794 9.69507 11
0 -15 -5 43.3716 11.1822 5
-15 0 5 41.3535 9.85162 10
15 -15 -5 55.6558 9.57393 7
15 -15 -5 71.4698 16.4839 4
0 15 -5 47.6151 10.2303 11
-8 16 -5 31.9708 9.34138 9
8 8 -5 40.2399 9.22694 11
8 -16 -5 35.3079 12.9572 5
16 -8 -5 43.3886 15.3145 4
16 -8 -5 36.9545 13.3532 6
-8 16 5 21.6521 7.32928 11
8 -16 5 17.42 6.80353 8
16 -8 5 30.6955 8.43204 7
-16 8 -5 35.0914 8.68569 9
16 -8 5 30.5556 13.487 4
-16 8 5 32.9464 10.8461 10
8 -16 5 43.1379 12.1864 5
8 8 5 24.5995 14.4105 6
8 -16 -5 15.5215 7.26757 8
-8 16 -5 26.1126 8.14484 10
-16 7 5 5.07875 10.4364 10
-7 -9 5 11.8542 8.33017 9
-9 16 5 3.61051 6.29725 11
9 -16 5 0.41711 10.3306 5
-9 -7 -5 2.31288 5.72743 9
9 7 -5 0.2929 6.92294 11
16 -9 -5 14.7788 13.5984 4
16 -9 -5 3.37989 7.0993 7
7 9 5 9.04505 13.3105 6
7 -16 -5 11.3186 12.004 5
9 7 -5 2.94532 16.5314 6
7 -16 -5 2.24734 7.52326 8
-16 9 -5 3.35991 7.2477 9
-7 16 -5 1.10118 6.96217 10
16 -7 5 4.71882 7.12397 7
16 -7 5 1.57757 12.7939 4
9 -16 -5 14.392 12.0012 5
16 -7 -5 0.62297 13.0922 4
-16 7 -5 6.04155 7.9592 9
9 -16 -5 -2.4566 6.17453 8
-9 16 -5 1.81035 7.82086 9
16 -9 5 5.86047 7.57511 7
9 7 5 -1.0571 11.6724 6
7 9 -5 4.00387 8.37502 11
7 -16 5 4.15347 6.72372 8
-9 16 -5 10.2963 7.91777 10
-7 16 5 1.7583 7.43572 11
16 -9 5 -0.8209 12.0954 4
-16 9 5 0.64713 10.4928 10
16 -7 -5 10.0997 12.6408 6
7 -16 5 3.18592 10.2749 5
10 6 -5 21.1317 17.9868 6
-10 16 5 7.71138 5.58857 11
-16 10 -5 3.58693 7.13932 9
16 -10 -5 6.29373 12.9631 4
6 -16 -5 4.18339 8.04113 8
-16 6 5 11.2756 10.6435 10
6 -16 -5 10.5732 11.116 5
6 10 5 19.5634 13.4627 6
-6 -10 5 17.1311 8.88881 9
-6 16 -5 14.132 7.55093 10
16 -6 5 26.7925 13.9101 4
-10 -6 -5 6.23608 6.8293 9
10 6 -5 5.96664 6.75089 11
10 -16 5 4.04984 9.76791 5
16 -6 5 11.478 6.75293 7
16 -10 -5 9.56861 8.29375 7
-16 10 5 6.88347 10.3871 10
-6 -10 -5 5.76974 8.82421 5
6 -16 5 6.6195 6.41282 8
-16 6 -5 8.54029 8.80699 9
6 10 -5 12.2696 8.58915 11
16 -10 5 3.43735 7.77776 7
6 -16 5 11.301 11.243 5
16 -10 5 2.50758 13.1651 4
10 6 5 15.4796 13.0554 6
-10 16 -5 14.151 8.00741 10
10 -16 -5 12.764 11.406 5
-6 16 5 12.9846 7.85322 11
16 -6 -5 11.232 13.1258 6
-10 16 -5 15.6072 8.21771 9
-16 5 5 27.6597 10.3363 10
5 -16 -5 19.4781 8.57114 8
-11 -5 -5 16.478 7.82783 9
5 -16 -5 18.1392 11.8511 5
11 -16 5 22.858 11.8184 5
-5 16 -5 22.6711 7.50057 10
16 -11 -5 37.2564 13.9923 4
5 11 5 3.1255 17.6674 6
-16 11 -5 15.2169 7.3818 9
16 -5 5 6.40439 5.93811 7
16 -5 5 27.5034 13.8927 4
11 5 -5 19.7894 7.0597 11
11 5 -5 25.4635 18.297 6
-11 16 5 1.18461 5.44377 11
-5 -11 5 18.5785 8.6229 9
16 -11 -5 18.7605 8.69399 7
11 -16 -5 -2.1621 10.3514 5
16 -11 5 30.1369 14.2665 4
-11 16 -5 17.7504 8.36983 10
5 11 -5 18.7474 8.39872 11
16 -5 -5 26.6105 13.8751 6
5 -16 5 10.3204 11.1272 5
16 -11 5 22.4921 8.40225 7
-16 5 -5 30.7383 9.6787 9
11 -16 -5 2.7723 10.3191 4
-5 16 5 25.4098 8.60948 11
-16 11 5 19.0361 9.95486 10
-5 -11 -5 27.3641 10.5612 5
11 5 5 18.7916 12.7901 6
-11 16 -5 18.0706 7.8273 9
12 -16 5 28.5498 10.9464 5
12 4 -5 28.5346 17.8502 6
-4 -12 5 24.9407 8.93281 9
16 -12 -5 36.8957 14.4902 4
-16 12 -5 27.7173 7.71574 9
16 -12 -5 24.4027 8.76833 7
4 -16 -5 22.0018 11.962 5
4 -16 -5 23.6311 8.88815 8
-16 4 5 31.4982 10.0428 10
12 4 -5 24.062 6.81715 11
16 -4 5 -0.6287 10.9938 6
16 -4 5 19.5645 12.6491 4
-4 16 -5 31.2328 7.88167 10
-12 -4 -5 17.9687 7.8915 9
-4 -12 -5 12.0508 10.4848 5
12 -16 -5 10.2857 11.9627 4
-16 4 -5 23.13 9.00185 9
4 12 -5 5.58322 8.33847 11
-4 16 5 17.8488 8.95129 11
4 -16 5 17.3574 9.82151 5
16 -12 5 21.2108 13.7737 4
16 -4 -5 17.9589 13.7562 6
16 -12 5 12.842 8.15727 7
-12 16 -5 14.4396 7.58431 9
4 12 -5 17.7056 7.30293 10
12 4 5 8.12309 13.4514 6
-12 16 -5 15.4792 8.87786 10
-16 12 5 18.826 9.71425 10
-4 -12 -5 -0.7487 4.7508 8
16 -13 -5 86.6774 16.5499 4
-16 3 5 85.6706 11.7934 10
13 -16 5 90.3659 14.3131 5
-16 13 -5 68.9917 9.46603 9
13 3 -5 43.8617 7.39967 11
3 -16 -5 73.8117 13.873 5
3 -16 -5 58.774 9.50555 8
-3 16 -5 74.9377 10.0773 10
16 -13 -5 95.5459 11.4554 7
13 3 -5 95.9325 19.7138 6
16 -3 5 57.5015 13.0455 6
-13 -3 -5 48.3456 9.57606 9
3 13 5 58.7436 8.87142 11
-3 -13 -5 90.2378 14.0724 5
16 -13 5 82.9339 15.7184 4
-13 16 -5 56.8589 11.2214 10
13 -16 -5 115.804 17.4609 4
-16 13 5 68.2541 10.996 10
3 13 -5 71.9223 9.78322 10
13 -16 -5 60.7979 9.29371 7
-13 16 -5 53.5147 9.55815 9
-3 16 5 96.2493 11.3914 11
-3 -13 -5 63.5687 8.90972 8
16 -3 -5 116.663 18.8785 6
3 13 -5 91.9821 11.2365 11
13 3 5 110.358 18.1543 6
-14 -2 -5 30.2836 8.42495 9
2 -16 -5 34.8646 8.37003 8
-16 14 -5 2.22655 12.8931 10
-16 2 5 29.714 9.26956 10
16 -14 -5 26.627 8.91006 7
14 -16 5 31.0178 12.1464 5
2 -16 -5 21.8551 10.5458 5
14 2 -5 44.7267 17.0618 6
16 -14 -5 44.9562 15.335 4
-16 14 -5 24.2232 7.52739 9
-2 16 -5 54.3807 9.04681 10
16 -2 5 30.3331 12.5685 6
2 14 5 29.573 8.23675 11
-2 16 5 32.5904 9.31924 11
14 -16 -5 21.2936 7.87804 7
16 -14 5 4.14242 9.53412 5
14 2 5 17.731 14.2855 6
-16 2 -5 29.6464 9.11425 9
16 -2 -5 21.2726 14.7357 6
-14 16 -5 22.4024 11.0556 10
-14 -2 5 20.561 9.11039 10
-2 -14 -5 21.7239 7.13571 8
2 14 -5 18.9273 9.06605 11
2 14 -5 24.0406 7.70472 10
14 -16 -5 20.7761 13.9754 4
16 -14 5 16.0296 12.5395 4
16 -14 5 16.5218 8.1453 7
-2 -14 -5 21.9786 10.8954 5
-14 16 -5 19.1989 7.84574 9
-16 14 5 19.7376 9.01262 10
15 -16 5 18.3176 11.2743 5
16 -1 5 18.1663 12.8173 6
-16 1 5 24.383 9.29618 10
-16 15 -5 18.4994 10.5351 10
-1 16 -5 17.6778 7.47538 10
-15 -1 -5 21.652 8.70877 9
1 -16 -5 16.8859 7.20471 8
-16 15 -5 8.91203 7.26545 9
15 1 -5 26.478 15.3893 6
-1 16 -5 20.8047 9.25375 11
1 15 5 24.2929 8.14194 11
16 -15 -5 24.0968 14.4304 4
-15 16 5 15.1677 6.75928 10
15 -16 5 -1.2004 6.59774 7
16 -15 -5 16.5083 7.9893 7
1 -16 -5 13.5279 10.0409 5
16 -15 5 11.3526 11.1919 4
-1 -15 -5 17.1198 7.1138 8
15 1 5 24.8124 13.6678 6
-1 -15 -5 33.3864 11.227 5
15 -16 -5 26.658 14.3406 4
15 -16 -5 28.7612 7.95956 7
-15 16 -5 37.943 8.40902 9
-16 1 -5 46.3023 9.86082 9
-15 -1 5 26.8641 9.23636 10
16 -1 -5 46.8868 16.3336 6
1 15 -5 19.6725 8.84169 11
16 -15 5 0.34243 9.769 5
-1 16 5 32.3829 8.69519 11
16 -15 5 29.2758 7.96597 7
1 15 -5 19.4198 7.48931 10
-15 16 -5 20.0634 11.1688 10
-16 15 5 27.9507 8.33057 10
-16 16 -5 27.9005 11.2153 10
0 16 5 25.91 8.3242 11
-16 0 -5 28.18 8.89417 9
0 -16 -5 27.1654 11.0802 5
16 -16 5 -0.9928 16.963 5
16 -16 -5 27.4366 13.9793 4
-16 0 5 25.0498 9.30483 10
0 16 -5 40.0824 8.28378 10
16 -16 -5 23.9817 7.65816 7
-16 16 -5 14.1996 7.80259 9
0 -16 -5 23.4829 7.00923 8
16 -16 5 22.7484 7.015 7
16 0 -5 41.2038 16.3994 6
-16 16 5 20.2887 7.7105 10
16 0 5 22.9615 13.5214 6
0 16 -5 15.2346 8.77793 11
8 9 5 16.1048 13.9311 6
17 -9 -5 29.0358 14.1612 4
-8 -9 5 15.3939 9.22167 9
17 -8 5 15.3156 8.06116 7
8 -17 -5 6.75005 11.4311 5
-9 17 5 29.1065 8.00528 11
-8 17 -5 10.6657 7.58708 10
9 -17 5 8.24018 10.3933 5
17 -9 -5 6.59733 7.8938 7
-17 9 -5 13.1545 7.80789 9
17 -8 5 12.7728 12.9033 4
-17 8 5 22.5935 11.0559 10
-9 -8 -5 11.953 7.35526 9
8 -17 -5 14.0258 7.81254 8
9 -17 5 19.6191 7.13573 8
9 8 -5 18.0398 7.53528 11
9 -17 -5 13.4836 7.61812 8
8 -17 5 23.263 7.12078 8
-9 17 -5 14.5354 8.46095 9
17 -9 5 24.4127 7.93859 7
-17 9 5 41.2833 11.5757 10
8 9 -5 27.0564 8.73783 11
17 -8 -5 1.42946 15.258 6
-9 -8 5 15.7986 8.34494 9
-9 17 -5 18.1702 7.73557 10
9 8 5 21.597 13.6011 6
-8 -9 -5 0.80481 5.41514 9
9 -17 -5 17.9581 11.9027 5
-17 8 -5 24.1285 8.11456 9
17 -8 -5 24.6799 13.4491 4
8 -17 5 16.1569 10.5851 5
-8 17 5 23.6936 7.80925 11
17 -9 5 38.2494 14.3467 4
7 -17 -5 7.13904 11.9219 5
17 -7 5 8.43845 7.583 7
17 -7 5 9.41369 13.244 4
7 10 5 3.1776 11.9534 6
10 -17 5 0.83364 6.36095 8
-7 17 -5 -2.3986 7.45034 10
-17 10 -5 4.3796 7.5003 9
-10 17 5 8.19932 7.18146 11
17 -10 -5 21.9715 13.9731 4
17 -10 -5 2.5026 7.9361 7
-7 -10 5 -0.0253 8.57479 9
10 -17 5 11.8536 11.0015 5
-17 7 5 18.8888 11.0029 10
10 7 -5 5.94932 6.996 11
7 -17 -5 4.40828 7.77678 8
-10 -7 -5 9.53515 7.53542 9
17 -10 5 10.9637 7.61869 7
-17 7 -5 2.05063 8.09187 9
-10 17 -5 2.10999 8.11491 9
-17 10 5 -1.4796 10.3402 10
7 -17 5 16.0414 11.437 5
17 -10 5 20.7148 14.1032 4
-10 -7 5 -2.2378 5.70473 9
10 7 5 12.8824 13.0632 6
10 -17 -5 7.15323 6.72367 8
17 -7 -5 12.6993 12.3405 6
7 10 -5 10.0863 8.49231 11
-10 17 -5 -0.1662 7.3612 10
7 -17 5 -0.4833 6.67665 8
10 -17 -5 9.85139 11.5137 5
-7 17 5 3.75131 7.79422 11
-6 -11 5 26.3621 9.38451 9
11 -17 5 29.0033 7.42831 8
-11 -6 -5 27.844 8.27334 9
17 -11 -5 31.9675 13.9944 4
11 6 -5 23.0585 7.34728 11
-17 11 -5 22.4651 8.17214 9
6 -17 -5 25.7142 11.7062 5
11 -17 5 28.219 10.8258 5
17 -6 5 23.6344 13.2807 4
-17 6 5 34.3052 10.8835 10
17 -6 5 25.897 8.05889 7
6 -17 -5 28.9474 8.55619 8
-6 17 -5 29.2269 7.90601 10
-11 17 5 22.178 7.14056 11
11 6 -5 16.9412 16.4874 6
17 -11 -5 35.7907 8.91809 7
6 11 -5 35.3073 9.22648 11
17 -6 -5 24.6916 14.1971 6
17 -11 5 29.2104 9.19533 7
11 6 5 25.4991 14.0471 6
-17 6 -5 38.9245 9.32351 9
6 -17 5 29.8154 11.903 5
-11 17 -5 21.2051 8.73288 10
6 -17 5 24.8192 7.35948 8
-11 17 -5 17.9123 8.19693 9
17 -11 5 18.2367 13.2447 4
6 11 -5 7.28057 6.56551 12
-17 11 5 32.4759 10.4366 10
-6 17 5 24.3722 8.309 11
11 -17 -5 -1.6947 12.6945 5
-5 17 -5 7.72231 7.57416 10
-17 5 5 3.09871 9.52905 10
5 -17 -5 1.50473 7.87562 8
17 -5 5 8.79151 6.05725 7
17 -12 -5 17.3153 13.4046 4
12 5 -5 13.3204 16.6798 6
17 -12 -5 5.43975 7.84434 7
12 5 -5 3.76839 6.58823 11
12 -17 5 6.49341 9.61637 5
-5 -12 5 8.28861 8.57744 9
-12 17 5 3.39995 5.32009 11
17 -5 5 1.50721 10.8753 4
5 -17 -5 -4.4109 10.539 5
-12 -5 -5 8.96121 7.68028 9
-17 12 -5 -1.0073 7.32902 9
-5 17 5 6.14864 8.06833 11
17 -12 5 25.3884 13.3525 4
5 -17 5 8.481 6.79668 8
5 -17 5 7.96154 9.89918 5
17 -12 5 16.746 8.45983 7
-17 5 -5 8.60552 8.17397 9
-12 17 -5 13.0768 8.08761 9
17 -5 -5 23.6111 13.8407 6
5 12 -5 0.36334 7.77518 11
12 5 5 14.6232 13.3518 6
-17 12 5 3.38979 9.87914 10
-12 17 -5 6.39688 8.94582 10
13 4 -5 17.0004 17.2894 6
17 -13 -5 16.1209 13.6721 4
-17 4 5 2.51162 9.01088 10
4 -17 -5 5.36439 10.5058 5
-17 13 -5 0.96891 7.28117 9
13 -17 5 11.5608 10.6429 5
-4 17 -5 3.54617 7.44721 10
13 4 -5 3.46753 6.43254 11
4 13 5 2.72172 6.95237 11
17 -13 -5 9.71217 7.81693 7
4 -17 -5 11.3087 8.07583 8
-4 -13 5 8.29044 8.04867 9
-13 -4 -5 0.63051 7.56033 9
-17 4 -5 13.8277 8.57118 9
17 -4 -5 19.5448 13.8891 6
4 -17 5 -3.3991 5.00612 8
17 -13 5 2.05578 12.2128 4
-17 13 5 0.83599 9.03578 10
-4 17 5 4.91116 8.4019 11
13 -17 -5 2.45039 5.18203 7
13 4 5 13.0884 14.3669 6
-13 17 -5 16.6735 7.76265 9
-4 -13 -5 12.7811 5.90349 8
17 -13 5 11.5472 8.15407 7
4 13 -5 6.32791 6.76552 10
-4 -13 -5 2.35548 14.0019 5
-13 17 -5 13.0957 9.29255 10
4 13 -5 13.9844 8.03626 11
3 -17 -5 19.5874 7.72899 8
14 3 -5 32.2403 6.68932 11
17 -14 -5 36.6572 14.5098 4
-17 3 5 31.6474 9.37358 10
3 14 5 21.7231 7.79654 11
17 -14 -5 32.3136 8.76382 7
-3 17 -5 23.406 8.11819 10
-17 14 -5 21.5915 7.75254 9
3 -17 -5 19.5671 11.1842 5
14 -17 5 29.5692 11.55 5
14 3 -5 28.0607 16.1698 6
-14 -3 -5 27.2814 8.53876 9
-3 -14 5 19.948 8.18848 9
3 14 -5 30.7527 8.73673 11
-14 17 -5 15.8324 7.91719 9
-17 3 -5 39.0496 8.93056 9
17 -14 5 28.1727 8.05913 7
-3 -14 -5 15.9552 6.80335 8
-3 17 5 39.9895 9.25121 11
14 -17 -5 1.82457 11.3634 4
17 -14 5 43.8307 14.4581 4
3 14 -5 45.8328 8.13425 10
14 -17 -5 19.6174 7.5065 7
-14 -3 5 28.2753 9.45109 10
17 -3 -5 35.3359 14.892 6
14 3 5 33.6104 14.1278 6
-17 14 5 37.6307 9.6099 10
-14 17 -5 44.3079 10.5971 10
15 2 -5 30.4385 15.708 6
-17 15 -5 12.8522 7.48886 9
17 -15 -5 14.1203 7.36952 7
2 -17 -5 16.3257 6.95399 8
-17 2 5 15.3794 8.71869 10
-2 17 -5 14.0927 8.96913 11
17 -15 -5 26.2009 14.1784 4
2 15 5 15.4809 8.22011 11
15 -17 5 10.2447 10.5754 5
-15 -2 -5 23.1183 8.35964 9
-15 17 5 10.1934 6.32889 10
2 -17 -5 17.6632 10.7927 5
-17 15 -5 8.81882 9.97529 10
-2 -15 5 26.2383 8.82452 9
-2 17 -5 15.8175 7.53832 10
15 -17 -5 5.99982 10.95 4
17 -15 5 6.17664 10.5556 4
-17 15 5 13.2453 8.14304 10
-2 17 5 13.533 7.95675 11
-2 -15 -5 18.5454 6.73574 8
-15 17 -5 23.8145 7.98019 9
15 2 5 13.021 13.5245 6
2 15 -5 18.9817 7.50806 10
2 15 -5 14.739 8.21618 11
17 -15 5 9.69743 7.34922 7
15 -17 -5 9.60736 7.10049 7
-2 -15 -5 0.53792 9.18396 5
17 -2 -5 28.5904 15.1918 6
-17 2 -5 22.0918 8.86243 9
-15 -2 5 22.9727 9.06844 10
-15 17 -5 5.01425 9.89471 10
-1 17 -5 54.87 9.07004 10
16 1 -5 44.8577 15.6045 6
17 -16 -5 59.7832 15.0064 4
1 -17 -5 58.6137 8.32635 8
-16 -1 -5 92.3358 10.93 9
-17 1 5 64.1366 10.4169 10
1 16 5 66.6718 10.0347 11
-1 17 -5 74.5671 10.9262 11
-16 17 5 60.4881 9.22645 10
-17 16 -5 45.0791 9.16568 9
-17 16 -5 51.38 11.9662 10
1 -17 -5 37.0542 10.9455 5
17 -16 -5 50.2066 8.68328 7
-1 -16 -5 39.3129 7.36784 8
16 -17 -5 27.4124 7.59743 7
16 -17 -5 3.36914 10.8873 4
-17 1 -5 40.6364 8.53124 9
1 16 -5 25.8909 7.71231 10
-16 17 -5 26.1484 8.18201 9
-17 16 5 37.0245 8.52534 10
17 -16 5 41.2938 7.96142 7
16 1 5 20.5273 12.3399 6
17 -1 -5 44.6662 15.7151 6
1 16 -5 27.6996 8.6406 11
-16 -1 5 24.1579 9.02371 10
-1 17 5 46.2713 8.87248 11
-16 17 -5 31.1875 11.1112 10
-17 0 -5 62.7584 9.65845 9
17 -17 5 52.8354 7.92706 8
0 -17 -5 60.7969 8.28921 8
0 17 -5 72.601 9.44158 10
0 17 5 95.9277 10.6525 11
0 17 -5 79.6387 10.8572 11
-17 17 -5 43.5137 11.7391 10
17 -17 5 60.4366 8.47929 7
17 -17 -5 58.2136 8.65658 7
-17 17 5 60.4998 9.40821 10
-17 17 -5 57.0808 9.49418 9
-17 0 5 73.3611 10.6442 10
17 0 -5 26.4657 14.1277 6
-18 9 -5 4.8179 7.42736 9
-18 9 5 12.3889 10.0143 10
9 9 -5 10.7715 7.14922 11
9 -18 -5 7.02008 7.45724 8
9 -18 5 0.30974 10.7666 5
-9 18 5 6.02153 7.80502 11
18 -9 -5 0.4306 12.4367 4
-9 18 -5 21.8178 8.29206 10
9 -18 -5 22.4621 11.5324 5
18 -9 5 4.35324 7.79771 7
-9 -9 5 10.555 8.64876 9
9 9 5 11.4311 12.9222 6
18 -9 -5 7.96806 7.54101 7
-9 -9 -5 9.96231 7.37568 9
9 -18 5 11.5993 6.53735 8
18 -9 5 0.92805 12.0645 4
-8 -10 5 7.09517 8.35474 9
10 -18 5 9.2518 6.81215 8
18 -8 5 16.6696 13.384 4
-8 18 -5 6.21849 7.49044 10
-10 18 5 1.16583 7.39723 11
10 8 -5 4.39898 6.77217 11
18 -8 5 5.45413 7.43261 7
8 -18 -5 12.429 11.5554 5
-18 10 -5 4.59818 7.43353 9
8 -18 -5 14.8807 7.57126 8
-10 -8 -5 7.94142 7.38227 9
10 -18 5 7.35172 10.2209 5
8 10 5 1.49892 16.6351 6
18 -10 -5 18.65 13.1288 4
-18 8 5 10.0573 10.0398 10
18 -10 -5 6.30153 7.86842 7
-10 18 -5 13.5614 7.91575 10
8 10 -5 10.7084 7.88183 11
18 -10 5 15.1573 12.8636 4
-8 18 5 18.0786 8.02173 11
10 8 5 24.7692 13.8874 6
18 -10 5 16.9717 7.71709 7
-10 -8 5 10.3403 8.26097 9
10 -18 -5 7.27082 10.829 5
8 -18 5 17.9405 6.84822 8
-8 -10 -5 11.3661 6.89553 9
18 -8 -5 -5.3647 6.07676 7
8 -18 5 17.8482 10.9575 5
10 -18 -5 1.55201 7.40028 8
-18 10 5 11.0585 10.4406 10
-18 8 -5 5.65545 7.32445 9
-7 -11 5 17.1194 8.87217 9
7 -18 -5 18.7021 11.8395 5
7 -18 -5 23.6657 8.01157 8
-7 18 -5 20.4537 7.73319 10
18 -11 -5 20.8902 8.0851 7
11 7 -5 27.5811 7.23821 11
18 -7 5 16.3704 7.76117 7
11 -18 5 15.5959 6.87352 8
-18 7 5 42.967 10.7298 10
11 -18 5 23.8213 11.2778 5
18 -11 -5 28.3639 13.7566 4
-11 -7 -5 19.9329 7.7856 9
18 -7 5 13.9278 12.6877 4
-11 18 5 21.6981 7.69312 11
-18 11 -5 18.3154 7.95126 9
7 11 -5 29.0663 8.65669 11
7 -18 5 29.1784 7.2282 8
-11 18 -5 23.3364 8.51362 9
18 -11 5 26.3161 13.1806 4
18 -11 5 43.3914 9.13382 7
-18 11 5 32.7621 10.4634 10
-18 7 -5 18.5198 7.89513 9
11 7 5 27.351 14.2566 6
7 -18 5 29.9276 11.2407 5
11 -18 -5 21.6981 7.04331 8
-7 18 5 30.2253 8.1619 11
-11 -7 5 17.5142 7.98287 9
-11 18 -5 29.9112 8.34391 10
12 6 -5 4.23921 6.51547 11
-12 18 5 11.5325 6.99921 11
-18 12 -5 14.7537 7.8241 9
6 -18 -5 -5.1437 7.05321 8
12 -18 5 5.9271 10.7894 5
18 -6 5 10.5704 7.48336 7
-12 -6 -5 10.4593 7.64473 9
-6 18 -5 10.7247 7.78124 10
12 -18 5 8.36648 6.52277 8
18 -12 -5 13.7169 7.63999 7
6 -18 -5 7.28979 11.0367 5
18 -12 -5 6.493 13.148 4
-18 6 5 5.35669 9.07808 10
-6 -12 5 5.75045 8.23973 9
-6 18 5 6.883 7.55259 11
-12 18 -5 13.8702 8.23149 10
-18 6 -5 8.47708 7.56043 9
6 12 -5 7.88425 7.5192 12
12 -18 -5 -3.8704 5.71188 8
12 6 5 13.4929 13.184 6
18 -6 -5 2.69817 11.3856 6
18 -12 5 8.76824 13.2508 4
6 12 -5 0.36971 7.77621 11
-12 -6 5 -0.2882 5.16559 9
-18 12 5 7.52955 10.176 10
6 -18 5 0.29906 9.18849 5
-12 18 -5 -1.7194 7.70899 9
6 -18 5 -2.1106 6.4613 8
18 -12 5 8.78385 8.0082 7
5 -18 -5 26.7516 7.87957 8
-13 -5 -5 23.595 7.87087 9
18 -5 5 21.2836 6.61432 7
13 -18 5 29.5743 6.91636 8
13 5 -5 21.7699 6.95569 11
-18 13 -5 26.6207 8.13826 9
-5 -13 5 32.1893 8.6678 9
-13 18 5 3.20537 5.58142 11
13 -18 5 25.747 10.7795 5
18 -13 -5 21.3869 7.78026 7
18 -13 -5 35.2025 13.849 4
5 13 5 15.9035 6.09562 11
-18 5 5 32.086 9.20724 10
-5 18 -5 22.9432 7.79945 10
5 -18 -5 38.7299 12.1123 5
13 5 -5 3.89229 15.0243 6
18 -13 5 27.6451 13.9176 4
5 13 -5 37.8122 8.87385 11
-18 5 -5 43.7848 9.05083 9
18 -5 -5 19.2307 12.2647 6
13 5 5 17.9495 12.9212 6
-13 18 -5 19.717 8.8238 10
18 -13 5 30.8031 8.35329 7
-18 13 5 47.637 10.8311 10
-5 18 5 28.3963 8.3479 11
-13 18 -5 26.6515 8.31652 9
5 -18 5 31.7939 7.86545 8
-4 18 -5 37.383 8.42338 10
-18 14 -5 38.4202 8.44686 9
14 4 -5 32.5355 7.20336 11
14 -18 5 62.6841 12.3181 5
18 -14 -5 52.5933 8.89239 7
18 -14 -5 57.6844 15.356 4
-18 4 5 74.9149 10.7339 10
4 -18 -5 53.5666 8.72997 8
-14 -4 -5 51.7377 8.788 9
4 14 5 33.88 8.4337 11
4 -18 -5 46.211 12.2287 5
14 4 -5 21.1918 15.2413 6
14 -18 5 39.4728 7.47024 8
-18 14 5 62.475 10.5655 10
-14 -4 5 29.1835 9.34465 10
-14 18 -5 33.7105 9.49576 10
-4 18 5 57.7072 9.43155 11
18 -14 5 24.6473 7.85347 7
-18 4 -5 48.0253 9.24866 9
14 4 5 26.7891 13.5444 6
14 -18 -5 24.4305 6.89684 7
-4 -14 -5 39.7817 7.0293 8
18 -14 5 37.9382 13.2474 4
-14 18 -5 47.6573 8.70849 9
4 14 -5 55.8067 9.35654 11
18 -4 -5 24.4429 12.5926 6
3 -18 -5 72.1374 8.71493 8
-18 15 -5 31.4897 9.72425 10
15 -18 5 64.8014 8.28245 8
18 -15 -5 55.8416 14.1156 4
3 -18 -5 56.5755 11.5882 5
-15 -3 -5 90.3717 10.4334 9
-3 18 -5 58.7622 9.13813 10
-18 15 -5 48.393 9.01606 9
3 15 5 64.5787 9.46644 11
15 3 -5 19.1686 14.3247 6
-18 3 5 54.1892 9.7786 10
18 -15 -5 88.6112 9.64812 7
-18 15 5 74.6817 10.7062 10
15 -18 -5 62.553 8.60025 7
15 3 5 77.8082 15.5029 6
3 15 -5 72.4256 9.77822 11
18 -3 -5 31.4076 12.4603 6
-15 18 -5 56.2225 10.7854 10
-15 18 -5 53.6886 9.20737 9
-15 -3 5 63.2758 10.5591 10
18 -15 5 55.6483 8.79215 7
-3 -15 -5 68.1333 8.14701 8
-16 18 5 7.14394 6.79267 10
16 -18 5 7.23469 6.29242 8
18 -16 -5 1.13399 10.4009 4
2 -18 -5 8.94492 6.26929 8
2 -18 -5 0.87672 12.0439 5
-18 16 -5 14.8788 9.85508 10
2 16 5 10.1188 7.75873 11
-2 -16 5 18.6265 7.95357 9
-18 16 -5 8.352 7.61124 9
16 2 -5 1.86771 12.7619 6
-2 18 -5 23.2293 8.66101 11
-16 -2 -5 5.58673 7.37068 9
-18 2 5 4.426 7.94999 10
-2 18 -5 15.0468 7.52902 10
18 -16 -5 18.7675 7.15429 7
-18 16 5 10.4642 7.78647 10
-2 -16 -5 4.75022 5.82476 8
18 -16 5 9.87842 6.84352 7
16 2 5 1.19674 10.4285 6
-16 18 -5 10.1773 9.51105 10
18 -2 -5 1.16913 10.9953 6
-16 -2 5 9.11508 8.56127 10
2 16 -5 12.405 7.70822 11
-2 18 5 7.90336 7.44076 11
-18 2 -5 5.9414 7.1725 9
16 -18 -5 11.4722 6.52422 7
2 16 -5 11.878 6.82083 10
-16 18 -5 10.1924 7.01563 9
1 -18 -5 3.56953 5.77508 8
17 -18 5 -1.8939 3.98611 7
-17 18 5 6.44452 6.90829 10
-1 18 -5 4.75282 7.59727 11
-1 18 -5 3.8092 7.08559 10
1 17 5 2.85059 7.36758 11
-17 -1 -5 6.34973 7.43786 9
17 -18 5 0.1361 5.84851 8
-18 17 -5 4.60732 7.11716 9
18 -17 -5 9.05789 6.21466 7
-18 1 5 5.19499 7.86615 10
-18 17 -5 -1.9553 9.73651 10
-1 -17 5 3.31767 6.57268 9
1 17 -5 6.89894 7.36139 11
17 -18 -5 6.46248 6.1932 7
1 17 -5 8.5094 6.51506 10
-18 17 5 7.48376 7.31663 10
-18 1 -5 9.3905 7.29101 9
-17 18 -5 11.3221 6.62402 9
18 -17 5 3.75705 6.53957 7
-1 -17 -5 2.21828 5.50148 8
-17 18 -5 -2.0403 8.85729 10
18 -17 5 10.0979 5.38422 8
-1 18 5 0.86472 7.72721 11
-17 -1 5 8.27672 8.15724 10
0 18 -5 21.0168 7.56207 11
18 -18 -5 23.1029 6.85473 7
-18 18 -5 19.0788 9.05844 10
0 18 5 21.5796 7.76625 11
-18 0 5 18.6368 8.02456 10
18 -18 5 19.1327 6.11552 8
18 -18 5 19.1364 6.07771 7
0 -18 -5 21.8729 5.90688 8
-18 18 5 17.0349 7.22213 10
-18 0 -5 15.7697 7.10955 9
0 18 -5 19.6692 6.82708 10
-18 18 -5 12.8482 5.57502 9
0 -18 5 27.8015 7.39992 9
19 -9 5 3.3925 11.0975 4
9 -19 -5 -3.0042 9.95292 5
10 -19 5 5.71026 6.31356 8
-19 9 5 3.65244 9.59494 10
-19 10 -5 1.76935 7.08114 9
9 -19 -5 9.12209 7.09294 8
-9 -10 5 1.04494 7.89352 9
19 -10 -5 6.62721 7.37781 7
10 -19 5 7.78193 10.5071 5
-10 -9 -5 0.98004 6.79222 9
19 -9 5 4.31578 7.11438 7
-9 19 -5 11.1547 7.63756 10
10 9 -5 9.52826 6.62259 11
-10 19 5 8.55555 7.40153 11
9 10 -5 -1.9714 6.50876 11
-9 19 5 7.13223 7.33626 11
19 -9 -5 5.51745 7.01199 7
19 -10 5 7.38652 11.5422 4
-9 -10 -5 1.53649 6.89498 9
-19 9 -5 8.1286 7.308 9
9 -19 5 1.3358 6.19149 8
-10 -9 5 3.88433 7.87306 9
10 -19 -5 3.21574 6.92516 8
-10 19 -5 5.1974 7.86011 10
-19 10 5 3.29832 9.26888 10
9 -19 5 -0.2779 9.33406 5
19 -10 5 -0.8512 6.91642 7
8 -19 -5 37.1326 8.10191 8
-19 8 5 65.9321 11.0531 10
11 -19 5 49.4223 7.72234 8
-8 -11 5 30.4981 8.84102 9
19 -8 5 27.09 7.86562 7
11 8 -5 26.7723 7.21936 11
-8 19 -5 33.7929 8.48131 10
-11 -8 -5 29.2325 8.07534 9
11 -19 5 30.7749 11.0863 5
-19 11 -5 25.476 8.18847 9
8 -19 -5 26.875 11.0946 5
19 -11 -5 32.8143 8.14069 7
19 -11 -5 3.21467 16.8646 4
19 -8 5 -2.3889 13.8846 4
-11 19 5 38.3598 8.33741 11
-8 19 5 21.2501 7.55877 11
11 8 5 2.73755 11.8156 6
-19 8 -5 27.597 7.7436 9
-11 -8 5 26.6746 8.23234 9
8 -19 5 30.2209 6.82561 8
-11 19 -5 32.0642 8.23027 10
19 -11 5 20.2338 12.0124 4
-8 -11 -5 18.3453 7.03343 9
8 -19 5 -2.6655 8.57375 5
8 11 -5 27.5611 7.40414 11
11 -19 -5 13.929 7.0253 8
19 -11 5 34.0866 8.04684 7
-19 11 5 32.3272 10.3603 10
7 -19 -5 20.9718 10.3853 5
-12 19 5 21.8042 7.92461 11
7 -19 -5 23.8889 7.28452 8
12 -19 5 27.7021 6.89899 8
19 -12 -5 1.99654 11.4819 4
19 -12 -5 23.6566 7.50658 7
12 7 -5 15.5435 6.76687 11
-19 7 5 21.3085 8.81815 10
-7 19 -5 24.2623 7.97401 10
12 -19 5 16.5589 10.5005 5
-12 -7 -5 9.20184 6.93414 9
-7 -12 5 28.1892 8.21847 9
-19 12 -5 19.7808 7.86426 9
19 -7 5 21.2228 7.68001 7
12 -19 -5 8.26496 6.41345 8
7 -19 5 19.1724 6.64504 8
19 -12 5 19.6607 7.80967 7
-7 19 5 20.1455 7.7599 11
-19 7 -5 11.4011 7.16507 9
-7 -12 -5 0.66359 5.10282 9
19 -12 5 14.2899 12.1542 4
7 12 -5 21.5708 7.63224 11
-19 12 5 24.9149 10.6359 10
7 12 -5 10.2002 5.768 12
-12 -7 5 22.3588 7.88635 9
12 7 5 9.28623 11.8515 6
-12 19 -5 36.2531 8.80713 10
-19 6 5 2.86216 7.813 10
6 13 5 -2.3135 4.45265 11
19 -13 -5 0.07059 6.63928 7
-19 13 -5 2.20253 6.91776 9
19 -13 -5 1.74996 10.85 4
-6 -13 5 1.5324 7.54118 9
13 6 -5 9.21568 6.4738 11
13 -19 5 7.19296 9.22157 5
-13 19 5 7.03014 6.22853 11
6 -19 -5 5.10277 9.44013 5
13 -19 5 12.0628 6.31867 8
6 -19 -5 1.91871 6.68951 8
19 -6 5 3.96664 6.83562 7
-13 -6 -5 5.47703 6.91898 9
-6 19 -5 8.54994 7.46542 10
6 13 -5 9.20079 7.54287 11
6 13 -5 4.65842 7.43594 12
-13 -6 5 -2.2429 5.25792 9
19 -13 5 0.76864 10.5186 4
-19 6 -5 7.66298 7.01858 9
13 6 5 -0.8251 11.2985 6
-13 19 -5 13.435 8.16539 10
-19 13 5 6.9242 8.99124 10
-13 19 -5 11.2602 7.57825 9
19 -13 5 15.4385 7.35373 7
6 -19 5 10.738 7.14966 8
-6 19 5 4.06208 6.77359 11
-19 5 5 3.86084 7.55351 10
-14 -5 -5 9.96901 7.09827 9
19 -14 -5 -0.0249 10.4528 4
5 -19 -5 3.33316 8.34258 5
14 -19 5 -0.0254 8.68536 5
14 -19 5 8.28605 6.07041 8
5 -19 -5 8.204 6.93382 8
19 -14 -5 11.1533 6.13685 7
-19 14 -5 0.50447 7.06032 9
5 14 5 6.61313 6.67138 11
14 5 -5 9.02797 6.04861 11
-5 19 -5 7.81653 7.49683 10
19 -5 5 -0.588 5.22216 7
-5 -14 5 13.4893 8.16961 9
-14 -5 5 4.65366 8.24052 10
-5 19 5 6.09385 6.40122 11
14 5 5 -7.7729 10.5817 6
-14 19 -5 -0.3169 7.05316 9
-5 -14 -5 -0.3322 3.71182 8
5 14 -5 4.99737 7.04029 11
-14 19 -5 10.7704 8.18291 10
5 14 -5 7.16239 7.34991 12
19 -14 5 10.5367 7.025 7
-19 14 5 2.25911 8.66597 10
5 -19 5 2.09201 6.55585 8
-19 5 -5 6.24245 7.29906 9
19 -14 5 -1.978 9.30744 4
19 -15 -5 4.77408 17.5073 4
15 4 -5 12.6241 5.42495 11
-19 15 -5 1.29982 8.95782 10
-4 19 -5 3.5991 7.32484 10
19 -15 -5 12.998 6.58714 7
4 15 5 7.77295 7.20477 11
-19 4 5 6.79301 7.82449 10
4 -19 -5 0.70663 12.5678 5
-15 -4 -5 12.0351 7.27735 9
-4 -15 5 0.11207 7.41994 9
4 -19 -5 -0.5408 6.20889 8
-19 15 -5 5.56517 7.07601 9
15 -19 5 5.41442 6.05513 8
-19 4 -5 7.49323 7.17962 9
4 15 -5 4.43797 6.74616 11
15 4 5 -0.2754 13.4349 6
-15 -4 5 6.14104 8.24169 10
-19 15 5 2.87867 8.03814 10
19 -15 5 7.15541 6.6337 7
15 -19 -5 -1.5243 5.06423 7
-4 19 5 2.54447 6.92171 11
-15 19 -5 2.08297 8.36269 10
4 15 -5 -5.871 7.77453 12
4 -19 5 -2.5991 4.28786 8
-15 19 -5 4.87543 6.84362 9
-4 -15 -5 4.09759 4.67306 8
16 -19 5 62.901 7.86895 8
19 -16 -5 47.5146 7.60026 7
-19 16 -5 44.4367 8.57598 9
3 16 5 42.4048 8.62363 11
-16 -3 -5 69.1093 9.57075 9
-3 -16 5 56.6367 9.15559 9
-19 3 5 52.1094 9.30946 10
3 -19 -5 50.4779 7.44957 8
-19 16 -5 39.7247 9.19317 10
-3 19 -5 34.5057 8.19861 10
-16 -3 5 20.9731 8.59811 10
-19 3 -5 23.797 7.34206 9
-3 19 5 35.6603 7.75145 11
19 -16 5 40.395 7.62327 7
3 16 -5 34.9575 7.71341 11
16 -19 -5 22.7559 6.40082 7
-16 19 -5 30.0355 9.08731 10
-3 -16 -5 31.7864 5.97258 8
-16 19 -5 26.3882 7.05905 9
-19 16 5 26.9287 8.36154 10
-19 17 -5 18.3962 6.12029 9
-2 -17 5 22.7373 7.86245 9
2 -19 -5 14.1366 5.84367 8
-17 19 5 20.757 6.84679 10
-2 19 -5 24.1269 7.63018 10
-17 -2 -5 21.655 7.48362 9
17 -19 5 27.7655 6.41853 8
2 17 5 31.5782 8.02523 11
-19 17 -5 11.2981 9.20296 10
-2 19 -5 26.6049 8.06335 11
-19 2 5 18.3114 7.60859 10
19 -17 -5 25.9887 6.39483 7
-17 -2 5 16.3508 8.39103 10
-17 19 -5 38.0344 9.02557 10
-2 19 5 45.9555 8.35946 11
19 -17 5 28.2713 6.90066 7
17 -19 -5 29.7774 6.34688 7
-2 -17 -5 19.9782 5.56759 8
-19 2 -5 32.5196 7.42428 9
-19 17 5 28.2804 8.10805 10
2 17 -5 22.6019 7.34308 11
18 -19 5 4.90563 5.3267 8
-1 19 -5 6.15917 6.42257 10
-1 -18 5 -2.0664 6.14966 9
-19 1 5 -0.9768 6.88604 10
-19 18 -5 4.3946 8.05212 10
-1 19 -5 10.8966 7.04599 11
-18 19 5 -4.5056 6.35084 10
-18 -1 -5 2.89926 6.62125 9
1 -19 -5 1.71074 5.16248 8
19 -18 -5 2.1079 5.35269 7
1 18 5 5.10686 7.26767 11
19 -18 5 5.95778 5.79336 7
-19 18 5 0.26291 6.53953 10
1 18 -5 2.89089 7.55567 12
-19 1 -5 4.97829 6.36971 9
1 -19 5 5.05127 6.18706 9
1 18 -5 3.08881 6.58798 11
-18 -1 5 5.44156 7.30445 10
18 -19 -5 9.33469 5.36849 7
-1 19 5 1.82772 6.97977 11
-18 19 -5 1.93698 7.85967 10
19 -18 5 -1.0527 5.32223 8
-1 -18 -5 2.74619 4.68925 8
19 -19 5 -2.3765 3.33227 7
19 -19 -5 1.22443 4.97577 7
0 19 5 -1.3599 6.75083 11
19 -19 5 -1.2018 3.55095 8
-19 19 -5 2.08593 7.38853 10
-19 0 5 4.36542 6.91818 10
-19 19 5 3.04825 6.30093 10
0 -19 -5 2.70162 4.62281 8
0 -19 5 -4.3851 5.82264 9
-19 0 -5 5.45046 6.13073 9
0 19 -5 -3.7003 7.54007 12
0 19 -5 -1.1562 6.3505 11
10 -20 -5 23.6008 6.84563 8
10 10 -5 30.0934 6.94965 11
-10 -10 5 28.1196 8.09557 9
10 -20 5 23.8083 6.37859 8
-10 20 5 21.8709 7.38525 11
20 -10 -5 30.4078 7.3593 7
-20 10 5 20.879 9.42436 10
-20 10 -5 31.9 7.44747 9
-10 20 -5 23.0966 7.91504 10
-10 -10 -5 12.33 6.88429 9
20 -10 5 35.0153 7.29116 7
-9 -11 5 17.7244 7.52348 9
-11 -9 -5 8.72605 6.51713 9
-11 20 5 24.2221 7.43005 11
9 -20 -5 20.1664 6.6145 8
-20 11 -5 16.9017 7.34126 9
20 -11 -5 10.2525 6.62931 7
-20 9 5 37.2143 9.60171 10
11 -20 5 0.31264 11.6669 5
11 9 -5 21.9807 6.79514 11
-9 20 -5 19.9089 7.82338 10
20 -9 5 14.3123 6.82193 7
11 -20 5 15.1909 6.26979 8
20 -11 5 17.5793 6.65964 7
20 -9 -5 7.96089 5.50563 7
11 -20 -5 18.7946 6.57623 8
-11 20 -5 30.4912 7.91711 10
-9 -11 -5 17.3377 6.60715 9
-20 9 -5 14.226 6.90385 9
-11 -9 5 19.6215 7.66405 9
9 11 -5 32.7973 7.39687 11
-20 11 5 37.8245 10.1994 10
9 -20 5 20.0889 6.17314 8
-9 20 5 16.3481 7.17271 11
12 -20 5 18.6178 6.16209 8
20 -12 -5 10.3888 6.33458 7
-8 20 -5 11.3941 7.34081 10
8 -20 -5 8.14925 6.22934 8
-12 20 5 10.4067 7.11904 11
-20 12 -5 8.02214 7.18736 9
20 -8 5 12.8144 6.75562 7
-20 8 5 4.28146 8.02036 10
12 8 -5 8.91143 6.06136 11
-12 -8 -5 7.15293 6.48707 9
-8 -12 5 1.24947 7.17391 9
8 -20 5 10.5196 6.67131 8
-20 8 -5 3.22837 6.35281 9
-12 20 -5 13.0747 7.06474 10
12 -20 -5 5.10197 5.98341 8
-12 -8 5 0.85386 7.22001 9
-8 20 5 2.22015 6.33397 11
-8 -12 -5 4.41812 5.64658 9
8 12 -5 3.90438 6.4612 11
20 -12 5 2.16598 6.066 7
-20 12 5 -2.2884 9.1702 10
-13 20 5 16.3643 6.45305 11
-20 7 5 53.8522 9.16391 10
-20 13 -5 23.6635 7.40148 9
13 7 -5 26.0968 6.85956 11
-7 20 -5 43.0942 8.32767 10
-7 -13 5 32.9506 7.74698 9
20 -7 5 17.5439 6.8358 7
-13 -7 -5 36.5411 7.54351 9
7 -20 -5 41.4892 7.13775 8
13 -20 5 21.4487 6.04297 8
20 -13 -5 30.7337 6.72737 7
-13 20 -5 33.8319 8.32827 10
-13 -7 5 30.4058 7.38291 9
13 -20 -5 14.7717 5.16557 8
20 -13 5 35.843 7.1468 7
-20 7 -5 27.7297 7.05501 9
-7 20 5 27.3079 6.98986 11
7 13 -5 27.5017 7.10399 11
-20 13 5 37.3447 9.63748 10
7 13 -5 13.678 5.68296 12
7 -20 5 32.4464 7.20182 8
-6 20 -5 2.68692 7.19668 10
20 -14 -5 6.10993 5.61952 7
14 -20 5 2.22015 5.55616 8
-14 -6 -5 4.54712 6.37844 9
6 -20 -5 6.02265 6.42383 8
-20 6 5 -1.4652 7.11663 10
6 14 5 -0.9438 4.28699 11
-6 -14 5 6.72623 7.07229 9
14 6 -5 2.86091 5.83508 11
20 -6 5 5.60021 4.84622 7
-20 14 -5 -3.7637 6.68942 9
-14 -6 5 10.5092 7.7394 10
20 -14 5 5.09099 6.38071 7
-20 14 5 -3.6176 8.29041 10
-20 6 -5 1.6293 6.12263 9
6 14 -5 -2.1823 6.41624 11
-14 20 -5 3.34669 7.46482 10
6 14 -5 2.92739 6.60011 12
6 -20 5 3.33277 6.19834 8
-6 20 5 6.93803 6.01306 11
-14 -6 5 1.08047 4.46966 9
-15 -5 -5 32.399 7.80571 9
5 -20 -5 46.5061 7.04784 8
15 5 -5 33.322 6.04337 11
5 15 5 21.7591 7.07727 11
-20 15 -5 31.7929 7.47754 9
-5 -15 5 46.023 8.15282 9
-5 20 -5 23.0147 7.69808 10
-20 5 5 44.7209 8.23848 10
20 -15 -5 25.5446 6.23409 7
15 -20 5 39.1523 6.60957 8
-20 5 -5 37.6086 7.35545 9
5 15 -5 50.575 7.7768 11
-15 20 -5 32.8962 8.47923 10
-20 15 5 55.7814 9.6442 10
-15 -5 5 21.8382 8.46327 10
-5 20 5 52.4821 7.78837 11
5 15 -5 32.644 8.17288 12
20 -15 5 39.5384 7.35918 7
5 -20 5 40.083 6.82958 8
-4 20 -5 33.2053 8.26193 10
4 16 5 40.5308 8.25548 11
20 -16 -5 65.3124 8.06571 7
-20 4 5 68.0794 9.21722 10
-4 -16 5 92.012 9.79688 9
-16 -4 -5 56.0437 8.88847 9
4 -20 -5 67.1599 7.94078 8
16 -20 5 63.7098 7.76055 8
-20 4 -5 79.4226 9.19355 9
-4 20 5 95.8018 10.2909 11
20 -16 5 75.1355 9.10361 7
4 16 -5 51.2471 8.56844 11
4 16 -5 71.0552 9.89762 12
-16 20 -5 78.0492 10.2521 10
-20 16 5 75.7044 10.3367 10
20 -17 -5 16.5806 5.52309 7
-3 -17 5 10.9514 6.66096 9
-20 17 -5 10.8977 6.27777 10
-17 -3 -5 14.1918 6.39001 9
3 17 5 12.0459 6.8965 11
17 -20 5 12.7899 5.51542 8
-3 20 -5 6.07484 6.63863 10
-17 20 5 0.51596 4.60533 10
3 -20 -5 10.6378 5.30819 8
-20 3 5 11.2088 7.02425 10
-17 20 -5 7.98416 7.3346 10
-3 20 5 14.2893 6.9922 11
17 -20 -5 9.10799 4.83644 7
-20 17 5 10.2098 7.12468 10
-17 -3 5 6.84808 7.3974 10
3 17 -5 9.29607 6.98829 12
-20 3 -5 12.7153 6.16264 9
-3 -17 -5 4.6722 3.40266 8
20 -17 5 13.3922 6.00742 7
3 17 -5 6.95994 6.09582 11
3 -20 5 13.7801 6.23199 9
-20 18 -5 18.9225 7.24243 10
-2 20 -5 14.287 6.20463 11
-18 -2 -5 35.2881 7.23576 9
2 -20 -5 30.328 5.56568 8
-20 2 5 12.5143 6.82565 10
20 -18 -5 32.5559 5.96683 7
-2 -18 5 34.7227 7.31363 9
18 -20 5 32.7958 5.80359 8
2 18 5 24.7386 7.08151 11
-2 20 -5 20.2105 6.84272 10
2 -20 5 28.9949 6.82266 9
-18 -2 5 20.2378 7.39827 10
-18 20 -5 44.0299 8.21307 10
2 18 -5 34.3107 6.68694 11
18 -20 -5 18.8469 5.3194 7
-20 2 -5 29.5516 6.69202 9
-2 -18 -5 17.1117 4.59589 8
20 -18 5 22.1419 6.05534 7
2 18 -5 27.0478 7.35543 12
-2 20 5 46.469 7.93056 11
-20 18 5 29.9926 7.28558 10
-19 -1 -5 25.6115 6.84335 9
-1 -19 5 19.9324 6.16762 9
-20 1 5 12.883 6.32221 10
-1 20 -5 33.6755 8.07024 12
1 -20 -5 18.4654 4.60611 8
19 -20 5 -0.3764 3.76721 8
-19 20 5 11.0149 5.21197 10
-20 19 -5 13.5634 6.72738 10
-1 20 -5 13.5328 6.07217 11
1 19 5 12.1795 6.57707 11
20 -19 -5 19.4767 5.1747 7
-1 20 -5 13.9066 5.9277 10
-20 1 -5 19.1297 6.42517 9
-19 -1 5 15.5807 6.81043 10
-20 19 5 26.2645 6.73923 10
-1 -19 -5 9.54167 3.9306 8
1 -20 5 14.0313 5.7959 9
19 -20 -5 15.5616 4.84647 7
1 19 -5 16.2715 6.21522 11
20 -19 5 7.2928 4.12424 7
1 19 -5 20.078 6.63947 12
-19 20 -5 21.0042 7.24718 10
-1 20 5 23.5521 6.86929 11
0 20 5 3.31141 6.31166 11
-20 20 5 3.13722 4.40154 10
0 -20 5 0.71434 5.25683 9
0 20 -5 0.23341 5.36802 11
0 20 -5 -1.2728 6.03197 12
-20 20 -5 3.6486 6.18019 10
20 -20 -5 1.60423 4.20661 7
-20 0 -5 2.57929 5.50888 9
-20 0 5 -0.5737 5.58861 10
0 -20 -5 -1.1674 3.50898 8
-21 11 -5 34.0593 7.32836 9
-11 -10 -5 28.7284 6.65818 9
-10 21 -5 52.0212 8.61501 10
10 -21 -5 37.2752 6.60067 8
-11 21 5 30.8716 7.01077 11
21 -10 5 37.0488 7.00257 7
11 -21 5 37.6451 6.46676 8
-21 10 5 33.1162 8.7447 10
11 10 -5 28.7652 6.60453 11
21 -11 -5 23.4198 6.47121 7
-10 -11 5 25.1629 7.04597 9
10 -21 5 31.341 6.67233 8
-21 11 5 48.3368 9.57853 10
-10 -11 -5 14.4282 6.05107 9
10 11 -5 34.2494 6.59118 11
21 -10 -5 17.8051 5.78094 7
-21 10 -5 21.0438 6.78534 9
-11 21 -5 27.8687 7.51282 10
-10 21 5 24.8101 6.78627 11
11 -21 -5 21.9008 6.04654 8
21 -11 5 27.6482 6.39267 7
-11 -10 5 24.2693 7.08746 9
-9 -12 5 52.9054 8.09435 9
-21 9 5 58.6763 9.11139 10
12 9 -5 46.0515 7.59747 11
-12 21 5 43.8902 7.85221 11
-21 12 -5 46.3306 8.0203 9
12 -21 5 64.2676 7.4502 8
-12 -9 -5 53.195 8.30671 9
9 -21 -5 58.0142 7.39838 8
21 -12 -5 57.774 7.80186 7
21 -9 5 56.0395 8.14369 7
-9 21 -5 56.9823 8.81486 10
9 12 -5 53.6142 7.37264 11
12 -21 -5 38.0763 6.50406 8
-9 -12 -5 27.6953 6.73531 9
21 -12 5 51.5113 7.18113 7
9 -21 5 45.6506 7.01218 8
-21 9 -5 39.9213 7.20034 9
-12 21 -5 66.3325 8.85745 10
-9 21 5 35.4464 7.00817 11
-12 -9 5 42.7803 7.79023 9
21 -13 -5 2.67226 5.36264 7
-21 8 5 -6.7033 6.94738 10
13 8 -5 1.50293 5.74471 11
13 -21 5 2.81541 5.17308 8
-13 -8 -5 -5.0249 5.4413 9
-8 21 -5 8.091 6.921 10
-13 21 5 1.94512 5.0606 11
-8 -13 5 -1.0793 6.13706 9
-21 13 -5 6.87951 6.30335 9
8 -21 -5 5.35626 5.38533 8
21 -8 5 -3.7052 5.77807 7
21 -13 5 6.28512 5.65154 7
8 -21 5 -0.8899 5.65145 8
-13 21 -5 -3.0184 6.20723 10
-21 13 5 -6.5704 8.00386 10
13 -21 -5 1.2914 4.75084 8
-8 21 5 2.78973 5.66084 11
-8 -13 -5 0.79963 3.98262 9
8 13 -5 -2.8767 5.6845 11
-21 8 -5 -0.9492 5.32295 9
-13 -8 5 -1.3187 6.80307 10
-13 -8 5 5.60841 6.31077 9
14 -21 5 10.6341 5.0306 8
7 -21 -5 19.665 5.53326 8
-21 7 5 10.0013 6.88978 10
-7 21 -5 11.4788 6.98357 10
-14 -7 -5 6.927 5.88649 9
14 7 -5 10.1303 5.65244 11
-21 14 -5 10.8073 6.236 9
-7 -14 5 15.6476 6.44009 9
21 -7 5 8.10937 4.98814 7
21 -14 -5 13.3794 5.53108 7
-14 21 -5 4.90698 6.45198 10
-7 21 5 9.25238 5.76818 11
-21 7 -5 4.21223 5.31277 9
7 14 -5 10.0497 5.79637 11
-14 -7 5 9.16392 7.02325 10
-21 14 5 0.90875 7.5452 10
21 -14 5 -0.062 5.75425 7
7 -21 5 2.66622 5.89014 8
7 14 -5 0.32751 3.79473 12
-14 -7 5 -2.2609 4.08855 9
-15 -6 -5 16.5807 6.32589 9
-6 21 -5 13.3608 6.72917 10
15 -21 5 13.5587 5.26773 8
-21 15 -5 2.51276 4.15007 9
15 6 -5 10.1812 4.33711 11
6 -21 -5 16.9825 5.68888 8
-21 6 5 18.9383 7.01017 10
-6 -15 5 23.0337 6.70896 9
6 15 5 -2.2634 6.03185 11
21 -15 -5 14.8167 5.24703 7
-15 21 -5 11.5753 6.78993 10
-21 6 -5 10.4783 5.3796 9
6 15 -5 0.50179 5.60869 12
6 15 -5 5.37383 5.67397 11
-21 15 5 10.2604 7.6733 10
21 -15 5 13.9038 5.88037 7
-15 -6 5 1.90363 6.76552 10
6 -21 5 3.21664 5.12773 8
-6 21 5 7.3098 5.49885 11
21 -16 -5 6.43817 5.12556 7
-5 21 -5 4.4677 6.42646 10
5 16 5 -3.7815 5.42011 11
16 -21 5 6.62454 4.97042 8
-5 -16 5 6.26556 5.93785 9
-21 5 5 9.91031 6.48173 10
-16 -5 -5 -0.4155 5.66727 9
5 -21 -5 8.61786 5.13784 8
5 16 -5 2.42715 5.20236 11
-16 21 -5 2.33575 6.81684 10
-16 -5 5 -4.6104 6.58123 10
-21 16 5 -2.8184 6.64608 10
-21 5 -5 -0.5042 4.95838 9
-5 21 5 3.9844 6.02022 11
5 16 -5 3.85144 5.84312 12
21 -16 5 1.81735 5.43344 7
4 17 5 9.69624 6.1983 11
4 -21 -5 15.2184 5.01074 8
-4 21 -5 25.6827 7.92508 12
17 -21 5 21.1361 4.99101 8
-17 -4 -5 24.3311 6.48953 9
-4 -17 5 28.1807 6.58618 9
-21 4 5 22.9881 6.87495 10
21 -17 -5 19.7859 5.5234 7
-4 21 -5 18.9716 6.59265 10
4 17 -5 17.2652 6.28256 12
-21 17 5 11.702 7.05195 10
-17 -4 5 7.91908 6.44258 10
-17 21 -5 16.4654 6.99653 10
-21 4 -5 7.46542 5.12042 9
4 -21 5 11.2465 5.74245 9
-4 21 5 24.0555 6.7772 11
21 -17 5 12.5618 5.43484 7
4 17 -5 16.6749 5.61298 11
21 -18 -5 8.7545 4.76944 7
3 -21 -5 4.77779 4.28756 8
-3 21 -5 9.81399 5.90992 10
-21 3 5 1.44754 6.05347 10
18 -21 5 8.93946 4.47921 8
-18 -3 -5 -1.783 5.49797 9
-3 -18 5 4.27394 5.54386 9
3 18 5 3.05797 5.95147 11
-3 21 -5 5.8325 6.96763 12
-18 21 -5 14.4945 6.7606 10
-21 18 5 8.27849 6.21952 10
-18 -3 5 4.9992 6.03319 10
3 18 -5 10.8218 5.2784 11
3 18 -5 11.5586 5.77812 12
-21 3 -5 11.4628 5.01605 9
3 -21 5 5.81818 5.56912 9
-3 21 5 13.2448 6.59064 11
21 -18 5 7.6876 5.08623 7
-21 2 5 3.98362 6.24983 10
-2 21 -5 0.98957 6.44951 12
21 -19 -5 0.30208 4.38955 7
-2 -19 5 1.77519 5.11626 9
-19 -2 -5 6.72699 5.78438 9
2 19 5 -3.6615 5.76194 11
2 -21 -5 4.64821 3.9477 8
19 -21 -5 -0.996 3.90187 7
-21 2 -5 -0.8561 4.96285 9
-21 19 5 0.72998 5.77653 10
2 19 -5 -2.8998 5.50471 12
21 -19 5 -1.6016 3.45997 7
-19 21 -5 6.08234 6.51108 10
-2 21 5 2.2136 6.10569 11
2 -21 5 -1.23 5.41587 9
2 19 -5 2.11956 5.19221 11
-19 -2 5 2.40585 4.10416 10
-21 1 5 2.75818 4.54894 10
1 20 5 13.0165 6.03241 11
1 -21 -5 5.01929 2.84783 8
21 -20 -5 7.11287 4.24227 7
-20 -1 -5 1.10064 6.51856 9
-1 -20 5 6.89688 5.3859 9
-1 21 -5 10.256 6.60596 12
1 20 -5 13.0174 6.08593 12
-21 20 5 0.6315 4.10165 10
-1 21 5 7.2186 5.95315 11
1 -21 5 9.06904 5.82093 9
1 20 -5 12.627 5.2485 11
-21 1 -5 1.23346 5.05391 9
20 -21 -5 -0.922 4.04793 7
-20 21 -5 3.27466 5.20989 10
-11 22 -5 41.872 7.35258 10
-11 -11 5 59.9316 7.52691 9
11 11 -5 50.2594 6.65035 11
11 -22 -5 44.2324 6.18408 8
11 -22 5 58.3855 6.63649 8
22 -11 -5 39.8041 6.19552 7
22 -11 5 43.8683 6.67179 7
-11 22 5 39.7096 6.72366 11
-22 11 -5 35.7665 6.43978 9
-11 -11 -5 28.2334 6.26991 9
10 -22 -5 -1.4361 4.64242 8
12 -22 5 3.38779 5.37131 8
-22 12 -5 1.67586 4.98491 9
22 -12 -5 5.15367 5.18175 7
-22 10 5 1.57177 6.79009 10
-10 -12 5 -2.8306 5.39534 9
-10 22 -5 -2.1663 6.24145 10
22 -10 5 2.644 5.36659 7
-12 -10 -5 2.9588 5.09981 9
12 10 -5 8.95359 5.37622 11
-12 22 5 0.97844 4.95363 11
-22 12 5 0.25189 6.9238 10
10 12 -5 6.17957 5.37244 11
-10 -12 -5 5.29757 4.70594 9
22 -12 5 3.87681 4.97351 7
-12 22 -5 3.73005 6.60566 10
-22 10 -5 8.59508 5.34115 9
12 -22 -5 8.09597 4.73355 8
-12 -10 5 1.43206 5.53743 9
10 -22 5 1.55787 4.98311 8
-10 22 5 0.19334 5.40069 11
-22 13 -5 8.69386 4.31859 9
-22 9 5 23.3829 6.97945 10
-9 22 -5 9.95989 6.56647 10
13 9 -5 20.5844 5.6132 11
22 -13 -5 15.9099 5.4071 7
13 -22 5 15.098 5.55022 8
22 -9 5 21.244 5.86033 7
-9 -13 5 21.9546 6.05099 9
9 -22 -5 4.77735 4.70068 8
-13 -9 -5 19.472 5.80991 9
22 -13 5 10.7118 5.16997 7
9 13 -5 12.5731 5.24477 11
-22 9 -5 4.97405 5.13514 9
-13 22 -5 11.1363 6.20797 10
-13 -9 5 6.17746 5.42149 9
-9 22 5 5.29473 5.35078 11
-13 -9 5 11.0188 5.56524 10
-22 13 5 13.7244 7.31017 10
13 -22 -5 7.74739 4.33797 8
9 -22 5 6.23978 5.17954 8
14 -22 5 20.7657 5.22801 8
8 -22 -5 25.5711 5.33266 8
-14 -8 -5 16.5208 5.88849 9
-8 22 -5 12.8233 6.01286 12
-8 -14 5 19.1537 5.73552 9
14 8 -5 20.1059 5.21099 11
22 -14 -5 19.9666 5.43389 7
-22 8 5 13.5913 6.34259 10
-8 22 -5 4.54261 6.31722 10
-22 14 5 5.24567 6.78223 10
-14 22 -5 11.5628 6.28846 10
8 -22 5 8.28037 5.25192 8
-8 22 5 9.03505 5.63816 11
-14 -8 5 0.77264 3.79729 9
-22 8 -5 5.60167 4.80864 9
-14 -8 5 7.50434 5.33226 10
8 14 -5 11.777 5.25243 11
22 -14 5 9.35706 5.23626 7
15 -22 5 6.04596 4.94736 8
-22 7 5 -3.8222 5.7028 10
7 -22 -5 10.2995 4.9874 8
22 -15 -5 4.81798 4.69078 7
-15 -7 -5 2.1284 5.38213 9
-7 22 -5 5.91231 6.14811 10
-7 -15 5 -0.8198 5.04941 9
-7 22 -5 4.78249 7.08586 12
7 -22 5 -1.6789 4.24071 8
-22 7 -5 -0.2772 4.61101 9
-15 -7 5 3.20762 4.81898 10
22 -15 5 0.78934 5.13682 7
7 15 -5 -3.6388 4.89801 11
-15 22 -5 1.97016 6.08411 10
-7 22 5 1.94028 5.31917 11
-22 15 5 -7.2709 6.3972 10
-6 -16 5 23.5199 6.03741 9
6 -22 -5 24.6022 5.29439 8
-16 -6 -5 24.3324 6.45995 9
-6 22 -5 15.2348 6.55018 10
-6 22 -5 28.7762 7.75696 12
22 -16 -5 12.143 4.78654 7
16 -22 5 22.8209 5.47927 8
-22 6 5 22.984 6.31741 10
-22 16 5 15.266 6.4546 10
6 16 -5 1.03308 6.2453 12
-22 6 -5 16.6999 5.09955 9
-16 -6 5 7.041 5.79793 10
6 -22 5 21.6044 5.56145 9
-6 22 5 31.4985 6.01966 11
22 -16 5 21.7831 5.32392 7
-16 22 -5 21.5662 6.31576 10
6 16 -5 26.7824 5.61773 11
5 -22 -5 6.83036 4.45401 8
22 -17 -5 6.79581 4.78758 7
-5 22 -5 2.25499 7.0685 12
17 -22 5 4.85374 5.01365 8
-5 22 -5 1.76307 5.64159 10
-17 -5 -5 6.13 5.52761 9
-5 -17 5 6.43178 5.29083 9
-22 5 5 11.6896 6.00892 10
-17 22 -5 7.10838 6.07158 10
5 -22 5 12.1252 5.24777 9
5 17 -5 13.9055 5.10928 11
22 -17 5 10.6342 5.06341 7
5 17 -5 3.47711 3.95499 12
-22 5 -5 6.97021 4.31393 9
-22 17 5 12.1625 6.40877 10
-5 22 5 11.8246 5.75793 11
-4 -18 5 2.09953 5.13989 9
-22 4 5 2.08118 5.95352 10
22 -18 -5 5.56772 4.7528 7
-4 22 -5 4.9871 6.61601 12
4 18 5 -3.7764 4.23107 11
-18 -4 -5 1.98527 5.0225 9
-4 22 -5 4.72431 5.30667 10
18 -22 5 -2.6832 4.53181 8
4 -22 -5 3.47069 4.01767 8
-18 22 -5 -1.9391 6.33884 10
22 -18 5 3.42456 4.36941 7
-22 4 -5 2.75952 4.21698 9
4 18 -5 1.23256 4.50194 12
4 -22 5 0.40086 5.14745 9
-22 18 5 0.26165 6.2183 10
-4 22 5 2.50316 6.12562 11
4 18 -5 2.89226 4.97427 11
-19 -3 -5 18.3865 6.26791 9
-3 -19 5 17.964 6.06544 9
-22 3 5 6.93935 4.18724 10
22 -19 -5 16.7256 4.84283 7
3 -22 -5 10.9881 4.12781 8
-3 22 -5 19.3514 7.05644 12
3 19 -5 13.7675 5.71917 11
3 19 -5 4.36131 4.97178 12
-19 22 -5 10.3378 6.60062 10
-22 3 -5 8.25012 4.92772 9
-22 19 5 7.04534 5.54696 10
3 -22 5 1.44708 5.3416 9
-3 22 5 12.7907 6.74794 11
22 -19 5 -1.7299 2.54522 7
-23 11 5 34.0207 6.64795 10
12 11 -5 25.3159 5.29286 11
23 -11 5 19.8565 5.36678 7
-11 23 -5 5.29756 5.79589 10
11 -23 -5 18.8937 4.71614 8
12 -23 5 29.5628 5.08004 8
-12 -11 -5 13.5873 4.8564 9
-11 -12 5 26.5237 5.38639 9
-12 23 -5 17.9211 6.38476 10
12 -23 -5 23.853 4.81438 8
-12 -11 5 20.4669 5.21507 9
-11 23 5 8.81619 4.52818 11
-23 12 5 35.67 7.45175 10
23 -12 5 21.0602 5.28071 7
11 -23 5 21.3881 5.05483 8
11 12 -5 22.1659 5.31543 11
-10 -13 5 20.4048 5.35144 9
-13 -10 -5 13.0802 5.37494 9
13 -23 5 27.3153 5.10278 8
-10 23 -5 16.2141 6.22701 10
23 -10 5 19.5184 4.96232 7
-23 10 5 26.9985 6.27305 10
23 -13 -5 13.01 4.8257 7
13 10 -5 21.1371 4.95567 11
10 -23 -5 23.7698 4.78848 8
13 -23 -5 5.9508 2.97747 8
-10 23 5 16.4992 5.52614 11
23 -13 5 11.6666 4.66707 7
-13 23 -5 13.5371 5.98298 10
10 13 -5 12.607 4.7134 11
-13 -10 5 10.9671 3.88741 9
10 -23 5 19.5775 4.63373 8
-23 13 5 20.8615 6.50119 10
14 -23 5 7.39109 4.84561 8
-9 23 -5 0.66326 5.80352 10
-23 9 5 7.17666 6.02723 10
-14 -9 -5 6.39277 5.31849 9
-9 -14 5 -0.6006 4.58947 9
23 -14 -5 9.0513 4.74891 7
9 -23 -5 6.63874 4.34312 8
14 9 -5 -1.9841 3.1297 11
9 -23 5 2.0292 4.00095 8
23 -14 5 5.50342 4.51021 7
-14 23 -5 3.99738 6.24611 10
-23 9 -5 3.11829 3.27377 9
9 14 -5 11.9449 4.87677 11
-23 14 5 7.26004 6.03455 10
-9 23 5 3.53091 5.25226 11
-15 -8 -5 16.1226 5.47017 9
-8 23 -5 13.0976 5.86607 10
15 -23 5 20.5185 5.04334 8
-8 -15 5 23.2684 5.3631 9
23 -15 -5 21.9863 5.14939 7
8 -23 -5 24.7537 4.82311 8
-23 8 5 19.9502 6.1167 10
-23 8 -5 11.4692 3.63163 9
8 -23 5 7.38101 3.14362 8
8 -23 5 1.1002 4.07367 9
8 15 -5 12.938 5.07648 11
-23 15 5 14.3942 6.38082 10
-15 23 -5 15.0802 6.04487 10
23 -15 5 17.9444 5.45736 7
-8 23 5 15.7152 5.50692 11
-7 23 -5 4.56311 5.45641 10
-16 -7 -5 8.00403 5.31815 9
-23 7 5 15.1403 6.1312 10
-7 -16 5 7.53281 5.17344 9
16 -23 5 11.3019 4.90672 8
7 -23 -5 9.50989 4.44248 8
-7 23 -5 0.8924 4.23307 12
23 -16 -5 9.44552 4.83078 7
-23 7 -5 3.41772 3.29242 9
7 16 -5 12.3071 5.164 11
-23 16 5 5.60738 6.00141 10
23 -16 5 0.70421 4.77443 7
-16 23 -5 7.74737 6.02011 10
-7 23 5 6.44897 5.73601 11
-23 6 5 8.60323 6.43996 10
17 -23 5 9.77186 5.16798 8
-6 23 -5 4.29066 5.24558 10
-6 -17 5 7.83629 5.25619 9
23 -17 -5 8.48926 4.62039 7
-6 23 -5 5.75065 5.80385 12
6 -23 -5 4.15895 4.34457 8
-17 -6 -5 8.3152 5.48641 9
-23 6 -5 3.1342 2.95819 9
-6 23 5 6.93766 5.83469 11
6 17 -5 2.75838 4.79341 11
-17 23 -5 3.50258 6.3662 10
-23 17 5 6.31225 6.61899 10
23 -17 5 9.10031 4.75438 7
12 -24 5 32.4622 5.0096 8
-24 12 5 27.585 6.29636 10
24 -12 5 18.2537 4.84118 7
-12 24 -5 17.4774 6.78302 10
12 12 -5 13.2066 3.65797 11
-11 24 -5 6.45237 6.30866 10
11 -24 -5 6.58464 4.24709 8
13 -24 5 10.5348 4.7549 8
-13 24 -5 4.49028 6.43918 10
11 13 -5 13.411 4.75359 11
11 -24 5 4.03022 4.22527 8
10 -24 -5 8.32804 4.41593 8
14 -24 5 24.5843 5.35596 8
10 -24 5 10.3639 3.221 8
0 0 6 3483.37 233.161 3
0 0 6 3463.36 230.455 1
1 0 6 351.068 30.6661 3
-1 0 6 318.451 29.5967 3
-1 0 6 346.904 28.1675 2
0 1 6 378.265 31.2916 3
0 -1 6 358.632 30.5226 3
1 -1 6 331.778 27.0327 2
1 0 6 313.123 25.9528 6
-1 0 6 343.649 26.9719 1
0 -1 6 342.318 27.3956 2
-1 1 6 405.215 31.8853 3
-1 1 6 328.435 26.4206 1
1 -1 6 367.047 27.5256 1
1 -1 -6 277.092 25.2408 4
0 -1 6 355.801 27.5591 1
1 -1 6 347.628 30.3259 3
-1 -1 6 204.588 21.9379 3
1 -2 6 225.376 19.2582 2
-1 -1 6 235.04 20.0643 1
-1 -1 -6 185.349 16.5377 5
2 -1 -6 187.11 17.4718 4
1 -2 6 215.243 22.1682 3
1 -2 6 226.824 20.3934 1
-2 1 6 244.204 24.7598 3
1 -2 -6 221.612 17.6095 4
2 -1 6 240.251 18.927 2
-2 1 -6 172.439 16.4413 5
2 -1 6 163.756 17.7909 1
-1 -1 6 216.764 20.4421 2
1 1 6 216.515 18.709 6
-1 2 6 239.474 24.6827 3
2 -2 -6 143.655 15.9043 4
2 -2 6 185.583 16.9709 2
0 -2 6 169.623 18.0298 2
-2 0 -6 141.728 14.4299 5
2 -2 6 180.88 21.1342 3
-2 0 6 183.637 20.8538 3
0 -2 6 190.561 18.6213 1
2 0 6 171.641 16.5101 6
0 2 6 187.41 17.501 6
-2 0 6 174.638 18.2585 2
0 -2 -6 176.795 20.6706 2
-2 2 6 174.3 20.9305 3
2 -2 6 185.451 18.2091 1
-2 0 6 183.683 18.1856 1
0 -2 6 180.743 20.5389 3
1 -3 -6 19.2945 12.9196 2
2 -3 6 28.6833 9.80659 2
-2 3 6 24.7964 13.059 3
-3 1 6 -0.0206 9.52471 2
-1 -2 6 13.3436 11.7344 3
-2 -1 -6 8.00259 6.55475 5
2 -3 6 9.30133 10.2795 3
3 -1 6 2.46998 8.67861 1
-3 2 -6 8.41395 5.47274 5
3 -1 6 5.17622 6.45142 6
-3 1 6 8.98113 12.8584 3
3 -2 -6 8.51693 6.83314 4
-2 -1 -6 14.8577 10.5568 2
2 -3 6 13.0845 9.47701 1
-1 -2 6 4.89332 9.83757 1
-1 -2 6 7.7831 10.6516 2
1 -3 -6 2.95201 4.27962 5
1 2 6 7.10781 8.57088 6
1 -3 -6 12.055 7.70485 4
3 -1 -6 20.5774 6.77072 4
2 1 6 38.7922 9.60072 6
-2 -1 6 34.7389 10.6218 1
1 -3 6 28.6948 10.2049 1
-1 3 6 37.5134 16.206 3
3 -2 6 18.9572 7.61958 2
-1 -2 -6 27.7939 7.46862 5
-1 -2 -6 15.6124 12.1116 2
-2 -1 6 32.1227 13.6095 3
2 -3 -6 30.4941 9.1453 4
-3 1 -6 21.569 7.10109 5
3 -2 6 8.239 8.22316 1
-2 -1 6 39.7136 11.648 2
2 -3 -6 27.5465 11.9228 2
1 -3 6 25.6596 10.6267 2
1 -3 6 32.6842 11.6397 3
-3 2 6 36.1035 13.6704 3
3 -3 -6 742.463 54.1578 4
0 3 6 837.521 54.8942 6
0 -3 -6 798.71 53.9482 4
0 -3 6 838.96 56.7232 2
3 -3 6 793.363 57.4245 3
-3 0 -6 749.314 53.475 5
0 -3 -6 721.96 53.548 5
-3 0 6 773.124 58.7298 3
0 -3 6 781.411 56.739 1
3 0 6 731.509 54.04 6
0 -3 -6 721.833 58.1888 2
3 -3 6 807.98 56.1316 1
-3 0 6 797.052 57.3146 2
-3 3 6 852.924 60.0536 3
0 -3 6 809.189 57.9344 3
4 -2 -6 35.2091 8.80903 4
2 -4 6 36.6034 10.773 2
2 -4 6 46.0649 11.8298 3
-2 4 6 42.239 14.4411 3
-2 -2 6 46.7933 14.5052 3
-4 2 -6 37.9847 7.29133 5
2 -4 -6 53.8807 10.3214 4
2 -4 6 33.1323 10.7181 1
-4 2 6 57.8681 17.0739 3
-2 -2 -6 24.945 12.9804 2
2 2 6 46.3276 9.83898 6
2 -4 -6 46.5583 15.484 2
-2 -2 6 42.2471 13.1469 2
-2 -2 6 44.1011 12.4522 1
-2 -2 -6 38.566 7.7363 5
1 -4 -6 56.9039 9.35719 5
-3 -1 -6 88.1448 11.4843 5
4 -3 -6 79.8584 15.1228 1
4 -3 -6 81.8884 11.2982 4
-1 -3 6 104.806 15.4776 2
-1 -3 6 81.0918 14.6577 1
3 -4 6 93.4216 14.9911 3
1 3 6 74.5173 12.297 6
3 -4 6 84.1387 14.2414 1
-1 -3 6 85.1402 16.6738 3
-3 -1 -6 48.8269 13.0364 2
-4 1 6 88.41 18.2198 3
4 -1 6 56.7928 10.1632 6
1 -4 -6 76.6606 11.5785 4
-3 4 6 64.4698 15.6465 3
-4 1 6 65.6975 14.011 2
1 -4 -6 74.6929 16.384 2
1 -4 6 98.1946 17.0102 3
-3 -1 6 126.506 17.7769 2
3 1 6 104.809 14.276 6
-4 1 -6 107.273 12.6724 5
3 -4 -6 97.1643 17.2662 2
-3 -1 6 90.8152 17.8534 3
-1 -3 -6 109.89 18.7038 2
-3 -1 6 102.362 16.8742 1
-1 4 6 103.15 19.5517 3
-1 4 6 87.5751 12.8002 6
-1 -3 -6 88.841 12.0989 5
-4 3 6 105.02 18.9346 3
1 -4 6 103.4 15.988 1
1 -4 6 90.1131 14.471 2
3 -4 -6 105.535 13.0262 4
0 4 6 50.545 10.6315 6
0 -4 -6 47.6639 8.90283 5
4 -4 6 50.3458 12.9361 3
0 -4 -6 39.5141 17.2819 2
-4 0 6 62.7083 14.6379 2
-4 4 6 53.423 16.7256 3
-4 0 -6 51.4619 18.2945 3
4 0 6 50.0182 10.3929 6
4 -4 6 51.46 10.0791 4
4 -4 -6 36.7921 12.9656 1
4 -4 -6 68.8653 10.9889 4
0 -4 6 49.7892 13.4632 1
0 -4 6 34.3777 13.1139 3
-4 0 -6 54.2453 9.41905 5
0 -4 -6 41.8519 9.10776 4
-4 0 6 53.7833 17.2505 3
0 -4 6 38.6646 11.732 2
4 -4 6 41.3526 12.3202 1
-5 2 6 131.971 21.807 3
2 -5 -6 154.934 15.8496 4
-2 -3 6 124.846 20.7105 3
-3 -2 -6 164.71 26.3182 3
-3 -2 -6 135.361 14.0448 5
2 3 6 141.794 16.0654 6
5 -3 -6 125.528 15.3253 4
-5 2 6 139.626 19.2083 2
-2 -3 6 144.017 20.0357 1
3 2 -6 124.241 14.8022 6
5 -3 -6 105.581 19.016 1
3 -5 6 126.653 18.1806 1
-2 -3 6 146.92 19.746 2
-3 5 6 140.813 22.163 3
3 -5 6 95.4354 16.67 3
-3 -2 -6 96.9931 17.8667 2
2 -5 -6 122.869 13.8393 5
2 -5 -6 129.705 20.744 2
3 -5 -6 118.059 20.9364 2
2 -5 6 114.176 17.4845 1
-2 -3 -6 117.29 13.5982 5
-3 -2 6 123.388 19.2979 1
-2 5 6 133.283 22.3228 3
3 -5 -6 125.547 15.0343 4
2 -5 6 98.5437 15.4327 2
3 2 6 123.958 15.6403 6
5 -2 -6 106 13.9092 4
-2 5 6 109.678 15.2833 6
-5 2 -6 127.554 12.5817 5
5 -3 6 129.862 14.1728 4
-3 -2 6 111.91 20.4902 3
-2 -3 -6 106.713 19.5784 2
-3 -2 6 148.882 19.9363 2
2 -5 6 98.3748 16.531 3
-5 3 6 155.633 23.6489 3
4 -5 6 194.507 17.4853 4
1 -5 -6 194.16 17.9387 4
5 -4 -6 158.119 22.7868 1
-4 -1 -6 165.365 25.6179 3
1 -5 -6 182.218 26.4874 2
4 -5 6 181.9 20.8306 1
-5 1 6 187.124 22.6564 2
-5 1 6 184.294 26.0932 3
4 1 -6 164.042 17.5866 6
-1 -4 6 167.541 22.4267 3
1 -5 -6 164.051 16.5221 5
-4 5 6 161.942 25.2031 3
-1 -4 6 179.12 20.9571 2
-4 -1 -6 185.041 16.5877 5
5 -4 -6 167.65 17.4998 4
-1 -4 6 169.274 21.5197 1
5 -1 6 171.901 17.6977 6
1 4 6 163.488 17.8345 6
-1 5 6 159.171 17.5544 6
1 -5 6 168.321 21.0456 1
-4 -1 6 164.639 23.4349 3
-4 -1 6 181.936 22.666 1
4 -5 -6 186.847 17.5809 4
-4 -1 6 157.649 20.6577 2
-5 4 6 174.029 23.4469 3
1 -5 6 115.175 20.2666 3
5 -1 -6 171.342 17.5754 6
-5 1 -6 185.595 16.3339 5
5 -4 6 178.389 16.767 4
4 -5 -6 155.166 23.5699 2
-1 -4 -6 164.051 15.3333 5
4 1 6 189.975 18.6401 6
-1 -4 -6 162.594 25.3304 2
1 -5 6 168.915 20.1056 2
-5 1 -6 171.975 27.7456 3
5 0 -6 311.273 26.7503 6
5 -5 6 371.273 27.0601 4
0 -5 6 325.548 29.8962 2
-5 0 -6 371.62 25.4892 5
0 -5 -6 329.833 35.3527 2
0 -5 -6 319.604 25.6734 5
-5 0 6 388.979 32.3296 2
0 5 6 320.126 26.9487 6
5 0 6 336.151 26.499 6
-5 5 6 289.409 31.7581 3
0 -5 6 326.719 30.4849 1
5 -5 -6 373.952 27.1578 4
-5 0 -6 320.311 36.5503 3
-5 0 6 351.371 35.0629 3
5 -5 6 253.385 28.2148 1
3 3 -6 67.0955 10.549 6
-3 -3 6 53.6422 15.2717 1
-3 -3 6 65.7773 17.8386 3
-6 3 6 62.2199 15.484 2
3 3 6 80.7439 12.713 6
3 -6 -6 73.4341 19.1204 2
6 -3 6 87.7101 12.3013 4
-3 -3 6 47.1892 15.4391 2
-3 -3 -6 74.0008 20.4407 3
-3 -3 -6 96.5168 11.0991 5
-3 -3 -6 6.28496 17.3454 2
3 -6 6 45.5115 14.0259 1
3 -6 -6 70.1916 10.7399 4
6 -3 -6 70.7488 18.3602 1
-3 6 6 55.3175 10.8163 6
-3 6 6 46.6908 16.7296 3
3 -6 -6 62.0505 10.2377 5
6 -3 -6 67.0858 11.5279 4
-6 3 6 77.5084 19.6561 3
6 -2 6 100.879 13.0769 4
-6 2 6 76.7029 20.2764 3
-2 -4 6 59.9806 16.9816 1
-2 -4 6 69.2186 17.387 3
6 -2 6 60.9772 10.993 6
-4 -2 -6 70.4977 10.2048 5
-4 -2 -6 89.0087 22.2728 3
4 2 -6 55.0554 10.5993 6
2 -6 -6 67.0612 10.8554 5
-4 6 6 41.6787 17.4603 3
2 4 6 80.8119 12.3923 6
2 -6 -6 84.261 12.4592 4
-2 -4 6 71.4337 15.5593 2
2 -6 -6 60.6247 19.8227 2
-6 2 6 70.741 16.219 2
6 -4 -6 71.8188 12.0254 4
6 -4 -6 58.7006 18.1655 1
4 -6 6 75.9017 15.5776 1
-4 -2 6 25.825 13.3407 2
-2 6 6 21.4825 17.6364 3
-2 6 6 22.9307 9.25879 6
-6 4 6 22.8057 15.7678 3
4 -6 -6 22.478 9.1497 4
-2 -4 -6 5.13 16.828 2
6 -2 -6 27.6558 9.2929 6
6 -4 6 19.7776 8.75133 4
-2 -4 -6 15.2323 7.40086 5
-4 -2 6 23.2924 15.0696 3
4 -6 -6 27.8372 16.1918 2
-4 -2 6 22.0117 14.6212 1
4 2 6 28.0878 10.3336 6
2 -6 6 30.0076 13.0276 1
6 -2 -6 20.5155 9.25747 4
2 -6 6 5.54357 11.0524 2
-6 2 -6 6.95276 17.6015 3
-6 2 -6 25.1588 8.58823 5
-5 -1 -6 29.7217 17.9373 3
-6 1 6 38.8365 15.6576 2
1 -6 -6 35.3571 8.93181 5
6 -5 -6 10.8322 15.5051 1
6 -1 6 29.6888 9.56531 6
6 -1 6 39.2927 9.87764 4
-1 -5 6 10.5173 13.2176 3
5 1 -6 47.6503 10.9733 6
-1 -5 6 34.9165 14.1631 1
1 -6 -6 34.109 19.628 2
-1 -5 6 42.7162 14.2646 2
1 5 6 26.1725 9.00245 6
6 -5 -6 36.6783 10.6412 4
-6 1 6 35.4571 17.0404 3
-5 -1 -6 45.261 9.28298 5
5 -6 6 34.6832 9.56961 4
5 -6 6 32.6992 13.6665 1
1 -6 -6 46.2042 10.9387 4
-5 6 6 29.8939 16.9628 3
-6 1 -6 101.367 12.0222 5
-5 -1 6 69.1224 17.7739 2
-1 -5 -6 71.0944 10.2609 5
-6 5 6 47.3054 18.2568 3
5 1 6 104.027 13.8732 6
1 -6 6 47.9054 13.8313 2
6 -5 6 83.1321 11.7884 4
1 -6 6 85.7473 16.7932 1
6 -1 -6 100.951 13.6486 6
5 -6 -6 62.5593 17.4895 2
-5 -1 6 88.086 21.4088 3
-1 -5 -6 66.7055 20.982 2
5 -6 -6 74.3705 11.6956 4
-1 6 6 73.8889 12.7117 6
-6 1 -6 59.2234 21.7466 3
0 -6 6 -2.6828 12.5411 1
-6 0 -6 13.2504 20.458 3
0 -6 -6 -7.4841 17.8613 2
6 -6 6 3.16966 9.22865 4
-6 0 6 15.1345 16.7929 3
-6 0 -6 3.05641 7.4475 5
-6 0 6 11.906 14.784 2
6 -6 -6 5.68623 9.83502 4
0 6 6 4.05012 9.13551 6
0 -6 -6 7.87315 8.06618 5
0 -6 6 14.9822 13.4547 2
6 0 -6 2.01381 8.94764 6
-6 6 6 -2.1841 17.1987 3
6 0 6 9.90958 9.94296 6
6 -6 6 3.1457 13.3988 1
6 0 6 3.99582 9.1885 4
-4 7 6 106.81 21.9737 3
7 -4 -6 140.179 17.0122 4
-4 -3 -6 134.302 14.473 5
-7 3 6 145.697 21.7291 2
-3 -4 6 144.973 23.6869 1
3 -7 -6 134.675 15.2827 5
-7 3 6 166.482 27.0898 3
3 -7 -6 143.623 16.1803 4
3 -7 -6 108.801 22.272 2
-4 -3 -6 154.278 27.8874 3
3 4 6 138.619 16.2917 6
4 3 -6 135.378 16.6667 6
7 -3 6 159.679 15.9562 4
-3 -4 6 88.9034 21.4478 3
-3 -4 6 149.75 21.8137 2
4 -7 6 134.023 20.8018 1
7 -3 -6 103.95 22.2895 1
7 -3 -6 133.004 15.9012 6
-7 4 6 102.319 22.0243 3
3 -7 6 140.552 21.1888 1
4 -7 -6 142.56 15.1549 5
-4 -3 6 174.003 26.6645 3
7 -4 6 145.401 15.8564 4
4 3 6 155.111 16.8011 6
-3 -4 -6 138.902 14.035 5
-3 -4 -6 179.528 29.8191 3
4 -7 -6 131.104 22.7401 2
-4 -3 6 158.766 24.1263 1
-3 7 6 139.704 17.2409 6
-4 -3 6 136.289 19.6149 2
4 -7 -6 143.467 16.1126 4
7 -3 -6 130.135 17.0964 4
3 -7 6 156.632 15.3235 5
-3 7 6 131.682 23.73 3
7 -2 6 13.6705 9.08527 4
-7 2 6 2.11522 17.647 3
2 -7 -6 7.56622 8.99102 4
7 -2 6 13.2045 9.4448 6
5 -7 6 7.69242 14.5106 1
-2 -5 6 10.8656 14.9945 1
-5 -2 -6 24.828 20.1231 3
-2 -5 6 15.5216 14.2043 2
-5 7 6 2.60238 16.2406 3
2 5 6 8.85629 9.50851 6
2 -7 -6 0.1444 17.1413 2
7 -5 -6 4.62605 10.1379 4
5 -7 6 8.57953 8.17708 4
-2 -5 6 2.05149 14.2815 3
7 -5 -6 0.87358 17.9034 1
5 2 -6 13.4553 9.7536 6
-5 -2 -6 7.94119 7.47681 5
2 -7 -6 0.78069 7.00796 5
-7 2 6 12.2646 15.3055 2
-2 7 6 5.88164 18.3382 3
-5 -2 6 13.6616 17.7048 3
-7 5 6 1.71728 16.1184 3
-5 -2 6 2.6507 13.5949 2
5 -7 -6 9.22396 9.05463 4
2 -7 6 1.56698 17.9761 2
5 2 6 13.7497 10.3913 6
7 -2 -6 9.93423 10.1895 6
7 -2 -6 11.8621 9.2838 4
-7 2 -6 8.0345 20.2175 3
2 -7 6 15.4588 13.4438 1
-2 7 6 7.09736 10.1319 6
5 -7 -6 19.1564 17.4158 2
-5 -2 6 10.7142 15.4002 1
-2 -5 -6 15.7887 7.46631 5
-2 -5 -6 -1.0975 19.763 2
7 -5 6 22.1944 10.0656 4
2 -7 6 8.31513 7.50713 5
5 -7 -6 -1.9975 6.12933 5
-7 1 6 376.902 38.9595 3
7 -6 -6 357.195 28.1524 4
1 6 6 319.298 27.7263 6
-7 1 6 382.036 34.8662 2
-6 -1 -6 331.644 25.8416 5
7 -1 6 369.411 27.9867 6
-1 -6 6 260.778 31.0253 2
-6 -1 -6 315.956 38.3788 3
7 -1 6 316.812 26.9308 4
-1 -6 6 308.056 32.5911 1
6 -7 6 325.647 27.1054 4
1 -7 -6 348.178 27.1496 4
6 1 -6 330.618 28.2434 6
1 -7 -6 336.541 26.2068 5
1 -7 -6 266.108 36.5325 2
-6 -1 6 319.3 38.0899 3
7 -6 6 363.749 27.85 4
6 1 6 325.304 27.1802 4
-6 -1 6 339.225 34.5685 2
-1 7 6 324.942 27.7755 6
-7 1 -6 335.567 26.4063 5
6 1 6 318.085 27.3219 6
7 -1 -6 376.559 28.9222 6
1 -7 6 330.092 32.0888 1
-1 -6 -6 385.552 26.8312 5
6 -7 -6 341.668 27.6763 4
6 -7 -6 322.248 35.0312 2
-7 6 6 256.378 35.3953 3
7 -7 6 286.936 24.2148 4
7 0 6 268.403 24.16 4
7 0 -6 266.637 25.3915 6
0 7 6 296.507 25.1147 6
-7 0 -6 291.653 22.867 5
7 -7 -6 310.779 24.3544 4
0 -7 6 206.364 28.5623 1
0 -7 -6 299.715 23.0837 5
-7 0 6 216.238 33.5199 3
-7 0 6 274.802 30.1936 2
7 0 6 283.599 24.907 6
8 -4 -6 231.472 21.4292 4
4 -8 -6 197.987 19.0754 4
4 -8 6 199.396 17.483 5
4 -8 -6 206.021 19.2073 5
-8 4 6 154.739 28.636 3
8 -4 -6 180.28 19.9004 6
4 4 -6 196.684 20.54 6
-8 4 6 157.226 24.5124 2
-4 -4 6 184.021 25.5033 2
-4 -4 -6 173.622 29.9086 3
8 -4 6 235.128 19.5486 4
-4 -4 -6 181.262 17.7431 5
4 4 6 222.377 21.319 6
4 -8 -6 163.419 28.0515 2
-4 8 6 197.222 20.4969 6
-4 -4 6 204.342 27.5579 1
5 3 -6 176.716 19.0195 6
8 -3 6 155.356 16.7883 6
3 -8 -6 162.237 15.9469 5
8 -5 -6 158.347 18.9723 4
-5 -3 -6 144.217 14.2275 5
-5 -3 -6 148.755 30.0563 3
-3 -5 6 159.215 25.9844 1
3 -8 -6 97.1531 23.4732 2
3 5 6 152.338 16.9491 6
-3 -5 6 105.063 20.5714 2
8 -3 6 152.93 17.5156 4
-8 3 6 117.141 21.8529 2
3 -8 -6 181.049 17.5533 4
-8 3 6 119.464 25.5006 3
5 -8 6 150.02 15.538 5
-3 -5 -6 187.632 16.9563 5
8 -3 -6 178.306 20.0803 4
5 -8 -6 201.657 18.5039 5
3 -8 6 188.46 17.1739 5
5 -8 -6 165.305 17.8903 4
-5 -3 6 149.287 24.5221 1
-8 5 6 104.641 26.7899 3
8 -3 -6 167.673 18.3857 6
-3 8 6 194.196 19.8084 6
-5 -3 6 163.128 24.6948 2
8 -5 6 187.504 18.851 4
-3 -5 -6 153.56 28.1012 3
5 3 6 208.636 19.2598 6
5 -8 -6 124.783 24.2891 2
2 -8 -6 52.2844 10.2293 5
-8 2 6 19.5686 16.7756 2
6 2 -6 37.0414 10.974 6
2 -8 -6 5.22086 20.6279 2
8 -6 -6 52.6972 12.6668 4
-8 2 6 29.2216 21.7846 3
8 -2 6 35.9654 9.79247 4
2 6 6 31.7934 10.0735 6
-2 -6 6 14.9491 16.3978 1
6 -8 6 53.3423 9.12686 5
-6 -2 -6 40.7637 8.76414 5
8 -2 6 40.0778 10.8115 6
6 -8 6 25.1378 9.80943 4
-2 -6 6 4.03592 15.2726 2
2 -8 -6 37.6112 10.4965 4
-6 -2 -6 26.4969 23.7929 3
-2 8 6 22.2988 10.8951 6
2 -8 6 19.7856 8.37858 5
-2 8 6 -8.8233 28.8613 3
8 -6 6 21.531 9.69163 4
-6 -2 6 9.02146 14.1355 2
6 2 6 19.8168 10.2074 4
8 -2 -6 15.8495 9.6916 4
-6 -2 6 1.50826 17.2564 3
6 -8 -6 0.28518 7.14961 5
-8 2 -6 -5.7656 37.18 3
6 -8 -6 5.80635 18.8093 2
8 -2 -6 22.5048 10.2296 6
-8 6 6 1.4137 19.7414 3
-6 -2 6 4.86362 16.465 1
6 2 6 14.8853 10.9844 6
-2 -6 -6 13.3169 7.5715 5
6 -8 -6 22.2448 10.1179 4
2 -8 6 4.68307 13.2097 1
1 -8 -6 219.534 21.1301 4
1 -8 -6 232.328 20.616 5
7 1 -6 224.611 23.678 6
-7 -1 -6 213.971 19.8377 5
8 -7 -6 268.995 23.8144 4
8 -1 6 242.255 22.9008 6
8 -1 6 228.666 21.9221 4
7 -8 6 243.259 22.5035 4
1 7 6 237.799 23.1348 6
7 -8 -6 219.322 20.7713 4
-8 1 -6 205.611 19.7547 5
8 -1 -6 262.587 23.8187 6
8 -7 6 214.388 21.397 4
-1 -7 -6 240.459 19.6306 5
-1 8 6 228.45 22.1642 6
7 1 6 219.653 21.8331 4
7 1 6 195.414 21.1433 6
8 0 6 120.825 16.6107 6
8 0 6 138.203 17.3469 4
0 8 6 134.119 18.3407 6
0 -8 -6 144.367 15.8332 5
8 0 -6 128.12 19.4133 6
8 -8 -6 145.542 18.8939 4
8 -8 6 123.027 17.9091 4
-8 0 -6 116.802 14.4118 5
-4 -5 6 4.188 19.6374 2
9 -4 6 23.829 9.32882 4
-5 -4 -6 -1.8333 24.2176 3
-4 -5 6 -1.3447 21.4458 1
4 -9 -6 39.0193 10.9221 5
-9 4 6 7.11156 37.1427 3
-5 -4 -6 32.8408 8.75317 5
4 5 6 27.7522 10.7677 6
4 -9 -6 -3.6445 19.7574 2
-9 4 6 -6.961 25.6343 2
-5 9 6 24.56 10.2769 6
5 -9 6 27.0846 8.80984 5
9 -5 -6 32.024 11.8501 4
5 4 -6 27.49 11.5005 6
4 -9 -6 30.3075 9.70576 4
5 -9 -6 46.591 10.5082 4
5 4 6 63.6413 13.107 6
-9 5 6 -5.5878 28.3211 2
5 -9 -6 -0.0081 18.3846 2
4 5 -6 32.4632 10.1171 6
9 -5 6 64.8447 12.3211 4
9 -4 -6 41.5059 12.8647 4
9 -4 -6 41.1603 10.8301 6
-4 9 6 46.6287 11.7671 6
-5 -4 6 1.30296 18.3882 2
-5 -4 6 -3.1239 21.247 1
4 -9 6 52.7408 9.92022 5
-4 -5 -6 -3.1543 25.0197 3
-4 -5 -6 50.9599 9.65008 5
5 -9 -6 48.5944 11.7709 5
3 -9 -6 58.8071 10.9581 5
3 6 6 50.755 11.6757 6
9 -6 -6 70.509 14.0388 4
6 3 -6 46.6184 13.0568 6
3 -9 -6 60.8787 11.3904 4
9 -3 6 67.1255 12.2994 4
6 -9 6 57.9224 10.4136 5
-6 9 6 41.2511 11.8248 6
9 -3 6 54.7617 11.9562 6
-6 -3 -6 35.6326 8.7348 5
-6 -3 -6 -4.4802 25.5556 3
-3 9 6 38.738 11.6082 6
-3 -6 -6 36.1168 9.01759 5
6 -9 -6 25.3162 10.3096 5
6 -9 -6 30.1747 9.68703 4
9 -3 -6 41.5321 12.4668 6
9 -3 -6 43.9644 12.7875 4
9 -6 6 28.3978 10.763 4
6 3 6 28.129 11.1957 6
3 -9 6 27.4388 8.34026 5
6 3 6 36.2046 10.6307 4
6 -9 -6 -1.1331 20.4983 2
-6 -3 6 1.70939 18.8834 2
2 -9 -6 314.83 25.616 4
9 -7 -6 303.939 28.0221 4
9 -2 6 305.863 26.4469 4
7 2 -6 304.046 28.7721 6
7 -9 6 337.347 25.1097 5
2 -9 -6 312.409 25.7894 5
9 -2 6 330.793 27.629 6
2 7 6 313.002 27.9325 6
-7 -2 -6 292.239 24.6628 5
7 -9 6 307.453 26.2639 4
9 -2 -6 324.254 27.7388 6
2 -9 6 310.796 25.0556 5
9 -7 6 304.085 27.4739 4
7 -9 -6 297.813 26.9863 4
-2 9 6 304.009 27.166 6
7 2 6 326.527 27.3304 6
7 2 6 309.795 26.7781 4
-2 -7 -6 335.609 25.6083 5
-8 -1 -6 11.4938 8.08056 5
8 -9 6 12.8257 9.22239 5
9 -1 6 13.5589 10.2481 4
1 8 6 12.9978 11.5731 6
9 -8 -6 10.3512 12.1752 4
8 -9 6 12.9395 10.6465 4
8 1 -6 10.1843 11.5328 6
1 -9 -6 18.11 9.01238 5
9 -1 6 0.35264 10.9071 6
-1 9 6 9.5344 11.1723 6
9 -8 6 13.3045 11.2012 4
8 1 6 19.1113 10.42 4
-1 -8 -6 7.70654 8.05089 5
1 -9 6 2.61312 6.29578 5
9 -1 -6 8.96611 11.7317 6
8 1 6 11.0042 11.172 6
8 -9 -6 11.8059 11.2037 4
9 0 -6 205.591 24.8508 6
-9 0 -6 238.035 20.838 5
0 -9 -6 246.366 20.613 5
9 -9 6 242.724 23.4467 4
9 0 6 241.273 24.2352 6
9 -9 6 221.356 20.9608 5
9 0 6 202.524 22.3288 4
9 -9 -6 265.93 24.8105 4
0 9 6 226.776 24.1496 6
5 -10 -6 407.604 32.0298 5
5 5 -6 363.11 33.0754 6
5 -10 -6 408.435 31.0667 4
10 -5 -6 387.552 32.4776 6
10 -5 -6 422.169 33.9765 4
5 -10 6 358.143 29.9326 5
5 5 6 385.187 32.8388 6
10 -5 6 431.513 32.4788 4
-5 -5 -6 388.213 29.9039 5
-6 -4 -6 122.767 14.5603 5
6 -10 6 134.886 15.7005 5
4 6 6 124.8 18.6173 6
4 -10 -6 114.979 16.8793 5
6 4 -6 150.48 20.66 6
10 -4 6 124.878 15.8873 4
4 -10 -6 109.845 15.9294 4
10 -6 -6 126.552 19.7721 4
-4 -6 -6 186.929 17.94 5
10 -4 -6 188.868 20.2442 6
6 4 6 201.023 21.7371 6
10 -6 6 199.226 20.9421 4
6 -10 -6 188.336 19.3563 4
10 -4 -6 210.167 22.9185 4
4 -10 6 177.625 18.1066 5
6 -10 -6 155.56 20.8106 5
-7 -3 -6 1.81224 7.12161 5
3 7 6 4.44407 10.585 6
3 -10 -6 7.26586 9.2803 4
10 -7 -6 7.63799 12.2584 4
3 -10 -6 -1.606 9.26748 5
7 -10 6 3.34032 8.86933 5
7 3 -6 5.16458 13.0495 6
10 -3 6 0.21227 9.76142 6
7 -10 6 2.6467 7.46111 4
10 -3 6 2.69552 9.1748 4
7 3 6 8.79921 11.5755 6
-3 10 6 7.24009 9.9577 6
7 -10 -6 3.93298 10.1317 5
10 -3 -6 14.7008 12.2929 4
7 3 6 5.122 9.75236 4
10 -3 -6 2.44396 11.12 6
-3 -7 -6 2.11615 8.43378 5
3 -10 6 -1.7365 8.41399 5
10 -7 6 14.2468 11.4389 4
7 -10 -6 20.4882 10.9509 4
-8 -2 -6 282.685 22.9378 5
8 -10 6 263.957 24.5834 4
2 8 6 267.231 26.9189 6
8 -10 6 304.217 23.2788 5
10 -2 6 261.624 25.5692 6
10 -2 6 278.957 25.4406 4
2 -10 -6 285.175 24.077 5
8 2 -6 281.347 28.2071 6
10 -8 -6 265.085 26.6803 4
-2 10 6 291.16 27.6142 6
8 -10 -6 306.039 27.508 4
8 2 6 284.859 26.8341 4
-2 -8 -6 328.438 25.6043 5
10 -8 6 295.966 27.5165 4
2 -10 6 277.35 25.125 5
8 2 6 341.222 29.1253 6
10 -2 -6 362.144 29.5958 6
9 -10 6 48.6716 12.7714 4
9 -10 6 82.6611 12.425 5
1 -10 -6 72.1882 12.3729 5
10 -1 6 71.2575 14.3788 6
-9 -1 -6 45.9823 10.1566 5
10 -1 6 72.2403 13.6062 4
1 9 6 64.0121 14.5946 6
9 1 -6 44.7066 13.8147 6
10 -9 -6 85.2495 16.2334 4
10 -9 6 45.5745 12.3625 4
-1 -9 -6 65.9756 12.2383 5
10 -9 6 62.6074 11.5699 5
9 1 6 39.0571 11.967 4
9 -10 -6 55.6813 13.6627 4
-1 10 6 30.1084 12.2038 6
10 -1 -6 47.7048 13.7861 6
9 1 6 49.8818 12.9232 6
0 10 6 106.016 16.7184 6
0 -10 -6 106.864 15.2757 5
10 0 -6 143.087 20.1337 6
10 -10 6 110.627 17.2285 4
10 -10 6 112.639 14.2684 5
10 0 6 124.214 17.9199 6
10 -10 -6 112.725 17.1903 4
10 0 6 84.444 14.7734 4
-6 -5 -6 16.2742 8.3304 5
5 -11 -6 21.7561 11.2699 5
11 -6 -6 17.2525 13.3908 4
6 -11 6 20.6685 8.72099 5
6 5 -6 34.7058 14.1271 6
11 -5 6 22.3381 10.5155 4
5 -11 -6 20.0382 9.93917 4
5 6 6 15.5959 10.9908 6
6 -11 -6 58.8366 13.2828 5
11 -5 -6 54.167 15.2761 4
11 -6 6 86.5127 15.1472 4
6 -11 -6 69.808 12.6417 4
-5 -6 -6 46.8235 10.1881 5
6 5 6 51.3526 13.0323 6
11 -5 -6 84.1213 14.7873 6
5 -11 6 61.7551 11.1404 5
5 6 -6 35.9433 12.2666 6
4 -11 -6 198.835 20.3127 5
11 -4 6 174.985 20.447 4
4 7 6 202.98 22.1643 6
-7 -4 -6 180.677 18.1208 5
11 -7 -6 192.31 23.341 4
7 -11 6 198.618 18.571 5
7 4 -6 195.937 24.9606 6
4 -11 -6 173.02 18.4956 4
11 -4 6 150.392 18.8992 6
7 -11 -6 223.103 24.5236 5
11 -7 6 260.941 25.3168 4
7 4 6 262.017 25.9089 6
11 -4 -6 266.939 26.3574 6
4 -11 6 247.901 22.5304 5
11 -4 -6 274.111 27.1025 4
-4 -7 -6 267.266 22.3768 5
7 -11 -6 238.176 23.9068 4
3 8 6 141.859 20.9102 6
8 -11 6 152.947 16.6642 5
11 -8 -6 137.193 20.9378 4
11 -3 6 117.602 18.1891 6
8 3 -6 172.608 24.0229 6
-8 -3 -6 145.582 15.9652 5
3 -11 -6 132.521 17.2786 5
11 -3 6 135.468 18.9731 4
3 -11 6 130.988 15.5878 5
-3 -8 -6 122.282 15.2931 5
8 -11 -6 81.5512 14.5024 5
8 3 6 144.584 20.4359 6
11 -3 -6 105.101 16.6659 4
8 -11 -6 128.427 18.1535 4
11 -3 -6 135.77 20.409 6
11 -8 6 130.257 19.3348 4
9 2 -6 7.34291 14.4013 6
2 -11 -6 20.9727 9.95537 5
9 -11 6 21.091 10.1005 5
11 -9 -6 19.3065 13.704 4
11 -2 6 8.5526 11.3493 4
-9 -2 -6 14.137 8.1864 5
2 9 6 8.87793 12.4285 6
9 -11 6 -1.1211 10.4317 4
11 -2 6 9.11056 10.8186 6
11 -2 -6 9.6667 11.9701 6
9 -11 -6 2.47359 11.513 4
9 2 6 4.90381 9.66267 4
2 -11 6 3.50744 8.90249 5
9 2 6 10.3083 11.9858 6
11 -9 6 26.448 10.4682 5
-2 -9 -6 12.785 9.40936 5
-2 11 6 -4.1185 13.8368 6
11 -9 6 2.45409 11.1696 4
11 -10 -6 105.45 18.2503 4
11 -1 6 57.0506 14.5035 4
11 -1 6 68.5402 15.1182 6
10 1 -6 90.9715 18.2245 6
10 -11 6 66.8959 11.6149 5
1 10 6 79.0811 16.1017 6
1 -11 -6 98.9266 13.9748 5
10 -11 6 62.0336 14.4262 4
-10 -1 -6 56.8621 11.0692 5
-1 -10 -6 102.599 14.4137 5
10 -11 -6 94.8584 17.3601 4
11 -10 6 72.7647 12.4407 5
11 -1 -6 116.6 19.2773 6
10 1 6 59.3069 13.715 4
10 1 6 73.9332 15.015 6
11 -10 6 73.2061 15.6135 4
0 -11 -6 96.9099 14.0421 5
11 -11 6 68.7286 14.9913 4
11 -11 -6 90.5349 16.8473 4
11 0 6 90.7846 16.1849 4
11 -11 6 118.566 15.3435 5
11 0 -6 94.9429 18.8196 6
11 0 6 108.875 17.7425 6
6 -12 -6 216.483 22.2762 4
12 -6 6 232.557 24.1778 4
12 -6 -6 240.102 25.0261 6
6 6 6 227.61 24.813 6
6 -12 -6 233.915 24.1071 5
6 6 -6 251.646 27.5876 6
6 -12 6 250.22 22.0961 5
-6 -6 -6 244.087 21.6034 5
12 -6 -6 256.495 27.907 4
5 -12 -6 214.036 21.6352 4
5 -12 -6 249.074 23.7558 5
5 7 6 244.712 25.1781 6
12 -7 -6 241.352 26.9617 4
7 -12 6 232.777 21.4874 5
12 -5 6 225.92 24.1304 4
7 5 -6 264.766 28.6261 6
-7 -5 -6 241.974 21.3149 5
12 -5 -6 304.02 30.6239 4
12 -7 6 306.11 28.2132 4
5 -12 6 282.23 24.8687 5
-5 -7 -6 293.389 24.6901 5
7 5 6 253.527 27.2964 6
12 -5 -6 305.207 28.2976 6
7 -12 -6 272.942 26.6572 5
7 -12 -6 306.786 25.981 4
12 -8 -6 136.913 22.0477 4
4 8 6 149.78 20.6848 6
12 -4 6 122.04 17.6425 6
-8 -4 -6 124.624 15.759 5
8 4 -6 154.925 25.1591 6
4 -12 -6 128.817 17.7399 5
12 -4 6 156.389 19.8494 4
8 -12 6 152.517 16.9456 5
8 4 6 156.985 22.0364 6
-4 -8 -6 184.173 18.6079 5
8 -12 -6 150.067 20.2493 5
12 -8 6 186 21.5007 4
12 -4 -6 199.56 23.114 6
4 -12 6 148.885 18.5966 5
12 -4 -6 176.863 23.3862 4
8 -12 -6 170.572 20.9442 4
12 -3 6 71.6103 14.3411 6
3 -12 -6 91.5077 13.6543 5
3 9 6 105.073 16.9008 6
9 3 -6 80.8624 18.2163 6
12 -9 -6 102.028 18.1528 4
12 -3 6 82.8688 15.2191 4
-9 -3 -6 68.4226 11.1341 5
3 -12 6 136.851 17.9882 5
9 -12 -6 127.083 20.2728 4
12 -3 -6 142.687 22.0794 6
12 -9 6 128.723 21.2378 4
9 3 6 174.3 20.795 6
12 -9 6 133.39 18.0379 5
-3 -9 -6 129.96 17.0131 5
10 2 -6 -6.1665 14.5142 6
10 -12 6 3.83313 9.47572 5
12 -2 6 11.6129 11.8179 4
12 -10 -6 5.79311 14.1931 4
10 -12 6 2.85248 10.2779 4
2 -12 -6 -3.7732 9.09556 5
-10 -2 -6 -0.9628 8.31552 5
12 -2 6 -2.3062 11.5423 6
2 10 6 5.30201 12.8491 6
12 -10 6 -2.4381 9.92177 5
12 -2 -6 3.17698 13.1129 6
2 -12 6 -0.1368 8.42242 5
12 -10 6 -4.1968 12.4354 4
10 2 6 -3.2495 12.5776 6
-2 -10 -6 -1.1831 9.34528 5
10 -12 -6 -0.311 12.547 4
11 -12 6 74.5475 12.2109 5
11 1 -6 122.676 19.7937 6
12 -1 6 63.1654 15.1281 4
12 -11 -6 119.99 19.1061 4
11 -12 6 61.3692 14.1449 4
1 11 6 43.8839 13.8783 6
1 -12 -6 101.15 14.155 5
12 -1 6 102.275 16.8427 6
12 -11 6 121.884 16.6091 5
12 -1 -6 164.866 22.1075 6
11 1 6 97.4028 17.2836 6
-1 -11 -6 98.2078 14.7714 5
11 -12 -6 138.624 20.0109 4
12 -11 6 125.408 18.5968 4
12 0 -6 33.0404 15.4702 6
12 0 6 8.18268 11.2137 4
0 -12 -6 25.8947 9.86185 5
0 -12 -6 4.55304 6.0989 8
12 -12 6 20.3481 12.0972 4
0 12 -6 15.1707 6.3967 10
12 -12 6 23.5849 9.89816 5
12 0 6 26.3321 13.4686 6
12 -12 -6 -2.1654 6.45743 7
12 -12 -6 36.7724 15.6239 4
-12 0 -6 -2.4168 6.85357 9
7 6 -6 64.0529 17.9823 6
13 -6 6 75.5575 14.8926 4
6 -13 -6 54.8516 13.6291 5
-7 -6 -6 79.2512 12.4109 5
6 7 6 70.3621 15.4563 6
13 -7 -6 89.0468 18.5322 4
7 -13 6 64.3409 12.0412 5
13 -6 -6 148.2 22.8046 4
7 6 6 71.0554 14.8969 6
-6 -7 -6 108.412 15.9871 5
13 -6 -6 125.163 19.819 6
7 -13 -6 74.2616 14.9045 5
7 -13 -6 106.641 16.3137 4
6 -13 6 112.159 15.7941 5
13 -8 -6 77.7661 17.2951 4
8 -13 6 72.3327 12.1167 5
5 -13 -6 57.9577 13.3604 5
-8 -5 -6 69.317 11.9493 5
5 8 6 62.9766 15.1207 6
8 5 -6 55.0851 18.395 6
13 -5 6 85.7526 15.8623 4
13 -5 -6 67.0647 17.2377 4
13 -8 6 53.1314 14.761 4
5 -13 6 57.4887 11.8241 5
8 -13 -6 53.8913 12.7321 4
8 -13 -6 56.2557 14.0101 5
-5 -8 -6 50.3912 11.2489 5
8 5 6 56.7985 14.3626 6
13 -5 -6 60.4903 14.5328 6
13 -4 6 46.4865 11.5127 6
4 -13 -6 68.5806 13.5638 5
13 -9 -6 61.7597 17.1095 4
9 4 -6 55.2917 19.2014 6
4 9 6 75.8754 16.4056 6
-9 -4 -6 54.6219 10.9547 5
9 -13 6 102.208 13.7972 5
13 -4 6 60.1341 14.4779 4
13 -4 -6 100.27 18.0676 6
9 -13 -6 60.0604 13.8993 5
4 -13 6 100.623 14.1556 5
13 -9 6 99.3343 14.9884 5
-4 -9 -6 87.6343 13.802 5
9 4 6 75.0089 15.1298 6
13 -9 6 73.2241 15.5827 4
9 -13 -6 92.1193 15.9136 4
3 10 6 8.88044 13.1337 6
13 -3 6 8.71248 10.6589 6
3 -13 -6 1.87011 10.2142 5
10 -13 6 2.10442 9.56795 5
13 -10 -6 0.30088 13.0705 4
-13 3 6 1.46822 7.26953 10
10 3 -6 5.58259 16.177 6
-3 13 -6 -1.0086 4.75771 10
-10 -3 -6 0.16238 7.56227 5
3 -13 -6 -3.7685 5.89715 8
13 -10 -6 -5.6797 7.05372 7
13 -3 6 13.8354 12.6144 4
3 -13 6 1.48449 9.62305 5
10 -13 -6 10.1606 12.175 4
-3 -10 -6 -5.5526 9.28424 5
13 -3 -6 1.13597 13.746 6
3 10 -6 -0.265 5.03631 10
10 3 6 6.69743 13.2915 6
-3 13 6 1.03482 7.60641 11
13 -10 6 13.5671 13.2531 4
13 -10 6 10.2389 10.4609 5
-13 3 -6 -1.2975 6.08208 9
2 -13 -6 36.6039 8.17511 8
13 -2 6 21.5029 12.7979 4
11 2 -6 52.1203 17.8962 6
13 -2 6 43.9767 12.8039 6
2 -13 -6 46.5981 11.7339 5
-2 13 -6 31.812 7.0042 10
11 -13 6 63.5825 12.3025 5
2 11 6 26.2697 13.6735 6
11 -13 6 29.5931 11.388 4
-13 2 6 28.2333 8.84344 10
13 -11 -6 38.6638 9.72846 7
13 -11 -6 40.5864 15.103 4
13 -11 6 50.6361 14.5567 4
11 2 6 62.5851 15.9498 6
11 -13 -6 40.2968 13.849 4
2 11 -6 31.3108 7.53897 10
-2 -11 -6 41.6296 11.7534 5
-13 2 -6 29.674 8.30911 9
13 -2 -6 58.5868 15.2599 6
13 -11 6 53.2644 12.3066 5
13 -1 6 16.8359 12.9955 4
1 -13 -6 14.248 7.46656 8
12 1 -6 28.3442 16.1946 6
13 -1 6 24.4997 12.5864 6
-13 1 6 22.8783 8.90306 10
12 -13 6 26.8505 12.5906 4
-1 13 -6 32.6592 8.25906 10
-13 12 -6 22.4785 6.52884 9
13 -12 -6 48.6307 16.6472 4
12 -13 6 36.2244 10.8566 5
1 -13 -6 39.4743 11.7281 5
13 -12 -6 12.2405 9.16847 7
-12 -1 -6 14.2142 7.00037 9
12 -13 -6 12.6648 14.2587 4
-1 13 6 3.17059 6.63447 11
-13 1 -6 10.9971 7.77692 9
-1 -12 -6 2.52115 6.87048 8
12 -13 -6 3.02081 7.22368 7
-1 -12 -6 7.8346 10.1929 5
1 12 -6 6.67544 6.85341 10
13 -1 -6 8.54879 14.1854 6
12 1 6 -3.3207 12.9625 6
13 -12 6 4.12143 12.8997 4
13 -12 6 11.4045 10.6429 5
-12 13 -6 5.09132 6.19795 9
13 0 -6 74.832 18.343 6
13 -13 -6 72.6867 11.3236 7
-13 0 -6 58.0286 10.378 9
0 13 6 71.8816 9.96057 11
0 13 -6 91.0581 10.5671 10
0 -13 -6 78.1381 10.0342 8
0 -13 -6 75.0109 13.5623 5
13 -13 6 84.7306 13.9192 5
13 -13 6 67.8179 14.6783 4
13 -13 -6 58.4305 16.7702 4
13 0 6 49.544 13.8703 6
-13 0 6 78.7117 11.7119 10
-13 13 -6 73.7005 9.63462 9
-7 14 -6 169.52 15.4307 9
7 -14 -6 211.827 22.4034 5
-14 7 -6 189.066 15.5893 9
7 7 -6 151.121 15.6375 11
14 -7 -6 227.072 26.8249 4
-7 -7 -6 219.828 19.8607 5
14 -7 6 125.265 14.8039 7
-6 14 -6 24.4023 7.80341 9
-14 8 -6 23.8919 7.08348 9
6 8 6 27.0309 13.355 6
8 6 -6 12.67 6.46758 11
8 6 -6 39.0398 18.0965 6
-14 6 6 4.68552 7.26468 10
-8 14 6 8.90482 5.64591 11
14 -8 -6 36.212 15.9099 4
8 -14 6 21.1267 9.28499 5
6 -14 -6 40.6276 12.8714 5
-8 -6 -6 24.0011 10.267 5
14 -6 6 22.7596 12.6059 4
8 -14 -6 4.93502 11.5659 5
-14 6 -6 5.49057 7.53175 9
-8 14 -6 6.35555 6.77107 9
8 6 6 11.6749 12.2296 6
14 -6 -6 2.96084 12.9377 6
8 -14 -6 14.7195 11.04 4
-6 14 6 8.00941 6.73356 11
-6 -8 -6 14.3994 10.2018 5
14 -8 6 2.21209 12.6356 4
6 -14 6 4.35907 10.4191 5
14 -8 6 17.0204 10.5378 5
14 -8 6 17.104 7.16448 7
6 8 -6 8.57189 7.34833 11
14 -6 -6 8.8106 15.3062 4
14 -9 -6 -4.851 6.88134 7
-9 14 6 2.85671 5.34216 11
9 5 -6 14.0487 17.7457 6
9 -14 6 4.92063 9.8895 5
-9 -5 -6 10.7884 9.00283 5
-5 14 -6 3.62402 7.6817 9
5 -14 -6 -9.8124 5.89601 8
-14 5 6 10.952 9.11931 10
14 -5 6 10.504 13.3969 4
14 -5 6 10.8332 8.21015 7
5 -14 -6 1.79559 10.5354 5
5 9 6 0.93327 13.2844 6
-5 14 -6 4.1008 5.46618 10
14 -9 -6 10.5801 14.8835 4
-14 9 -6 7.17433 6.29118 9
9 5 -6 -3.403 5.8139 11
-5 14 6 12.6352 7.48604 11
14 -9 6 2.25594 12.0884 4
5 -14 6 11.8654 10.0469 5
-5 -9 -6 3.99717 9.77707 5
9 -14 -6 8.89709 11.6521 5
-14 5 -6 16.749 7.99816 9
5 9 -6 10.5537 6.58407 10
14 -5 -6 19.1975 13.8232 6
14 -5 -6 2.6895 13.5299 4
9 5 6 7.86914 13.0127 6
9 -14 -6 11.3379 11.4715 4
14 -9 6 20.1775 7.83949 7
5 9 -6 10.223 6.93018 11
14 -9 6 15.9079 11.6221 5
-9 14 -6 8.95294 6.92322 9
4 10 6 17.4123 13.5894 6
4 -14 -6 28.0778 8.39666 8
10 -14 6 42.6419 11.0477 5
14 -10 -6 29.0978 9.42494 7
-14 4 6 33.6702 10.1969 10
10 4 -6 67.6884 19.6918 6
14 -10 -6 40.6912 14.9194 4
-14 10 -6 29.2568 6.8976 9
-4 14 -6 42.9096 7.77567 10
4 -14 -6 30.1684 11.4514 5
14 -4 6 10.8484 9.80855 6
14 -4 6 35.9908 14.7341 4
10 4 -6 26.2054 6.68561 11
14 -10 6 57.3765 14.9904 4
-14 4 -6 76.1049 11.1292 9
4 10 -6 82.1842 10.1048 10
4 -14 6 97.8477 14.2608 5
10 4 6 94.5832 17.1541 6
14 -4 -6 124.255 19.361 6
14 -10 6 102.681 15.4405 5
14 -10 6 91.409 10.8173 7
-4 -10 -6 109.251 14.958 5
10 -14 -6 92.5317 16.1448 4
-4 14 6 80.731 10.4352 11
-10 14 -6 60.9459 9.59409 9
14 -3 6 -2.6161 11.0218 6
3 11 6 -4.4012 12.9547 6
-11 -3 -6 -0.2406 5.51283 9
11 3 -6 3.39398 16.3979 6
-14 3 6 5.59014 9.51351 10
-11 14 6 1.4588 7.36495 11
14 -3 6 2.55866 12.9578 4
-3 14 -6 1.20473 7.16291 10
11 3 -6 -1.09 5.83647 11
11 -14 6 -0.2869 9.19538 5
14 -11 -6 4.03143 14.0183 4
3 -14 -6 4.35181 7.98843 8
-14 11 -6 -0.7048 6.66689 9
3 -14 -6 0.23976 10.1523 5
14 -11 -6 -6.0976 8.93783 7
-3 14 6 -4.8556 8.03195 11
14 -3 -6 7.39111 13.7226 6
11 -14 -6 8.01268 13.5822 4
-11 14 -6 2.50208 6.94543 9
3 11 -6 9.19038 7.12653 11
-3 -11 -6 0.17776 10.3112 5
14 -11 6 10.4667 11.0497 5
14 -11 6 1.83399 7.0689 7
3 -14 6 4.2813 9.43958 5
-3 -11 -6 0.90129 5.27092 8
14 -11 6 -11.141 12.3191 4
-14 3 -6 -5.6291 8.0822 9
3 11 -6 0.12093 7.10374 10
11 3 6 -2.3494 13.1416 6
2 -14 -6 -7.6249 9.59234 5
2 -14 -6 -7.3418 7.72665 8
-2 14 -6 5.13536 7.66305 10
12 2 -6 -3.0285 15.6977 6
14 -12 -6 2.90814 9.62157 7
14 -12 -6 -1.9241 13.9554 4
-12 -2 -6 2.95246 7.37581 9
12 -14 6 0.35575 11.1398 4
-14 2 6 6.19111 9.24676 10
12 -14 6 12.5666 10.5651 5
-14 12 -6 3.56592 6.67072 9
12 2 -6 3.01158 5.25984 11
14 -2 6 1.77822 12.1247 6
14 -2 6 16.639 13.2528 4
-2 -12 -6 4.14142 10.4738 5
12 -14 -6 6.68769 14.0216 4
2 12 -6 0.52841 7.19819 11
14 -12 6 5.49711 7.02297 7
-2 14 6 9.33867 8.73502 11
14 -12 6 -0.0699 12.7114 4
14 -12 6 3.66512 10.613 5
-14 2 -6 11.5737 8.74167 9
14 -2 -6 -0.6362 14.7747 6
12 2 6 3.18619 12.1202 6
12 -14 -6 -3.4397 7.39618 7
-12 14 -6 -2.3824 7.08952 9
2 12 -6 -1.1458 7.53213 10
-2 -12 -6 1.65789 6.64023 8
13 1 -6 8.19337 5.44945 11
14 -1 6 24.8145 13.5486 6
13 -14 6 26.376 11.4945 5
-1 14 -6 35.3162 8.54066 10
13 1 -6 30.4281 15.5759 6
14 -13 -6 19.946 9.41048 7
1 -14 -6 26.6545 8.2885 8
14 -13 -6 42.2536 16.6845 4
1 13 6 26.8533 7.86949 11
1 -14 -6 41.3954 12.2362 5
-13 -1 -6 21.0478 9.201 9
-14 13 -6 20.3135 7.25331 9
13 -14 6 16.3291 11.5612 4
-14 1 6 33.7956 9.77449 10
14 -13 6 46.5229 14.5137 4
-14 1 -6 38.1289 9.85284 9
14 -13 6 22.9481 11.2104 5
13 -14 -6 31.5011 15.0604 4
13 -14 -6 25.1915 9.15085 7
-1 -13 -6 32.943 11.452 5
-1 14 6 39.4991 9.52282 11
13 1 6 31.8739 13.8963 6
1 13 -6 27.6364 7.97715 10
-1 -13 -6 22.3936 7.54952 8
14 -1 -6 33.4143 16.2379 6
14 -13 6 20.882 6.46807 7
-13 14 -6 37.5156 8.41692 9
1 13 -6 19.6539 7.69698 11
14 -14 6 12.4117 11.36 5
14 -14 6 9.06264 12.3652 4
0 14 -6 2.40475 7.35186 10
-14 0 -6 2.76673 8.2937 9
14 0 -6 10.2634 15.5941 6
0 -14 -6 6.52225 10.9584 5
14 0 6 17.1303 13.7048 6
0 14 6 4.19471 8.47095 11
14 -14 6 1.38574 4.90037 7
-14 14 -6 7.61293 7.23232 9
14 0 -6 -3.1744 4.74579 11
0 14 -6 -4.7152 6.9616 11
0 -14 -6 9.14779 7.31594 8
-14 0 6 11.6958 9.06568 10
14 -14 -6 10.8865 14.738 4
14 -14 -6 -7.934 8.34459 7
15 -8 -6 -5.447 8.97201 7
15 -8 -6 37.7774 16.2745 4
-15 7 6 17.8251 10.3678 10
-7 15 -6 16.0067 7.14013 10
15 -7 6 16.4985 7.31011 7
8 7 -6 14.3244 7.62263 11
8 -15 6 17.2394 10.8211 5
15 -7 6 10.4315 12.8388 4
7 -15 -6 0.30557 6.23259 8
-7 15 -6 16.2268 8.45909 9
-8 -7 -6 11.2141 9.26472 5
7 8 6 23.6068 14.1808 6
-15 8 -6 16.1599 7.71704 9
7 -15 -6 25.399 12.7654 5
-8 15 6 16.6265 7.54125 11
15 -7 -6 28.0729 15.8209 4
15 -8 6 32.0736 14.0892 4
7 -15 6 21.4108 10.5822 5
15 -8 6 20.9928 7.57978 7
-8 15 -6 33.1044 9.25061 9
8 -15 -6 22.3195 12.2485 5
-7 15 6 24.431 7.58307 11
7 8 -6 27.4777 8.10395 11
-7 -8 -6 18.5528 10.416 5
-15 8 6 34.0194 10.6539 10
15 -8 6 1.79565 9.58466 5
-8 15 -6 23.7769 7.91001 10
8 7 6 21.9109 13.1371 6
-15 7 -6 26.3915 8.85989 9
-15 9 -6 55.3256 8.90389 9
15 -9 -6 49.0441 9.63443 7
-9 15 6 44.3219 8.10011 11
6 -15 -6 48.4381 9.5397 8
-6 15 -6 43.6116 8.11677 10
9 6 -6 52.1008 19.3429 6
9 -15 6 48.3373 11.3406 5
6 -15 -6 43.4106 13.2781 5
9 6 -6 64.0546 9.06093 11
-15 6 6 76.125 12.653 10
6 9 6 53.4689 14.8236 6
15 -6 6 40.7921 13.7362 4
15 -6 6 67.2169 9.16965 7
15 -9 -6 63.2548 16.9563 4
-9 15 -6 74.9269 10.499 9
9 -15 -6 89.6358 15.4608 5
6 -15 6 65.7513 12.6951 5
15 -6 -6 93.0143 16.9521 6
-9 15 -6 78.5151 10.205 10
15 -9 6 78.1912 16.1544 4
15 -9 6 84.7092 10.9392 7
6 9 -6 88.6306 11.0705 11
-15 6 -6 81.3962 10.9865 9
-6 15 6 61.3413 9.62769 11
15 -6 -6 51.7474 16.1729 4
-6 -9 -6 78.7277 13.5001 5
15 -9 6 50.3991 12.4719 5
-15 9 6 68.2641 11.8505 10
9 6 6 103.616 18.0483 6
5 -15 -6 -3.3161 7.61979 8
5 10 6 2.48627 13.3112 6
10 -15 6 6.34736 10.2402 5
-5 15 -6 -0.8176 6.79569 10
-10 -5 -6 0.731 5.61092 9
5 -15 -6 -0.0657 11.308 5
15 -10 -6 -0.3291 14.2942 4
10 5 -6 -2.065 6.7802 11
15 -10 -6 5.89198 8.96482 7
10 5 -6 12.0274 18.5591 6
-15 10 -6 -4.473 6.694 9
-15 5 6 -2.5079 10.1107 10
15 -5 6 -0.4617 13.0737 4
-10 15 6 3.438 6.6422 11
15 -5 6 7.11679 6.12426 7
-5 -10 -6 1.40582 10.8516 5
5 -15 6 -5.2664 10.2655 5
15 -10 6 5.35477 13.3664 4
15 -10 6 -1.5753 7.61662 7
-10 15 -6 7.85825 7.68837 9
10 -15 -6 5.06949 11.7667 4
5 10 -6 -2.5769 7.99856 11
-15 10 6 2.22411 9.00499 10
5 10 -6 -1.0175 6.1672 12
-5 15 6 3.39702 8.06266 11
-10 15 -6 5.20849 7.14288 10
15 -5 -6 3.18748 13.2145 6
10 5 6 6.74695 13.1753 6
15 -10 6 10.5718 11.0058 5
10 -15 -6 -0.8829 9.92456 5
-15 5 -6 7.80626 8.73434 9
-11 -4 -6 -0.8196 7.00481 9
-11 15 6 8.71678 6.20141 11
4 11 6 6.49802 12.9598 6
4 -15 -6 9.42281 10.6909 5
11 4 -6 6.22666 6.83146 11
-15 4 6 6.99524 9.73065 10
15 -4 6 10.185 12.8224 4
11 4 -6 3.48873 17.94 6
15 -11 -6 1.01472 9.34573 7
-15 11 -6 6.28431 7.43028 9
15 -4 6 1.02952 10.0043 6
-4 15 -6 5.03142 7.70071 10
11 -15 6 5.43442 10.6025 5
15 -4 6 11.6038 5.99329 7
15 -11 -6 12.0425 13.9387 4
4 -15 -6 3.85361 7.57843 8
-11 15 -6 8.24859 7.70161 9
-4 -11 -6 2.85449 5.70917 8
4 -15 6 0.41368 10.2897 5
-4 -11 -6 -1.9647 10.5112 5
11 4 6 -8.2548 13.703 6
4 11 -6 2.85798 7.26224 10
15 -11 6 0.24993 13.1145 4
15 -11 6 8.51686 11.1774 5
4 11 -6 -6.6063 7.9335 11
11 -15 -6 1.95373 13.0703 4
-15 11 6 4.87967 7.73654 10
15 -4 -6 4.61888 13.7185 6
-11 15 -6 1.80535 7.21462 10
15 -11 6 1.83742 7.64835 7
-15 4 -6 3.02481 8.76269 9
-4 15 6 0.1833 8.57017 11
15 -12 -6 18.9205 9.6517 7
-3 15 -6 13.3514 7.86222 10
12 3 -6 12.1822 6.86524 11
15 -12 -6 29.5174 15.1944 4
-15 12 -6 7.44863 7.0277 9
-12 -3 -6 7.83679 7.79105 9
15 -3 6 2.86926 12.619 4
15 -3 6 8.82304 11.1793 6
-15 3 6 23.5507 10.0862 10
-12 15 6 2.75742 6.0827 11
12 3 -6 35.0053 18.0368 6
3 -15 -6 14.9205 11.3214 5
12 -15 6 11.3194 10.1059 5
3 -15 -6 2.30146 7.51995 8
-3 15 6 15.3994 9.05714 11
-15 12 6 4.5265 7.38987 10
15 -12 6 20.8807 11.2912 5
-12 15 -6 25.0475 8.43777 9
-12 15 -6 14.7302 7.94743 10
-3 -12 -6 26.6251 11.0304 5
15 -12 6 27.6248 8.29884 7
3 12 -6 20.4428 8.9179 11
15 -12 6 17.3275 13.0269 4
12 -15 -6 23.1029 14.2836 4
15 -3 -6 21.2815 15.1926 6
-15 3 -6 20.1114 9.23461 9
-3 -12 -6 13.6693 7.36377 8
12 -15 -6 8.47943 7.14166 7
3 12 -6 16.9907 7.53906 10
12 3 6 11.9017 12.5766 6
13 2 -6 15.0588 6.76662 11
-13 15 6 1.55293 5.51776 11
2 -15 -6 13.8593 11.2522 5
-2 15 -6 14.9752 8.09911 10
15 -13 -6 4.66753 9.00368 7
15 -13 -6 11.458 15.0892 4
-13 -2 -6 9.32276 8.15117 9
13 -15 6 16.2642 10.9015 5
13 2 -6 24.9243 17.2764 6
-15 2 6 18.3694 9.71304 10
2 13 6 10.2462 7.06558 11
15 -2 6 8.09947 12.348 6
2 -15 -6 12.6581 8.12045 8
-15 13 -6 10.7575 7.3179 9
15 -2 -6 34.7228 16.6204 6
-15 13 6 6.76018 6.27559 10
-2 -13 -6 18.274 7.42854 8
-13 15 -6 18.058 8.82209 10
-2 15 6 24.5953 9.2529 11
-2 -13 -6 19.9293 11.2457 5
-13 15 -6 30.4167 8.50931 9
2 13 -6 39.6572 8.88159 10
13 -15 -6 15.3156 8.22045 7
15 -13 6 10.5484 13.7695 4
13 2 6 9.6431 14.1385 6
15 -13 6 18.8643 11.3265 5
13 -15 -6 32.9993 14.8229 4
15 -13 6 27.6286 8.41699 7
2 13 -6 28.4615 9.30239 11
-15 2 -6 24.2011 8.92359 9
-15 1 6 14.6766 9.62999 10
1 14 6 9.12896 8.35393 11
15 -14 -6 1.99349 14.8963 4
-15 14 -6 -1.7147 7.04533 9
-1 15 -6 -5.0694 6.81898 11
1 -15 -6 9.14003 7.3115 8
-1 15 -6 13.9739 8.21958 10
14 1 -6 3.07439 15.6968 6
14 -15 6 5.99111 10.7534 5
15 -14 -6 9.72777 8.79975 7
15 -1 6 8.40752 13.0643 6
-14 -1 -6 17.0634 8.55301 9
14 1 -6 10.3626 6.43069 11
1 -15 -6 22.6381 12.0961 5
-14 -1 6 12.5742 8.92512 10
-15 1 -6 13.9314 8.38536 9
15 -14 6 17.968 13.2469 4
-14 15 -6 5.81013 7.92019 10
-14 15 -6 4.58673 7.63297 9
-15 14 6 0.28102 5.56653 10
15 -1 -6 14.3736 14.9398 6
14 -15 -6 15.8644 15.1486 4
-1 -14 -6 8.13473 7.35618 8
14 1 6 8.99146 13.6486 6
14 -15 -6 5.9111 8.01509 7
1 14 -6 14.6214 8.87669 11
-1 15 6 11.3408 8.79466 11
-1 -14 -6 6.69111 10.2585 5
1 14 -6 7.33718 7.95234 10
15 -14 6 10.6008 7.43494 7
15 -14 6 10.4099 11.6978 5
15 0 -6 7.04997 5.41626 11
0 15 -6 27.0684 8.2484 10
-15 15 -6 20.8284 7.58185 9
15 -15 6 23.878 11.2046 5
15 -15 -6 27.4783 14.8094 4
0 -15 -6 16.8324 7.06131 8
15 0 6 17.6666 13.4517 6
-15 0 -6 25.4508 8.67303 9
0 -15 -6 21.9235 11.3656 5
0 15 -6 28.9708 9.46512 11
15 0 -6 23.595 15.6513 6
15 -15 -6 24.3375 8.53581 7
-15 15 -6 5.6249 9.15795 10
15 -15 6 23.9175 7.24655 7
-15 0 6 24.762 9.04657 10
0 15 6 28.0344 8.5842 11
-16 8 -6 47.8064 9.11686 9
8 -16 -6 43.2701 13.4895 5
16 -8 -6 35.9901 16.162 4
-8 16 6 36.5291 8.36814 11
16 -8 6 43.0061 8.91895 7
8 -16 -6 20.7483 8.03209 8
-8 16 -6 40.4415 8.81072 10
8 8 6 46.1542 15.4132 6
8 -16 6 34.7346 11.615 5
-8 16 -6 46.6477 9.88064 9
-16 8 6 41.8939 11.2689 10
16 -8 6 28.0643 12.9325 4
8 8 -6 46.0546 8.85207 11
-16 9 -6 47.7459 9.15504 9
-7 16 -6 57.4103 8.97237 10
9 -16 6 66.0637 12.5551 5
16 -9 -6 47.5927 10.2402 7
-16 7 6 79.8351 12.7451 10
-9 16 6 40.2836 8.27679 11
7 -16 -6 56.3042 13.731 5
16 -7 6 50.6394 14.4969 4
-7 -9 6 56.1217 9.36495 9
16 -9 -6 54.8939 16.47 4
9 7 -6 56.4911 8.8935 11
7 -16 -6 49.5278 9.52992 8
16 -7 6 53.9254 9.35776 7
7 9 6 78.6051 17.4062 6
9 7 6 47.8751 15.3648 6
-7 16 6 40.2945 8.3446 11
-9 16 -6 43.3696 9.09675 10
-16 9 6 63.5518 12.2121 10
7 -16 6 46.3593 12.0761 5
-9 16 -6 37.0319 9.08962 9
7 9 -6 43.0942 8.79388 11
7 -16 6 38.4431 7.3918 8
16 -9 6 53.8387 9.33219 7
16 -9 6 29.4627 13.5931 4
16 -7 -6 16.0446 14.7841 4
-16 7 -6 48.3497 9.79237 9
9 -16 -6 28.2168 12.6595 5
16 -6 6 1.155 12.4422 4
6 -16 -6 -1.6632 7.63014 8
16 -6 6 5.80573 7.67669 7
-16 10 -6 4.11365 7.48352 9
6 10 6 16.717 14.4865 6
10 6 -6 5.37963 7.07871 11
6 -16 -6 7.91047 11.9495 5
10 6 -6 -1.553 16.9194 6
16 -10 -6 7.96072 14.3609 4
-16 6 6 4.55777 10.5572 10
-6 16 -6 -2.9345 6.72154 10
10 -16 6 6.00567 10.3854 5
-10 16 6 6.28424 6.86489 11
-6 -10 6 -3.8876 7.96301 9
16 -10 -6 8.59808 8.85976 7
-10 -6 -6 6.54263 6.60912 9
-10 16 -6 8.18387 7.97938 10
-6 16 6 -1.7837 7.54217 11
6 -16 6 1.98598 6.17684 8
16 -10 6 -6.845 13.5215 4
-16 6 -6 -0.767 8.66588 9
6 -16 6 5.652 10.4773 5
6 10 -6 7.55751 8.28273 11
-10 16 -6 -0.5672 7.81297 9
10 6 6 6.51044 12.5468 6
-16 10 6 -2.7502 10.1612 10
6 10 -6 0.2583 6.60459 12
16 -6 -6 9.5939 13.9193 6
-6 -10 -6 3.4836 9.66233 5
16 -10 6 8.22188 7.91865 7
10 -16 -6 -0.3669 11.0035 5
11 5 -6 3.34952 17.9746 6
-16 11 -6 9.75134 7.50647 9
-5 -11 6 2.5399 7.98213 9
11 5 -6 -0.1494 6.78652 11
16 -5 6 2.57617 7.1513 7
16 -11 -6 21.5419 14.7083 4
16 -11 -6 5.07049 8.31895 7
5 -16 -6 5.78761 10.5786 5
5 11 6 5.07828 19.9667 6
-11 16 6 6.31786 7.00648 11
11 -16 6 10.0958 10.9657 5
5 -16 -6 4.596 8.21221 8
16 -5 6 4.92067 12.4924 4
-11 -5 -6 2.57428 7.38659 9
-5 16 -6 4.51469 7.63187 10
-16 5 6 13.5195 10.099 10
-11 16 -6 7.48671 8.51206 10
-5 -11 -6 1.26942 10.4476 5
5 -16 6 2.18001 10.415 5
-11 16 -6 -2.1249 7.45373 9
11 5 6 5.40059 12.2062 6
-16 11 6 9.08307 9.58888 10
16 -5 -6 4.4743 14.2245 6
5 -16 6 1.26134 4.46616 8
-5 16 6 1.12496 8.22998 11
16 -11 6 -4.3161 12.0862 4
11 -16 -6 -4.104 10.8826 4
5 11 -6 -3.0339 7.39884 12
-5 -11 -6 -0.1344 5.43698 8
5 11 -6 -1.3321 7.96658 11
16 -11 6 -6.3804 7.59012 7
-16 5 -6 1.50812 8.64045 9
-12 16 6 48.3092 8.57958 11
16 -12 -6 51.377 15.7756 4
12 4 -6 88.8497 21.0316 6
-16 12 -6 63.849 9.60784 9
-4 16 -6 77.1567 10.1845 10
12 -16 6 59.3121 12.4719 5
16 -4 6 30.6443 12.9824 4
4 -16 -6 72.6629 10.1781 8
-4 -12 6 56.4525 9.90742 9
4 -16 -6 45.1892 12.3751 5
-12 -4 -6 71.1387 10.2617 9
16 -12 -6 69.2587 10.4628 7
12 4 -6 57.0371 8.82927 11
-16 4 -6 77.9649 11.146 9
-4 16 6 69.0057 11.1356 11
-12 16 -6 92.3881 10.9577 9
16 -12 6 68.6857 15.7991 4
12 4 6 64.3309 15.8281 6
-12 16 -6 60.2299 11.4138 10
-4 -12 -6 66.7565 13.2275 5
4 12 -6 91.9819 11.7941 11
16 -12 6 73.3088 10.4884 7
-16 12 6 69.7189 11.865 10
-4 -12 -6 72.9574 9.41317 8
12 -16 -6 85.1362 15.6107 4
4 12 -6 102 10.8592 10
4 12 -6 78.9169 11.9184 12
16 -4 -6 60.7384 16.5444 6
3 -16 -6 30.6578 11.5423 5
16 -13 -6 34.4211 9.48141 7
-13 16 6 18.317 6.94279 11
13 3 -6 29.2825 7.72731 11
-3 16 -6 33.6889 8.39038 10
-13 -3 -6 36.0793 8.77869 9
3 13 6 25.3646 7.16197 11
-16 13 -6 34.9954 8.29626 9
16 -13 -6 43.2343 16.4057 4
3 -16 -6 35.3285 8.61868 8
-16 3 6 61.7742 11.2858 10
13 3 -6 24.5859 16.9964 6
13 -16 6 37.543 11.9862 5
-16 13 6 30.9479 9.57993 10
16 -13 6 37.7187 8.67332 7
16 -13 6 32.9103 13.9688 4
-3 16 6 44.3116 9.97303 11
-3 -13 -6 40.3336 11.8532 5
-3 -13 -6 32.819 7.44345 8
3 13 -6 35.3652 7.89436 10
-13 16 -6 24.104 10.1359 10
-13 16 -6 37.3652 8.74708 9
3 13 -6 34.5971 9.63852 11
13 3 6 44.0897 15.7108 6
13 -16 -6 26.5257 8.10027 7
-16 3 -6 38.5953 9.6951 9
13 -16 -6 37.2154 14.4232 4
16 -3 -6 48.4214 16.323 6
14 -16 6 13.3559 10.8298 5
-14 -2 -6 8.21448 8.10177 9
-2 16 -6 4.94268 7.44191 10
2 -16 -6 7.68228 10.7505 5
-16 14 -6 2.83221 6.99838 9
2 -16 -6 7.72933 7.27472 8
16 -2 6 -1.7483 10.2804 6
2 14 6 5.24191 7.57992 11
16 -14 -6 12.2056 8.18052 7
-16 2 6 5.07382 8.69636 10
14 2 -6 9.7175 6.8542 11
14 2 -6 16.2227 16.1242 6
-14 16 6 3.2961 6.01246 11
16 -14 -6 27.1851 15.7606 4
16 -14 6 11.3844 12.0004 4
16 -14 6 0.15468 10.0149 5
-14 16 -6 18.9841 10.3969 10
14 -16 -6 4.36429 7.45039 7
2 14 -6 15.7346 8.76626 11
16 -14 6 6.49394 7.71137 7
-14 -2 6 9.13371 8.45048 10
14 2 6 11.9178 13.9535 6
-16 14 6 3.12031 7.79768 10
-2 -14 -6 17.7478 10.7083 5
-16 2 -6 4.16223 8.45453 9
16 -2 -6 2.42668 14.0761 6
-2 16 6 1.56313 8.33673 11
-14 16 -6 7.59804 7.8206 9
2 14 -6 7.32985 7.22962 10
-2 -14 -6 6.9573 6.5616 8
14 -16 -6 1.71754 13.5087 4
-15 16 6 0.58346 4.96049 10
-16 1 6 30.8291 9.44153 10
15 1 -6 19.4464 6.52315 11
1 -16 -6 30.6234 11.9668 5
15 1 -6 24.4373 15.082 6
-16 15 -6 1.28232 8.55649 10
1 -16 -6 15.0944 6.93597 8
-1 16 -6 14.4388 8.74826 11
1 15 6 18.0194 8.31241 11
-16 15 -6 17.0461 7.55373 9
16 -15 -6 29.1536 15.1861 4
-1 16 -6 20.2215 8.10181 10
16 -1 6 0.64119 10.494 6
15 -16 6 9.35642 10.722 5
16 -15 -6 20.8019 7.79849 7
-15 -1 -6 22.7823 8.44024 9
-1 -15 -6 21.3184 10.3784 5
-15 -1 6 31.9225 9.37847 10
16 -1 -6 39.1058 16.7247 6
-1 16 6 14.521 8.32367 11
1 15 -6 25.155 9.26424 11
15 -16 -6 27.0727 14.2606 4
15 -16 -6 17.9252 7.64996 7
-16 1 -6 32.5393 8.58391 9
16 -15 6 1.53496 10.5199 5
-15 16 -6 20.7909 8.11762 9
16 -15 6 28.7643 7.79925 7
-15 16 -6 19.5493 10.5677 10
-1 -15 -6 25.9642 7.26165 8
-16 15 6 12.9639 7.35723 10
15 1 6 22.5886 13.9656 6
1 15 -6 15.0258 7.38671 10
-16 16 6 12.6417 6.70963 10
16 0 6 0.75636 10.3716 6
-16 0 -6 4.23919 7.23955 9
16 -16 -6 9.56823 7.14956 7
0 16 -6 15.562 7.60112 10
0 -16 -6 6.23105 6.42715 8
16 -16 -6 0.97462 12.2847 4
16 -16 6 9.00405 6.65765 7
16 0 -6 11.1659 15.3801 6
-16 0 6 6.81364 8.475 10
0 -16 -6 3.34886 9.12975 5
0 16 -6 4.2121 8.44952 11
0 16 6 0.62466 7.86717 11
-16 16 -6 7.17359 9.79972 10
-16 16 -6 7.24839 7.71317 9
17 -9 -6 9.78789 8.27299 7
9 -17 6 -0.9009 5.88688 8
17 -8 6 1.04781 12.6548 4
8 -17 -6 7.31229 11.5891 5
-9 -8 -6 1.67856 6.11478 9
17 -8 6 -2.8042 7.08239 7
9 8 -6 -3.7275 6.79357 11
8 9 6 0.33029 13.1132 6
-17 9 -6 -0.4572 7.25941 9
-8 17 -6 -5.5532 7.10194 10
8 -17 -6 6.94483 7.9465 8
17 -9 -6 5.3361 13.8966 4
-9 17 6 3.48505 6.97291 11
-8 -9 6 1.93246 8.32534 9
9 -17 6 0.21452 10.6967 5
-17 8 6 1.7745 10.3608 10
9 -17 -6 1.77235 7.50085 8
9 -17 -6 3.05091 10.8439 5
-9 17 -6 -4.0993 7.29724 10
8 -17 6 -11.375 10.5346 5
17 -8 -6 -8.2882 6.43319 7
17 -8 -6 4.31489 15.9143 4
-17 8 -6 5.86158 7.73638 9
-9 -8 6 -1.66 6.8414 9
-8 17 6 2.69285 7.47412 11
17 -9 6 -0.1928 11.834 4
17 -9 6 5.29038 7.37691 7
-9 17 -6 3.79412 8.25184 9
-17 9 6 1.00387 10.3585 10
8 9 -6 2.27222 7.54387 11
8 -17 6 5.91424 6.46591 8
9 8 6 -6.1105 12.5882 6
7 10 6 0.72598 12.3946 6
-17 10 -6 1.61717 7.23979 9
17 -10 -6 11.056 14.7932 4
10 -17 6 -1.2574 9.99393 5
17 -7 6 3.03218 12.0543 4
10 7 -6 2.74573 6.52815 11
-7 17 -6 -5.1945 6.89251 10
17 -10 -6 -0.9274 8.05721 7
-10 -7 -6 4.85348 7.29906 9
17 -7 6 4.20021 7.28528 7
7 -17 -6 1.31486 10.9773 5
7 -17 -6 4.5856 7.83285 8
-7 -10 6 10.1445 8.40542 9
-17 7 6 -1.7578 9.88782 10
-10 17 6 9.0368 6.86703 11
7 -17 6 2.73761 6.4637 8
17 -10 6 2.0883 13.2721 4
-17 7 -6 3.94872 7.91173 9
-7 17 6 0.99806 7.48702 11
7 10 -6 2.25527 7.58708 11
10 -17 -6 -0.2877 13.7536 5
17 -10 6 9.03649 7.67559 7
7 10 -6 -1.6256 5.25045 12
10 -17 -6 3.54341 6.31013 8
-10 17 -6 -2.9367 7.83705 9
-10 17 -6 2.94934 7.9105 10
7 -17 6 4.56187 10.5191 5
-17 10 6 -4.9228 9.8478 10
10 7 6 0.00615 12.2727 6
-11 17 6 29.5514 7.83477 11
6 -17 -6 23.8491 8.08796 8
-11 -6 -6 30.1463 8.40033 9
-17 11 -6 34.8443 8.58846 9
-6 -11 6 41.0505 9.65379 9
6 -17 -6 33.2642 11.7918 5
11 6 -6 25.7432 7.37727 11
11 -17 6 48.8409 12.3327 5
17 -11 -6 28.7401 14.9275 4
-6 17 -6 32.0808 8.57524 10
-17 6 6 45.9032 11.1139 10
17 -11 -6 30.8355 8.70867 7
17 -6 6 32.5346 8.36213 7
17 -6 6 18.3975 12.6037 4
17 -6 -6 39.8747 14.9914 6
6 11 -6 20.3646 8.2777 12
6 -17 6 34.8795 7.45094 8
17 -11 6 39.3658 14.2661 4
-11 17 -6 36.8579 9.55352 10
-17 6 -6 55.0207 9.90908 9
-11 17 -6 23.9342 8.34117 9
-17 11 6 28.8888 10.1481 10
17 -11 6 46.7109 9.04966 7
6 -17 6 27.4383 10.726 5
6 11 -6 53.0728 9.62731 11
-6 17 6 45.8832 9.33289 11
11 6 6 42.3077 15.1495 6
-5 17 -6 22.2233 8.44128 10
17 -12 -6 18.5486 8.35602 7
-17 12 -6 10.0417 7.56355 9
17 -5 6 4.78976 13.0505 4
17 -5 6 14.5267 7.34952 7
-12 -5 -6 8.45686 7.56774 9
12 5 -6 9.96607 16.7927 6
5 -17 -6 3.60585 10.3391 5
17 -12 -6 19.9732 13.765 4
12 -17 6 21.8401 11.3819 5
12 5 -6 14.0886 7.2516 11
5 -17 -6 16.893 7.9752 8
-17 5 6 28.7545 10.6347 10
-5 -12 6 14.4482 8.347 9
-12 17 6 16.5613 7.12052 11
-12 17 -6 17.176 8.04103 9
5 -17 6 16.7677 6.46282 8
-12 17 -6 20.3028 9.16358 10
17 -5 -6 22.8749 14.6051 6
5 12 -6 16.489 8.18364 11
5 12 -6 8.87546 8.24004 12
-5 17 6 29.9175 9.09145 11
-17 5 -6 16.6671 8.44311 9
12 5 6 26.9834 14.3688 6
17 -12 6 24.6527 7.9507 7
-5 -12 -6 14.7371 6.58493 8
-17 12 6 19.929 9.61337 10
17 -12 6 19.1583 13.406 4
17 -13 -6 19.3702 14.1202 4
4 13 6 0.70744 5.26715 11
-4 -13 6 4.25209 7.76136 9
13 4 -6 3.66021 6.76513 11
-13 -4 -6 13.4819 7.69015 9
-17 4 6 15.0363 9.90718 10
-13 17 6 7.69738 6.70144 11
-17 13 -6 -0.0526 6.92819 9
-4 17 -6 15.9465 8.45379 10
4 -17 -6 5.82281 7.83435 8
4 -17 -6 1.68273 10.5164 5
17 -4 6 8.00261 5.79716 7
13 4 -6 11.7952 15.9092 6
17 -13 -6 9.62836 7.73129 7
13 -17 6 13.186 9.97924 5
13 4 6 4.63348 13.7295 6
-4 -13 -6 1.32471 11.231 5
-4 17 6 8.67951 8.70564 11
-13 17 -6 13.4623 7.73276 9
17 -4 -6 4.73964 14.1634 6
-13 17 -6 11.922 9.24128 10
17 -13 6 5.4713 12.6584 4
-17 4 -6 15.3703 8.45556 9
-4 -13 -6 8.27883 6.46144 8
4 13 -6 7.12354 8.11601 11
-17 13 6 13.2442 9.41193 10
17 -13 6 9.27662 7.79521 7
4 13 -6 8.86185 8.91094 12
13 -17 -6 9.94644 6.60252 7
-3 17 -6 19.1999 8.2301 10
-17 14 -6 16.2654 7.52514 9
17 -14 -6 23.1134 14.5316 4
3 -17 -6 10.0673 7.2785 8
-14 -3 -6 6.86905 7.83969 9
-14 17 6 4.1136 5.86575 11
17 -14 -6 19.4728 8.31073 7
14 3 -6 17.7527 7.08666 11
3 14 6 10.2966 7.81092 11
14 3 -6 9.13361 16.0921 6
3 -17 -6 19.1064 10.8715 5
14 -17 6 22.2206 10.7906 5
-3 -14 6 14.2894 7.96112 9
-17 3 6 18.791 9.24219 10
-3 -14 -6 1.46919 10.541 5
-14 17 -6 17.5294 9.7623 10
-17 14 6 15.8608 8.84642 10
-3 -14 -6 16.8996 6.69702 8
-17 3 -6 27.9981 8.93485 9
-14 -3 6 17.7682 8.82238 10
3 14 -6 14.5219 8.26814 11
14 3 6 -0.1206 12.9973 6
17 -3 -6 8.43728 14.2403 6
-3 17 6 22.824 8.557 11
3 14 -6 16.2164 9.63139 12
3 14 -6 17.928 7.47945 10
17 -14 6 14.8074 7.58781 7
17 -14 6 13.4835 12.3209 4
-14 17 -6 21.808 7.95891 9
14 -17 -6 14.6944 7.28659 7
2 -17 -6 26.2259 7.47175 8
2 15 6 13.7083 8.09719 11
17 -15 -6 12.8187 14.3458 4
17 -15 -6 25.7454 7.67445 7
-15 -2 -6 15.836 7.93344 9
15 2 -6 29.1744 15.4366 6
2 -17 -6 17.2537 10.497 5
-2 17 -6 30.0717 8.24553 10
15 2 -6 17.8238 6.80664 11
15 -17 6 2.31192 9.29394 5
-2 17 -6 -4.1137 6.698 11
-17 15 -6 14.589 7.45676 9
-17 2 6 29.6189 8.95859 10
-2 -15 6 26.5941 8.32265 9
-15 -2 6 21.4728 8.7757 10
15 -17 -6 24.1379 7.47229 7
-17 2 -6 23.5778 8.21929 9
17 -2 -6 28.0936 15.297 6
2 15 -6 21.4911 8.70336 11
-15 17 -6 13.4865 9.99491 10
2 15 -6 25.8816 7.53277 10
15 2 6 3.75912 12.4079 6
-17 15 6 16.4115 7.83077 10
-2 -15 -6 17.483 6.56136 8
17 -15 6 20.5174 7.5596 7
-15 17 -6 23.9879 8.04763 9
-2 17 6 31.7513 9.03365 11
1 -17 -6 0.91421 7.87093 5
-1 17 -6 13.8024 7.72757 10
-1 17 -6 16.4305 8.53994 11
-17 1 6 9.5141 8.41667 10
16 1 -6 -2.3882 12.3566 6
17 -16 -6 7.77319 6.80123 7
-16 -1 -6 5.66427 7.15235 9
1 16 6 5.94325 7.98163 11
1 -17 -6 15.7165 6.69647 8
-16 17 6 1.39902 4.55536 10
17 -16 -6 1.26568 10.6355 4
16 -17 6 -2.7128 4.08848 7
-17 16 -6 -0.845 8.38666 10
-17 16 -6 8.46977 7.6873 9
1 16 -6 14.2218 7.01105 10
-17 1 -6 16.3051 8.13865 9
-16 17 -6 15.4248 9.44082 10
-16 17 -6 13.9873 7.78378 9
-1 -16 -6 11.2361 6.25292 8
17 -1 -6 7.56179 13.3955 6
-16 -1 6 8.7813 8.45911 10
16 1 6 -0.6826 20.1088 6
-1 17 6 24.1555 8.34225 11
16 -17 -6 12.7948 6.90948 7
1 16 -6 15.945 8.44485 11
-17 16 6 17.5211 7.46994 10
17 -16 6 8.63463 6.67417 7
0 17 6 10.1622 7.87716 11
17 -17 6 1.47024 5.78958 7
-17 17 6 -0.7743 6.33251 10
-17 17 -6 -1.5439 8.96698 10
-17 0 6 1.38622 8.08095 10
17 -17 -6 2.65619 6.35153 7
0 -17 -6 4.96917 5.66742 8
0 17 -6 13.7369 8.13054 11
-17 17 -6 0.1331 7.43657 9
-17 0 -6 6.28164 6.69051 9
0 17 -6 3.44293 7.0607 10
18 -9 6 -0.4082 7.04252 7
9 -18 -6 0.1101 7.14967 8
-9 18 6 -0.3252 6.99529 11
-9 18 -6 0.62137 7.18199 10
-18 9 6 -2.7609 9.61249 10
9 -18 -6 0.79855 9.94809 5
9 9 -6 0.27021 6.93779 11
-9 -9 -6 5.37668 6.48977 9
18 -9 -6 10.8643 7.77881 7
-18 9 -6 4.84007 7.38276 9
9 -18 6 -5.8869 9.80214 5
9 9 6 -2.1387 12.3015 6
-9 -9 6 2.80178 7.78086 9
9 -18 6 6.26204 6.26829 8
18 -9 6 1.08412 12.3102 4
10 -18 6 8.6674 6.2327 8
10 -18 6 11.1205 10.2198 5
-18 10 -6 4.77668 7.38305 9
18 -8 6 8.5995 7.2329 7
-10 18 6 11.5006 7.18704 11
8 -18 -6 9.69229 10.6145 5
18 -10 -6 2.58627 7.72638 7
18 -10 -6 2.31531 13.5753 4
-10 -8 -6 4.56625 7.05085 9
-8 -10 6 7.15656 8.02903 9
10 8 -6 6.09563 6.7445 11
-18 8 6 9.53465 9.83506 10
-8 18 -6 3.55566 7.0901 10
18 -8 6 12.7459 12.713 4
8 -18 -6 9.73894 7.61135 8
10 8 6 11.6087 13.2232 6
18 -10 6 7.36354 7.27426 7
18 -8 -6 -4.7371 5.70798 7
8 10 -6 17.4536 7.46353 11
-18 8 -6 15.6505 7.58973 9
18 -10 6 14.5317 12.5812 4
8 -18 6 10.7983 10.2166 5
-18 10 6 24.481 10.6538 10
8 -18 6 9.30938 6.46303 8
-8 18 6 15.9584 7.49878 11
-10 -8 6 13.1148 7.38597 9
-10 18 -6 14.3908 7.83806 10
10 -18 -6 0.8418 6.96173 8
18 -11 -6 22.1677 13.508 4
7 -18 -6 23.8266 11.119 5
-7 -11 6 33.3768 9.21064 9
-7 18 -6 35.3058 8.58567 10
-11 -7 -6 15.6566 7.55894 9
11 -18 6 21.1638 10.6209 5
-18 7 6 49.9902 10.857 10
18 -7 6 24.1494 7.95548 7
11 -18 6 44.3172 7.70264 8
11 7 -6 29.9507 7.31858 11
-18 11 -6 25.4388 7.99004 9
18 -7 6 0.13671 11.5657 4
18 -11 -6 35.4118 8.43271 7
7 -18 -6 31.652 8.23443 8
-11 18 6 33.3388 8.10175 11
18 -11 6 51.8701 14.085 4
-11 18 -6 29.7563 8.67866 10
-18 7 -6 50.8555 8.99295 9
7 11 -6 31.3021 7.88507 12
11 -18 -6 34.2448 6.93077 8
-18 11 6 35.2779 10.3744 10
7 -18 6 39.5208 7.38305 8
-7 18 6 33.1236 8.37071 11
18 -11 6 49.8277 9.02462 7
11 7 6 44.3977 14.895 6
-11 18 -6 21.6813 8.30752 9
7 11 -6 40.9604 8.44693 11
18 -12 -6 10.3974 12.8679 4
-18 12 -6 10.6289 7.29498 9
12 6 -6 9.87599 6.82793 11
12 -18 6 0.38547 10.321 5
-12 18 6 10.3148 6.98456 11
6 -18 -6 5.52763 10.43 5
18 -6 6 7.0125 7.13017 7
18 -12 -6 9.79288 7.38652 7
6 -18 -6 -0.3968 6.83717 8
-6 18 -6 9.11535 8.10499 10
-12 -6 -6 9.76477 7.34944 9
-6 -12 6 2.66651 7.87616 9
-18 6 6 0.64112 9.2593 10
12 -18 6 7.21348 6.38447 8
-18 12 6 10.8457 9.70706 10
12 6 6 14.5482 12.7672 6
6 12 -6 2.8419 7.87026 12
18 -12 6 18.8683 13.0773 4
-12 18 -6 4.90941 8.24616 10
-12 18 -6 11.9655 7.81913 9
-6 18 6 7.63535 7.41556 11
-6 -12 -6 -0.7702 4.28269 8
18 -12 6 4.508 7.60408 7
6 12 -6 6.21929 7.06866 11
6 -18 6 6.29194 6.52302 8
-18 6 -6 8.37733 7.48992 9
-5 -13 6 0.68496 7.50695 9
18 -13 -6 11.419 13.0687 4
5 -18 -6 14.1209 10.1406 5
-18 13 -6 8.14725 7.30311 9
5 -18 -6 1.29769 6.69373 8
13 -18 6 11.4144 9.94423 5
-13 18 6 8.18972 6.98461 11
18 -5 6 6.88908 6.94979 7
-5 18 -6 9.7794 7.81906 10
13 5 -6 16.5288 6.76655 11
-18 5 6 9.33374 8.86179 10
-13 -5 -6 8.83126 7.33928 9
13 -18 6 8.63776 5.85291 8
5 13 6 -2.4601 6.29102 11
18 -13 -6 3.37676 6.6693 7
18 -13 6 19.9865 12.2946 4
-13 18 -6 29.5871 8.11268 9
18 -13 6 19.6389 7.70366 7
-13 18 -6 0.67155 8.50636 10
5 13 -6 13.9483 8.55121 12
-5 18 6 14.7943 8.05896 11
5 13 -6 20.2915 7.89445 11
-5 -13 -6 22.6977 6.43058 8
5 -18 6 20.1363 6.90755 8
-18 5 -6 25.3347 8.22848 9
-18 13 6 31.9917 10.0976 10
18 -5 -6 0.20193 11.6963 6
13 5 6 13.6042 12.917 6
-14 18 6 22.1926 6.8008 11
-18 14 -6 25.5456 7.98353 9
14 -18 6 25.7068 6.45743 8
-4 18 -6 20.316 8.28798 10
-14 -4 -6 23.7866 7.94066 9
4 14 6 16.525 7.40138 11
18 -14 -6 23.9062 7.12422 7
-18 4 6 28.6872 9.11716 10
4 -18 -6 13.0494 9.73378 5
18 -14 -6 15.7643 13.145 4
18 -4 6 1.50305 5.58703 7
14 -18 6 1.73724 8.88361 5
14 4 -6 21.1481 6.87101 11
4 -18 -6 18.311 7.00058 8
-4 -14 6 31.1023 8.38925 9
4 14 -6 31.206 9.28443 12
-14 18 -6 27.4915 7.82721 9
-4 -14 -6 15.8009 6.38929 8
-18 14 6 20.6753 9.19913 10
-14 18 -6 28.5381 9.44479 10
-14 -4 6 27.4206 9.03018 10
4 14 -6 31.3166 8.62456 11
-4 18 6 28.6014 8.41986 11
18 -14 6 25.8595 7.61369 7
18 -4 -6 1.76914 12.0152 6
-18 4 -6 43.1017 9.0506 9
18 -14 6 0.09808 10.07 4
14 -18 -6 24.5832 6.83901 7
14 4 6 4.08223 12.3821 6
15 3 -6 25.6921 6.87719 11
15 -18 6 23.8754 6.45978 8
-3 18 -6 21.7963 7.95162 10
-18 15 -6 21.0565 7.66389 9
3 15 6 9.48038 7.503 11
3 -18 -6 -0.7054 8.62027 5
-3 -15 6 14.6184 7.89405 9
18 -15 -6 25.6772 7.22608 7
3 -18 -6 13.3217 6.99213 8
18 -15 -6 2.61299 11.0054 4
-18 3 6 10.364 7.9818 10
-15 -3 -6 17.2715 7.73571 9
-3 -15 -6 16.0279 5.90399 8
18 -3 -6 1.24077 18.8369 6
3 15 -6 18.401 8.02598 11
15 3 6 -1.4104 10.605 6
15 -18 -6 12.0257 6.4248 7
-15 -3 6 14.7953 8.40842 10
-15 18 -6 13.6198 7.49208 9
-3 18 6 25.4343 8.10422 11
-18 15 6 19.9514 8.35705 10
3 15 -6 19.3097 9.06172 12
18 -15 6 24.6619 7.13084 7
-18 3 -6 27.8122 7.94504 9
-15 18 -6 20.7504 9.5312 10
16 2 -6 8.21244 5.11663 11
2 16 6 4.48075 7.66388 11
-18 16 -6 12.9494 7.46604 9
-2 -16 6 2.07818 6.97716 9
-18 2 6 3.2399 7.60165 10
-16 -2 -6 6.74368 6.87442 9
2 -18 -6 -1.5327 5.82133 8
-18 16 -6 -1.5936 10.4902 10
18 -16 -6 5.14699 6.5031 7
16 -18 6 1.97947 5.66005 8
-2 18 -6 0.24557 6.65902 11
-2 18 -6 17.2717 7.65672 10
18 -16 6 9.08037 6.62897 7
16 -18 -6 2.15462 5.92446 7
-16 18 -6 -1.8801 6.97026 9
-18 2 -6 8.28481 7.03742 9
-2 18 6 2.88076 7.38032 11
-16 -2 6 9.40389 8.02674 10
-16 18 -6 -1.2102 8.68007 10
-2 -16 -6 4.00425 5.42096 8
-18 16 6 2.66438 7.10427 10
2 16 -6 6.73419 7.52537 11
2 16 -6 4.73078 7.82378 12
1 -18 -6 24.5434 6.16554 8
1 17 6 18.0917 7.80037 11
-17 -1 -6 16.3264 6.8405 9
-18 1 6 27.9566 8.00788 10
-1 -17 6 33.5791 8.25894 9
18 -17 -6 26.9542 6.65214 7
-18 17 -6 16.4907 7.61764 10
-18 17 -6 26.2311 8.15617 9
-1 18 -6 46.2618 10.9777 12
17 -18 6 19.2362 6.18978 8
-1 18 -6 21.2157 7.28256 10
-1 18 -6 18.7855 8.22192 11
-18 1 -6 27.3969 7.26236 9
1 17 -6 22.7282 8.01643 11
-17 18 -6 17.4908 7.56798 9
-17 18 -6 16.9118 8.9418 10
18 -17 6 19.7605 6.55136 7
-1 -17 -6 24.7271 6.08462 8
-1 18 6 28.1773 8.3065 11
1 17 -6 29.3939 7.24885 10
18 -17 6 22.828 5.89513 8
-18 17 6 19.9074 7.31951 10
-17 -1 6 28.3929 8.36549 10
1 17 -6 28.0947 8.58907 12
17 -18 -6 26.7123 6.25542 7
-18 0 6 62.3235 9.67729 10
18 -18 -6 76.2495 9.9598 7
0 -18 -6 68.847 9.01802 8
-18 18 -6 48.4951 9.97559 10
0 18 -6 77.6474 10.1401 11
-18 0 -6 88.7718 11.2434 9
-18 18 6 64.3092 9.17597 10
0 18 6 94.364 12.3134 11
18 -18 6 75.0621 9.63736 8
0 -18 6 82.7365 11.2987 9
-18 18 -6 88.0744 10.8626 9
0 18 -6 78.3848 9.65513 10
-10 -9 -6 0.63063 6.43856 9
-19 10 -6 1.09492 6.82319 9
19 -9 6 9.30573 6.93688 7
10 -19 6 7.25924 6.01925 8
-10 19 6 7.24734 7.05084 11
-9 19 -6 12.7161 7.39977 10
-19 9 6 3.94537 9.30339 10
9 -19 -6 2.88459 6.76932 8
19 -9 6 -2.0521 12.5086 4
10 9 -6 7.00374 6.39648 11
-9 -10 6 5.18944 7.40826 9
19 -10 -6 3.09464 6.9262 7
10 -19 6 -1.6435 7.83598 5
-10 -9 6 6.04833 7.29147 9
19 -9 -6 2.13154 6.63821 7
9 10 -6 9.53618 6.69864 11
-10 19 -6 10.3214 7.17864 10
-19 10 6 5.50424 8.91074 10
19 -10 6 6.60286 6.77158 7
9 -19 6 6.07851 6.0021 8
19 -10 6 1.09414 10.101 4
-9 19 6 11.3837 7.21743 11
-19 9 -6 2.86603 6.83022 9
-9 -10 -6 3.86978 5.85619 9
10 -19 -6 10.7274 6.6756 8
11 8 -6 13.7325 6.81166 11
-19 11 -6 5.31567 7.29531 9
11 -19 6 20.9502 6.37717 8
-11 -8 -6 7.56934 6.88214 9
-11 19 6 9.89451 7.33603 11
-8 19 -6 17.1241 8.049 10
19 -8 6 11.0515 7.1159 7
-8 -11 6 -0.2732 7.30471 9
19 -11 -6 1.58439 6.94408 7
8 -19 -6 10.5336 6.93579 8
11 -19 6 4.67149 8.3849 5
-19 8 6 20.831 9.66615 10
11 -19 -6 10.133 6.34113 8
-11 19 -6 19.7495 7.68152 10
19 -11 6 -1.4494 9.83249 4
19 -11 6 16.1819 6.96918 7
8 11 -6 10.9592 6.70169 11
-19 11 6 11.9665 9.57284 10
-19 8 -6 8.40947 7.01613 9
8 -19 6 2.60299 6.10966 8
-11 -8 6 11.5694 7.03638 9
-8 19 6 18.0235 7.22475 11
8 11 -6 -0.243 4.27849 12
-7 19 -6 33.4584 8.53673 10
-7 -12 6 24.6569 7.92549 9
-12 19 6 19.6808 7.37894 11
12 -19 6 21.5593 6.6596 8
19 -12 -6 24.9342 7.18778 7
-19 12 -6 21.4351 7.7284 9
12 -19 6 -0.7744 8.22465 5
-12 -7 -6 21.5356 7.36198 9
12 7 -6 37.8014 7.45729 11
-19 7 6 24.0736 9.23596 10
19 -7 6 19.3182 7.29897 7
7 -19 -6 21.0995 7.02706 8
7 12 -6 30.4027 7.7923 11
12 -19 -6 1.24253 4.69972 8
19 -12 6 24.902 7.48378 7
7 12 -6 17.2875 7.06375 12
-19 7 -6 21.1638 7.20409 9
-19 12 6 47.8517 10.5133 10
-12 19 -6 32.1577 8.68346 10
-7 19 6 16.5428 7.09853 11
7 -19 6 19.3513 6.23755 8
19 -12 6 -0.4794 10.0231 4
-6 19 -6 19.8678 7.84971 10
19 -13 -6 22.8489 7.03862 7
-13 19 6 9.44988 7.05324 11
19 -6 6 16.5854 7.04475 7
-6 -13 6 11.5507 7.52416 9
13 6 -6 11.4902 6.57503 11
-13 -6 -6 17.3978 7.17154 9
13 -19 6 17.2947 6.32803 8
-19 13 -6 19.2789 7.51511 9
6 -19 -6 19.9457 6.90935 8
13 -19 6 -1.8057 8.97842 5
-19 6 6 23.5389 8.80313 10
19 -13 6 71.2964 8.96238 7
6 13 -6 35.0882 8.39237 12
13 6 6 0.46056 15.9314 6
-6 19 6 48.0407 8.31638 11
-19 13 6 49.2169 10.5024 10
-13 19 -6 63.206 9.89486 10
6 -19 6 56.5282 8.13212 8
-19 6 -6 55.4564 8.86306 9
-13 19 -6 50.7072 8.67802 9
6 13 -6 35.5471 7.65877 11
19 -5 6 3.44225 5.2331 7
-5 19 -6 5.31471 7.60519 10
19 -14 -6 10.333 6.06744 7
-14 -5 -6 7.69197 7.01581 9
-14 19 6 6.00598 6.16745 11
5 14 6 -0.72 4.36482 11
14 5 -6 11.8172 6.43465 11
14 -19 6 6.21964 5.80271 8
-19 14 -6 9.27058 7.00219 9
-5 -14 6 0.90932 7.27943 9
-19 5 6 5.58367 7.34306 10
5 -19 -6 5.64585 6.43474 8
5 -19 6 1.15358 5.14524 8
-14 19 -6 7.3775 8.10955 10
5 14 -6 0.41679 7.31247 12
14 -19 -6 -1.4694 3.69896 7
5 14 -6 2.84858 6.30787 11
-5 -14 -6 5.4034 5.07862 8
-5 19 6 6.42051 7.26379 11
19 -14 6 7.69103 6.56229 7
-19 14 6 8.96866 8.37306 10
-14 19 -6 4.38614 7.10875 9
-14 -5 6 5.46332 7.76617 10
-19 5 -6 14.09 7.01454 9
-19 4 6 24.0444 8.09014 10
15 -19 6 24.3817 6.28708 8
-4 -15 6 17.4523 7.58208 9
-15 -4 -6 20.5957 7.40394 9
-19 15 -6 14.6757 7.29289 9
4 15 6 5.35846 6.84798 11
15 4 -6 12.1256 6.20953 11
19 -15 -6 18.8621 6.6408 7
4 -19 -6 21.2898 6.57748 8
-4 19 -6 20.4892 7.82233 10
-15 19 -6 26.6826 7.58196 9
-15 -4 6 22.4586 8.37584 10
4 15 -6 43.3798 8.06671 11
4 15 -6 44.7899 9.12816 12
-15 19 -6 44.0002 9.52445 10
15 -19 -6 25.4312 6.15875 7
-4 19 6 48.0044 8.18249 11
-19 15 6 46.313 8.93319 10
-19 4 -6 44.6891 7.99906 9
-4 -15 -6 34.1303 6.22475 8
19 -15 6 31.6743 7.04051 7
-19 16 -6 8.13775 7.12495 9
3 16 6 -2.0439 7.02834 11
-16 -3 -6 -4.1612 6.26013 9
16 -19 6 -5.7007 5.4555 8
-3 -16 6 2.33726 6.97078 9
-3 19 -6 1.83662 7.02483 10
19 -16 -6 5.19009 5.7614 7
-19 3 6 2.58032 7.1132 10
3 -19 -6 0.81053 5.64514 8
-3 19 -6 3.55423 8.36705 12
16 3 -6 8.34211 4.93182 11
-19 3 -6 2.82914 6.40523 9
3 16 -6 6.25707 6.45962 11
-16 19 -6 5.53931 8.12234 10
3 16 -6 -5.069 7.49138 12
16 -19 -6 1.73426 5.39765 7
-3 -16 -6 -1.5516 4.89694 8
19 -16 6 -0.9012 5.97673 7
-19 16 6 -1.8128 6.99349 10
-3 19 6 3.35343 6.82617 11
-16 -3 6 3.72936 7.36565 10
-16 19 -6 1.78066 6.7314 9
-2 -17 6 11.9254 7.02774 9
-2 19 -6 -4.7374 6.59728 11
2 17 6 5.76129 7.02065 11
-19 2 6 5.89449 6.92039 10
19 -17 -6 8.73789 5.59027 7
17 -19 6 13.6088 5.69991 8
-2 19 -6 19.1392 9.28298 12
2 -19 -6 11.9712 5.44891 8
-19 17 -6 13.0019 7.44381 9
-2 19 -6 14.2802 6.77042 10
-17 -2 -6 13.099 6.56008 9
-2 -17 -6 6.00039 4.87314 8
19 -17 6 -0.7526 3.69416 8
-2 19 6 7.58529 7.3534 11
17 -19 -6 2.95279 5.11522 7
-17 19 -6 2.42296 6.55001 9
-19 17 6 4.19069 6.72395 10
2 17 -6 0.80482 6.36885 11
2 17 -6 3.81852 7.85167 12
-19 2 -6 1.27454 6.21107 9
-17 19 -6 12.6717 8.19273 10
-17 -2 6 9.12281 7.49446 10
19 -17 6 5.62409 5.8832 7
-1 19 -6 19.7707 6.4809 11
1 -19 -6 18.9084 5.23327 8
-1 19 -6 13.3698 6.19102 10
19 -18 -6 19.2561 5.5332 7
-18 -1 -6 10.6905 6.02484 9
-1 19 -6 22.4619 8.12701 12
-19 18 -6 1.44052 5.82804 10
-19 18 -6 21.7722 6.70845 9
-19 1 6 19.2256 7.05022 10
1 18 6 24.2134 7.47246 11
18 -19 6 16.0862 5.40701 8
-1 -18 6 23.9452 7.07539 9
-18 19 -6 2.6796 7.37353 10
18 -19 -6 11.4412 5.27167 7
19 -18 6 7.19153 4.15641 8
-19 1 -6 9.27274 6.2914 9
-1 19 6 7.21205 6.97685 11
-1 -18 -6 4.21981 4.67277 8
1 -19 6 7.75461 5.94644 9
-18 -1 6 6.21952 6.68923 10
19 -18 6 5.18825 5.15586 7
1 18 -6 3.69936 7.68326 12
1 18 -6 0.33194 6.17078 11
-19 18 6 6.05744 6.15897 10
-18 19 -6 10.9796 6.27132 9
-19 19 6 0.55785 5.40035 10
0 -19 6 4.85637 5.94166 9
0 -19 -6 1.99739 4.12578 8
0 19 -6 2.70773 7.14027 12
19 -19 6 0.87507 3.94479 8
-19 0 6 1.96392 6.41558 10
0 19 6 1.11605 6.63952 11
-19 0 -6 3.45063 5.87242 9
19 -19 -6 3.31235 4.74372 7
0 19 -6 5.25969 5.91978 11
-19 19 -6 8.36676 5.54372 10
-20 10 -6 6.63497 6.43384 9
-20 10 6 3.23371 8.36865 10
-10 -10 -6 0.00099 5.86322 9
10 -20 6 -5.2698 5.73412 8
20 -10 6 1.70931 6.24283 7
-10 20 6 -1.443 6.41199 11
10 -20 -6 7.43173 6.05351 8
10 10 -6 5.74161 6.16693 11
-10 20 -6 2.74547 7.20849 10
20 -10 -6 0.19928 6.15193 7
-10 -10 6 -1.7176 6.53954 9
-11 -9 -6 7.88076 6.20789 9
-9 -11 6 10.173 6.85997 9
-11 20 6 9.83888 6.69381 11
11 -20 6 8.42613 5.78396 8
9 -20 -6 8.20839 5.89059 8
-20 11 -6 5.87415 6.75781 9
-9 20 -6 13.2498 7.76238 10
20 -9 6 5.58983 6.32085 7
11 9 -6 15.9163 6.82274 11
-20 9 6 17.8012 8.79795 10
20 -11 -6 8.77908 6.70798 7
-20 11 6 16.9832 9.3201 10
-11 -9 6 9.82618 6.68561 9
-9 -11 -6 1.26256 4.45221 9
20 -11 6 11.9504 6.15856 7
20 -9 -6 -3.6889 4.60268 7
9 11 -6 7.23541 5.97424 11
9 -20 6 10.3385 5.54203 8
-11 20 -6 6.63758 6.77261 10
11 -20 -6 9.29679 5.69693 8
-9 20 6 14.9479 6.76095 11
-20 9 -6 8.14238 6.23454 9
8 -20 -6 20.7083 6.4139 8
-12 20 6 20.7385 7.19752 11
20 -12 -6 26.2865 6.78358 7
-20 12 -6 33.3378 7.67385 9
12 -20 6 40.3522 6.76151 8
12 8 -6 30.6588 7.0423 11
-20 8 6 42.9196 9.30046 10
-12 -8 -6 20.3789 6.88594 9
-8 -12 6 26.7902 7.25274 9
-8 20 -6 22.2824 7.39288 12
-8 20 -6 35.8112 8.51351 10
20 -8 6 33.8718 7.20254 7
-12 -8 6 9.23652 5.44917 9
12 -20 -6 23.9724 5.53228 8
8 -20 6 23.6686 6.69485 8
20 -12 6 9.24131 5.93215 7
8 12 -6 21.7043 6.37342 11
-20 8 -6 19.1071 6.62444 9
8 12 -6 0.35296 6.7564 12
-8 20 6 26.5905 6.97668 11
-12 20 -6 10.3135 7.17494 10
-20 12 6 12.373 8.94999 10
-13 -7 -6 4.32445 6.47447 9
13 -20 6 6.63125 5.8603 8
-7 -13 6 -2.2931 6.40582 9
-7 20 -6 2.74816 7.15909 10
-13 20 6 7.74359 6.94559 11
-7 20 -6 5.41736 8.37613 12
13 7 -6 5.33748 6.16494 11
-20 13 -6 5.60723 6.67247 9
20 -7 6 6.86255 6.22313 7
-20 7 6 7.47223 8.21217 10
20 -13 -6 8.68215 5.92039 7
7 -20 -6 12.5244 6.09704 8
-13 20 -6 9.04437 7.18946 10
-7 20 6 5.14018 6.01592 11
-20 13 6 7.86847 8.3704 10
-20 7 -6 8.08408 5.98255 9
7 13 -6 8.61092 5.98223 12
7 -20 6 7.78517 6.29794 8
7 13 -6 12.2223 6.26416 11
20 -13 6 14.7579 6.4586 7
-20 6 6 38.4777 7.9557 10
14 -20 6 38.8988 6.37095 8
6 -20 -6 35.911 6.59494 8
20 -14 -6 28.4717 6.47413 7
14 6 -6 35.293 6.97867 11
-6 20 -6 27.9101 7.83038 10
20 -6 6 36.3642 6.4269 7
-6 20 -6 43.4138 9.90751 12
-20 14 -6 38.7295 7.85319 9
-14 -6 -6 42.4818 7.66342 9
-6 -14 6 47.7412 7.98674 9
-14 20 6 24.6356 6.63982 11
-6 20 6 33.2733 6.90241 11
6 14 -6 23.6927 7.33596 12
20 -14 6 26.8036 6.56335 7
-14 20 -6 29.3362 7.89404 10
-20 14 6 21.3811 8.26043 10
6 14 -6 13.4246 6.07077 11
-20 6 -6 17.6653 6.31038 9
6 -20 6 20.648 5.99127 8
-14 -6 6 8.13415 7.55943 10
15 -20 6 28.7639 5.96033 8
-15 -5 -6 24.7804 6.86522 9
-5 -15 6 30.5932 7.24787 9
5 -20 -6 33.887 6.45994 8
-20 5 6 36.3994 7.92639 10
15 5 -6 25.5255 6.58522 11
-5 20 -6 23.8804 8.91171 12
-20 15 -6 26.459 7.35499 9
-5 20 -6 32.1425 7.68873 10
20 -15 -6 21.922 5.87175 7
-5 20 6 44.8256 7.73732 11
20 -15 6 36.4458 6.90839 7
-15 20 -6 37.9886 8.47974 10
5 15 -6 23.0463 7.27653 12
-20 5 -6 23.9808 6.3791 9
-15 -5 6 21.8231 7.75006 10
5 15 -6 33.8486 6.64241 11
-20 15 6 30.3613 8.19362 10
16 -20 6 6.95234 5.24604 8
4 -20 -6 3.72597 5.20924 8
-4 -16 6 10.0082 6.6406 9
4 16 6 8.51276 6.10946 11
20 -16 -6 8.28012 5.37152 7
-20 16 -6 4.2798 6.80172 9
-4 20 -6 7.813 6.81914 10
-20 4 6 4.24859 6.47735 10
16 4 -6 2.29893 4.08924 11
-16 -4 -6 4.99923 6.07891 9
-4 20 -6 10.327 8.18265 12
-16 20 -6 7.71715 6.13234 9
-4 -16 -6 3.21794 3.67832 8
-16 20 -6 10.9495 7.65342 10
-20 4 -6 2.78317 5.4943 9
20 -16 6 10.1017 5.67085 7
4 16 -6 6.50268 5.8165 11
-16 -4 6 1.0608 6.94617 10
16 -20 -6 -1.9751 3.46464 7
-4 20 6 5.16415 6.35342 11
4 16 -6 3.85415 6.47643 12
-20 16 6 3.47338 6.98336 10
-20 3 6 5.07225 6.41002 10
20 -17 -6 5.73394 5.02197 7
-3 -17 6 -0.1924 6.00995 9
-17 -3 -6 0.3078 5.52172 9
-3 20 -6 1.00307 7.31309 12
3 -20 -6 -3.3247 4.84493 8
3 17 6 -0.3222 6.24946 11
17 -20 6 5.00517 4.97714 8
-3 20 -6 3.61354 6.394 10
-20 17 -6 0.47446 6.01266 9
3 17 -6 4.90485 5.70264 11
-3 -17 -6 6.09574 4.16539 8
-17 20 -6 14.5287 5.56838 9
20 -17 6 7.84504 5.44462 7
-17 -3 6 10.2 7.10068 10
3 17 -6 18.2781 6.87125 12
-20 3 -6 6.38572 5.72311 9
17 -20 -6 8.19563 4.50019 7
3 -20 6 17.7139 6.08457 9
-17 20 -6 12.1319 7.60372 10
-20 17 6 2.4393 6.71952 10
-3 20 6 14.7744 7.13854 11
-20 2 6 14.8629 6.40969 10
-2 20 -6 14.466 7.30438 12
-2 20 -6 10.8769 5.93404 10
-18 -2 -6 13.0334 5.48028 9
2 -20 -6 14.132 4.51392 8
-2 -18 6 10.5658 6.6404 9
20 -18 -6 13.6132 4.99833 7
2 18 6 12.0392 6.54216 11
18 -20 6 13.0222 5.0136 8
-20 18 6 12.8015 6.03627 10
20 -18 6 9.96838 5.12513 7
2 18 -6 15.6049 6.75707 12
-2 20 6 20.3192 6.80377 11
2 18 -6 17.2661 6.22341 11
-18 20 -6 19.3205 7.22077 10
2 -20 6 13.1815 6.20987 9
18 -20 -6 9.69266 4.5508 7
-20 2 -6 13.9237 5.74871 9
-2 -18 -6 13.6726 4.21111 8
-18 -2 6 5.78953 6.68945 10
-19 -1 -6 35.5063 6.76901 9
-20 1 6 38.9353 7.32199 10
-1 20 -6 58.595 8.46252 12
1 19 6 36.3355 7.19426 11
20 -19 -6 31.1635 5.49914 7
1 -20 -6 40.4152 5.50229 8
-1 -19 6 57.4203 7.89372 9
-19 -1 6 33.0329 7.06501 10
19 -20 -6 24.3049 4.85586 7
1 19 -6 47.8434 6.84862 11
-1 -19 -6 21.4843 4.37056 8
1 19 -6 27.2992 6.76384 12
-19 20 -6 23.5406 5.62497 10
-20 1 -6 27.2712 5.96207 9
-1 20 6 36.4609 7.18767 11
1 -20 6 42.5109 6.68423 9
0 20 6 18.6442 6.59171 11
0 -20 6 16.0862 5.9039 9
0 20 -6 19.1203 6.68281 12
0 -20 -6 11.3702 3.54978 8
-20 0 6 8.74807 6.1553 10
-20 0 -6 12.6797 5.57313 9
20 -20 -6 14.8376 4.4023 7
11 -21 6 9.99867 5.30353 8
-11 -10 -6 4.70022 5.45373 9
10 -21 -6 5.87713 5.18281 8
-10 -11 6 7.79394 5.95821 9
-10 21 -6 23.2262 7.40674 10
-11 21 6 5.21636 5.98649 11
11 10 -6 10.1751 6.0938 11
-21 10 6 6.16999 7.85266 10
-21 11 -6 12.0096 6.1803 9
21 -11 -6 10.959 5.57357 7
21 -10 6 8.50462 5.43898 7
10 11 -6 3.15634 5.00832 11
11 -21 -6 5.67623 5.03438 8
10 -21 6 7.94092 5.56743 8
-21 10 -6 5.4612 5.85698 9
-11 21 -6 6.5094 6.37502 10
-11 -10 6 3.74627 5.95713 9
-10 21 6 1.52715 5.60438 11
-10 -11 -6 2.39181 4.22541 9
-21 11 6 1.66199 7.81473 10
21 -11 6 3.31234 5.31942 7
21 -10 -6 -1.9096 3.97141 7
12 9 -6 3.27247 5.65962 11
-21 9 6 -5.9943 6.96733 10
-9 21 -6 14.4108 7.13282 10
-12 -9 -6 5.05194 5.66673 9
12 -21 6 0.43107 5.02353 8
9 -21 -6 3.95455 5.08493 8
21 -9 6 3.07492 5.5128 7
-21 12 -6 3.48214 5.68859 9
-12 21 6 -3.7798 6.03791 11
21 -12 -6 1.37561 5.33925 7
-9 -12 6 2.42365 5.87554 9
21 -12 6 6.81518 5.13983 7
9 -21 6 -2.901 5.37125 8
12 -21 -6 9.07323 4.76009 8
9 12 -6 11.0402 5.7115 11
-21 12 6 -0.8689 7.54001 10
-9 21 6 5.35961 5.70581 11
-12 -9 6 0.25488 5.10993 9
-12 21 -6 5.12111 6.70672 10
-21 9 -6 3.7171 5.37736 9
-8 21 -6 34.8116 7.79391 10
-13 -8 -6 20.5414 6.48808 9
-8 -13 6 24.2354 6.45353 9
-13 21 6 28.1207 6.77064 11
-21 8 6 39.2111 8.38763 10
21 -13 -6 22.6851 6.03859 7
8 -21 -6 15.3902 5.47983 8
-21 13 -6 31.334 6.81413 9
13 8 -6 26.0779 6.41998 11
13 -21 6 32.2713 5.90653 8
21 -8 6 30.2044 6.11533 7
-13 21 -6 16.3372 6.75686 10
-13 -8 6 5.95982 6.73604 10
21 -13 6 15.2137 5.89353 7
-8 21 6 20.966 5.86222 11
8 -21 6 14.0348 5.52229 8
-21 13 6 22.2191 7.80002 10
-21 8 -6 11.1072 5.45678 9
8 13 -6 28.5431 6.11837 11
21 -7 6 7.25939 4.97983 7
7 -21 -6 14.4972 5.3037 8
-7 21 -6 13.3404 6.96546 10
14 -21 6 17.6996 5.47367 8
-7 21 -6 7.12337 7.39961 12
-21 7 6 13.8472 7.00889 10
-14 -7 -6 12.7955 5.99266 9
21 -14 -6 14.2252 5.34122 7
-7 -14 6 9.17534 5.72039 9
14 7 -6 13.083 5.69525 11
-14 21 6 -0.6918 4.94458 11
-21 14 -6 4.97544 6.19339 9
-21 7 -6 7.23646 5.32564 9
7 -21 6 5.29185 5.21913 8
7 14 -6 0.27684 4.02638 12
-14 21 -6 10.2872 6.81527 10
7 14 -6 7.80829 5.65357 11
-21 14 6 7.63429 7.20077 10
-14 -7 6 6.34931 6.65853 10
21 -14 6 11.5355 5.65754 7
-7 21 6 5.23136 5.44786 11
-21 6 6 -3.8144 6.07588 10
-15 -6 -6 3.52924 5.64947 9
-6 21 -6 1.02592 6.2985 10
15 6 -6 9.70579 5.14874 11
15 -21 6 6.20781 4.74401 8
-6 21 -6 -3.7329 7.29842 12
6 -21 -6 4.02912 5.08916 8
-6 -15 6 2.10836 5.49713 9
21 -15 -6 4.47193 4.7526 7
-21 15 -6 -2.1557 5.67092 9
6 15 -6 0.88095 5.31483 12
-15 -6 6 -4.318 6.43559 10
-15 21 -6 5.58322 6.53278 10
-6 21 6 1.08967 5.27948 11
21 -15 6 2.08671 5.2826 7
6 15 -6 0.94481 5.15283 11
-21 6 -6 0.96818 4.92839 9
-21 15 6 7.33516 6.91789 10
6 -21 6 -3.4059 4.33127 8
-5 21 -6 5.99719 6.28206 10
-5 -16 6 19.4072 6.00264 9
-5 21 -6 8.73547 7.33605 12
-16 -5 -6 16.4951 5.96533 9
5 -21 -6 17.1872 5.02546 8
-21 5 6 20.9979 6.59908 10
-21 16 -6 9.16338 5.11394 9
21 -16 -6 13.5989 4.88203 7
16 -21 6 15.9085 5.10145 8
-5 21 6 21.6623 6.72879 11
-16 -5 6 9.65991 6.54116 10
-21 16 6 14.3607 6.85595 10
-16 21 -6 8.35226 6.51786 10
21 -16 6 20.4124 5.49139 7
5 16 -6 15.9587 5.94766 12
-21 5 -6 7.3379 4.84907 9
5 16 -6 7.02727 5.23818 11
-4 -17 6 2.5692 5.26852 9
4 -21 -6 4.5537 4.39559 8
-4 21 -6 3.83185 5.81141 10
17 -21 6 5.8116 4.68659 8
-21 4 6 -1.3307 5.70719 10
-4 21 -6 -1.037 6.88548 12
4 17 6 -2.769 5.20883 11
21 -17 -6 6.13196 4.63283 7
-17 -4 -6 4.78049 5.41698 9
-21 4 -6 2.03184 4.67307 9
21 -17 6 7.50068 4.82478 7
4 17 -6 2.49118 5.07422 11
4 17 -6 4.88931 5.53175 12
-4 21 6 3.85585 6.09543 11
-17 21 -6 5.87064 6.45084 10
-17 -4 6 2.28069 6.35707 10
-21 17 6 0.0764 6.0913 10
4 -21 6 1.79557 5.22485 9
21 -18 -6 13.4392 4.70661 7
-3 -18 6 18.0809 6.09771 9
-3 21 -6 11.8455 5.6815 10
-21 3 6 19.2622 6.53475 10
18 -21 6 15.4339 4.69637 8
-3 21 -6 30.0227 7.65671 12
-18 -3 -6 10.2243 5.3413 9
3 -21 -6 11.9993 4.40537 8
3 18 6 1.6907 4.17653 11
-18 -3 6 9.64911 6.27995 10
-21 18 6 13.3729 5.62973 10
-21 3 -6 6.26384 4.77701 9
-18 21 -6 14.781 6.75943 10
3 -21 6 13.2756 5.47543 9
21 -18 6 5.17789 4.43415 7
-3 21 6 13.1121 6.49675 11
3 18 -6 13.4423 5.56866 11
3 18 -6 5.12207 5.41919 12
-21 2 6 24.9196 7.34025 10
-2 -19 6 25.7161 6.2834 9
2 -21 -6 13.552 4.17657 8
21 -19 -6 15.0259 4.5721 7
2 19 6 12.4883 4.79608 11
-19 -2 -6 19.9896 5.88905 9
-2 21 -6 14.8563 6.79607 12
2 19 -6 11.1221 5.34819 11
2 -21 6 10.368 5.7601 9
-21 2 -6 7.17774 5.08571 9
-19 -2 6 10.6088 5.53782 10
-2 21 6 17.0402 6.56601 11
-19 21 -6 -0.653 5.85558 10
2 19 -6 10.1715 5.70358 12
1 -21 -6 0.69566 2.16561 8
-1 21 -6 -2.0614 6.66944 12
1 20 -6 5.48664 6.5981 12
11 11 -6 4.29795 5.29637 11
11 -22 6 3.32994 4.76529 8
11 -22 -6 5.24715 4.38966 8
-11 22 -6 8.89482 6.65757 10
22 -11 6 1.23283 4.99703 7
-11 22 6 2.46029 5.00936 11
-22 11 6 6.5679 6.90256 10
-22 11 -6 2.58167 4.94005 9
-11 -11 6 3.77617 4.96242 9
-11 -11 -6 -1.1127 5.8948 9
12 -22 6 6.01163 4.85268 8
22 -10 6 4.46362 5.02966 7
-22 10 6 0.9963 6.48997 10
10 -22 -6 8.20925 4.48247 8
22 -12 -6 0.814 4.47368 7
-10 -12 6 -1.7329 4.92346 9
-12 22 6 6.8805 5.61645 11
-12 -10 -6 0.47447 4.62731 9
-22 12 -6 1.05706 5.00624 9
12 10 -6 6.80146 5.0944 11
-10 22 -6 2.08317 6.30022 10
-22 10 -6 7.85116 5.07177 9
-12 22 -6 5.59154 5.90733 10
-12 -10 6 4.9874 5.85179 10
-22 12 6 9.74228 6.76833 10
12 -22 -6 7.27303 4.07563 8
-10 22 6 9.61132 5.42595 11
-12 -10 6 1.93244 4.00299 9
22 -12 6 5.53546 4.85211 7
10 12 -6 8.68295 5.30514 11
10 -22 6 8.48721 4.69519 8
22 -9 6 13.2976 5.30552 7
-13 -9 -6 11.8925 5.09031 9
9 -22 -6 16.1669 4.6735 8
22 -13 -6 12.3512 4.9997 7
13 9 -6 14.4382 5.2385 11
13 -22 6 20.5491 5.33523 8
-13 22 6 -0.6742 4.47581 11
-22 9 6 11.2422 6.62399 10
-9 -13 6 8.82418 5.26799 9
-9 22 -6 14.5447 6.55056 10
-22 13 -6 16.5866 5.48033 9
-13 -9 6 7.09664 5.85852 10
-22 13 6 4.54544 6.46161 10
-13 22 -6 14.7765 6.32805 10
9 13 -6 16.0566 5.38566 11
22 -13 6 14.245 4.93711 7
-22 9 -6 8.75561 4.71503 9
-9 22 6 3.01787 5.09723 11
9 -22 6 19.8932 4.99357 8
22 -14 -6 5.49761 4.6319 7
-8 22 -6 -0.4115 5.79941 10
14 8 -6 6.38436 4.9384 11
-8 -14 6 -0.4708 4.78297 9
8 -22 -6 5.73641 4.4241 8
22 -8 6 -2.8314 3.57335 7
14 -22 6 2.00737 4.83578 8
-22 14 -6 2.98115 4.38985 9
-22 8 6 -1.5664 6.16832 10
-14 -8 -6 -0.6893 4.94151 9
-14 22 -6 -1.3996 6.04195 10
-22 8 -6 4.30054 4.57447 9
8 14 -6 4.12365 5.03299 11
-8 22 6 1.60536 5.01266 11
-22 14 6 0.89846 6.24913 10
8 -22 6 0.80263 4.56138 8
22 -14 6 0.72858 4.80661 7
-14 -8 6 -2.5863 5.71572 10
-7 -15 6 30.8562 5.81591 9
15 -22 6 36.1915 5.38918 8
-15 -7 -6 29.3616 6.13928 9
-7 22 -6 24.9551 6.64986 10
7 -22 -6 23.3747 4.95204 8
-7 22 -6 25.3341 6.33611 12
-22 7 6 37.969 6.8391 10
22 -15 -6 27.9113 5.18528 7
-22 7 -6 19.5355 5.13887 9
-15 -7 6 16.0032 6.33503 10
22 -15 6 32.9628 5.59038 7
7 15 -6 32.6207 6.06822 11
-7 22 6 38.5635 6.31949 11
-15 22 -6 39.3069 6.91627 10
-22 15 6 28.855 6.7327 10
-6 -16 6 14.165 5.20995 9
22 -16 -6 10.9412 4.46551 7
-6 22 -6 7.48461 6.10544 10
-22 6 6 16.7479 6.30658 10
-6 22 -6 12.9755 6.86609 12
6 -22 -6 15.9826 4.60916 8
16 -22 6 14.2446 5.09219 8
-16 -6 -6 13.0797 5.22456 9
-6 22 6 15.2659 5.78961 11
6 16 -6 14.3056 5.50729 11
-16 22 -6 11.9289 6.0763 10
6 -22 6 12.8387 5.22872 9
-22 6 -6 7.45552 4.49654 9
-16 -6 6 10.1529 5.67513 10
22 -16 6 12.1576 4.89001 7
-22 16 6 14.0888 6.13849 10
-5 22 -6 4.38505 6.9808 12
-5 -17 6 3.47149 5.66613 9
22 -17 -6 -0.92 4.47155 7
5 -22 -6 1.85495 4.26438 8
17 -22 6 5.35072 5.25542 8
-17 -5 -6 1.4513 5.15807 9
-5 22 -6 -1.3692 5.38649 10
-22 5 6 2.87927 5.85377 10
-5 22 6 3.63454 6.11324 11
22 -17 6 1.52886 4.5438 7
5 17 -6 0.07328 5.11371 11
-17 -5 6 5.73793 4.33429 10
-22 5 -6 0.07141 4.42693 9
-22 17 6 -1.8384 5.73967 10
5 -22 6 -1.1503 4.9052 9
5 17 -6 0.48834 3.39682 12
-17 22 -6 3.09053 6.31409 10
18 -22 6 5.50827 4.76354 8
-4 22 -6 11.1362 7.37278 12
4 -22 -6 8.0204 4.419 8
-4 22 -6 4.57813 5.6288 10
-4 -18 6 10.4379 5.61392 9
22 -18 -6 8.14242 4.92031 7
-18 -4 -6 2.28349 5.45155 9
-22 4 6 7.72346 7.05938 10
22 -18 6 -1.4844 3.80784 7
4 18 -6 2.22801 3.67931 12
-22 18 6 1.43883 3.73139 10
-4 22 6 8.95537 6.66422 11
-18 22 -6 14.9175 6.46883 10
-22 4 -6 1.31235 4.6455 9
4 18 -6 5.59795 5.55863 11
4 -22 6 -1.0225 5.30662 9
23 -11 6 4.47199 5.00223 7
11 -23 -6 4.56652 4.0298 8
-23 11 6 -0.3662 6.22742 10
-11 -12 6 1.3054 3.11819 9
-11 23 -6 4.28489 6.32179 10
-23 12 -6 0.32843 5.59387 9
12 11 -6 8.43501 4.74046 11
12 -23 6 -0.9258 4.24204 8
11 12 -6 4.99216 4.79538 11
23 -12 6 2.50562 4.99613 7
-23 11 -6 3.23839 3.28987 9
11 -23 6 7.74848 4.44065 8
-12 23 -6 -0.5324 6.2877 10
12 -23 -6 -0.6223 2.5976 8
-11 23 6 -2.0621 4.2793 11
-23 12 6 0.78088 5.94299 10
13 10 -6 11.4546 4.68034 11
-10 23 -6 5.8895 6.06825 10
23 -13 -6 -1.4529 3.35758 7
23 -10 6 -1.2519 4.06788 7
13 -23 6 6.49853 4.30514 8
-23 10 6 10.5019 6.15914 10
-10 -13 6 2.97004 4.0532 9
10 -23 -6 3.33084 4.22951 8
-23 13 6 3.26425 5.86296 10
10 13 -6 2.32563 5.09853 11
-23 10 -6 3.58397 3.46234 9
10 -23 6 5.56102 4.34029 8
23 -13 6 4.33492 4.73046 7
-10 23 6 6.15199 5.39979 11
-13 23 -6 2.53097 5.84823 10
9 -23 -6 5.84542 4.31001 8
-23 9 6 6.24396 6.61877 10
-9 -14 6 7.23081 4.76736 9
-9 23 -6 2.87374 6.05185 10
14 -23 6 5.72413 4.77142 8
23 -14 -6 8.63853 4.33482 7
14 9 -6 -1.0551 3.1381 11
-14 -9 -6 1.92062 3.65012 9
23 -14 6 4.4691 4.52077 7
-23 14 6 0.66175 5.69826 10
-9 23 6 1.28206 5.33341 11
-23 9 -6 4.33371 3.67479 9
9 14 -6 10.0867 5.4277 11
-14 23 -6 5.0171 6.23934 10
9 -23 6 -0.4789 2.63269 8
8 -23 -6 7.3179 4.27636 8
15 -23 6 9.08528 4.86611 8
-8 -15 6 8.88729 4.89102 9
-23 8 6 6.94862 6.48755 10
-8 23 -6 2.33532 5.83408 10
-15 -8 -6 4.08576 4.57232 9
23 -15 -6 2.50593 4.52797 7
-8 23 6 -0.1646 5.63642 11
8 -23 6 1.08524 3.0214 9
23 -15 6 0.72083 4.92704 7
8 15 -6 9.14603 5.66848 11
-15 23 -6 4.22067 6.68768 10
-23 8 -6 2.72893 3.91393 9
-23 15 6 1.33332 6.00124 10
16 -23 6 2.37883 4.8531 8
7 -23 -6 5.17626 4.51984 8
-7 23 6 0.98219 5.75004 11
7 16 -6 5.31496 6.18807 11
0 0 7 0.13799 14.0668 1
0 0 7 -1.1855 9.91579 2
0 0 -7 1.26252 3.6347 5
0 0 7 2.01233 12.3946 3
1 0 7 45.9009 10.2187 6
1 0 7 37.2321 15.9455 3
-1 1 7 47.3478 15.936 3
-1 1 -7 26.7445 6.67539 5
0 1 7 40.989 16.1796 3
0 -1 7 39.2165 13.9861 3
1 -1 7 23.6179 12.8665 3
-1 0 7 28.6673 12.2542 2
0 -1 -7 22.6446 6.41013 5
-1 0 -7 27.4516 7.06507 5
-1 0 7 36.5728 14.2002 3
0 -1 7 0.0596 9.33572 1
0 -1 7 29.4463 10.4261 2
1 -1 7 33.4869 9.97335 2
-1 0 7 3.11876 9.07303 1
-2 1 7 -0.7978 13.9705 3
1 -2 7 7.66637 9.70799 2
1 1 7 9.54883 9.09447 6
2 -1 -7 5.54441 8.16109 4
-1 -1 -7 -0.3669 5.87909 5
1 -2 7 -2.2859 11.8163 3
2 -1 7 -7.7005 14.3828 3
-1 -1 7 -2.1354 10.1826 2
-2 1 7 0.76695 10.6781 2
1 -2 7 0.82762 9.03473 1
-1 -1 7 1.73295 13.5075 3
-2 1 7 -0.7451 8.32766 1
-2 1 -7 2.11654 5.70229 5
-1 -1 7 3.48581 11.1155 1
-1 2 7 4.56431 14.5631 3
1 1 7 8.60701 15.7979 3
1 -2 -7 -0.6276 4.56627 5
2 -1 7 4.54456 8.59167 6
1 -2 -7 -0.6739 8.31455 4
2 -1 7 1.36035 8.44816 2
2 -2 7 -0.7125 12.4552 3
-2 0 -7 3.55879 6.64982 5
2 0 7 -3.0165 8.86761 6
0 -2 7 -0.1075 11.4178 1
2 -2 -7 5.49772 8.11936 4
2 -2 7 3.67857 6.41002 6
0 -2 7 -5.2242 11.8923 3
0 2 7 7.16037 14.8691 3
-2 0 7 5.73716 12.4046 3
2 -2 7 2.49268 8.91632 2
-2 2 7 -2.3725 13.1269 3
0 -2 -7 -2.3679 6.38814 5
-2 0 7 -1.9473 9.61138 1
-2 0 7 -6.5557 11.5166 2
0 -2 7 -4.3449 10.1494 2
2 0 -7 -0.8104 6.5555 4
0 2 7 6.73507 9.42556 6
2 -3 7 76.0587 15.9796 3
-1 -2 7 107.514 19.4709 3
1 -3 -7 98.4219 13.9739 4
-3 1 7 97.5412 19.3777 3
-1 -2 7 96.6086 17.1254 2
3 -2 -7 90.7467 13.5336 4
3 -1 7 99.7501 14.2053 6
1 2 7 97.3807 15.0236 6
-3 1 7 119.572 18.5984 2
-2 -1 -7 94.6134 11.5773 5
-2 3 7 113.487 21.7591 3
1 -3 -7 73.8307 11.6035 5
-1 -2 7 91.5327 15.4407 1
-1 3 7 92.6775 13.3984 6
-2 -1 7 57.6848 13.1164 1
3 -2 7 81.2354 18.201 3
-3 1 -7 74.3178 11.1553 5
-2 -1 7 106.511 20.2115 3
-3 2 7 71.7817 17.3592 3
-1 -2 -7 86.7829 10.6961 5
2 -3 -7 84.5367 13.3723 4
1 -3 7 61.5053 13.8322 2
-1 3 7 94.0136 19.9143 3
1 -3 7 42.0488 12.7973 1
2 1 7 89.3786 14.2292 6
3 -1 -7 78.4399 12.5853 4
3 -2 7 68.3806 10.6811 6
-2 -1 7 60.4283 13.8259 2
1 -3 7 85.9712 16.4856 3
0 3 7 10.7716 15.8189 3
0 -3 -7 7.05742 7.28444 5
0 -3 7 5.76735 10.3266 1
3 0 -7 5.64116 7.78459 4
3 -3 7 8.16618 12.5141 3
-3 0 7 8.93908 13.8557 3
0 -3 7 3.71584 13.2535 3
0 -3 7 -0.7415 11.279 2
3 -3 -7 7.08048 8.63378 4
-3 0 -7 0.62591 6.77093 5
-3 3 7 13.7637 15.8872 3
0 -3 -7 6.81949 14.1308 2
3 0 7 8.04903 8.66735 6
0 3 7 11.3623 9.70511 6
-3 0 7 13.6208 12.7951 2
-3 0 7 3.8269 10.9343 1
-2 -2 -7 0.40454 14.5029 2
4 -2 7 10.5851 8.35521 6
-4 2 7 14.407 15.1944 3
2 -4 7 1.37106 10.4077 2
2 -4 7 5.21855 12.3507 3
2 -4 -7 20.4893 7.25381 5
2 -4 7 1.51985 11.431 1
2 -4 -7 23.2835 15.9933 2
4 -2 -7 10.7994 8.18423 4
-2 -2 7 20.1177 14.0389 2
2 -4 -7 34.4616 10.2758 4
-2 4 7 19.9415 15.1676 3
2 2 7 26.4805 9.97905 6
-2 -2 7 25.5171 15.9239 3
-4 2 7 20.9383 14.8977 2
-2 -2 -7 24.5318 7.81503 5
-2 -2 7 12.182 12.395 1
-3 -1 -7 57.2841 10.04 5
1 3 7 71.6319 12.3955 6
1 -4 -7 37.881 17.7912 2
-1 -3 7 47.4565 13.7135 2
1 -4 -7 51.9849 9.95665 5
4 -3 -7 62.4845 11.2172 4
4 -1 7 72.352 11.7511 6
-4 1 7 54.2272 15.4927 2
1 -4 -7 77.6006 12.096 4
-4 1 7 52.171 17.0878 3
-1 -3 7 35.6716 14.8329 3
-3 4 7 39.2231 17.6044 3
-1 -3 7 49.6492 14.2182 1
-3 -1 7 31.2244 16.8532 3
-4 3 7 31.1971 15.5318 3
-1 -3 -7 26.1804 15.6583 2
-1 4 7 53.6678 11.1755 6
-4 1 -7 35.2669 8.09922 5
-3 -1 7 38.4068 14.0402 2
1 -4 7 17.4468 11.2088 1
-1 -3 -7 30.3508 8.81863 5
1 -4 7 7.18535 10.8597 2
3 -4 -7 45.044 10.4485 4
1 -4 7 11.549 13.1553 3
4 -1 -7 33.2946 9.37189 4
3 1 7 32.5506 10.3404 6
-3 -1 7 36.6717 13.078 1
-1 4 7 41.9257 19.4687 3
0 -4 7 3.21234 11.6404 1
4 0 7 7.86728 8.34469 6
-4 0 7 11.1433 12.1775 2
0 4 7 13.1769 9.03706 6
-4 0 -7 12.9111 7.84384 5
-4 4 7 14.0031 15.3179 3
-4 0 7 14.7216 15.8885 3
4 -4 7 -2.0172 12.8186 3
0 -4 -7 12.3081 7.7912 5
0 -4 7 8.5871 11.5298 2
0 -4 7 1.09651 13.1016 3
4 -4 7 13.3295 8.84704 4
4 -4 -7 9.51293 8.57349 4
4 0 -7 9.75596 7.45903 4
0 -4 -7 -4.436 16.2024 2
-4 0 7 5.33466 12.3017 1
3 -5 7 96.6551 13.6522 4
5 -2 7 103.973 14.3332 6
2 3 7 97.6807 14.466 6
-5 2 7 114.6 23.623 3
-3 5 7 88.34 21.3829 3
2 -5 -7 101.894 13.588 5
-3 -2 -7 120.792 13.6197 5
-2 -3 7 120.601 19.3649 2
5 -3 -7 115.122 14.8211 4
2 -5 -7 100.071 21.3656 2
-2 -3 7 92.1105 19.4351 3
2 -5 -7 109.294 15.2862 4
-2 -3 7 59.6428 16.865 1
-5 2 7 150.935 21.8953 2
-2 -3 -7 135.692 15.1792 5
3 -5 -7 113.031 20.973 2
3 -5 -7 136.783 14.1637 5
-5 3 7 149.559 25.4786 3
5 -3 7 158.643 16.4985 4
3 -5 -7 156.821 16.9197 4
5 -2 -7 141.569 15.9689 4
3 2 7 145.119 16.232 6
-3 -2 7 122.579 20.4904 1
-3 -2 7 139.387 21.7199 2
-3 -2 7 139.238 22.9129 3
-2 5 7 127.583 16.0478 6
-2 5 7 132.928 24.5616 3
-1 -4 7 15.755 12.1828 2
1 -5 -7 13.4691 8.68943 5
1 -5 -7 4.29398 17.9434 2
-5 1 7 13.0583 17.3456 3
-4 -1 -7 12.6473 8.17506 5
1 -5 -7 26.8766 10.363 4
5 -1 7 8.09101 9.45658 6
4 -5 7 10.0147 9.05128 4
-4 5 7 7.78093 15.6514 3
-1 -4 7 2.80133 13.5605 1
5 -4 -7 11.9429 9.35275 4
-5 1 7 10.5867 13.6151 2
-1 -4 7 0.09964 14.168 3
1 4 7 19.2765 10.2688 6
-1 5 7 15.9053 9.18349 6
-5 4 7 15.5822 17.989 3
5 -4 7 25.0518 9.57312 4
-1 -4 -7 -1.6096 17.3996 2
4 -5 -7 43.3474 10.5462 4
4 1 7 31.8983 10.9291 6
1 -5 7 -2.2971 12.0615 1
5 -1 -7 21.6619 9.14209 4
-5 1 -7 40.2801 9.75863 5
-1 5 7 -4.0229 18.0532 3
-4 -1 7 23.9878 16.0643 3
-4 -1 7 11.5777 13.9204 1
-4 -1 7 35.2941 15.9014 2
1 -5 7 0.48284 17.384 2
-1 -4 -7 32.6919 8.82196 5
-5 0 -7 200.959 18.2342 5
5 -5 -7 197.425 18.453 4
0 5 7 178.538 19.8945 6
-5 5 7 149.184 26.4705 3
0 -5 -7 196.37 18.2331 5
5 0 7 201.122 20.0471 6
-5 0 7 161.952 28.2696 3
-5 0 7 173.085 25.4173 2
5 -5 7 192.98 19.0149 4
-3 6 7 49.6577 11.6699 6
3 -6 -7 60.0412 11.1437 5
-3 -3 7 48.5779 16.6942 2
3 -6 -7 52.909 19.9819 2
-3 6 7 37.8085 19.4566 3
-3 -3 -7 76.9985 10.491 5
-6 3 7 63.8258 18.8248 2
6 -3 -7 88.4412 12.7867 4
-6 3 7 52.5862 19.1408 3
3 -6 -7 89.6053 12.811 4
-3 -3 7 7.97232 17.2854 3
6 -3 7 82.0003 12.1194 4
3 3 7 85.533 13.7979 6
-3 -3 7 19.7867 15.747 1
6 -2 7 188.892 18.6402 4
4 -6 7 159.896 17.5357 4
-6 2 7 124.188 24.7204 3
6 -2 7 158.008 17.8646 6
6 -4 -7 149.095 18.357 4
-6 2 7 168.989 25.4599 2
2 -6 -7 167.476 17.5165 5
2 -6 -7 155.905 17.0054 4
-4 -2 -7 182.913 16.1144 5
2 4 7 182.179 19.0754 6
6 -4 7 171.83 17.8955 4
-2 6 7 180.69 18.8444 6
-6 4 7 114.72 23.6623 3
-4 -2 7 113.729 23.9709 3
6 -2 -7 178.103 18.3007 4
4 2 7 168.238 19.0229 6
-2 -4 -7 159.466 15.6675 5
4 -6 -7 161.581 16.5294 4
4 -6 -7 113.216 24.1427 2
-4 -2 7 163.402 23.4857 2
6 -1 7 177.792 19.0353 6
1 -6 -7 168.468 17.6788 5
-5 -1 -7 185.77 17.5806 5
5 -6 7 189.966 18.3992 4
-6 1 7 113.667 23.9699 3
6 -1 7 176.114 18.2415 4
1 -6 -7 170.741 18.2082 4
-6 1 7 143.16 23.9156 2
6 -5 -7 167.2 17.5934 4
1 5 7 171.994 19.1991 6
-1 6 7 50.8167 22.4352 3
-5 -1 7 97.3867 21.0502 2
5 1 7 124.267 15.4237 6
-5 -1 7 68.4336 19.6435 3
-6 1 -7 123.709 14.8315 5
6 -1 -7 121.04 15.3362 4
-1 6 7 99.2794 15.1291 6
5 -6 -7 150.083 16.2874 4
-1 -5 -7 111.061 14.3401 5
6 -5 7 124.26 15.7885 4
-6 0 -7 3.5858 7.17212 5
6 -6 -7 9.15096 9.06283 4
6 0 -7 9.3392 10.7155 6
-6 0 7 7.70463 18.9061 3
6 0 7 11.476 10.1496 6
6 0 7 11.5 9.89791 4
6 -6 7 9.48779 9.19842 4
-6 0 7 -6.4071 17.1004 2
0 6 7 8.12611 9.00462 6
-6 0 -7 -4.6579 24.2478 3
-6 6 7 -0.4553 20.6935 3
0 -6 -7 7.94115 8.40639 5
-4 7 7 109.158 15.6904 6
3 -7 -7 87.5254 13.1926 5
-4 -3 -7 104.758 12.858 5
7 -3 7 98.247 15.6875 4
7 -4 -7 86.9925 14.2763 4
3 -7 -7 116.446 14.7207 4
7 -3 7 75.6658 12.5118 6
3 4 7 92.5032 14.0896 6
-3 -4 -7 105.979 13.1155 5
3 -7 7 95.1961 13.3746 5
-7 4 7 45.9129 19.9204 2
4 3 7 122.304 17.5869 6
-3 7 7 104.271 16.8543 6
7 -4 7 108.021 15.5243 4
4 -7 -7 96.1146 15.0073 4
4 -7 -7 86.9437 12.9584 5
7 -3 -7 113.373 16.572 4
5 -7 7 243.624 23.0341 4
7 -5 -7 256.478 24.0446 4
2 -7 -7 251.108 21.7608 5
5 2 -7 244.347 24.0047 6
7 -2 7 233.115 21.8408 4
2 -7 -7 271.724 23.2119 4
7 -2 7 269.658 23.3451 6
2 5 7 247.249 24.061 6
-5 -2 -7 255.428 21.0815 5
5 2 7 235.88 23.5097 6
7 -5 7 221.341 22.0125 4
5 -7 -7 229.543 22.0542 4
-2 7 7 229.47 22.4285 6
-2 -5 -7 274.352 21.5369 5
7 -2 -7 246.385 22.736 4
2 -7 7 237.834 20.4296 5
1 -7 -7 25.7782 9.41512 5
-6 -1 -7 31.8078 8.93592 5
7 -6 -7 42.9114 12.2961 4
7 -1 7 32.591 11.521 6
6 -7 7 25.6164 10.2891 4
-7 1 7 -0.428 19.7933 2
-7 1 7 3.34642 20.1533 3
6 1 -7 41.2459 12.4684 6
7 -1 7 19.029 9.14156 4
1 6 7 30.0846 10.2865 6
6 -7 -7 52.1181 12.2445 4
-1 7 7 30.8664 11.4974 6
6 1 7 34.3093 11.7655 6
7 -6 7 37.6118 11.0224 4
7 -1 -7 11.3112 8.52145 4
-1 -6 -7 35.2041 9.84589 5
6 1 7 33.0451 11.0809 4
-7 1 -7 38.9445 10.2975 5
7 -1 -7 37.6303 12.1639 6
-6 -1 7 -0.1514 19.5669 2
7 0 7 83.7198 14.1076 6
7 -7 -7 112.898 16.1232 4
0 -7 -7 86.5837 12.6626 5
7 0 -7 73.4828 13.8249 6
7 -7 7 81.1794 13.0551 4
7 0 7 92.7954 14.2056 4
-7 0 -7 77.033 11.9931 5
0 7 7 84.3943 14.4777 6
4 -8 -7 34.2316 10.9122 5
4 -8 -7 37.1512 10.9178 4
4 4 -7 43.2494 12.0503 6
4 4 7 44.7932 12.0496 6
-4 8 7 35.198 11.5499 6
8 -4 7 50.5735 11.428 4
-4 -4 -7 44.1879 9.1675 5
8 -4 -7 55.8379 13.5317 4
4 -8 7 52.6472 10.6012 5
8 -3 7 47.2027 11.3762 6
-5 -3 -7 69.825 10.7814 5
3 -8 -7 71.135 12.5624 4
3 -8 -7 50.0996 11.6891 5
8 -3 7 74.2858 12.7799 4
5 -8 7 51.9328 10.9003 5
-5 8 7 55.1526 14.0631 6
8 -5 -7 66.4769 14.1745 4
5 3 -7 69.2021 14.0173 6
3 5 7 73.8744 13.7385 6
8 -5 7 44.2698 11.2986 4
5 -8 -7 39.2161 10.2704 4
3 -8 7 36.8209 9.63052 5
5 -8 -7 36.3097 10.5915 5
5 3 7 64.1199 14.0284 6
-3 -5 -7 51.9302 10.8677 5
8 -3 -7 35.0226 12.2013 4
-3 8 7 61.4711 13.7508 6
-6 -2 -7 76.3349 11.0958 5
8 -2 7 96.3918 14.4489 6
6 2 -7 65.6948 14.2203 6
8 -2 7 102.175 14.1272 4
6 -8 7 76.3827 12.7862 4
2 -8 -7 84.5981 13.6895 4
2 6 7 83.9344 14.2482 6
2 -8 -7 65.8104 12.2355 5
8 -6 -7 81.7524 14.4131 4
-2 -6 -7 107.409 13.355 5
6 -8 -7 82.3614 14.0418 4
2 -8 7 51.7728 10.705 5
6 2 7 92.9891 15.338 6
8 -2 -7 60.8754 13.2286 4
-2 8 7 61.6553 14.2658 6
8 -2 -7 99.7245 16.2319 6
8 -6 7 87.1181 13.6709 4
6 2 7 95.2502 14.5874 4
1 -8 -7 15.1906 9.59406 5
7 -8 7 11.6598 10.0797 4
-7 -1 -7 25.9218 8.88107 5
8 -7 -7 13.7606 11.6583 4
1 7 7 16.7899 11.7867 6
8 -1 7 22.0706 11.858 6
8 -1 7 7.69075 9.35338 4
7 1 -7 17.2944 12.4986 6
-8 1 -7 9.4776 8.96554 5
1 -8 7 1.07532 6.41282 5
-1 -7 -7 17.1154 9.38168 5
7 1 7 27.2298 10.9842 4
7 -8 -7 16.1174 11.1733 4
8 -7 7 6.82079 9.80477 4
7 1 7 6.86624 10.0333 6
-1 8 7 4.42318 10.553 6
8 -1 -7 11.9035 10.9519 6
0 -8 -7 14.8699 9.25733 5
8 0 7 4.057 10.0035 4
8 -8 -7 7.98073 11.6254 4
8 0 -7 7.17552 11.1026 6
8 -8 7 12.5387 10.8381 4
-8 0 -7 0.37458 8.3111 5
8 0 7 9.28805 10.5978 6
0 8 7 15.9877 12.0412 6
4 5 7 106.291 16.0144 6
-5 -4 -7 125.413 13.8363 5
9 -5 -7 83.5666 15.6598 4
9 -4 7 82.8625 13.6327 4
-5 9 7 110.896 16.8155 6
4 -9 -7 105.643 14.6983 5
5 4 -7 94.7358 16.0542 6
4 -9 -7 81.5827 13.6636 4
5 -9 7 89.1729 12.814 5
9 -4 -7 88.442 16.0539 4
5 4 7 123.658 17.2028 6
9 -5 7 96.4015 14.5795 4
-4 9 7 96.7525 16.4378 6
5 -9 -7 84.1414 14.161 4
4 5 -7 69.6911 14.1634 6
5 -9 -7 78.6268 13.6321 5
4 -9 7 104.486 13.4126 5
-4 -5 -7 93.6354 12.5913 5
9 -3 7 43.295 11.3831 4
9 -6 -7 78.8665 15.4735 4
3 6 7 65.1941 14.3682 6
6 -9 7 58.2159 11.2855 5
-6 -3 -7 58.7014 10.5305 5
-6 9 7 56.3681 14.2602 6
3 -9 -7 54.0578 11.9757 5
9 -3 7 31.4665 11.0131 6
3 -9 -7 52.0684 12.4016 4
6 3 -7 45.8851 13.7673 6
9 -3 -7 105.51 16.3711 6
-3 9 7 84.646 15.2426 6
6 3 7 91.1348 14.5966 4
9 -3 -7 68.2177 15.2943 4
6 -9 -7 86.982 14.0451 4
-3 -6 -7 127.418 14.1287 5
6 -9 -7 72.5682 12.9265 5
9 -6 7 68.2358 13.0747 4
6 3 7 108.711 15.9704 6
3 -9 7 78.1631 12.1975 5
7 -9 7 38.2965 12.0139 4
2 -9 -7 32.6808 9.79368 5
9 -2 7 40.1803 12.1097 6
7 -9 7 63.2757 11.734 5
9 -7 -7 56.8848 14.7959 4
7 2 -7 46.4628 14.1102 6
2 -9 -7 38.7558 11.6564 4
-7 -2 -7 56.1004 10.5617 5
2 7 7 30.0798 11.4011 6
9 -2 7 34.152 10.4452 4
7 -9 -7 68.0258 13.9024 4
2 -9 7 40.53 9.87839 5
-2 -7 -7 56.5414 10.8848 5
7 2 7 32.3235 11.5197 4
9 -7 7 56.2764 13.0356 4
-2 9 7 63.4318 14.164 6
9 -2 -7 68.9458 15.5475 6
9 -2 -7 25.3798 11.5696 4
7 2 7 67.8078 14.5696 6
9 -8 -7 39.7476 13.6162 4
8 1 -7 32.5639 14.6958 6
9 -1 7 27.4474 12.1483 6
1 8 7 35.5276 12.5526 6
1 -9 -7 41.4188 11.11 5
8 -9 7 36.0612 12.0049 4
8 -9 7 47.4418 11.0209 5
-8 -1 -7 18.8444 8.78805 5
9 -1 7 28.2599 11.1913 4
-1 -8 -7 45.3513 11.6193 5
8 -9 -7 54.4638 13.3986 4
9 -8 7 48.4474 13.4099 4
8 1 7 32.1433 11.2251 4
8 1 7 46.2964 13.6468 6
-1 9 7 37.2871 13.0699 6
9 -1 -7 49.7307 14.7764 6
9 0 -7 50.9355 15.4194 6
9 -9 7 22.2375 11.8238 4
-9 0 -7 29.6647 10.2236 5
9 0 7 20.9273 11.0088 4
9 -9 -7 29.5892 14.1184 4
0 -9 -7 46.4512 11.2786 5
9 -9 7 51.3028 11.9178 5
0 9 7 38.8095 14.0713 6
9 0 7 30.0988 13.2889 6
5 -10 -7 152.405 19.8887 5
5 -10 -7 166.806 19.7322 4
-5 -5 -7 170.058 18.0299 5
10 -5 7 186.766 20.376 4
10 -5 -7 191.715 23.6906 4
-5 10 7 188.428 21.8647 6
5 5 -7 188.059 22.3446 6
5 -10 7 157.011 18.2789 5
5 5 7 177.153 21.6192 6
10 -4 7 -1.3065 7.96358 6
4 -10 -7 -1.4543 10.1992 4
-6 10 7 12.2967 11.8585 6
10 -6 -7 20.5232 13.7891 4
4 6 7 4.96652 10.9314 6
10 -4 7 5.86301 9.16407 4
6 -10 7 4.2006 8.39389 5
4 -10 -7 12.2667 10.3674 5
-6 -4 -7 6.06697 8.09611 5
6 4 -7 15.0542 13.6032 6
6 4 7 11.9438 11.2715 6
-4 10 7 3.53386 12.1447 6
-4 -6 -7 1.93403 8.76926 5
6 -10 -7 -2.8403 9.9255 5
10 -6 7 4.39803 10.2413 4
10 -4 -7 -2.9432 13.2328 4
6 4 7 5.86812 10.9507 4
4 -10 7 7.46702 8.79887 5
6 -10 -7 8.20479 10.4125 4
10 -3 7 81.7173 13.8828 4
7 3 -7 117.601 19.1698 6
3 -10 -7 92.3737 14.1872 5
10 -7 -7 91.9262 16.9827 4
3 7 7 128.176 17.8434 6
3 -10 -7 100.635 14.844 4
-7 10 7 95.4284 16.4583 6
10 -3 7 95.8656 15.3937 6
-7 -3 -7 96.4137 14.2941 5
7 -10 7 102.599 13.2081 5
-3 -7 -7 80.8936 12.6892 5
7 3 7 102.778 16.8854 6
10 -3 -7 84.8289 16.6978 6
3 -10 7 77.572 12.2745 5
7 3 7 61.5217 13.3548 4
-3 10 7 48.4785 13.9944 6
10 -3 -7 73.9799 15.993 4
10 -7 7 82.5551 14.8751 4
7 -10 -7 67.0037 13.4492 4
10 -2 7 64.6756 13.4884 4
2 -10 -7 63.6238 12.4861 5
8 -10 7 41.7058 13.0254 4
10 -2 7 57.6042 13.535 6
2 8 7 79.693 16.0059 6
10 -8 -7 87.3857 17.1431 4
-8 -2 -7 62.918 11.2152 5
8 2 -7 75.9955 17.3491 6
8 -10 7 91.7317 13.2892 5
-2 10 7 81.1382 15.7005 6
8 -10 -7 86.8727 15.1721 4
8 2 7 107.746 16.7743 6
10 -2 -7 86.2099 16.0709 6
2 -10 7 60.4026 11.3019 5
8 2 7 55.5295 12.7783 4
10 -8 7 60.8135 13.7679 4
-2 -8 -7 76.164 12.1008 5
10 -1 7 13.7055 11.2168 4
-9 -1 -7 18.1695 9.59639 5
9 1 -7 17.7706 15.1465 6
9 -10 7 19.551 10.382 5
1 9 7 12.3294 13.238 6
10 -9 -7 13.0896 13.0122 4
10 -1 7 15.48 12.2295 6
1 -10 -7 10.612 9.91365 5
9 -10 7 7.41094 11.1432 4
-1 -9 -7 8.91635 9.30145 5
9 1 7 14.56 11.9751 6
10 -9 7 20.6115 10.0506 5
-1 10 7 19.7676 13.6381 6
9 1 7 5.34409 11.0933 4
10 -1 -7 11.7017 14.0157 6
10 -9 7 8.1822 11.4549 4
9 -10 -7 13.9878 12.4719 4
10 -10 7 66.6388 12.2287 5
0 10 7 77.5418 16.9539 6
10 0 7 80.5626 16.2704 6
10 0 -7 82.6642 17.5289 6
10 -10 7 86.285 15.7285 4
10 0 7 59.7142 13.6057 4
10 -10 -7 69.6302 15.5603 4
0 -10 -7 121.778 15.0872 5
11 -6 -7 171.985 24.2949 4
5 6 7 153.968 21.1443 6
5 -11 -7 156.348 19.6078 4
6 5 -7 161.392 23.6213 6
-6 -5 -7 167.711 17.4117 5
11 -5 7 145.001 19.4596 4
5 -11 -7 147.645 19.1951 5
6 -11 7 149.604 17.6648 5
6 -11 -7 153.969 20.0541 4
11 -6 7 189.928 22.1465 4
5 -11 7 175.401 18.2805 5
-5 -6 -7 180.787 18.28 5
6 -11 -7 141.94 20.275 5
11 -5 -7 182.905 24.4833 4
6 5 7 179.786 20.7879 6
7 4 -7 129.883 19.6555 6
4 -11 -7 95.5618 15.13 4
4 -11 -7 98.4867 14.8849 5
4 7 7 145.324 19.546 6
7 -11 7 117.269 15.9714 5
-7 -4 -7 107.729 15.1317 5
11 -4 7 100.118 15.2802 4
11 -7 -7 144.557 20.7489 4
4 -11 7 107.458 16.4325 5
11 -4 -7 145.13 20.841 4
7 -11 -7 117.642 16.8011 5
7 4 7 119.655 20.191 6
-4 -7 -7 137.356 16.7714 5
11 -7 7 164.287 19.0556 4
11 -4 -7 137.767 22.0449 6
7 -11 -7 106.165 18.082 4
8 3 -7 19.0497 15.8098 6
3 -11 -7 14.1449 10.3158 4
8 -11 7 40.7318 11.2482 5
3 8 7 23.3756 13.9788 6
8 -11 7 5.02582 8.67377 4
3 -11 -7 21.4604 11.0256 5
11 -8 -7 21.7352 14.518 4
11 -3 7 23.204 11.9054 6
11 -3 7 27.8554 12.378 4
-8 -3 -7 18.8356 8.78416 5
11 -3 -7 -0.5078 11.9996 4
8 -11 -7 -0.2809 8.79127 5
8 3 7 11.9138 10.643 4
11 -3 -7 18.4063 13.09 6
-3 -8 -7 12.4784 9.87374 5
-3 11 7 5.82881 12.078 6
3 -11 7 3.86354 9.53233 5
8 3 7 12.3718 12.7114 6
11 -8 7 7.13207 12.4219 4
8 -11 -7 18.3054 11.4656 4
9 2 -7 134.271 21.0225 6
2 -11 -7 146.513 18.1886 5
11 -2 7 157.363 21.3998 6
-9 -2 -7 141.908 16.9232 5
9 -11 7 171.728 18.5245 5
9 -11 7 129.081 19.2919 4
2 9 7 149.676 22.4869 6
11 -9 -7 155.598 23.474 4
11 -2 7 170.641 20.7039 4
-2 -9 -7 202.787 19.4637 5
9 2 7 173.893 23.0315 6
9 -11 -7 188.932 22.6317 4
11 -2 -7 188.681 24.9463 6
11 -9 7 176.69 21.9368 4
-2 11 7 126.733 22.235 6
11 -9 7 159.14 19.0848 5
9 2 7 123.189 20.2456 4
10 -11 7 9.22785 12.5505 4
-10 -1 -7 11.3861 9.26072 5
11 -1 7 11.4533 12.4148 4
11 -1 7 16.6543 12.994 6
11 -10 -7 20.5751 15.5315 4
1 10 7 17.0272 14.328 6
1 -11 -7 11.2315 10.4734 5
10 -11 7 20.6528 10.9361 5
10 1 -7 -4.1829 13.9371 6
10 -11 -7 0.75149 13.6022 4
11 -1 -7 0.70683 15.0691 6
-1 11 7 5.13222 13.2718 6
10 1 7 3.19094 12.4407 6
-1 -10 -7 -3.0369 9.5737 5
11 -10 7 -1.9038 12.464 4
11 -10 7 4.36141 9.46837 5
10 1 7 7.58599 11.2871 4
11 -11 7 61.9262 12.7925 5
0 -11 -7 72.4265 13.8308 5
11 0 7 48.6183 15.4212 6
11 -11 7 29.4686 13.8061 4
11 0 7 51.916 14.4559 4
11 -11 -7 55.4265 16.6211 4
0 11 7 33.9825 15.029 6
11 0 -7 70.3838 18.4493 6
6 -12 -7 53.4417 13.3312 5
6 -12 -7 46.1785 12.8869 4
6 6 7 48.2704 13.868 6
-6 -6 -7 55.875 11.4222 5
6 6 -7 31.7794 14.8451 6
12 -6 7 36.1461 12.7327 4
6 -12 7 35.7901 10.4602 5
12 -6 -7 75.7961 18.1236 4
7 5 -7 133.56 21.4714 6
7 -12 7 146.63 15.8479 5
5 7 7 124.985 18.7323 6
12 -7 -7 107.666 19.6068 4
12 -5 7 109.064 16.8254 4
5 -12 -7 74.8257 14.6666 5
5 -12 -7 98.9444 15.2292 4
-7 -5 -7 107.107 14.5372 5
12 -7 7 166.514 19.6679 4
7 5 7 105.941 16.5261 6
12 -5 -7 100.967 19.4156 4
7 -12 -7 123.773 16.7903 4
5 -12 7 95.5977 14.1576 5
-5 -7 -7 126.2 16.2636 5
7 -12 -7 69.1283 15.0872 5
4 8 7 33.2696 14.427 6
12 -4 7 5.5841 9.23702 6
8 4 -7 21.0623 17.0024 6
-8 -4 -7 23.4635 10.2995 5
4 -12 -7 10.3502 9.13839 4
12 -4 7 21.9624 11.6707 4
4 -12 -7 21.742 10.7763 5
12 -8 -7 18.73 15.3627 4
8 -12 7 40.2117 10.5843 5
12 -4 -7 32.0448 15.1972 4
4 -12 7 38.2531 11.1587 5
8 -12 -7 15.342 11.0715 5
-4 -8 -7 59.4795 12.3625 5
8 -12 -7 45.141 13.3646 4
12 -4 -7 59.1817 17.1507 6
12 -8 7 54.7752 14.3769 4
8 4 7 42.001 14.4495 6
9 3 -7 255.61 30.997 6
-9 -3 -7 236.141 22.2707 5
12 -3 7 218.025 24.9536 6
12 -3 7 227.085 25.8448 4
3 9 7 255.375 27.5328 6
9 -12 7 265.785 22.9386 5
3 -12 -7 249.881 24.1052 5
12 -9 -7 258.576 29.4904 4
9 -12 -7 275.99 26.8851 4
3 -12 7 227.166 23.3006 5
-3 -9 -7 279.463 24.65 5
9 3 7 267.452 27.9206 6
12 -9 7 280.773 27.4013 4
12 -3 -7 287.975 30.3366 6
12 -9 7 261.239 24.6905 5
-2 12 -7 -0.5017 6.00623 10
10 2 -7 23.6749 16.9635 6
2 -12 -7 37.817 11.6715 5
12 -10 -7 44.1699 16.8605 4
-12 10 -7 18.1155 5.87683 9
12 -2 7 19.6802 12.4417 6
-10 -2 -7 30.5108 10.3021 5
12 -2 7 26.9699 12.715 4
10 -12 7 47.3193 11.5684 5
-12 2 7 1.91168 7.27034 10
10 -12 7 17.086 10.8152 4
12 -10 -7 -4.1376 7.6154 7
2 10 7 31.5985 15.1811 6
10 2 7 65.4662 16.011 6
10 -12 -7 63.1876 15.8829 4
12 -10 7 62.0862 15.4136 4
12 -10 7 71.0366 12.991 5
2 -12 7 0.93084 9.75009 5
12 -2 -7 90.524 19.0339 6
-10 12 -7 34.7939 6.96055 9
12 -11 -7 60.6534 10.8734 7
12 -1 7 67.8943 15.9318 6
-12 11 -7 47.5235 8.13992 9
12 -1 7 59.8752 15.3178 4
-1 12 -7 52.3484 8.09107 10
11 -12 7 50.0392 14.0686 4
1 -12 -7 63.4927 9.28298 8
11 -12 7 80.0408 13.0591 5
1 -12 -7 100.223 15.4187 5
-12 1 7 26.9072 9.1576 10
1 11 7 51.8803 16.0996 6
11 1 -7 61.1354 17.3177 6
12 -11 -7 107.973 19.8094 4
1 11 -7 47.3239 8.0543 10
12 -11 7 56.9343 12.896 5
-11 12 -7 34.1765 7.39072 9
11 -12 -7 20.9324 8.13381 7
11 1 7 39.1016 13.6748 6
-1 -11 -7 43.4135 8.09648 8
11 -12 -7 65.181 17.2217 4
-1 -11 -7 46.7841 11.5933 5
11 1 7 14.33 11.9565 4
12 -1 -7 60.5929 18.6392 6
12 -11 7 45.6937 14.6823 4
0 -12 -7 96.7868 12.3289 8
0 -12 -7 101.24 14.3328 5
12 0 7 32.8504 14.0895 4
-12 0 -7 63.2274 10.2899 9
12 -12 -7 107.955 12.7744 7
12 0 -7 55.2458 8.45833 11
-12 12 -7 76.55 11.129 9
12 0 -7 128.536 21.5903 6
0 12 -7 80.1214 9.9404 10
12 -12 7 71.2724 15.5499 4
12 0 7 117.535 17.9367 6
12 -12 -7 101.396 18.2902 4
7 6 -7 -0.6975 15.5621 6
-6 13 -7 -0.9288 6.477 9
6 7 7 5.08545 13.4191 6
-13 7 -7 4.93053 6.17421 9
7 -13 7 -8.5468 9.56256 5
-7 13 7 5.89112 7.00735 11
-7 -6 -7 -0.3852 9.6245 5
6 -13 -7 3.63625 10.5171 4
6 -13 -7 -4.8573 11.5664 5
13 -6 7 4.91081 11.9943 4
7 6 -7 4.18062 5.88198 11
13 -7 -7 -6.0375 15.5539 4
-6 13 7 6.96113 7.23796 11
7 -13 -7 6.59348 11.2917 4
7 6 7 1.38933 11.4181 6
13 -7 7 -3.3926 12.3942 4
-7 13 -7 -6.004 6.51358 9
6 -13 7 5.80038 10.1764 5
-13 6 -7 9.44668 6.56168 9
-6 -7 -7 3.01332 10.0196 5
6 7 -7 0.68324 5.39493 11
13 -6 -7 8.78467 15.9219 4
7 -13 -7 0.37424 11.5628 5
-8 -5 -7 85.5225 12.9489 5
-13 8 -7 47.0549 8.02899 9
13 -8 -7 103.018 20.4112 4
5 -13 -7 58.2131 13.562 5
-5 13 -7 49.451 8.50214 9
-8 13 7 39.8392 8.02921 11
8 5 -7 73.5614 19.6897 6
8 5 -7 50.2395 8.30538 11
5 8 7 83.5483 16.9837 6
8 -13 7 76.2694 12.5685 5
13 -5 7 81.2199 15.5944 4
13 -8 7 98.0082 17.0881 4
5 -13 7 100.676 13.6425 5
-5 -8 -7 70.0985 12.7749 5
8 -13 -7 63.9769 14.0687 4
13 -5 -7 72.0319 18.2748 4
-5 13 7 84.9001 11.6625 11
-8 13 -7 69.5159 9.53304 9
-13 5 -7 51.4282 8.93678 9
13 -8 7 88.2377 11.9794 7
8 -13 -7 57.5011 14.1022 5
8 5 7 59.1417 14.4093 6
4 9 7 37.1235 15.5433 6
-9 -4 -7 23.7665 9.93066 5
9 4 -7 34.063 17.9621 6
-13 4 7 4.61593 7.83305 10
13 -4 7 39.5358 13.5856 4
13 -9 -7 47.3978 17.6643 4
13 -9 -7 -1.4623 7.37407 7
-9 13 7 19.0696 6.49921 11
4 -13 -7 26.3042 12.1443 5
9 4 -7 19.2836 6.48145 11
13 -4 7 2.78275 9.17718 6
-13 9 -7 26.0271 7.35684 9
9 -13 7 30.5093 10.183 5
13 -4 -7 6.97537 14.1146 6
-4 13 7 5.10722 7.46037 11
9 4 7 26.0234 14.1547 6
13 -9 7 14.6764 13.2823 4
4 9 -7 -0.2801 5.57014 12
4 9 -7 -5.3807 5.9462 11
-4 -9 -7 -2.7428 5.27022 8
9 -13 -7 11.4049 12.0897 4
-9 13 -7 16.3569 7.85622 9
13 -9 7 21.3617 11.4485 5
-4 -9 -7 16.2268 10.8116 5
-13 4 -7 21.5282 7.93327 9
4 -13 7 17.0868 11.0856 5
4 9 -7 15.5011 6.81609 10
13 -9 7 19.5449 7.19494 7
3 -13 -7 4.67641 10.661 5
-10 13 7 7.09374 6.04942 11
13 -3 7 4.68489 11.3187 6
13 -10 -7 -2.0611 14.2525 4
3 10 7 8.36383 14.4315 6
13 -10 -7 -2.9683 8.97246 7
10 3 -7 21.2405 18.2467 6
10 -13 7 1.82147 9.52432 5
10 3 -7 3.228 6.4285 11
-10 -3 -7 8.73364 9.47649 5
-3 13 -7 3.7188 6.09915 10
3 -13 -7 3.04424 6.98218 8
13 -3 7 11.5134 12.9623 4
-13 10 -7 3.25893 6.88865 9
-13 3 7 6.21337 9.41147 10
-3 13 7 12.5096 7.52865 11
13 -10 7 18.1188 10.988 5
13 -10 7 0.12704 13.1159 4
3 10 -7 4.01094 8.05312 12
-3 -10 -7 17.2882 11.0549 5
3 -13 7 0.44643 8.23092 5
10 3 7 17.1178 13.9464 6
10 -13 -7 7.95424 13.2752 4
13 -10 7 8.8289 6.32451 7
10 -13 -7 -2.3896 6.38278 7
-3 -10 -7 7.36915 6.18593 8
3 10 -7 -4.1166 6.42862 11
13 -3 -7 11.1694 14.9385 6
-10 13 -7 8.09582 7.56769 9
-13 3 -7 13.0483 8.63115 9
3 10 -7 2.49178 7.23622 10
-2 13 -7 23.3354 7.50106 10
2 -13 -7 17.3508 11.5751 5
13 -11 -7 21.7927 15.9147 4
2 -13 -7 17.4088 7.68432 8
2 11 7 16.1078 14.7491 6
11 -13 7 27.5204 11.1807 5
11 2 -7 25.524 17.584 6
-13 2 7 11.5982 9.30611 10
13 -11 -7 12.3833 10.749 7
13 -2 7 5.61696 12.8776 4
-13 11 -7 17.7397 7.23067 9
13 -2 7 10.547 12.5238 6
-11 13 7 12.879 6.05018 11
11 2 -7 11.8098 6.66226 11
-11 -2 -7 -1.6174 6.62223 9
11 -13 7 2.08631 9.45952 4
2 11 -7 16.8574 8.80424 12
-11 13 -7 29.5159 8.08288 9
-13 2 -7 19.9395 8.8225 9
13 -11 7 37.2862 11.9113 5
2 11 -7 27.5381 8.16577 10
13 -2 -7 41.4493 17.271 6
11 -13 -7 26.6547 15.2499 4
13 -11 7 17.351 6.22608 7
13 -11 7 32.0483 14.1435 4
-2 13 7 14.883 7.79067 11
-2 -11 -7 18.7129 10.6932 5
11 -13 -7 12.7497 7.91467 7
-2 -11 -7 23.9352 7.71912 8
2 11 -7 -3.4097 8.22599 11
11 2 7 35.7936 15.2236 6
1 -13 -7 15.3512 11.8409 5
12 1 -7 8.55953 16.3882 6
12 -13 7 13.8511 10.1518 5
-13 1 7 4.61096 9.12726 10
13 -12 -7 11.8179 15.2658 4
-12 13 7 7.81105 6.02055 11
13 -1 7 1.76753 12.8645 6
12 -13 7 11.1097 12.1741 4
13 -12 -7 7.97647 9.73557 7
13 -1 7 10.3481 13.0155 4
-12 -1 -7 8.60679 8.33975 9
12 1 -7 9.50618 6.71003 11
1 -13 -7 0.92401 7.51687 8
-1 13 -7 14.2112 7.68968 10
-13 12 -7 10.0997 7.26657 9
-12 13 -7 6.37706 7.12382 9
-1 -12 -7 3.64965 10.4494 5
12 -13 -7 23.2842 15.2668 4
-1 -12 -7 14.143 7.8781 8
13 -1 -7 10.3639 6.19366 11
13 -12 7 7.50112 10.4505 5
1 12 -7 12.9015 7.40291 10
12 -13 -7 9.9055 9.34845 7
-13 12 7 3.86985 5.69051 11
13 -12 7 8.56864 5.15242 7
-1 13 7 11.0891 8.5601 11
-13 1 -7 8.51581 8.60383 9
1 12 -7 -3.0291 9.07519 12
12 1 7 8.45575 13.9974 6
13 -1 -7 3.29185 16.7163 6
13 -12 7 19.4502 13.7228 4
13 -13 7 4.02154 12.7458 4
13 -13 -7 4.69214 15.1269 4
-13 13 7 4.60475 5.9948 11
0 -13 -7 7.21735 10.5514 5
-13 0 7 10.3649 9.17871 10
13 -13 -7 2.93231 9.07489 7
13 -13 7 2.78768 10.0425 5
13 0 -7 -6.4524 15.4303 6
13 0 7 1.91328 12.3772 6
-13 0 -7 5.54144 8.68929 9
0 13 -7 7.0448 7.73987 10
0 13 7 9.79033 8.12785 11
-13 13 -7 11.878 7.18058 9
13 0 -7 7.95654 7.14212 11
0 -13 -7 0.25531 7.58279 8
-14 7 -7 19.0731 8.45211 9
14 -7 -7 30.4508 17.2242 4
-7 14 7 15.9781 8.33674 11
7 7 7 17.1743 14.5172 6
-7 -7 -7 18.7961 10.8565 5
-7 14 -7 3.56339 5.3493 10
7 7 -7 8.27304 6.98665 11
7 -14 -7 10.7174 12.0722 5
14 -7 7 19.9651 7.74807 7
-14 7 7 9.60654 7.74037 10
14 -7 7 7.38815 12.4454 4
7 -14 7 12.3914 9.8971 5
7 -14 -7 2.13684 8.99069 4
-7 14 -7 12.7009 7.99496 9
6 -14 -7 46.0902 13.4041 5
6 8 7 45.1607 15.0231 6
-8 -6 -7 48.3469 12.4467 5
8 6 -7 41.5642 18.2594 6
-14 6 7 39.1042 10.8432 10
14 -6 7 65.9635 14.9818 4
8 6 -7 66.7397 9.283 11
14 -6 7 53.0449 9.07034 7
14 -8 -7 51.8301 17.8122 4
-6 14 -7 52.2459 9.61733 9
-14 8 -7 79.2593 10.2582 9
-8 14 7 54.0946 9.16279 11
8 -14 7 64.1061 12.7197 5
-6 14 -7 54.2433 8.24448 10
-6 -8 -7 77.1359 13.5288 5
-14 6 -7 54.7124 9.89468 9
8 -14 -7 40.65 13.2647 5
14 -6 -7 54.9774 17.743 4
8 6 7 53.7216 14.5927 6
6 8 -7 46.183 9.08441 11
6 -14 7 76.2822 13.3357 5
14 -8 7 51.5405 12.4628 5
-6 14 7 57.2839 9.96635 11
14 -8 7 52.4024 15.7147 4
8 -14 -7 45.5079 13.412 4
14 -8 7 34.1558 8.79317 7
-8 14 -7 80.1356 10.5797 9
9 5 -7 -0.6719 17.929 6
9 -14 7 2.99929 9.50687 5
14 -5 7 10.9427 13.8262 4
9 5 -7 -0.4241 6.80998 11
14 -9 -7 -2.478 15.6078 4
14 -9 -7 -2.0831 8.9095 7
5 -14 -7 2.27279 7.77885 8
-14 9 -7 6.47625 7.5929 9
-9 -5 -7 7.21153 9.15026 5
-9 14 7 6.17068 7.60394 11
-5 14 -7 4.89376 6.87206 10
5 9 7 4.55918 13.928 6
-14 5 7 10.5457 10.3654 10
5 -14 -7 1.37225 10.7757 5
14 -5 7 12.1692 6.8768 7
9 5 7 6.63188 13.2606 6
-14 5 -7 2.11098 7.9997 9
-5 14 7 11.4751 8.61394 11
5 9 -7 9.98004 7.62784 11
5 9 -7 6.43369 6.63028 12
9 -14 -7 -0.8648 9.82728 5
-9 14 -7 8.23775 7.47186 9
5 -14 7 11.3511 10.8442 5
-5 -9 -7 2.3934 10.3125 5
-5 -9 -7 3.36726 5.30612 8
14 -9 7 -1.9241 7.65198 7
14 -9 7 3.0335 12.7162 4
9 -14 -7 5.78233 12.2457 4
14 -9 7 11.8793 12.0321 5
-10 -4 -7 10.4898 8.82614 5
4 10 7 14.2914 14.2706 6
14 -4 7 18.1799 14.4726 4
4 -14 -7 11.059 11.7611 5
10 4 -7 21.8714 18.7811 6
14 -10 -7 12.9197 15.3613 4
-14 4 7 23.4814 10.8801 10
14 -10 -7 11.5537 9.95278 7
-10 14 7 19.6963 7.78138 11
-4 14 -7 19.3711 7.77914 10
10 -14 7 17.7718 11.4782 5
10 4 -7 16.0892 7.04264 11
-14 10 -7 30.1037 8.52777 9
4 -14 -7 3.06396 7.74143 8
14 -4 7 17.2598 6.03857 7
-4 -10 -7 32.7951 7.94543 8
4 10 -7 29.3316 8.14443 10
14 -10 7 26.7318 8.49738 7
10 4 7 20.6807 14.0292 6
-14 4 -7 9.20342 8.54598 9
14 -10 7 24.477 13.0777 4
4 10 -7 18.6062 8.55437 12
4 -14 7 20.6289 10.5844 5
4 10 -7 25.186 8.41215 11
14 -4 -7 21.929 14.9318 6
14 -10 7 21.6067 11.9443 5
-4 14 7 27.0952 8.89259 11
10 -14 -7 18.7952 13.0216 4
-10 14 -7 18.6912 8.03192 9
-4 -10 -7 18.0082 10.7798 5
14 -11 -7 105.68 20.1291 4
3 -14 -7 68.1793 13.1993 5
11 -14 7 93.9623 14.438 5
14 -3 7 39.4789 15.0201 4
14 -3 7 49.6486 12.9169 6
-14 11 -7 72.1567 9.89592 9
-11 -3 -7 35.5742 8.63589 9
3 -14 -7 69.7209 9.69646 8
-3 14 -7 61.9247 9.34232 10
11 3 -7 71.0628 9.13627 11
11 3 -7 53.6319 19.2084 6
-11 14 7 63.4731 9.3892 11
14 -11 -7 51.614 11.1971 7
-14 3 7 72.1202 11.9197 10
3 11 7 40.8585 14.9802 6
3 11 -7 53.5419 10.3049 11
-3 -11 -7 65.7459 9.19839 8
-3 -11 -7 55.4098 12.3902 5
14 -11 7 49.0027 9.29398 7
11 3 7 88.888 17.7906 6
3 11 -7 60.1236 11.1394 12
-11 14 -7 74.374 10.5439 9
14 -3 -7 73.6905 18.8149 6
-3 14 7 69.7007 11.0564 11
14 -11 7 73.8492 14.2412 5
14 -11 7 70.329 16.2909 4
11 -14 -7 62.8869 16.1027 4
-14 3 -7 57.2757 10.6721 9
3 11 -7 77.6798 10.3242 10
11 -14 -7 59.1391 9.45473 7
2 -14 -7 38.6637 8.88785 8
12 2 -7 55.5383 18.9723 6
14 -2 7 56.7265 14.4262 6
-12 14 7 51.9248 8.92182 11
-14 12 -7 46.8213 8.49566 9
12 -14 7 50.2162 12.0613 5
14 -2 7 37.2654 14.5761 4
14 -12 -7 53.7045 11.143 7
-2 14 -7 43.7924 8.80161 10
-14 2 7 80.2327 12.1874 10
12 2 -7 51.1362 8.62694 11
14 -12 -7 74.1454 19.4804 4
2 -14 -7 65.6664 14.4604 5
-12 -2 -7 41.5332 9.75349 9
2 12 -7 41.0946 9.84607 11
-2 14 7 82.9652 11.3501 11
14 -12 7 53.3827 9.45614 7
14 -12 7 78.5697 16.4531 4
-2 -12 -7 52.5573 12.9032 5
-14 2 -7 54.4938 10.506 9
2 12 -7 54.7965 9.54772 10
12 -14 -7 64.1109 16.6545 4
14 -2 -7 65.9829 17.772 6
-12 14 -7 43.5094 9.09244 9
-2 -12 -7 68.4489 9.37065 8
2 12 -7 79.3946 12.1766 12
12 2 7 70.1287 16.9128 6
12 -14 -7 59.2116 10.4479 7
14 -12 7 63.121 13.6392 5
-13 14 7 11.1931 7.40796 11
1 -14 -7 11.7868 11.6265 5
13 1 -7 4.95309 15.9273 6
13 -14 7 11.4498 10.6085 5
14 -13 -7 10.3779 9.7336 7
14 -1 7 16.4974 13.1832 6
1 13 7 8.33324 7.89578 11
-14 1 7 25.5321 9.86073 10
-14 13 -7 18.7852 7.6292 9
13 1 -7 7.57906 7.19884 11
-13 -1 -7 5.82641 8.3205 9
14 -13 -7 8.24533 15.1738 4
-1 14 -7 11.4404 7.7363 10
1 -14 -7 10.3915 7.86524 8
-14 1 -7 29.7574 9.31596 9
-13 14 -7 18.1434 7.59883 9
-1 14 7 23.6214 9.52527 11
-14 13 7 4.40892 5.81629 11
1 13 -7 32.4102 8.55258 10
13 -14 -7 16.2714 8.87533 7
-1 -13 -7 23.2132 8.07226 8
1 13 -7 28.1045 11.3455 12
1 13 -7 21.6599 8.67098 11
14 -13 7 20.3356 13.5959 4
14 -13 7 38.9276 12.3507 5
14 -1 -7 25.7208 17.6825 6
13 -14 -7 40.2429 16.8823 4
13 1 7 30.1483 14.1814 6
14 -13 7 20.5816 7.34415 7
-1 -13 -7 31.1954 11.6404 5
-14 14 -7 1.38586 6.87696 9
14 0 7 0.61843 12.977 6
-14 0 7 5.2367 9.49646 10
0 14 7 0.7148 8.63706 11
0 14 -7 0.48343 7.16992 11
-14 14 7 9.89173 6.88545 11
14 -14 7 -0.2431 11.455 4
-14 0 -7 1.33203 7.86057 9
14 -14 -7 0.4531 15.3162 4
14 -14 -7 -0.6017 8.35982 7
0 -14 -7 3.31602 11.1197 5
0 14 -7 -6.692 7.41356 10
14 0 -7 17.483 7.38857 11
14 -14 7 7.67868 5.67335 7
14 -14 7 13.2606 11.5681 5
0 -14 -7 -5.5782 6.82729 8
0 14 -7 1.5875 10.52 12
14 0 -7 6.12991 15.8541 6
-7 15 -7 4.21716 8.64325 9
7 -15 -7 -9.5277 6.92316 8
-7 15 -7 4.45875 7.22631 10
15 -7 7 6.55815 13.0132 4
-8 -7 -7 6.6193 10.0321 5
8 -15 7 16.3253 10.8687 5
8 7 -7 7.57682 7.08816 11
15 -7 7 13.2105 7.26433 7
15 -8 -7 13.0088 16.3967 4
7 8 7 2.86445 13.3868 6
-8 15 7 6.03101 7.36633 11
7 -15 -7 3.21249 11.6844 5
15 -8 -7 -7.5271 7.56636 7
-15 8 -7 -3.441 7.56505 9
-15 7 7 5.25507 10.5016 10
-8 15 -7 -5.1314 7.1004 10
7 -15 7 -1.1088 10.2848 5
15 -8 7 9.17033 10.6571 5
8 7 7 0.65098 13.1747 6
-7 15 7 6.32128 7.65058 11
-7 -8 -7 0.10209 5.40557 8
7 8 -7 -0.8404 7.20394 11
-15 8 7 -8 9.64516 10
-8 15 -7 2.24339 8.00727 9
15 -8 7 0.37448 7.15019 7
-15 7 -7 1.32609 8.43309 9
-7 -8 -7 -1.5481 10.4831 5
15 -8 7 8.01455 12.9219 4
15 -7 -7 3.10094 15.0625 4
8 -15 -7 7.41696 11.9781 5
-9 -6 -7 -0.1464 8.54914 5
-15 6 7 35.2135 11.2509 10
6 -15 -7 8.63462 11.6876 5
-9 15 7 20.6227 7.97486 11
6 -15 -7 10.8021 8.28186 8
6 9 7 21.212 14.2137 6
9 6 -7 15.6077 7.35392 11
9 6 -7 4.06671 20.1103 6
15 -6 7 11.8246 12.4889 4
15 -9 -7 18.0832 16.6667 4
9 -15 7 8.8446 10.0233 5
-15 9 -7 20.2403 8.26605 9
15 -9 -7 0.34207 9.27788 7
15 -6 7 20.4495 7.7265 7
-6 15 -7 12.1791 7.74964 10
6 -15 7 7.7707 10.2448 5
-6 15 7 23.8168 8.31922 11
-15 6 -7 22.0068 8.94881 9
15 -9 7 11.1813 8.06695 7
15 -9 7 16.1136 10.67 5
9 -15 -7 3.06485 10.9136 5
-9 15 -7 4.24101 7.88003 10
-9 15 -7 10.8417 8.13363 9
15 -9 7 5.0434 12.8837 4
-6 -9 -7 8.85456 10.935 5
9 6 7 11.2654 14.015 6
6 9 -7 11.8844 7.71603 11
-6 -9 -7 16.9146 6.5096 8
6 9 -7 9.71086 6.40718 12
9 -15 -7 3.45549 10.6443 4
-15 9 7 7.31535 9.49402 10
5 -15 -7 36.9063 9.28246 8
5 -15 -7 34.8993 12.2908 5
15 -5 7 48.2248 8.9245 7
-5 15 -7 57.995 9.46611 10
-15 10 -7 54.042 9.48654 9
10 -15 7 54.5692 12.0853 5
-5 -10 7 42.9398 8.34924 9
15 -10 -7 36.731 10.3388 7
15 -10 -7 54.9928 17.814 4
5 10 7 51.5934 16.5612 6
10 5 -7 40.2413 8.32161 11
-15 5 7 79.9059 12.3855 10
-10 15 7 43.6606 8.74909 11
15 -5 7 36.1061 14.2714 4
10 5 -7 39.2846 19.318 6
-15 5 -7 74.4659 10.9296 9
-10 15 -7 60.8987 9.65222 9
-5 -10 -7 54.966 8.4227 8
5 10 -7 66.4559 9.92524 11
10 5 7 61.1796 16.9217 6
15 -10 7 68.2899 9.73929 7
-5 -10 -7 74.5337 13.9878 5
-5 15 7 64.6099 10.5771 11
15 -10 7 61.1472 15.6765 4
15 -10 7 45.8248 12.7163 5
5 10 -7 52.0525 9.99974 12
-10 15 -7 45.2793 9.16219 10
5 -15 7 38.221 11.4783 5
-15 10 7 41.5716 10.0582 10
10 -15 -7 39.6956 13.5964 4
-15 4 7 21.4703 10.8368 10
-4 15 -7 11.0018 7.46855 10
-15 11 -7 19.8987 8.13771 9
4 -15 -7 8.43304 7.95473 8
15 -4 7 13.3256 13.4409 4
4 11 7 5.51685 13.1074 6
4 -15 -7 7.76402 11.6309 5
11 -15 7 24.6942 10.8434 5
-11 15 7 21.7391 7.85209 11
15 -11 -7 22.7784 9.5583 7
11 4 -7 12.6806 7.34749 11
15 -4 7 20.9165 7.31491 7
15 -11 -7 26.1232 16.5833 4
11 4 -7 15.2106 19.4986 6
-11 -4 -7 14.1648 7.88274 9
-11 15 -7 5.15997 7.62458 9
4 11 -7 0.58756 7.48252 11
4 11 -7 4.53102 8.5626 12
-4 -11 -7 11.0744 11.3497 5
-15 4 -7 5.56913 8.75965 9
11 -15 -7 6.53238 6.68746 7
11 4 7 16.9096 14.7384 6
-4 15 7 12.4464 9.26887 11
-15 11 7 8.23176 7.01314 10
11 -15 -7 11.1434 13.4302 4
15 -11 7 11.277 11.7892 5
15 -11 7 5.93156 8.00964 7
15 -4 -7 10.9796 16.3027 6
-11 15 -7 12.6902 7.69378 10
15 -11 7 -1.9031 12.322 4
-4 -11 -7 3.66819 7.0388 8
4 11 -7 11.827 7.38302 10
15 -12 -7 19.2686 15.8794 4
15 -3 7 9.40374 12.5389 4
3 -15 -7 7.82487 7.55698 8
-3 15 -7 9.52432 8.00218 10
12 -15 7 1.25667 10.8286 5
-15 12 -7 16.447 7.13642 9
15 -12 -7 5.48868 8.97441 7
12 3 -7 4.12738 18.3496 6
15 -3 7 11.4546 5.62421 7
3 -15 -7 13.1942 12.2455 5
12 3 -7 6.70193 7.04823 11
-12 -3 -7 8.84031 8.52111 9
-15 3 7 21.8901 10.4649 10
-12 15 7 12.7487 7.85699 11
12 -15 -7 36.2025 15.2523 4
15 -12 7 28.7268 11.7923 5
-3 15 7 32.1479 9.84859 11
12 -15 -7 20.7784 7.8575 7
-3 -12 -7 27.3823 11.3489 5
-12 15 -7 8.76717 6.987 10
15 -12 7 17.5372 14.0908 4
3 12 -7 38.699 8.94884 10
15 -3 -7 18.1568 15.8236 6
-15 3 -7 29.6535 9.05944 9
12 3 7 28.8444 14.28 6
3 12 -7 22.6876 8.87548 11
-3 -12 -7 33.7861 7.79941 8
15 -12 7 14.5405 7.87573 7
-12 15 -7 34.3195 8.8369 9
3 12 -7 19.5443 9.96447 12
13 2 -7 12.2814 7.22446 11
-13 15 7 27.0352 8.25004 11
13 2 -7 19.9503 17.5501 6
-2 15 -7 31.5241 8.91279 10
15 -13 -7 31.322 9.57326 7
15 -2 7 1.33645 10.0759 6
-15 13 -7 29.8123 7.95846 9
15 -13 -7 40.6133 17.2906 4
13 -15 7 26.3452 11.0868 5
-13 -2 -7 12.557 8.55541 9
-15 2 7 26.6367 10.2918 10
2 -15 -7 15.9362 8.17343 8
2 -15 -7 31.7078 12.6574 5
2 13 7 18.6016 7.34169 11
-2 -13 -7 18.0279 11.037 5
-2 -13 -7 44.2883 7.95617 8
13 -15 -7 37.25 8.96415 7
13 -15 -7 30.8404 14.7738 4
2 13 -7 42.3169 10.6851 12
15 -13 7 26.6224 13.8176 4
2 13 -7 41.596 8.49339 10
2 13 -7 27.2475 9.48678 11
-15 2 -7 25.0984 8.80142 9
-13 15 -7 41.6669 8.85139 9
13 2 7 24.0406 14.1957 6
15 -2 -7 24.9219 16.2465 6
15 -13 7 34.5547 12.3588 5
-2 15 7 34.7651 9.62365 11
15 -13 7 30.1319 8.23924 7
1 -15 -7 34.0057 7.93996 8
14 -15 7 37.3416 11.9817 5
-1 15 -7 48.279 9.60365 10
-1 15 -7 27.6569 10.8333 12
-14 -1 -7 31.6372 8.99253 9
1 14 7 34.8602 9.08646 11
-15 1 7 35.4963 10.0638 10
15 -1 7 16.7226 11.646 6
-15 14 -7 23.9309 7.73311 9
14 1 -7 26.3762 7.73269 11
-14 15 7 31.0126 8.03388 11
15 -14 -7 36.8896 16.3478 4
15 -14 -7 26.6605 8.7887 7
1 -15 -7 28.2932 12.0675 5
14 1 -7 27.9134 16.991 6
-1 -14 -7 17.0825 11.5156 5
-14 15 -7 26.3169 7.98777 9
1 14 -7 23.5167 10.8629 12
15 -14 7 14.8522 7.61207 7
15 -14 7 24.9334 11.4132 5
-15 14 7 7.11019 6.44002 11
-14 -1 7 23.1063 9.95763 10
14 -15 -7 31.9368 15.9271 4
14 -15 -7 16.9089 8.26995 7
1 14 -7 20.6992 9.35839 11
1 14 -7 16.8902 7.91974 10
-1 15 7 15.7384 8.92939 11
-15 1 -7 23.3063 8.65326 9
14 1 7 15.7602 13.5226 6
15 -1 -7 29.0064 17.7988 6
-1 -14 -7 23.407 7.02453 8
15 -14 7 1.18365 11.2651 4
0 15 -7 20.1567 8.59587 10
-15 15 7 6.95108 7.04711 11
-15 0 -7 3.07012 7.75917 9
0 15 -7 11.5242 8.98716 11
0 -15 -7 8.41996 6.87113 8
0 15 7 11.8547 8.64802 11
15 0 -7 14.6157 16.1329 6
15 -15 7 9.34567 10.4901 5
0 15 -7 28.0543 11.958 12
0 -15 -7 2.65741 10.472 5
15 0 7 7.02434 11.5009 6
-15 15 -7 14.0716 7.72081 9
15 -15 -7 17.7253 14.768 4
-15 0 7 23.3397 9.7429 10
15 -15 7 6.81257 6.7916 7
15 -15 -7 10.0377 7.72056 7
-8 16 7 17.1286 7.80756 11
16 -8 7 10.075 12.4086 4
8 -16 7 14.1577 10.6066 5
-8 16 -7 14.8505 7.78078 10
16 -8 7 13.57 7.5957 7
-16 8 -7 13.7519 8.05213 9
8 -16 -7 13.4341 11.661 5
-8 16 -7 5.04032 8.61578 9
16 -8 -7 8.86608 7.95209 7
8 -16 -7 3.54514 7.65605 8
-16 8 7 15.8507 10.5356 10
8 8 7 19.54 15.1699 6
8 8 -7 5.31987 7.18234 11
16 -8 -7 16.4138 14.5595 4
7 9 7 7.46689 14.9596 6
-7 -9 7 -0.1979 5.92159 9
16 -7 7 12.5082 13.5092 4
9 7 -7 12.18 7.64988 11
-16 9 -7 16.9344 8.21521 9
9 -16 7 3.99379 10.6619 5
7 -16 -7 -4.8361 8.02908 8
-9 16 7 9.28687 7.20179 11
16 -9 -7 5.60454 8.96178 7
16 -7 7 6.54804 7.41132 7
16 -9 -7 17.8447 16.036 4
-16 7 7 8.00482 10.1783 10
7 -16 -7 4.59959 11.3962 5
-7 16 -7 13.1354 7.72796 10
-16 7 -7 21.0541 8.47732 9
-7 16 7 5.60172 7.54966 11
9 7 7 17.3727 14.3451 6
7 -16 7 19.4925 10.5193 5
9 -16 -7 -3.8616 5.63501 8
9 -16 -7 0.41356 10.0891 5
16 -9 7 11.2985 8.10088 7
7 -16 7 10.5893 6.37676 8
-16 9 7 13.274 10.1596 10
-7 -9 -7 -0.8115 8.82682 5
16 -9 7 9.61202 13.2026 4
-7 -9 -7 12.5091 5.54933 8
7 9 -7 5.69742 6.08762 12
7 9 -7 6.339 7.37525 11
-9 16 -7 20.0802 8.69262 9
-9 16 -7 3.38832 7.81351 10
-10 16 7 8.35102 7.09633 11
16 -10 -7 19.5315 15.6214 4
16 -6 7 18.7424 7.48894 7
-16 10 -7 18.7163 8.22254 9
10 -16 7 5.13503 10.7548 5
16 -10 -7 15.3123 9.22025 7
-6 16 -7 5.35184 7.50364 10
-6 16 -7 -2.4852 8.59261 12
6 -16 -7 15.5641 11.6499 5
-10 -6 -7 3.16225 6.23365 9
6 -16 -7 10.3759 8.16391 8
6 10 7 11.7635 14.6379 6
10 6 -7 8.76554 7.36652 11
-16 6 7 17.2593 10.3666 10
-6 -10 7 12.5867 8.52456 9
16 -6 7 14.437 12.9264 4
6 -16 7 2.65019 9.78005 5
-16 10 7 -7.9104 9.61653 10
6 10 -7 3.27104 7.12289 11
16 -10 7 3.84282 7.35222 7
10 6 7 9.25639 14.6321 6
-16 6 -7 5.36059 8.39256 9
-6 -10 -7 10.3831 6.98984 8
-10 16 -7 3.21716 8.40773 10
-6 -10 -7 8.5226 10.0575 5
6 -16 7 -3.8532 6.37058 8
-10 16 -7 5.28579 8.1203 9
-6 16 7 5.05343 8.11536 11
16 -10 7 8.49139 13.9826 4
6 10 -7 3.31648 7.82472 12
-5 -11 7 -1.9444 7.70871 9
11 5 -7 6.00499 7.05847 11
16 -5 7 -0.5659 7.23417 7
16 -11 -7 -5.5274 8.37792 7
5 -16 -7 -5.3854 7.31373 8
16 -11 -7 8.65144 15.0342 4
5 -16 -7 4.91104 11.6176 5
-5 16 -7 5.24718 7.65109 10
16 -5 7 4.78211 12.9629 4
-16 11 -7 2.04949 7.36757 9
-11 16 7 10.7606 7.23223 11
-16 5 7 -4.8862 9.61313 10
11 -16 7 11.6364 10.7639 5
11 5 -7 1.49607 17.584 6
-11 -5 -7 -6.557 7.58278 9
-16 5 -7 1.00857 8.37991 9
-11 16 -7 -3.1966 8.72233 10
-5 -11 -7 4.74532 6.73911 8
5 11 -7 0.88034 8.18333 12
11 -16 -7 1.29048 12.5941 4
-16 11 7 9.92642 9.1164 10
-5 16 7 11.4608 8.42557 11
5 -16 7 3.61277 4.72592 8
16 -11 7 16.4376 13.4387 4
11 5 7 7.83865 13.5977 6
16 -11 7 2.81928 11.3451 5
11 -16 -7 6.21349 5.74201 7
16 -11 7 3.00945 7.19108 7
-11 16 -7 3.33696 7.50242 9
-5 -11 -7 6.79439 10.5906 5
5 11 -7 5.01134 7.33971 11
-12 -4 -7 37.3856 9.35022 9
16 -12 -7 37.2749 15.8999 4
4 -16 -7 23.7943 8.19145 8
16 -12 -7 35.0252 9.31781 7
-4 16 -7 41.8628 8.89211 10
-16 4 7 30.2774 10.1048 10
12 4 -7 45.4562 19.3324 6
-12 16 7 26.8972 8.17152 11
4 -16 -7 25.7816 12.3061 5
12 4 -7 29.4875 7.34036 11
16 -4 7 28.3562 8.07848 7
16 -4 7 6.20297 12.5293 4
-16 12 -7 39.5132 8.3568 9
12 -16 7 28.1105 11.0805 5
-4 -12 7 37.7184 8.81528 9
4 12 -7 46.0588 9.94382 12
12 4 7 49.4296 15.4845 6
-12 16 -7 37.4868 10.2942 10
16 -12 7 33.5339 7.97953 7
12 -16 -7 25.823 7.64555 7
16 -4 -7 41.2556 16.6565 6
16 -12 7 47.7036 14.744 4
4 12 -7 26.9005 8.62147 11
12 -16 -7 8.32267 11.9366 4
-16 4 -7 56.238 10.0067 9
-4 16 7 38.4025 9.82411 11
-4 -12 -7 40.3348 11.986 5
-4 -12 -7 41.2279 7.86155 8
-16 12 7 34.0402 9.62769 10
-12 16 -7 46.5299 9.11174 9
13 3 -7 12.5133 17.7078 6
3 -16 -7 7.64593 7.67834 8
-16 3 7 8.08588 9.67955 10
16 -13 -7 26.4235 16.001 4
-16 13 -7 15.4442 7.5506 9
-3 16 -7 13.0831 8.35744 10
13 -16 7 11.0906 10.6779 5
3 13 7 2.45072 5.10367 11
16 -3 7 14.5835 6.00839 7
16 -13 -7 1.9956 8.1667 7
3 -16 -7 4.69118 11.6452 5
-13 16 7 12.417 7.72106 11
-13 -3 -7 6.55791 8.07147 9
13 3 -7 9.38347 7.10785 11
16 -13 7 13.4239 7.43857 7
3 13 -7 10.7456 9.26092 12
3 13 -7 4.97917 7.97876 11
-3 -13 -7 0.69371 6.32732 8
-13 16 -7 -0.0881 7.55068 9
-13 16 -7 12.1237 9.28788 10
16 -3 -7 -0.2477 15.0133 6
16 -13 7 7.27109 13.5367 4
13 3 7 -0.9398 13.1263 6
13 -16 -7 15.8818 12.3883 4
3 13 -7 14.1611 7.63391 10
-3 -13 -7 16.1066 10.9986 5
16 -13 7 0.42444 10.2381 5
13 -16 -7 5.82074 7.1262 7
-3 16 7 5.54215 8.63486 11
-16 13 7 3.15591 7.73508 10
-16 3 -7 12.079 8.38422 9
-14 16 7 13.8626 7.64631 11
16 -14 -7 17.1251 15.0114 4
-2 16 -7 31.9396 11.9112 12
14 2 -7 14.618 7.26252 11
-16 2 7 29.1754 10.1668 10
2 -16 -7 14.1261 12.1352 5
14 -16 7 8.19041 10.6687 5
-2 16 -7 17.6459 8.17808 10
-14 -2 -7 14.8019 8.09221 9
2 14 7 14.6138 7.76572 11
-16 14 -7 15.5589 7.30817 9
2 -16 -7 6.38497 7.27601 8
14 2 -7 27.3731 17.6316 6
16 -14 -7 10.8286 8.29331 7
2 14 -7 24.711 8.04312 10
-2 -14 -7 16.8617 10.3764 5
16 -14 7 17.9451 7.61443 7
16 -2 -7 15.4931 15.6478 6
14 2 7 11.2949 13.3688 6
16 -14 7 0.22597 10.7895 4
2 14 -7 12.6542 9.93543 12
14 -16 -7 18.6602 12.3832 4
-16 2 -7 9.62119 7.87915 9
-14 -2 7 20.2228 9.2302 10
16 -14 7 1.09486 11.593 5
-14 16 -7 8.1953 7.62875 9
-16 14 7 4.05067 6.60814 10
-2 16 7 17.3773 8.99841 11
14 -16 -7 12.3311 7.30216 7
-2 -14 -7 10.5225 6.45857 8
2 14 -7 18.8064 9.22014 11
-14 16 -7 16.5907 9.58259 10
1 15 7 -3.7575 7.67357 11
16 -15 -7 7.44795 7.42796 7
-15 -1 -7 -0.6522 7.17376 9
15 -16 7 0.3281 4.97744 7
-1 16 -7 11.2929 7.7372 10
-1 16 -7 -5.1938 10.133 12
-16 1 7 7.95701 9.18954 10
-15 16 7 9.56819 6.82402 11
15 1 -7 5.82643 7.06762 11
-1 16 -7 -3.0028 6.99764 11
16 -15 -7 9.3271 14.0496 4
1 -16 -7 -2.6011 6.6108 8
15 -16 7 -0.0026 9.44459 5
-16 15 -7 1.21517 6.98909 9
1 -16 -7 -0.7779 10.1317 5
15 1 -7 -0.2036 15.654 6
16 -1 -7 9.13878 15.416 6
-1 16 7 17.9825 8.71507 11
1 15 -7 7.81611 9.1479 12
15 1 7 0.93997 11.1976 6
-15 -1 7 16.0496 8.7061 10
16 -15 7 3.92174 7.13335 7
-15 16 -7 8.87956 7.71805 10
-16 15 7 2.52423 6.97901 11
-15 16 -7 7.61766 7.5275 9
15 -16 -7 8.6323 7.02683 7
-1 -15 -7 8.25278 9.01997 5
-16 15 7 1.45387 4.51952 10
-16 1 -7 13.7881 7.45489 9
1 15 -7 26.9203 8.07024 10
1 15 -7 23.3433 9.23394 11
15 -16 -7 5.86608 11.517 4
-1 -15 -7 9.2997 6.42101 8
0 16 -7 44.7844 8.78638 10
16 -16 -7 53.4387 8.53545 7
0 16 7 49.4186 9.25247 11
0 16 -7 49.6337 10.6836 12
-16 16 -7 44.9761 8.5678 9
0 -16 -7 49.4436 7.71897 8
-16 0 7 65.5257 10.2451 10
0 16 -7 43.0842 9.84484 11
16 -16 7 40.2737 7.43616 7
16 0 -7 2.57973 13.6022 6
-16 0 -7 33.2132 8.17108 9
8 9 7 4.46953 13.9029 6
9 -17 7 6.65898 5.85679 8
17 -9 -7 1.80207 19.5466 4
-8 17 -7 6.22096 7.66527 10
9 8 -7 -6.8222 7.11447 11
8 -17 -7 3.72982 10.4109 5
17 -8 7 4.19938 7.05012 7
17 -8 7 -0.0242 12.0416 4
-8 -9 7 10.0657 7.34975 9
8 -17 -7 -0.1543 7.62973 8
-9 17 7 6.03457 6.9913 11
9 -17 7 15.3294 10.4627 5
-17 9 -7 8.19629 7.68917 9
17 -9 -7 1.16336 8.27869 7
-17 8 7 9.45641 9.78128 10
17 -8 -7 0.54287 7.32481 7
8 9 -7 -1.135 5.42501 12
-9 17 -7 4.05737 7.71505 10
8 -17 7 12.9885 10.2141 5
9 -17 -7 10.2 7.27225 8
-8 17 7 7.52998 7.50223 11
-8 -9 -7 0.25926 4.22984 8
9 8 7 20.6245 13.7512 6
-9 17 -7 11.6914 7.84906 9
8 9 -7 12.4738 7.25757 11
17 -9 7 0.23786 12.7483 4
-17 9 7 4.07668 10.1478 10
-9 -8 7 -1.7825 7.08829 9
17 -9 7 5.50991 6.87321 7
8 -17 7 13.0241 6.44261 8
-17 8 -7 8.97923 7.92578 9
17 -10 -7 13.2168 14.1627 4
7 -17 -7 9.63923 11.6257 5
-10 -7 -7 10.7061 6.85135 9
7 10 7 3.20072 15.141 6
17 -7 7 19.0731 13.5053 4
-7 17 -7 -0.9697 7.03724 12
10 7 -7 13.9336 7.40154 11
7 -17 -7 10.8553 7.64103 8
10 -17 7 20.5891 10.8192 5
-17 10 -7 17.1762 8.06131 9
-7 -10 7 12.5154 8.29875 9
17 -10 -7 8.23825 8.38492 7
-7 17 -7 15.2497 8.08907 10
17 -7 7 14.126 7.27827 7
-10 17 7 5.86585 6.80728 11
-17 7 7 10.1568 9.59642 10
7 -17 7 1.15 8.85418 5
-17 10 7 24.4069 10.5596 10
-10 17 -7 25.8199 8.51866 9
-10 17 -7 13.9444 8.44439 10
-7 -10 -7 26.3908 6.45773 8
10 -17 -7 -1.5464 5.44781 8
10 7 7 22.7352 13.524 6
-17 7 -7 33.3377 8.92898 9
-7 17 7 19.1279 7.79817 11
17 -10 7 19.7131 13.1161 4
7 10 -7 10.5685 7.44239 12
17 -10 7 13.9055 7.55343 7
7 10 -7 16.3977 7.23559 11
7 -17 7 18.2507 6.76326 8
6 -17 -7 8.56528 11.2007 5
-6 17 -7 14.9351 10.1227 12
11 6 -7 8.21024 6.94203 11
-17 11 -7 7.66194 7.42011 9
-17 6 7 13.9362 9.96721 10
17 -11 -7 1.73141 7.90577 7
-6 17 -7 13.5769 7.81395 10
-6 -11 7 12.6394 8.10697 9
17 -6 7 5.83151 12.3693 4
-11 -6 -7 14.7381 7.69214 9
11 -17 7 12.7842 10.209 5
6 -17 -7 6.20244 7.61009 8
17 -6 7 12.3868 7.31004 7
-11 17 7 18.1273 7.19079 11
17 -11 -7 15.0283 14.4098 4
-6 -11 -7 12.464 6.89514 8
-6 17 7 23.8243 9.07306 11
17 -11 7 16.6911 7.49049 7
-17 6 -7 11.3829 8.32363 9
6 11 -7 11.7112 7.54838 11
11 6 7 16.2815 12.5585 6
11 -17 -7 -1.3905 4.49779 7
17 -11 7 10.0229 12.9399 4
-11 17 -7 18.665 8.17297 9
-11 17 -7 22.0708 8.93174 10
-17 11 7 17.8142 9.73586 10
6 11 -7 7.21924 7.67951 12
6 -17 7 10.1966 6.51176 8
12 5 -7 13.2113 6.97813 11
-5 -12 7 26.8303 8.60262 9
5 -17 -7 20.7058 11.8032 5
17 -12 -7 12.9757 7.79698 7
-5 17 -7 21.909 8.0985 10
-17 5 7 24.3385 9.79859 10
-12 17 7 10.366 7.05823 11
5 -17 -7 16.0801 7.54646 8
-17 12 -7 15.9906 7.4645 9
-12 -5 -7 19.5836 8.24673 9
17 -12 -7 19.882 14.7293 4
-5 17 -7 25.1953 11.0829 12
12 -17 7 30.6397 11.0077 5
17 -5 7 13.9724 7.53661 7
5 12 -7 10.588 8.35884 12
12 5 7 14.9696 13.5452 6
12 -17 -7 18.3719 6.47052 7
-5 -12 -7 17.1878 6.71099 8
5 12 -7 21.6042 7.62661 11
-12 17 -7 18.343 9.2844 10
-17 12 7 15.3148 9.71819 10
-5 17 7 22.8363 9.24677 11
5 -17 7 6.05321 4.7788 8
17 -12 7 15.6482 7.36239 7
17 -12 7 19.542 13.508 4
-12 17 -7 15.9467 7.78829 9
-17 5 -7 24.8479 8.78278 9
4 -17 -7 42.2402 12.2553 5
13 4 -7 45.8955 8.18532 11
17 -13 -7 50.9556 15.5384 4
-4 -13 7 58.4483 9.53002 9
13 -17 7 44.8602 12.1298 5
17 -13 -7 53.7111 9.01974 7
4 -17 -7 69.326 9.10784 8
17 -4 7 44.5286 8.23677 7
-4 17 -7 66.7962 12.3178 12
-17 13 -7 34.9777 8.18691 9
-13 -4 -7 42.0116 9.44307 9
-17 4 7 65.6463 10.9497 10
-13 17 7 40.3081 8.22686 11
-17 13 7 48.1365 9.85494 10
13 4 7 49.5316 14.8871 6
4 13 -7 47.9682 8.95811 11
-4 -13 -7 51.7419 8.07088 8
4 13 -7 67.6084 10.7509 12
-13 17 -7 50.0515 8.8518 9
17 -13 7 48.7581 8.56888 7
17 -13 7 38.8399 13.4281 4
-17 4 -7 63.1576 9.71203 9
13 -17 -7 55.0632 8.6153 7
-13 17 -7 46.2708 10.7331 10
-4 17 7 71.7087 10.4286 11
-17 14 -7 2.16754 6.89586 9
17 -14 -7 -0.1929 7.21006 7
3 -17 -7 4.3622 10.0367 5
-3 17 -7 9.90027 8.01288 10
-14 -3 -7 -1.2749 7.54837 9
-17 3 7 8.20127 8.91874 10
-3 17 -7 10.5379 11.1158 12
3 14 7 -5.1776 7.03792 11
17 -3 7 4.94348 5.2558 7
14 3 -7 4.2991 6.6199 11
3 -17 -7 -5.3298 6.75517 8
14 -17 7 -0.85 9.63513 5
17 -14 -7 19.8451 14.1198 4
-14 17 7 8.01868 6.89585 11
-3 -14 7 2.42489 7.06751 9
3 14 -7 18.787 9.38609 12
-17 3 -7 15.5353 7.72579 9
17 -14 7 14.4703 7.31384 7
-3 -14 -7 10.57 6.33663 8
-17 14 7 8.51746 7.83027 10
-14 17 -7 13.2746 9.51363 10
-14 17 -7 5.4036 7.40654 9
17 -3 -7 12.9294 14.0758 6
3 14 -7 11.8123 8.16677 11
-3 17 7 19.2251 8.62127 11
-14 -3 7 12.9941 8.46837 10
14 -17 -7 13.2055 6.85319 7
14 3 7 18.081 13.1668 6
2 15 7 -1.896 7.42173 11
17 -15 -7 11.2428 7.05514 7
-2 17 -7 2.57884 9.12049 12
2 -17 -7 3.11683 6.37505 8
17 -15 -7 0.33387 11.4221 4
2 -17 -7 -2.4105 8.70638 5
-2 -15 7 16.1134 7.70436 9
-15 17 7 10.7699 6.46788 11
15 2 -7 9.11543 6.90518 11
-17 15 -7 3.43954 6.95653 9
-15 -2 -7 3.62898 7.00456 9
-2 17 -7 8.75638 7.58894 10
-17 2 7 15.6694 8.67685 10
-15 17 -7 7.68994 9.00476 10
-15 -2 7 16.2911 8.5425 10
15 -17 -7 10.5248 6.6083 7
2 15 -7 10.4594 7.83475 11
-17 2 -7 13.3305 7.06637 9
2 15 -7 12.7897 7.08653 10
-15 17 -7 9.56895 7.38278 9
17 -15 7 12.4578 7.0847 7
-2 -15 -7 8.21628 5.89397 8
2 15 -7 1.27513 8.34977 12
17 -2 -7 2.75053 12.8101 6
-2 17 7 -1.9172 7.84253 11
-17 15 7 -1.8961 6.65472 10
1 16 7 56.607 9.55771 11
1 -17 -7 51.2484 7.60715 8
-1 17 -7 51.3385 8.8929 10
-17 16 -7 46.9143 8.82753 9
-17 1 7 52.4197 9.26933 10
-16 -1 -7 54.4549 9.05359 9
17 -16 -7 67.8571 8.60667 7
-1 17 -7 71.0619 11.76 12
-16 17 -7 50.6112 8.74295 9
-1 17 7 36.8806 8.65534 11
17 -16 7 40.009 7.68623 7
16 -17 -7 27.0042 7.285 7
1 16 -7 47.4024 9.28508 11
-16 -1 7 38.9801 8.97553 10
-1 -16 -7 32.7647 6.62435 8
1 16 -7 50.4974 8.40809 10
-16 17 -7 32.8328 8.71402 10
1 16 -7 48.8958 10.53 12
-17 1 -7 47.0907 8.4595 9
0 17 -7 17.7178 6.98044 10
0 17 7 11.2913 7.97176 11
0 -17 -7 -0.346 5.3618 8
-17 0 7 12.0735 7.85248 10
17 -17 7 7.1169 4.89839 7
-17 0 -7 15.3541 6.62998 9
-17 17 -7 1.63281 7.29329 9
0 17 -7 7.24286 7.52222 11
0 17 -7 11.6822 8.8186 12
17 -17 -7 9.77702 6.09377 7
18 -9 7 -2.1247 6.54763 7
-18 9 7 -0.331 9.65221 10
9 -18 7 0.64855 8.15241 5
9 -18 -7 8.96347 7.10519 8
18 -9 7 7.42302 11.2072 4
9 9 -7 9.65619 6.81377 11
-9 18 7 4.51824 6.82639 11
9 -18 7 5.96099 6.07176 8
-9 -9 7 0.57269 6.58677 9
18 -9 -7 -0.4295 7.47754 7
-9 18 -7 -6.0079 8.01488 10
-18 9 -7 4.54513 7.19737 9
10 8 -7 6.32242 7.09654 11
-8 18 -7 7.69353 7.58666 10
-10 18 7 9.7751 6.84178 11
8 -18 -7 7.40954 6.90589 8
10 -18 7 0.39103 5.88161 8
-8 -10 7 0.35611 7.40496 9
18 -8 7 3.35266 10.704 4
18 -8 7 9.06403 6.87231 7
10 -18 7 4.23544 8.68383 5
-18 10 -7 7.67225 7.55726 9
-10 -8 -7 1.20211 6.06961 9
18 -10 -7 10.4139 7.70446 7
-18 8 7 2.25934 9.52548 10
18 -10 7 7.2218 6.86414 7
18 -10 7 14.7819 12.0923 4
-10 -8 7 -0.8325 5.0215 9
8 10 -7 2.60949 5.69292 12
8 10 -7 9.55182 6.67286 11
8 -18 7 7.38999 6.23919 8
-8 18 7 4.88579 7.01384 11
-18 8 -7 11.4315 7.68613 9
-8 -10 -7 1.27991 3.94231 8
-18 10 7 7.79084 9.85933 10
10 -18 -7 9.64565 6.62535 8
18 -8 -7 -5.2397 5.51182 7
-10 18 -7 5.9736 7.86702 10
10 8 7 2.79792 12.3792 6
-11 -7 -7 8.21034 7.26066 9
11 -18 7 12.5695 6.26718 8
-11 18 7 15.5898 6.94414 11
-7 18 -7 10.3106 8.85732 12
-7 -11 7 5.80823 7.62629 9
11 -18 7 3.64394 9.13098 5
-7 18 -7 20.6237 7.77455 10
7 -18 -7 2.60892 6.81014 8
11 7 -7 13.5713 7.01037 11
18 -7 7 6.34051 7.07918 7
7 -18 -7 1.24346 11.9252 5
-18 7 7 1.94997 9.03105 10
18 -11 -7 4.83087 7.32762 7
-18 11 -7 16.5939 7.8494 9
11 -18 -7 -1.2621 4.6161 8
-18 7 -7 11.4127 7.40001 9
7 11 -7 2.27484 6.30292 11
-7 -11 -7 9.24116 5.34945 8
7 -18 7 -1.4918 5.99001 8
-7 18 7 12.1015 7.69162 11
18 -11 7 16.6266 7.25247 7
11 7 7 6.29021 11.7847 6
-11 18 -7 17.0205 7.85315 9
18 -11 7 6.46083 12.0007 4
-18 11 7 7.9873 9.28194 10
7 11 -7 9.32136 7.40728 12
-11 18 -7 12.2221 8.04152 10
-6 -12 7 2.34422 7.6279 9
-18 6 7 2.85943 9.30202 10
-12 -6 -7 -0.9846 7.34458 9
12 6 -7 4.04811 6.65024 11
-6 18 -7 3.98431 7.48726 10
18 -12 -7 1.70547 20.1865 4
12 -18 7 -1.3039 8.61036 5
-18 12 -7 1.45264 7.00273 9
18 -12 -7 5.81056 6.96 7
18 -6 7 2.81909 6.90709 7
-6 18 -7 -0.5627 9.48211 12
6 -18 -7 0.85826 6.75016 8
6 -18 -7 1.80676 10.1885 5
-12 18 7 8.70016 6.78942 11
12 -18 7 5.5741 5.99307 8
-12 18 -7 3.26204 7.24378 9
-18 12 7 -5.6477 9.03239 10
-18 6 -7 0.86112 6.91824 9
-6 -12 -7 -4.3254 5.79367 8
6 12 -7 0.01004 7.61375 12
12 6 7 -5.9593 10.8987 6
12 -18 -7 -0.7546 4.09203 7
6 -18 7 2.12037 6.08269 8
-6 18 7 0.75276 7.6353 11
-12 18 -7 -0.0949 8.24067 10
18 -12 7 4.67229 7.17406 7
18 -12 7 1.7143 10.4853 4
6 12 -7 2.99049 6.71987 11
5 -18 -7 0.18666 9.55349 5
5 -18 -7 8.36186 6.40545 8
13 -18 7 1.52759 8.17046 5
18 -13 -7 2.04154 14.6162 4
-18 5 7 21.4505 9.44572 10
-18 13 -7 5.43471 7.01136 9
13 5 -7 13.2397 6.96114 11
13 -18 7 19.6849 6.30151 8
-5 -13 7 15.4264 7.7812 9
-5 18 -7 19.5838 8.54612 10
-13 -5 -7 7.71043 7.45581 9
18 -13 -7 12.4216 6.80196 7
18 -5 7 9.76272 6.89342 7
-13 18 7 12.1466 6.69185 11
-5 18 -7 15.1929 10.513 12
18 -13 7 28.1762 7.84825 7
13 -18 -7 14.6124 5.92271 7
-5 -13 -7 16.8298 6.4172 8
-13 18 -7 17.1465 8.93879 10
5 13 -7 18.4809 8.44424 12
-18 5 -7 28.5115 7.81677 9
-18 13 7 25.0541 9.05527 10
-13 18 -7 14.0081 7.45158 9
-5 18 7 32.2785 8.43972 11
18 -13 7 -1.3428 10.6053 4
5 13 -7 30.0615 7.79212 11
13 5 7 -1.4805 11.5332 6
18 -4 7 2.3556 5.24137 7
4 14 7 -0.9872 4.65646 11
-18 14 -7 1.52513 6.86875 9
-4 -14 7 -4.048 7.16431 9
-4 18 -7 10.8632 9.994 12
-4 18 -7 -0.2629 7.48707 10
-14 -4 -7 -2.1209 7.05851 9
4 -18 -7 3.42326 5.91338 8
-14 18 7 3.2242 6.41884 11
-18 4 7 0.32779 8.33571 10
18 -14 -7 8.93846 6.4823 7
14 4 -7 10.6899 6.67686 11
-14 -4 7 6.73179 7.80257 10
-18 4 -7 9.4708 7.06616 9
14 -18 -7 0.8455 5.90757 7
-14 18 -7 1.48188 6.96071 9
4 14 -7 -1.667 8.14121 12
-4 18 7 9.24283 7.87087 11
-18 14 7 1.71392 7.73582 10
18 -14 7 0.82528 6.72754 7
4 14 -7 3.61946 6.83117 11
-4 -14 -7 8.47223 5.71402 8
-14 18 -7 6.80494 8.79085 10
3 15 7 14.814 7.21655 11
18 -15 -7 29.4018 7.06204 7
-18 3 7 39.6338 9.21463 10
-15 18 7 16.8435 6.4991 11
3 -18 -7 21.3494 6.54376 8
-3 18 -7 45.9185 8.50624 10
-18 15 -7 27.9474 7.7231 9
-15 -3 -7 12.8318 6.96033 9
15 -18 7 33.1172 6.29008 8
-3 18 -7 24.3853 9.60035 12
15 3 -7 32.5704 7.3648 11
-3 -15 7 38.3016 8.14444 9
-3 -15 -7 29.9391 6.28403 8
15 -18 -7 21.3368 6.69872 7
3 15 -7 33.5822 8.05442 11
-15 -3 7 38.1361 9.01227 10
18 -15 7 33.3736 7.30254 7
-15 18 -7 28.2087 9.39262 10
-18 3 -7 42.0098 8.00616 9
-18 15 7 28.6327 7.89562 10
-3 18 7 27.6971 8.12504 11
-15 18 -7 39.8686 8.17785 9
3 15 -7 44.0935 9.75678 12
-18 16 -7 2.78811 7.29997 9
18 -16 -7 15.2866 6.14546 7
2 -18 -7 0.91393 5.65988 8
16 -18 7 2.23353 5.34603 8
-2 18 -7 6.18297 8.77945 12
-2 -16 7 5.6962 6.78198 9
-18 2 7 -1.5151 6.86555 10
2 16 7 -0.2386 7.28299 11
-16 -2 -7 -2.8115 6.26329 9
-2 18 -7 6.32644 7.14735 10
-2 18 7 10.0285 7.30815 11
2 16 -7 2.59463 7.85118 12
-2 -16 -7 10.9419 5.37454 8
2 16 -7 12.9277 7.24221 11
-18 2 -7 6.314 6.04924 9
18 -16 7 5.9238 6.04691 7
16 -18 -7 6.35641 5.86608 7
-16 18 -7 12.1568 8.66559 10
-16 -2 7 6.88954 7.57668 10
-18 16 7 12.4381 6.23426 10
-16 18 -7 5.27129 6.83837 9
-18 1 7 12.6124 7.43482 10
-1 18 -7 21.1086 9.01427 12
-1 -17 7 14.2658 6.74736 9
17 -18 7 15.2117 5.46127 8
-1 18 -7 -2.593 5.44482 11
-17 -1 -7 11.5696 6.21867 9
-18 17 -7 18.1138 7.579 9
1 -18 -7 19.3969 5.57424 8
1 17 7 16.7406 7.5362 11
18 -17 -7 21.7237 6.09906 7
-1 18 -7 22.9259 6.94296 10
-18 1 -7 12.1704 6.16029 9
-1 18 7 18.1417 7.71396 11
-1 -17 -7 21.5453 5.46057 8
17 -18 -7 9.09417 5.39777 7
18 -17 7 10.0536 5.81605 7
1 17 -7 13.3805 7.07556 11
-17 18 -7 10.8624 6.42916 10
-18 17 7 1.16821 4.25157 10
-17 18 -7 17.0894 7.18273 9
1 17 -7 11.6968 8.03547 12
-17 -1 7 11.9911 7.24537 10
-18 0 7 74.9085 9.37426 10
0 -18 -7 40.1755 6.36292 8
18 -18 7 63.1204 6.96039 8
-18 0 -7 73.5772 8.54109 9
0 18 -7 44.4834 7.89329 11
0 18 7 49.862 8.72098 11
0 -18 7 66.626 8.50875 9
-18 18 -7 56.0228 8.40159 9
18 -18 -7 45.4261 6.80375 7
-10 -9 -7 -2.2253 4.93258 9
19 -10 -7 5.92749 6.84683 7
-9 19 -7 -5.3191 7.18249 10
9 -19 -7 3.85276 6.25083 8
10 9 -7 3.24145 6.7328 11
19 -9 7 7.09007 6.35315 7
10 -19 7 1.16614 5.65632 8
-19 10 -7 -0.844 6.79328 9
-19 9 7 5.95817 9.32386 10
-9 -10 7 7.01141 6.89358 9
-10 19 7 2.09272 6.43898 11
19 -10 7 -0.793 6.11606 7
19 -9 -7 5.74455 5.83096 7
-19 10 7 -3.9042 8.53127 10
-10 -9 7 3.11464 5.4536 9
9 10 -7 1.4867 6.08529 11
-10 19 -7 -0.611 7.71449 10
9 -19 7 -3.4123 5.54218 8
-19 9 -7 3.81772 6.51568 9
10 -19 -7 4.82849 5.99534 8
-9 19 7 2.94265 6.68719 11
-8 19 -7 16.6898 7.83467 10
-8 19 -7 -0.2893 5.92178 12
-11 -8 -7 14.6605 6.8397 9
11 8 -7 19.8774 6.95382 11
11 -19 7 15.5418 6.05772 8
-19 11 -7 7.82523 6.99211 9
-11 19 7 12.317 6.90031 11
-19 8 7 9.8361 8.95449 10
19 -11 -7 18.1873 6.95388 7
8 -19 -7 11.6738 6.36125 8
-8 -11 7 10.7414 7.14755 9
19 -8 7 11.7553 6.74994 7
11 -19 -7 13.4136 5.37785 8
-8 19 7 17.3004 6.73981 11
-11 19 -7 16.6405 7.94963 10
8 11 -7 16.2273 6.72908 11
-19 8 -7 17.6955 7.16543 9
19 -11 7 9.5925 6.31414 7
8 11 -7 8.22545 5.59596 12
-19 11 7 4.36396 9.034 10
8 -19 7 6.71453 5.85495 8
-19 12 -7 43.6444 8.15962 9
-7 19 -7 31.2115 9.28878 12
-7 19 -7 44.8065 8.6052 10
7 -19 -7 19.3084 6.7457 8
12 7 -7 50.2793 7.87268 11
-12 -7 -7 26.1081 7.55933 9
19 -12 -7 27.9664 7.17431 7
12 -19 7 35.9912 6.719 8
-12 19 7 30.0881 7.40314 11
-19 7 7 58.7944 10.0436 10
-7 -12 7 26.6522 7.73115 9
19 -7 7 44.4754 7.5735 7
7 12 -7 23.2408 6.51555 11
19 -12 7 36.339 7.70558 7
7 -19 7 28.8678 6.429 8
-19 12 7 34.7894 9.66667 10
7 12 -7 25.2725 7.68984 12
-12 19 -7 37.7501 8.73117 10
-19 7 -7 27.3214 7.12817 9
-7 19 7 33.1097 7.46603 11
19 -6 7 16.8974 6.97543 7
19 -13 -7 10.8936 6.25516 7
13 -19 7 20.5814 6.23236 8
-19 6 7 27.5348 8.66045 10
-13 19 7 11.7999 6.84484 11
13 6 -7 20.2573 6.71725 11
-6 19 -7 15.4261 9.46733 12
6 -19 -7 19.7906 6.56526 8
-6 -13 7 17.6377 7.35088 9
-19 13 -7 15.9085 7.21373 9
-6 19 -7 18.1156 8.29984 10
-13 -6 -7 7.64405 6.89451 9
-6 19 7 16.4861 7.42247 11
-19 13 7 30.2345 9.0733 10
6 13 -7 14.7024 6.32218 11
-13 19 -7 19.6818 7.17576 9
19 -13 7 26.9874 6.93895 7
-19 6 -7 16.8713 6.72445 9
-6 -13 -7 13.8132 5.34501 8
6 -19 7 10.1676 5.93242 8
-13 19 -7 22.8725 8.26529 10
6 13 -7 13.0301 7.01578 12
-19 5 7 8.03375 7.95584 10
-14 19 7 6.13495 6.65083 11
-5 19 -7 2.1708 7.37597 10
-14 -5 -7 5.06357 6.42479 9
19 -5 7 9.48074 5.77416 7
14 -19 7 7.90283 5.39891 8
5 -19 -7 -2.3153 5.64586 8
19 -14 -7 5.60104 5.57409 7
-5 19 -7 5.65392 9.21898 12
-19 14 -7 6.22269 6.7928 9
-5 -14 7 1.50032 6.87325 9
14 5 -7 6.5923 6.29579 11
-14 19 -7 6.88799 8.17072 10
-19 5 -7 7.34758 6.29001 9
14 -19 -7 6.8419 4.58716 7
-19 14 7 7.63718 7.68998 10
-14 19 -7 16.3596 6.9159 9
5 14 -7 4.23602 6.26855 11
-14 -5 7 -0.4154 7.19005 10
19 -14 7 12.1996 6.56426 7
5 14 -7 2.46993 7.43829 12
-5 19 7 2.25586 6.90075 11
-5 -14 -7 9.47047 5.42276 8
15 4 -7 16.8891 6.71166 11
-4 -15 7 18.2505 6.86969 9
-19 4 7 24.2437 8.05264 10
-15 19 7 8.2099 5.79072 11
-19 15 -7 19.4942 7.31764 9
15 -19 7 16.6579 5.75461 8
4 -19 -7 14.7952 6.17158 8
19 -15 -7 12.194 5.52135 7
-4 19 -7 25.1148 9.66839 12
-15 -4 -7 10.7913 6.32422 9
-4 19 -7 23.4952 7.79093 10
4 15 7 -2.2164 4.7551 11
-19 4 -7 10.5996 6.02266 9
-4 19 7 11.7849 7.33002 11
-15 -4 7 10.0645 7.41945 10
-4 -15 -7 12.2422 5.46763 8
-15 19 -7 11.7098 6.89251 9
-19 15 7 14.6416 7.41318 10
4 15 -7 11.7556 7.75916 12
4 15 -7 7.36784 6.37093 11
-15 19 -7 18.3051 8.20361 10
19 -15 7 3.53152 5.81229 7
15 -19 -7 10.0329 5.20069 7
-3 19 -7 73.4558 11.1323 12
-3 19 -7 50.2101 8.29271 10
19 -16 -7 59.5927 7.27275 7
-16 -3 -7 31.8875 7.31131 9
3 16 7 50.2986 7.94519 11
-3 -16 7 64.4178 8.58016 9
3 -19 -7 50.4065 7.04073 8
-19 3 7 50.9553 8.55166 10
-19 16 -7 49.1697 8.64882 9
16 -19 7 41.2035 6.76265 8
-16 19 -7 43.1321 9.00288 10
16 -19 -7 43.4145 6.77045 7
-19 3 -7 49.9063 7.69751 9
-3 -16 -7 39.4885 6.24352 8
3 16 -7 58.9898 9.42551 12
3 16 -7 62.8411 9.00086 11
-19 16 7 49.7836 7.94825 10
19 -16 7 43.1724 7.04243 7
-16 19 -7 49.8465 7.93413 9
-16 -3 7 27.9134 7.99412 10
-3 19 7 59.7155 8.43198 11
-19 17 -7 16.6669 7.14041 9
-17 -2 -7 11.1971 5.87537 9
17 -19 7 10.373 5.27746 8
-2 19 -7 21.919 8.55875 12
2 17 7 8.74496 6.74309 11
2 -19 -7 16.1432 5.10263 8
-2 -17 7 11.2911 6.75198 9
-2 19 -7 14.4042 6.43859 10
19 -17 -7 7.23642 5.05963 7
-19 2 7 11.9997 6.92125 10
-19 17 7 1.59177 4.35631 10
-2 19 7 17.6597 7.57282 11
2 17 -7 11.9929 6.46359 11
17 -19 -7 10.8641 5.10114 7
2 17 -7 14.5096 7.67179 12
-17 19 -7 17.316 6.72101 9
19 -17 7 14.2169 5.75185 7
-19 2 -7 15.8845 6.05815 9
-2 -17 -7 8.89668 4.69334 8
19 -17 7 11.8911 4.42996 8
-17 19 -7 20.2315 7.14032 10
-17 -2 7 21.1733 7.28873 10
-1 19 -7 24.6206 8.18545 12
-1 19 -7 11.1937 6.09223 10
-19 1 7 12.3683 6.46601 10
-19 18 -7 12.8338 6.54555 9
18 -19 7 12.5438 5.09128 8
19 -18 -7 13.8433 5.04133 7
-18 -1 -7 14.282 5.97463 9
-1 -18 7 14.859 6.38908 9
1 -19 -7 6.94628 4.59206 8
1 18 7 15.0628 6.68676 11
-1 -18 -7 10.8895 4.30423 8
1 18 -7 11.3361 7.24869 12
18 -19 -7 8.91182 4.68796 7
19 -18 7 -2.0943 3.67581 7
-1 19 7 9.89394 6.70313 11
1 18 -7 1.62957 5.83504 11
-18 -1 7 8.05413 6.58616 10
-19 1 -7 0.35763 4.90649 9
19 -18 7 9.23769 4.34712 8
1 -19 7 8.73827 5.98773 9
-18 19 -7 9.95941 6.21295 9
-19 19 -7 14.677 5.07898 9
0 19 7 22.875 6.81099 11
0 -19 -7 12.4929 4.34268 8
0 -19 7 20.2489 7.06721 9
-19 0 7 18.3803 6.72873 10
0 19 -7 20.2761 7.44111 12
19 -19 -7 15.8112 4.83773 7
19 -19 7 10.5581 4.14209 8
-19 0 -7 14.4083 5.24436 9
-10 20 7 6.88246 5.9969 11
-10 -10 7 7.95412 5.72586 9
-10 20 -7 8.10284 7.37625 10
10 -20 -7 7.62218 5.52981 8
-20 10 -7 6.20885 6.22429 9
20 -10 7 4.35116 5.75291 7
10 -20 7 0.94217 5.27303 8
-20 10 7 16.5966 8.46603 10
10 10 -7 14.7287 6.55124 11
20 -10 -7 8.48549 5.63656 7
11 -20 7 2.96595 5.44608 8
9 -20 -7 14.0693 5.74793 8
-9 -11 7 -0.7668 6.11053 9
-9 20 -7 11.9302 7.08212 10
20 -11 -7 8.28821 5.81645 7
-20 11 -7 7.04619 6.07904 9
20 -9 7 3.26333 5.91401 7
-20 9 7 2.36627 7.75517 10
-11 -9 -7 -0.2479 5.26672 9
-11 20 7 6.30575 6.39865 11
11 9 -7 15.4668 6.37598 11
-20 9 -7 6.23124 6.17873 9
9 -20 7 7.02166 5.29123 8
11 -20 -7 10.1216 5.22001 8
-11 -9 7 -0.5121 4.7179 9
-20 11 7 9.14315 8.61981 10
-11 20 -7 5.16036 7.40699 10
9 11 -7 4.59762 5.82102 11
-9 20 7 9.78207 6.23196 11
20 -11 7 6.04033 5.73751 7
8 -20 -7 14.8631 5.86411 8
20 -12 -7 7.18798 5.86154 7
-12 -8 -7 7.62135 6.18789 9
-20 12 -7 9.74169 6.13468 9
-20 8 7 16.9643 8.2398 10
-8 -12 7 7.56113 6.04224 9
-8 20 -7 -0.794 5.94215 12
20 -8 7 4.61702 6.01121 7
-8 20 -7 7.10015 6.96324 10
12 -20 7 10.0872 5.5489 8
12 8 -7 12.8874 6.40646 11
-12 20 7 5.61924 6.48673 11
-20 12 7 2.09316 8.22824 10
8 12 -7 7.03938 5.79395 11
20 -12 7 6.02613 5.95683 7
-20 8 -7 4.94216 5.86558 9
-8 20 7 1.43768 5.86589 11
8 -20 7 2.62393 5.38154 8
-12 20 -7 5.49027 7.58755 10
8 12 -7 0.97077 4.5102 12
7 -20 -7 10.3476 5.48211 8
-20 7 7 12.807 7.76573 10
13 -20 7 18.2013 5.51599 8
-13 -7 -7 10.2279 6.25618 9
13 7 -7 11.5788 6.30965 11
-7 20 -7 6.93594 7.27394 10
20 -13 -7 6.91731 5.56307 7
-7 20 -7 5.89202 7.59812 12
-20 13 -7 4.2029 6.18566 9
-13 20 7 12.7406 6.81424 11
20 -7 7 10.17 5.94533 7
-7 -13 7 4.42426 6.1058 9
-13 -7 7 17.944 7.14328 10
20 -13 7 24.0304 6.26712 7
-20 13 7 20.6769 7.96283 10
-13 20 -7 30.5445 8.00144 10
7 13 -7 12.5877 6.63757 12
7 -20 7 13.0682 5.75448 8
7 13 -7 13.9399 5.90867 11
-20 7 -7 8.73396 5.80283 9
-7 20 7 18.4837 6.39804 11
14 6 -7 4.97261 5.83064 11
-20 6 7 -5.9435 7.2575 10
20 -14 -7 6.47521 5.03952 7
-6 20 -7 2.48215 6.84005 10
-20 14 -7 0.65049 6.22976 9
-6 20 -7 10.7705 8.2614 12
20 -6 7 3.00901 5.37066 7
14 -20 7 2.63673 5.38464 8
-14 20 7 8.00663 6.39952 11
-6 -14 7 4.23147 6.03446 9
-14 -6 -7 -3.3164 5.8726 9
6 -20 -7 -1.1026 4.9843 8
-6 20 7 5.66286 6.20404 11
20 -14 7 6.6799 5.40137 7
6 -20 7 -3.9519 3.67127 8
6 14 -7 0.20957 5.24692 11
-20 14 7 -1.527 7.24203 10
6 14 -7 1.77946 6.6509 12
-14 -6 7 -1.9331 6.50201 10
-20 6 -7 3.50208 5.4876 9
-6 -14 -7 -0.0279 3.33867 8
-14 20 -7 3.49328 7.20105 10
15 -20 7 11.3019 5.2431 8
-5 20 -7 37.8292 7.69108 10
-5 -15 7 23.0806 6.35639 9
15 5 -7 31.0705 6.46406 11
-5 20 -7 29.0353 8.90878 12
5 -20 -7 18.6043 5.32753 8
-15 -5 -7 19.6483 6.10701 9
-20 15 -7 11.4157 6.66495 9
-20 5 7 28.5362 7.48507 10
20 -15 -7 23.5936 5.34453 7
-15 20 -7 21.7474 7.78872 10
-20 15 7 31.2883 7.39036 10
-5 20 7 21.5345 6.66833 11
-15 -5 7 11.9031 7.0147 10
5 15 -7 19.3031 7.29151 12
-20 5 -7 24.0369 6.0435 9
-5 -15 -7 14.2536 3.95814 8
5 15 -7 18.8566 5.95227 11
20 -15 7 22.1289 5.85632 7
-4 20 -7 27.3254 8.51778 12
4 -20 -7 39.612 6.14594 8
-20 4 7 28.4972 7.15632 10
20 -16 -7 34.2858 6.24401 7
-16 -4 -7 32.0769 7.12515 9
-20 16 -7 38.0634 7.56192 9
-4 -16 7 32.016 7.06509 9
16 -20 7 38.9016 5.80488 8
-4 20 -7 36.9201 7.70425 10
-20 16 7 23.3215 6.74171 10
-4 20 7 32.834 6.89841 11
-4 -16 -7 23.9869 4.55236 8
-16 20 -7 23.3511 7.73424 10
-16 -4 7 18.3081 6.99723 10
-20 4 -7 16.4813 5.64514 9
4 16 -7 20.6155 6.03569 11
20 -16 7 33.706 5.82502 7
4 16 -7 16.0352 6.55269 12
16 -20 -7 8.64598 3.98258 7
-20 17 -7 3.99344 6.27599 9
-3 20 -7 5.31211 6.07848 10
3 -20 -7 3.50522 4.37785 8
17 -20 7 5.82802 4.75071 8
3 17 7 -2.5744 5.00197 11
20 -17 -7 7.43366 4.67944 7
-17 -3 -7 3.07286 5.34444 9
-3 20 -7 -0.6893 7.10632 12
-3 -17 7 -8.4171 5.26916 9
-20 3 7 9.04059 6.16753 10
-3 20 7 8.30731 6.35212 11
20 -17 7 3.44817 4.84678 7
3 17 -7 9.60998 6.23557 12
-20 17 7 2.43877 4.4779 10
3 17 -7 3.23154 5.5843 11
-20 3 -7 0.19008 5.01034 9
17 -20 -7 2.13736 3.90221 7
-17 -3 7 -2.128 5.94978 10
-3 -17 -7 4.13574 3.9837 8
-17 20 -7 8.9944 5.8292 9
-17 20 -7 -0.1877 6.0632 10
3 -20 7 4.40428 5.14716 9
18 -20 7 23.77 5.08092 8
-20 18 -7 12.7016 4.84701 9
-2 20 -7 28.3884 7.65259 12
-20 2 7 18.5294 6.29999 10
-2 -18 7 18.2625 6.05575 9
2 18 7 14.8195 4.97948 11
-2 20 -7 17.9171 6.00667 10
2 -20 -7 21.7035 4.65559 8
20 -18 -7 27.9919 5.29593 7
-18 -2 -7 25.3609 6.14213 9
2 18 -7 18.1918 6.60393 12
-18 -2 7 19.0807 6.69273 10
2 -20 7 14.9461 5.58298 9
-20 2 -7 11.8493 5.02435 9
-18 20 -7 7.36223 4.22317 9
-2 -18 -7 13.4829 4.03091 8
18 -20 -7 14.7481 4.31882 7
-2 20 7 17.667 6.7799 11
2 18 -7 15.0077 5.98507 11
-19 -1 -7 7.85938 5.28308 9
1 -20 -7 11.6771 4.03567 8
1 19 7 12.2051 4.97353 11
-1 -19 7 16.0672 5.96562 9
-1 20 -7 5.9829 6.93826 12
-20 1 7 12.3486 6.36176 10
19 -20 7 3.82281 3.13172 8
20 -19 -7 13.6109 4.45239 7
-20 1 -7 8.4503 4.61348 9
1 19 -7 18.157 6.57587 12
-1 20 7 13.2008 6.60864 11
-1 -19 -7 8.3817 3.66792 8
19 -20 -7 4.26613 3.83839 7
-19 -1 7 10.4289 6.52643 10
1 -20 7 14.6556 6.13274 9
0 -20 -7 -1.5757 2.51792 8
0 20 -7 5.82888 7.21273 12
-10 21 -7 10.0748 6.73016 10
11 10 -7 13.863 5.64661 11
-10 -11 7 3.07139 4.92533 9
-21 10 7 12.3213 7.3635 10
-11 21 7 8.66275 5.96317 11
11 -21 7 5.66467 4.85258 8
21 -10 7 8.12788 5.29703 7
-21 11 -7 11.0744 5.57517 9
21 -11 -7 8.98542 4.61503 7
10 -21 -7 4.85215 4.66502 8
-21 11 7 12.8186 7.55175 10
10 -21 7 13.1105 5.29582 8
10 11 -7 21.7893 6.21932 11
11 -21 -7 11.9697 4.69711 8
-21 10 -7 9.43057 5.63619 9
-11 21 -7 8.63592 6.79131 10
21 -11 7 9.00186 5.17219 7
-10 21 7 16.8608 5.73189 11
-12 -9 -7 2.838 4.4956 9
12 9 -7 14.8275 5.56504 11
-9 -12 7 12.1628 5.50851 9
21 -12 -7 12.2225 5.28077 7
-12 21 7 2.31265 5.87712 11
-9 21 -7 9.80619 6.47671 10
21 -9 7 10.0532 5.40161 7
9 -21 -7 10.3015 4.96588 8
12 -21 7 12.5248 4.79868 8
-21 12 -7 4.78628 5.55087 9
-21 9 7 10.9724 7.16163 10
9 12 -7 19.6855 6.1452 11
-21 12 7 10.1647 7.12028 10
-9 21 7 16.0382 5.71689 11
9 -21 7 8.41604 5.14913 8
-12 21 -7 15.0257 6.91623 10
21 -12 7 15.1834 5.04658 7
-21 9 -7 8.75197 5.229 9
21 -13 -7 8.01723 4.91077 7
-8 21 -7 8.75489 6.90421 10
21 -8 7 9.48294 5.31789 7
-21 13 -7 14.7881 5.91814 9
-8 -13 7 11.5128 5.44923 9
-13 21 7 19.4042 6.14567 11
-13 -8 -7 8.47366 5.31598 9
-21 8 7 19.4869 7.28975 10
8 -21 -7 13.5967 4.97386 8
13 8 -7 15.2368 5.83094 11
13 -21 7 17.8073 5.29227 8
21 -13 7 10.9852 5.25823 7
-13 21 -7 22.7086 7.39532 10
8 13 -7 24.0692 6.28118 11
8 -21 7 16.4384 5.25581 8
-21 8 -7 8.04825 5.17321 9
-13 -8 7 10.2305 6.34337 10
-8 21 7 16.4294 5.54547 11
-21 13 7 17.2797 7.2924 10
14 -21 7 1.45428 4.85392 8
7 -21 -7 -1.3223 4.49751 8
14 7 -7 12.7343 5.70839 11
-21 7 7 -0.6384 6.78073 10
-7 21 -7 2.6722 5.97235 12
-21 14 -7 0.64565 5.62666 9
-14 -7 -7 -1.915 5.19989 9
21 -14 -7 4.82454 4.87182 7
21 -7 7 0.7625 4.34454 7
-7 -14 7 -0.3022 4.99748 9
-14 21 7 3.14985 4.92748 11
-7 21 -7 -2.5392 6.37696 10
-14 -7 7 2.24122 6.25368 10
21 -14 7 0.98077 4.97925 7
-21 14 7 4.22003 6.4698 10
-7 21 7 6.08961 5.65767 11
7 -21 7 -2.5504 3.58968 8
7 14 -7 2.05565 5.00381 11
7 14 -7 1.22308 4.11568 12
-14 21 -7 8.69521 7.19014 10
-21 7 -7 3.56196 4.71483 9
6 -21 -7 3.80974 4.40804 8
-21 6 7 -2.8932 6.31318 10
-6 21 -7 9.85221 7.3358 12
-6 21 -7 2.57938 6.45417 10
21 -15 -7 4.01278 4.49124 7
-6 -15 7 -0.1665 5.01148 9
-21 15 -7 4.3998 5.86766 9
15 -21 7 -0.1186 4.35763 8
-15 -6 -7 -1.4721 5.19628 9
15 6 -7 8.51786 5.33044 11
21 -15 7 6.9406 4.93417 7
-6 21 7 3.29239 5.64685 11
6 15 -7 5.05313 5.28236 11
-15 21 -7 5.58173 6.89906 10
-21 6 -7 4.35785 4.76679 9
-15 -6 7 2.53759 6.18606 10
6 15 -7 6.01598 5.6617 12
-21 15 7 2.54695 6.03711 10
-21 16 -7 -3.2263 5.69205 9
5 -21 -7 5.90798 4.56647 8
-5 21 -7 9.19619 7.39012 12
16 -21 7 5.32589 4.50202 8
-5 -16 7 4.43295 5.01 9
-5 21 -7 0.98296 5.88705 10
-21 5 7 4.95536 6.07534 10
21 -16 -7 2.26869 4.28856 7
-16 -5 -7 1.52935 5.10586 9
21 -16 7 3.00409 4.59275 7
-21 5 -7 2.63974 4.62286 9
-16 -5 7 1.20485 6.22701 10
-16 21 -7 5.63695 6.62585 10
-5 21 7 4.65253 6.11146 11
-21 16 7 3.46831 5.36912 10
5 16 -7 3.54106 5.98796 12
5 16 -7 3.46365 5.27354 11
-4 21 -7 26.4587 7.51171 12
-4 21 -7 4.41363 5.7533 10
-4 -17 7 14.8655 5.63485 9
-21 4 7 18.6397 6.48991 10
21 -17 -7 16.1918 4.97088 7
4 -21 -7 10.6569 4.52086 8
17 -21 7 17.8914 4.99564 8
-17 -4 -7 14.5627 5.55503 9
4 17 -7 15.6348 5.67732 11
4 17 -7 16.5271 6.02522 12
-17 -4 7 8.87585 6.50137 10
-4 21 7 21.4038 6.58201 11
21 -17 7 8.69724 4.26589 7
4 -21 7 18.5788 5.59228 9
-17 21 -7 11.1921 5.77122 10
-21 4 -7 12.7252 4.97522 9
-21 17 7 1.23458 4.53982 10
21 -18 -7 29.6139 5.40597 7
-18 -3 -7 23.4468 6.11387 9
-21 3 7 18.993 6.56552 10
18 -21 7 16.1723 5.03288 8
3 -21 -7 22.0501 4.67797 8
-3 -18 7 31.2947 6.35435 9
-3 21 -7 29.3558 7.86382 12
3 18 -7 24.9409 6.03207 11
-21 3 -7 25.5367 5.65804 9
3 18 -7 23.4876 6.38917 12
-18 -3 7 16.6746 6.70406 10
-3 21 7 29.9623 7.36036 11
3 -21 7 24.5884 6.05185 9
-22 11 -7 10.208 4.8553 9
-11 22 -7 19.5403 6.82816 10
-22 11 7 28.0797 6.81104 10
11 -22 7 18.4122 4.82962 8
-11 22 7 10.7874 5.36502 11
11 -22 -7 17.9386 3.94499 8
22 -11 7 20.9304 5.29692 7
11 11 -7 19.2362 5.54571 11
-22 12 -7 6.18888 4.51428 9
-12 22 7 7.46231 5.15924 11
-10 22 -7 10.1803 6.17157 10
-10 -12 7 -1.5987 3.31469 9
22 -12 -7 -0.6009 3.79241 7
22 -10 7 7.56538 5.02053 7
12 -22 7 8.31766 4.56142 8
10 -22 -7 6.6493 4.21238 8
12 10 -7 11.5051 5.21513 11
-22 10 7 2.45303 6.22455 10
10 -22 7 4.91615 4.52212 8
-10 22 7 10.3649 5.61549 11
-12 -10 7 4.03171 5.62424 10
10 12 -7 2.62436 4.93224 11
-22 12 7 -0.1771 6.19285 10
-12 22 -7 3.67587 6.61852 10
22 -12 7 5.81375 4.3667 7
-22 10 -7 0.49395 4.56083 9
9 -22 -7 12.4166 4.22 8
13 -22 7 11.6127 4.90957 8
-13 22 7 4.98934 4.28009 11
13 9 -7 17.5282 5.23997 11
-22 9 7 11.8974 6.43399 10
-22 13 -7 10.4779 5.083 9
22 -9 7 8.78224 4.83571 7
22 -13 -7 11.479 4.6421 7
-9 -13 7 9.07507 4.27723 9
-9 22 -7 9.36266 6.4835 10
-22 9 -7 9.01464 4.78781 9
-13 -9 7 11.6166 5.99124 10
22 -13 7 7.1967 4.39271 7
-13 22 -7 16.3885 6.8294 10
9 13 -7 10.8777 5.40772 11
9 -22 7 4.12 3.98457 8
-9 22 7 12.5451 5.12916 11
-22 13 7 9.12475 6.20378 10
14 8 -7 14.5899 5.08932 11
22 -14 -7 14.5075 4.81328 7
-14 -8 -7 0.35898 3.42014 9
14 -22 7 7.99678 4.75053 8
-22 14 -7 11.6411 4.8165 9
8 -22 -7 11.4042 4.50464 8
-22 8 7 12.0638 6.37019 10
-8 -14 7 6.46351 4.44079 9
-8 22 -7 16.0391 6.62997 10
-22 8 -7 13.5663 4.87514 9
-8 22 7 8.82643 5.47965 11
-14 22 -7 12.4502 6.9368 10
22 -14 7 6.50728 4.66607 7
8 14 -7 9.01673 6.03812 11
-14 -8 7 4.83652 5.99103 10
-22 14 7 7.70222 5.90777 10
-7 22 -7 4.4759 6.30222 10
7 -22 -7 0.51295 4.17336 8
-22 15 -7 -0.0551 3.72811 9
-22 7 7 5.02319 6.08534 10
22 -15 -7 2.74054 4.51385 7
15 7 -7 5.05302 3.63481 11
15 -22 7 6.49234 4.89815 8
-15 -7 -7 4.21479 4.23802 9
-7 -15 7 5.4499 4.61634 9
22 -15 7 0.90021 4.54156 7
-15 -7 7 5.50185 5.94987 10
7 15 -7 5.4259 5.45732 11
-7 22 7 4.4558 5.74721 11
-22 15 7 0.62845 5.39382 10
-22 7 -7 3.08298 4.6665 9
-15 22 -7 1.09533 6.77885 10
22 -16 -7 18.6662 5.12474 7
-6 22 -7 -0.6035 4.39071 12
-6 22 -7 9.66925 6.30503 10
6 -22 -7 14.6004 4.326 8
-22 6 7 26.3022 6.73228 10
16 -22 7 18.1627 5.21018 8
-6 -16 7 13.9935 5.04469 9
-16 -6 -7 12.4597 5.02298 9
22 -16 7 18.8567 5.11514 7
-16 -6 7 13.61 6.70064 10
-22 16 7 12.1014 4.47575 10
6 -22 7 23.3003 5.57675 9
-16 22 -7 24.2161 7.20257 10
-6 22 7 32.2285 6.23482 11
-22 6 -7 19.7651 4.9617 9
6 16 -7 29.0388 6.47078 11
5 -22 -7 8.17465 4.69609 8
17 -22 7 3.51623 5.11087 8
-5 22 -7 4.90519 4.93042 12
-5 22 7 6.07662 6.76481 11
5 17 -7 7.32299 6.08906 11
23 -11 7 -0.1308 4.74345 7
12 -23 7 1.69372 4.55174 8
12 11 -7 5.684 5.30118 11
-11 23 -7 2.6105 6.72017 10
11 12 -7 18.0246 5.57408 11
11 -23 7 5.47624 4.02267 8
-12 23 -7 6.37757 6.72286 10
-11 23 7 1.72697 3.87023 11
23 -12 7 3.59632 5.03213 7
13 10 -7 25.0312 5.52563 11
13 -23 7 18.7878 4.66166 8
-10 23 7 32.5226 6.42099 11
10 13 -7 38.2956 6.19487 11
0 0 8 -5.8422 14.7101 3
0 0 8 -3.2574 12.0699 2
0 0 -8 4.2572 6.1741 5
-1 0 -8 82.0173 12.2201 5
1 -1 8 109.794 15.2602 6
0 1 8 100.313 15.7872 6
1 0 8 125.109 15.8348 6
-1 1 8 121.636 22.539 3
0 1 8 98.4552 21.6249 3
1 -1 8 100.54 21.1378 3
-1 0 8 112.7 21.6624 3
0 -1 8 112.393 20.8095 3
1 0 8 96.1843 21.0817 3
0 -1 -8 103.408 12.0889 5
-1 2 8 104.993 22.0645 3
1 1 8 120.078 24.1551 3
1 -2 -8 84.5186 11.8128 5
-2 1 8 108.561 21.7248 3
-2 1 -8 97.6747 11.8448 5
2 -1 8 114.903 15.6487 6
-2 1 8 57.4861 16.8686 2
-1 -1 -8 102.167 12.7932 5
-1 -1 8 70.9654 18.6998 3
2 -1 8 76.7652 19.7457 3
1 1 8 115.453 15.7958 6
2 -2 8 25.2479 9.924 6
-2 0 -8 20.9398 7.45384 5
0 -2 -8 22.5394 8.53095 5
2 0 8 31.4943 10.5036 6
0 2 8 18.2636 9.8772 6
-2 0 8 25.6083 16.7101 3
-2 0 8 -1.2059 13.4263 2
2 -2 8 -6.5233 15.5369 3
0 -2 8 5.90074 14.5977 3
2 0 8 35.249 19.1964 3
0 2 8 28.1912 17.0924 3
-2 2 8 11.1092 18.0837 3
2 -2 -8 42.7398 10.4356 4
-1 -2 8 0.50555 19.6686 2
1 2 8 19.1087 18.5076 3
-2 3 8 45.4226 19.3964 3
-3 1 8 19.0557 14.8854 2
-2 -1 -8 37.7217 8.90897 5
-1 -2 8 0.63943 16.5887 3
3 -2 -8 34.6538 9.92286 4
-3 1 8 28.133 18.9006 3
2 -3 8 21.3378 8.14026 6
3 -1 8 -2.6424 17.9464 3
1 2 8 42.3348 10.4607 6
1 -3 -8 27.1431 7.98513 5
3 -1 8 48.1439 11.1482 6
-1 3 8 52.1957 12.2673 6
2 -3 -8 51.631 11.421 4
-3 2 8 10.1632 16.0223 2
-2 -1 8 -0.8929 13.0634 2
2 1 8 30.2504 9.93822 6
2 -3 -8 17.4401 6.37034 5
-1 -2 -8 29.5766 8.70039 5
3 -1 -8 34.7729 9.79596 4
-2 -1 8 11.765 17.5954 3
-1 3 8 27.3569 17.6653 3
3 -2 8 -3.8282 16.574 3
3 -2 8 34.5329 10.2439 6
-3 1 -8 17.69 7.23134 5
-3 2 8 20.8912 18.523 3
3 -3 -8 46.2821 10.9487 4
3 0 8 38.0017 11.2598 6
0 -3 -8 35.5981 9.10623 5
-3 0 8 16.3565 16.0083 3
-3 0 -8 32.039 8.7704 5
0 3 8 29.729 21.4987 3
-3 0 8 1.32401 12.563 2
3 -3 8 15.4805 8.32341 6
0 3 8 30.9716 11.3488 6
-3 3 8 28.5618 19.4637 3
2 -4 -8 107.145 14.4149 5
-2 -2 -8 120.443 14.9025 5
2 2 8 126.776 15.7273 6
4 -2 8 123.467 16.6986 6
-2 4 8 69.7149 21.2244 3
-2 4 8 141.164 17.4667 6
4 -2 -8 130.586 15.9966 4
2 -4 -8 126.748 15.1076 4
-4 2 8 69.515 20.6066 3
1 -4 -8 121.741 14.9805 5
4 -1 8 131.495 16.6056 6
-4 1 8 72.4109 21.9244 3
-3 4 8 77.5631 23.6046 3
1 3 8 138.718 17.8549 6
-3 -1 -8 123.407 13.7172 5
4 -3 -8 139.818 16.3552 4
3 -4 -8 90.4163 12.5313 4
4 -1 -8 57.4604 11.3339 4
-4 3 8 39.9085 19.8751 3
-1 -3 -8 71.7449 10.9599 5
-3 -1 8 0.33149 18.3115 3
-4 1 -8 81.0286 11.1373 5
3 1 8 82.6489 13.0845 6
4 -3 8 51.894 10.4465 6
-3 -1 8 -1.7643 17.2054 2
-1 4 8 39.1568 20.7613 3
-4 0 8 2.3609 14.3932 2
-4 0 -8 38.3008 8.72093 5
4 0 8 30.288 10.3023 6
0 4 8 -0.3765 21.6003 3
-4 4 8 16.5548 19.4629 3
-4 0 8 -0.1781 16.2968 3
4 -4 8 45.7872 10.7359 4
0 -4 -8 34.7256 10.166 5
4 0 -8 36.2131 10.4366 4
0 4 8 42.6368 12.409 6
4 -4 -8 50.495 11.6532 4
5 -2 8 58.1693 12.1984 6
3 -5 8 57.7589 11.5838 4
2 3 8 76.6211 13.803 6
2 -5 -8 57.6559 11.5058 5
5 -3 -8 73.8177 13.0156 4
2 -5 -8 76.1439 12.3011 4
-3 -2 -8 55.5313 10.2912 5
3 2 8 59.1686 12.4205 6
3 -5 -8 77.7346 12.9056 4
-5 3 8 -3.3738 18.8256 2
5 -2 -8 41.8193 11.4115 4
5 -3 8 62.6314 11.4383 4
3 -5 -8 54.7708 9.89295 5
5 -3 8 46.3532 10.5492 6
-2 -3 -8 61.8605 10.8763 5
-2 5 8 43.499 10.9631 6
-5 3 8 1.19784 20.7813 3
-4 5 8 0.82107 33.9344 3
1 4 8 91.43 14.547 6
5 -1 8 111.627 15.2773 6
-4 -1 -8 119.109 13.984 5
5 -4 -8 115.272 15.1773 4
4 -5 8 90.1212 13.7884 4
1 -5 -8 93.1842 13.8702 5
5 -1 -8 95.5337 15.7391 4
4 -5 -8 104.613 16.1996 4
-5 1 -8 86.2153 12.921 5
4 1 8 104.018 17.1123 6
-1 5 8 145.768 17.1206 6
-1 -4 -8 85.4235 12.506 5
-5 0 -8 189.569 17.6115 5
5 0 8 172.762 19.8309 6
0 -5 -8 170.285 17.6646 5
5 0 -8 119.107 16.8221 4
0 5 8 171.692 19.3901 6
5 -5 8 159.609 18.1677 4
5 -5 -8 144.299 18.0714 4
6 -3 8 220.588 20.8281 4
3 3 8 253.096 23.7208 6
-3 -3 -8 218.354 20.3835 5
6 -3 -8 223.722 21.9629 4
-3 6 8 209.999 21.5098 6
3 -6 -8 220.831 20.8189 5
6 -3 8 197.056 20.4773 6
3 -6 -8 237.885 22.2681 4
6 -4 -8 225.669 23.2608 4
4 -6 8 248.236 23.2139 4
6 -2 8 243.315 23.3336 6
2 -6 -8 247.865 22.5865 5
2 4 8 254.672 23.4071 6
-4 -2 -8 264.976 21.6801 5
2 -6 -8 249.673 23.4538 4
6 -2 8 250.31 23.2466 4
-2 6 8 209.643 22.4258 6
4 -6 -8 241.083 21.7506 4
6 -4 8 203.392 20.538 4
-2 -4 -8 193.399 19.3244 5
4 2 8 199.976 22.4256 6
6 -2 -8 194.383 21.5541 4
5 -6 8 54.5076 11.8412 4
1 5 8 27.2596 10.6741 6
-5 -1 -8 40.1584 10.1472 5
6 -5 -8 45.0591 11.3493 4
1 -6 -8 41.4306 10.8141 5
6 -1 8 44.9573 12.2509 6
6 -1 8 28.7174 10.4285 4
-1 -5 -8 13.9829 9.02863 5
6 -5 8 18.3644 10.2032 4
5 1 8 33.1984 12.2588 6
-6 1 -8 37.0841 10.268 5
5 -6 -8 24.9724 10.4573 4
-1 6 8 29.0024 11.4477 6
6 -1 -8 30.4359 11.1372 4
-6 0 -8 -4.8227 8.97364 5
0 -6 -8 -1.4043 9.1236 5
6 -6 8 -1.1397 9.17701 4
6 0 8 8.82767 11.4036 6
6 0 8 5.04212 10.1787 4
6 0 -8 -1.1164 11.244 4
6 -6 -8 12.1362 9.50713 4
0 6 8 3.02658 10.6567 6
7 -4 -8 35.0575 12.2562 4
7 -3 8 62.0929 11.9478 4
-4 7 8 42.6238 13.0547 6
3 -7 -8 28.9862 11.0217 5
-4 -3 -8 61.54 10.8945 5
7 -3 8 26.4794 10.6854 6
3 4 8 55.4157 14.0354 6
4 -7 8 8.42887 8.8576 4
3 -7 -8 45.1367 11.881 4
7 -3 -8 40.5297 12.4552 4
4 -7 -8 34.8356 11.276 5
-3 7 8 44.0135 12.9867 6
7 -4 8 54.0972 12.2028 4
4 3 8 52.9737 13.3385 6
4 -7 -8 52.8335 11.5121 4
-3 -4 -8 61.6578 11.614 5
2 -7 -8 113.438 16.8239 5
-5 -2 -8 106.192 15.7661 5
5 -7 8 112.812 16.7076 4
7 -2 8 121.614 17.0828 4
2 -7 -8 132.077 17.3477 4
7 -2 8 121.492 16.4173 6
7 -5 -8 112.943 17.6493 4
2 5 8 114.355 18.7991 6
-2 7 8 133.619 18.0091 6
-2 -5 -8 135.924 16.439 5
2 -7 8 127.183 15.7329 5
5 2 8 151.074 18.4291 6
7 -5 8 130.588 16.4124 4
5 -7 -8 151.681 18.7136 4
7 -2 -8 131.653 18.9253 4
7 -1 8 79.0498 14.9184 6
1 6 8 51.6016 13.271 6
1 -7 -8 84.5611 13.4807 5
7 -1 8 87.5027 14.0934 4
6 -7 8 64.4016 13.1825 4
7 -6 -8 90.7801 15.4274 4
-6 -1 -8 81.3932 12.6171 5
6 -7 -8 133.847 16.6789 4
7 -6 8 103.986 14.9828 4
-1 7 8 104.536 16.4748 6
6 1 8 108.371 16.663 6
7 -1 -8 65.7671 13.502 4
-7 1 -8 97.3087 13.3068 5
6 1 8 82.44 14.6475 4
-1 -6 -8 97.6315 13.8234 5
7 -7 8 23.3809 10.7745 4
7 0 8 38.751 12.4583 6
0 -7 -8 33.2524 11.1519 5
7 -7 -8 59.5612 13.8691 4
7 0 8 32.1597 11.2048 4
-7 0 -8 35.362 10.9048 5
0 7 8 26.4728 12.417 6
-4 -4 -8 254.234 22.3239 5
-4 8 8 252.877 25.812 6
4 -8 8 219.376 22.3052 5
8 -4 -8 271.222 25.5483 4
4 -8 -8 230.922 23.7601 4
4 -8 -8 256.572 23.9109 5
8 -4 8 236.187 23.5357 4
4 4 8 255.688 25.6381 6
8 -3 8 73.8297 13.888 6
3 -8 -8 118.954 16.0983 4
8 -5 -8 76.937 14.9803 4
-5 8 8 98.8518 16.407 6
-5 -3 -8 103.368 15.044 5
5 -8 8 86.2809 12.8281 5
3 -8 -8 81.7504 13.9559 5
8 -3 8 110.313 15.0019 4
3 5 8 100.91 15.2202 6
-3 -5 -8 103.66 13.793 5
5 -8 -8 60.1019 13.0713 5
8 -5 8 107.361 15.0844 4
8 -3 -8 73.2158 15.547 4
5 -8 -8 124.198 16.5783 4
3 -8 8 81.5528 12.3068 5
-3 8 8 115.792 17.5299 6
5 3 8 113.315 17.5345 6
6 -8 8 29.6866 10.7678 4
8 -2 8 42.8564 11.4439 4
2 -8 -8 52.4269 12.5441 5
2 6 8 59.2426 14.5082 6
8 -2 8 48.3176 13.0468 6
8 -6 -8 45.7217 13.9782 4
-6 -2 -8 48.7027 10.8757 5
2 -8 8 47.2946 10.1461 5
8 -6 8 53.7819 12.4509 4
6 -8 -8 49.0375 12.4379 4
6 2 8 55.2646 14.4898 6
-2 8 8 45.4309 14.142 6
6 2 8 46.0525 13.3775 4
-2 -6 -8 64.3689 12.3932 5
8 -2 -8 49.6458 13.4891 4
1 -8 -8 26.1518 11.0687 5
8 -7 -8 32.4746 13.056 4
8 -1 8 35.54 13.1997 6
1 7 8 25.0486 12.5096 6
7 -8 8 11.7288 10.5586 4
8 -1 8 25.7568 10.4844 4
-7 -1 -8 23.5605 9.33845 5
-1 8 8 24.3133 12.1119 6
7 -8 -8 40.0816 13.0052 4
7 1 8 22.1756 11.476 4
8 -7 8 40.4464 11.8256 4
7 1 8 23.142 11.7967 6
-1 -7 -8 23.6116 9.32175 5
0 8 8 15.5318 13.246 6
8 -8 8 -0.1801 10.6568 4
-8 0 -8 -3.1373 9.08612 5
8 0 8 8.00827 9.84649 4
0 -8 -8 11.3436 9.48358 5
8 0 8 18.1485 12.5797 6
8 -8 -8 15.0132 11.8386 4
5 -9 8 97.966 13.8592 5
4 5 8 121.306 20.1832 6
9 -4 8 116.994 17.2584 4
9 -5 -8 141.001 21.1573 4
4 -9 -8 143.548 17.7787 4
4 -9 -8 126.819 18.3205 5
-5 -4 -8 128.609 16.2186 5
-5 9 8 93.1032 16.829 6
4 -9 8 84.8414 13.2458 5
-4 9 8 113.807 18.0259 6
5 4 8 165.734 19.8917 6
9 -4 -8 78.4763 16.7192 4
5 -9 -8 116.127 16.3306 5
5 -9 -8 108.085 17.8412 4
-4 -5 -8 135.813 15.1952 5
9 -6 -8 34.5259 13.3038 4
9 -3 8 38.4631 12.0173 6
3 -9 -8 35.8423 12.4629 4
-6 9 8 57.0103 14.8838 6
-6 -3 -8 37.8431 10.7165 5
3 -9 -8 40.4824 12.4033 5
3 6 8 43.8313 14.0718 6
6 -9 8 38.7073 10.3163 5
9 -3 8 31.1646 10.7609 4
6 3 8 57.0474 13.689 4
6 3 8 86.1481 15.612 6
-3 -6 -8 90.2609 13.4616 5
6 -9 -8 60.6376 13.6642 4
9 -3 -8 40.2097 14.4973 4
6 -9 -8 28.5647 11.0145 5
3 -9 8 54.8018 11.4387 5
-3 9 8 52.3952 15.2498 6
9 -6 8 64.1443 13.0742 4
9 -2 8 38.4405 11.534 4
9 -7 -8 62.4034 14.8172 4
7 -9 8 48.0766 11.2738 5
2 -9 -8 33.2795 11.923 5
2 7 8 60.8384 15.1793 6
9 -2 8 26.6886 12.2158 6
-7 -2 -8 68.3706 12.0547 5
7 -9 8 43.9365 12.6265 4
7 2 8 61.2031 13.8235 4
9 -2 -8 31.8379 12.8751 4
9 -7 8 71.8879 13.6557 4
-2 9 8 54.504 15.0246 6
-2 -7 -8 74.4798 12.2014 5
7 2 8 81.5291 15.5073 6
2 -9 8 38.2538 9.8188 5
7 -9 -8 71.221 14.5656 4
9 -1 8 92.6185 16.083 6
8 -9 8 114.371 17.1194 4
9 -1 8 97.5267 15.8975 4
1 8 8 165.083 20.574 6
-8 -1 -8 116.796 16.3429 5
1 -9 -8 146.932 17.4657 5
8 -9 8 107.395 16.0172 5
9 -8 -8 100.805 16.7228 4
-1 -8 -8 100.661 14.7705 5
-1 9 8 95.1854 17.5601 6
9 -8 8 90.2218 15.8183 4
8 1 8 145.255 19.3906 6
8 -9 -8 159.436 19.5312 4
8 1 8 112.964 16.8854 4
9 0 8 48.5296 12.6515 4
0 9 8 45.6602 15.0566 6
9 -9 8 89.5718 13.5246 5
9 -9 8 56.0535 14.8516 4
9 0 8 43.9494 13.7434 6
0 -9 -8 67.2649 12.6073 5
9 0 -8 57.9794 16.3741 6
10 -5 -8 169.186 24.0563 4
-5 10 8 151.051 22.2521 6
5 -10 8 113.521 17.4672 5
5 5 8 158.323 21.8038 6
5 -10 -8 135.703 19.2164 4
-5 -5 -8 150.748 17.5582 5
10 -5 8 144.719 19.0205 4
5 -10 -8 110.494 17.1936 5
-6 10 8 54.1525 15.4757 6
10 -4 8 40.8517 11.2605 4
4 -10 -8 58.6524 14.1775 4
10 -6 -8 46.0467 15.1972 4
4 6 8 48.7193 13.7399 6
6 -10 8 61.1106 11.8791 5
-6 -4 -8 53.8218 11.67 5
4 -10 -8 64.8577 14.0273 5
6 4 8 93.7191 16.1128 4
6 -10 -8 79.6207 14.4303 4
10 -6 8 67.1517 13.3007 4
4 -10 8 46.2371 11.2844 5
-4 10 8 70.3326 15.9294 6
6 4 8 87.7481 15.7811 6
-4 -6 -8 113.583 14.2867 5
6 -10 -8 55.2522 13.5532 5
10 -4 -8 68.2676 17.1984 4
10 -3 8 20.4466 11.6925 6
10 -3 8 13.4973 9.85833 4
3 -10 -8 3.07295 10.9357 5
-7 10 8 16.6321 13.7876 6
3 7 8 15.6071 13.503 6
7 -10 8 0.18253 8.49221 4
-7 -3 -8 19.4776 9.50982 5
7 -10 8 19.6944 10.2314 5
10 -7 -8 12.7041 14.0906 4
-3 10 8 10.6236 13.3969 6
10 -7 8 3.23535 10.7443 4
7 3 8 6.4051 11.7478 4
7 3 8 13.7763 13.8605 6
7 -10 -8 22.3361 11.9823 4
-3 -7 -8 2.16229 9.48709 5
10 -3 -8 15.1392 13.7328 4
3 -10 8 7.05124 9.26679 5
8 -10 8 52.6437 13.0966 4
10 -2 8 51.7797 14.6137 6
-8 -2 -8 38.4661 10.327 5
2 8 8 60.1308 16.6082 6
2 -10 -8 65.8287 13.807 5
10 -2 8 59.5176 13.8822 4
-8 10 8 62.1655 15.8485 6
8 -10 8 46.7544 11.1862 5
8 2 -8 76.0139 18.8577 6
10 -8 -8 70.4061 16.8466 4
8 2 8 63.1353 14.3593 4
-2 10 8 47.311 15.7051 6
-2 -8 -8 71.3701 12.5219 5
8 -10 -8 68.6855 14.6045 4
8 2 8 94.9362 17.2935 6
10 -8 8 76.8406 15.9693 4
1 9 8 42.72 15.9601 6
9 -10 8 58.146 14.3813 4
10 -1 8 35.5188 13.3606 6
1 -10 -8 45.6767 11.6535 5
9 -10 8 52.1858 11.5637 5
-9 -1 -8 32.9938 10.9124 5
9 1 -8 36.38 16.66 6
10 -9 -8 48.9826 15.2279 4
10 -1 8 71.0646 14.5144 4
-1 -9 -8 85.1743 13.9554 5
9 1 8 81.0258 15.6894 4
9 1 8 84.242 17.3461 6
10 -9 8 79.31 13.288 5
9 -10 -8 92.4067 17.4452 4
10 -9 8 75.7223 16.0968 4
-1 10 8 57.7435 16.8562 6
0 -10 -8 137.728 18.8833 5
0 10 8 154.79 24.9645 6
10 0 8 142.759 21.0209 4
10 -10 8 173.339 19.6285 5
10 0 8 144.94 22.1466 6
10 -10 8 102.003 17.5119 4
10 -10 -8 157.543 23.1699 4
10 0 -8 154.81 22.4932 6
5 -11 -8 11.1373 11.5255 4
5 6 8 4.23596 12.2531 6
6 -11 8 7.152 8.96426 5
5 -11 -8 2.60955 11.6041 5
11 -5 8 11.7395 11.7316 4
11 -6 -8 14.0427 15.6708 4
-6 11 8 -2.0255 12.7422 6
5 6 8 -2.2363 11.7501 4
-6 -5 -8 7.40637 9.75262 5
6 5 8 9.04639 12.8583 6
-5 11 8 8.79368 13.1115 6
6 -11 -8 13.0596 12.4332 5
-5 -6 -8 17.2316 9.9553 5
11 -5 -8 27.3827 16.4188 4
6 -11 -8 8.23901 11.501 4
6 5 8 2.37241 10.5328 4
5 -11 8 18.1854 10.0383 5
11 -6 8 15.8159 11.8922 4
11 -4 8 52.2503 13.2604 4
-7 -4 -8 80.4689 13.2863 5
11 -7 -8 75.017 18.6597 4
-7 11 8 30.4257 14.7564 6
4 7 8 86.9011 17.592 6
7 -11 8 81.0098 13.3085 5
4 -11 -8 77.3627 15.2811 5
4 -11 -8 61.7499 14.2225 4
11 -4 -8 75.5035 17.7615 4
7 -11 -8 38.884 12.4841 5
-4 11 8 60.7624 15.7215 6
7 4 8 75.918 15.8635 6
7 -11 -8 96.8794 16.3966 4
4 -11 8 70.5509 12.5939 5
-4 -7 -8 112.309 14.6192 5
7 4 8 65.0822 14.2164 4
11 -7 8 73.1206 14.0706 4
8 3 -8 6.26148 17.0486 6
11 -3 8 16.8465 11.8773 4
3 8 8 32.5656 15.1475 6
3 -11 -8 23.1295 11.8531 5
-8 11 8 4.71949 5.47486 11
8 -11 8 4.21276 9.55494 5
11 -3 8 7.78919 11.7876 6
-8 -3 -8 6.68474 9.08229 5
8 3 -8 1.29758 4.42734 11
-8 11 8 1.49008 11.8485 6
11 -8 -8 19.1938 16.2014 4
8 3 8 33.7132 14.9012 6
11 -3 -8 -1.2462 21.953 4
8 3 8 25.2883 12.617 4
3 -11 8 24.6344 10.1018 5
11 -8 8 16.909 12.7803 4
8 -11 -8 45.4384 14.3864 4
-3 11 8 32.2949 15.1783 6
-3 -8 -8 33.7997 11.7736 5
9 -11 8 29.2247 11.978 4
11 -2 8 44.3468 12.9333 4
-9 11 8 1.35613 11.9635 6
-9 -2 -8 42.9826 11.2208 5
9 2 -8 25.3646 6.18597 11
2 -11 -8 42.9621 11.7974 5
11 -9 -8 62.8272 17.1848 4
9 -11 8 68.763 12.6383 5
11 -2 8 72.319 15.0357 6
-11 9 -8 13.3824 5.89457 8
11 -9 -8 10.8308 7.83591 7
-9 11 8 8.33701 6.02124 11
9 2 -8 76.41 20.4216 6
2 9 8 52.1146 16.2657 6
11 -9 8 81.9098 13.7211 5
9 2 8 49.3114 14.4273 4
-2 11 8 78.4805 17.8779 6
-2 -9 -8 105.056 15.414 5
9 2 8 113.897 18.888 6
9 -11 -8 65.0579 15.3581 4
11 -9 8 63.195 15.4467 4
11 -10 -8 106.705 12.6309 7
10 1 -8 163.774 24.0083 6
-10 11 8 86.8567 11.4937 11
11 -10 -8 169.391 24.2166 4
1 -11 -8 135.168 18.0733 5
10 1 -8 94.5678 11.9767 11
11 -1 8 151.331 20.4921 4
11 -1 8 155.835 21.8134 6
1 -11 -8 101.729 12.5478 8
-1 11 -8 77.5701 12.0919 12
-11 10 -8 92.8284 11.566 9
10 -11 8 131.645 21.1156 4
1 10 8 167.426 24.5023 6
1 10 -8 89.2543 11.6334 12
-1 11 8 79.1887 18.0976 6
10 1 8 66.1167 14.4031 4
10 -11 -8 101.605 17.2265 4
-1 -10 -8 108.032 14.6038 5
11 -1 -8 58.0118 8.43779 11
10 1 8 118.105 18.1699 6
-10 11 -8 55.6459 8.44569 9
11 -10 8 64.0849 15.2972 4
-1 -10 -8 97.3801 10.1988 8
10 -11 -8 83.9744 10.8398 7
11 0 -8 -13.037 17.1698 6
0 -11 -8 6.05237 7.81943 8
11 -11 8 -1.9301 10.5229 5
-11 11 8 8.8616 6.42155 11
0 11 -8 -6.5491 9.08433 12
11 0 8 4.44637 12.5756 4
-11 11 -8 -0.1024 6.60523 9
0 11 8 7.76534 15.444 6
11 0 8 5.59783 13.4028 6
0 11 -8 3.26229 6.12658 10
0 -11 -8 5.6214 11.1499 5
11 -11 -8 -6.8432 8.44735 7
11 0 -8 3.44493 6.88964 11
11 -11 -8 -1.7871 14.7738 4
11 -11 8 -0.8359 13.3735 4
-6 -6 -8 8.38964 9.47087 5
-12 6 -8 2.46269 5.12903 9
6 -12 -8 5.33744 12.1857 4
6 6 -8 1.47064 5.58471 11
-6 12 -8 4.87113 5.09095 9
6 6 8 14.6913 12.4186 6
6 -12 -8 11.7697 12.6067 5
12 -6 -8 0.56236 15.7905 4
12 -6 8 2.68729 12.6797 4
6 -12 8 7.85666 9.68907 5
-6 12 8 10.4252 8.0387 11
12 -7 -8 66.3174 19.7717 4
5 -12 -8 70.7709 14.7985 4
-7 12 8 48.3872 9.59711 11
-7 -5 -8 63.6907 12.5587 5
12 -5 8 82.9438 15.9138 4
7 -12 8 53.503 11.6404 5
5 -12 -8 74.3484 15.7242 5
5 7 8 86.0368 17.8529 6
-7 12 -8 44.8288 7.94964 9
12 -7 8 73.3561 14.7205 4
7 5 8 66.427 15.8801 6
12 -5 -8 89.3885 19.1185 4
5 -12 8 48.655 11.9239 5
7 -12 -8 83.3731 15.3784 4
-5 12 8 60.0491 9.66191 11
7 -12 -8 56.3901 14.1455 5
-5 -7 -8 84.2341 13.6836 5
-8 12 8 35.3855 8.44943 11
-12 8 -8 6.53655 6.43165 8
8 4 -8 35.6622 18.8663 6
-12 8 -8 26.4332 6.83711 9
8 4 -8 19.9188 6.81778 11
4 -12 -8 55.7538 13.8263 5
12 -4 8 4.39548 14.9794 6
8 -12 8 37.5996 10.198 5
-8 -4 -8 54.194 11.7397 5
12 -8 -8 37.2963 16.4497 4
4 8 8 32.4153 15.867 6
12 -4 8 30.2444 13.1403 4
-4 -8 -8 42.1438 7.15786 8
-4 -8 -8 37.6421 11.065 5
-4 12 8 22.6934 7.4483 11
-8 12 -8 32.5398 7.35579 9
4 8 -8 17.0488 6.70355 12
12 -8 8 27.4915 12.3587 4
8 4 8 38.7219 14.3049 6
8 -12 -8 47.713 14.7031 4
4 -12 8 45.5446 12.0441 5
12 -4 -8 0.30941 13.4109 4
4 8 -8 11.5888 5.65875 10
12 -9 -8 -5.221 8.69433 7
12 -9 -8 -2.4719 15.3109 4
9 -12 8 16.1002 10.36 5
9 3 -8 5.07943 6.36175 11
3 9 8 6.90982 15.0277 6
-12 9 -8 0.85661 6.4227 9
-3 12 -8 -1.2954 7.27388 10
3 -12 -8 1.16278 6.38815 8
-3 12 -8 -1.0438 6.83612 12
-9 -3 -8 7.02727 9.7122 5
9 3 -8 -2.4231 17.9723 6
-12 3 8 1.47538 7.36559 10
-12 9 -8 14.3239 7.45873 8
-9 12 8 14.7439 7.28525 11
12 -3 8 8.16683 13.2956 4
3 -12 -8 4.03499 11.49 5
12 -3 8 8.16032 11.9448 6
3 9 -8 2.26559 8.05438 12
3 9 -8 3.45557 6.1771 10
-3 -9 -8 1.73437 7.01366 8
-12 3 -8 -0.3849 6.16218 9
-3 12 8 6.81236 6.6951 11
9 -12 -8 -1.2961 12.3023 4
9 -12 -8 0.55445 5.90607 7
12 -9 8 -2.1811 11.2227 5
9 3 8 -5.6418 11.0754 4
12 -9 8 -6.4086 11.7739 4
-9 12 -8 5.93559 7.02612 9
9 3 8 8.45297 13.8595 6
3 -12 8 1.05937 7.71266 5
-3 -9 -8 3.35594 10.3382 5
10 2 -8 32.9332 7.72014 11
2 10 8 35.604 16.6498 6
10 -12 8 32.7121 12.0859 5
12 -10 -8 39.0493 17.633 4
-10 12 8 22.3114 7.71607 11
12 -2 8 24.782 13.7022 6
-2 12 -8 16.0388 9.11112 12
-10 -2 -8 19.7873 10.009 5
12 -10 -8 15.5643 9.94938 7
-2 12 -8 12.3821 6.49709 10
-12 10 -8 27.0986 7.42131 9
2 -12 -8 16.6276 8.04707 8
12 -2 8 26.9471 14.2138 4
-12 2 8 13.4936 8.76223 10
10 2 -8 26.5605 18.498 6
10 -12 8 5.47236 9.67468 4
2 -12 -8 33.0338 12.0311 5
-12 2 -8 11.961 6.92943 9
-12 10 8 23.4912 6.74817 11
12 -10 8 24.7321 6.22345 7
10 2 8 37.7102 15.6488 6
12 -10 8 21.9765 13.644 4
10 2 8 4.41707 10.8124 4
2 10 -8 27.1704 9.75956 12
-10 12 -8 35.9314 8.08119 9
10 -12 -8 33.2665 8.71017 7
2 10 -8 30.1419 7.88578 10
-2 -10 -8 26.3763 7.46769 8
10 -12 -8 35.7513 15.1523 4
-2 12 8 6.28641 6.1668 11
-2 -10 -8 49.9787 12.7944 5
12 -10 8 47.0438 12.9607 5
11 1 -8 24.7455 7.42883 11
1 -12 -8 31.3698 8.33354 8
-11 12 8 21.5331 7.42357 11
-12 1 8 28.5633 10.0684 10
11 1 -8 25.3757 18.2616 6
12 -1 8 32.1805 14.6437 6
1 -12 -8 29.904 11.4175 5
1 11 8 44.0271 16.7667 6
11 -12 8 38.6285 11.9848 5
-12 11 -8 43.6077 8.56608 9
11 -12 8 28.2746 13.2309 4
12 -11 -8 24.3162 9.86809 7
12 -11 -8 39.533 17.4151 4
-1 12 -8 12.1921 9.10147 12
12 -1 8 34.9702 13.8348 4
-1 12 -8 32.3975 8.26233 10
-12 1 -8 27.962 8.14391 9
11 1 8 53.8451 16.2579 6
-1 -11 -8 57.737 9.04012 8
12 -11 8 46.7558 12.5148 5
12 -1 -8 41.1468 8.42816 11
12 -11 8 47.9351 14.4872 4
11 1 8 17.654 12.9646 4
-11 12 -8 40.9919 8.21273 9
11 -12 -8 37.1293 15.4119 4
12 -1 -8 44.2875 19.0943 6
-1 -11 -8 43.6494 12.3929 5
1 11 -8 44.3131 10.9274 12
1 11 -8 43.9861 8.45778 10
11 -12 -8 53.1358 10.4274 7
-12 11 8 34.1173 7.8028 11
-12 12 8 2.98612 6.88896 11
0 -12 -8 2.30425 7.66928 8
12 0 8 1.96587 12.6396 4
12 0 -8 0.97323 6.9258 11
0 12 -8 1.22339 9.79629 12
0 -12 -8 12.4976 11.6421 5
-12 0 -8 6.82169 8.37442 9
0 12 -8 4.54376 7.60631 10
12 0 -8 0.26726 17.8819 6
12 0 8 2.59144 13.5444 6
12 -12 -8 -3.017 8.70717 7
0 12 8 0.51541 5.88916 11
12 -12 -8 3.83304 15.8764 4
12 -12 8 -1.3185 10.3293 5
-12 12 -8 -1.5553 7.03112 9
12 -12 8 -9.2365 12.5111 4
13 -6 8 5.71022 11.908 4
-7 -6 -8 4.50574 4.49929 8
13 -7 -8 28.3945 18.1794 4
-6 13 -8 6.6064 7.29215 9
-13 7 -8 6.66765 5.53309 8
7 -13 8 1.74105 9.70393 5
-13 7 -8 2.52369 7.22093 9
-7 13 8 11.4107 8.88971 11
6 7 8 13.4032 14.6281 6
-7 -6 -8 7.33106 10.7206 5
7 6 -8 5.29871 6.66655 11
6 -13 -8 4.04237 13.0465 5
6 -13 -8 2.96528 11.844 4
7 -13 -8 9.40543 12.3272 4
-6 -7 -8 11.0364 10.7756 5
6 7 -8 -0.3413 7.12037 11
-7 13 -8 -1.5746 6.92086 9
6 -13 8 8.14763 10.6423 5
-13 6 -8 3.70133 7.47413 9
13 -7 8 5.28564 13.0524 4
7 6 8 4.93982 13.039 6
6 7 -8 -0.6064 5.04549 12
7 -13 -8 2.05696 12.7711 5
-6 -7 -8 8.44801 6.42771 8
13 -6 -8 2.80748 16.44 4
-6 13 8 0.19577 8.44658 11
5 8 8 22.9122 14.7773 6
5 -13 -8 -4.7934 5.68781 8
-8 -5 -8 15.2178 10.4075 5
-13 8 -8 28.7755 6.99909 8
-13 5 8 4.86162 6.89724 10
-5 13 -8 -2.8894 5.26809 10
-13 8 -8 18.1611 7.77619 9
13 -8 -8 10.8539 8.53514 7
-8 -5 -8 -0.7176 4.98971 8
-8 13 8 22.5327 9.04875 11
-5 13 -8 10.2268 7.43929 9
8 5 -8 10.8194 7.52205 11
13 -8 -8 9.43795 16.5155 4
13 -5 8 14.9061 13.235 4
8 -13 8 10.5765 9.72489 5
5 -13 -8 23.3191 13.4705 5
8 5 -8 36.0536 19.3529 6
-5 -8 -8 9.65237 10.52 5
-5 13 8 22.0133 8.88326 11
5 8 -8 6.25668 7.45369 12
8 -13 -8 -0.1654 11.5427 5
5 -13 8 22.307 10.8494 5
8 -13 -8 7.45228 12.7758 4
-5 -8 -8 19.1777 7.40042 8
8 5 8 20.9021 14.4196 6
13 -5 -8 7.60816 15.0074 4
13 -8 8 7.32001 12.0555 4
-8 13 -8 11.4275 7.59984 9
-13 5 -8 13.7309 8.30443 9
5 8 -8 12.6014 7.09194 11
-13 9 -8 74.3931 10.2908 8
4 -13 -8 40.5125 9.27112 8
4 9 8 69.8536 18.2539 6
9 4 -8 104.279 23.7436 6
-9 13 8 67.0983 10.1252 11
13 -4 8 45.7381 14.1275 4
4 -13 -8 75.6945 15.7444 5
13 -9 -8 64.6251 12.0569 7
-4 13 -8 53.3747 8.61046 10
9 -13 8 85.4361 13.5712 5
9 4 -8 71.1236 9.61348 11
-13 9 -8 81.037 10.3055 9
-9 -4 -8 51.2966 12.1292 5
-13 4 8 40.9712 10.735 10
13 -9 -8 85.3295 20.0729 4
4 9 -8 47.0608 8.60871 11
-4 -9 -8 82.6684 9.56454 8
13 -9 8 65.9715 9.89135 7
13 -9 8 49.3492 14.8563 4
4 -13 8 39.2964 10.8646 5
-9 13 -8 45.7263 9.04598 9
9 4 8 51.8696 15.2573 6
9 -13 -8 43.4394 7.71528 7
13 -9 8 95.639 15.2822 5
-13 4 -8 56.7878 10.1667 9
-4 -9 -8 70.6366 13.2969 5
4 9 -8 40.8332 9.29741 12
9 -13 -8 64.9771 15.596 4
-4 13 8 77.7461 10.498 11
-10 -3 -8 97.2863 14.3966 5
10 -13 8 102.832 14.2084 5
13 -10 -8 82.4555 18.6693 4
3 -13 -8 59.4937 13.7537 5
-10 13 8 71.854 10.262 11
13 -10 -8 86.3935 12.6775 7
-13 3 8 64.0986 11.8395 10
3 10 8 64.1176 17.5173 6
10 3 -8 95.3595 10.3205 11
-13 10 -8 81.6915 11.9952 9
-3 13 -8 53.2914 11.7545 12
13 -3 8 56.6647 15.1791 4
3 -13 -8 80.6945 10.8108 8
10 3 -8 71.6938 21.8259 6
-3 13 -8 64.5441 9.88779 10
-3 13 8 73.8399 10.9501 11
13 -10 8 52.7271 15.3553 4
13 -10 8 37.7279 9.05477 7
3 10 -8 64.2492 9.41908 10
13 -10 8 89.8343 15.0646 5
10 -13 -8 76.3819 16.8467 4
3 10 -8 38.146 9.45716 12
-10 13 -8 57.2967 9.41595 9
-3 -10 -8 64.6397 12.9756 5
-13 3 -8 47.4106 10.1202 9
-3 -10 -8 68.5173 9.2785 8
10 3 8 76.8182 17.4401 6
10 -13 -8 48.9564 9.30582 7
11 2 -8 30.3606 19.6383 6
-13 11 -8 28.5137 8.09392 9
-13 2 8 40.7421 10.9144 10
13 -2 8 34.6115 14.9795 4
11 -13 8 39.0971 12.366 5
2 11 8 25.7854 15.3938 6
13 -11 -8 21.6604 10.3808 7
13 -2 8 35.0492 13.4144 6
2 -13 -8 33.814 8.47322 8
-2 13 -8 29.5676 8.53691 10
2 -13 -8 40.866 12.9608 5
-2 13 -8 21.0941 10.4821 12
11 2 -8 19.9134 7.61141 11
-11 13 8 27.3364 7.96558 11
13 -11 -8 34.7733 17.842 4
2 11 -8 52.2492 11.2185 12
-13 2 -8 64.1164 11.2423 9
13 -11 8 40.3419 14.4982 4
11 2 8 49.5845 16.6834 6
13 -11 8 40.3925 8.75555 7
-2 -11 -8 62.7609 13.7839 5
2 11 -8 58.5777 9.33706 10
-2 13 8 60.9265 10.2914 11
11 -13 -8 47.9957 10.0571 7
-11 13 -8 70.4375 10.209 9
-13 11 8 44.7531 8.97734 11
-2 -11 -8 48.8599 8.811 8
13 -11 8 68.16 14.051 5
11 -13 -8 53.0914 16.5506 4
13 -12 -8 50.9308 10.7868 7
-1 13 -8 27.6199 10.9107 12
12 -13 8 4.22382 16.6892 4
13 -1 8 39.5107 13.6831 4
1 -13 -8 58.8834 9.42185 8
13 -12 -8 66.2511 19.0181 4
-1 13 -8 39.7639 9.23653 10
13 -1 8 39.6992 14.7346 6
-13 12 -8 51.6698 8.58789 9
12 1 -8 41.3202 20.1135 6
1 -13 -8 58.9638 14.3839 5
-13 1 8 55.2144 11.136 10
-12 13 8 56.2147 9.14214 11
-12 -1 -8 33.1069 9.18671 9
12 1 -8 42.0389 8.43072 11
12 -13 8 51.7809 12.4919 5
-13 1 -8 39.083 10.0602 9
1 12 -8 30.408 8.63781 10
-12 13 -8 38.0624 8.43521 9
13 -12 8 32.3236 7.69723 7
-1 -12 -8 38.8763 13.174 5
13 -12 8 45.3197 12.8488 5
12 -13 -8 37.6363 15.9472 4
-1 -12 -8 24.3072 8.07016 8
13 -1 -8 42.5554 19.6967 6
12 -13 -8 10.9887 9.02964 7
13 -12 8 41.8266 14.4098 4
12 1 8 40.4708 15.4651 6
-1 13 8 37.4381 9.28478 11
-13 12 8 23.6324 8.04103 11
1 12 -8 39.4707 11.403 12
13 -13 8 70.2957 13.5396 5
13 -13 -8 46.5813 10.1547 7
0 -13 -8 73.4956 9.67133 8
13 -13 8 7.57043 11.9809 4
13 0 -8 44.0906 8.86706 11
13 -13 -8 50.709 17.1378 4
0 13 -8 29.8557 10.4315 12
13 0 -8 48.7502 19.2717 6
-13 13 8 40.3731 8.86067 11
0 13 -8 46.0885 9.10436 10
0 -13 -8 41.6417 12.6502 5
0 13 8 57.8742 10.1069 11
-13 0 -8 57.2255 10.9584 9
-13 13 -8 65.92 9.5878 9
-13 0 8 70.8953 11.3742 10
13 0 8 41.4251 15.044 6
-14 7 -8 6.95504 5.74761 8
-14 7 8 8.71436 8.61202 10
-14 7 -8 -0.0304 7.35996 9
7 7 -8 2.03511 5.94705 12
7 7 8 10.4754 13.6431 6
14 -7 8 -8.7994 12.8187 4
7 -14 -8 -3.5515 10.2671 4
-7 -7 -8 -1.3494 10.6322 5
7 -14 8 -4.5844 9.78463 5
14 -7 8 3.00478 7.50926 7
-7 14 8 3.59365 8.44077 11
-7 14 -8 -1.9382 6.20148 10
-7 14 -8 -3.5979 7.40987 9
7 7 -8 -3.9326 6.7628 11
14 -7 -8 2.55727 16.3207 4
-7 -7 -8 15.9797 6.56015 8
7 -14 -8 2.48465 13.018 5
14 -7 -8 -4.3577 9.14716 7
-8 -6 -8 17.7473 10.8287 5
-14 8 -8 20.7738 7.5299 8
6 -14 -8 4.63267 12.7038 5
-14 6 8 1.21605 9.65135 10
8 -14 8 11.1311 10.1459 5
6 8 8 13.3479 13.8414 6
14 -6 8 11.2271 7.48898 7
-6 14 -8 4.77837 7.49598 10
6 -14 -8 9.40295 7.08913 8
14 -6 8 25.0483 13.271 4
-8 14 8 18.2255 8.73348 11
14 -8 -8 8.32397 17.6502 4
8 6 -8 18.9901 7.88802 11
-8 -6 -8 14.3316 5.90153 8
-14 8 -8 10.6249 7.71604 9
14 -8 -8 8.36558 9.1046 7
-6 14 -8 9.96595 7.45622 9
-6 -8 -8 12.4127 11.0404 5
-14 8 8 3.09639 6.66116 10
8 -14 -8 -0.2037 12.1217 5
6 -14 8 7.02289 10.0956 5
-8 14 -8 -1.0413 5.92704 10
6 8 -8 3.7336 6.87148 11
8 6 8 8.5298 14.3563 6
-14 6 -8 15.2153 8.22493 9
14 -8 8 8.1763 7.83598 7
-8 14 -8 11.0035 7.88239 9
-6 14 8 21.1574 8.53045 11
6 8 -8 6.51405 8.13229 12
-6 -8 -8 11.9483 6.9361 8
8 -14 -8 10.0061 11.9929 4
14 -8 8 -0.0746 12.7629 4
14 -6 -8 1.88949 15.591 4
9 5 -8 86.0258 21.8931 6
5 9 8 68.7931 16.7585 6
-5 14 -8 72.6976 10.5628 10
-9 14 8 70.4661 10.6318 11
5 -14 -8 78.9596 10.9489 8
9 5 -8 85.4748 10.3765 11
-14 5 8 81.3803 12.7172 10
-14 9 -8 84.6016 10.5897 8
14 -5 8 82.5333 16.3147 4
9 -14 8 98.9075 14.0267 5
5 -14 -8 63.2178 15.2354 5
14 -9 -8 71.7387 12.6746 7
14 -9 -8 76.8796 19.7294 4
-9 -5 -8 64.7695 12.9174 5
5 9 -8 38.6761 9.01011 11
-5 14 8 82.449 10.9793 11
9 5 8 125.303 19.8275 6
-5 -9 -8 94.6253 10.0227 8
5 -14 8 57.5828 12.1936 5
14 -9 8 94.9252 15.3487 5
9 -14 -8 46.7201 8.19129 7
14 -9 8 84.1602 10.3298 7
-14 5 -8 75.5619 11.0431 9
14 -9 8 70.7106 16.7951 4
9 -14 -8 62.2457 15.4448 4
5 9 -8 58.9453 10.16 12
-9 14 -8 99.7475 11.1603 9
-5 -9 -8 63.7237 12.9774 5
-4 14 -8 24.2934 8.28569 10
-10 -4 -8 20.0599 10.2387 5
10 -14 8 10.4365 10.4293 5
-14 4 8 8.34237 10.5002 10
14 -10 -8 22.8674 16.3835 4
14 -10 -8 12.3425 10.2986 7
-4 14 -8 19.2429 10.4389 12
4 -14 -8 17.1793 8.13414 8
14 -4 8 15.1457 13.1268 4
10 4 -8 22.5851 7.71207 11
-14 10 -8 32.1012 8.73551 9
4 -14 -8 16.2498 12.58 5
-10 14 8 25.8686 8.39103 11
10 4 -8 28.5792 21.4493 6
4 10 8 34.6152 16.18 6
-14 4 -8 14.693 8.53658 9
-4 -10 -8 15.1234 7.30939 8
10 4 8 16.7081 14.5741 6
10 -14 -8 16.6727 13.6166 4
14 -10 8 9.87488 13.377 4
4 10 -8 6.47415 7.81963 11
4 10 -8 10.4224 8.4945 12
14 -10 8 22.4818 12.3839 5
10 -14 -8 6.02261 7.12996 7
-10 14 -8 19.5657 8.37782 9
-4 -10 -8 16.0177 10.9872 5
14 -10 8 17.676 8.00033 7
-4 14 8 26.0138 9.73124 11
3 -14 -8 34.1508 12.7757 5
14 -3 8 21.4456 13.9301 4
-11 -3 -8 2.95842 6.59046 9
-11 14 8 18.5467 8.17343 11
-14 3 8 19.4313 10.2722 10
3 -14 -8 11.3828 8.2017 8
-14 11 -8 25.2867 8.37066 9
14 -11 -8 16.5361 17.6978 4
3 11 8 15.4739 14.5639 6
14 -11 -8 8.13555 9.33238 7
-3 14 -8 14.779 8.15782 10
11 3 -8 10.9275 20.4122 6
11 -14 8 19.0202 10.9187 5
-3 14 -8 8.67827 9.64321 12
11 3 -8 30.8663 8.04249 11
11 -14 -8 44.8 15.2655 4
-3 -11 -8 53.2174 13.7947 5
-14 11 8 36.6399 8.73218 11
-3 14 8 49.5681 10.6227 11
14 -11 8 56.0798 13.7648 5
3 11 -8 49.9605 8.86222 10
14 -11 8 65.0373 15.7404 4
11 3 8 46.5818 16.4514 6
14 -11 8 38.7687 8.75978 7
3 11 -8 34.5973 9.18811 11
-3 -11 -8 48.3142 8.42963 8
-14 3 -8 52.9586 10.9552 9
-11 14 -8 43.2062 9.04206 9
3 11 -8 34.2203 10.0108 12
11 -14 -8 42.9947 9.12888 7
2 -14 -8 16.1487 7.68046 8
14 -12 -8 19.6042 16.8236 4
14 -12 -8 24.3111 10.0189 7
14 -2 8 17.7145 6.33926 7
-12 14 8 27.8638 8.07521 11
-14 2 8 16.3915 9.88778 10
12 -14 8 30.6048 12.4061 5
14 -2 8 3.51847 12.2168 4
-2 14 -8 22.2563 8.31045 10
-12 -2 -8 25.085 9.26211 9
14 -2 8 0.09012 10.1863 6
12 2 -8 27.0745 20.4673 6
12 2 -8 19.3609 7.46805 11
2 -14 -8 21.2119 12.5033 5
-14 12 -8 33.6903 8.51922 9
-2 14 -8 14.3738 10.6119 12
14 -12 8 10.7601 10.8677 5
-2 -12 -8 11.9657 6.93101 8
12 2 8 16.26 14.4041 6
2 12 -8 8.45101 7.56898 10
14 -12 8 -6.25 12.2361 4
-14 12 8 8.79746 7.47285 11
-14 2 -8 8.37141 8.60015 9
12 -14 -8 0.57251 14.4612 4
-12 14 -8 11.3668 7.93561 9
12 -14 -8 4.68523 8.0029 7
2 12 -8 2.39914 9.00338 12
-2 -12 -8 11.4664 11.6731 5
2 12 -8 -6.2443 8.01293 11
14 -12 8 9.43964 7.57903 7
-2 14 8 8.38639 9.42561 11
13 1 -8 27.2212 7.75315 11
14 -13 -8 41.8343 17.4586 4
14 -13 -8 17.9183 8.87162 7
-1 14 -8 29.7114 8.84273 10
14 -1 8 17.6547 11.6133 6
-14 1 8 27.9761 9.98496 10
-1 14 -8 30.1128 11.0939 12
1 -14 -8 37.0383 8.45341 8
13 -14 8 44.6419 12.2695 5
-14 13 -8 34.7308 8.21183 9
1 -14 -8 34.8423 13.0346 5
13 1 -8 43.2972 19.8871 6
-13 14 8 36.2387 8.7255 11
1 13 8 26.6764 8.50171 11
-13 -1 -8 30.3122 9.23141 9
-14 13 8 39.3614 8.89969 11
13 -14 -8 46.4443 9.73151 7
14 -13 8 49.2323 12.4495 5
13 -14 -8 28.9616 15.6144 4
-1 -13 -8 41.9318 8.03338 8
-1 -13 -8 59.602 13.4526 5
1 13 -8 43.8273 10.9418 12
-13 14 -8 47.9276 9.25409 9
14 -13 8 33.6037 8.20583 7
1 13 -8 37.4285 8.51719 10
13 1 8 44.0887 15.0271 6
1 13 -8 24.4409 8.53827 11
-1 14 8 56.1962 10.4369 11
14 -13 8 26.9609 12.4229 4
-13 -1 8 53.8814 10.6263 10
-14 1 -8 55.8347 10.2986 9
-14 14 8 8.2747 7.72063 11
14 -14 -8 -5.4699 7.65418 7
0 14 -8 9.34029 7.77176 10
-14 0 8 0.06909 9.03498 10
14 -14 -8 -2.5444 14.7747 4
0 14 -8 -2.3527 6.80188 11
-14 0 -8 7.61463 8.1851 9
14 -14 8 3.7367 6.14298 7
0 -14 -8 -1.9317 7.04937 8
0 -14 -8 -4.1831 10.9847 5
0 14 8 8.08861 8.67188 11
14 -14 8 8.3641 10.9674 5
14 0 -8 24.2072 18.4051 6
0 14 -8 6.30279 10.797 12
-14 14 -8 -0.814 6.70943 9
14 0 8 5.15215 11.7935 6
7 -15 -8 18.5427 12.7871 5
-7 15 -8 52.4006 9.69697 9
7 -15 -8 23.5911 8.42225 8
8 -15 8 26.9784 10.7339 5
-7 15 -8 32.4888 8.98818 10
-8 -7 -8 26.0969 7.23282 8
15 -7 8 16.7682 7.41684 7
8 7 -8 26.3037 7.59958 11
-8 -7 -8 26.6283 11.338 5
-15 8 -8 44.8078 9.59282 9
15 -8 -8 25.2045 9.9196 7
-8 15 8 35.7005 8.71855 11
15 -8 -8 37.9433 17.9626 4
15 -7 8 29.6447 13.8677 4
-15 7 8 25.9015 10.7278 10
-15 8 -8 39.0764 7.42603 8
7 8 8 38.546 15.8442 6
-15 7 -8 29.6929 8.48022 9
15 -8 8 18.5503 7.73685 7
-8 15 -8 18.6297 8.16217 10
15 -8 8 31.6986 14.8713 4
7 -15 8 37.4541 11.889 5
15 -8 8 14.5962 10.4564 5
-15 8 8 18.5357 10.065 10
15 -7 -8 -3.954 18.9804 4
7 8 -8 34.3327 8.01657 11
7 8 -8 22.3086 8.28387 12
8 -15 -8 -2.7765 6.96107 8
-7 -8 -8 30.2922 7.33157 8
15 -7 -8 -4.4938 7.81121 7
8 -15 -8 -1.573 14.5998 5
-8 15 -8 50.7212 9.46673 9
-7 15 8 38.7896 8.752 11
8 7 8 24.9392 14.238 6
-7 -8 -8 33.9216 12.0822 5
15 -6 8 17.1126 7.66792 7
6 -15 -8 5.76231 12.9565 5
9 6 -8 23.3261 8.05199 11
-6 15 -8 22.2124 8.49289 10
15 -6 8 17.4271 13.6717 4
6 -15 -8 3.32007 8.28347 8
-9 -6 -8 2.92913 8.7071 5
-6 15 -8 -0.4358 7.47109 12
9 -15 8 4.88859 9.69912 5
15 -9 -8 27.0958 18.1995 4
6 9 8 13.8315 15.3831 6
-9 -6 -8 10.1297 5.08454 8
15 -9 -8 1.84695 9.35346 7
-15 9 -8 13.2408 8.03703 9
-15 6 8 17.5752 10.4754 10
-9 15 8 0.93856 7.49602 11
6 9 -8 13.0785 8.6222 12
9 -15 -8 -1.1329 4.71564 7
-9 15 -8 17.2051 8.58085 10
6 9 -8 14.6734 7.24295 11
-15 6 -8 13.439 8.20046 9
-15 9 8 13.6648 9.46317 10
-9 15 -8 22.7635 8.26825 9
6 -15 8 14.7839 9.21804 5
9 6 8 17.6949 14.7646 6
15 -9 8 10.0669 10.9477 5
15 -9 8 21.2958 14.1193 4
9 -15 -8 2.10262 11.1246 4
-6 15 8 30.0883 8.9131 11
15 -9 8 28.209 8.03933 7
-6 -9 -8 28.1612 11.7411 5
-6 -9 -8 24.6074 7.55157 8
15 -10 -8 36.7355 17.8375 4
5 10 8 37.8507 16.484 6
-5 15 -8 41.4638 9.0729 10
-5 15 -8 23.6502 10.2662 12
10 5 -8 32.6469 8.15891 11
15 -5 8 32.7276 14.7279 4
5 -15 -8 36.8014 13.4828 5
5 -15 -8 32.7329 8.93174 8
15 -10 -8 27.3812 10.1246 7
10 5 -8 -0.1061 20.7727 6
15 -5 8 31.7033 7.77363 7
-15 10 -8 58.1944 9.89637 9
10 -15 8 43.9266 11.9747 5
-5 -10 8 16.1988 6.63397 9
-15 5 8 60.3881 11.445 10
-10 15 8 27.6182 8.15881 11
15 -10 8 36.9651 14.9945 4
5 10 -8 12.8479 8.08837 12
15 -10 8 11.3476 7.32448 7
10 -15 -8 14.3275 12.1775 4
-5 -10 -8 31.9361 12.0727 5
-5 15 8 27.5408 8.95855 11
-15 5 -8 32.197 8.88153 9
-10 15 -8 13.9754 7.23416 10
15 -10 8 34.0939 11.8299 5
10 -15 -8 21.778 7.22467 7
10 5 8 43.9008 16.4435 6
-5 -10 -8 24.6053 7.59896 8
5 10 -8 18.7156 7.67616 11
-15 10 8 4.74656 7.99876 10
-10 15 -8 24.994 8.49671 9
-4 15 -8 21.5674 8.42167 10
11 -15 8 34.9764 12.0616 5
-4 15 -8 32.7236 11.5582 12
15 -4 8 31.9717 8.22289 7
11 4 -8 25.6383 7.8467 11
-15 4 8 21.9925 9.97398 10
-15 11 -8 49.3792 9.20161 9
4 11 8 3.60441 15.8536 6
-11 -4 -8 23.2688 7.97129 9
15 -4 8 27.9103 14.4349 4
15 -11 -8 50.4889 18.3595 4
4 -15 -8 27.5651 12.572 5
11 4 -8 24.5672 20.1701 6
15 -11 -8 17.9908 9.29904 7
-11 15 8 24.5318 8.34865 11
4 -15 -8 24.5893 8.30133 8
-11 15 -8 60.183 9.84351 9
-15 11 8 52.0847 9.40259 11
-4 -11 -8 58.2775 13.1931 5
-15 4 -8 67.4605 10.6082 9
15 -11 8 45.6448 8.73206 7
4 11 -8 50.9657 9.542 11
11 -15 -8 50.1973 15.2327 4
15 -11 8 47.8752 14.9177 4
15 -11 8 56.4784 13.9189 5
11 -15 -8 50.5281 8.82462 7
11 4 8 73.58 17.8464 6
-4 -11 -8 67.847 8.89344 8
4 11 -8 36.1018 9.15843 12
-4 15 8 58.5344 10.6435 11
12 3 -8 45.8942 21.3408 6
-12 -3 -8 56.4675 10.4662 9
12 3 -8 55.7723 8.69782 11
-3 15 -8 64.176 13.0122 12
-12 15 8 51.0028 9.21129 11
15 -12 -8 56.6082 10.4227 7
-15 3 8 76.1595 11.8089 10
15 -12 -8 41.3446 16.4771 4
-3 15 -8 66.8243 10.0951 10
-15 12 -8 73.4545 10.0936 9
15 -3 8 35.3841 8.35662 7
3 -15 -8 49.116 13.2009 5
3 -15 -8 58.5975 9.63892 8
12 -15 8 53.1653 12.7467 5
12 3 8 22.3696 14.6052 6
3 12 -8 31.8014 8.23456 10
-12 15 -8 37.5174 8.81239 9
3 12 -8 27.0165 9.89818 12
-15 3 -8 37.4023 9.75838 9
-3 -12 -8 37.7851 12.7546 5
12 -15 -8 37.5918 15.2572 4
15 -12 8 24.7227 8.06181 7
-3 -12 -8 23.6119 7.18831 8
-3 15 8 29.8427 9.62706 11
3 12 -8 23.6497 8.74042 11
12 -15 -8 19.3962 7.8427 7
-15 12 8 25.7337 8.17124 11
15 -12 8 35.3065 14.2026 4
15 -12 8 26.1187 11.3603 5
2 -15 -8 25.2478 8.04545 8
13 2 -8 19.0943 7.63097 11
-15 13 -8 22.5207 7.75469 9
13 2 -8 5.00009 18.2195 6
15 -2 8 17.6199 6.21364 7
2 -15 -8 14.483 11.7718 5
15 -13 -8 21.1348 15.7055 4
-13 15 8 16.0483 8.06912 11
-15 2 8 15.5865 9.60251 10
-2 15 -8 13.588 10.2236 12
2 13 8 3.73336 5.49594 11
-13 -2 -8 17.1792 8.50489 9
-2 15 -8 11.1061 7.73845 10
15 -13 -8 25.3037 8.72178 7
13 -15 8 16.1432 11.3047 5
-13 15 -8 42.2135 8.89715 9
15 -13 8 25.2975 11.63 5
13 -15 -8 34.2767 15.0026 4
-15 2 -8 45.2475 9.98469 9
2 13 -8 38.895 8.28079 10
2 13 -8 28.5349 9.18404 11
-2 -13 -8 40.3076 12.9537 5
2 13 -8 43.9934 11.2658 12
-2 15 8 45.7419 10.0797 11
15 -13 8 12.0345 11.3384 4
13 2 8 26.4232 13.4067 6
-13 -2 8 59.1358 10.7748 10
-2 -13 -8 31.2811 7.60866 8
-15 13 8 30.2873 8.67098 11
13 -15 -8 27.708 8.19141 7
15 -13 8 46.9905 8.4362 7
14 -15 8 6.93547 10.54 5
1 -15 -8 7.46165 11.2774 5
15 -14 -8 19.9998 15.8567 4
-15 1 8 10.6122 9.46882 10
-15 14 -8 8.7951 7.21275 9
-14 -1 -8 10.0259 8.09035 9
14 1 -8 6.39619 7.5051 11
15 -14 -8 13.2105 7.82589 7
1 -15 -8 3.81982 7.1841 8
-14 15 8 8.71635 7.7973 11
-1 15 -8 18.6104 10.9261 12
1 14 8 0.19869 8.03762 11
14 1 -8 -1.3435 17.1985 6
-1 15 -8 5.94245 7.6721 10
14 -15 -8 3.3743 13.6337 4
14 -15 -8 5.62525 7.42386 7
14 1 8 9.45805 11.8289 6
1 14 -8 10.1064 9.3669 12
-15 1 -8 10.4634 7.8718 9
-14 15 -8 17.174 7.95387 9
-1 -14 -8 17.8036 7.07463 8
1 14 -8 4.20771 7.32485 10
-14 -1 8 15.901 9.54537 10
-1 15 8 9.20534 8.99634 11
15 -14 8 5.48336 7.15302 7
-15 14 8 8.96239 7.91039 11
15 -14 8 12.3819 10.4894 5
1 14 -8 9.68978 8.49871 11
-1 -14 -8 23.1161 11.0155 5
15 -15 -8 1.02973 12.8006 4
15 -15 8 5.2451 6.5096 7
-15 0 -8 3.23162 7.34772 9
0 15 -8 1.57062 10.0954 12
0 -15 -8 8.57381 9.73412 5
-15 15 8 10.0767 7.73772 11
-15 0 8 3.27914 8.94007 10
15 -15 8 1.19779 9.35941 5
0 15 -8 2.09721 7.44527 10
0 -15 -8 1.23596 6.38148 8
0 15 8 -5.9918 8.14872 11
15 -15 -8 0.45246 7.04241 7
-15 15 -8 0.2154 7.04625 9
0 15 -8 -3.4583 6.81457 11
-8 -8 -8 28.6119 7.06933 8
-8 16 -8 26.398 8.78281 9
16 -8 8 22.539 7.56241 7
-16 8 8 23.1606 10.5348 10
16 -8 -8 20.4831 8.61763 7
-8 16 -8 25.2939 9.47641 10
8 -16 8 15.4583 9.66318 5
8 8 -8 16.1046 7.09659 11
16 -8 8 13.468 12.2589 4
-8 16 8 16.3025 7.70093 11
8 8 -8 15.6268 6.95718 12
8 8 8 19.8003 15.4194 6
-16 8 -8 33.5598 9.57492 9
8 -16 -8 19.9854 7.63289 8
16 -9 -8 13.6391 15.3924 4
16 -9 -8 39.2539 10.157 7
7 -16 -8 60.3881 9.64791 8
7 -16 -8 19.2104 12.046 5
16 -7 8 50.3395 8.69168 7
-16 7 8 67.5649 11.7396 10
-9 -7 -8 55.6979 7.48573 8
7 9 8 67.984 17.3643 6
-9 16 8 53.369 8.67838 11
-16 9 -8 78.6626 10.3194 9
9 7 -8 66.862 9.3764 11
-7 16 -8 53.749 9.99673 10
9 -16 8 57.719 12.2 5
16 -7 8 56.4444 14.6494 4
-9 16 -8 90.9404 13.2494 9
-16 9 8 90.6167 12.6217 10
16 -9 8 64.3304 15.0392 4
7 9 -8 59.1062 10.5726 12
16 -9 8 113.967 11.3103 7
-16 7 -8 105.405 13.9546 9
7 9 -8 95.9243 10.6379 11
-9 16 -8 49.3903 10.443 10
9 7 8 95.032 18.4454 6
-7 -9 -8 74.3107 9.47098 8
16 -6 8 19.2035 7.42944 7
16 -6 8 3.35702 12.5447 4
16 -10 -8 14.4594 9.10664 7
10 6 -8 14.1151 7.19258 11
-10 16 8 10.0874 6.92233 11
-6 16 -8 19.052 9.62517 12
16 -10 -8 7.57249 15.9594 4
10 -16 8 27.9765 11.4615 5
6 10 8 4.94285 14.3626 6
-6 16 -8 6.19308 8.22077 10
6 -16 -8 16.7008 11.9478 5
-10 -6 -8 1.72417 3.76542 8
-16 6 8 18.7993 10.2133 10
-16 10 -8 23.4154 8.38397 9
-6 -10 8 11.1717 7.51066 9
6 -16 -8 16.4267 8.19235 8
6 -16 8 6.41256 6.10827 8
-6 -10 -8 -1.9521 9.09031 5
-10 16 -8 18.1877 8.18163 9
10 -16 -8 1.17394 5.37187 7
-10 16 -8 18.7865 8.90925 10
-6 -10 -8 16.3814 7.1303 8
6 10 -8 10.9825 7.00376 11
-16 6 -8 20.7972 8.40821 9
-16 10 8 19.1978 9.78016 10
-6 16 8 19.0626 9.07344 11
16 -10 8 11.046 13.6949 4
16 -10 8 4.92987 7.07903 7
10 6 8 10.8744 14.265 6
6 10 -8 14.4074 9.16842 12
-16 10 8 14.8552 7.51932 11
-16 5 8 24.9965 10.3588 10
-16 11 -8 20.0883 7.85446 9
-5 16 -8 18.7908 8.74667 10
-11 -5 -8 12.9715 8.00693 9
16 -11 -8 8.92035 15.8835 4
16 -5 8 10.254 12.5186 4
-11 16 8 24.4294 7.41016 11
5 -16 -8 12.1524 7.775 8
16 -11 -8 20.4073 8.84357 7
16 -5 8 20.1512 7.59454 7
11 -16 8 12.1091 10.4036 5
5 -16 -8 16.2566 11.6299 5
-5 -11 8 6.83111 7.68802 9
-5 16 -8 17.9036 10.7648 12
11 5 -8 26.4973 7.52192 11
-16 11 8 28.0465 8.07637 11
-16 5 -8 27.4873 8.46874 9
16 -11 8 27.8535 14.1284 4
-5 16 8 50.5298 10.0051 11
5 11 -8 36.1951 9.55395 12
11 -16 -8 31.1049 7.55524 7
-5 -11 -8 24.7191 9.94111 5
-5 -11 -8 29.5876 7.6398 8
5 11 -8 45.4233 8.85103 11
-11 16 -8 24.041 9.18656 10
11 5 8 34.5248 14.9401 6
-11 16 -8 43.9312 8.87311 9
-16 11 8 24.3171 9.05034 10
16 -11 8 19.1965 7.55855 7
16 -12 -8 16.337 8.01144 7
-16 4 8 38.889 10.4471 10
16 -4 8 25.212 7.66907 7
4 -16 -8 35.0899 12.9663 5
-4 16 -8 40.1296 9.15203 10
-12 -4 -8 22.9548 8.61521 9
-4 16 -8 49.0822 12.0429 12
-16 12 -8 38.7015 8.46984 9
12 4 -8 33.177 7.67449 11
-12 16 8 35.0176 7.96307 11
4 -16 -8 13.4265 7.55176 8
12 -16 8 36.4408 11.5114 5
-4 -12 8 43.0834 8.63832 9
16 -12 -8 31.8984 15.8702 4
-4 -12 -8 43.564 7.89012 8
-4 -12 -8 14.3168 9.88821 5
12 4 8 33.011 14.6298 6
16 -12 8 26.2605 7.40472 7
-12 16 -8 13.478 9.11154 10
16 -12 8 17.3421 13.0803 4
12 -16 -8 22.2854 7.32639 7
-16 4 -8 42.4016 9.03061 9
-12 16 -8 22.0885 8.13296 9
-16 12 8 15.5846 7.68026 10
4 12 -8 36.4734 8.85197 11
-16 12 8 18.6297 7.98623 11
4 12 -8 21.9294 9.18762 12
-4 16 8 40.9126 9.55195 11
-16 3 8 -1.5954 8.99472 10
-16 13 -8 8.4535 7.22232 9
13 3 -8 13.0014 7.42927 11
16 -13 -8 6.84295 7.33527 7
-13 -3 -8 6.39908 7.68885 9
-3 16 -8 11.8943 10.8864 12
3 -16 -8 0.46002 11.1004 5
-3 16 -8 3.1783 7.47434 10
-13 16 8 3.10106 7.1231 11
3 -16 -8 5.37562 6.67844 8
16 -13 -8 13.5944 14.2936 4
16 -3 8 1.41495 6.99792 7
13 -16 8 6.8281 10.258 5
-13 16 -8 1.24636 7.04816 10
13 3 8 1.0353 12.6809 6
-13 16 -8 4.16471 7.48552 9
-3 -13 -8 -1.0547 9.23656 5
-16 13 8 -0.0525 4.90766 10
13 -16 -8 1.13265 13.4809 4
16 -13 8 2.17779 6.9885 7
-16 13 8 1.06579 7.11627 11
-3 -13 -8 1.72634 6.36901 8
3 13 -8 3.14891 7.72368 11
-16 3 -8 1.14034 7.3246 9
16 -13 8 1.548 10.0205 4
-3 16 8 5.82505 8.82363 11
3 13 -8 -0.6467 8.99317 12
13 -16 -8 2.22552 6.93469 7
-2 16 -8 18.4708 7.87816 10
16 -14 -8 3.16029 13.7196 4
2 14 8 3.70475 7.07949 11
-16 2 8 6.71912 9.24021 10
14 2 -8 13.0681 7.55597 11
-14 16 8 10.9202 7.37563 11
-16 14 -8 11.0561 7.17085 9
-2 16 -8 17.8985 9.97992 12
16 -14 -8 7.79732 7.15108 7
2 -16 -8 3.67299 6.65633 8
-14 -2 -8 5.65722 7.69597 9
14 -16 8 4.34136 9.15748 5
2 -16 -8 2.82635 10.5631 5
16 -2 8 6.816 5.16653 7
14 2 8 2.21238 10.9807 6
-2 -14 -8 0.30819 8.65066 5
-16 14 8 16.5399 7.7062 11
16 -14 8 11.6782 7.18901 7
-2 -14 -8 26.1702 6.78669 8
-2 16 8 26.8157 9.16903 11
2 14 -8 18.0187 7.55007 10
-14 -2 8 17.2404 8.98496 10
-16 2 -8 11.2449 7.60418 9
-14 16 -8 9.18164 7.51836 9
2 14 -8 22.1456 9.94341 12
14 -16 -8 11.182 6.98528 7
2 14 -8 13.6099 8.3727 11
-16 15 -8 1.741 7.21906 9
16 -15 -8 2.3038 6.77288 7
-1 16 -8 0.93922 8.81759 12
16 -15 -8 0.42597 13.1468 4
-1 16 -8 2.73743 7.50919 10
-16 1 8 -4.8518 8.62583 10
-15 16 8 3.34558 7.17264 11
1 -16 -8 -2.1715 6.35468 8
1 -16 -8 0.54329 9.58447 5
1 15 8 -1.3825 7.49355 11
-15 -1 -8 2.69466 6.98251 9
1 15 -8 7.70813 7.1437 10
1 15 -8 10.0802 10.1213 12
1 15 -8 1.48884 7.46224 11
16 -15 8 -0.803 6.72053 7
-1 -15 -8 1.06187 6.13001 8
-1 16 8 2.37945 8.2007 11
-16 1 -8 5.18673 7.13104 9
-15 -1 8 -0.1813 8.76813 10
-15 16 -8 1.14577 7.44538 9
-16 15 8 0.34336 7.04534 11
15 -16 -8 2.33497 6.48637 7
16 -16 -8 4.1021 6.30769 7
-16 16 -8 2.03222 7.39353 9
0 -16 -8 -0.1293 5.66653 8
-16 0 -8 3.43254 6.5563 9
0 16 -8 12.4272 10.1969 12
16 -16 8 2.52447 5.27314 7
-16 16 8 3.66234 6.66056 11
-16 0 8 1.43418 8.43672 10
0 16 8 -3.0735 7.59411 11
0 16 -8 6.05042 7.10387 10
0 16 -8 -0.6195 6.35066 11
8 -17 -8 21.239 7.74258 8
9 8 -8 0.42446 5.59775 12
17 -8 8 11.3609 6.77034 7
-17 9 -8 34.7718 8.52139 9
-9 17 8 32.6613 7.60194 11
-8 17 -8 21.8164 8.85109 10
9 8 -8 25.8475 7.7698 11
9 -17 8 0.41022 7.89664 5
17 -8 8 21.3653 12.6162 4
8 9 8 3.49054 14.313 6
17 -9 -8 21.2328 8.26706 7
-9 -8 -8 15.6453 5.24044 8
-17 8 8 33.2289 10.1674 10
8 9 -8 26.1449 7.07567 11
8 9 -8 18.3805 8.08619 12
17 -9 8 27.1185 12.9355 4
-17 8 -8 34.8303 8.82758 9
9 8 8 18.3637 12.9186 6
-17 9 8 30.9339 10.3694 10
9 -17 -8 28.0764 7.22604 8
8 -17 8 16.6357 6.20514 8
-9 17 -8 28.0133 9.09498 10
-8 -9 -8 27.7599 6.90013 8
17 -9 8 16.6112 6.7862 7
-8 17 8 21.6976 7.37253 11
17 -8 -8 20.4241 7.52906 7
-10 17 8 8.10749 6.61001 11
-17 7 8 13.9895 9.42229 10
17 -7 8 10.0849 11.4925 4
-7 -10 8 5.7468 6.89206 9
-7 17 -8 0.59821 7.94042 10
10 7 -8 6.41625 7.27284 11
10 -17 8 2.65384 8.48255 5
-7 17 -8 -2.9545 6.95617 12
-10 -7 -8 1.30579 3.86208 8
17 -7 8 9.11053 6.9495 7
17 -10 -8 2.81511 7.60408 7
7 -17 -8 4.72888 7.07565 8
-17 10 -8 9.52848 7.80293 9
-17 10 8 8.03409 6.05239 11
10 7 8 5.33849 12.9488 6
17 -10 8 8.85894 12.5163 4
-17 7 -8 7.06691 7.61085 9
7 10 -8 2.84218 6.67193 11
-17 10 8 5.1753 9.63441 10
-10 17 -8 0.4046 8.4102 10
-10 17 -8 7.19829 7.92543 9
-7 17 8 -0.1527 7.89984 11
17 -10 8 6.23528 6.76407 7
-7 -10 -8 6.51265 6.4633 8
7 -17 8 2.71174 6.24368 8
7 10 -8 3.51453 8.51853 12
17 -11 -8 -0.4246 24.3487 4
-11 -6 -8 34.4771 8.34713 9
-6 17 -8 64.6591 9.8837 10
-6 -11 8 64.5161 9.68847 9
-17 11 -8 91.1786 10.1011 9
17 -11 -8 79.6065 10.1639 7
11 -17 8 54.4542 11.0665 5
6 -17 -8 51.1229 8.73883 8
-6 17 -8 49.9345 11.3713 12
-11 17 8 54.2756 8.40635 11
17 -6 8 76.6045 9.45311 7
6 11 -8 125.499 11.6711 11
-11 17 -8 98.7857 12.7999 9
6 11 -8 70.5321 11.2237 12
6 -17 8 77.1336 9.26255 8
-17 11 8 78.6776 11.7744 10
-6 -11 -8 95.6687 12.316 8
-6 17 8 116.773 12.0296 11
-17 6 -8 100.549 12.8518 9
-11 17 -8 87.9003 11.952 10
11 6 8 44.1179 14.1467 6
17 -11 8 67.2258 14.4849 4
17 -11 8 99.9379 10.4901 7
17 -12 -8 7.36915 7.04737 7
12 -17 8 3.92158 9.31284 5
12 5 -8 0.15634 6.75105 11
17 -5 8 -2.2294 6.7953 7
-5 17 -8 1.0388 7.63045 10
5 -17 -8 0.81468 10.1279 5
-17 5 8 3.31294 9.04374 10
17 -12 -8 -1.1624 12.5444 4
-17 12 -8 2.43944 7.25194 9
-5 -12 8 9.61761 7.60508 9
5 -17 -8 -5.6388 6.60187 8
-12 -5 -8 3.26041 7.48651 9
-12 17 8 2.71859 6.41039 11
-5 17 -8 1.38064 9.89622 12
12 -17 -8 6.30068 6.63016 7
-17 12 8 8.77377 5.90617 11
-5 -12 -8 11.3069 6.45355 8
-12 17 -8 10.867 7.66099 9
17 -12 8 3.75657 6.77294 7
5 12 -8 14.5189 8.58623 12
-17 12 8 6.75194 8.57994 10
17 -12 8 2.42933 9.85824 4
5 -17 8 -0.9786 4.02833 8
-5 17 8 14.7791 8.50753 11
5 12 -8 11.3849 7.38789 11
-17 5 -8 7.43393 6.97359 9
12 5 8 6.50448 12.1432 6
-12 17 -8 -3.9633 8.72181 10
-4 17 -8 33.8975 8.57057 10
4 -17 -8 20.4021 6.89616 8
-4 -13 8 26.5041 7.84127 9
-13 -4 -8 11.456 7.49969 9
17 -13 -8 20.1038 7.32366 7
4 -17 -8 0.65153 10.8353 5
-4 17 -8 43.8139 11.6313 12
17 -4 8 17.0688 7.08395 7
-13 17 8 29.5661 7.26093 11
-17 13 -8 44.7551 8.29386 9
13 -17 8 3.57107 8.87868 5
-17 4 8 27.1953 9.29637 10
13 4 -8 30.7544 7.32763 11
17 -13 -8 0.3166 12.6818 4
-4 17 8 22.879 9.0261 11
17 -13 8 16.4918 7.00744 7
-4 -13 -8 11.3401 6.256 8
4 13 -8 16.7774 8.475 12
-13 17 -8 21.3844 8.00182 9
-17 13 8 3.51405 5.78793 11
4 13 -8 9.24602 7.44799 11
-17 13 8 9.21823 7.52577 10
-17 4 -8 18.4617 7.09688 9
-13 17 -8 11.2827 8.5497 10
13 4 8 2.35418 11.1491 6
13 -17 -8 22.8757 7.16402 7
3 -17 -8 42.8144 7.52237 8
-17 3 8 85.6684 10.8836 10
17 -14 -8 56.9781 8.47608 7
-3 17 -8 46.2868 10.8756 12
17 -3 8 40.8634 6.97493 7
-14 -3 -8 51.0192 8.98717 9
-3 -14 8 41.3991 8.43838 9
-14 17 8 36.256 8.0004 11
14 3 -8 58.6069 8.69784 11
-3 17 -8 68.7573 9.41103 10
-3 -14 -8 32.7322 6.93402 8
-14 17 -8 41.0869 8.64428 10
14 -17 -8 29.576 7.41343 7
-3 17 8 47.8714 9.51343 11
-14 -3 8 67.6707 10.3712 10
17 -14 8 39.7645 8.00827 7
3 14 -8 38.4823 8.54925 11
3 14 -8 46.0797 9.85218 12
-17 3 -8 52.5444 8.53922 9
-14 17 -8 61.9461 9.16731 9
17 -15 -8 14.9479 6.5173 7
-15 17 8 6.24743 6.60656 11
2 -17 -8 9.19141 6.0407 8
2 15 8 9.77548 7.26699 11
-17 15 -8 21.5783 7.86849 9
-2 17 -8 18.0646 10.3387 12
-2 17 -8 22.1639 7.76614 10
-2 -15 8 13.3098 7.24776 9
-15 -2 -8 8.12451 6.94364 9
-17 2 8 6.07774 8.29755 10
-17 2 -8 6.13383 6.58878 9
-15 -2 8 9.13854 8.37181 10
-2 17 8 9.51363 7.8571 11
-15 17 -8 8.0283 7.04045 9
-17 15 8 2.23932 5.42098 11
2 15 -8 7.01204 7.49675 11
17 -15 8 1.84165 6.49365 7
15 -17 -8 3.40255 5.97632 7
-2 -15 -8 3.7973 5.76783 8
2 15 -8 12.3951 9.1323 12
-16 -1 -8 -0.1207 6.17219 9
-17 1 8 7.46801 7.84634 10
1 16 8 -0.2558 7.41423 11
17 -16 -8 8.803 6.26042 7
-17 16 -8 6.21774 7.55554 9
-1 17 -8 3.75742 7.07344 10
-16 17 8 4.79043 6.04568 11
-1 -16 8 0.14516 6.50765 9
-1 17 -8 3.29109 9.01812 12
1 -17 -8 0.33203 5.45835 8
-17 1 -8 6.98162 6.52339 9
1 16 -8 12.7499 8.47687 12
-17 16 8 2.80463 6.00985 11
-1 17 8 14.3586 7.81598 11
-1 -16 -8 12.6872 5.82196 8
16 -17 -8 7.75885 5.92044 7
1 16 -8 12.7155 7.27402 11
-16 17 -8 13.0448 7.21667 9
17 -16 8 11.6961 6.0223 7
-16 -1 8 16.6955 8.22594 10
0 17 -8 16.8463 6.96253 10
-17 0 -8 7.43244 6.18305 9
0 -17 8 11.6444 6.56146 9
0 17 -8 19.4151 9.36077 12
-17 17 -8 17.5336 7.19069 9
0 -17 -8 15.7863 5.49859 8
-17 0 8 18.9705 8.07164 10
0 17 8 12.8525 7.69784 11
17 -17 -8 15.717 5.76085 7
0 17 -8 -2.159 5.27924 11
17 -17 8 -1.6263 4.44773 7
-18 9 -8 25.4192 7.93955 9
9 -18 -8 18.2973 6.6113 8
-18 9 8 10.5446 9.3038 10
18 -9 -8 14.4592 7.12101 7
18 -9 8 22.476 6.44345 7
9 -18 8 13.2185 6.21971 8
9 9 -8 29.7984 7.83276 11
-9 18 -8 24.4792 8.82747 10
-9 18 8 21.4795 7.33578 11
8 -18 -8 63.9516 9.34012 8
-18 10 -8 93.8871 13.014 9
10 8 -8 91.8716 10.0911 11
10 -18 8 94.2109 9.42948 8
18 -10 -8 79.616 10.3279 7
-10 18 8 101.969 10.5221 11
-8 18 -8 81.4376 11.2241 10
-18 8 8 81.1674 11.7672 10
18 -8 8 69.1046 9.17117 7
8 -18 8 83.6083 11.3652 8
-8 -10 -8 88.479 11.0925 8
18 -10 8 111.636 10.9337 7
8 10 -8 120.606 11.6842 11
-10 18 -8 98.3222 13.341 10
-8 18 8 88.7011 12.6862 11
-18 10 8 108.977 13.9962 10
8 10 -8 85.0474 12.7893 12
-18 8 -8 106.876 13.0663 9
-18 11 -8 19.5544 7.21615 9
11 7 -8 36.958 7.71909 11
-18 7 8 27.7742 9.3501 10
7 -18 -8 24.1484 7.17733 8
18 -11 -8 21.0097 7.29446 7
-7 -11 8 27.4428 7.57322 9
-7 18 -8 27.4497 8.40566 10
11 -18 8 18.1414 5.80111 8
-11 18 8 16.4533 6.67474 11
-11 -7 -8 7.41179 5.77831 9
-7 18 -8 20.0604 7.95965 12
18 -7 8 8.78634 6.37029 7
7 11 -8 35.7084 9.07168 12
18 -11 8 24.9559 7.2548 7
-11 18 -8 34.9142 9.44231 10
-18 11 8 27.932 9.4843 10
-7 -11 -8 20.8529 6.44154 8
7 11 -8 23.0133 7.039 11
-7 18 8 55.9933 8.93802 11
-18 7 -8 39.9823 7.86866 9
7 -18 8 26.1579 6.34785 8
-6 18 -8 26.8553 8.18194 10
-12 -6 -8 21.5218 7.49716 9
-12 18 8 25.0528 7.21329 11
6 -18 -8 18.7414 6.83205 8
12 6 -8 30.0401 7.40492 11
-18 6 8 12.1955 8.8079 10
18 -6 8 23.4594 7.0567 7
18 -12 -8 16.2494 6.89141 7
12 -18 8 19.8685 5.97177 8
-6 -12 8 20.9145 7.62286 9
-18 12 -8 34.1395 7.82141 9
-6 18 -8 26.9457 9.7376 12
-18 6 -8 36.3437 7.90036 9
-18 12 8 29.753 9.12451 10
12 -18 -8 14.508 5.14187 7
-6 -12 -8 30.4743 6.49885 8
6 12 -8 30.9927 8.98433 12
-12 18 -8 33.624 9.37049 10
-12 18 -8 37.4967 8.19479 9
6 12 -8 36.2284 7.67632 11
6 -18 8 21.5339 5.6269 8
-6 18 8 21.0366 7.99323 11
18 -12 8 34.5655 7.48507 7
-18 5 8 39.1716 9.24681 10
18 -13 -8 28.8884 7.00372 7
18 -5 8 29.0879 7.20533 7
-5 18 -8 20.9446 7.87814 10
-5 -13 8 35.8372 8.05867 9
-5 18 -8 34.1733 9.91956 12
13 5 -8 42.3547 7.6118 11
-13 18 8 29.6475 7.25782 11
5 -18 -8 17.6298 6.59303 8
-13 -5 -8 26.6423 7.39503 9
-18 13 -8 42.2686 8.09861 9
-13 18 -8 30.2404 9.17732 10
5 13 -8 33.9711 7.71242 11
18 -13 8 34.5266 7.26203 7
13 -18 -8 16.8927 6.41994 7
-18 5 -8 35.44 7.25454 9
-5 -13 -8 28.2622 6.34081 8
5 13 -8 34.8002 9.27246 12
-13 18 -8 36.7423 7.87392 9
-5 18 8 26.2752 8.1961 11
-18 13 8 29.6341 8.54806 10
-14 18 8 4.99258 6.33785 11
14 4 -8 16.2387 6.71435 11
18 -14 -8 7.16528 5.78539 7
-14 -4 -8 4.65776 6.49614 9
-4 18 -8 9.01737 9.55117 12
18 -4 8 16.0732 5.9245 7
-4 18 -8 10.6719 7.29286 10
4 -18 -8 10.1146 5.66835 8
-4 -14 8 8.07001 6.96688 9
-18 14 -8 10.589 6.87695 9
-18 4 8 4.10257 7.87517 10
-4 18 8 9.01557 7.72592 11
14 -18 -8 5.85629 6.12238 7
-4 -14 -8 7.11276 5.57591 8
-14 18 -8 6.06138 8.48923 10
-14 -4 8 7.93887 7.22467 10
-18 14 8 10.6471 6.63179 10
-18 4 -8 5.08643 6.07754 9
4 14 -8 13.9692 7.25361 11
18 -14 8 3.71536 6.23831 7
-14 18 -8 10.7755 6.92079 9
4 14 -8 2.42141 8.07382 12
-18 15 -8 36.4251 8.24341 9
3 -18 -8 17.7986 6.06754 8
18 -15 -8 34.7892 6.71843 7
-3 -15 8 35.0137 7.59377 9
-18 3 8 35.4095 8.84307 10
-15 -3 -8 14.287 6.7741 9
-3 18 -8 37.199 10.3569 12
-15 18 8 22.626 6.80487 11
-3 18 -8 26.7328 7.57184 10
-18 15 8 0.59615 4.20416 10
3 15 -8 22.3373 8.77998 12
-15 -3 8 11.4732 7.29676 10
18 -15 8 6.7171 6.03454 7
3 15 -8 4.72482 6.79073 11
-15 18 -8 15.1886 6.89526 9
15 -18 -8 5.12751 5.68976 7
-18 3 -8 19.9378 6.18932 9
-15 18 -8 8.56264 6.44657 10
-3 -15 -8 16.6478 5.60729 8
-3 18 8 5.52341 7.25919 11
-16 -2 -8 4.33575 6.00297 9
18 -16 -8 8.95021 5.56767 7
16 -18 8 6.95985 5.08922 8
-16 18 8 3.46687 5.23452 11
-2 -16 8 -2.1331 6.24251 9
-2 18 -8 12.1422 7.04886 10
-18 2 8 4.05341 7.63127 10
2 -18 -8 7.12378 5.52773 8
-18 16 -8 7.88289 7.18119 9
-2 18 -8 1.9565 8.69448 12
2 16 8 6.17703 6.37364 11
16 -18 -8 4.23942 5.28609 7
-16 -2 8 3.56572 6.97713 10
2 16 -8 10.8985 7.99722 12
-18 2 -8 6.3612 5.29232 9
18 -16 8 -4.1874 5.42795 7
-2 -16 -8 0.61092 4.96166 8
-2 18 8 1.62854 6.9344 11
2 16 -8 -0.6117 6.82753 11
-16 18 -8 0.83972 6.58454 9
-18 17 -8 0.39873 6.5484 9
17 -18 8 3.81301 4.73919 8
18 -17 -8 2.61513 5.09051 7
-1 18 -8 0.83167 7.52982 12
-18 1 8 -1.2827 6.85211 10
1 -18 -8 2.2618 4.83625 8
-17 -1 -8 0.95269 5.60838 9
-1 -17 8 1.09254 5.84245 9
1 17 8 1.62333 6.6269 11
-1 18 -8 5.2665 6.21497 10
-1 -17 -8 0.7747 4.5149 8
-18 1 -8 1.04662 5.37431 9
18 -17 8 0.11389 4.17368 7
-1 18 8 -0.0622 7.19525 11
1 -18 8 3.8582 5.95068 9
17 -18 -8 -0.0664 5.02507 7
-17 -1 8 4.7881 6.75839 10
1 17 -8 5.91986 8.07067 12
-17 18 -8 4.54485 6.47199 9
1 17 -8 5.88429 6.4579 11
18 -18 -8 6.82442 4.89057 7
0 -18 8 -0.4669 5.56141 9
-18 18 -8 8.86003 6.37595 9
0 -18 -8 7.35841 4.49438 8
18 -18 8 3.19004 4.52541 8
-18 0 -8 -0.4883 5.1072 9
0 18 -8 2.31941 7.56139 12
0 18 8 5.51083 6.52462 11
-18 0 8 1.47915 6.23282 10
-10 19 8 38.1592 7.72242 11
19 -10 -8 37.5115 7.30155 7
9 -19 -8 29.8577 6.87525 8
10 9 -8 51.5183 7.97394 11
10 -19 8 40.894 6.67345 8
-19 9 8 33.9465 9.48144 10
-9 19 -8 37.8001 8.84415 10
19 -9 8 35.9524 7.01523 7
-19 10 -8 52.1277 8.17809 9
-19 10 8 27.4753 8.87525 10
-9 19 8 38.2402 7.5343 11
-19 9 -8 43.0893 7.91024 9
-10 19 -8 47.9206 9.38054 10
10 -19 -8 31.4783 6.31728 8
19 -10 8 30.7336 6.53125 7
9 -19 8 30.6185 6.16516 8
9 10 -8 45.5801 7.73696 11
-19 11 -8 34.8233 7.41214 9
-11 19 8 24.1855 6.79321 11
19 -8 8 31.4108 7.1074 7
-8 -11 8 23.9927 6.75538 9
-19 8 8 31.0099 9.06709 10
-8 19 -8 44.1061 8.86815 10
19 -11 -8 28.8815 6.88242 7
8 -19 -8 29.5095 6.62344 8
11 -19 8 23.9965 6.11188 8
11 8 -8 28.4164 7.0864 11
8 11 -8 53.2092 8.20415 11
-8 19 8 53.066 8.32065 11
-19 8 -8 39.4446 7.55532 9
8 11 -8 31.1566 7.68236 12
-11 19 -8 62.2518 9.97633 10
-19 11 8 54.3933 9.96391 10
19 -11 8 56.0325 7.83205 7
8 -19 8 41.2229 6.83358 8
19 -7 8 4.89694 6.1129 7
-19 12 -8 10.0656 6.48739 9
-7 19 -8 21.5563 7.99958 10
-12 -7 -8 6.26052 5.58498 9
-7 -12 8 8.09879 6.26804 9
-7 19 -8 9.66723 7.11513 12
7 -19 -8 14.9566 5.89507 8
19 -12 -8 10.5161 6.25088 7
-19 7 8 8.75124 8.19884 10
12 -19 8 10.9349 5.70469 8
-12 19 8 9.25872 6.49802 11
12 7 -8 10.6608 6.67937 11
-7 -12 -8 19.9399 5.48888 8
7 12 -8 16.6196 7.68252 12
-7 19 8 28.818 7.5076 11
-19 12 8 29.9655 8.68786 10
-12 19 -8 35.3035 8.96763 10
-19 7 -8 34.7983 7.47809 9
7 -19 8 26.0737 5.76797 8
19 -12 8 29.794 6.78422 7
7 12 -8 27.9888 7.31066 11
13 6 -8 4.07625 6.07766 11
-19 13 -8 0.67869 6.36184 9
19 -13 -8 3.57783 5.35389 7
19 -6 8 5.14444 6.13116 7
6 -19 -8 3.54115 5.46365 8
-6 19 -8 10.2956 8.59079 12
-6 -13 8 5.30156 6.31417 9
-13 19 8 2.66931 6.37527 11
-13 -6 -8 6.49442 6.11324 9
-6 19 -8 3.06554 7.17102 10
-19 6 8 -4.9871 7.68663 10
13 -19 8 1.46356 5.2483 8
6 -19 8 -3.4816 4.77924 8
-6 19 8 6.38253 6.9197 11
6 13 -8 -3.0361 5.93992 11
6 13 -8 6.95897 7.3522 12
-6 -13 -8 4.87157 5.01127 8
19 -13 8 2.67917 5.94748 7
-19 13 8 0.95886 7.44483 10
-19 6 -8 8.36839 6.12232 9
-13 19 -8 6.82925 8.5896 10
-13 -6 8 0.73444 6.82398 10
-19 5 8 13.0287 7.53033 10
19 -5 8 16.6468 5.98072 7
-19 14 -8 16.1932 6.72054 9
-5 19 -8 11.8607 8.38101 12
14 5 -8 15.2903 6.36906 11
19 -14 -8 13.7038 5.40992 7
-14 -5 -8 11.1437 6.09756 9
-14 19 8 9.15143 6.46223 11
-5 19 -8 23.2414 7.33281 10
14 -19 8 18.9339 5.7495 8
-5 -14 8 12.1235 6.4888 9
5 -19 -8 11.0238 5.66889 8
-19 5 -8 21.4077 6.32873 9
-14 19 -8 28.5003 6.97019 9
5 14 -8 22.484 8.24933 12
19 -14 8 17.5676 6.07725 7
14 -19 -8 13.2467 4.97141 7
-5 -14 -8 15.8628 5.23811 8
5 14 -8 17.4438 6.89339 11
-5 19 8 11.1393 7.01333 11
-14 -5 8 17.2571 7.46248 10
-19 14 8 10.589 6.79834 10
-14 19 -8 14.4815 7.83723 10
4 -19 -8 18.4517 5.51367 8
19 -15 -8 14.7927 5.19541 7
-4 19 -8 16.8075 8.58065 12
-19 4 8 25.6457 7.52966 10
15 -19 8 19.8726 5.52598 8
-19 15 -8 21.4042 7.17314 9
-15 19 8 12.4983 6.24301 11
-4 -15 8 15.8254 6.63355 9
-15 -4 -8 14.0918 6.28659 9
-4 19 -8 19.4769 7.20499 10
19 -15 8 5.24492 5.50083 7
-19 4 -8 8.8293 5.3039 9
-19 15 8 2.65819 4.50669 10
-4 -15 -8 11.1214 4.92464 8
4 15 -8 11.5865 6.56092 11
-4 19 8 18.5706 6.86309 11
-15 19 -8 10.4397 6.38292 9
-15 19 -8 18.3494 7.47846 10
-15 -4 8 5.28608 6.86977 10
4 15 -8 16.6785 8.05115 12
15 -19 -8 7.10754 5.04381 7
-19 3 8 10.4264 6.95131 10
3 -19 -8 5.61333 4.70384 8
-16 -3 -8 7.08075 5.59387 9
19 -16 -8 14.3491 5.22216 7
16 -19 8 5.40704 5.11218 8
-3 -16 8 8.32858 5.7804 9
-16 19 8 2.883 7.94311 11
-3 19 -8 7.16734 6.64386 10
-19 16 -8 9.0835 7.17052 9
-3 19 -8 7.17488 7.77396 12
-16 -3 8 4.20847 6.54723 10
-3 -16 -8 4.63131 4.48818 8
-16 19 -8 9.25613 6.21874 9
-3 19 8 4.99689 6.51926 11
19 -16 8 4.97919 5.19545 7
3 16 -8 8.55995 7.26946 12
3 16 -8 4.56356 6.29852 11
16 -19 -8 3.91974 5.02401 7
-19 3 -8 3.47615 5.04992 9
2 17 8 -3.0096 5.40893 11
-19 2 8 10.8337 6.82159 10
17 -19 8 18.2727 5.10843 8
-17 -2 -8 8.62514 5.41389 9
-2 -17 8 6.78728 5.7161 9
2 -19 -8 15.1672 4.88004 8
-2 19 -8 14.6611 6.21767 10
-2 19 -8 10.5703 7.45561 12
-19 17 -8 15.2989 6.69916 9
19 -17 -8 15.8831 5.11764 7
19 -17 8 9.73103 4.1804 8
-17 19 -8 13.3631 6.10059 9
-2 19 8 13.1411 6.96085 11
-19 2 -8 6.07136 4.87581 9
19 -17 8 5.943 4.517 7
-17 -2 8 12.2218 6.67363 10
17 -19 -8 10.1462 4.8966 7
-2 -17 -8 7.46886 4.39075 8
2 17 -8 8.36646 6.06559 11
2 17 -8 18.1775 7.68452 12
2 -19 8 11.4504 5.75945 9
-1 19 -8 11.5634 7.30448 12
18 -19 8 7.93461 4.77362 8
19 -18 -8 7.92545 4.55116 7
-1 -18 8 21.2886 6.26426 9
-19 18 -8 9.55639 6.01105 9
-19 1 8 11.3534 6.458 10
1 -19 -8 10.2513 4.42048 8
1 18 8 7.74939 4.57074 11
-18 -1 -8 7.83318 5.03038 9
18 -19 -8 10.2455 5.20114 7
19 -18 8 8.97487 4.27586 8
1 -19 8 16.2992 5.93964 9
-1 -18 -8 11.9213 4.18762 8
-19 1 -8 6.72961 4.75363 9
-18 19 -8 14.1016 5.94873 9
1 18 -8 17.766 7.64143 12
-1 19 8 19.7497 6.48418 11
-18 -1 8 12.0235 6.37447 10
0 -19 -8 2.53134 4.02357 8
-19 19 -8 1.65612 4.63802 9
0 19 -8 1.46184 7.57978 12
19 -19 8 0.65999 3.36412 8
-19 0 8 4.78508 6.36557 10
0 -19 8 1.19488 5.54524 9
19 -19 -8 7.34756 4.60712 7
0 19 8 -4.0617 4.15168 11
-19 0 -8 2.08837 4.96963 9
-10 20 -8 44.5681 8.46835 10
-20 10 -8 37.845 6.84757 9
20 -10 8 50.6879 6.91046 7
10 -20 -8 40.0315 6.02398 8
-10 20 8 64.5668 7.91254 11
10 -20 8 27.5905 5.93219 8
-20 10 8 35.5671 8.37042 10
-11 20 8 9.69647 5.86433 11
11 9 -8 15.9215 6.05396 11
-9 20 -8 6.64463 7.3014 10
20 -11 -8 8.38998 5.30239 7
-9 -11 8 -0.4599 3.95122 9
-20 9 8 15.5216 7.56575 10
9 -20 -8 11.694 5.28794 8
20 -9 8 4.8841 5.49428 7
11 -20 8 5.18447 4.89557 8
-20 11 -8 5.72679 5.4656 9
20 -11 8 13.9148 5.52684 7
-9 20 8 26.2566 6.54552 11
9 -20 8 17.6985 5.28638 8
-11 20 -8 23.8449 7.98852 10
-20 9 -8 21.8192 6.08162 9
9 11 -8 23.607 6.50512 11
-20 11 8 16.3688 8.09669 10
12 8 -8 21.5287 6.17835 11
-20 8 8 11.9583 7.53414 10
-20 12 -8 10.2098 5.70079 9
12 -20 8 18.2042 5.63493 8
-12 20 8 17.749 6.5189 11
20 -12 -8 19.8899 5.58743 7
8 -20 -8 5.83124 5.09631 8
20 -8 8 12.3156 5.70996 7
-8 -12 8 11.5121 5.44995 9
-8 20 -8 10.477 6.98253 10
-20 12 8 27.0844 7.91223 10
20 -12 8 21.0569 5.73925 7
-20 8 -8 22.8965 6.31631 9
8 -20 8 11.5759 5.45314 8
-8 20 8 27.1226 6.48563 11
8 12 -8 22.0025 6.34781 11
-12 20 -8 23.3914 8.21851 10
-20 7 8 26.3757 7.78863 10
-7 20 -8 30.0102 7.23477 10
20 -13 -8 30.5128 6.01815 7
-20 13 -8 24.7087 6.66507 9
13 7 -8 35.4495 6.80312 11
-7 -13 8 25.8337 6.12599 9
-7 20 -8 9.18945 5.88381 12
-13 -7 -8 11.2046 4.99802 9
7 -20 -8 23.4343 5.41757 8
13 -20 8 33.4472 5.93323 8
-13 20 8 26.9854 6.67706 11
20 -7 8 23.9451 6.09725 7
-13 -7 8 10.7424 6.5003 10
-20 7 -8 35.6348 6.37514 9
7 13 -8 24.0555 6.53586 11
7 13 -8 21.5842 6.81554 12
20 -13 8 27.9284 6.07121 7
-20 13 8 32.3775 7.68557 10
-7 20 8 36.1544 6.93822 11
-13 20 -8 36.6145 8.55998 10
-6 -14 8 18.9719 5.73181 9
14 -20 8 16.7338 5.23376 8
14 6 -8 23.822 6.41689 11
20 -6 8 5.62357 5.07616 7
-20 14 -8 15.7054 6.092 9
-14 20 8 22.6614 6.63075 11
-14 -6 -8 11.5915 5.34719 9
-20 6 8 16.9458 7.02002 10
-6 20 -8 16.8751 7.68573 12
6 -20 -8 20.6261 5.28554 8
20 -14 -8 13.1882 5.19836 7
-6 20 -8 23.0973 6.8557 10
-14 20 -8 24.6775 7.90995 10
-14 -6 8 19.8531 7.0313 10
-6 20 8 19.7602 6.43122 11
-20 14 8 23.511 6.68664 10
20 -14 8 18.6911 5.4482 7
6 14 -8 19.8828 6.62987 11
6 14 -8 14.4221 6.47508 12
-20 6 -8 27.1165 6.06689 9
-15 20 8 5.58492 5.1188 11
-15 -5 -8 4.67992 5.24871 9
-5 20 -8 6.8544 7.45487 12
5 -20 -8 8.39899 4.51595 8
-5 20 -8 -0.7421 6.73326 10
-20 5 8 4.01642 6.5749 10
20 -15 -8 5.55584 4.75393 7
-20 15 -8 7.90084 6.36493 9
-5 -15 8 1.37189 5.27571 9
15 -20 8 6.39405 4.74289 8
-5 -15 -8 7.1287 3.57239 8
-20 5 -8 6.32377 4.97827 9
-15 -5 8 8.80011 6.45701 10
-20 15 8 -1.0375 4.36547 10
5 15 -8 5.53878 6.54869 12
-5 20 8 9.29074 6.15979 11
-15 20 -8 8.59666 7.1911 10
5 15 -8 10.4414 6.31184 11
20 -15 8 4.03484 4.7819 7
-4 20 -8 -2.7474 6.00748 10
-4 20 -8 2.00534 7.36447 12
20 -16 -8 3.88183 4.24055 7
-16 -4 -8 7.18057 5.10626 9
-4 -16 8 -3.1679 5.148 9
16 -20 8 4.92347 4.61853 8
-20 4 8 0.75732 6.28872 10
-20 16 -8 6.40377 6.41152 9
4 -20 -8 5.42565 4.80178 8
-4 -16 -8 2.56285 3.73403 8
-16 -4 8 3.88079 6.33047 10
-4 20 8 3.80642 6.01316 11
4 16 -8 0.11327 6.36885 12
4 16 -8 -1.2745 6.27915 11
-20 4 -8 -0.9594 4.84093 9
20 -16 8 0.3233 4.50871 7
16 -20 -8 0.59301 4.38769 7
-20 3 8 14.627 6.74751 10
-20 17 -8 9.33223 6.02923 9
20 -17 -8 11.3189 4.82587 7
-3 -17 8 8.33923 5.1672 9
3 -20 -8 10.9574 4.46156 8
-3 20 -8 14.2969 6.28941 10
-17 -3 -8 11.8415 5.41033 9
17 -20 8 14.0095 4.77859 8
-3 20 -8 12.9893 7.83947 12
-3 20 8 8.73312 6.28331 11
17 -20 -8 1.89965 3.10874 7
3 -20 8 5.98024 5.38586 9
-17 -3 8 1.71965 6.23184 10
-20 3 -8 4.77011 4.32307 9
3 17 -8 2.39878 6.81157 12
-3 -17 -8 7.82876 3.5892 8
20 -17 8 4.56853 4.05772 7
3 17 -8 4.41733 5.98057 11
-2 -18 8 1.04275 5.55378 9
-20 18 -8 -0.0291 4.65472 9
-20 2 8 4.67694 6.52776 10
20 -18 -8 1.5556 4.97099 7
-2 20 -8 5.84272 8.50675 12
18 -20 8 0.8004 4.71092 8
-18 -2 -8 1.1829 5.22009 9
2 -20 -8 4.52745 4.21453 8
-2 20 8 1.38081 6.34196 11
18 -20 -8 0.96812 3.13627 7
-2 -18 -8 0.76076 3.28649 8
2 18 -8 4.38899 7.23054 12
-18 -2 8 0.9497 6.17882 10
2 -20 8 -1.1613 5.67187 9
-20 2 -8 4.3446 4.83869 9
1 -20 -8 -0.522 4.27644 8
-1 20 -8 9.4435 8.40561 12
1 19 -8 -4.1936 7.54329 12
-1 -19 -8 3.98367 2.59164 8
-21 11 -8 3.38277 4.86668 9
-10 21 -8 2.94495 6.69526 10
11 -21 8 3.98076 4.22527 8
11 10 -8 12.5277 5.61367 11
-21 10 8 1.24032 6.54676 10
10 -21 -8 5.41521 4.09327 8
21 -10 8 4.5366 4.8075 7
-11 21 8 5.35891 5.60409 11
10 -21 8 11.7512 4.81147 8
-21 10 -8 7.38339 5.0231 9
10 11 -8 12.9314 5.67541 11
-11 21 -8 3.21832 7.09244 10
-10 21 8 6.54185 5.43982 11
-21 11 8 3.42187 6.61433 10
21 -11 8 6.95116 4.71952 7
21 -12 -8 13.9677 4.70342 7
-21 9 8 15.738 6.67643 10
-12 21 8 15.0067 5.95425 11
-9 21 -8 26.255 7.21904 10
-21 12 -8 17.0633 5.68391 9
12 -21 8 15.0476 4.43827 8
9 -21 -8 16.6145 4.62136 8
21 -9 8 13.6244 5.20858 7
12 9 -8 24.5003 5.96824 11
9 12 -8 27.8159 6.30856 11
-21 12 8 23.3634 6.93666 10
-21 9 -8 9.28542 5.19829 9
-12 21 -8 16.286 7.46765 10
-12 -9 8 15.5363 6.47051 10
9 -21 8 16.4515 4.86074 8
21 -12 8 10.1177 4.55033 7
-9 21 8 17.7841 5.68774 11
21 -13 -8 4.77036 4.58469 7
-8 21 -8 9.84517 6.46466 10
8 -21 -8 6.32817 4.42574 8
-21 13 -8 7.82117 5.37139 9
-8 -13 8 0.09064 3.44456 9
13 -21 8 5.30875 4.55302 8
13 8 -8 7.96729 5.33737 11
-13 21 8 6.13847 5.89891 11
-21 8 8 0.87602 5.90356 10
21 -8 8 2.89151 4.97563 7
-21 13 8 3.23435 5.9277 10
8 13 -8 3.63999 5.35527 11
8 -21 8 -2.9172 4.79889 8
-21 8 -8 7.10257 4.84086 9
21 -13 8 -1.7755 4.64669 7
-13 -8 8 -0.0289 5.42637 10
-8 21 8 -3.7833 4.95316 11
-13 21 -8 5.36117 7.21376 10
-21 7 8 -5.2868 5.87279 10
-21 14 -8 2.04173 5.38237 9
21 -14 -8 5.46271 4.35814 7
-14 21 8 0.67216 4.98893 11
-7 21 -8 5.87671 6.05548 10
7 -21 -8 4.02238 4.28565 8
14 7 -8 10.7173 5.6696 11
21 -7 8 -1.2646 3.39221 7
-7 -14 8 -4.1901 4.03781 9
14 -21 8 0.90001 4.55704 8
7 14 -8 -1.3189 5.31302 11
-21 7 -8 1.48249 4.54461 9
-7 21 8 3.11172 5.79282 11
21 -14 8 1.65793 4.44449 7
-14 21 -8 12.4184 7.35574 10
-21 14 8 3.21899 5.19103 10
-14 -7 8 5.5243 6.26643 10
-21 6 8 4.56292 6.46039 10
21 -15 -8 5.9994 4.70674 7
-6 21 -8 1.40575 5.02587 12
-15 -6 -8 0.05104 3.34925 9
-6 21 -8 -0.3042 6.53143 10
-6 -15 8 -0.2807 4.45708 9
6 -21 -8 4.97024 4.28421 8
15 -21 8 1.55775 4.77605 8
-21 15 -8 9.22471 5.80552 9
-21 6 -8 4.07327 4.68922 9
6 15 -8 2.75899 4.09388 12
-21 15 8 0.21267 3.65981 10
21 -15 8 -0.5715 4.46833 7
-6 21 8 1.60552 6.02589 11
6 15 -8 8.2345 5.83466 11
-15 21 -8 4.00864 5.86041 10
-15 -6 8 1.36693 6.067 10
-5 21 -8 1.66317 7.24555 12
21 -16 -8 3.42921 4.57979 7
-21 5 8 3.11111 6.89103 10
-16 -5 -8 2.42272 3.8537 9
5 -21 -8 4.34888 4.18946 8
16 -21 8 2.92297 4.58813 8
-21 16 -8 3.69802 5.51327 9
-5 21 -8 3.47975 6.49322 10
-5 -16 8 1.31988 4.50077 9
-5 21 8 2.57588 6.49639 11
-16 -5 8 0.41199 6.26025 10
-21 5 -8 2.16105 4.85484 9
5 16 -8 -0.1578 5.88837 11
21 -16 8 1.02568 4.30849 7
5 16 -8 3.25385 5.21218 12
-4 21 -8 5.54499 6.17585 10
-4 -17 8 1.05213 5.17535 9
-4 21 -8 15.6014 8.43874 12
-21 4 8 4.95934 6.53138 10
-21 17 -8 0.12158 3.65322 9
17 -21 8 3.1824 4.61167 8
-17 -4 -8 5.79065 3.82697 9
21 -17 -8 7.51064 5.17114 7
4 -21 -8 6.63636 4.52763 8
4 17 -8 1.18327 6.17391 12
4 17 -8 9.99532 4.83054 11
-4 21 8 5.3257 6.65546 11
-21 4 -8 4.46777 5.11722 9
-17 -4 8 4.85751 6.51711 10
4 -21 8 4.90782 5.42708 9
21 -17 8 0.84184 2.71171 7
-11 22 8 12.0201 5.55641 11
-22 11 -8 8.23074 4.91151 9
-11 -11 8 7.72989 5.99075 10
-22 11 8 6.16787 6.0423 10
-11 22 -8 10.9933 7.34337 10
22 -11 8 4.95485 4.9349 7
11 11 -8 19.2949 5.83099 11
11 -22 8 8.11626 4.30796 8
-10 22 -8 2.51781 6.88019 10
22 -10 8 -3.4636 4.69375 7
-22 10 8 2.65087 5.784 10
12 -22 8 0.25586 4.35315 8
10 -22 -8 -0.2834 3.40794 8
12 10 -8 8.04938 5.93468 11
-22 12 -8 4.41162 5.05038 9
-12 22 8 -1.6156 5.26647 11
-10 22 8 10.9021 6.45997 11
-12 22 -8 -1.0307 7.38809 10
-12 -10 8 4.45154 6.08984 10
10 -22 8 0.79365 2.96358 8
22 -12 8 2.62254 4.60711 7
-22 12 8 7.69245 5.85277 10
10 12 -8 15.1243 5.89174 11
-22 10 -8 6.73209 4.84159 9
-22 13 -8 6.80236 5.06557 9
13 -22 8 10.0795 4.89333 8
-22 9 8 9.88985 6.52758 10
13 9 -8 12.0396 5.79703 11
9 -22 -8 7.31595 3.9926 8
-13 22 8 -0.1645 3.80721 11
-9 22 -8 4.8871 6.86977 10
22 -9 8 -0.685 3.70519 7
-13 22 -8 12.5849 7.8834 10
-22 13 8 8.86449 5.22761 10
9 13 -8 12.3974 6.13726 11
22 -13 8 6.83639 4.96447 7
-9 22 8 3.70029 5.51002 11
-22 9 -8 8.85863 4.70505 9
-13 -9 8 10.5835 6.34773 10
-22 14 -8 3.85985 5.28439 9
22 -14 -8 2.16384 3.68262 7
8 -22 -8 7.5918 4.38585 8
14 -22 8 9.5781 5.05786 8
-8 22 -8 4.05635 6.94672 10
-22 8 8 -0.2369 6.55033 10
-22 8 -8 10.5419 4.96988 9
-14 22 -8 12.4973 5.74333 10
-8 22 8 9.82183 5.60883 11
-14 -8 8 6.06922 6.52639 10
22 -14 8 10.5102 4.77867 7
-22 14 8 0.93369 3.63627 10
8 14 -8 8.64244 6.01176 11
15 -22 8 0.5831 5.02255 8
7 -22 -8 1.18291 4.30032 8
0 0 9 1.799 10.0141 6
0 0 -9 0.79303 6.52556 5
1 -1 -9 180.661 18.326 5
1 -1 9 248.065 22.24 6
0 1 9 249.779 22.8747 6
0 -1 -9 227.241 19.7439 5
-1 0 -9 224.119 19.8525 5
1 0 9 256.552 23.0626 6
-1 2 9 -1.5468 9.18528 6
2 -1 9 3.23003 10.0159 6
1 -2 9 8.07973 9.93363 6
1 -2 -9 8.47247 7.26374 5
1 1 9 3.53775 9.6006 6
-1 -1 -9 4.73016 8.34003 5
0 -2 -9 37.2257 9.69683 5
2 -2 9 26.6827 10.8883 6
0 2 9 50.9672 12.5678 6
-2 0 -9 39.9353 9.86931 5
2 0 9 33.5808 11.632 6
-2 3 9 205.994 20.3424 6
2 -3 9 173.356 19.4281 6
1 -3 -9 182.195 18.7346 5
-2 -1 -9 174.872 18.3812 5
3 -1 9 196.509 20.8268 6
1 2 9 207.816 21.7361 6
3 -2 9 210.552 21.5245 6
-1 3 9 224.144 22.4351 6
1 -3 9 184.751 20.5551 6
2 1 9 215.433 22.5253 6
-1 -2 -9 207.219 19.9783 5
0 3 9 94.4438 15.4574 6
3 -3 9 52.1001 11.6766 6
0 -3 -9 59.5656 11.5851 5
3 -3 -9 88.4749 14.0028 4
3 0 9 47.1584 11.7792 6
-3 0 -9 58.5238 11.3465 5
4 -2 9 5.84588 10.2772 6
4 -2 -9 8.28186 10.4702 4
-2 4 9 11.4802 11.199 6
-2 -2 -9 6.07154 9.17161 5
2 -4 9 0.22024 7.34176 6
2 2 9 13.2425 11.7801 6
2 -4 -9 7.69712 8.6239 5
1 3 9 135.773 17.1909 6
4 -3 -9 126.317 17.1235 4
1 -4 -9 93.2177 13.4611 5
-3 -1 -9 110.637 14.0712 5
4 -1 9 83.2098 14.6148 6
3 -4 -9 115.673 16.922 4
-1 -3 -9 109.208 16.0126 5
-1 4 9 116.418 18.0756 6
3 1 9 109.526 18.1652 6
4 -3 9 111.989 16.8476 6
0 4 9 67.2689 13.2086 6
-4 0 -9 82.778 12.4955 5
4 -4 -9 73.4843 13.7049 4
0 -4 -9 38.7839 10.6378 5
4 0 9 55.1106 12.9568 6
4 -4 9 51.7128 12.0597 4
-3 5 9 74.9749 14.7255 6
5 -2 9 74.0814 13.9247 6
5 -3 -9 68.4138 13.6098 4
3 -5 9 54.984 12.6208 4
2 -5 -9 53.7675 11.7204 5
2 3 9 106.524 16.1973 6
-3 -2 -9 50.3798 10.9368 5
5 -2 9 65.509 11.9863 4
3 2 9 57.0404 12.9572 6
5 -3 9 76.0173 13.211 4
3 -5 -9 87.2649 15.5296 4
3 -5 -9 50.84 10.8647 5
-2 -3 -9 50.1942 11.381 5
5 -3 9 66.2819 12.6247 6
5 -2 -9 65.0373 13.6461 4
-2 5 9 84.1111 14.9425 6
5 -1 9 29.5146 11.6114 6
5 -4 -9 25.2748 11.1453 4
4 -5 9 35.8533 11.6591 4
1 -5 -9 30.2943 11.057 5
1 4 9 39.7831 12.8901 6
-4 -1 -9 24.6038 9.96464 5
5 -1 -9 11.2111 11.5409 4
-1 5 9 14.8332 11.9597 6
5 -4 9 -1.0908 10.0773 6
4 -5 -9 14.41 11.972 4
-1 -4 -9 12.046 9.61796 5
5 -4 9 12.0107 10.2094 4
4 1 9 20.6484 12.0187 6
5 -5 -9 390.862 34.12 4
-5 0 -9 411.281 32.8526 5
0 -5 -9 429.366 33.3172 5
5 0 9 436.131 35.1852 6
0 5 9 436.649 35.2869 6
6 -3 -9 1.91911 11.7089 4
6 -3 9 8.74095 10.0862 6
3 -6 -9 6.96081 11.2182 4
3 -6 9 -1.4471 9.77855 4
6 -3 9 3.99155 10.2722 4
-3 -3 -9 -3.0569 8.96793 5
3 -6 -9 1.95556 10.126 5
3 3 9 8.07749 11.0893 6
-3 6 9 7.32373 11.4017 6
6 -2 9 215.387 22.1817 4
2 -6 -9 221.933 21.8764 5
-4 -2 -9 207.669 19.5871 5
4 -6 9 202.527 21.5513 4
-4 6 9 189.446 22.6443 6
6 -2 9 200.03 22.5108 6
2 4 9 242.395 24.1027 6
6 -4 -9 206.993 22.8132 4
-2 6 9 206.944 23.8252 6
6 -4 9 210.825 21.9518 4
4 2 9 229.199 24.5539 6
-2 -4 -9 203.272 20.003 5
4 -6 -9 220.144 22.9913 4
6 -2 -9 188.3 23.2874 4
6 -1 9 133.188 19.695 6
6 -1 9 113.342 18.169 4
-5 -1 -9 126.083 16.7958 5
5 -6 9 125.237 18.212 4
1 -6 -9 150.897 18.4035 5
1 5 9 133.245 19.5236 6
6 -5 -9 124.93 18.2084 4
6 -5 9 102.135 15.2917 4
5 -6 -9 129.528 19.353 4
5 1 9 122.54 19.9522 6
-1 6 9 145.468 18.7929 6
6 -1 -9 113.49 18.541 4
-1 -5 -9 124.375 16.8621 5
6 -6 -9 142.05 19.331 4
6 -6 9 117.747 18.8061 4
0 -6 -9 123.006 17.6482 5
0 6 9 129.698 20.3182 6
-6 0 -9 160.186 17.8526 5
6 0 9 124.07 20.4387 6
6 0 9 126.622 18.1917 4
3 4 9 94.9564 15.9208 6
3 -7 -9 128.706 17.2754 4
7 -3 9 82.4507 13.3542 4
-4 -3 -9 78.404 12.8588 5
-4 7 9 72.0881 15.2369 6
3 -7 -9 83.8101 14.8085 5
7 -4 -9 82.9284 15.5931 4
7 -3 9 65.7218 13.9974 6
4 -7 -9 58.4629 12.7157 5
3 -7 9 46.0586 10.7118 5
7 -3 -9 56.7598 15.0077 4
-3 -4 -9 59.3937 11.8161 5
-3 7 9 53.8159 14.4381 6
7 -4 9 83.2259 13.9396 4
4 -7 -9 67.3778 14.0653 4
4 3 9 95.7084 16.9387 6
7 -2 9 107.987 15.8986 4
7 -5 -9 83.5366 15.5251 4
7 -2 9 88.8369 15.4149 6
-5 -2 -9 109.048 14.3606 5
2 -7 -9 88.8261 15.4379 5
-5 7 9 87.8826 16.3213 6
5 -7 9 90.9049 14.7517 4
2 5 9 94.1729 16.2993 6
5 -7 -9 130.223 17.8106 4
7 -5 9 67.9254 13.316 4
-2 -5 -9 106.985 14.691 5
2 -7 9 63.2144 12.4284 5
-2 7 9 108.688 18.06 6
5 2 9 89.5363 16.3678 6
7 -2 -9 94.2214 16.9953 4
7 -6 -9 282.414 27.8822 4
1 -7 -9 294.068 26.6528 5
7 -1 9 297.634 28.3118 6
1 6 9 286.698 29.0132 6
6 -7 9 286.997 26.8252 4
-6 -1 -9 341.397 26.7717 5
7 -1 9 254.035 26.0076 4
-1 7 9 272.254 27.5872 6
6 1 9 285.53 27.7621 6
-1 -6 -9 270.099 24.3718 5
7 -6 9 279.797 25.876 4
7 -1 -9 215.175 25.6905 4
6 -7 -9 302.557 26.715 4
6 1 9 250.033 25.7961 4
7 -7 -9 72.8542 15.7907 4
0 -7 -9 49.215 12.2368 5
7 0 9 70.8999 14.3677 4
7 -7 9 55.5735 13.4254 4
0 7 9 67.9739 16.469 6
-7 0 -9 55.8945 11.9272 5
7 0 9 44.9572 13.772 6
-4 8 9 45.3916 15.2694 6
8 -4 -9 59.9513 15.8765 4
4 -8 -9 44.1213 13.4465 4
-4 -4 -9 79.7102 13.8211 5
4 4 9 76.1874 16.3062 6
4 -8 -9 45.252 13.4151 5
8 -4 9 50.8404 12.5319 4
4 -8 9 40.8309 11.2281 5
8 -5 -9 118.537 18.893 4
-5 8 9 119.772 18.7718 6
-5 -3 -9 112.006 17.2411 5
8 -3 9 101.898 16.3214 6
5 -8 9 130.148 16.1395 5
3 -8 -9 121.839 17.4076 5
8 -3 9 145.267 17.7181 4
3 5 9 168.324 21.2895 6
3 -8 9 98.3226 13.5949 5
8 -5 9 93.7887 14.6434 4
-3 -5 -9 116.4 15.1363 5
8 -3 -9 110.222 18.0817 4
-3 8 9 123.367 18.5311 6
8 -2 9 55.5019 12.7639 4
-6 8 9 43.3775 14.3781 6
8 -6 -9 64.6777 15.7953 4
2 6 9 55.977 15.2614 6
2 -8 -9 58.5357 13.962 5
8 -2 9 35.6951 13.2416 6
6 -8 9 45.551 12.6587 4
-6 -2 -9 56.8876 12.0272 5
6 -8 -9 73.359 15.8464 4
6 2 9 71.0588 16.5496 6
-2 -6 -9 71.5705 13.3125 5
6 2 9 55.8892 13.7975 4
8 -2 -9 52.4364 15.5393 4
8 -6 9 59.8321 13.5287 4
-2 8 9 38.563 14.1757 6
8 -7 -9 174.738 21.3604 4
7 -8 9 110.555 16.8659 4
1 7 9 160.15 21.6606 6
8 -1 9 116.523 18.5427 4
-7 -1 -9 123.253 17.844 5
8 -1 9 99.9094 17.4552 6
1 -8 -9 139.4 18.1337 5
8 -7 9 109.105 18.0653 4
7 1 9 118.956 19.7716 4
-1 -7 -9 145.802 17.5657 5
7 1 9 143.413 20.1072 6
7 -8 -9 128.602 20.5636 4
-1 8 9 122.902 19.6065 6
8 0 9 302.343 31.0024 6
8 -8 -9 378.149 31.8321 4
0 8 9 332.381 32.4426 6
0 -8 -9 316.745 28.8243 5
8 -8 9 301.184 29.0612 4
5 -9 9 25.8522 10.5367 5
4 -9 -9 43.0641 14.0619 4
9 -4 9 -2.6252 14.056 6
4 -9 -9 41.8434 13.8876 5
-5 -4 -9 58.4726 12.8411 5
-5 9 9 35.2931 14.9225 6
9 -4 9 55.8214 13.0101 4
9 -5 -9 36.8459 15.1294 4
4 5 9 71.5324 16.8404 6
-4 9 9 63.3176 17.107 6
9 -4 -9 76.3931 17.5865 4
4 -9 9 40.9883 11.3635 5
5 -9 -9 77.4648 15.9441 4
5 -9 -9 44.6696 13.5426 5
-4 -5 -9 87.6712 14.3839 5
5 4 9 79.6166 17.6605 6
9 -5 9 77.4258 14.6351 4
9 -6 -9 69.6385 16.2925 4
3 -9 -9 71.7408 15.0407 5
3 6 9 71.6027 16.5462 6
9 -3 9 31.1884 12.5026 6
-6 -3 -9 95.4642 13.9999 5
6 -9 9 56.7276 11.7674 5
-6 9 9 49.865 15.452 6
9 -3 9 71.0091 14.248 4
9 -3 -9 49.5624 16.3808 4
3 -9 9 41.1808 11.0389 5
-3 -6 -9 61.1077 12.1691 5
6 -9 -9 87.7898 16.4654 4
-3 9 9 37.1427 15.4088 6
6 3 9 55.4592 15.0549 4
6 3 9 46.0797 14.4927 6
9 -6 9 68.6849 13.8276 4
9 -2 9 82.7278 14.6536 4
9 -2 9 125.491 17.8584 6
-7 9 9 86.2636 17.2193 6
7 -9 9 118.387 17.2873 5
9 -7 -9 125.744 19.0695 4
2 -9 -9 119.44 16.767 5
2 7 9 153.296 20.7302 6
7 -9 9 93.5714 15.9959 4
-7 -2 -9 116.993 16.6082 5
7 2 9 140.812 21.8159 4
-2 9 9 159.853 22.3958 6
7 -9 -9 131.827 21.3296 4
-2 -7 -9 119.732 17.5759 5
9 -7 9 127.961 19.3476 4
7 2 9 155.221 20.9679 6
9 -8 -9 -0.0832 6.50698 7
-9 8 -9 2.67921 5.56172 8
-8 9 9 3.22908 5.62518 11
9 -1 9 25.319 12.9477 4
8 -9 9 15.2871 10.6602 5
-8 -1 -9 32.7156 11.0324 5
8 1 -9 -0.8996 4.86291 11
9 -8 -9 19.5699 12.9343 4
1 8 9 45.3289 15.9009 6
9 -1 9 27.7565 13.7795 6
8 -9 9 14.8677 12.4538 4
1 -9 -9 16.4385 11.7698 5
8 1 9 31.0119 14.217 6
-1 9 9 44.8478 16.6983 6
8 -9 -9 49.9179 15.5508 4
8 1 9 42.6065 14.1166 4
-1 -8 -9 27.4518 11.0224 5
9 -8 9 35.7764 13.5456 4
9 0 9 3.98215 11.9548 4
9 0 9 3.10015 13.3851 6
9 -9 -9 -0.662 13.8495 4
-9 9 -9 13.8697 5.89909 8
0 9 -9 1.64574 6.10122 12
9 -9 -9 -3.6038 7.29025 7
0 -9 -9 4.1102 10.9104 5
0 9 9 9.96676 14.8202 6
0 -9 -9 2.57118 5.58557 8
9 0 -9 2.74907 6.21185 11
9 -9 9 -2.1123 11.0508 5
-9 9 9 14.6967 6.93692 11
9 -9 9 0.4305 12.7446 4
-5 10 9 9.85242 14.5557 6
5 -10 -9 18.2338 12.7411 5
10 -5 9 6.28269 10.9871 4
10 -5 -9 6.57265 15.0421 4
-5 -5 -9 0.36151 4.67294 8
-5 -5 -9 9.66377 10.8628 5
5 -10 9 9.04064 10.0457 5
5 -10 -9 6.51802 12.8839 4
5 5 9 10.5048 14.9651 6
6 -10 9 36.8206 11.1501 5
-10 6 -9 10.5799 6.16531 8
10 -6 -9 39.8941 16.4277 4
10 -4 9 33.7833 12.7825 4
-6 -4 -9 39.7419 11.7693 5
4 -10 -9 20.6856 12.9439 5
-6 10 9 38.5477 16.079 6
4 6 9 32.6992 14.8989 6
6 -10 -9 18.0382 12.8924 4
6 -10 -9 5.11046 10.8888 5
-4 -6 -9 7.11519 5.6453 8
6 4 9 41.48 15.5668 6
-4 10 9 14.5632 14.9924 6
6 4 9 24.3503 13.8585 4
10 -4 -9 22.1866 15.8502 4
10 -6 9 26.3113 12.666 4
-4 -6 -9 9.65007 10.1531 5
4 -10 9 15.8 9.88489 5
10 -3 9 11.3811 10.9326 4
3 7 9 26.9044 15.3503 6
-7 -3 -9 3.31501 9.98766 5
-10 7 -9 16.1318 6.8296 8
-7 10 9 14.6348 6.55756 11
7 -10 9 8.21898 10.477 5
7 3 -9 -3.124 4.53251 11
10 -7 -9 17.5376 15.0858 4
3 -10 -9 21.2135 13.1535 5
-7 10 9 17.1891 14.2345 6
10 -3 9 12.5375 11.5613 6
-7 -3 -9 -0.0694 4.58882 8
7 3 9 11.8532 12.8042 4
7 -10 -9 23.9978 12.7713 4
3 7 -9 7.30153 6.72249 12
-3 -7 -9 16.2596 10.731 5
3 -10 9 9.22719 8.48198 5
7 3 9 16.5698 13.812 6
-3 -7 -9 14.1339 6.72176 8
7 -10 -9 -1.035 6.25111 7
10 -3 -9 14.5158 13.9737 4
-3 10 9 7.6635 14.5209 6
10 -7 9 15.1445 12.6058 4
-8 -2 -9 57.0108 12.2732 5
8 -10 9 53.1331 12.0201 5
2 8 9 86.0643 18.4897 6
8 -10 9 42.3607 12.3579 4
-8 10 9 45.3083 15.5269 6
10 -2 9 52.0578 14.978 6
-10 8 -9 57.4558 9.07407 8
-8 10 9 50.7731 9.1233 11
2 -10 -9 54.623 14.4372 5
10 -8 -9 53.3151 17.0947 4
10 -2 9 60.8357 13.6453 4
8 -10 -9 44.6776 8.78589 7
8 2 9 76.7838 15.5468 4
-2 -8 -9 69.5061 9.25668 8
2 8 -9 45.254 9.88796 12
10 -8 9 67.9074 14.5541 4
8 -10 -9 117.262 18.9136 4
-2 -8 -9 76.9903 13.6759 5
8 2 9 71.0852 16.0939 6
-2 10 9 114.982 20.2027 6
1 9 9 56.0212 17.7524 6
-9 10 9 42.6466 8.95539 11
9 -10 9 45.2925 14.3081 4
-10 9 -9 34.1325 8.30381 8
10 -9 -9 41.493 10.1235 7
9 1 -9 33.9643 7.56474 11
1 -10 -9 16.7071 7.12845 8
1 -10 -9 57.3172 13.7895 5
-9 10 9 40.5609 14.9247 6
10 -1 9 43.2975 13.1698 4
10 -9 -9 48.9205 15.776 4
10 -1 9 46.4747 15.3464 6
9 -10 9 65.926 12.7262 5
9 1 9 21.7663 13.6038 4
9 -10 -9 18.5529 8.45972 7
9 1 9 17.5515 13.95 6
-1 -9 -9 16.6013 7.04527 8
-10 1 -9 2.94311 4.92453 8
-1 10 9 39.9985 16.7972 6
9 -10 -9 43.2003 15.8921 4
-1 -9 -9 30.9776 12.1526 5
10 -9 9 18.4044 13.081 4
1 9 -9 26.0805 9.31273 12
10 -9 9 33.7645 12.636 5
-9 10 -9 8.58427 5.19504 9
10 0 9 60.0496 16.4018 6
0 -10 -9 49.5485 12.7434 5
-10 10 9 50.2338 8.91693 11
0 10 -9 29.6635 9.34295 12
10 -10 -9 47.9549 10.609 7
10 0 -9 52.4605 9.07592 11
10 0 9 70.8252 15.61 4
10 -10 9 60.3805 15.0664 4
10 -10 9 98.3056 15.8759 5
10 -10 -9 111.862 20.1253 4
-10 10 -9 47.7646 8.48521 9
0 10 9 77.619 19.6146 6
0 -10 -9 47.2947 8.87897 8
5 -11 -9 12.7683 13.137 4
-6 -5 -9 12.9106 10.1716 5
-6 11 9 19.2004 8.24796 11
-6 11 9 12.3876 14.7757 6
-11 6 -9 22.8372 7.77393 8
5 -11 -9 19.1271 13.4267 5
6 5 -9 3.95476 5.75547 11
-6 -5 -9 12.4866 6.56748 8
5 6 9 29.6257 15.1797 6
-11 6 -9 1.48246 5.36757 9
6 -11 9 9.64042 10.0938 5
11 -6 -9 6.71223 16.0243 4
-5 11 -9 -0.0641 6.55186 9
11 -5 9 21.8184 12.8108 4
5 6 9 -2.1385 12.0906 4
6 5 9 3.00819 13.109 4
6 -11 -9 10.2952 12.4617 5
5 6 -9 -3.6932 5.24715 11
-5 11 9 14.6676 7.93892 11
6 -11 -9 22.8371 13.3717 4
-6 11 -9 0.9992 4.69576 9
-11 5 -9 7.85256 6.49862 8
6 5 9 34.6608 16.3025 6
11 -5 -9 12.8901 15.9335 4
-5 -6 -9 26.7043 11.8802 5
-5 -6 -9 9.19444 6.86139 8
-5 11 9 12.0805 15.2075 6
5 -11 9 1.19798 10.0818 5
11 -6 9 11.1733 12.6803 4
5 6 -9 6.02973 7.212 12
4 7 9 6.01586 14.5693 6
-11 7 -9 3.61421 7.65354 8
-11 7 -9 1.98427 5.41387 9
-7 11 9 9.5462 14.3185 6
7 -11 9 15.9172 10.8658 5
4 -11 -9 6.07623 12.8635 5
-7 -4 -9 6.82768 9.67103 5
11 -7 -9 -3.0152 7.20764 7
7 4 -9 4.61229 6.08226 11
-7 -4 -9 16.0349 6.1581 8
11 -4 9 10.0185 11.9234 4
-7 11 9 6.73679 7.98358 11
11 -7 -9 7.80083 15.5295 4
7 4 9 19.7065 13.6446 4
-7 11 -9 3.37385 5.04267 9
4 7 -9 3.14262 7.93039 12
-4 11 9 11.4608 7.67563 11
7 -11 -9 9.81168 13.2579 4
-4 -7 -9 9.57219 10.2605 5
-4 11 9 8.03541 15.4075 6
4 -11 9 5.99925 9.82932 5
11 -7 9 8.53384 13.057 4
7 4 9 15.0498 15.2499 6
7 -11 -9 -4.8665 5.44419 7
-4 -7 -9 15.8247 7.30565 8
-11 4 -9 3.50536 6.18292 8
11 -4 -9 9.89334 15.8948 4
-11 8 -9 18.6756 6.52277 9
3 8 9 39.0201 16.199 6
-8 11 9 44.947 9.07087 11
11 -8 -9 11.3582 8.71952 7
8 3 -9 26.3113 7.38329 11
11 -3 9 28.1041 12.8191 4
-8 -3 -9 30.4747 6.28401 8
8 -11 9 25.7281 10.8095 5
11 -3 9 9.31719 11.036 6
-8 11 9 21.0716 14.2398 6
11 -8 -9 41.8773 18.0751 4
-11 8 -9 19.4698 8.36495 8
-8 -3 -9 29.2452 11.3486 5
3 -11 -9 54.7199 14.0593 5
11 -8 9 51.9195 14.8917 4
-11 3 -9 36.0562 6.99931 8
8 -11 -9 46.738 14.548 4
8 -11 -9 57.2286 9.22635 7
-8 11 -9 35.7016 7.5914 9
3 8 -9 52.4975 10.8557 12
-3 -8 -9 55.4559 12.4875 5
-3 -8 -9 50.2329 9.02612 8
-3 11 9 49.4138 17.1454 6
8 3 9 57.7796 15.1897 4
8 3 9 49.1847 15.4606 6
9 -11 9 29.1886 11.4947 5
-2 11 -9 22.0065 9.32015 12
11 -9 -9 27.8909 16.1484 4
-9 -2 -9 18.0187 5.93631 8
-9 11 9 28.6775 8.71698 11
11 -2 9 46.0006 14.4008 4
-11 9 -9 12.8192 6.99409 9
2 -11 -9 21.7627 7.94589 8
-11 9 -9 17.5185 8.29502 8
11 -9 -9 24.616 10.0771 7
9 2 -9 28.8618 8.03302 11
2 9 9 28.4119 17.0963 6
2 -11 -9 29.9377 12.8684 5
11 -2 9 14.8218 13.0882 6
-9 11 9 2.85186 12.9314 6
-9 -2 -9 43.5851 12.1307 5
9 -11 9 4.96699 10.0566 4
-2 11 9 2.13282 6.97093 11
-2 -9 -9 9.58375 7.3643 8
11 -9 9 19.865 12.242 5
9 2 9 23.1755 13.5936 4
9 -11 -9 20.6912 15.0379 4
-9 11 -9 12.1386 7.10456 9
-2 -9 -9 15.9747 12.0427 5
-11 2 -9 9.90902 5.33341 8
-2 11 9 12.8626 16.5068 6
9 -11 -9 4.08361 7.89617 7
2 9 -9 1.8565 5.27367 10
9 2 9 15.9228 14.2124 6
11 -9 9 5.46924 12.444 4
2 9 -9 7.23598 8.59732 12
-10 -1 -9 43.9719 6.77639 8
11 -10 -9 79.1798 19.0401 4
11 -1 9 46.3009 14.3221 4
11 -1 9 53.5581 16.0725 6
-10 11 9 54.1119 9.15585 11
10 1 -9 43.7174 8.25538 11
1 -11 -9 57.207 13.1399 5
1 10 9 76.4393 18.9492 6
-11 10 -9 35.3625 7.87348 9
11 -10 -9 47.7537 10.6077 7
-10 11 9 2.34963 13.266 6
-1 11 -9 33.488 10.5027 12
10 -11 9 42.6778 13.8789 4
10 -11 9 58.2237 12.7248 5
-11 1 9 18.863 8.74259 10
1 -11 -9 41.2456 8.37359 8
-10 11 -9 37.6606 8.29398 9
10 -11 -9 54.4293 17.3308 4
-1 -10 -9 63.7333 9.24021 8
10 -11 -9 43.8113 10.1124 7
-11 10 9 42.3199 8.94221 11
-11 1 -9 38.3279 6.74546 8
10 1 9 32.6675 14.6764 6
11 -10 9 89.8415 16.0975 5
11 -10 9 33.5372 13.8445 4
1 10 -9 46.0727 10.9276 12
1 10 -9 29.1835 7.6046 10
-1 11 9 53.7694 18.1339 6
10 1 9 60.3115 15.0852 4
-1 -10 -9 42.2707 12.9093 5
0 11 -9 4.90784 7.57279 10
0 11 -9 -4.9711 9.25295 12
11 0 9 6.15873 13.7272 4
11 -11 -9 -10.385 14.863 4
11 -11 9 7.7867 13.5489 4
-11 11 -9 12.8671 7.15476 9
-11 11 9 7.30777 7.53155 11
-11 0 -9 9.09305 5.92431 8
11 -11 -9 -4.7583 9.16274 7
0 -11 -9 10.6957 7.58373 8
0 -11 -9 -2.7451 10.6347 5
0 11 9 10.1658 16.5453 6
11 0 -9 9.59517 7.61905 11
11 -11 9 11.4708 11.9134 5
11 0 9 -3.9491 14.2294 6
-6 -6 -9 16.8317 7.09581 8
12 -6 -9 6.67166 17.1244 4
6 6 9 21.8216 15.4572 6
-6 12 9 14.2016 9.53117 11
-12 6 -9 5.74324 7.24657 9
6 -12 9 9.5214 9.75725 5
-12 6 -9 12.6504 7.84378 8
6 6 -9 9.72377 6.79276 11
12 -6 9 12.1304 12.33 4
6 -12 -9 8.98992 12.8978 4
6 6 -9 9.12815 7.26923 12
-6 -6 -9 5.07722 10.6088 5
-6 12 -9 -1.5479 6.53575 9
6 -12 -9 4.55447 12.8328 5
5 7 9 29.0397 14.8158 6
12 -7 -9 5.48036 7.71386 7
12 -5 9 14.6092 12.2123 4
7 5 -9 20.3342 7.52482 11
7 -12 9 34.4967 11.0683 5
-7 -5 -9 35.9354 11.6825 5
-7 -5 -9 40.8603 7.64907 8
12 -7 -9 54.6639 19.5729 4
5 -12 -9 26.5468 13.8606 5
-12 7 -9 38.9829 8.4607 9
-12 7 -9 29.968 8.67825 8
-5 12 -9 27.1939 7.26159 9
-7 12 9 37.2103 9.20837 11
7 -12 -9 12.8634 5.76818 7
-5 12 9 31.2345 9.41417 11
7 5 9 49.6541 16.9897 6
-5 -7 -9 35.1012 7.94457 8
5 7 -9 27.0565 9.13317 12
5 -12 9 20.9985 10.6085 5
5 7 -9 11.61 7.09274 11
12 -5 -9 24.3664 17.2005 4
12 -7 9 35.0764 14.1562 4
-12 5 -9 37.648 8.33551 8
7 -12 -9 22.268 14.1668 4
-5 -7 -9 26.5417 12.3089 5
-7 12 -9 17.5032 7.68732 9
-12 5 -9 26.0508 8.06902 9
-8 -4 -9 12.1073 6.50059 8
-4 12 -9 -0.0198 7.92462 12
8 4 -9 6.07859 6.65782 11
-8 -4 -9 7.96709 10.4512 5
8 -12 9 8.87295 9.96052 5
-12 8 -9 8.47843 7.82746 9
12 -8 -9 -4.2509 9.31261 7
4 -12 -9 1.43808 6.1737 8
4 -12 -9 7.81512 13.3478 5
4 8 9 8.69294 14.7007 6
-8 12 9 3.74028 8.6657 11
12 -4 9 16.631 13.0601 4
12 -8 -9 14.7539 16.6899 4
-12 8 -9 7.76024 8.37947 8
-4 12 -9 11.4126 6.82925 9
-8 12 -9 9.26515 7.04572 9
4 8 -9 9.32917 8.71956 12
-4 -8 -9 12.558 7.72897 8
-4 12 9 11.4633 9.15389 11
8 4 9 22.3577 15.844 6
12 -8 9 6.27643 13.0416 4
8 -12 -9 6.95097 13.6179 4
4 8 -9 -5.8485 5.90058 11
-12 4 -9 14.4207 7.85584 9
-12 4 -9 14.6757 7.2105 8
4 -12 9 1.8284 8.08288 5
8 -12 -9 9.90814 7.64302 7
-4 -8 -9 20.5794 11.6353 5
-3 12 -9 19.9152 9.83227 12
3 9 9 25.9278 16.6552 6
12 -9 -9 25.9849 10.311 7
3 -12 -9 41.5262 14.4021 5
12 -9 -9 10.6697 16.0115 4
3 -12 -9 14.4319 7.70815 8
-9 -3 -9 28.6689 11.3419 5
-12 9 -9 33.6608 9.5808 8
12 -3 9 31.2853 13.3635 4
9 -12 9 48.6339 12.5156 5
12 -3 9 4.47301 11.4994 6
-12 9 -9 28.9339 7.94945 9
-12 3 9 2.83937 7.60297 10
-9 -3 -9 31.8179 6.71382 8
9 3 -9 33.3019 8.03495 11
-9 12 9 36.4715 8.77212 11
-3 12 9 42.7568 9.463 11
3 9 -9 36.6636 9.7147 12
-3 -9 -9 44.0876 8.67004 8
9 -12 -9 28.9951 15.232 4
9 -12 -9 24.935 8.62772 7
12 -9 9 43.9847 14.6906 4
9 3 9 -7.2823 12.991 4
3 9 -9 28.1675 7.87287 10
9 3 9 31.0079 14.5493 6
-3 -9 -9 42.0061 13.0621 5
-12 3 -9 27.0754 6.96551 8
-12 3 -9 26.3411 8.45497 9
12 -9 9 29.8269 12.2326 5
-9 12 -9 27.7751 7.87455 9
-2 12 -9 35.3865 8.43608 10
10 -12 9 69.1459 13.926 5
2 10 9 40.4191 17.7751 6
-2 12 -9 20.6837 9.99121 12
10 2 -9 48.0655 8.50338 11
2 -12 -9 43.9965 13.4559 5
-10 12 9 50.6372 9.03515 11
12 -10 -9 52.9842 18.3631 4
-12 10 -9 43.4559 8.29947 9
12 -10 -9 32.2894 10.0885 7
12 -2 9 35.2948 13.1466 6
-12 2 9 23.738 9.6752 10
-10 -2 -9 44.5165 7.02557 8
12 -2 9 46.4133 14.6012 4
2 -12 -9 35.5072 8.84608 8
12 -10 9 62.2327 15.661 4
12 -10 9 57.4894 13.8003 5
10 -12 -9 54.0627 16.4494 4
-2 12 9 52.0428 9.61227 11
12 -10 9 48.2159 8.91754 7
-12 2 -9 67.541 8.32142 8
-10 12 -9 45.7128 8.80051 9
-12 2 -9 51.9928 9.81297 9
10 -12 -9 54.0787 10.1113 7
2 10 -9 43.9225 9.09275 10
-2 -10 -9 61.2225 9.37267 8
10 2 9 54.8216 16.2404 6
-12 10 9 64.2026 9.73483 11
2 10 -9 73.7438 11.7757 12
-2 -10 -9 71.7471 14.0259 5
12 -11 -9 26.0781 16.5926 4
-11 12 9 22.9868 7.76043 11
-12 1 9 23.4909 10.0444 10
11 -12 9 16.2038 11.2017 5
12 -11 -9 25.2384 10.1208 7
1 -12 -9 23.7489 7.69457 8
12 -1 9 21.9032 14.6858 6
1 -12 -9 39.6299 13.1858 5
-12 11 -9 20.3849 7.54431 9
-11 -1 -9 17.8459 6.1318 8
-1 12 -9 25.9467 8.28686 10
11 -12 9 5.44349 15.9567 4
-11 -1 -9 -0.3898 9.13596 9
-1 12 -9 12.4163 9.6115 12
12 -1 9 30.3791 15.0215 4
11 1 -9 22.1338 7.66309 11
1 11 9 16.2439 16.0382 6
1 11 -9 40.4469 10.9302 12
1 11 -9 47.7787 9.0738 10
-1 -11 -9 47.147 13.2993 5
12 -11 9 46.3283 12.8283 5
-11 12 -9 53.8915 9.14527 9
-12 11 9 40.7255 8.93518 11
11 -12 -9 46.3399 10.0364 7
-12 1 -9 61.3064 7.70995 8
-1 -11 -9 63.3068 9.53991 8
11 -12 -9 70.3713 18.6225 4
-12 1 -9 36.1313 9.56771 9
-1 12 9 57.008 9.09584 11
11 1 9 47.9779 15.4206 6
12 -11 9 44.0343 8.09061 7
12 -11 9 47.1716 15.2563 4
12 -12 -9 4.98757 8.92097 7
0 12 9 0.1856 5.85314 11
0 12 -9 11.236 7.94542 10
-12 0 9 5.96313 9.25726 10
0 -12 -9 9.07141 12.2413 5
0 -12 -9 1.58906 7.13912 8
-12 0 -9 3.53707 8.49781 9
12 0 9 0.86362 12.7425 4
12 -12 9 0.89294 11.1984 5
-12 12 9 -7.0089 7.11424 11
12 -12 -9 0.52989 16.0142 4
0 12 -9 8.80369 9.98638 12
-12 0 -9 9.40555 5.92348 8
12 -12 9 9.50634 5.1134 7
12 0 9 6.90041 13.9847 6
-12 12 -9 3.08047 7.37049 9
12 -12 9 7.62873 11.6236 4
13 -7 -9 28.645 9.14105 7
-13 7 -9 25.5559 8.54621 9
7 6 -9 20.4337 7.85917 12
-7 13 9 57.0692 10.6583 11
6 7 9 50.3583 16.182 6
7 6 -9 18.7742 7.43557 11
-7 -6 -9 28.4907 11.5403 5
7 -13 9 21.6222 10.834 5
-6 13 -9 37.987 8.43569 9
-7 -6 -9 27.173 7.58694 8
13 -6 9 40.6542 14.8445 4
13 -7 -9 48.6992 19.1255 4
6 -13 -9 31.2088 13.6499 5
-13 7 -9 35.4879 8.92635 8
-6 -7 -9 18.5904 11.9014 5
13 -7 9 18.7559 13.4363 4
6 -13 9 17.0465 10.7244 5
-13 6 -9 25.55 8.32065 8
-6 -7 -9 14.3189 7.12136 8
-13 6 -9 14.5006 8.30295 9
6 7 -9 12.2382 8.11291 12
13 -6 -9 16.4212 16.7519 4
7 6 9 33.8525 16.1331 6
-7 13 -9 21.437 7.85281 9
7 -13 -9 20.0787 13.9941 4
6 7 -9 21.3419 7.55934 11
-6 13 9 26.874 9.69094 11
7 -13 -9 7.28519 5.16928 7
-5 13 -9 0.77063 6.10676 10
-13 8 -9 2.50764 8.19672 8
5 8 9 6.49178 15.2727 6
-8 -5 -9 1.94384 10.607 5
8 -13 9 15.3147 10.2561 5
8 5 -9 0.93141 5.69596 12
-13 8 -9 9.68966 7.84581 9
8 5 -9 5.83886 7.32026 11
-8 -5 -9 13.6519 6.67933 8
-13 5 9 2.08883 6.98848 10
-5 13 -9 11.4582 7.46796 9
13 -8 -9 -1.364 9.72561 7
13 -5 9 9.83577 12.7957 4
-8 13 9 3.97018 8.75828 11
13 -8 -9 4.65909 16.8775 4
5 -13 -9 6.8723 7.78411 8
5 -13 -9 2.98968 12.8957 5
13 -8 9 22.39 13.5515 4
-5 -8 -9 16.1842 7.34746 8
-5 -8 -9 12.2526 11.0693 5
5 8 -9 14.255 9.19148 12
8 5 9 14.2981 14.5926 6
8 -13 -9 14.6999 13.7905 4
5 -13 9 11.0464 9.61376 5
-8 13 -9 7.84678 7.62066 9
8 -13 -9 7.94551 6.91706 7
-13 5 -9 4.76368 8.16492 9
-13 5 -9 12.8423 7.40312 8
-5 13 9 11.4077 8.97356 11
5 8 -9 3.89252 7.73863 11
13 -4 9 32.051 14.2096 4
-9 -4 -9 33.6119 6.77482 8
-13 9 -9 17.1726 8.07661 9
4 -13 -9 13.3939 8.14637 8
-13 4 9 9.13708 9.53105 10
-9 13 9 28.3817 8.55147 11
-4 13 -9 24.798 9.87524 12
-4 13 -9 22.2452 8.17919 10
4 -13 -9 27.3631 14.3053 5
-9 -4 -9 27.9475 11.6619 5
-13 9 -9 27.8834 9.38045 8
9 4 -9 25.6466 8.02232 11
13 -9 -9 29.0568 10.5185 7
4 9 9 26.929 15.4937 6
9 -13 9 32.6017 11.4567 5
13 -9 -9 29.4407 17.778 4
-4 -9 -9 28.0348 7.79843 8
-9 13 -9 22.2106 7.85478 9
13 -9 9 23.5682 13.9133 4
9 -13 -9 35.5186 15.3998 4
13 -9 9 16.1344 7.61956 7
-4 13 9 32.6393 9.33686 11
4 9 -9 18.9425 8.10979 11
-4 -9 -9 22.4804 11.7272 5
9 4 9 32.6482 16.5332 6
-13 4 -9 12.9197 7.19718 8
9 -13 -9 24.5341 8.03932 7
13 -9 9 14.0755 11.7197 5
-13 4 -9 27.94 9.33669 9
4 9 -9 23.8578 10.1054 12
13 -10 -9 64.5611 18.4914 4
3 -13 -9 69.7493 15.3225 5
-13 3 9 44.9476 11.1105 10
10 -13 9 63.92 12.7167 5
-13 10 -9 63.796 9.70704 9
-3 13 -9 37.832 10.9883 12
13 -3 9 83.0464 16.7905 4
-10 -3 -9 47.2651 7.65032 8
13 -10 -9 60.727 11.8202 7
-3 13 -9 49.1306 9.6746 10
-10 13 9 58.5629 9.43301 11
3 10 9 91.6 19.6126 6
3 -13 -9 58.9316 9.74567 8
10 3 -9 58.8684 9.23669 11
-3 13 9 96.8051 12.1069 11
13 -10 9 85.8936 10.8154 7
-3 -10 -9 121.777 11.7177 8
10 3 9 79.7553 17.8143 6
13 -10 9 124.261 17.363 5
10 -13 -9 84.8304 17.9944 4
-3 -10 -9 118.953 16.9073 5
3 10 -9 73.5673 11.5057 11
-13 3 -9 71.242 12.0393 9
-10 13 -9 86.1429 12.6766 9
-13 3 -9 96.4016 10.3234 8
13 -10 9 130.747 19.4843 4
-13 10 9 74.1445 11.0891 11
3 10 -9 118.919 14.1339 12
10 -13 -9 98.9072 11.7684 7
13 -11 -9 2.55434 8.84777 7
-11 -2 -9 11.9522 6.37046 8
2 -13 -9 6.17215 7.59807 8
-2 13 -9 0.15731 7.8238 10
-13 11 -9 9.71079 7.43313 9
-2 13 -9 8.33442 10.2742 12
11 -13 9 17.2011 11.5419 5
-11 -2 -9 0.38861 8.01093 9
11 2 -9 9.41372 7.70702 11
13 -11 -9 6.57839 16.8751 4
2 11 9 -3.4372 14.3695 6
-13 2 9 0.88437 9.6881 10
2 -13 -9 2.38096 11.7599 5
13 -2 9 2.41806 16.0074 6
13 -2 9 7.415 13.6209 4
-11 13 9 9.33888 7.83574 11
13 -11 9 5.99163 7.25305 7
11 -13 -9 1.88542 14.9123 4
-13 2 -9 7.62761 6.12476 8
2 11 -9 5.7307 7.71226 10
13 -11 9 -8.2095 12.7346 4
-2 -11 -9 11.1471 12.1892 5
2 11 -9 4.90133 9.36503 12
-13 11 9 7.41328 7.8347 11
-2 13 9 14.4487 9.03299 11
11 -13 -9 0.22153 7.96475 7
2 11 -9 1.46951 6.67664 11
-13 2 -9 12.0029 9.31804 9
-11 13 -9 4.62778 7.33622 9
-2 -11 -9 9.09032 7.43154 8
13 -11 9 4.25008 11.5494 5
11 2 9 3.15331 13.8621 6
13 -12 -9 8.89558 8.97423 7
-13 1 9 25.2145 9.85912 10
13 -12 -9 24.4018 17.6434 4
12 1 -9 23.3618 7.91481 11
-1 13 -9 17.4808 8.33445 10
12 -13 9 28.2418 11.6404 5
-12 -1 -9 20.6621 9.09959 9
-13 12 -9 16.9134 7.57135 9
-1 13 -9 7.48766 9.18706 12
1 -13 -9 18.4253 7.65191 8
13 -1 9 4.29229 11.667 6
-12 13 9 24.2856 8.16255 11
-12 -1 -9 22.3351 5.98905 8
13 -1 9 3.98172 12.7915 4
1 -13 -9 11.7295 11.0618 5
13 -12 9 15.7063 11.5933 5
-13 1 -9 21.9397 6.06688 8
-1 13 9 14.5183 9.26729 11
13 -12 9 13.3795 12.2994 4
12 -13 -9 31.0469 16.726 4
-13 1 -9 19.8661 9.51406 9
12 1 9 8.6854 13.9515 6
12 -13 -9 11.2881 8.59276 7
-1 -12 -9 27.3851 13.1871 5
-13 12 9 9.73011 7.66358 11
-1 -12 -9 19.3879 7.5719 8
1 12 -9 12.4878 7.74939 10
13 -12 9 13.5196 7.26539 7
1 12 -9 8.1277 10.1872 12
-12 13 -9 19.524 7.97827 9
13 -13 9 99.4034 14.8721 5
-13 13 9 102.59 11.3478 11
0 13 9 83.0155 10.9687 11
-13 13 -9 87.2533 10.7975 9
-13 0 9 109.517 12.5882 10
0 13 -9 99.6202 13.8496 12
13 -13 -9 110.929 21.5536 4
13 -13 -9 99.1197 11.8706 7
13 -13 9 68.2265 9.26215 7
0 13 -9 69.0495 10.3103 10
-13 0 -9 55.4883 10.9918 9
13 0 9 63.0241 15.498 6
0 -13 -9 66.2902 14.4441 5
-7 -7 -9 18.7136 7.08175 8
7 7 -9 23.78 9.0598 12
7 -14 -9 -4.4194 17.8101 4
-14 7 9 11.6376 7.90568 10
7 -14 9 19.8767 10.1302 5
-14 7 -9 21.6525 8.27139 8
7 7 9 26.1993 15.6416 6
14 -7 -9 5.27073 15.1334 4
14 -7 9 12.0795 13.8332 4
7 -14 -9 -0.0107 5.11148 7
14 -7 -9 11.5741 8.01407 7
-14 7 -9 15.3765 8.11646 9
7 -14 -9 -1.7447 7.71625 8
7 7 -9 15.1683 7.45335 11
14 -7 9 19.6921 7.69254 7
-7 14 -9 16.2197 7.63532 9
-7 14 9 30.5538 9.52821 11
-7 14 -9 5.96091 6.61763 10
-7 -7 -9 20.3094 12.058 5
-14 6 9 2.20813 9.51851 10
14 -8 -9 -5.7178 9.3384 7
8 -14 9 7.0714 10.2581 5
-6 14 -9 1.57639 8.21827 10
-8 -6 -9 12.8431 10.8863 5
6 8 9 4.1787 15.2013 6
-8 -6 -9 8.65517 6.67664 8
14 -8 -9 14.0262 17.3833 4
8 6 -9 5.48728 7.15911 11
6 -14 -9 -3.1287 12.5924 5
-6 14 -9 -1.4528 7.34534 9
-14 8 -9 3.19809 8.2999 9
6 -14 -9 -7.1152 7.63824 8
8 6 -9 5.74072 7.45901 12
-8 14 9 12.1704 8.3315 11
-14 8 -9 6.19564 8.16134 8
14 -6 9 5.52107 11.9649 4
8 6 9 15.351 14.5003 6
6 -14 9 0.84424 8.29062 5
-6 -8 -9 3.75319 6.66785 8
-6 -8 -9 6.61256 11.4135 5
6 8 -9 5.45028 7.6969 11
-6 14 9 7.79788 8.63281 11
6 8 -9 13.9263 9.16649 12
-14 6 -9 5.51297 8.14059 9
-8 14 -9 10.8459 7.73908 9
-14 6 -9 -3.7907 7.38922 8
14 -8 9 1.87736 7.02407 7
8 -14 -9 6.27705 6.42479 7
8 -14 -9 2.5838 12.1267 4
14 -8 9 10.2546 14.0979 4
9 5 -9 18.1911 7.57625 11
-14 9 -9 14.8178 8.4325 8
-9 14 9 30.9754 9.03166 11
9 -14 9 11.2866 10.5694 5
-9 -5 -9 21.5637 6.41151 8
-5 14 -9 11.3432 9.0408 12
14 -9 -9 5.21986 17.0402 4
5 9 9 17.9363 16.0296 6
-9 -5 -9 18.0213 11.1874 5
-14 5 9 11.2697 10.0668 10
-5 14 -9 12.8732 8.52594 10
14 -9 -9 9.59704 9.87728 7
5 -14 -9 16.2532 13.3993 5
-14 9 -9 13.3801 7.96869 9
14 -5 9 23.0834 13.5206 4
5 -14 -9 4.64824 8.19645 8
-5 -9 -9 13.6802 7.36132 8
14 -9 9 6.86324 13.2866 4
-5 -9 -9 17.6576 11.5647 5
9 -14 -9 13.7758 7.69227 7
14 -9 9 14.425 7.73651 7
14 -9 9 39.4767 13.4626 5
9 5 9 23.5194 14.8095 6
9 -14 -9 14.5092 13.9048 4
-5 14 9 27.3092 9.24646 11
-14 5 -9 17.8741 8.57988 9
-9 14 -9 22.4984 8.22009 9
5 9 -9 5.98757 7.42898 11
5 9 -9 10.3131 8.51564 12
-14 5 -9 17.1986 7.71598 8
4 -14 -9 11.3357 8.00042 8
10 -14 9 14.7979 10.827 5
14 -10 -9 13.8019 9.93911 7
-4 14 -9 17.2946 8.71597 10
-14 4 9 20.5004 10.439 10
4 10 9 10.3328 15.1417 6
14 -10 -9 18.6268 16.9054 4
4 -14 -9 20.5793 13.0997 5
-10 -4 -9 4.27881 9.05835 5
10 4 -9 15.6511 7.44574 11
-4 14 -9 14.7364 10.4952 12
14 -4 9 19.6394 14.0615 4
-14 10 -9 28.0328 8.41556 9
-10 -4 -9 11.8457 6.14587 8
-10 14 9 19.1091 8.06751 11
14 -10 9 6.89718 12.7927 4
4 10 -9 9.12703 8.91017 12
-4 -10 -9 17.1536 7.40423 8
-10 14 -9 14.5562 7.79066 9
14 -10 9 13.515 7.31676 7
-4 14 9 22.6659 9.01941 11
-14 4 -9 17.3981 7.00394 8
4 10 -9 9.11621 8.36374 11
-14 4 -9 17.4292 8.88782 9
10 -14 -9 25.3976 15.2721 4
-14 10 9 16.9722 8.31314 11
-4 -10 -9 30.9519 12.4154 5
14 -10 9 21.9876 12.1273 5
10 4 9 21.8986 14.7236 6
10 -14 -9 14.7875 7.85758 7
3 -14 -9 5.25977 7.37726 8
-11 -3 -9 -0.248 7.2783 9
-3 14 -9 14.8456 8.45056 10
14 -3 9 7.64322 12.9392 4
-11 -3 -9 16.3471 6.3024 8
11 -14 9 12.9045 10.7854 5
-11 14 9 6.78995 7.72643 11
3 -14 -9 22.0348 12.9937 5
14 -11 -9 3.52636 15.9213 4
-3 14 -9 9.01144 9.71297 12
3 11 9 -0.4599 17.5194 6
11 3 -9 12.4064 7.1216 11
-14 3 9 5.01721 9.50389 10
14 -11 -9 5.9056 8.74994 7
-14 11 -9 20.017 7.88701 9
-14 11 9 4.45162 7.77227 11
11 -14 -9 16.027 15.1016 4
3 11 -9 8.85275 8.61383 11
-11 14 -9 14.3647 7.71245 9
-14 3 -9 4.73422 8.37252 9
-14 3 -9 8.75152 5.90393 8
-3 14 9 20.79 9.54331 11
3 11 -9 12.6872 9.9542 12
14 -11 9 19.5318 12.1524 5
11 3 9 3.42824 14.892 6
-3 -11 -9 4.16778 7.09178 8
11 -14 -9 8.90055 7.62506 7
14 -11 9 6.08659 6.98049 7
-3 -11 -9 10.454 11.3823 5
14 -11 9 1.79583 12.8216 4
-12 14 9 36.3072 8.20361 11
14 -12 -9 52.6029 10.3194 7
-14 2 9 42.1844 10.343 10
14 -12 -9 13.4518 16.1559 4
2 -14 -9 25.9109 12.1935 5
-14 12 -9 52.3161 9.19845 9
-12 -2 -9 31.0297 6.43628 8
-2 14 -9 30.9085 8.71482 10
-2 14 -9 21.8526 10.0721 12
12 -14 9 48.6595 12.9183 5
2 -14 -9 36.4855 8.32133 8
12 2 -9 45.8383 8.55555 11
-12 -2 -9 35.3552 9.25875 9
12 2 9 72.1347 17.2489 6
14 -12 9 35.9631 8.40481 7
-2 -12 -9 55.7009 8.72089 8
14 -12 9 27.6239 12.6964 4
-14 2 -9 50.392 10.0559 9
-12 14 -9 52.7126 9.53761 9
12 -14 -9 33.255 8.79825 7
2 12 -9 76.7388 12.3379 12
12 -14 -9 66.0218 18.3034 4
2 12 -9 30.3878 9.12934 11
-2 14 9 77.3392 11.4482 11
-14 12 9 58.684 9.46847 11
-2 -12 -9 46.5106 12.5529 5
2 12 -9 56.8919 9.09694 10
14 -12 9 48.9218 12.55 5
1 13 9 28.8045 7.30038 11
-13 14 9 23.3411 8.10707 11
14 -13 -9 33.0313 16.7268 4
14 -1 9 41.5187 7.74508 7
-14 1 9 31.1412 9.93866 10
-14 13 -9 67.7085 9.80646 9
1 -14 -9 37.4854 12.3625 5
13 -14 9 38.247 12.0311 5
-13 -1 -9 41.6944 9.59441 9
-1 14 -9 51.8733 12.0931 12
-1 14 -9 40.6168 9.08813 10
1 -14 -9 49.9768 8.49501 8
14 -13 -9 47.0291 9.82814 7
-1 -13 -9 47.7228 13.4348 5
13 -14 -9 43.1619 17.1153 4
-13 -1 9 38.1234 10.0938 10
1 13 -9 45.2863 8.7385 10
1 13 -9 42.3435 11.6939 12
13 1 9 24.1172 12.589 6
-14 1 -9 36.2499 9.81292 9
14 -13 9 36.8975 11.9789 5
13 -14 -9 30.1678 8.35053 7
-1 -13 -9 27.5952 7.693 8
14 -13 9 27.2538 8.0478 7
-1 14 9 34.4181 9.71198 11
-14 13 9 31.069 8.5244 11
-13 14 -9 37.2418 8.52018 9
0 14 9 10.9131 8.56015 11
0 -14 -9 12.0277 11.375 5
-14 14 9 14.0883 7.87692 11
-14 14 -9 27.336 8.62793 9
0 14 -9 10.979 7.48121 10
-14 0 -9 6.0959 8.11421 9
14 -14 9 10.1854 6.54352 7
-14 0 9 16.5414 9.54442 10
14 -14 9 0.61763 10.1585 5
14 -14 -9 6.17876 14.9516 4
0 -14 -9 19.4873 7.31673 8
0 14 -9 19.0334 10.5397 12
14 -14 -9 8.78721 7.53909 7
8 7 -9 -0.0806 7.66169 12
7 -15 -9 -2.426 6.93609 8
15 -7 9 7.9359 6.93441 7
7 8 9 -1.2165 14.0843 6
8 7 -9 2.79282 6.72628 11
-8 -7 -9 -0.7853 9.29138 5
8 -15 9 8.62529 9.17158 5
-8 -7 -9 5.1517 6.77128 8
15 -7 9 10.4639 13.0599 4
15 -8 -9 -0.8716 8.75797 7
-15 7 9 3.74194 9.36871 10
-15 8 -9 8.13177 7.88272 9
-8 15 9 5.49346 8.01747 11
-15 8 -9 4.15993 7.81702 8
-7 15 -9 11.595 8.90265 10
-7 15 -9 5.06961 7.52641 9
15 -7 -9 1.11489 7.12353 7
7 8 -9 7.64919 8.56111 12
15 -8 9 9.98595 7.30478 7
-8 15 -9 0.62652 7.21688 9
-7 15 9 1.55898 7.99834 11
-15 7 -9 2.59788 7.75881 9
-7 -8 -9 5.97544 6.86858 8
8 -15 -9 -1.1821 4.37798 7
-15 8 9 -3.2252 8.65163 10
8 -15 -9 -1.8789 7.65137 8
15 -8 9 0.43191 10.5811 5
-7 -8 -9 15.1218 11.0501 5
-8 15 -9 11.0342 8.63509 10
15 -8 9 6.52639 13.322 4
7 -15 9 0.5831 9.38297 5
-15 7 -9 13.57 7.749 8
8 7 9 23.6303 14.6581 6
7 8 -9 5.61711 7.1815 11
-6 15 -9 12.4535 8.79368 10
6 -15 -9 -3.6549 7.66461 8
9 6 -9 7.01886 7.2878 11
-9 -6 -9 -0.7896 12.3462 5
-9 -6 -9 8.51716 6.38948 8
15 -6 9 -0.0754 6.90789 7
15 -9 -9 -2.4077 8.84602 7
15 -9 -9 -7.7262 15.7524 4
-9 15 9 3.73379 7.76008 11
9 6 -9 1.34568 5.53152 12
6 9 9 -1.6572 14.5782 6
9 -15 9 -2.7779 9.32361 5
-6 15 -9 0.56591 7.30605 12
15 -6 9 4.56518 12.6175 4
-15 6 9 3.20183 9.65525 10
-15 9 -9 3.69955 7.98045 9
6 -15 -9 0.61547 11.9713 5
-15 9 9 3.21763 6.73033 10
-9 15 -9 6.47933 7.37555 9
15 -9 9 2.70608 6.94344 7
6 9 -9 1.70061 9.19517 12
6 9 -9 -0.2145 7.60227 11
-6 -9 -9 6.62771 11.2711 5
-6 15 9 -0.4702 7.77515 11
-15 6 -9 7.08084 7.81413 9
15 -9 9 5.85058 10.2229 5
-9 15 -9 10.2965 7.50252 10
-6 -9 -9 16.2025 6.90004 8
15 -9 9 7.92051 12.8543 4
9 6 9 5.6495 13.6898 6
-15 6 -9 1.72351 6.95163 8
9 -15 -9 3.45486 6.47872 7
-15 5 9 7.79593 9.73828 10
15 -5 9 11.4407 7.40599 7
-10 -5 -9 16.3971 6.15369 8
-5 15 -9 17.9346 8.83204 10
10 5 -9 15.0167 7.43438 11
-5 -10 9 1.08542 5.91122 9
15 -10 -9 22.8339 16.3591 4
15 -5 9 0.35662 13.2389 4
-5 15 -9 10.1013 10.0465 12
5 -15 -9 12.9127 12.3767 5
15 -10 -9 15.1695 8.99941 7
10 -15 9 9.70148 10.2751 5
5 -15 -9 4.12643 7.80374 8
-10 15 9 14.9339 7.70719 11
5 10 9 4.77115 15.0413 6
-15 10 -9 17.4517 7.65583 9
-10 15 -9 12.9906 7.69216 9
-5 -10 -9 16.7562 7.10838 8
15 -10 9 14.6889 7.23469 7
-5 15 9 10.9407 8.67246 11
10 -15 -9 -2.0834 15.9489 4
15 -10 9 6.00707 10.5369 5
-15 5 -9 15.1272 8.49783 9
15 -10 9 4.04126 12.3122 4
10 -15 -9 15.2455 7.21294 7
-15 5 -9 13.3272 6.53357 8
-5 -10 -9 9.75958 11.4148 5
-15 10 9 19.2963 8.45805 11
5 10 -9 16.0558 8.91184 12
-15 10 9 0.64814 5.90648 10
5 10 -9 11.2318 7.57537 11
10 5 9 14.9848 14.9987 6
15 -4 9 11.1235 7.47949 7
-15 4 9 15.8569 9.77122 10
4 -15 -9 6.56948 11.4979 5
11 4 -9 13.1668 7.27769 11
-11 -4 -9 0.66658 6.70842 9
-11 -4 -9 8.19965 5.93057 8
15 -11 -9 8.19817 8.38972 7
-15 11 -9 17.0013 8.26917 9
-4 15 -9 14.9738 8.42921 10
4 -15 -9 5.43255 7.75028 8
11 -15 9 14.7549 11.0537 5
15 -4 9 9.40096 12.4235 4
-11 15 9 10.959 7.17529 11
15 -11 -9 15.0189 15.9731 4
-4 15 -9 13.8348 10.6658 12
-15 11 9 12.7192 8.12175 11
-11 15 -9 16.3508 8.21011 9
11 -15 -9 2.30104 11.3795 4
11 4 9 14.2674 14.7159 6
11 -15 -9 9.20179 7.53137 7
15 -11 9 13.6781 7.20124 7
-4 -11 -9 16.4968 7.13192 8
-4 15 9 25.5913 9.39895 11
15 -11 9 15.4555 11.338 5
15 -11 9 3.9773 12.0089 4
-4 -11 -9 12.3847 10.8041 5
4 11 -9 17.9539 10.2321 12
4 11 -9 14.3622 8.11253 11
-15 4 -9 7.16747 7.93997 9
-15 4 -9 8.68825 4.87091 8
-3 15 -9 1.9555 10.5068 12
-15 3 9 -5.3073 9.16406 10
-12 -3 -9 3.49005 7.81241 9
15 -12 -9 -5.3271 7.77764 7
-3 15 -9 4.21763 8.0716 10
-12 -3 -9 4.98286 4.36019 8
12 -15 9 3.12006 10.627 5
3 -15 -9 0.90791 6.67628 8
12 3 -9 6.44613 7.09831 11
-15 12 -9 -0.0209 7.23418 9
-12 15 9 1.2327 7.24307 11
3 -15 -9 6.18703 11.7617 5
15 -12 -9 -1.5119 14.9057 4
15 -3 9 -0.6603 7.08823 7
-15 3 -9 9.34387 7.82669 9
-3 15 9 11.823 9.29242 11
15 -12 9 1.18147 6.75432 7
-15 3 -9 5.11123 4.51856 8
-3 -12 -9 16.6314 7.17932 8
12 -15 -9 10.5439 7.40803 7
3 12 -9 -0.7382 8.12692 11
12 3 9 18.0075 14.4137 6
15 -12 9 0.56385 9.90886 5
-3 -12 -9 8.71797 10.6144 5
3 12 -9 8.96496 8.89687 12
12 -15 -9 -7.206 11.9773 4
15 -12 9 0.79858 10.3255 4
-12 15 -9 7.80456 7.91307 9
-15 12 9 13.7054 7.76948 11
-2 15 -9 19.8704 8.03166 10
13 2 -9 28.6812 8.05667 11
-13 15 9 29.2142 7.95541 11
-13 -2 -9 2.08292 5.70801 8
-15 2 9 41.1563 10.0989 10
-2 15 -9 19.639 10.8773 12
15 -13 -9 7.33871 15.4952 4
2 -15 -9 16.1242 10.8989 5
2 -15 -9 21.3513 7.23016 8
13 -15 9 14.9657 11.132 5
15 -13 -9 31.8952 8.71085 7
-15 13 -9 30.8239 8.06178 9
-13 -2 -9 13.5496 8.01549 9
15 -2 9 26.1064 7.44912 7
13 2 9 2.75379 11.5399 6
13 -15 -9 1.22053 12.6049 4
-2 -13 -9 36.1652 7.41871 8
-15 2 -9 31.8496 8.43362 9
2 13 -9 22.5325 9.22243 12
-2 15 9 31.0462 9.60233 11
13 -15 -9 17.3674 7.64211 7
-13 15 -9 52.8666 9.35185 9
-2 -13 -9 16.6872 10.1951 5
15 -13 9 3.92659 10.037 5
-13 -2 9 28.3294 9.35482 10
15 -13 9 16.986 7.26782 7
-15 13 9 31.1142 8.35437 11
2 13 -9 19.1229 8.66246 11
-14 15 9 50.7841 9.34234 11
1 14 9 59.1189 9.20862 11
-14 -1 -9 47.0565 9.48997 9
-15 1 9 58.5248 10.5941 10
-1 15 -9 84.1283 13.0555 12
1 -15 -9 83.5595 9.32004 8
15 -14 -9 83.7293 10.2072 7
14 -15 -9 40.7731 8.47675 7
15 -14 9 48.8901 8.31787 7
1 14 -9 69.0174 9.34887 10
-15 14 9 50.8049 9.22342 11
-14 -1 9 70.5686 11.0899 10
-1 15 9 56.4557 10.0678 11
-14 15 -9 65.6361 10.265 9
1 14 -9 28.5341 8.57214 11
-1 -14 -9 53.875 8.31783 8
1 14 -9 74.5294 12.6241 12
-15 1 -9 41.5213 9.10795 9
15 -15 9 55.2765 7.63608 7
15 -15 -9 80.5977 9.65608 7
-15 0 9 69.8538 10.5262 10
0 15 -9 55.3744 8.89058 10
-15 15 9 41.5862 8.95884 11
-15 0 -9 67.8111 9.71269 9
0 -15 -9 72.9963 8.53705 8
0 15 9 51.3464 9.42591 11
0 15 -9 74.6412 12.068 12
-8 16 9 5.1416 7.4752 11
-8 16 -9 -3.0677 8.84242 10
8 8 -9 -2.3823 7.84587 12
8 8 9 3.55954 13.4991 6
8 -16 -9 -0.8308 6.64087 8
-16 8 9 5.52318 9.32768 10
16 -8 9 3.84466 11.8277 4
16 -8 -9 2.81918 7.9542 7
8 8 -9 0.14386 6.56726 11
-8 -8 -9 7.41924 6.47761 8
16 -8 9 -1.0569 6.25997 7
-16 8 -9 -2.0318 7.29828 9
16 -9 -9 8.64796 8.26658 7
9 7 -9 7.28419 5.86432 12
7 9 9 3.17072 13.912 6
-16 7 9 4.98732 9.19449 10
-9 16 9 6.13043 6.91711 11
-7 16 -9 16.3151 9.05144 10
9 -16 9 -0.0235 8.53022 5
9 7 -9 12.6918 6.84473 11
-9 -7 -9 10.6643 6.17599 8
7 -16 -9 0.85844 7.02083 8
16 -7 9 12.8588 12.8056 4
-16 9 -9 20.233 7.88334 9
16 -7 9 11.1938 6.43026 7
-9 16 -9 14.1659 7.95488 9
-9 16 -9 13.922 9.32817 10
7 9 -9 3.90249 8.1802 12
16 -7 -9 -1.102 8.85603 7
-7 16 9 10.3441 7.94127 11
-16 9 9 10.4379 8.99141 10
-16 7 -9 16.051 7.01494 8
9 7 9 12.1755 13.6669 6
9 -16 -9 0.11418 4.35844 7
16 -9 9 13.3578 13.1047 4
-7 -9 -9 13.1525 6.64238 8
7 9 -9 2.37571 7.06077 11
16 -9 9 13.0531 6.9734 7
-16 7 -9 14.3437 7.37996 9
-16 10 -9 13.8803 8.10316 9
-10 -6 -9 11.3901 5.89154 8
16 -6 9 2.2522 11.2009 4
10 -16 9 -1.6645 8.90544 5
-6 -10 9 0.34671 6.7498 9
16 -10 -9 0.90357 8.01704 7
-6 16 -9 11.976 8.82205 12
16 -6 9 10.7854 6.79636 7
-16 6 9 8.92495 9.52845 10
10 6 -9 10.6513 7.23643 11
-6 16 -9 -7.0354 8.38734 10
6 -16 -9 0.30138 7.22688 8
-10 16 9 1.48944 6.65263 11
-16 6 -9 10.1211 5.22051 8
16 -10 9 4.78972 6.92053 7
-16 10 9 5.08849 7.56528 10
-6 -10 -9 9.8363 6.5866 8
6 -16 9 0.75037 5.62713 8
-16 6 -9 13.617 7.83283 9
6 10 -9 9.62716 7.706 11
-10 16 -9 10.9092 9.03662 10
6 10 -9 6.22145 9.20782 12
-16 10 9 16.9654 7.96661 11
10 6 9 8.38801 14.6468 6
10 -16 -9 7.95789 6.52934 7
16 -10 9 6.91852 11.6758 4
-10 16 -9 9.33347 7.95634 9
-6 16 9 2.60427 8.08447 11
-16 5 9 0.16629 9.17001 10
-5 16 -9 1.60013 8.03381 10
-5 -11 9 1.40219 6.64307 9
11 -16 9 -0.8928 8.57491 5
11 5 -9 -0.7252 6.98547 11
-11 16 9 4.10624 6.74246 11
-11 -5 -9 6.82664 5.5404 8
16 -11 -9 -0.5174 17.5292 4
-16 11 -9 2.78838 7.02415 9
16 -11 -9 -6.698 7.42495 7
16 -5 9 3.93657 6.72731 7
-5 16 -9 4.87265 9.36351 12
5 -16 -9 -1.5405 7.09278 8
11 -16 -9 2.5617 6.82154 7
16 -11 9 -4.0242 10.5599 4
-16 5 -9 -0.5381 7.09103 9
5 11 -9 -4.1291 7.69615 11
11 5 9 9.74279 14.4763 6
-11 16 -9 5.93687 7.47196 9
-16 11 9 1.60843 5.22803 10
-5 16 9 9.34213 8.32943 11
-5 -11 -9 -1.8262 6.32949 8
-11 16 -9 -1.4163 7.63663 10
16 -11 9 -2.0232 6.55611 7
5 11 -9 6.00245 9.15763 12
-16 11 9 -1.9401 7.48259 11
-16 5 -9 9.12191 4.51864 8
-16 4 9 -2.3512 8.99856 10
16 -12 -9 0.7109 6.99125 7
-4 16 -9 5.88933 8.03313 10
16 -12 -9 -0.7954 13.5191 4
-4 -12 9 6.56578 7.15955 9
4 -16 -9 -0.8846 6.76146 8
-12 -4 -9 2.18269 4.00866 8
-12 16 9 6.47034 6.86841 11
12 -16 9 -5.6437 8.187 5
12 4 -9 5.30254 7.34934 11
4 -16 -9 1.67799 18.3111 5
-4 16 -9 3.64926 10.2752 12
-16 12 -9 1.92567 6.93233 9
-12 -4 -9 -1.6174 6.93583 9
16 -4 9 5.63072 6.95418 7
-4 16 9 7.38113 8.88227 11
4 12 -9 1.07425 8.36393 12
-4 -12 -9 -0.0288 6.27489 8
12 -16 -9 6.24066 6.91821 7
-16 4 -9 6.35129 7.19008 9
4 12 -9 6.26325 7.78769 11
-16 12 9 1.61671 7.35737 11
16 -12 9 0.22819 6.39052 7
12 4 9 -0.5655 11.0482 6
-12 16 -9 9.83032 7.75945 9
3 -16 -9 37.5763 7.34161 8
13 3 -9 53.7771 8.65835 11
-3 16 -9 26.9912 8.49722 10
-16 13 -9 64.2967 9.44582 9
-3 16 -9 48.9688 11.7161 12
16 -13 -9 0.21257 21.3868 4
-3 -13 9 29.8473 7.86914 9
13 -16 9 1.59716 10.0245 5
-13 -3 -9 25.6359 8.1177 9
16 -3 9 34.8834 7.84659 7
-16 3 9 39.8367 9.61252 10
-13 16 9 42.9152 8.04914 11
16 -13 -9 46.57 8.63621 7
16 -13 9 19.1131 7.29759 7
-13 -3 9 36.3103 9.16475 10
-16 3 -9 24.6322 7.69594 9
-3 16 9 28.1998 9.0703 11
-3 -13 -9 31.1018 6.83129 8
-16 13 9 33.9433 8.26549 11
3 13 -9 28.3497 8.59238 11
3 13 -9 24.968 9.844 12
13 -16 -9 29.7151 7.79268 7
-13 16 -9 37.4804 8.46339 9
-2 16 -9 10.4518 9.70101 12
-2 16 -9 19.7115 7.71541 10
-14 -2 -9 9.1571 7.39111 9
16 -2 9 9.71739 5.6187 7
-16 2 9 7.91268 8.71269 10
2 -16 -9 13.9056 5.93859 8
-14 16 9 19.7001 7.10405 11
2 14 9 -0.4862 4.84335 11
-16 14 -9 24.7182 7.7378 9
16 -14 -9 21.9119 7.37833 7
-2 16 9 6.15774 8.32362 11
-16 2 -9 8.27573 6.78119 9
2 14 -9 12.6109 8.07661 11
-16 14 9 16.4275 7.40024 11
16 -14 9 12.8314 6.92916 7
14 -16 -9 4.18339 6.47772 7
-2 -14 -9 10.653 6.29635 8
-14 16 -9 7.80907 7.38266 9
2 14 -9 16.1067 9.44413 12
-14 -2 9 11.4264 8.40765 10
1 15 9 6.92435 6.80141 11
-15 16 9 7.67393 6.89511 11
-15 -1 -9 5.75328 6.8901 9
-1 16 -9 12.0598 6.8633 10
1 -16 -9 -3.0388 6.15515 8
-16 15 -9 12.4973 7.39351 9
-1 16 -9 4.63628 9.66615 12
16 -15 -9 8.22659 6.32371 7
-16 1 9 11.2036 8.38955 10
15 -16 -9 5.76852 6.6157 7
-15 16 -9 10.962 7.5902 9
-15 -1 9 13.2282 8.44287 10
-16 15 9 12.2312 7.33291 11
-1 16 9 7.76417 7.90239 11
1 15 -9 8.12484 9.85886 12
1 15 -9 1.10323 6.37606 11
16 -15 9 11.3561 6.46813 7
-1 -15 -9 5.90443 5.60604 8
-16 1 -9 5.92655 6.73412 9
-16 0 -9 3.55323 6.08121 9
-16 16 9 11.8067 6.86746 11
-16 0 9 1.7595 8.06559 10
0 16 -9 10.7306 9.02707 12
0 -16 -9 1.18627 5.45099 8
-16 16 -9 11.9221 7.61481 9
16 -16 -9 8.31646 6.14196 7
16 -16 9 0.53756 4.04217 7
0 16 9 3.58344 7.09484 11
17 -8 9 21.1464 6.70955 7
-9 17 9 24.4617 6.93974 11
-9 -8 -9 13.6464 5.88735 8
17 -9 -9 14.883 7.45483 7
-8 17 -9 18.4515 9.11374 10
9 8 -9 11.9394 6.36852 12
9 -17 9 22.4492 6.01016 8
8 -17 -9 13.3321 6.63711 8
9 8 -9 13.0475 6.61186 11
-17 9 -9 43.8835 8.67873 9
-17 8 9 11.2146 9.13216 10
17 -9 9 2.78944 10.3115 4
17 -8 -9 3.53414 6.08987 7
-17 9 9 11.9578 8.94085 10
-9 17 -9 10.12 9.06548 10
-8 -9 -9 23.2856 6.09063 8
8 -17 9 10.5495 5.61746 8
-17 8 -9 31.2391 7.89167 9
-8 17 9 16.2881 7.93682 11
8 9 -9 11.9332 7.89099 12
9 -17 -9 3.54995 5.31112 8
17 -9 9 24.8742 6.90925 7
8 9 -9 17.5316 6.92555 11
-17 10 -9 -0.1381 6.9965 9
-17 7 9 1.29346 8.77478 10
7 -17 -9 6.89098 6.48881 8
10 7 -9 3.65708 6.89012 11
-7 17 -9 -0.625 6.20214 12
-10 -7 -9 6.56879 5.30431 8
17 -7 9 -0.0013 6.14468 7
-10 17 9 0.94905 6.10847 11
17 -10 -9 7.55008 7.39845 7
-7 17 -9 2.09402 8.57273 10
17 -10 9 -1.434 6.1263 7
10 -17 -9 0.93977 4.02356 7
7 -17 9 -5.6447 5.49854 8
-17 10 9 7.36331 8.1845 10
-10 17 -9 0.75897 7.21743 9
7 10 -9 -0.8111 8.31249 12
-7 17 9 8.1672 7.53798 11
-17 10 9 1.62003 7.03753 11
17 -10 9 2.32493 13.7965 4
-17 7 -9 0.34918 6.58718 9
-7 -10 -9 -4.538 5.82736 8
-10 17 -9 1.26404 8.88202 10
7 10 -9 7.66507 7.06142 11
11 6 -9 22.7199 7.21122 11
-6 -11 9 10.5139 5.84486 9
6 -17 -9 25.96 7.15452 8
-6 17 -9 25.311 9.20895 12
17 -6 9 16.0553 6.71239 7
-11 17 9 20.3581 6.81862 11
-6 17 -9 36.714 9.0433 10
-17 6 9 20.1039 8.7475 10
17 -11 -9 21.5617 7.71318 7
-17 11 -9 15.4001 7.16154 9
-6 -11 -9 11.6408 5.96431 8
-6 17 9 26.8763 8.64593 11
11 -17 -9 10.4878 6.08228 7
-11 17 -9 18.1089 7.78975 9
-17 11 9 15.9149 7.63109 11
6 11 -9 4.52824 7.32518 11
6 -17 9 4.25331 4.31078 8
-17 11 9 2.59471 7.52336 10
6 11 -9 13.2921 8.66659 12
-17 6 -9 19.2067 7.30279 9
-11 17 -9 15.3978 8.96584 10
17 -11 9 14.6989 6.52214 7
-5 17 -9 4.112 8.9668 12
-5 -12 9 5.31265 6.70291 9
17 -5 9 10.053 6.41319 7
-12 -5 -9 2.7841 5.51787 9
-17 5 9 0.38108 8.49957 10
-17 12 -9 8.03565 7.07462 9
-5 17 -9 4.26685 7.83457 10
12 5 -9 9.67734 7.06684 11
17 -12 -9 6.71382 6.91367 7
-12 17 9 3.57168 6.17028 11
5 -17 -9 2.01749 6.18806 8
5 12 -9 5.37664 7.68684 11
-12 17 -9 7.24344 7.52848 10
12 -17 -9 2.24485 6.42397 7
17 -12 9 3.68447 6.50932 7
-12 17 -9 11.1627 7.22931 9
5 12 -9 11.0677 8.91908 12
-17 12 9 11.4739 7.2884 11
-5 17 9 10.2509 8.25951 11
-5 -12 -9 8.40015 5.907 8
-17 12 9 3.16501 5.09514 10
-17 5 -9 8.33306 6.48396 9
4 -17 -9 2.78498 5.99353 8
-13 17 9 2.77304 6.23124 11
-4 -13 9 7.10163 6.71483 9
-17 13 -9 15.1906 6.93852 9
13 4 -9 21.0623 7.18396 11
-13 -4 -9 6.34112 6.67542 9
-4 17 -9 12.9687 9.83249 12
-4 17 -9 14.9385 7.74296 10
17 -13 -9 14.4317 6.36465 7
-17 4 9 6.98914 8.37927 10
17 -4 9 4.38728 6.38746 7
-13 17 -9 23.8117 7.50901 9
13 -17 -9 20.6698 6.83917 7
-17 13 9 11.8783 7.39 11
17 -13 9 13.275 6.30881 7
-4 17 9 6.47989 8.0525 11
-4 -13 -9 13.8056 5.98747 8
-13 -4 9 9.71209 8.11482 10
4 13 -9 16.7997 8.48328 12
-17 4 -9 13.3661 6.59003 9
4 13 -9 13.8611 8.06488 11
-14 -3 -9 11.6245 6.64732 9
-3 -14 9 20.6673 6.89936 9
-14 17 9 18.9791 6.84446 11
3 -17 -9 11.4948 5.76897 8
-17 3 9 21.0235 8.40832 10
-3 17 -9 21.2417 9.80781 12
17 -3 9 15.6527 5.99559 7
17 -14 -9 9.00383 6.01146 7
-3 17 -9 23.207 7.76331 10
-17 14 -9 13.1639 6.9175 9
3 14 -9 18.1022 8.2731 11
3 14 -9 14.8431 8.99184 12
-14 17 -9 20.0509 7.58185 9
-3 -14 -9 11.7197 6.02223 8
-3 17 9 18.1689 8.35021 11
-17 14 9 16.7624 6.98688 11
14 -17 -9 12.9253 6.51016 7
17 -14 9 13.0563 6.57143 7
-17 3 -9 10.4922 6.53491 9
-14 -3 9 15.9518 8.23438 10
2 -17 -9 11.6758 5.84348 8
-2 17 -9 27.7492 9.99983 12
2 15 9 -0.7798 7.09298 11
17 -15 -9 18.6691 6.19476 7
-15 -2 -9 13.636 6.41422 9
-17 15 -9 17.6141 7.3059 9
-2 -15 9 20.8744 6.94054 9
-15 17 9 10.0349 6.39795 11
-2 17 -9 18.237 6.95385 10
-17 2 9 22.065 8.20392 10
2 15 -9 34.731 10.4306 12
2 15 -9 15.4067 7.92924 11
-2 -15 -9 12.1144 5.53598 8
17 -15 9 8.06911 6.18056 7
-17 2 -9 26.3033 6.67561 9
-15 -2 9 13.4796 8.06977 10
-17 15 9 18.6427 6.89426 11
-2 17 9 16.9252 7.97713 11
-15 17 -9 25.9448 7.57976 9
15 -17 -9 12.466 6.29147 7
17 -16 -9 14.7357 5.75012 7
-1 17 -9 23.1276 9.83032 12
-17 1 9 10.166 7.35939 10
-1 -16 9 18.3006 6.36183 9
-1 17 -9 20.6866 6.58254 10
-17 16 -9 19.5458 7.51294 9
-16 17 9 21.216 6.57828 11
-16 -1 -9 12.4959 6.0145 9
1 -17 -9 20.3108 5.76503 8
1 16 9 12.2477 6.35645 11
1 16 -9 -3.5783 7.19475 11
17 -16 9 10.7929 5.05569 7
-1 -16 -9 10.7221 5.02962 8
-16 -1 9 13.3957 7.58541 10
16 -17 -9 16.0464 6.07559 7
-17 1 -9 13.9733 5.70108 9
1 16 -9 31.4786 10.0547 12
-1 17 9 13.5518 7.23069 11
-17 16 9 9.19698 5.72762 11
-16 17 -9 14.9451 7.17676 9
0 -17 9 10.4671 5.78678 9
0 17 9 12.5647 6.77419 11
17 -17 -9 13.5364 5.46734 7
-17 17 9 2.53946 4.95222 11
-17 17 -9 19.8737 6.94912 9
0 -17 -9 17.1504 5.40501 8
-17 0 -9 12.0618 5.37042 9
-17 0 9 26.0635 7.65037 10
0 17 -9 16.2736 8.97602 12
-18 9 9 3.12804 8.34713 10
9 9 -9 4.19021 4.69995 12
-9 18 -9 -0.2196 8.5039 10
9 -18 -9 1.1986 5.30315 8
-18 9 -9 3.46279 6.6957 9
9 -18 9 -3.2267 5.31739 8
18 -9 9 -5.7564 5.21517 7
-9 -9 -9 4.31215 4.85353 8
9 9 -9 -0.475 6.15773 11
-18 9 9 4.66731 5.74532 11
18 -9 -9 9.29087 5.80092 7
-9 18 9 4.89068 6.17911 11
10 -18 9 4.77289 5.35326 8
-18 8 9 6.34303 8.39238 10
8 -18 -9 8.65791 5.9155 8
-10 -8 -9 2.76663 3.91782 8
-10 18 9 15.044 6.37374 11
18 -10 -9 16.8358 6.65069 7
18 -8 9 12.3767 5.80504 7
-18 10 -9 17.2692 6.79868 9
-8 18 -9 6.16564 8.51391 10
10 8 -9 22.2269 7.21834 11
8 10 -9 15.1051 6.54393 11
-8 -10 -9 11.056 5.34811 8
-10 18 -9 3.63931 8.76912 10
8 10 -9 11.5692 7.30374 12
-18 10 9 13.0635 8.00174 10
-18 8 -9 21.4249 6.96342 9
8 -18 9 13.2045 5.6612 8
-8 18 9 8.95124 7.16345 11
18 -10 9 13.3072 6.29223 7
-18 10 9 13.056 5.81996 11
-7 18 -9 6.87537 8.06876 10
-11 18 9 7.57421 6.14753 11
-7 -11 9 -1.1202 4.70134 9
7 -18 -9 8.00893 5.97829 8
-18 7 9 1.17083 8.17474 10
11 -18 9 3.88252 5.18468 8
18 -11 -9 5.27039 6.39046 7
18 -7 9 2.16993 5.85846 7
11 7 -9 4.38204 6.44425 11
-7 18 -9 -3.1145 6.01671 12
-18 11 -9 7.72614 6.62572 9
-18 11 9 10.6899 5.49241 11
7 -18 9 8.03659 5.27666 8
-7 -11 -9 10.054 5.6132 8
-11 18 -9 6.75479 8.85278 10
-7 18 9 18.7434 7.88917 11
-18 11 9 9.19093 7.74224 10
7 11 -9 0.67908 7.9139 12
-18 7 -9 5.86419 6.0095 9
7 11 -9 1.04501 6.55997 11
18 -11 9 12.0282 6.26417 7
12 6 -9 30.8948 7.4113 11
-18 12 -9 35.3426 7.45029 9
-18 6 9 19.8957 8.3936 10
-6 18 -9 18.2126 9.09463 12
12 -18 9 9.56425 5.38346 8
-6 -12 9 17.0548 6.37389 9
-12 18 9 17.1525 6.4018 11
6 -18 -9 16.5378 6.35721 8
18 -6 9 11.0011 6.34112 7
-6 18 -9 22.3511 8.01153 10
18 -12 -9 21.26 6.5364 7
-12 18 -9 10.3785 6.93622 9
-18 6 -9 10.5486 6.18456 9
18 -12 9 9.90293 6.04048 7
-18 12 9 5.69804 5.08862 11
-6 18 9 14.649 7.40255 11
12 -18 -9 7.83837 5.0461 7
-18 12 9 7.75161 6.42932 10
-12 18 -9 10.2036 8.71391 10
6 12 -9 6.05382 8.36013 12
-6 -12 -9 9.5264 5.44319 8
6 12 -9 2.46878 6.83402 11
-5 -13 9 41.7061 7.7196 9
-5 18 -9 47.9265 8.6347 10
18 -5 9 37.2711 6.95697 7
-5 18 -9 46.5205 10.6527 12
-13 18 9 32.5875 6.92741 11
5 -18 -9 36.4151 6.60612 8
-18 13 -9 45.0317 7.90078 9
-18 5 9 39.7946 8.83299 10
18 -13 -9 30.1571 6.74111 7
13 5 -9 68.2457 8.4869 11
-13 -5 -9 25.0179 6.27318 9
-18 5 -9 29.5234 6.6352 9
5 13 -9 26.416 7.85106 11
18 -13 9 34.4365 6.87142 7
-5 -13 -9 25.6704 5.76378 8
13 -18 -9 20.4959 6.18131 7
-13 -5 9 31.5447 8.30405 10
-13 18 -9 10.7443 6.68566 10
5 13 -9 29.6724 8.70828 12
-13 18 -9 28.2479 7.31433 9
-5 18 9 40.7035 8.61345 11
-14 18 9 3.15828 5.89317 11
-4 -14 9 8.15213 6.36276 9
-14 -4 -9 5.40445 5.84192 9
18 -14 -9 9.9876 5.46578 7
18 -4 9 7.07256 5.82415 7
-4 18 -9 9.24011 9.03525 12
-4 18 -9 5.84945 7.09638 10
4 -18 -9 4.7229 5.19498 8
-18 14 -9 7.86719 6.53105 9
-18 4 9 15.9246 7.56441 10
-14 18 -9 12.9087 6.76506 9
18 -14 9 8.72986 5.82359 7
-4 -14 -9 7.05412 5.15214 8
14 -18 -9 8.33486 5.77052 7
-14 -4 9 2.76229 7.26903 10
-4 18 9 8.66831 7.29247 11
4 14 -9 2.56571 7.19593 11
4 14 -9 19.1699 8.70228 12
-18 4 -9 7.39404 5.44322 9
-3 18 -9 9.25545 9.14575 12
-18 3 9 0.0996 7.11957 10
-3 -15 9 0.7636 6.0716 9
-3 18 -9 6.23124 6.35555 10
3 -18 -9 11.5639 5.09678 8
-15 -3 -9 3.21209 5.69019 9
18 -15 -9 8.62328 5.3853 7
-15 18 9 2.85726 5.91617 11
-18 15 -9 8.15772 6.88369 9
15 -18 -9 8.5826 5.65906 7
3 15 -9 3.88144 7.01283 11
-15 -3 9 2.82929 7.04498 10
-3 -15 -9 8.7652 4.89481 8
18 -15 9 8.78695 5.58895 7
-18 3 -9 11.115 5.52951 9
3 15 -9 4.45855 7.85501 12
-15 18 -9 13.8261 6.59663 9
-3 18 9 17.7602 7.76675 11
-2 18 -9 13.0016 6.2332 10
18 -16 -9 5.02249 5.52163 7
16 -18 9 3.91321 4.78221 8
-16 18 9 0.608 5.27255 11
2 -18 -9 7.79774 5.12364 8
-2 18 -9 8.45161 8.91391 12
-2 -16 9 -0.7539 5.901 9
-18 16 -9 1.83507 6.57754 9
-16 -2 -9 4.51574 5.38469 9
-18 2 9 2.26024 6.93478 10
-16 -2 9 6.3222 7.04635 10
2 16 -9 0.40215 8.20121 12
-2 -16 -9 5.27949 4.66734 8
18 -16 9 -2.1859 4.62842 7
-18 2 -9 5.2429 5.12309 9
16 -18 -9 4.46094 5.02703 7
2 16 -9 5.16771 6.05767 11
-16 18 -9 4.3848 6.26056 9
-2 18 9 0.45262 6.51771 11
17 -18 9 8.33416 4.79659 8
-17 -1 -9 5.72307 4.9263 9
-1 -17 9 7.37314 5.67982 9
-1 18 -9 12.1837 8.58421 12
1 -18 -9 11.4316 4.72939 8
-18 1 9 14.6218 6.5971 10
-18 17 -9 13.8369 6.45017 9
18 -17 -9 10.2349 5.29525 7
-1 18 9 8.40878 6.51562 11
-17 18 -9 11.5304 6.2866 9
1 17 -9 14.7383 8.43538 12
-18 1 -9 10.3506 5.01871 9
17 -18 -9 7.69177 4.87727 7
-17 -1 9 9.50071 6.69361 10
1 -18 9 3.70983 5.47515 9
-1 -17 -9 5.79239 4.33248 8
0 18 -9 31.3586 9.10793 12
-18 0 -9 8.90939 4.78995 9
18 -18 -9 15.7778 4.93552 7
0 18 9 -0.7481 4.47835 11
18 -18 9 13.9481 4.79246 8
0 -18 9 19.3797 5.86615 9
-18 0 9 13.4325 6.90941 10
-18 18 -9 14.4643 6.08874 9
0 -18 -9 16.1776 4.56426 8
-10 19 9 20.3278 6.3762 11
-19 9 9 19.9687 7.48846 10
10 -19 9 9.64753 5.19095 8
-19 10 -9 15.0138 6.22354 9
19 -9 9 22.7304 5.90474 7
9 -19 -9 19.5516 5.30788 8
19 -10 -9 9.41023 5.43149 7
10 9 -9 27.8382 6.90555 11
-9 19 -9 16.7645 8.48671 10
-9 19 9 31.2244 6.91846 11
9 -19 9 28.3481 5.78202 8
19 -10 9 20.414 5.98857 7
-10 19 -9 30.3274 8.93876 10
-19 9 -9 34.3138 7.01521 9
9 10 -9 39.3498 7.03862 11
-19 10 9 32.8133 8.22622 10
11 8 -9 23.0505 6.76796 11
19 -8 9 3.8966 5.63347 7
-19 8 9 8.5684 7.68391 10
19 -11 -9 7.0737 5.60697 7
-19 11 -9 5.50351 5.93308 9
11 -19 9 7.30618 5.13297 8
-8 19 -9 19.0114 8.05233 10
-11 19 9 8.61801 6.07854 11
8 -19 -9 9.71338 5.21856 8
-19 11 9 8.20558 7.44337 10
-19 8 -9 11.0732 6.10606 9
-11 19 -9 11.9083 8.39961 10
-8 19 9 11.2351 6.52512 11
8 -19 9 4.09091 4.83867 8
8 11 -9 8.80694 6.22845 12
8 11 -9 4.68046 5.71195 11
19 -11 9 8.64529 5.65343 7
-8 -11 -9 7.20169 4.32639 8
-19 7 9 28.4098 7.93538 10
-7 19 -9 -0.704 9.10668 12
7 -19 -9 20.9328 5.67212 8
-19 12 -9 24.3884 6.44703 9
-7 19 -9 19.6605 7.80907 10
19 -7 9 21.5993 5.92409 7
19 -12 -9 22.8008 6.12135 7
-12 19 9 19.9521 6.24713 11
12 -19 9 13.4152 5.35895 8
12 7 -9 24.3227 6.79132 11
7 12 -9 30.7223 7.05685 11
19 -12 9 27.5565 6.51357 7
-19 12 9 24.5262 7.12079 10
7 12 -9 20.0896 7.37867 12
-7 -12 -9 16.9433 4.85939 8
-19 7 -9 26.4537 6.93948 9
-7 19 9 36.6213 7.59902 11
-12 19 -9 23.3797 8.70676 10
19 -6 9 2.45545 5.64162 7
-19 13 -9 10.8712 6.33522 9
13 -19 9 5.1266 5.13795 8
-6 -13 9 8.65354 5.36364 9
-6 19 -9 6.80432 7.9877 12
-19 6 9 1.30505 7.05287 10
-13 19 9 3.24643 5.83202 11
6 -19 -9 10.781 5.12505 8
19 -13 -9 4.8727 5.12979 7
13 6 -9 12.3595 6.29603 11
-6 19 -9 8.87464 7.24318 10
-19 13 9 1.60268 4.42637 10
-13 -6 9 3.81442 6.81874 10
-6 19 9 11.1117 6.72921 11
-19 6 -9 4.04066 5.06769 9
6 13 -9 3.99903 6.91779 12
19 -13 9 7.92335 5.60763 7
-13 19 -9 3.05582 7.25701 10
-6 -13 -9 5.79233 4.69534 8
6 13 -9 -3.6433 6.01568 11
19 -14 -9 10.9928 5.07263 7
-5 19 -9 21.4362 7.17883 10
-14 19 9 16.695 5.92256 11
-19 14 -9 10.0907 6.37642 9
-14 -5 -9 0.80904 4.33302 9
5 -19 -9 12.0183 4.98906 8
14 -19 9 20.3475 5.55817 8
-19 5 9 6.50511 6.6995 10
-5 -14 9 10.1694 5.66118 9
19 -5 9 11.3194 5.14266 7
-5 19 -9 6.43218 8.16942 12
19 -14 9 1.08084 5.08918 7
-14 -5 9 4.81198 7.11723 10
-19 5 -9 5.73194 5.17273 9
-5 -14 -9 5.63049 4.43529 8
5 14 -9 9.15832 7.39017 12
5 14 -9 8.42744 6.49483 11
14 -19 -9 4.40208 4.05588 7
-5 19 9 5.82355 6.32729 11
-15 19 9 0.78981 5.89847 11
-19 15 -9 10.1609 6.20185 9
-15 -4 -9 0.97616 4.78973 9
4 -19 -9 5.3944 4.59407 8
-19 4 9 4.78008 6.46675 10
-4 -15 9 8.03897 5.5255 9
19 -15 -9 8.20354 4.75107 7
15 -19 9 12.3725 5.20036 8
-4 19 -9 6.35248 6.11611 10
-4 19 -9 3.51999 8.56687 12
-4 19 9 10.6088 6.52984 11
4 15 -9 5.97569 6.4689 11
-15 19 -9 5.81875 6.03749 9
-19 4 -9 11.7701 5.23564 9
-4 -15 -9 8.95157 4.15132 8
-15 -4 9 10.0251 7.04715 10
4 15 -9 10.733 7.43618 12
19 -15 9 1.83599 5.0137 7
15 -19 -9 3.6557 4.56245 7
-16 -3 -9 0.59835 4.85002 9
19 -16 -9 2.78708 4.93376 7
-3 19 -9 7.71894 8.44248 12
-19 16 -9 3.2693 6.41861 9
-16 19 9 2.16676 4.29732 11
3 -19 -9 0.85947 4.41741 8
-3 19 -9 5.94865 5.88827 10
-3 -16 9 2.77212 5.37925 9
16 -19 9 -0.1854 4.76597 8
-19 3 9 -5.0192 6.07206 10
-19 3 -9 -0.4284 4.55034 9
3 16 -9 0.80258 7.39727 12
16 -19 -9 3.23992 4.47218 7
19 -16 9 -0.4526 4.45757 7
3 16 -9 1.08091 5.53632 11
-16 -3 9 -0.7524 6.66752 10
-3 -16 -9 1.85037 4.03972 8
-16 19 -9 0.19724 5.734 9
-3 19 9 0.13662 6.13265 11
-2 19 -9 14.5337 8.52268 12
-17 -2 -9 4.91965 4.9041 9
2 -19 -9 8.46603 4.74733 8
19 -17 -9 6.10144 4.8224 7
17 -19 9 7.33678 4.59936 8
-2 -17 9 5.77567 5.18856 9
-19 17 -9 9.39151 6.32714 9
-19 2 9 6.07328 6.2478 10
-2 19 9 5.46368 6.26619 11
19 -17 9 7.29333 3.66552 8
-17 19 -9 7.54489 5.62354 9
-2 -17 -9 5.51461 3.61891 8
2 -19 9 7.87484 5.55762 9
-17 -2 9 6.79785 6.59901 10
2 17 -9 7.55113 7.73277 12
-19 2 -9 2.84871 4.65886 9
17 -19 -9 3.6479 4.5177 7
-19 1 9 27.2544 7.23383 10
-1 19 -9 17.1392 8.72902 12
-19 18 -9 21.6391 6.62917 9
19 -18 -9 28.8534 5.65269 7
-18 -1 -9 10.149 4.93915 9
-1 -18 9 19.5134 5.91395 9
18 -19 9 21.4853 5.01712 8
1 -19 -9 15.5473 4.84081 8
-18 19 -9 14.4815 5.99448 9
-1 19 9 -0.39 4.26354 11
19 -18 9 2.88656 3.06656 8
18 -19 -9 14.7182 4.6603 7
1 -19 9 16.6073 6.10302 9
-1 -18 -9 12.348 4.17328 8
1 18 -9 23.9606 8.49854 12
-18 -1 9 19.3524 7.10091 10
-19 1 -9 16.2931 5.40151 9
-10 20 9 0.42671 5.3924 11
-20 10 -9 2.48206 5.32343 9
20 -10 9 -4.9308 4.59076 7
10 -20 9 2.23611 4.62071 8
-10 20 -9 -6.0729 7.47294 10
10 10 -9 -1.2262 5.82761 11
-20 10 9 -1.9332 6.18284 10
20 -11 -9 6.30195 4.16682 7
-9 20 -9 14.5724 7.46806 10
-20 9 9 13.434 7.02087 10
20 -9 9 7.60714 5.30565 7
9 -20 -9 15.3543 4.36601 8
-11 20 9 13.5115 5.46892 11
-20 11 -9 15.407 5.69347 9
11 -20 9 10.6372 4.73646 8
11 9 -9 25.5848 6.45599 11
-20 11 9 16.7401 6.78947 10
9 11 -9 13.0828 5.65332 11
9 -20 9 11.7531 4.38277 8
-9 20 9 12.9403 5.65098 11
20 -11 9 6.38553 4.96048 7
-11 20 -9 20.6879 8.10432 10
-20 9 -9 15.211 5.55894 9
-8 20 -9 3.68653 7.07418 10
12 -20 9 7.75333 4.52596 8
20 -8 9 4.09185 5.2394 7
-12 20 9 2.05319 5.5407 11
12 8 -9 5.87698 5.70201 11
20 -12 -9 8.25391 5.1353 7
-20 8 9 5.13969 6.16139 10
8 -20 -9 10.6923 4.51924 8
-20 12 -9 5.2482 5.65379 9
-20 12 9 1.90563 5.59123 10
8 -20 9 -3.1007 4.2995 8
-12 20 -9 6.6322 7.93672 10
-20 8 -9 6.08304 5.30634 9
8 12 -9 2.86912 5.65552 11
-12 -8 9 -1.2731 5.69437 10
-8 20 9 4.01168 5.87103 11
20 -12 9 2.36761 4.93689 7
13 7 -9 14.7616 5.98312 11
13 -20 9 2.32614 4.53932 8
-7 20 -9 11.0698 6.92149 10
-20 13 -9 10.1798 5.65336 9
-13 20 9 10.4672 6.14286 11
-20 7 9 14.8632 6.53128 10
20 -7 9 8.42902 5.48702 7
20 -13 -9 15.2655 5.27436 7
7 -20 -9 10.6491 4.69314 8
7 13 -9 10.9253 5.39676 12
-13 -7 9 15.9044 6.29185 10
-20 7 -9 19.8731 5.64057 9
7 13 -9 21.9136 6.49392 11
-7 20 9 16.024 6.43533 11
20 -13 9 20.4695 5.50946 7
-13 20 -9 20.3484 6.5174 10
-20 6 9 25.2391 6.85851 10
20 -14 -9 32.4847 5.71665 7
-14 20 9 33.3979 7.04135 11
6 -20 -9 32.3729 5.42078 8
-20 14 -9 25.6973 6.74868 9
-6 20 -9 35.6872 7.47386 10
14 -20 9 45.1062 5.68893 8
-6 20 9 29.0271 6.37432 11
6 14 -9 19.4676 6.47071 11
20 -14 9 20.33 5.0343 7
6 14 -9 24.461 6.43681 12
-14 -6 9 26.7986 6.57851 10
-20 6 -9 19.029 5.33522 9
-5 -15 9 3.89337 3.82198 9
15 -20 9 1.48435 4.64787 8
-5 20 -9 7.95668 7.67706 12
-20 15 -9 8.33988 6.20373 9
20 -15 -9 4.99288 4.52684 7
-5 20 -9 13.6715 6.54401 10
-15 20 9 5.44611 4.62845 11
5 -20 -9 7.23429 4.59832 8
-20 5 9 2.70548 6.31831 10
-5 20 9 -1.0756 5.93016 11
-15 -5 9 4.11675 6.3365 10
-20 5 -9 1.91563 4.77966 9
5 15 -9 3.43003 6.1909 11
-5 -15 -9 0.22138 2.87419 8
20 -15 9 4.10069 4.50268 7
5 15 -9 5.44612 6.06026 12
20 -16 -9 -0.6064 4.83035 7
-20 16 -9 7.33644 6.34152 9
-4 20 -9 -0.1658 5.95215 10
16 -20 9 -0.2351 4.54367 8
4 -20 -9 -0.7972 4.3259 8
-4 20 -9 7.30795 8.4594 12
-4 -16 9 -0.4767 3.93765 9
-20 4 9 7.37767 6.74917 10
-4 20 9 5.46506 6.49725 11
20 -16 9 2.06085 4.01092 7
-4 -16 -9 0.48675 2.88609 8
-20 4 -9 10.0803 5.08455 9
4 16 -9 8.60239 6.6436 12
-16 -4 9 6.55992 6.71757 10
4 16 -9 3.76113 4.83627 11
-3 -17 9 5.11386 4.27306 9
-20 17 -9 2.36319 5.95083 9
-3 20 -9 10.0581 8.72277 12
3 -20 -9 3.35817 4.77907 8
20 -17 -9 4.10589 5.20509 7
17 -20 9 3.22542 4.75499 8
-3 -17 -9 1.20425 2.54329 8
3 -20 9 3.98322 5.63722 9
-3 20 9 -1.9422 6.29864 11
3 17 -9 10.095 7.68546 12
-20 3 -9 2.70361 5.00293 9
21 -10 9 1.39335 4.78606 7
-10 21 -9 -3.6517 7.32944 10
-21 11 -9 1.22553 5.01029 9
11 -21 9 -1.8222 3.95416 8
-21 10 9 -6.2243 5.7132 10
11 10 -9 5.87383 5.88937 11
-11 21 9 -3.9852 5.71854 11
-10 21 9 8.67955 5.82696 11
10 11 -9 2.15481 5.63429 11
10 -21 9 0.79055 3.67331 8
-21 10 -9 3.32355 5.10195 9
-11 21 -9 1.82384 7.40094 10
-11 -10 9 0.74249 5.7392 10
-21 11 9 1.46719 5.11838 10
21 -11 9 0.25242 4.81428 7
-21 9 9 16.007 6.73573 10
9 -21 -9 -0.5564 2.72619 8
-21 12 -9 7.59012 5.32596 9
12 9 -9 21.8058 6.16446 11
21 -9 9 9.044 4.54323 7
-9 21 -9 7.52705 7.40576 10
12 -21 9 9.53822 4.42522 8
-12 21 9 14.3292 6.11462 11
21 -12 9 12.4608 4.80828 7
-12 -9 9 6.20049 6.06833 10
9 12 -9 11.7391 5.81123 11
-21 9 -9 8.23484 4.86917 9
-12 21 -9 10.4019 6.6869 10
-9 21 9 13.7931 5.8184 11
-21 12 9 0.41696 3.80328 10
-21 13 -9 17.1432 5.65673 9
-21 8 9 17.7676 6.44488 10
21 -13 -9 12.1573 4.06031 7
21 -8 9 10.6695 4.62612 7
8 -21 -9 9.12708 4.23932 8
-13 21 9 21.4434 6.15967 11
13 -21 9 18.5688 4.26314 8
-8 21 -9 12.7658 7.38452 10
13 8 -9 23.3404 6.15398 11
-21 8 -9 17.6873 5.36654 9
-13 -8 9 16.1833 6.77114 10
8 13 -9 26.8318 6.51691 11
21 -13 9 23.7635 5.1725 7
-8 21 9 26.7033 6.2182 11
-7 21 -9 5.07507 7.07466 10
14 -21 9 0.75154 4.76886 8
-21 7 9 2.82244 6.30354 10
-21 14 -9 1.12941 6.16394 9
21 -14 -9 4.11093 4.90026 7
7 -21 -9 1.69931 4.35932 8
-14 21 9 2.34777 4.07888 11
-7 21 9 -1.4581 6.10739 11
-14 -7 9 -4.784 6.369 10
21 -14 9 0.7404 4.64316 7
-21 7 -9 1.4735 5.31978 9
7 14 -9 3.35988 6.43917 11
6 -21 -9 6.87542 4.64115 8
15 -21 9 -0.4479 4.90916 8
6 15 -9 1.39037 6.12606 11
-6 21 9 6.15605 6.47787 11
0 0 10 -1.6338 10.5975 6
0 1 10 174.069 21.5776 6
-1 1 10 179.145 21.6624 6
1 0 10 185.003 21.6272 6
-1 0 10 169.153 21.2076 6
0 -1 10 167.813 20.8997 6
1 -1 10 163.019 21.1029 6
2 -1 10 106.573 16.8712 6
-1 -1 -10 82.3678 13.426 5
1 -2 -10 72.6185 12.4199 5
1 -2 10 90.6177 15.415 6
1 1 10 126.359 18.0104 6
-1 2 10 96.8091 16.2173 6
0 2 10 64.6901 13.8607 6
2 0 10 86.1647 15.7987 6
2 -2 10 52.4011 13.6698 6
0 -2 10 67.4236 14.09 6
0 -2 -10 41.1662 10.7937 5
-2 2 10 85.3304 15.3148 6
2 -3 10 129.161 18.2653 6
-2 3 10 139.429 19.7912 6
-2 -1 -10 137.152 17.3131 5
1 -3 -10 110.42 16.9387 5
1 2 10 152.515 20.5394 6
3 -2 10 149.239 20.4973 6
-1 -2 -10 150.275 18.1668 5
-1 3 10 150.876 20.1225 6
1 -3 10 145.425 18.9307 6
2 1 10 147.938 21.1552 6
0 3 10 37.3396 12.4532 6
3 0 10 29.1736 12.5832 6
-3 0 -10 19.6079 9.17613 5
3 -3 10 42.5748 11.8059 6
0 -3 -10 12.7431 9.77592 5
-2 4 10 44.695 13.7301 6
2 -4 -10 30.1839 10.6244 5
4 -2 10 24.6862 11.9694 6
2 2 10 39.7542 13.5249 6
-2 -2 -10 23.6067 10.1238 5
2 -4 10 1.59341 8.02855 6
-3 -1 -10 134.499 18.0797 5
-3 4 10 142.184 20.9096 6
1 -4 -10 141.357 18.8083 5
4 -1 10 151.776 21.3001 6
1 3 10 148.732 20.917 6
4 -3 10 92.591 15.2467 6
-1 -3 -10 134.537 17.9174 5
3 1 10 138.647 19.7734 6
4 -4 10 17.2151 11.7203 4
0 4 10 15.4687 11.5553 6
4 -4 10 -1.7284 8.36653 6
-4 0 -10 2.39395 9.16399 5
4 0 10 12.4922 13.0753 6
0 -4 -10 1.11413 10.5175 5
2 3 10 116.985 18.9672 6
5 -3 -10 121.66 19.5841 4
5 -2 10 118.087 18.8197 4
-3 -2 -10 120.905 17.6193 5
2 -5 -10 116.862 17.761 5
5 -2 10 123.154 19.7174 6
3 -5 10 120.343 18.8406 4
-3 5 10 155.089 19.7229 6
5 -3 10 81.9074 14.8378 6
-2 5 10 112.602 16.6059 6
-2 -3 -10 127.187 16.2998 5
5 -3 10 116.413 18.0964 4
2 -5 10 91.7112 15.6798 4
4 -5 10 131.74 17.6793 4
1 4 10 108.714 17.1926 6
1 -5 -10 91.0347 15.7787 5
-4 5 10 162.227 20.1569 6
5 -1 10 114.235 18.4252 4
-4 -1 -10 128.538 16.3445 5
5 -4 -10 146.443 19.364 4
5 -1 10 110.471 17.9959 6
4 1 10 169.956 21.2045 6
5 -4 10 120.947 19.5005 4
-1 -4 -10 123.847 19.1392 5
0 -5 -10 19.8497 11.4613 5
5 -5 -10 35.0345 13.7296 4
5 -5 10 13.4818 11.0887 4
5 0 10 31.3508 13.7751 6
0 5 10 28.9437 14.0899 6
3 -6 10 11.4836 10.7123 4
-3 6 10 40.5042 13.739 6
3 3 10 28.6859 14.0277 6
6 -3 -10 46.7805 14.7148 4
6 -3 10 25.5937 11.5788 6
3 -6 -10 26.6211 11.2022 5
-3 -3 -10 22.432 10.5314 5
6 -3 10 36.1255 12.4607 4
-4 6 10 80.2905 15.0097 6
6 -2 10 106.165 15.9541 4
6 -4 -10 119.233 18.3522 4
2 4 10 84.4972 16.2617 6
2 -6 -10 101.871 15.6125 5
6 -2 10 97.3836 16.4769 6
-4 -2 -10 68.186 12.6379 5
4 -6 10 93.8695 15.1172 4
-2 6 10 122.379 19.1758 6
-2 -4 -10 111.048 16.5876 5
6 -2 -10 112.983 18.722 4
4 2 10 129.08 19.7693 6
6 -4 10 109.881 16.3816 4
6 -1 10 25.6347 12.933 4
6 -5 -10 40.7302 14.8432 4
1 5 10 44.8564 14.5707 6
-5 -1 -10 25.1328 10.6896 5
6 -1 10 24.0416 13.9131 6
1 -6 -10 26.221 12.1791 5
-5 6 10 20.6294 12.2292 6
5 -6 10 15.9891 11.6301 4
6 -5 10 18.1823 11.9153 4
5 -6 -10 31.2175 14.3368 4
5 1 10 20.892 14.3269 6
-1 -5 -10 30.2912 12.1781 5
-1 6 10 12.5792 13.0576 6
6 0 10 36.5101 14.2351 6
6 -6 -10 31.588 13.9773 4
0 -6 -10 42.1449 13.1117 5
0 6 10 31.5312 13.0049 6
6 -6 10 49.3413 13.5214 4
6 0 10 55.7329 13.8908 4
7 -3 10 67.369 14.3351 6
3 -7 -10 67.9081 14.5019 5
3 4 10 98.6379 17.5405 6
-4 7 10 77.3216 15.8476 6
-4 -3 -10 102.995 14.7756 5
7 -4 -10 120.369 19.6815 4
7 -3 10 127.05 16.7991 4
-3 7 10 80.8551 16.3974 6
4 3 10 121.333 19.1855 6
3 -7 10 77.2868 12.9868 5
7 -3 -10 84.082 17.8891 4
-5 -2 -10 94.0402 14.3657 5
-5 7 10 65.9345 15.4274 6
7 -5 -10 131.117 19.6487 4
5 -7 10 80.6102 14.9743 4
7 -2 10 66.6264 15.5884 6
2 5 10 133.646 19.7643 6
2 -7 -10 102.69 16.1364 5
5 2 10 122.407 19.7302 6
7 -2 -10 119.931 19.9848 4
7 -5 10 135.664 18.3566 4
-2 7 10 154.633 21.9095 6
5 -7 -10 150.601 20.467 4
-2 -5 -10 126.339 17.6154 5
-6 7 10 7.54584 12.7895 6
1 6 10 11.2759 14.3261 6
7 -1 10 13.4404 13.3926 6
-6 -1 -10 19.0973 10.7375 5
7 -1 10 13.4763 11.6867 4
-6 -1 -10 -0.5 4.99801 8
7 -6 -10 22.988 13.9347 4
1 -7 -10 10.9896 11.6178 5
6 -7 10 15.4152 11.6453 4
6 1 10 6.71669 12.1874 4
6 -7 -10 -0.6285 6.80671 7
-1 7 10 0.73083 12.1119 6
6 -7 -10 13.6689 14.1878 4
6 1 10 19.0114 13.9859 6
7 -6 10 11.1678 11.1364 4
-1 -6 -10 21.1314 11.6207 5
7 0 10 14.8807 12.3217 4
0 7 10 1.86818 13.9604 6
7 -7 10 5.13937 11.4141 4
7 0 10 2.71562 13.8238 6
7 -7 -10 -0.501 6.37718 7
0 -7 -10 16.6167 11.9791 5
7 -7 -10 2.78219 13.0663 4
-7 0 -10 4.31819 5.33807 8
8 -4 10 434.014 36.5511 4
4 -8 10 381.486 34.9875 5
4 4 10 487.437 39.2992 6
-4 -4 -10 457.085 35.7665 5
8 -4 -10 488.166 39.7017 4
-5 -3 -10 7.67016 11.1307 5
-5 -3 -10 3.19553 5.46578 8
8 -3 10 -2.7374 10.7736 6
8 -5 -10 7.10361 15.1076 4
8 -3 10 14.0375 11.9743 4
5 -8 10 -5.1085 9.16108 4
-8 5 -10 4.21611 5.41518 8
3 -8 -10 18.6187 13.3501 5
3 5 10 4.26656 13.7231 6
5 -8 10 7.08672 10.8068 5
-5 8 10 16.4073 12.9966 6
5 -8 -10 2.63523 5.49244 7
-8 3 -10 15.9792 6.15074 8
8 -3 -10 46.0919 16.7245 4
3 5 -10 6.01174 6.57776 12
5 -8 -10 21.2673 14.9104 4
-3 -5 -10 20.0675 11.8895 5
-3 8 10 19.3945 14.4106 6
5 3 10 30.2309 15.7923 6
3 -8 10 3.25369 9.3646 5
-3 -5 -10 -0.128 4.97795 8
8 -5 10 28.9383 12.3069 4
8 -2 10 16.1133 11.9769 4
2 6 10 13.8065 14.7704 6
2 -8 -10 15.1583 13.0027 5
-6 8 10 2.49328 7.51264 11
8 -6 -10 24.7768 15.1643 4
8 -6 -10 -1.4189 9.55655 7
-6 -2 -10 9.51808 11.4823 5
8 -2 10 10.2216 13.0593 6
-6 -2 -10 13.665 5.54448 8
6 -8 10 3.07581 10.8538 4
-6 8 10 13.7905 13.5894 6
-8 6 -10 4.72314 5.58384 8
6 2 10 4.10887 13.8055 6
-2 -6 -10 1.14935 5.35462 8
6 2 10 14.586 13.8925 4
-8 2 -10 13.5445 5.97493 8
8 -2 -10 0.48511 13.6444 4
6 -8 -10 6.194 6.80015 7
2 6 -10 6.61189 7.98136 12
8 -6 10 9.63069 11.7297 4
-2 8 10 6.68023 14.4978 6
-2 -6 -10 1.78463 10.9988 5
6 -8 -10 12.867 14.3193 4
1 -8 -10 63.076 14.1775 5
8 -1 10 47.4345 13.2288 4
-7 8 10 81.0648 17.1625 6
8 -7 -10 43.5219 8.51659 7
-7 8 10 35.4723 7.90336 11
-7 -1 -10 39.3296 7.28373 8
-8 7 -10 47.2722 7.67087 8
8 -1 10 78.9633 16.8254 6
8 -7 -10 73.1601 16.4119 4
7 -8 10 70.7078 14.6905 4
-1 8 10 51.3169 15.8572 6
7 -8 -10 36.2268 8.91118 7
7 -8 -10 76.4576 17.6238 4
7 1 10 63.4096 15.4835 4
-8 1 -10 36.6012 7.19794 8
8 -7 10 49.2751 13.499 4
7 1 10 31.2 15.0849 6
-1 -7 -10 52.1765 13.5461 5
1 7 -10 34.4731 9.17154 12
-8 0 -10 16.9206 6.77059 8
8 -8 -10 10.5939 14.9083 4
-8 8 -10 15.6762 6.40466 8
0 8 10 19.6509 16.081 6
8 -8 10 18.13 12.895 4
0 8 -10 9.20144 9.0138 12
8 0 10 12.0865 14.9977 6
8 0 10 18.4395 12.9609 4
0 -8 -10 19.9252 11.6189 5
0 -8 -10 4.29895 6.3298 8
8 -8 -10 6.91045 8.26265 7
-5 -4 -10 51.7285 8.63791 8
-9 5 -10 63.2335 9.72768 8
-5 -4 -10 96.6138 14.9536 5
9 -5 -10 68.3812 18.0597 4
4 5 10 60.3398 16.783 6
9 -4 10 60.6315 13.7858 4
-5 9 10 61.3936 17.5911 6
5 -9 10 43.0956 11.7952 5
4 -9 -10 65.8677 15.1215 5
5 4 10 52.665 16.0163 6
9 -4 -10 79.2301 19.7311 4
4 5 -10 49.1085 9.96369 12
-4 9 10 61.9157 17.773 6
4 -9 10 37.7065 11.7535 5
5 -9 -10 79.6518 17.1034 4
-9 4 -10 44.6727 8.31764 8
-4 -5 -10 52.0378 8.62074 8
5 -9 -10 31.4785 7.2716 7
9 -5 10 59.2043 14.3002 4
-4 -5 -10 48.0393 12.4748 5
-6 9 10 36.6785 8.1079 11
3 6 10 51.7903 17.2758 6
6 -9 10 34.2445 11.7451 5
-9 6 -10 43.6445 8.74462 8
-6 -3 -10 51.4846 12.2717 5
3 -9 -10 46.0893 14.2946 5
-6 9 10 59.8885 17.4332 6
9 -3 10 32.0528 12.2559 4
9 -6 -10 40.5104 16.9704 4
-6 -3 -10 27.7167 7.24797 8
6 3 10 78.6685 18.2033 6
-9 3 -10 47.8656 8.826 8
-3 9 10 62.0554 17.7806 6
3 6 -10 35.4709 9.73368 12
-3 -6 -10 48.2814 12.909 5
9 -3 -10 75.2266 18.4907 4
6 3 10 47.1362 15.3447 4
9 -6 10 62.4872 14.3732 4
6 -9 -10 40.1729 8.65 7
-3 -6 -10 43.4929 8.41047 8
6 -9 -10 73.4126 17.3634 4
9 -7 -10 18.982 8.64688 7
9 -7 -10 39.4777 16.2529 4
7 2 -10 0.32906 7.67067 12
2 7 10 25.5054 15.3675 6
-7 -2 -10 30.2945 12.0319 5
-7 9 10 27.9359 14.7723 6
7 -9 10 2.26376 10.5733 4
-7 9 10 24.7876 8.38376 11
9 -2 10 30.6211 13.0481 4
9 -2 10 23.4984 13.67 6
7 -9 10 20.6624 11.7112 5
-7 -2 -10 32.228 7.15578 8
2 -9 -10 39.0091 14.1137 5
-9 7 -10 29.5006 8.16738 8
7 2 -10 19.253 6.87766 11
7 -9 -10 36.9148 9.40084 7
-9 2 -10 36.8551 7.92897 8
-2 -7 -10 39.6934 8.29649 8
-2 -7 -10 28.2199 11.7552 5
9 -7 10 32.9513 12.5184 4
7 2 10 30.8812 14.0912 4
7 -9 -10 36.9163 15.3541 4
2 7 -10 31.246 10.108 12
-2 9 10 39.1943 16.3744 6
7 2 10 40.3321 15.706 6
8 -9 10 19.7507 13.3184 4
9 -1 10 22.7103 14.254 6
-8 -1 -10 20.7723 6.84502 8
9 -8 -10 15.0554 9.24154 7
1 -9 -10 16.4174 12.6639 5
8 1 -10 8.10673 6.94743 11
-8 9 10 24.9087 8.69469 11
-9 8 -10 6.27429 7.58071 8
9 -1 10 16.0237 12.0487 4
8 -9 10 17.3225 11.2421 5
-1 9 -10 11.4888 8.37265 12
-8 9 10 20.5738 15.0753 6
-9 8 -10 -1.3015 6.53534 9
1 8 10 38.2633 16.9885 6
1 -9 -10 19.8079 7.03285 8
9 -8 -10 43.5146 16.5777 4
-1 -8 -10 32.0924 8.25094 8
8 1 10 38.9929 13.8885 4
-1 9 10 66.7958 18.929 6
8 -9 -10 49.78 16.2495 4
-1 -8 -10 51.0585 13.5064 5
-8 9 -10 43.1699 7.77787 8
8 1 10 48.9398 16.3422 6
8 -9 -10 44.4867 10.3258 7
9 -8 10 39.0445 14.5728 4
1 8 -10 27.9374 9.65246 12
-9 1 -10 41.8354 8.25039 8
9 -9 10 18.6883 12.6275 5
0 -9 -10 10.7843 11.65 5
-9 9 10 14.944 8.69832 11
9 -9 -10 14.1531 15.7023 4
9 0 10 31.3103 15.0401 6
0 9 -10 13.5468 9.63664 12
9 -9 10 8.64657 13.7371 4
9 0 10 16.5204 13.2345 4
-9 0 -10 12.5657 6.78763 8
9 -9 -10 10.2653 9.74126 7
0 9 10 25.3735 16.7419 6
0 -9 -10 9.72973 7.80179 8
-9 9 -10 13.787 5.69465 9
-9 9 -10 17.9105 7.26707 8
5 5 10 19.4458 15.6105 6
5 -10 -10 16.3257 6.83441 7
-10 5 -10 5.8055 8.04677 8
-5 10 10 6.22562 8.30196 11
5 -10 10 -2.4259 10.419 5
-5 -5 -10 7.93762 7.35513 8
10 -5 -10 10.5892 17.5781 4
-5 10 10 14.8287 15.3579 6
5 -10 -10 2.29787 12.4865 5
10 -5 10 10.9009 11.4108 4
5 5 10 4.74163 14.7165 4
5 5 -10 8.50572 7.86977 12
5 5 -10 -0.6832 5.20437 11
-5 -5 -10 10.9741 11.2373 5
-10 6 -10 95.5285 11.9202 8
6 -10 10 121.832 17.9343 5
-6 10 10 108.325 12.6793 11
6 4 -10 73.6865 10.6015 11
-6 -4 -10 113.444 11.3356 8
10 -4 10 125.787 19.6027 4
4 6 10 127.545 19.7131 6
6 4 -10 92.4602 12.5797 12
-6 -4 -10 148.202 18.7645 5
4 -10 -10 140.652 19.3992 5
-6 10 10 108.034 19.4897 6
10 -6 -10 169.762 24.0831 4
-10 4 -10 70.2488 10.0905 8
6 -10 -10 87.3396 17.4611 4
10 -6 10 119.831 17.406 4
-4 10 10 78.8802 18.5785 6
4 -10 10 58.758 12.1034 5
4 6 -10 99.0143 12.7074 12
-4 10 10 58.7611 9.65787 11
6 4 10 101.495 19.1151 6
10 -4 -10 90.7589 20.2608 4
-4 -6 -10 94.5923 10.2935 8
6 4 10 85.6977 17.5036 4
6 -10 -10 85.391 10.8161 7
10 -7 -10 23.3884 17.3024 4
7 -10 10 10.221 10.7735 5
7 3 -10 1.40728 6.6443 11
7 3 -10 5.20737 6.78285 12
-10 7 -10 0.49311 5.12919 9
-10 7 -10 2.94581 8.41129 8
10 -3 10 9.04161 11.1286 4
-7 10 10 -5.5094 15.4638 6
10 -3 10 -0.1923 10.7162 6
3 -10 -10 17.4292 14.0295 5
-7 -3 -10 8.65404 6.43697 8
-3 10 -10 0.67226 7.57923 12
3 7 10 12.5503 15.2092 6
-7 10 10 -5.1628 8.29527 11
10 -7 -10 7.91829 8.86374 7
-7 -3 -10 9.29681 11.2009 5
-10 3 -10 1.97589 7.19368 8
-3 -7 -10 5.00183 7.59395 8
7 3 10 6.09769 15.5142 6
10 -7 10 5.75426 12.7992 4
7 -10 -10 0.4363 14.2832 4
3 7 -10 -3.2442 9.63454 12
7 3 10 6.44878 13.8727 4
-7 10 -10 -1.8045 4.77291 9
-3 10 10 2.23523 6.32509 11
-3 10 10 14.1654 16.2434 6
7 -10 -10 2.82762 7.98783 7
-3 -7 -10 5.54608 12.2448 5
2 -10 -10 15.9555 7.19424 8
-8 -2 -10 30.1566 11.4053 5
2 -10 -10 17.4543 13.515 5
8 -10 10 20.7641 11.4642 5
10 -2 10 8.66021 13.0749 6
-8 10 10 24.1068 8.47438 11
-10 8 -10 9.48362 5.93604 9
10 -2 10 27.566 13.2733 4
-8 -2 -10 22.7967 6.76813 8
8 2 -10 18.7444 7.57356 11
8 2 -10 1.4511 6.3693 12
2 8 10 30.6782 16.3337 6
10 -8 -10 26.0302 17.4738 4
10 -8 -10 10.4603 9.2306 7
-10 8 -10 26.8767 8.81664 8
-8 10 10 20.7808 14.9735 6
-2 10 -10 19.1728 10.1695 12
-2 -8 -10 33.5957 8.35608 8
-2 10 10 45.9494 18.9582 6
8 2 10 24.1871 14.433 4
-8 10 -10 19.3765 6.7057 9
8 2 10 32.3913 15.1854 6
2 8 -10 24.7759 10.7968 12
8 -10 -10 32.4094 16.2861 4
8 -10 -10 27.9008 9.55885 7
10 -8 10 19.0236 13.0066 4
-10 2 -10 22.3373 7.38776 8
-2 -8 -10 24.1572 11.5921 5
-9 10 10 11.6901 14.1891 6
10 -1 10 6.17736 14.56 6
9 -10 10 0.48746 10.8388 5
9 -10 10 1.25889 11.9063 4
-9 -1 -10 5.72147 6.34443 8
-1 10 -10 -1.8514 9.34427 12
-9 10 10 -4.3255 7.892 11
10 -9 -10 9.75119 8.99747 7
1 9 10 3.77702 17.2419 6
-10 9 -10 3.52273 7.86136 8
1 -10 -10 4.42696 7.63647 8
9 1 -10 -2.3375 7.26152 11
10 -9 -10 3.29491 16.0454 4
10 -1 10 9.14543 12.8013 4
1 -10 -10 2.13509 12.325 5
-10 9 -10 2.70651 6.63679 9
-1 -9 -10 0.31192 11.7361 5
10 -9 10 2.43217 12.8681 4
-1 10 10 10.0713 16.7231 6
9 -10 -10 5.42566 15.7786 4
9 -10 -10 -1.0418 9.31195 7
-1 -9 -10 10.1744 7.67396 8
9 1 10 8.32017 14.731 6
9 1 10 14.034 13.6877 4
10 -9 10 5.82072 12.0321 5
-10 1 -10 12.3756 6.9444 8
1 9 -10 3.79436 9.05438 12
-9 10 -10 13.6635 7.27247 9
-10 9 10 8.31984 8.03952 11
10 0 10 27.131 13.7941 4
0 10 10 51.8037 19.3386 6
-10 10 10 44.5514 15.9549 6
10 -10 -10 30.3931 17.1384 4
10 -10 10 40.7915 13.9704 4
0 10 -10 25.6427 10.6463 12
-10 10 10 44.8331 9.54679 11
0 -10 -10 49.5131 14.3352 5
10 0 10 37.4783 15.8648 6
-10 0 -10 51.4681 8.23031 8
-10 10 -10 23.4977 7.77037 9
10 -10 10 71.5121 14.6383 5
10 -10 -10 38.174 10.2081 7
0 -10 -10 30.5613 8.47793 8
5 6 10 19.7771 15.0803 6
-6 11 10 7.01385 8.67054 11
-6 -5 -10 4.96739 10.4289 5
-5 11 -10 2.30438 5.69166 9
-6 -5 -10 7.73121 7.23839 8
-6 11 10 3.4931 14.737 6
11 -6 -10 -0.2645 7.58551 7
-11 6 -10 9.42582 6.65797 9
11 -5 10 -1.0561 12.8599 4
5 6 10 -6.7013 13.8217 4
6 -11 10 9.60422 10.427 5
11 -6 -10 11.9356 17.5326 4
6 5 -10 -2.1977 6.78893 11
6 5 -10 15.5328 8.82001 12
-11 6 -10 3.71604 8.23603 8
5 -11 -10 6.77264 6.28429 7
5 -11 -10 6.61697 13.5759 5
6 -11 -10 3.70974 7.02006 7
6 5 10 -1.9193 14.0021 4
5 6 -10 6.11747 6.99197 11
5 6 -10 10.1035 9.18769 12
-5 -6 -10 8.25903 12.1751 5
11 -5 -10 10.2336 17.2455 4
-5 11 10 8.0039 9.11946 11
5 -11 10 4.6941 9.85564 5
-11 5 -10 6.19498 6.19239 9
-5 11 10 11.331 15.4 6
6 5 10 13.5956 16.2447 6
11 -6 10 10.6113 13.074 4
-11 5 -10 10.6532 8.48802 8
6 -11 -10 2.20766 14.0314 4
-5 -6 -10 14.415 7.39771 8
-6 11 -10 4.15612 6.32559 9
-11 7 -10 44.4544 9.33323 8
-7 -4 -10 47.0307 7.80544 8
11 -4 10 36.3239 14.0115 4
11 -7 -10 26.7872 10.4401 7
4 -11 -10 36.4786 15.2206 5
4 7 10 51.5502 17.788 6
-7 11 10 31.8044 9.6235 11
-7 -4 -10 49.6448 12.8479 5
7 4 -10 12.3311 7.59233 11
-7 11 10 38.7117 15.5868 6
7 4 -10 35.9469 9.28314 12
-11 7 -10 28.9586 8.24164 9
11 -7 -10 31.2737 18.0944 4
7 -11 10 39.6484 11.5444 5
7 -11 -10 25.8928 15.5452 4
-4 -7 -10 23.3525 7.95812 8
-11 4 -10 22.1406 8.3044 8
7 -11 -10 25.3281 8.06908 7
-4 11 10 33.0792 9.81154 11
7 4 10 16.9363 15.7629 6
11 -7 10 11.6663 13.6707 4
-4 11 10 21.9783 16.0481 6
-7 11 -10 18.1302 7.0508 9
-11 4 -10 -0.7597 6.32818 9
4 7 -10 1.34362 6.21794 11
7 4 10 20.0328 13.941 4
-4 -7 -10 24.2261 12.963 5
4 7 -10 15.3275 8.79594 12
11 -3 10 11.938 12.0205 4
8 3 -10 -0.4732 7.38146 11
-11 8 -10 3.32548 8.35762 8
8 -11 10 10.006 11.8052 5
3 -11 -10 12.8118 13.8715 5
8 3 -10 9.86772 7.19526 12
11 -8 -10 7.24794 9.65288 7
-8 -3 -10 12.1923 12.0445 5
3 -11 -10 1.86568 7.76432 8
-11 8 -10 -0.4967 7.14096 9
-3 11 -10 1.61384 9.50587 12
11 -8 -10 3.94723 17.335 4
-8 11 10 12.6817 15.8879 6
-8 11 10 7.29633 8.15341 11
-8 -3 -10 6.59183 6.33114 8
3 8 10 9.48909 16.6047 6
-11 3 -10 30.0471 8.10784 8
11 -8 10 20.4558 13.927 4
-3 -8 -10 17.0847 8.239 8
-3 11 10 18.1158 8.64563 11
-11 3 -10 0.5536 6.48581 9
-8 11 -10 17.4248 7.63978 9
8 3 10 8.20294 14.6978 6
3 8 -10 14.2945 9.12355 12
8 -11 -10 16.5989 8.50333 7
8 3 10 9.11713 13.2441 4
8 -11 -10 19.0089 15.3514 4
-3 11 10 17.2851 16.7629 6
-3 -8 -10 25.9196 12.5002 5
2 9 10 80.488 19.5604 6
2 -11 -10 79.1241 10.3025 8
9 -11 10 107.997 15.8363 5
11 -9 -10 66.0907 11.8937 7
-11 9 -10 47.9479 9.62709 9
9 2 -10 61.7013 10.0543 11
11 -9 -10 109.391 21.6608 4
-9 -2 -10 79.4885 9.30823 8
-2 11 -10 68.0924 13.0153 12
2 -11 -10 93.5939 17.1635 5
-9 11 10 81.2156 10.8802 11
-11 9 -10 68.0465 10.537 8
11 -2 10 78.9882 16.2225 4
9 2 10 23.442 14.0479 4
11 -9 10 35.2113 13.9803 4
-11 2 -10 30.7118 7.70683 8
2 9 -10 42.694 11.729 12
-2 -9 -10 34.0668 12.9482 5
-9 11 -10 35.6835 8.54959 9
-2 -9 -10 30.0036 8.21003 8
9 -11 -10 35.7772 16.2554 4
9 2 10 34.2075 15.8442 6
-2 11 10 33.5438 17.449 6
-2 11 10 25.3362 7.52776 11
11 -9 10 59.9947 14.935 5
9 -11 -10 34.4883 9.73031 7
-10 11 10 27.196 8.65973 11
-11 10 -10 33.7787 8.24783 9
11 -1 10 37.9975 15.1389 6
1 10 10 51.1189 19.6231 6
-11 1 10 17.3364 8.82197 10
-10 -1 -10 38.4435 7.72867 8
-1 11 -10 23.7596 7.32041 10
10 -11 10 39.9101 13.2236 5
11 -1 10 21.9004 14.2728 4
-1 11 -10 20.2998 11.1575 12
11 -10 -10 31.5831 16.7149 4
11 -10 -10 45.2736 10.5702 7
1 -11 -10 32.5583 8.98309 8
1 -11 -10 26.29 13.296 5
-10 11 -10 26.5079 7.86552 9
-1 11 10 56.2113 18.8293 6
10 1 10 27.59 14.0629 4
1 10 -10 38.7079 11.4612 12
11 -10 10 60.8427 14.4947 5
-1 -10 -10 36.3708 12.8496 5
-11 10 10 38.2617 8.78893 11
10 -11 -10 31.9306 10.0307 7
10 1 10 24.013 15.0569 6
-11 1 -10 28.1727 7.55768 8
1 10 -10 22.063 7.86794 10
-1 -10 -10 43.9103 8.63076 8
11 -10 10 24.5761 13.3949 4
10 -11 -10 29.7596 17.2691 4
-11 0 10 14.6259 8.94997 10
-11 0 -10 16.693 6.78898 8
-11 11 -10 24.8083 8.08979 9
0 11 -10 20.2176 8.0399 10
-11 11 10 22.8663 8.12574 11
11 -11 10 8.07959 11.9793 4
0 11 10 13.8057 16.8582 6
11 -11 -10 18.7974 10.2853 7
0 -11 -10 15.322 7.58627 8
0 -11 -10 23.9371 12.9082 5
11 0 10 21.0089 15.2551 6
11 -11 10 13.1531 5.80359 7
11 -11 10 44.4586 14.031 5
11 -11 -10 34.8857 18.216 4
0 11 -10 19.372 11.2328 12
11 0 10 21.9979 14.5028 4
-12 6 -10 -1.8902 8.11979 8
-6 12 -10 9.60578 7.55645 9
-6 -6 -10 16.6662 7.31746 8
6 6 -10 4.74827 7.61509 11
12 -6 -10 7.63773 17.3789 4
12 -6 10 1.47784 12.3237 4
6 -12 10 8.13831 9.89966 5
12 -6 -10 0.06247 6.98905 7
-12 6 -10 6.77326 7.87585 9
6 6 10 12.9811 15.603 6
-6 12 10 7.63285 9.29857 11
6 -12 -10 4.51298 6.73784 7
6 6 -10 12.6544 8.35126 12
-6 -6 -10 9.87382 10.5666 5
7 -12 10 9.88711 10.4549 5
-12 7 -10 13.0883 8.70604 8
5 -12 -10 8.23629 12.3612 5
-7 -5 -10 9.92791 6.63324 8
-12 7 -10 12.4081 8.20753 9
-5 12 -10 8.24186 7.26635 9
5 -12 -10 -2.1969 5.85611 8
12 -7 -10 5.06093 9.70473 7
12 -7 -10 9.86027 17.5983 4
-7 -5 -10 3.31534 11.5628 5
5 -12 -10 9.65626 5.58041 7
7 5 -10 9.33705 7.6028 11
7 5 -10 7.87653 7.87047 12
12 -5 10 1.55215 12.2933 4
5 7 10 8.14217 15.2318 6
-7 12 10 7.86253 8.98195 11
-5 -7 -10 9.18897 7.45352 8
7 -12 -10 -5.0493 14.2685 4
5 -12 10 2.38411 12.4864 5
5 7 -10 4.84375 7.46953 11
-7 12 -10 6.51986 7.19141 9
-5 -7 -10 10.4519 11.7507 5
12 -7 10 1.58028 13.3557 4
-12 5 -10 5.60377 8.21443 9
-12 5 -10 3.04409 7.87544 8
5 7 -10 11.3604 9.50707 12
-5 12 10 8.92944 8.93243 11
7 5 10 9.46661 16.2101 6
7 -12 -10 4.74861 7.27724 7
8 -12 10 32.5333 11.5327 5
12 -8 -10 42.7552 19.0903 4
12 -4 10 28.3034 13.8192 4
8 4 -10 20.5572 7.65285 11
-8 12 10 36.2245 9.75818 11
4 8 10 23.8097 16.4756 6
4 -12 -10 23.5071 8.73559 8
4 -12 -10 27.3104 14.0273 5
-4 12 -10 24.3612 10.5699 12
-8 -4 -10 36.3569 12.7233 5
12 -8 -10 14.2446 10.0879 7
-12 8 -10 29.0028 8.84094 9
-8 -4 -10 25.662 6.87285 8
-12 8 -10 28.302 9.19838 8
8 4 -10 27.6068 9.12947 12
8 -12 -10 13.7133 15.41 4
4 8 -10 18.0267 10.0266 12
-4 12 10 22.4134 9.29262 11
-4 -8 -10 30.9733 12.4291 5
-12 4 -10 19.4057 8.71599 9
8 -12 -10 21.5113 8.4974 7
-8 12 -10 21.6007 7.93115 9
-4 -8 -10 29.0816 8.23888 8
8 4 10 48.332 17.9723 6
4 8 -10 13.0309 8.02125 11
12 -8 10 24.1033 13.6797 4
-12 4 -10 30.0889 8.28826 8
-3 12 -10 2.87944 6.32928 10
3 -12 -10 30.7276 15.0882 5
9 -12 10 21.4326 11.0359 5
3 9 10 48.0141 18.9879 6
12 -3 10 15.8121 13.3125 4
-12 9 -10 26.3843 9.33728 8
9 3 -10 29.8418 8.21847 11
-9 -3 -10 27.441 6.90908 8
12 -9 -10 25.1664 17.5652 4
-12 9 -10 17.6402 7.77297 9
3 -12 -10 10.8735 8.11243 8
-12 3 10 9.68403 7.6728 10
12 -9 -10 28.8143 10.263 7
-3 12 -10 29.1041 11.6636 12
-9 12 10 40.7696 9.37803 11
12 -9 10 38.0376 13.4586 5
-12 3 -10 23.1407 8.86473 9
-3 -9 -10 31.5648 13.3506 5
-9 12 -10 23.7546 8.30117 9
-3 -9 -10 33.586 8.34664 8
-3 12 10 28.6972 9.29774 11
3 9 -10 43.9431 11.7116 12
9 -12 -10 46.2729 17.4398 4
-12 3 -10 24.4267 8.16937 8
9 -12 -10 26.2514 8.71771 7
9 3 10 25.2899 15.1254 6
12 -9 10 40.4327 14.69 4
3 9 -10 9.47929 6.83962 11
-10 12 10 13.7275 8.59108 11
-12 10 -10 9.97107 7.66921 9
2 -12 -10 1.48213 7.49375 8
-10 -2 -10 12.1928 6.52608 8
12 -10 -10 12.3904 16.8076 4
-2 12 -10 9.89593 8.03083 10
2 -12 -10 18.4559 13.5251 5
2 10 10 6.37313 17.1447 6
10 -12 10 15.0486 10.9924 5
10 2 -10 13.9124 8.27511 11
12 -10 -10 5.94812 9.11032 7
12 -2 10 11.2388 13.7607 4
-2 12 -10 6.41026 10.2889 12
-12 2 10 17.8875 9.32417 10
-2 12 10 9.93138 8.88245 11
-2 -10 -10 -1.4996 7.65203 8
-2 -10 -10 11.5302 11.6262 5
-12 2 -10 12.2889 7.13167 8
10 -12 -10 -0.0661 16.4889 4
-12 2 -10 0.60205 8.17812 9
-10 12 -10 1.38844 7.5317 9
10 2 10 9.34964 14.9027 6
10 -12 -10 1.92705 8.27631 7
12 -10 10 5.44505 7.14632 7
2 10 -10 9.59637 10.1475 12
12 -10 10 -4.6145 11.9943 5
-12 10 10 6.196 7.6458 11
12 -10 10 13.7291 13.6936 4
-11 12 10 94.584 11.6329 11
1 -12 -10 126.241 12.2166 8
12 -11 -10 114.464 22.2455 4
-1 12 -10 95.6237 14.4752 12
-11 -1 -10 127.706 12.2048 8
1 -12 -10 88.7417 16.3453 5
-12 1 10 79.7088 12.3342 10
12 -11 -10 146.86 14.7324 7
-1 12 -10 100.372 13.1936 10
12 -1 10 80.644 17.7575 4
-12 11 -10 102.975 13.5884 9
-1 -11 -10 127.17 12.1101 8
-11 12 -10 105.188 13.984 9
-12 1 -10 102.473 12.4943 8
12 -11 10 173.284 21.0363 5
11 -12 -10 107.036 20.392 4
12 -11 10 95.7495 14.0126 7
1 11 -10 114.328 14.9255 12
-12 1 -10 93.6615 14.1801 9
11 -12 -10 131.025 13.8423 7
-12 11 10 117.194 12.2463 11
11 1 10 92.8397 18.2535 6
-1 -11 -10 101.172 16.1431 5
-1 12 10 107.471 14.0482 11
0 12 -10 -4.5807 10.2203 12
12 -12 10 13.0155 6.44887 7
-12 12 -10 7.22681 7.47231 9
0 -12 -10 6.16473 7.16384 8
0 -12 -10 9.54425 12.0463 5
12 -12 -10 -1.2096 9.05775 7
12 -12 10 2.95258 12.0839 5
-12 0 -10 2.69535 7.58666 9
0 12 10 1.39465 5.67448 11
-12 12 10 10.7706 7.51553 11
-12 0 -10 1.67687 6.5781 8
-12 0 10 8.76904 9.05409 10
12 0 10 6.14002 12.6588 6
0 12 -10 0.63458 7.73429 10
12 -12 -10 -8.426 16.659 4
-6 13 -10 30.8092 8.37302 9
13 -7 -10 49.0061 11.1416 7
7 -13 10 43.3396 11.4382 5
-7 13 10 58.0996 10.3548 11
7 6 -10 38.4369 8.81067 11
6 7 10 39.0433 15.9893 6
-7 -6 -10 49.5089 8.02093 8
-13 7 -10 30.7581 8.84806 8
7 6 -10 35.6499 9.34824 12
-13 7 -10 31.1048 9.10255 9
6 -13 -10 29.9978 7.10664 7
-7 -6 -10 48.5445 13.1319 5
13 -6 10 58.2533 15.997 4
13 -7 -10 19.3079 17.3635 4
-13 6 -10 21.5823 8.78102 9
7 -13 -10 31.566 7.73851 7
-6 13 10 44.745 9.97698 11
13 -7 10 41.4079 14.8603 4
-6 -7 -10 33.3828 7.65277 8
-13 6 -10 33.9927 8.62357 8
-7 13 -10 42.64 8.45484 9
6 7 -10 32.7687 8.66542 11
6 7 -10 29.0979 9.18429 12
-6 -7 -10 53.999 13.702 5
6 -13 10 1.10845 10.5071 5
7 6 10 52.2313 18.0746 6
5 8 10 15.9165 16.2188 6
-13 5 10 2.27464 6.40686 10
8 5 -10 8.6906 8.13462 12
8 5 -10 3.72616 7.29464 11
13 -5 10 11.8956 13.1027 4
13 -8 -10 18.4568 18.2677 4
-5 13 -10 -2.4774 7.01152 10
-5 13 -10 8.24553 8.20469 12
5 -13 -10 1.05426 12.501 5
5 -13 -10 1.02895 4.45749 7
-8 -5 -10 5.49438 6.08599 8
-13 8 -10 13.2118 8.19456 9
13 -8 -10 8.27433 9.72345 7
5 -13 -10 1.07618 7.52762 8
-8 13 10 11.6223 8.63618 11
-13 8 -10 7.30374 8.22968 8
8 -13 10 4.94466 10.4947 5
-8 -5 -10 20.9299 12.1528 5
5 8 -10 6.15877 7.7331 11
-13 5 -10 7.078 7.6163 8
8 -13 -10 -0.0729 13.834 4
5 8 -10 6.27062 9.41329 12
8 5 10 20.3381 15.6928 6
-5 -8 -10 4.70163 6.85794 8
8 -13 -10 5.00177 7.19273 7
13 -8 10 0.59136 12.2624 4
-8 13 -10 3.25064 7.24093 9
-13 5 -10 -2.3014 8.25581 9
-5 13 10 4.92215 8.6589 11
-5 -8 -10 15.4862 12.4679 5
-13 4 10 10.8202 8.95971 10
4 9 10 35.6197 16.9524 6
-13 9 -10 56.011 9.63814 8
-9 -4 -10 41.8369 7.27601 8
-4 13 -10 25.6892 8.36022 10
9 4 -10 35.9232 8.57865 12
-4 13 -10 35.2395 11.5386 12
-13 9 -10 51.5533 9.35753 9
13 -4 10 55.0177 14.8835 4
13 -9 -10 61.9449 11.4434 7
4 -13 -10 31.3817 8.61998 8
4 -13 -10 30.9681 13.9091 5
9 4 -10 34.5036 7.95626 11
9 -13 10 48.8746 12.1972 5
13 -9 -10 32.696 18.6707 4
-9 13 10 57.1405 9.68884 11
-9 -4 -10 37.0738 11.8069 5
-13 4 -10 44.4005 9.68421 9
13 -9 10 33.2873 13.2089 5
4 9 -10 24.0308 8.52307 11
9 -13 -10 56.4939 17.1591 4
13 -9 10 18.8951 7.34504 7
-4 13 10 28.0152 9.1771 11
9 -13 -10 20.7762 8.09634 7
-4 -9 -10 39.5972 13.1668 5
4 9 -10 31.2729 10.6584 12
-4 -9 -10 39.8639 8.17659 8
-9 13 -10 18.5247 7.97098 9
-13 4 -10 39.0845 8.49556 8
13 -9 10 23.6415 13.8263 4
9 4 10 38.0496 17.078 6
13 -10 -10 18.2663 9.71773 7
-3 13 -10 20.3649 10.6696 12
-10 13 10 36.3304 8.75803 11
3 -13 -10 20.621 8.21486 8
3 -13 -10 48.5699 15.2331 5
13 -10 -10 31.24 17.809 4
10 -13 10 30.3251 11.8312 5
-10 -3 -10 23.467 7.07442 8
13 -3 10 27.7856 14.2115 4
-3 13 -10 14.901 8.52099 10
-13 10 -10 35.5126 8.51289 9
-13 3 10 15.6712 9.56044 10
10 3 -10 29.4757 8.39104 11
3 10 10 22.211 16.5657 6
-3 -10 -10 19.2627 12.5562 5
-10 13 -10 9.38881 7.40245 9
-3 13 10 15.844 9.05313 11
13 -10 10 24.9284 12.3686 5
-13 3 -10 6.68361 8.34427 9
-13 3 -10 11.6743 7.46734 8
10 -13 -10 8.72619 15.9938 4
-13 10 10 17.0962 7.83433 11
10 3 10 12.8222 14.8553 6
13 -10 10 -6.1969 6.81345 7
13 -10 10 7.92106 13.7741 4
3 10 -10 1.34416 7.73693 11
3 10 -10 13.3287 9.41612 12
-3 -10 -10 7.97091 7.25956 8
10 -13 -10 7.67011 7.8853 7
13 -2 10 -1.0847 12.9444 4
-13 11 -10 29.3231 7.90211 9
-13 2 10 19.6079 9.47678 10
-2 13 -10 9.5237 8.37296 10
13 -11 -10 32.6265 17.4919 4
-2 13 -10 15.1913 11.6649 12
11 2 -10 44.5387 9.0436 11
13 -11 -10 21.2287 8.89657 7
2 -13 -10 32.4064 8.33112 8
-11 -2 -10 25.2766 7.17032 8
-11 13 10 38.7825 8.61113 11
11 -13 10 20.2157 11.1705 5
2 -13 -10 33.8689 13.802 5
11 -13 -10 16.1505 16.7639 4
-13 2 -10 14.1156 7.31548 8
11 2 10 11.8075 14.2778 6
2 11 -10 25.3753 11.4554 12
-11 13 -10 21.4111 8.18427 9
13 -11 10 13.12 11.563 5
-13 11 10 23.3141 8.17911 11
2 11 -10 -3.9202 6.62962 11
-2 -11 -10 25.8978 12.5055 5
13 -11 10 9.5964 11.5833 4
-2 -11 -10 15.9288 7.68269 8
13 -11 10 9.99882 7.18359 7
-13 2 -10 13.0045 8.63414 9
-2 13 10 18.1865 9.16286 11
11 -13 -10 10.5742 8.07795 7
-1 13 -10 32.3312 11.5266 12
1 -13 -10 27.9899 12.908 5
1 -13 -10 30.0083 7.73463 8
-12 -1 -10 23.0642 7.7435 9
-13 1 10 29.4032 9.82108 10
-1 13 -10 28.1387 8.7197 10
-12 -1 -10 42.6515 7.61018 8
-13 12 -10 28.765 7.94866 9
13 -12 -10 21.2977 17.362 4
13 -12 -10 44.5074 9.95842 7
12 -13 10 27.3259 12.208 5
-12 13 10 45.0925 8.7763 11
-13 1 -10 22.0871 7.35333 8
1 12 -10 19.6779 11.3179 12
-12 13 -10 36.7397 8.46716 9
-1 13 10 13.0687 8.90055 11
-13 1 -10 9.27351 8.30129 9
-13 12 10 27.1588 8.11225 11
12 -13 -10 15.5971 8.60934 7
13 -12 10 12.0941 7.23205 7
1 12 -10 16.3751 8.12976 10
12 -13 -10 15.088 16.6372 4
-1 -12 -10 30.1352 12.8952 5
12 1 10 1.28129 11.6813 6
-1 -12 -10 23.0264 7.91087 8
13 -12 10 22.9756 11.7833 5
-12 -1 10 3.4634 8.83583 10
13 -13 -10 72.5456 18.6235 4
13 -13 10 58.1214 13.2606 5
-13 0 -10 57.3699 10.2401 9
-13 13 -10 60.6377 9.97313 9
0 -13 -10 79.8799 9.29519 8
0 13 -10 110.199 14.701 12
0 13 10 59.8828 9.25199 11
0 13 -10 55.1719 9.51776 10
-13 0 -10 73.8645 8.81301 8
-13 13 10 85.2496 10.0617 11
13 -13 10 55.8397 8.54883 7
-13 0 10 50.4973 10.651 10
13 -13 -10 86.4211 10.8598 7
0 -13 -10 65.283 13.533 5
7 -14 -10 11.9949 6.33582 7
14 -7 10 13.7549 13.3676 4
-7 -7 -10 16.5194 11.7017 5
-14 7 -10 9.46377 8.64434 9
-7 -7 -10 12.099 6.79671 8
14 -7 -10 11.2785 9.0999 7
7 -14 -10 -2.3411 7.10884 8
-7 14 10 17.175 8.27569 11
-7 14 -10 11.2768 7.55408 9
7 7 -10 12.1804 7.56701 11
-14 7 -10 13.1625 8.29089 8
7 7 10 18.3429 15.5436 6
7 7 -10 9.78189 8.77938 12
14 -7 10 11.6458 6.91389 7
-14 7 10 1.86137 6.02254 10
14 -8 -10 -0.2921 21.3596 4
8 6 -10 10.7769 7.35518 11
-8 14 10 11.8926 8.13178 11
8 6 -10 16.3258 8.95463 12
6 8 10 -8.6905 14.893 6
-8 -6 -10 12.845 6.61268 8
8 -14 10 -0.6301 8.6282 5
-14 8 -10 19.9921 8.7215 9
-8 -6 -10 1.64658 10.9619 5
-14 8 -10 11.0965 8.35295 8
-6 14 -10 1.47237 9.15049 12
6 -14 -10 1.94917 7.22409 8
6 -14 -10 0.20674 4.19956 7
14 -6 10 9.55005 11.9836 4
-6 14 -10 -1.0699 7.29222 10
-14 6 10 7.0564 7.50568 10
14 -8 -10 4.22399 9.43077 7
-14 6 -10 14.1344 8.56669 9
-6 -8 -10 3.33218 6.56653 8
8 -14 -10 9.72204 6.82738 7
14 -8 10 -4.2815 13.2344 4
14 -8 10 -5.3817 6.75797 7
-6 14 10 2.68273 8.04466 11
8 6 10 5.18997 15.2295 6
14 -8 10 -0.6261 10.9697 5
-8 14 -10 9.37057 7.2997 9
-6 -8 -10 6.49438 11.0723 5
6 8 -10 -0.7464 9.10256 12
-14 6 -10 4.49726 7.73035 8
6 8 -10 0.45101 7.46534 11
-14 9 -10 46.1815 9.14682 9
5 -14 -10 32.9346 8.58595 8
-14 5 10 31.3568 9.63951 10
-9 -5 -10 35.6753 7.33819 8
14 -9 -10 18.5825 16.3018 4
14 -5 10 53.4731 14.6274 4
9 5 -10 47.2804 9.50016 12
-5 14 -10 50.8847 11.4677 12
-9 14 10 73.8234 10.4463 11
5 9 10 52.0864 17.3281 6
9 -14 10 45.9733 11.5582 5
-5 14 -10 38.0975 9.4815 10
9 5 -10 34.0809 8.09613 11
14 -9 -10 46.9962 10.3104 7
-9 -5 -10 18.807 10.2698 5
9 5 10 17.7649 14.9857 6
9 -14 -10 -2.3777 12.224 4
14 -9 10 22.3239 7.49404 7
5 9 -10 16.5704 8.39888 11
-9 14 -10 18.1781 7.63176 9
14 -9 10 12.9765 12.9823 4
14 -9 10 28.2452 12.0996 5
-5 -9 -10 32.5998 13.1938 5
5 9 -10 29.6833 10.4991 12
9 -14 -10 27.6646 7.84662 7
-14 5 -10 17.329 8.68895 9
-5 -9 -10 26.8364 7.28912 8
-14 5 -10 32.2455 8.26186 8
-5 14 10 24.2134 8.90278 11
14 -10 -10 5.80398 8.9324 7
4 10 10 -1.0616 14.4329 6
-14 10 -10 12.4321 7.56283 9
10 4 -10 14.5207 7.88057 11
-4 14 -10 13.0368 8.86667 10
4 -14 -10 0.51818 7.88213 8
-4 14 -10 12.8551 11.259 12
10 -14 10 9.46535 10.5006 5
14 -4 10 14.4711 13.0927 4
14 -10 -10 9.51331 16.3017 4
-10 14 10 14.2288 7.9238 11
-10 -4 -10 9.05128 6.61791 8
4 -14 -10 0.73869 11.4095 5
-14 4 10 17.6487 9.48544 10
10 4 -10 1.11752 5.26224 12
-4 -10 -10 15.0731 7.13693 8
-10 14 -10 12.8764 7.62539 9
-14 4 -10 11.8828 8.60063 9
4 10 -10 1.95646 8.18429 11
-4 -10 -10 4.91467 11.383 5
-14 4 -10 19.7529 7.64315 8
10 -14 -10 4.09374 13.3654 4
10 4 10 3.82723 14.1687 6
10 -14 -10 0.15075 7.22814 7
14 -10 10 10.4987 11.6499 5
-14 10 10 17.6507 7.712 11
-4 14 10 9.86351 8.7885 11
14 -10 10 -1.3051 12.0109 4
14 -10 10 8.83921 6.76431 7
4 10 -10 5.82393 9.99584 12
-11 -3 -10 35.8105 7.38429 8
11 -14 10 39.0465 12.1413 5
11 3 -10 48.8369 9.05898 11
3 -14 -10 11.1509 11.9721 5
-11 14 10 40.0156 8.48087 11
14 -3 10 3.63064 15.0236 4
-3 14 -10 29.521 9.01923 10
-14 11 -10 33.5371 8.26323 9
-14 3 10 38.8167 10.2004 10
14 -11 -10 23.6474 16.4278 4
3 -14 -10 46.7289 8.55976 8
-3 14 -10 24.0144 11.2048 12
14 -11 -10 38.2599 9.26441 7
-14 3 -10 37.1814 7.90435 8
11 -14 -10 35.1676 8.49813 7
-3 -11 -10 49.0904 13.0797 5
3 11 -10 23.8441 9.02582 11
-14 11 10 38.1308 8.34005 11
14 -11 10 33.2001 12.0342 5
14 -11 10 4.59334 10.4888 4
-11 14 -10 40.036 8.50433 9
11 3 10 18.0633 14.4749 6
3 11 -10 40.6787 10.37 12
-3 -11 -10 64.848 8.63813 8
11 -14 -10 23.2506 14.9321 4
-14 3 -10 46.7463 9.32232 9
14 -11 10 26.9272 7.4759 7
-3 14 10 53.7809 10.2735 11
-12 14 10 19.7668 7.57927 11
-12 -2 -10 29.2143 6.92715 8
14 -12 -10 19.8246 8.4215 7
-2 14 -10 19.6998 8.6226 10
2 -14 -10 13.2396 6.98317 8
-2 14 -10 16.4321 10.7232 12
2 -14 -10 16.7389 11.403 5
-14 2 10 28.5991 9.42016 10
-14 12 -10 42.887 8.36655 9
-12 -2 -10 0.93342 6.23751 9
14 -12 -10 12.7369 16.4816 4
12 -14 10 20.4588 10.715 5
12 -14 -10 9.86206 13.0984 4
2 12 -10 7.92278 7.63178 11
-2 -12 -10 24.3338 7.63986 8
-12 -2 10 14.9471 8.71906 10
-2 14 10 27.6645 9.45903 11
14 -12 10 8.69379 10.525 5
12 2 10 2.94121 12.8457 6
12 -14 -10 16.4224 7.95712 7
2 12 -10 22.2905 10.3521 12
-2 -12 -10 18.7996 10.9747 5
14 -12 10 12.7191 7.11238 7
-14 12 10 19.1364 7.78381 11
-12 14 -10 27.6546 8.17242 9
-14 2 -10 18.3897 8.36649 9
-14 2 -10 15.4178 7.05888 8
14 -1 10 10.6265 7.01419 7
-13 -1 -10 1.12591 6.22659 8
-1 14 -10 4.67883 7.58231 10
-13 -1 -10 1.97841 7.54694 9
1 -14 -10 -1.1519 9.83789 5
1 -14 -10 2.7314 6.40895 8
14 -13 -10 0.8693 7.4614 7
13 -14 10 -2.8369 9.05296 5
-14 13 -10 -1.6823 7.3876 9
1 13 10 0.26069 6.93325 11
-1 14 -10 -5.6702 11.039 12
-14 1 10 -6.8966 8.55958 10
14 -13 -10 -4.0363 14.2444 4
-13 14 10 7.16861 7.33617 11
14 -13 10 -0.8429 6.72052 7
-14 13 10 3.10425 7.14362 11
-13 -1 10 -3.737 8.34128 10
-1 -13 -10 1.95487 6.64597 8
-1 -13 -10 0.62974 9.43886 5
13 -14 -10 -0.4306 13.0305 4
-14 1 -10 -0.3797 7.56127 9
13 -14 -10 -4.9451 7.54065 7
-14 1 -10 4.05056 6.47372 8
-1 14 10 1.27986 8.30673 11
14 -13 10 0.69245 9.06491 5
1 13 -10 -5.703 11.1038 12
-13 14 -10 3.73801 7.48432 9
0 14 10 15.1184 7.72891 11
14 -14 -10 23.6633 7.89244 7
-14 0 10 16.0686 8.56458 10
0 14 -10 10.8264 7.41034 10
-14 0 -10 7.8546 7.18049 9
-14 0 -10 17.1841 5.77323 8
-14 14 -10 24.7903 8.14295 9
0 -14 -10 22.3945 6.97662 8
14 0 10 9.69449 5.3398 7
-14 14 10 14.9778 7.10132 11
14 -14 10 10.0849 5.56275 7
0 14 -10 16.6404 9.69013 12
15 -7 10 29.5555 13.2629 4
7 -15 -10 25.4952 7.38677 8
8 7 -10 34.4701 8.24332 11
7 8 10 16.4763 13.9568 6
-8 -7 -10 52.0689 7.64053 8
8 7 -10 36.808 9.32073 12
-8 15 10 67.6179 9.60256 11
15 -7 10 35.4645 7.46172 7
15 -8 -10 36.8244 9.66143 7
-7 15 -10 26.0196 9.40662 10
-15 7 10 18.0675 8.44187 10
-15 8 -10 33.2368 8.66252 8
-15 8 -10 46.7904 9.15878 9
-7 -8 -10 28.029 6.99227 8
7 8 -10 12.9362 7.59068 11
15 -8 10 16.406 6.98661 7
15 -8 10 2.12652 12.393 4
7 8 -10 11.9994 8.5695 12
-15 7 -10 25.4548 8.3539 9
8 -15 -10 16.7274 6.44721 7
-8 15 -10 -1.0009 6.92652 10
8 7 10 26.7479 14.6826 6
-7 -8 -10 1.14475 10.0288 5
-8 15 -10 25.406 7.86936 9
-15 8 10 2.16864 5.49813 10
-15 7 -10 17.3485 7.77032 8
15 -7 -10 11.8573 7.38634 7
-7 15 10 8.9159 7.78804 11
9 6 -10 4.72369 8.05449 12
-15 9 -10 4.4068 7.44717 9
-6 15 -10 -3.4877 8.63091 10
-9 15 10 8.20943 7.34943 11
-9 -6 -10 7.32404 5.93822 8
15 -6 10 2.59945 6.54564 7
-6 15 -10 2.26093 7.58395 12
-15 6 10 7.10087 8.72006 10
15 -9 -10 3.6237 8.687 7
9 6 -10 -3.1368 6.75455 11
6 -15 -10 -3.3639 6.84437 8
6 9 10 4.32023 15.2693 6
15 -6 10 7.48039 12.0495 4
-15 6 -10 -0.3647 7.25833 8
15 -9 10 -0.4717 6.44511 7
9 -15 -10 8.56128 6.65592 7
-6 -9 -10 1.05222 9.29273 5
9 6 10 0.94089 13.5238 6
15 -9 10 4.44515 11.6277 4
-9 15 -10 9.89247 7.27038 9
-6 15 10 2.91461 7.66307 11
-15 6 -10 6.53182 7.76874 9
6 9 -10 7.50957 9.15668 12
6 9 -10 7.05069 7.29463 11
-6 -9 -10 3.68017 6.3309 8
-15 5 10 45.1465 10.6666 10
-5 15 -10 63.4613 10.9665 10
-5 15 -10 75.4529 12.9066 12
10 5 -10 94.7101 10.5122 11
15 -5 10 89.1264 10.3039 7
-10 -5 -10 72.4867 9.0915 8
5 -15 -10 70.9725 10.0767 8
-10 15 10 88.329 10.3565 11
15 -10 -10 66.9086 10.7014 7
-5 15 10 46.6001 9.59529 11
-10 15 -10 57.8251 9.2655 9
5 10 -10 36.3439 9.20495 11
5 10 -10 69.0476 11.626 12
10 5 10 22.8714 14.5073 6
-5 -10 -10 66.025 8.49017 8
-15 5 -10 53.854 8.56974 8
-15 10 10 53.7718 9.37489 11
-15 5 -10 42.9349 9.14828 9
10 -15 -10 53.4147 8.54875 7
15 -10 10 55.259 8.59019 7
-15 4 10 54.3706 10.1794 10
4 -15 -10 49.3759 8.80231 8
15 -4 10 62.7412 9.1242 7
-4 15 -10 48.0915 9.83526 10
-11 -4 -10 50.2741 8.11035 8
-15 11 -10 53.9276 8.9496 9
15 -11 -10 54.6379 9.60131 7
-4 15 -10 53.2229 12.0162 12
-11 15 10 60.5002 8.83668 11
11 -15 -10 31.4893 7.98517 7
-4 15 10 44.7289 9.66643 11
-11 15 -10 38.1418 8.18214 9
-15 4 -10 22.5416 8.21147 9
4 11 -10 18.1987 8.62997 11
-15 11 10 43.2798 8.7435 11
11 4 10 2.35951 12.5217 6
15 -11 10 36.7454 7.67635 7
-4 -11 -10 37.4361 7.40497 8
4 11 -10 39.2044 10.9136 12
-15 4 -10 35.7935 7.43782 8
-12 -3 -10 0.74558 7.5056 9
12 -15 10 0.61617 10.9063 5
-3 15 -10 21.4103 8.44292 10
15 -3 10 17.5654 7.09292 7
15 -12 -10 21.2419 7.78659 7
-12 -3 -10 11.8235 6.21215 8
-15 12 -10 25.3412 7.58742 9
3 -15 -10 26.6119 7.4911 8
-15 3 10 19.2393 8.97016 10
-3 15 -10 13.0828 11.3403 12
-12 15 10 24.5652 7.43387 11
12 -15 -10 5.12202 7.08191 7
-12 -3 10 3.2389 8.21793 10
-12 15 -10 16.3645 7.30138 9
-15 3 -10 -1.6348 7.13469 9
-3 -12 -10 9.9485 6.4995 8
-15 3 -10 11.9251 6.38405 8
-3 15 10 11.4155 9.03356 11
3 12 -10 8.01846 8.36912 11
-15 12 10 6.0846 7.47567 11
-3 -12 -10 -0.6617 13.2764 5
3 12 -10 10.9871 10.4954 12
15 -12 10 9.6384 6.5944 7
-15 2 10 33.9673 9.04528 10
-2 15 -10 48.7726 9.09728 10
15 -13 -10 24.6587 7.53443 7
-2 15 -10 74.6234 13.2738 12
-13 -2 -10 23.5974 7.42664 9
15 -2 10 42.222 8.00431 7
-15 13 -10 64.949 9.11212 9
-13 -2 -10 36.8186 6.759 8
2 -15 -10 36.9906 7.25372 8
-13 15 -10 29.4032 7.74082 9
-15 13 10 37.4973 8.27333 11
2 13 -10 41.5578 11.7216 12
-2 -13 -10 35.238 7.43114 8
13 -15 -10 30.5196 8.06273 7
-15 2 -10 29.5728 7.87571 9
-13 -2 10 28.6965 8.93411 10
-2 15 10 21.5857 9.07092 11
-15 2 -10 26.5459 5.80094 8
2 13 -10 21.7487 7.8613 11
15 -13 10 30.17 7.2926 7
-14 -1 -10 5.55369 4.35094 8
-14 -1 -10 4.7208 6.83688 9
-1 15 -10 10.356 7.25786 10
15 -14 -10 8.91355 7.1407 7
1 14 10 -1.3118 4.99448 11
1 -15 -10 5.92202 5.75122 8
15 -1 10 9.11398 5.35074 7
-14 15 10 7.74495 6.92928 11
-15 14 -10 8.14157 7.63166 9
-15 1 10 1.60153 8.18504 10
-1 15 -10 7.77748 9.92121 12
-1 -14 -10 3.23795 6.07856 8
-14 -1 10 2.62734 8.30059 10
1 14 -10 10.5272 10.1188 12
-15 1 -10 2.19592 6.5369 9
14 -15 -10 9.16292 7.16174 7
-1 15 10 2.0011 7.80518 11
-15 14 10 1.93709 6.71687 11
-15 1 -10 6.38211 4.81225 8
-14 15 -10 2.8044 7.58678 9
15 -14 10 2.23727 6.19197 7
-15 0 10 0.20141 7.8652 10
-15 0 -10 2.01929 6.14657 9
-15 15 10 8.10573 6.92196 11
0 15 10 1.83674 6.55193 11
0 -15 -10 5.85249 5.98737 8
15 -15 -10 6.45921 6.4955 7
0 15 -10 7.44722 9.42118 12
15 -15 10 1.35992 4.16279 7
-15 15 -10 3.3762 7.54402 9
8 -16 -10 0.07614 4.89719 8
-16 8 10 -0.4407 7.50476 10
-8 16 10 3.03074 7.05677 11
8 8 -10 -0.1705 6.69549 11
16 -8 10 4.83291 14.5575 4
-8 -8 -10 -0.7228 5.56726 8
16 -8 -10 1.40164 7.42776 7
-8 16 -10 0.04159 8.93438 10
16 -8 10 -3.3473 5.99349 7
-16 8 -10 2.65024 7.12226 9
8 -16 -10 0.98354 3.94215 7
8 8 -10 10.2583 8.08903 12
9 7 -10 59.4656 9.59294 12
-16 7 10 45.9599 9.73983 10
16 -9 -10 87.9152 10.6026 7
9 7 -10 55.9155 8.65322 11
-16 9 -10 71.6001 9.46858 9
7 -16 -10 62.9319 8.65509 8
-7 16 -10 56.6924 10.5843 10
-9 -7 -10 48.3919 7.52823 8
-9 16 10 70.215 9.0101 11
16 -7 10 46.5354 7.66637 7
7 9 -10 58.0395 8.99694 11
16 -9 10 3.37108 15.5326 4
-16 9 10 57.4367 8.7972 11
16 -9 10 36.0141 7.45018 7
-16 7 -10 68.695 9.71466 9
7 9 -10 42.1297 9.00157 12
9 -16 -10 41.5096 6.96233 7
-9 16 -10 36.4881 8.53478 10
-16 7 -10 27.8052 7.55021 8
7 -16 10 30.6392 6.42042 8
-7 -9 -10 61.0794 7.5597 8
10 6 -10 1.63206 5.17306 12
-6 16 -10 7.76002 8.76049 10
-10 -6 -10 11.6924 6.26243 8
10 6 -10 7.24666 7.0515 11
-6 16 -10 16.2926 8.95089 12
-16 6 10 -2.2221 8.07207 10
16 -6 10 1.50586 6.26109 7
-10 16 10 11.6759 6.23092 11
6 -16 -10 3.68319 6.6191 8
-16 10 -10 10.8107 7.07246 9
16 -10 -10 6.17864 7.54133 7
-10 16 -10 15.9221 7.25107 9
-6 -10 -10 8.9704 5.9395 8
6 10 -10 4.53683 7.5063 11
10 -16 -10 8.62976 6.40844 7
-16 10 10 12.6872 7.41993 11
16 -10 10 5.2497 6.40958 7
6 10 -10 14.0929 8.88975 12
-6 16 10 22.6983 8.28475 11
-16 6 -10 12.6529 7.12377 9
6 -16 10 -0.5407 3.74922 8
-16 6 -10 -0.5193 6.64997 8
11 5 -10 20.4381 7.34845 11
-11 -5 -10 11.5028 6.43316 8
5 -16 -10 4.69398 6.76865 8
16 -5 10 10.8787 6.55611 7
-5 16 -10 4.1748 8.35071 10
-5 16 -10 1.66433 9.6235 12
-16 11 -10 15.1014 7.068 9
16 -11 -10 10.9671 7.51917 7
-16 5 10 13.4433 8.55433 10
-11 16 10 18.6635 6.66924 11
-16 5 -10 21.6433 7.60846 9
-11 16 -10 28.0004 7.60936 9
16 -11 10 22.5767 6.85464 7
11 -16 -10 24.8969 7.24047 7
-16 5 -10 12.1634 6.12416 8
-16 11 10 15.2 7.50816 11
-5 -11 -10 17.2894 6.37744 8
5 11 -10 25.0803 9.1573 12
-5 16 10 13.4936 8.2618 11
5 11 -10 1.31657 7.6131 11
12 4 -10 65.4781 8.94481 11
16 -4 10 37.5053 7.37749 7
16 -12 -10 27.8333 7.83526 7
-12 -4 -10 27.9683 6.4047 8
-4 16 -10 36.8931 9.01898 10
-4 16 -10 45.3344 11.7229 12
-16 12 -10 36.0998 7.6331 9
-16 4 10 38.3243 9.33704 10
4 -16 -10 36.8422 7.61243 8
-12 16 10 26.7949 7.05177 11
12 -16 -10 43.9348 8.01884 7
-4 -12 -10 45.1642 7.28363 8
-12 -4 10 46.8467 9.47183 10
-4 16 10 45.7128 9.37877 11
-16 12 10 36.9268 8.17262 11
4 12 -10 31.418 8.90183 11
4 12 -10 74.2179 11.9069 12
-16 4 -10 26.4337 7.88766 9
-12 16 -10 54.6325 8.41788 9
16 -12 10 44.5574 7.56215 7
-3 16 -10 3.27514 7.48214 10
-3 -13 10 1.71417 6.13092 9
-13 16 10 4.78901 6.41036 11
3 -16 -10 8.03832 6.04594 8
-16 3 10 -8.419 7.78169 10
-13 -3 -10 1.64952 4.09788 8
-16 13 -10 1.83096 6.69314 9
-3 16 -10 -8.9074 10.1717 12
16 -3 10 -1.0113 6.19162 7
16 -13 -10 5.15191 6.25129 7
-13 -3 -10 1.32898 4.95144 9
-3 -13 -10 4.07598 5.9728 8
16 -13 10 1.76947 6.30272 7
3 13 -10 -4.5089 7.64902 11
-3 16 10 1.4529 7.9515 11
13 -16 -10 4.1279 6.56287 7
-16 13 10 0.53856 6.92516 11
-13 16 -10 -6.4273 7.38098 9
-16 3 -10 2.24499 6.30438 9
3 13 -10 5.84927 10.0823 12
-13 -3 10 -0.4002 7.96445 10
-14 16 10 17.5406 6.57134 11
-2 -14 10 9.94759 6.6282 9
16 -14 -10 13.7929 6.82037 7
-14 -2 -10 14.8303 6.4652 9
2 -16 -10 12.1798 5.99718 8
-2 16 -10 9.26136 7.06145 10
-16 14 -10 24.4854 8.0802 9
16 -2 10 13.221 5.95757 7
-16 2 10 10.183 7.98445 10
-2 16 -10 25.1681 10.6953 12
2 14 -10 -2.2811 6.00134 11
-2 16 10 4.43084 7.70937 11
16 -14 10 3.24842 5.93013 7
-16 14 10 8.57072 7.1931 11
14 -16 -10 12.9191 6.40903 7
-14 16 -10 10.8758 7.40372 9
2 14 -10 9.18115 10.1532 12
-16 2 -10 5.97543 6.17622 9
-2 -14 -10 5.9314 5.44677 8
-14 -2 10 7.44987 8.11073 10
-16 15 -10 8.75578 7.39776 9
-1 -15 10 4.44012 6.28128 9
-15 -1 -10 0.70947 5.63771 9
-15 16 10 11.1076 6.60195 11
-16 1 10 -2.6014 6.90829 10
16 -15 -10 10.406 6.19357 7
-1 16 -10 4.7651 9.64508 12
1 -16 -10 4.58714 5.62063 8
-1 16 10 8.94045 6.90429 11
-15 -1 10 -5.1594 7.2285 10
-15 16 -10 10.9204 7.11511 9
-16 1 -10 0.86452 5.70119 9
16 -15 10 4.70095 5.2754 7
15 -16 -10 3.86404 6.08651 7
1 15 -10 9.1661 10.1927 12
-16 15 10 8.91784 6.74274 11
-1 -15 -10 7.39579 5.32322 8
16 -16 -10 1.24769 5.63989 7
-16 16 10 -0.9922 6.07228 11
0 16 10 -1.234 4.8154 11
-16 16 -10 -2.0096 6.94527 9
0 -16 -10 0.34493 5.15599 8
0 -16 10 -2.9079 5.6728 9
-16 0 -10 1.6875 5.25358 9
0 16 -10 -0.47 9.06918 12
-16 0 10 2.23962 6.88406 10
17 -9 -10 4.38036 6.9615 7
9 8 -10 -0.6814 6.37478 11
-17 8 10 0.54657 7.69131 10
9 -17 10 5.51503 5.16266 8
-8 17 -10 5.92674 8.68841 10
-17 9 -10 10.5132 6.66185 9
17 -8 10 2.75837 5.69489 7
-9 -8 -10 10.2239 5.47369 8
-9 17 10 5.42628 6.61367 11
8 -17 -10 5.92395 5.46447 8
9 8 -10 10.8377 7.37122 12
-8 17 10 5.64057 7.10826 11
-17 9 10 5.34208 6.67839 10
8 9 -10 -1.543 6.58728 11
-17 8 -10 6.27904 6.50993 9
-8 -9 -10 6.63466 5.58041 8
8 9 -10 5.67155 7.25766 12
-17 9 10 8.27825 6.82486 11
17 -9 10 10.2793 6.12916 7
-9 17 -10 0.95495 8.79266 10
17 -8 -10 -0.4001 5.65294 7
8 -17 10 -4.651 5.18021 8
-10 17 10 3.61341 5.67358 11
17 -7 10 9.86613 5.93814 7
-17 7 10 7.78145 7.97397 10
7 -17 -10 6.53704 6.14987 8
-17 10 -10 6.95513 6.54604 9
-7 17 -10 5.51304 8.68053 10
-10 -7 -10 12.73 6.09238 8
17 -10 -10 12.6893 7.31076 7
10 7 -10 1.21899 6.62258 11
7 10 -10 11.4137 8.17425 12
7 -17 10 -0.3465 4.74855 8
-7 -10 -10 7.50459 5.531 8
-7 17 10 8.4304 7.34754 11
-17 7 -10 5.01707 6.50575 9
-10 17 -10 1.41951 7.00576 10
7 10 -10 -1.3641 6.5887 11
-17 10 10 13.0978 6.85418 11
10 -17 -10 4.15564 4.47185 7
17 -10 10 3.80598 5.88326 7
-17 10 10 1.24022 4.76676 10
17 -11 -10 60.6845 8.7633 7
-17 11 -10 66.9762 8.90721 9
-11 17 10 42.271 7.40514 11
-11 -6 -10 44.1176 6.96309 8
17 -6 10 41.8194 7.32511 7
11 6 -10 73.1416 9.0451 11
-17 6 10 40.9985 8.86985 10
6 -17 -10 37.3046 7.31152 8
-6 17 -10 46.2942 9.5477 10
-6 17 -10 35.1759 9.35421 12
6 11 -10 19.9914 7.50147 11
-6 17 10 42.1017 8.73422 11
-11 17 -10 25.764 7.21622 9
-17 6 -10 17.1103 6.72839 9
17 -11 10 31.1206 6.69228 7
-6 -11 -10 22.9386 5.99142 8
11 -17 -10 16.4212 6.11983 7
-17 11 10 28.2288 7.52515 11
6 11 -10 45.2428 9.53041 12
12 5 -10 53.3488 8.50712 11
-5 17 -10 29.536 8.44253 10
-17 5 10 31.6593 8.4528 10
17 -5 10 39.9719 7.20285 7
-17 12 -10 35.5376 7.82125 9
-12 17 10 31.2777 6.74168 11
17 -12 -10 34.754 7.50461 7
-5 17 -10 32.6217 9.87044 12
5 -17 -10 28.9495 6.57875 8
12 -17 -10 37.5398 6.97266 7
5 12 -10 22.0386 8.21221 11
17 -12 10 44.3655 7.39421 7
-5 17 10 59.7888 9.38141 11
-12 -5 10 37.852 8.50951 10
5 12 -10 33.3553 9.31548 12
-17 5 -10 28.7673 7.08509 9
-12 17 -10 53.7789 8.61018 9
-5 -12 -10 37.6776 6.43108 8
-17 12 10 33.2135 7.64475 11
-4 17 -10 51.1794 11.2866 12
4 -17 -10 34.1416 6.53015 8
-4 -13 10 29.8071 6.50064 9
17 -13 -10 38.6137 7.01715 7
-17 4 10 44.9705 8.58869 10
-13 17 10 41.1946 6.94353 11
-4 17 -10 34.6604 8.34564 10
17 -4 10 48.97 7.44884 7
-13 17 -10 57.5944 8.59101 9
-4 17 10 41.078 8.53358 11
-4 -13 -10 35.6419 6.13518 8
-17 4 -10 38.9484 7.14946 9
17 -13 10 30.3076 6.62202 7
4 13 -10 70.298 10.757 12
-17 13 10 30.0762 7.58413 11
-13 -4 10 51.3329 8.96845 10
4 13 -10 30.3562 8.12178 11
13 -17 -10 31.8649 6.92795 7
3 -17 -10 11.5222 5.55397 8
-3 -14 10 5.30887 6.16596 9
-17 14 -10 12.7415 7.11983 9
-14 -3 -10 1.0918 4.47579 9
-14 17 10 11.2781 5.97398 11
-3 17 -10 17.4118 9.84984 12
-17 3 10 4.04429 7.22502 10
-3 17 -10 12.9214 6.8582 10
17 -14 -10 14.6512 5.83139 7
17 -3 10 3.9754 5.5241 7
3 14 -10 17.0439 9.42125 12
-3 17 10 16.415 7.59666 11
-14 -3 10 17.8674 7.83536 10
14 -17 -10 18.289 6.21591 7
-3 -14 -10 9.50908 5.12426 8
-17 14 10 9.52669 6.70936 11
3 14 -10 17.4986 7.22778 11
-14 17 -10 22.8933 6.89563 9
17 -14 10 13.1085 5.92182 7
-17 3 -10 15.4126 6.06807 9
-17 2 10 2.88622 6.90725 10
17 -15 -10 8.21207 5.62511 7
2 -17 -10 4.30505 5.20136 8
-2 -15 10 8.46836 6.06186 9
-15 -2 -10 5.56099 5.09751 9
-17 15 -10 9.92679 7.09383 9
-15 17 10 5.75293 5.83744 11
-2 17 -10 17.8834 9.7763 12
-15 -2 10 9.254 7.16121 10
-17 2 -10 7.41732 5.45236 9
-17 15 10 6.15671 6.41725 11
-2 17 10 8.0181 6.89423 11
15 -17 -10 12.5106 5.82688 7
2 15 -10 14.6335 9.06025 12
-2 -15 -10 7.45083 4.78042 8
17 -15 10 5.36863 5.18785 7
-15 17 -10 6.45296 6.62801 9
-17 16 -10 15.6523 6.80046 9
-16 17 10 8.63253 5.62536 11
-1 -16 10 6.87309 5.70879 9
1 -17 -10 3.32277 4.97766 8
17 -16 -10 5.69213 5.3743 7
-17 1 10 0.38617 6.5444 10
-16 -1 -10 7.74619 5.11422 9
-1 17 -10 14.9876 9.29992 12
-16 17 -10 10.6651 6.54498 9
-17 1 -10 5.44747 4.96267 9
-1 17 10 12.1673 5.90604 11
-17 16 10 10.858 5.64055 11
16 -17 -10 2.39334 5.24274 7
-16 -1 10 8.62978 6.65119 10
-1 -16 -10 5.99013 4.43759 8
1 16 -10 13.6287 9.18517 12
-17 0 10 -3.3287 6.3063 10
0 -17 10 5.57628 5.30656 9
-17 17 10 -0.2003 3.77339 11
0 -17 -10 -0.8095 4.42463 8
0 17 -10 3.44364 8.04912 12
-17 17 -10 3.62806 6.22733 9
17 -17 -10 1.02701 5.3085 7
-17 0 -10 1.76764 4.66224 9
-9 18 10 6.57571 6.40759 11
9 9 -10 1.47928 4.96496 12
18 -9 -10 -0.8807 5.11184 7
-9 -9 -10 2.23021 5.2374 8
18 -9 10 5.05097 5.29183 7
-18 9 10 4.18201 5.9163 11
-9 18 -10 -1.1995 8.22452 10
-18 9 -10 1.03724 5.75538 9
9 9 -10 -0.7902 5.83537 11
-18 9 10 -0.5624 6.66089 10
9 -18 10 -2.8656 4.84273 8
-18 8 10 11.2082 6.05536 11
8 -18 -10 14.4237 5.22781 8
-10 18 10 14.3556 6.03842 11
-18 8 10 9.52694 7.47437 10
-10 -8 -10 20.5942 5.36304 8
10 8 -10 12.7203 6.70177 11
-18 10 -10 8.5463 5.93745 9
18 -8 10 6.26709 5.33059 7
10 -18 10 9.41601 5.27396 8
18 -10 -10 13.3229 6.22938 7
-8 18 -10 14.3075 8.40014 10
8 -18 10 20.1457 5.30969 8
-18 10 10 24.4025 6.58549 11
-18 8 -10 23.7212 6.45362 9
-10 18 -10 15.2611 8.31079 10
8 10 -10 13.2153 7.07786 12
-8 18 10 17.4978 7.02966 11
8 10 -10 19.8141 6.80715 11
-8 -10 -10 11.046 4.90348 8
-18 10 10 11.1542 5.4365 10
18 -10 10 24.3629 6.28253 7
18 -11 -10 13.4683 6.18697 7
-18 7 10 2.26425 7.13853 10
11 -18 10 2.08017 4.705 8
-18 11 -10 11.3041 6.39159 9
-7 18 -10 1.65102 7.72289 10
-11 -7 -10 2.5839 3.63948 8
11 7 -10 19.9941 6.73299 11
18 -7 10 15.2708 5.63212 7
7 -18 -10 13.141 5.34024 8
-11 18 10 8.76197 5.93032 11
-18 7 -10 11.2516 5.86466 9
7 11 -10 1.47936 6.32306 11
-18 11 10 6.40051 5.94502 11
-7 18 10 4.28166 6.85882 11
7 11 -10 7.43717 7.26437 12
18 -11 10 1.46332 5.42102 7
-7 -11 -10 5.38716 4.81745 8
12 6 -10 7.42071 6.58677 11
-18 12 -10 2.67948 6.15667 9
18 -12 -10 4.27647 5.8879 7
12 -18 10 3.0642 4.72188 8
-6 18 -10 7.08788 7.45467 12
6 -18 -10 5.10594 5.39551 8
-6 18 -10 4.39491 7.70037 10
18 -6 10 3.43704 5.52944 7
-18 6 10 7.74536 7.06673 10
-12 18 10 6.78059 5.65839 11
6 12 -10 4.64154 6.81648 11
-12 -6 10 -2.9096 6.56917 10
-18 6 -10 8.79618 5.57021 9
6 12 -10 9.8537 7.64253 12
18 -12 10 9.5702 5.6801 7
-6 18 10 16.4178 7.10796 11
12 -18 -10 5.9807 4.37734 7
-6 -12 -10 6.16792 4.77674 8
-18 12 10 10.982 5.82157 11
18 -5 10 10.037 5.65775 7
-13 18 10 9.1517 5.73887 11
-5 18 -10 7.08956 7.25808 10
-18 5 10 5.64299 6.77956 10
13 -18 10 6.18937 4.87768 8
18 -13 -10 20.1652 5.85035 7
-18 13 -10 16.3401 6.64961 9
5 -18 -10 8.19662 5.24846 8
-5 18 -10 21.1307 8.97046 12
-13 -5 10 3.08282 6.68627 10
-5 -13 -10 6.49092 4.80712 8
18 -13 10 10.5517 5.45855 7
-18 5 -10 7.1379 5.46557 9
13 -18 -10 5.98593 5.42316 7
5 13 -10 11.9068 7.64673 12
-5 18 10 7.51329 7.12292 11
-13 18 -10 14.4266 6.63155 9
-18 13 10 6.12236 5.2986 11
5 13 -10 10.1469 6.98132 11
-18 4 10 0.01104 6.43925 10
14 -18 10 6.35204 4.97077 8
-4 -14 10 4.12313 4.43224 9
-14 18 10 -0.2503 5.53895 11
18 -4 10 4.15214 4.81081 7
-18 14 -10 1.64423 6.66994 9
-4 18 -10 11.0516 8.88212 12
4 -18 -10 7.72951 4.9165 8
18 -14 -10 12.6024 5.32799 7
-4 18 -10 10.9575 6.69158 10
4 14 -10 12.5564 7.13863 12
-14 18 -10 13.0674 6.61706 9
4 14 -10 2.95382 6.76234 11
14 -18 -10 4.14723 4.97511 7
-4 -14 -10 -1.9339 4.18466 8
-18 14 10 5.10018 5.2292 11
-14 -4 10 0.69202 6.73513 10
-18 4 -10 0.64735 4.87956 9
18 -14 10 0.87027 4.86558 7
-4 18 10 5.55801 6.68061 11
-3 18 -10 4.47192 9.08102 12
15 -18 10 3.94622 4.67354 8
-3 18 -10 9.38249 6.44189 10
-3 -15 10 7.39318 4.75743 9
3 -18 -10 11.9877 4.94292 8
-18 3 10 8.6366 6.16546 10
-18 15 -10 6.398 6.57594 9
18 -15 -10 14.7218 4.99413 7
-15 18 10 7.76719 6.00679 11
-15 -3 10 1.24995 6.52401 10
15 -18 -10 13.4971 4.97949 7
18 -15 10 5.90624 4.79902 7
-3 -15 -10 3.47046 4.31001 8
3 15 -10 -4.9349 7.74421 11
3 15 -10 14.076 7.89427 12
-15 18 -10 16.7116 6.45092 9
-18 3 -10 1.71545 4.79984 9
-3 18 10 6.10731 6.4962 11
-2 -16 10 6.58706 5.08505 9
16 -18 10 11.5938 4.56177 8
-18 16 -10 14.2212 6.56229 9
18 -16 -10 11.4131 5.21342 7
-16 18 10 11.3954 5.64006 11
-16 -2 -10 1.90775 3.23579 9
2 -18 -10 7.45407 4.66399 8
-18 2 10 8.94944 6.28493 10
-2 18 -10 28.6535 9.31461 12
16 -18 -10 8.88278 4.88082 7
2 16 -10 18.3345 8.4567 12
-2 18 10 6.1251 5.74268 11
-16 18 -10 8.31969 6.39685 9
-16 -2 10 11.7164 6.47593 10
-2 -16 -10 12.8563 4.42894 8
-18 2 -10 5.816 4.96514 9
2 -18 10 4.43057 5.23333 9
-18 17 -10 -1.9379 6.42513 9
-1 -17 10 3.83308 4.83838 9
17 -18 10 -1.1907 4.29433 8
18 -17 -10 3.77356 4.96864 7
-17 -1 -10 0.13445 3.17097 9
1 -18 -10 2.89936 4.45895 8
-18 1 10 6.17971 6.26843 10
-1 18 -10 -0.8712 8.62374 12
-18 1 -10 -1.1812 4.54036 9
1 -18 10 -4.2579 5.24189 9
17 -18 -10 0.98072 4.53841 7
-17 18 -10 3.25124 6.21886 9
-17 -1 10 1.06585 6.74577 10
1 17 -10 5.52992 8.33178 12
-1 -17 -10 2.01626 4.25108 8
18 -18 10 -0.8067 4.71926 8
0 18 -10 9.46805 8.94146 12
0 -18 -10 1.18629 4.62567 8
10 9 -10 8.24826 5.82629 11
-10 19 10 7.22806 5.83045 11
-19 10 -10 8.02157 5.76296 9
-9 19 -10 6.33129 7.90588 10
10 -19 10 6.32624 4.56727 8
19 -9 10 8.41598 5.15629 7
-19 9 10 7.10934 6.1119 10
19 -10 10 5.67424 5.11656 7
-19 10 10 8.2476 4.79473 10
9 -19 10 2.46034 4.53625 8
9 10 -10 2.84971 5.64623 11
-9 19 10 1.00807 5.94819 11
-10 19 -10 5.94602 7.13537 10
-9 -10 -10 1.44665 3.50906 8
-19 9 -10 6.46493 5.09156 9
19 -8 10 17.9641 5.77507 7
8 -19 -10 14.5761 4.54505 8
-11 19 10 21.5541 6.05575 11
11 8 -10 31.3833 7.12022 11
-19 11 -10 17.6356 6.28502 9
-8 19 -10 14.7889 8.00104 10
11 -19 10 20.9673 4.93753 8
-19 8 10 18.2654 6.45681 10
19 -11 -10 16.88 5.79703 7
8 11 -10 12.3694 5.16621 12
-19 8 -10 8.97305 5.2737 9
19 -11 10 14.0407 5.60009 7
-8 19 10 9.08914 6.2936 11
-8 -11 -10 8.31817 3.83038 8
8 11 -10 11.1339 6.10533 11
12 -19 10 13.632 4.94301 8
-12 19 10 19.0311 5.91885 11
-19 7 10 24.8969 6.75572 10
-7 19 -10 17.3134 7.92146 10
19 -12 -10 14.7525 5.58072 7
-19 12 -10 17.9004 6.3308 9
7 -19 -10 10.6655 4.86434 8
19 -7 10 17.5653 5.66527 7
12 7 -10 28.3831 6.75109 11
-19 7 -10 16.2672 5.49505 9
7 12 -10 26.6165 6.78424 11
-12 -7 10 27.6913 7.1156 10
7 12 -10 26.8398 6.87798 12
-7 -12 -10 9.58815 4.10865 8
-7 19 10 28.4087 6.8056 11
19 -12 10 16.8187 5.30573 7
19 -6 10 3.72053 5.51239 7
-13 19 10 5.89764 5.62946 11
-19 13 -10 0.98387 5.64268 9
-6 19 -10 0.95376 6.8173 10
-19 6 10 4.72862 6.3379 10
19 -13 -10 2.04156 5.18625 7
13 -19 10 -0.0054 4.64266 8
6 -19 -10 8.98581 4.69343 8
-6 -13 -10 1.74585 3.87414 8
-13 -6 10 -3.5684 6.15937 10
6 13 -10 -0.4509 6.29168 12
-6 19 10 2.56223 6.10269 11
6 13 -10 2.60854 6.3106 11
19 -13 10 -3.4705 4.6019 7
-19 6 -10 -2.2863 4.74094 9
-19 5 10 2.5661 5.84105 10
-19 14 -10 6.23751 6.54982 9
14 -19 10 2.27102 4.66206 8
19 -5 10 1.70727 3.75794 7
5 -19 -10 4.16368 4.86209 8
-14 19 10 7.27163 5.99752 11
-5 19 -10 1.28089 6.59044 10
-5 19 -10 5.13579 7.5027 12
19 -14 -10 4.65549 5.0976 7
5 14 -10 5.2854 6.46118 11
19 -14 10 -2.3027 4.67178 7
5 14 -10 5.50413 6.62198 12
-14 -5 10 -0.3275 6.68423 10
-5 -14 -10 2.99513 3.72313 8
-19 5 -10 4.60469 4.90367 9
-5 19 10 4.98195 5.84319 11
-4 19 -10 11.778 8.9627 12
4 -19 -10 9.79595 4.88793 8
19 -15 -10 5.176 4.9076 7
-15 19 10 9.94169 5.74539 11
15 -19 10 11.7015 4.97151 8
-19 4 10 -0.2402 6.11852 10
-19 15 -10 10.4757 6.94943 9
4 15 -10 -4.6765 6.40057 11
15 -19 -10 3.27292 3.33294 7
-4 19 10 12.8049 6.07616 11
-19 4 -10 11.1719 5.14282 9
19 -15 10 8.02031 4.35355 7
-4 -15 -10 10.0743 3.99423 8
-15 -4 10 14.4877 7.0357 10
4 15 -10 12.8479 7.02412 12
16 -19 10 6.28231 4.69514 8
-3 19 -10 19.3428 9.43822 12
-19 16 -10 4.71764 6.40082 9
19 -16 -10 16.4884 5.64395 7
3 -19 -10 5.82075 4.6746 8
-19 3 10 0.26401 6.24498 10
3 -19 10 1.02742 5.23167 9
-3 -16 -10 4.88479 3.99044 8
-19 3 -10 6.28114 4.92857 9
-3 19 10 3.68237 5.74437 11
3 16 -10 9.58576 7.73624 12
-16 -3 10 2.98316 6.71064 10
16 -19 -10 5.63886 3.54927 7
2 -19 -10 4.60572 4.8148 8
-2 19 -10 10.4896 9.50339 12
17 -19 10 4.21896 4.98556 8
2 17 -10 7.2412 8.36767 12
-2 -17 -10 3.50608 4.17394 8
10 10 -10 18.1836 6.18365 11
-10 20 10 15.8261 5.80299 11
20 -10 10 11.1542 5.27828 7
-20 10 -10 30.5822 6.11246 9
-10 20 -10 2.58789 6.95149 10
10 -20 10 13.0661 3.5515 8
-20 9 10 9.15624 4.36597 10
11 9 -10 12.8121 6.41185 11
-11 20 10 20.6898 6.1945 11
11 -20 10 5.72839 4.23225 8
20 -9 10 10.0903 5.48046 7
-9 20 -10 11.5076 7.07632 10
-20 11 -10 13.2346 5.5117 9
-20 9 -10 4.87078 4.98029 9
9 11 -10 16.9671 6.31514 11
-9 20 10 12.3345 6.12464 11
-11 -9 10 4.30443 6.13587 10
20 -11 10 8.87938 5.34501 7
12 -20 10 7.55429 4.23133 8
-8 20 -10 4.81984 7.47188 10
8 -20 -10 -0.214 2.90411 8
20 -8 10 -1.9389 5.10709 7
20 -12 -10 1.20434 4.76537 7
-12 20 10 0.85743 5.7562 11
-20 8 10 7.10243 5.05026 10
-20 12 -10 8.22826 5.62287 9
20 -12 10 1.35453 5.00347 7
-12 -8 10 -6.8313 6.12855 10
-20 8 -10 2.43145 4.55971 9
-8 20 10 6.99466 5.96421 11
8 12 -10 3.76745 6.47287 11
7 -20 -10 7.27184 4.39413 8
-20 7 10 1.54603 5.22401 10
-7 20 -10 -0.6867 6.98186 10
20 -13 -10 13.5294 4.96494 7
-13 20 10 8.96273 5.96317 11
-20 13 -10 10.5889 6.62107 9
13 -20 10 11.729 4.56849 8
20 -7 10 6.50801 4.84322 7
7 13 -10 7.81348 6.90518 11
-13 -7 10 5.45274 6.65792 10
-7 20 10 1.41421 5.83433 11
-20 7 -10 4.93537 4.90808 9
7 13 -10 0.33781 6.53259 12
20 -13 10 2.89939 4.55979 7
-14 20 10 8.38845 6.10234 11
14 -20 10 4.95116 4.89216 8
-6 20 -10 10.0493 7.20422 10
6 -20 -10 10.3504 4.9857 8
-20 6 10 12.2344 6.02634 10
-20 14 -10 15.3248 6.72347 9
20 -14 -10 3.4389 5.21901 7
6 14 -10 0.33643 4.03906 12
-6 20 10 11.5822 6.31974 11
6 14 -10 11.0821 6.35463 11
-20 6 -10 5.85059 5.36725 9
20 -14 10 11.1008 4.69383 7
-14 -6 10 6.38346 6.97022 10
15 -20 10 4.54694 4.88067 8
5 -20 -10 6.6574 4.96533 8
5 15 -10 2.50117 5.58482 12
0 0 11 4.3405 11.9936 6
-1 1 11 10.9877 12.7667 6
1 -1 11 1.50469 12.978 6
1 0 11 4.94992 13.0247 6
-1 0 11 1.58317 12.0193 6
0 1 11 10.8771 12.428 6
0 -1 11 -1.6299 11.5976 6
1 -2 11 41.7137 13.7579 6
1 1 11 50.3964 15.2167 6
-1 -1 11 42.5952 13.7881 6
-1 2 11 39.6863 13.9105 6
1 -2 -11 13.444 8.88246 5
2 -1 11 40.1326 14.0893 6
-2 1 11 38.1829 13.7397 6
-2 0 11 5.98 12.0792 6
2 -2 11 11.2175 12.7418 6
0 2 11 -4.6699 11.9555 6
0 -2 11 4.85476 11.7566 6
-2 2 11 18.6775 13.1155 6
0 -2 -11 11.1547 10.132 5
2 0 11 10.995 13.21 6
-1 -2 11 90.3361 16.2536 6
2 -3 11 65.2405 14.4355 6
-2 3 11 73.7898 14.6845 6
1 -3 -11 61.6528 12.997 5
3 -1 11 112.198 17.6933 6
-1 3 11 110.769 18.4054 6
2 1 11 80.6476 16.4494 6
3 -2 11 76.5968 15.6405 6
1 -3 11 77.9212 14.9636 6
-3 2 11 120.719 18.2535 6
-1 -2 -11 68.6227 14.1117 5
-3 3 11 4.09999 11.1315 6
0 -3 11 5.23677 10.9479 6
3 -3 11 11.2318 11.2283 6
3 0 11 1.88477 12.5465 6
0 -3 -11 13.569 11.4393 5
0 3 11 4.89369 13.3877 6
-2 4 11 43.8419 14.2522 6
4 -2 11 52.2172 14.9382 6
2 2 11 67.2604 16.5173 6
-2 -2 -11 66.6636 14.2362 5
-3 4 11 10.1402 12.297 6
3 -4 11 6.03656 12.2742 4
1 3 11 21.3248 13.8708 6
1 -4 -11 18.5135 11.6019 5
3 1 -11 6.38054 7.46919 12
-3 -1 -11 2.49133 5.80652 7
-1 -3 11 10.1347 11.9906 6
1 -4 -11 2.02191 5.72521 7
4 -1 11 7.18294 13.2399 6
3 1 11 32.7752 14.2138 6
4 -3 11 15.1869 11.2993 6
1 -4 11 1.01949 9.52751 6
-1 4 11 29.8689 13.3557 6
4 -3 11 21.7689 12.4268 4
-1 -3 -11 30.4828 12.6174 5
4 -4 11 40.2997 14.0048 4
0 -4 -11 42.1409 13.4704 5
0 4 11 56.5443 16.4603 6
-4 4 11 33.5328 13.1021 6
4 0 11 20.3448 14.552 6
-3 5 11 12.5836 12.5333 6
5 -2 11 8.63244 12.9879 6
3 2 -11 10.8511 6.49447 12
3 -5 11 2.35836 11.9428 4
2 -5 -11 14.4897 11.379 5
5 -2 11 8.28074 12.2353 4
2 3 11 7.99284 13.3726 6
2 -5 -11 6.94311 6.45006 7
-3 -2 -11 3.30047 6.36883 7
-3 -2 -11 10.1137 12.0039 5
-5 2 -11 4.77868 5.44618 7
5 -3 11 -2.221 10.464 6
2 -5 11 6.56109 11.717 4
-2 -3 -11 6.94629 11.7921 5
3 2 11 -2.4783 14.4353 6
-2 5 11 -8.6416 12.7815 6
-2 -3 -11 2.79795 6.13934 7
2 3 -11 3.8469 6.64979 12
5 -3 11 4.1076 12.0908 4
3 -5 -11 6.30735 6.36951 7
1 -5 -11 16.8419 12.326 5
4 -5 11 6.4258 12.1795 4
-4 5 11 10.5095 12.3472 6
5 -1 11 15.2896 12.7167 4
5 -1 11 20.8528 14.0968 6
-4 -1 -11 19.5387 7.18439 7
1 4 11 9.72069 13.0193 6
1 -5 -11 13.2631 6.7872 7
4 1 -11 10.0279 7.12237 12
4 -5 -11 7.1504 6.05361 7
1 4 -11 2.95976 6.50647 12
-1 -4 -11 5.09737 5.86461 7
5 -4 11 7.16565 11.8272 4
-1 5 11 15.2385 13.8754 6
-5 1 -11 17.4599 6.77155 7
-1 -4 -11 21.291 12.5545 5
4 1 11 14.8965 14.6712 6
5 -5 11 4.07016 12.2744 4
5 0 -11 14.59 7.10196 12
0 5 11 0.929 14.0843 6
-5 0 -11 -1.3612 5.01686 8
-5 0 -11 10.9615 7.21627 7
-5 5 11 -0.3778 12.9934 6
0 -5 -11 4.85219 6.69639 7
5 0 11 4.3442 12.6079 4
5 -5 -11 3.97177 6.30529 7
0 -5 -11 10.9101 12.738 5
0 5 -11 1.25368 6.40229 12
5 0 11 9.13459 14.5768 6
-3 -3 -11 4.19209 5.17753 8
6 -3 11 -4.4877 10.0735 6
3 -6 -11 1.37186 7.19738 7
-6 3 -11 0.96447 5.24909 8
6 -3 11 1.31557 11.47 4
-3 6 11 14.6746 13.843 6
3 -6 11 -1.0191 9.59088 4
-3 -3 -11 11.6369 7.29143 7
3 3 11 7.10896 14.6666 6
3 3 -11 4.49947 7.95724 12
-3 -3 -11 3.48218 11.3653 5
3 -6 -11 -0.7531 10.1199 5
2 -6 -11 19.0361 7.57604 7
-4 -2 -11 2.43043 5.41679 8
-4 6 11 5.57335 12.8439 6
6 -2 11 6.83487 12.9617 6
-6 4 -11 2.88504 5.40202 8
2 4 11 5.95729 14.7865 6
2 -6 -11 9.8472 12.5679 5
4 2 -11 10.1487 8.27186 12
6 -2 11 5.33093 12.6328 4
-4 -2 -11 12.6265 7.25411 7
-4 -2 -11 8.06677 11.5493 5
4 -6 11 2.23772 12.0134 4
4 2 11 13.3175 15.1759 6
-2 -4 -11 1.79012 11.7995 5
-2 -4 -11 9.6573 6.65289 7
-2 6 11 11.0481 12.9531 6
-6 2 -11 1.92799 5.70933 8
6 -4 11 10.7603 12.181 4
4 -6 -11 6.72741 7.34055 7
2 4 -11 12.0207 8.69648 12
1 5 11 19.2018 15.0125 6
-5 6 11 13.2652 12.6969 6
-6 5 -11 3.22293 5.475 8
6 -1 11 20.0263 14.5172 6
5 1 -11 26.3698 8.69143 12
5 -6 11 20.5578 13.0421 4
1 -6 -11 15.5836 7.1556 7
1 -6 -11 21.9459 13.1841 5
-5 -1 -11 11.6666 6.54926 8
-5 -1 -11 14.0295 7.54328 7
6 -1 11 29.3407 14.0693 4
6 -5 -11 6.37863 6.56561 7
1 5 -11 32.6155 9.02505 12
5 1 11 30.2062 15.3943 6
5 -6 -11 30.0766 8.06639 7
-1 6 11 66.772 16.8128 6
6 -5 11 14.399 11.7882 4
-1 -5 -11 23.9801 6.87479 7
-6 1 -11 22.7144 6.87135 8
-1 -5 -11 44.7435 13.9238 5
5 1 11 58.7345 15.3162 4
0 -6 -11 22.2137 6.98496 7
6 -6 11 24.8946 13.0241 4
0 -6 -11 21.2853 13.248 5
6 0 11 28.0001 13.6293 4
0 6 -11 19.2827 7.97445 12
0 6 11 24.2353 13.8462 6
6 -6 -11 17.9388 8.09707 7
-6 6 11 40.4451 14.8393 6
6 0 11 44.7365 16.7052 6
-6 6 -11 5.49156 5.48598 8
6 0 -11 27.5423 8.00119 12
-6 0 -11 13.0376 6.65434 8
7 -3 11 -1.451 10.053 6
4 3 -11 14.6458 9.30279 12
-4 -3 -11 16.4668 6.73835 8
3 -7 -11 11.4735 12.1169 5
3 -7 -11 18.8644 7.62137 7
-4 -3 -11 20.8036 8.04553 7
-4 -3 -11 28.367 13.2343 5
-4 7 11 22.508 14.5931 6
7 -3 11 17.7895 11.5549 4
3 4 11 39.35 17.2288 6
-7 4 -11 20.7065 7.29604 8
7 -4 11 2.59688 11.9337 4
4 3 11 10.5443 15.236 6
-7 3 -11 2.18925 7.20789 8
3 -7 11 1.59855 9.21049 5
-3 -4 -11 5.09998 11.4005 5
3 4 -11 7.11181 9.40278 12
-3 7 11 9.11238 14.023 6
-3 -4 -11 6.74985 6.5936 8
4 -7 -11 7.55707 7.65407 7
-3 -4 -11 7.19355 7.34206 7
7 -5 -11 4.84207 7.02094 7
7 -5 -11 17.9229 15.7912 4
-7 5 -11 4.42237 6.92718 8
-5 -2 -11 11.5031 7.83071 7
-5 7 11 19.9971 13.5621 6
2 -7 -11 27.848 13.6166 5
7 -2 11 10.3159 13.389 6
5 -7 11 9.13917 11.5438 4
-5 7 11 2.98311 6.80046 11
2 -7 -11 12.1141 7.83963 7
5 2 -11 10.0951 8.87786 12
-5 -2 -11 5.67569 10.98 5
-5 -2 -11 7.8946 7.0564 8
7 -2 11 12.1991 12.2653 4
2 5 11 17.3967 15.6978 6
-2 -5 -11 9.08155 6.34802 8
-2 -5 -11 14.4762 12.2212 5
5 -7 -11 12.1878 8.42188 7
-2 -5 -11 14.9606 7.54307 7
-2 7 11 22.9887 14.255 6
5 2 11 21.9013 14.4347 4
5 2 11 14.563 15.1487 6
2 5 -11 15.3268 8.36967 12
7 -5 11 28.3706 12.9772 4
-7 2 -11 16.0012 7.05768 8
-1 7 -11 0.52746 8.06118 12
-6 7 11 -0.5903 12.5907 6
1 -7 -11 11.0403 7.23033 7
-6 -1 -11 12.5794 7.00372 8
1 6 11 0.62741 15.5293 6
1 -7 -11 -4.8783 12.9837 5
7 -6 -11 7.03129 15.8219 4
7 -6 -11 3.5661 8.21124 7
7 -1 11 -0.2428 11.7705 4
7 -1 11 3.00491 14.0108 6
6 -7 11 3.18115 11.8826 4
-6 7 11 3.96424 7.43577 11
-7 6 -11 0.93272 7.11086 8
6 1 -11 6.0772 7.95925 12
-1 -6 -11 -0.3467 12.5564 5
-7 1 -11 7.8716 6.77863 8
1 6 -11 1.55459 8.01045 12
6 -7 -11 -1.1926 8.13243 7
-6 7 -11 9.85287 4.91957 8
-1 7 11 1.5373 13.5684 6
-1 -6 -11 6.78767 6.63828 7
-1 -6 -11 6.27754 6.67179 8
6 1 11 8.98885 15.0187 6
6 1 11 -4.7171 13.2388 4
7 -6 11 3.48626 11.6043 4
7 0 11 -0.5229 15.1855 6
-7 0 -11 10.6976 7.09965 8
-7 7 11 10.3103 14.1362 6
7 -7 11 9.23282 12.0166 4
7 0 11 2.40555 12.6725 4
0 -7 -11 9.93381 12.9056 5
0 -7 -11 4.84785 6.83982 7
-7 7 -11 8.69219 6.8111 8
7 -7 -11 9.01938 15.8905 4
0 7 11 5.471 15.6555 6
0 -7 -11 10.8132 6.47886 8
0 7 -11 3.84189 9.43008 12
7 -7 -11 3.98107 8.3474 7
4 -8 11 153.635 19.6512 5
4 4 11 238.436 27.9185 6
8 -4 11 168.574 22.1466 4
-4 -4 -11 151.557 16.0711 7
-8 4 -11 143.989 15.758 8
4 -8 -11 147.422 16.5427 7
8 -4 -11 193.822 28.0389 4
-4 8 11 208.941 26.1929 6
4 4 -11 162.311 17.6686 12
-4 -4 -11 131.04 15.112 8
-4 -4 -11 197.911 21.6019 5
-5 8 11 44.0535 16.5686 6
8 -3 11 89.1193 16.2301 4
5 3 -11 46.1546 9.8254 12
3 -8 -11 43.001 14.1895 5
3 5 11 90.4428 19.6399 6
-5 -3 -11 53.0694 9.28746 7
-5 8 11 30.073 7.62999 11
-5 -3 -11 53.1044 8.29685 8
8 -5 -11 54.2533 18.229 4
3 -8 -11 34.5823 8.2755 7
-8 5 -11 44.4419 8.78344 8
8 -5 -11 22.6762 8.41197 7
5 -8 11 57.0518 13.587 5
-5 -3 -11 80.1169 15.4548 5
5 3 11 109.063 20.4375 6
-8 3 -11 67.3461 9.99383 8
5 3 11 104.823 18.4401 4
3 5 -11 55.109 10.9212 12
5 -8 -11 67.6819 10.3737 7
-3 -5 -11 82.9162 14.7789 5
-3 8 11 107.974 20.3153 6
-3 -5 -11 79.9043 10.1536 7
-3 -5 -11 65.6263 9.64455 8
8 -5 11 98.5935 16.3868 4
8 -2 11 81.5735 16.4388 4
6 2 -11 46.7743 10.1203 12
6 -8 11 48.8167 13.4486 5
8 -6 -11 47.3304 10.3138 7
2 -8 -11 41.8833 15.2816 5
-2 8 -11 24.6877 8.76462 12
2 6 11 57.467 16.603 6
8 -6 -11 56.5689 17.8077 4
-6 -2 -11 74.7403 14.6274 5
-6 -2 -11 48.4279 8.44264 8
-6 8 11 60.2009 17.2759 6
8 -2 11 43.1291 14.7519 6
-8 6 -11 46.9471 8.82262 8
-6 8 11 37.6477 9.11617 11
2 -8 -11 55.7146 9.08045 7
6 -8 -11 47.7678 9.95317 7
-2 8 11 54.9429 17.4146 6
-2 -6 -11 39.093 8.20759 7
-2 -6 -11 48.8907 14.5069 5
6 2 11 41.3563 15.0412 4
-2 -6 -11 23.9239 8.23366 8
-8 2 -11 39.8208 8.37537 8
6 2 11 41.7265 16.2213 6
8 -6 11 48.6069 14.4164 4
2 6 -11 26.2923 9.61978 12
-8 7 -11 30.0466 8.14932 8
-7 8 11 38.0142 15.9439 6
8 -1 11 36.2674 15.8538 6
1 -8 -11 28.0463 7.52347 8
7 -8 11 33.9257 13.2731 4
8 -7 -11 30.9683 9.90173 7
-7 8 11 35.441 9.26507 11
1 7 11 45.2597 16.5013 6
1 -8 -11 43.6811 8.45461 7
8 -1 11 32.0469 12.8798 4
1 -8 -11 39.4169 14.3318 5
-1 8 -11 38.5959 10.7682 12
-7 -1 -11 38.0322 8.30958 8
7 1 -11 27.9077 9.5914 12
8 -7 -11 54.7111 18.177 4
7 -8 -11 72.1586 19.8318 4
7 1 11 47.084 16.747 6
-7 8 -11 45.0038 8.32999 8
1 7 -11 41.8705 11.0609 12
-1 -7 -11 37.9665 13.9681 5
-8 1 -11 37.7868 8.24654 8
-1 8 11 39.276 16.7142 6
8 -7 11 49.0909 13.8186 4
7 -8 -11 50.9575 10.3075 7
-1 -7 -11 61.2861 9.22452 8
-1 -7 -11 55.2408 8.19376 7
7 1 11 42.9144 14.6111 4
0 -8 -11 20.0962 13.6525 5
8 -8 11 12.3063 13.0438 4
0 8 -11 -5.3328 9.26046 12
-8 8 -11 8.27576 7.54538 8
0 8 11 17.2655 16.479 6
8 -8 -11 7.17224 9.12646 7
-8 8 11 23.633 15.76 6
-8 0 -11 12.0544 7.51828 8
0 -8 -11 13.4035 6.24901 7
8 -8 -11 4.73714 16.0262 4
8 0 11 11.975 15.6782 6
-8 8 11 8.32674 8.42069 11
0 -8 -11 17.1294 8.03363 8
8 0 11 10.9939 12.8948 4
-5 -4 -11 75.916 15.1758 5
5 -9 11 69.4748 13.0268 5
9 -4 11 57.4887 13.9442 4
-5 9 11 39.1392 16.0764 6
-5 -4 -11 69.974 9.93676 7
9 -5 -11 62.0451 19.4008 4
-5 -4 -11 69.2661 9.40836 8
-5 9 11 58.241 10.1469 11
9 -5 -11 31.333 9.16143 7
-9 5 -11 74.4419 10.5459 8
5 4 -11 50.2477 10.5533 12
4 5 11 73.2235 18.2696 6
4 -9 -11 41.347 8.71807 7
-4 -5 -11 41.4121 8.1624 7
9 -5 11 63.8136 14.927 4
-4 -5 -11 88.2229 15.7188 5
-4 -5 -11 54.1216 9.04132 8
9 -4 -11 81.9727 20.2119 4
-4 9 11 66.7401 18.3525 6
5 4 11 48.3962 17.175 6
5 4 11 60.6192 16.9777 4
5 -9 -11 51.714 9.14707 7
-4 9 11 33.7709 8.50902 11
-9 4 -11 51.0168 9.54392 8
4 5 -11 74.4804 11.9324 12
9 -6 -11 100.172 13.2981 7
3 -9 -11 102.949 11.3617 7
-6 -3 -11 103.647 10.8456 8
6 -9 11 90.1952 14.9618 5
-6 9 11 147.479 22.6374 6
6 3 -11 73.9347 11.9473 12
-6 9 11 106.681 12.1563 11
-6 -3 -11 117.558 16.8747 5
6 3 -11 62.4334 10.7201 11
-9 6 -11 87.7306 11.2968 8
9 -3 11 93.5175 15.8029 4
3 6 11 165.739 23.709 6
3 -9 -11 72.7964 16.014 5
9 -6 -11 83.3023 20.6219 4
6 3 11 121.783 20.7885 6
-3 -6 -11 57.5742 9.47396 7
9 -6 11 99.4675 16.7992 4
6 3 11 135.626 20.8546 4
3 6 -11 84.2457 12.2394 12
6 -9 -11 88.3307 11.5518 7
-3 9 11 136.948 21.8539 6
-3 -6 -11 134.982 18.1302 5
-3 -6 -11 96.3458 10.9776 8
-9 3 -11 83.381 10.7746 8
9 -7 -11 41.3304 19.297 4
9 -2 11 22.6243 13.2565 4
9 -7 -11 17.8603 9.72442 7
7 2 -11 21.127 8.83494 12
-9 7 -11 23.7947 7.95333 8
2 -9 -11 10.5325 7.26423 8
2 -9 -11 32.6631 14.2591 5
-7 9 11 15.2529 15.7573 6
7 -9 11 17.0242 12.4742 5
-7 9 11 17.1665 8.34754 11
2 7 11 33.7138 17.4745 6
-2 9 -11 5.25076 9.66674 12
2 -9 -11 16.0673 7.38042 7
-7 -2 -11 23.7469 7.71007 8
9 -2 11 -3.3176 11.7366 6
-2 -7 -11 22.5225 12.7044 5
-2 9 11 34.3024 17.869 6
7 -9 -11 13.8294 8.87934 7
2 7 -11 25.5858 10.5088 12
7 2 11 32.6146 15.4971 4
-2 -7 -11 8.6093 6.39012 7
7 -9 -11 27.9675 17.037 4
7 2 11 16.8929 15.5794 6
-9 2 -11 9.15022 7.6203 8
9 -7 11 16.8283 13.2088 4
-2 -7 -11 20.6592 7.92838 8
1 -9 -11 26.8135 9.00116 8
9 -8 -11 31.9493 9.92971 7
1 -9 -11 34.857 14.6304 5
1 -9 -11 28.8513 7.01735 7
8 -9 11 39.5586 13.846 5
-8 -1 -11 35.9598 7.73907 8
-1 9 -11 8.50906 9.62608 12
-8 9 11 31.5181 9.10243 11
-9 8 -11 28.4695 8.15133 8
8 1 -11 21.4053 9.01928 12
-8 9 11 31.3402 16.2183 6
1 8 11 48.0722 19.0371 6
9 -1 11 29.6251 13.2239 4
9 -1 11 45.1251 15.0302 6
8 -9 11 2.82514 12.1429 4
9 -8 -11 34.9104 18.6552 4
-8 9 -11 4.08884 5.82303 9
-9 8 11 21.2607 8.721 11
-1 9 11 17.8793 17.0596 6
8 1 11 21.1632 14.2805 4
9 -8 11 13.8993 13.5916 4
-1 -8 -11 8.38377 5.79721 7
8 -9 -11 25.6115 17.4225 4
8 1 11 16.1267 15.6873 6
8 -9 -11 13.5535 9.25288 7
-1 -8 -11 14.173 7.94343 8
1 8 -11 3.83772 9.97645 12
-8 9 -11 13.4351 7.15198 8
-1 -8 -11 25.5579 13.4918 5
-9 1 -11 11.558 7.52301 8
-9 0 -11 16.2969 7.45919 8
-9 9 11 14.1886 8.14321 11
-9 9 -11 7.78967 7.2999 9
0 -9 -11 5.05093 4.80672 7
0 9 -11 11.5502 11.1092 12
9 -9 11 13.4183 12.9924 4
0 -9 -11 27.7766 13.9516 5
0 -9 -11 12.4896 8.21768 8
9 0 11 31.1398 14.2398 4
9 -9 -11 14.4874 9.27619 7
0 9 11 25.4031 17.6342 6
9 -9 -11 19.6038 18.1246 4
9 -9 11 17.7159 13.1514 5
-9 9 11 27.0155 16.0059 6
-9 9 -11 13.9094 7.87451 8
9 0 11 18.4624 15.6627 6
5 -10 -11 6.70142 7.39257 7
10 -5 -11 -3.0837 17.8319 4
-5 10 11 10.5094 16.5705 6
5 5 -11 5.51112 8.17774 12
-5 -5 -11 2.04496 11.3053 5
10 -5 -11 2.87891 7.83971 7
5 5 11 17.5766 16.9586 6
-5 -5 -11 10.1139 7.01262 8
-5 10 11 -2.4239 8.62489 11
-5 -5 -11 15.6468 7.11157 7
-5 10 -11 -0.3972 7.43019 9
5 -10 11 0.74239 9.61999 5
10 -5 11 2.2352 12.3734 4
-10 5 -11 1.95321 8.49554 8
5 5 11 24.6166 16.3346 4
5 5 -11 7.0257 7.79852 11
4 6 11 73.4677 18.9108 6
-6 -4 -11 42.3739 8.18644 8
6 -10 11 53.2726 13.0059 5
-6 -4 -11 81.0881 15.9931 5
6 4 -11 36.4214 10.2518 12
-10 6 -11 58.7556 10.0923 8
-6 10 11 50.8094 9.98857 11
10 -6 -11 50.04 11.23 7
4 -10 -11 1.2917 15.5016 5
6 4 -11 28.4939 9.27866 11
4 -10 -11 54.968 8.66264 7
10 -6 -11 79.8621 21.7065 4
-6 10 11 50.8148 17.1367 6
10 -4 11 75.803 16.1424 4
-4 -6 -11 32.3051 8.46299 8
-10 4 -11 38.0282 9.15357 8
6 4 11 42.6413 16.8442 4
4 6 -11 51.7706 11.2457 12
6 4 11 61.9597 18.7053 6
-4 -6 -11 38.8887 12.5755 5
10 -4 -11 -8.484 23.5571 4
10 -6 11 42.831 14.2517 4
-4 10 11 43.6295 10.0443 11
-4 10 11 51.416 17.6161 6
6 -10 -11 47.4355 9.29026 7
10 -7 -11 15.1519 10.2376 7
3 -10 -11 8.98703 7.4472 8
7 3 -11 17.0868 8.57346 12
10 -7 -11 25.8202 19.541 4
10 -3 11 12.2195 12.5258 4
-10 7 -11 5.40445 6.34448 9
7 3 -11 14.1391 8.13372 11
3 -10 -11 16.6802 7.39325 7
-7 10 11 14.3901 15.9289 6
-7 10 11 31.1812 9.30885 11
3 7 11 28.5238 16.444 6
-7 -3 -11 32.099 7.68355 8
-10 7 -11 29.5747 9.21316 8
-7 -3 -11 25.8087 11.6199 5
-3 10 -11 15.681 10.2027 12
3 -10 -11 14.8713 13.8973 5
7 -10 11 31.4024 12.2656 5
-7 10 -11 22.0502 6.94507 9
7 -10 -11 27.8807 8.80915 7
-3 -7 -11 35.7096 13.786 5
-3 10 11 25.8979 17.4869 6
-10 3 -11 35.5816 8.56493 8
10 -7 11 33.3513 14.0794 4
7 3 11 30.1152 15.7221 4
-3 -7 -11 16.7631 7.84176 8
3 7 -11 38.0062 11.2957 12
7 3 11 34.5953 16.5763 6
-3 10 11 28.8517 8.31712 11
-10 8 -11 31.3338 8.71342 8
10 -8 -11 28.8573 19.118 4
-8 -2 -11 37.7351 7.95688 8
2 8 11 33.6074 17.1178 6
8 2 -11 30.4426 9.71242 12
-8 10 11 36.4472 16.8033 6
-8 10 11 27.5983 8.94308 11
-10 8 -11 26.7671 8.28453 9
2 -10 -11 22.1771 9.01509 8
2 -10 -11 15.8714 13.5934 5
-2 10 -11 26.3344 11.5779 12
2 -10 -11 25.4292 7.37011 7
10 -8 -11 40.1729 10.9436 7
10 -2 11 29.3622 13.4748 4
8 -10 11 24.4554 12.1704 5
-2 -8 -11 1.97757 5.49933 7
-2 10 11 2.30335 5.65656 11
8 -10 -11 6.04615 8.60901 7
2 8 -11 7.27249 10.2776 12
8 2 11 2.75461 15.0743 6
-10 2 -11 1.52915 7.87848 8
8 -10 -11 -8.2431 16.1787 4
-8 10 -11 3.25856 7.36691 9
-2 10 11 2.28799 17.2328 6
10 -8 11 4.96252 13.5724 4
-2 -8 -11 5.10253 11.7737 5
-2 -8 -11 3.70933 7.34886 8
8 2 11 10.2524 14.3312 4
1 -10 -11 0.81694 8.21777 8
10 -9 -11 -8.0758 9.03421 7
-1 10 -11 -4.2268 10.3149 12
-9 -1 -11 5.34769 6.79241 8
1 -10 -11 9.25682 13.0418 5
-9 10 11 4.00129 8.125 11
-10 9 -11 0.43401 7.46629 9
9 -10 11 -4.3903 11.26 5
-10 9 -11 6.39896 7.78681 8
1 -10 -11 2.95272 4.99545 7
10 -1 11 3.97191 11.9661 6
10 -1 11 11.7673 13.529 4
1 9 11 13.0805 18.0395 6
-9 10 11 9.9981 14.5588 6
10 -9 -11 3.77575 17.5367 4
-10 9 11 7.88911 15.0445 6
-10 1 -11 8.00965 7.21413 8
-1 10 11 9.93767 18.2152 6
-10 9 11 1.33549 8.11381 11
9 -10 -11 -0.4085 8.88884 7
-1 -9 -11 1.53051 7.10838 7
-9 10 -11 -1.6651 7.67882 9
1 9 -11 1.09236 10.4294 12
-1 -9 -11 5.77029 12.7551 5
9 -10 -11 6.39355 18.0114 4
-1 -9 -11 -1.0918 7.64518 8
9 1 11 7.13665 14.1196 4
10 -9 11 -2.2266 12.9229 4
10 -9 11 7.28449 13.1996 5
9 1 11 4.58085 15.4616 6
0 -10 -11 12.1487 12.5103 5
-10 0 11 3.04753 5.94964 10
0 10 11 1.54096 17.7851 6
10 -10 11 2.57191 19.3597 4
-10 0 -11 6.21881 6.70202 8
10 -10 11 7.84854 12.5428 5
0 10 -11 9.91283 10.9855 12
-10 10 11 6.70621 7.91433 11
-10 10 11 1.36134 13.7022 6
10 0 11 5.94041 13.474 4
-10 10 -11 -1.4221 7.65881 9
0 -10 -11 1.34685 7.69044 8
10 -10 -11 -6.6415 18.1077 4
10 -10 -11 0.20054 9.53858 7
10 0 11 13.8523 13.6672 6
5 6 11 36.288 18.1687 6
-11 6 -11 28.0065 9.34746 8
11 -6 -11 21.9589 19.321 4
-6 -5 -11 28.1915 7.43137 8
-5 11 -11 13.0864 6.71615 9
-6 11 11 33.4503 9.59864 11
-6 -5 -11 23.899 12.4809 5
11 -6 -11 24.7575 10.705 7
6 5 -11 28.0324 8.89297 11
5 -11 -11 22.7169 7.32894 7
6 5 -11 18.4908 9.78383 12
-6 11 11 0.35985 14.0598 6
-11 6 -11 11.7157 8.11818 9
11 -5 11 27.6457 13.6113 4
6 -11 11 -2.1534 8.57292 5
-5 11 11 25.9895 9.3143 11
5 6 -11 12.0584 8.11838 11
-5 -6 -11 23.3986 7.90041 8
-5 11 11 5.47373 14.324 6
11 -5 -11 0.10958 8.22448 7
6 -11 -11 18.6747 7.41236 7
-11 5 -11 31.682 9.01542 8
6 5 11 -6.3675 14.3864 4
-11 5 -11 8.61805 7.01905 9
5 6 -11 21.9689 9.76942 12
-5 -6 -11 18.3109 11.6799 5
-6 11 -11 8.715 7.16629 9
6 5 11 33.1559 18.3169 6
11 -6 11 21.5509 14.0807 4
7 4 -11 30.8527 8.9711 11
-11 7 -11 31.1831 9.20582 8
4 7 11 65.912 19.3388 6
7 4 -11 37.2306 10.2433 12
-7 -4 -11 54.403 14.4074 5
4 -11 -11 38.118 7.77844 7
11 -4 11 40.7007 13.9636 4
4 -11 -11 14.7571 7.5006 8
7 -11 11 38.0104 11.7736 5
-7 11 11 0.03339 14.3392 6
-7 11 11 35.6353 9.14329 11
-4 11 -11 33.9955 10.0768 12
11 -7 -11 50.3111 11.702 7
-7 -4 -11 32.5536 7.38975 8
11 -7 -11 38.6248 20.4643 4
-11 7 -11 26.187 8.34475 9
4 -11 -11 -0.9364 14.6219 5
7 4 11 39.2636 17.8003 6
-11 4 -11 38.1019 8.89009 8
11 -7 11 14.2697 12.9887 4
-7 11 -11 19.7366 7.86886 9
-4 11 11 32.7118 9.55518 11
7 4 11 -4.3571 12.9087 4
4 7 -11 47.3236 11.0304 12
7 -11 -11 30.7991 8.32682 7
-4 -7 -11 35.5812 8.19332 8
-4 11 11 3.44036 16.0106 6
4 7 -11 16.2177 7.79167 11
-11 4 -11 2.25291 6.45309 9
-4 -7 -11 24.7265 12.3123 5
-11 8 -11 81.4499 11.2536 8
3 8 11 74.1698 20.0454 6
3 -11 -11 66.1423 10.8578 8
8 -11 11 61.9685 13.8245 5
-3 11 -11 59.3438 13.035 12
8 3 -11 69.6089 11.3216 12
-8 -3 -11 73.8115 9.32725 8
3 -11 -11 46.6014 14.6294 5
3 -11 -11 73.3933 9.24198 7
-8 11 11 78.4836 10.8472 11
11 -8 -11 74.5686 22.4561 4
11 -3 11 64.8522 16.2773 4
11 -8 -11 48.9902 11.8058 7
-8 11 11 -1.1334 23.6187 6
-11 8 -11 73.3715 10.7934 9
-3 11 11 40.0411 9.29189 11
-3 11 11 8.47058 16.7834 6
-3 -8 -11 76.9719 15.6828 5
-8 11 -11 41.3695 8.73072 9
11 -8 11 48.9012 14.4576 4
8 3 11 40.6638 16.8254 6
8 3 11 -1.9791 13.4306 4
8 -11 -11 54.0107 18.5086 4
8 -11 -11 31.5781 8.89608 7
3 8 -11 67.9538 12.4463 12
-11 3 -11 37.106 8.59528 8
-3 -8 -11 62.5677 8.8561 8
2 -11 -11 34.9976 14.1299 5
-11 9 -11 21.0796 9.07302 8
11 -9 -11 19.4059 19.3538 4
-9 11 11 27.0473 8.72215 11
11 -2 11 27.708 14.8774 4
9 2 -11 28.605 9.42297 12
11 -9 -11 10.3048 9.77718 7
2 9 11 37.5011 18.2117 6
9 -11 11 36.6367 13.1079 5
-2 11 -11 26.1412 11.8052 12
-9 -2 -11 30.6554 7.44031 8
2 -11 -11 18.3737 8.80943 8
2 -11 -11 12.8589 5.50673 7
-11 9 -11 13.2922 8.0672 9
9 -11 -11 17.7434 8.61417 7
11 -9 11 43.4572 14.9082 5
-9 11 -11 19.1204 8.11466 9
11 -9 11 11.4931 13.3546 4
9 2 11 33.9952 16.9192 6
-2 -9 -11 18.5177 12.7294 5
9 -11 -11 11.6674 17.8688 4
-2 11 11 19.1117 7.8007 11
-2 -9 -11 12.8353 7.46738 8
-2 11 11 -7.4661 16.7768 6
9 2 11 -2.4424 13.23 4
-11 9 11 27.9095 8.71969 11
-11 2 -11 31.7883 7.92322 8
2 9 -11 16.8945 10.1669 12
-11 1 11 0.41414 6.89866 10
10 -11 11 17.8274 12.0206 5
-1 11 -11 -3.3701 5.85857 10
1 -11 -11 15.1074 8.15662 8
-1 11 -11 13.0527 10.2185 12
11 -1 11 15.174 14.3264 4
1 10 11 12.4919 17.9323 6
-10 -1 -11 21.8372 7.00627 8
11 -10 -11 16.8577 18.3305 4
-11 10 -11 17.2045 8.12263 9
11 -10 -11 13.1744 9.4678 7
1 -11 -11 13.445 13.4268 5
-10 11 11 23.9237 8.23287 11
-1 -10 -11 33.5314 13.471 5
11 -10 11 38.4912 14.4403 5
-11 10 11 40.2099 9.11501 11
10 1 11 -5.6556 12.929 4
-11 1 -11 28.01 7.6314 8
10 1 11 25.3043 14.7036 6
-1 -10 -11 26.9225 7.91065 8
1 10 -11 28.7279 11.0352 12
-1 11 11 -6.6537 21.1348 6
-10 11 -11 27.1045 8.57041 9
11 -10 11 5.19096 11.9085 4
10 -11 -11 30.6201 9.65062 7
-10 -1 11 7.30724 8.02499 10
10 -11 -11 36.7023 19.622 4
-11 11 11 16.0835 7.89234 11
-11 0 -11 7.27443 7.05579 8
0 -11 -11 -0.5959 7.50822 8
11 -11 -11 6.825 9.0627 7
11 0 11 4.41513 22.2152 6
11 -11 -11 4.11811 18.5114 4
0 11 -11 1.01718 10.0947 12
0 -11 -11 0.09671 12.3413 5
11 -11 11 13.0845 12.8382 5
11 -11 11 13.1788 6.8511 7
11 0 11 -2.0808 13.5433 4
-11 0 11 9.28641 8.29177 10
-11 11 -11 10.1279 8.08659 9
6 6 -11 45.2891 9.94196 11
-6 -6 -11 73.5727 14.069 5
-12 6 -11 54.7048 10.2505 9
-6 12 -11 40.5945 8.6025 9
6 -12 -11 47.4051 8.27339 7
12 -6 -11 52.1096 11.0683 7
6 6 11 104.666 20.4615 6
12 -6 11 63.9277 16.0311 4
-6 -6 -11 38.9213 7.81548 8
-12 6 -11 40.0922 9.15716 8
-6 12 11 64.2353 10.588 11
6 6 -11 43.8722 9.72084 12
-12 7 -11 7.10806 8.26118 8
5 7 11 15.2108 15.7419 6
12 -5 11 13.3947 14.1875 4
5 -12 -11 0.421 6.36822 8
7 5 -11 13.1571 9.28777 12
-7 -5 -11 23.8031 13.0137 5
-7 -5 -11 6.62205 6.23087 8
-7 12 11 11.0958 8.87548 11
12 -7 -11 -5.6868 17.9285 4
-12 7 -11 11.7744 8.4499 9
12 -7 -11 11.4121 10.4303 7
7 -12 11 1.03338 8.98714 5
-5 12 -11 2.18908 7.7372 12
7 5 -11 -4.4534 7.6259 11
5 -12 -11 8.45068 6.54408 7
-7 12 -11 17.2725 7.76926 9
5 7 -11 12.2172 9.61132 12
7 5 11 25.7462 16.7993 6
-12 5 -11 18.515 8.1822 8
12 -7 11 6.30574 12.6566 4
-5 -7 -11 14.705 7.23662 8
-5 12 11 23.3655 9.24736 11
7 -12 -11 13.0025 7.25 7
5 7 -11 12.0397 8.41356 11
-5 -7 -11 33.0732 13.0204 5
-12 5 -11 5.61124 8.58358 9
-8 12 11 27.709 8.96141 11
-12 8 -11 30.593 9.18844 8
12 -4 11 20.3179 14.0312 4
4 8 11 35.3198 16.816 6
-4 12 -11 34.8107 11.2965 12
8 -12 11 24.7909 10.4756 5
-12 8 -11 18.7743 8.5846 9
8 4 -11 25.583 8.41407 11
12 -8 -11 28.9991 11.0114 7
8 4 -11 27.2229 9.3358 12
4 -12 -11 28.9578 8.86533 8
12 -8 -11 27.8134 19.9462 4
-8 -4 -11 34.1656 7.55892 8
4 -12 -11 33.4631 7.20305 7
-4 -8 -11 25.4506 7.64759 8
-12 4 -11 25.2125 8.06791 8
-12 4 -11 15.015 8.34674 9
8 4 11 28.7803 17.0501 6
8 -12 -11 14.1982 7.69681 7
12 -8 11 7.98766 13.1366 4
-8 12 -11 13.1792 7.60211 9
-4 12 11 25.501 8.87679 11
4 8 -11 10.8294 10.0216 12
-4 -8 -11 23.2712 13.1473 5
4 8 -11 -4.062 7.93015 11
3 9 11 117.09 21.7503 6
-9 -3 -11 107.676 11.0104 8
9 3 -11 105.957 14.3966 12
-12 9 -11 111.95 12.7135 8
3 -12 -11 76.8716 11.7791 8
-12 9 -11 118.82 14.5948 9
-9 12 11 110.035 12.2447 11
12 -3 11 109.822 19.0849 4
12 -9 -11 139.291 15.0272 7
12 -9 -11 79.4508 21.7393 4
9 -12 11 102.841 15.3676 5
-3 12 -11 110.988 15.5765 12
9 3 11 110.455 20.2764 6
9 -12 -11 88.156 20.6042 4
3 9 -11 98.3549 14.0009 12
-3 -9 -11 109.998 11.1034 8
-12 3 -11 67.0964 10.4197 8
12 -9 11 140.604 18.3467 5
9 -12 -11 94.2951 11.8395 7
-12 9 11 108.832 11.702 11
-3 -9 -11 100.703 16.9442 5
-3 12 11 104.662 14.6669 11
-9 12 -11 85.1777 11.3045 9
-2 12 -11 45.7254 12.1959 12
10 -12 11 78.1785 13.3221 5
12 -10 -11 78.8033 11.3444 7
-12 10 -11 49.3437 9.24791 9
2 -12 -11 47.1933 13.7096 5
-12 2 11 23.6469 8.52899 10
2 -12 -11 52.8926 9.21528 8
12 -2 11 42.4727 15.4071 4
-10 -2 -11 48.1005 7.86136 8
2 10 11 5.92632 15.9213 6
-2 12 -11 30.0877 7.83183 10
12 -10 -11 46.5683 19.4962 4
12 -10 11 56.5886 14.4133 5
12 -10 11 42.5305 8.4349 7
-10 12 -11 54.4824 9.89807 9
-2 -10 -11 54.7725 8.64832 8
-2 -10 -11 46.7982 13.2076 5
10 2 11 54.5613 16.7608 6
-12 2 -11 34.1574 8.39116 8
10 -12 -11 63.6569 10.2426 7
-2 12 11 44.3264 9.35449 11
10 -12 -11 41.7006 18.3368 4
-12 2 -11 25.1044 8.02944 9
2 10 -11 92.8141 14.1401 12
-12 10 11 60.38 9.18953 11
-12 1 11 5.45924 8.38554 10
12 -11 -11 4.80819 8.63318 7
-11 12 11 8.46845 7.71054 11
-12 11 -11 16.4092 7.96737 9
11 -12 11 16.6754 11.2618 5
-1 12 -11 4.06829 7.78922 10
-11 -1 -11 17.154 6.90897 8
-1 12 -11 8.80777 11.6437 12
1 -12 -11 7.54864 7.43097 8
1 -12 -11 10.8739 11.7068 5
12 -11 -11 24.0747 18.9787 4
-12 11 11 11.8687 7.17476 11
-1 12 11 12.3406 6.43503 11
11 -12 -11 12.787 8.53781 7
1 11 -11 27.473 11.5816 12
-11 -1 11 2.50775 8.36724 10
11 1 11 4.81842 19.3456 6
-12 1 -11 7.68404 7.03529 8
11 -12 -11 11.5019 18.194 4
-1 -11 -11 21.8471 12.3127 5
12 -11 11 13.0857 7.22904 7
12 -11 11 11.8758 12.5783 5
-11 12 -11 20.4018 8.20864 9
-1 -11 -11 9.31921 7.10721 8
-12 1 -11 -1.1524 5.99339 9
0 12 -11 -0.1823 10.2055 12
-12 0 -11 0.89841 7.38141 9
-12 0 11 -2.4182 8.39915 10
-12 0 -11 3.44919 6.84639 8
12 -12 -11 -7.8447 16.8871 4
12 -12 11 6.94082 10.8169 5
-12 12 -11 5.31625 7.59194 9
12 -12 11 2.14175 6.14977 7
-12 12 11 1.57405 6.81718 11
12 -12 -11 -8.939 8.14659 7
0 -12 -11 2.52354 6.90017 8
0 -12 -11 6.14378 10.7486 5
6 -13 -11 -0.1587 6.23387 8
-13 7 -11 -6.4741 8.02283 8
13 -6 11 4.27824 12.5334 4
-13 7 -11 0.37565 8.19154 9
7 6 -11 4.54639 7.84635 11
-7 -6 -11 3.98815 11.3821 5
7 6 -11 1.60405 9.12772 12
6 7 11 5.36243 16.0255 6
-7 -6 -11 0.14753 6.3424 8
-7 13 11 2.28668 8.08015 11
6 -13 -11 1.34892 6.10459 7
13 -7 -11 -4.8657 9.84498 7
13 -7 11 3.87016 12.3009 4
7 -13 -11 -1.8256 6.64858 7
-6 -7 -11 6.49898 11.5121 5
-7 13 -11 5.41275 7.39932 9
-6 -7 -11 4.8444 6.62313 8
-6 13 11 0.38898 8.10332 11
13 -6 -11 6.50558 8.15342 7
-13 6 -11 -3.3382 8.48717 9
7 6 11 2.73572 15.0632 6
6 7 -11 1.44839 8.65525 12
6 7 -11 -4.893 7.9186 11
-13 6 -11 -8.594 7.89899 8
-8 -5 -11 33.3183 7.09374 8
5 -13 -11 22.0604 6.9897 7
8 5 -11 26.1645 9.30302 12
-8 -5 -11 23.4272 10.8338 5
8 5 -11 23.3132 8.13143 11
-13 8 -11 24.3655 8.59976 9
-13 8 -11 38.9561 9.2478 8
13 -5 11 31.0637 13.7507 4
13 -8 -11 33.4512 10.7036 7
-8 13 11 37.9641 9.06862 11
5 8 11 44.1032 17.5394 6
-5 13 -11 38.88 10.6735 12
5 -13 -11 10.7704 7.82856 8
8 -13 -11 25.5809 7.50549 7
-5 -8 -11 16.8003 11.4827 5
8 5 11 8.76444 15.0966 6
-13 5 -11 9.92914 8.87257 9
-5 -8 -11 23.6037 7.37715 8
13 -8 11 21.6972 13.1767 4
5 8 -11 4.41461 8.34987 11
-8 13 -11 14.4977 7.66758 9
13 -8 11 20.2956 12.3203 5
-5 13 11 14.0986 8.50157 11
5 8 -11 21.3332 9.34242 12
-13 5 -11 10.6932 7.7914 8
13 -4 11 19.9711 13.2203 4
-9 -4 -11 49.9601 7.78394 8
-13 9 -11 30.0116 8.58853 9
9 4 -11 32.0421 8.44859 11
4 -13 -11 34.3319 9.03566 8
13 -9 -11 32.6335 10.6714 7
4 9 11 28.206 16.0178 6
13 -9 -11 -0.7306 17.2203 4
9 4 -11 42.3501 9.93406 12
-4 13 -11 25.6969 10.6661 12
13 -9 11 29.5802 12.7227 5
-4 -9 -11 26.0131 12.8479 5
-4 13 11 27.7979 9.04889 11
-13 4 -11 17.006 8.61752 9
13 -9 11 17.1966 12.6892 4
-13 9 11 26.9451 8.08029 11
13 -9 11 15.6406 6.87013 7
9 -13 -11 17.741 7.61704 7
-4 -9 -11 21.8963 7.30773 8
-9 13 -11 22.6337 7.88521 9
9 4 11 13.411 15.123 6
-13 4 -11 15.447 7.92242 8
4 9 -11 12.0945 9.41625 12
4 9 -11 10.4281 8.64497 11
10 3 -11 19.9252 7.95034 12
-13 10 -11 9.813 7.87565 9
-10 13 11 18.0433 7.92418 11
13 -10 -11 6.54445 16.9273 4
-3 13 -11 16.3064 8.02082 10
13 -10 -11 -5.8103 8.79798 7
3 -13 -11 6.20829 7.88158 8
10 -13 11 -1.2542 9.06673 5
-3 13 -11 1.30045 10.6081 12
13 -3 11 6.72217 12.5624 4
-10 -3 -11 5.02828 6.49124 8
-13 3 11 1.26991 7.91035 10
-13 3 -11 9.16495 7.3456 8
-3 -10 -11 1.10303 6.49762 8
13 -10 11 2.55857 6.71726 7
-13 10 11 8.7669 7.16142 11
3 10 -11 13.8247 10.7603 12
10 -13 -11 -3.5897 7.18579 7
3 10 -11 -7.5394 7.59067 11
10 3 11 8.00923 13.0729 6
-3 -10 -11 0.82306 11.5621 5
10 -13 -11 -9.6617 13.7068 4
13 -10 11 6.80207 11.5666 5
-10 13 -11 2.51843 7.53634 9
-3 13 11 9.65205 8.52441 11
-13 3 -11 8.55908 7.99789 9
-11 13 11 33.1715 8.16463 11
13 -11 -11 29.0068 9.09687 7
-13 11 -11 19.6284 7.88272 9
-11 -2 -11 21.9657 6.81916 8
13 -11 -11 -0.5211 15.7489 4
-13 2 11 13.9973 8.3379 10
2 -13 -11 11.7163 7.75164 8
-2 13 -11 25.432 11.9563 12
-2 13 -11 12.0442 7.8105 10
11 -13 11 4.50919 8.89199 5
-13 2 -11 16.5935 8.07371 9
-11 13 -11 17.825 7.89637 9
11 -13 -11 4.4649 14.2882 4
-2 -11 -11 20.8432 11.4916 5
11 -13 -11 28.3896 8.588 7
-2 13 11 22.285 8.48694 11
13 -11 11 19.0989 11.2381 5
-13 11 11 31.6877 7.84319 11
-11 -2 11 3.99593 8.27934 10
13 -11 11 16.0354 7.10102 7
-13 2 -11 27.615 7.71317 8
2 11 -11 43.2233 12.2542 12
-2 -11 -11 25.559 7.30448 8
-13 1 11 2.43164 8.08385 10
-12 -1 -11 9.65014 6.68319 8
1 -13 -11 11.5507 7.34493 8
-13 12 -11 13.9893 8.16401 9
13 -12 -11 16.8038 8.42075 7
13 -12 -11 -4.0502 14.7482 4
-12 13 11 10.7454 6.88425 11
-1 13 -11 16.6118 11.4527 12
12 -13 11 -0.0576 10.2048 5
1 12 -11 23.7191 10.9615 12
-1 -12 -11 15.9045 6.90326 8
-13 1 -11 11.7848 6.93807 8
-1 -12 -11 0.53259 11.8097 5
13 -12 11 -1.2198 9.36944 5
-12 13 -11 3.99575 7.64221 9
-12 -1 11 7.06008 8.17737 10
-13 1 -11 11.0051 7.19144 9
12 -13 -11 17.2325 8.22731 7
12 -13 -11 -2.0887 14.9055 4
13 -12 11 7.24315 6.55108 7
-13 12 11 19.9468 7.31811 11
-1 13 11 11.2502 7.47585 11
13 -13 11 8.32589 5.25972 7
0 13 11 0.37707 6.43466 11
13 -13 -11 9.45712 8.01853 7
0 13 -11 18.3254 10.6072 12
-13 0 -11 2.92555 5.72017 9
-13 0 11 9.11306 8.23151 10
0 -13 -11 5.87906 6.28028 8
-13 13 11 10.5223 6.92577 11
-13 0 -11 9.82413 6.77059 8
-13 13 -11 9.65601 8.00058 9
-14 7 -11 -1.9609 7.90603 9
-7 14 11 3.80443 7.43083 11
14 -7 11 8.89836 12.4328 4
-7 -7 -11 5.42345 5.95768 8
-14 7 -11 0.98634 7.77734 8
7 -14 -11 -0.7436 5.99985 7
14 -7 11 -1.3825 5.9925 7
7 7 -11 -2.0771 8.7977 12
14 -7 -11 8.42771 8.98292 7
7 7 -11 -7.8741 7.66536 11
7 7 11 -3.9206 13.3233 6
-7 -7 -11 1.40198 9.61207 5
14 -6 11 6.65227 11.4406 4
6 -14 -11 24.6473 6.64213 7
-14 8 -11 19.8462 8.22758 8
8 6 -11 22.6713 8.12643 11
-8 -6 -11 43.2094 7.00527 8
6 8 11 0.86452 13.2402 6
-8 14 11 32.703 8.56715 11
-14 8 -11 25.0927 8.07314 9
14 -8 -11 22.6677 10.0609 7
-6 14 -11 0.95936 7.36544 12
6 -14 -11 14.6412 6.81072 8
8 6 -11 22.5974 9.00415 12
-14 6 -11 17.4443 7.92424 8
14 -8 11 4.96612 11.4083 4
8 -14 -11 20.2679 6.86109 7
6 8 -11 22.8696 8.36299 11
-6 -8 -11 1.01428 9.38837 5
14 -8 11 2.81504 11.9903 5
6 8 -11 35.6666 9.91458 12
14 -8 11 28.5422 7.59557 7
8 6 11 12.4949 14.6547 6
-6 14 11 30.7369 8.58816 11
-14 6 -11 30.7209 9.24326 9
-6 -8 -11 27.3695 6.76045 8
-8 14 -11 16.8817 7.518 9
9 5 -11 1.90508 7.6333 11
5 -14 -11 4.92802 7.17547 8
-14 9 -11 -2.8972 7.47367 9
-9 -5 -11 1.39529 6.47743 8
14 -5 11 5.84144 10.6767 4
-5 14 -11 7.45685 9.23191 12
9 5 -11 10.3506 8.65916 12
5 -14 -11 1.31644 4.07882 7
-9 14 11 2.25831 7.47823 11
-14 5 11 0.86523 5.39955 10
14 -9 -11 -9.3601 8.81861 7
-5 14 -11 -6.1618 6.45154 10
9 -14 -11 4.5957 6.86134 7
-5 -9 -11 -1.1208 9.07429 5
5 9 -11 -5.3143 7.96836 11
9 5 11 1.82169 13.2175 6
14 -9 11 2.91721 11.3435 5
14 -9 11 2.68223 10.4955 4
14 -9 11 -4.0517 6.08836 7
-9 14 -11 5.69547 7.16492 9
-14 9 11 11.2318 7.21739 11
-14 5 -11 -1.7647 8.00342 9
-5 14 11 4.81246 7.81969 11
5 9 -11 -10.505 9.15206 12
-14 5 -11 3.43444 7.39706 8
-5 -9 -11 9.93044 6.61302 8
14 -10 -11 47.0601 10.2551 7
4 -14 -11 46.7711 8.88308 8
-14 4 11 21.0956 8.53057 10
10 4 -11 42.6456 8.75831 12
-10 -4 -11 65.3793 8.41599 8
-10 14 11 58.0989 9.08622 11
-14 10 -11 61.5037 9.77556 9
-4 14 -11 42.4158 11.5965 12
-4 -10 -11 0.66557 9.96821 5
4 10 -11 50.7222 10.5621 12
-10 14 -11 58.2655 8.9575 9
-14 4 -11 24.6645 8.48053 9
10 4 11 6.33941 17.9398 6
14 -10 11 27.6618 7.09822 7
10 -14 -11 47.4969 8.27964 7
4 10 -11 17.3048 8.78347 11
-14 10 11 46.3194 8.35153 11
-14 4 -11 27.7944 7.76871 8
-4 14 11 38.0708 9.39761 11
14 -11 -11 54.9033 9.91373 7
-3 14 -11 47.0679 12.0341 12
-11 14 11 56.4717 8.56074 11
-11 -3 -11 48.2483 7.58227 8
-14 3 11 22.8511 8.89315 10
3 -14 -11 44.1927 8.58163 8
-3 14 -11 20.1607 8.78619 10
-14 11 -11 40.2253 8.70715 9
-14 11 11 36.4654 8.18442 11
11 -14 -11 45.6267 8.71614 7
-14 3 -11 17.5422 8.16335 9
14 -11 11 35.146 7.53715 7
3 11 -11 19.4049 8.27859 11
-11 -3 11 14.8855 8.46438 10
3 11 -11 65.2932 12.2531 12
-11 14 -11 40.0443 8.41592 9
-14 3 -11 31.7756 7.67913 8
-3 -11 -11 56.8817 7.86177 8
-3 14 11 43.1584 9.21797 11
-12 -2 -11 8.32458 6.41784 8
-14 2 11 0.29044 7.70045 10
14 -2 11 0.6366 6.67201 7
-12 14 11 -1.0027 6.4429 11
2 -14 -11 -1.1881 6.58712 8
-2 14 -11 -0.2404 7.67413 10
-2 14 -11 2.81726 9.94676 12
14 -12 -11 -0.8378 7.32489 7
-14 12 -11 1.80029 7.66603 9
-12 14 -11 8.35739 7.3703 9
2 12 -11 13.4697 11.0912 12
-14 12 11 5.12693 6.9489 11
-14 2 -11 6.24504 6.75565 8
-2 14 11 -4.0648 7.93824 11
-14 2 -11 0.3653 7.1465 9
14 -12 11 3.33938 6.41143 7
12 -14 -11 0.94393 7.07034 7
-12 -2 11 3.11456 7.84298 10
-2 -12 -11 0.45576 6.17607 8
-1 14 -11 -2.5574 10.4478 12
14 -1 11 -1.9626 6.65377 7
-14 1 11 2.71252 7.76511 10
1 -14 -11 1.157 6.27019 8
-14 13 -11 0.11781 7.43065 9
-13 14 11 6.7201 6.42679 11
14 -13 -11 7.34934 7.43994 7
-13 -1 -11 0.91972 6.52913 9
-13 -1 -11 11.0345 6.42956 8
1 13 -11 4.4965 9.15594 12
-1 14 11 5.68473 6.92021 11
14 -13 11 0.4988 6.01478 7
-13 -1 11 3.7487 7.70092 10
-14 1 -11 3.97882 6.61983 9
-1 -13 -11 3.35546 5.9993 8
13 -14 -11 5.6328 6.93788 7
-14 13 11 -1.9923 6.58988 11
-14 1 -11 5.8294 6.74539 8
-13 14 -11 7.02386 7.12314 9
-14 0 -11 -2.8089 6.04835 8
0 14 -11 4.7826 9.49512 12
-14 0 -11 4.82195 5.79672 9
-14 0 11 -2.093 7.56076 10
14 0 11 3.02935 4.93401 7
14 -14 11 2.82555 4.19649 7
-14 14 11 0.34674 6.66622 11
0 -14 -11 6.71958 5.7782 8
14 -14 -11 0.38859 6.59041 7
-14 14 -11 -2.173 7.18647 9
8 7 -11 3.33817 8.512 12
15 -7 11 -4.8211 5.91086 7
-8 15 11 5.31814 6.8901 11
8 7 -11 -5.5977 7.117 11
7 -15 -11 2.74977 5.28852 7
-15 8 -11 7.78672 7.37536 9
-8 -7 -11 -0.8338 5.56085 8
7 -15 -11 -0.5005 4.92945 8
15 -8 -11 8.99945 8.44039 7
-7 -8 -11 1.66914 5.5711 8
15 -7 -11 -0.1435 6.1928 7
7 8 -11 -1.4652 7.6862 11
-7 15 11 -0.537 7.2289 11
7 8 -11 -2.6001 8.07018 12
-15 7 -11 1.98671 7.05366 8
15 -8 11 -3.7321 6.05842 7
-15 7 -11 4.9911 7.37105 9
8 -15 -11 1.28901 5.76253 7
6 -15 -11 1.31186 4.59334 7
6 -15 -11 4.34064 6.75814 8
-15 6 11 2.74666 5.10379 10
15 -9 -11 3.83063 8.46561 7
-6 15 -11 -4.6648 6.48656 10
-15 9 -11 -0.6897 7.14227 9
9 6 -11 4.95461 7.21647 11
-9 15 11 2.83899 6.59275 11
-6 15 -11 1.22146 6.6706 12
15 -6 11 5.04353 5.77292 7
9 6 -11 2.96447 7.85245 12
-9 -6 -11 7.59018 6.16043 8
6 9 -11 13.3377 8.98717 12
-15 6 -11 8.27329 7.75565 9
15 -9 11 0.88321 5.89924 7
-6 15 11 -0.7879 7.58775 11
-9 15 -11 2.90368 6.91612 9
6 9 -11 -3.6792 7.4308 11
-6 -9 -11 3.59086 5.96108 8
-15 9 11 -0.5421 6.78262 11
-15 6 -11 4.3709 6.96521 8
9 -15 -11 5.58164 6.30284 7
-10 15 11 29.1337 7.41553 11
10 5 -11 20.8739 6.82123 12
5 -15 -11 12.8097 7.10302 8
-10 -5 -11 17.9735 6.49737 8
15 -5 11 15.6596 6.47726 7
-15 5 11 14.2208 7.28446 10
15 -10 -11 18.8426 8.48229 7
-5 15 -11 19.1256 9.6039 12
-5 15 -11 16.3762 8.45092 10
-15 10 -11 23.0047 7.75207 9
-15 10 11 16.6769 7.04499 11
-5 15 11 13.0666 8.08086 11
-15 5 -11 5.782 6.86172 8
-15 5 -11 19.0341 7.85346 9
15 -10 11 9.09268 6.06427 7
-10 15 -11 21.9348 7.44246 9
5 10 -11 15.6325 9.41511 12
5 10 -11 13.4705 8.16413 11
-5 -10 -11 17.3939 6.27907 8
10 -15 -11 16.5942 6.77243 7
-15 4 11 5.02916 7.56094 10
-4 15 -11 -3.488 8.19495 10
-4 15 -11 -0.3314 9.64214 12
15 -4 11 2.96081 6.13574 7
15 -11 -11 6.09772 7.58235 7
4 -15 -11 -5.269 6.66317 8
-11 -4 -11 5.75998 6.07819 8
-11 15 11 1.53592 6.07296 11
-15 11 -11 -1.8052 6.84179 9
15 -11 11 -2.7158 5.92466 7
4 11 -11 3.55289 8.77761 12
-4 -11 -11 0.64329 5.50409 8
11 -15 -11 9.10703 6.65099 7
-11 15 -11 2.33994 6.77928 9
4 11 -11 -6.3768 7.75893 11
-15 4 -11 6.77566 6.92597 9
-15 4 -11 4.18407 6.7115 8
-4 15 11 -2.4364 7.84861 11
-11 -4 11 4.74708 7.69278 10
-15 11 11 3.50663 6.7025 11
15 -12 -11 8.17063 7.15591 7
-12 -3 -11 15.189 6.37119 8
3 -15 -11 7.94114 6.75468 8
15 -3 11 12.3012 6.66525 7
-12 15 11 5.46753 6.24969 11
-3 15 -11 9.72596 10.8187 12
-3 15 -11 7.99959 7.7341 10
-15 12 -11 12.9907 7.40576 9
-15 3 11 6.60979 7.43983 10
-3 15 11 10.2709 7.84008 11
-3 -12 -11 10.0044 5.85168 8
-15 12 11 4.60205 6.47882 11
-12 -3 11 4.42403 7.61041 10
3 12 -11 8.39341 9.16952 12
-15 3 -11 8.21498 6.60295 9
-15 3 -11 1.6656 6.3494 8
-12 15 -11 10.6828 7.04136 9
12 -15 -11 6.07863 6.62021 7
15 -12 11 0.27573 5.94096 7
3 12 -11 1.77101 6.93887 11
15 -13 -11 14.6636 6.85368 7
2 -15 -11 7.61318 6.01603 8
-13 -2 -11 9.49117 6.27484 8
-2 15 -11 12.9947 10.62 12
-15 2 11 7.12416 7.49653 10
-13 15 11 11.7891 6.28504 11
15 -2 11 7.47042 6.30351 7
-2 -13 11 0.05555 4.13402 9
-15 13 -11 7.67987 7.10089 9
-15 13 11 15.4265 6.71752 11
15 -13 11 8.75993 5.94382 7
13 -15 -11 14.6733 6.84992 7
-13 -2 11 7.77288 7.54255 10
-2 -13 -11 19.0691 6.10897 8
-2 15 11 8.21956 7.6858 11
-13 15 -11 17.5717 7.2501 9
2 13 -11 27.6939 10.9207 12
-15 2 -11 12.0886 6.69696 9
-15 2 -11 12.1598 6.35347 8
1 -15 -11 6.73323 5.68547 8
15 -1 11 9.30951 5.22155 7
15 -14 -11 7.89973 6.4775 7
-14 15 11 8.89472 6.14845 11
-1 15 -11 9.43961 9.5499 12
-15 14 -11 8.80821 7.49921 9
-15 1 11 3.10959 6.96685 10
-14 -1 -11 0.73453 5.27825 9
-14 -1 -11 9.25863 5.06517 8
-15 1 -11 10.8257 4.5877 8
15 -14 11 3.81724 5.27905 7
-14 15 -11 6.55087 6.96846 9
1 14 -11 21.037 9.78293 12
-14 -1 11 6.24248 7.33111 10
-1 15 11 8.97625 5.89062 11
-1 -14 -11 10.9962 5.93336 8
-15 1 -11 11.6462 6.13492 9
-15 14 11 18.1899 6.99568 11
14 -15 -11 10.2323 6.47753 7
0 15 -11 14.739 9.18829 12
15 -15 -11 15.488 6.29412 7
-15 15 11 13.1112 6.18164 11
0 -15 -11 18.661 5.35663 8
-15 15 -11 15.5027 7.16477 9
-15 0 -11 8.28159 5.07635 9
-15 0 11 5.95134 6.66799 10
8 8 -11 21.5909 8.38704 12
-8 16 11 29.616 7.56425 11
8 -16 -11 4.80239 4.12358 7
16 -8 -11 16.4991 6.62354 7
16 -8 11 30.429 6.67043 7
-8 -8 -11 15.2921 5.58806 8
8 8 -11 19.3715 7.46778 11
-16 8 -11 16.9931 7.29544 9
-9 -7 -11 -0.0036 5.79133 8
9 7 -11 7.20336 7.00605 11
-9 16 11 6.11152 6.59797 11
9 7 -11 5.63888 7.53558 12
-7 16 -11 -0.1717 6.34098 10
16 -9 -11 6.89575 7.41153 7
-16 9 -11 7.05402 7.06844 9
7 -16 -11 2.62316 5.29967 8
-16 7 11 3.03313 4.69981 10
16 -7 11 2.33961 5.56208 7
7 9 -11 4.29889 7.9658 12
-7 -9 -11 -1.9901 5.14065 8
7 -16 11 1.83448 3.81045 8
-16 9 11 10.846 6.60785 11
16 -9 11 5.86655 5.90488 7
7 9 -11 4.21158 7.50781 11
-16 7 -11 1.33505 6.62375 9
-7 16 11 -0.1086 7.1785 11
9 -16 -11 4.33997 5.41028 7
-6 16 -11 2.48432 6.26237 12
-10 -6 -11 7.22664 6.09246 8
16 -6 11 3.20174 5.79794 7
-16 10 -11 4.62637 6.88817 9
-6 16 -11 -0.5305 7.86169 10
6 -16 -11 3.35659 6.24495 8
16 -10 -11 9.71581 7.41788 7
10 6 -11 -0.5529 6.60731 11
-10 16 11 3.80828 6.13327 11
10 6 -11 2.35827 5.00728 12
-16 6 11 2.57728 6.31927 10
-6 -10 -11 3.52304 5.27037 8
10 -16 -11 -1.5854 5.59911 7
16 -10 11 1.13768 5.68296 7
-6 16 11 -3.6764 7.34157 11
6 10 -11 -8.7466 7.25613 11
-16 10 11 1.55851 6.24995 11
-16 6 -11 2.30655 6.43301 8
6 10 -11 1.83745 7.83899 12
-16 6 -11 -3.2805 6.57706 9
-16 5 11 4.333 6.92255 10
16 -5 11 4.13947 5.7957 7
-16 11 -11 17.8798 7.06026 9
-11 16 11 3.85286 5.56119 11
16 -11 -11 17.1002 7.34261 7
-5 16 -11 4.75449 7.99075 10
-11 -5 -11 8.09066 5.88095 8
5 -16 -11 6.33823 6.20595 8
-5 16 -11 13.1928 9.20583 12
-11 16 -11 9.8758 6.71621 9
5 11 -11 6.53321 8.73281 12
-11 -5 11 1.72655 7.31 10
-16 5 -11 4.13641 6.61075 9
11 -16 -11 7.63883 5.88561 7
-5 -11 -11 1.64773 5.24122 8
5 11 -11 -3.4803 7.54571 11
-5 16 11 5.65801 7.59063 11
-16 5 -11 3.19698 6.18265 8
-16 11 11 2.93287 6.57073 11
16 -11 11 0.96035 5.59134 7
-4 16 -11 10.805 9.53154 12
-16 4 11 11.1246 7.24199 10
16 -4 11 9.76656 6.10454 7
16 -12 -11 20.4305 6.90481 7
4 -16 -11 18.7156 6.57745 8
-4 16 -11 3.36232 7.30195 10
-12 16 11 20.0458 6.14237 11
-16 12 -11 9.20144 6.70712 9
-12 -4 -11 16.9088 6.05745 8
-4 -12 -11 13.7735 5.24867 8
4 12 -11 9.76786 8.39919 12
-16 4 -11 8.63799 6.57056 9
-12 16 -11 18.4309 6.85956 9
-4 16 11 12.2095 7.65464 11
4 12 -11 12.9916 7.78751 11
-16 12 11 16.3032 6.67312 11
-16 4 -11 9.41424 5.70199 8
12 -16 -11 8.50892 6.10644 7
16 -12 11 13.2442 5.83776 7
-12 -4 11 3.86113 7.34684 10
3 -16 -11 21.2317 5.85788 8
-16 3 11 13.7593 7.1868 10
-16 13 -11 33.9351 8.09775 9
-13 -3 -11 20.5403 5.44475 8
16 -3 11 19.091 6.48877 7
-3 16 -11 15.9839 7.51631 10
16 -13 -11 17.2887 6.27437 7
-3 16 -11 12.4624 10.1039 12
-13 16 11 19.4915 6.00787 11
-16 13 11 27.1602 7.00334 11
-3 16 11 24.1972 7.7023 11
-3 -13 -11 31.8146 6.06249 8
13 -16 -11 22.1014 6.37915 7
-16 3 -11 10.5884 4.15723 8
-13 16 -11 34.8159 7.41308 9
-13 -3 11 21.111 7.53931 10
-16 3 -11 15.1968 6.21345 9
3 13 -11 24.2753 9.12874 12
16 -13 11 27.285 6.2979 7
-16 2 11 20.6229 7.14028 10
2 -16 -11 19.4376 5.65093 8
-16 14 -11 25.0523 7.44197 9
-2 16 -11 20.0596 9.53447 12
16 -14 -11 19.351 6.02913 7
-14 16 11 16.9974 5.99545 11
16 -2 11 19.5863 5.70271 7
-14 -2 11 14.2611 7.08853 10
-2 -14 -11 16.6468 5.1319 8
2 14 -11 41.6361 10.2658 12
-14 16 -11 23.6731 6.90694 9
-16 14 11 14.0548 6.63539 11
-2 16 11 8.88023 6.59144 11
14 -16 -11 19.4056 6.03959 7
-16 2 -11 6.36092 5.59451 9
16 -14 11 18.0955 5.60799 7
-1 -15 11 4.60433 5.09265 9
-16 1 11 2.21351 6.41405 10
-16 15 -11 3.60754 6.35773 9
-1 16 -11 -1.8252 8.78266 12
1 -16 -11 0.82625 4.7271 8
-15 16 11 5.73111 5.48707 11
16 -15 -11 3.26914 5.59912 7
-1 -15 -11 8.34951 4.93214 8
-16 15 11 10.7905 6.01244 11
-16 1 -11 3.58641 4.99299 9
-15 16 -11 8.51637 6.65741 9
1 15 -11 14.9329 9.67454 12
-15 -1 11 7.0654 6.40364 10
15 -16 -11 7.42084 5.42012 7
-16 16 -11 45.9621 7.76867 9
0 16 -11 38.075 9.21811 12
-16 16 11 32.2786 6.58444 11
-16 0 11 34.7561 7.13512 10
0 -16 -11 25.7056 5.5536 8
16 -16 -11 34.708 6.40935 7
0 -16 11 30.3964 6.09518 9
17 -9 -11 0.72171 5.3843 7
-9 17 11 4.18813 6.25383 11
-17 9 -11 1.77867 6.0602 9
17 -8 11 2.76718 5.20448 7
-9 -8 -11 -1.9795 5.41804 8
9 8 -11 -3.2886 6.4793 11
9 -17 11 -5.4773 4.55617 8
9 8 -11 -0.1476 6.56061 12
-17 8 11 5.92103 5.91038 11
8 9 -11 0.29667 6.79111 11
-17 8 -11 5.11836 6.15403 9
17 -9 11 1.12808 5.13554 7
8 9 -11 0.21803 7.63151 12
8 -17 11 1.48706 4.66823 8
-8 -9 -11 3.29239 5.22687 8
-8 17 11 -0.0038 6.55563 11
-17 9 11 3.51764 5.91755 11
-17 7 11 0.98779 4.60374 10
-10 -7 -11 5.10213 5.50046 8
-17 10 -11 7.44841 6.17576 9
-7 17 -11 -4.0448 6.82428 10
10 -17 11 1.43815 4.67838 8
7 -17 -11 7.31441 4.94814 8
-10 17 11 5.95613 6.06534 11
17 -10 -11 11.9627 6.41868 7
17 -7 11 2.46822 5.35 7
10 7 -11 9.11623 6.74876 11
-7 -10 -11 6.27149 4.69867 8
10 -17 -11 4.31759 3.88389 7
17 -10 11 5.15109 5.21076 7
-17 7 -11 -1.3792 5.76632 9
-7 17 11 -0.0811 6.76231 11
-17 10 11 1.96735 6.0941 11
7 10 -11 -1.9364 6.84114 11
7 10 -11 3.43919 7.74129 12
6 -17 -11 8.97863 5.59016 8
-6 17 -11 1.23248 10.874 12
-6 17 -11 5.05545 7.50891 10
-11 17 11 6.82922 5.50645 11
17 -11 -11 10.0369 6.43834 7
-17 6 11 0.69477 6.11537 10
17 -6 11 2.93745 5.54008 7
-11 -6 -11 6.32453 5.34174 8
-17 11 -11 16.0371 6.55147 9
-17 11 11 11.7501 6.30515 11
6 11 -11 3.57805 7.44828 11
-17 6 -11 2.84567 5.91793 9
11 -17 -11 7.70659 5.11797 7
-11 -6 11 2.85103 6.66871 10
-6 -11 -11 5.88633 4.80547 8
17 -11 11 0.4939 5.08115 7
-6 17 11 0.96217 6.74932 11
6 11 -11 5.24136 7.26122 12
-5 17 -11 5.02356 8.28995 12
17 -12 -11 6.9797 5.9232 7
-17 5 11 -1.5753 6.17436 10
17 -5 11 6.98114 5.80358 7
-12 -5 -11 1.55228 4.25319 8
-12 17 11 7.93824 5.6274 11
-17 12 -11 1.34238 6.10452 9
5 -17 -11 2.33629 5.30427 8
-5 17 -11 -2.955 7.63575 10
5 12 -11 6.48232 7.81243 12
17 -12 11 0.7071 5.17865 7
-17 5 -11 3.93419 5.6729 9
-5 17 11 3.79997 6.6475 11
5 12 -11 3.56573 7.22572 11
12 -17 -11 11.5067 5.3362 7
-5 -12 -11 7.62307 4.60379 8
-12 -5 11 -2.4422 6.40503 10
-17 12 11 7.42182 6.18979 11
-17 4 11 6.097 6.14958 10
-17 13 -11 2.58787 6.70907 9
-4 17 -11 -0.8948 6.8914 10
17 -13 -11 7.92258 5.71634 7
17 -4 11 3.55809 5.84087 7
4 -17 -11 4.24903 5.18849 8
-13 17 11 2.49417 5.45837 11
-4 17 -11 -1.0129 8.44429 12
13 -17 -11 2.93044 5.20545 7
-17 4 -11 3.79686 5.58644 9
4 13 -11 6.20209 6.04451 11
17 -13 11 5.43669 5.12609 7
-13 17 -11 0.78502 5.98565 9
-13 -4 11 7.6298 6.68672 10
-17 13 11 5.9109 6.0031 11
-4 -13 -11 5.46618 4.65535 8
-4 17 11 3.62684 6.82442 11
4 13 -11 8.85804 7.7463 12
-17 3 11 7.70002 6.04751 10
17 -14 -11 16.8128 5.69632 7
-3 17 -11 10.3201 9.12616 12
-14 17 11 7.87523 5.51664 11
17 -3 11 9.26782 4.4324 7
-17 14 -11 13.4965 6.96827 9
3 -17 -11 15.6195 5.33656 8
-14 17 -11 21.7438 6.93744 9
17 -14 11 9.31646 5.23211 7
-3 -14 -11 19.8038 4.76331 8
-17 3 -11 14.2022 5.58238 9
-17 14 11 10.86 6.28403 11
14 -17 -11 13.5017 5.16971 7
-14 -3 11 11.4641 6.55074 10
-3 17 11 15.2725 6.43082 11
3 14 -11 23.3235 8.03834 12
-17 2 11 16.5363 6.27769 10
-17 15 -11 24.4638 7.60956 9
-15 17 11 13.7461 5.85913 11
-2 17 -11 17.0558 9.39093 12
17 -15 -11 21.0651 5.78575 7
2 -17 -11 16.9084 5.08974 8
15 -17 -11 14.208 5.16819 7
-17 2 -11 11.0517 4.93197 9
2 15 -11 29.0475 8.77588 12
-15 17 -11 30.0837 7.1195 9
-15 -2 11 10.544 6.28782 10
-17 15 11 15.9175 6.00529 11
-2 17 11 1.47458 3.80205 11
-2 -15 -11 18.5732 4.70411 8
-17 1 11 24.5955 6.38639 10
17 -16 -11 24.3253 5.95348 7
1 -17 -11 14.7826 4.60458 8
-17 16 -11 31.6221 7.58471 9
-16 17 11 30.5906 6.3774 11
-1 17 -11 32.319 9.66836 12
-1 -16 -11 23.9231 4.98943 8
-16 17 -11 45.6014 7.65639 9
16 -17 -11 22.3869 5.59456 7
1 -17 11 24.7343 5.29075 9
-16 -1 11 24.1031 6.76825 10
-17 16 11 13.2568 4.85112 11
1 16 -11 58.4146 10.1888 12
-17 17 -11 16.1754 7.03223 9
0 17 -11 2.8176 8.97816 12
0 -17 -11 10.2362 4.91857 8
17 -17 -11 14.2349 5.50442 7
9 9 -11 11.1695 6.45485 11
18 -9 11 7.27387 5.00235 7
9 9 -11 1.69316 4.82791 12
-18 9 -11 5.39303 5.74628 9
-9 18 11 9.02976 6.16899 11
9 -18 11 6.98754 4.29124 8
-18 9 11 0.96775 5.59422 11
-9 -9 -11 9.78441 4.80236 8
-18 10 -11 0.20759 5.76748 9
-10 18 11 2.62787 5.82006 11
-18 8 11 2.48339 5.42574 11
18 -8 11 -0.3614 4.69928 7
10 -18 11 -6.1712 4.27964 8
18 -10 -11 2.36971 4.61116 7
-10 -8 -11 -0.299 4.19689 8
18 -10 11 -0.7456 4.92902 7
8 10 -11 2.25131 6.64484 11
-8 18 11 -6.3555 6.18222 11
-18 8 -11 3.90099 5.61498 9
-8 -10 -11 1.37303 4.67566 8
8 10 -11 4.01877 6.26088 12
-18 10 11 7.44601 5.74729 11
-11 -7 -11 1.25009 4.00536 8
-11 18 11 4.50055 5.27752 11
-18 7 11 6.71221 5.30648 11
7 -18 -11 7.21414 3.8941 8
-18 11 -11 5.24322 5.65778 9
18 -7 11 2.43057 5.04549 7
-18 7 11 1.96832 4.54975 10
-7 18 -11 -4.5564 5.8733 10
11 -18 11 6.46354 4.86993 8
18 -11 -11 5.95681 5.57735 7
-11 -7 11 0.47884 6.1794 10
-18 7 -11 1.36972 5.23855 9
-7 -11 -11 5.08509 4.28535 8
7 11 -11 -7.4274 6.66488 11
-7 18 11 2.59433 6.03118 11
18 -11 11 2.84905 4.77426 7
-18 11 11 5.09414 5.48865 11
7 11 -11 1.97671 7.17717 12
-6 18 -11 6.37413 6.92799 10
6 -18 -11 2.16013 4.87815 8
-18 12 -11 1.92548 5.94355 9
18 -12 -11 2.30836 5.47573 7
-12 18 11 1.7178 5.38802 11
-18 6 11 0.63812 4.63703 10
12 -18 11 -0.7381 4.44837 8
18 -6 11 0.87988 5.15186 7
-6 18 11 3.6887 6.32795 11
-18 12 11 8.14344 5.50084 11
12 -18 -11 0.70676 3.77125 7
18 -12 11 -1.993 4.73125 7
6 12 -11 -2.8703 7.18996 12
-6 -12 -11 1.21729 3.9818 8
-12 -6 11 -1.7456 6.13243 10
-18 6 -11 0.43534 5.26588 9
6 12 -11 -0.9848 6.95552 11
-5 18 -11 2.32151 5.4081 12
-13 18 11 15.5583 6.08651 11
-5 18 -11 3.81569 6.8894 10
5 -18 -11 14.5535 5.07758 8
18 -13 -11 9.93064 5.60342 7
-18 5 11 1.01365 5.25951 10
13 -18 11 3.91975 4.52706 8
-18 13 -11 4.02555 6.09876 9
18 -5 11 10.3253 5.62301 7
13 -18 -11 5.46735 3.70818 7
5 13 -11 1.95999 6.75403 12
-5 -13 -11 5.15729 4.04307 8
-5 18 11 5.88634 6.32236 11
-13 -5 11 2.43626 6.4131 10
-18 5 -11 -1.8269 5.1195 9
-18 13 11 -0.8299 4.61271 11
5 13 -11 0.94025 6.58336 11
18 -13 11 0.35801 4.67604 7
-18 4 11 11.0382 5.22407 10
18 -14 -11 11.4553 5.27886 7
14 -18 11 8.90172 4.57366 8
4 -18 -11 11.4894 4.94969 8
-4 18 -11 9.23382 8.22154 12
-18 14 -11 14.9853 7.22528 9
-14 18 11 5.03791 5.79908 11
14 -18 -11 5.1973 4.16208 7
18 -14 11 4.2521 4.54225 7
-18 4 -11 6.90113 5.25064 9
-14 -4 11 11.5119 6.36989 10
-4 -14 -11 10.3073 3.82307 8
4 14 -11 13.1532 7.2451 12
-18 14 11 2.32844 5.28727 11
-4 18 11 5.81383 5.54122 11
-18 3 11 9.97721 5.59096 10
3 -18 -11 14.7075 5.00962 8
-18 15 -11 11.2696 6.94972 9
-3 18 -11 31.0974 9.72666 12
15 -18 11 12.5192 4.853 8
-15 18 11 7.27616 5.93142 11
18 -15 -11 8.79539 5.25291 7
3 15 -11 20.0528 7.9254 12
15 -18 -11 16.794 4.70226 7
-3 18 11 1.85549 3.7777 11
-15 -3 11 7.80369 6.39009 10
-18 3 -11 14.4903 4.86934 9
-3 -15 -11 11.0083 4.28063 8
-16 18 11 1.22322 3.8059 11
16 -18 11 0.92452 5.00814 8
2 -18 -11 1.94437 4.81618 8
-2 18 -11 10.7618 9.61005 12
-18 16 -11 6.28725 6.73508 9
-2 -16 -11 2.79826 4.5293 8
-16 18 -11 3.14775 6.75693 9
2 16 -11 8.95787 8.81287 12
-19 10 -11 5.154 5.49453 9
10 -19 11 -0.3427 2.77771 8
19 -9 11 10.1287 5.21842 7
-10 19 11 2.08759 5.93725 11
-19 9 -11 4.73708 5.3452 9
-9 19 11 10.8327 6.23618 11
-9 -10 -11 0.99944 5.37033 8
19 -10 11 6.51483 5.4079 7
9 10 -11 2.77774 6.52442 11
-10 -9 11 -1.7844 6.21362 10
-11 19 11 2.14173 5.74443 11
19 -8 11 1.03688 5.42075 7
-19 11 -11 3.07236 5.87769 9
11 -19 11 1.56138 4.06432 8
8 11 -11 -1.0609 6.88221 11
-11 -8 11 -2.0241 6.12536 10
-19 8 -11 3.40454 5.21867 9
-8 -11 -11 2.0623 2.96054 8
19 -11 11 9.47043 5.24206 7
-8 19 11 2.23132 6.02056 11
12 -19 11 5.1578 4.54646 8
-19 12 -11 -2.4378 5.81604 9
-12 19 11 0.51231 6.11178 11
19 -12 -11 4.05084 3.75249 7
19 -7 11 4.05361 5.59322 7
-19 7 -11 1.31159 5.2772 9
7 12 -11 1.85058 4.42553 12
-7 19 11 -2.98 5.93435 11
-12 -7 11 -9.0556 6.19737 10
19 -12 11 -1.8712 4.6921 7
7 12 -11 -5.3596 6.98397 11
-7 -12 -11 -0.8589 3.43246 8
19 -6 11 8.28916 4.62997 7
6 -19 -11 6.80281 3.8613 8
19 -13 -11 -0.3365 5.17862 7
13 -19 11 0.18177 4.74759 8
-19 13 -11 9.46503 7.11379 9
-13 19 11 7.04176 6.17129 11
-13 -6 11 1.7118 6.44224 10
-6 19 11 -5.0541 5.99164 11
-19 6 -11 3.41869 5.18679 9
19 -13 11 -3.821 4.60027 7
-6 -13 -11 0.96722 3.3415 8
6 13 -11 4.71938 6.30717 12
6 13 -11 0.69372 4.98437 11
14 -19 11 1.32361 4.96329 8
-14 19 11 0.47537 5.9612 11
19 -14 -11 6.8253 5.86828 7
-19 14 -11 -7.2475 6.6452 9
5 -19 -11 5.51996 4.83404 8
-5 -14 -11 5.63784 3.69562 8
19 -14 11 4.9378 4.27743 7
-19 5 -11 3.66702 4.98208 9
-5 19 11 4.29201 5.87299 11
5 14 -11 3.04095 7.49911 12
1 -1 12 106.367 18.1872 6
1 0 12 98.2005 17.5339 6
-1 0 12 113.565 18.3177 6
-1 1 12 107.676 17.8043 6
0 1 12 116.159 18.7769 6
0 -1 -12 63.4806 9.03584 7
-1 0 -12 60.0261 9.11136 7
0 -1 12 88.5753 17.2692 6
1 -2 -12 143.53 16.4413 7
-1 -1 -12 156.974 16.5581 7
-1 -1 12 232.213 25.5928 6
1 -2 12 228.898 25.24 6
2 -1 12 236.762 26.0365 6
-2 1 12 224.962 24.9923 6
2 0 12 110.217 18.6577 6
2 -2 -12 65.3886 9.76252 7
2 -2 12 96.1571 17.7121 6
0 -2 12 69.6069 15.7728 6
0 -2 -12 89.3809 10.5865 7
0 2 12 124.882 19.4691 6
-2 2 12 122.733 18.8112 6
-2 0 -12 78.5275 10.6297 7
-2 0 12 107.347 18.0986 6
3 -2 -12 -0.8265 6.02484 7
2 -3 12 -0.8246 10.1653 6
1 -3 -12 15.2385 7.36253 7
-3 2 -12 17.9915 6.35597 7
-3 1 12 14.6378 13.1661 6
-2 -1 -12 22.7469 8.4445 7
1 2 12 28.8828 15.1008 6
3 -1 12 23.8124 14.6995 6
-2 3 12 32.2401 14.755 6
-1 -2 12 18.8499 12.6939 6
2 1 12 15.091 13.8629 6
3 -2 12 23.0374 13.5188 6
-2 -1 12 32.9616 14.1964 6
-1 3 12 29.6344 15.2996 6
-3 2 12 18.8754 13.2575 6
1 -3 12 4.87649 10.4032 6
2 -3 -12 24.4551 8.36526 7
-3 1 -12 36.1793 7.77789 7
-1 -2 -12 19.8436 8.03661 7
0 -3 -12 151.974 20.0061 5
3 -3 12 156.982 23.0698 4
0 -3 -12 96.7432 14.4262 7
0 3 12 166.79 23.9544 6
0 3 -12 111.194 13.5287 12
-3 3 12 113.825 18.6324 6
-3 0 -12 103.295 13.5139 7
3 -3 -12 106.567 14.0179 7
3 0 12 132.622 20.2688 6
-3 0 12 168.207 23.2234 6
2 2 12 121.798 19.6908 6
4 -2 12 110.907 18.2278 6
2 2 -12 101.928 13.316 12
2 -4 -12 99.9533 11.8095 7
2 -4 12 126.686 19.068 4
-2 -2 -12 106.451 14.8877 7
-4 2 12 140.675 22.6203 6
-2 -2 12 149.626 19.8043 6
-2 4 12 157.59 23.2433 6
-4 2 -12 72.5044 11.0144 7
1 -4 -12 62.6482 10.2083 7
4 -3 -12 47.411 9.03458 7
1 -4 -12 24.6924 12.8764 5
-3 -1 -12 76.3759 10.7341 7
1 3 12 51.2638 15.6191 6
4 -1 12 83.9952 17.6848 6
3 -4 12 83.9741 17.4082 4
-3 4 12 114.561 19.0901 6
4 -1 12 61.7213 15.6593 4
4 -3 12 89.6555 17.1904 4
1 3 -12 39.0185 9.86094 12
-4 3 12 75.2269 17.0609 6
-1 -3 -12 70.6693 15.5981 5
-1 -3 -12 65.7711 10.0302 7
3 -4 -12 63.4213 10.1631 7
3 1 12 77.5038 18.736 6
-1 4 12 77.3709 17.3015 6
-4 1 -12 63.2551 9.8217 7
-4 4 12 3.8973 13.1236 6
0 4 -12 18.0424 9.11076 12
4 -4 12 4.66922 13.2688 4
0 4 12 6.59569 14.6075 6
0 -4 -12 19.171 13.4181 5
4 0 12 -9.4705 14.8801 6
-4 0 -12 4.53005 7.93594 7
0 -4 -12 3.35356 7.6471 7
-4 0 -12 4.06839 6.32708 8
4 -4 -12 1.54036 7.8359 7
-3 -2 -12 4.89021 8.30611 7
-2 5 -12 2.61554 8.05003 12
3 2 -12 11.2589 9.27859 12
2 -5 -12 5.44567 8.27365 7
-3 -2 -12 7.56028 7.02732 8
5 -3 -12 1.74143 6.61461 7
-2 -3 12 -6.5852 10.6812 6
5 -2 12 -6.7673 12.8888 6
3 -5 12 3.6513 13.0206 4
-3 5 12 12.9778 15.8114 6
5 -2 12 13.2626 13.9024 4
2 3 12 8.45981 15.9095 6
-5 3 -12 4.2729 6.18638 8
5 -3 12 4.89581 12.4007 4
-2 -3 -12 7.94756 8.69584 7
2 -5 12 -5.4486 11.4398 4
-5 2 -12 6.36996 6.95309 8
3 2 12 -8.6712 15.3096 6
-2 -3 -12 2.1503 12.5519 5
2 3 -12 10.724 8.20611 12
3 -5 -12 3.61136 7.87915 7
-5 3 12 6.23898 14.3785 6
-2 -3 -12 2.23178 5.60381 8
-2 5 12 2.16051 13.2016 6
5 -1 12 40.6711 14.9902 4
-4 -1 -12 19.6562 7.39588 8
1 -5 -12 21.8854 13.3889 5
-4 -1 -12 29.7437 8.50581 7
1 4 12 57.6297 17.6405 6
4 -5 12 37.5793 14.3464 4
-1 5 -12 22.8892 8.42641 12
5 -1 12 31.087 15.3495 6
5 -4 -12 29.8849 8.5868 7
-4 5 12 23.6755 14.3719 6
1 -5 -12 35.7509 8.81155 7
-5 4 -12 11.5747 6.08364 8
-1 5 12 32.3205 14.8022 6
4 -5 -12 32.1936 8.51056 7
-5 1 -12 19.647 7.81206 8
-5 4 12 17.9521 13.8804 6
-1 -4 -12 33.044 8.81607 7
-1 -4 -12 37.9117 14.6547 5
4 1 12 29.8271 17.0188 6
1 4 -12 22.0182 9.64165 12
5 -4 12 22.5279 13.2595 4
5 -5 -12 42.2153 9.84844 7
5 0 12 68.0661 18.1055 6
5 0 12 96.3096 19.0562 4
5 -5 12 57.0867 15.5554 4
-5 0 -12 48.2799 9.75244 7
-5 5 12 68.8543 17.6007 6
0 5 12 56.5061 16.8152 6
0 5 -12 60.1882 11.6637 12
0 -5 -12 41.8296 14.596 5
-5 0 -12 44.7995 8.87283 8
0 -5 -12 52.4897 9.32494 7
-6 3 -12 18.4242 8.11637 8
3 3 -12 46.3794 10.9192 12
-3 -3 -12 28.7948 9.14253 7
-3 -3 -12 17.4981 7.43518 8
-3 6 12 34.7298 15.7481 6
6 -3 12 23.4174 13.474 4
3 3 12 31.5034 16.2644 6
6 -3 -12 6.02053 6.95335 7
-3 -3 -12 35.8626 14.1198 5
3 -6 -12 34.8225 9.01604 7
6 -2 12 -5.7862 12.4993 6
-4 -2 -12 24.775 7.80402 8
6 -4 -12 30.5379 8.98142 7
-2 6 -12 5.72391 7.64737 12
-6 4 -12 33.6104 8.15818 8
-4 -2 -12 27.1131 8.85052 7
2 -6 -12 0.44435 12.4768 5
6 -2 12 35.092 14.5657 4
2 4 12 21.7264 15.643 6
4 2 -12 28.402 9.14835 12
2 -6 -12 31.0467 8.59186 7
4 -6 12 -1.1797 11.0342 4
-4 6 12 26.2647 15.182 6
-2 -4 -12 39.6047 8.32937 8
-2 -4 -12 54.3916 15.9068 5
-2 6 12 46.5741 15.8478 6
4 -6 -12 49.575 9.79831 7
-6 2 -12 29.6375 8.41319 8
-2 -4 -12 50.8088 9.92575 7
6 -4 12 46.5608 14.7928 4
4 2 12 41.4893 17.4357 6
2 4 -12 48.1101 11.0538 12
6 -5 -12 26.7806 9.18123 7
-5 6 12 17.3496 6.79915 11
-1 6 -12 31.4316 10.624 12
1 5 12 50.5961 18.0827 6
1 -6 -12 30.9914 13.6619 5
6 -1 12 22.4063 15.342 6
-5 6 12 31.2627 15.155 6
-5 -1 -12 31.1709 9.51387 7
-6 5 -12 27.4402 8.12653 8
-5 -1 -12 21.663 7.93417 8
6 -1 12 29.077 15.1637 4
1 -6 -12 26.136 8.39322 7
5 -6 12 7.6467 12.5207 4
-6 1 -12 27.8056 8.14936 8
5 -6 -12 29.3165 8.67022 7
-5 6 -12 8.71972 5.74433 8
5 1 12 27.4806 14.8272 4
5 1 12 19.899 16.3351 6
-1 6 12 28.9769 15.1584 6
-1 -5 -12 29.9794 8.68413 7
6 -5 12 13.0778 13.0248 4
-1 -5 -12 25.5432 7.70609 8
-1 -5 -12 18.4433 13.6002 5
-6 5 12 30.3671 16.1049 6
1 5 -12 12.6557 10.0441 12
6 0 12 7.26539 13.1783 4
6 -6 -12 16.6796 8.7256 7
-6 0 -12 6.97674 7.68321 8
6 -6 12 8.07147 13.229 4
0 -6 -12 9.10959 7.67672 7
-6 6 12 10.1355 14.4602 6
-6 6 12 11.5466 7.8775 11
0 -6 -12 3.67003 7.12214 8
0 6 -12 14.7157 10.2526 12
0 6 12 20.0589 16.7583 6
0 -6 -12 16.1634 14.4424 5
6 0 12 14.3035 15.9732 6
-6 6 -12 5.37976 7.12448 8
-4 -3 -12 64.7549 9.54906 8
4 3 -12 71.8958 12.1037 12
-4 -3 -12 57.7986 9.85923 7
3 -7 -12 69.1024 10.3158 7
-4 -3 -12 57.5051 13.9496 5
3 4 12 95.8194 20.6062 6
-7 4 -12 43.1505 9.4351 8
7 -3 12 51.6843 14.7148 4
7 -4 -12 52.699 10.2251 7
-4 7 12 54.7977 16.2926 6
7 -4 12 82.5229 16.5948 4
-3 -4 -12 66.8422 15.3181 5
-3 -4 -12 80.9707 10.9453 7
-7 3 -12 68.5475 10.3828 8
4 3 12 75.7837 20.2718 6
-3 7 12 84.8352 18.7488 6
3 4 -12 54.3658 11.6516 12
4 -7 -12 54.6905 10.0028 7
-3 -4 -12 70.5273 9.73318 8
7 -2 12 24.5658 14.0121 4
-5 -2 -12 16.005 9.25286 7
-2 7 -12 30.3945 10.3238 12
5 2 -12 21.5076 9.57113 12
2 5 12 50.1672 17.6864 6
7 -2 12 -2.5161 18.9967 6
7 -5 -12 20.2597 9.32892 7
2 -7 -12 23.3333 8.40169 7
5 -7 12 14.4472 12.0727 5
-5 -2 -12 23.3502 7.92471 8
-5 7 12 15.6708 7.92999 11
-7 5 -12 19.9938 8.10884 8
-5 7 12 6.21195 15.1065 6
2 -7 -12 1.5215 13.3993 5
-2 7 12 39.757 16.8885 6
-5 7 -12 12.4348 5.43293 8
5 2 12 22.4169 16.7827 6
-7 2 -12 31.7077 8.44706 8
7 -5 12 35.3573 14.3209 4
-2 -5 -12 36.9756 9.61269 7
2 5 -12 23.7356 9.9846 12
-2 -5 -12 19.8824 7.61045 8
5 -7 -12 32.4212 9.16161 7
5 2 12 32.7199 15.6006 4
-2 -5 -12 40.1686 14.462 5
7 -1 12 39.3694 15.1555 6
-6 -1 -12 59.4644 9.22435 8
1 -7 -12 37.2296 8.21941 8
7 -1 12 67.6227 15.5991 4
-7 6 -12 50.0592 9.3073 8
1 -7 -12 67.7621 9.52948 7
1 -7 -12 87.3906 16.8761 5
-6 7 12 73.753 10.5064 11
1 6 12 135.388 22.6539 6
-6 7 12 85.5919 18.3862 6
-1 7 -12 52.3327 11.7131 12
7 -6 -12 78.1283 11.2296 7
-1 -6 -12 132.248 13.7169 7
-6 7 -12 93.0694 13.157 8
-7 1 -12 123.46 12.7395 8
1 6 -12 127.693 15.752 12
6 1 12 109.098 19.2787 4
-1 7 12 142.473 22.9853 6
6 -7 -12 122.216 13.2824 7
6 1 12 123.347 21.8176 6
-1 -6 -12 132.551 13.4474 8
-1 -6 -12 116.643 18.7714 5
7 -6 12 114.069 18.3019 4
-7 6 12 124.497 21.238 6
0 -7 -12 27.124 8.81504 8
-7 7 12 24.7796 15.1222 6
-7 7 -12 26.4599 8.179 8
0 7 -12 25.5566 10.8268 12
7 -7 12 27.5865 12.8321 4
0 -7 -12 37.3158 15.1248 5
0 7 12 35.6715 17.8043 6
7 0 12 33.7958 15.0667 4
-7 0 -12 29.5864 8.3582 8
-7 7 12 17.5168 8.45792 11
7 0 12 23.7076 16.2591 6
7 -7 -12 25.2786 9.12979 7
0 -7 -12 28.7476 7.93886 7
-4 -4 -12 96.7708 17.1928 5
4 -8 -12 136.492 13.3867 7
-4 -4 -12 126.395 12.6361 8
-4 -4 -12 108.673 15.1428 7
4 4 -12 136.712 15.3346 12
8 -4 12 112.178 18.5754 4
8 -4 -12 104.818 12.9689 7
-8 4 -12 101.954 12.6613 8
4 4 12 97.0456 20.9746 6
-4 8 12 143.549 22.8643 6
-5 -3 -12 36.977 9.45586 7
-5 -3 -12 40.1137 8.57848 8
-5 8 12 41.8979 16.5077 6
8 -5 -12 34.8359 10.1743 7
-8 5 -12 20.1466 8.73438 8
8 -3 12 41.885 13.9334 4
-5 8 12 24.6384 8.70518 11
3 5 12 46.2103 18.0476 6
5 -8 12 5.12189 10.1037 5
5 3 -12 40.1341 10.4602 12
3 -8 -12 43.0877 9.23425 7
-3 8 -12 17.4852 9.36168 12
3 5 -12 53.577 11.3768 12
5 3 12 81.3903 19.4483 4
5 3 12 68.196 18.4189 6
-8 3 -12 47.5663 9.5447 8
-3 -5 -12 67.163 9.8324 8
-3 -5 -12 82.7421 10.9991 7
-3 -5 -12 64.3039 15.1203 5
8 -5 12 48.4234 14.2008 4
5 -8 -12 62.977 9.98211 7
-3 8 12 77.3437 18.6221 6
2 -8 -12 1.40335 6.31646 8
-8 6 -12 2.40743 8.4297 8
-6 8 12 5.80293 15.4592 6
-6 -2 -12 11.8705 7.32653 8
6 2 -12 12.8575 9.7723 12
2 -8 -12 -4.5985 13.097 5
6 -8 12 12.6335 12.5099 5
2 6 12 4.92725 16.4857 6
-6 8 12 2.28356 7.96337 11
8 -2 12 7.71953 13.3785 4
-2 8 -12 19.0421 10.8121 12
2 -8 -12 4.60198 7.54518 7
8 -6 -12 5.99752 9.30071 7
-2 8 12 14.6578 15.9075 6
6 2 12 15.5741 14.6391 4
-2 -6 -12 6.5703 7.98814 8
-2 -6 -12 19.6336 8.74735 7
2 6 -12 25.9225 10.7543 12
6 -8 -12 27.9174 9.18849 7
8 -6 12 11.2436 12.2552 4
-2 -6 -12 26.244 14.0115 5
-6 8 -12 9.63323 7.13207 8
-8 2 -12 9.06775 7.93268 8
6 2 12 24.418 17.4034 6
-8 7 -12 60.253 10.1263 8
1 -8 -12 42.9749 15.7782 5
1 -8 -12 77.2967 9.86861 7
8 -7 -12 49.5322 10.841 7
-7 8 12 51.4946 16.6533 6
1 7 12 71.8072 18.7256 6
-7 -1 -12 86.7663 10.2648 8
1 -8 -12 73.2389 10.705 8
8 -1 12 62.4795 16.1411 4
7 -8 12 49.5931 14.5403 5
-1 8 -12 59.2552 12.1974 12
-7 8 12 68.3831 10.4781 11
-1 -7 -12 53.839 9.7691 8
-8 1 -12 80.6277 10.3087 8
7 1 12 55.124 16.3255 4
7 1 12 79.7019 19.7609 6
1 7 -12 62.3579 12.8015 12
-7 8 -12 51.5395 9.44314 8
-1 -7 -12 64.5343 15.4224 5
-1 -7 -12 66.9457 10.1536 7
-8 7 12 51.9906 9.7518 11
-8 7 12 50.5178 16.354 6
8 -7 12 45.9418 14.6143 4
-1 8 12 78.5052 19.1171 6
7 -8 -12 72.8261 11.2301 7
8 0 12 23.163 15.0076 6
8 -8 -12 35.7527 9.35686 7
-8 0 -12 32.9486 8.18488 8
0 -8 -12 28.0582 8.63543 8
-8 8 12 38.3087 16.6413 6
0 -8 -12 30.4298 8.27225 7
8 -8 12 -0.9272 11.2703 4
8 0 12 32.4669 14.9323 4
0 -8 -12 53.5176 15.0712 5
-8 8 -12 28.0973 8.3906 8
-8 8 12 29.7787 8.68537 11
8 -8 12 44.7988 14.4554 5
0 8 12 49.5631 17.8248 6
0 8 -12 42.045 11.6024 12
-5 -4 -12 16.6763 12.3659 5
4 -9 -12 11.6017 7.64705 7
4 5 12 14.9347 16.5092 4
-5 -4 -12 4.61529 7.00476 8
-5 9 12 4.33176 8.32386 11
-4 9 -12 0.10184 7.94959 12
4 5 12 18.5874 17.4649 6
9 -5 -12 6.61953 9.86595 7
-9 5 -12 10.666 8.31428 8
-5 9 12 1.59722 14.9629 6
5 4 -12 7.84653 9.51485 12
9 -4 12 11.4327 13.3877 4
5 -9 -12 6.59448 7.34908 7
-4 9 12 20.048 16.7868 6
-4 -5 -12 10.1632 6.80395 8
5 4 12 3.84656 16.9328 6
-4 -5 -12 5.99016 7.9886 7
-9 4 -12 9.25869 8.32361 8
9 -5 12 17.8903 12.5307 4
5 4 12 13.6764 16.3305 4
9 -4 -12 8.08867 7.86538 7
-4 9 12 12.2302 8.58921 11
4 5 -12 2.37896 10.1381 12
-4 -5 -12 3.69332 12.606 5
9 -6 -12 36.5023 10.9639 7
-9 6 -12 40.8943 9.25508 8
-6 -3 -12 23.2874 7.99494 8
9 -3 12 53.8434 15.5773 4
-6 9 12 34.5665 8.82676 11
-3 9 -12 18.6323 10.3727 12
3 -9 -12 31.3288 7.9833 7
6 -9 12 -0.7443 9.6112 5
-6 9 12 26.9781 16.1708 6
6 3 -12 37.8125 10.3325 12
3 6 12 31.7052 18.1033 6
-9 3 -12 25.9569 9.06869 8
-3 -6 -12 40.5525 14.5781 5
-3 -6 -12 36.8824 8.5662 7
-3 -6 -12 26.3204 7.63971 8
-3 9 12 31.0268 16.8779 6
6 3 12 31.1135 16.1858 4
6 -9 -12 25.0701 8.41166 7
9 -6 12 21.3556 13.1021 4
3 6 -12 44.7517 12.2374 12
-3 9 12 10.2479 6.52593 11
6 3 12 36.1536 17.8995 6
-7 9 12 37.5582 17.6518 6
9 -2 12 33.2757 13.7109 4
7 2 -12 51.8878 10.7239 12
2 -9 -12 0.11564 13.2422 5
-2 9 -12 50.9663 11.9456 12
9 -7 -12 43.4425 10.6477 7
2 -9 -12 28.9615 8.84763 8
7 -9 12 38.7527 12.5455 5
2 -9 -12 47.9085 8.38461 7
-7 9 12 52.0703 9.47726 11
2 7 12 44.509 17.2131 6
-7 -2 -12 51.0964 8.76874 8
-9 7 -12 41.7109 9.16163 8
9 -7 12 20.2404 13.5253 4
2 7 -12 65.7938 12.5703 12
7 -9 -12 36.4571 9.41989 7
-2 -7 -12 42.2003 8.97426 7
-2 -7 -12 47.4375 13.8359 5
7 2 12 54.1091 16.4566 4
-2 -7 -12 39.9152 8.83038 8
-9 2 -12 47.5907 9.17459 8
-2 9 12 50.3036 18.1332 6
-9 7 12 46.0008 15.6496 6
7 2 12 66.8781 19.0763 6
-8 -1 -12 4.76437 7.34185 8
1 -9 -12 -3.2 6.65644 7
1 -9 -12 5.7226 13.8058 5
-8 9 12 8.93583 14.9815 6
8 -9 12 1.68417 12.0121 5
1 8 12 13.2266 17.2598 6
-9 8 -12 0.15822 7.73097 8
9 -8 -12 -1.6207 8.83898 7
9 -1 12 6.21729 13.1161 4
-9 8 -12 -0.6821 6.00796 9
1 -9 -12 -3.8281 7.96308 8
-1 9 -12 -0.1528 10.2811 12
-8 9 12 8.86861 7.8345 11
-1 -8 -12 4.01024 7.92272 8
-9 1 -12 3.10106 7.92274 8
8 1 12 5.46805 14.2468 4
-9 8 12 27.7858 15.1338 6
-8 9 -12 0.0031 6.21773 9
9 -8 12 4.61168 13.7235 5
-1 9 12 15.893 17.1061 6
1 8 -12 16.5442 10.6505 12
-9 8 12 1.61999 7.66247 11
-1 -8 -12 0.67349 12.7708 5
9 -8 12 -5.0133 12.1603 4
8 1 12 3.20085 15.0501 6
8 -9 -12 -3.1298 8.46972 7
-1 -8 -12 2.75165 7.53491 7
0 -9 -12 2.58057 7.48043 7
9 0 12 15.0425 14.002 4
9 -9 12 14.3997 13.0888 5
0 9 -12 -2.4998 10.7559 12
-9 9 12 1.01285 7.3449 11
0 9 12 1.35501 16.8814 6
-9 9 12 8.31668 14.3884 6
9 -9 -12 0.742 8.31886 7
0 -9 -12 2.07757 7.78309 8
-9 0 -12 9.42974 7.55494 8
0 -9 -12 8.26309 13.5133 5
9 0 12 -0.0255 20.7568 6
-9 9 -12 -0.9389 7.51422 9
5 5 12 15.6781 17.3435 6
5 -10 -12 5.76286 7.29625 7
-5 -5 -12 14.5714 12.7205 5
5 5 12 -4.7159 14.7264 4
-5 -5 -12 12.5639 7.13203 8
-5 10 12 -1.4358 14.4797 6
-10 5 -12 0.01205 8.62724 8
5 5 -12 8.74981 8.97643 12
10 -5 12 8.13789 12.7694 4
-5 10 12 3.21269 8.91607 11
10 -5 -12 8.09161 9.49027 7
-6 10 12 4.14946 14.7367 6
-6 -4 -12 42.9074 13.7164 5
6 4 -12 36.8293 10.4565 12
10 -6 -12 32.4356 10.8825 7
4 -10 -12 38.8386 8.2164 7
4 6 12 63.4753 19.9423 6
-10 6 -12 36.9197 9.34586 8
-6 10 12 39.9573 9.58776 11
-6 -4 -12 56.0128 8.98221 8
-4 10 -12 34.5033 10.2245 12
10 -4 12 36.8151 14.1275 4
4 6 12 -6.6321 18.2402 4
-4 10 12 45.9061 9.95368 11
-4 10 12 54.3007 18.2199 6
-4 -6 -12 63.4508 10.1331 7
-4 -6 -12 48.4686 13.771 5
4 6 -12 42.7232 11.4539 12
10 -6 12 67.1553 16.194 4
-4 -6 -12 68.9321 9.22228 8
6 4 12 69.7766 18.8345 6
6 4 12 18.3361 15.0241 4
-10 4 -12 59.2104 10.1026 8
6 -10 -12 64.558 9.45776 7
3 -10 -12 17.1803 7.86232 8
-7 10 12 -1.2837 14.0382 6
-3 10 -12 26.5542 11.0939 12
-10 7 -12 10.8086 6.69 9
10 -3 12 19.5974 13.1083 4
-10 7 -12 21.6299 8.92805 8
-7 10 12 11.002 8.13153 11
-7 -3 -12 23.2604 7.84215 8
7 3 -12 23.5188 9.87925 12
7 -10 12 4.18009 10.533 5
3 7 12 26.1628 17.9446 6
10 -7 -12 5.91943 9.72316 7
3 -10 -12 19.8445 7.4192 7
3 7 -12 8.97101 10.2875 12
-3 -7 -12 21.4044 13.1565 5
-3 10 12 15.8768 7.76651 11
10 -7 12 16.3351 13.7636 4
-7 10 -12 10.0404 6.87764 9
-10 3 -12 14.9043 8.48543 8
7 3 12 1.73033 13.7756 4
-3 -7 -12 14.5617 7.39549 8
-3 10 12 7.91863 16.8457 6
-3 -7 -12 27.1147 7.66422 7
7 3 12 25.309 17.5999 6
7 -10 -12 12.394 7.70027 7
-8 -2 -12 18.8287 7.53663 8
10 -8 -12 32.0855 10.1434 7
-10 8 -12 19.293 8.40569 9
8 -10 12 14.9022 10.9679 5
-8 10 12 2.40012 14.6527 6
2 8 12 31.9404 17.8712 6
2 -10 -12 23.2607 8.9028 8
-2 10 -12 26.4515 11.7161 12
10 -2 12 23.9074 13.6206 4
2 -10 -12 30.762 7.29967 7
-10 8 -12 25.3413 8.68955 8
-8 10 12 34.361 8.55096 11
-10 8 12 29.734 14.7593 6
8 2 12 49.2297 16.8157 6
-8 10 -12 29.9414 8.14245 9
-2 -8 -12 30.3993 7.46682 7
10 -8 12 53.7369 15.9403 5
-10 2 -12 65.8191 9.57528 8
8 2 12 15.6833 14.4588 4
-2 -8 -12 36.0704 12.9256 5
-2 10 12 31.0022 17.092 6
8 -10 -12 45.8891 9.33758 7
10 -8 12 10.0847 12.1717 4
2 8 -12 73.9454 12.802 12
-2 -8 -12 40.9544 8.40637 8
-10 8 12 39.4414 8.85537 11
-9 -1 -12 11.2292 7.48214 8
9 -10 12 7.54914 11.3018 5
1 -10 -12 8.36911 6.81233 7
-1 10 -12 7.16219 11.0117 12
1 -10 -12 0.61446 7.86046 8
-9 10 12 -0.1373 7.32071 11
1 -10 -12 -1.597 12.5229 5
10 -1 12 9.83516 13.2864 4
1 9 12 0.56027 15.6217 6
-10 9 -12 11.7517 8.47827 9
10 -9 -12 11.1236 8.82356 7
-9 10 -12 -5.1634 7.72938 9
-1 -9 -12 15.659 12.514 5
10 -9 12 4.02868 13.2855 5
-1 -9 -12 5.43211 6.83595 7
-10 9 12 -1.0752 7.59838 11
1 9 -12 5.48496 10.3556 12
-1 10 12 -7.4487 15.8968 6
9 1 12 -4.589 12.8157 4
-10 9 12 0.09499 13.437 6
9 1 12 0.31564 12.7496 6
-10 1 -12 17.4822 7.79331 8
9 -10 -12 -8.8744 8.33855 7
-1 -9 -12 0.3077 7.06222 8
10 -10 12 12.9066 12.218 5
-10 0 -12 11.6138 7.16744 8
0 -10 -12 4.90581 7.47895 8
0 10 -12 3.80828 10.783 12
10 -10 -12 -3.684 8.07817 7
0 10 12 -4.2621 18.0449 6
0 -10 -12 11.3756 6.68237 7
-10 10 -12 18.5672 8.65125 9
-10 10 12 4.69806 7.55357 11
0 -10 -12 1.94886 12.6633 5
10 0 12 -5.6738 12.404 4
-6 -5 -12 6.43616 6.76513 8
-6 11 12 5.63923 8.47412 11
-11 6 -12 5.20619 7.43168 9
6 5 -12 5.60199 9.28923 12
-6 -5 -12 7.75745 13.0109 5
5 -11 -12 6.90968 7.04178 7
5 6 12 12.6978 16.6812 6
11 -5 12 13.9315 13.5363 4
-5 11 -12 0.67158 7.788 12
11 -6 -12 8.34155 10.0084 7
-11 6 -12 6.00346 8.78991 8
11 -5 -12 21.5911 8.93345 7
5 6 -12 5.20751 9.84252 12
-5 11 12 16.5241 8.62705 11
-5 -6 -12 21.5209 7.15151 8
-11 5 -12 -1.0705 6.0624 9
6 5 12 26.2048 16.9278 6
-6 11 -12 7.99437 6.90225 9
-11 5 -12 11.4046 8.73574 8
11 -6 12 32.1743 14.7352 4
-5 -6 -12 40.521 14.0456 5
6 -11 -12 12.762 6.79506 7
-7 11 12 85.4281 11.1187 11
11 -4 12 85.5253 17.4204 4
-11 7 -12 81.9897 11.2158 9
-11 7 -12 89.2496 11.2723 8
11 -7 -12 89.8586 12.8069 7
-4 11 -12 65.6781 12.1195 12
7 4 -12 53.9757 10.7981 12
4 7 12 76.8006 19.0323 6
4 -11 -12 73.7088 9.6092 7
-4 11 12 57.6077 10.2365 11
7 -11 -12 63.4743 9.51148 7
-4 -7 -12 78.5564 9.25943 8
11 -7 12 51.1541 14.4727 4
-4 -7 -12 49.0494 13.3461 5
-11 4 -12 60.0011 9.94174 8
4 7 -12 92.9273 13.5341 12
4 7 -12 26.3234 9.53831 11
-7 11 -12 59.4554 9.42059 9
7 4 12 50.3212 17.3759 6
3 -11 -12 36.404 7.31902 7
-11 8 -12 40.9387 9.98156 8
3 8 12 27.4855 16.8416 6
11 -3 12 25.8738 13.8764 4
11 -8 -12 -1.3746 18.3914 4
-3 11 -12 36.5886 11.6693 12
-8 -3 -12 55.6737 8.45591 8
8 3 -12 27.4824 9.54483 12
-8 11 12 24.198 8.47677 11
3 -11 -12 37.9776 9.01015 8
11 -8 -12 31.3653 10.144 7
-11 8 -12 37.0394 9.27508 9
8 -11 12 3.60635 17.0277 5
-3 -8 -12 24.2869 7.50924 8
8 -11 -12 22.1783 8.01092 7
11 -8 12 -0.6518 11.2306 4
-3 11 12 15.9546 8.05293 11
-11 8 12 30.8155 8.68795 11
-8 11 -12 30.7091 8.27716 9
11 -8 12 24.4407 13.9125 5
8 3 12 26.5261 15.3787 6
-3 -8 -12 16.4396 6.95359 7
-3 -8 -12 31.9221 13.1964 5
-11 3 -12 32.9627 8.79006 8
3 8 -12 22.6661 10.2867 12
11 -9 -12 5.75097 17.9912 4
2 9 12 -13.718 15.7609 6
11 -2 12 13.963 13.946 4
-9 -2 -12 7.20657 6.86112 8
-11 9 -12 9.2058 8.20454 9
2 -11 -12 16.4702 6.2126 7
11 -9 -12 5.69981 9.03039 7
2 -11 -12 7.5408 7.92922 8
9 -11 12 2.59608 9.45025 5
-9 11 12 12.8401 7.75223 11
-2 11 -12 14.9397 11.28 12
-9 -2 12 5.8103 5.14522 10
-11 9 12 20.6079 7.94499 11
-2 11 12 5.59279 5.79903 11
2 9 -12 24.0557 11.5081 12
-11 2 -12 24.0935 7.95635 8
9 2 12 0.9987 12.8626 6
-2 -9 -12 17.7684 7.166 8
-9 11 -12 14.0765 8.15592 9
-2 -9 -12 14.7416 12.3612 5
11 -9 12 20.6364 13.5878 5
9 -11 -12 27.0142 8.60908 7
-2 -9 -12 7.67545 4.61353 7
11 -10 -12 -6.071 8.07856 7
10 -11 12 8.0138 5.40403 7
-10 -1 -12 8.21821 6.90705 8
10 -11 12 0.78717 9.96788 5
11 -10 -12 -1.7447 16.7764 4
-10 11 12 10.0029 7.78699 11
1 -11 -12 -3.8372 7.19353 8
-11 10 -12 1.08221 8.14937 9
1 -11 -12 8.599 5.84096 7
-1 11 -12 0.71166 10.0204 12
-1 -10 -12 2.77129 3.94187 7
1 10 -12 -6.0342 10.2377 12
-1 -10 -12 0.97816 11.2925 5
11 -10 12 1.26744 11.3027 5
-10 -1 12 2.25675 5.23573 10
-1 -10 -12 3.86264 7.16573 8
-11 1 -12 6.88862 7.03182 8
-10 11 -12 2.26517 8.11592 9
10 -11 -12 2.79983 8.18762 7
-11 10 12 5.46054 7.51402 11
-11 11 12 4.04684 7.34814 11
-11 11 -12 -5.367 7.90312 9
-11 0 12 1.90878 5.45566 10
11 -11 12 -1.9343 6.10375 7
11 -11 -12 -4.3456 8.054 7
-11 0 -12 6.99446 7.12402 8
0 -11 -12 -2.1172 6.82481 8
11 -11 12 1.94394 10.8 5
0 11 -12 -1.6535 9.77166 12
-12 6 -12 44.1251 9.8441 9
-6 -6 -12 58.2152 14.0458 5
12 -6 12 21.453 13.4602 4
-6 12 12 57.4609 10.071 11
12 -6 -12 51.3103 10.9242 7
-12 6 -12 58.7624 9.79486 8
6 6 -12 51.4974 10.0923 12
6 -12 -12 47.6598 8.38356 7
6 6 12 46.7836 17.3772 6
-6 -6 -12 84.1148 8.9744 8
5 7 12 31.5847 15.715 6
-7 -5 -12 51.7125 8.17095 8
5 -12 -12 33.1689 7.49005 7
-7 12 12 34.3605 8.67134 11
12 -5 12 16.3236 13.1501 4
-12 7 -12 12.0623 8.59189 9
7 5 -12 28.3867 10.0429 12
-12 7 -12 39.501 9.26835 8
-5 12 -12 24.2976 8.47008 12
12 -7 -12 32.741 10.4942 7
5 7 -12 2.24555 8.88513 11
5 7 -12 16.9136 10.0677 12
12 -5 -12 0.46341 8.35694 7
7 -12 -12 10.9433 6.77607 7
-12 5 -12 5.48839 8.04764 9
-7 12 -12 15.1887 7.51902 9
7 5 12 18.1593 15.773 6
-5 -7 -12 11.3982 11.8372 5
12 -7 12 5.8904 11.4596 4
-12 5 -12 13.856 8.29912 8
-5 12 12 17.4267 8.19222 11
-5 -7 -12 21.9812 7.04309 8
-8 -4 -12 38.3533 7.62371 8
4 8 12 1.21398 14.2219 6
4 -12 -12 12.2572 7.72455 8
-4 12 -12 22.4169 9.99962 12
4 -12 -12 22.8189 6.86743 7
12 -8 -12 15.7128 9.97859 7
8 4 -12 23.927 9.50355 12
12 -4 12 7.4621 12.0018 4
-12 8 -12 21.7997 9.0486 8
-8 12 12 32.0422 8.65808 11
-12 8 -12 15.6253 8.61532 9
-8 12 -12 22.0959 7.80478 9
4 8 -12 14.2578 8.80881 11
-4 -8 -12 31.7337 7.18488 8
12 -8 12 3.79995 10.6577 4
12 -8 12 21.3174 12.9738 5
8 -12 -12 23.1689 7.50069 7
-4 12 12 22.5417 8.17738 11
8 4 12 3.90822 13.7124 6
-12 4 -12 14.9046 7.31445 9
-4 -8 -12 27.7874 12.2537 5
4 8 -12 25.6882 10.4583 12
-12 8 12 22.7384 7.77694 11
-12 4 -12 20.2263 8.19792 8
12 -9 -12 91.0362 12.1513 7
3 -12 -12 69.4068 10.1585 8
-9 -3 -12 63.7741 8.96321 8
3 -12 -12 70.7013 8.50877 7
-3 12 -12 85.1425 13.4897 12
-12 9 -12 63.6112 10.4828 9
-3 12 12 47.0443 9.08063 11
9 3 12 3.1038 21.308 6
9 -12 -12 71.2068 9.69976 7
-12 3 -12 72.6047 9.72149 8
-3 -9 -12 55.5509 8.39035 8
-12 9 12 90.765 10.1466 11
-9 12 -12 51.2163 9.3851 9
2 -12 -12 0.12117 4.52567 7
-2 12 -12 -5.4711 9.8892 12
-10 12 12 5.66011 7.09055 11
-10 -2 -12 11.8333 6.86789 8
-12 10 -12 2.42834 8.31979 9
12 -10 -12 -5.5087 8.1071 7
2 -12 -12 -1.1388 7.23433 8
-10 12 -12 6.97152 7.7637 9
-12 10 12 3.80934 7.14282 11
-12 2 -12 3.79171 7.40991 8
-2 -10 -12 0.77711 15.1551 5
10 -12 -12 2.68852 7.51594 7
12 -10 12 2.83532 10.4236 5
-2 12 12 7.66693 6.75129 11
-2 -10 -12 3.71529 6.35215 8
2 10 -12 9.07882 9.86329 12
12 -10 12 3.17821 6.55587 7
-10 -2 12 -3.6954 6.93717 10
-12 1 12 4.55588 5.43001 10
-11 12 12 19.0699 7.45457 11
1 -12 -12 11.6369 6.9344 8
-11 -1 -12 15.0941 6.8705 8
12 -11 -12 6.89117 7.83575 7
-12 11 -12 9.19082 8.225 9
-1 12 -12 10.997 10.8494 12
-11 12 -12 13.2306 8.06081 9
1 11 -12 22.9678 10.9386 12
12 -11 12 14.8495 6.83199 7
-12 11 12 18.4954 7.54113 11
11 -12 -12 18.6381 8.08164 7
-12 1 -12 20.053 7.3159 8
-1 -11 -12 22.3908 7.02687 8
-11 -1 12 5.07986 7.19616 10
12 -12 12 5.12045 4.91794 7
12 -12 -12 -5.6493 7.31316 7
-12 0 12 4.77728 7.01206 10
0 -12 -12 -1.2057 6.30362 8
-12 12 -12 3.54229 8.04717 9
0 12 -12 -0.8853 9.65252 12
-12 12 12 4.36304 6.95922 11
-12 0 -12 -0.6164 6.82068 8
7 6 -12 30.8995 9.55953 12
-13 7 -12 53.7142 9.36678 8
-7 13 12 41.9176 8.73672 11
13 -7 -12 47.6495 10.137 7
6 -13 -12 36.7474 7.8216 7
-13 7 -12 21.5967 8.94588 9
-7 -6 -12 46.0671 7.83481 8
13 -7 12 2.79884 14.4287 4
-6 -7 -12 32.4441 6.75788 8
13 -6 -12 20.1706 7.59507 7
-13 6 -12 39.8494 8.64732 8
-6 13 12 26.8282 8.14639 11
6 7 -12 58.2469 11.2515 12
-13 6 -12 36.8654 8.96286 9
6 7 -12 41.8533 9.73805 11
7 -13 -12 37.9243 7.7611 7
7 6 12 -0.1308 19.1746 6
13 -8 -12 55.6094 10.8062 7
-8 13 12 75.9363 9.68255 11
-13 8 -12 53.2469 10.0888 9
-8 -5 -12 71.877 8.82947 8
-5 13 -12 56.0598 10.1684 12
8 5 -12 62.7281 10.6402 12
5 -13 -12 58.2756 8.25382 7
5 -13 -12 40.6068 8.1492 8
-13 8 -12 84.1684 10.3834 8
13 -8 12 69.3089 8.7441 7
-13 8 12 65.5976 8.95063 11
-5 13 12 62.8501 9.64391 11
8 -13 -12 55.8979 8.67074 7
-13 5 -12 61.4615 9.54404 8
5 8 -12 95.3724 12.8689 12
5 8 -12 61.2598 10.9059 11
-13 5 -12 38.7824 9.47213 9
-8 13 -12 50.2863 9.27537 9
-5 -8 -12 85.0257 8.77791 8
4 -13 -12 11.1148 7.33166 8
-9 -4 -12 26.9733 6.96506 8
4 -13 -12 19.5883 5.83999 7
9 4 -12 23.7128 8.4357 12
-13 9 -12 17.5459 8.44979 9
13 -9 -12 27.5169 9.24741 7
-9 13 12 37.2223 7.95584 11
-4 13 -12 19.7694 10.6725 12
-9 13 -12 15.1714 7.67546 9
-13 4 -12 3.65678 7.3421 8
9 -13 -12 20.4602 7.34496 7
-4 13 12 16.2402 7.87838 11
4 9 -12 21.7028 10.4045 12
-13 9 12 19.5691 6.86559 11
-13 4 -12 8.98639 7.51002 9
-4 -9 -12 13.9217 6.20272 8
13 -9 12 9.47299 6.6152 7
4 9 -12 1.54616 8.192 11
-10 13 12 4.19433 6.95677 11
-3 13 -12 3.62203 10.5031 12
13 -10 -12 -0.8328 8.03227 7
3 -13 -12 2.91941 7.09144 8
3 -13 -12 3.36147 4.12549 7
-13 10 -12 1.34314 7.75543 9
-10 -3 -12 6.31086 6.39668 8
-3 13 12 3.22059 7.46499 11
-10 -3 12 -2.0506 7.05862 10
3 10 -12 5.20875 8.97637 12
-10 13 -12 0.2935 7.35844 9
-3 -10 -12 6.52622 6.09214 8
-13 10 12 -0.3877 6.34978 11
13 -10 12 1.61298 6.19936 7
-13 3 -12 3.01868 6.31707 9
-13 3 -12 3.29352 7.04963 8
10 -13 -12 -0.4803 6.78367 7
-2 13 -12 4.06268 9.89209 12
13 -11 -12 -6.9784 7.18098 7
-11 13 12 11.9172 7.12338 11
-13 11 -12 -1.9274 8.0588 9
2 -13 -12 -3.9239 6.6369 8
-13 2 12 1.95094 4.95884 10
-11 -2 -12 6.63677 6.53848 8
-13 2 -12 0.29327 5.74771 9
-11 13 -12 2.62397 7.52066 9
11 -13 -12 1.59359 7.00863 7
2 11 -12 13.9117 9.67486 12
13 -11 12 6.28909 6.26184 7
-2 -11 -12 9.32357 5.95489 8
-13 2 -12 -0.5484 6.8205 8
-13 11 12 -1.0978 6.15513 11
-11 -2 12 -0.9075 7.06985 10
-2 13 12 5.73093 6.75687 11
-13 1 12 4.41586 6.46037 10
-1 13 -12 3.45504 10.0404 12
13 -12 -12 1.26705 6.81205 7
-12 13 12 9.76896 6.76749 11
-13 12 -12 3.28013 8.08448 9
1 -13 -12 4.43402 6.24755 8
-12 -1 -12 2.54103 6.40912 8
-12 -1 12 -2.625 6.94991 10
12 -13 -12 4.03826 7.02489 7
1 12 -12 0.42673 10.1691 12
-13 1 -12 5.08878 6.63084 8
-13 12 12 -0.2855 6.01354 11
13 -12 12 0.79765 6.0806 7
-12 13 -12 9.11701 7.5977 9
-1 -12 -12 -1.3932 5.46821 8
-13 0 12 3.28798 6.911 10
-13 13 -12 22.8111 7.9654 9
13 -13 12 4.20244 4.63851 7
-13 13 12 8.14831 5.95322 11
-13 0 -12 12.1367 6.52395 8
13 -13 -12 13.8233 7.01102 7
0 -13 -12 14.7467 5.87424 8
0 13 -12 16.0334 9.93615 12
14 -7 -12 71.9396 10.3803 7
-7 14 12 79.4084 10.0996 11
-14 7 -12 93.7269 11.5219 9
14 -7 12 100.238 10.0648 7
7 -14 -12 67.5099 9.1384 7
7 7 -12 107.355 12.6042 12
-14 7 -12 86.182 10.3548 8
-14 8 -12 23.1833 8.24755 9
14 -6 12 27.2179 6.67559 7
-8 14 12 26.9482 7.50585 11
6 -14 -12 22.8256 6.4605 7
14 -8 -12 13.8888 8.70764 7
8 6 -12 22.9401 8.53053 12
-8 -6 -12 33.3064 7.08549 8
-14 6 -12 6.30989 7.33742 9
6 8 -12 7.54326 8.61364 12
-14 6 -12 10.4372 7.10592 8
-6 14 12 10.1528 7.05515 11
-14 8 12 5.66398 6.26695 11
-6 -8 -12 7.77944 5.62136 8
6 8 -12 -3.7554 8.42641 11
14 -8 12 6.19652 6.09582 7
8 -14 -12 6.46135 6.32358 7
14 -5 12 6.46382 5.60042 7
-5 14 -12 19.6547 8.78672 12
5 -14 -12 13.2813 4.71491 7
9 5 -12 6.73991 8.44649 12
-9 14 12 12.6425 7.09489 11
-9 -5 -12 10.0736 6.2683 8
14 -9 -12 14.9123 8.31402 7
5 -14 -12 5.74796 6.38839 8
-14 9 -12 11.904 7.87346 9
-5 14 12 11.9638 7.49523 11
-9 14 -12 16.5052 7.42411 9
14 -9 12 8.23877 6.18359 7
5 9 -12 7.68843 9.09396 12
-5 -9 -12 19.4966 6.17001 8
9 -14 -12 14.647 6.34535 7
5 9 -12 0.28878 8.59794 11
-14 5 -12 9.06987 7.63056 9
-14 5 -12 4.96279 6.98048 8
-14 9 12 21.2911 6.72017 11
14 -10 -12 13.6035 7.97121 7
14 -4 12 13.0768 6.20944 7
-10 -4 -12 17.1479 6.28658 8
-10 14 12 23.9491 7.27472 11
4 -14 -12 6.6592 6.72025 8
-14 10 -12 18.9725 8.01709 9
-4 14 -12 17.1152 10.075 12
10 -14 -12 16.4036 6.59847 7
4 10 -12 1.44953 7.75095 11
-10 -4 12 8.43142 7.24649 10
-14 4 -12 6.60994 6.95574 8
-14 4 -12 10.327 7.31927 9
-10 14 -12 15.1153 7.41294 9
-4 14 12 16.3623 7.84749 11
4 10 -12 23.8211 10.1721 12
-4 -10 -12 18.6833 6.07973 8
14 -10 12 7.43038 6.11162 7
-14 10 12 14.6264 6.59774 11
-14 3 12 1.42215 4.51949 10
-11 14 12 0.53147 6.37948 11
-11 -3 -12 2.61093 6.04732 8
-3 14 -12 9.10106 10.2077 12
3 -14 -12 -7.477 6.17438 8
14 -11 -12 -4.8293 6.86516 7
-14 11 -12 2.20325 7.81203 9
14 -3 12 -4.8961 5.71206 7
-3 -11 -12 2.6686 6.00556 8
14 -11 12 -6.5352 5.77735 7
-14 3 -12 -0.5405 6.36384 9
-3 14 12 -3.3593 7.32151 11
11 -14 -12 -4.1155 6.32905 7
-14 11 12 3.37748 6.03481 11
-11 14 -12 -2.3786 7.00494 9
3 11 -12 1.54266 9.33735 12
-14 3 -12 -5.722 6.29718 8
-11 -3 12 -4.04 6.9386 10
2 -14 -12 3.82026 5.82806 8
14 -2 12 6.2988 6.62776 7
-14 12 -12 11.2938 7.82109 9
-14 2 12 4.36188 5.65536 10
-12 -2 -12 0.59719 6.11037 8
14 -12 -12 0.08719 6.51354 7
-12 14 12 11.7934 6.27666 11
-2 14 -12 0.95971 9.75586 12
-14 2 -12 -0.4067 4.81502 9
-14 12 12 9.67622 6.06678 11
-14 2 -12 4.7644 6.4482 8
2 12 -12 12.0483 10.2612 12
-12 -2 12 2.74588 6.82047 10
-12 14 -12 2.69857 7.06545 9
-2 -12 -12 6.16041 5.25414 8
12 -14 -12 2.81209 6.40117 7
14 -12 12 -5.7323 5.78612 7
-2 14 12 7.80923 5.74571 11
1 -14 -12 -1.5099 5.3772 8
-13 14 12 1.47002 5.75504 11
-13 -1 -12 -5.7583 6.09713 8
14 -13 -12 4.65627 6.47405 7
-14 1 12 0.94018 6.24826 10
-14 13 -12 -1.2468 6.98608 9
14 -1 12 2.01142 6.29093 7
-1 14 -12 -3.09 9.58703 12
14 -13 12 3.12023 4.77186 7
-14 13 12 4.91056 5.69316 11
13 1 12 7.0935 4.73475 7
1 13 -12 2.34204 8.6942 12
-13 -1 12 4.61935 6.69345 10
-14 1 -12 6.65856 6.3235 8
-1 -13 -12 -2.8008 4.89674 8
13 -14 -12 3.36375 6.31536 7
-13 14 -12 0.85317 6.87163 9
-14 14 12 8.38659 5.79144 11
14 -14 -12 12.9098 6.20849 7
-14 14 -12 12.3856 7.1826 9
0 -14 -12 4.81539 5.07253 8
-14 0 12 6.72971 6.319 10
-14 0 -12 7.30414 6.06186 8
14 0 12 7.63619 5.17928 7
0 14 -12 14.4274 9.07179 12
-15 8 -12 14.3989 7.53399 9
8 7 -12 12.5045 8.13433 12
15 -7 12 9.3534 5.88895 7
15 -8 -12 18.2979 7.4011 7
-8 15 12 11.3659 6.70718 11
7 -15 -12 22.444 5.75958 7
-8 -7 -12 34.8904 6.72382 8
-7 15 12 34.5271 7.71685 11
15 -8 12 16.8547 6.05444 7
-15 7 -12 14.3002 7.18168 8
-15 7 -12 29.1727 7.97225 9
-15 8 12 25.9321 6.7018 11
-7 -8 -12 26.3962 6.18087 8
7 8 -12 33.1624 9.4748 12
8 -15 -12 31.3173 6.63172 7
-9 15 12 64.9973 8.43421 11
15 -9 -12 54.2382 9.07403 7
-9 -6 -12 59.8307 7.67288 8
-15 9 -12 67.2722 9.82119 9
15 -6 12 64.6443 8.06933 7
9 6 -12 43.7527 9.03097 12
6 9 -12 30.5536 8.87178 11
15 -9 12 34.403 6.80796 7
-15 9 12 30.3687 7.02387 11
-6 15 12 46.3717 8.35335 11
-15 6 -12 29.5784 7.30657 8
9 -15 -12 30.0828 6.72664 7
-15 6 -12 32.9593 7.6473 9
6 9 -12 36.8699 8.83377 12
-6 -9 -12 39.1396 6.26748 8
5 -15 -12 6.65803 5.92505 8
-10 -5 -12 6.26127 5.75933 8
-5 15 -12 5.3868 7.9056 12
-10 15 12 5.28154 6.07967 11
-15 10 -12 6.21126 7.42343 9
15 -10 -12 4.65514 7.07443 7
15 -5 12 -0.517 5.6061 7
-10 15 -12 8.76717 6.67333 9
5 10 -12 -2.9993 7.83366 11
-5 15 12 9.28619 7.05448 11
15 -10 12 -5.4533 5.53618 7
-5 -10 -12 11.4535 5.16529 8
-15 5 -12 4.29258 6.32352 8
-15 5 -12 5.75214 6.76823 9
10 -15 -12 8.00486 6.02414 7
-15 10 12 8.20908 6.06022 11
5 10 -12 7.81041 8.9682 12
-10 -5 12 -2.8636 6.44663 10
-11 -4 -12 12.3921 6.14456 8
-4 15 -12 6.35619 9.06979 12
4 -15 -12 1.99533 6.1042 8
-11 15 12 4.26764 6.08422 11
-15 11 -12 9.55307 7.57976 9
15 -4 12 6.656 5.95266 7
15 -11 -12 6.69024 6.67792 7
-11 15 -12 10.2597 6.79033 9
11 -15 -12 6.71181 6.03392 7
-4 15 12 1.25398 7.24849 11
-15 4 -12 4.39768 6.29957 8
4 11 -12 -4.5005 6.10494 11
-4 -11 -12 4.90588 4.9764 8
-15 11 12 11.3457 6.16752 11
-11 -4 12 1.1093 6.75768 10
-15 4 -12 8.89024 6.63354 9
15 -11 12 9.16474 5.57632 7
4 11 -12 9.51539 8.84742 12
-12 15 12 13.1259 5.8359 11
15 -12 -12 4.67697 6.27749 7
3 -15 -12 4.14368 5.71816 8
15 -3 12 3.36785 5.84751 7
-15 12 -12 15.8121 7.53572 9
-3 15 -12 12.6232 9.21101 12
-12 -3 -12 8.36325 6.01557 8
-15 3 12 3.03086 4.49544 10
-3 -12 -12 7.90002 5.36425 8
-12 -3 12 8.21171 6.75501 10
12 -15 -12 10.826 5.98733 7
-3 15 12 9.19909 6.76098 11
-12 15 -12 7.68245 6.79932 9
-15 3 -12 9.62955 5.86393 9
-15 3 -12 2.15191 5.94194 8
-15 12 12 7.37971 5.99627 11
15 -12 12 -0.4677 5.55855 7
3 12 -12 2.93638 8.62775 12
-15 13 -12 9.5923 7.54229 9
-2 15 -12 7.64628 9.00464 12
-13 -2 -12 2.90593 5.86559 8
2 -15 -12 5.95545 5.28229 8
15 -2 12 9.16777 5.99641 7
-13 15 12 1.56307 5.59123 11
15 -13 -12 1.74545 5.82999 7
-15 2 12 7.04005 5.35896 10
-15 2 -12 -0.7232 7.00901 9
-2 -13 -12 3.60399 5.0639 8
-15 2 -12 0.62463 5.68486 8
-13 15 -12 8.42774 6.72795 9
-2 15 12 -0.1208 5.40939 11
-13 -2 12 -5.0648 6.13504 10
-15 13 12 6.25137 5.66652 11
2 13 -12 8.15346 9.18489 12
15 -13 12 6.09034 5.10036 7
13 -15 -12 5.64878 5.8249 7
-15 14 -12 5.52427 6.87815 9
15 -14 -12 14.3676 6.12066 7
-15 1 12 3.96124 5.44592 10
15 -1 12 6.39201 4.81056 7
-1 15 -12 6.76537 9.20691 12
1 -15 -12 6.73031 5.0965 8
-14 15 12 10.3717 5.59651 11
-14 -1 -12 5.57743 4.69643 8
-15 1 -12 5.24206 4.18338 8
14 -15 -12 -0.4049 5.3851 7
-14 15 -12 8.97727 6.78645 9
-1 -14 -12 4.76627 4.6992 8
-14 -1 12 4.47098 5.86039 10
-15 14 12 1.77416 5.68688 11
1 14 -12 3.49767 8.11382 12
0 15 -12 1.97448 9.17929 12
0 -15 -12 2.47495 4.72357 8
-15 0 12 1.19257 5.34069 10
-15 15 -12 -1.828 6.36541 9
15 -15 -12 1.81603 5.42044 7
-15 15 12 0.86131 5.41011 11
16 -8 12 41.0392 7.04546 7
-8 -8 -12 24.9126 5.87164 8
-8 16 12 34.5077 7.0284 11
8 8 -12 32.7215 8.03461 12
-16 8 12 36.2333 6.61609 11
-16 8 -12 29.1448 7.41675 9
9 7 -12 7.83697 6.62463 12
16 -9 -12 17.0551 6.23597 7
-16 7 12 12.0995 5.88011 11
-16 9 -12 21.7002 7.11416 9
16 -7 12 14.3429 5.5662 7
-9 -7 -12 8.91971 5.42349 8
-9 16 12 18.3895 6.55724 11
-7 -9 -12 6.40855 5.38746 8
-7 16 12 11.8456 6.65221 11
-16 9 12 10.6348 5.72852 11
16 -9 12 -0.2336 5.35239 7
-16 7 -12 6.75013 6.47732 9
7 9 -12 3.73836 7.8898 12
9 -16 -12 8.25096 5.03716 7
16 -6 12 -0.1758 5.13531 7
-16 10 -12 2.71064 6.74532 9
-10 -6 -12 1.71319 5.39744 8
-10 16 12 0.65356 5.60562 11
6 -16 -12 2.30907 4.23747 8
16 -10 -12 6.12002 6.30207 7
-6 -10 -12 5.77655 4.61868 8
-16 10 12 7.76844 5.61721 11
-16 6 -12 1.72328 5.69865 9
10 -16 -12 7.61376 5.35794 7
-10 -6 12 0.70116 6.34016 10
16 -10 12 2.47192 5.37221 7
6 10 -12 8.01195 7.99576 12
-6 16 12 4.08557 6.78426 11
16 -5 12 5.06828 5.42519 7
-5 16 -12 0.57928 6.53346 12
-11 -5 -12 3.29582 5.40293 8
5 -16 -12 5.07909 5.27949 8
16 -11 -12 1.305 6.17466 7
-11 16 12 2.71331 5.54003 11
-16 11 -12 1.17263 7.06848 9
11 -16 -12 3.58987 5.15242 7
16 -11 12 -2.144 5.18799 7
-16 11 12 10.4553 5.93687 11
5 11 -12 1.4712 8.12001 12
-16 5 -12 2.51644 5.63652 8
-11 -5 12 -0.6576 6.27392 10
-16 5 -12 4.23524 5.97984 9
-5 16 12 0.38498 6.439 11
-5 -11 -12 1.60995 4.36849 8
5 11 -12 -3.5714 6.83048 11
-16 12 -12 4.52414 6.74549 9
16 -4 12 0.49372 5.86262 7
16 -12 -12 2.8916 5.80529 7
-4 16 -12 -7.5764 8.40003 12
-12 16 12 6.11007 5.39138 11
-12 -4 -12 1.96509 5.34586 8
4 -16 -12 2.54398 5.11352 8
12 -16 -12 5.67339 5.0324 7
-4 -12 -12 2.83887 4.4171 8
-12 -4 12 5.36581 6.35937 10
-4 16 12 3.87437 6.31475 11
-16 4 -12 0.86794 4.93597 8
-12 16 -12 6.86814 6.33596 9
-16 4 -12 2.06634 5.4965 9
4 12 -12 -2.8582 8.40163 12
-16 12 12 4.8214 5.80942 11
16 -12 12 -0.7441 5.035 7
16 -3 12 7.83087 5.73845 7
-16 13 -12 2.85548 7.01204 9
-13 16 12 6.42709 5.19007 11
3 -16 -12 -0.2048 4.99624 8
16 -13 -12 5.4943 5.60378 7
-16 3 12 3.21742 6.02947 10
-3 16 -12 3.99414 9.14344 12
-13 -3 -12 1.4424 4.15008 8
-16 3 -12 11.6038 4.30256 8
-13 -3 12 1.48147 5.99525 10
3 13 -12 -2.6326 8.26454 12
-16 13 12 1.84212 5.88545 11
-16 3 -12 0.68115 3.9984 9
-3 -13 -12 0.79094 4.38235 8
13 -16 -12 7.80159 4.99436 7
-13 16 -12 2.63262 6.28989 9
-3 16 12 5.41221 4.70248 11
16 -13 12 0.40662 4.78467 7
-14 16 12 -3.771 5.14219 11
-2 16 -12 -7.4053 8.77182 12
2 -16 -12 3.11829 4.9362 8
16 -14 -12 1.33419 5.70279 7
-16 2 12 1.85176 3.51688 10
-16 14 -12 -0.0098 6.71463 9
-2 -14 -12 0.32361 4.74869 8
2 14 -12 -2.5173 8.18614 12
-14 -2 12 -2.9835 5.46732 10
-14 16 -12 0.89981 6.43818 9
-16 14 12 3.55714 5.69062 11
14 -16 -12 -2.1666 5.27439 7
-16 15 -12 4.44791 7.09936 9
-15 16 12 2.7514 5.66711 11
-1 16 -12 6.42061 9.25168 12
-16 1 12 1.66196 3.79556 10
1 -16 -12 4.28784 4.68133 8
16 -15 -12 2.11104 5.7966 7
-15 16 -12 -3.1257 6.73168 9
-16 15 12 0.60132 5.7479 11
15 -16 -12 -0.8521 5.29424 7
1 15 -12 -0.2246 8.8825 12
-1 -15 -12 -2.4968 4.33637 8
-15 -1 12 4.30767 4.98298 10
0 16 -12 -1.1906 10.0834 12
0 -16 -12 2.96466 4.79705 8
-16 16 12 6.88279 5.73688 11
-16 16 -12 5.91199 6.81224 9
16 -16 -12 0.78889 5.61909 7
-17 8 12 -2.0875 5.14694 11
9 -17 12 0.75349 3.26348 8
9 8 -12 1.16007 4.37662 12
-9 -8 -12 2.14914 4.85017 8
17 -8 12 0.07872 5.02972 7
-17 9 -12 -0.6694 5.49911 9
-9 17 12 -3.1084 5.57734 11
-17 8 -12 -2.8823 5.97645 9
-8 17 12 -2.2016 5.88387 11
17 -9 12 0.69747 4.82179 7
-8 -9 -12 -3.1928 4.60001 8
8 9 -12 1.77609 6.70155 12
-17 9 12 -0.4801 5.43233 11
-17 10 -12 1.66672 6.19503 9
17 -7 12 4.1047 5.19801 7
10 -17 12 4.48098 4.62544 8
-17 7 12 7.82452 5.59705 11
-10 -7 -12 8.5989 4.88953 8
17 -10 -12 4.00391 4.19297 7
-10 17 12 2.32315 5.80929 11
-10 -7 12 -2.2424 5.9087 10
-17 7 -12 3.54097 5.85378 9
-7 -10 -12 11.1264 4.88211 8
-7 17 12 10.075 6.40592 11
-17 10 12 -0.0508 5.34797 11
17 -10 12 1.01978 4.51243 7
7 10 -12 6.29283 7.18493 12
-11 -6 -12 3.76157 4.77092 8
-17 11 -12 17.4659 7.07039 9
17 -6 12 6.68766 5.43977 7
11 -17 12 8.11035 4.63429 8
-11 17 12 3.38784 5.64204 11
-17 6 12 7.81195 5.06405 11
17 -11 -12 6.42624 5.54246 7
6 -17 -12 -0.2435 3.6523 8
11 -17 -12 9.72116 4.06013 7
-17 6 -12 0.62167 5.5392 9
6 11 -12 7.25769 7.70975 12
-6 17 12 2.65664 6.29079 11
-11 -6 12 -0.9447 5.88046 10
-17 11 12 9.23613 5.82147 11
17 -11 12 2.2738 4.93779 7
-6 -11 -12 8.91914 4.27582 8
5 -17 -12 -0.0015 4.4133 8
17 -5 12 2.8192 5.42312 7
-12 17 12 0.2299 5.1373 11
12 -17 12 5.05642 4.35873 8
-12 -5 -12 0.95448 3.25976 8
17 -12 -12 13.9119 5.84625 7
-17 12 -12 4.79542 6.78557 9
5 12 -12 16.8377 7.78421 12
-17 12 12 11.0578 5.92065 11
-5 17 12 6.93429 6.01374 11
12 -17 -12 12.6317 4.689 7
-5 -12 -12 13.8338 4.51035 8
-12 -5 12 8.45123 5.93733 10
-17 5 -12 3.0954 5.11716 9
17 -12 12 3.1742 4.65547 7
-17 13 -12 0.88588 6.71523 9
17 -13 -12 4.98296 5.53171 7
17 -4 12 0.51173 4.97716 7
4 -17 -12 0.24137 4.69714 8
-13 17 12 0.76296 5.37997 11
-4 17 -12 6.02063 6.40021 12
-17 4 -12 -0.2155 3.59494 9
17 -13 12 0.13647 4.5098 7
-4 17 12 -0.6212 4.35744 11
-13 -4 12 -0.5573 5.69057 10
4 13 -12 -0.3245 8.09839 12
13 -17 -12 3.82371 4.51604 7
-17 13 12 6.02044 6.0461 11
-4 -13 -12 -3.2414 4.13219 8
-3 17 -12 0.4622 9.40429 12
-14 17 12 3.43134 5.64805 11
3 -17 -12 0.45798 4.89311 8
17 -14 -12 7.52259 5.25112 7
-17 14 -12 11.4013 7.22003 9
-3 -14 -12 -5.257 4.08482 8
-14 -3 12 2.52006 5.43 10
14 -17 -12 2.47728 4.68293 7
-17 14 12 0.43122 5.54459 11
3 14 -12 7.11012 8.9353 12
-2 17 -12 -0.3419 9.73433 12
-15 17 12 5.70685 5.37823 11
2 -17 -12 -0.5904 4.97253 8
-17 15 12 0.60247 3.3025 11
-2 -15 -12 1.24569 4.64243 8
2 15 -12 -9.9559 8.94295 12
-18 9 12 3.68432 4.78734 11
-18 9 -12 -2.3856 5.37476 9
-9 -9 12 1.59353 5.94648 10
-9 18 12 1.0227 6.1478 11
18 -9 12 2.1741 5.4341 7
-9 -9 -12 3.7382 3.83034 8
-10 18 12 7.91269 6.27199 11
-18 10 -12 6.5791 6.23844 9
-10 -8 -12 -0.3657 3.02058 8
18 -8 12 2.69833 5.28145 7
-18 8 12 3.99033 4.80363 11
-18 10 12 6.70899 4.69115 11
8 10 -12 2.66182 5.9638 12
-10 -8 12 0.43212 5.76769 10
-18 8 -12 1.87215 5.68756 9
-8 -10 -12 5.63267 4.40296 8
18 -10 12 -0.8608 5.1223 7
-8 18 12 8.33369 6.33313 11
-18 7 12 7.5642 4.27296 11
11 -18 12 1.85835 3.63943 8
-11 18 12 7.32479 6.12962 11
-18 11 -12 8.58653 6.78063 9
18 -7 12 5.75949 5.5117 7
18 -11 12 3.97228 5.40102 7
-18 7 -12 6.58485 5.58374 9
-7 -11 -12 9.29842 4.4725 8
-7 18 12 3.52287 6.40272 11
-18 11 12 6.84922 4.40936 11
7 11 -12 3.30505 5.42249 12
-11 -7 12 3.62392 6.11957 10
-18 12 -12 3.45866 7.1162 9
-18 6 12 -0.1587 4.00966 11
12 -18 12 -1.3054 4.31138 8
18 -12 -12 3.96541 3.87577 7
18 -6 12 6.40152 5.44015 7
-12 18 12 0.9531 5.87804 11
-18 6 -12 0.09076 4.6102 9
-6 -12 -12 2.71229 4.40676 8
-18 12 12 4.19832 4.64675 11
6 12 -12 7.65514 7.09062 12
18 -12 12 -3.4454 4.88835 7
-12 -6 12 -2.25 5.845 10
-6 18 12 3.21626 5.9277 11
-13 18 12 3.9368 6.05236 11
13 -18 12 -0.5438 4.99604 8
5 -18 -12 0.86718 4.08229 8
-18 5 12 3.98832 3.0967 11
5 13 -12 6.24279 7.87525 12
-5 18 12 -0.0538 3.21465 11
-5 -13 -12 5.6196 4.45725 8
0 0 13 -0.7276 13.6579 6
0 0 -13 5.1995 8.51112 7
1 0 13 1.2599 14.1607 6
-1 1 13 11.3141 14.8408 6
1 -1 13 20.4181 13.9167 6
-1 0 -13 18.1699 8.25799 7
-1 1 -13 10.0046 7.93345 7
0 -1 -13 8.46624 8.45959 7
1 -1 -13 9.57624 8.26456 7
-1 0 13 11.206 14.644 6
0 -1 13 -1.762 13.5158 6
1 0 -13 22.1477 8.42832 7
0 1 13 20.4265 14.8757 6
0 1 -13 16.2275 7.33527 7
-1 -1 13 23.895 15.0354 6
2 -1 13 32.4556 14.2705 6
-1 2 13 13.5337 13.6456 6
1 1 13 24.9105 14.8543 6
1 1 -13 1.39605 6.2994 7
2 -1 -13 22.6435 8.22965 7
-2 1 -13 17.0889 8.00482 7
-1 -1 -13 28.5108 8.70222 7
1 -2 -13 14.1918 8.03743 7
-1 2 -13 12.3027 7.07084 7
1 -2 13 -0.9014 12.6835 6
-2 1 13 23.8602 15.3288 6
0 2 -13 3.29882 7.4958 7
0 2 13 -2.1862 13.8632 6
0 -2 13 1.15457 12.2384 6
2 0 -13 4.50306 6.797 7
2 -2 -13 4.50002 7.58353 7
-2 0 -13 3.19598 7.80088 7
0 -2 -13 -0.4155 8.28394 7
2 -2 13 12.4216 14.9234 4
2 -2 13 -0.9471 13.2979 6
-2 2 13 4.2003 15.235 6
-2 0 13 2.11313 14.0715 6
2 0 13 9.44323 14.3595 6
-2 2 -13 13.3238 7.78372 7
-2 3 13 25.1623 15.7195 6
3 -1 13 12.2312 14.9869 4
-2 -1 -13 11.1036 8.00216 7
2 -3 13 10.1838 15.2031 4
1 2 13 15.7261 14.6491 6
-1 -2 13 -0.2659 12.0592 6
-3 1 13 27.4176 15.6621 6
3 -2 -13 7.99432 7.9887 7
-3 2 -13 14.9258 8.64859 7
-2 -1 -13 2.83394 5.48054 8
3 -1 13 10.7535 13.9235 6
1 -3 -13 17.5156 7.96476 7
1 -3 13 2.66567 13.697 4
2 -3 -13 9.07719 7.58877 7
-3 1 -13 2.59577 5.6242 8
3 -1 -13 20.7911 7.70329 7
2 1 13 29.3378 15.9413 6
-3 1 -13 17.546 8.16881 7
-3 2 13 20.2255 14.6585 6
-2 -1 13 16.2794 13.8441 6
-2 3 -13 19.2357 7.08031 7
-1 3 13 24.5095 15.8271 6
3 -2 13 17.9399 14.9888 4
-1 -2 -13 35.5491 8.85776 7
3 0 13 31.3386 15.8545 6
0 -3 -13 25.5704 8.67217 7
-3 0 13 16.8778 13.9369 6
3 -3 -13 25.1178 8.61143 7
3 -3 13 38.9063 15.584 4
3 0 -13 2.83515 7.47911 7
-3 3 13 30.8316 15.8192 6
0 3 13 30.3178 15.0062 6
-3 0 -13 29.4627 8.01826 8
-3 0 -13 26.2145 8.58416 7
-2 4 13 4.82616 13.8605 6
2 2 13 13.6054 15.6658 6
2 -4 -13 13.6694 7.93822 7
4 -2 13 17.0561 15.0681 4
2 -4 13 -8.5183 16.3054 4
-2 -2 -13 9.65999 7.45966 8
-2 -2 -13 18.2538 8.82405 7
-4 2 -13 15.8087 8.26063 8
4 -2 -13 16.2569 8.67024 7
-4 2 13 -0.5832 13.733 6
-2 -2 13 0.03972 11.9145 6
4 -1 13 7.30466 12.9212 6
-3 -1 -13 8.52775 7.90808 8
4 -3 -13 6.87074 8.53927 7
4 -1 13 13.0478 14.7023 4
-4 3 -13 7.37601 6.89286 8
-4 1 13 16.376 14.7842 6
1 -4 -13 10.5211 7.63285 7
3 -4 13 4.01067 13.0625 4
-3 -1 -13 15.0465 8.20477 7
1 3 13 -2.8014 14.8254 6
-3 4 13 9.84421 15.7329 6
3 -4 -13 10.022 8.21012 7
-4 3 13 9.5011 13.9956 6
-3 -1 13 11.0814 12.9812 6
-1 -3 -13 15.5053 8.90931 7
-1 4 13 0.72356 15.2694 6
-4 1 -13 18.4142 8.64574 7
4 -1 -13 5.02436 6.18842 7
-1 -3 -13 0.49552 5.70195 8
4 -3 13 10.4077 13.9673 4
3 1 13 28.6596 16.9202 6
-4 1 -13 10.6246 8.12833 8
4 -4 -13 11.7173 8.40903 7
-4 0 -13 8.78015 8.32247 8
-4 0 -13 8.61182 8.59947 7
-4 4 13 5.71725 14.9734 6
4 -4 13 3.60659 14.1574 4
4 0 13 8.23895 15.067 4
0 -4 -13 17.0465 8.4674 7
-4 0 13 7.0486 13.8792 6
4 0 13 26.5647 16.1301 6
0 4 13 26.3708 16.5086 6
-4 4 -13 6.13629 6.04158 8
5 -3 -13 58.5163 10.7263 7
2 -5 -13 67.9093 10.0495 7
-5 2 13 68.4159 17.3378 6
5 -2 13 43.559 15.3097 4
-3 -2 -13 78.1176 10.9778 7
-3 -2 -13 59.5669 10.2248 8
-5 3 -13 57.1655 10.0813 8
2 3 13 81.225 19.5114 6
-3 5 13 40.4445 15.7101 6
5 -3 13 66.0927 16.6673 4
-2 -3 -13 51.7314 9.76264 8
3 2 13 95.4276 19.9695 6
-2 5 13 71.0745 18.8489 6
3 -5 -13 51.9021 9.64444 7
-5 2 -13 44.3429 9.74941 8
-5 3 13 58.5649 16.6136 6
-2 -3 -13 51.3847 9.93518 7
5 -2 -13 54.313 9.88337 7
5 -4 -13 12.1574 8.91169 7
1 -5 -13 7.71845 7.42682 7
-5 4 -13 3.39407 7.90568 8
-4 -1 -13 3.20824 7.98162 8
-1 5 -13 13.3483 10.0698 12
1 4 13 9.59792 16.4143 6
4 -5 13 -5.9754 11.5917 4
-4 -1 -13 16.1879 8.91342 7
5 -1 13 -1.8507 13.7393 4
-4 5 13 0.76611 14.9209 6
5 -1 13 -4.1192 13.4553 6
-5 1 13 11.4798 14.7603 6
4 1 13 9.15599 15.6215 6
-1 -4 -13 19.748 8.42231 8
4 1 13 10.4955 16.058 4
-1 -4 -13 6.64656 8.49571 7
-5 1 -13 12.1409 8.42039 8
-1 5 13 11.1897 15.2675 6
5 -4 13 3.64586 13.4752 4
-4 -1 13 9.39414 13.7567 6
-4 5 -13 9.7308 7.39926 8
-5 4 13 0.37718 14.7108 6
1 4 -13 10.9341 9.64098 12
4 -5 -13 10.6332 8.32039 7
5 -5 13 21.2657 12.974 4
-5 0 13 18.6957 15.6653 6
0 -5 -13 0.27604 19.2863 5
-5 5 13 16.2669 7.45009 11
0 -5 -13 14.548 6.85594 8
5 0 13 22.0787 14.9445 4
0 -5 -13 20.5057 8.69756 7
-5 5 -13 19.7456 7.96365 8
5 0 13 9.0536 15.2584 6
-5 5 13 18.172 15.6216 6
5 -5 -13 21.3138 8.8092 7
-5 0 -13 13.6733 8.33371 8
0 5 13 11.1259 15.8455 6
0 5 -13 22.339 10.5209 12
-3 -3 -13 11.4308 8.11825 8
6 -3 13 21.9073 13.7821 4
-3 6 13 13.8836 15.3651 6
-6 3 13 27.8578 16.1576 6
6 -3 -13 7.21251 9.31818 7
3 -6 -13 9.49594 8.08463 7
-3 -3 -13 14.8275 8.63639 7
-6 3 -13 11.2221 8.5966 8
3 3 13 20.8502 17.0748 6
2 4 13 36.127 18.1397 6
-2 6 -13 27.3787 10.7414 12
-6 4 -13 19.7969 8.91729 8
-4 6 13 34.8495 16.7023 6
-6 2 13 26.112 15.5733 6
-4 -2 -13 21.8624 8.48962 8
2 -6 -13 36.0832 8.62827 7
6 -2 13 25.3247 13.8622 4
-4 6 13 5.07132 5.69378 11
-4 -2 -13 22.0594 9.28545 7
6 -4 -13 27.3061 9.6522 7
4 2 13 31.7668 16.2653 4
-6 4 13 12.4236 15.2597 6
-2 6 13 42.6256 17.4929 6
6 -2 -13 11.5545 7.38373 7
4 -6 -13 28.5871 8.72756 7
4 2 13 30.6407 17.4554 6
-2 -4 -13 24.5461 8.83114 8
-4 -2 13 3.58859 14.8224 6
6 -4 13 14.9896 13.2616 4
-2 -4 -13 23.8028 8.81907 7
2 4 -13 41.8907 10.9985 12
-6 2 -13 24.3926 8.99596 8
-1 6 -13 19.8809 10.9783 12
1 -6 -13 21.4202 7.71887 7
-5 6 13 12.3596 7.71396 11
1 5 13 17.1395 17.0092 6
-5 6 13 21.2753 16.3073 6
-6 5 -13 16.4087 8.64053 8
1 -6 -13 0.61031 6.25385 8
-5 -1 -13 19.7784 8.14126 8
6 -5 -13 13.6922 8.9862 7
6 -1 13 19.9653 14.1745 4
-6 5 13 12.6585 7.86737 11
5 1 13 29.506 16.8452 6
6 -5 13 23.4979 13.3555 4
-5 6 -13 19.8666 7.20683 8
-1 -5 -13 22.0519 8.43954 8
1 5 -13 24.7428 10.4178 12
-1 -5 -13 17.0315 13.938 5
-6 1 -13 30.4024 8.83837 8
-6 5 13 21.2915 14.902 6
5 1 13 22.9629 15.3834 4
-1 -5 -13 26.9109 9.09307 7
5 -6 -13 34.8586 8.99178 7
-1 6 13 8.89156 16.061 6
0 -6 -13 37.0443 8.85682 7
0 6 13 34.6353 17.3241 6
-6 6 -13 20.2763 8.21679 8
0 -6 -13 19.0298 7.94997 8
-6 6 13 24.5534 8.18552 11
0 -6 -13 3.75842 18.5607 5
-6 6 13 40.8513 16.4797 6
6 0 13 -2.7837 13.7882 6
0 6 -13 62.3981 12.2509 12
-6 0 -13 35.5009 8.88824 8
6 -6 13 -5.4402 12.0191 4
6 0 13 27.2761 16.3203 4
6 -6 -13 40.6734 9.30278 7
-4 -3 -13 6.425 7.72949 8
-4 7 13 3.84607 14.8614 6
3 4 13 -1.3339 15.9276 6
3 -7 -13 9.3894 7.54439 7
-4 -3 -13 -1.0682 8.46361 7
-4 7 13 3.61863 5.97178 11
7 -4 -13 2.32833 9.29926 7
-3 7 -13 10.1821 9.1694 12
7 -3 13 3.25636 13.2146 4
-7 4 -13 8.50358 8.48464 8
4 3 13 0.1855 16.4096 6
-3 7 13 9.56763 14.398 6
-7 3 -13 10.408 8.55988 8
3 4 -13 10.9388 10.1716 12
-7 4 13 -1.1674 15.2755 6
-3 -4 -13 8.69097 7.81371 7
7 -3 -13 4.60761 8.60029 7
4 -7 -13 8.13636 7.98697 7
-3 -4 -13 15.9746 8.48365 8
7 -4 13 13.8835 13.6211 4
4 3 13 16.2011 16.0255 4
-7 5 -13 20.1991 8.74354 8
-2 7 -13 20.3884 10.6897 12
-5 7 13 37.9724 16.7334 6
-5 7 13 22.9063 8.15746 11
2 5 13 33.0375 17.5086 6
-5 -2 -13 27.8421 8.08034 8
7 -2 13 21.639 13.8001 4
2 -7 -13 23.3095 7.38923 7
7 -5 -13 26.0106 9.52223 7
-2 -5 -13 17.0524 8.35509 7
-7 5 13 22.0983 15.8521 6
-7 2 -13 21.1409 8.49571 8
5 2 13 24.7213 15.6031 4
5 -7 -13 34.3941 9.21956 7
7 -5 13 24.3926 13.9103 4
5 2 13 33.0047 17.0047 6
-5 7 -13 24.4528 6.65461 8
2 5 -13 35.5713 11.449 12
-2 7 13 34.7309 16.9789 6
-2 -5 -13 14.0057 8.2137 8
-2 -5 -13 17.2024 14.182 5
6 -7 13 3.72328 16.7035 5
1 -7 -13 20.5469 7.76802 7
-6 7 13 6.3208 7.66135 11
-6 -1 -13 10.3891 7.72326 8
-7 6 -13 12.8916 8.26944 8
7 -6 -13 15.0823 8.70375 7
-1 7 -13 13.9805 11.5566 12
-6 7 13 17.3249 16.4195 6
1 6 13 11.6796 16.5777 6
1 -7 -13 8.42272 7.47588 8
7 -1 13 17.4359 14.929 4
6 1 13 15.4421 15.0447 4
-7 1 -13 14.3375 8.26369 8
6 -7 -13 13.1935 8.4377 7
-7 6 13 13.1009 14.1386 6
-6 7 -13 6.4259 7.62731 8
-1 -6 -13 8.20202 7.78134 8
-1 -6 -13 10.9594 8.15907 7
6 1 13 6.28504 14.3904 6
-1 7 13 3.10193 16.2427 6
-7 6 13 15.2394 7.94837 11
1 6 -13 17.2879 10.5807 12
-1 -6 -13 14.5741 13.6883 5
7 -6 13 1.14996 11.5141 4
-7 0 -13 35.5688 8.60271 8
0 -7 -13 32.7688 8.54391 7
-7 7 13 32.4067 15.0636 6
-7 7 -13 22.0466 8.37116 8
0 7 -13 24.7592 11.7392 12
7 -7 13 5.82956 11.4518 5
-7 7 13 27.2693 8.38883 11
0 7 13 36.1238 17.1034 6
7 0 13 19.0664 13.5448 4
7 -7 -13 28.5619 8.73954 7
0 -7 -13 14.6133 8.30705 8
4 4 13 18.8794 15.9566 4
8 -4 13 14.2132 13.7827 4
-4 -4 -13 20.6418 8.26759 8
-4 8 -13 5.63814 7.60818 12
4 4 -13 24.8451 10.972 12
8 -4 -13 22.0248 9.80613 7
-4 -4 -13 20.1091 9.05412 7
-4 8 13 6.93634 7.08191 11
-8 4 -13 22.1953 8.96733 8
4 -8 -13 21.7648 7.94756 7
-4 8 13 12.8237 14.7961 6
4 4 13 19.8403 16.873 6
8 -5 -13 22.5434 9.65863 7
3 5 13 52.0254 19.0057 6
-8 5 -13 18.9221 8.85978 8
-5 -3 -13 28.1654 8.06114 8
-3 8 -13 28.791 10.7428 12
-5 8 13 28.31 16.1996 6
3 -8 -13 23.8905 7.36424 7
8 -3 13 38.2326 14.3893 4
-5 8 13 29.6234 8.35583 11
5 3 13 31.4173 17.5722 6
-8 3 -13 38.0927 9.32537 8
8 -5 13 29.8301 12.9166 4
8 -3 -13 5.58788 7.65178 7
-3 8 13 42.116 17.2683 6
5 -8 -13 29.6032 8.71869 7
-3 -5 -13 25.3436 8.33464 8
3 5 -13 47.707 12.0397 12
5 3 13 41.7477 16.592 4
-3 -5 -13 25.414 12.9764 5
-8 5 13 33.9827 17.0496 6
-3 -5 -13 25.1253 8.22778 7
-6 -2 -13 30.437 8.14653 8
8 -2 13 48.694 15.9138 4
2 6 13 42.2219 18.1647 6
2 -8 -13 36.0774 7.61305 7
-2 8 -13 28.1256 11.4349 12
8 -6 -13 36.1344 9.78558 7
-8 6 -13 45.1048 9.4665 8
-6 8 13 34.0482 8.59072 11
2 -8 -13 17.5464 6.83465 8
-6 8 13 36.8535 15.7669 6
-8 6 13 33.6888 8.47226 11
-2 -6 -13 34.233 14.6018 5
8 -6 13 18.1973 11.3952 4
6 2 13 51.0326 16.5064 4
-8 2 -13 64.3185 10.0104 8
-2 -6 -13 52.952 9.47133 8
-2 -6 -13 29.8911 8.19834 7
2 6 -13 80.8737 13.1057 12
6 2 13 36.4862 16.5355 6
6 -8 -13 54.0625 9.62383 7
-2 8 13 41.991 16.6305 6
-8 6 13 37.8602 15.754 6
1 -8 -13 6.4905 7.21736 7
-7 8 13 5.47046 7.63624 11
1 -8 -13 6.91364 8.06735 8
8 -1 13 14.1808 13.4814 4
-7 8 13 11.1277 13.8074 6
8 -7 -13 17.8443 8.8649 7
-1 8 -13 12.1827 11.0032 12
-8 7 -13 8.7957 8.17287 8
1 7 13 4.62424 16.0228 6
-7 -1 -13 8.62206 7.52435 8
7 1 13 -3.7257 17.6651 6
-1 -7 -13 15.704 8.079 8
-8 7 13 6.17811 14.6852 6
7 1 13 18.0741 13.9981 4
-1 -7 -13 12.8658 7.7586 7
-1 8 13 4.12248 15.8733 6
-1 -7 -13 0.37894 12.9667 5
-8 7 13 16.484 7.62704 11
-8 1 -13 3.50219 7.76034 8
1 7 -13 14.6665 10.9876 12
7 -8 -13 0.99175 7.54288 7
0 -8 -13 0.92312 7.53275 8
0 8 -13 2.6689 10.8704 12
8 0 13 5.75076 13.3417 4
8 -8 -13 6.43994 8.05588 7
8 -8 13 2.57369 11.1969 5
-8 8 13 -7.7806 13.5339 6
-8 8 13 -0.6747 7.19969 11
0 -8 -13 -0.8633 7.4213 7
-8 8 -13 5.71035 7.8365 8
-8 0 -13 2.28683 7.89548 8
0 8 13 1.04955 16.4081 6
-5 -4 -13 84.0266 9.95427 8
9 -4 13 70.4762 16.1728 4
-5 9 13 39.3071 9.81884 11
4 -9 -13 71.6879 9.7546 7
9 -5 -13 69.2321 11.5528 7
-5 9 13 34.2325 15.6352 6
-4 9 -13 44.716 10.2389 12
-9 5 -13 66.6411 10.3308 8
4 5 13 68.1239 18.8906 6
5 4 -13 70.1711 12.3303 12
-9 4 -13 46.6612 9.96184 8
9 -4 -13 57.651 10.954 7
9 -5 13 40.2935 13.6453 4
5 -9 -13 73.172 9.81432 7
-4 9 13 37.2674 16.4864 6
-4 -5 -13 60.7551 9.65512 8
4 5 -13 98.2858 13.8489 12
-9 5 13 81.6034 19.2993 6
5 4 13 77.2969 19.8431 6
-4 9 13 56.6936 9.65436 11
-6 -3 -13 30.3278 7.85404 8
-9 6 -13 25.7014 8.99555 8
3 -9 -13 -0.0477 6.96063 8
-6 9 13 -0.472 13.8029 6
9 -6 -13 23.7055 9.711 7
-3 9 -13 10.1862 10.3521 12
3 6 13 34.0476 17.4823 6
9 -3 13 26.7451 14.2585 4
3 -9 -13 26.2405 7.26319 7
-6 9 13 24.2618 8.45947 11
3 6 -13 44.5787 12.3696 12
-3 -6 -13 41.2805 8.21195 8
-3 -6 -13 28.2322 8.93269 7
-9 6 13 34.0808 15.3167 6
-9 3 -13 35.6668 8.95177 8
-3 9 13 4.91251 14.9345 6
-3 -6 -13 30.945 13.5215 5
9 -6 13 -2.3765 11.7321 4
6 3 13 -2.397 13.8789 4
6 -9 -13 50.0113 8.98559 7
6 3 13 21.9651 15.3218 6
-2 9 -13 30.6326 11.8648 12
9 -7 -13 31.2938 9.47513 7
2 7 13 14.3704 16.4506 6
-7 -2 -13 31.9447 7.98896 8
-7 9 13 27.0165 8.03146 11
2 -9 -13 20.4879 8.42651 8
2 -9 -13 26.7766 7.0263 7
-7 9 13 -3.3682 13.7817 6
-9 7 -13 25.1842 8.64984 8
9 -2 13 15.6296 13.2899 4
-2 9 13 -2.8895 15.0423 6
7 -9 -13 29.0781 8.56723 7
-9 7 13 1.46133 14.4315 6
7 2 13 -2.6851 14.5191 6
-2 -7 -13 19.641 7.3649 8
-9 2 -13 35.6141 9.12869 8
2 7 -13 28.3751 10.1773 12
-9 7 13 14.7811 7.72477 11
7 2 13 -6.9309 13.3678 4
-2 -7 -13 -0.2426 12.9345 5
-2 -7 -13 32.5319 7.83567 7
-9 8 -13 30.6319 8.69224 8
1 -9 -13 39.8829 9.18012 8
1 -9 -13 45.7151 8.70911 7
9 -1 13 22.1782 13.3115 4
-8 9 13 47.9799 8.86687 11
-8 -1 -13 75.3511 9.70423 8
1 8 13 22.5307 16.4225 6
9 -8 -13 50.7386 9.88829 7
-1 9 -13 59.093 12.9387 12
-9 1 -13 42.1998 8.60913 8
-9 8 13 20.9548 7.72264 11
9 -8 13 2.63393 11.7787 5
1 8 -13 30.6446 11.208 12
-1 -8 -13 28.4756 7.78016 8
-9 8 13 2.0877 13.6517 6
8 1 13 -5.9861 12.7517 4
-1 -8 -13 31.0334 7.86041 7
-1 9 13 -6.165 15.6546 6
8 -9 -13 38.8697 8.68802 7
0 9 -13 12.5178 10.2126 12
0 -9 -13 22.8492 7.96821 8
-9 9 13 17.9395 7.43015 11
0 -9 -13 24.2342 7.20173 7
-9 9 -13 2.12979 6.08439 9
-9 0 -13 25.1141 8.02484 8
9 -9 -13 20.9356 8.33707 7
9 0 13 -5.7044 18.7962 4
-5 -5 -13 39.4411 8.07623 8
10 -5 -13 49.8266 10.477 7
5 5 13 20.9306 15.1582 6
-10 5 -13 49.2828 9.30737 8
5 -10 -13 31.2724 7.83575 7
10 -5 13 15.1811 12.4897 4
5 5 -13 63.5926 11.6284 12
-5 10 13 43.6622 9.17888 11
-6 10 13 24.8666 8.60161 11
4 -10 -13 19.4413 7.23126 7
10 -4 13 11.901 12.6926 4
-4 10 -13 22.944 10.5233 12
4 6 13 15.2563 15.9145 6
10 -6 -13 24.5541 9.91043 7
-10 6 -13 29.2772 8.52393 8
-6 -4 -13 32.1805 7.55423 8
6 4 -13 34.0639 10.628 12
-4 -6 -13 9.71579 10.9885 5
10 -4 -13 0.77131 7.08402 7
6 4 13 -6.0917 13.0444 6
-10 6 13 17.8241 13.8784 6
4 6 -13 51.8666 10.7925 12
-10 4 -13 24.8974 8.98279 8
10 -6 13 1.05713 11.2042 4
-4 -6 -13 43.5872 7.90424 8
-4 10 13 28.4131 7.91887 11
6 -10 -13 47.8059 8.68292 7
-7 -3 -13 50.7905 8.49399 8
-10 7 -13 59.9228 9.41019 8
3 7 13 8.60936 15.2536 6
10 -3 13 17.1017 12.6425 4
3 -10 -13 28.0583 7.68111 8
3 -10 -13 19.9458 6.84758 7
10 -7 -13 34.6102 9.93038 7
-3 10 -13 39.3843 11.7941 12
-7 10 13 41.9124 8.44003 11
-10 3 -13 41.7567 9.26255 8
-3 -7 -13 35.3686 7.41054 8
7 3 13 -3.3511 18.8396 6
3 7 -13 71.8247 13.4025 12
7 -10 -13 42.5852 8.71336 7
-3 -7 -13 -1.184 12.3891 5
-3 -7 -13 35.9936 8.59457 7
-10 7 13 32.0156 8.0949 11
-10 7 13 0.77054 12.6341 6
-3 10 13 20.5342 5.86211 11
10 -8 -13 5.67433 8.57371 7
-8 10 13 1.82 7.19844 11
-8 -2 -13 5.86991 6.97189 8
-10 8 -13 -7.2304 7.80149 8
2 -10 -13 7.79908 6.5227 7
-2 10 -13 1.4932 11.3977 12
10 -2 13 -1.649 11.516 4
-10 8 -13 -0.8115 5.98922 9
2 8 13 -4.499 14.8249 6
2 -10 -13 4.11179 7.72219 8
-10 2 -13 10.1499 8.27451 8
-10 8 13 29.0045 7.64347 11
-2 -8 -13 30.5211 7.10342 7
-8 10 -13 1.15528 5.90602 9
2 8 -13 16.8096 9.78526 12
-2 -8 -13 22.1818 7.16303 8
10 -8 13 1.01411 12.6963 5
8 -10 -13 37.5503 8.65536 7
10 -9 -13 11.4197 8.1506 7
-10 9 -13 6.91864 7.63723 9
-9 -1 -13 2.70686 7.12131 8
-1 10 -13 17.9612 11.7979 12
1 -10 -13 0.6771 7.46317 8
-9 10 13 -1.5323 6.91748 11
1 -10 -13 9.2719 6.87666 7
9 -10 -13 -5.1726 7.39557 7
-1 -9 -13 12.9794 7.09115 8
-1 -9 -13 5.43703 6.23622 7
-9 10 -13 -0.6519 6.98736 9
-10 1 -13 5.64586 7.95311 8
1 9 -13 2.84738 10.1059 12
-10 9 13 8.05617 7.00756 11
-10 0 -13 34.4157 7.83705 8
0 10 -13 47.2887 13.1031 12
-10 10 13 50.3483 8.31182 11
-10 10 -13 37.1693 8.90185 9
10 -10 -13 33.8649 8.32636 7
10 -10 13 31.6687 6.91034 7
0 -10 -13 28.4195 7.9151 8
0 -10 -13 23.1488 6.89985 7
-5 11 -13 2.08522 8.13726 12
-6 -5 -13 41.4976 7.87961 8
11 -5 13 -3.046 25.3358 4
5 -11 -13 26.5374 7.19231 7
5 6 13 -3.991 15.7179 6
-11 6 -13 28.7879 9.1259 8
6 5 -13 38.1949 10.8273 12
11 -6 -13 11.7917 9.25414 7
-6 11 13 21.8542 7.93996 11
-5 -6 -13 17.123 6.83474 8
11 -5 -13 10.8496 7.74368 7
-5 11 13 11.9484 7.80374 11
-11 5 -13 28.6312 8.74417 8
6 5 13 -2.5916 21.2614 6
5 6 -13 15.0225 9.45405 12
6 -11 -13 16.3146 6.95436 7
-11 7 -13 15.8283 8.21196 8
-7 -4 -13 51.5612 8.29384 8
-7 11 13 25.0821 8.24791 11
11 -7 -13 25.0109 9.51829 7
-4 11 -13 28.5891 10.448 12
4 -11 -13 25.8918 6.91193 7
-11 4 -13 39.3369 9.15922 8
7 -11 -13 44.9281 8.47207 7
-11 7 13 42.2714 8.5044 11
4 7 -13 49.4736 10.9341 12
-4 11 13 34.3367 8.07559 11
-4 -7 -13 42.552 7.5685 8
11 -8 -13 -9.1322 8.22223 7
-3 11 -13 0.00702 10.71 12
3 -11 -13 1.25408 6.19999 7
-11 8 -13 2.50603 7.5346 9
3 -11 -13 -3.2418 6.88276 8
-8 -3 -13 3.36656 6.84009 8
-11 8 -13 -0.6298 7.5928 8
-8 11 13 0.24006 7.20529 11
-8 11 -13 0.6739 6.82112 9
-11 3 -13 -0.3196 7.87397 8
3 8 -13 13.3093 10.7723 12
-11 8 13 -0.4731 6.71452 11
8 -11 -13 -1.4679 6.69877 7
-3 11 13 2.95196 5.65091 11
-3 -8 -13 4.68699 6.28377 8
-11 9 -13 26.8655 9.00332 9
-9 11 13 24.5476 7.45405 11
11 -9 -13 19.9399 8.70557 7
-9 -2 -13 30.6627 7.31141 8
2 -11 -13 25.2543 8.08547 8
-2 11 -13 24.5213 11.8458 12
2 -11 -13 25.1734 6.97642 7
-11 2 -13 34.2309 8.61573 8
-2 -9 -13 29.3382 7.20142 8
-9 11 -13 28.7418 8.18796 9
2 9 -13 34.2914 11.2167 12
-11 9 13 37.202 7.84377 11
-2 -9 -13 27.5138 7.15689 7
9 -11 -13 34.2889 8.01362 7
1 -11 -13 23.9076 7.47675 8
1 -11 -13 25.3017 6.40609 7
-1 11 -13 10.8537 10.6007 12
-10 -1 -13 42.888 8.02536 8
-10 11 13 38.8157 7.95293 11
11 -10 -13 20.6856 7.93321 7
-11 10 -13 35.8716 9.11153 9
-1 -10 -13 12.6348 6.48969 8
-11 10 13 27.0356 7.3228 11
11 -10 13 24.5004 7.05247 7
-10 11 -13 14.1684 7.87451 9
-1 -10 -13 20.9612 6.03744 7
1 10 -13 27.5157 11.734 12
10 -11 -13 26.6889 8.17363 7
-11 1 -13 10.8549 7.46518 8
0 -11 -13 2.89426 3.77807 7
-11 11 13 34.4516 7.37684 11
-11 0 -13 25.3123 7.52361 8
-11 11 -13 17.1325 8.10427 9
11 -11 -13 25.1222 7.60193 7
0 -11 -13 15.222 6.55806 8
0 11 -13 10.3212 10.26 12
11 -11 13 11.0572 4.70182 7
12 -6 -13 2.64235 7.83301 7
-6 12 13 0.91718 6.8476 11
6 -12 -13 9.54887 6.46278 7
-6 -6 -13 6.25778 6.62109 8
-12 6 -13 0.91036 7.72111 8
-12 6 -13 -0.4203 5.74438 9
6 6 -13 13.2971 10.0618 12
-12 7 -13 2.30835 6.88207 9
-5 12 -13 2.03098 7.08965 12
7 5 -13 8.89034 8.55889 12
5 -12 -13 5.91343 5.92443 7
12 -7 -13 -1.2956 8.30848 7
-12 7 -13 0.86394 8.08578 8
-7 -5 -13 1.04792 6.53878 8
-7 12 13 4.08843 7.0222 11
7 -12 -13 3.66487 6.62446 7
-5 12 13 5.37268 7.26188 11
-5 -7 -13 5.82033 6.7504 8
-12 7 13 -6.5496 6.42312 11
-12 5 -13 3.6083 7.85065 8
5 7 -13 9.72038 9.61133 12
-12 8 -13 21.2564 8.21719 9
12 -8 -13 19.5523 8.71169 7
-8 12 13 22.7264 7.48221 11
4 -12 -13 6.88742 5.95781 8
-8 -4 -13 29.9099 7.22068 8
4 -12 -13 16.8899 5.94438 7
-4 12 -13 24.2688 10.5624 12
4 8 -13 60.8578 12.3526 12
-4 12 13 23.7613 7.42656 11
-12 4 -13 21.84 8.07089 8
8 -12 -13 38.0523 7.76008 7
-4 -8 -13 35.1218 6.68112 8
-12 8 13 42.5305 7.97499 11
-8 12 -13 22.0342 7.52121 9
12 -9 -13 23.9519 8.30653 7
-9 -3 -13 24.2731 6.83989 8
3 -12 -13 20.3479 7.24921 8
-3 12 -13 11.2005 10.5411 12
-9 12 13 31.1054 7.64874 11
-12 9 -13 31.9933 9.11644 9
3 -12 -13 26.7364 6.64733 7
3 9 -13 49.7904 10.8925 12
-12 9 13 48.9797 7.96589 11
9 -12 -13 51.2829 8.15927 7
-9 12 -13 36.6488 8.42517 9
-3 -9 -13 47.1462 7.1305 8
12 -9 13 48.31 7.56345 7
-12 3 -13 33.2677 8.54784 8
-3 12 13 33.8372 6.66222 11
12 -10 -13 13.4801 7.66287 7
-10 12 13 13.2661 7.03245 11
-12 10 -13 12.2845 8.4855 9
-10 -2 -13 16.6361 7.04482 8
-2 12 -13 9.14289 10.6791 12
2 -12 -13 2.93916 6.71966 8
2 -12 -13 11.1309 5.06028 7
-12 2 -13 0.17751 6.94551 8
-12 10 13 12.2327 6.56032 11
2 10 -13 2.18869 9.15008 12
12 -10 13 5.35493 6.12971 7
-10 12 -13 14.5771 7.75769 9
10 -12 -13 11.1632 6.80689 7
-2 -10 -13 6.12792 6.2005 8
-12 11 -13 18.637 8.48688 9
12 -11 -13 14.6055 7.2113 7
-11 -1 -13 26.1108 6.93742 8
-1 12 -13 20.4062 10.8111 12
-11 12 13 34.1826 7.17326 11
1 -12 -13 23.7839 6.85558 8
1 11 -13 30.8563 11.0132 12
-11 12 -13 28.3812 8.26441 9
12 -11 13 15.8455 6.29917 7
-12 11 13 29.3964 7.28962 11
-1 -11 -13 22.9539 6.40678 8
11 -12 -13 33.6184 7.83096 7
-12 1 -13 19.4527 7.30152 8
-12 12 13 28.1806 6.97667 11
-12 0 -13 14.4317 6.71993 8
0 12 -13 12.7613 10.1386 12
0 -12 -13 15.7839 6.15994 8
-12 12 -13 28.6591 8.24799 9
12 -12 -13 30.3333 7.61396 7
-13 7 -13 -2.5741 7.45645 8
-7 -6 -13 6.61136 6.2193 8
7 6 -13 3.06315 7.89408 12
6 -13 -13 5.12209 5.64659 7
13 -7 -13 0.15219 7.52235 7
-7 13 13 -0.0866 6.5845 11
-13 7 -13 2.15423 7.33062 9
13 -7 13 -0.3911 5.39688 7
-13 6 -13 -4.6622 7.13319 8
-13 6 -13 0.51886 5.933 9
7 -13 -13 1.57212 5.86705 7
-6 -7 -13 -0.0652 6.11958 8
6 7 -13 8.28151 9.44036 12
-13 7 13 -2.9518 6.06416 11
13 -6 -13 1.29339 9.08219 7
-6 13 13 3.77725 6.57185 11
-8 13 13 6.29511 6.60942 11
-13 8 -13 10.3805 7.73267 9
-5 13 -13 2.4123 6.74132 12
13 -8 -13 8.8203 7.72394 7
-8 -5 -13 17.0822 6.33111 8
5 -13 -13 9.04139 5.39418 7
8 -13 -13 10.6109 6.43948 7
-5 13 13 6.9235 7.01403 11
-13 8 13 29.5607 7.0807 11
-8 -5 13 4.51685 4.37024 10
-13 5 -13 12.0841 7.39327 8
5 8 -13 19.0439 10.0856 12
13 -8 13 13.2604 6.21129 7
-5 -8 -13 18.9478 5.89316 8
-13 5 -13 0.21951 8.30033 9
-13 9 -13 7.29966 8.41844 9
4 -13 -13 5.16715 6.02426 8
-9 -4 -13 13.8322 6.37886 8
-4 13 -13 6.43635 9.41679 12
4 -13 -13 8.71335 5.61504 7
13 -9 -13 2.12559 7.5617 7
-9 13 13 -0.6664 6.3174 11
4 9 -13 16.0763 9.62481 12
13 -9 13 0.02326 5.73197 7
9 -13 -13 8.79394 6.40425 7
-13 4 -13 8.67219 7.09231 8
-9 13 -13 9.2786 7.17954 9
-13 9 13 11.857 6.22652 11
-4 -9 -13 9.76807 5.30993 8
-9 -4 13 3.61508 4.46238 10
-4 13 13 7.31425 6.61886 11
-3 13 -13 15.8824 10.3361 12
13 -10 -13 6.7175 7.06227 7
-10 -3 -13 10.0569 6.4566 8
-13 10 -13 10.2453 8.58968 9
-10 13 13 9.89441 6.34938 11
3 -13 -13 0.4994 6.11167 8
3 -13 -13 0.57074 3.85188 7
-13 10 13 13.8302 6.35566 11
13 -10 13 6.31442 5.89133 7
-3 -10 -13 10.8579 5.48883 8
-3 13 13 5.38419 4.7847 11
3 10 -13 5.51994 9.45957 12
-10 -3 13 2.86341 5.32515 10
-13 3 -13 9.27087 6.79807 8
-10 13 -13 8.62055 7.17896 9
10 -13 -13 7.96603 6.1281 7
-2 13 -13 14.5216 10.4424 12
2 -13 -13 6.36254 6.27674 8
13 -11 -13 6.31752 6.63708 7
-13 11 -13 19.8029 8.45333 9
-11 -2 -13 3.23139 6.08744 8
-11 13 13 4.98417 6.57716 11
-2 -11 -13 6.53685 5.22813 8
11 -13 -13 7.06332 6.17673 7
2 11 -13 9.30456 9.95477 12
-13 11 13 4.91538 6.13319 11
13 -11 13 0.98251 5.54136 7
-11 13 -13 6.90678 7.20015 9
-13 2 -13 10.1549 6.61847 8
-13 12 -13 5.11672 7.63482 9
13 -12 -13 -3.8538 5.78833 7
1 -13 -13 3.60242 5.73579 8
-1 13 -13 -2.8348 9.59424 12
-12 13 13 1.64426 5.87232 11
-12 -1 -13 1.22104 6.17683 8
1 12 -13 -6.2115 9.48155 12
-13 1 -13 4.78579 6.30128 8
12 -13 -13 0.04956 6.05143 7
-1 -12 -13 -0.2269 4.84112 8
13 -12 13 2.66216 3.98555 7
-13 12 13 0.07997 5.75543 11
-12 13 -13 -0.7297 7.20464 9
0 13 -13 25.9895 10.4505 12
13 0 13 14.5744 6.00613 7
0 -13 -13 10.654 5.26271 8
-13 0 -13 12.7705 6.08478 8
13 -13 -13 17.56 6.56169 7
-13 13 -13 22.9637 7.97963 9
-13 13 13 17.7183 6.20915 11
-14 7 -13 2.7272 6.76722 9
14 -7 -13 2.00085 6.87409 7
-7 14 13 -2.0851 5.95335 11
7 7 -13 -1.2519 7.869 12
-7 -7 -13 -2.0731 5.57222 8
14 -7 13 -2.5279 5.28306 7
7 -14 -13 3.37922 5.3673 7
-14 7 13 -3.745 5.34477 11
-8 -6 -13 3.20475 5.59044 8
6 -14 -13 2.12061 4.73438 7
-8 14 13 2.96997 5.89398 11
-14 8 -13 6.45688 7.24276 9
14 -6 13 -0.8073 5.66095 7
14 -8 -13 8.39126 6.80234 7
14 -8 13 -0.7987 5.41245 7
8 -14 -13 6.88184 5.76807 7
-14 8 13 1.56127 5.44194 11
-8 -6 13 3.92446 4.72551 10
-14 6 -13 4.92957 6.02937 9
6 8 -13 1.45976 8.56624 12
-14 6 -13 0.46547 6.6339 8
-6 -8 -13 4.7865 5.48842 8
-6 14 13 -5.0866 6.52691 11
5 -14 -13 4.76714 4.14389 7
-5 14 -13 0.79596 8.79601 12
14 -9 -13 -1.1067 6.75615 7
-14 9 -13 -0.3216 7.37872 9
-9 14 13 -0.0739 5.7566 11
14 -5 13 -2.925 5.477 7
5 -14 -13 0.86992 7.33312 8
-9 -5 -13 0.90223 5.48253 8
14 -9 13 -1.5143 5.02015 7
-14 9 13 1.92795 5.57217 11
-5 14 13 -3.4491 6.27442 11
-9 -5 13 3.59226 4.51306 10
9 -14 -13 3.5401 5.88728 7
-14 5 -13 0.76129 6.02093 8
-14 5 -13 -0.9473 5.46902 9
-5 -9 -13 1.53419 5.77599 8
5 9 -13 -6.9534 8.82614 12
-4 14 -13 9.81073 8.87789 12
4 -14 -13 0.90295 5.40602 8
-10 -4 -13 11.1947 5.91993 8
14 -10 -13 6.95609 6.84748 7
14 -4 13 12.7837 6.00414 7
-10 14 13 7.31112 5.61914 11
-14 10 -13 18.8327 8.68423 9
14 -10 13 10.977 5.48553 7
-10 -4 13 2.63777 4.354 10
-4 14 13 4.63377 6.04048 11
-4 -10 -13 11.2592 5.58887 8
-14 4 -13 1.02601 6.30396 8
4 10 -13 13.0439 9.7471 12
10 -14 -13 5.91783 5.86927 7
-14 10 13 9.78887 5.84963 11
14 -3 13 3.06292 5.77147 7
-11 -3 -13 6.84486 5.65648 8
-3 14 -13 13.5416 9.1475 12
3 -14 -13 3.58078 5.67194 8
14 -11 -13 2.26558 6.25245 7
-11 14 13 12.3581 5.89467 11
-14 11 -13 8.65003 7.9653 9
-14 11 13 11.1996 5.63409 11
-11 -3 13 3.33931 5.51631 10
-11 14 -13 1.8517 6.76879 9
-3 -11 -13 8.36983 4.8212 8
-14 3 -13 4.27661 5.95406 8
11 -14 -13 4.20747 5.66468 7
3 11 -13 13.5544 9.39573 12
14 -11 13 5.86558 5.36747 7
14 -12 -13 5.61872 5.99354 7
-12 14 13 13.0605 5.84801 11
2 -14 -13 3.38056 5.43427 8
-2 14 -13 3.73829 9.86109 12
-14 12 -13 7.59648 7.58029 9
14 -2 13 4.20819 5.75858 7
-12 -2 -13 0.01727 5.8927 8
-14 2 -13 5.55884 5.79215 8
12 -14 -13 1.32106 5.57215 7
2 12 -13 20.0728 10.0598 12
-2 -12 -13 0.73841 4.71381 8
-12 14 -13 7.61254 6.93559 9
14 -12 13 4.18972 4.68723 7
-14 12 13 7.23878 5.35536 11
14 -13 -13 4.56938 5.24394 7
-14 13 -13 11.32 7.40044 9
1 -14 -13 3.41909 5.06222 8
-13 -1 -13 9.39229 5.67458 8
14 -1 13 12.0851 5.74159 7
-13 14 13 10.3163 5.67317 11
-1 14 -13 12.3342 9.71488 12
1 13 -13 -3.1766 9.36054 12
13 -14 -13 5.88928 5.70341 7
-13 14 -13 7.87058 6.87124 9
-14 13 13 7.12799 5.55932 11
-1 -13 -13 1.92106 4.63111 8
-14 1 -13 4.29431 5.51632 8
-14 14 -13 -2.1871 6.7149 9
-14 14 13 0.95097 5.2901 11
0 14 -13 3.666 9.66496 12
-14 0 -13 4.60375 5.08839 8
14 -14 -13 0.66543 5.71594 7
0 -14 -13 3.50412 4.82967 8
7 -15 -13 5.47331 3.79502 7
-15 8 -13 5.10022 6.64644 9
15 -7 13 1.55519 5.32124 7
-15 7 13 1.79818 5.20817 11
-8 -7 -13 6.53509 5.20859 8
-8 15 13 3.08407 5.8137 11
-15 8 13 11.3264 5.38712 11
7 8 -13 -1.7608 7.29598 12
-15 7 -13 1.74006 5.99666 9
8 -15 -13 6.1997 4.75407 7
-7 -8 -13 0.89092 5.15578 8
-7 15 13 1.54033 5.971 11
15 -8 13 1.42997 5.1766 7
-8 -7 13 0.67663 5.03584 10
15 -6 13 -0.1188 4.92354 7
-9 15 13 4.72997 5.57684 11
15 -9 -13 4.93263 5.81813 7
-9 -6 -13 5.43315 5.18916 8
-15 6 13 0.7942 5.12313 11
-15 9 -13 2.2802 7.39452 9
9 -15 -13 -0.1963 4.99692 7
-6 15 13 3.92714 6.02424 11
-6 -9 -13 -3.0401 5.04892 8
-15 6 -13 -2.1501 4.98774 9
6 9 -13 7.85212 7.86062 12
-15 9 13 4.46774 5.20796 11
15 -9 13 1.56495 5.23249 7
-9 -6 13 3.63672 4.781 10
15 -10 -13 8.67358 6.30221 7
-10 -5 -13 15.5113 5.7584 8
-15 10 -13 7.89223 7.39748 9
15 -5 13 6.71607 4.92027 7
-10 15 13 4.25915 5.4826 11
-5 15 13 -0.39 6.03098 11
-10 -5 13 3.49552 4.29411 10
-5 -10 -13 2.92842 5.06584 8
15 -10 13 6.147 5.07389 7
10 -15 -13 2.65082 5.10969 7
-15 5 -13 1.35039 5.50521 8
-15 10 13 1.56018 5.21737 11
5 10 -13 9.97223 8.16581 12
15 -11 -13 4.73602 5.97357 7
-11 15 13 6.3543 5.51259 11
-11 -4 -13 5.57483 5.4317 8
15 -4 13 5.36771 5.43383 7
-15 11 -13 3.0882 7.4636 9
-4 15 -13 4.4436 7.35637 12
4 -15 -13 -4.3789 4.59312 8
-4 15 13 2.74381 4.33297 11
15 -11 13 -3.6738 4.95104 7
-11 -4 13 4.42125 4.87822 10
11 -15 -13 3.64899 5.24603 7
-4 -11 -13 0.82537 4.67291 8
4 11 -13 0.66581 8.50751 12
-15 11 13 2.54519 5.2398 11
-15 4 -13 -0.3481 5.51773 8
-12 15 13 8.19129 5.27878 11
-3 15 -13 1.82824 8.96869 12
-12 -3 -13 -2.3841 5.67298 8
3 -15 -13 -2.9645 5.05415 8
15 -3 13 7.44531 5.74037 7
-15 12 -13 -0.9876 7.30811 9
15 -12 -13 3.36442 5.73769 7
-15 12 13 10.6456 5.40524 11
3 12 -13 -2.1406 9.00301 12
-12 15 -13 10.3794 6.74544 9
-15 3 -13 0.4914 5.43045 8
15 -12 13 4.80319 4.50003 7
-3 -12 -13 3.39034 4.48229 8
12 -15 -13 10.2587 5.44683 7
-15 13 -13 3.5088 7.32323 9
-13 -2 -13 4.3752 5.00461 8
15 -2 13 6.61971 4.80113 7
-2 15 -13 2.56369 9.62351 12
-13 15 13 3.02269 5.33472 11
15 -13 -13 5.63611 5.76633 7
2 -15 -13 5.76298 5.07729 8
-15 2 -13 -0.0996 4.45761 8
-15 13 13 6.34202 5.63045 11
-13 15 -13 2.6274 6.68639 9
-2 -13 -13 0.00637 4.28577 8
13 -15 -13 3.2172 5.40089 7
2 13 -13 2.90319 9.1077 12
15 -14 -13 2.48925 5.63119 7
-14 15 13 -1.3385 5.63047 11
1 -15 -13 -1.4318 4.78255 8
-15 14 -13 -3.9394 6.99915 9
-1 15 -13 7.57752 9.80799 12
-1 -14 -13 0.95481 4.64983 8
-14 15 -13 2.02632 7.03772 9
1 14 -13 -2.8823 9.35714 12
-15 14 13 5.74276 5.65172 11
14 -15 -13 8.55542 5.67384 7
0 15 -13 -2.6701 10.4815 12
0 -15 -13 2.50092 4.86068 8
-8 16 13 -2.331 5.45088 11
-16 8 13 4.0246 5.10332 11
-8 -8 -13 -4.5546 4.7737 8
16 -8 13 1.63953 5.34632 7
-8 -8 13 0.86892 3.6652 10
-16 8 -13 3.55097 6.0029 9
-9 -7 -13 0.80036 4.77542 8
16 -7 13 1.88459 4.98912 7
-16 7 13 7.78045 5.32249 11
-9 16 13 -0.4532 5.17485 11
-16 9 -13 3.89012 6.51674 9
-16 7 -13 -1.604 4.28119 9
-9 -7 13 2.90673 3.73945 10
9 -16 -13 1.04115 3.10984 7
7 9 -13 5.41945 6.97885 12
-7 16 13 0.83418 5.70085 11
-7 -9 -13 0.15698 4.83114 8
-16 9 13 4.85912 5.36103 11
16 -9 13 0.64816 4.94499 7
-10 16 13 13.2638 5.67353 11
-10 -6 -13 7.27715 4.93525 8
16 -10 -13 7.51467 4.2966 7
-16 10 -13 13.8487 6.92973 9
16 -6 13 8.82755 5.68006 7
10 -16 13 5.50111 3.51451 8
-16 6 13 11.7461 5.16388 11
16 -10 13 6.86849 4.86995 7
10 -16 -13 10.3663 4.36942 7
-6 -10 -13 10.4427 4.74337 8
-6 16 13 4.2405 5.36956 11
-10 -6 13 4.10291 4.85231 10
-16 10 13 16.1444 5.57237 11
6 10 -13 10.7815 7.67217 12
16 -5 13 4.70774 5.65224 7
-16 5 13 0.59814 5.01619 11
-11 16 13 1.21681 5.51754 11
-11 -5 -13 0.18938 4.97356 8
16 -11 -13 6.9246 5.78619 7
-16 11 -13 0.73469 6.68408 9
16 -11 13 0.07272 4.64812 7
-5 -11 -13 0.9292 4.8022 8
-5 16 13 3.42388 4.30509 11
11 -16 -13 -0.7373 4.74631 7
5 11 -13 -2.2032 7.62541 12
-16 11 13 2.98732 5.76276 11
-12 16 13 3.90525 5.55826 11
16 -4 13 14.1987 5.96427 7
16 -12 -13 3.32137 5.6126 7
-16 12 -13 13.2802 7.23496 9
4 -16 -13 1.34753 3.48171 8
-12 -4 -13 3.24317 4.29078 8
12 -16 -13 13.1353 5.23657 7
4 12 -13 8.98682 8.4571 12
16 -12 13 12.6862 4.83428 7
-16 12 13 11.9062 6.09904 11
-4 -12 -13 10.0601 4.88597 8
16 -3 13 2.47462 4.24223 7
-3 16 -13 0.88694 6.00881 12
16 -13 -13 -1.6512 5.6843 7
-13 16 13 8.41813 5.73698 11
-16 13 -13 4.34949 7.41899 9
3 -16 -13 5.28826 4.13418 8
3 13 -13 13.4893 10.0376 12
-16 13 13 5.24095 6.13927 11
13 -16 -13 5.6596 5.48043 7
-3 -13 -13 10.1599 4.85629 8
-2 16 -13 6.06543 7.98514 12
2 -16 -13 7.81587 4.66747 8
-2 -14 -13 4.19518 4.90711 8
2 14 -13 15.2004 10.8082 12
17 -8 13 -3.128 5.26012 7
-17 8 13 4.46079 5.62419 11
-9 -8 -13 0.65324 4.7003 8
-17 9 -13 0.7742 4.52331 9
-9 17 13 0.39332 6.33182 11
-8 17 13 3.55509 5.93181 11
-17 8 -13 0.83762 5.58015 9
17 -9 13 0.52671 5.31997 7
-8 -9 -13 2.86061 4.70956 8
-17 9 13 0.52113 5.48993 11
17 -7 13 2.28662 5.862 7
-17 10 -13 -0.4005 5.71436 9
-10 -7 -13 2.67855 4.10426 8
-10 17 13 3.92815 6.14382 11
-17 7 13 2.20151 5.55347 11
17 -10 13 -4.6039 5.37474 7
-7 -10 -13 -0.1011 4.91049 8
-17 10 13 -2.4269 5.49578 11
-7 17 13 -0.0898 5.62127 11
-11 -6 -13 1.24952 3.66835 8
6 11 -13 9.61719 7.60795 12
-6 -11 -13 -3.0851 5.21078 8
-6 17 13 1.54841 3.95996 11
0 0 -14 3.24239 8.1512 7
0 0 14 -0.4162 12.5531 6
-1 0 -14 10.3708 8.09261 7
1 0 -14 17.9807 8.54509 7
1 -1 -14 20.7194 9.07639 7
0 1 14 13.5404 13.4552 6
-1 1 -14 8.54323 8.19612 7
0 1 -14 9.08508 8.30569 7
0 -1 -14 11.1338 8.11178 7
-1 1 14 7.20362 14.3596 6
1 0 14 0.67268 12.8861 6
-1 0 14 -2.0704 12.351 6
2 -1 14 9.22558 16.211 4
2 -1 -14 10.6639 9.20157 7
1 -2 -14 11.0116 8.61892 7
-2 1 -14 0.23072 8.30863 7
1 1 -14 16.1355 8.26203 7
-2 1 14 -2.7188 13.6572 6
-1 2 -14 6.35519 8.69151 7
-1 -1 -14 8.39798 7.58161 7
-1 2 14 3.92001 14.0455 6
1 1 14 2.56629 13.4449 6
1 -2 14 -5.3186 16.628 4
0 2 -14 44.1571 8.76116 7
0 2 14 40.4859 15.7606 6
2 0 14 33.9691 16.6415 4
2 -2 -14 51.9691 9.97905 7
-2 0 -14 54.1183 9.23856 7
2 -2 14 5.89756 13.7308 4
2 0 14 -2.7382 15.596 6
-2 2 14 36.1577 15.058 6
2 0 -14 44.4415 9.96098 7
0 -2 -14 37.3248 9.20528 7
-2 3 14 19.5517 15.4228 6
-3 1 14 13.2641 14.3151 6
3 -1 14 16.2174 15.2858 4
-2 -1 -14 17.6981 7.97345 7
3 -2 -14 15.965 8.74774 7
1 2 14 16.8276 15.984 6
-2 -1 -14 13.7687 7.62232 8
-3 2 -14 7.84754 6.44202 8
2 1 -14 9.12707 6.74252 7
1 -3 -14 14.3899 8.55084 7
-3 1 -14 13.0943 7.88572 8
-1 3 14 7.16239 14.0979 6
-1 -2 -14 13.3984 8.03307 7
3 -1 -14 17.0806 9.57124 7
1 2 -14 3.98181 7.31799 7
3 -2 14 14.4036 14.3084 4
-1 -2 -14 1.98385 7.4566 8
-3 2 14 13.2597 14.7001 6
2 1 14 0.76472 12.792 6
2 -3 -14 22.7039 8.40701 7
-3 0 -14 -5.3903 7.87945 8
3 -3 -14 7.34933 7.66996 7
-3 3 14 9.78111 15.3884 6
0 3 14 6.9255 15.1291 6
-3 0 -14 5.93045 8.20478 7
3 0 14 -0.8946 15.6127 4
3 0 -14 13.7883 8.7158 7
0 -3 -14 2.95471 8.03081 7
3 -3 14 -6.3481 13.3038 4
-3 0 14 -1.2099 13.0469 6
-2 -2 -14 -4.8149 7.79972 8
-2 4 14 7.3798 14.6349 6
-4 2 -14 12.5682 8.66961 8
2 2 14 5.32698 15.2799 6
2 -4 -14 10.8248 7.71994 7
-4 2 14 2.60015 13.8029 6
4 -2 14 0.81465 14.4087 4
4 -2 -14 2.15426 8.10322 7
-2 -2 -14 4.75853 7.35118 7
4 -1 14 14.6683 14.8326 4
-4 1 14 -0.317 13.2105 6
-3 -1 -14 13.4537 8.64401 8
-4 3 -14 12.0118 8.20797 8
1 -4 -14 17.3382 8.40469 7
-3 -1 -14 19.839 9.06343 7
1 3 14 28.3471 16.2613 6
4 -3 -14 7.95424 8.14538 7
-3 4 14 14.2638 15.1479 6
-1 4 14 31.4882 16.1573 6
3 -4 -14 12.7502 7.31414 7
-1 -3 -14 18.8656 8.49738 7
-4 3 14 7.15239 15.7216 6
4 -3 14 5.41097 11.9473 4
3 1 14 -5.599 13.1502 6
4 -1 -14 17.7569 8.9357 7
-4 1 -14 17.5679 9.27607 8
-1 -3 -14 18.1373 7.36831 8
3 1 14 21.3438 16.4158 4
0 -4 -14 1.94834 6.36595 8
4 -4 -14 6.17568 7.51018 7
-4 0 -14 -5.3725 8.35884 8
4 0 14 1.7644 14.7232 4
4 0 -14 3.63234 9.15901 7
-4 4 -14 8.03961 6.84181 8
-4 4 14 6.40474 15.2063 6
0 -4 -14 9.28967 8.42261 7
0 4 14 1.51957 15.044 6
-4 0 14 1.45221 13.4212 6
-3 -2 -14 4.83843 8.43732 8
-5 3 -14 4.49135 8.63248 8
5 -2 14 -2.3971 12.6739 4
2 3 14 11.4925 15.3248 6
-3 -2 -14 3.46273 8.81779 7
2 -5 -14 -0.8806 7.6637 7
-5 2 14 -4.6279 13.2811 6
-3 5 14 -6.664 13.9573 6
5 -3 -14 10.173 8.30861 7
3 -5 -14 13.0494 7.30817 7
5 -3 14 2.34259 12.4308 4
5 -2 -14 15.7703 8.56323 7
3 2 14 -3.9467 13.4032 6
-2 5 14 15.5196 15.4067 6
3 2 14 7.63494 16.048 4
-5 2 -14 8.80861 8.86287 8
-2 -3 -14 3.62606 7.93553 7
-5 3 14 15.7938 14.507 6
-2 -3 -14 12.5702 8.39116 8
-4 -1 -14 14.3632 8.69015 8
-4 5 14 10.5548 14.1561 6
5 -4 -14 25.1467 8.4375 7
1 4 14 14.4411 15.7853 6
-5 4 -14 18.1447 8.68421 8
-5 1 14 2.60459 12.2803 6
1 -5 -14 24.5509 9.08618 7
5 -1 14 18.6379 14.4262 4
-5 4 14 7.54699 15.1471 6
-1 -4 -14 6.26032 8.13825 8
4 1 14 24.5215 16 4
5 -1 -14 9.02955 7.09844 7
4 -5 -14 16.4189 7.63383 7
-5 4 14 11.2033 6.42931 11
-1 -4 -14 5.41434 7.98264 7
-1 5 14 10.4303 15.5864 6
5 -4 14 -2.7908 19.3253 4
-4 5 -14 13.3901 5.67469 8
-5 1 -14 4.82948 9.24548 8
5 0 14 17.624 14.9781 4
0 -5 -14 12.1969 8.29385 7
0 5 14 11.5793 16.4071 6
-5 5 14 7.06196 6.55636 11
-5 5 14 1.01822 14.3999 6
-5 5 -14 3.04966 7.8839 8
0 -5 -14 10.7708 7.3991 8
-5 0 -14 9.39524 8.84459 8
5 -5 -14 3.76875 7.85252 7
-6 3 -14 11.9595 8.87569 8
-3 6 14 2.04849 14.6866 6
3 3 14 0.8591 14.4756 6
-3 -3 -14 5.03886 8.17365 8
-6 3 14 14.0766 14.8375 6
3 -6 -14 17.0737 7.45839 7
6 -3 -14 1.59651 8.40579 7
6 -3 14 1.4577 11.8589 4
3 3 14 25.1518 16.5018 4
-3 -3 -14 11.7326 8.8665 7
6 -4 -14 -7.4831 8.39786 7
-6 4 -14 5.89448 8.50018 8
-6 2 14 4.21825 12.4766 6
-4 6 14 3.36921 4.5926 11
6 -2 14 -1.326 13.0824 4
2 4 14 -1.5488 14.8355 6
-4 -2 -14 0.7851 8.08108 8
2 -6 -14 8.25353 7.68666 7
-4 6 14 8.40261 15.3425 6
-2 6 14 -3.2175 14.5614 6
-6 4 14 5.22224 7.15922 11
4 2 14 -4.691 16.3678 6
-6 4 14 6.44222 15.2617 6
-6 2 -14 2.70442 9.01779 8
-2 -4 -14 4.3777 7.42077 7
4 2 14 5.16897 15.5426 4
-2 -4 -14 8.90158 8.27733 8
4 -6 -14 8.18834 7.237 7
6 -4 14 -4.0847 11.9971 4
6 -2 -14 6.56391 7.9507 7
1 -6 -14 -0.1262 5.82898 8
1 5 14 7.97994 15.1458 6
6 -5 -14 1.1984 8.15971 7
-6 1 14 1.78445 22.1551 6
-6 5 -14 4.41326 8.28302 8
-5 6 14 6.2383 6.7765 11
1 -6 -14 13.8956 8.27599 7
6 -1 14 1.15311 13.0184 4
-5 6 14 8.4251 14.5133 6
-5 -1 -14 10.969 8.16006 8
-6 5 14 -8.4939 15.0167 6
-1 6 14 -9.659 15.2856 6
-6 5 14 -1.8794 7.00146 11
-1 -5 -14 6.64797 8.13564 8
-6 1 -14 10.6352 8.90762 8
5 -6 -14 1.06666 7.33284 7
-1 -5 -14 5.77891 7.84544 7
-5 6 -14 8.31647 7.19699 8
5 1 14 4.38321 14.1972 4
-6 0 -14 4.801 8.28967 8
6 0 14 -0.6519 13.5553 4
-6 6 14 -1.9077 13.5893 6
0 -6 -14 8.46223 7.91904 7
0 6 14 0.35591 14.663 6
6 -6 -14 11.5187 8.03325 7
-6 6 -14 6.40553 7.80153 8
-6 6 14 -2.8436 7.09775 11
0 -6 -14 0.80914 8.06788 8
-4 7 14 4.28732 4.60325 11
-4 -3 -14 31.1745 8.49193 8
3 -7 -14 33.2575 7.28492 7
3 4 14 -4.5874 13.2278 6
7 -3 14 -5.1733 10.8893 4
7 -4 -14 40.0917 9.80856 7
3 4 14 -5.8358 13.5564 4
-7 4 -14 21.6672 8.93607 8
-7 3 14 5.5405 13.1892 6
-4 7 14 14.5554 13.8089 6
7 -3 -14 26.6628 8.97959 7
-7 3 -14 21.9017 9.11498 8
4 3 14 1.02778 13.46 4
-3 7 14 6.19485 14.0822 6
4 3 14 -1.9771 17.5457 6
-7 4 14 16.0099 13.7678 6
-3 -4 -14 28.4408 8.77759 8
-3 -4 -14 31.8061 9.3856 7
7 -4 14 -5.45 12.7428 4
4 -7 -14 31.1818 7.64509 7
7 -2 14 -5.9245 11.6444 4
-7 5 -14 6.09929 8.67023 8
-5 7 14 -7.8837 13.0839 6
-7 2 14 1.54455 13.8987 6
-5 -2 -14 15.3662 8.12917 8
2 5 14 -1.1975 13.9801 6
-5 7 14 8.28623 6.86948 11
7 -5 -14 8.23649 8.98076 7
2 -7 -14 18.163 7.59847 7
5 -7 -14 -6.2325 6.82636 7
5 2 14 -8.6311 12.4731 4
-2 7 14 4.99941 13.5648 6
-7 2 -14 6.18346 8.74127 8
7 -2 -14 3.43843 6.44806 7
-2 -5 -14 2.97609 7.31004 7
-7 5 14 -3.7008 6.91267 11
-7 5 14 3.236 13.6246 6
-2 -5 -14 -2.158 7.87208 8
-7 6 -14 33.7734 8.88821 8
7 -1 14 -2.4937 11.7421 4
-6 7 14 -2.8773 12.1765 6
1 -7 -14 34.5269 8.35631 7
-6 -1 -14 28.7143 8.85503 8
-6 7 14 14.6383 7.36295 11
7 -6 -14 34.7793 8.97953 7
1 -7 -14 31.9827 7.97727 8
1 6 14 -4.614 13.8961 6
-7 1 -14 34.2398 9.16275 8
-7 6 14 26.9254 7.7348 11
-1 -6 -14 46.3547 9.17109 8
-1 7 14 -2.2428 13.6755 6
6 -7 -14 40.6432 8.60535 7
-1 -6 -14 37.0538 7.81774 7
-7 6 14 3.33023 13.9242 6
-7 0 -14 40.4043 8.98569 8
-7 7 14 23.9725 7.41133 11
-7 7 14 -0.4598 18.1218 6
0 -7 -14 19.1196 8.2805 8
-7 7 -14 28.572 8.27904 8
0 7 14 -4.8716 15.7637 6
0 -7 -14 23.5131 7.73254 7
0 7 -14 35.4833 12.005 12
7 0 14 -5.5863 14.0404 4
7 -7 -14 38.0179 8.80908 7
-4 -4 -14 14.4174 7.93041 8
-8 4 -14 3.17121 8.63405 8
8 -4 -14 0.76935 8.95397 7
-4 8 14 5.22091 4.86568 11
4 -8 -14 -1.6233 6.33362 7
-4 8 14 -1.6699 20.1267 6
-8 4 14 -0.2911 15.1203 6
-5 -3 -14 -0.5679 7.30639 8
8 -5 -14 4.16152 8.88681 7
-5 8 14 -0.1456 6.57719 11
8 -3 14 -5.2461 16.1602 4
3 -8 -14 7.38212 6.39019 7
-8 5 -14 8.19591 8.41417 8
3 5 14 -1.9691 15.074 6
8 -3 -14 7.86867 7.02281 7
5 -8 -14 0.3573 6.5113 7
-8 3 -14 6.73272 8.4818 8
-8 5 14 -6.1013 6.72685 11
-3 -5 -14 -6.6831 7.31746 8
-8 5 14 -0.3378 13.4628 6
-3 -5 -14 1.66252 8.25118 7
8 -6 -14 24.5235 9.29002 7
8 -2 14 -5.3801 14.472 4
2 6 14 -6.84 21.8132 6
-6 8 14 5.37551 7.09385 11
-8 6 -14 13.8322 8.27998 8
-6 -2 -14 19.1628 7.98881 8
2 -8 -14 1.00046 5.34592 8
2 -8 -14 19.3815 7.86344 7
-2 8 -14 1.74472 9.57277 12
-8 6 14 1.79729 6.98644 11
2 6 -14 17.7523 9.36634 12
-2 -6 -14 22.4523 7.51009 7
-8 2 -14 22.5522 8.68398 8
6 -8 -14 15.4514 7.66763 7
-8 6 14 1.30843 20.2741 6
-2 -6 -14 10.0136 7.94937 8
-7 -1 -14 11.4432 7.607 8
-7 8 14 3.51853 6.80538 11
-8 7 -14 2.63685 8.05673 8
-1 8 -14 -5.9123 10.1486 12
1 -8 -14 -3.1918 6.92629 8
8 -7 -14 -1.917 7.80905 7
1 -8 -14 5.9482 7.18296 7
-8 1 -14 -0.3213 7.78851 8
-1 -7 -14 11.2341 6.8566 7
-1 -7 -14 10.8224 7.71774 8
1 7 -14 -5.2025 10.1056 12
7 -8 -14 7.25443 7.37703 7
-8 7 14 0.12054 6.77677 11
0 -8 -14 15.5971 7.42237 8
-8 0 -14 13.7142 7.6124 8
-8 8 14 18.6526 7.22353 11
8 -8 -14 12.0679 7.75594 7
0 -8 -14 27.4922 7.59301 7
0 8 -14 21.9759 10.5454 12
4 -9 -14 2.94968 6.14684 7
-5 -4 -14 -2.2047 7.0092 8
9 -5 -14 -3.8729 8.51134 7
-5 9 14 -0.4012 6.87518 11
-9 5 -14 -3.8146 8.04152 8
-4 9 14 4.56372 4.9254 11
5 -9 -14 2.27329 6.24099 7
-9 4 -14 0.37446 8.04183 8
-4 -5 -14 2.38056 7.17033 8
9 -4 -14 -4.9847 8.09881 7
-9 5 14 -3.579 6.42219 11
-6 -3 -14 0.48562 6.74006 8
-6 9 14 -4.7367 7.14516 11
9 -6 -14 -1.3383 8.562 7
-9 6 -14 -6.0732 7.73668 8
3 -9 -14 -0.4521 6.65453 7
3 6 -14 0.65502 9.06696 12
-9 3 -14 -1.6887 7.94683 8
-9 6 14 -3.2551 6.58835 11
-3 -6 -14 4.87627 7.10925 8
6 -9 -14 -2.475 6.66046 7
2 -9 -14 5.68949 6.88405 7
-7 -2 -14 0.80562 6.85863 8
9 -7 -14 0.71201 8.20518 7
-9 7 -14 -2.6915 7.93059 8
2 -9 -14 2.93321 5.98374 8
-7 9 14 2.35655 6.864 11
-2 9 -14 5.8093 10.3332 12
7 -9 -14 6.35427 7.23713 7
-9 2 -14 13.8476 7.93606 8
2 7 -14 11.1799 10.2619 12
-9 7 14 10.0056 6.79076 11
-2 -7 -14 14.5505 7.90821 7
-2 -7 -14 10.0756 7.73427 8
-1 9 -14 1.58415 11.037 12
-8 9 14 9.13708 6.86739 11
-8 -1 -14 11.8688 6.73289 8
1 -9 -14 5.37873 7.05769 8
9 -8 -14 10.5555 7.95873 7
1 -9 -14 10.6392 6.47048 7
1 8 -14 9.66935 11.034 12
-9 8 14 8.42434 6.60444 11
8 -9 -14 5.8043 7.31138 7
-9 1 -14 10.5693 7.37455 8
-1 -8 -14 8.78052 6.34862 7
-1 -8 -14 2.84559 6.82168 8
9 -9 -14 -1.931 6.90805 7
0 -9 -14 4.08806 6.79662 8
-9 0 -14 8.22279 7.73846 8
0 9 -14 0.35778 10.0676 12
0 -9 -14 9.57468 6.14144 7
-9 9 14 0.69006 6.32779 11
-5 -5 -14 4.51147 6.50705 8
-10 5 -14 8.44498 7.96316 8
5 -10 -14 3.27544 5.92756 7
-5 10 14 1.56224 6.47991 11
10 -5 -14 6.43344 8.40116 7
4 -10 -14 6.29206 5.93601 7
-10 6 -14 11.0231 7.85683 8
10 -6 -14 0.99738 8.63552 7
-6 10 14 3.36717 6.95019 11
-6 -4 -14 7.95491 6.40086 8
6 -10 -14 4.00056 6.51999 7
-4 -6 -14 13.5463 6.95552 8
-10 6 14 0.82984 6.53082 11
-10 4 -14 2.87007 7.5428 8
-4 10 14 4.02559 4.58897 11
-7 -3 -14 17.4805 6.95426 8
-3 10 -14 2.52103 9.51837 12
3 -10 -14 10.3566 6.90672 7
-7 10 14 7.4368 6.87406 11
-10 7 -14 13.6141 7.90901 8
10 -7 -14 8.75837 8.59551 7
-10 3 -14 11.0952 7.75365 8
3 7 -14 13.5068 9.81848 12
-3 -7 -14 18.8421 7.25904 8
-10 7 14 14.2196 6.76452 11
7 -10 -14 13.2669 7.1039 7
2 -10 -14 1.88777 6.35875 7
2 -10 -14 -3.4234 6.29449 8
-8 10 14 -6.0292 6.63791 11
-2 10 -14 -9.1958 10.391 12
-8 -2 -14 2.90189 7.15945 8
10 -8 -14 -3.9206 7.30998 7
2 8 -14 7.8584 10.5156 12
-10 2 -14 -2.7732 7.90477 8
-10 8 14 1.23338 6.23657 11
8 -10 -14 0.01792 6.80717 7
-2 -8 -14 6.24247 6.72875 8
10 -9 -14 1.42957 7.33948 7
-1 10 -14 -1.5813 10.2068 12
1 -10 -14 2.95329 5.53908 7
-9 -1 -14 15.2108 7.35982 8
1 -10 -14 -0.0451 6.449 8
-9 10 14 3.58311 6.16566 11
9 -10 -14 6.9593 6.85552 7
-10 1 -14 9.5945 7.75797 8
-1 -9 -14 14.7798 6.83311 8
1 9 -14 3.68198 9.94856 12
-10 9 14 13.4056 6.45368 11
-1 -9 -14 13.327 6.7992 7
0 -10 -14 -1.2315 6.15467 8
-10 10 14 9.55272 6.33276 11
0 10 -14 -1.3558 10.5888 12
10 -10 -14 11.2044 7.0016 7
-10 0 -14 7.63998 7.19795 8
0 -10 -14 5.58974 6.34203 7
10 -10 14 6.22889 4.23143 7
5 -11 -14 10.1161 5.70699 7
11 -6 -14 14.323 8.28422 7
-6 -5 -14 3.09077 6.09178 8
-6 11 14 6.40246 6.56113 11
-11 6 -14 1.78078 7.28369 8
11 -5 -14 1.43146 6.6484 7
-5 -6 -14 8.66729 6.16218 8
6 -11 -14 5.45133 5.8166 7
-11 6 14 6.31858 6.36341 11
-11 5 -14 -0.3973 7.77482 8
-5 11 14 7.0065 6.11947 11
-11 7 -14 2.0243 7.34165 8
11 -7 -14 -4.8835 7.96237 7
4 -11 -14 1.09026 6.03862 7
-7 -4 -14 -0.3793 6.47767 8
-4 11 -14 -0.1955 7.86244 12
-7 11 14 3.84997 6.50409 11
7 -11 -14 3.08597 6.37774 7
-11 7 14 4.14979 5.99546 11
-11 4 -14 -4.1369 7.8002 8
-4 -7 -14 -2.2746 5.92184 8
4 7 -14 0.47204 9.77629 12
-4 11 14 1.82576 4.15519 11
-3 11 -14 16.9523 9.75407 12
-8 -3 -14 15.7389 6.85481 8
11 -8 -14 16.3235 8.18852 7
-8 11 14 19.0411 6.85851 11
3 -11 -14 6.40918 6.22573 7
3 -11 -14 0.90985 4.37432 8
3 8 -14 33.7379 11.2773 12
-11 3 -14 20.2889 7.5887 8
-11 8 14 12.8003 6.38529 11
-3 -8 -14 14.0124 6.5503 8
8 -11 -14 12.6419 6.73732 7
2 -11 -14 8.66986 5.8125 7
-9 -2 -14 16.067 6.9135 8
-2 11 -14 -5.7573 9.66854 12
11 -9 -14 -3.7013 7.04918 7
2 -11 -14 4.15723 5.83432 8
-9 11 14 10.9857 6.42736 11
-11 2 -14 9.05612 7.21788 8
2 9 -14 5.61558 9.86343 12
11 -9 14 -1.5143 5.898 7
-2 -9 -14 5.23789 6.50679 8
9 -11 -14 4.72189 6.73143 7
-11 9 14 12.7167 6.24395 11
1 -11 -14 -5.1611 5.90842 8
-10 -1 -14 2.52557 6.7999 8
-1 11 -14 -3.8907 10.0965 12
11 -10 -14 -0.5098 6.43434 7
-10 11 14 -3.1199 5.97162 11
1 -11 -14 1.11209 4.89726 7
-1 -10 -14 3.02677 5.69194 8
11 -10 14 4.55182 5.36676 7
-11 10 14 4.65091 5.81492 11
-11 1 -14 -3.1757 6.39774 8
1 10 -14 0.41944 10.18 12
10 -11 -14 1.58477 6.80198 7
11 -11 -14 -9.336 6.06487 7
0 -11 -14 -0.2944 5.45425 8
-11 11 -14 -0.1195 7.35012 9
-11 0 -14 -1.1247 6.40808 8
-11 11 14 0.81478 5.80585 11
0 11 -14 -3.5432 9.93292 12
12 -6 -14 0.90131 5.85758 7
-12 6 14 3.14243 5.85741 11
-12 6 -14 -6.0126 7.20143 8
-6 12 14 10.0038 6.198 11
-6 -6 -14 4.81081 5.96712 8
6 -12 -14 -7.7523 5.15687 7
12 -7 -14 7.13307 7.58549 7
-7 -5 -14 14.6437 6.12976 8
-7 12 14 3.74652 5.96681 11
5 -12 -14 4.524 5.74159 7
7 -12 -14 12.7997 5.79186 7
-5 -7 -14 22.2976 6.23294 8
-5 12 14 14.0714 6.042 11
-12 7 14 11.8366 6.14202 11
-12 5 -14 4.74667 7.55773 8
-4 12 -14 17.3891 7.25843 12
-8 -4 -14 28.0998 7.16367 8
-8 12 14 17.4233 6.58793 11
4 -12 -14 24.4798 6.43857 7
12 -8 -14 22.7131 7.97322 7
8 -12 -14 12.8036 6.25064 7
4 8 -14 16.5249 8.99457 12
-12 4 -14 11.9044 6.93174 8
-12 8 14 9.87372 5.79797 11
-4 12 14 1.63821 4.38742 11
12 -8 14 1.32274 5.65464 7
-4 -8 -14 8.95604 5.7255 8
3 -12 -14 0.08156 4.29079 8
12 -9 -14 -1.3551 6.98274 7
-9 12 14 0.64916 5.72249 11
-9 -3 -14 -0.0566 6.24183 8
3 -12 -14 2.48756 5.20454 7
-3 12 -14 -6.4631 9.43153 12
3 9 -14 -7.2989 9.4254 12
-12 9 14 -1.4942 5.65774 11
-12 3 -14 -2.9971 6.5773 8
-3 -9 -14 3.34984 5.75416 8
9 -12 -14 -1.6973 6.02079 7
12 -9 14 -3.0749 5.53708 7
-10 12 14 5.60178 5.5531 11
2 -12 -14 3.32428 3.71993 7
2 -12 -14 2.09685 5.37404 8
-2 12 -14 4.55559 10.0448 12
12 -10 -14 -1.7177 6.54921 7
-10 -2 -14 4.9174 6.4607 8
12 -10 14 -7.8539 4.96935 7
-12 10 14 2.11581 5.5854 11
-12 2 -14 -0.3988 6.72357 8
-2 -10 -14 6.9148 5.96541 8
10 -12 -14 -0.8843 6.21489 7
2 10 -14 0.19153 9.16888 12
1 -12 -14 1.69328 5.18555 8
-12 11 -14 -1.4957 6.64807 9
-11 -1 -14 4.70463 6.06013 8
12 -11 -14 4.53241 6.24549 7
-11 12 14 3.75647 5.6669 11
-1 12 -14 28.067 10.4129 12
1 11 -14 -0.8079 9.53711 12
-11 12 -14 -1.3456 6.08915 9
-12 11 14 9.35101 5.35802 11
-1 -11 -14 0.39114 5.14157 8
-12 1 -14 -1.8903 6.08928 8
11 -12 -14 4.73593 6.31094 7
12 -12 -14 2.70809 5.48328 7
-12 0 -14 4.33525 5.93949 8
-12 12 -14 -0.964 4.88013 9
0 12 -14 -6.3479 9.40247 12
0 -12 -14 -6.3517 4.94308 8
-12 12 14 -0.6935 5.23445 11
13 -6 14 4.07897 5.45201 7
-13 6 14 3.39839 5.45317 11
6 -13 -14 4.94009 5.3596 7
-7 13 14 0.37508 5.47076 11
13 -7 -14 1.11415 8.0672 7
-7 -6 -14 14.5738 5.83145 8
13 -7 14 2.58917 5.37796 7
-13 6 -14 -2.0258 6.46709 8
7 -13 -14 1.69736 4.82934 7
-6 13 14 -0.6468 5.69313 11
-13 7 14 -0.6438 5.3822 11
-6 -7 -14 2.77109 5.61125 8
-8 -5 -14 -0.9724 5.60248 8
13 -5 14 -2.5347 5.24725 7
-8 13 14 -1.0856 5.70417 11
-13 5 14 -3.2293 4.9675 11
5 -13 -14 3.11582 5.33949 7
13 -8 -14 6.00817 6.80751 7
-5 13 14 -1.9829 4.76344 11
-13 5 -14 -7.5386 6.28819 8
8 -13 -14 2.17262 5.17672 7
-5 -8 -14 2.21257 5.34982 8
13 -8 14 -0.1392 5.13908 7
-13 8 14 -0.9244 5.35908 11
-9 13 14 31.1493 6.02977 11
13 -9 -14 39.9132 8.21441 7
13 -4 14 22.571 5.884 7
-9 -4 -14 25.1515 6.15002 8
4 -13 -14 33.3277 5.22472 7
4 9 -14 34.6313 9.10483 12
-13 9 14 34.7374 6.25056 11
-4 -9 -14 23.0526 5.86869 8
13 -9 14 14.1318 5.39247 7
9 -13 -14 19.0015 6.14066 7
-13 4 -14 7.69145 6.28531 8
-10 13 14 11.6385 5.95165 11
13 -10 -14 12.0559 6.39843 7
13 -3 14 11.4487 5.36208 7
-3 13 -14 5.585 9.29926 12
-10 -3 -14 5.86962 5.88706 8
3 -13 -14 -1.4643 3.70131 8
13 -10 14 0.89264 4.79979 7
-13 3 -14 4.86683 5.84169 8
-3 -10 -14 0.18587 5.33542 8
10 -13 -14 13.6127 5.93732 7
-13 10 14 6.14474 5.55401 11
3 10 -14 -3.6187 9.19406 12
-11 13 14 -0.3288 5.2253 11
2 -13 -14 -3.953 4.96063 8
13 -11 -14 1.55639 6.58891 7
13 -2 14 5.07361 5.78527 7
-2 13 -14 -0.5874 9.38875 12
-13 11 -14 -0.8865 6.55228 9
-11 -2 -14 0.84845 5.90891 8
-11 13 -14 -0.9203 5.39877 9
13 -11 14 0.62789 3.48373 7
-13 11 14 -1.3523 5.17954 11
-2 -11 -14 4.47437 5.24813 8
11 -13 -14 -3.9933 5.50638 7
-13 2 -14 -5.7131 5.66754 8
2 11 -14 -3.197 9.03569 12
1 -13 -14 6.92544 5.15592 8
-1 13 -14 6.81202 9.86202 12
-12 -1 -14 4.78727 5.81976 8
-12 13 14 15.5662 5.60135 11
13 -12 -14 7.44887 6.00391 7
13 -1 14 10.277 6.10406 7
-13 12 -14 -0.9968 7.02327 9
-13 1 -14 5.13872 5.67481 8
-1 -12 -14 -0.9904 4.98279 8
-12 13 -14 -0.6151 5.22827 9
-13 12 14 12.7493 5.86882 11
12 1 14 6.03259 3.93089 7
12 -13 -14 8.43048 6.32578 7
1 12 -14 -1.1542 9.19256 12
-13 13 14 0.98253 5.69618 11
-13 0 -14 2.4145 5.5362 8
0 -13 -14 2.08564 5.0051 8
0 13 -14 1.01303 10.7197 12
13 -13 -14 -1.3189 6.05996 7
-7 -7 -14 -1.7624 5.34343 8
-14 7 14 -5.8423 5.18585 11
14 -7 14 -0.601 5.17021 7
7 -14 -14 3.07356 4.8002 7
-7 14 14 -3.4969 5.1667 11
-8 -6 -14 5.80986 5.16484 8
14 -6 14 13.4311 5.76919 7
-8 14 14 4.40612 5.5254 11
-14 6 14 15.6284 5.56051 11
6 -14 -14 10.6457 4.16434 7
8 -14 -14 10.8969 4.96877 7
-6 14 14 8.14924 5.28823 11
14 -8 14 8.75178 4.90961 7
-6 -8 -14 11.9199 5.45477 8
-14 8 14 16.9949 5.5436 11
14 -5 14 12.5849 5.44197 7
-9 -5 -14 7.5941 5.49837 8
14 -9 -14 8.90449 5.98013 7
-14 5 14 17.3137 5.66992 11
-9 14 14 8.13594 5.31898 11
-14 5 -14 6.81306 6.0239 8
-5 -9 -14 13.2277 5.35787 8
14 -9 14 12.4041 5.21982 7
-14 9 14 13.8623 5.62002 11
9 -14 -14 15.6566 5.30395 7
-10 14 14 11.0215 5.28007 11
-10 -4 -14 4.25909 5.35293 8
14 -10 -14 9.64906 6.22382 7
14 -4 14 13.6717 5.78658 7
-14 10 14 9.19111 5.58888 11
14 -10 14 12.1042 5.08873 7
10 -14 -14 12.1902 5.5235 7
-14 4 -14 2.41459 5.78737 8
4 10 -14 17.9191 9.0186 12
-4 -10 -14 10.3566 4.98192 8
-11 14 14 8.47913 5.36051 11
14 -3 14 5.53207 5.68866 7
-11 -3 -14 11.1322 5.7096 8
-3 14 -14 1.54174 6.46978 12
14 -11 -14 10.4336 6.38443 7
-14 3 -14 -1.8875 5.38202 8
-14 11 14 1.7055 5.3226 11
3 11 -14 -1.2568 9.10276 12
-3 -11 -14 2.97069 5.27119 8
11 -14 -14 2.32664 5.41022 7
14 -11 14 3.46052 3.32443 7
2 -14 -14 6.38277 3.82516 8
-12 14 14 12.8101 5.74497 11
-12 -2 -14 11.0154 5.85532 8
14 -12 -14 6.88134 6.37162 7
14 -2 14 13.7687 5.77367 7
-2 14 -14 12.1917 9.59955 12
-14 2 -14 -2.687 5.51959 8
12 -14 -14 7.97681 5.92223 7
-14 12 14 4.15122 6.06966 11
-2 -12 -14 3.22029 5.49553 8
2 12 -14 0.016 9.51421 12
1 -14 -14 2.51865 4.67878 8
-13 -1 -14 0.60669 4.84134 8
-1 14 -14 1.14956 10.3367 12
-13 14 14 5.56214 5.6865 11
1 13 -14 10.3738 10.7155 12
-14 13 14 2.43665 5.87367 11
-1 -13 -14 10.747 5.71784 8
-14 1 -14 9.08222 4.8544 8
-15 7 14 6.5255 5.21299 11
-8 15 14 7.80105 5.38506 11
-8 -7 -14 7.97321 5.56605 8
15 -7 14 11.2089 5.7738 7
-15 8 14 16.2668 5.30761 11
8 -15 -14 1.64212 3.88617 7
-7 15 14 10.9925 4.7149 11
15 -8 14 10.5184 5.69709 7
-7 -8 -14 9.31639 5.12413 8
-9 15 14 3.35615 5.48942 11
15 -6 14 -2.1487 5.37516 7
-15 6 14 4.19174 5.15886 11
-9 -6 -14 4.38179 5.34137 8
15 -9 14 1.25167 5.13806 7
-6 -9 -14 0.70335 5.37038 8
-15 9 14 6.75281 5.31048 11
9 -15 -14 5.36951 3.83422 7
15 -5 14 10.7947 5.88928 7
-10 -5 -14 8.6589 5.68258 8
-15 5 14 18.5481 5.74061 11
-10 15 14 15.6651 6.15211 11
-5 -10 -14 16.1568 5.33633 8
10 -15 -14 23.2834 5.39346 7
-15 10 14 21.8708 6.08067 11
15 -10 14 22.0281 5.42815 7
-11 -4 -14 9.76915 5.73335 8
-15 4 14 12.6525 5.33958 11
15 -4 14 16.9045 6.02736 7
-11 15 14 15.006 5.90275 11
15 -11 -14 13.4655 5.20096 7
15 -11 14 1.88839 2.94717 7
4 11 -14 7.67563 9.80975 12
-4 -11 -14 6.88269 5.59889 8
11 -15 -14 10.8436 5.22229 7
-15 11 14 10.6992 5.884 11
0 0 -15 3.55889 8.07692 7
1 0 -15 30.3406 9.0849 7
-1 0 -15 33.0353 9.2578 7
0 -1 -15 32.9837 8.60889 7
1 -1 -15 37.3738 8.87804 7
0 1 -15 30.7574 9.56692 7
2 -1 -15 12.7388 8.58073 7
-1 -1 -15 18.982 8.91446 7
1 1 -15 19.5103 8.97688 7
1 -2 -15 19.7473 8.18361 7
0 -2 -15 3.44673 7.33628 7
2 -2 -15 -2.2972 7.83415 7
2 0 -15 4.72343 8.16523 7
1 2 15 -3.3741 22.8536 4
-2 -1 -15 7.92489 6.90465 8
1 -3 -15 0.0549 7.36812 7
3 -2 -15 14.6184 8.84721 7
-3 2 -15 9.83016 6.63201 8
2 1 -15 3.3307 6.76132 7
3 -1 -15 3.00673 8.42025 7
-1 -2 -15 -5.318 6.73698 7
2 -3 -15 5.05132 8.1076 7
-3 1 -15 4.43033 7.25025 8
0 -3 -15 5.59451 6.98277 7
-3 0 -15 -1.4408 8.27673 8
3 0 -15 3.99054 7.76157 7
3 -3 -15 -4.3371 8.30501 7
-2 -2 -15 -7.156 7.49365 8
-4 2 -15 6.84413 8.32571 8
4 -2 -15 2.29403 9.04786 7
2 -4 -15 2.14397 7.67702 7
-2 -2 -15 -0.9422 7.72642 7
1 -4 -15 41.9632 8.34681 7
-4 3 -15 34.8685 8.01659 8
-3 -1 -15 35.6045 9.72821 8
4 -3 -15 48.4636 10.0994 7
-4 1 -15 45.255 9.79667 8
3 -4 -15 51.7743 9.55707 7
4 -1 -15 47.9337 9.68382 7
-1 -3 -15 45.0055 8.19606 7
-4 0 -15 9.84717 8.8392 8
4 0 -15 5.43567 9.18417 7
-4 4 -15 14.0878 5.82651 8
4 -4 -15 29.6678 9.00983 7
0 -4 -15 33.9655 8.08538 7
5 -3 -15 46.6484 10.0373 7
-3 -2 -15 22.9917 9.22076 8
-5 3 -15 21.2263 8.94738 8
2 -5 -15 32.6228 8.27942 7
-2 -3 -15 15.9927 8.54264 8
-5 3 15 5.33858 6.90278 11
3 -5 -15 28.0541 8.20752 7
5 -2 -15 25.7279 9.65958 7
-2 -3 -15 13.571 8.50621 7
-5 2 -15 19.3324 9.1228 8
5 -4 -15 17.7234 8.50258 7
-5 4 -15 10.4162 8.19753 8
-4 -1 -15 22.1678 8.72818 8
1 -5 -15 12.5066 7.48399 7
-5 1 -15 24.2808 9.13996 8
5 -1 -15 -0.3551 6.84138 7
-1 -4 -15 11.1759 7.52621 8
-5 4 15 4.80163 5.48683 11
-1 -4 -15 22.194 7.44777 7
4 -5 -15 17.5478 8.00298 7
0 -5 -15 0.45847 5.63857 8
-5 0 -15 39.6891 9.51659 8
-5 5 -15 20.9348 7.18105 8
5 -5 -15 33.8743 8.68239 7
0 -5 -15 39.7602 8.07278 7
-5 5 15 3.72792 4.85886 11
3 -6 -15 7.17801 7.09056 7
-6 3 -15 2.16508 8.38617 8
6 -3 -15 -5.5222 8.48111 7
-6 3 15 -5.6712 5.57557 11
-3 -3 -15 -6.2126 7.94345 8
-4 -2 -15 83.9367 11.0954 8
6 -4 -15 85.3759 11.2375 7
2 -6 -15 79.2844 10.2572 7
-6 4 -15 50.2958 10.2156 8
6 -2 -15 54.4437 9.82822 7
4 -6 -15 73.9825 10.099 7
-6 2 -15 67.3021 10.9898 8
-2 -4 -15 86.212 10.6977 7
-2 -4 -15 78.1208 10.5886 8
-5 -1 -15 17.4256 8.576 8
-6 5 -15 28.5676 8.5555 8
6 -5 -15 23.1212 7.74554 7
1 -6 -15 40.3171 8.18406 7
-6 5 15 27.0302 6.63673 11
-1 -5 -15 25.6774 8.18717 8
-1 -5 -15 46.2329 8.16909 7
5 -6 -15 22.2835 8.01637 7
-6 1 -15 40.5674 9.65784 8
0 -6 -15 1.49855 6.25198 8
-6 0 -15 7.19159 8.50137 8
0 -6 -15 5.19501 6.82023 7
6 -6 -15 2.77941 6.6551 7
-6 6 15 11.8219 6.07864 11
-7 4 -15 54.5234 10.1671 8
-4 -3 -15 57.1981 9.78484 8
7 -4 -15 61.0124 9.82699 7
3 -7 -15 60.259 9.32207 7
-3 -4 -15 55.2376 9.53279 8
7 -3 -15 47.5243 9.42805 7
4 -7 -15 47.3132 8.85351 7
-7 3 -15 50.4235 9.76853 8
-5 -2 -15 3.96686 7.72752 8
2 -7 -15 11.3512 7.25656 7
7 -5 -15 4.40315 7.77084 7
-5 7 15 2.64034 4.47293 11
-7 5 -15 4.46872 8.08928 8
-2 -5 -15 19.5451 8.03964 8
5 -7 -15 7.80446 7.1431 7
-7 5 15 4.76817 6.32139 11
-7 2 -15 12.1408 8.68223 8
1 -7 -15 80.957 11.1118 7
-7 6 -15 82.2872 10.6033 8
-6 7 15 59.797 8.75914 11
7 -6 -15 90.3771 10.7733 7
-6 -1 -15 107.023 11.2366 8
6 -7 -15 78.1475 10.8596 7
-7 6 15 57.2606 8.69325 11
-1 -6 -15 76.3712 9.9438 8
-7 1 -15 106.605 11.4346 8
-7 7 15 20.5117 6.73414 11
7 -7 -15 21.973 7.17692 7
-7 0 -15 26.839 8.40943 8
0 -7 -15 21.7839 6.89972 7
0 -7 -15 20.5827 7.44449 8
-8 4 -15 0.03507 7.98966 8
-8 4 15 -8.9651 6.0137 11
-4 -4 -15 4.26521 7.44194 8
8 -4 -15 -1.1966 7.24049 7
4 -8 -15 4.40272 7.13261 7
-8 3 15 20.8072 7.00616 11
8 -5 -15 30.2683 8.35622 7
3 -8 -15 47.0341 8.20702 7
-5 -3 -15 40.7067 8.20817 8
-8 5 -15 42.4674 8.89344 8
-8 5 15 32.2803 7.74448 11
-3 -5 -15 54.8788 9.28191 8
5 -8 -15 97.5061 10.2544 7
-8 3 -15 69.1111 10.0651 8
8 -6 -15 30.7955 8.24969 7
-6 8 15 29.3085 6.90514 11
-6 -2 -15 42.3673 8.58303 8
2 -8 -15 54.2512 7.99514 7
-8 6 -15 21.1033 8.20951 8
-2 -6 -15 22.8535 7.75044 8
-8 6 15 28.6231 6.91564 11
6 -8 -15 39.4118 7.11775 7
-8 2 -15 33.3327 8.6688 8
1 -8 -15 25.9839 6.74678 7
-7 -1 -15 23.6345 8.03437 8
-7 8 15 19.1991 6.51376 11
8 -7 -15 22.4129 7.50928 7
-1 -7 -15 21.2453 7.50629 7
-8 7 15 17.5622 6.37658 11
7 -8 -15 17.4938 6.42601 7
-8 1 -15 30.2226 8.20728 8
-1 -7 -15 20.0661 7.72091 8
8 -8 -15 36.1122 7.37821 7
0 -8 -15 38.439 7.62041 8
0 -8 -15 33.8391 7.70092 7
-8 8 15 25.0732 6.75639 11
-8 0 -15 40.7517 8.38537 8
9 -5 -15 24.4627 7.85153 7
4 -9 -15 43.1469 7.93566 7
-9 4 15 20.5846 6.52244 11
-5 -4 -15 33.3849 7.65437 8
-9 5 -15 18.0777 8.14918 8
-5 9 15 3.34311 6.17787 11
9 -4 -15 4.45248 7.16795 7
5 -9 -15 38.9011 7.7186 7
-9 4 -15 20.1326 8.186 8
-9 5 15 18.4217 6.45068 11
-4 -5 -15 35.846 7.75394 8
3 -9 -15 -0.3847 6.42726 7
-9 6 -15 -12.572 7.12255 8
-6 9 15 0.48037 5.45617 11
9 -6 -15 -5.0948 6.95811 7
-6 -3 -15 -2.3747 6.60316 8
-9 3 -15 1.32468 7.32461 8
-9 6 15 -2.1869 5.77322 11
6 -9 -15 -2.2442 5.94128 7
-3 -6 -15 -1.2892 6.90145 8
2 -9 -15 50.9451 7.29592 7
-7 9 15 32.0093 7.09898 11
9 -7 -15 46.8321 8.48393 7
-7 -2 -15 38.1502 7.91792 8
7 -9 -15 59.7076 8.34844 7
-9 2 -15 32.2417 8.30623 8
-2 -7 -15 46.3329 8.10388 8
-9 7 15 39.3442 7.18744 11
-8 9 15 16.1518 6.38809 11
9 -8 -15 23.0401 7.39241 7
1 -9 -15 7.10151 5.38009 8
-8 -1 -15 18.2026 7.48868 8
1 -9 -15 23.7325 6.05499 7
-1 -8 -15 26.6589 7.60911 8
-9 1 -15 24.0833 7.80774 8
8 -9 -15 37.2102 7.33292 7
-9 8 15 25.9042 6.52262 11
9 -9 -15 -5.184 6.05729 7
-9 9 15 2.0545 5.53728 11
0 -9 -15 5.58165 6.26178 7
0 -9 -15 -1.3903 6.28894 8
-9 0 -15 9.17732 6.70942 8
5 -10 -15 -6.5337 6.09592 7
-10 5 -15 -2.6128 7.03895 8
10 -5 -15 1.72803 6.16581 7
-10 5 15 -4.2824 5.56274 11
-5 -5 -15 -1.6666 6.45798 8
-10 4 15 -2.5178 5.55624 11
-6 -4 -15 -0.1408 6.13729 8
-6 10 15 3.11524 4.55771 11
-10 6 -15 3.99007 7.17921 8
4 -10 -15 4.6504 6.02134 7
10 -6 -15 0.255 6.91799 7
-4 -6 -15 4.42146 6.475 8
6 -10 -15 9.08292 6.6198 7
-10 4 -15 -9.2055 6.7928 8
-10 6 15 -3.3192 5.60091 11
-7 10 15 0.53508 5.69831 11
10 -7 -15 -3.6933 6.77042 7
-7 -3 -15 2.15353 6.37893 8
3 -10 -15 5.17175 5.6759 7
-10 7 15 5.49245 5.49936 11
-3 -7 -15 3.82205 6.034 8
7 -10 -15 4.09308 5.71461 7
-10 3 -15 0.24365 6.84813 8
-8 10 15 -1.2456 5.63499 11
-8 -2 -15 -1.7069 6.37544 8
2 -10 -15 -1.3812 5.2952 7
10 -8 -15 -2.2613 6.59569 7
-10 8 15 -3.3631 5.42964 11
8 -10 -15 -0.7959 5.70678 7
10 -8 15 0.23798 5.50989 7
-2 -8 -15 -5.3591 5.98621 8
-10 2 -15 3.7911 6.69482 8
1 -10 -15 15.1678 6.17228 7
10 -9 -15 11.05 6.85323 7
1 -10 -15 5.59731 5.00468 8
-9 -1 -15 18.2346 7.04752 8
-9 10 15 17.6843 5.93231 11
-10 1 -15 18.7388 7.17662 8
9 -10 -15 6.2472 5.72618 7
-1 -9 -15 12.7445 6.24321 8
10 -9 15 6.86251 4.41859 7
-10 9 15 11.3223 5.61294 11
-10 0 -15 14.6509 7.06432 8
-10 10 15 20.1498 5.8402 11
0 -10 -15 19.0493 6.31296 8
10 -10 -15 16.6196 6.11174 7
11 -6 -15 2.9335 8.40332 7
-11 5 15 1.39758 5.15782 11
5 -11 -15 4.39617 5.96391 7
-6 11 15 -1.5501 3.79517 11
-11 6 -15 -8.6259 6.51178 8
-6 -5 -15 2.33601 5.84061 8
6 -11 -15 7.58201 6.12445 7
-11 5 -15 -2.2252 6.52048 8
-5 -6 -15 -2.8078 5.77718 8
-11 6 15 -0.5291 5.22516 11
-7 11 15 2.57852 4.94355 11
-7 -4 -15 1.05174 5.73195 8
4 -11 -15 9.89328 5.55448 7
11 -7 -15 -0.7369 6.23431 7
-11 4 15 -2.3594 5.01139 11
11 -7 15 5.73284 5.33547 7
-11 7 15 -5.2117 4.98415 11
-11 4 -15 0.00151 6.41251 8
-4 -7 -15 6.18083 5.75676 8
7 -11 -15 7.54302 6.1678 7
11 -8 -15 0.50156 7.00395 7
3 -11 -15 1.37729 4.77089 7
-8 11 15 3.69878 5.28797 11
-8 -3 -15 -1.3082 6.2334 8
-3 -8 -15 -9.9151 5.55338 8
-11 3 -15 -12.508 6.71145 8
8 -11 -15 5.15662 5.56755 7
11 -8 15 0.89509 5.39438 7
-11 8 15 -2.1439 5.42152 11
-9 -2 -15 6.97241 6.39018 8
-9 11 15 3.72102 5.19086 11
11 -9 -15 1.6358 7.15041 7
2 -11 -15 2.00767 5.39301 7
-2 -9 -15 -2.3972 5.9633 8
-11 2 -15 4.35616 6.4302 8
11 -9 15 7.31992 4.42509 7
-11 9 15 5.96815 5.15713 11
9 -11 -15 3.35225 5.71621 7
11 -10 -15 -4.5081 6.35701 7
1 -11 -15 -0.9752 3.89877 8
-10 11 15 6.55461 5.2722 11
-10 -1 -15 -0.1709 6.40406 8
-1 -10 -15 -0.345 5.90425 8
-11 1 -15 2.48101 5.87946 8
-11 10 15 2.20726 5.16772 11
10 -11 -15 5.5515 5.62302 7
11 -11 -15 0.0882 6.26145 7
-11 0 -15 -0.8655 6.345 8
-11 11 15 5.81547 5.39216 11
0 -11 -15 -2.8245 5.16595 8
6 -12 -15 3.51078 5.55719 7
-6 -6 -15 1.35404 5.62543 8
12 -6 15 3.28703 5.17537 7
-12 6 15 7.86047 5.13873 11
5 -12 -15 0.87269 5.08786 7
12 -5 15 -1.1929 5.26041 7
-12 5 15 2.35475 4.97392 11
-7 12 15 0.36848 3.76887 11
-7 -5 -15 -1.054 5.45494 8
-5 -7 -15 -1.7441 5.61623 8
7 -12 -15 3.95264 5.59793 7
-12 7 15 -0.3062 4.94165 11
12 -7 15 -2.1882 5.33198 7
-12 5 -15 -9.1254 6.47859 8
-8 12 15 1.8809 4.7841 11
-12 4 15 -4.0144 4.86049 11
12 -8 -15 -0.5715 5.71398 7
12 -4 15 -4.1072 5.2953 7
-8 -4 -15 1.57429 6.3093 8
4 -12 -15 2.25516 4.48055 7
-4 -8 -15 1.46206 5.64012 8
-12 8 15 -1.6703 5.05996 11
8 -12 -15 2.23479 5.73512 7
-12 4 -15 -9.4095 6.3845 8
12 -8 15 -0.1794 4.98597 7
12 -9 -15 0.7087 6.15991 7
-12 3 15 -0.19 4.91457 11
12 -3 15 1.3927 5.26681 7
-9 12 15 3.85544 5.07395 11
-9 -3 -15 -3.8467 6.36026 8
3 -12 -15 1.49265 3.19577 7
9 -12 -15 -1.4965 5.6262 7
-3 -9 -15 -3.6744 5.53783 8
-12 3 -15 3.82711 6.60872 8
12 -9 15 2.29579 4.45879 7
-12 9 15 4.25744 5.32236 11
-10 12 15 3.97016 5.31486 11
12 -10 -15 1.59486 6.02256 7
-10 -2 -15 -4.2507 6.08467 8
12 -2 15 10.9016 5.79182 7
-12 10 15 3.17493 5.59333 11
10 -12 -15 6.29241 5.8108 7
-2 -10 -15 3.54747 5.77388 8
-12 2 -15 -2.5752 5.94622 8
12 -1 15 14.3675 6.27608 7
-11 -1 -15 9.13231 6.77308 8
12 -11 -15 4.1685 6.30994 7
-11 12 15 4.88645 5.71131 11
11 -12 -15 4.86401 6.39468 7
-12 1 -15 10.9892 6.42223 8
-12 11 15 10.5764 5.83175 11
-1 -11 -15 9.07247 5.96784 8
0 -12 -15 1.22644 3.22274 8
-12 0 -15 4.06362 6.43197 8
6 -13 -15 5.87489 4.66085 7
-13 6 15 0.10745 5.35086 11
-7 -6 -15 4.12391 5.81611 8
13 -6 15 0.24281 5.45184 7
7 -13 -15 -5.3248 5.41254 7
-6 -7 -15 -0.5131 5.50008 8
13 -7 15 -3.4298 5.24891 7
-13 7 15 -3.7448 5.13693 11
-8 13 15 0.26447 3.44358 11
5 -13 -15 1.33512 3.26983 7
-8 -5 -15 2.60563 6.01776 8
13 -5 15 -4.4964 5.77415 7
-13 5 15 4.02355 4.71756 11
-5 -8 -15 -1.2831 5.63704 8
8 -13 -15 4.73414 5.87332 7
13 -8 15 1.49491 5.22708 7
-13 8 15 -5.0326 5.41676 11
13 -4 15 3.13906 5.74326 7
13 -9 -15 2.33013 4.44284 7
-9 13 15 -4.1435 4.65779 11
-9 -4 -15 -1.8322 6.37008 8
-13 4 15 -1.283 5.36622 11
9 -13 -15 -4.85 6.15103 7
13 -9 15 5.23906 4.5997 7
-13 4 -15 -8.7282 6.06297 8
-13 9 15 -3.5039 5.43132 11
-4 -9 -15 -6.5631 5.48472 8
13 -3 15 14.0776 6.06175 7
-13 3 15 3.00954 5.5103 11
-10 13 15 3.8008 4.96221 11
-10 -3 -15 -2.1024 6.21416 8
13 -10 -15 9.84102 5.61265 7
-13 3 -15 9.97216 6.24615 8
10 -13 -15 7.13607 5.97869 7
-3 -10 -15 0.46252 6.00343 8
-13 10 15 12.3358 6.11009 11
1 -1 -16 -4.9266 8.31212 7
2 -1 -16 5.05103 8.26346 7
1 -2 -16 8.55377 8.23147 7
2 -2 -16 3.7154 7.42676 7
0 -2 -16 0.13755 7.83021 7
3 -2 -16 16.3596 7.99746 7
1 -3 -16 17.6351 7.01461 7
2 -3 -16 18.1301 7.49411 7
3 -1 -16 19.3874 8.11309 7
0 -3 -16 -2.0755 7.3876 7
3 -3 -16 -1.2638 7.35632 7
-3 0 -16 10.1483 6.79102 8
3 0 -16 9.21328 6.58889 7
4 -2 -16 2.73926 7.72733 7
-4 2 -16 10.7063 5.91711 8
2 -4 -16 1.93913 6.42543 7
1 -4 -16 34.3915 7.12587 7
4 -3 -16 48.2079 9.01846 7
-3 -1 -16 15.8063 7.42524 8
-4 1 -16 33.3974 8.00246 8
3 -4 -16 60.982 8.91415 7
4 -1 -16 24.6642 7.26387 7
-4 0 -16 20.0854 8.53147 8
4 -4 -16 16.158 7.54907 7
0 -4 -16 15.3945 7.76425 7
-5 3 -16 13.8657 7.12083 8
5 -3 -16 6.40269 7.76896 7
-3 -2 -16 8.57128 7.8942 8
2 -5 -16 3.70663 6.14128 7
3 -5 -16 5.92512 6.66989 7
5 -2 -16 20.3131 7.45244 7
-5 2 -16 12.2714 8.02629 8
-2 -3 -16 3.30772 6.17007 8
-5 4 -16 16.7775 5.64045 8
1 -5 -16 4.18114 6.69766 7
-4 -1 -16 -2.5771 8.02953 8
5 -4 -16 0.1426 7.47476 7
4 -5 -16 -2.0379 6.87753 7
-5 1 -16 2.65614 8.02274 8
0 -5 -16 17.428 7.84277 7
5 -5 -16 7.16024 7.80091 7
-5 0 -16 4.06313 8.18882 8
-3 -3 -16 15.6178 8.31386 8
3 -6 -16 10.1748 6.37764 7
-6 3 -16 1.15238 7.76047 8
6 -3 -16 7.81107 7.67435 7
6 -4 -16 27.4133 8.5298 7
-4 -2 -16 7.78652 8.27177 8
-6 4 -16 10.0704 7.52661 8
2 -6 -16 19.0455 6.89056 7
-2 -4 -16 7.52195 6.71794 8
4 -6 -16 4.44203 6.76048 7
-6 2 -16 3.9815 8.07821 8
6 -5 -16 -0.2127 8.03873 7
-5 -1 -16 -1.6556 8.04122 8
1 -6 -16 -3.0656 6.25734 7
-6 1 -16 8.98701 8.1909 8
5 -6 -16 7.49115 7.50009 7
0 -6 -16 -2.9566 6.98297 7
6 -6 -16 -2.8473 7.40714 7
-6 0 -16 -3.0756 7.76764 8
7 -4 -16 1.4017 7.48485 7
-7 4 -16 -7.543 7.32869 8
-4 -3 -16 1.17551 8.04808 8
3 -7 -16 -4.972 6.39746 7
-7 3 -16 -0.6346 7.65601 8
4 -7 -16 2.66946 6.52416 7
-3 -4 -16 4.90621 7.29779 8
-5 -2 -16 -3.3938 7.80976 8
2 -7 -16 -3.1068 5.89792 7
7 -5 -16 4.60474 8.02644 7
-2 -5 -16 -0.7632 6.42773 8
-7 2 -16 -1.8607 7.48141 8
5 -7 -16 11.344 7.0586 7
1 -7 -16 1.51218 7.01297 7
-6 -1 -16 -0.2698 7.44637 8
7 -6 -16 3.77968 7.76317 7
-7 1 -16 -3.0098 7.20571 8
-1 -6 -16 -1.5912 6.0431 8
6 -7 -16 1.40855 7.05363 7
7 -7 -16 2.24736 7.04067 7
-7 0 -16 -3.6243 7.23611 8
4 -8 -16 2.83363 6.49963 7
-4 -4 -16 5.87085 7.02373 8
-8 4 16 5.89543 4.16479 11
-8 4 -16 1.28392 7.37458 8
-8 3 16 3.27253 3.9555 11
8 -5 -16 2.31731 7.49246 7
3 -8 -16 -2.5016 5.64379 7
-5 -3 -16 5.03358 7.27687 8
-8 3 -16 -5.4576 6.97489 8
5 -8 -16 3.74886 7.14471 7
-8 5 16 1.15819 4.10125 11
-3 -5 -16 3.95942 6.93819 8
2 -8 -16 -1.3716 5.37912 7
-8 2 16 2.66204 4.26506 11
8 -6 -16 -2.05 7.73062 7
-6 -2 -16 -3.4058 7.12317 8
-2 -6 -16 -1.8657 6.54957 8
-8 6 16 1.56421 3.88638 11
-8 2 -16 0.439 7.00936 8
6 -8 -16 -1.1874 6.82809 7
8 -7 -16 -1.2306 7.51323 7
-7 -1 -16 5.27073 6.99567 8
1 -8 -16 1.1375 6.19063 7
-8 1 -16 12.6914 7.75414 8
-8 7 16 4.4161 3.61243 11
7 -8 -16 2.87322 7.07733 7
-1 -7 -16 2.63099 5.11685 8
-8 0 -16 1.45164 7.01605 8
-8 8 16 2.22327 3.81657 11
8 -8 -16 -4.201 7.42198 7
4 -9 -16 2.08602 5.86434 7
-5 -4 -16 5.10322 7.31924 8
-9 4 16 0.3388 4.44227 11
-9 4 -16 -2.525 7.26876 8
5 -9 -16 2.14682 6.42632 7
-4 -5 -16 2.82766 6.94994 8
-9 5 16 -1.4401 4.5766 11
-6 -3 -16 -5.2421 6.74306 8
-9 3 16 1.58619 4.28418 11
3 -9 -16 3.2036 5.36896 7
9 -6 -16 -2.2531 7.0832 7
6 -9 -16 2.23534 6.91551 7
-9 3 -16 5.06451 7.13445 8
-3 -6 -16 -1.6889 6.44531 8
-9 6 16 -0.7044 4.55177 11
-9 2 16 1.99998 3.5296 11
2 -9 -16 -4.4184 6.22962 7
-7 -2 -16 -3.4696 6.96897 8
9 -7 -16 -2.9785 7.76323 7
-9 7 16 3.00664 4.42658 11
7 -9 -16 4.51468 6.21148 7
-9 2 -16 0.70134 7.33711 8
-2 -7 -16 0.99098 6.07897 8
-9 1 16 5.89569 4.39386 11
9 -8 -16 -5.296 7.55114 7
-8 -1 -16 -3.7735 6.60338 8
-9 8 16 3.17783 4.09274 11
-1 -8 -16 3.11878 4.72863 8
-9 1 -16 -0.2091 6.5852 8
8 -9 -16 2.07454 7.02105 7
-9 0 -16 -0.7496 6.48361 8
-9 9 16 3.33226 3.263 11
9 -9 -16 -4.2578 7.64129 7
5 -10 -16 3.56723 5.95177 7
-10 5 16 1.82802 4.48747 11
-5 -5 -16 0.50125 6.60919 8
-10 4 16 0.16375 4.12828 11
-6 -4 -16 -3.2643 6.72822 8
4 -10 -16 2.62877 5.4949 7
6 -10 -16 -1.4184 6.88285 7
-4 -6 -16 3.84731 6.52951 8
-10 4 -16 1.76218 6.39012 8
10 -6 16 1.37776 4.84036 7
-10 6 16 3.11021 4.48885 11
3 -10 -16 -5.842 6.27656 7
-7 -3 -16 4.95089 7.04313 8
-10 3 16 -3.3817 4.11874 11
10 -7 -16 4.34115 5.43427 7
-10 3 -16 -3.8783 6.53617 8
-10 7 16 1.60913 4.50145 11
7 -10 -16 -1.6416 6.90971 7
10 -7 16 2.88715 4.59614 7
-3 -7 -16 -3.9431 6.55458 8
-8 -2 -16 -2.8471 6.52759 8
-10 2 16 6.90699 3.56531 11
10 -8 -16 7.47581 7.74287 7
-10 8 16 10.2098 4.59085 11
-2 -8 -16 4.18612 5.17981 8
-10 2 -16 1.76355 6.72392 8
8 -10 -16 -3.2488 7.62259 7
-10 1 16 4.55303 4.62312 11
-9 -1 -16 -4.3795 6.55602 8
10 -9 -16 -0.9988 7.63742 7
-10 9 16 4.29464 3.67389 11
-10 1 -16 -0.5167 6.88992 8
9 -10 -16 -5.0545 7.49735 7
-10 0 -16 -4.9468 6.96644 8
5 -11 -16 4.23699 5.80401 7
-11 5 16 -3.9039 4.61163 11
11 -5 16 -2.1682 5.49596 7
-6 -5 -16 -0.4571 6.9205 8
6 -11 -16 1.12763 6.31648 7
-5 -6 -16 9.31814 7.18052 8
-11 6 16 -3.8282 4.71485 11
11 -6 16 -0.141 6.05918 7
-7 -4 -16 -8.1406 6.8346 8
11 -4 16 6.3365 6.1324 7
4 -11 -16 -0.6848 5.23283 7
-11 4 16 1.76834 4.39706 11
-11 4 -16 -4.1762 6.67153 8
11 -7 16 3.24973 4.67803 7
-11 7 16 0.30233 4.7932 11
7 -11 -16 1.09725 6.96436 7
-4 -7 -16 0.81582 6.76952 8
-8 -3 -16 -2.4833 6.9353 8
-11 3 -16 -1.368 6.83114 8
-3 -8 -16 -3.9542 5.95898 8
3 -3 -17 -2.8537 7.83693 7
4 -3 -17 -5.8212 7.84979 7
3 -4 -17 0.00552 7.70958 7
4 -4 -17 3.48054 8.32449 7
5 -3 -17 5.49207 6.77266 7
3 -5 -17 1.77917 8.00158 7
5 -4 -17 0.56766 8.02546 7
4 -5 -17 -2.6934 7.79997 7
5 -5 -17 -1.9785 7.12743 7
3 -6 -17 1.36649 7.64569 7
6 -4 -17 4.00706 7.27115 7
4 -6 -17 -2.6603 6.76548 7
6 -5 -17 -4.8834 6.8645 7
-5 -1 -17 13.6627 6.30882 8
-6 1 -17 12.656 5.2599 8
5 -6 -17 1.01547 6.94416 7
-6 0 -17 3.14602 5.55462 8
6 -6 -17 -3.8812 7.61099 7
3 -7 -17 5.84872 7.72644 7
4 -7 -17 -3.175 7.71394 7
-5 -2 -17 10.9573 5.39244 8
-7 2 -17 9.75711 5.2115 8
5 -7 -17 -2.5954 6.91528 7
-6 -1 -17 8.15092 5.8737 8
7 -6 -17 0.46293 6.09224 7
6 -7 -17 -6.9642 7.33403 7
-7 1 -17 6.72325 6.39932 8
-7 0 -17 1.25246 6.47578 8
-5 -3 -17 8.9373 6.15106 8
-6 -2 -17 3.27023 5.07956 8
-8 2 -17 7.75083 6.00815 8
