#------------------------------------------------------------------------------
#$Date: 2019-11-03 12:48:54 +0200 (Sun, 03 Nov 2019) $
#$Revision: 221439 $
#$URL: file:///home/coder/svn-repositories/cod/cif/4/12/83/4128316.cif $
#------------------------------------------------------------------------------
#
# This file is available in the Crystallography Open Database (COD),
# http://www.crystallography.net/
#
# All data on this site have been placed in the public domain by the
# contributors.
#
data_4128316
loop_
_publ_author_name
'Kusaka, Shinpei'
'Kiyose, Atsushi'
'Sato, Hiroshi'
'Hijikata, Yuh'
'Hori, Akihiro'
'Ma, Yunsheng'
'Matsuda, Ryotaro'
_publ_section_title
;
 Dynamic Topochemical Reaction Tuned by Guest Molecules in the Nanospace
 of a Metal-Organic Framework.
;
_journal_issue                   40
_journal_name_full               'Journal of the American Chemical Society'
_journal_page_first              15742
_journal_page_last               15746
_journal_paper_doi               10.1021/jacs.9b07682
_journal_volume                  141
_journal_year                    2019
_chemical_formula_moiety         'C26.19 H18.31 N0.94 O4 Zn, C4 H9 N O'
_chemical_formula_sum            'C29 H33 N2 O5 Zn'
_chemical_formula_weight         554.94
_space_group_crystal_system      triclinic
_space_group_IT_number           2
_space_group_name_Hall           '-P 1'
_space_group_name_H-M_alt        'P -1'
_symmetry_space_group_name_Hall  '-P 1'
_symmetry_space_group_name_H-M   'P -1'
_atom_sites_solution_hydrogens   geom
_audit_creation_date             2018-07-17
_audit_creation_method
;
Olex2 1.2
(compiled 2018.05.29 svn.r3508 for OlexSys, GUI svn.r5506)
;
_cell_angle_alpha                76.954(2)
_cell_angle_beta                 78.816(3)
_cell_angle_gamma                83.430(2)
_cell_formula_units_Z            2
_cell_length_a                   8.5379(3)
_cell_length_b                   11.6565(3)
_cell_length_c                   14.3665(5)
_cell_measurement_reflns_used    8189
_cell_measurement_temperature    93
_cell_measurement_theta_max      28.48
_cell_measurement_theta_min      2.92
_cell_volume                     1362.69(8)
_computing_cell_refinement       'CrysAlisPro 1.171.39.9b (Rigaku OD, 2015)'
_computing_data_collection       'CrysAlisPro 1.171.39.9b (Rigaku OD, 2015)'
_computing_data_reduction        'CrysAlisPro 1.171.39.9b (Rigaku OD, 2015)'
_computing_molecular_graphics    'Olex2 (Dolomanov et al., 2009)'
_computing_publication_material  'Olex2 (Dolomanov et al., 2009)'
_computing_structure_refinement  'ShelXL (Sheldrick, 2015)'
_computing_structure_solution    'SHELXT Version 2014/5 (Sheldrick, 2014)'
_diffrn_ambient_temperature      93.15
_diffrn_detector_area_resol_mean 5.811
_diffrn_measured_fraction_theta_full 0.999
_diffrn_measured_fraction_theta_max 0.859
_diffrn_measurement_device_type  'Rigaku XtaLAB P200'
_diffrn_measurement_method       \w
_diffrn_radiation_type           MoK\a
_diffrn_radiation_wavelength     0.71075
_diffrn_reflns_av_R_equivalents  0.0561
_diffrn_reflns_av_unetI/netI     0.0511
_diffrn_reflns_Laue_measured_fraction_full 0.999
_diffrn_reflns_Laue_measured_fraction_max 0.859
_diffrn_reflns_limit_h_max       10
_diffrn_reflns_limit_h_min       -11
_diffrn_reflns_limit_k_max       15
_diffrn_reflns_limit_k_min       -14
_diffrn_reflns_limit_l_max       18
_diffrn_reflns_limit_l_min       -19
_diffrn_reflns_number            23309
_diffrn_reflns_point_group_measured_fraction_full 0.999
_diffrn_reflns_point_group_measured_fraction_max 0.859
_diffrn_reflns_theta_full        25.242
_diffrn_reflns_theta_max         29.398
_diffrn_reflns_theta_min         2.438
_exptl_absorpt_coefficient_mu    0.942
_exptl_absorpt_correction_T_max  1.000
_exptl_absorpt_correction_T_min  0.723
_exptl_absorpt_correction_type   multi-scan
_exptl_absorpt_process_details
;
CrysAlisPro 1.171.39.9b (Rigaku Oxford Diffraction, 2015)
Empirical absorption correction using spherical harmonics,
 implemented in SCALE3 ABSPACK scaling algorithm.
;
_exptl_crystal_colour            nONE
_exptl_crystal_density_diffrn    1.352
_exptl_crystal_density_method    'not measured'
_exptl_crystal_description       nONE
_exptl_crystal_F_000             582
_refine_diff_density_max         1.164
_refine_diff_density_min         -1.225
_refine_diff_density_rms         0.121
_refine_ls_extinction_method     none
_refine_ls_goodness_of_fit_ref   1.044
_refine_ls_hydrogen_treatment    constr
_refine_ls_matrix_type           full
_refine_ls_number_parameters     663
_refine_ls_number_reflns         6439
_refine_ls_number_restraints     512
_refine_ls_restrained_S_all      1.132
_refine_ls_R_factor_all          0.0720
_refine_ls_R_factor_gt           0.0621
_refine_ls_shift/su_max          0.004
_refine_ls_shift/su_mean         0.000
_refine_ls_structure_factor_coef Fsqd
_refine_ls_weighting_details
'w=1/[\s^2^(Fo^2^)+(0.1079P)^2^+1.9562P] where P=(Fo^2^+2Fc^2^)/3'
_refine_ls_weighting_scheme      calc
_refine_ls_wR_factor_gt          0.1621
_refine_ls_wR_factor_ref         0.1688
_reflns_Friedel_coverage         0.000
_reflns_number_gt                5571
_reflns_number_total             6439
_reflns_threshold_expression     'I > 2\s(I)'
_cod_data_source_file            ja9b07682_si_007.cif
_cod_data_source_block           xcalibur
_cod_database_code               4128316
_shelx_shelxl_version_number     2014/7
_shelx_space_group_comment
;
The symmetry employed for this shelxl refinement is uniquely defined
by the following loop, which should always be used as a source of
symmetry information in preference to the above space-group names.
They are only intended as comments.
;
_olex2_refinement_description
;
1. Fixed Uiso
 At 1.2 times of:
  All C(H) groups
 At 1.5 times of:
  All C(H,H,H) groups
2. Restrained distances
 O5-C51
 1.3 with sigma of 0.02
 N5-O6 = O6-C56
 2.55 with sigma of 0.02
 C55-C57 = C55-C58
 2.42 with sigma of 0.01
 C55-H57B
 2.7 with sigma of 0.001
 C55-O6 = O5-C51
 1.1 with sigma of 0.02
 C51-N4 = C55-N5
 1.3 with sigma of 0.02
 C52-C51 = C55-C56
 1.5 with sigma of 0.02
 C40-C41 = C41-C42 = C42-C43 = C43-C44 = C44-C45 = C45-C40
 1.39 with sigma of 0.02
 C40-C42 = C41-C43 = C42-C44 = C43-C45 = C44-C40
 2.41 with sigma of 0.02
 C38-C59 = C59-C60 = C60-C61
 1.39 with sigma of 0.02
 C61-C62 = C62-C63 = C63-C38
 1.39 with sigma of 0.02
 C38-C60 = C59-C61 = C60-C62
 2.41 with sigma of 0.02
 C61-C63 = C62-C38 = C63-C59
 2.41 with sigma of 0.02
 C31-C32 = C36-C37
 1.32 with sigma of 0.02
 C21-C22 = C22-C23 = C23-C24 = C24-C25
 1.39 with sigma of 0.02
 C21-C23 = C22-C24 = C23-C25
 2.41 with sigma of 0.02
 C24-C31 = C22-C31
 2.41 with sigma of 0.02
 N2-C25 = N2-C21
 1.37 with sigma of 0.02
 N2-C24 = N2-C22
 2.36 with sigma of 0.02
 C26-C27 = C27-C28 = C28-C29 = C29-C30
 1.39 with sigma of 0.02
 C26-C28 = C27-C29 = C28-C30
 2.41 with sigma of 0.02
 C36-C27 = C36-C29
 2.41 with sigma of 0.02
 N3-C26 = N3-C30
 1.37 with sigma of 0.02
 N3-C29 = N3-C27
 2.36 with sigma of 0.02
 C23-C31 = C28-C36
 1.48 with sigma of 0.02
 C50-C49 = C49-C48 = C48-C47
 1.39 with sigma of 0.02
 C50-C48 = C49-C47
 2.41 with sigma of 0.02
 N1-C16 = N1-C20
 1.37 with sigma of 0.02
 N1-C17 = N1-C19
 2.36 with sigma of 0.02
 C16-C17 = C17-C18 = C18-C19 = C19-C20
 1.39 with sigma of 0.02
 C16-C18 = C17-C19 = C18-C20
 2.41 with sigma of 0.02
 C39-C46
 1.58 with sigma of 0.02
 C46-C35
 2.07 with sigma of 0.02
 C50-C39 = C47-C46
 1.48 with sigma of 0.02
 C39-C49 = C39-C47 = C46-C50 = C46-C48
 2.45 with sigma of 0.02
 C50-C35
 2.1 with sigma of 0.02
 C37-C38 = C35-C39
 1.48 with sigma of 0.02
 C34-C19 = C34-C17
 2.41 with sigma of 0.02
 C18-C34
 1.51 with sigma of 0.001
 C35-C34
 1.58 with sigma of 0.02
 C34-C36
 1.51 with sigma of 0.02
 C34-C39
 2.35 with sigma of 0.02
 C34-C46
 1.58 with sigma of 0.02
 C32-C23 = C35-C18 = C37-C28
 2.4 with sigma of 0.02
 C39-C35
 1.58 with sigma of 0.02
 C35-C39
 1.58 with sigma of 0.02
 C39-C35 = C35-C39
 1.58 with sigma of 0.02
 C35-C39 = C39-C35
 1.58 with sigma of 0.01
 C35-C39_$1
 1.58 with sigma of 0.01
 C52-C53
 2.42 with sigma of 0.001
 H53B-N4
 1.85 with sigma of 0.0001
 C51-H53C
 2.758 with sigma of 0.001
 C53-C51
 2.15 with sigma of 0.02
 N4-C53 = N4-C54 = N5-C57 = N5-C58
 1.32 with sigma of 0.02
 H53C-H4_$2
 -2 with sigma of 0.02
 H53B-H4_$2
 -2 with sigma of 0.02
3. Restrained atomic chiral volume
 C55, C56, N5
 fixed at 0.05 with sigma of 0.1
 N4, C54, C53, C51
 fixed at 0.05 with sigma of 0.1
4. Restrained planarity
 C45, C44, C42, C41, C43, C40
 with sigma of 0.1
 C38, C59, C60, C63, C62, C62
 with sigma of 0.1
 C22, C23, C24, C21, N2, C25, C31, C32
 with sigma of 0.1
 C28, C27, C26, N3, C29, C30, C36, C37
 with sigma of 0.1
 C14, C15, C9, C13, C10, C64
 with sigma of 0.1
 C50, C49, C47, C48
 with sigma of 0.1
 N1, C16, C17, C20, C19, C18
 with sigma of 0.1
5. Uiso/Uaniso restraints and constraints
O5 \\sim N4: within 2A with sigma of 0.04 and sigma for terminal atoms of 0.08
C57 \\sim C56 \\sim C55 \\sim N5 \\sim C58 \\sim O6: within 2A with sigma of
0.04 and sigma for terminal atoms of 0.08
O5 \\sim O6: within 2A with sigma of 0.01 and sigma for terminal atoms of 0.02
C54 \\sim C58: within 2A with sigma of 0.04 and sigma for terminal atoms of 0.08
C51 \\sim C55: within 2A with sigma of 0.04 and sigma for terminal atoms of 0.08
C51 \\sim N4 \\sim N5: within 2A with sigma of 0.04 and sigma for terminal
atoms of 0.08
C56 \\sim C52: within 2A with sigma of 0.04 and sigma for terminal atoms of 0.08
C31 \\sim C32: within 2A with sigma of 0.04 and sigma for terminal atoms of 0.08
C45 \\sim C44 \\sim C42 \\sim C41 \\sim C43 \\sim C40: within 2A with sigma of
0.01 and sigma for terminal atoms of 0.02
C36 \\sim C37: within 2A with sigma of 0.01 and sigma for terminal atoms of 0.02
C38 \\sim C59 \\sim C60 \\sim C63 \\sim C61 \\sim C62: within 2A with sigma of
0.01 and sigma for terminal atoms of 0.02
C21 \\sim C22 \\sim C23 \\sim C24 \\sim C25: within 2A with sigma of 0.01 and
sigma for terminal atoms of 0.02
C30 \\sim C29 \\sim C28 \\sim C27 \\sim C26: within 2A with sigma of 0.04 and
sigma for terminal atoms of 0.08
C9 \\sim C10 \\sim C64 \\sim C13 \\sim C14 \\sim C15: within 2A with sigma of
0.01 and sigma for terminal atoms of 0.02
C50 \\sim C48: within 2A with sigma of 0.01 and sigma for terminal atoms of 0.02
N1 \\sim N2 \\sim N3: within 2A with sigma of 0.01 and sigma for terminal atoms
of 0.02
N1 \\sim C16 \\sim C17 \\sim C20 \\sim C19 \\sim C18: within 2A with sigma of
0.001 and sigma for terminal atoms of 0.002
C35 \\sim C39: within 2A with sigma of 0.01 and sigma for terminal atoms of 0.02
C39 \\sim C50 \\sim C48 \\sim C46 \\sim C49 \\sim C47: within 2A with sigma of
0.01 and sigma for terminal atoms of 0.02
C35 \\sim C46 \\sim C34 \\sim C39: within 2A with sigma of 0.04 and sigma for
terminal atoms of 0.08
C53 \\sim O5 \\sim C54 \\sim C52 \\sim C51 \\sim N4: within 2A with sigma of
0.04 and sigma for terminal atoms of 0.08
C53 \\sim C57: within 2A with sigma of 0.04 and sigma for terminal atoms of 0.08
Uanis(C34) = Uanis(C39)
6. Others
 Sof(N1)=Sof(C16)=Sof(H16)=Sof(C17)=Sof(H17)=Sof(C20)=Sof(H20)=Sof(C19)=
 Sof(H19)=Sof(C18)=Sof(C35)=Sof(H35)=Sof(C39)=Sof(C50)=Sof(H50)=Sof(C49)=
 Sof(H49)=Sof(C47)=Sof(H47)=Sof(C48)=Sof(H48)=Sof(C34)=Sof(H34)=Sof(C46)=
 Sof(H46)=FVAR(1)
 Sof(C22)=Sof(H22)=Sof(C23)=Sof(C24)=Sof(H24)=Sof(C21)=Sof(H21)=Sof(N2)=
 Sof(C25)=Sof(H25)=Sof(C31)=Sof(H31)=Sof(C32)=Sof(H32)=Sof(C45)=Sof(H45)=
 Sof(C44)=Sof(H44)=Sof(C42)=Sof(H42)=Sof(C41)=Sof(H41)=Sof(C43)=Sof(H43)=
 Sof(C40)=FVAR(2)
 Sof(C28)=Sof(C27)=Sof(H27)=Sof(C26)=Sof(H26)=Sof(N3)=Sof(C29)=Sof(H29)=
 Sof(C30)=Sof(H30)=Sof(C36)=Sof(H36)=Sof(C37)=Sof(H37)=Sof(C59)=Sof(H59)=
 Sof(C60)=Sof(H60)=Sof(C63)=Sof(H63)=Sof(C61)=Sof(H61)=Sof(C62)=Sof(H62)=FVAR(3)
 Sof(C57)=Sof(H57A)=Sof(H57B)=Sof(H57C)=Sof(C56)=Sof(H56A)=Sof(H56B)=Sof(H56C)=
 Sof(C55)=Sof(N5)=Sof(C58)=Sof(H58A)=Sof(H58B)=Sof(H58C)=Sof(O6)=1-FVAR(4)
 Sof(C53)=Sof(H53A)=Sof(H53B)=Sof(H53C)=Sof(O5)=Sof(C54)=Sof(H54A)=Sof(H54B)=
 Sof(H54C)=Sof(C52)=Sof(H52A)=Sof(H52B)=Sof(H52C)=Sof(C51)=Sof(N4)=FVAR(4)
7.a Ternary CH refined with riding coordinates:
 C35(H35), C34(H34), C46(H46)
7.b Aromatic/amide H refined with riding coordinates:
 C14(H14), C15(H15), C4(H4), C3(H3), C6(H6), C7(H7), C16(H16), C10(H10),
 C17(H17), C20(H20), C22(H22), C19(H19), C24(H24), C21(H21), C25(H25), C27(H27),
  C26(H26), C29(H29), C30(H30), C36(H36), C31(H31), C37(H37), C32(H32),
 C45(H45), C44(H44), C42(H42), C41(H41), C43(H43), C50(H50), C49(H49), C47(H47),
  C48(H48), C59(H59), C60(H60), C63(H63), C61(H61), C62(H62), C64(H64)
7.c Idealised Me refined as rotating group:
 C53(H53A,H53B,H53C), C57(H57A,H57B,H57C), C54(H54A,H54B,H54C), C56(H56A,H56B,
 H56C), C52(H52A,H52B,H52C), C58(H58A,H58B,H58C)
;
_shelx_res_file
;
    xcalibur.res created by SHELXL-2014/7

TITL xcalibur
CELL 0.71075 8.5379 11.6565 14.3665 76.954 78.816 83.43
ZERR 2 0.0003 0.0003 0.0005 0.002 0.003 0.002
LATT 1
SFAC C H N O Zn
UNIT 58 66 4 10 2
EQIV $1 1-X,2-Y,-Z
EQIV $2 -X,2-Y,1-Z
DFIX 1.3 O5 C51
DFIX 2.55 N5 O6 O6 C56
DFIX 2.42 0.01 C55 C57 C55 C58
DFIX 2.7 0.001 C55 H57b
DFIX 1.1 C55 O6 O5 C51
DFIX 1.3 C51 N4 C55 N5
DFIX 1.5 C52 C51 C55 C56
DFIX 1.39 C40 C41 C41 C42 C42 C43 C43 C44 C44 C45 C45 C40
DFIX 2.41 C40 C42 C41 C43 C42 C44 C43 C45 C44 C40
DFIX 1.39 C38 C59 C59 C60 C60 C61
DFIX 1.39 C61 C62 C62 C63 C63 C38
DFIX 2.41 C38 C60 C59 C61 C60 C62
DFIX 2.41 C61 C63 C62 C38 C63 C59
DFIX 1.32 C31 C32 C36 C37
DFIX 1.39 C21 C22 C22 C23 C23 C24 C24 C25
DFIX 2.41 C21 C23 C22 C24 C23 C25
DFIX 2.41 C24 C31 C22 C31
DFIX 1.37 N2 C25 N2 C21
DFIX 2.36 N2 C24 N2 C22
DFIX 1.39 C26 C27 C27 C28 C28 C29 C29 C30
DFIX 2.41 C26 C28 C27 C29 C28 C30
DFIX 2.41 C36 C27 C36 C29
DFIX 1.37 N3 C26 N3 C30
DFIX 2.36 N3 C29 N3 C27
DFIX 1.48 C23 C31 C28 C36
DFIX 1.39 C50 C49 C49 C48 C48 C47
DFIX 2.41 C50 C48 C49 C47
DFIX 1.37 N1 C16 N1 C20
DFIX 2.36 N1 C17 N1 C19
DFIX 1.39 C16 C17 C17 C18 C18 C19 C19 C20
DFIX 2.41 C16 C18 C17 C19 C18 C20
DFIX 1.58 C39 C46
DFIX 2.07 C46 C35
DFIX 1.48 C50 C39 C47 C46
DFIX 2.45 C39 C49 C39 C47 C46 C50 C46 C48
DFIX 2.1 C50 C35
DFIX 1.48 C37 C38 C35 C39
DFIX 2.41 C34 C19 C34 C17
DFIX 1.51 0.001 C18 C34
DFIX 1.58 C35 C34
DFIX 1.51 C34 C36
DFIX 2.35 C34 C39
DFIX 1.58 C34 C46
DFIX 2.4 C32 C23 C35 C18 C37 C28
DFIX 1.58 C39 C35
DFIX 1.58 C35 C39
DFIX 1.58 C39 C35 C35 C39
DFIX 1.58 0.01 C35 C39 C39 C35
DFIX 1.58 0.01 C35 C39_$1
DFIX 2.42 0.001 C52 C53
DFIX 1.85 0.0001 H53b N4
DFIX 2.758 0.001 C51 H53c
DFIX 2.15 C53 C51
DFIX 1.32 N4 C53 N4 C54 N5 C57 N5 C58
DFIX -2 H53c H4_$2
DFIX -2 H53b H4_$2
CHIV 0.05 C55 C56 N5
CHIV 0.05 N4 C54 C53 C51
FLAT C45 C44 C42 C41 C43 C40
FLAT C38 C59 C60 C63 C62 C62
FLAT C22 C23 C24 C21 N2 C25 C31 C32
FLAT C28 C27 C26 N3 C29 C30 C36 C37
FLAT C14 C15 C9 C13 C10 C64
FLAT C50 C49 C47 C48
FLAT N1 C16 C17 C20 C19 C18
SIMU O5 N4
SIMU C57 C56 C55 N5 C58 O6
SIMU 0.01 0.02 2 O5 O6
SIMU C54 C58
SIMU C51 C55
SIMU C51 N4 N5
SIMU C56 C52
SIMU C31 C32
SIMU 0.01 0.02 2 C45 > C40
SIMU 0.01 0.02 2 C36 C37
SIMU 0.01 0.02 2 C38 C59 > C62
SIMU 0.01 0.02 2 C21 C22 C23 C24 C25
SIMU C30 C29 C28 C27 C26
SIMU 0.01 0.02 2 C9 C10 C64 C13 C14 C15
SIMU 0.01 0.02 2 C50 C48
SIMU 0.01 0.02 2 N1 N2 N3
SIMU 0.001 0.002 2 N1 C16 C17 C20 C19 C18
SIMU 0.01 0.02 2 C35 C39
SIMU 0.01 0.02 2 C39 C50 C48 C46 C49 C47
SIMU C35 C46 C34 C39
SIMU C53 O5 C54 C52 C51 N4
SIMU C53 C57
EADP C34 C39

L.S. 100
PLAN  10
TEMP -180
FREE C35 C46
FREE H52a H52b
FREE H53a H52b
WPDB -2
HTAB
BOND $H
CONF
LIST 4
fmap 2
acta
REM <olex2.extras>
REM <HklSrc "%.\\xcalibur.hkl">
REM </olex2.extras>

WGHT    0.107900    1.956200
FVAR       0.40926   0.23594   0.40112   0.30035   0.56072
ZN1   5    0.878971    0.587749    0.456160    11.00000    0.01850    0.01426 =
         0.01924   -0.00456   -0.00433   -0.00662
O1    4    0.797543    0.427048    0.465033    11.00000    0.04461    0.01807 =
         0.03561   -0.00135   -0.01770   -0.01635
O2    4    0.981161    0.292185    0.525238    11.00000    0.03184    0.02205 =
         0.05769   -0.01009   -0.01773   -0.01282
O3    4    0.747273    0.589243    0.589369    11.00000    0.04526    0.05329 =
         0.02435   -0.01345    0.00672   -0.01649
O4    4    0.929917    0.454756    0.648006    11.00000    0.03038    0.07707 =
         0.02908   -0.02305    0.00527   -0.01253
PART 1
N1    3    0.741032    0.682111    0.356959    21.00000    0.03242    0.02865 =
         0.03325    0.00061   -0.00959   -0.01040
PART 0
C1    1    0.804338    0.518967    0.657519    11.00000    0.03458    0.04931 =
         0.02538   -0.01750    0.00508   -0.02352
C8    1    0.851787    0.322774    0.494225    11.00000    0.03403    0.02069 =
         0.03439   -0.00546   -0.01126   -0.01465
C2    1    0.712237    0.513417    0.759286    11.00000    0.03169    0.04625 =
         0.02469   -0.01415    0.00310   -0.01383
C5    1    0.544699    0.502254    0.949449    11.00000    0.02967    0.03957 =
         0.02309   -0.00728    0.00017   -0.00288
C14   1    0.506062    0.163923    0.466720    11.00000    0.02591    0.02061 =
         0.05673   -0.00616   -0.01865   -0.00768
AFIX  43
H14   2    0.405070    0.184579    0.446624    11.00000   -1.20000
AFIX   0
C15   1    0.603258    0.252271    0.464147    11.00000    0.03199    0.01706 =
         0.05470   -0.00471   -0.01729   -0.00851
AFIX  43
H15   2    0.568185    0.332321    0.441602    11.00000   -1.20000
AFIX   0
C9    1    0.749012    0.226532    0.493468    11.00000    0.03778    0.01786 =
         0.06534   -0.00222   -0.02742   -0.01362
C4    1    0.498556    0.585241    0.871829    11.00000    0.04791    0.04982 =
         0.02910   -0.00793   -0.00140    0.01155
AFIX  43
H4    2    0.409233    0.639843    0.883541    11.00000   -1.20000
AFIX   0
C3    1    0.579841    0.590299    0.777551    11.00000    0.05142    0.04891 =
         0.02513   -0.00507    0.00069    0.00049
AFIX  43
H3    2    0.544374    0.646692    0.725546    11.00000   -1.20000
AFIX   0
C6    1    0.676735    0.425414    0.929121    11.00000    0.03884    0.05844 =
         0.02830   -0.00631   -0.00101    0.00683
AFIX  43
H6    2    0.711606    0.367621    0.980518    11.00000   -1.20000
AFIX   0
C13   1    0.552698    0.047388    0.497665    11.00000    0.04884    0.01671 =
         0.10284    0.00263   -0.04964   -0.01415
C7    1    0.758769    0.431262    0.835372    11.00000    0.03326    0.06496 =
         0.03521   -0.01580   -0.00037    0.00980
AFIX  43
H7    2    0.848927    0.377406    0.823508    11.00000   -1.20000
AFIX   0
PART 1
C16   1    0.605069    0.643506    0.345465    21.00000    0.03249    0.02878 =
         0.03340    0.00063   -0.00960   -0.01052
AFIX  43
H16   2    0.559710    0.578770    0.391791    21.00000   -1.20000
AFIX   0
PART 0
C10   1    0.799615    0.110302    0.521039    11.00000    0.07550    0.03090 =
         0.22833    0.01357   -0.10429   -0.02045
AFIX  43
H10   2    0.902569    0.089799    0.538443    11.00000   -1.20000
AFIX   0
PART 1
C17   1    0.529400    0.695766    0.267735    21.00000    0.03252    0.02891 =
         0.03345    0.00049   -0.00962   -0.01064
AFIX  43
H17   2    0.433801    0.666670    0.260676    21.00000   -1.20000
AFIX   0
C20   1    0.806404    0.772462    0.291205    21.00000    0.03261    0.02887 =
         0.03341    0.00069   -0.00976   -0.01051
AFIX  43
H20   2    0.904633    0.798039    0.297849    21.00000   -1.20000
AFIX   0
PART 0
PART 2
C22   1    0.611158    0.688162    0.225745    31.00000    0.04594    0.06743 =
         0.05059   -0.00411   -0.02576   -0.01571
AFIX  43
H22   2    0.518059    0.664029    0.210735    31.00000   -1.20000
AFIX   0
C23   1    0.704352    0.767949    0.158884    31.00000    0.05997    0.05331 =
         0.05461    0.00065   -0.01445   -0.00678
PART 0
PART 1
C19   1    0.731304    0.830152    0.212204    21.00000    0.03280    0.02911 =
         0.03362    0.00078   -0.00960   -0.01061
AFIX  43
H19   2    0.776288    0.896224    0.167441    21.00000   -1.20000
AFIX   0
PART 0
PART 2
C24   1    0.837233    0.799679    0.182457    31.00000    0.06190    0.05154 =
         0.05416    0.02169   -0.01879   -0.00683
AFIX  43
H24   2    0.904372    0.853840    0.137228    31.00000   -1.20000
AFIX   0
C21   1    0.655453    0.644070    0.314692    31.00000    0.03522    0.06785 =
         0.03426   -0.00145   -0.02087   -0.00576
AFIX  43
H21   2    0.594283    0.585252    0.358866    31.00000   -1.20000
AFIX   0
N2    3    0.779258    0.678832    0.342868    31.00000    0.01696    0.02001 =
         0.02209   -0.00210   -0.00803   -0.00291
PART 0
PART 1
C18   1    0.594013    0.790473    0.200601    21.00000    0.03261    0.02908 =
         0.03351    0.00059   -0.00963   -0.01065
PART 0
PART 2
C25   1    0.872877    0.751323    0.274002    31.00000    0.05136    0.04500 =
         0.05073    0.01590   -0.01253   -0.00535
AFIX  43
H25   2    0.969079    0.770587    0.288861    31.00000   -1.20000
AFIX   0
PART 0
PART 3
C28   1    0.535368    0.819179    0.239955    41.00000    0.03197    0.04246 =
         0.04632   -0.00402   -0.00941   -0.00842
C27   1    0.666988    0.864174    0.256669    41.00000    0.06814    0.05070 =
         0.07825    0.02923   -0.04038   -0.02988
AFIX  43
H27   2    0.695749    0.941100    0.223654    41.00000   -1.20000
AFIX   0
C26   1    0.757846    0.795033    0.322969    41.00000    0.05949    0.04133 =
         0.07164    0.01298   -0.03822   -0.02029
AFIX  43
H26   2    0.844070    0.830204    0.336020    41.00000   -1.20000
AFIX   0
N3    3    0.734417    0.685688    0.368794    41.00000    0.02062    0.01598 =
         0.01579   -0.00136   -0.00268    0.00524
C29   1    0.499577    0.708212    0.295120    41.00000    0.04755    0.05382 =
         0.04438    0.01202   -0.02811   -0.03088
AFIX  43
H29   2    0.406854    0.673793    0.289911    41.00000   -1.20000
AFIX   0
C30   1    0.599654    0.648546    0.357411    41.00000    0.04399    0.03871 =
         0.04165    0.00296   -0.02870   -0.01520
AFIX  43
H30   2    0.569451    0.574098    0.395661    41.00000   -1.20000
AFIX   0
C36   1    0.426515    0.888308    0.178661    41.00000    0.06983    0.04499 =
         0.08452    0.02000   -0.05550   -0.02158
AFIX  43
H36   2    0.324422    0.860106    0.183896    41.00000   -1.20000
AFIX   0
PART 0
PART 2
C31   1    0.660426    0.813332    0.064042    31.00000    0.09609    0.08399 =
         0.07133    0.00603   -0.03656   -0.03371
AFIX  43
H31   2    0.581154    0.775065    0.046794    31.00000   -1.20000
AFIX   0
PART 0
PART 1
C35   1    0.535153    0.967008    0.069319    21.00000    0.06885    0.04675 =
         0.06510    0.00183   -0.03884   -0.01529
AFIX  13
H35   2    0.602534    1.004565    0.102090    21.00000   -1.20000
AFIX   0
PART 0
PART 3
C37   1    0.460573    0.987248    0.116558    41.00000    0.07060    0.03687 =
         0.09544    0.01841   -0.06032   -0.02287
AFIX  43
H37   2    0.567688    1.009528    0.099806    41.00000   -1.20000
AFIX   0
PART 0
PART 2
C32   1    0.721757    0.902835    0.000674    31.00000    0.14559    0.10461 =
         0.08393    0.01088   -0.03652   -0.08870
AFIX  43
H32   2    0.804727    0.936050    0.019024    31.00000   -1.20000
AFIX   0
PART 0
PART 3
C38   1    0.339717    1.059700    0.075139     0.30822    0.06580    0.05989 =
         0.07996   -0.02832   -0.03717    0.01531
PART 0
PART 1
C39   1    0.614812    0.950975   -0.035771    21.00000    0.05741    0.03475 =
         0.06353    0.00360   -0.03678   -0.01166
PART 0
PART 2
C45   1    0.581339    0.912775   -0.136101    31.00000    0.17628    0.09663 =
         0.08406    0.01544   -0.07288   -0.05734
AFIX  43
H45   2    0.526686    0.845535   -0.100683    31.00000   -1.20000
AFIX   0
C44   1    0.556880    0.961328   -0.229304    31.00000    0.18546    0.10241 =
         0.09372    0.01440   -0.06619   -0.06184
AFIX  43
H44   2    0.488551    0.926886   -0.258529    31.00000   -1.20000
AFIX   0
C42   1    0.734483    1.110748   -0.236487    31.00000    0.17081    0.11810 =
         0.11495    0.02499   -0.05561   -0.07057
AFIX  43
H42   2    0.790546    1.176899   -0.272890    31.00000   -1.20000
AFIX   0
C41   1    0.753685    1.065448   -0.142599    31.00000    0.16674    0.11437 =
         0.11707    0.03081   -0.06320   -0.06298
AFIX  43
H41   2    0.813281    1.104283   -0.111133    31.00000   -1.20000
AFIX   0
C43   1    0.633133    1.060681   -0.279478    31.00000    0.18302    0.11506 =
         0.11021    0.01629   -0.05788   -0.06720
AFIX  43
H43   2    0.616772    1.095401   -0.343677    31.00000   -1.20000
AFIX   0
C40   1    0.682492    0.958885   -0.093021    31.00000    0.17245    0.10479 =
         0.10010    0.02722   -0.07076   -0.05884
PART 0
PART 1
C50   1    0.758943    0.993388   -0.027576    21.00000    0.07137    0.03915 =
         0.06649   -0.00264   -0.03123   -0.01086
AFIX  43
H50   2    0.765927    1.076101   -0.037019    21.00000   -1.20000
AFIX   0
C49   1    0.889952    0.917911   -0.006215    21.00000    0.07342    0.05271 =
         0.08724   -0.00186   -0.02404    0.00228
AFIX  43
H49   2    0.986655    0.949787   -0.004509    21.00000   -1.20000
AFIX   0
C47   1    0.743412    0.744826    0.013866    21.00000    0.07717    0.03896 =
         0.05170   -0.02183   -0.02837    0.00629
AFIX  43
H47   2    0.744699    0.662292    0.017724    21.00000   -1.20000
AFIX   0
C48   1    0.882883    0.795412    0.012951    21.00000    0.08391    0.05801 =
         0.08487   -0.00274   -0.02220    0.01123
AFIX  43
H48   2    0.975902    0.745738    0.025639    21.00000   -1.20000
AFIX   0

PART 0
PART 4
C53   1   -0.242970    1.207343    0.179184    51.00000    0.10540    0.02865 =
         0.18968   -0.02777   -0.11719    0.01745
AFIX 137
H53A  2   -0.223130    1.121218    0.193916    51.00000   -1.50000
H53B  2   -0.240042    1.235234    0.109250    51.00000   -1.50000
H53C  2   -0.348408    1.229605    0.214182    51.00000   -1.50000
AFIX   0
O5    4    0.071229    1.201747    0.299442    51.00000    0.14468    0.13823 =
         0.23022   -0.07819   -0.11001    0.02380
PART 0
PART 5
C57   1   -0.119420    1.204711    0.048350   -51.00000    0.13781    0.04543 =
         0.11344   -0.03421   -0.10779    0.02387
AFIX 137
H57A  2   -0.086818    1.228057   -0.022130   -51.00000   -1.50000
H57B  2   -0.235649    1.219523    0.065491   -51.00000   -1.50000
H57C  2   -0.089543    1.120468    0.069681   -51.00000   -1.50000
AFIX   0
PART 0
PART 4
C54   1   -0.098420    1.370029    0.210114    51.00000    0.07960    0.05048 =
         0.14785   -0.04261   -0.01728   -0.02007
AFIX 137
H54A  2   -0.187131    1.427477    0.193585    51.00000   -1.50000
H54B  2   -0.000430    1.391650    0.163986    51.00000   -1.50000
H54C  2   -0.082580    1.369808    0.275916    51.00000   -1.50000
AFIX   0
PART 0
PART 5
C56   1   -0.180914    1.150975    0.230727   -51.00000    0.13784    0.06502 =
         0.10814   -0.01795   -0.04703   -0.03003
AFIX 137
H56A  2   -0.264304    1.170924    0.190272   -51.00000   -1.50000
H56B  2   -0.228862    1.152184    0.298280   -51.00000   -1.50000
H56C  2   -0.130668    1.071979    0.226494   -51.00000   -1.50000
AFIX   0
PART 0
PART 4
C52   1   -0.102643    1.049881    0.279577    51.00000    0.17008    0.07463 =
         0.12919   -0.02662   -0.03704    0.00267
AFIX 137
H52A  2   -0.010563    0.995832    0.261974    51.00000   -1.50000
H52B  2   -0.183676    1.049716    0.239751    51.00000   -1.50000
H52C  2   -0.148463    1.024100    0.348265    51.00000   -1.50000
AFIX   0
C51   1   -0.046346    1.179392    0.261350    51.00000    0.09586    0.15150 =
         0.22388   -0.01356   -0.09712   -0.01911
PART 0
PART 5
C55   1   -0.056218    1.239910    0.195569   -51.00000    0.06808    0.10217 =
         0.29607   -0.01795   -0.05146   -0.02676
PART 0
PART 4
N4    3   -0.135324    1.254183    0.205492    51.00000    0.10463    0.26531 =
         0.29471   -0.03200   -0.06805    0.01436
PART 0
PART 5
N5    3   -0.045721    1.267900    0.092241   -51.00000    0.11915    0.18495 =
         0.26359    0.02161   -0.07072    0.05185
C58   1    0.041861    1.371209    0.044697   -51.00000    0.12112    0.08600 =
         0.17525   -0.01501   -0.06480   -0.03107
AFIX 137
H58A  2    0.038407    1.388646   -0.024906   -51.00000   -1.50000
H58B  2    0.153428    1.355695    0.054424   -51.00000   -1.50000
H58C  2   -0.007200    1.438943    0.072516   -51.00000   -1.50000
AFIX   0

PART 0
PART 1
C34   1    0.518555    0.832949    0.110980    21.00000    0.05741    0.03475 =
         0.06353    0.00360   -0.03678   -0.01166
AFIX  13
H34   2    0.403603    0.814834    0.124931    21.00000   -1.20000
AFIX   0
C46   1    0.596391    0.818193    0.008926    21.00000    0.06922    0.03615 =
         0.05321   -0.01184   -0.03666   -0.00823
AFIX  13
H46   2    0.522265    0.784902   -0.022442    21.00000   -1.20000
AFIX   0
PART 0
PART 3
C59   1    0.360166    1.177070    0.058925    41.00000    0.07791    0.06987 =
         0.09133   -0.04652   -0.03216    0.01158
AFIX  43
H59   2    0.457002    1.202265    0.068099    41.00000   -1.20000
AFIX   0
C60   1    0.238889    1.261108    0.028710    41.00000    0.08449    0.06932 =
         0.10691   -0.04644   -0.03524    0.01612
AFIX  43
H60   2    0.255222    1.343003    0.011048    41.00000   -1.20000
AFIX   0
C63   1    0.209191    1.017192    0.050218    41.00000    0.06296    0.05964 =
         0.07172   -0.03095   -0.02889    0.00554
AFIX  43
H63   2    0.209383    0.938546    0.042030    41.00000   -1.20000
AFIX   0
C61   1    0.095799    1.220312    0.025686    41.00000    0.07406    0.06601 =
         0.08348   -0.04847   -0.03685    0.02201
AFIX  43
H61   2    0.006514    1.274986    0.014651    41.00000   -1.20000
AFIX   0
C62   1    0.079572    1.100068    0.038543    41.00000    0.06406    0.06985 =
         0.07232   -0.03894   -0.03365    0.00681
AFIX  43
H62   2   -0.022158    1.073902    0.039378    41.00000   -1.20000
AFIX   0
PART 0
C64   1    0.701823    0.022308    0.523759    11.00000    0.08549    0.02589 =
         0.24659    0.01772   -0.11199   -0.02160
AFIX  43
H64   2    0.738669   -0.057818    0.544245    11.00000   -1.20000
AFIX   0

PART 5
O6    4    0.010344    1.283602    0.249633   -51.00000    0.21176    0.19611 =
         0.25575   -0.05516   -0.07784    0.02095
HKLF 4

REM  xcalibur
REM R1 =  0.0621 for    5571 Fo > 4sig(Fo)  and  0.0720 for all    6439 data
REM    663 parameters refined using    512 restraints

END

WGHT      0.1085      1.9691

REM Instructions for potential hydrogen bonds
HTAB C30 O1

REM Highest difference peak  1.164,  deepest hole -1.225,  1-sigma level  0.121
Q1    1   0.8164  0.5804  0.5134  11.00000  0.05    1.16
Q2    1   0.6568  0.0294  0.5735  11.00000  0.05    1.12
Q3    1   0.7371  0.0210  0.4790  11.00000  0.05    1.03
Q4    1   0.9300  0.5992  0.4009  11.00000  0.05    1.03
Q5    1   0.7564  0.1257  0.5652  11.00000  0.05    1.01
Q6    1   0.8267  0.1205  0.4752  11.00000  0.05    0.85
Q7    1   0.8036  0.6399  0.4282  11.00000  0.05    0.85
Q8    1   0.9419  0.5413  0.4830  11.00000  0.05    0.79
Q9    1  -0.2527  1.2259  0.1534  11.00000  0.05    0.67
Q10   1  -0.0850  1.2389  0.2601  11.00000  0.05    0.57
;
_shelx_res_checksum              90944
_shelx_hkl_file
;
  -1   0   0    1.06    0.26
   1   0   0  112.22    6.69
   1   0   1  492.31   29.03
  -1   0  -1  225.10   19.14
  -1   0  -1  486.71   19.17
   1   1   1  476.61   28.10
  -1  -1  -1  454.42   27.68
  -1  -1  -1  488.95   27.70
  -1  -1   0 1101.11   64.22
  -1  -1   0 1125.28   64.25
  -1  -1   0 1053.59   64.23
   1   1   0 1077.78   63.48
   0   0   2  995.01   60.63
   0   0  -2 1046.92   61.67
   0   0   2 1068.41   60.64
  -1   0   1  889.17   52.38
   1   0  -1  785.06   46.27
   0  -1  -2  496.61   29.30
   0   1   2  621.97   35.81
   0   1   2  590.18   35.82
  -1   1   0  189.35   12.32
  -1   1   0  251.24   12.40
   1  -1   0  254.17   14.92
   1  -1   0  250.52   14.94
   1  -1   1 1875.44  110.41
  -1   1  -1 2117.66  124.64
  -1   1   1  165.03    9.79
   1  -1  -1  164.76   10.63
   1  -1  -1  186.93   10.58
   1   0   2   24.72    1.59
   1   0   2   24.74    1.66
  -1  -1  -2  679.80   40.05
   1   1   2  545.70   32.50
   1   1   2  552.42   32.44
   0  -2  -1   90.96    5.43
   0   2   1   92.30    5.51
   0  -2   0  137.11    8.18
   0   2   0  115.06    6.89
   1   1  -1  930.63   54.82
  -1  -1   1  818.77   53.49
  -1  -1   1  927.96   53.47
  -1  -1   1  942.80   53.45
   0   1  -2   62.45    3.82
   0  -1   2   63.71    3.48
   0  -1   2   49.58    3.46
   1   2   1 9872.93  584.47
   1   2   1 9984.40  584.45
  -1  -2  -1 9999.00  594.12
  -1  -2  -1 8343.67  594.11
   1   0  -2  406.49   25.68
   1   0  -2  460.25   25.76
   1   0  -2  482.15   25.77
  -1   0   2  467.09   27.56
   0   2   2  917.39   54.10
   0  -2   1    6.35    1.03
   0  -2   1   10.71    0.73
   0   2  -1    8.88    1.01
   1   2   0   72.28    4.42
  -1  -2   0   74.47    4.32
  -1  -2   0   66.43    4.29
   1   2   0   73.78    4.54
   1   2   0   72.72    4.40
  -1  -2   0   69.69    4.26
  -1   1  -2   69.06    4.65
  -1   1  -2   81.12    4.60
  -1   1   2 2078.44  122.37
   1  -1  -2 2061.80  121.39
  -1  -2  -2    1.92    0.64
  -1  -2  -2    2.00    0.61
  -1  -2  -2    2.90    0.86
   1   2   2    2.24    0.67
   0  -1  -3   24.91    1.56
   0   1   3   23.76    1.56
   0  -1  -3   23.67    1.65
   0  -1  -3   22.92    1.66
   0   0  -3 1333.03   74.80
   0   0   3 1262.89   74.00
   0   0   3 1288.60   73.99
   0   0   3 1234.27   73.94
   0   0  -3 1184.37   74.77
   0   0  -3 1336.34   74.84
   1  -2   0  756.22   44.62
  -1   2   0  739.11   43.60
  -1  -1  -3   25.22    1.84
  -1  -1  -3   27.24    1.92
   1   1   3   23.35    1.74
   1   1   3   27.36    1.86
   1  -2  -1  799.55   47.67
  -1   2   1  904.47   52.27
  -1   2   1  879.56   52.15
   1  -2  -1  819.98   47.73
  -1   0  -3    1.69    0.69
   1   0   3    2.02    0.66
   1   1  -2  108.99    6.40
  -1  -1   2  104.93    6.51
  -1  -1   2  109.56    6.43
   1   1  -2  103.53    6.51
   1   2  -1   30.26    2.36
   1   2  -1   37.15    2.24
   1   2  -1   33.34    2.27
   1   2  -1   38.43    2.26
  -1  -2   1   35.77    2.30
   1  -2   1  155.37    9.30
  -1   2  -1  128.76    7.73
  -2   0  -1  525.27   31.08
   2   0   1  425.95   25.19
  -2   0  -1  529.01   31.12
  -2   0   0   77.41    4.94
  -2   0   0   79.80    4.92
   2   0   0   84.69    5.17
  -2   0   0   82.79    4.85
  -2  -1  -1   52.64    3.22
   2   1   1   45.26    2.87
  -2  -1  -1   49.06    3.27
  -2  -1   0   37.28    2.60
   2   1   0   29.18    1.98
  -2  -1   0   42.64    2.58
   2   1   0   28.73    1.84
   0   2   3  171.61    9.89
   0  -2  -3  157.73    9.47
   0   2   3  158.42    9.91
   0   2  -2   34.09    2.39
   0   2  -2   39.08    2.43
   0  -1   3   -0.34    0.80
   0   1  -3    0.63    0.83
   0   1  -3    0.01    0.39
   0   1  -3   -0.19    0.86
   0  -1   3    0.79    0.77
  -1  -2  -3   30.29    2.01
   1   2   3   24.07    2.08
  -1   2   2   53.49    3.38
   2   1   2  391.32   24.48
  -2  -1  -2  359.99   23.16
   2   1   2  405.84   24.37
   2   1   2  468.60   24.52
  -2  -1  -2  510.05   23.33
  -2   0  -2   55.73    3.53
   2   0   2   51.44    3.11
  -2   0  -2   55.68    3.51
   2   0   2   46.89    3.19
  -2   0  -2   59.49    3.60
   0   3   1  162.75    9.70
   0  -3  -1  171.68   10.23
   2  -1   0    9.52    0.95
  -2   1   0    9.81    1.02
  -2   1   0   12.97    1.09
   2   0  -1   48.08    3.06
  -2   0   1   52.59    3.38
  -2   0   1   57.74    3.42
  -1   1  -3   62.77    3.78
  -1   1  -3   60.11    3.71
   2  -1   1  108.51    6.48
  -2   1  -1  122.90    7.43
   0  -3   0   10.84    1.14
   0   3   0    8.41    1.03
   0   3   0   10.68    0.75
  -1   0   3    2.88    0.77
   1   0  -3    2.97    1.07
  -1   0   3    3.06    0.92
   1   0  -3    2.87    0.79
   1   0  -3    0.35    0.54
  -1   1   3 4001.25  242.75
  -1   1   3 4377.89  242.89
  -1   1   3 4198.64  242.80
   1  -1  -3 4287.50  239.46
   1  -1  -3 3870.62  239.44
   1   3   1 1708.10   98.87
  -1  -3  -1 1715.23  102.37
   1   3   1 1563.62   98.89
   1   3   1 1746.63   98.86
  -1  -3  -1 1769.84  102.43
   1  -2   2  285.07   16.93
  -1   2  -2  276.17   16.42
   0  -3  -2    6.34    0.67
  -2  -1   1   79.25    5.20
  -2  -1   1   89.41    5.14
   2   1  -1   93.78    5.67
  -2  -2  -1   81.42    4.74
  -2  -2  -1   71.78    4.65
   2   2   1   84.39    5.10
   2   2   1   79.48    4.97
  -2  -2  -1   79.22    4.81
  -2   1   1  920.53   54.30
   2  -1  -1  950.07   54.58
   2  -1  -1  904.91   54.55
  -1  -3  -2  336.53   18.73
   1   3   2  281.01   16.84
   1   3   2  293.05   16.88
   1   3   2  298.44   16.84
  -1  -3  -2  297.30   18.69
   1   3   2  268.62   16.77
  -1  -3   0   23.50    1.86
   1   3   0   21.72    1.83
  -1  -3   0   25.46    1.71
  -1  -3   0   25.24    1.87
   1   3   0   27.31    1.74
   1   2  -2   42.87    2.81
   1   2  -2   45.76    2.82
   1   2  -2   43.51    2.83
  -1  -2   2   44.42    2.78
  -1  -2   2   40.91    2.67
  -1  -2   2   47.74    2.78
   2   2   2 1463.55   93.40
  -2  -2  -2 1530.72   91.29
  -2  -2  -2 1629.57   91.25
   2   2   2 1654.41   93.31
  -2  -2  -2 1534.98   91.26
  -2  -2  -2 1451.53   91.35
   0   1   4  117.94    7.28
   0  -1  -4  107.01    7.11
   0  -1  -4  125.46    7.06
   0   1   4  122.20    7.38
   0   1   4  119.95    7.20
  -1  -1  -4   14.47    1.45
   1   1   4   15.61    1.39
   1   1   4   15.30    1.45
  -1  -1  -4   13.66    1.37
  -2  -2   0    8.76    0.84
  -2  -2   0    8.70    1.00
  -2  -2   0   13.31    1.18
  -2  -2   0    9.75    1.09
   2   2   0    9.94    0.89
  -2  -2   0    9.08    1.02
   2   2   0   10.81    1.19
   2   2   0   10.91    1.09
   2   2   0   10.26    0.97
  -2   1  -2  405.28   23.76
  -2   1  -2  452.18   23.82
   2  -1   2  389.67   24.23
  -2   1  -2  385.08   23.65
   2  -1   2  415.11   24.10
  -2  -1  -3  168.07    9.06
   2   1   3  162.38    8.76
  -2  -1  -3  144.94    8.97
   2   1   3  149.51    8.80
  -2  -1  -3  150.57    9.17
   0   3  -1  170.54   10.21
   0  -3   1  185.00   10.42
   0  -3   1  168.69   10.24
   0   3  -1  168.13   10.24
   0   0   4 1486.21   88.72
   0   0   4 1545.81   88.81
   0   0   4 1508.10   88.81
   0   0  -4 1512.00   89.86
   0   0  -4 1527.88   89.78
   0   0  -4 1528.30   89.82
  -1  -1   3   51.88    3.36
   1   1  -3   53.76    3.22
   1   1  -3   47.93    3.34
  -1  -1   3   47.40    3.44
  -1  -1   3   56.40    3.28
   1   0   4   60.81    3.74
  -1   0  -4   61.41    3.85
   1   0   4   59.10    3.87
   2   0   3  151.27    9.12
   2   0   3  144.90    9.10
  -2   0  -3  146.69    8.26
  -2   0  -3  130.12    8.32
  -2   0  -3  131.49    8.29
   2   0   3  158.00    9.09
  -1   2   3    1.30    0.83
   1  -2  -3    2.10    0.78
   1  -3   0   55.30    3.51
  -1   3   0   58.19    3.69
  -1   3   1   97.88    4.92
   1  -3  -1   91.44    5.63
  -1   3   1   92.00    5.03
   2   0  -2   28.28    2.42
   2   0  -2   47.03    2.51
   1   2   4    7.03    1.19
  -1  -2  -4    3.12    1.04
  -1  -2  -4    5.13    1.32
   1   2   4    5.25    1.39
   0   3   3  169.26    9.85
   0   3   3  157.44    9.86
   0  -3  -3  187.98   11.28
   0   2   4  101.61    5.08
   0   2   4   76.15    4.86
   0  -2  -4  101.38    6.19
   0  -2  -4  101.19    6.21
  -1  -3  -3    4.94    0.89
  -1  -3  -3    5.54    1.21
   1   3   3    2.74    0.96
  -1  -3  -3    3.33    0.88
   1   3   3    5.04    0.88
   0   2  -3  233.45   14.09
   0  -2   3  225.58   13.49
   0   2  -3  237.74   14.08
   2  -2   0  383.78   21.69
  -2   2   0  367.21   22.13
   2  -2   0  354.80   21.63
  -2   2   0  386.06   22.22
   2   2   3    0.88    0.62
  -2  -2  -3    1.04    0.59
  -2  -2  -3    0.55    0.73
   2   2   3   -0.08    1.31
   2  -1  -2   36.30    2.41
  -2   1   2   41.34    2.11
  -2   1   2   31.60    2.16
   1   3  -1    2.29    0.68
   1   3  -1    0.81    0.99
  -1  -3   1    1.03    1.03
  -1  -3   1    1.66    0.72
   2   2  -1   14.15    1.20
   2   2  -1    9.83    0.84
  -2  -2   1   15.47    1.30
  -2  -2   1   12.91    1.30
  -2  -2   1   14.23    1.19
   2   2  -1   13.49    1.07
   2  -2   1  250.09   14.86
  -2   2  -1  264.02   15.66
  -1   3  -1  493.45   29.23
   1  -3   1  527.87   31.27
  -1   3   2 1698.39   96.31
  -1   3   2 1585.82   96.22
  -2  -1   2  110.94    6.67
   2   1  -2  101.31    6.29
   2  -2  -1   94.32    5.69
  -2   2   1   91.05    5.64
  -2   2   1   96.62    5.77
   2  -2  -1   94.29    5.88
   0   1  -4   55.20    3.53
   0  -1   4   66.20    4.14
   0  -1   4   63.52    4.21
   0  -1   4   67.58    4.20
   0   1  -4   67.54    3.78
   0   1  -4   62.01    3.79
  -1   2  -3  223.46   13.34
  -2   1  -3  239.02   12.79
  -2   1  -3  245.11   12.79
   2  -1   3  240.07   14.35
  -2   1  -3  224.48   12.70
  -2   1  -3  223.91   12.81
   1  -1   4  329.91   19.68
   1  -1   4  344.02   19.85
  -1   1  -4  347.30   20.59
   0  -3   2  256.04   14.68
   0   3  -2  255.85   15.51
   0  -3   2  226.71   14.85
   0   3  -2  262.57   15.49
  -1   1   4 1632.05   96.25
   1  -1  -4 1404.16   86.87
   1  -1  -4 1489.18   86.93
   1  -1  -4 1596.44   86.95
   2   3   1  113.07    6.56
   2   3   1  118.71    6.72
   2   3   1  107.48    6.57
  -2  -3  -1  111.51    6.51
  -2  -3  -1  100.44    6.49
  -2  -3  -1  113.10    6.45
   2   3   1  107.82    6.49
  -2  -3  -1   94.39    6.62
   2   3   1   94.00    6.55
   1   0  -4  556.82   34.34
   1   0  -4  597.68   34.29
  -1   0   4  640.51   36.44
  -1   0   4  599.10   36.36
  -2  -3  -2 4126.87  242.42
   2   3   2 4142.99  242.61
  -2  -3  -2 4445.70  242.55
   2   3   2 4149.70  242.57
  -2  -3  -2 4125.34  242.38
   2   3   2 4027.23  242.56
  -2  -3  -2 3922.46  242.38
   2   3   2 4172.07  242.57
   2   1   4  140.59    8.22
  -2  -1  -4  141.54    8.28
   2   1   4  130.32    8.25
  -2  -1  -4  128.98    8.40
  -2  -1  -4  138.79    8.40
  -2   2  -2 1625.84   98.67
   2  -2   2 1719.82  101.32
  -2   2  -2 1697.26   98.55
  -1  -2   3   22.13    1.48
  -1  -2   3   24.92    1.70
  -1  -2   3   24.42    1.71
   1   2  -3   21.72    1.78
   1   2  -3   26.17    1.62
   1   2  -3   18.95    1.46
   2  -2  -2    5.41    1.33
  -2   2   2    3.55    0.78
   2   0   4  330.76   20.16
   2   0   4  351.48   20.12
   2   0   4  331.82   20.18
  -2   0  -4  332.46   19.80
   2   3   0   26.75    2.08
   2   3   0   28.26    1.90
   2   3   0   23.69    1.84
   2   3   0   23.10    1.73
   2   3   0   23.46    1.84
  -2  -3   0   23.18    2.00
   2   3   0   30.93    1.83
   2   3   0   19.64    1.94
  -2  -3   0   23.32    1.76
   0  -4  -1  297.09   17.66
   1   3   4    2.91    0.98
   1   3   4    3.01    1.37
  -1  -3  -4    4.29    0.88
  -1  -3  -4    3.51    1.12
  -1  -3  -4    5.22    1.29
   1  -3   2  202.08   12.12
  -1   3  -2  211.24   12.69
   2   2   4   55.80    3.59
   2   2   4   57.14    3.80
  -2  -2  -4   52.66    3.29
  -1   3   3  104.08    6.40
   0  -3  -4   80.24    5.04
   0   3   4   97.16    5.92
   0   3   4   95.00    5.95
   2   0  -3  126.18    6.01
   2   0  -3   89.51    5.72
   1   3  -2   91.18    5.44
   1   3  -2  102.34    5.53
  -1  -3   2   64.46    4.82
  -1  -3   2   83.54    4.70
  -2  -3  -3   58.23    3.78
  -2  -3  -3   52.55    3.86
   2   3   3   57.38    3.70
  -2  -3  -3   58.45    3.80
   2   3   3   57.23    3.62
   1  -2  -4  104.72    6.14
  -1   2   4  105.52    6.32
  -1   2   4  110.24    6.55
  -1   2   4  100.24    6.38
   1  -2  -4   97.68    6.05
   1   1   5  104.06    6.99
  -1  -1  -5  106.07    6.79
  -1  -1  -5  114.43    6.82
   1   1   5  119.23    6.91
   1   4   1  661.28   38.46
   1   4   1  592.30   38.48
  -1  -4  -1  574.87   34.88
  -1  -4  -1  611.64   34.97
   1   4   1  712.37   38.53
   0  -4  -2   89.38    5.43
   0   4   0    4.20    0.56
   0   4   0    5.14    0.99
   0  -4   0    3.19    1.06
   0   4   0    3.66    1.12
  -3   0  -1  689.92   37.70
  -3   0  -1  574.18   37.81
   3   0   1  601.20   36.98
  -3   0  -1  617.12   37.74
   3   0   1  659.56   37.04
  -3  -1  -1  323.21   16.23
  -3  -1  -1  243.20   16.09
   3   1   1  315.47   18.38
   3   1   1  295.08   18.39
   3   1   1  311.16   18.28
  -2   1   3   80.43    4.75
  -2   1   3   79.43    4.86
  -2   1   3   72.53    4.89
   0   1   5   76.32    4.79
   0  -1  -5   88.09    5.23
   0  -1  -5   81.38    5.15
   0   1   5   77.03    4.85
   0   1   5   80.48    4.96
   2   2  -2   10.16    1.02
   2   2  -2   14.68    1.09
   2   2  -2    9.80    1.27
  -2  -2   2   12.41    1.30
  -2  -2   2   11.99    1.20
  -2  -2   2   12.10    1.08
  -2  -2   2   14.36    1.04
   1   4   2   83.54    5.08
   1   4   2   85.79    5.08
   1   4   2   75.67    4.96
   1   4   2   81.40    5.20
  -1  -4  -2   92.32    5.51
  -1  -4  -2   84.08    5.47
  -1  -1   4   35.32    2.30
   1   1  -4   33.09    2.36
  -1  -1   4   32.61    2.52
   1   1  -4   32.78    2.26
   3   0   0  473.24   28.50
   3   0   0  503.77   28.63
  -3   0   0  526.93   29.49
  -3   0   0  482.90   29.32
  -3   0   0  522.43   29.37
  -3   0   0  467.00   29.46
   3   1   2  165.27   10.40
  -3  -1  -2  190.09   10.33
  -3  -1  -2  151.25   10.34
   3   1   2  185.50   10.44
   3   1   2  184.45   10.55
  -1   0  -5   93.89    5.96
   1   0   5   98.28    5.80
  -1   0  -5   95.49    5.83
   1   0   5   89.88    5.92
   0   0   5  198.43   12.20
   0   0  -5  213.20   12.90
   0   0   5  207.92   12.35
   0   0  -5  215.04   12.83
   0   0   5  219.66   12.36
  -3   0  -2  302.53   17.34
  -3   0  -2  276.83   17.40
   3   0   2  282.42   16.85
  -3   0  -2  292.79   17.40
  -3  -1   0   34.01    2.11
   3   1   0   30.83    2.36
   3   1   0   34.55    2.16
   3   1   0   36.40    2.36
   3   1   0   32.92    2.11
  -3  -1   0   31.49    2.26
  -3  -1   0   30.10    2.25
   1   2   5   12.72    1.76
   1   2   5   12.54    1.43
   1   2   5   10.70    1.56
   1   4   0   11.85    1.09
   1   4   0    9.83    1.23
  -1  -4   0    9.68    0.99
  -1  -4   0   10.65    1.27
  -2  -1   3   68.90    4.21
  -2  -1   3   73.43    4.27
   2   1  -3   69.73    4.50
   0  -2  -5   72.93    4.55
   0   2   5   65.47    4.01
   0  -2  -5   72.31    4.59
   0   2  -4   71.12    4.37
   0  -2   4   68.55    4.39
   0  -2   4   69.99    4.39
   0   2  -4   65.53    4.40
   2  -3   0  196.48   12.20
   2  -3   0  206.30   12.06
  -2   3   0  199.36   11.80
  -2   3   0  193.00   11.70
  -2  -3   1   76.32    4.77
   2   3  -1   81.40    5.04
   2   3  -1   83.37    5.07
   2   3  -1   77.32    4.95
   2   3  -1   87.68    4.91
   2   3  -1   77.82    5.07
   2   3  -1   76.84    4.90
   2   3  -1   80.30    4.99
  -2   1  -4  601.16   33.37
  -2   1  -4  558.72   33.29
   2  -1   4  572.97   33.95
  -2   1  -4  531.28   33.38
   1   4   3   48.81    3.38
   1   4   3   52.13    3.19
  -1  -4  -3   50.07    3.55
  -1  -4  -3   51.18    3.44
  -1  -4  -3   53.33    3.39
   1   4   3   45.09    3.01
   0  -4  -3   14.05    1.69
   0  -4  -3   10.19    0.84
  -2   2  -3  679.47   41.16
  -2   2  -3  724.87   41.26
   2  -3  -1  155.69    9.40
  -2   3   1  140.38    8.50
  -2   3   1  147.26    8.71
  -3   1  -1  287.55   17.58
  -3   1  -1  311.26   17.68
   3  -1   1  290.38   17.30
   0  -4   1   55.45    3.58
   0  -4   1   52.65    3.27
   0   4  -1   57.35    3.88
   0   4  -1   58.58    3.80
  -3   1   0  282.39   16.59
   3  -1   0  271.77   16.19
  -3   1   0  274.31   16.55
   0   3  -3  430.00   25.24
   0   3  -3  418.08   25.24
   0   3  -3  426.20   25.26
  -3  -2  -1   16.14    1.39
  -3  -2  -1   14.72    1.42
  -3  -2  -1   15.07    1.50
   3   2   1   16.06    1.56
   3   2   1   13.71    1.38
   3   2   1   19.00    1.35
  -3  -2  -1   14.73    1.19
   3   2   1   16.02    1.40
  -1   2  -4  507.11   30.11
   1  -2   4  540.33   32.05
   1  -4  -1  360.15   21.45
  -1   4   1  364.19   21.71
  -1   4   1  362.53   21.62
   3   2   2  300.12   18.04
   3   2   2  284.30   17.97
   3   2   2  314.25   17.90
  -3  -2  -2  287.50   17.25
   3   0  -1   95.18    5.88
  -3   0   1  100.20    5.83
  -3   0   1   91.20    5.86
  -3   0   1  101.80    5.97
  -3   0   1   94.86    6.01
  -2   3  -1  101.70    6.21
   2  -3   1   87.62    5.40
   2  -3   1   87.18    5.25
  -2   2   3    1.85    0.82
  -2   2   3    1.12    0.75
  -3  -1  -3   32.16    2.32
   3   1   3   31.22    2.46
   3   1   3   36.23    2.28
   3   1   3   34.60    2.38
  -3  -1  -3   32.14    2.37
   1  -4   0  101.01    6.27
  -1   4   0   99.37    6.16
   2   3   4    1.44    0.74
  -2  -3  -4    3.75    1.12
  -2  -3  -4    3.33    0.85
   2   3   4    2.55    1.43
  -2  -3  -4    3.49    0.98
   3   1  -1   13.76    1.15
   3   1  -1   12.56    1.31
  -3  -1   1   12.25    1.22
   3   1  -1   10.55    1.13
  -3   0  -3  783.37   46.76
  -3   0  -3  800.91   46.82
   3   0   3  784.77   45.57
   3   0   3  754.13   45.62
   3  -1   2  204.74   11.22
  -3   1  -2  206.68   12.75
  -3   1  -2  216.33   12.70
   3  -1   2  180.04   10.98
  -2  -1  -5  456.82   25.90
   2   1   5  397.49   23.64
  -2  -1  -5  411.98   25.95
  -3  -2   0   12.98    1.13
   3   2   0   13.81    1.17
  -3  -2   0   18.20    1.36
  -3  -2   0   14.63    1.50
   3   2   0   16.29    1.40
  -3  -2   0   18.61    1.40
   1  -4  -2  436.71   25.97
  -1   4   2  535.81   30.99
  -1   4   2  504.19   31.08
  -1   3  -3  448.08   28.31
  -1   3  -3  501.31   28.28
  -1  -4   1    0.90    1.06
   1   4  -1    1.58    0.73
   1   4  -1    0.20    1.07
  -1  -4   1    1.79    0.74
   0   1  -5    0.09    0.58
   0   1  -5    0.41    1.10
   0   1  -5    1.86    0.99
   0  -1   5   -0.22    1.11
   0  -1   5    0.86    0.96
  -3   1   1   41.58    2.81
   3  -1  -1   39.79    2.80
   3  -1  -1   44.61    2.84
  -1   3   4    3.84    1.05
  -1   3   4    5.50    0.90
   1  -3  -4    4.69    1.00
   1  -1   5   60.98    3.68
   1  -1   5   58.32    3.93
  -1   1  -5   52.63    3.44
  -1   1  -5   58.33    3.68
   1  -1   5   60.62    3.96
   2  -3  -2   16.78    1.78
   2  -3  -2   13.86    1.34
  -2   3   2   14.14    1.16
   3   2   3    0.50    0.60
  -3  -2  -3    0.50    0.64
   3   2   3    0.79    0.59
  -3  -2  -3    0.52    0.62
   3   2   3    0.36    1.24
  -1  -3  -5   25.53    2.21
   1   3   5   24.42    2.30
  -1  -3  -5   31.27    2.08
   2   2   5   50.75    3.52
  -2  -2  -5   56.08    4.09
  -2  -2  -5   62.53    3.78
   2   2   5   59.77    3.76
   1  -1  -5 1023.60   62.75
  -1   1   5 1172.25   67.76
   1  -1  -5 1104.21   62.84
   1  -1  -5 1094.54   62.81
  -1   1   5 1125.71   67.71
  -2  -4  -2 1590.73   89.54
   2   4   2 1497.23   93.42
   2   4   2 1777.81   93.34
   2   4   2 1671.43   93.27
   2   4   2 1468.83   93.27
   2   4   2 1580.04   93.30
   2   4   2 1506.96   93.27
  -2  -4  -2 1456.25   89.50
   2   4   1  639.75   38.75
   2   4   1  661.52   38.57
   2   4   1  590.18   38.59
   2   4   1  728.39   38.67
  -2  -4  -1  663.82   39.33
   2   4   1  652.86   38.63
   2   4   1  657.80   38.66
  -1   4  -1  748.75   44.32
   1  -4   1  835.57   48.53
   1  -4   1  805.66   48.51
   2   0   5  575.78   32.33
  -2   0  -5  535.00   31.74
   2   0   5  544.73   32.22
   2   0   5  521.62   32.25
   1   2  -4   61.25    3.83
  -1  -2   4   62.90    3.82
  -1  -2   4   55.84    3.94
   1   2  -4   59.12    3.98
  -1  -2   4   58.40    3.79
   1   3  -3   88.91    5.41
   1   3  -3   86.02    5.44
  -1  -3   3   93.68    5.75
   1   0  -5   98.52    6.09
  -1   0   5  102.32    5.03
  -1   0   5  110.17    5.16
   0   3   5   24.91    1.93
   0   3   5   23.55    1.85
   0  -3  -5   22.24    1.87
   0  -3  -5   23.70    1.86
   2  -3   2  555.89   32.91
  -2   3  -2  540.55   32.00
   1   4   4  102.33    5.83
   1   4   4   88.18    5.63
   1   4   4  101.13    5.87
  -1  -4  -4  103.24    6.44
  -1  -4  -4  101.59    6.33
   2   2  -3   38.22    2.89
   2   2  -3   42.08    2.85
   2   2  -3   42.55    2.61
  -2  -2   3   40.26    2.63
   2   2  -3   41.78    2.60
  -2  -2   3   42.49    2.78
  -2  -2   3   40.39    2.63
   2   0  -4  526.49   29.99
   2   0  -4  517.16   29.95
  -2   0   4  501.75   29.64
   2   0  -4  491.85   29.79
  -2   1   4  480.52   21.40
  -2   1   4  438.41   21.42
   2  -1  -4  436.09   25.80
  -2   1   4  462.63   21.28
   0  -4  -4   33.79    2.92
   0  -4  -4   43.44    2.76
   0   4   4   38.35    2.67
   0   4   4   38.14    2.72
  -2  -4  -3  515.98   31.17
   2   4   3  544.81   30.67
  -2  -4  -3  556.75   31.20
  -2  -4  -3  504.52   31.21
   2   4   3  505.22   30.68
   2   4   3  502.04   30.63
   0   4  -2   11.29    1.40
   0  -4   2    8.71    1.47
   0  -4   2   10.31    0.91
   0   4  -2    9.28    1.46
   0  -4   2   11.03    1.29
   2   3  -2   65.44    3.90
  -2  -3   2   60.14    3.86
   2   3  -2   60.32    3.85
   2   3  -2   56.96    3.76
  -3   0   2   54.64    2.97
  -3   0   2   54.64    2.85
  -3   0   2   48.08    2.61
   3   0  -2   60.41    3.88
   1  -2  -5  231.37   13.94
  -1   2   5  248.10   14.68
  -1   2   5  240.54   14.57
   1  -2  -5  239.65   14.05
  -3  -1  -4  138.28    7.79
  -3  -1  -4  111.70    7.96
   3   1   4  134.11    8.06
   3   1   4  128.45    8.15
   3   1   4  140.44    8.18
   3   1   4  129.25    8.08
   3  -2   0  235.40   13.04
  -3   2   0  223.77   14.00
   3  -2   0  203.22   13.02
  -3   2   0  247.07   14.04
  -2  -4   0  223.56   13.41
   2   4   0  223.44   14.03
   2   4   0  233.40   13.99
   2   4   0  221.07   14.10
   2   4   0  246.18   14.13
   2   4   0  246.36   14.07
   2   4   0  242.55   14.22
  -1   4   3  161.33   10.03
  -1   4   3  171.18   10.16
  -3   1  -3  554.54   33.36
   3  -1   3  518.10   30.77
  -3   1  -3  544.76   33.38
  -3   1  -3  601.55   33.46
   3   2  -1    6.47    1.00
  -3  -2   1    7.19    0.93
   3   2  -1    6.36    0.56
  -3  -2   1    7.97    1.03
  -3  -2   1    7.69    1.12
   3  -2   1  389.91   22.47
  -3   2  -1  360.60   21.50
   3  -2   1  369.31   22.44
   3   3   2   34.32    2.52
   3   3   2   33.63    2.26
  -3  -3  -2   37.45    2.58
   3   3   2   24.94    2.33
  -3  -3  -2   36.44    2.42
   3   3   2   33.28    2.18
   3   3   2   26.56    2.29
   3   3   2   27.62    2.09
  -3  -3  -2   32.86    2.74
   3   3   1  101.26    6.40
   3   3   1  112.13    6.55
   3   3   1  108.87    6.43
  -3  -3  -1  119.23    6.91
  -3  -3  -1  106.73    6.63
   3   3   1   95.24    6.48
  -3  -3  -1  106.87    6.74
  -3   1   2  172.48   10.07
   3  -1  -2  183.67   11.04
  -3   1   2  161.31   10.03
   1   1   6   -0.05    1.01
   1   1   6    1.47    0.97
  -1  -1  -6    1.14    1.17
  -1  -1  -6    0.28    1.20
  -1  -1  -6   -0.77    1.45
   1   1   6    0.93    1.28
  -2   2  -4 1067.52   57.90
  -2   2  -4  902.38   57.82
  -2   2  -4 1037.29   58.02
  -3  -1   2    0.75    0.51
   3   1  -2    0.59    0.97
  -3  -1   2    1.22    0.76
  -3   0  -4  754.22   45.22
  -3   0  -4  775.33   45.21
   3   0   4  706.37   41.59
  -3   0  -4  760.75   45.14
   3   0   4  650.13   41.59
   3   0   4  747.42   41.57
   3   2   4   67.67    4.19
  -3  -2  -4   65.21    4.04
  -3  -2  -4   67.96    4.40
   3   2   4   67.58    4.32
   3   2   4   62.63    4.03
  -2   3   3  322.55   19.45
  -2   3   3  335.39   19.54
   2  -3  -3  376.85   22.53
   3  -2  -1  118.50    7.24
  -3   2   1  109.55    6.71
   3  -2  -1  121.48    7.38
  -2  -3  -5    4.94    0.97
  -2  -3  -5    4.80    1.13
  -2  -3  -5    6.76    1.65
   2   3   5    7.33    1.29
   2   3   5    7.04    1.61
   1   1  -5   17.40    1.62
  -1  -1   5   16.79    1.41
   1   1  -5   17.23    1.57
  -1  -1   5   15.30    1.71
  -2  -1   4  221.17   14.19
   2   1  -4  252.79   15.18
  -2  -1   4  267.88   14.23
   3   3   3  105.42    6.11
  -3  -3  -3   97.82    6.33
  -3  -3  -3  117.52    6.64
   3   3   3   89.16    6.32
  -3  -3  -3  112.58    6.38
  -3  -3  -3   92.25    6.41
   0   1   6   33.94    2.54
   0  -1  -6   31.64    2.23
   0   1   6   33.43    2.30
   0   1   6   31.04    2.33
   1   4  -2  523.53   29.36
   1   4  -2  481.36   29.42
  -1  -4   2  493.88   31.91
   1   4  -2  482.61   29.28
  -1  -4   2  564.92   31.80
   1   2   6   40.01    2.76
   1   2   6   36.89    2.79
  -1  -2  -6   40.46    2.81
   1   2   6   36.51    2.93
  -2   2   4   47.39    2.96
  -2   2   4   46.16    3.15
  -2   2   4   41.38    2.91
  -1   4  -2  543.45   32.27
   1  -4   2  470.05   30.47
   1  -4   2  554.96   30.47
   2  -1   5 1214.75   71.74
  -2   1  -5 1161.51   68.58
  -3   2  -2  230.18   13.87
   3  -2   2  232.53   13.84
   3   3   0  138.46    7.13
  -3  -3   0  135.13    8.28
   3   3   0  125.89    7.31
   3   3   0  139.02    7.30
   3   3   0  137.49    7.37
  -3  -3   0  121.54    8.19
  -3  -3   0  141.70    8.16
  -3  -3   0  129.55    8.14
  -3  -3   0  136.83    8.02
   3   3   0  127.08    7.23
   1   0   6  136.33    8.63
   1   0   6  136.33    8.58
  -1   0  -6  129.68    8.04
   1   0   6  146.61    8.49
  -1   0  -6  136.25    8.21
   0   3  -4  134.82    8.08
   0   3  -4  128.36    8.10
   0  -5  -1  174.81   10.55
   0   5   1  159.54    9.50
   2   4   4  614.18   36.18
   2   4   4  606.67   36.12
  -2  -4  -4  581.73   35.64
  -2  -4  -4  634.83   35.67
  -2  -4  -4  591.54   35.59
   0   2   6   20.19    1.99
   0   2   6   19.98    1.48
   0  -2  -6   17.94    1.57
   0   2   6   15.97    1.73
   0  -2  -6   16.23    1.57
   0  -5  -2  205.93   12.32
   0   0  -6   76.90    5.10
   0   0   6   69.55    4.28
   0   0   6   72.90    4.50
   0   0  -6   80.48    4.98
   0   0   6   69.47    4.53
   0   2  -5  116.05    6.89
   0  -2   5  126.97    7.46
   0  -2   5  117.79    7.44
   0  -2   5  118.47    7.53
   0   2  -5  119.48    6.86
   0   2  -5  106.07    6.61
  -1  -5  -2   16.18    1.55
  -1  -5  -2   12.31    1.29
   1   5   2   14.33    1.55
   1   5   2   16.43    1.42
   1   5   2   14.68    1.81
   1   5   2   13.17    1.63
   2  -3   3  730.38   43.18
  -2   3  -3  665.02   41.52
  -2   3  -3  729.67   41.46
  -1  -5  -1   35.01    2.60
   1   5   1   45.07    2.89
   1   5   1   43.27    2.77
   1   5   1   37.83    2.88
  -1  -5  -1   39.29    2.70
  -2  -4   1   77.63    4.75
   2   4  -1   76.06    4.72
   2   4  -1   75.77    4.89
   2   4  -1   77.60    4.70
   2   4  -1   80.82    4.96
   2   4  -1   72.72    4.74
   2   4  -1   71.68    4.87
  -2  -4   1   71.94    4.85
  -1   2  -5  277.17   16.49
   1  -2   5  267.93   15.95
  -1   2  -5  273.01   16.34
   1  -2   5  263.19   15.97
  -1   3  -4  698.34   42.21
  -1   3  -4  731.96   42.28
  -2   4   0  147.86    8.97
   2  -4   0  143.90    8.78
   0   5   0  850.80   49.74
   0   5   0  818.83   49.96
   0  -5   0  789.29   46.72
  -2   4   1  107.51    6.61
   2  -4  -1  125.29    7.70
  -2   4   1  124.84    6.98
   1  -3  -5  135.10    8.41
   1  -3  -5  158.03    8.63
  -1   3   5  158.76    9.64
  -1   3   5  161.76    9.71
  -1  -4  -5  181.96   11.23
  -1  -4  -5  178.45   11.25
   1   4   5  170.42   11.10
  -1  -4  -5  190.45   11.15
   1   4   5  187.22   10.95
  -3   2   2  326.10   19.43
   3  -2  -2  339.07   19.68
   3  -2  -2  319.37   19.78
  -1   4   4   58.88    3.88
   2   1   6  156.15    9.49
  -2  -1  -6  130.11    8.41
  -2  -1  -6  146.27    8.49
   1   5   3   26.55    2.30
   1   5   3   28.79    2.48
   1   5   3   33.10    2.33
   1   5   3   30.02    2.09
  -1  -5  -3   32.01    2.32
  -1  -5  -3   28.89    2.28
   3  -1   4  565.79   33.60
  -3   1  -4  549.88   29.29
  -3   1  -4  599.42   29.30
  -3   1  -4  591.98   29.17
  -3   1  -4  576.57   29.25
   3   2  -2   83.30    4.88
  -3  -2   2   76.06    4.96
   3   2  -2   69.75    5.10
  -3  -2   2   74.66    5.08
  -3  -2   2   80.70    5.00
  -3  -2   2   83.51    4.83
  -3  -3  -4   17.14    1.54
  -3  -3  -4   18.11    1.48
   3   3   4   16.47    1.39
  -3  -3  -4   17.75    1.50
  -3  -3  -4   15.79    1.67
   3   3   4   18.53    2.01
   1   5   0   96.01    5.64
  -1  -5   0   91.91    5.77
   1   5   0   86.12    5.78
   0  -5  -3  210.99   12.56
   0   4   5   98.14    6.27
   0  -4  -5  103.86    6.30
   0  -4  -5  104.58    6.32
   0   4   5  104.68    6.33
   0  -4  -5   91.82    6.41
   1   3   6    2.86    1.31
  -1  -3  -6    4.85    1.24
   1   3   6    3.37    1.62
   1   3   6    4.15    1.51
  -2  -2  -6   64.84    4.39
   2   2   6   60.64    4.19
   2   2   6   69.66    4.33
   3   0  -3   19.59    1.87
  -3   0   3   22.92    1.46
  -3   0   3   19.55    1.62
  -3   0   3   15.39    1.11
   3   0  -3   22.44    1.77
   0  -4   3  259.97   16.34
   0   4  -3  266.31   15.35
   0  -4   3  276.17   16.13
   0   4  -3  244.42   15.31
   2  -4   1  124.88    5.25
  -2   4  -1  120.46    7.39
   2  -4   1   75.60    4.81
   3   1   5   74.71    4.97
   3   1   5   77.98    4.82
  -3  -1  -5   78.45    4.34
  -3  -1  -5   60.65    3.82
  -3  -1  -5   59.27    4.01
   3   1   5   76.35    4.93
  -3  -1  -5   76.90    4.32
  -3   2  -3  402.80   24.50
  -3   2  -3  405.08   24.47
   3  -2   3  414.85   24.54
  -3   2  -3  416.20   24.29
  -2   4   2   18.98    1.86
  -2   4   2   16.47    1.26
   2  -4  -2   18.15    1.66
   3   3  -1    1.01    0.90
  -3  -3   1    1.37    0.91
  -3  -3   1    0.35    1.14
   3   3  -1    2.10    1.11
   3   3  -1    1.25    1.09
   3   3  -1    1.37    0.56
  -3  -3   1    1.35    1.04
  -2  -3   3    0.89    0.70
   2   3  -3    0.42    0.78
   2   3  -3    1.65    1.04
  -2  -3   3    1.12    0.92
   2   3  -3    0.15    0.83
  -3   1   3   31.98    2.10
  -3   1   3   28.22    2.08
   3  -1  -3   29.17    2.14
  -3   1   3   23.88    1.80
   1   3  -4   69.65    4.12
  -1  -3   4   63.23    4.18
  -1  -3   4   68.79    4.22
   1   3  -4   56.56    4.21
   3   2   5  125.55    7.63
  -3  -2  -5  106.48    7.45
  -3  -2  -5  123.11    7.12
   3   2   5  124.84    7.57
   3   2   5  116.42    7.65
  -3  -2  -5  115.27    7.44
   2   0   6  413.05   24.25
   2   0   6  423.15   24.29
  -2   0  -6  391.06   23.32
   2   0   6  384.02   24.36
   1  -1   6  546.20   32.22
   1  -1   6  538.89   32.22
  -1   1  -6  519.19   29.01
  -1   1  -6  469.57   28.82
   0  -3  -6  130.08    8.09
   0  -3  -6  132.65    8.05
   0   3   6  130.51    8.02
  -1   5   1    4.80    1.45
   1  -5  -1    4.94    1.18
  -1   5   1    6.53    1.28
   1  -5  -1    4.94    1.17
   2   2  -4    4.66    0.83
  -2  -2   4    5.14    1.09
  -2  -2   4    5.36    0.96
  -2  -2   4    5.52    1.38
   2   2  -4    3.74    1.21
   2  -3  -4  142.24    8.83
  -2   3   4  138.54    8.38
  -2   3   4  138.06    8.42
   3  -3   0  548.18   31.76
  -3   3   0  522.00   31.01
   3  -3   0  528.32   31.67
   0  -1   6   32.24    2.49
   0   1  -6   27.99    2.09
   0  -1   6   37.36    2.63
   0   1  -6   32.94    2.45
   0  -5   1   46.53    3.02
   0   5  -1   46.31    3.45
   0  -5   1   52.74    3.39
   0   5  -1   56.40    3.57
   0  -5   1   50.20    3.37
   3   1  -3   38.13    2.72
  -3  -1   3   35.57    2.37
   1  -1  -6 1935.30  108.72
   1  -1  -6 1796.21  108.64
  -1   1   6 1769.78  112.20
  -1   1   6 2037.35  112.21
   1  -1  -6 1828.14  108.73
   3   0   5  774.90   45.52
   3   0   5  800.00   45.53
   3   0   5  712.79   45.55
   3   0   5  781.00   45.46
  -3   0  -5  794.65   43.55
  -3   0  -5  676.05   43.54
  -1   4  -3  360.09   21.51
   1  -4   3  357.02   21.38
   1   2  -5   62.23    3.99
   1   2  -5   61.90    4.12
  -1  -2   5   61.98    4.22
  -1  -2   5   63.40    4.02
  -1  -2   5   63.02    4.05
  -3  -4  -2  945.87   50.69
   3   4   2  818.89   48.79
   3   4   2  753.57   48.86
   3   4   2  897.80   48.86
   3   4   2  867.25   48.99
  -3  -4  -2  839.83   50.70
   3   4   2  787.64   48.80
   3   4   2  851.51   48.87
  -3  -4  -2  734.01   50.83
  -3  -4  -2  867.00   50.75
  -2   1   5  800.12   48.96
   2  -1  -5  787.83   44.84
   2  -1  -5  737.74   44.75
  -2   1   5  851.66   48.93
   1  -5   0   14.42    1.67
  -1   5   0   15.62    1.66
   1  -5   0   16.79    1.68
  -1   5   2    4.28    1.20
   1  -5  -2    4.04    1.22
  -1   5   2    5.18    1.52
   3  -3   1  120.90    7.26
   3  -3   1  117.49    7.17
   2   4   5  201.57   12.25
   2   4   5  203.31   12.45
  -2  -4  -5  219.05   12.43
  -2  -4  -5  199.43   12.51
  -2  -4  -5  197.85   12.48
   2   5   2 2120.52  125.45
   2   5   2 2232.77  125.42
  -2  -5  -2 2169.99  127.98
   2   5   2 2144.65  125.44
   2   5   2 2121.70  125.40
   2   5   2 1891.78  125.54
   2   5   2 2131.15  125.40
   2   5   2 2188.35  125.48
   2   0  -5 1336.15   74.52
   2   0  -5 1228.52   74.31
   2   0  -5 1261.96   74.44
  -2   0   5 1254.97   73.98
  -3   3   1   48.48    3.18
  -3   3   1   50.26    3.42
   3  -3  -1   51.87    3.20
   3  -3  -1   48.70    3.33
  -1  -5  -4  174.37   10.91
  -1  -5  -4  179.45   11.00
  -1  -5  -4  183.45   10.91
   1   5   4  179.42   10.75
   1   5   4  179.66   11.11
   1   5   4  184.10   10.94
   1   5   4  178.37   10.97
   3   4   1 1285.39   69.72
   3   4   1 1173.41   69.78
   3   4   1 1149.44   69.69
   3   4   1 1339.60   69.63
  -3  -4  -1 1151.52   70.67
   3   4   1  998.65   69.65
  -3  -4  -1 1216.57   70.48
   3   4   1 1126.97   69.70
   1   4  -3   35.71    2.74
   1   4  -3   37.95    2.89
   1   4  -3   41.78    2.50
  -1  -4   3   37.13    2.47
  -1  -4   3   33.85    2.78
   4   1   1  103.32    7.68
  -4  -1  -1  144.01    8.51
  -4  -1  -1  134.97    8.65
   4   1   1  126.67    7.58
   1   0  -6  790.95   46.80
  -1   0   6  728.43   36.81
  -1   0   6  760.47   36.90
   4   1   2   46.10    3.35
  -4  -1  -2   49.62    3.26
  -4  -1  -2   43.54    3.12
   4   1   2   47.59    3.38
   4   1   2   51.44    3.24
   2   5   1  845.82   48.05
   2   5   1  829.18   48.00
   2   5   1  793.53   48.08
   2   5   1  736.33   47.97
   2   5   1  826.66   48.05
  -2  -5  -1  814.38   48.26
   2   5   1  883.62   48.21
  -4   0  -1   51.48    3.10
  -4   0  -1   50.40    2.77
   4   0   1   53.45    3.58
  -4   0  -1   53.31    2.94
  -2   2  -5 1095.78   63.43
  -2   2  -5 1101.48   63.53
  -2   2  -5 1044.36   63.37
  -2   2  -5 1071.12   63.32
   2  -2   5 1255.46   74.19
  -3  -4  -3 2415.27  161.52
  -3  -4  -3 2615.23  161.47
   3   4   3 2801.93  155.97
   3   4   3 2625.57  155.76
   3   4   3 2499.67  155.75
   3   4   3 2733.95  155.79
  -3  -4  -3 2818.50  161.72
   1   5  -1  448.81   25.88
   1   5  -1  414.68   26.03
  -1  -5   1  436.74   26.65
  -1  -5   1  454.13   26.53
  -2  -3  -6    1.37    0.89
  -2  -3  -6    0.47    1.16
   2   3   6   -0.56    1.40
   2   3   6    1.57    1.17
  -2  -3  -6    0.56    1.48
  -2  -4   2    4.69    1.32
   2   4  -2    3.27    0.94
   2   4  -2    3.46    0.80
   2   4  -2    3.81    1.26
  -2  -4   2    6.30    1.08
   2   4  -2    3.82    0.91
   1  -2  -6 1019.14   60.36
  -1   2   6 1003.40   59.39
   1  -2  -6 1070.25   60.47
   1  -2  -6  997.38   60.37
   2  -4   2  146.46    8.93
  -2   4  -2  138.07    8.44
   0  -5  -4   -0.55    1.47
   0   5   4    0.82    1.07
   0  -5  -4    0.03    1.11
   0  -5  -4    0.01    0.38
   2   5   3 1310.21   70.38
   2   5   3 1293.14   70.40
  -2  -5  -3 1224.51   74.50
  -2  -5  -3 1303.43   74.55
   2   5   3 1344.72   70.47
  -4   0  -2    0.61    0.39
  -4   0  -2    0.82    0.71
   4   0   2    0.26    1.06
  -4   0  -2    1.03    1.05
  -4   0  -2    1.11    1.18
  -4   0  -2    0.32    1.01
   4   0   2    1.18    1.11
  -2   4   3  267.13   16.30
   2  -4  -3  312.12   18.81
   2  -4  -3  317.90   18.95
  -2   4   3  289.39   16.47
  -3   2   3  284.90   16.21
  -3   2   3  261.09   16.12
  -2   3  -4   64.84    4.43
  -2   3  -4   70.12    4.36
  -4   0   0    3.70    1.17
  -4   0   0    4.90    0.89
  -4   0   0    3.81    0.64
   4   0   0    3.85    0.79
   4   0   0    5.04    1.17
  -4   0   0    4.41    1.20
  -2   2   5  544.51   29.44
   2  -2  -5  502.24   29.28
  -2   2   5  470.25   29.32
  -2   2   5  499.57   29.56
   2  -2  -5  485.48   29.28
  -4  -1   0   79.17    4.34
  -4  -1   0   79.49    4.46
  -4  -1   0   84.13    4.42
  -4  -1   0   68.54    4.15
  -4  -1   0   61.06    4.00
   4   1   0   82.65    5.08
   4   1   0   77.85    4.86
  -3  -3  -5   59.01    4.05
   3   3   5   65.65    4.36
   3   3   5   71.89    4.67
  -3  -3  -5   63.41    3.88
   3   3   5   71.27    4.67
  -3   3  -2  217.05   13.88
   3  -3   2  236.68   14.16
  -3   3  -2  236.30   13.71
   1  -5   1    4.29    1.28
   1  -5   1    5.11    1.23
  -1   5  -1    3.98    1.28
  -1   5   3    1.59    1.50
  -1   5   3    0.30    1.18
  -4  -1  -3  167.02    9.91
  -4  -1  -3  157.78    9.91
   4   1   3  161.13    6.61
   4   1   3   96.59    6.18
  -4  -2  -2  123.09    7.72
   4   2   2  155.77    8.44
   4   2   2  177.86    8.73
  -3  -4   0 1149.44   63.09
   3   4   0 1006.07   60.27
   3   4   0  975.83   60.40
   3   4   0 1005.18   60.40
   3   4   0 1065.77   60.39
   3   4   0 1070.53   60.37
   3   4   0 1082.78   60.48
  -3  -4   0 1005.15   62.97
   3   4   0  947.11   60.47
   4   2   1  219.05   13.59
   4   2   1  228.52   13.44
  -4  -2  -1  310.77   17.08
  -4  -2  -1  270.16   16.90
  -4  -2  -1  291.31   17.14
  -3   3   2  478.22   28.35
   3  -3  -2  554.96   33.01
   2   5   0  234.13   15.01
   2   5   0  255.41   15.13
   2   5   0  246.27   15.07
   2   5   0  254.88   14.93
  -2  -5   0  274.55   14.21
  -2  -5   0  205.88   14.08
   2   5   0  254.09   14.94
   2   1  -5  638.29   39.17
   2   1  -5  680.79   39.16
  -2  -1   5  685.21   40.45
   2  -1   6  176.24   11.99
   2  -1   6  192.76   12.03
  -2   1  -6  181.78   11.00
   2  -1   6  211.11   11.82
   1  -4  -5    3.91    1.14
  -1   4   5    3.37    1.06
  -1   4   5    4.26    1.17
   1   1   7   81.70    5.47
  -1  -1  -7   91.61    5.92
   1   1   7   87.89    5.66
  -1  -1  -7   92.95    5.77
   1   1   7   93.55    5.49
  -1  -1  -7   85.89    5.77
  -3   2  -4   48.29    3.18
  -3   2  -4   46.68    3.46
   3  -2   4   49.78    3.50
  -3   2  -4   53.00    3.37
  -3   2  -4   44.85    3.07
  -3   2  -4   56.12    3.37
  -4   1  -1  273.55   16.85
  -4   1  -1  284.43   16.75
   4  -1   1  310.29   18.54
  -1  -4  -6  113.26    7.11
  -1  -4  -6  113.80    7.02
   1   4   6  106.85    6.59
   1   4   6   97.45    6.36
  -3  -4  -4  329.24   20.38
  -3  -4  -4  378.20   20.54
  -3  -4  -4  330.98   20.42
   3   4   4  315.23   18.80
   3   3  -2  211.05   11.04
  -3  -3   2  215.04   12.09
  -3  -3   2  203.70   12.11
  -3  -3   2  186.89   11.97
   3   3  -2  197.55   11.15
   3   3  -2  205.37   11.06
  -4   0  -3    8.72    1.36
  -4   0  -3    9.50    1.09
  -4   0  -3    9.38    1.32
   4   0   3    9.02    1.34
  -3   1  -5   67.55    4.49
  -3   1  -5   64.35    4.09
   3  -1   5   73.67    4.76
  -3   1  -5   71.67    4.40
  -3   1  -5   67.99    4.26
  -3  -2   3  104.78    7.01
  -3  -2   3  125.02    6.83
  -3  -2   3  103.34    6.86
   3   2  -3  111.37    8.05
   3   2  -3  137.41    7.81
  -1  -2  -7    6.21    1.26
   1   2   7   11.51    1.75
   1   2   7    8.68    1.14
   1   2   7   10.07    1.55
  -1  -2  -7    9.77    1.54
   1   2   7    8.93    1.47
   0   3  -5  275.39   16.91
   0   3  -5  286.11   16.88
   0  -3   5  289.48   17.36
   0   5  -2  232.39   15.12
   0   5  -2  274.21   15.21
   0  -5   2  251.60   14.45
   0  -5   2  240.22   14.47
   0  -5   2  233.79   14.19
  -4  -2  -3  237.02   14.55
  -4  -2  -3  241.15   14.44
   4   2   3  238.27   14.89
   4   2   3  274.77   15.09
   4   2   3  252.83   14.89
   2   5   4 1189.28   69.15
   2   5   4 1160.91   69.18
   2   5   4 1236.99   69.26
  -2  -5  -4 1146.55   67.10
   2   5   4 1126.29   69.08
  -2  -5  -4 1123.09   67.10
  -4   1   0   85.96    5.56
  -4   1   0   81.91    5.51
  -4   1   0   91.80    5.43
   4  -1   0   83.36    5.24
  -1  -1   6   36.31    2.49
  -1  -1   6   34.07    2.74
   1   1  -6   35.67    2.55
   1   1  -6   31.77    2.52
  -4   1  -2  190.33   11.42
  -4   1  -2  188.42   11.50
   4  -1   2  199.54   10.23
   4  -1   2  157.84    9.97
  -4   1  -2  189.81   11.33
   1  -3   5   83.23    5.33
  -1   3  -5   83.03    5.06
  -1   3  -5   73.24    4.93
  -4   0   1  129.60    7.83
  -4   0   1  125.59    7.57
   4   0  -1  132.32    8.12
  -4   0   1  123.69    7.76
   0   1   7  128.91    8.32
   0   1   7  136.00    8.26
   0   1   7  138.19    8.20
   4   2   0  108.33    6.34
   4   2   0  102.59    6.33
  -4  -2   0   93.48    6.54
   4   2   0  104.48    6.55
  -4  -2   0  106.84    6.43
  -4  -2   0  107.40    6.52
  -4  -2   0  106.77    6.30
  -1   3   6  276.10   16.57
  -1   3   6  283.94   16.66
  -1   3   6  272.34   16.80
   1  -3  -6  249.56   16.14
   1  -3  -6  278.30   15.98
  -3   0   4  142.42    7.63
  -3   0   4  155.89    7.47
   3   0  -4  126.26    7.83
   0  -4  -6  152.27    9.37
   0   4   6  151.31    9.32
   0   4   6  152.65    9.28
  -4  -1   1  128.80    8.53
  -4  -1   1  138.60    8.33
   4   1  -1  170.37   10.37
  -1  -5  -5  147.15    8.65
   1   5   5  107.90    6.73
   1   5   5  137.38    7.13
  -1  -5  -5  131.40    8.73
   1   0   7  461.08   25.97
  -1   0  -7  441.38   26.48
  -1   0  -7  461.99   26.52
   1   0   7  418.26   26.11
  -1   0  -7  433.31   26.35
   1   0   7  421.79   26.07
  -3   1   4   13.54    1.51
  -3   1   4   12.49    1.48
  -3   1   4   14.46    1.16
  -3  -1  -6  286.62   15.57
  -3  -1  -6  271.73   15.60
  -3  -1  -6  232.16   15.34
   3   1   6  293.44   17.67
   3   1   6  295.59   17.62
   0   2   7  490.38   29.31
   0   2   7  500.03   29.19
   0  -2  -7  488.23   28.80
   0  -2  -7  480.35   28.73
   0   2   7  481.47   29.39
   0  -4   4    4.28    0.87
   0   4  -4    4.40    1.20
   0   4  -4    4.78    1.27
   0   4  -4    7.35    1.34
  -1   2  -6  266.09   15.29
   1  -2   6  255.13   15.48
   1  -2   6  253.89   15.45
   1  -2   6  260.52   15.45
  -1   2  -6  245.97   15.07
   0  -2   6  367.80   22.17
   0  -2   6  375.97   22.15
   0   2  -6  356.35   18.74
   0   2  -6  376.32   18.78
   0  -2   6  369.55   22.24
  -3  -2  -6  374.01   23.76
  -3  -2  -6  394.83   23.83
   3   2   6  424.54   24.97
  -3  -2  -6  404.87   23.48
   3   2   6  429.28   24.92
   3   2   6  396.99   24.99
   1   5  -2  116.67    7.41
  -1  -5   2  130.19    8.39
   1   5  -2  118.62    7.18
  -1  -5   2  138.44    8.21
   2  -4   3   32.43    2.38
  -2   4  -3   33.90    2.53
  -4  -1  -4  327.76   18.38
   4   1   4  282.53   17.20
   4   1   4  289.78   17.11
  -4  -1  -4  284.70   18.37
  -3   3  -3    7.68    1.47
  -3   3  -3    6.85    1.00
   3  -3   3    8.70    1.09
  -3   3  -3    5.62    1.24
   0   0   7   83.06    5.07
   0   0   7   76.28    4.81
   0   0  -7   87.42    5.28
   0   0  -7   76.70    5.46
   0   0   7   83.14    5.11
  -4   1   1  553.69   31.49
  -4   1   1  538.24   31.35
   4  -1  -1  564.19   33.23
  -4   1   1  506.95   31.34
   4  -1  -1  557.30   33.27
  -2   3   5    2.72    0.89
  -2   3   5    4.07    1.05
  -2  -3   4    1.81    0.90
  -2  -3   4    1.77    0.64
  -2  -3   4    0.40    1.00
   2   3  -4    1.45    0.63
   2   3  -4    1.32    0.87
   2   3  -4    0.72    1.21
  -2  -4  -6    1.22    1.32
  -2  -4  -6   -1.04    1.40
  -2  -4  -6    0.93    1.02
   2   4   6    1.60    1.60
  -2  -4  -6    0.48    1.14
   1  -5   2   20.39    1.78
   1  -5   2   14.18    1.06
  -1   5  -2   17.36    1.84
   1  -5   2   19.40    1.66
  -2  -1  -7  434.25   27.76
  -2  -1  -7  505.57   27.84
   2   1   7  479.01   30.46
   2   1   7  537.50   30.39
   0   5   5   19.61    1.76
   0   5   5   17.56    1.76
   0  -5  -5   18.15    1.73
   0  -5  -5   15.80    2.05
  -1   5   4  243.92   14.73
   3   4  -1  733.02   42.33
   3   4  -1  689.33   42.49
   3   4  -1  745.07   42.33
   3   4  -1  684.24   42.49
   3   4  -1  682.45   42.58
   3   4  -1  712.57   42.42
   3   4  -1  708.65   42.44
   3   4  -1  731.38   42.52
  -3  -4   1  697.27   41.36
   2  -4  -4  373.67   22.43
  -2   4   4  331.77   19.83
  -2   4   4  336.54   19.95
  -1   4  -4  506.43   30.53
  -1   4  -4  516.96   30.47
   1  -4   4  448.85   26.81
   1   3   7    0.93    0.75
  -1  -3  -7   -0.26    1.18
   1   3   7    1.60    1.36
   1   3   7    2.23    1.46
  -1  -3  -7    1.37    1.14
   1   3   7    0.38    1.63
   2   2   7   54.56    3.75
  -2  -2  -7   54.62    3.74
  -2  -2  -7   52.94    3.89
   2   5  -1   29.07    2.51
   2   5  -1   30.50    2.16
  -2  -5   1   31.44    2.21
   2   5  -1   26.71    2.40
  -2  -5   1   27.24    2.41
   2   5  -1   28.64    2.41
   2   5  -1   31.27    2.16
   4   3   2  162.64   10.39
   4   3   2  199.87   10.54
   4   3   2  174.69   10.62
  -4  -3  -2  179.21   11.12
  -4  -3  -2  192.58   11.25
   4   3   2  167.86   10.57
  -4  -3  -2  187.30   11.38
   4   3   2  180.43   10.71
  -4  -2  -4  127.59    7.15
   4   2   4  113.02    6.98
  -4  -2  -4  108.99    6.74
   4   2   4  121.98    7.26
   4   2   4  123.13    7.32
   4   2   4  119.62    7.12
  -4   1  -3   82.72    5.11
  -4   1  -3   77.89    5.18
   4  -1   3   77.13    3.53
  -4   1  -3   80.50    5.07
   4  -1   3   45.55    2.95
  -3  -1   4  473.00   27.98
   3   1  -4  516.61   30.44
   3   1  -4  506.07   30.50
   3  -3  -3  645.47   38.35
  -3   3   3  558.17   33.70
  -3   3   3  578.54   33.70
   3   0   6  514.31   30.66
  -3   0  -6  494.64   28.91
  -3   0  -6  474.40   28.84
   3   0   6  525.03   30.60
   3   0   6  505.93   30.68
   4   0   4   70.93    4.64
  -4   0  -4   65.61    4.23
  -4   0  -4   62.94    4.33
   2  -5  -1  171.22   10.46
  -2   5   1  196.00   11.40
  -2   5   1  176.73   11.54
   4   3   1   13.94    1.37
   4   3   1   12.35    1.26
   4   3   1    9.12    1.56
  -4  -3  -1   14.96    1.75
  -4  -3  -1   16.31    1.62
  -4  -3  -1   16.20    1.28
  -4  -3  -1   14.45    1.54
  -1  -3   5   12.48    1.36
  -1  -3   5   11.89    1.71
   1   3  -5   11.71    1.65
  -1  -3   5   12.98    1.40
   1   3  -5   13.05    1.48
   2   4  -3   15.36    1.46
   2   4  -3   13.89    1.53
  -2  -4   3   15.49    1.51
   2   4  -3   12.70    1.40
   3   4   5   38.91    2.78
   3   4   5   48.11    3.34
  -3  -4  -5   38.49    2.80
  -3  -4  -5   40.29    2.71
  -3  -4  -5   37.25    2.79
  -4  -3  -3  113.44    7.53
   4   3   3  118.09    7.01
  -4  -3  -3  118.22    7.41
   4   3   3  103.95    7.16
  -4  -3  -3  122.59    7.31
   4   3   3  122.62    7.29
   2  -5   0   40.62    2.94
  -2   5   0   40.38    2.86
  -1  -6  -2   70.55    4.80
   1   6   2   71.50    4.97
   1   6   2   84.68    4.95
   1   6   2   74.77    5.30
   1   6   2   82.84    5.10
  -1  -6  -2   84.14    5.03
  -3   2   4  208.13   12.34
  -3   2   4  228.00   12.45
  -3   2   4  190.30   12.24
   0  -6  -2  431.63   25.64
   0  -6  -1  110.51    6.88
   0   6   1   96.41    6.07
   0   6   1   94.15    5.70
  -4  -2   1    6.19    1.17
  -4  -2   1    4.89    0.88
   4   2  -1    4.90    0.98
  -4  -2   1    5.56    1.14
   4   2  -1    5.26    0.50
   4   2  -1    6.29    1.01
   2   2  -5  160.77    9.69
  -2  -2   5  162.35    9.99
   2   2  -5  155.77    9.49
  -2  -2   5  163.08    9.91
  -2  -2   5  165.89   10.09
   2   5   5 1055.64   58.75
   2   5   5  984.83   58.79
  -2  -5  -5 1042.33   61.58
  -2  -5  -5 1057.82   61.53
   2   5   5 1019.59   59.01
   2   5   5  916.29   58.78
  -2  -5  -5 1019.03   61.57
  -4   2  -1   64.61    4.15
   4  -2   1   68.05    4.18
  -4   2  -1   65.14    4.26
   4  -2   1   63.08    4.08
  -1  -6  -1  105.88    6.34
   1   6   1  121.21    6.99
   1   6   1  117.59    6.80
  -1  -6  -1   95.27    6.43
   0  -3  -7  442.89   27.43
   0  -3  -7  476.30   27.40
   0   3   7  436.19   27.99
   0   3   7  483.18   27.77
   1   4  -4   52.12    3.58
   1   4  -4   52.16    3.54
  -1  -4   4   52.65    3.46
   1   4  -4   53.94    3.64
   3   3   6   72.61    5.51
   3   3   6   82.94    5.30
  -3  -3  -6   89.05    5.99
  -3  -3  -6   93.29    5.57
  -3  -3  -6   86.20    5.73
   3  -4   0   53.74    3.29
   3  -4   0   51.25    3.54
  -3   4   0   53.92    3.74
   4  -2   0    1.27    0.88
  -4   2   0    1.56    1.13
   2   0   7  147.36    9.65
   2   0   7  162.41    9.53
  -2   0  -7  153.22    9.41
   2   0   7  158.49    9.49
  -2   5   2    3.00    0.59
  -2   5   2    2.49    1.53
   2  -5  -2    3.13    1.23
  -4   0   2  197.05   11.75
  -4   0   2  192.99   11.96
  -4   0   2  207.63   12.05
   4   0  -2  226.46   13.64
   1   6   3    0.85    1.16
   1   6   3    2.57    1.63
  -1  -6  -3    1.36    0.89
   1   6   3    1.22    0.97
  -1  -6  -3    1.41    1.19
   1   6   3    2.51    1.30
  -3   4   1   -0.41    0.77
   3  -4  -1   -0.68    1.06
   3  -4  -1    0.55    0.60
  -3   4   1   -0.87    1.35
   3   5   2  382.04   21.85
   3   5   2  382.16   21.69
  -3  -5  -2  398.03   24.22
   3   5   2  345.78   21.65
   3   5   2  355.62   21.70
   3   5   2  348.99   21.66
   3   5   2  347.98   21.58
  -3  -5  -2  411.80   24.16
   3   5   2  389.82   21.72
   2   3   7   43.17    3.21
  -2  -3  -7   40.18    3.29
   2   3   7   41.71    3.07
  -2  -3  -7   43.50    3.08
   2  -1  -6  318.18   18.94
   2  -1  -6  312.23   19.16
   2  -1  -6  321.63   19.00
  -2   1   6  333.73   19.92
  -2   3  -5   38.01    2.54
  -2   3  -5   43.23    2.82
   1  -1   7  282.80   16.70
  -1   1  -7  250.47   15.23
   1  -1   7  272.49   16.68
  -1   1  -7  251.51   15.03
  -3   4  -1   10.83    1.26
   3  -4   1    9.36    1.33
   3  -4   1   10.23    0.92
   0  -6  -3  396.52   23.51
  -2   2  -6    6.32    1.48
   2  -2   6    8.65    1.52
  -2   2  -6    4.11    1.04
  -2   5  -1    1.64    1.16
   2  -5   1    1.90    1.25
  -3  -5  -3 2091.77  122.82
   3   5   3 2174.96  124.13
  -3  -5  -3 2000.46  122.84
   3   5   3 1974.92  124.11
   3   5   3 2278.43  124.36
   3   5   3 2116.83  124.19
   3   5   3 2062.34  124.14
  -3  -5  -3 2168.67  122.90
  -4   2  -2    0.07    1.14
   4  -2   2    0.40    1.01
   4  -2   2    0.60    0.74
   0   6   0  541.28   28.11
   0   6   0  456.24   27.73
   0  -6   0  382.85   22.88
  -4  -3   0   79.59    5.52
  -4  -3   0   79.12    5.42
   4   3   0   82.20    4.73
   4   3   0   68.13    4.49
  -4  -3   0   81.11    5.51
  -4  -3   0   91.25    5.22
  -4  -3   0   88.89    5.39
   4   1  -2   12.90    1.40
   4   1  -2   12.59    1.49
  -4  -1   2   13.19    1.35
  -4  -1   2   12.72    1.09
  -1  -2   6    2.02    1.07
  -1  -2   6    3.22    1.12
   1   2  -6    0.33    1.27
   1   2  -6    3.56    1.15
  -1  -2   6    1.88    1.36
   0  -5   3  416.91   24.79
   0   5  -3  400.26   23.70
   0   5  -3  384.83   23.67
   0  -5   3  422.09   25.06
   0   5  -3  403.03   23.69
  -3   2  -5    6.54    1.01
  -3   2  -5    7.58    1.29
  -3   2  -5    4.53    1.04
  -3   2  -5    5.27    1.46
  -3   2  -5    6.20    1.29
   2   0  -6  225.78   12.81
  -2   0   6  206.42   12.36
   2   0  -6  201.16   13.02
   2   0  -6  206.12   12.90
   4  -1  -2  586.77   33.23
   4  -1  -2  535.93   33.20
  -4   1   2  562.27   33.80
  -4   1   2  573.59   33.71
   3   5   1  225.08   14.71
   3   5   1  259.63   14.92
   3   5   1  258.99   14.66
   3   5   1  263.57   14.81
   3   5   1  217.32   14.71
   3   5   1  225.61   14.80
   3   5   1  268.01   14.76
  -3  -3   3  335.96   19.88
  -3  -3   3  329.69   19.84
   3   3  -3  351.64   17.71
   3   3  -3  337.93   17.87
   3   3  -3  311.33   17.59
  -3  -3   3  337.36   19.80
   3   3  -3  348.60   17.72
  -3  -3   3  328.67   19.97
  -1   1   7  704.79   43.68
   1  -1  -7  767.56   42.38
  -1   1   7  737.92   43.79
   1  -1  -7  676.20   42.28
   1  -1  -7  727.18   42.39
  -1   1   7  799.22   43.81
   0   1  -7   62.23    3.68
   0  -1   7   60.42    4.01
   0   1  -7   49.19    3.37
   0   1  -7   54.09    3.75
   0  -1   7   60.95    4.13
   4   3   4   12.70    1.19
  -4  -3  -4   12.20    1.36
   4   3   4   14.48    1.78
   4   3   4   12.85    1.14
  -4  -3  -4   12.12    1.82
   4  -2  -1  346.68   20.62
   4  -2  -1  345.56   20.68
  -4   2   1  329.82   19.73
  -1  -6   0  322.68   19.34
   1   6   0  468.19   27.98
   1   6   0  470.43   27.82
   2  -2  -6  683.22   38.80
  -2   2   6  679.65   39.20
   2  -2  -6  628.21   38.79
  -2   2   6  634.32   39.34
   1  -4  -6  155.16    7.20
   1  -4  -6  106.63    6.76
  -1   4   6  158.90    9.29
  -1   4   6  145.54    9.19
   4   1   5  106.16    6.37
  -4  -1  -5  103.98    7.45
  -4  -1  -5  124.76    7.18
   4   1   5  105.72    6.34
   4   1   5  101.85    6.46
   4   1   5   92.33    6.44
   4  -1   4   16.95    1.87
  -4   1  -4   17.92    1.87
  -4   1  -4   15.61    1.82
  -4   1  -4   17.01    1.60
  -4   1  -4   16.17    1.63
  -1   2   7   93.04    5.82
   1  -2  -7   98.91    6.04
   1  -2  -7  100.19    6.16
   1  -2  -7   95.65    6.04
  -1   2   7   86.43    5.80
  -3   4   2  246.14   15.18
  -3   4   2  272.99   15.42
   3  -4  -2  245.73   14.80
   4   2   5  409.00   25.34
   4   2   5  415.97   25.49
  -4  -2  -5  359.36   22.27
   4   2   5  430.97   25.49
   4   2   5  456.05   25.44
  -4  -2  -5  373.06   21.90
   1   5   6  199.16   12.56
   1   5   6  206.72   12.38
  -1  -5  -6  222.16   13.19
  -1  -5  -6  211.19   13.29
  -3  -2   4  598.04   35.52
  -3  -2   4  608.71   35.69
   3   2  -4  604.32   35.96
  -3  -2   4  598.37   35.49
  -3   1  -6   86.56    5.30
   3  -1   6   92.17    5.88
  -3   1  -6   79.63    5.00
  -2   5   3  100.27    5.95
  -2   5   3  106.34    6.13
  -2   5   3   87.10    5.62
   2  -5  -3   98.39    6.44
   2  -5  -3   98.02    6.22
  -3   3  -4   14.24    1.77
  -3   3  -4   14.46    1.59
  -3   3  -4   13.54    1.38
   1   0  -7  193.77   11.74
  -1   0   7  185.63    9.10
  -1   0   7  192.39    9.25
   1   6   4    1.67    1.18
  -1  -6  -4    2.76    1.27
   1   6   4    1.96    1.27
   1   6   4    1.99    1.62
   1   6   4    2.47    0.88
   1   4   7   41.88    2.83
  -1  -4  -7   40.39    2.89
  -1  -4  -7   33.77    2.85
  -1  -4  -7   40.89    2.79
   1   4   7   44.20    2.96
   3   5   4  266.78   16.03
  -3  -5  -4  259.22   15.71
   3   5   4  267.41   16.07
  -3  -5  -4  269.87   15.80
  -3  -5  -4  255.96   15.72
   1  -5   3    6.85    1.52
   1  -5   3    8.77    0.84
  -1   5  -3   11.30    1.68
   1  -5   3    8.62    1.38
   3   4  -2  518.61   30.64
   3   4  -2  514.02   30.80
   3   4  -2  498.56   30.81
  -3  -4   2  539.06   32.07
   3   4  -2  538.01   30.75
   2   6   2  214.12   14.32
   2   6   2  238.91   14.32
   2   6   2  265.94   14.46
  -2  -6  -2  226.13   13.73
   2   6   2  228.70   14.46
   2   6   2  245.51   14.43
   2   6   2  251.24   14.61
   2   6   2  234.52   14.34
   2   5  -2   10.02    1.34
   2   5  -2   10.15    1.64
  -2  -5   2    9.32    1.28
  -2  -5   2    9.01    1.57
   2   5  -2   10.98    1.27
   2   5  -2   14.53    1.21
   2   5  -2   10.36    1.68
   1  -6  -1   44.88    3.11
  -1   6   1   45.74    3.51
  -1   6   1   46.37    3.27
   1  -6  -1   44.66    3.24
  -3   4  -2  108.85    6.96
  -3   4  -2  109.61    6.73
   3  -4   2  115.79    6.73
   3  -4   2  104.37    6.54
  -1   5   5   28.74    2.23
  -1   5   5   27.83    2.32
  -2   4  -4   33.95    2.65
   1   5  -3   53.91    3.82
   1   5  -3   58.55    3.56
   1   5  -3   54.45    3.95
  -1  -5   3   52.49    4.17
  -1  -5   3   65.89    3.92
   1   5  -3   58.46    3.98
   1  -6  -2  143.72    9.50
  -1   6   2  138.99    9.23
  -1   6   2  153.54    9.10
   1  -6  -2  161.97    9.39
   4  -2   3   76.31    4.67
  -4   2  -3   79.90    4.88
  -4   2  -3   70.53    4.95
   2   6   3   51.41    3.83
   2   6   3   60.96    4.31
   2   6   3   59.70    3.82
  -2  -6  -3   57.21    3.93
   2   6   3   60.53    4.07
   2   6   3   56.92    3.89
   3   5   0  224.25   13.86
   3   5   0  212.27   13.97
   3   5   0  221.48   13.77
   3   5   0  229.00   13.99
  -3  -5   0  210.83   12.78
   3   5   0  252.99   13.88
   3   5   0  225.95   13.92
   3   5   0  244.55   13.90
  -4   0  -5    7.70    1.65
   4   0   5    7.64    1.27
  -4   0  -5    9.38    1.41
  -4   0  -5    8.01    1.51
   4   0   5    9.53    1.60
   0  -6  -4   52.46    3.51
   0  -6  -4   48.63    3.10
  -3   3   4  325.24   19.44
  -3   3   4  326.11   19.44
   3  -3  -4  374.11   22.45
   0   6  -1  563.42   33.58
   0  -6   1  510.60   31.80
   0  -6   1  560.87   31.86
   2   6   1   10.46    1.40
   2   6   1   11.32    1.67
   2   6   1    9.93    1.70
  -2  -6  -1   10.88    1.52
   2   6   1    9.56    1.27
   2   6   1    7.96    1.39
   2   6   1   10.47    1.30
  -2   1  -7    3.42    1.53
  -2   1  -7    2.52    1.13
   2  -1   7    2.26    1.35
   2  -1   7    0.78    0.66
  -2   4   5  324.86   19.45
   2  -4  -5  326.35   19.71
  -2   5  -2    2.64    1.17
   2  -5   2    1.69    1.17
  -2  -1   6   95.46    5.63
   2   1  -6   89.51    5.87
   2   1  -6   91.45    5.79
  -2  -1   6   95.09    5.93
  -2  -1   6   82.42    5.81
  -4  -2   2   18.72    1.36
  -4  -2   2   15.70    1.12
   4   2  -2   16.03    1.56
  -4  -2   2   15.98    1.62
  -4  -2   2   20.35    1.62
   0  -5  -6  124.53    8.11
   0  -5  -6  126.62    7.92
   0  -5  -6  129.25    7.94
   0   5   6  127.46    7.77
   0   5   6  121.87    7.72
   1  -6   0  140.29    8.32
  -1   6   0  153.97    9.51
   1  -6   0  126.98    8.21
   4   4   2    0.60    1.06
   4   4   2   -0.04    1.27
   4   4   2   -1.73    1.41
  -4  -4  -2    1.51    1.16
   4   4   2   -0.23    1.00
   4   4   2    1.33    1.08
   4   4   2    0.55    1.45
  -4  -4  -2    0.91    0.87
  -4  -4  -2    0.91    1.46
   3  -1  -5   -0.14    1.21
  -3   1   5    4.17    0.77
  -3   1   5    2.69    1.22
  -3   1   5    1.41    1.30
  -3   0   5  109.73    6.07
  -3   0   5  100.55    6.28
  -3   0   5   92.40    5.98
   3   0  -5  103.45    5.62
   3   0  -5  100.49    5.65
  -3  -4  -6   27.63    2.26
  -3  -4  -6   28.82    2.11
  -3  -4  -6   26.97    2.26
   3   4   6   30.65    2.77
   3   4   6   33.22    2.57
  -3  -4  -6   27.52    2.72
   3   4   6   35.10    2.95
   4   3  -1  125.76    7.58
  -4  -3   1  140.24    9.18
   4   3  -1  129.31    7.80
  -4  -3   1  127.40    9.07
   4  -2  -2  276.06   17.18
  -4   2   2  272.51   16.37
   4  -2  -2  294.76   17.12
   0  -4  -7  368.89   22.11
   0   4   7  370.61   22.17
   0   3  -6  241.16   14.08
   0   3  -6  223.70   14.03
   0  -3   6  225.85   13.38
   0  -3   6  213.80   13.26
   3   2   7  198.54   12.10
  -3  -2  -7  175.03   11.23
  -3  -2  -7  186.14   11.19
  -3  -1  -7    3.43    1.18
   3   1   7    3.18    1.04
  -3  -1  -7    3.61    1.47
   3   1   7    4.40    1.27
   4   4   3  133.92    8.18
   4   4   3  120.13    8.27
  -4  -4  -3  110.13    7.36
   4   4   3  135.50    8.35
  -4  -4  -3  127.07    7.51
  -4  -4  -3  131.23    7.75
   4   4   3  123.69    8.32
  -1   3  -6    5.12    1.50
   1  -3   6    4.17    1.27
   1  -3   6    3.67    1.53
  -1   3  -6    4.76    0.96
   2   5   6  347.13   21.02
  -2  -5  -6  345.89   20.17
  -2  -5  -6  327.86   20.25
  -2  -5  -6  346.09   20.26
  -2  -5  -6  326.03   20.23
   0   4  -5    4.30    1.38
   0   4  -5    3.55    1.28
   0   4  -5    5.16    1.38
  -1  -6   1  178.35   10.75
   1   6  -1  204.95   11.50
  -1  -6   1  179.24   10.95
   1   6  -1  167.25   11.68
  -2  -4  -7    8.27    1.25
   2   4   7    5.32    1.66
  -2  -4  -7    7.99    1.49
   2   4   7    6.01    1.54
  -4  -4  -1   26.87    2.05
  -4  -4  -1   24.09    1.82
   4   4   1   27.01    2.00
   4   4   1   22.27    1.99
  -4  -4  -1   22.70    2.39
   4   4   1   19.88    2.07
   4   4   1   24.71    1.97
   4   4   1   22.72    2.14
  -4  -3  -5  287.02   16.64
  -4  -3  -5  264.04   16.78
   4   3   5  300.05   17.67
   4   3   5  300.44   17.42
  -4  -3  -5  280.99   16.65
   4   3   5  281.70   17.45
   4   3   5  294.38   17.73
   1   1   8   62.04    4.32
   1   1   8   63.88    4.10
  -1  -1  -8   66.28    4.46
  -1  -1  -8   67.71    4.72
  -1  -1  -8   65.97    4.53
   1   1   8   64.10    4.15
  -1   3   7   71.94    4.73
   1  -3  -7   58.35    4.36
  -1   3   7   67.24    4.45
   1  -3  -7   71.07    4.16
   1   2   8    6.15    1.70
   1   2   8    6.37    1.20
  -1  -2  -8    8.00    1.36
  -1  -2  -8    6.72    1.62
   1   2   8    9.07    1.45
  -1   6   3   74.66    4.67
  -1   6   3   64.18    4.90
   1  -6  -3   77.97    4.87
  -1   6   3   71.55    4.70
  -4   0   3   66.10    3.40
   4   0  -3   66.89    4.35
  -4   0   3   56.43    3.03
  -4   0   3   69.90    3.59
  -2   3   6    1.83    1.04
   2  -3  -6    1.20    0.98
   2  -3  -6    1.91    1.07
  -2   3   6    1.66    1.56
  -2   3   6    1.71    0.87
  -3   4   3   98.31    6.07
   3  -4  -3  106.41    6.55
   3  -4  -3   96.79    6.30
  -2  -6  -4   99.45    6.55
   2   6   4  106.35    6.61
   2   6   4  111.11    6.81
  -2  -6  -4  107.70    6.56
   2   6   4  108.10    6.63
   2   6   4   99.11    6.48
  -1   4  -5    0.17    0.27
  -1   4  -5   -0.08    1.36
  -1   4  -5    0.43    1.28
  -1   4  -5    0.76    1.16
   4  -3   0    0.13    0.84
  -4   3   0    0.97    1.23
   4  -3   0    0.16    0.95
   1   1  -7    0.35    1.20
  -1  -1   7    1.29    1.00
   1   1  -7    1.40    1.31
  -1  -1   7    1.14    1.34
  -4   1   3  428.51   25.79
  -4   1   3  437.86   25.92
  -4   1   3  450.73   26.01
   4  -1  -3  479.49   28.51
   2   6   0    1.73    1.48
   2   6   0    2.08    1.49
   2   6   0    1.67    0.99
  -2  -6   0    2.41    1.37
   2   6   0    1.94    0.94
  -2  -6   0    3.15    1.40
   2   6   0    2.42    1.23
   4  -3   1   36.47    2.60
  -4   3  -1   41.28    2.90
  -4   3  -1   38.79    2.97
   4  -3   1   38.95    2.60
  -3   2   5  169.69    9.58
  -3   2   5  168.69    9.45
  -3   2   5  159.38    9.66
  -3   2   5  145.12    9.31
  -3  -5  -5   26.72    2.15
  -3  -5  -5   22.36    2.28
  -3  -5  -5   28.10    2.23
  -3  -5  -5   24.39    2.07
   3   5   5   20.79    2.04
   3   5   5   26.29    1.94
   2   3  -5    4.82    0.47
  -2  -3   5    9.29    1.34
   2   3  -5    7.85    1.08
  -2  -3   5    7.81    0.85
   2   3  -5   10.00    1.46
  -2  -3   5    8.78    1.19
  -2  -3   5    7.55    1.66
   2   4  -4   84.62    5.32
   2   4  -4   85.76    5.32
  -2  -4   4   86.45    5.50
  -1  -6  -5  152.88    9.45
  -1  -6  -5  152.76    9.60
   1   6   5  155.96    9.31
   1   6   5  158.33    9.66
   1   6   5  154.54    9.61
   4   4   4    6.33    1.08
   4   4   4    4.29    1.65
  -4  -4  -4    6.63    1.40
  -4  -4  -4    6.87    1.18
  -4  -4  -4    6.04    1.15
  -4  -4  -4    5.25    1.80
   3   1  -5  101.08    4.96
   3   1  -5   94.24    4.89
  -3  -1   5   92.99    5.55
  -3  -1   5   91.56    5.60
  -4  -1   3    2.52    0.95
   4   1  -3    2.10    1.20
   4   1  -3    2.72    1.16
  -4  -1   3    1.62    0.48
   1  -6   1  150.93    9.49
  -1   6  -1  163.66   10.10
   1  -6   1  156.02    9.50
  -2   5   4  359.47   22.18
   2  -5  -4  441.98   25.73
  -2   5   4  405.79   22.40
   2  -5  -4  418.39   25.57
  -1   2  -7   74.25    4.87
   1  -2   7   79.66    5.26
   1  -2   7   80.84    5.32
   1  -2   7   83.24    5.29
  -1   2  -7   86.26    5.22
   0   1   8    4.21    1.33
   0   1   8    6.20    1.37
   0   1   8    4.58    1.01
   3   3   7  126.18    7.89
  -3  -3  -7  137.66    8.57
  -3  -3  -7  125.17    8.32
   3   3   7  129.92    8.08
  -3  -3  -7  138.03    8.15
   3   0   7    0.68    1.05
  -3   0  -7    0.51    1.30
   3   0   7    1.06    1.19
   3   0   7   -0.51    0.85
  -3   4  -3  102.74    5.97
   3  -4   3   88.82    5.58
  -3   4  -3   84.83    5.65
   0   2   8   85.88    5.18
   0  -2  -8   73.41    4.80
   0  -2  -8   71.90    4.91
   0   2   8   75.24    5.25
   0  -2  -8   83.97    5.14
   0   2   8   85.68    5.42
   0   2  -7  332.59   17.05
   0  -2   7  324.82   20.63
   0  -2   7  385.22   20.76
   0  -2   7  335.54   20.61
   0   2  -7  337.98   17.08
  -1   0  -8  500.90   29.21
  -1   0  -8  485.28   29.32
   1   0   8  474.21   29.42
   1   0   8  485.46   29.40
   1   0   8  509.62   29.26
  -1   0  -8  481.93   29.37
   4  -3  -1   90.04    5.20
  -4   3   1   84.30    5.33
   4  -3  -1   75.86    5.23
  -4   1  -5    7.63    1.50
  -4   1  -5    6.83    1.20
  -4   1  -5    7.43    1.45
   4  -1   5    8.07    1.62
  -2  -2  -8  199.87   11.91
   2   2   8  172.26   11.28
   2   2   8  192.02   11.21
  -2  -2  -8  186.57   11.78
   3   5  -1  113.87    7.11
   3   5  -1  102.49    7.30
  -3  -5   1  115.58    7.23
   3   5  -1  118.59    7.40
   3   5  -1  124.27    7.20
   3   5  -1  108.06    7.24
   3   5  -1  115.32    7.36
   3   5  -1  120.58    7.12
   3   5  -1  127.67    7.28
   1   3   8  144.07    8.92
   1   3   8  144.41    9.20
   1   3   8  153.03    9.19
  -1  -3  -8  156.09    9.68
  -1  -3  -8  157.31    9.63
   1   3   8  156.75    9.36
   4   4   0  106.20    6.60
  -4  -4   0  112.66    6.96
   4   4   0  103.90    6.55
   4   4   0  102.24    6.59
  -4  -4   0  104.10    6.86
  -2  -1  -8  310.08   18.50
   2   1   8  297.66   18.19
   2   1   8  304.29   18.06
  -2  -1  -8  312.52   18.34
  -2  -1  -8  292.05   18.34
  -4   2  -4   22.84    1.96
  -4   2  -4   24.69    2.10
  -4   2  -4   27.20    2.25
  -4   2  -4   26.25    2.29
   4  -3   2   46.24    3.20
  -4   3  -2   46.96    3.41
   4  -3   2   50.38    3.19
   4   1   6   26.85    2.62
  -4  -1  -6   34.22    2.85
  -4  -1  -6   34.60    2.86
   4   1   6   33.16    2.54
   4   1   6   34.45    2.40
   4   1   6   33.13    2.41
  -4  -1  -6   34.45    2.41
   0   6   5    5.64    1.42
   0  -6  -5    4.28    1.33
   0  -6  -5    4.29    1.80
   0   6   5    5.54    1.29
   0   5  -4   63.66    4.67
   0   5  -4   72.46    4.72
   0  -5   4   73.72    4.73
   0  -5   4   66.91    4.31
   0   5  -4   76.56    4.75
  -4  -2  -6  268.20   16.67
   4   2   6  332.67   20.53
   4   2   6  358.33   20.66
   4   2   6  342.55   20.63
  -4  -2  -6  291.34   17.12
  -1  -4   5  109.15    6.79
   1   4  -5  112.15    6.99
   0  -6   2  259.69   15.76
   0  -6   2  289.26   16.09
   0   6  -2  295.58   17.87
   0  -6   2  257.72   16.07
  -1  -3   6   88.09    5.53
  -1  -3   6   87.19    5.54
  -1  -3   6   85.19    5.72
   1   3  -6   91.09    5.54
   1   3  -6   80.62    5.40
   1  -6  -4  475.77   28.15
  -1   6   4  465.52   27.79
  -3   2  -6   11.28    1.52
  -3   2  -6   11.12    1.27
  -3   2  -6   11.45    1.26
   3  -2   6   11.87    1.60
   0   0  -8   16.76    2.09
   0   0   8   17.68    1.89
   0   0   8   18.31    1.37
   0   0   8   19.93    1.86
  -2   5  -3   59.95    4.02
   2  -5   3   55.42    3.75
   3   3  -4  435.18   24.16
   3   3  -4  437.51   23.96
  -3  -3   4  420.40   24.86
  -3  -3   4  442.30   25.06
   3   3  -4  448.93   23.94
   3   3  -4  423.54   24.24
  -3  -3   4  405.82   24.86
  -2   3  -6   46.65    3.15
  -2   3  -6   42.84    3.15
  -2   3  -6   48.02    3.42
  -3   3  -5   32.74    2.35
  -3   3  -5   34.67    2.65
  -3   3  -5   35.29    2.49
  -2  -2   6    3.51    1.10
   2   2  -6    5.62    1.40
   2   2  -6    5.23    1.12
  -2  -2   6    3.97    1.17
  -2  -2   6    3.82    1.52
  -2  -2   6    5.07    0.94
   2   6   5  168.96   10.50
   2   6   5  168.60   10.30
   2   6   5  176.47   10.46
  -2  -6  -5  162.93   10.54
  -2  -6  -5  184.16   10.63
  -4   2   3  372.63   22.42
  -4   2   3  375.56   22.54
   4  -2  -3  427.63   25.44
  -4   2   3  386.33   22.55
   4  -2  -3  424.63   25.34
   3   4  -3  381.89   23.76
  -3  -4   3  397.69   23.78
   3   4  -3  416.70   23.70
   3   4  -3  394.05   23.67
  -4  -3   2  528.58   29.10
   4   3  -2  489.33   29.06
  -4  -3   2  488.90   29.18
  -4  -3   2  457.57   29.01
   2   5  -3   34.27    2.73
  -2  -5   3   34.40    2.85
   2   5  -3   32.98    2.80
   2   5  -3   35.17    2.50
  -2  -5   3   35.07    2.52
   2   5  -3   36.04    2.56
   2   3   8   68.23    4.59
   2   3   8   71.84    4.67
   2   3   8   65.51    4.78
  -1   5  -4   -0.89    1.24
   1  -5   4    0.76    1.42
  -1   5  -4   -0.85    1.33
  -1   5  -4   -0.18    1.41
   0   3   8   75.18    5.17
   0   3   8   73.93    5.03
   0  -3  -8   79.80    5.06
   0   3   8   77.46    4.74
   0  -3  -8   74.62    4.95
   5   1   2   40.53    3.05
   5   1   2   51.10    3.30
  -5  -1  -2   45.65    3.27
  -5  -1  -2   49.75    3.44
  -1   5   6    5.64    1.30
   1  -5  -6    7.23    1.36
  -1   5   6    5.36    1.26
  -1  -5  -7  481.22   30.90
  -1  -5  -7  544.99   30.87
  -1  -5  -7  522.63   30.82
   1   5   7  476.21   28.87
   1   5   7  484.80   28.72
  -1  -6   2  613.07   36.04
  -1  -6   2  600.19   36.24
   1   6  -2  687.66   40.87
   5   1   1   10.04    1.50
   5   1   1   10.42    1.28
  -5  -1  -1   10.45    1.59
  -5  -1  -1   12.24    1.31
  -2   0  -8   49.92    3.71
  -2   0  -8   49.61    3.54
   2   0   8   52.76    3.39
  -2   0  -8   49.08    3.46
   2   0   8   50.93    3.36
   2   0   8   48.81    3.62
   4   0   6   60.26    3.99
  -4   0  -6   63.35    4.39
   4   0   6   58.48    4.12
  -4   0  -6   65.01    4.46
   2   6  -1  341.32   20.61
  -2  -6   1  331.53   20.69
   2   6  -1  368.66   20.86
   2   6  -1  323.67   20.78
  -2  -6   1  353.14   20.56
   2   6  -1  355.65   20.81
  -4  -4  -5   59.26    4.08
   4   4   5   63.09    4.50
  -4  -4  -5   58.42    3.86
  -4  -4  -5   56.38    3.95
  -4  -4  -5   62.78    3.85
   4   4   5   65.07    4.10
  -3   5   0  104.51    6.52
  -3   5   0   98.43    6.29
   3  -5   0  100.36    6.35
  -4   3   2  362.73   21.65
   4  -3  -2  383.64   22.81
   4  -3  -2  383.66   22.98
   4   2  -3  197.07   12.29
  -4  -2   3  184.76   11.42
  -4  -2   3  207.76   11.60
   4   2  -3  214.64   12.54
  -2   2  -7   -0.03    1.08
   2  -2   7    0.20    1.38
   2  -2   7    0.90    1.33
  -2   2  -7   -0.94    1.49
   3  -5  -1   14.47    1.69
  -3   5   1   17.04    1.97
  -5   0  -1   20.58    2.22
  -5   0  -1   25.06    1.78
   5   0   1   25.80    2.19
  -5   0  -1   27.77    2.04
  -5   0  -2    1.06    1.16
   5   0   2    0.27    1.26
  -5   0  -2   -0.40    1.34
   5   0   2    0.95    1.19
  -5   0  -2   -0.16    0.75
   1  -4  -7   78.97    4.60
   1  -4  -7   65.99    4.15
  -1   4   7   72.18    4.80
  -1   4   7   75.14    4.73
  -2   4  -5   10.74    1.46
  -2   4  -5    8.90    1.74
  -4  -3  -6  454.25   25.75
  -4  -3  -6  398.97   25.90
   4   3   6  417.47   26.17
   4   3   6  469.93   26.14
   4   3   6  420.96   26.18
  -2   1   7  377.75   22.52
   2  -1  -7  356.10   22.31
   2  -1  -7  396.27   22.38
   2  -1  -7  378.67   22.57
  -3   3   5  139.30    7.89
  -3   3   5  115.48    7.65
  -3   4   4  356.67   20.36
   3  -4  -4  403.56   24.23
  -3   4   4  328.17   20.26
   1   5  -4  214.08   13.21
  -1  -5   4  206.80   12.76
   1   5  -4  216.53   13.27
   1   5  -4  221.11   13.17
  -1  -5   4  221.30   13.00
  -1   6  -2   18.59    1.98
   1  -6   2   19.33    1.86
   1  -6   2   12.99    0.98
   1  -6   2   20.14    1.78
   2  -6  -1   29.13    2.39
  -2   6   1   29.89    2.40
  -2   6   1   31.18    2.75
  -5  -1  -3  142.03    8.85
   5   1   3  128.50    6.65
   5   1   3  128.33    6.52
  -5  -1  -3  145.22    9.00
   5   1   3  132.23    6.67
   3   6   2  216.34   14.05
   3   6   2  229.51   14.07
  -3  -6  -2  223.68   13.62
   3   6   2  234.34   14.01
   3   6   2  228.16   14.04
   3   6   2  248.99   14.07
   3   6   2  215.18   14.20
   3   6   2  240.72   13.96
  -4   3  -3  148.25    9.30
  -4   3  -3  153.82    9.39
   4  -3   3  142.65    8.64
   3   6   3 1028.97   61.00
   3   6   3  879.72   61.14
   3   6   3 1129.23   61.09
  -3  -6  -3 1088.31   61.71
   3   6   3 1022.32   61.00
   3   6   3 1058.30   61.05
   3   6   3 1056.77   60.97
   3   6   3 1017.28   61.01
  -3  -6  -3  996.12   61.72
   5   2   2  269.16   15.73
   5   2   2  245.30   15.54
  -5  -2  -2  291.99   15.80
   5   2   2  263.83   15.49
  -5  -2  -2  275.08   15.97
   5   2   2  265.74   15.74
  -3  -2   5  153.79    8.20
   3   2  -5   97.79    6.12
  -3  -2   5  142.22    8.37
   3   2  -5  103.36    6.14
  -3  -4  -7   16.02    1.50
   3   4   7   11.60    2.19
   3   4   7   14.67    2.01
   3   4   7   14.21    1.68
  -3  -4  -7   14.19    1.69
  -3  -4  -7   13.53    2.19
  -3   1  -7   10.36    1.58
   3  -1   7   12.37    1.60
  -3  -5  -6    0.48    1.34
  -3  -5  -6    1.06    1.07
   3   5   6   -0.17    1.72
  -3  -5  -6    0.85    1.13
  -2   4   6  244.81   15.23
  -2   4   6  267.56   15.33
   2  -6   0   73.54    4.89
  -2   6   0   71.50    4.70
   3  -5   1   97.44    6.03
  -3   5  -1  131.46    8.08
   3  -5   1  123.09    6.46
   4   4  -1  237.54   15.62
  -4  -4   1  251.13   16.25
  -4  -4   1  289.39   16.32
   4   4  -1  247.71   15.50
   4   4  -1  264.06   15.48
   4   4  -1  272.96   15.52
  -2   2   7  449.16   26.87
   2  -2  -7  422.01   24.68
   2  -2  -7  407.07   24.69
   2   0  -7  107.92    5.10
   2   0  -7  111.17    5.50
  -2   0   7  107.74    6.63
   2   0  -7  114.80    5.28
  -2   6   2   79.68    4.08
   2  -6  -2   79.35    5.21
  -2   6   2   91.05    3.83
   1  -1   8  297.40   18.38
   1  -1   8  306.27   18.40
  -1   1  -8  280.80   17.39
  -1   1  -8  313.03   17.69
   1  -1   8  311.99   18.37
   5   1   0  156.05   10.03
  -5  -1   0  202.22   12.37
  -5  -1   0  217.56   12.70
  -5  -1   0  244.37   12.86
  -5  -1   0  228.02   12.52
  -5  -1   0  178.58   12.69
   5   1   0  234.59   10.48
   5   0   0  110.05    6.89
  -5   0   0  119.59    6.60
  -5   0   0  119.20    6.87
   2   5   7  316.14   19.21
  -2  -5  -7  314.12   18.11
  -2  -5  -7  332.03   18.20
   5   2   1   84.62    5.31
   5   2   1   88.80    5.56
   5   2   1   84.23    5.52
  -5  -2  -1   86.60    5.69
  -5  -2  -1   87.24    5.58
  -1  -2   7   97.03    6.18
  -1  -2   7   98.79    6.33
   1   2  -7   93.71    5.79
   1   2  -7   85.88    5.72
   0  -5  -7  253.37   15.42
   0   5   7  273.84   16.41
   0  -5  -7  253.76   15.45
   0  -5  -7  258.25   15.58
   0   5   7  269.71   16.37
   3  -5  -2   33.54    2.58
  -3   5   2   35.74    2.74
  -3   5   2   28.98    2.08
   5   2   3  297.37   17.23
   5   2   3  285.75   17.53
   5   2   3  280.89   17.39
  -5  -2  -3  289.64   16.20
   5   2   3  287.16   17.54
  -5  -2  -3  242.40   16.28
   1   4   8  482.49   25.18
  -1  -4  -8  512.72   29.49
   1   4   8  480.58   25.30
  -1  -4  -8  475.87   29.49
   1   4   8  489.69   25.21
  -5   0  -3   14.91    1.57
  -5   0  -3   18.18    1.30
  -5   0  -3   14.88    1.76
  -5   0  -3   18.76    1.70
   5   0   3   16.90    1.63
   5   0   3   17.60    1.56
  -1  -6  -6  382.81   21.96
   1   6   6  353.35   21.22
  -1  -6  -6  345.61   22.01
   3   6   1  215.20   12.48
  -3  -6  -1  197.63   12.10
   3   6   1  201.82   12.46
   3   6   1  184.45   12.53
   3   6   1  221.40   12.32
   3   6   1  197.88   12.40
   3   6   1  195.44   12.35
  -4   0   4   53.24    2.83
   4   0  -4   57.19    3.86
  -4   0   4   56.24    2.58
  -2   5   5  307.70   18.50
   2  -5  -5  259.94   16.89
   2  -5  -5  313.67   17.12
  -1  -7  -2  284.12   16.44
   1   7   2  281.36   16.12
   1   7   2  257.56   16.18
  -1  -7  -2  259.07   16.58
   1   7   2  268.87   16.29
   1   7   2  265.40   16.45
   4   5   2   87.71    5.55
   4   5   2   84.63    5.61
  -4  -5  -2   91.38    5.63
   4   5   2   90.28    5.39
  -4  -5  -2   87.37    6.00
  -4  -5  -2   88.96    5.76
   4   5   2   78.64    5.50
   4   5   2   87.02    5.48
   4   5   2   83.79    5.70
  -1   1   8  427.32   23.58
   1  -1  -8  396.54   21.74
  -1   1   8  383.48   23.40
   1  -1  -8  359.48   21.75
  -1   1   8  382.50   23.53
   1  -1  -8  345.67   21.62
  -3   4  -4  144.94    9.09
  -3   4  -4  154.84    9.28
   4   5   3    2.62    1.32
  -4  -5  -3    1.55    1.10
   4   5   3    0.84    1.07
  -4  -5  -3    1.66    1.79
   4   5   3    2.35    1.27
  -4  -5  -3    1.34    1.30
  -4  -5  -3    1.79    1.22
   4   5   3    0.52    1.39
   4   5   3    0.77    1.74
  -4   1   4  293.65   16.82
  -4   1   4  281.56   16.85
  -4   1   4  273.22   16.60
   3   6   4  538.31   29.44
   3   6   4  509.53   29.33
   3   6   4  436.17   29.35
  -3  -6  -4  459.40   29.24
   3   6   4  581.31   29.70
   3   6   4  453.17   29.30
  -3  -6  -4  527.29   29.30
   3   6   4  489.38   29.32
   0   7   2  339.72   20.75
   0   7   2  347.17   20.47
   0  -7  -2  360.43   21.51
   0   1  -8  214.62   13.12
   0  -1   8  212.54   12.92
   0  -1   8  210.97   12.83
   3   5  -2   30.61    2.30
   3   5  -2   29.47    2.14
   3   5  -2   27.77    2.30
   3   5  -2   27.00    2.51
   3   5  -2   30.80    2.09
   3   5  -2   30.46    2.60
  -3  -5   2   33.07    2.53
   3   5  -2   28.43    2.44
  -5   1  -1   61.35    4.27
   5  -1   1   61.31    4.09
  -5   1  -1   72.86    4.51
   1  -2  -8   93.61    5.57
   1  -2  -8   84.49    5.40
  -1   2   8   84.24    5.33
   1  -2  -8   83.93    5.39
  -1   2   8   77.36    5.37
   1   7   3  152.63    9.37
   1   7   3  153.57    9.69
   1   7   3  163.61    9.57
  -1  -7  -3  159.19    9.28
  -1  -7  -3  142.28    9.01
   1   7   3  147.20    9.55
   0  -7  -1  293.50   17.64
   0   7   1  348.42   19.58
   0   7   1  319.06   19.20
  -1  -7  -1  561.70   33.41
   1   7   1  608.71   35.71
   1   7   1  553.50   35.84
   1   7   1  657.21   35.93
   3  -1  -6   47.62    3.24
   3  -1  -6   58.12    3.59
  -3   1   6   55.79    3.85
  -3   1   6   57.25    3.73
  -5   1  -2   66.94    4.66
  -5   1  -2   70.09    4.38
  -5   1  -2   67.34    4.50
   5  -1   2   73.25    4.13
   5  -1   2   56.71    3.75
   1  -6  -5  248.22   14.72
  -1   6   5  288.63   17.42
  -4   2  -5   87.79    5.49
  -4   2  -5   83.66    5.26
  -4   2  -5   96.11    5.66
  -4   2  -5   88.21    5.68
   4  -2   5   99.48    6.41
  -4   2  -5   88.82    5.74
   5   1   4    9.39    1.55
  -5  -1  -4   12.22    1.57
  -5  -1  -4    7.59    1.67
   2  -6   1  241.51   14.66
  -2   6  -1  231.86   14.06
   3   2   8   75.36    4.97
  -3  -2  -8   78.33    4.88
  -3  -2  -8   67.70    5.02
  -2  -4  -8   23.23    2.01
  -2  -4  -8   23.05    2.18
   2   4   8   20.04    2.14
   2   4   8   17.05    1.99
   4   5   1  117.38    8.83
   4   5   1  154.33    8.62
  -4  -5  -1  149.10    9.40
   4   5   1  137.30    8.78
   4   5   1  143.82    8.72
   4   5   1  152.35    8.91
   4   5   1  135.83    8.75
   3   0  -6   72.27    4.75
  -3   0   6   64.73    4.20
  -3   0   6   71.40    4.23
   3   0  -6   65.66    4.85
   3   0  -6   73.09    4.41
   0  -7  -3  396.72   23.59
   0  -6  -6    4.24    1.37
   0   6   6    4.56    1.35
   0  -6  -6    2.88    1.76
   0  -6  -6    3.88    1.44
   0   6   6    3.97    1.36
  -5  -2   0  137.58    7.49
  -5  -2   0  105.99    7.63
  -5  -2   0  115.63    7.30
  -5  -2   0  135.43    7.62
   5   2   0  125.51    7.44
   5   2   0  134.12    7.76
   5   2   0  109.99    7.66
   5  -1   0    7.79    1.29
  -5   1   0    9.32    1.50
  -5   1   0    7.10    1.22
   4   1  -4    0.73    1.19
   4   1  -4    0.39    1.29
   4   1  -4   -0.93    1.49
  -4  -1   4    0.26    0.88
  -2   6   3   18.28    1.81
  -2   6   3   18.46    2.11
  -2   6   3   12.88    1.14
   2  -6  -3   17.55    1.94
  -3  -1  -8    3.81    1.47
   3   1   8    4.30    1.27
   3   1   8    3.49    1.12
  -3  -1  -8    3.70    1.35
  -1   0   8   71.22    3.75
  -1   0   8   78.69    3.98
   1   0  -8   80.30    5.18
  -4  -5  -4  153.83    9.88
   4   5   4  188.96   10.95
   4   5   4  166.54   10.65
   4   5   4  184.66   11.02
  -4  -5  -4  174.10    9.90
   4   5   4  171.80   10.77
  -4  -5  -4  153.94    9.98
  -4  -5  -4  163.87   10.22
   0  -4  -8  132.31    8.18
   0  -4  -8  128.56    8.09
   0   4   8  123.06    7.82
  -2  -6  -6  197.79   13.15
  -2  -6  -6  221.74   13.08
   2   6   6  207.78   12.63
   2   6   6  217.76   13.18
  -2  -6  -6  223.44   13.14
   2   6   6  206.83   12.89
   2   6   6  219.88   12.91
   0  -6   3  319.38   20.68
   0   6  -3  337.58   20.98
   0  -6   3  352.45   20.38
   0   6  -3  362.73   21.05
  -5  -2  -4  117.15    7.34
   5   2   4  128.32    6.96
   5   2   4  127.26    6.73
  -5  -2  -4  113.49    7.46
  -4   1  -6   20.52    1.64
  -4   1  -6   20.46    1.97
   4  -1   6   22.90    2.21
  -4   1  -6   12.81    1.01
   4  -1   6   22.39    2.01
  -4   1  -6   17.75    1.88
  -3   5  -2  178.19   10.84
   3  -5   2  173.64    8.94
   3  -5   2  136.50    8.57
  -4   3   3  208.72   12.63
   4  -3  -3  218.96   13.35
  -2   1  -8   14.94    2.02
   2  -1   8   16.52    1.83
  -2   1  -8   13.67    1.61
   2  -1   8   14.88    1.24
   2  -1   8   14.14    1.78
   0   4  -6    4.73    1.49
   0   4  -6    5.28    1.47
   5   0  -1  138.72    8.33
   5   0  -1  131.59    8.14
  -5   0   1  136.82    8.34
  -5   0   1  139.20    8.60
  -5   0   1  140.01    8.64
   4  -4   0  152.39    9.52
  -4   4   0  160.73    9.90
   4  -4   0  157.68    9.38
   5   3   2  199.84   12.59
   5   3   2  238.69   12.87
  -5  -3  -2  221.33   12.84
  -5  -3  -2  207.10   12.99
  -5  -3  -2  217.66   12.91
  -5  -3  -2  204.86   12.69
   5   3   2  204.06   12.62
   2  -3  -7   13.32    1.48
  -2   3   7    9.23    1.83
   2  -3  -7   11.39    1.28
  -2   3   7   14.25    1.47
  -2  -1   7   34.05    2.73
   2   1  -7   35.81    2.72
  -2  -1   7   29.78    2.52
   2   1  -7   33.94    2.88
  -2  -1   7   32.22    2.29
  -1   4  -6    1.02    1.42
  -1   4  -6    3.21    1.45
  -1   4  -6    3.33    1.25
  -3   2   6   20.07    1.85
  -3   2   6   16.42    1.63
   3  -2  -6   19.79    1.87
  -5  -1   1  220.61   12.02
  -5  -1   1  206.42   11.90
  -5  -1   1  184.15   11.59
   5   1  -1  220.57   13.40
  -2   5  -4   82.53    5.39
   2  -5   4   71.52    4.88
   3   6   0    2.65    1.16
   3   6   0    3.11    1.40
   3   6   0    2.21    0.93
   3   6   0    2.43    1.01
   3   6   0    1.73    1.36
   3   6   0    3.09    1.16
   3   6   0    1.29    1.70
  -3   5   3   95.63    5.87
   3  -5  -3  100.05    6.37
  -4  -4  -6  125.88    8.43
   4   4   6  134.52    8.50
  -4  -4  -6  138.93    8.38
  -4  -4  -6  140.97    8.24
   4   4   6  142.58    8.33
   4   4   6  127.80    8.64
   4   4   6  132.25    8.61
  -4  -4  -6  130.57    8.27
   0  -7   0  213.69   12.51
   0   7   0  233.06   14.22
   0  -7   0  195.19   12.54
   5   0   4   47.48    3.42
  -5   0  -4   50.20    3.72
  -5   0  -4   60.21    3.88
   1  -3   7    5.62    1.36
  -1   3  -7    6.30    1.07
  -1   3  -7    3.38    1.46
   1  -3   7    5.53    1.64
   1  -3   7    6.00    1.48
   1   7   4   98.07    6.81
  -1  -7  -4  111.27    7.10
   1   7   4  113.83    7.07
   1   7   4  107.99    6.85
   1   7   4  109.34    6.86
   1   7   4  108.60    6.59
  -4   4  -1  171.35   10.54
   4  -4   1  153.20    9.63
   4  -4   1  160.60    9.49
   5   3   3  144.02    8.75
   5   3   3  147.04    9.19
  -5  -3  -3  148.74    9.56
   5   3   3  135.81    9.00
  -5  -3  -3  154.21    9.27
   5   3   3  160.53    8.91
   4   2   7  425.48   24.17
   4   2   7  398.87   24.22
  -4  -2  -7  380.99   21.15
  -4  -2  -7  367.41   21.07
  -4  -2  -7  337.85   20.63
   4   2   7  383.91   24.25
  -5   1  -3  251.30   15.15
   5  -1   3  145.34    9.42
  -5   1  -3  243.12   15.03
  -5   1  -3  265.57   15.30
   5  -1   3  264.79   10.00
  -5   1  -3  261.75   15.24
  -4   2   4  199.64   12.10
  -4   2   4  194.84   11.94
  -4   2   4  205.84   12.13
   0  -3   7  290.02   16.94
   0   3  -7  253.95   14.00
   0  -3   7  270.58   16.81
   0   3  -7  222.10   13.65
   2   6  -2   96.29    5.26
   2   6  -2   88.14    5.56
  -2  -6   2   73.87    5.20
   2   6  -2   76.52    5.23
  -2  -6   2   80.14    4.98
   2   6  -2   75.80    5.31
   2   6  -2   81.72    5.51
  -2  -4   5    1.65    1.14
   2   4  -5    1.14    0.72
   2   4  -5    0.33    1.45
   2   4  -5    3.49    1.14
  -3  -3  -8  164.56   10.80
  -3  -3  -8  179.38   10.64
  -3  -3  -8  186.06   11.09
   3   3   8  189.68   11.70
   1   7   0  189.81   11.11
  -1  -7   0  150.82    9.33
   1   7   0  176.04   11.31
   4   1   7   78.43    5.15
  -4  -1  -7   87.27    4.48
   4   1   7   80.26    5.05
   4   1   7   82.02    5.14
  -4  -1  -7   79.38    4.40
  -4  -1  -7   77.20    4.01
   4   1   7   72.67    5.24
   4  -4  -1   15.18    1.62
  -4   4   1   16.22    1.88
   4  -4  -1   15.15    1.32
  -4   4   1   12.62    1.43
  -1   3   8   53.31    4.02
   1  -3  -8   50.28    3.80
   1  -3  -8   58.47    3.56
  -1   3   8   58.25    4.08
  -4   3  -4   94.62    6.68
  -4   3  -4  101.71    6.63
   4  -3   4  115.20    7.01
  -4   3  -4  109.71    6.37
  -5  -3  -1  105.79    6.27
   5   3   1   85.78    5.67
  -5  -3  -1  103.46    6.35
   5   3   1  101.39    5.98
   5   3   1   95.26    5.78
  -5  -3  -1   95.70    6.08
  -5  -3  -1   97.33    6.43
  -3  -6  -5  213.83   12.24
   3   6   5  199.31   12.32
  -3  -6  -5  199.68   12.20
   3   6   5  197.68   12.26
  -3  -6  -5  185.49   12.26
   3   6   5  208.63   12.27
  -4  -3   3 1088.18   62.23
  -4  -3   3 1088.96   62.37
   4   3  -3 1009.04   63.37
   4   3  -3 1016.32   63.51
  -4  -3   3 1001.96   62.18
   4   3  -3 1143.93   63.27
   2   7   2   22.02    1.92
   2   7   2   21.57    2.17
   2   7   2   22.26    2.36
   2   7   2   18.85    2.02
   2   7   2   20.86    2.10
  -2  -7  -2   20.24    2.04
   2   7   2   24.19    2.04
   1   6  -3  149.21    9.37
  -1  -6   3  178.47   10.03
  -1  -6   3  143.68   10.22
   1   6  -3  153.21    9.31
   1   6  -3  147.83    9.35
   2   7   3   -0.95    1.35
  -2  -7  -3   -0.09    1.31
   2   7   3   -1.07    1.32
   2   7   3   -0.72    1.70
   2   7   3    0.17    1.21
   2   7   3   -0.68    1.18
   2   7   3    0.17    1.40
   2   7   3   -0.55    1.85
   1  -6   3    2.94    1.33
   1  -6   3    1.27    0.61
   1  -6   3    2.18    1.54
  -1   6  -3    3.67    1.51
   0  -7  -4   90.63    5.57
  -5   1   1   44.82    3.01
  -5   1   1   46.11    3.29
   5  -1  -1   42.13    2.97
  -5   1   1   45.07    3.28
   5  -1  -1   43.66    3.04
  -5   1   1   43.66    2.98
   3   1  -6   95.34    6.00
   3   1  -6  115.52    6.41
   3   1  -6   97.85    6.41
  -3  -1   6  106.15    5.73
  -3  -1   6   86.30    5.67
  -2  -3   6    1.67    0.64
   2   3  -6    2.78    1.14
   2   3  -6    1.43    1.41
  -2  -3   6    2.36    1.05
  -2  -3   6    1.80    1.21
  -2  -3   6    0.30    1.61
   4   5   0  171.08    9.26
  -4  -5   0  156.74    9.81
   4   5   0  139.77    9.25
   4   5   0  155.60    8.91
   4   5   0  155.80    9.09
   4   5   0  146.92    9.10
   4   5   0  147.98    9.03
   4   5   0  138.92    8.78
   4   5   0  135.84    9.07
   0   5  -5    6.03    1.51
   0  -5   5    4.25    1.01
   0   5  -5    5.74    1.59
   0   5  -5    6.07    1.46
   1   2   9  108.32    7.21
  -1  -2  -9  109.98    6.81
  -1  -2  -9  103.44    6.92
   1   2   9  112.15    6.99
   1   2   9  116.60    7.08
   3   0   8   -0.04    1.24
   3   0   8    1.66    1.08
  -3   0  -8    0.64    1.43
  -3   0  -8    2.31    1.32
   3   0   8    0.54    0.89
  -4  -4   2  323.25   18.22
  -4  -4   2  320.62   18.15
   4   4  -2  266.39   16.70
   4   4  -2  313.94   17.03
  -4  -4   2  274.81   18.00
   4   4  -2  305.81   16.93
   1   1   9  265.44   16.38
   1   1   9  269.64   16.29
  -1  -1  -9  256.25   15.68
   1   1   9  274.01   16.19
  -1  -1  -9  258.90   15.79
  -3   4   5  169.25   10.75
  -3   4   5  187.74   10.83
   3  -4  -5  216.41   13.34
  -3   3  -6    8.98    1.32
  -3   3  -6    8.90    1.52
  -3   3  -6   10.83    1.45
  -3   3  -6    8.43    1.14
  -5  -3  -4  352.22   20.94
   5   3   4  366.35   19.73
   5   3   4  294.47   19.90
   5   3   4  320.97   19.71
   5   3   4  324.53   20.04
  -5  -3  -4  347.29   21.18
   1  -7  -1   70.68    4.81
   1  -7  -1   76.35    4.97
  -1   7   1   68.25    5.13
  -1   7   1   80.59    5.04
   1  -7  -2  165.63   10.56
   1  -7  -2  186.30   10.78
  -1   7   2  176.11   10.84
   4   5   5    1.10    1.05
   4   5   5    1.78    1.82
  -4  -5  -5    1.22    1.38
  -4  -5  -5   -0.20    1.84
  -4  -5  -5    0.49    1.13
  -4  -5  -5    0.38    1.04
  -4   4  -2  264.28   16.06
   4  -4   2  289.32   17.25
   4  -4   2  286.82   17.15
  -2   6  -2  299.81   18.07
   2  -6   2  304.07   18.19
   2  -6   2  298.97   18.25
   4   3   7  510.20   30.80
   4   3   7  524.56   30.91
  -4  -3  -7  468.94   28.06
   4   3   7  516.17   30.88
  -4  -3  -7  490.62   28.51
  -2  -7  -1   36.18    2.83
  -2  -7  -1   35.04    2.74
   2   7   1   42.62    2.80
   2   7   1   41.02    3.10
   2   7   1   35.39    2.85
   2   7   1   38.47    2.97
   3   4  -4  377.13   22.80
  -3  -4   4  357.92   21.34
   3   4  -4  361.56   22.98
   3   4  -4  406.87   22.84
  -3  -4   4  360.28   21.52
  -2  -5   4   36.92    3.07
   2   5  -4   37.37    2.79
   2   5  -4   37.73    2.80
  -2  -5   4   38.30    2.75
   2   5  -4   38.00    2.72
   5   2  -1  208.21   13.13
   5   2  -1  246.35   13.41
  -5  -2   1  230.55   10.21
  -5  -2   1  229.87   10.29
  -5  -2   1  239.84   10.04
   1  -5   5  174.10   10.82
  -1   5  -5  191.49   11.24
  -1   5  -5  170.17   11.17
  -1   5  -5  183.64   11.15
  -5   2  -1   71.87    4.82
   5  -2   1   59.15    4.05
   5  -2   1   72.24    4.24
  -5   2  -1   70.87    4.70
  -2   6   4   52.46    3.37
  -2   6   4   42.96    2.92
   2  -6  -4   54.50    3.86
   2  -6  -4   54.94    4.19
   5   1   5    7.45    1.21
   5   1   5    6.59    1.55
  -5  -1  -5    5.50    1.53
  -5  -1  -5    8.40    1.50
  -3  -5  -7    0.30    1.07
  -3  -5  -7    1.20    1.46
   3   5   7    1.39    1.93
   3   5   7    0.12    1.70
  -3  -5  -7   -0.66    1.24
  -3   2  -7   26.32    2.26
   3  -2   7   29.30    2.48
  -3   2  -7   26.63    2.06
  -4  -2   4   57.05    3.71
   4   2  -4   60.05    4.31
   4   2  -4   61.13    4.10
   3   3  -5   96.05    5.23
  -3  -3   5   88.27    5.67
  -3  -3   5   95.60    5.91
  -3  -3   5   91.35    5.62
   3   3  -5   89.73    5.63
  -1   5   7    2.27    1.30
  -1   5   7    2.44    1.20
   1  -5  -7    2.84    1.33
   2   7   4    0.51    1.94
   2   7   4    1.17    1.34
   2   7   4    0.12    1.15
   2   7   4   -0.98    1.27
   2   7   4    0.64    1.67
  -2  -7  -4    0.33    1.36
   4   0   7   21.75    2.29
   4   0   7   25.65    2.12
  -4   0  -7   23.97    2.08
  -4   0  -7   24.57    2.22
  -4   4   2   48.30    3.27
   4  -4  -2   49.85    3.45
   1   1  -8   59.44    4.27
  -1  -1   8   67.75    4.42
   1   1  -8   64.38    4.20
  -1  -1   8   60.94    4.17
   5   2   5  371.83   21.59
   5   2   5  347.93   21.73
  -5  -2  -5  257.64   15.75
  -5  -2  -5  313.34   16.27
   1  -2   8   91.81    5.99
   1  -2   8   91.67    5.97
  -1   2  -8   83.50    5.65
   1  -2   8   95.77    6.09
  -1   2  -8   85.98    5.35
   1   4  -6  161.13   10.26
  -1  -4   6  175.55   10.66
  -1  -4   6  173.42   10.66
   1   4  -6  170.16   10.18
  -5  -3   0  125.28    7.15
   5   3   0  131.91    7.25
  -5  -3   0  122.04    7.35
  -5  -3   0  102.34    7.19
   5   3   0  109.36    6.92
  -5  -3   0  113.91    6.93
   5  -2   0   29.62    2.23
  -5   2   0   30.08    2.36
   0  -7   1  392.58   23.05
   0   7  -1  362.79   21.84
   0  -7   1  374.64   23.06
   2   2   9   87.59    5.41
  -2  -2  -9   76.00    5.32
  -2  -2  -9   85.33    5.51
   2   2   9   80.02    5.28
   2   2   9   83.64    5.60
  -5   2  -2   37.74    2.60
  -5   2  -2   34.17    2.70
   5  -2   2   41.15    2.73
   5  -2   2   34.03    2.43
  -5   2  -2   30.81    2.79
  -5   2  -2   35.89    2.51
   1   3   9    0.15    1.62
  -1  -3  -9   -0.39    1.31
   1   3   9   -0.47    1.04
   1   3   9   -0.16    1.74
  -1  -3  -9   -0.18    1.36
   1   3   9    0.42    1.37
   1   5   8  856.76   52.63
  -1  -5  -8  917.32   53.70
   1   5   8  913.32   52.65
  -1  -5  -8  886.37   53.73
   1   5   8  886.43   52.50
  -1  -5  -8  910.97   53.68
  -1   7   0   17.71    2.03
   1  -7   0   17.93    1.91
   1  -7   0   13.76    1.83
  -1   7   3   38.87    3.08
   1  -7  -3   43.25    3.12
  -1   7   3   42.32    3.07
   1  -7  -3   37.07    2.75
  -3   5  -3  235.25   15.10
  -3   5  -3  255.57   14.93
   3  -5   3  268.96   16.21
   1   7   5    0.12    1.29
   1   7   5    1.02    1.85
  -1  -7  -5   -0.05    1.33
   1   7   5    0.14    1.34
  -5   1  -4  204.97   12.47
  -5   1  -4  190.85   12.49
   5  -1   4  194.80   11.94
  -5   1  -4  228.56   12.65
  -2   3  -7   21.95    1.91
  -2   3  -7   20.01    1.86
  -2   3  -7   24.47    2.32
   2  -3   7   21.46    2.26
   2  -3   7   21.40    2.15
  -3   3   6   70.56    4.61
  -3   3   6   74.26    4.56
  -3   3   6   73.24    4.81
  -3   3   6   67.49    4.40
   0   2   9    9.81    1.46
   0   2   9   12.62    1.51
   0  -2  -9   15.04    1.66
   0  -2  -9    9.45    2.04
   0  -2  -9   13.11    1.50
   0   2   9   11.50    1.76
  -5   0   2  115.17    7.35
  -5   0   2  119.44    7.65
   5   0  -2  145.91    9.00
   2   1   9  203.32   11.96
   2   1   9  191.38   11.97
  -2  -1  -9  199.60   12.23
  -2  -1  -9  187.40   12.02
  -2  -1  -9  201.68   12.07
   2   1   9  196.59   12.13
   1   6   7  476.03   29.83
  -1  -6  -7  532.73   31.00
   1   6   7  512.96   29.69
  -1  -6  -7  503.45   31.07
   0  -1  -9   80.83    5.68
   0   1   9   93.62    6.03
   0   1   9   91.94    6.10
   0   1   9   96.84    5.86
   0  -1  -9   88.59    5.52
   0  -2   8  278.63   16.75
   0   2  -8  182.56   11.78
   0  -2   8  285.30   16.88
   0   2  -8  263.36   12.27
   0  -2   8  271.57   16.78
   3   6  -1    5.66    1.06
   3   6  -1    3.78    1.13
   3   6  -1    3.94    1.30
   3   6  -1    3.32    1.11
   3   6  -1    3.97    1.64
   3   6  -1    3.07    1.01
   3   6  -1    4.51    1.55
  -3  -6   1    4.64    1.30
   3   6  -1    5.05    1.51
  -2   4  -6   80.11    4.50
  -2   4  -6   74.94    4.71
  -3   4  -5   50.17    3.41
  -3   4  -5   47.42    3.55
   1   7  -1  284.39   17.09
   1   7  -1  281.61   16.82
  -1  -7   1  248.85   15.12
  -2   5   6  133.93    8.45
  -2   5   6  137.65    8.38
   2  -5  -6  147.44    9.38
   1   0   9  252.97   15.31
   1   0   9  266.67   15.54
  -1   0  -9  258.35   15.80
  -1   0  -9  259.76   15.93
  -1   0  -9  270.26   16.04
   1   0   9  253.71   15.54
  -3  -4  -8   23.52    2.75
  -3  -4  -8   27.05    2.31
   3   4   8   22.33    2.21
   3   4   8   26.56    2.49
  -3  -4  -8   27.78    2.13
  -3  -4  -8   24.34    2.36
   3  -5  -4   81.40    5.37
  -3   5   4   76.42    4.69
   3  -5  -4   74.52    5.07
  -3   5   4   67.24    4.45
  -5   0  -5   93.99    5.64
   5   0   5   79.20    5.25
  -5   0  -5   78.38    5.68
  -5  -1   2  220.50   12.23
  -5  -1   2  204.03   12.07
   5   1  -2  217.47   13.21
  -5  -1   2  188.15   11.83
   1   5  -5  212.19   13.08
  -1  -5   5  199.48   12.09
   1   5  -5  217.52   13.04
   1   5  -5  212.34   13.11
   1   3  -7   78.02    5.14
   1   3  -7   76.98    5.05
  -1  -3   7   77.71    5.33
  -1  -3   7   84.83    5.32
  -1  -3   7   85.94    5.54
  -3  -5   3   26.61    2.24
   3   5  -3   24.76    2.32
   3   5  -3   27.43    2.18
   3   5  -3   23.97    2.12
  -1   6   6  227.69   13.83
  -1   6   6  228.33   13.87
   2   7   0  253.56   15.93
  -2  -7   0  255.47   15.20
   2   7   0  252.19   15.98
  -2  -7   0  243.44   15.11
   2   7   0  270.91   15.76
   2   7   0  266.86   15.83
  -2  -3  -9   39.49    3.01
   2   3   9   47.88    3.81
   2   3   9   51.19    3.64
  -2  -5  -8  186.37   12.49
   2   5   8  188.06   12.14
  -2  -5  -8  218.99   12.44
   2   5   8  207.94   12.28
  -2  -5  -8  204.06   12.51
  -4   3   4  241.65   14.63
  -4   3   4  241.74   14.75
  -4   3   4  243.60   14.57
   4  -3  -4  265.12   16.11
   5  -1  -2   96.50    6.34
  -5   1   2   89.96    5.85
   5  -1  -2  105.73    6.37
  -5   1   2   92.70    5.64
  -5   1   2  102.74    5.92
  -5   1   2   83.25    5.58
   2  -4  -7   58.88    3.68
   2  -4  -7   55.22    3.89
  -2   4   7   57.79    4.27
  -2   4   7   60.61    3.97
  -2   4   7   57.37    3.81
   2   2  -7    1.30    1.43
   2   2  -7    0.59    1.23
  -2  -2   7    0.92    1.04
  -2  -2   7    1.40    1.64
  -2  -2   7    0.77    1.05
  -2  -2   7    0.53    1.14
   0  -7  -5  266.48   12.20
   0   7   5  254.24   15.43
   0  -7  -5  182.69   11.62
  -5   2   1   76.04    5.16
   5  -2  -1   93.05    5.86
  -5   2   1   87.42    5.31
  -3  -6  -6   47.23    3.37
  -3  -6  -6   46.66    3.33
   3   6   6   47.95    3.33
  -3  -6  -6   44.93    3.47
   3   6   6   49.06    3.48
   1  -4  -8   69.70    4.29
  -1   4   8   63.29    4.25
   1  -4  -8   59.83    3.80
   5   3   5  401.24   25.28
   5   3   5  445.33   25.49
   5   3   5  372.35   25.45
   5   3   5  454.24   25.19
  -4   0   5   18.80    1.80
   4   0  -5   19.51    2.13
  -4   0   5   16.49    1.38
  -4   0   5   10.90    0.89
  -5  -4  -2   67.90    4.33
   5   4   2   51.47    3.96
   5   4   2   52.03    3.52
   5   4   2   56.40    3.78
  -5  -4  -2   67.06    4.50
   5   4   2   65.56    3.79
  -5  -4  -2   69.83    4.76
   5   4   3  146.68    8.68
  -5  -4  -3  153.80    9.68
   5   4   3  160.13    8.57
   5   4   3  149.88    8.71
  -5  -4  -3  165.65    9.96
   5   4   3  127.32    8.30
  -5  -4  -3  155.44    9.56
   5   4   3  149.56    8.86
  -4   1   5  141.29    8.66
  -4   1   5  155.00    9.03
  -4   2  -6   84.75    5.36
  -4   2  -6   89.07    5.55
  -4   2  -6   92.95    5.68
   4  -2   6   92.79    6.09
  -4   2  -6   90.24    5.59
  -4   2  -6   78.51    5.15
   4  -4   3  143.96    9.02
   4  -4   3  154.04    9.07
  -4   4  -3  158.59    9.77
  -4   4  -3  154.67    9.43
  -2  -6  -7  145.39   10.22
  -2  -6  -7  174.33   10.20
   2   6   7  164.25    9.84
  -2  -6  -7  172.32   10.28
  -2  -6  -7  167.73   10.25
   2   6   7  164.46   10.46
  -5   2  -3   92.77    6.45
   5  -2   3   79.34    5.10
   5  -2   3   94.67    5.40
  -5   2  -3  107.80    6.39
   4   5  -1  255.71   15.09
   4   5  -1  268.53   15.04
  -4  -5   1  229.94   14.02
   4   5  -1  248.77   14.84
   4   5  -1  243.85   15.09
   4   5  -1  206.50   15.16
   4   5  -1  260.96   15.11
   0  -3  -9   45.51    3.31
   0   3   9   50.39    3.74
   0   3   9   46.51    3.48
   0   3   9   48.43    3.23
   0  -3  -9   48.25    3.44
   0   5   8  233.94   14.23
   0  -5  -8  249.14   15.17
  -2  -7  -5    3.14    1.45
   2   7   5    3.55    1.81
   2   7   5    3.39    1.34
   2   7   5    4.19    1.41
  -2  -7  -5    2.68    1.36
   2   7   5    2.57    1.09
  -2   2  -8   -1.56    1.66
   2  -2   8    1.22    1.48
   2  -2   8    0.66    1.50
  -2   2  -8    1.31    1.22
   0  -6  -7  150.26    8.93
   0  -6  -7  131.17    9.05
   0   6   7  158.99    9.61
   0  -6  -7  142.41    8.91
   0   6   7  150.02    9.54
   0   0  -9   83.98    5.69
   0   0   9   82.77    5.60
   0   0   9   89.24    5.67
   0   0   9   87.73    5.29
  -3  -2   6   73.08    4.87
   3   2  -6   77.02    3.57
   3   2  -6   76.44    3.50
  -3   1  -8   27.91    2.46
   3  -1   8   27.43    2.34
  -4  -4  -7  341.44   22.19
   4   4   7  390.67   23.81
   4   4   7  434.82   23.57
   4   4   7  360.39   23.75
  -4  -4  -7  370.85   22.03
   4   4   7  375.99   23.66
  -4  -4  -7  351.63   22.45
  -4  -4  -7  404.90   22.15
   1  -7   1    8.24    1.65
   1  -7   1    7.28    1.59
  -1   7  -1    9.61    1.67
  -1   7   4  189.56   11.68
   1  -7  -4  171.69   10.34
   0  -6   4   14.82    1.34
   0   6  -4   14.44    1.75
   0   6  -4   12.90    1.84
   0  -6   4   15.31    2.10
   2   0   9   68.90    4.68
  -2   0  -9   69.17    4.80
   2   0   9   70.10    4.75
  -2   0  -9   72.64    4.89
   2   0   9   70.85    4.48
  -2   0  -9   75.28    5.07
  -4   3  -5  145.34    8.39
  -4   3  -5  138.15    8.77
  -4   3  -5  137.47    8.47
  -4   3  -5  146.64    8.70
  -4   3  -5  119.58    8.62
  -4  -5  -6   36.74    2.69
  -4  -5  -6   37.80    2.78
  -4  -5  -6   34.67    2.93
   4   5   6   38.51    2.72
   4   5   6   38.97    3.38
  -4  -5  -6   37.42    2.78
  -4   4   3   71.27    4.59
   4  -4  -3   73.66    4.87
   4  -4  -3   67.18    4.57
  -5  -4  -1   67.44    4.13
   5   4   1   58.18    4.00
   5   4   1   63.59    3.92
   5   4   1   55.53    4.16
   5   4   1   59.80    4.14
  -5  -4  -1   63.71    3.92
  -2   1   8  289.06   17.34
   2  -1  -8  295.37   17.32
   2  -1  -8  296.24   17.09
   2  -1  -8  268.22   17.01
  -5  -4  -4  326.19   18.65
   5   4   4  306.39   18.32
   5   4   4  278.27   17.89
  -5  -4  -4  340.01   18.87
   5   4   4  331.48   18.02
  -5  -4  -4  282.28   18.49
   5   4   4  319.98   18.24
  -2  -6   3   69.84    5.00
  -2  -6   3   74.12    4.72
   2   6  -3   79.70    4.56
   2   6  -3   71.20    4.97
   2   6  -3   69.04    4.85
   2   6  -3   65.13    4.74
  -5  -3   1   25.03    2.17
   5   3  -1   22.40    1.44
   5   3  -1   22.46    1.94
  -5  -3   1   23.02    2.28
  -5  -3   1   26.69    1.99
  -2   6  -3  363.33   21.83
   2  -6   3  329.57   17.32
   2  -6   3  352.17   17.24
   4   6   3  170.18    8.61
   4   6   3  154.84    8.43
   4   6   3  107.20    8.49
   4   6   3  148.81    8.77
   4   6   3  133.94    8.52
   4   6   3  132.80    8.44
  -4  -6  -3  132.95    8.79
  -4  -6  -3  148.77    8.75
   4   6   3  116.38    8.39
   4  -1   7    8.38    1.73
  -4   1  -7    7.83    0.94
   4  -1   7    9.36    1.50
  -4   1  -7    9.53    1.90
  -4   1  -7    9.23    1.71
   1   4   9  114.62    7.04
   1   4   9  112.26    6.88
   1   4   9  115.47    6.86
  -1  -4  -9  109.07    7.02
  -1  -4  -9  110.57    7.00
   1   4   9   97.95    6.35
   5   2  -2   15.16    1.53
   5   2  -2   12.95    1.75
  -5  -2   2   15.74    1.70
  -5  -2   2   13.12    1.31
  -5  -2   2   13.65    1.57
  -3   6   1  106.08    6.90
   3  -6  -1  111.33    7.09
   4   1  -5   19.24    2.14
  -4  -1   5   19.48    1.56
   4   1  -5   23.57    2.31
   2  -5   5   69.98    4.89
  -2   5  -5   71.03    5.03
  -2   5  -5   74.81    4.92
   2  -2  -8  293.15   18.50
  -2   2   8  303.98   18.47
  -2   2   8  309.84   18.58
   2  -2  -8  323.09   18.48
   4   6   2  123.81    8.29
   4   6   2  157.58    8.37
   4   6   2  127.25    8.33
   4   6   2  136.33    8.19
   4   6   2  127.30    8.40
   4   6   2  126.33    8.27
   4   6   2  128.70    8.32
   4   6   2  137.34    8.50
  -3   6   0  172.44   10.55
  -3   6   0  172.59   10.78
   3  -6   0  181.37   11.18
  -4   2   5  175.64   10.97
  -4   2   5  182.89   11.20
  -4   2   5  195.92   11.21
   2  -6  -5   99.42    6.67
   2  -6  -5  111.93    6.98
  -2   6   5   97.80    6.31
   0  -7   2  136.79    7.92
   0   7  -2  144.54    9.12
   0  -7   2  130.66    7.89
   0  -7   2  117.80    7.46
   5   2   6  108.11    7.56
   5   2   6  109.15    7.55
  -5  -2  -6  126.37    8.13
   5   2   6  130.45    7.50
   5   2   6  124.20    7.37
  -1   6  -4   17.87    2.07
   1  -6   4   21.81    2.32
   1  -6   4   18.26    1.45
  -1   6  -4   21.16    2.27
  -1   6  -4   21.53    2.21
  -5  -1  -6    1.34    1.60
   5   1   6   -0.80    1.55
   5   1   6    0.40    1.37
   5   1   6   -1.15    1.08
  -5  -1  -6    0.05    1.60
  -5  -1  -6   -0.02    0.88
   3   7   3  439.84   28.41
   3   7   3  517.96   28.68
   3   7   3  477.47   28.41
  -3  -7  -3  477.52   28.58
   3   7   3  464.87   28.31
   3   7   3  459.68   28.35
   3   7   3  491.94   28.38
   3   7   3  487.75   28.34
  -2   0   8  107.92    4.16
   2   0  -8  107.78    5.84
  -2   0   8   53.90    3.69
   2   0  -8  107.60    5.68
   2   0  -8  107.16    6.07
  -5   1  -5  305.56   18.21
  -5   1  -5  288.48   18.16
  -5   1  -5  305.21   18.05
   5  -1   5  296.77   17.95
   3   7   2   86.61    5.52
   3   7   2   97.94    5.85
   3   7   2   81.22    5.38
   3   7   2   81.27    5.43
  -3  -7  -2   80.59    5.33
   3   7   2   79.59    5.49
   3   7   2   79.61    5.60
   3   7   2   85.70    5.52
  -3   1   7  113.69    6.70
   3  -1  -7  105.25    6.45
   3  -1  -7  104.14    6.65
  -3   1   7   99.58    6.49
   4   6   4  738.33   43.31
   4   6   4  754.76   43.58
   4   6   4  762.43   43.33
   4   6   4  714.08   43.30
  -4  -6  -4  639.37   41.21
   4   6   4  729.63   43.40
  -4  -6  -4  712.68   41.16
  -4  -6  -4  722.79   41.19
   4   6   4  684.37   43.38
  -1  -7  -6   -1.87    1.95
  -1  -7  -6    0.10    1.35
   1   7   6    0.52    1.38
  -4  -4   3  788.03   47.50
  -4  -4   3  823.70   47.57
   4   4  -3  917.94   39.31
  -4  -4   3  797.68   47.66
   4   4  -3  831.26   39.46
   4   4  -3  830.23   39.30
   3  -6  -2    1.31    1.45
  -3   6   2    1.03    1.71
  -3   6   2    0.76    0.69
   2   4   9   27.73    2.81
   2   4   9   24.98    2.51
  -2  -4  -9   23.02    2.42
   2   4   9   28.32    2.58
  -2  -4  -9   29.24    2.25
   4   3  -4  430.57   25.36
  -4  -3   4  409.44   26.07
  -4  -3   4  457.16   26.00
  -4  -3   4  441.54   26.10
  -4  -3   4  440.48   26.29
   4   3  -4  414.73   25.19
  -4  -2  -8   26.14    1.94
  -4  -2  -8   30.96    2.86
   4   2   8   25.29    2.67
   4   2   8   28.73    2.53
  -4  -2  -8   33.12    2.76
   4   2   8   29.74    2.37
   5  -2  -2  127.36    8.20
  -5   2   2  122.23    8.27
  -5   2   2  137.99    8.46
  -5   2   2  150.02    8.37
   5  -2  -2  135.80    8.14
  -1  -6   4  189.05   13.28
   1   6  -4  214.51   12.52
   1   6  -4  200.30   12.44
  -1  -6   4  233.35   13.07
   1   6  -4  202.30   12.08
   1   6  -4  198.26   12.50
  -1  -2   8  111.15    6.96
   1   2  -8  112.11    6.88
  -1  -2   8  111.71    7.04
   1   2  -8  103.51    6.87
  -1  -2   8  111.09    7.18
   1  -1   9  215.33   13.21
  -1   1  -9  203.00   12.56
   1  -1   9  216.58   13.25
   1  -1   9  217.86   13.25
  -1   1  -9  217.17   12.87
  -3  -2  -9   56.43    3.97
   3   2   9   55.87    3.89
  -3  -2  -9   54.71    4.14
  -2  -7   1  245.16   14.86
   2   7  -1  273.40   15.63
  -2  -7   1  248.70   15.04
   2   7  -1  256.60   15.35
   2   7  -1  243.58   15.42
   3  -5   4  108.72    6.83
  -3   5  -4  111.68    6.88
  -3   5  -4  105.81    7.00
   4   6   1  249.14   16.39
   4   6   1  275.99   16.46
   4   6   1  267.64   16.38
   4   6   1  303.39   16.60
   4   6   1  272.01   16.55
   4   6   1  264.23   16.40
   4   6   1  276.40   16.28
  -4  -1  -8   11.26    1.97
  -4  -1  -8    9.17    2.00
   4   1   8   11.96    1.68
   4   1   8   14.56    1.51
   4   1   8   12.96    1.69
   4   1   8   10.52    1.91
  -4  -1  -8   11.71    1.54
  -1  -7   2  390.58   22.64
  -1  -7   2  361.37   22.85
   1   7  -2  437.03   26.37
   1   7  -2  440.02   26.30
   3  -6   1  226.50   13.81
  -3   6  -1  247.29   14.94
  -5   3  -1  165.95   10.38
  -5   3  -1  169.96   10.29
   5  -3   1  170.84   10.19
   5  -3   1  164.64   10.16
  -3   0   7   70.04    4.78
   3   0  -7   82.19    5.20
   3   0  -7   87.99    5.51
  -3   0   7   92.88    4.90
   3   0  -7   84.53    5.64
  -5   2  -4   99.01    6.40
  -5   2  -4   99.86    6.38
  -5   2  -4  105.07    6.54
  -5   0   3   94.43    5.63
  -5   0   3  140.45    6.18
  -5   0   3  147.22    6.37
   5   0  -3  140.39    8.70
  -5   0   3   83.05    5.61
   3   7   4  193.89   11.25
  -3  -7  -4  172.03   11.07
   3   7   4  179.61   11.39
   3   7   4  196.55   11.64
  -3  -7  -4  190.52   11.16
   3   7   4  187.55   11.34
   3   7   4  177.53   11.26
   3   7   4  171.07   11.22
   5   4   0    2.21    0.88
   5   4   0    2.86    1.44
   5   4   0    1.24    1.26
  -5  -4   0    1.31    1.26
  -5  -4   0    0.23    1.11
   5   4   0    0.58    1.17
   5  -3   0   16.01    1.65
  -5   3   0   23.78    2.18
   5  -3   0   20.59    1.66
   3  -4  -6  241.16   14.81
  -3   4   6  208.76   12.92
  -3   4   6  238.61   13.21
  -3   4   6  204.49   12.88
   3   6  -2   29.34    2.05
   3   6  -2   24.31    2.40
   3   6  -2   25.04    2.12
   3   6  -2   24.92    2.19
  -3  -6   2   25.75    2.22
   3   6  -2   27.45    2.48
   3   6  -2   22.18    2.03
   3   6  -2   21.96    2.47
   3   6  -2   27.94    2.00
   3   1   9   14.31    1.62
   3   1   9   16.01    1.71
  -3  -1  -9   12.69    1.77
  -3  -1  -9   12.02    1.95
   1  -1  -9  119.72    7.86
   1  -1  -9  122.05    8.01
  -1   1   9  158.94    8.67
  -1   1   9  145.72    8.59
   3  -2  -7    0.57    1.26
  -3   2   7    0.84    1.21
   3  -2  -7    0.77    0.98
  -3   2   7   -0.28    1.48
  -2   7   1   24.11    2.65
  -2   7   1   25.92    2.29
   2  -7  -1   22.53    2.37
   2  -7  -1   25.85    2.24
   1  -2  -9   80.35    5.38
  -1   2   9   84.67    5.42
   1  -2  -9   90.04    5.41
  -1   2   9   79.29    5.24
   1  -2  -9   86.38    5.54
  -5  -4  -5  188.16   10.53
  -5  -4  -5  174.02   10.39
   5   4   5  198.93   10.81
   5   4   5  196.21   10.45
   0  -4  -9  139.65    8.69
   0   4   9  134.15    8.50
   0   4   9  129.02    8.29
   0  -4  -9  140.25    8.79
  -4   5   0  174.87   10.81
   4  -5   0  160.60   10.85
   4  -5   0  184.80   10.62
   3   7   1    1.13    1.00
  -3  -7  -1    2.35    1.48
   3   7   1    0.48    1.29
   3   7   1    2.83    1.63
   3   7   1    1.73    1.22
   3   7   1    0.91    1.33
   3   7   1    1.29    1.54
   5   3   6  340.33   19.71
   5   3   6  356.79   19.85
  -5  -3  -6  331.64   19.72
   4   3   8  209.30   12.37
  -4  -3  -8  201.27   12.30
   4   3   8  196.13   12.51
   4   3   8  198.22   12.44
  -4  -3  -8  218.91   12.84
  -2   7   2    0.40    1.79
  -2   7   2    1.29    1.30
   2  -7  -2    2.91    1.46
   1  -4   7   18.88    2.30
  -1   4  -7   22.59    2.25
  -1   4  -7   20.15    2.09
  -5   0  -6  190.05   11.50
  -5   0  -6  181.18   11.61
  -5   0  -6  190.71   11.65
   5   0   6  164.49   10.22
   3  -5  -5  141.05    8.35
  -3   5   5  123.93    7.97
   3  -5  -5  121.69    8.06
  -3   5   5  141.14    8.17
   0  -4   7    6.13    1.40
   0  -4   7    4.65    1.85
   0   4  -7    6.15    1.62
  -3  -3  -9  217.70   13.85
   3   3   9  226.20   13.86
  -3  -3  -9  226.45   13.49
  -4   4  -4  505.89   28.30
   4  -4   4  485.10   28.81
  -4   4  -4  451.35   28.19
  -4   4  -4  467.17   27.98
  -2   3   8   37.11    3.07
   2  -3  -8   39.90    2.78
   2  -3  -8   40.98    2.95
   3   5   8   31.97    2.85
   3   5   8   29.53    2.61
  -3  -5  -8   30.86    2.58
   3   5   8   26.97    3.06
  -3  -5  -8   30.14    2.66
  -3  -5  -8   32.13    2.67
  -3  -5  -8   28.47    2.39
   0   1  -9  221.91   13.63
   0  -1   9  229.01   14.02
   0  -1   9  234.04   14.12
   2   7   6  104.10    7.01
   2   7   6  112.35    6.97
   2   7   6  104.57    7.01
   2   7   6  113.00    6.71
  -2  -7  -6  110.16    7.06
  -2  -7  -6  109.55    7.02
  -5   1   3   71.02    5.18
  -5   1   3   76.09    4.95
  -5   1   3   78.35    4.91
   5  -1  -3   94.13    5.99
  -5   1   3   87.34    5.13
  -5   1   3   95.34    5.37
  -5   3  -2  168.98    9.94
   5  -3   2  154.50    9.55
   5  -3   2  161.64    9.62
  -5   3  -2  153.08    9.76
  -5  -1   3  178.11   10.15
   5   1  -3  197.93   12.09
  -5  -1   3  198.88   10.39
   0   7   6   64.25    4.54
   0  -7  -6   64.18    4.58
   0   7   6   69.20    4.62
   0  -7  -6   68.83    4.91
  -4   5   1   47.98    3.63
   4  -5  -1   42.24    3.11
   2   4  -6   66.50    3.32
   2   4  -6   82.26    3.79
  -2  -4   6   76.08    5.21
  -2  -4   6   76.12    4.83
  -2  -4   6   71.88    4.90
  -1   7  -2   26.60    2.48
   1  -7   2   26.99    2.67
   1  -7   2   30.63    2.54
  -1   7   5  443.48   26.58
   1  -7  -5  380.39   22.54
  -2   7   0  120.07    7.60
   2  -7   0  124.65    7.90
   2  -7   0  124.83    7.97
   4  -5   1  105.37    6.45
  -4   5  -1  102.20    6.64
   4  -5   1  109.60    6.75
   4   6   5    2.10    1.25
   4   6   5    1.79    2.00
  -4  -6  -5    1.94    1.31
  -4  -6  -5    0.38    1.28
  -4  -6  -5    0.79    1.52
  -3  -6  -7    7.02    1.42
  -3  -6  -7    6.36    1.72
  -3  -6  -7    7.19    1.51
   3   6   7    8.85    2.17
  -3   3  -7  218.80   12.83
  -3   3  -7  204.00   12.90
   3  -6  -3   12.27    1.75
  -3   6   3   10.84    1.13
  -3   6   3   12.60    2.03
   5  -3  -1    2.90    1.09
  -5   3   1    5.53    1.36
  -5   3   1    3.77    1.35
   5  -3  -1    4.50    1.08
  -2   1  -9    4.03    1.43
   2  -1   9    3.05    1.51
   2  -1   9    2.89    0.79
   2  -1   9    4.71    1.50
  -2   1  -9    2.40    1.84
   0   5  -6    1.80    1.50
   0   5  -6    1.86    1.49
   0  -5   6    1.27    1.10
   0   5  -6    1.34    1.43
   4   5  -2  236.85   14.58
   4   5  -2  278.01   14.62
   4   5  -2  227.48   14.76
   4   5  -2  255.47   14.68
  -4  -5   2  239.20   14.58
   4   5  -2  252.57   14.52
   4   5  -2  221.55   14.31
   2   5  -5  135.58    8.28
   2   5  -5  133.01    8.21
  -2  -5   5  145.23    9.00
  -3  -4   5   74.77    4.67
   3   4  -5   78.95    5.23
   3   4  -5   92.01    5.67
   3   4  -5   86.31    5.15
  -3  -4   5   74.25    4.96
   1  -3   8    0.90    1.43
  -1   3  -8    2.05    1.58
   1  -3   8    1.19    1.34
  -1   3  -8    0.85    1.01
   1  -3   8    1.55    1.71
  -4  -2   5   96.76    5.97
   4   2  -5   88.59    6.13
   4   2  -5  103.41    6.30
  -1   0   9    5.93    0.57
  -1   0   9   11.04    1.40
  -1   0   9    9.21    1.69
   1   0  -9   12.15    1.63
  -2  -1   8    4.46    1.12
   2   1  -8    4.10    1.44
  -2  -1   8    5.05    1.75
  -2  -1   8    5.87    1.48
   2   1  -8    5.04    1.77
  -1   5  -6  231.16   14.13
  -1   5  -6  238.17   14.23
  -1   5  -6  226.57   14.18
  -4   4   4   97.74    6.16
   4  -4  -4  103.19    6.76
  -4   4   4   97.65    6.18
  -4   0  -8  306.13   18.87
   4   0   8  311.44   18.78
  -4   0  -8  314.81   19.13
  -4   0  -8  324.93   19.07
   1   6   8  695.53   39.55
  -1  -6  -8  666.90   40.58
   1   6   8  625.53   39.66
  -1  -6  -8  690.29   40.47
  -4   3   5  227.07   13.15
   4  -3  -5  213.62   13.14
  -4   3   5  208.19   13.02
  -4   3   5  211.56   12.92
   1  -3  -9   84.99    5.67
   1  -3  -9   87.91    5.41
  -1   3   9   83.58    5.67
  -2   7   3   87.43    4.65
  -2   7   3   87.81    4.38
   2  -7  -3   82.15    5.50
   3   7   5  155.01    9.51
   3   7   5  157.81    9.48
   3   7   5  147.43    9.53
  -3  -7  -5  176.75   10.22
  -3  -7  -5  153.06   10.13
   1  -5  -8   22.96    2.21
  -1   5   8   18.34    1.86
  -1   5   8   19.49    2.01
  -1   6   7   69.77    4.71
  -1   6   7   72.22    4.80
   0   3  -8  129.81    8.23
   0  -3   8  175.16   10.85
   0  -3   8  171.12   10.69
   0  -3   8  175.31   10.69
   0   3  -8  165.77    8.72
  -3   4  -6   79.99    4.49
  -3   4  -6   69.98    4.60
  -3  -1   7   79.79    2.78
   3   1  -7   83.54    5.22
   3   1  -7   73.41    4.71
   3   1  -7   76.43    5.07
  -3  -1   7   33.67    2.38
  -5  -3   2    4.14    1.22
  -5  -3   2    2.86    1.28
   5   3  -2    4.24    1.24
   5   3  -2    1.87    1.07
   4   6   0  221.48   11.89
   4   6   0  195.08   12.14
   4   6   0  223.08   12.08
   4   6   0  198.10   11.98
   4   6   0  176.88   11.78
   4   6   0  194.92   12.09
   4   6   0  193.93   12.21
   4   6   0  183.98   12.00
  -4  -5  -7   86.66    5.42
  -4  -5  -7   83.80    5.51
   4   5   7   85.91    5.81
  -4  -5  -7   84.10    5.57
   4   5   7   74.77    5.72
   4   5   7   86.17    5.41
  -3   6  -2  120.99    7.58
   3  -6   2  114.12    7.24
   1   8   2  280.21   16.41
   1   8   2  281.20   16.84
  -1  -8  -2  294.15   17.63
   1   8   2  279.95   16.65
   1   8   2  258.30   16.54
  -1  -8  -2  291.53   17.81
   3   0   9   10.95    1.30
  -3   0  -9    7.80    1.63
  -3   0  -9    8.99    1.72
   3   0   9    9.63    1.85
   3   0   9   11.20    1.76
   3   0   9    9.34    1.39
   4  -5  -2   11.81    1.62
  -4   5   2   10.92    1.31
  -2   5   7   81.69    5.35
   2  -5  -7   85.69    5.18
   2  -5  -7   67.53    4.38
  -2   5   7   82.21    5.27
  -3  -5   4   17.84    1.91
   3   5  -4   15.81    1.53
   3   5  -4   14.16    1.57
   2   3  -7   27.53    2.42
  -2  -3   7   26.38    1.85
  -2  -3   7   29.43    2.76
   2   3  -7   24.88    2.16
  -2  -3   7   32.49    2.43
  -2  -3   7   27.35    2.20
   1   8   3  293.60   16.94
   1   8   3  275.08   16.97
  -1  -8  -3  262.90   16.54
  -1  -8  -3  301.32   16.87
   1   8   3  276.37   17.12
   1   8   3  284.56   17.31
   1   8   3  280.45   17.17
   5   5   3  139.76    8.43
   5   5   3  126.41    8.37
  -5  -5  -3  140.96    8.57
   5   5   3  131.90    8.16
  -5  -5  -3  136.91    8.99
  -5  -5  -3  138.53    8.71
   5   5   3  124.05    8.44
   5   5   3  143.89    8.31
   5   5   3  133.79    8.56
   3  -2   8  128.99    8.26
  -3   2  -8  120.68    7.33
   3  -2   8  133.41    8.34
  -3   2  -8  112.17    7.16
  -3  -3   6   19.80    1.65
  -3  -3   6   23.18    2.16
  -3  -3   6   22.26    1.83
   3   3  -6   22.06    2.16
   3   3  -6   18.46    1.61
   0  -8  -2   82.44    5.32
   0   8   2   84.05    5.22
   0   8   2   92.99    5.71
   5  -3   3  194.90   11.90
  -5   3  -3  207.24   12.09
   5  -3   3  203.07   12.03
  -5   3  -3  186.53   12.13
   3   7   0   15.46    2.13
   3   7   0   14.07    1.56
   3   7   0   15.80    1.74
   3   7   0   16.65    1.70
   3   7   0   15.60    1.69
   3   7   0   16.50    1.98
   3   7   0   18.53    2.31
  -5  -5  -2   47.49    3.34
  -5  -5  -2   43.07    3.66
  -5  -5  -2   45.66    3.11
   5   5   2   43.75    3.18
   5   5   2   42.36    3.15
   5   5   2   39.52    3.29
   5   5   2   42.53    3.01
   5   5   2   42.38    3.17
   5   5   2   46.60    3.41
  -3   3   7   51.07    3.35
  -3   3   7   52.06    3.63
   3  -3  -7   59.94    4.00
  -3   3   7   48.83    3.52
   4  -5   2  106.36    6.52
   4  -5   2  109.71    6.79
  -4   5  -2  100.92    6.64
  -4   5  -2  101.83    6.34
   2  -7   1   48.52    3.88
   2  -7   1   58.15    3.90
  -2   7  -1   58.17    4.12
  -2  -6  -8  132.79    8.38
  -2  -6  -8  140.37    8.33
   2   6   8  118.38    6.70
  -2  -6  -8  121.15    8.41
   2   6   8   93.83    5.85
  -1  -5  -9  238.30   14.32
  -1  -5  -9  238.87   14.28
  -1  -5  -9  225.29   14.23
   1   5   9  218.02   13.98
   1   5   9  236.66   14.04
  -2   6  -4  253.64   16.33
   2  -6   4  269.25   16.44
  -2   6  -4  280.83   16.29
   1   8   1  266.31   17.46
   1   8   1  297.28   17.26
   1   8   1  299.49   17.52
  -1  -8  -1  289.02   17.45
  -5   2   3  134.68    8.32
  -5   2   3  130.67    8.21
   5  -2  -3  142.06    8.78
   5  -2  -3  143.65    8.89
   0   8   3  190.40   11.42
   0  -8  -3  161.13    9.82
  -5  -2   3   16.40    1.19
   5   2  -3   17.64    1.81
  -5  -2   3   14.56    1.71
  -5  -2   3   18.62    1.74
   5   4  -1   32.69    2.27
  -5  -4   1   41.94    3.21
   5   4  -1   34.73    2.91
  -5  -4   1   42.12    3.04
  -5  -4   1   39.66    3.28
   0   8   1   66.65    4.15
   0  -8  -1   85.37    5.54
   0   8   1   82.12    4.85
  -4   3  -6  211.40   12.49
  -4   3  -6  194.15   12.42
  -4   3  -6  205.72   12.25
  -4   3  -6  188.69   12.49
  -4   3  -6  206.98   12.19
   3   4   9  151.37    9.00
  -3  -4  -9  159.50   10.15
  -3  -4  -9  163.36   10.43
  -3  -4  -9  165.61   10.00
   3   4   9  133.01    8.79
  -4  -4  -8  278.95   16.33
   4   4   8  247.58   15.35
   4   4   8  246.35   15.61
  -4  -4  -8  260.94   15.99
  -4  -4  -8  259.43   15.78
   4   4   8  273.36   15.64
  -4   2  -7   89.09    6.35
  -4   2  -7   98.00    6.07
  -4   2  -7  105.08    6.57
  -4   2  -7  102.18    6.22
   5   5   4  131.19    9.14
   5   5   4  150.41    8.92
  -5  -5  -4  143.77    8.87
  -5  -5  -4  148.21    9.02
  -5  -5  -4  137.98    9.26
   5   5   4  148.18    9.30
   5   5   4  128.21    9.03
   1   2  10  202.60   12.05
   1   2  10  190.01   12.19
  -1  -2 -10  190.85   11.93
   1   2  10  198.38   12.02
  -1  -2 -10  198.41   12.08
  -2   4  -7  201.07   11.92
  -2   4  -7  192.69   12.05
  -2   4  -7  190.58   11.82
   0  -7   3   99.07    6.13
   0  -7   3  103.59    6.65
   0   7  -3  111.38    7.26
  -2   6   6   99.13    6.41
   2  -6  -6   90.95    5.92
   2  -6  -6   80.51    5.55
   5   4   6  443.32   25.23
  -5  -4  -6  405.22   27.09
  -5  -4  -6  458.77   27.06
   5   4   6  443.49   25.16
  -5  -4  -6  475.43   26.89
   5   4   6  399.45   24.87
   1   4  -7  221.22    9.34
  -1  -4   7  221.25   13.07
  -1  -4   7  212.05   13.24
  -1  -4   7  209.64   13.04
   1   4  -7  199.73    9.17
   5  -3  -2    7.89    1.24
  -5   3   2    7.44    1.48
   1   8   4  223.71   14.39
   1   8   4  230.50   14.39
  -1  -8  -4  231.13   14.20
   1   8   4  257.01   14.44
   1   8   4  231.94   14.59
  -5   2  -5  185.27   11.06
  -5   2  -5  178.40   11.17
  -5   2  -5  180.54   11.16
  -5   2  -5  175.26   10.98
  -2  -7   2   99.58    6.26
   2   7  -2  115.78    6.65
  -2  -7   2   98.47    6.53
   2   7  -2  109.63    7.00
   2   7  -2  101.84    6.76
   2   7  -2  100.83    6.61
  -2  -5  -9  331.06   20.48
   2   5   9  334.22   20.34
   2   5   9  337.79   20.40
  -2  -5  -9  346.77   20.42
   5   2   7   35.50    3.31
  -5  -2  -7   45.23    3.54
  -5  -2  -7   39.70    3.51
   5   2   7   44.83    3.12
   5   2   7   39.81    3.38
  -5   1  -6  268.49   16.37
  -5   1  -6  259.82   16.37
   5  -1   6  230.81   14.14
  -5   1  -6  274.83   16.24
   0  -6  -8   68.41    4.71
   0  -6  -8   68.31    4.65
   0   6   8   68.34    4.56
   0   6   8   63.97    4.44
   0  -6  -8   66.12    4.92
  -4   1   6   84.97    5.24
  -4   1   6   81.56    5.51
   4  -1  -6   89.37    5.85
   1   5  -6  222.27   13.62
   1   5  -6  225.66   13.73
  -1  -5   6  231.42   14.00
  -2   3  -8   70.65    4.71
   2  -3   8   69.12    4.67
  -2   3  -8   63.14    4.32
   2  -3   8   64.32    4.61
  -1  -1 -10  153.28    9.69
   1   1  10  153.77    9.42
   1   1  10  163.86    9.61
   1   1  10  147.30    9.66
  -5  -5  -1    0.66    0.95
   5   5   1    0.20    1.37
  -5  -5  -1    1.80    1.73
   5   5   1    0.95    1.35
   5   5   1    2.21    1.35
   5   5   1   -0.19    1.57
  -1  -7  -7   80.05    5.82
  -1  -7  -7   87.60    5.66
   1   7   7   84.51    5.59
  -4   0   6   -0.05    1.31
  -4   0   6    0.69    0.90
  -4   0   6    0.63    0.50
   4   0  -6    0.15    1.52
  -5  -1  -7  123.12    7.30
  -5  -1  -7  125.36    7.33
   5   1   7  123.97    7.87
   5   1   7  120.70    7.81
   5   1   7  124.74    7.72
   2   6  -4  163.51    9.86
   2   6  -4  150.66    9.64
  -2  -6   4  158.13    9.97
  -2  -6   4  171.33   10.26
   2   6  -4  156.84    9.67
   0  -6   5   -0.34    0.91
   0   6  -5   -0.46    1.43
   0  -6   5    0.51    1.76
   0   6  -5    2.20    1.56
   0   6  -5    0.49    1.50
  -4  -6  -6    1.09    1.59
  -4  -6  -6    2.29    1.32
  -4  -6  -6    1.47    1.32
   4   6   6    1.24    1.15
   4   6   6   -0.25    2.07
   6   1   2    1.87    1.23
  -6  -1  -2    0.27    1.48
   6   1   2   -0.65    1.51
  -6  -1  -2    1.96    1.26
   3  -6  -4   12.88    1.80
  -3   6   4    9.38    1.15
  -3   6   4    9.94    1.67
  -2   4   8   20.96    2.35
   2  -4  -8   22.01    2.08
   2  -4  -8   22.29    1.77
  -2   4   8   19.68    1.96
  -2   7   4   31.43    2.23
   2  -7  -4   43.53    3.37
  -2   7   4   34.73    2.83
   2   2  10  124.19    7.52
  -2  -2 -10  117.70    7.66
  -2  -2 -10  120.48    7.70
   2   2  10  116.67    7.72
   2   2  10  117.91    7.45
   1   3  10   20.41    2.11
   1   3  10   22.41    1.94
   1   3  10   22.46    2.48
  -1  -3 -10   23.91    2.25
  -1  -3 -10   24.82    2.36
   1  -2   9   36.21    2.61
   1  -2   9   35.71    2.77
  -1   2  -9   39.92    3.07
   1  -2   9   35.93    2.54
  -1   2  -9   32.15    2.51
   1  -2   9   26.32    1.81
   2   8   3   78.48    5.20
  -2  -8  -3   88.12    5.87
   2   8   3   82.63    5.32
   2   8   3   84.42    5.16
   2   8   3   69.97    5.22
   2   8   3   80.22    5.47
   2   8   3   73.12    5.06
   2   8   2  212.38   12.33
   2   8   2  199.27   12.51
   2   8   2  206.32   12.20
   2   8   2  204.34   12.42
   2   8   2  197.07   12.38
  -2  -8  -2  199.64   12.33
   2   8   2  185.91   12.28
   0  -8  -4   94.63    5.88
   0   8   4  100.84    6.83
  -1  -7   3  143.07    8.72
   1   7  -3  142.30    8.96
   1   7  -3  143.73    8.85
  -1  -7   3  133.60    8.34
   1   7  -3  137.10    8.90
   1   1  -9  139.18    9.25
  -1  -1   9  151.76    9.25
   1   1  -9  152.51    9.13
  -1  -1   9  143.20    9.02
  -6  -1  -1   90.94    6.01
  -6  -1  -1   95.66    5.87
   6   1   1   99.41    6.43
  -6  -1  -1   90.02    6.12
   4  -5  -3    0.38    1.33
  -4   5   3    1.60    1.03
   0   8   0  108.19    7.05
   0  -8   0  125.29    7.42
   0  -8   0  105.80    7.42
   6   1   3    0.43    1.32
  -6  -1  -3    1.72    1.61
  -6  -1  -3   -0.41    1.44
   6   1   3    0.60    0.58
   6   1   3    1.22    1.48
  -3   5  -5  158.52   10.26
  -3   5  -5  168.74   10.12
  -6   0  -2  122.27    7.10
   6   0   2  113.69    7.23
  -6   0  -2  114.57    6.85
  -1  -8   0  173.96   10.75
   1   8   0  174.63   10.56
   1   8   0  168.39   10.23
   0   5   9  108.76    7.09
   0  -5  -9  120.79    7.73
  -3  -7  -6  154.10    9.71
  -3  -7  -6  156.86    9.70
   3   7   6  149.11    9.38
   3   7   6  158.33    9.32
   3   7   6  145.48    9.46
  -5  -3  -7  216.56   12.80
  -5  -3  -7  206.44   13.34
   5   3   7  230.52   14.75
   5   3   7  244.69   14.77
   5   3   7  246.17   14.65
   1  -6   5  159.68    8.90
  -1   6  -5  147.57    9.05
  -1   6  -5  143.86    9.07
  -1   6  -5  138.94    9.08
   1  -6   5  131.27    8.36
  -2  -1 -10  106.50    7.15
   2   1  10  107.34    6.60
   2   1  10  104.50    6.86
  -2  -1 -10  106.94    7.14
   2   1  10  103.94    6.68
  -2  -1 -10  120.35    7.42
  -2   5  -6  153.84    7.64
  -2   5  -6  152.24    7.79
   1  -7   3   46.71    3.33
   1  -7   3   35.08    2.39
  -1   7  -3   45.41    3.53
   1  -7   3   44.60    3.08
   2   7   7  114.48    7.78
   2   7   7  111.81    6.99
   2   7   7  117.65    7.42
  -2  -7  -7  134.65    8.07
  -2  -7  -7  115.16    8.11
   2   7   7  128.95    7.46
  -2  -7  -7  127.16    8.00
  -6  -2  -2   55.83    4.05
   6   2   2   54.18    3.47
   6   2   2   49.11    3.54
  -6  -2  -2   49.80    3.75
  -6  -2  -2   60.63    3.97
   6   2   2   53.35    3.83
   6   2   2   56.25    3.90
   1  -4  -9   41.18    2.69
   1  -4  -9   41.12    3.16
  -1   7   6  382.19   23.46
  -1   7   6  400.73   23.52
   1  -7  -6  183.47   10.88
  -4   2   6  131.97    6.02
  -4   2   6  127.61    5.95
  -4   2   6  124.19    5.64
  -5   0   4   74.59    4.93
   5   0  -4  133.29    8.32
  -5   0   4  104.10    5.42
  -6   0  -1    0.86    1.22
  -6   0  -1    2.78    1.53
   6   0   1   -0.04    1.31
  -6   0  -1    0.02    0.76
  -5  -5  -5   66.58    4.47
  -5  -5  -5   65.21    4.79
   5   5   5   60.38    4.72
   5   5   5   69.42    4.35
  -5  -5  -5   62.37    4.29
   5   5   5   68.45    4.89
  -4   4  -5  273.15   15.86
  -4   4  -5  264.64   15.59
  -4   4  -5  237.96   15.86
  -2  -3 -10  156.52    9.80
   2   3  10  142.16    8.96
   2   3  10  154.40    9.22
   2   3  10  147.77    9.36
   0   2  10   -0.39    1.57
   0   2  10    0.83    1.30
   0  -2 -10    1.42    1.34
   0  -2 -10   -0.60    1.96
   0   2  10   -0.83    1.14
   0  -2 -10    1.34    1.24
   3   6  -3   39.78    2.79
   3   6  -3   37.83    2.81
   3   6  -3   40.14    3.22
   3   6  -3   33.86    2.92
   3   6  -3   36.60    3.12
  -3  -6   3   44.45    3.23
   4   4  -4  239.37   10.34
  -4  -4   4  256.78   15.66
   4   4  -4  250.21   10.14
   4   4  -4  270.05    9.84
   4   4  -4  270.91    9.85
  -4  -4   4  268.36   15.90
   1   3  -8  167.18    9.99
   1   3  -8  153.79    9.93
  -1  -3   8  165.92   10.44
  -1  -3   8  169.56   10.49
  -1  -3   8  175.30   10.64
  -4   1  -8  111.05    6.75
  -4   1  -8   99.95    6.89
   4  -1   8  109.05    6.99
  -4   1  -8  101.76    6.34
   6   2   3   83.07    4.95
   6   2   3   73.48    4.68
  -6  -2  -3   81.77    5.28
   6   2   3   66.96    5.09
  -6  -2  -3   76.48    5.48
   6   2   3   81.69    5.19
   0  -2   9  243.18   15.55
   0  -2   9  254.92   15.51
   0  -2   9  275.44   15.69
   0   2  -9  243.05   10.15
   0   2  -9  143.62    9.44
   2   8   4   75.83    4.69
   2   8   4   67.69    4.80
   2   8   4   70.17    5.06
  -2  -8  -4   83.93    5.63
   2   8   4   63.30    5.20
   2   8   4   72.27    4.85
   4   6  -1   76.51    5.41
   4   6  -1   87.87    5.33
   4   6  -1   85.61    5.29
   4   6  -1   74.61    4.89
  -4  -6   1   83.22    5.51
   4   6  -1   81.05    5.18
   4   6  -1   69.69    4.90
   4   6  -1   81.89    5.15
   4   6  -1   81.35    5.07
   3  -6   3  204.80   12.52
  -3   6  -3  215.76   13.15
  -4   5  -3    1.28    1.11
   4  -5   3    1.08    1.19
  -4   5  -3    2.78    1.77
   4  -5   3    0.41    0.90
   0  -1 -10  118.78    8.04
   0  -1 -10  128.52    7.84
   0   1  10  139.26    8.33
   0   1  10  122.10    8.31
   0   1  10  134.59    8.07
  -2   7  -2  514.34   30.75
   2  -7   2  457.63   28.02
   2  -7   2  476.30   28.00
   5  -1  -4  119.63    7.49
  -5   1   4   88.02    6.30
  -5   1   4   98.03    6.00
  -5   3  -4   31.00    2.72
  -5   3  -4   28.28    2.69
  -5   3  -4   31.06    2.53
   5  -3   4   30.02    2.11
  -4  -1   6   32.16    2.25
   4   1  -6   33.54    3.06
   4   1  -6   42.51    3.16
   0  -7  -7   13.34    2.35
   0   7   7   14.23    1.86
   0  -7  -7   15.73    2.02
   0   7   7   16.28    1.95
   0  -7  -7   15.13    1.96
   6   0   3  122.80    5.41
  -6   0  -3  122.37    7.15
  -6   0  -3  116.02    7.29
   6   0   3  115.20    5.30
  -6   0  -3   98.94    7.08
  -2  -8  -1  323.96   20.07
  -2  -8  -1  346.18   20.21
   2   8   1  293.43   19.93
   2   8   1  317.98   20.01
   2   8   1  330.89   19.78
   3   2  -7   36.26    2.39
  -3  -2   7   33.14    2.73
  -3  -2   7   32.80    2.49
   3   2  -7   32.91    2.15
   1  -8  -2   10.43    1.90
  -1   8   2   12.42    1.87
   1  -8  -2   14.07    1.75
   6   2   1  275.67   17.07
  -6  -2  -1  258.79   14.16
  -6  -2  -1  203.83   14.16
   6   2   1  284.68   16.83
  -2  -2   8    9.66    1.44
   2   2  -8    6.85    1.61
  -2  -2   8    8.83    1.36
  -2  -2   8    9.44    2.05
   2   2  -8    7.70    1.70
  -2  -2   8    8.92    1.64
   1   8   5   81.02    5.56
  -1  -8  -5   90.05    6.00
   1   8   5   81.32    5.84
   1   8   5   89.98    5.57
   1   8   5   79.94    5.54
  -3   1  -9   45.49    3.56
  -3   1  -9   50.41    3.88
   3  -1   9   47.58    3.58
   3  -1   9   46.96    3.48
   1   0  10  269.38   15.73
  -1   0 -10  272.59   16.19
   1   0  10  248.32   15.97
   1   0  10  266.98   16.00
  -1   0 -10  253.82   16.05
  -1   0 -10  263.48   15.87
   5   0   7  240.72   14.94
   5   0   7  247.13   14.82
  -5   0  -7  222.63   14.06
  -5   0  -7  258.42   14.47
  -5   0  -7  234.94   14.40
  -3   5   6  113.83    7.65
  -3   5   6  140.71    7.85
   3  -5  -6  133.30    8.63
   3   7  -1   37.04    3.12
   3   7  -1   41.98    3.13
   3   7  -1   42.83    3.45
   3   7  -1   50.70    3.34
   3   7  -1   46.54    3.09
   3   7  -1   44.80    3.47
  -3  -7   1   41.42    3.06
   3   7  -1   49.92    3.61
  -1  -6   5  162.20    9.96
   1   6  -5  160.07   10.27
   1   6  -5  162.95   10.17
   1   6  -5  169.18   10.24
  -1  -6   5  164.39   10.27
  -1   8   1    5.13    1.65
   1  -8  -1    3.37    1.52
   1  -8  -1    4.18    1.72
  -4  -3   5  254.83   16.77
   4   3  -5  295.85   18.00
  -4  -3   5  285.71   17.06
  -4  -3   5  300.30   16.85
  -4  -3   5  292.17   16.80
   5   1  -4   74.27    4.94
  -5  -1   4   68.68    4.62
  -5  -1   4   77.19    4.97
   5   5   0   22.91    2.35
   5   5   0   25.90    2.33
   5   5   0   27.90    2.15
  -5  -5   0   24.70    2.60
   5   5   0   21.07    2.68
   5   5   0   23.96    2.29
  -5   4   0  162.56    9.89
   5  -4   0  156.26    9.85
   5  -4   0  163.79    9.74
  -5   4   0  155.05    9.83
   6   1   0  161.89   10.02
  -6  -1   0  159.40    8.88
  -6  -1   0  132.51    8.33
  -6  -1   0  146.45    8.55
  -6  -1   0  161.64    8.82
   2  -2   9   12.99    1.89
  -2   2  -9   14.42    2.17
   2  -2   9   10.77    1.88
  -2   2  -9   11.95    1.67
   5  -4   1  222.31   12.78
  -5   4  -1  253.75   13.60
  -5   4  -1  198.12   13.38
   5  -4   1  200.05   12.84
  -6  -1  -4   46.08    3.52
  -6  -1  -4   45.73    3.72
  -6  -1  -4   49.77    3.56
   6   1   4   47.74    3.54
   6   1   4   50.41    3.68
   6   0   0   48.21    3.47
  -6   0   0   44.33    3.19
  -6   0   0   36.96    2.80
   0  -3 -10   20.65    2.02
   0   3  10   20.89    2.46
   0   3  10   19.23    1.91
   0   3  10   21.65    2.09
   0  -3 -10   21.57    2.17
   4   5  -3  220.20   14.49
   4   5  -3  237.94   14.79
  -4  -5   3  253.50   15.44
   4   5  -3  277.68   14.73
   4   5  -3  261.19   14.70
   4   5  -3  261.51   14.94
  -4   4   5   84.51    5.51
  -4   4   5   87.17    5.53
   4  -4  -5   91.68    6.19
  -4  -2  -9   -0.07    2.07
   4   2   9    1.70    1.35
  -4  -2  -9   -0.68    1.46
  -4  -2  -9   -0.43    0.91
  -4  -2  -9   -0.99    1.82
   4   2   9   -0.05    1.45
  -3  -6  -8   25.37    2.71
   3   6   8   26.87    3.06
   3   6   8   23.98    2.77
  -3  -6  -8   33.29    2.78
  -3  -6  -8   31.01    2.52
  -3  -6  -8   32.62    2.65
  -1   8   3   13.86    1.88
   1  -8  -3    9.85    1.55
   1  -8  -3   14.16    1.94
  -6  -2  -4    7.68    1.92
   6   2   4   12.59    1.86
   6   2   4    9.16    1.57
   6   2   4   10.79    1.85
   6   2   4    7.83    0.78
  -6  -2  -4    9.21    1.77
  -3   4   7  128.20    8.11
  -3   4   7  131.31    8.24
  -3   4   7  134.68    8.25
  -3   4   7  142.79    8.53
   3  -4  -7  134.77    8.29
   5  -3  -3   16.44    2.19
   5  -3  -3   22.19    1.85
  -5   3   3   22.61    2.11
   5   3  -3   10.75    1.56
   5   3  -3    9.58    2.07
  -5  -3   3    8.14    1.53
  -5  -3   3   11.91    1.47
   1   4  10   15.44    2.47
   1   4  10   17.21    2.21
   1   4  10   16.69    1.53
  -1  -4 -10   16.03    1.98
   1   4  10   18.19    2.13
  -1  -4 -10   16.95    2.07
   4   7   3  191.12   11.95
  -4  -7  -3  210.83   12.95
   4   7   3  209.48   12.04
   4   7   3  207.66   11.90
   4   7   3  178.74   12.02
   4   7   3  178.77   11.93
   4   7   3  196.53   11.98
   4   7   3  186.83   11.97
   4   7   3  214.29   12.29
  -6   1  -1   22.26    2.41
  -6   1  -1   24.07    1.79
  -6   1  -1   28.92    1.99
   6  -1   1   30.03    2.49
  -6   1  -1   23.50    2.20
   6  -1   2  271.16   13.21
   6  -1   2  197.53   12.82
  -6   1  -2  234.47   14.01
  -6   1  -2  217.91   14.16
  -6   1  -2  233.98   13.87
  -2   0 -10   53.34    4.14
  -2   0 -10   49.92    3.73
   2   0  10   48.88    3.25
  -2   0 -10   51.83    3.88
   2   0  10   45.04    3.49
   2   0  10   49.74    3.60
   0   8   5  302.74   18.51
   0   8   5  300.85   18.28
   0  -8  -5  278.92   16.15
   0  -8  -5  258.90   15.68
   5  -4  -1   88.78    6.37
   5  -4  -1  111.89    6.31
  -5  -4   2  217.25   13.63
   5   4  -2  218.69   13.04
  -5  -4   2  215.46   13.55
  -5  -4   2  229.20   13.45
   5   4  -2  210.15   13.15
  -4  -1  -9  198.70   12.67
   4   1   9  195.30   12.12
  -4  -1  -9  198.79   12.80
  -4  -1  -9  211.99   12.51
   4   1   9  192.17   12.07
   4   1   9  201.87   11.97
  -2   1   9   64.00    4.43
   2  -1  -9   80.20    5.31
   2  -1  -9   78.04    5.70
  -2   1   9   83.53    4.69
   2  -1  -9   88.19    5.40
   3   5   9   48.32    3.73
  -3  -5  -9   44.00    3.57
   3   5   9   44.18    3.47
  -3  -5  -9   50.44    3.40
  -3  -5  -9   45.67    3.51
   0   8  -1   48.29    3.71
   0  -8   1   40.71    3.47
   0  -8   1   50.46    3.57
  -2  -8  -5   18.10    2.14
   2   8   5   14.27    2.39
   2   8   5   15.63    2.00
   2   8   5   15.88    1.95
   2   8   5   16.07    1.71
   1  -8   0   18.11    2.21
   1  -8   0   17.56    2.17
  -1   8   0   17.81    2.18
  -4  -3  -9  130.40    8.38
  -4  -3  -9  126.91    7.82
   4   3   9  135.61    8.15
   4   3   9  119.02    8.33
   4   3   9  129.51    8.24
   4   5   8  111.16    7.24
  -4  -5  -8  109.32    6.99
  -4  -5  -8  113.59    7.43
  -4  -5  -8  107.39    6.81
  -4  -5  -8  109.71    7.03
   4   5   8  115.29    7.59
   4   5   8  118.69    7.58
   0   0  10  338.20   20.76
   0   0 -10  345.81   21.00
   0   0  10  342.38   20.47
   0   0  10  365.85   20.84
  -5   4  -2  193.61   12.30
   5  -4   2  197.78   12.28
   5  -4   2  207.42   12.24
  -5   4  -2  210.58   12.44
   6   3   2   93.60    5.85
  -6  -3  -2   86.71    5.56
  -6  -3  -2   89.27    6.01
  -6  -3  -2   93.47    5.77
   6   3   2   94.49    5.84
   6   3   2   93.09    6.13
   6   3   2   89.15    6.14
  -6  -3  -2   90.43    5.89
   6   3   3  150.78    9.47
   6   3   3  146.21    9.22
   6   3   3  154.73    9.48
   6   3   3  150.55    9.11
  -6  -3  -3  142.46    9.10
  -6  -3  -3  149.54    8.86
  -6  -3  -3  137.91    9.21
   4   7   2   76.06    4.78
   4   7   2   74.52    4.96
   4   7   2   77.66    4.73
   4   7   2   69.03    4.64
   4   7   2   65.80    4.81
   4   7   2   68.69    4.69
   4   7   2   64.05    4.52
   4   7   2   60.67    4.69
  -2   2   9  149.88    9.31
   2  -2  -9  154.25    8.80
   2  -2  -9  130.44    8.79
  -6   0  -4  147.82    8.05
   6   0   4  146.40    8.80
   6   0   4  133.16    8.72
  -6   0  -4  133.34    7.95
  -5   2   4  103.30    6.90
  -5   2   4  120.47    7.15
   5  -2  -4  119.58    7.63
  -5   2   4  124.15    7.24
  -6  -2   0  215.62   12.38
  -6  -2   0  191.89   12.02
   6   2   0  110.63    7.21
   6   2   0  221.66    8.01
  -6  -2   0  228.97   12.24
  -6  -2   0  182.16   12.41
   2   4  10   19.06    2.15
  -2  -4 -10   19.83    2.22
   2   4  10   14.78    2.11
  -2  -4 -10   19.25    2.19
   2   4  10   18.04    2.50
   2   4  10   14.85    1.55
  -4  -7  -4  167.09   10.62
  -4  -7  -4  175.24   10.57
   4   7   4  171.98   10.53
   4   7   4  180.75   10.81
   4   7   4  171.14   10.55
   4   7   4  145.34   10.48
   4   7   4  170.20   10.43
   4   7   4  177.46   10.46
   4   7   4  170.77   10.51
  -5  -4  -7  306.07   18.39
   5   4   7  314.90   18.65
  -5  -4  -7  291.10   18.20
   5   4   7  307.12   18.52
   5   4   7  295.96   18.62
  -5  -4  -7  318.70   18.16
  -5  -4  -7  296.60   18.44
   2  -7  -5   94.60    6.26
  -2   7   5   92.33    6.09
  -3   1   8   85.54    5.73
   3  -1  -8   89.12    5.63
  -3   1   8   88.10    5.52
   3  -1  -8   84.50    5.42
  -1  -8   1  187.13   11.59
   1   8  -1  164.34   10.27
   2   8   0  218.04   13.84
   2   8   0  226.23   13.51
   2   8   0  241.54   13.80
   2   8   0  213.20   13.64
  -2  -8   0  203.09   13.68
  -2  -8   0  242.95   13.69
  -4   3   6  233.58   13.67
  -4   3   6  218.20   13.40
  -4   3   6  219.78   13.53
  -5  -5  -6  275.94   17.74
  -5  -5  -6  305.45   17.56
   5   5   6  268.32   17.19
  -5  -5  -6  289.57   17.66
   5   5   6  270.73   17.51
   5   5   6  316.84   17.22
   3   2  10   34.62    2.79
  -3  -2 -10   33.59    2.90
   3   2  10   35.32    3.16
  -3  -2 -10   32.65    3.06
  -6   1   0   23.88    2.23
   6  -1   0   21.91    2.06
  -6   1   0   23.32    2.56
  -4  -6  -7    5.11    1.32
  -4  -6  -7    3.08    1.57
   4   6   7    2.47    2.22
  -4  -6  -7    3.60    1.48
  -6   1  -3  204.84   13.14
  -6   1  -3  237.94   13.07
  -6   1  -3  204.37   12.98
   6  -1   3  124.44    8.21
  -6   1  -3  207.63   12.85
   6  -1   3  234.08    8.90
   3  -6  -5   24.10    2.31
   3  -6  -5   23.61    2.82
  -3   6   5   20.06    1.80
  -3   6   5   26.92    2.26
   4  -5  -4    4.29    2.08
   4  -5  -4    5.82    1.47
  -4   5   4    4.41    1.41
  -4   5   4    5.57    1.20
   3  -2  -8   34.97    2.53
  -3   2   8   35.11    2.83
   3  -2  -8   32.76    2.65
  -3   2   8   35.40    2.80
  -5   2  -6  162.89    9.13
   5  -2   6  133.83    8.53
  -5   2  -6  152.74    9.25
  -5   2  -6  142.44    8.99
  -1   8   4  116.45    7.54
   1  -8  -4  110.09    6.83
  -1   8   4  120.33    7.63
   1  -6  -8   25.16    2.46
  -1   6   8   26.27    2.48
  -1   6   8   26.11    2.26
   1  -6  -8   27.98    2.45
  -6  -3  -1  254.33   15.57
  -6  -3  -1  284.28   15.91
  -6  -3  -1  273.25   15.76
   6   3   1  264.94   15.21
   6   3   1  245.50   15.10
   6   3   1  234.14   15.38
   6   3   1  267.64   15.39
  -6  -3  -1  238.63   15.91
   6   3   4  135.76    8.38
   6   3   4  151.88    8.69
   6   3   4  130.75    8.81
  -6  -3  -4  137.24    8.84
   6   3   4  141.01    8.85
  -6  -3  -4  137.55    8.48
   2   0  -9    5.84    1.31
   2   0  -9    5.73    0.84
  -2   0   9    7.43    1.32
   2   0  -9    9.04    2.01
   2   0  -9    7.79    1.59
  -3   0   8   30.60    2.24
   3   0  -8   27.13    2.84
   3   0  -8   34.00    2.53
   3   0  -8   27.42    2.17
  -2   6  -5  219.19   13.14
  -2   6  -5  207.14   13.23
   2  -6   5  194.42   12.09
  -2  -7   3  174.95   10.60
  -2  -7   3  164.74   10.30
   2   7  -3  204.06   11.62
   2   7  -3  189.72   11.97
   2   7  -3  176.47   11.79
  -6   0   1   35.39    2.69
  -6   0   1   47.70    3.32
   6   0  -1   43.86    3.02
   6   0  -1   46.66    3.35
  -6   0   1   42.43    3.13
  -3   7   1  231.27   14.30
   3  -7  -1  222.81   13.66
   5   2  -4    0.12    1.43
  -5  -2   4    0.24    1.14
  -5  -2   4    0.03    0.74
   5   2  -4   -1.06    1.80
   1   6   9  417.83   25.87
   1   6   9  425.53   25.69
  -1  -6  -9  452.08   25.74
  -1  -6  -9  423.92   25.65
   1   6   9  442.97   25.91
  -1  -6  -9  405.84   25.74
  -6  -1   1  192.35   10.43
   6   1  -1  165.33   10.71
   6   1  -1  218.31   11.11
  -6  -1   1  154.32    9.91
  -6  -1   1  219.58   10.64
  -6  -1   1  168.30   10.02
  -6  -1   1  193.69   10.39
  -3  -3 -10  246.77   15.28
   3   3  10  249.37   15.22
   3   1  10   10.18    1.48
   3   1  10    8.66    1.50
  -3  -1 -10   10.88    1.91
   3   1  10    9.96    1.95
  -3  -1 -10   13.16    2.06
   0  -7   4    6.07    1.88
   0   7  -4    4.45    1.77
   0   7  -4    3.80    1.60
   0  -7   4    4.33    0.99
   3   7   7   64.77    4.50
   3   7   7   69.70    5.18
  -3  -7  -7   76.27    4.95
  -3  -7  -7   64.83    4.96
  -3  -7  -7   73.18    4.85
   3   7   7   77.40    4.83
  -3   3  -8  185.74   11.91
  -3   3  -8  194.51   11.63
   3  -3   8  205.01   12.65
  -3   3  -8  189.44   11.71
  -3   4  -7   81.65    5.51
  -3   4  -7   94.64    5.77
  -3   4  -7   75.32    5.25
  -3   4  -7   99.67    5.56
   4   2  -6   93.23    6.22
   4   2  -6   93.57    6.15
  -4  -2   6   75.17    4.68
   6   1   5   82.71    5.49
  -6  -1  -5   87.38    6.27
  -6  -1  -5  103.65    6.27
   4   7   1   40.91    3.79
   4   7   1   52.15    3.80
   4   7   1   58.07    3.53
   4   7   1   59.26    4.01
   4   7   1   49.64    3.66
   4   7   1   52.89    3.70
   4   7   1   46.14    3.60
   2   5  -6  153.10    8.52
  -2  -5   6  148.87    9.23
   2   5  -6  148.97    8.77
   2   5  -6  126.82    8.25
   6   2   5    0.11    1.64
   6   2   5   -1.65    1.61
  -6  -2  -5   -0.22    1.69
  -6  -2  -5   -1.99    1.82
   3   4  -6   14.04    1.51
   3   4  -6   15.11    2.07
  -3  -4   6   15.01    1.34
  -3  -4   6   13.09    1.54
  -3  -4   6   16.72    1.91
  -1   4  -8   89.84    5.89
   1  -4   8   95.96    6.27
  -1   4  -8   87.70    5.60
  -1   4  -8   92.34    6.00
   1  -4   8   96.50    6.44
  -1  -8  -6   91.70    6.11
   1   8   6   76.70    5.23
  -3   7   0  220.14   14.61
   3  -7   0  230.70   14.15
  -3   7   0  248.49   14.41
  -1  -2   9  428.49   25.04
  -1  -2   9  406.28   24.91
  -1  -2   9  415.28   24.84
   1   2  -9  391.02   24.23
   1   2  -9  416.32   24.24
   0   4  10   82.76    5.84
   0  -4 -10   82.05    5.43
   0   4  10   83.13    5.61
   0  -4 -10   83.53    5.55
  -5   4   2   64.46    4.33
   5  -4  -2   68.63    4.26
   5  -4  -2   61.88    4.38
   3   5  -5    1.23    0.98
   3   5  -5    0.37    1.12
  -3  -5   5    0.89    1.30
   2  -6  -7  140.18    9.07
  -2   6   7  133.85    8.35
  -2   6   7  134.62    8.47
  -2  -4   7  118.83    7.57
   2   4  -7  117.52    7.45
  -2  -4   7  109.58    7.23
   2   4  -7  113.81    7.22
  -2  -4   7  120.40    7.35
  -5   1  -7  156.15    9.02
  -5   1  -7  133.35    9.12
  -5   1  -7  140.34    9.21
   5  -1   7  147.74    9.35
   4  -5   4  123.73    7.69
  -4   5  -4  105.92    7.35
  -4   5  -4  111.75    7.32
  -4   5  -4  117.81    7.05
  -4  -7  -5   62.01    4.51
   4   7   5   64.96    4.78
   4   7   5   64.41    4.26
  -4  -7  -5   70.53    4.54
   4   7   5   58.49    4.36
   4   7   5   61.98    4.31
   2  -3  -9   31.87    2.46
  -2   3   9   28.72    2.76
  -2   3   9   27.67    2.68
   2  -3  -9   32.99    2.62
   3  -7  -2  142.54    9.00
  -3   7   2  133.02    8.61
   2  -5  -8   74.27    5.09
   2  -5  -8   68.63    4.32
  -2   5   8   71.57    4.68
  -2   5   8   64.73    4.78
   5   6   3    0.03    1.34
   5   6   3   -1.39    1.85
   5   6   3   -0.38    1.39
   5   6   3    0.16    1.67
  -5  -6  -3   -0.38    1.48
  -5  -6  -3   -0.40    1.21
   5   6   3   -1.04    1.96
   5   6   3   -0.04    1.40
  -5  -6  -3    1.55    1.98
   3   8   3   82.68    5.34
   3   8   3   71.33    4.77
   3   8   3   70.34    4.84
   3   8   3   64.37    4.72
   3   8   3   71.84    4.82
   3   8   3   69.84    4.87
  -3  -8  -3   69.35    4.81
   3   8   3   68.04    5.01
   0   5  -7    8.93    1.88
   0  -5   7    8.73    1.44
   0   5  -7    8.04    1.80
   1  -1  10  106.39    6.80
  -1   1 -10  107.46    6.88
  -1   1 -10   99.00    6.52
   1  -1  10  107.45    6.83
  -1   1 -10  106.38    6.88
   1  -1  10  100.89    6.74
   2  -7   3  123.94    4.52
  -2   7  -3  113.41    7.32
   2  -7   3  116.75    4.31
  -2  -6  -9  267.13   15.92
   2   6   9  244.19   15.42
  -2  -6  -9  287.68   15.90
   2   6   9  254.34   15.38
   4   0   9  190.36   11.34
  -4   0  -9  202.28   11.76
  -4   0  -9  177.50   11.87
   4   0   9  181.29   11.53
   5   2   8    1.15    1.36
  -5  -2  -8    1.69    1.86
   5   2   8    1.90    1.64
   5   2   8    2.67    1.85
  -5  -2  -8    0.99    0.35
  -5  -2  -8    3.39    1.96
   5   2   8    1.42    1.30
   0   4  -8   -0.07    0.80
   0  -4   8   -1.09    1.39
   0   4  -8    0.86    1.64
   0  -4   8    1.04    1.82
   4  -6   0  146.18    9.12
  -4   6   0  155.63    9.83
  -1   5  -7  337.11   20.02
  -1   5  -7  333.02   19.97
  -1   5  -7  320.11   19.90
  -4   3  -7  138.22    8.28
  -4   3  -7  139.43    8.59
  -4   3  -7  139.52    8.51
  -4   3  -7  125.43    8.28
   5   5  -1  126.09    8.47
   5   5  -1  131.51    8.16
   5   5  -1  124.44    8.20
   5   5  -1  130.30    8.24
   5   5  -1  132.81    7.94
  -5  -5   1  135.52    8.46
  -5  -5   1  129.73    8.45
  -5   3  -5  178.59   10.29
  -5   3  -5  152.44   10.01
  -5   3  -5  161.11   10.14
  -5   3  -5  168.98   10.26
  -1  -7  -8  182.74   10.19
   1   7   8  179.42   10.76
  -1  -7  -8  140.55   10.19
   1   7   8  180.70   10.78
   1   7   8  153.95   10.96
   5  -4   3  124.61    7.82
  -5   4  -3  140.38    8.58
  -5   4  -3  129.25    8.46
   5  -4   3  128.99    7.81
  -4   6   1  161.34   10.19
   4  -6  -1  152.69    9.53
   1  -8   1   63.80    4.74
   1  -8   1   69.93    4.73
  -1   8  -1   74.72    5.16
   4   6  -2   33.08    2.97
   4   6  -2   30.43    2.76
  -4  -6   2   34.35    2.84
   4   6  -2   32.62    2.52
   4   6  -2   30.84    2.70
   4   6  -2   28.41    2.22
   4   6  -2   32.17    2.62
   3  -6   4  109.35    6.96
  -3   6  -4   96.34    6.84
  -3   6  -4  114.73    6.82
  -1   5   9   13.28    1.81
   1  -5  -9   14.86    1.98
  -4  -4  -9  280.32   17.02
  -4  -4  -9  286.44   17.30
  -4  -4  -9  277.68   16.99
   4   4   9  286.96   17.40
  -4  -4  -9  277.56   16.76
   4   4   9  280.26   17.32
   3   8   2    1.44    1.94
   3   8   2    0.84    1.52
  -3  -8  -2   -0.77    1.53
   3   8   2    0.47    1.59
   3   8   2   -0.23    1.82
   3   8   2    0.12    1.41
   3   8   2   -1.69    1.35
   3   8   2    0.30    1.60
   5   6   2   -0.10    1.64
   5   6   2    0.62    1.67
  -5  -6  -2    1.22    1.92
   5   6   2    0.77    1.54
   5   6   2    0.36    1.69
  -5  -6  -2    0.30    1.10
   5   6   2    0.56    1.38
   5   6   2    1.37    1.43
   5   6   2   -1.12    1.60
   1  -2 -10    5.99    1.30
  -1   2  10    5.76    1.36
   1  -2 -10    8.34    1.41
  -1   2  10    7.02    1.68
   1  -2 -10    8.82    1.64
   5   6   4   19.32    2.60
   5   6   4   14.82    2.36
  -5  -6  -4   18.49    2.19
  -5  -6  -4   19.01    2.64
   5   6   4   17.26    2.28
   5   6   4   16.51    2.07
  -5  -6  -4   21.17    1.94
   5   6   4   18.60    1.89
   3   8   4   25.18    2.45
   3   8   4   21.84    2.40
   3   8   4   22.62    2.28
   3   8   4   24.04    2.33
   3   8   4   27.47    3.07
   3   8   4   24.43    2.70
  -3  -8  -4   24.78    2.41
   3   8   4   23.24    2.28
  -5  -1  -8   77.15    5.37
  -5  -1  -8   77.60    4.90
  -5  -1  -8   67.78    5.26
   5   1   8   58.69    4.39
   5   1   8   63.62    4.56
   5   1   8   66.22    4.33
   1  -1 -10   12.07    1.58
  -1   1  10   12.05    1.77
   1  -1 -10    8.81    1.36
  -1   1  10   11.51    1.23
  -1   1  10   12.68    1.88
   1  -1 -10   10.57    1.63
  -6   1   1    3.15    1.52
   6  -1  -1    4.01    1.35
  -6   1   1    3.23    1.62
  -6   1   1    3.54    1.05
  -6   1   1    4.12    1.19
   1  -7   4   83.86    5.19
  -1   7  -4   78.27    5.55
  -1   7  -4   87.36    5.65
   1  -7   4   87.56    5.86
   3   7  -2   87.58    6.29
  -3  -7   2   94.36    6.08
   3   7  -2  110.01    6.67
   3   7  -2  107.63    6.68
   3   7  -2   96.49    6.25
   3   7  -2  101.64    6.26
   3   7  -2   97.44    6.31
   3   7  -2  110.38    6.61
  -1   7   7  237.72   14.36
  -1   7   7  233.02   14.40
  -6   1  -4  237.70   14.11
  -6   1  -4  240.32   14.00
  -6   1  -4  217.64   13.80
  -6   1  -4  251.98   14.21
   6  -1   4  270.57   16.42
  -4   2  -8  110.32    6.78
   4  -2   8  109.73    7.08
  -4   2  -8  107.84    7.06
   2   8   6   11.85    1.91
  -2  -8  -6   11.33    1.95
   2   8   6   11.79    1.81
   2   8   6    9.55    1.34
   2   8   6   10.26    1.88
  -2  -8  -6   12.62    1.91
  -2  -7  -8  160.33   10.31
  -2  -7  -8  161.75   10.24
   2   7   8  165.74    8.10
   2   7   8  112.40    6.93
  -2  -7  -8  166.70   10.21
   1   7  -4   69.10    4.91
   1   7  -4   67.97    5.03
  -1  -7   4   73.68    5.31
   1   7  -4   74.36    5.06
   1   7  -4   74.32    4.50
  -1  -7   4   77.96    4.91
   4  -6   1  103.99    6.45
   4  -6   1  131.51    7.01
  -4   6  -1  121.48    7.90
   5   3   8  165.51    9.71
  -5  -3  -8  133.40    8.34
   5   3   8  150.12    9.48
   5   3   8  143.12    9.58
  -5  -3  -8  167.71    9.12
   6   0   5  243.24   14.85
  -6   0  -5  257.44   14.56
  -6   0  -5  225.17   14.06
  -6   0  -5  268.47   14.53
  -6  -2   1  260.66   10.76
   6   2  -1  257.82   15.69
  -6  -2   1  257.62   10.23
  -6  -2   1  222.27   10.42
  -6  -2   1  225.79   10.51
  -6  -3   0  164.75   10.00
   6   3   0  150.68    9.16
  -6  -3   0  214.27   10.07
  -6  -3   0  137.52    9.51
  -6  -3   0  190.01    9.80
   6   3   0  158.03    9.51
  -3   3   8   20.11    2.26
  -3   3   8   21.00    2.10
   3  -3  -8   20.97    1.96
  -6   2  -1  107.40    7.09
   6  -2   1  109.60    7.31
  -6   2  -1  118.07    7.30
   6  -2   1  137.03    7.54
  -3   7  -1  234.94   14.31
   3  -7   1  251.58   15.36
   6   3   5   61.86    4.81
   6   3   5   75.64    4.87
   6   3   5   60.58    4.66
   6   3   5   67.68    4.18
   6   3   5   73.13    4.36
  -6  -3  -5   80.44    5.61
   0   8   6  224.61   14.32
   0   8   6  245.00   14.39
   0  -8  -6  227.43   14.01
  -4   4  -6  295.24   19.52
  -4   4  -6  343.06   19.57
  -4   4  -6  343.18   19.84
  -4   4  -6  323.69   19.89
  -4   4  -6  350.45   19.79
   4  -6  -2  149.44    9.36
  -4   6   2  153.50    9.14
  -4   6   2  138.89    8.67
   1  -3   9   12.13    1.88
  -1   3  -9   10.11    1.41
   1  -3   9   13.90    1.82
  -1   3  -9   12.33    2.12
   1  -3   9   10.58    2.10
   0  -1  10  390.08   23.65
   0   1 -10  403.46   24.38
   0  -1  10  405.19   23.69
   0  -1  10  386.70   23.57
   2  -1  10    2.64    0.85
   2  -1  10    1.98    1.58
  -2   1 -10    0.65    1.40
   2  -1  10    2.29    1.60
  -2   1 -10    1.44    1.96
  -2  -6   5  239.96   14.35
   2   6  -5  239.53   14.08
  -2  -6   5  231.74   14.60
   2   6  -5  235.18   14.11
   2   6  -5  233.94   14.17
   2   6  -5  215.15   14.26
  -6   2  -2  244.83   15.48
   6  -2   2  206.90   13.52
   6  -2   2  268.49   13.80
  -6   2  -2  252.71   15.26
  -6   2  -2  258.67   15.36
   3  -7  -3   28.43    2.64
  -3   7   3   32.03    2.88
  -3   7   3   24.19    1.76
   0  -6  -9  101.96    6.25
   0   6   9   81.78    5.98
   0  -6  -9   89.96    6.12
   0   6   9   88.24    5.71
   0  -6  -9   87.67    6.31
   3   3  -7    1.75    1.60
  -3  -3   7    2.35    0.87
  -3  -3   7    3.18    1.49
   3   3  -7    1.61    1.25
  -3  -3   7    4.24    1.20
  -3   2  -9  144.94    9.17
   3  -2   9  153.84    9.50
   3  -2   9  148.30    9.53
  -3   2  -9  151.01    9.49
  -3   5  -6   54.04    3.50
  -3   5  -6   43.36    3.05
  -3   5  -6   46.26    3.58
   3   1  -8    7.10    1.14
  -3  -1   8    8.62    1.17
   3   1  -8    8.20    1.70
   3   1  -8    8.57    2.00
   0  -8   2   -0.17    1.80
   0  -8   2    1.02    1.60
   0   8  -2    2.44    1.76
  -3  -4 -10   98.33    6.45
   3   4  10   95.68    6.40
  -3  -4 -10   98.01    6.25
   1   5  10  154.23    6.74
   1   5  10  147.58    6.86
  -1  -5 -10  156.56    9.58
   1   5  10  151.26    6.64
  -1  -5 -10  148.48    9.61
   2   8  -1  352.01   23.79
  -2  -8   1  347.51   21.03
   2   8  -1  378.33   23.56
  -6  -4  -3  402.50   23.70
  -6  -4  -3  426.12   23.87
   6   4   3  389.68   24.42
   6   4   3  414.91   24.17
   6   4   3  404.32   24.22
  -6  -4  -3  352.52   23.98
  -5   3   4   24.31    2.05
   5  -3  -4   24.81    2.56
  -5   3   4   26.77    2.29
  -5   3   4   22.49    2.37
  -3   0 -10   19.79    2.26
  -3   0 -10   19.04    2.59
   3   0  10   20.64    2.36
   3   0  10   19.81    1.75
  -3   0 -10   18.18    2.22
   3   0  10   19.72    1.87
   3   0  10   18.89    2.22
   3   8   1    4.71    1.40
   3   8   1    3.79    1.49
   3   8   1    2.90    1.60
   3   8   1    5.35    2.00
  -3  -8  -1    6.60    1.76
   3   8   1    3.16    1.83
   3   8   1    1.90    1.36
  -5   0   5  101.84    6.47
  -5   0   5  103.66    6.70
   1  -3 -10   13.19    1.81
  -1   3  10   12.30    2.10
  -1   3  10   12.37    1.79
   1  -3 -10   10.87    1.56
   1  -3 -10   13.78    1.48
   1  -8  -5  267.58   15.95
  -1   8   5  307.79   18.69
  -6   2   0   98.61    6.58
   6  -2   0  102.83    6.54
  -6   2   0  100.84    6.38
  -3  -6   4   46.15    3.29
  -3  -6   4   41.43    3.56
   3   6  -4   43.96    3.15
   3   6  -4   43.79    3.24
   3   6  -4   46.78    3.59
   5   6   1    0.94    1.54
   5   6   1    1.99    0.55
   5   6   1    4.09    1.32
   5   6   1    2.32    1.88
   5   6   1    2.66    1.70
   5   6   1    0.76    1.65
   0  -6   6   19.31    1.76
   0   6  -6   18.38    2.23
   0   6  -6   18.93    2.26
   0  -6   6   20.23    2.50
   0   6  -6   20.49    2.29
  -6  -4  -2  206.81   13.97
  -6  -4  -2  233.30   13.62
  -6  -4  -2  230.24   13.79
   6   4   2  228.07   13.17
   6   4   2  233.10   13.15
  -2  -1   9   -3.93    1.87
   2   1  -9   -0.10    1.52
  -2  -1   9   -0.36    1.20
   2   1  -9    0.23    1.80
   2   1  -9    0.19    1.07
  -2  -1   9    0.15    1.44
  -4   1   7   -0.59    1.47
  -4   1   7    0.42    1.00
   4  -1  -7   -1.41    1.56
   2   3  -8  125.84    7.85
  -2  -3   8  127.60    7.20
  -2  -3   8  126.01    7.08
  -2  -3   8  129.40    7.42
   2   3  -8  119.31    7.66
  -5   1   5  104.57    6.34
  -5   1   5   93.65    6.63
   4   7   0   -0.04    1.25
   4   7   0    1.88    1.13
   4   7   0    0.32    1.57
   4   7   0    2.62    1.83
   4   7   0    0.42    1.38
   4   7   0   -0.06    1.80
   4   7   0    0.04    1.34
  -5  -6  -5    2.00    2.11
   5   6   5    3.67    1.35
   5   6   5    2.90    1.78
  -5  -6  -5    3.18    1.32
   5   6   5    2.72    2.06
   5   6   5    5.04    2.20
  -5  -6  -5    2.97    1.26
  -5  -6  -5    2.84    1.64
   5   6   5    2.85    1.68
   0   3  -9   27.27    1.99
   0  -3   9   41.78    3.30
   0  -3   9   46.48    3.53
   0   3  -9   47.11    3.00
   0  -3   9   41.97    3.26
   2  -4   8  108.20    7.10
  -2   4  -8  103.32    6.89
  -2   4  -8  112.04    7.05
  -2   4  -8  119.98    7.29
   2   5  10   40.03    3.36
   2   5  10   29.92    2.99
   2   5  10   35.44    3.06
  -2  -5 -10   33.21    2.89
  -2  -5 -10   33.57    2.72
   2   5  10   31.26    2.23
  -2  -5 -10   30.90    2.87
   0   7   8    0.79    1.40
   0  -7  -8    0.58    2.03
   0  -7  -8   -0.06    1.56
   0   7   8    0.37    1.60
   0  -7  -8   -0.28    1.62
   3   8   5   42.84    3.38
  -3  -8  -5   49.15    3.69
  -3  -8  -5   49.10    3.68
   3   8   5   41.68    3.25
   3   8   5   43.87    3.39
   3   8   5   52.24    4.14
   3   8   5   48.34    3.75
  -1  -8   2  188.08   11.51
   1   8  -2  170.64   11.99
   1   8  -2  223.20   12.16
  -1  -8   2  195.78   11.86
  -1   0  10    0.37    0.29
   1   0 -10    0.88    1.28
  -1   0  10    0.15    1.28
   1   0 -10    1.10    1.44
  -1   0  10   -1.15    1.82
   2  -8  -1  129.37    7.60
  -2   8   1  127.44    7.96
  -2   8   1  121.83    8.22
   2  -8  -1  105.93    7.36
  -2   8   2   45.76    3.79
  -2   8   2   43.85    3.38
   2  -8  -2   50.05    3.71
   2  -8  -2   45.08    3.43
   4   0  -7    6.01    1.70
  -4   0   7    4.65    0.99
  -4   0   7    4.57    1.57
  -4   0   7    5.91    0.78
   4   0  -7    5.16    1.96
  -1   6  -6  234.31   14.35
  -1   6  -6  234.45   14.30
   1  -6   6  255.15   13.79
   1  -6   6  207.94   13.28
  -1   6  -6  230.14   14.33
   6   4   4  430.76   24.26
   6   4   4  450.94   24.47
   6   4   4  385.18   24.12
   6   4   4  404.29   24.60
  -6  -4  -4  412.23   25.90
  -6  -4  -4  442.15   25.61
  -6  -4  -4  423.91   25.72
  -4  -7  -6    9.97    1.74
  -4  -7  -6   11.92    1.70
  -4  -7  -6    9.06    1.92
   4   7   6    8.26    1.49
   4   7   6    8.25    1.75
  -5  -5  -7  432.74   25.22
   5   5   7  405.09   25.79
  -5  -5  -7  385.98   25.10
  -5  -5  -7  440.71   24.97
   5   5   7  444.55   25.73
   5   5   7  429.65   25.49
  -5  -5  -7  412.52   24.99
  -6   0   2   30.71    2.77
   6   0  -2   33.97    2.65
  -6   0   2   31.41    2.23
   6   0  -2   36.69    2.81
  -1  -5   7   93.29    6.00
   1   5  -7  100.78    6.79
   1   5  -7  105.68    6.69
  -5   0  -8   61.83    4.06
   5   0   8   57.33    3.98
   5   0   8   53.77    4.15
  -5   0  -8   54.60    4.50
  -5   0  -8   61.04    4.47
  -4  -4   5  157.90   10.33
   4   4  -5  196.05    7.74
   4   4  -5  207.67    7.04
  -4  -4   5  196.67   10.68
   2  -7  -6  164.65   10.88
  -2   7   6  171.48   10.70
   2  -7  -6  190.09   11.19
   5  -4  -3   20.66    2.41
  -5   4   3   19.83    2.02
  -3   5   7  178.72   10.69
   3  -5  -7  186.04   11.74
  -3   5   7  160.84   10.68
  -3   5   7  182.71   10.81
  -3   5   7  186.56   11.09
  -6   2  -3  145.94    9.00
  -6   2  -3  139.28    9.12
   6  -2   3  123.79    8.03
   6  -2   3  164.63    8.44
  -6   2  -3  148.43    8.87
   4  -6   2   39.04    2.59
   4  -6   2   52.56    3.24
  -4   6  -2   54.97    3.71
  -4   6  -2   51.28    4.06
   5   4  -3  142.84    8.46
   5   4  -3  129.00    8.61
  -5  -4   3  144.41    9.43
  -5  -4   3  154.47    9.25
  -5  -4   3  147.59    9.34
  -4   4   6  125.19    7.99
  -4   4   6  126.26    7.96
  -4   4   6  135.29    8.26
   4  -4  -6  147.53    9.45
  -6  -1   2  145.05    8.18
   6   1  -2  128.57    8.10
  -6  -1   2  127.66    7.93
  -6  -1   2  117.94    7.65
   6   2   6   17.99    1.68
  -6  -2  -6    8.75    0.72
  -6  -2  -6   13.56    2.15
   6   2   6   12.90    2.12
  -2   5  -7   74.94    5.18
  -2   5  -7   72.24    4.97
  -4   2   7    2.44    1.47
   4  -2  -7    4.31    1.61
  -4   2   7    2.00    1.58
  -5  -1   5   26.98    2.19
  -5  -1   5   30.82    2.72
   5   1  -5   27.55    2.88
   5   1  -5   30.64    2.74
   2  -4  -9    8.61    1.27
   2  -4  -9    7.30    1.54
  -2   4   9    6.53    1.95
   4   5  -4   97.51    5.56
  -4  -5   4   94.11    6.18
   4   5  -4   88.60    5.35
   4   5  -4   96.15    5.76
   4   5  -4   98.91    5.53
   6   1   6  244.84   14.96
  -6  -1  -6  296.20   18.07
  -1  -4   8  141.65    9.09
   1   4  -8  140.11    9.12
   1   4  -8  148.19    9.06
  -1  -4   8  150.07    9.32
  -1  -4   8  147.19    9.11
  -6  -4  -1  233.97   14.11
   6   4   1  246.54   12.80
  -6  -4  -1  225.77   13.81
   6   4   1  249.36   12.64
   6   4   1  218.94   12.43
  -6  -4  -1  233.04   14.01
  -6  -4  -1  237.55   14.24
   4  -5  -5   13.18    1.81
  -4   5   5   13.94    1.83
   4  -5  -5   13.45    2.38
  -4   5   5   14.72    1.66
   5  -4   4   11.18    1.38
   5  -4   4   10.12    1.52
  -5   4  -4   14.08    2.07
  -5   4  -4    9.49    1.78
   2  -3   9   64.15    4.58
  -2   3  -9   67.82    4.54
  -2   3  -9   56.01    4.05
   2  -3   9   64.87    4.62
   2  -8   0  141.80   10.06
   2  -8   0  179.56   10.08
  -2   8   0  150.09    9.43
  -2   8   0  149.18    9.65
  -5  -3   4   52.17    3.55
   5   3  -4   49.40    3.94
   5   3  -4   47.99    3.52
  -5  -3   4   50.58    3.52
  -5  -3   4   53.32    3.85
  -5  -3   4   49.21    3.19
   3   6   9   -0.88    2.03
  -3  -6  -9   -0.57    1.69
  -3  -6  -9   -0.05    1.83
  -3  -6  -9   -0.55    1.45
  -3  -6  -9    0.33    1.50
   3   6   9   -0.56    1.78
  -5  -4  -8  434.52   25.03
   5   4   8  396.65   23.05
   5   4   8  400.05   22.94
  -5  -4  -8  412.00   24.71
  -5  -4  -8  421.15   24.45
   5   4   8  343.53   22.99
  -5  -4  -8  386.66   24.55
  -2   8   3   -2.52    2.18
   2  -8  -3    0.39    1.36
   2  -8  -3    0.86    1.65
  -2   8   3   -0.43    1.61
  -4   6   3   67.88    4.36
   4  -6  -3   63.65    4.44
  -1   8  -2  159.18   10.04
   1  -8   2  155.54    9.39
   1  -8   2  139.75    9.41
  -6   2   1   68.22    4.32
  -6   2   1   59.10    4.60
  -6   2   1   67.34    4.59
   6  -2  -1   63.19    4.26
  -6   2   1   65.62    4.37
  -3   7  -2   13.88    1.95
   3  -7   2   10.93    1.88
  -4  -6  -8   46.02    3.45
   4   6   8   43.38    3.72
  -4  -6  -8   46.36    3.29
  -4  -6  -8   41.53    3.36
   4   6   8   35.54    3.10
   4   6   8   39.66    3.54
  -6   1   2    2.44    1.51
  -6   1   2    0.87    1.06
   6  -1  -2    0.94    1.35
   6  -1  -2    0.90    1.30
  -6   1   2   -1.23    1.66
  -4   1  -9  123.09    8.03
  -4   1  -9  155.73    8.53
   4  -1   9  154.01    9.66
   3  -6  -6   19.64    2.67
  -3   6   6   16.04    2.05
  -3   6   6   17.15    1.62
   3  -6  -6   19.47    2.13
  -5   2   5  141.11    8.78
  -5   2   5  148.75    9.05
  -5   2   5  148.66    9.10
  -1  -2 -11  272.82   16.34
   1   2  11  282.96   16.75
   1   2  11  282.06   16.72
   1   2  11  262.74   16.90
  -1  -2 -11  259.89   16.17
   0  -5 -10  135.05    8.61
   0   5  10  134.47    8.62
   0   5  10  127.76    8.52
   6  -1   5   31.87    2.85
  -6   1  -5   36.60    3.16
  -6   1  -5   36.82    2.95
  -1  -8  -7   28.65    3.08
  -1  -8  -7   30.66    2.77
   1   8   7   25.35    2.45
  -3   7   4   13.22    2.00
   3  -7  -4   22.00    2.34
  -3   7   4   15.40    1.34
  -6  -3   1  145.45    8.75
  -6  -3   1  145.69    8.99
  -6  -3   1  136.11    8.89
   6   3  -1  132.67    8.09
   1   6  -6   70.01    4.86
   1   6  -6   71.89    4.79
   1   6  -6   66.30    4.87
  -1  -6   6   62.32    4.18
   4   5   9  161.73    9.57
   4   5   9  147.19    9.23
  -4  -5  -9  132.14    9.49
  -4  -5  -9  159.72    9.62
  -4  -5  -9  158.66    9.65
  -4  -5  -9  156.92    9.41
  -4  -5  -9  162.00    9.97
   4   5   9  135.98    9.51
   3   8   0   29.22    2.69
   3   8   0   26.55    2.82
   3   8   0   23.50    2.19
   3   8   0   20.55    2.45
   3   8   0   24.54    2.10
   3   8   0   20.50    2.20
   3   8   0   22.55    2.12
   6   3   6   62.58    4.35
   6   3   6   58.64    3.95
   6   4   5  419.73   22.37
  -6  -4  -5  409.96   24.48
  -6  -4  -5  402.20   24.59
  -6  -4  -5  418.04   24.83
   6   4   5  341.15   22.31
   6   4   5  402.65   22.81
   6   4   5  356.95   22.60
   4   3  -6  238.52   14.69
  -4  -3   6  233.04   13.88
  -4  -3   6  218.75   13.84
  -4  -3   6  250.29   14.18
   4   1  -7    9.04    1.89
  -4  -1   7    7.50    0.92
   4   1  -7    8.15    1.99
   5   6   0   70.30    5.01
   5   6   0   69.19    4.98
   5   6   0   80.84    5.13
   5   6   0   76.10    5.35
   5   5  -2  379.94   19.18
   5   5  -2  313.85   19.22
   5   5  -2  353.01   19.25
  -5  -5   2  377.77   21.70
  -5  -5   2  340.72   21.73
   5   5  -2  288.51   18.85
  -5   5   0  335.06   20.26
   5  -5   0  308.18   18.37
   5  -5   0  308.23   18.57
  -3  -7  -8    8.49    1.64
  -3  -7  -8    7.61    1.79
  -3  -7  -8    6.82    2.01
   3   7   8    8.45    1.36
   3   7   8    6.33    2.29
  -3  -7  -8    7.50    1.89
  -4   5  -5   25.09    2.57
  -4   5  -5   24.53    2.76
  -4   5  -5   29.39    2.30
   2   2  11   95.10    6.03
   2   2  11   91.02    6.30
   2   2  11   93.93    6.02
  -2  -2 -11   94.45    6.38
  -5  -6  -6    5.19    1.47
   5   6   6    6.36    1.39
  -5  -6  -6    5.27    2.22
  -5  -6  -6    4.86    1.43
   5   6   6    3.37    2.24
  -5  -6  -6    4.61    1.71
  -1  -1 -11  325.80   19.84
   1   1  11  348.83   19.94
   1   1  11  328.64   19.71
   1   1  11  313.73   19.95
   1  -4 -10   43.63    3.39
  -1   4  10   47.89    3.89
  -5   2  -7   70.36    4.22
  -5   2  -7   70.39    4.11
   5  -2   7   65.02    4.69
  -5   2  -7   71.74    3.81
  -1  -3 -11   51.63    3.76
   1   3  11   51.66    3.54
   1   3  11   50.16    3.99
  -1  -3 -11   52.48    3.91
   1   3  11   49.88    3.69
  -5   5  -1  209.99   12.86
  -5   5  -1  207.78   12.93
   5  -5   1  200.48   13.34
   5  -5   1  232.96   13.21
  -3   4   8    1.89    1.35
   3  -4  -8    0.97    1.19
  -3   4   8    1.67    1.34
  -3   4   8    0.36    1.76
  -3   4   8    0.92    1.00
  -2   7  -4  247.81   14.74
   2  -7   4  225.72   11.43
  -2   7  -4  230.78   14.58
   2  -7   4  173.41   10.71
  -6  -2   2  248.39   14.95
  -6  -2   2  261.78   15.13
  -6  -2   2  235.02   14.69
  -6  -2   2  250.48   14.92
   6   2  -2  250.23   15.24
  -6   0  -6   63.33    4.54
  -6   0  -6   56.54    3.85
  -6   0  -6   63.64    4.31
   6   0   6   61.28    4.43
  -6   0  -6   70.79    4.58
  -2  -8  -7   89.00    5.78
  -2  -8  -7   81.56    5.74
   2   8   7   67.84    5.62
   2   8   7   82.34    5.29
   2   8   7   74.21    4.71
   2   8   7   84.85    5.32
  -3  -8  -6   91.37    6.17
   3   8   6   86.02    5.87
   3   8   6   90.05    5.84
  -3  -8  -6   93.03    6.11
   3   8   6   88.53    5.68
   1   9   3  160.20   10.07
   1   9   3  153.05    9.79
   1   9   3  155.92    9.51
  -1  -9  -3  154.59    9.10
  -1  -9  -3  134.06    8.75
  -1   2 -10    1.68    1.92
   1  -2  10    1.91    0.49
   1  -2  10    3.52    1.53
   1  -2  10    2.00    1.66
  -1   2 -10    3.80    1.26
   1  -2  10    4.62    1.84
   1   9   2  129.72    7.84
   1   9   2  127.04    8.18
   1   9   2  125.75    8.49
  -1  -9  -2  131.81    8.27
  -5   3  -6   48.79    3.43
  -5   3  -6   46.25    3.81
  -5   3  -6   48.11    3.72
  -5   3  -6   48.27    3.64
  -5   3  -6   48.67    3.09
  -6   2  -4   39.06    2.82
  -6   2  -4   38.91    3.19
  -6   2  -4   36.71    3.02
   6  -2   4   19.54    1.29
  -6   2  -4   40.35    2.96
   5  -5  -1  199.34   12.25
   5  -5  -1  200.50   12.03
   4   2  10   41.56    2.95
  -4  -2 -10   29.11    2.83
  -4  -2 -10   38.50    3.26
   4   2  10   33.47    3.08
   2   3  11  149.06    9.51
  -2  -3 -11  139.20    8.75
  -2  -3 -11  137.57    8.81
   2   3  11  158.61    9.34
   2   3  11  141.85    9.14
   2   7  -4  173.27   10.37
  -2  -7   4  168.71   10.84
  -2  -7   4  194.59   11.22
   2   7  -4  160.29   10.34
   2   7  -4  166.90   10.50
  -2   8  -1  107.98    7.05
   2  -8   1   96.65    6.23
   2  -8   1   89.38    6.21
  -3  -5 -10   65.63    4.42
  -3  -5 -10   62.66    4.58
   3   5  10   53.14    4.18
   3   5  10   55.88    4.08
   3   2  -8    1.19    1.62
   3   2  -8    0.70    0.96
  -3  -2   8    1.36    1.20
  -3  -2   8    1.21    1.56
   3   2  -8    1.97    1.83
   2   1  11   83.04    5.64
   2   1  11   80.28    5.45
   2   1  11   83.82    5.32
  -2  -1 -11   85.17    5.87
  -2  -1 -11   84.42    5.93
  -2  -1 -11   91.97    6.22
   6   4   0  221.62   12.85
   6   4   0  220.51   12.79
  -6  -4   0  214.86   12.56
  -6  -4   0  221.78   12.33
   6   4   0  185.18   12.52
   6   4   0  222.71   12.50
   4   7  -1    3.79    1.38
   4   7  -1    4.59    1.97
   4   7  -1    2.38    1.21
   4   7  -1    4.39    1.18
  -4  -7   1    2.99    1.50
   4   7  -1    2.10    1.42
   4   7  -1    5.73    1.52
   4   7  -1    5.58    1.90
   4   7  -1    4.71    1.73
  -1  -1  10  107.06    6.76
   1   1 -10  113.82    6.88
  -1  -1  10   97.89    6.46
   1   1 -10   96.87    7.01
   3  -1  10   91.00    6.00
  -3   1 -10   89.60    6.12
   3  -1  10   88.39    6.06
   3  -1  10   91.54    6.04
  -3   1 -10   97.60    6.49
   2  -8  -4   10.83    1.96
  -2   8   4    9.35    1.83
  -2   8   4    7.42    0.84
   2  -8  -4   13.28    1.58
   4   6  -3   88.37    5.65
   4   6  -3   83.98    5.34
   4   6  -3   89.93    5.59
   4   6  -3   82.66    5.80
  -4  -6   3   90.73    5.99
   4   6  -3   86.57    5.92
   4   6  -3   84.38    5.65
  -3   6  -5   23.77    2.57
   3  -6   5   25.33    2.75
  -3   6  -5   26.88    2.46
   0   9   2   15.13    2.15
   0  -9  -2   15.19    1.92
   0   9   2   10.95    0.99
   0   9   2   11.27    2.56
   0   9   2   16.29    2.03
  -4   3   7   15.59    1.94
  -4   3   7   15.95    1.65
  -4   3   7   19.37    2.18
   4  -3  -7   17.77    2.01
   1  -8  -6  159.66    9.52
  -1   8   6  273.37   15.88
  -1   8   6  246.78   15.78
   1   3  -9  318.55   18.67
  -1  -3   9  310.48   18.96
   1   3  -9  297.52   18.61
  -1  -3   9  311.84   18.80
   4   3  10   31.57    2.88
   4   3  10   32.41    2.76
  -4  -3 -10   34.14    3.37
  -4  -3 -10   32.39    2.48
   2  -6   6   78.59    5.52
  -2   6  -6   88.96    5.82
  -2   6  -6   82.09    5.89
   0   9   3   29.06    2.00
   0  -9  -3   30.74    2.47
   0   9   3   28.98    2.74
   0   9   3   24.07    3.07
  -4   6  -3    5.61    1.47
  -4   6  -3    8.20    2.11
   4  -6   3    5.29    0.84
   4  -6   3    8.44    1.65
   0  -8  -7  183.79   11.84
   0   8   7  161.23   10.61
   0  -8  -7  189.82   11.71
   0   8   7  178.70   10.64
  -2  -8   2  176.83   10.75
   2   8  -2  196.56   11.45
  -2  -8   2  174.05   11.03
   2   8  -2  172.23   11.23
   2   8  -2  199.62   11.62
   0   7  -5   51.76    3.91
   0   7  -5   52.32    3.96
   0   7  -5   50.79    3.94
   0  -7   5   51.14    3.40
   0  -7   5   49.50    4.00
  -1  -9  -4  249.01   15.35
   1   9   4  249.52   15.38
   1   9   4  242.96   15.57
   1   9   4  249.27   15.14
   1   9   4  263.86   15.42
   5   2  -5   38.27    3.08
   5   2  -5   36.33    3.37
  -5  -2   5   35.06    2.59
   3   7  -3  126.40    7.75
   3   7  -3  120.81    7.87
  -3  -7   3  111.47    7.01
   3   7  -3  128.19    8.07
  -3  -7   3  107.49    7.22
   3   7  -3  118.49    7.71
   3   7  -3  124.01    8.02
   0  -2 -11   11.69    2.38
   0   2  11   12.70    1.95
   0  -2 -11   14.46    1.96
   0  -2 -11   13.59    1.76
   0   2  11   14.70    2.17
   0   2  11   16.66    1.73
  -6   3  -1  185.49   11.33
   6  -3   1  163.62   10.56
  -6   3  -1  180.49   11.47
   6  -3   1  185.94   10.64
   4   1  10   69.84    5.14
   4   1  10   81.45    5.05
  -4  -1 -10   81.69    5.34
  -4  -1 -10   74.97    5.47
   4   1  10   80.10    5.29
  -4  -7  -7    0.94    1.71
  -4  -7  -7    3.89    1.59
   4   7   7    2.83    1.32
  -4  -7  -7    2.49    1.53
  -5   5  -2  180.42   10.76
   5  -5   2  182.53   11.08
  -5   5  -2  162.25   10.78
   5  -5   2  186.37   11.29
  -1  -9  -1  132.20    8.36
   1   9   1  141.50    8.49
   1   9   1  138.82    8.09
   1   9   1  114.92    8.35
   0   8  -3   12.21    2.08
   0  -8   3   10.71    2.14
   0  -8   3   10.63    1.22
   0  -2  10  325.88   19.90
   0  -2  10  323.60   19.96
   0   2 -10  326.33   19.84
   0  -2  10  344.96   20.07
  -2  -2   9    7.05    1.51
  -2  -2   9    5.50    2.04
   2   2  -9    7.17    1.94
  -2  -2   9   10.20    1.80
  -2  -2   9    9.40    1.46
   2   2  -9   10.12    1.85
   2   2  -9   13.75    2.29
  -5   1  -8   65.62    4.88
  -5   1  -8   66.00    4.72
   5  -1   8   70.82    5.04
  -6   2   2   21.17    2.31
   6  -2  -2   21.16    2.02
  -6   2   2   18.17    1.92
  -6   2   2   23.65    2.33
  -6   2   2   23.08    2.01
   6  -2  -2   21.59    2.19
   0   9   1    7.33    1.93
   0   9   1   15.82    2.13
   0  -9  -1   15.09    1.94
   0  -9  -1   11.31    2.11
   1  -6  -9    7.28    1.70
   1  -6  -9    6.53    1.76
  -1   6   9    5.42    1.77
  -1   6   9    5.13    1.43
  -2   6   8  107.66    6.88
  -2   6   8  104.51    6.73
   2  -6  -8   66.73    4.31
   2  -6  -8  112.34    5.55
   6  -3   0  106.00    6.06
   6  -3   0   85.39    5.96
  -6   3   0   88.52    5.81
   2  -2  10   55.66    3.98
   2  -2  10   49.90    3.89
  -2   2 -10   49.25    4.11
  -2   2 -10   53.66    3.73
   6  -3   2  102.58    6.62
  -6   3  -2  104.25    6.45
   6  -3   2  113.52    6.79
  -6   3  -2  118.23    6.68
   0   1  11  102.90    6.93
   0   1  11  113.80    6.95
   0  -1 -11  114.79    7.35
   0  -1 -11  106.09    7.03
   0   1  11  106.45    6.59
   4  -6  -4   30.42    2.69
  -4   6   4   27.16    2.47
  -4   6   4   26.37    2.13
  -5   4   4    7.64    1.50
  -5   4   4   11.94    1.63
   5  -4  -4    9.22    2.12
   1   7   9  142.70    8.49
   1   7   9  119.37    8.63
  -1  -7  -9  143.24    8.88
  -1  -7  -9  123.41    8.95
  -1  -7  -9  149.97    8.95
  -5  -2  -9  174.42    7.87
   5   2   9  173.24   11.13
   5   2   9  173.34   11.09
   5   2   9  190.98   11.34
   5   2   9  188.72   11.26
  -5  -2  -9  191.09    8.10
  -5   5   2  168.49   10.32
   5  -5  -2  147.36    9.19
  -6  -5  -3   33.81    2.53
  -6  -5  -3   27.48    3.14
  -6  -5  -3   35.12    2.79
   6   5   3   30.99    2.98
   6   5   3   30.24    2.74
   6   5   3   34.62    2.60
   6   5   3   29.85    2.98
   1  -7   5  200.95   11.20
   1  -7   5  169.04   10.55
  -1   7  -5  210.57   12.11
  -1   7  -5  178.99   11.99
  -1   7  -5  192.34   12.08
   6   0  -3   47.21    3.47
  -6   0   3   32.70    1.94
  -6   0   3   25.93    1.90
   2   9   3    3.26    1.70
   2   9   3    1.77    1.51
   2   9   3    0.89    1.36
   2   9   3    1.14    1.79
   2   9   3   -1.68    2.13
  -2  -9  -3    1.79    1.62
   2   9   3    0.81    1.59
  -1   0 -11  376.59   22.98
   1   0  11  359.30   22.33
   1   0  11  391.11   22.39
  -1   0 -11  378.38   22.89
   1   0  11  368.15   22.05
  -1   7   8  101.69    6.47
   1  -7  -8  107.46    7.04
  -1   7   8   94.61    6.34
   0  -3 -11   14.38    1.87
   0   3  11   13.61    2.23
   0   3  11   13.95    1.74
   0  -3 -11   15.60    2.09
   0   3  11   11.84    1.81
   1   4  11   -0.76    1.97
  -1  -4 -11    0.06    1.60
  -1  -4 -11    0.91    1.54
   1   4  11    2.42    2.06
   1   4  11    0.52    1.13
   1   4  11   -1.27    1.69
  -5   3   5   43.30    3.13
  -5   3   5   48.03    3.39
   5  -3  -5   47.62    3.85
  -5   3   5   46.07    3.49
   0   9   4   22.05    2.92
   0  -9  -4   25.23    2.10
   6   4   6  344.71   22.09
   6   4   6  349.27   21.82
   6   4   6  369.63   22.08
  -6  -4  -6  361.88   21.62
  -6  -4  -6  332.11   21.90
   6   4   6  383.90   21.73
  -6  -4  -6  378.32   21.75
   3  -7   3   87.17    5.62
   3  -7   3   79.19    5.78
  -3   7  -3   86.16    5.75
   2   7   9  244.24   15.25
  -2  -7  -9  248.44   15.54
  -2  -7  -9  256.03   15.49
   1   6  10  284.30   17.39
  -1  -6 -10  267.80   16.66
  -1  -6 -10  268.58   16.79
   1   6  10  280.87   17.38
  -1  -6 -10  284.70   16.76
   1   8  -3   27.97    2.79
  -1  -8   3   25.43    2.04
  -1  -8   3   23.92    2.62
   1   8  -3   26.43    2.75
   1   8  -3   23.86    2.43
   2   9   2    2.91    1.84
  -2  -9  -2    4.04    1.72
   2   9   2    5.72    2.22
   2   9   2    4.15    1.59
   2   9   2    4.69    1.78
   2   9   2    4.53    1.63
   2   9   2    3.16    1.34
  -6  -5  -2    9.86    1.73
   6   5   2    9.29    1.99
   6   5   2   11.64    1.68
   6   5   2    7.39    1.57
  -6  -5  -2   11.07    1.35
   6   5   2   12.88    2.07
   6   5   2    8.28    1.19
  -6  -5  -2   12.06    2.26
   6   2   7   73.15    4.90
   6   2   7   65.68    4.87
   6   2   7   68.61    4.59
  -6  -2  -7   62.37    4.74
   6   5   4   14.75    2.35
   6   5   4   13.53    1.11
  -6  -5  -4   17.92    1.75
  -6  -5  -4   13.57    2.49
   6   5   4   14.87    1.68
   6   5   4   14.98    2.26
   6   5   4   12.22    1.94
   6   5   4   14.70    2.02
  -6  -5  -4   15.66    2.05
  -2  -4 -11   99.58    6.44
   2   4  11  102.21    6.19
   2   4  11   87.75    5.76
   2   4  11   89.06    6.35
  -2  -4 -11   96.04    6.51
  -3   4  -8   76.96    5.42
  -3   4  -8   78.07    5.13
  -3   4  -8   73.87    5.07
   3  -4   8   83.48    5.75
  -4   3  -8   87.89    6.15
  -4   3  -8   96.71    5.95
   5   5   8  494.07   28.15
   5   5   8  454.88   28.46
  -5  -5  -8  480.45   27.99
  -5  -5  -8  471.69   27.77
   5   5   8  481.88   28.35
  -5  -5  -8  463.53   27.84
  -5  -5  -8  458.82   28.32
  -5  -5  -8  451.94   28.03
   5   5   8  438.77   28.43
  -5  -3  -9   -0.11    0.81
   5   3   9   -3.28    2.10
   5   3   9   -1.22    1.75
  -5  -3  -9   -1.04    2.13
   5   3   9   -0.44    1.50
  -5   4  -5   52.89    3.81
  -5   4  -5   42.38    3.52
  -5   4  -5   45.84    3.62
  -5   4  -5   46.75    3.09
  -6  -1   3  141.36    8.25
  -6  -1   3  154.46    8.51
   6   1  -3  145.99    9.13
   2   9   4   16.61    2.65
   2   9   4   15.84    1.92
   2   9   4   17.31    2.20
  -2  -9  -4   18.26    2.31
   2   9   4   18.54    1.96
   2   9   4   17.61    2.23
   3   5  -6   13.95    1.55
   3   5  -6   13.35    2.21
  -3  -5   6   13.84    1.86
   3   5  -6   11.51    1.05
  -2  -6 -10   76.34    5.17
  -2  -6 -10   76.41    5.25
   2   6  10   73.51    4.08
   2   6  10   73.86    4.39
  -2  -6 -10   74.28    5.36
   2   6  10   72.76    4.06
   5   1   9   31.39    2.96
  -5  -1  -9   34.89    2.77
   5   1   9   33.46    3.23
  -5  -1  -9   41.00    3.04
  -5  -1  -9   43.00    2.30
   5   1   9   35.76    2.95
   5   1   9   40.07    2.78
   3  -1  -9  117.71    7.12
  -3   1   9  119.04    7.72
   3  -1  -9  106.94    6.94
  -3   1   9  121.81    7.49
   4   8   3  132.66    8.34
   4   8   3  138.52    8.64
  -4  -8  -3  143.91    9.13
   4   8   3  150.97    8.46
   4   8   3  123.22    8.22
   4   8   3  132.25    8.34
   4   8   3  116.53    8.38
   4   8   3  128.77    8.39
   1   7  -5   18.16    2.26
  -1  -7   5   20.09    1.85
   1   7  -5   20.80    2.25
  -1  -7   5   22.17    2.59
   1   7  -5   19.09    2.46
   1   7  -5   21.83    2.42
   3   8  -1    3.84    2.03
   3   8  -1    2.46    1.43
   3   8  -1    1.82    1.26
   3   8  -1   -1.97    1.96
   3   8  -1    0.04    1.16
   3   8  -1    1.07    1.92
   3   8  -1    1.63    1.35
  -6   1   3    1.24    1.49
   6  -1  -3    0.26    1.54
  -6   1   3    2.00    1.70
   6  -1  -3    2.31    1.42
  -6   1   3    0.12    0.96
  -6   1   3    1.29    0.83
  -6  -1  -7  154.16   10.27
   6   1   7  137.54    8.72
   6   1   7  135.83    8.52
  -6  -1  -7  166.76   10.26
  -3   7   5    7.42    1.83
   3  -7  -5   12.37    1.97
  -3   7   5    9.69    1.25
  -4   4  -7  237.47   15.05
  -4   4  -7  268.85   14.92
  -4   4  -7  230.85   14.82
  -4   4  -7  256.93   15.19
  -4  -4 -10  262.96   16.19
   4   4  10  267.71   16.03
  -4  -4 -10  265.69   16.45
  -4  -4 -10  276.33   16.45
  -4  -4 -10  279.68   16.75
   4   4  10  253.20   16.10
   2   0  11    2.23    1.68
  -2   0 -11    3.04    2.25
   2   0  11    1.96    1.64
  -2   0 -11    2.62    1.91
  -2   0 -11    1.51    1.77
  -4  -2   7   33.18    2.47
  -4  -2   7   17.55    1.34
   4   2  -7   31.90    2.37
   4   2  -7   31.46    2.41
  -1  -9  -5   79.31    5.55
   1   9   5   69.10    5.03
   1   9   5   75.01    5.04
   1   9   5   66.67    4.98
   1   9   5   79.12    5.52
   2  -2 -10  179.86   11.00
  -2   2  10  162.94    9.73
   2  -2 -10  178.56   11.04
  -2   2  10  151.20    9.56
   2  -5  -9   20.32    1.65
  -2   5   9   20.93    2.22
  -2   5   9   20.91    2.66
   2  -5  -9   23.73    2.30
   2  -1 -10   88.10    6.02
   2  -1 -10   91.78    5.62
   2  -1 -10   78.55    5.53
  -2   1  10   65.29    4.34
  -2   1  10   81.24    4.72
   1  -8   3  216.50    9.71
   1  -8   3  215.00    9.85
  -1   8  -3  214.71   13.28
   5   6  -1  154.63    9.58
   5   6  -1  160.86    9.25
  -5  -6   1  151.17    9.57
   5   6  -1  147.65    9.57
   5   6  -1  140.04    9.79
   5   6  -1  145.99    9.55
  -4  -8  -4  422.67   25.43
   4   8   4  437.50   24.29
   4   8   4  386.83   24.18
   4   8   4  387.83   24.23
   4   8   4  410.95   24.31
   4   8   4  419.97   24.54
   4   8   4  409.60   24.31
   4   8   4  382.10   24.21
  -3   2   9   41.07    3.08
   3  -2  -9   35.33    2.87
  -3   2   9   39.32    3.18
   3  -2  -9   42.50    2.98
  -3  -2 -11   33.78    3.20
  -3  -2 -11   38.17    3.41
   3   2  11   40.12    3.44
   6  -3  -1   61.04    4.44
   6  -3  -1   75.30    4.51
  -6   3   1   69.75    4.75
  -6   1  -6   82.55    5.83
  -6   1  -6   84.26    5.64
   6  -1   6   92.27    6.19
  -6   1  -6   87.82    5.88
   2  -7  -7  172.24   11.01
  -2   7   7  163.98   10.42
  -2   7   7  174.20   10.55
   3  -3   9  188.01   11.77
   3  -3   9  184.87   11.73
  -3   3  -9  177.85   11.13
  -3   3  -9  172.54   11.16
  -3   3  -9  203.56   11.54
   3  -3   9  195.27   11.82
  -2  -5   7  236.26   14.42
   2   5  -7  199.34    8.77
  -2  -5   7  229.92   14.18
   2   5  -7  225.19    9.14
  -3  -4   7    8.00    1.39
  -3  -4   7    6.71    1.02
   3   4  -7    6.92    1.96
   3   4  -7    6.55    1.38
  -3  -4   7    4.94    1.71
  -6  -3   2  104.17    6.94
  -6  -3   2  114.35    7.02
   6   3  -2  102.71    6.45
   6  -3   3   58.40    3.88
  -6   3  -3   55.22    3.89
  -6   3  -3   61.25    3.98
   6  -3   3   62.14    4.14
  -6   3  -3   51.56    4.13
   0  -9   0    2.57    1.85
   0  -9   0    3.76    1.74
   0   9   0    5.96    1.91
   5   7   3   28.55    2.71
  -5  -7  -3   31.43    2.56
   5   7   3   26.92    2.73
   5   7   3   23.89    2.47
   5   7   3   31.48    3.04
   5   7   3   27.63    2.53
   5   7   3   25.96    2.52
  -1  -9   0  126.84    8.11
   1   9   0  121.13    7.77
   1   9   0  142.23    8.25
   1   9   0  136.40    8.22
  -5  -6  -7   28.43    2.49
  -5  -6  -7   32.09    2.84
  -5  -6  -7   30.37    2.62
   5   6   7   33.27    3.33
   5   6   7   31.96    2.54
   5   6   7   33.08    2.71
   4   8   2  181.67   10.13
   4   8   2  173.92   10.45
   4   8   2  181.29   10.28
   4   8   2  136.33   10.20
   4   8   2  141.75   10.09
   4   8   2  156.45   10.27
   4   8   2  166.64   10.19
   4   8   2  176.71   10.27
   6   3   7    3.56    1.97
  -6  -3  -7    1.45    0.88
   6   3   7    1.13    1.30
   6   3   7    1.62    1.52
   6   3   7    1.56    1.83
   2  -8   2  284.82   16.20
   2  -8   2  244.87   16.16
  -2   8  -2  303.12   18.44
  -6   2  -5    0.46    1.43
  -6   2  -5   -0.23    1.47
  -6   2  -5    1.77    1.82
  -6   2  -5    1.17    1.81
  -3  -3 -11  123.29    8.20
   3   3  11  116.09    7.31
   3   3  11  109.38    7.52
  -5   5  -3  162.34   10.29
   5  -5   3  170.19   10.40
   5  -5   3  168.69   10.26
   5   7   4   -1.57    1.63
   5   7   4   -1.99    2.30
  -5  -7  -4    1.10    1.41
   5   7   4    1.07    1.59
   5   7   4    0.71    1.79
   5   7   4   -0.17    1.75
   5   7   4    0.88    1.73
  -4   0 -10  184.09   10.87
   4   0  10  164.36   10.70
  -4   0 -10  163.04   10.95
   4   0  10  175.44   10.45
   3   8   7   21.47    2.28
  -3  -8  -7   21.99    2.37
  -3  -8  -7   21.02    2.36
   3   8   7   19.21    1.96
  -3   5  -7   46.26    3.20
  -3   5  -7   38.32    3.40
  -3   5  -7   34.73    2.59
  -3   5  -7   38.20    3.23
   2   9   1    8.48    1.47
  -2  -9  -1   10.36    1.96
   2   9   1   10.50    1.80
  -2  -9  -1    8.55    1.83
   2   9   1   12.70    1.83
   2   9   1   10.42    2.07
   2  -8  -5   33.93    3.00
   2  -8  -5   31.03    2.41
  -2   8   5   24.94    1.84
  -2   8   5   25.93    2.55
   3   0  -9   58.41    4.36
   3   0  -9   64.09    4.07
  -3   0   9   27.46    1.73
  -3   0   9   24.40    1.79
   3   0  -9   50.56    3.70
  -1   5  -8  160.83    9.32
   1  -5   8  151.96    9.75
  -1   5  -8  136.20    9.16
  -1   5  -8  143.04    8.88
   0   0 -11   66.84    4.96
   0   0  11   69.78    4.70
   0   0  11   62.46    4.52
   4  -5  -6   18.64    2.60
  -4   5   6   22.21    2.14
  -4   5   6   18.12    1.96
  -6  -4   1   80.96    5.76
   6   4  -1   81.18    4.08
  -6  -4   1   75.71    5.49
   6   4  -1   85.40    4.31
   6   5   1    7.40    1.41
  -6  -5  -1   16.64    2.39
  -6  -5  -1   14.44    1.45
  -6  -5  -1   13.37    1.85
   6   5   1   12.21    1.98
   6   5   1   13.58    1.79
   6   5   1   14.29    2.06
  -5   1   6   11.16    1.60
  -5   1   6   10.14    1.13
  -5   1   6   10.91    1.91
   5  -1  -6   15.53    2.17
   6   5   5   45.87    2.78
   6   5   5   31.57    3.34
  -6  -5  -5   48.18    3.45
  -6  -5  -5   43.35    3.14
   6   5   5   33.61    2.44
   6   5   5   40.66    3.24
   6   5   5   37.73    3.27
   5   0  -6    1.88    1.80
  -5   0   6    1.04    1.15
  -5   0   6    0.38    1.59
   3   6  -5  103.64    6.59
   3   6  -5  105.50    6.56
  -3  -6   5  110.52    7.08
   0  -5   8   84.85    5.54
   0   5  -8   69.81    4.61
   0   5  -8   79.50    5.17
   0  -5   8   84.33    5.89
   0   5  -8   78.84    5.13
   1  -9  -2    5.40    2.00
  -1   9   2    5.39    1.78
   1  -9  -2    2.88    1.63
  -4   2  -9   80.02    5.14
  -4   2  -9   80.16    5.46
   4  -2   9   92.37    6.15
   5   7   2   26.73    2.64
   5   7   2   26.89    2.70
   5   7   2   28.02    2.93
   5   7   2   22.54    2.84
   5   7   2   30.05    2.75
   5   7   2   29.45    2.34
   5   7   2   32.97    2.59
   5   4  -4  191.18   11.79
   5   4  -4  190.58   12.05
  -5  -4   4  187.31   11.10
  -5  -4   4  164.78   11.02
  -5  -4   4  199.49   11.35
   1  -5 -10   26.28    2.59
   0   7   9   31.79    2.63
   0   7   9   23.67    2.60
   0  -7  -9   28.02    2.73
   0  -7  -9   26.09    3.08
   0  -7  -9   33.00    2.85
   3   1  11   33.39    2.83
  -3  -1 -11   35.95    3.15
   3   1  11   32.27    2.64
   3   1  11   35.13    3.12
  -3  -1 -11   34.82    3.56
  -3  -1 -11   34.27    3.24
   3   1  11   32.02    2.62
  -2  -4   8  332.06   21.31
  -2  -4   8  366.46   21.43
   2   4  -8  292.45   19.00
   2   4  -8  352.03   19.24
  -2  -4   8  379.84   21.63
  -1   4  -9   40.73    3.00
   1  -4   9   50.89    4.01
   1  -4   9   48.73    3.73
  -1   4  -9   49.86    3.67
   2   6  -6  247.36   15.61
   2   6  -6  253.21   15.84
  -2  -6   6  235.10   14.31
   2   6  -6  267.61   15.49
   2   9   5   22.97    2.35
   2   9   5   16.16    2.87
   2   9   5   20.09    2.81
   2   9   5   26.00    2.48
   2   9   5   16.14    1.92
  -2  -9  -5   23.75    2.65
  -1  -8  -8    1.50    2.18
  -1  -8  -8    1.67    1.75
   1   8   8    3.48    1.68
   4   8   5  237.81   13.47
   4   8   5  205.50   12.99
   4   8   5  200.70   13.09
  -4  -8  -5  197.99   13.15
   4   8   5  224.93   13.05
   4   8   5  193.28   13.02
  -4  -8  -5  230.88   13.19
   4   8   5  217.30   13.13
   4   8   5  214.55   13.02
   0  -9  -5  153.45    9.31
   0   9   5  177.78   11.28
   0   9   5  185.18   11.58
  -2   3  10   73.42    5.21
  -2   3  10   71.79    5.10
   2  -3 -10   76.47    4.92
   2  -3 -10   74.35    5.09
   0  -4 -11    6.19    1.63
   0  -4 -11    5.79    1.74
   0   4  11    5.34    1.85
   0   4  11    4.30    2.15
   2   0 -10   14.92    1.86
   2   0 -10   12.75    1.68
   2   0 -10    9.35    1.12
   2   0 -10   12.44    2.32
  -2   0  10   14.27    1.73
   1  -9  -3    0.85    1.40
   1  -9  -3    0.78    1.86
  -1   9   3    0.55    1.64
  -1   9   1   47.84    3.76
   1  -9  -1   40.23    3.43
   1  -9  -1   47.27    3.63
  -5   5   3   87.43    5.65
   5  -5  -3   77.62    5.21
   4   6   9  119.16    7.35
   4   6   9   96.45    7.28
  -4  -6  -9  112.50    7.24
  -4  -6  -9  117.95    7.43
   4   6   9  106.85    6.97
  -4  -6  -9  114.02    7.42
   5   4   9  110.21    7.45
  -5  -4  -9  108.33    7.24
  -5  -4  -9  101.97    6.44
  -5  -4  -9  105.62    6.80
   5   4   9  111.80    7.35
   5   4   9  118.03    7.57
  -6  -2   3  156.67    8.31
  -6  -2   3  166.28    8.36
   6   2  -3  182.48   11.29
  -6  -2   3  174.13    8.66
   0  -6 -10   83.92    6.17
   0  -6 -10   87.17    5.95
   0  -6 -10   96.75    6.09
   0   6  10   88.30    5.65
   0   6  10   75.28    5.80
   0   6  10   86.48    5.99
  -4   4   7    0.82    1.39
  -4   4   7    0.12    1.76
  -4   4   7    2.05    1.05
  -4   4   7    2.15    1.35
   4  -4  -7    2.47    2.11
  -3   6   7   49.46    3.66
  -3   6   7   61.12    4.00
   3  -6  -7   55.89    4.23
   3  -6  -7   64.11    4.66
  -3   6   7   54.71    3.79
   5   5  -3  217.85    8.27
  -5  -5   3  222.65   13.76
   5   5  -3  140.06    7.45
   5   5  -3  216.16    8.05
  -6   0  -7  127.84    8.33
   6   0   7  167.14   10.50
  -6   0  -7  138.40    8.88
   0   4  -9   37.90    3.06
   0  -4   9   38.94    3.14
   0  -4   9   40.40    3.42
   0   4  -9   29.63    2.13
   4  -6   4   15.78    1.90
  -4   6  -4   14.10    1.85
  -4   6  -4   12.05    2.12
  -4   6  -4   17.84    2.49
  -5  -7  -5  130.66    8.00
   5   7   5  125.58    8.07
   5   7   5  109.68    7.83
   5   7   5  119.06    7.81
  -5  -7  -5  119.28    8.00
   5   7   5  123.27    8.16
   5   7   5  128.28    7.68
  -5  -7  -5  129.99    8.13
   2   8   8   78.82    5.72
   2   8   8   72.75    5.19
  -2  -8  -8   79.86    5.43
  -2  -8  -8   74.95    5.61
  -2  -8  -8   79.49    5.45
  -3   3   9   24.80    2.67
   3  -3  -9   24.45    2.21
   3  -3  -9   23.14    2.19
  -3   3   9   26.53    2.63
  -3   3   9   25.39    2.38
  -5   0  -9  123.91    4.48
   5   0   9  120.37    7.45
   5   0   9  109.61    7.54
  -5   0  -9  116.33    5.00
  -5   0  -9  116.71    5.17
  -3   5   8    5.65    1.31
  -3   5   8    4.44    1.39
   3  -5  -8    3.80    2.24
  -3   5   8    5.99    1.58
  -3   5   8    1.07    2.00
   3  -5  -8    5.27    1.28
   4   8   1    9.74    1.65
   4   8   1    7.39    1.70
   4   8   1    9.91    2.20
   4   8   1   11.36    1.70
   4   8   1    8.72    1.44
   4   8   1    5.68    1.89
   4   8   1    7.15    1.91
   4   7  -2    1.35    1.13
   4   7  -2    0.14    1.46
  -4  -7   2   -0.98    1.51
   4   7  -2    0.76    1.78
   4   7  -2    2.03    2.05
   4   7  -2    0.41    1.14
   4   7  -2    1.77    1.44
   4   7  -2   -0.75    1.75
   0  -6   7  100.08    6.33
   0   6  -7  108.93    7.25
   0   6  -7  112.10    7.27
   0   6  -7  111.45    7.30
  -6   2   3    2.74    1.46
   6  -2  -3    3.88    1.37
   6  -2  -3    3.41    1.67
  -6   2   3    4.62    1.63
  -6   2   3    3.86    1.27
  -6   2   3    3.75    1.71
  -4  -5   5   17.77    2.15
   4   5  -5   13.63    1.33
   4   5  -5   18.06    1.71
   4   5  -5   20.56    1.62
   4   5  -5   20.20    1.47
  -5  -3   5   95.81    5.81
   5   3  -5   83.56    5.89
   5   3  -5   98.91    6.26
  -5  -3   5   89.89    5.81
  -5  -3   5   84.80    5.60
  -5  -3   5  103.28    6.19
  -1  -2  10   81.93    5.49
   1   2 -10   80.82    6.02
   1   2 -10   85.88    5.89
   1   2 -10   89.49    5.78
  -1  -2  10   87.03    5.71
  -1  -2  10   78.73    5.36
  -4   5  -6   -0.92    1.66
  -4   5  -6    0.60    1.39
  -4   5  -6   -0.53    1.17
  -5   2   6    6.07    1.09
  -5   2   6   10.34    1.76
  -5   2   6    9.35    1.68
  -1   6  -7  115.93    7.83
  -1   6  -7  130.55    7.96
  -1   6  -7  118.73    7.94
  -4   7   1  153.11    9.81
   4  -7  -1  147.84    9.35
  -5  -1   6    4.00    1.77
   5   1  -6    2.68    1.92
   5   1  -6    3.38    1.93
  -5  -1   6    3.76    1.16
   3   7   9   14.85    2.58
  -3  -7  -9   16.88    2.16
   3   7   9    9.96    2.80
  -3  -7  -9   16.43    2.26
  -3  -7  -9   15.49    2.03
  -3  -7  -9   12.42    2.32
   3   4  11  266.02   17.00
  -3  -4 -11  268.59   16.33
  -3  -4 -11  271.33   16.48
   3   4  11  284.73   16.91
  -1   8   7  234.99   14.62
  -1   8   7  242.90   14.68
  -4   7   0   22.70    2.80
   4  -7   0   27.38    2.69
  -4  -4   6   83.38    5.42
   4   4  -6   77.35    4.12
  -4  -4   6   88.40    5.40
   4   4  -6   86.05    4.89
  -4  -4   6   83.62    5.72
  -4   1   8    2.01    1.11
   4  -1  -8    1.84    1.61
  -4   1   8    2.61    1.67
   6  -3  -2   38.19    2.86
  -6   3   2   39.38    3.33
  -6   3   2   46.85    3.30
   2  -7   5   38.33    2.57
   2  -7   5   42.22    3.48
  -2   7  -5   42.22    3.75
  -2   7  -5   43.99    3.56
  -3  -6 -10   20.46    2.25
   3   6  10   21.32    2.65
  -3  -6 -10   20.63    2.57
   3   6  10   18.11    2.47
  -3  -6 -10   20.75    2.46
   1  -1  11  161.61   10.61
   1  -1  11  179.81   10.75
  -1   1 -11  176.56   10.85
   1  -1  11  173.10   10.72
  -1   1 -11  173.84   11.28
  -1   1 -11  181.93   11.24
   5   7   1  111.53    6.47
   5   7   1   92.66    6.56
   5   7   1  102.88    6.75
   5   7   1   90.29    6.88
   5   7   1  105.19    6.88
   5   7   1  105.60    6.71
  -1  -5 -11   92.42    6.27
   1   5  11   98.68    5.65
   1   5  11   93.72    5.41
   1   5  11   90.85    5.25
  -1  -5 -11   98.80    6.40
  -4  -7  -8    6.51    1.66
   4   7   8    5.61    2.60
  -4  -7  -8    5.92    1.78
  -4  -7  -8    7.48    1.99
   4   7   8    5.74    2.37
  -6   3  -4   26.63    2.42
   6  -3   4   18.35    1.51
  -6   3  -4   26.50    2.65
   6  -3   4   24.69    2.20
  -3   8   1  215.44   13.08
  -3   8   1  208.87   13.35
   3  -8  -1  228.73   14.15
  -3  -3   8    0.77    0.86
   3   3  -8    0.17    1.45
  -3  -3   8    0.05    1.57
   3   3  -8   -0.89    1.84
  -3  -3   8   -0.79    1.22
   1   9   6   94.63    6.28
  -1  -9  -6   99.87    6.68
   1   9   6   94.04    6.35
  -3   2 -10  168.96   10.62
   3  -2  10  155.78    9.98
   3  -2  10  163.49    9.97
   3  -2  10  154.02    9.94
  -3   2 -10  162.68   10.31
   4  -6  -5   31.08    2.90
  -4   6   5   30.81    2.76
   4  -6  -5   39.77    3.46
  -4   6   5   31.00    2.41
   6   4   7  165.67   10.31
   6   4   7  167.24   10.00
  -6  -4  -7  156.95    9.79
   6   4   7  154.41   10.18
   1  -2 -11    3.10    1.56
   1  -2 -11    3.17    1.31
  -1   2  11    3.11    1.27
  -1   2  11    5.24    1.76
  -1   9   4   31.29    3.04
   1  -9  -4   33.94    2.53
   1  -9  -4   29.99    3.08
  -1   9   4   35.87    2.99
  -1   9   0   36.10    3.20
   1  -9   0   33.90    3.17
   1  -9   0   37.03    3.20
  -2  -5 -11   -1.26    1.75
   2   5  11    0.73    1.03
   2   5  11    0.51    2.31
  -2  -5 -11    1.75    1.51
  -2  -5 -11   -0.60    1.77
   2   5  11    1.26    1.91
   2   5  11   -0.25    1.95
  -5   3  -7   29.11    2.68
  -5   3  -7   26.54    1.98
  -5   3  -7   28.42    2.93
  -5   3  -7   27.06    2.36
  -5   3  -7   32.40    2.82
   2   9   0    2.52    1.97
   2   9   0    2.33    1.18
  -2  -9   0    2.08    1.80
   2   9   0    0.23    1.51
  -2  -9   0    1.11    1.76
   2   9   0    1.86    1.74
   0  -9   1   26.33    2.74
   0   9  -1   29.14    2.92
   0  -9   1   27.13    2.72
   2   8  -3  177.46   10.50
  -2  -8   3  169.31   10.47
   2   8  -3  165.63   10.73
   2   8  -3  171.70   10.90
  -2  -8   3  162.15   10.12
   3  -8  -2  142.80    9.09
  -3   8   2  152.89    9.89
  -4   0   8   17.32    1.60
   4   0  -8   23.87    2.81
   4   0  -8   23.62    2.47
  -4   0   8   25.40    1.65
  -4   0   8   22.27    2.41
   4  -7  -2  114.89    7.45
  -4   7   2  126.53    8.31
  -2   4  -9   80.04    5.59
  -2   4  -9   82.75    5.45
   2  -4   9   96.30    6.50
  -2   4  -9   90.85    5.93
  -2   5  -8   14.01    1.78
  -2   5  -8   17.35    2.49
  -2   5  -8   18.44    2.18
   4  -2  -8   14.43    2.01
  -4   2   8   16.66    1.83
  -4   2   8    9.69    1.97
   6   5   0   10.32    1.24
   6   5   0    5.79    2.38
   6   5   0    9.66    1.84
   6   5   0   12.15    1.89
  -6  -5   0   12.58    2.28
   6   5   0   12.59    1.96
   3   1  -9    7.38    1.34
   3   1  -9    9.51    2.28
  -3  -1   9    8.58    1.30
  -5   2  -8   31.48    2.72
  -5   2  -8   36.86    3.08
   5  -2   8   33.55    3.17
   1   9  -1   68.36    4.76
   1   9  -1   63.50    4.80
  -1  -9   1   65.46    4.70
  -1   1  11    1.24    1.50
  -1   1  11    1.70    1.79
   1  -1 -11    2.03    1.58
   1  -1 -11   -1.27    1.22
   1  -1 -11    2.77    1.51
  -1   1  11    1.21    0.79
  -6  -5  -6    9.52    1.64
   6   5   6    7.67    2.32
   6   5   6   10.13    2.23
   6   5   6   11.73    1.40
  -6  -5  -6    9.37    1.86
  -6  -5  -6   11.21    2.47
   6   5   6    9.39    1.16
   0  -8  -8   54.70    4.18
   0  -8  -8   54.46    4.47
   0   8   8   47.05    3.80
   0   8   8   50.81    3.74
   4   5  10  210.06   12.86
   4   5  10  196.60   12.90
  -4  -5 -10  214.16   13.53
  -4  -5 -10  218.82   13.00
   4   5  10  206.40   12.64
  -4  -5 -10  216.57   13.22
  -4  -5 -10  202.44   13.18
  -3   8   0  119.00    7.41
  -3   8   0  108.52    7.71
   3  -8   0  119.50    7.83
   1  -3  10   39.93    3.31
   1  -3  10   33.22    2.96
   1  -3  10   32.26    2.99
  -1   3 -10   32.20    2.52
  -1   3 -10   34.65    3.24
   3   0  11   56.81    3.69
  -3   0 -11   49.86    4.00
  -3   0 -11   52.83    4.02
   3   0  11   54.42    4.03
   3   0  11   48.64    4.13
  -3   0 -11   54.86    4.40
   3   0  11   56.35    4.14
   3   9   3   67.94    4.63
   3   9   3   60.41    4.82
   3   9   3   72.40    5.11
   3   9   3   59.68    4.47
   3   9   3   60.74    4.62
   3   9   3   66.87    4.59
   3   9   3   62.03    4.43
  -3  -9  -3   63.33    4.63
  -3   7  -4   14.00    2.01
   3  -7   4   10.82    1.90
  -3   7  -4    6.31    1.97
   3  -7   4   10.09    2.22
   4   8   6   85.96    5.32
   4   8   6   67.06    5.22
   4   8   6   80.92    5.23
   4   8   6   75.27    5.75
  -4  -8  -6   79.13    5.31
  -4  -8  -6   75.92    5.29
   4  -7   1   38.40    3.22
  -4   7  -1   39.77    3.00
  -4   7  -1   36.45    3.53
   5  -4  -5   -1.02    2.02
  -5   4   5    0.11    1.34
  -5   4   5    1.05    1.39
  -5   4   5   -0.17    1.80
   2  -1  11   15.29    2.27
  -2   1 -11   16.72    2.12
  -2   1 -11   18.87    2.69
  -2   1 -11   15.70    2.51
   2  -1  11   19.03    2.25
   2  -1  11   18.23    1.52
   0   8  -4   52.73    4.08
   0  -8   4   51.36    3.60
   0  -8   4   70.28    4.42
   0   8  -4   55.60    4.21
   4   6  -4   10.29    1.35
   4   6  -4    6.97    1.54
   4   6  -4    7.02    1.17
   4   6  -4    8.94    2.14
  -4  -6   4    9.33    1.77
   4   6  -4    8.06    1.78
   4   6  -4    7.77    1.54
   3  -6   6   82.72    5.82
  -3   6  -6   74.87    5.78
  -3   6  -6   94.38    5.75
   1   5  -8   21.34    1.77
   1   5  -8   26.21    1.70
   1   5  -8   38.69    2.73
   1   5  -8   36.88    2.84
  -1  -5   8   35.64    2.93
  -1  -5   8   39.55    3.40
   2   9   6    7.86    1.99
  -2  -9  -6    9.28    1.99
   2   9   6    8.24    1.93
   2   9   6   10.58    1.96
   2   9   6    9.96    1.43
   5  -5   4    8.03    1.49
   5  -5   4    8.34    1.37
  -5   5  -4   11.46    2.21
  -5   5  -4   11.73    1.97
   3   9   4    5.71    2.69
   3   9   4    4.22    1.79
   3   9   4    3.80    1.71
   3   9   4    3.81    1.79
   3   9   4    5.14    1.91
   3   9   4    2.59    2.19
   3   9   4    2.50    1.65
  -3  -9  -4    4.17    1.80
   1  -3 -11   21.58    2.29
  -1   3  11   24.14    2.58
  -1   3  11   20.92    2.25
   1  -3 -11   21.20    2.03
  -2  -3   9   24.67    2.23
   2   3  -9   24.05    2.53
  -2  -3   9   20.64    1.58
  -2  -3   9   28.50    2.87
  -2  -3   9   30.07    2.47
   2   3  -9   23.71    2.51
   5   7   6    5.33    2.37
  -5  -7  -6    3.69    1.53
  -5  -7  -6    3.91    1.52
   5   7   6    3.12    1.80
   5   7   6    5.48    1.54
   5   7   6    4.81    2.45
  -5  -7  -6    4.32    1.78
   3   8  -2    4.86    2.13
   3   8  -2    2.62    1.31
   3   8  -2    4.54    1.54
   3   8  -2    4.35    2.08
   3   8  -2    5.56    1.29
   3   8  -2    6.65    2.09
  -3  -8   2    5.10    1.53
   3   8  -2    6.65    1.40
  -7  -1  -2   10.44    2.15
   7   1   2    8.70    1.94
  -7  -1  -2   12.65    1.91
  -6   0   4   66.76    3.74
  -6   0   4   70.48    4.03
   6   0  -4   68.09    4.67
  -2  -7   5  231.83   14.03
   2   7  -5  229.77   14.12
   2   7  -5  224.53   13.85
  -2  -7   5  221.48   13.69
   2   7  -5  229.97   13.91
   2   7  -5  221.96   13.98
   2   7  -5  233.74   14.12
  -3  -9  -2   10.16    2.03
   3   9   2   11.17    1.87
   3   9   2    8.75    1.77
   3   9   2   13.39    2.11
   3   9   2   12.63    2.48
   3   9   2   13.31    2.18
   3   9   2   10.36    2.39
   3   9   2   11.55    1.99
   3   7  -4  139.53    9.28
  -3  -7   4  134.36    8.83
  -3  -7   4  151.68    9.15
   3   7  -4  151.94    9.61
   3   7  -4  157.52    9.32
   0  -1  11   21.48    2.38
   0  -1  11   29.19    2.69
   0   1 -11   28.61    3.14
   0  -1  11   24.44    2.52
   2  -4 -10    2.54    1.60
   2  -4 -10    1.21    1.16
  -2   4  10    2.16    1.96
  -2   4  10    2.08    2.08
  -2   8  -3  260.91   16.00
   2  -8   3  249.33   15.06
   2  -8   3  240.02   15.12
   7   1   3  165.00    8.16
  -7  -1  -3  142.25   10.00
  -7  -1  -3  169.57    9.87
   7   1   3  146.76    7.91
  -3   7   6    1.77    1.67
  -3   7   6   -0.48    1.12
   3  -7  -6    0.57    1.66
   3  -7  -6    0.65    2.38
   5   6  -2  299.50   16.98
   5   6  -2  284.18   16.83
  -5  -6   2  277.55   16.97
   5   6  -2  263.48   16.53
   5   6  -2  302.61   17.20
   5   6  -2  275.05   16.88
  -2  -1  10    8.37    2.14
   2   1 -10    9.99    1.87
   2   1 -10    9.78    2.29
   2   1 -10    9.10    1.55
  -2  -1  10    9.35    1.93
  -2  -1  10    8.65    1.51
  -4   1 -10  107.60    7.14
   4  -1  10  108.60    7.10
   3  -8  -3  137.53    8.85
  -3   8   3  111.28    7.58
  -3   8   3  124.00    7.89
  -6   4  -1   75.03    5.28
   6  -4   1   88.49    5.36
  -6   4  -1   84.51    5.47
   6  -4   1   77.34    5.36
   0   9   6  243.79   14.98
   0  -9  -6  275.57   16.93
   0   3 -10   55.68    3.75
   0   3 -10  118.82    4.97
   0  -3  10  119.79    7.72
   0  -3  10  126.87    7.92
   0  -3  10  115.99    7.68
   1   6  -7   47.05    3.61
   1   6  -7   45.58    3.73
  -1  -6   7   40.78    3.08
  -5   4  -6   26.64    2.84
  -5   4  -6   26.34    2.33
  -5   4  -6   27.52    2.66
  -5   4  -6   26.40    2.05
  -5   4  -6   27.07    2.62
   6   2   8   96.42    6.24
  -6  -2  -8   95.34    6.84
  -6  -2  -8  105.01    6.95
   6   2   8   96.26    6.51
   6   2   8   97.49    6.48
   6  -4   0  111.69    6.49
  -6   4   0  107.61    7.01
   6  -4   0   93.13    6.52
   4   8   0    0.34    1.25
   4   8   0   -0.89    1.53
   4   8   0   -1.96    2.04
   4   8   0    0.61    1.43
   4   8   0   -1.35    1.55
   4   8   0    0.80    1.92
   4   8   0    0.78    1.98
   2  -8  -6   52.67    3.48
  -2   8   6   58.28    4.34
   2  -8  -6   57.86    4.16
  -6   2  -6   17.44    2.42
  -6   2  -6   16.31    2.04
  -6   2  -6   15.91    2.36
  -6   2  -6   16.79    2.03
  -6   1   4   13.33    2.07
  -6   1   4   13.31    1.19
  -6   1   4   11.76    1.09
  -6   1   4   11.54    1.86
   6  -1  -4   16.75    2.13
   6  -1  -4   15.11    1.91
   4   3  -7   97.85    3.98
  -4  -3   7   93.54    5.53
  -4  -3   7   92.28    5.88
  -4  -3   7   78.10    5.41
   4   3  -7  102.05    4.03
  -7  -2  -3   21.39    2.68
   7   2   3   18.92    1.68
   7   2   3   23.05    2.44
  -7  -2  -3   27.12    2.52
   7   2   3   23.87    2.16
   7   2   2   20.37    1.78
  -7  -2  -2   23.81    2.78
   7   2   2   22.14    2.41
   7   2   2   18.71    2.01
  -7  -2  -2   26.13    2.55
  -5  -6  -8   46.74    3.83
   5   6   8   50.65    3.72
   5   6   8   53.92    3.94
  -5  -6  -8   56.86    3.92
   5   6   8   48.11    4.22
  -5  -6  -8   55.81    3.73
   5   6   8   52.44    4.35
  -5  -6  -8   51.15    4.01
   7   1   1    2.19    1.63
  -7  -1  -1    1.59    1.43
  -7  -1  -1    2.84    1.86
  -7  -1  -1    1.25    1.62
  -7   0  -2  131.88    8.58
  -7   0  -2  130.59    8.05
  -7   0  -2  134.76    8.33
   7   0   2  138.25    8.78
   6   1  -4  107.02    6.91
  -6  -1   4  113.26    7.25
  -6  -1   4  106.63    6.94
  -6  -4   2   60.57    4.59
  -6  -4   2   66.56    4.48
   6   4  -2   45.12    3.57
   6   4  -2   56.01    3.58
  -6  -4   2   59.38    4.31
  -4   7   3  114.89    7.05
   4  -7  -3  120.60    7.80
  -1  -4   9  166.37    9.75
   1   4  -9  150.37    9.37
   1   4  -9  145.28    9.42
  -1  -4   9  143.95    9.46
  -1  -4   9  147.56    9.44
   1   8  -4    8.42    1.15
  -1  -8   4    6.91    1.34
  -1  -8   4    6.34    2.11
   1   8  -4    7.35    2.08
   1   8  -4    8.46    2.13
   1   8  -4    6.62    1.76
  -6   1  -7    2.28    2.09
  -6   1  -7    4.33    1.74
   6  -1   7    4.07    2.00
  -6   1  -7    5.30    2.01
   3  -8   1   94.03    6.19
   3  -8   1   87.76    6.17
  -3   8  -1   90.77    6.06
   2  -3  10   53.40    4.17
   2  -3  10   55.37    4.12
  -2   3 -10   50.37    3.69
  -2   3 -10   53.87    4.24
   5  -5  -4   38.02    3.28
  -5   5   4   32.06    2.71
   5  -5  -4   28.59    2.73
  -5   5   4   32.55    2.61
   1  -8   4  228.70   11.26
   1  -8   4  164.84   10.42
  -1   8  -4  229.73   13.19
  -1   8  -4  194.77   13.07
   3   8   8   32.49    3.51
   3   8   8   34.69    2.97
  -3  -8  -8   35.94    3.17
  -3  -8  -8   35.66    3.41
   3   8   8   31.12    2.41
  -3  -8  -8   42.01    3.27
  -5   3   6    2.32    1.70
  -5   3   6    1.26    1.16
   5  -3  -6    3.32    2.12
  -5   3   6    2.47    1.57
   6   3  -3   28.17    3.13
  -6  -3   3   28.90    2.48
  -6  -3   3   27.23    2.52
   6   3  -3   26.80    2.41
   0   7  -6  156.42   10.04
   0   7  -6  170.59   10.11
   0  -7   6  143.44    9.24
   0   7  -6  150.25   10.00
   0  -7   6  170.53    9.79
  -3   4   9   22.96    2.36
  -3   4   9   27.23    2.47
   3  -4  -9   31.31    2.48
   3   9   5   21.25    3.18
   3   9   5   20.51    2.33
   3   9   5   19.76    2.29
   3   9   5   17.87    2.74
   3   9   5   19.84    2.29
   3   9   5   16.28    2.19
   3   9   5   16.91    2.41
  -3  -9  -5   20.44    2.46
  -5  -5  -9  249.93   15.12
   5   5   9  271.88   16.33
  -5  -5  -9  265.04   15.40
   5   5   9  253.23   16.25
  -5  -5  -9  266.17   15.79
   5   5   9  268.50   16.16
  -5  -5  -9  234.31   15.24
   5   5   9  261.45   15.98
   1   0 -11   15.72    1.98
  -1   0  11   16.37    2.03
   1   0 -11   16.95    2.08
  -1   0  11   20.37    2.45
   6  -4   2   25.32    2.15
  -6   4  -2   18.22    2.21
  -6   4  -2   23.26    2.46
   6  -4   2   24.59    2.16
   0   5  11   47.85    4.14
   0   5  11   45.10    3.99
   0  -5 -11   51.23    3.95
   0   5  11   48.24    3.82
   2  -6   7   17.21    2.56
  -2   6  -7   17.08    2.53
  -2   6  -7   16.95    2.32
   6   1   8   68.00    4.96
   6   1   8   68.71    4.69
  -6  -1  -8   74.07    5.81
  -6  -1  -8   83.27    5.88
  -6  -1  -8   84.68    5.27
   6   6   3    6.51    1.74
  -6  -6  -3    8.92    2.44
   6   6   3    4.14    1.98
   6   6   3    6.30    1.72
   6   6   3    5.41    1.38
  -6  -6  -3    7.44    1.45
   6   6   3    4.46    2.03
   6   6   3    7.04    1.76
  -6  -6  -3    7.92    1.79
   5   7   0   98.29    6.64
   5   7   0   97.06    7.34
   5   7   0  123.57    7.14
   5   7   0  118.91    6.84
   5   7   0  113.33    7.25
   5   7   0  108.04    7.11
   5   7   0  112.00    7.00
   5   7   0  117.68    7.17
   4   1  -8   42.12    2.92
   4   1  -8   35.98    3.08
  -4  -1   8   23.68    1.78
  -4  -1   8   34.31    1.91
  -6  -3  -8   51.31    4.26
   6   3   8   58.51    4.32
   6   3   8   51.00    3.90
   6   3   8   59.39    4.09
   6   3   8   58.32    4.34
  -5   6   0   18.80    2.48
   5  -6   0   20.30    2.21
  -5  -2   6   59.01    3.71
  -5  -2   6   52.66    3.69
   5   2  -6   55.81    4.30
   5   2  -6   60.97    4.49
  -1   9   5   41.62    3.49
   1  -9  -5   36.59    2.61
  -7   0  -3  307.44   17.55
  -7   0  -3  289.91   17.53
   7   0   3  319.48   12.07
  -7   0  -3  263.81   17.65
   7   0   3  173.15   11.24
   1  -9   1  249.35   15.30
  -1   9  -1  260.98   16.04
   1  -9   1  246.49   15.28
  -7   0  -1   86.61    5.55
   7   0   1   85.38    5.72
  -7   0  -1   88.05    5.27
  -7   0  -1   73.37    5.80
   4  -3  -8   98.83    6.43
  -4   3   8   95.45    6.61
  -4   3   8  104.64    6.41
  -4   3   8  104.31    6.77
  -6  -6  -4   72.45    5.60
   6   6   4   73.51    5.20
   6   6   4   64.90    4.93
   6   6   4   74.61    4.77
  -6  -6  -4   81.81    5.04
   6   6   4   66.74    5.07
   6   6   4   73.08    5.01
  -6  -6  -4   70.03    5.17
   7   1   4  130.41    8.31
  -7  -1  -4  102.87    7.74
  -7  -1  -4  120.91    7.98
   7   1   4  132.42    8.47
   5  -1   9   65.43    4.53
  -5   1  -9   66.65    4.11
   5  -1   9   60.66    4.70
  -5   1  -9   62.00    3.90
  -4   7  -2    0.86    1.50
   4  -7   2    2.53    1.67
   7   2   4   50.38    3.20
   7   2   4   45.21    2.86
  -7  -2  -4   48.92    4.15
  -7  -2  -4   54.17    4.02
   5  -6  -1   24.62    2.46
  -5   6   1   25.80    2.77
  -7  -2  -1   67.15    4.48
  -7  -2  -1   77.18    4.96
  -7  -2  -1   77.12    5.14
   7   2   1   77.49    5.32
   3   9   1   46.30    3.71
   3   9   1   51.47    4.09
  -3  -9  -1   49.86    3.93
   3   9   1   48.75    3.59
   3   9   1   48.52    3.88
   3   9   1   50.21    3.82
   3   9   1   47.62    3.53
   3   5  11  134.34    9.11
  -3  -5 -11  141.27    9.46
  -3  -5 -11  156.66    9.39
   3   5  11  153.21    9.28
   6  -4  -1  116.19    6.69
  -6   4   1  105.66    6.89
   6  -4  -1   95.39    6.73
  -1   7  -6  153.62    9.85
   1  -7   6  175.21    9.60
  -1   7  -6  149.78    9.80
  -1   7  -6  158.63    9.83
   1  -7   6  137.84    8.88
  -6   3   3   27.76    2.48
  -6   3   3   25.12    2.53
   6  -3  -3   29.07    2.43
   6  -3  -3   28.57    2.75
  -6   3   3   26.26    2.37
  -5   6  -1    0.69    1.91
   5  -6   1    0.48    1.62
  -5   6  -1    0.28    1.93
   5  -6   1   -0.67    0.84
  -1   7   9   71.70    4.87
   1  -7  -9   68.55    4.91
  -1   7   9   69.38    4.98
   2  -6  -9   -1.83    2.45
   2  -6  -9    0.03    0.55
  -2   6   9    4.12    2.33
  -2   6   9    1.15    1.67
  -2   6   9    2.37    1.42
  -6  -6  -2   17.04    2.58
   6   6   2   11.07    2.32
   6   6   2   17.25    1.86
  -6  -6  -2   16.23    1.72
   6   6   2   19.78    2.05
   6   6   2   16.43    2.35
   6   6   2   18.58    2.19
  -4  -2 -11   16.67    2.38
  -4  -2 -11   20.46    2.76
   4   2  11   16.58    2.12
   4   2  11   16.02    1.97
   1   7  10  119.34    8.22
  -1  -7 -10  124.56    8.63
  -1  -7 -10  134.10    8.46
   1   7  10  124.46    8.27
   1   7  10  124.32    7.95
  -1  -7 -10  134.25    8.55
  -6   3  -5   30.91    3.11
  -6   3  -5   31.35    3.07
  -6   3  -5   32.95    2.76
  -6   3  -5   31.99    2.73
   6  -3   5   33.62    2.82
  -5  -2 -10   17.89    1.50
   5   2  10   28.49    2.43
   5   2  10   26.57    2.62
  -5  -2 -10   24.10    2.83
   5   2  10   23.57    2.94
   5   2  10   24.48    2.61
  -5  -2 -10   25.43    3.08
   2   9  -1    0.94    1.89
   2   9  -1    2.11    1.47
  -2  -9   1    1.45    1.88
   2   9  -1    1.16    1.15
   2   7  10  119.83    7.96
   2   7  10  116.90    7.94
  -2  -7 -10  114.36    7.55
  -2  -7 -10  117.88    7.75
  -4  -3 -11   10.43    1.58
   4   3  11   13.05    1.92
   4   3  11   10.61    2.05
  -4  -3 -11   12.27    2.60
  -2   7   8  181.65   11.30
   2  -7  -8   71.52    4.54
  -2   7   8  181.01   11.22
   2  -7  -8  194.32    6.38
  -1   4  11   31.99    3.15
   1  -4 -11   37.79    3.17
  -1   4  11   26.29    2.72
  -4   6  -5    9.45    2.01
  -4   6  -5    6.47    2.28
  -4   6  -5    8.29    1.75
  -7  -1   0    7.28    1.96
  -7  -1   0    8.27    1.76
   7   1   0    7.20    1.77
  -7  -1   0    5.78    1.37
   7   3   3   41.11    3.01
   7   3   3   40.12    2.79
  -7  -3  -3   45.08    3.33
  -7  -3  -3   36.19    3.46
  -7  -3  -3   36.65    2.79
   7   3   3   36.51    3.36
   7   3   3   37.92    3.40
   1   2  12  114.58    7.77
   1   2  12  122.24    7.59
  -1  -2 -12  110.85    7.50
   1   2  12  119.55    7.45
  -1  -2 -12  122.11    7.76
  -1  -9  -7   57.24    4.35
   1   9   7   52.45    4.00
  -5  -3 -10   67.90    4.68
   5   3  10   67.11    4.57
   5   3  10   77.68    5.02
  -5  -3 -10   52.79    3.56
   3  -8  -4   42.37    3.52
  -3   8   4   29.82    2.11
  -3   8   4   36.76    2.96
  -1   6  10   19.78    2.34
   1  -6 -10   27.17    2.76
   6   5  -1   13.21    2.70
  -6  -5   1   13.87    2.31
   6   5  -1   17.40    2.17
   6   5  -1   14.94    1.84
   6   5  -1    9.24    0.95
  -6  -5   1   17.84    2.44
   6   5  -1   16.02    2.06
   0   9  -2   56.53    4.30
   0  -9   2   54.78    4.20
   0  -9   2   54.03    4.20
  -6   2   4    2.26    1.06
  -6   2   4    5.32    1.72
  -6   2   4    3.74    1.51
   6  -2  -4    2.65    1.82
  -6   2   4    2.95    1.24
  -6   2   4    2.52    1.73
   6   6   5  143.86    8.96
   6   6   5  146.19    8.78
   6   6   5  138.57    8.45
   6   6   5  127.98    8.65
   6   6   5  123.90    8.74
  -6  -6  -5  129.36    8.51
  -6  -6  -5  145.37    8.98
  -6  -6  -5  130.72    8.36
   6   5   7   21.10    2.30
  -6  -5  -7   17.42    2.25
   6   5   7   14.95    2.58
  -6  -5  -7   17.57    2.08
   4   8   7   24.82    2.45
  -4  -8  -7   27.35    2.62
  -4  -8  -7   28.79    2.69
   4   8   7   25.04    2.55
   4   8   7   25.27    2.40
   2  -9  -2  101.08    6.77
   2  -9  -2   99.01    6.50
  -2   9   2  106.67    6.63
  -2   9   2   90.12    6.88
  -7   0  -4  194.95   12.16
  -7   0  -4  175.29   12.30
   7   0   4  205.64   12.75
  -7   0  -4  217.91   12.26
  -7   0   0   20.28    1.65
   7   0   0   21.15    2.32
  -7   0   0   26.65    2.09
  -7   0   0   20.82    2.52
   7   3   2  267.70   16.18
  -7  -3  -2  259.35   15.00
  -7  -3  -2  262.15   15.15
   7   3   2  259.21   15.85
   7   3   2  275.63   16.18
  -7  -3  -2  236.05   14.78
   7   3   2  260.20   15.85
  -7  -3  -2  237.15   15.23
  -6   4  -3    3.53    1.74
   6  -4   3    7.93    1.51
  -6   4  -3    8.05    1.99
   6  -4   3    7.73    1.39
  -6   4  -3    5.80    1.68
  -2  -2 -12  168.56   10.04
   2   2  12  168.68   10.00
   2   2  12  158.06   10.05
  -2  -2 -12  145.95    9.83
   2   2  12  155.90   10.26
   2  -9  -1  246.27   13.74
   2  -9  -1  201.44   13.43
  -2   9   1  238.34   14.39
  -2   9   1  226.84   14.63
  -4   5   7    6.78    1.65
  -4   5   7    6.52    1.51
  -4   5   7    6.81    2.24
   4  -5  -7    9.36    2.52
  -4   5   7    6.55    1.36
   5  -6  -2   43.75    3.45
  -4   4  -8  100.29    6.29
  -4   4  -8   93.79    6.43
  -7   1  -2  105.18    7.49
   7  -1   2  176.23    8.67
  -7   1  -2  129.22    8.25
  -7   1  -2  199.68    8.25
  -7   1  -2  162.91    8.16
   7  -1   2  122.05    8.15
  -7   1  -2  150.85    7.82
   1   3  12   46.62    3.39
   1   3  12   42.02    3.71
  -1  -3 -12   42.34    3.33
  -1  -3 -12   42.67    3.48
   1   3  12   42.50    3.27
   1   7  -6   -0.74    1.80
  -1  -7   6   -1.79    1.38
   1   7  -6    1.33    1.70
   1   7  -6    0.38    1.92
  -1  -7   6   -1.84    2.09
   4   1  11  100.85    6.14
   4   1  11   87.54    6.21
  -4  -1 -11   91.51    6.41
   4   1  11   98.64    6.45
  -4  -1 -11   95.01    6.27
  -6  -2   4   75.33    4.88
  -6  -2   4   87.16    5.33
  -6  -2   4   92.60    5.37
   6   2  -4   87.92    5.97
   6   2  -4   94.40    6.40
  -3  -2   9    2.72    1.43
   3   2  -9    2.64    1.18
   3   2  -9    1.45    1.83
  -3  -2   9   -0.46    1.80
   3   2  -9    3.03    2.06
  -5  -7  -7   11.16    1.90
   5   7   7   13.22    1.82
  -5  -7  -7   13.00    2.18
   5   7   7   15.73    2.74
  -5  -7  -7   14.83    1.93
   5   1  10   88.15    6.81
   5   1  10  105.89    7.06
  -5  -1 -10  108.94    6.42
   5   1  10  114.85    6.72
  -5  -1 -10  114.60    6.27
   5   1  10  109.54    6.90
  -1  -9   2   33.26    3.14
   1   9  -2   40.13    3.56
   1   9  -2   43.54    3.64
  -7  -3  -4   37.71    2.73
  -7  -3  -4   32.05    3.34
   7   3   4   28.36    2.65
   7   3   4   35.40    3.02
   7   3   4   29.27    2.11
   7   3   4   28.38    2.94
  -2  -3 -12  247.68   15.29
  -2  -3 -12  249.13   15.21
   2   3  12  250.63   15.43
   2   3  12  251.13   15.75
   2   3  12  263.40   15.55
  -1  -8  -9    6.53    2.36
   1   8   9    1.94    2.30
  -1  -8  -9    6.65    2.00
   1   8   9    5.42    1.84
   1   8   9    3.72    1.87
   4   7  -3    5.87    1.29
   4   7  -3    7.64    1.64
   4   7  -3    5.96    2.11
   4   7  -3    5.31    2.26
   4   7  -3    8.16    1.69
  -4  -7   3    7.20    1.77
   4   7  -3    8.41    1.89
  -7   1  -1  103.52    6.06
   7  -1   1  111.81    7.18
  -7   1  -1   94.39    5.84
   2   9   7    6.98    1.98
  -2  -9  -7    7.51    2.11
   2   9   7    7.59    2.01
  -6   0  -8   41.56    3.07
   6   0   8   37.65    3.37
  -6   0  -8   40.96    3.74
  -6   0  -8   45.82    3.83
  -4   3  -9   24.03    2.48
  -4   3  -9   23.26    2.21
   3  -1  11   72.19    4.91
  -3   1 -11   66.77    5.19
   3  -1  11   69.52    4.87
  -3   1 -11   82.56    5.41
   3  -1  11   64.11    4.90
  -3   1 -11   80.81    5.69
  -5   6  -2    5.57    2.14
   5  -6   2    3.77    1.79
   5  -6   2    6.71    1.00
  -5   6  -2    9.72    2.22
   3   9   6    3.45    2.74
   3   9   6    2.26    1.52
   3   9   6   -0.21    1.69
   3   9   6    1.45    1.82
  -3  -9  -6    0.93    1.85
   6   4   8   72.24    5.07
  -6  -4  -8   69.00    4.53
   6   4   8   71.47    5.23
   6   4   8   80.94    5.51
  -6  -4  -8   70.08    4.82
   6   4   8   86.34    5.54
   1   1  12   25.12    2.59
  -1  -1 -12   24.12    2.86
   1   1  12   24.85    2.07
   1   1  12   27.87    2.66
  -2   9   3   72.53    5.17
  -2   9   3   74.01    5.55
   2  -9  -3   76.73    5.23
   2  -9  -3   83.19    5.63
  -2  -8  -9  212.04   13.40
   2   8   9  210.35   13.40
  -2  -8  -9  215.67   13.29
  -7  -2  -5   94.99    6.03
   7   2   5   96.79    5.87
   7   2   5   86.16    5.79
  -7  -2  -5   92.57    6.09
   1  -2  11   84.61    4.59
   1  -2  11   77.18    4.56
  -1   2 -11   77.85    5.58
  -1   2 -11   75.33    4.99
   1  -2  11   87.79    4.79
  -3   8  -2    0.37    1.77
   3  -8   2    0.98    1.80
   3  -8   2    1.27    2.04
   6   6   1    4.02    2.28
   6   6   1    7.46    1.55
  -6  -6  -1    5.68    2.19
   6   6   1    2.53    1.86
   6   6   1    5.87    1.80
   6   6   1    4.10    1.89
  -7  -2   0  104.48    5.64
  -7  -2   0   90.30    5.33
  -7  -2   0   94.01    5.77
   7   2   0   95.17    6.31
  -7  -1  -5  163.37   11.27
   7   1   5  171.81   10.74
   7   1   5  172.30   10.83
  -7  -1  -5  176.18   11.10
  -7  -1  -5  191.00   11.20
   5   5  -4   99.84    6.80
  -5  -5   4  101.20    6.74
   5   5  -4  107.83    6.58
  -5  -4   5  140.94    8.75
  -5  -4   5  142.04    9.07
   5   4  -5  141.70    9.47
   5   4  -5  149.66    9.25
   4  -7  -4   35.86    3.13
  -4   7   4   32.39    2.89
  -4   7   4   31.14    2.35
   1   6  11  196.51   12.70
   1   6  11  206.19   12.63
   1   6  11  195.45   12.51
  -1  -6 -11  194.06   12.23
  -1  -6 -11  200.51   12.35
  -7   1  -3   63.68    4.22
   7  -1   3   63.03    3.56
  -7   1  -3   58.78    3.88
   7  -1   3   38.71    2.66
  -7   1  -3   60.86    4.46
  -4   6   6    1.87    1.35
   4  -6  -6    1.74    2.35
   4  -6  -6    2.37    1.66
  -4   6   6    2.81    1.68
  -2  -6 -11   15.71    2.21
   2   6  11   16.22    2.47
   2   6  11   19.14    2.84
   2   6  11   16.98    2.40
  -2  -6 -11   15.79    2.31
  -2  -6 -11   15.23    2.26
   2   6  11    9.52    0.87
  -3   4  -9    9.85    1.90
  -3   4  -9    8.88    1.81
  -3   4  -9   10.19    2.43
   3  -4   9   12.90    2.31
   6  -4  -2   41.80    2.90
  -6   4   2   43.94    3.29
   6  -4  -2   35.13    2.98
  -6   4   2   39.71    3.35
  -5   5  -5   83.74    5.91
  -5   5  -5   86.69    5.34
  -5   5  -5   78.10    5.69
   3   5  -7  113.44    7.24
  -3  -5   7  124.25    8.32
  -3  -5   7  139.78    8.63
   3   5  -7  120.33    7.69
   2   1  12  149.26    9.14
   2   1  12  148.98    9.34
  -2  -1 -12  152.93    9.56
   2   1  12  145.76    9.44
  -2  -1 -12  144.65    9.76
  -2  -1 -12  145.67    9.41
  -4  -4 -11   56.75    4.45
  -4  -4 -11   61.52    4.18
  -4  -4 -11   63.90    4.93
   4   4  11   65.94    4.79
  -4  -4 -11   61.79    4.48
  -1   8   8  171.48   10.34
  -1   8   8  157.37   10.35
   1  -8  -8  174.94   11.03
   7   3   1  402.65   24.04
   7   3   1  417.59   24.39
   7   3   1  398.40   24.14
  -7  -3  -1  371.28   23.49
  -7  -3  -1  358.99   23.03
  -7  -3  -1  416.55   23.28
   1   3 -10    3.20    1.82
   1   3 -10    1.61    1.93
  -1  -3  10    0.90    2.02
  -1  -3  10    1.29    1.57
  -4  -7  -9    5.30    1.64
  -4  -7  -9    6.36    2.08
   4   7   9    4.45    1.99
  -4  -7  -9    4.43    1.84
   4   7   9    6.47    2.38
   4   7   9    3.82    2.67
   2  -9   0  264.67   15.58
  -2   9   0  234.12   15.21
   2  -9   0  241.21   15.45
  -2   9   0  250.62   15.01
   4   8  -1    7.74    2.18
   4   8  -1    8.14    2.26
   4   8  -1    5.88    2.10
   4   8  -1    6.34    1.52
   4   8  -1    7.28    1.47
   4   8  -1    9.37    1.83
   4   8  -1    5.40    1.44
   4   8  -1    5.96    1.58
   4   6  10  160.19    9.89
   4   6  10  153.73    9.94
  -4  -6 -10  138.84    9.51
  -4  -6 -10  151.81    9.60
   4   6  10  143.94    9.58
  -4  -6 -10  152.85    9.61
  -4  -6 -10  156.74    9.40
   3   9   0  149.92    9.68
   3   9   0  164.54    9.78
   3   9   0  157.94    9.87
   3   9   0  165.51   10.09
   3   9   0  138.63    9.96
   3   9   0  169.77   10.19
  -3   6   8    2.27    2.25
  -3   6   8    1.41    1.41
   3  -6  -8    0.87    2.44
   3  -6  -8   -0.40    1.12
  -3   6   8    0.93    1.32
  -3   6   8    2.27    1.68
  -5   1   7   45.99    3.14
  -5   1   7   53.42    3.49
  -5   1   7   55.71    3.86
   5  -1  -7   62.89    4.65
  -3   5  -8   20.67    2.24
  -3   5  -8   14.25    1.99
  -3   5  -8   18.95    2.65
  -1  -1  11  117.35    7.64
  -1  -1  11  126.66    7.97
   1   1 -11  133.37    8.49
   5   4  10    7.40    2.18
  -5  -4 -10    6.64    1.25
   5   4  10    7.56    2.43
  -5  -4 -10    5.75    1.84
   5   4  10    8.70    1.90
  -5  -4 -10    9.49    2.66
   2  -5 -10    0.74    1.61
   2  -5 -10    0.89    0.91
  -2   5  10    1.65    2.18
   0   9   7  208.07   12.29
   0  -9  -7  198.78   12.47
   0   9   7  186.06   12.20
  -7   1   0   73.60    6.40
  -7   1   0  113.16    6.23
   7  -1   0  116.66    7.48
   0   7  10   15.64    2.24
   0  -7 -10   18.43    2.48
   0  -7 -10   17.43    2.33
   0   7  10   14.00    2.90
   0  -7 -10   18.25    2.84
  -3  -6   6  177.45   11.01
   3   6  -6  199.96   11.78
   3   6  -6  189.11   11.91
   5   0  -7    9.07    2.11
  -5   0   7    6.66    1.27
  -5   0   7    7.10    1.97
  -4   7  -3   21.74    2.28
   4  -7   3   11.98    0.86
  -4   7  -3   20.27    2.80
   4  -7   3   21.76    2.13
   2   2 -10   46.41    4.12
   2   2 -10   59.86    4.07
  -2  -2  10   59.53    4.36
  -2  -2  10   51.10    3.94
  -2  -2  10   58.70    4.18
   2   2 -10   55.05    4.35
  -2  -2  10   52.44    3.82
  -4   5  -7    2.95    1.67
  -4   5  -7    0.20    1.77
  -4   5  -7    1.26    1.15
  -4   5  -7    1.21    1.50
   1  -9  -6   62.98    3.93
  -1   9   6  100.29    6.58
  -1   9   6   94.32    6.45
   1  -9   2   69.59    5.26
   1  -9   2   73.36    5.16
  -1   9  -2   73.82    5.30
   3  -7   5   16.93    2.59
  -3   7  -5   14.49    2.20
  -2   2 -11   73.05    5.28
  -2   2 -11   66.44    4.68
   2  -2  11   75.26    5.13
   2  -2  11   67.57    5.02
   4   2  -8   60.25    3.46
   4   2  -8   56.51    3.51
  -4  -2   8   58.62    4.14
  -4  -2   8   50.12    3.68
   5   7  -1  152.14    9.14
   5   7  -1  155.45    9.38
   5   7  -1  143.58    9.42
   5   7  -1  137.65    9.69
   5   7  -1  139.18    9.44
   5   7  -1  164.01    9.55
  -6  -6  -6   60.74    4.29
  -6  -6  -6   63.80    4.54
   6   6   6   63.10    4.71
   6   6   6   62.17    3.95
  -6  -6  -6   59.76    5.00
   6   6   6   61.19    4.03
   6   6   6   54.89    4.56
   6   6   6   49.02    4.46
   0  -2 -12   37.46    3.10
   0   2  12   29.79    3.12
   0   2  12   34.10    3.04
   0  -2 -12   35.62    2.86
   0  -2 -12   33.10    3.48
   2   8  -4  152.11    8.43
   2   8  -4  133.55    8.79
   2   8  -4  124.68    8.93
   2   8  -4  124.21    8.74
  -2  -8   4  123.15    8.25
  -2  -8   4  152.04    8.77
  -7  -3  -5    5.87    2.26
  -7  -3  -5    5.57    1.47
   7   3   5    3.75    1.78
   7   3   5    6.36    2.01
   7   3   5    5.54    1.99
   7   3   5    3.62    0.63
  -1  -4 -12    4.52    1.92
   1   4  12    8.21    1.48
  -1  -4 -12    6.30    1.86
   1   4  12    5.83    1.89
   1   4  12    7.99    2.32
  -2  -4 -12  102.82    6.69
  -2  -4 -12   98.62    6.76
   2   4  12  102.63    6.83
   2   4  12  107.79    6.59
   2   4  12   90.99    6.20
  -3  -7 -10   86.31    5.82
  -3  -7 -10   88.58    5.76
  -3  -7 -10   79.92    5.84
   3   7  10   85.41    5.71
  -3  -7 -10   81.27    5.89
   3   7  10   70.72    5.65
  -4   4   8  144.06    8.27
  -4   4   8  128.53    8.32
  -4   4   8  138.43    8.56
  -4   4   8  124.56    8.01
   4  -4  -8  139.59    8.74
  -2   7  -6   20.62    2.63
  -2   7  -6   22.96    2.90
   2  -7   6   22.48    2.91
  -2   7  -6   26.76    2.71
   2  -7   6   25.12    1.91
   0  -2  11    1.39    1.62
   0  -2  11    0.12    1.99
   0   2 -11    1.51    2.17
   0  -2  11    0.56    1.61
   2  -8   4    2.92    0.49
  -2   8  -4    6.01    2.31
  -2   8  -4    8.42    2.14
  -2   8  -4    4.07    2.00
   2  -8   4    4.09    2.23
   7   1  -1   31.55    2.45
  -7  -1   1   28.87    3.02
  -7  -1   1   31.48    2.88
  -7  -1   1   30.55    2.75
   7   1  -1   17.99    1.57
   7   0   5   48.72    3.89
   7   0   5   52.02    3.96
  -7   0  -5   51.27    4.13
  -7   0  -5   61.39    4.37
   7   0  -1    7.40    1.80
  -7   0   1    5.12    1.92
  -7   0   1    7.44    1.34
  -2  -5   8  411.43   25.58
  -2  -5   8  448.23   25.85
   2   5  -8  411.21   23.73
   2   5  -8  378.58   23.51
   2  -9  -4    9.69    1.62
  -2   9   4    6.78    2.00
  -2   9   4    4.24    2.53
  -2   9   4    3.96    0.52
   2  -9  -4    6.83    2.18
   3   8  -3   23.35    2.58
  -3  -8   3   17.90    2.06
   3   8  -3   19.27    2.82
   3   8  -3   24.33    2.11
   3   8  -3   18.36    2.12
   3   8  -3   19.01    2.21
   3   8  -3   22.55    2.80
   3   8  -3   25.64    1.98
  -3  -8   3   18.59    2.55
   3  -3  10  197.95   12.79
   3  -3  10  214.61   12.87
  -3   3 -10  237.49   13.22
  -3   3 -10  201.88   12.77
  -3   3 -10  198.41   12.73
  -3  -4   8    5.31    1.02
   3   4  -8    4.72    1.52
   3   4  -8    3.87    2.06
  -3  -4   8    4.56    1.51
  -3  -4   8    5.14    1.82
  -5   4   6   19.04    1.95
  -5   4   6   16.04    2.39
  -5   4   6   19.08    2.09
   5  -4  -6   23.21    2.90
  -5   6   3   21.02    2.02
   5  -6  -3   21.24    2.37
  -5   2   7  215.27   13.29
   5  -2  -7  238.81   14.69
   7  -1   4   34.43    3.06
  -7   1  -4   26.55    3.10
  -7   1  -4   30.63    2.55
  -7   1  -4   31.97    2.88
   3  -1 -10   96.97    6.56
  -3   1  10  102.78    6.95
  -3   1  10  107.87    6.69
   3  -1 -10  114.10    6.80
   2  -8  -7   49.86    3.60
   2  -8  -7   58.16    4.14
  -2   8   7   56.64    4.30
  -2   8   7   55.87    4.11
   0  -3 -12    8.36    1.75
   0   3  12    9.78    1.77
   0  -3 -12   13.94    2.08
   0   3  12    9.99    1.76
   0   3  12   12.37    2.29
   2   6  -7  166.24    9.48
  -2  -6   7  159.91    9.98
   2   6  -7  167.98    9.75
   2   6  -7  140.82    9.10
   4  -2  10    9.46    2.21
  -4   2 -10   11.39    1.63
   4  -2  10   13.28    2.11
  -4   2 -10   12.26    2.16
  -5   3  -8   14.11    1.39
  -5   3  -8   15.37    2.47
  -5   3  -8   11.39    2.18
  -5   3  -8   11.95    1.79
  -5   5   5   24.66    2.22
  -5   5   5   20.97    2.26
   5  -5  -5   29.63    3.22
   5   8   3   70.57    5.19
   5   8   3   69.34    5.04
   5   8   3   70.55    5.03
   5   8   3   73.09    4.83
   5   8   3   64.83    4.97
   5   8   3   75.70    5.37
   5   8   3   78.04    5.05
   0   8   9   31.33    3.06
   0   8   9   34.80    2.97
   0  -8  -9   35.40    3.23
   0  -8  -9   35.85    3.35
   0  -8  -9   36.14    3.58
  -6   4  -4    0.06    1.57
  -6   4  -4   -0.26    1.95
   6  -4   4    0.13    1.07
  -6   4  -4   -0.89    1.93
   6  -4   4   -0.84    1.41
   5   6  -3   44.55    3.97
   5   6  -3   47.38    3.52
   5   6  -3   45.16    3.61
   5   6  -3   53.46    3.36
  -5  -6   3   49.60    3.89
   5   6  -3   52.84    3.32
   5   6  -3   41.83    2.85
   5   6  -3   39.08    2.82
   3  -2 -10  106.28    6.57
   3  -2 -10   97.77    6.50
  -3   2  10   95.46    6.48
  -3   2  10   99.75    6.33
   5   8   4   49.39    3.92
  -5  -8  -4   61.32    4.37
   5   8   4   57.21    3.89
   5   8   4   42.41    3.84
   5   8   4   46.04    4.30
   5   8   4   47.92    4.04
   5   8   4   54.34    3.90
   5   8   4   52.81    3.72
  -5  -3   6   62.23    3.99
   5   3  -6   61.12    4.65
  -5  -3   6   59.51    3.92
  -5  -3   6   63.37    4.41
  -5  -3   6   52.98    3.80
   5   3  -6   59.73    4.43
   4   0  11  162.14    9.63
   4   0  11  148.06    9.93
  -4   0 -11  152.59    9.59
  -4   0 -11  146.48    9.46
   0   1  12  133.78    8.22
   0   1  12  130.06    8.59
   0  -1 -12  139.71    8.77
   0  -1 -12  127.53    8.42
   0   1  12  145.00    8.66
   5   0  10   48.62    3.67
  -5   0 -10   44.33    3.74
  -5   0 -10   44.54    3.12
   5   0  10   43.13    3.84
  -5   0 -10   48.68    3.63
   3  -7  -7    6.29    2.58
   3  -7  -7    4.49    1.88
  -3   7   7    5.13    1.90
  -3   7   7    5.91    1.34
  -6   2  -7    7.85    2.28
  -6   2  -7    5.83    2.12
  -6   2  -7    9.70    1.85
  -3   5   9  126.69    7.67
  -3   5   9  120.31    8.17
  -3   5   9  108.90    7.78
  -3   5   9  139.10    7.92
   3  -5  -9  138.01    8.40
   3  -5  -9  120.31    7.66
  -7  -4  -3    0.96    1.20
   7   4   3    0.24    1.90
  -7  -4  -3    1.96    2.08
  -7  -4  -3    0.68    1.57
   7   4   3    2.13    1.37
   7   4   3    3.00    1.45
   4   5  -6    1.23    0.99
  -4  -5   6    2.12    1.72
   4   5  -6    0.53    1.14
   4   5  -6   -1.22    2.09
  -3   8   5   13.26    2.14
   3  -8  -5   17.72    2.47
  -3   8   5   11.67    1.31
   3   2  12   -0.39    2.08
   3   2  12   -0.51    1.60
  -3  -2 -12    3.38    2.26
  -3  -2 -12    0.71    2.11
   3   2  12    2.80    1.66
  -1   0 -12    9.06    2.70
   1   0  12   10.49    2.09
   1   0  12    8.69    1.92
  -1   0 -12   11.02    2.47
   5  -6   3   41.89    2.87
  -5   6  -3   46.67    4.00
   5  -6   3   43.76    3.28
  -1 -10  -3    9.17    2.27
   1  10   3   10.31    2.17
  -1 -10  -3   11.47    1.81
   1  10   3   12.44    2.77
   1  10   3    9.19    1.39
  -1   5  -9   54.40    4.01
  -1   5  -9   55.92    4.18
  -1   5  -9   48.24    3.49
   1  -5   9   57.20    4.51
  -6  -4   3   12.68    2.03
   6   4  -3   12.31    1.84
  -6  -4   3   12.45    1.82
  -6  -4   3   10.48    2.26
   0  -8   5   81.37    5.72
   0   8  -5   73.09    5.38
   0   8  -5   81.27    5.57
   0  -8   5   78.57    5.03
   0   8  -5   76.55    5.43
  -6   0   5    3.10    1.94
  -6   0   5   -0.59    1.47
  -3  -3 -12   67.36    4.87
   3   3  12   78.53    5.41
   3   3  12   71.66    4.93
   3   3  12   72.92    5.08
   5   6   9   51.95    4.05
  -5  -6  -9   49.09    3.70
   5   6   9   55.22    3.88
   5   6   9   52.42    4.42
   5   6   9   47.42    4.33
  -5  -6  -9   51.67    3.50
  -5  -6  -9   39.68    3.62
  -5  -6  -9   49.86    4.33
  -6   3   4    6.08    1.80
   6  -3  -4    6.41    2.00
  -6   3   4    6.46    1.80
  -6   3   4    4.26    1.35
   2  -2 -11  174.25   11.65
   2  -2 -11  202.67   11.61
  -2   2  11  169.94   10.69
  -2   2  11  184.32   10.90
  -7  -3   0  264.57   14.47
  -7  -3   0  291.94   14.20
   7   3   0  285.96   17.44
   1  10   2   60.00    4.58
   1  10   2   64.28    4.08
  -1 -10  -2   59.82    4.29
   1  10   2   63.58    5.09
   1  -5 -11   57.09    4.30
  -1   5  11   57.50    4.60
  -1   5  11   54.60    4.22
  -7  -4  -4    8.60    2.38
   7   4   4    7.60    1.33
  -7  -4  -4    7.10    1.74
   7   4   4    5.36    2.13
   7   4   4    9.61    1.73
  -7  -4  -4    9.20    1.48
  -2   9  -1   64.30    4.76
   2  -9   1   61.16    4.65
   2  -9   1   63.54    4.70
   6   6   0   16.61    1.87
   6   6   0   20.47    2.41
  -6  -6   0   19.87    2.67
   6   6   0   17.72    2.24
   6   6   0   17.30    2.28
   6   6   0   16.68    2.89
  -5  -1   7    4.15    1.90
   5   1  -7    4.16    2.16
  -5  -1   7    2.63    1.16
   5   1  -7    4.79    2.10
  -7  -4  -2   21.85    1.87
  -7  -4  -2   22.26    2.31
   7   4   2   20.80    1.99
   7   4   2   20.73    2.02
   7   4   2   18.27    2.46
  -7  -4  -2   25.54    2.79
   0  -6 -11  157.06    9.33
   0   6  11  157.92   10.09
   0   6  11  157.42   10.14
   0  -6 -11  134.22    9.15
   0   6  11  148.91    9.91
  -5   4  -7   -0.75    1.41
  -5   4  -7   -1.34    1.76
  -5   4  -7   -1.13    1.13
  -5   4  -7   -1.54    1.91
  -5   4  -7   -1.40    2.08
   0   5  -9   49.74    3.71
   0  -5   9   51.17    3.84
   0   5  -9   53.12    3.74
   0  -5   9   55.25    4.28
  -6   1   5   15.23    2.10
  -6   1   5    9.78    0.85
  -6   1   5    7.16    0.69
  -6   1   5   13.99    1.85
  -6   1   5   13.65    0.95
   2   9  -2   24.11    2.48
   2   9  -2   23.23    2.78
  -2  -9   2   26.01    2.89
   2  -1 -11   95.67    6.72
  -2   1  11  130.51    6.43
  -2   1  11   89.96    5.92
   2  -1 -11  107.66    7.07
   2  -1 -11  142.27    7.21
   2  -1 -11  139.90    7.65
   7   2   6  109.40    7.18
  -7  -2  -6  111.82    7.50
   7   2   6  110.13    7.30
  -3  -6 -11   11.62    2.20
   3   6  11    9.57    2.31
  -3  -6 -11    9.89    2.28
  -3  -6 -11   10.23    1.96
   3   6  11    7.18    2.25
   3   8   9   64.96    5.18
   3   8   9   66.00    4.17
  -3  -8  -9   70.15    5.66
  -3  -8  -9   86.53    5.61
  -3  -8  -9   81.59    5.52
   5   8   2  189.73   11.69
   5   8   2  190.00   11.58
   5   8   2  183.50   11.65
   5   8   2  196.36   11.68
   5   8   2  174.55   11.78
   5   8   2  196.47   11.48
   5   8   2  178.15   11.63
   5   8   2  179.45   11.81
   2   0  12   77.78    5.42
   2   0  12   77.84    5.46
  -2   0 -12   87.64    6.23
   2   0  12   78.96    5.04
  -2   0 -12   82.90    5.91
  -2   0 -12   80.95    5.73
  -6   3  -6    5.41    2.08
  -6   3  -6    4.14    1.71
  -6   3  -6    3.81    2.10
  -6   3  -6    4.78    1.62
  -7  -2   1   96.16    4.32
   7   2  -1   53.61    3.74
  -7  -2   1   85.34    3.40
   7   2  -1   91.59    4.57
  -7  -2   1   84.74    4.00
  -7  -2   1   79.94    3.78
   1  10   4   -0.43    1.97
   1  10   4   -3.03    2.71
  -1 -10  -4    0.28    2.04
   1  10   4    0.78    1.90
   1  10   4    0.81    1.27
   4   9   3   86.54    5.86
  -4  -9  -3   86.90    5.95
   4   9   3   97.42    5.99
   4   9   3   77.99    6.05
   4   9   3   88.88    6.00
   4   9   3   78.86    5.91
   4   9   3   75.69    6.18
   4   9   3   96.51    5.83
  -6  -2  -9    3.27    2.35
   6   2   9    2.71    1.84
   6   2   9    4.53    1.73
   6   2   9    3.86    2.18
  -6  -2  -9    4.03    2.47
   5  -2   9   20.63    2.74
  -5   2  -9   19.83    2.49
  -5   2  -9   17.58    1.54
  -5   2  -9   21.79    2.82
   5   8   5  433.70   26.65
   5   8   5  451.58   26.33
  -5  -8  -5  465.22   28.04
  -5  -8  -5  468.46   28.00
   5   8   5  437.66   26.41
   5   8   5  460.01   26.43
   5   8   5  406.63   26.40
   4   9   4  315.67   18.45
   4   9   4  291.26   18.44
   4   9   4  297.52   18.56
   4   9   4  277.67   18.73
   4   9   4  317.40   18.49
  -4  -9  -4  290.53   17.76
   4   9   4  312.50   18.55
   4   9   4  303.50   18.40
   3   9   7   70.35    4.61
   3   9   7   68.91    4.91
  -3  -9  -7   73.72    5.26
   3   9   7   69.60    5.00
  -3  -9  -7   75.28    5.31
  -7   1   1   49.07    3.56
  -7   1   1   55.76    4.06
   7  -1  -1   50.14    3.73
   4   6  -5    1.78    1.25
   4   6  -5    2.20    1.19
  -4  -6   5    0.95    1.62
   4   6  -5    0.18    1.34
   4   6  -5    0.45    1.98
   4   6  -5    1.23    1.02
  -3   6  -7    1.88    1.00
  -3   6  -7    5.32    2.26
   3  -6   7    4.14    2.24
  -3   6  -7    4.87    1.94
  -7   2  -1  112.30    6.89
   7  -2   1   98.91    6.63
   7  -2   1  120.70    6.89
  -7   2  -1  101.36    7.27
  -7   2  -1  110.66    7.05
  -7   2  -2   36.05    2.81
   7  -2   2   31.26    2.47
   7  -2   2   40.53    2.94
  -7   2  -2   41.28    3.14
  -7   2  -2   31.27    3.30
  -1   6  -8   66.48    4.93
  -1   6  -8   68.87    5.03
  -7  -1  -6   16.03    2.42
   7   1   6   16.08    2.38
   7   1   6   17.69    2.35
  -7  -1  -6   21.69    2.66
   3   0 -10   58.39    4.14
  -3   0  10   60.91    4.05
   3   0 -10   67.81    4.53
   3   0 -10   63.96    4.82
   0  -6   8   66.35    4.52
   0   6  -8   66.19    4.82
   0   6  -8   66.02    4.85
   4   4  -7   49.82    3.30
   4   4  -7   63.25    4.26
  -4  -4   7   61.81    3.92
  -4  -4   7   61.61    4.40
  -4  -4   7   55.93    4.01
  -6   1  -8   63.28    4.98
  -6   1  -8   73.00    5.16
   6  -1   8   72.04    5.26
  -2  -4   9   79.00    5.39
   2   4  -9   85.68    5.67
   2   4  -9   77.42    5.47
  -2  -4   9   75.93    5.50
  -2  -4   9   91.20    5.87
   6   3  -4    9.21    1.89
   6   3  -4   10.81    2.53
  -6  -3   4    6.42    1.58
  -6  -3   4    7.43    1.64
   0  10   3    0.96    0.62
   0  10   3   -1.59    2.01
   0 -10  -3    0.12    1.50
   0  10   3   -0.23    2.59
   0  10   2    9.93    1.98
   0  10   2    8.23    2.12
   0 -10  -2   10.70    1.88
   0  10   2    5.83    0.59
   0  10   2   10.95    2.80
  -4  -8  -8    7.81    1.94
  -4  -8  -8    9.18    1.98
   4   8   8    9.35    1.76
   6  -4  -3   64.63    4.47
  -6   4   3   78.62    5.31
  -6  -5   2   -0.33    1.95
   6   5  -2    0.44    1.77
   6   5  -2   -0.22    1.47
   6   5  -2   -0.05    1.75
  -6  -5   2   -0.65    1.89
  -1   4 -10   17.82    2.64
   1  -4  10   16.22    2.22
   1  -4  10   20.38    2.71
  -1   4 -10   17.01    1.76
  -3  -7   5  215.64   13.65
  -3  -7   5  219.57   13.38
   3   7  -5  204.45   13.42
   3   7  -5  228.52   13.07
   3   7  -5  206.13   13.08
   6   5   8    2.09    2.27
  -6  -5  -8    2.78    1.61
   6   5   8    0.29    1.75
  -6  -5  -8   -0.37    1.81
  -6  -5  -8    0.96    1.17
  -6  -3  -9    5.15    2.39
   6   3   9    3.53    2.04
   6   3   9    6.43    2.32
   6   3   9    4.57    1.71
   6   3   9    5.72    1.68
  -3  -1 -12   44.91    3.80
   3   1  12   40.56    3.10
  -3  -1 -12   43.66    4.15
   3   1  12   41.26    3.53
   3   1  12   41.56    3.07
  -3  -1 -12   40.25    3.64
   3   1  12   41.50    3.54
   3   1  12   37.14    3.27
  -1   8  -5   97.70    6.44
   1  -8   5   85.90    5.51
  -1   8  -5   99.02    6.53
  -1   8  -5   85.38    6.33
   1  -8   5  104.76    6.42
   3  -3 -10   61.38    4.45
   3  -3 -10   68.80    4.44
  -3   3  10   68.41    4.73
  -3   3  10   63.36    4.62
   6   1  -5    6.58    2.31
  -6  -1   5    8.82    2.11
   6   1  -5    8.51    1.83
  -6  -1   5   10.21    1.67
  -4  -5 -11  187.60   11.88
  -4  -5 -11  187.72   11.90
  -4  -5 -11  193.27   11.70
   4   5  11  200.87   12.65
  -3   8  -3   32.53    3.05
   3  -8   3   38.23    3.46
   3  -8   3   34.44    3.18
   0   9  -3   67.28    5.03
   0  -9   3   65.29    4.91
   2  -3 -11   59.42    4.09
   2  -3 -11   60.16    4.30
  -2   3  11   54.12    3.98
  -2   3  11   58.88    4.26
  -1  -9  -8   22.55    2.65
   1   9   8   19.15    2.44
  -5  -7  -8   27.52    2.77
   5   7   8   19.94    2.44
  -5  -7  -8   25.46    2.44
   5   7   8   30.79    3.33
  -5  -7  -8   24.73    2.61
   4   9   2    1.50    1.54
   4   9   2    1.43    1.55
   4   9   2   -0.44    2.00
   4   9   2    4.36    2.16
   4   9   2    2.43    1.87
   4   9   2    2.41    1.69
   4   9   2    1.04    1.78
   4   9   2    1.76    2.28
  -4   7   5   31.40    2.41
  -4   7   5   33.10    2.94
   4  -7  -5   32.91    3.01
  -6  -1  -9   82.50    5.97
  -6  -1  -9   76.49    5.33
   6   1   9   82.52    5.79
  -6  -1  -9   92.91    6.06
   6   1   9   81.28    5.53
  -1 -10  -1   44.71    3.57
   1  10   1   47.93    3.24
   1  10   1   54.73    3.89
   7   3   6    4.54    1.96
  -7  -3  -6    3.63    2.26
   7   3   6    0.36    1.94
   4  -1  -9   19.07    2.27
  -4   1   9   19.15    1.76
  -4   1   9   17.68    2.33
   0   4  12    8.64    2.38
   0  -4 -12   10.42    2.07
   0  -4 -12    8.88    1.86
   0   4  12   11.64    2.00
   1   8  -5   13.71    2.31
  -1  -8   5   14.90    2.56
   1   8  -5   13.57    2.16
   1   8  -5   19.04    2.49
   1   8  -5   16.34    2.54
  -1  -8   5   16.11    1.77
   2  10   3  167.24   10.55
   2  10   3  167.29   10.85
   2  10   3  180.79   10.71
   2  10   3  153.09   10.59
   2  10   3  173.68   10.30
  -2 -10  -3  168.71   10.72
   2  10   3  161.85   10.43
  -7   2   0   92.98    7.26
  -7   2   0  116.21    6.85
   7  -2   0  116.35    7.43
  -7   2   0  111.75    7.02
  -7   2  -3    6.13    2.14
  -7   2  -3    6.59    2.01
   7  -2   3    8.01    1.81
  -7   2  -3   11.59    1.60
  -7   2  -3    6.78    1.86
   7  -2   3    6.48    0.99
   4   9   5  145.57    9.42
   4   9   5  139.73    9.31
   4   9   5  140.67    9.52
  -4  -9  -5  155.15    9.85
   4   9   5  154.63    9.34
   4   9   5  134.86    9.32
   4   9   5  155.51    9.38
   4   9   5  167.21    9.90
  -2  -7   6   82.89    5.92
   2   7  -6   83.08    5.73
   2   7  -6   86.32    6.03
   2   7  -6   88.39    5.63
  -2  -7   6   82.82    5.47
   7   4   5   40.70    3.11
   7   4   5   35.60    2.52
  -7  -4  -5   33.66    2.66
   7   4   5   29.80    3.27
  -7  -4  -5   35.01    2.93
  -7  -4  -5   25.76    3.24
  -5  -5 -10  124.77    7.20
  -5  -5 -10  111.43    7.71
   5   5  10  103.28    7.04
  -5  -5 -10  101.33    6.87
   5   5  10  104.33    7.32
  -5  -5 -10  108.76    7.23
   5   5  10  113.29    7.26
   3   4  12  134.70    8.87
   3   4  12  124.48    8.34
   3   4  12  154.20    8.74
  -3  -4 -12  141.69    8.98
  -3  -4 -12  138.71    9.03
  -2  -9  -8   48.45    4.02
   2   9   8   47.89    3.88
  -2  -9  -8   54.48    4.12
   2   9   8   48.03    3.94
   2   9   8   52.66    4.55
  -7  -4  -1   32.65    2.66
   7   4   1   34.32    2.74
   7   4   1   32.24    2.45
  -7  -4  -1   24.77    2.97
  -7  -4  -1   35.15    2.92
   7   4   1   32.81    2.96
  -7  -4  -1   29.58    2.19
   3   9  -1   48.79    3.85
   3   9  -1   57.00    4.41
   3   9  -1   56.01    3.93
   3   9  -1   57.53    4.55
   3   9  -1   59.29    3.96
   3   9  -1   51.97    4.41
   3   9  -1   62.73    4.13
   0  10   4    0.97    2.61
   0 -10  -4    1.11    1.35
   0  10   4    1.88    0.98
   0  10   4    2.60    2.04
   6  -5   0   78.71    5.57
  -6   5   0   79.09    5.54
   6  -5   0   87.67    5.36
   0   0 -12   73.14    5.41
   0   0  12   75.98    5.24
   0   0  12   71.76    5.05
   0  -4  10    1.61    2.13
   0  -4  10   -0.45    1.60
   0   4 -10    0.56    0.69
   0   4 -10    0.38    2.08
   0 -10  -1    3.00    1.82
   0  10   1    4.09    2.67
   0  10   1    4.78    2.14
   0  10   1    3.25    1.95
   0 -10  -1    2.34    2.01
   6  -5   1   44.86    3.43
   6  -5   1   47.34    3.22
  -6   5  -1   41.14    3.53
  -6   5  -1   48.60    3.79
   2  -9  -5    6.28    2.04
  -2   9   5    4.75    0.84
   2  -9  -5    5.77    1.36
  -2   9   5    6.57    2.05
   2  10   4  131.56    9.25
  -2 -10  -4  152.28    9.81
   2  10   4  142.25    8.77
   2  10   4  142.43    8.79
   2  10   4  136.47    8.97
   2  10   4  144.12    9.06
   6   6   7  127.01    9.29
  -6  -6  -7  120.65    8.45
  -6  -6  -7  134.01    8.63
   6   6   7  154.90    9.85
  -5   3   7  166.54    8.09
  -5   3   7  164.54    8.16
  -5   3   7  162.37    7.75
  -4   2   9    1.04    1.41
   4  -2  -9    1.06    1.63
  -4   2   9   -0.95    1.79
   2  -5   9  129.45    8.55
  -2   5  -9  129.71    7.78
  -2   5  -9  123.65    7.97
  -2   5  -9  110.42    7.48
  -7   1  -5   13.13    2.22
   7  -1   5   13.49    2.14
  -7   1  -5   11.80    2.03
  -7   1  -5    9.02    1.11
   1   9  -3    7.64    1.89
   1   9  -3    8.01    2.24
   1   9  -3    8.99    2.34
  -1  -9   3    8.78    2.25
  -1  -9   3    6.29    1.34
   2   0 -11    0.22    1.51
   2   0 -11    0.36    0.91
   2   0 -11    0.64    1.67
   2   0 -11    1.24    2.30
  -2   0  11   -1.40    1.45
  -4   6  -6   15.29    2.36
  -4   6  -6   18.23    2.08
   1  10   5    3.07    1.89
   1  10   5    4.13    2.74
  -1 -10  -5    5.53    2.15
   1  10   5    2.36    2.00
   1  10   5    3.46    1.94
   2  10   2  133.90    7.82
   2  10   2  107.27    7.66
   2  10   2  112.18    7.82
   2  10   2  118.68    8.15
  -2 -10  -2  124.32    8.18
   2  10   2  122.14    7.92
   2  10   2  123.39    7.46
  -6   2   5   27.40    2.23
  -6   2   5   33.06    2.90
  -6   2   5   31.11    2.73
  -6   2   5   33.53    2.84
   6  -2  -5   35.78    3.24
  -2  -5 -12   25.61    2.76
  -2  -5 -12   27.47    2.78
   2   5  12   23.28    1.98
   2   5  12   25.00    3.15
   2   5  12   23.10    2.97
   2   5  12   25.74    2.74
  -2  -5 -12   26.42    2.64
  -1  -5 -12   16.06    2.20
   1   5  12   14.12    1.31
   1   5  12   18.86    2.79
   1   5  12   18.65    2.66
  -1  -5 -12   13.62    2.25
   5   8   1  245.88   14.59
   5   8   1  241.03   14.47
   5   8   1  210.72   14.32
   5   8   1  247.82   14.42
   5   8   1  233.52   14.30
   5   8   1  207.18   14.51
   5   8   1  247.75   14.21
   4   0  -9   44.16    3.84
  -4   0   9   46.10    3.23
   4   0  -9   38.42    2.81
  -4   0   9   44.91    2.50
  -7   0  -6   28.98    2.76
  -7   0  -6   29.13    2.52
   7   0   6   27.91    2.82
   7   0   6   24.89    2.82
  -7   0  -6   20.08    1.31
   3   3  -9    6.51    2.28
  -3  -3   9    6.14    1.89
  -3  -3   9    4.83    1.56
   3   3  -9    4.40    2.04
  -5  -8  -6   21.91    2.51
   5   8   6   22.90    2.70
   5   8   6   24.43    2.72
   5   8   6   25.83    2.51
  -5  -8  -6   26.20    2.53
   5   8   6   21.66    2.69
   5   8   6   28.29    3.34
   7   0  -2   -0.77    1.38
  -7   0   2   -1.11    1.79
  -7   0   2    1.31    0.86
  -7   0   2    1.45    2.03
   7   0  -2    1.40    1.60
   3  -2  11  101.63    6.99
  -3   2 -11  107.03    7.11
   3  -2  11  106.30    6.98
   3  -2  11  106.13    6.99
  -3   2 -11   97.38    6.67
  -4   7  -4    3.53    2.33
  -4   7  -4    4.85    1.99
   4  -7   4   -1.72    1.72
   4  -7   4    0.54    0.64
  -4   7  -4    2.05    1.69
   5  -6  -4   57.98    4.25
  -5   6   4   58.34    4.11
  -5   6   4   63.74    4.34
  -4  -8   2    4.64    1.81
   4   8  -2    5.23    1.48
   4   8  -2    4.32    1.40
   4   8  -2    1.34    2.02
   4   8  -2    5.25    2.38
   4   8  -2    3.23    1.52
   4   8  -2    4.22    2.18
   4   8  -2    4.58    1.74
   4   8  -2    5.62    1.46
   2  -4  10  105.80    7.16
  -2   4 -10   88.88    6.16
  -2   4 -10  106.61    6.72
  -2   4 -10   98.78    6.42
  -6   5   1  141.37    9.05
   6  -5  -1  118.09    8.69
   6  -5  -1  152.98    8.53
  -7  -1   2   22.08    1.67
  -7  -1   2   22.15    2.61
  -7  -1   2   21.38    2.29
  -7  -1   2   21.52    2.18
   7   1  -2   18.75    1.95
  -7  -1   2   13.49    1.02
   7   1  -2   24.05    2.39
   6   7   3    0.43    2.05
   6   7   3    1.59    1.76
   6   7   3    3.43    2.32
  -6  -7  -3    2.03    1.40
   6   7   3   -1.51    1.94
   6   7   3    1.46    1.80
   6   7   3    0.88    1.58
   6   7   3   -0.14    2.13
  -6  -7  -4   19.32    2.88
   6   7   4   17.23    2.19
   6   7   4   18.80    2.53
   6   7   4   16.05    2.39
  -6  -7  -4   17.11    2.01
  -6  -7  -4   17.04    2.30
   6   7   4   17.76    2.62
   6   7   4   24.11    2.96
  -6   5  -2    1.77    2.01
   6  -5   2    3.00    1.52
   6  -5   2    1.28    1.18
  -6   5  -2   -2.09    1.85
  -6  -4  -9   14.35    1.35
   6   4   9   21.40    2.86
  -6  -4  -9   19.92    2.04
   6   4   9   20.58    2.24
  -6  -4  -9   20.67    2.94
   6   4   9   19.83    2.72
   6   4   9   17.46    2.31
  -6  -4  -9   11.93    2.07
  -1   9   7  106.77    7.24
  -1   9   7  114.96    7.36
   1  -9   3  128.83    8.36
  -1   9  -3  128.85    8.45
   1  -9   3  122.78    8.18
   0   7  -7  103.45    6.94
   0  -7   7  109.76    6.94
   0   7  -7   99.22    6.84
   0   7  -7  105.25    6.94
   0  -7   7   95.78    6.33
  -1  -2  11   62.11    4.54
  -1  -2  11   59.24    4.10
   1   2 -11   47.81    4.29
   1   2 -11   58.89    4.12
  -1  -2  11   51.71    4.16
  -5   5  -6   20.02    1.92
  -5   5  -6   20.00    2.74
  -5   5  -6   22.60    2.52
  -5   5  -6   16.45    1.94
  -5   5  -6   19.31    2.47
  -6   4  -5   83.90    5.77
  -6   4  -5   79.12    5.51
   6  -4   5   86.17    5.65
  -6   4  -5   79.40    5.66
  -2   7   9    6.65    2.00
   2  -7  -9    6.64    2.62
  -2   7   9    6.69    1.73
   2  10   5  129.92    8.12
   2  10   5  108.61    8.51
   2  10   5  120.52    8.52
   2  10   5  128.37    7.84
   2  10   5  124.39    8.15
  -2 -10  -5  122.66    8.10
   2  10   5  126.83    7.93
   4   9   1   15.47    1.89
   4   9   1   12.68    2.05
   4   9   1   17.00    2.52
   4   9   1   13.80    2.38
   4   9   1   20.07    2.71
   4   9   1   18.01    2.05
   4   9   1   14.65    2.05
  -2   6  -8   49.71    4.13
  -2   6  -8   47.48    4.06
  -2   6  -8   51.10    3.93
  -5   6  -4  226.76   14.06
   5  -6   4  224.93   13.88
  -5   6  -4  228.30   13.72
  -5   6  -4  221.64   14.13
   5  -6   4  243.57   14.11
   7   3  -1  266.35   16.31
  -7  -3   1  239.86   15.63
  -7  -3   1  273.72   15.62
  -7  -3   1  252.46   15.37
  -2   9  -2  141.30    9.15
   2  -9   2  139.19    9.06
   2  -9   2  138.72    8.99
   4  -8  -1   30.22    3.01
  -4   8   1   23.66    2.98
   5   7  -2   51.54    4.58
   5   7  -2   55.53    4.18
  -5  -7   2   56.42    4.24
   5   7  -2   55.81    4.32
   5   7  -2   58.25    4.11
   5   7  -2   67.29    4.30
   5   7  -2   53.83    3.74
  -5  -2   7   89.40    4.96
  -5  -2   7   67.58    4.77
   5   2  -7   85.63    6.03
   5   2  -7   89.72    6.14
  -4  -7   4   -0.72    1.70
   4   7  -4    0.03    1.33
   4   7  -4    0.74    1.18
   4   7  -4    2.35    1.63
   4   7  -4    0.34    1.49
   4   7  -4   -0.44    2.22
   4   7  -4    2.44    1.64
   1   6  -8    3.43    1.97
  -1  -6   8    2.73    1.59
   1   6  -8    1.97    2.01
   1   6  -8    3.42    2.11
   1  -7   7    4.72    1.29
  -1   7  -7    5.38    2.21
  -1   7  -7    2.92    1.98
   1  -7   7    3.93    2.41
  -1   7  -7    3.97    2.08
   1   5  -9   86.51    6.02
  -1  -5   9   82.23    5.84
   1   5  -9   87.82    5.93
  -1  -5   9   96.62    6.23
   3   1 -10   24.80    2.56
  -3  -1  10   24.24    2.12
   3   1 -10   20.52    2.01
   3   1 -10   23.08    2.93
   0  -9  -8  184.60   11.97
   0   9   8  192.53   12.09
   0   9   8  194.41   12.13
   0  -9  -8  197.53   12.22
  -5   1 -10   40.13    3.33
  -5   1 -10   29.68    2.28
  -5   1 -10   39.16    3.57
   5  -1  10   38.49    3.31
   7  -2  -1   76.42    5.14
  -7   2   1   64.57    4.96
  -7   2   1   73.26    4.52
  -7   2   1   64.06    4.59
  -7   2  -4    0.66    1.84
  -7   2  -4    1.77    1.20
  -7   2  -4    1.54    1.75
  -7   2  -4    1.02    1.43
   7  -2   4    0.10    1.69
   1  -7 -10    8.43    2.08
   1  -7 -10   12.92    2.28
  -1   7  10   13.34    2.24
  -1   7  10    9.73    1.91
  -4   1 -11   74.23    5.05
   4  -1  11   58.16    4.54
   4  -1  11   60.45    4.44
  -4   1 -11   64.20    5.04
   4   9   6  108.06    7.55
  -4  -9  -6  140.62    7.96
   4   9   6  115.74    7.45
   4   9   6  114.17    7.38
   4   9   6  124.00    8.02
   4   9   6  114.67    7.35
  -4  -9  -6  104.72    7.82
   4   9   6  109.17    7.43
  -6  -2   5   25.20    1.79
   6   2  -5   16.03    2.38
   6   2  -5   23.39    2.90
  -6  -2   5   19.70    2.20
   6   2  -5   22.59    2.42
   0  10   5   33.29    3.13
   0 -10  -5   30.07    2.36
   0  10   5   37.42    3.87
   4  -6  -7   29.28    2.79
  -4   6   7   32.40    2.84
   4  -6  -7   31.71    3.39
  -4   6   7   30.59    2.61
   1  -1  12    0.44    1.79
   1  -1  12    1.99    1.81
  -1   1 -12    2.42    2.23
  -1   1 -12    2.66    2.55
   1  -1  12    5.22    2.10
  -2 -10  -1   78.27    5.72
   2  10   1   72.16    5.26
   2  10   1   75.92    4.91
   2  10   1   72.66    5.23
  -2 -10  -1   82.54    5.56
   2  10   1   85.13    5.59
  -3   0 -12  102.03    7.18
  -3   0 -12  104.67    6.84
   3   0  12  110.44    6.46
   3   0  12   99.25    6.89
   3   0  12   98.60    6.91
   3   0  12   95.17    6.73
  -3   0 -12   95.89    6.77
  -4   8   0    0.36    2.34
   4  -8   0    0.37    1.94
   4   3  -8   59.40    3.66
   4   3  -8   55.92    3.58
  -4  -3   8   60.25    4.18
  -4  -3   8   56.40    3.76
  -4  -3   8   49.58    3.57
  -1 -10   0   75.32    5.31
   1  10   0   61.38    4.52
  -1   2  12    2.53    1.88
   1  -2 -12    0.53    1.36
   1  -2 -12    1.45    1.74
  -1   2  12    0.49    1.22
  -7   1   2   51.39    4.12
  -7   1   2   56.47    4.22
   7  -1  -2   53.37    3.93
  -7   1   2   53.18    3.61
   6   0   9   53.62    4.44
  -6   0  -9   70.40    5.37
  -6   0  -9   80.50    4.81
   6   0   9   59.10    4.16
   0 -10   0  115.75    7.31
   0 -10   0  104.54    7.37
   0  10   0  106.07    7.14
   6   7   2   14.33    1.88
   6   7   2   11.67    2.25
   6   7   2   11.65    2.21
   6   7   2   12.27    1.97
   6   7   2   13.49    2.63
   6   7   2   10.57    2.00
   6   7   2    6.21    0.64
   6   7   2   13.56    2.10
  -6  -7  -5   49.22    4.39
   6   7   5   61.47    4.46
   6   7   5   60.57    4.70
  -6  -7  -5   52.41    3.74
   6   7   5   54.84    3.97
   6   7   5   51.93    4.32
   6   7   5   49.06    4.13
  -6  -7  -5   47.91    3.92
  -6  -6   1   97.42    6.67
   6   6  -1   96.35    6.90
   6   6  -1  104.66    6.55
   6   6  -1  109.86    6.49
   6   6  -1   91.05    6.00
   6   6  -1   96.34    6.52
   2  -4 -11   16.35    1.71
  -2   4  11   17.13    2.64
   2  -4 -11   19.33    2.29
  -2   4  11   20.73    2.74
  -4   8   2   86.57    6.20
   4  -8  -2   93.97    6.40
  -3   8   6    5.83    1.18
   3  -8  -6    5.48    2.00
  -3   8   6    6.71    2.07
   4  -3  -9   87.47    5.77
  -4   3   9   94.71    5.93
  -4   3   9   81.31    5.91
  -4   3   9   89.11    6.13
   1  -3  11    2.29    1.81
   1  -3  11    1.67    2.12
   1  -3  11    0.18    1.70
  -1   3 -11    1.84    1.32
  -1   3 -11    1.14    2.32
  -7  -4  -6  148.85    9.10
  -7  -4  -6  140.93    8.92
   7   4   6  136.63    8.65
   7   4   6  130.65    8.06
   7   4   6  117.01    8.61
   7   4   6  143.63    8.53
  -7  -4  -6  134.73    9.35
  -4   5   8  129.12    8.28
  -4   5   8  151.84    8.53
  -4   5   8  127.30    8.45
   4  -5  -8  133.95    8.74
   4  -5  -8  156.44    9.36
  -4   5   8  134.09    8.81
   2   7  11   68.49    5.53
   2   7  11   73.77    5.35
  -2  -7 -11   78.36    5.43
   2   7  11   67.43    5.30
  -2  -7 -11   75.77    5.67
  -3   4  10    1.60    1.68
   3  -4 -10    3.91    1.40
  -3   4  10    3.88    2.19
  -3   4  10    3.78    2.18
   2  -6 -10   14.56    2.77
   2  -6 -10    9.32    0.84
  -2   6  10   15.20    2.19
  -2   6  10   16.73    2.77
  -1  -8 -10   19.07    2.90
   1   8  10   15.45    2.36
  -1  -8 -10   17.29    2.56
   1   8  10   20.20    2.91
  -1  -8 -10   18.59    2.55
  -1  -7 -11   91.05    6.34
   1   7  11   85.99    6.35
  -1  -7 -11   94.30    6.59
  -1  -7 -11   94.11    6.39
   1   7  11   90.88    6.42
  -1  10   2   89.72    6.20
   1 -10  -2   92.78    6.13
   1 -10  -2   92.30    6.44
  -7  -4   0   48.46    4.07
  -7  -4   0   53.29    3.75
   7   4   0   51.28    3.60
   7   4   0   41.74    2.89
   7   4   0   54.29    3.51
  -7  -4   0   54.63    4.01
  -2  -8 -10  140.96    9.44
  -2  -8 -10  148.28    9.35
   2   8  10  140.76    9.42
  -7  -2  -7   10.43    2.60
   7   2   7   18.80    2.54
  -2  -3  10   82.37    4.31
   2   3 -10   73.30    5.17
  -2  -3  10   79.91    4.50
   2   3 -10   72.45    5.15
  -2  -3  10   87.43    4.88
  -7  -2   2   91.78    5.95
  -7  -2   2   86.35    6.01
  -7  -2   2  102.53    6.30
  -7  -2   2   83.50    5.59
   7   2  -2   95.35    6.35
   1  -1 -12    6.03    1.47
  -1   1  12    3.84    1.74
  -1   1  12    2.22    0.72
  -1   1  12    5.85    2.03
   1  -1 -12    6.50    1.86
   1 -10  -3   47.52    3.75
   1 -10  -3   62.15    4.38
  -1  10   3   64.54    4.77
  -2   1 -12    1.50    1.88
  -2   1 -12    3.11    2.21
  -2   1 -12   -2.27    2.57
   2  -1  12    2.10    0.94
   2  -1  12   -1.62    1.91
   2  -1  12   -0.78    2.03
   5   2  11   40.53    3.02
  -5  -2 -11   36.06    3.47
   5   2  11   35.02    3.53
  -5  -2 -11   29.53    2.28
  -5  -2 -11   42.37    3.83
   5   2  11   34.04    3.22
   5   2  11   37.75    3.28
  -4  -7 -10    3.63    1.74
  -4  -7 -10    3.54    2.12
  -4  -7 -10    5.81    1.98
   4   7  10    3.10    2.40
   4   7  10    5.34    2.07
  -4  -7 -10    3.38    2.08
   7   5   3   29.31    2.53
  -7  -5  -3   26.85    3.21
  -7  -5  -3   28.86    2.39
  -7  -5  -3   33.29    2.76
   7   5   3   26.30    3.02
   7   5   3   28.58    2.49
  -1   8   9  164.75   10.41
  -1   8   9  162.81   10.31
   1  -8  -9  146.74    9.42
   1  -3 -12   33.63    2.74
  -1   3  12   33.72    3.05
  -1   3  12   28.88    2.61
   1  -3 -12   35.06    3.07
   5   3  11    4.55    1.73
   5   3  11    3.97    2.00
  -5  -3 -11    2.95    1.20
  -5  -3 -11    2.82    2.53
   5   3  11    3.71    2.41
  -5  -5   5   62.82    4.63
   5   5  -5   62.26    4.85
   6  -5  -2   63.09    4.45
  -7  -5  -4   47.84    4.38
  -7  -5  -4   54.13    3.86
   7   5   4   44.16    3.95
   7   5   4   49.81    3.58
  -7  -5  -4   50.55    3.59
   7   5   4   44.53    3.28
   1  10   6    3.98    2.06
  -1 -10  -6    8.35    2.37
   1  10   6    7.60    2.05
   1  10   6    7.15    2.12
   3   5  12  269.85   15.81
  -3  -5 -12  283.62   17.21
   3   5  12  236.06   15.17
  -3  -5 -12  281.47   17.30
   3   5  12  282.11   15.68
  -2   8  -5   52.85    4.35
  -2   8  -5   58.43    4.39
   2  -8   5   39.36    2.68
   2  -8   5   60.51    4.03
  -2   8  -5   57.11    4.55
  -4  -1   9   65.96    4.16
   4   1  -9   78.30    4.37
   4   1  -9   74.10    4.59
   3   9   8   70.90    4.60
   3   9   8   70.36    5.10
  -3  -9  -8   80.16    5.73
   3   9   8   74.89    5.68
  -3  -9  -8   84.96    5.80
  -7  -1  -7  111.36    7.55
   7   1   7   91.92    6.27
   6  -5   3   -0.26    1.44
  -6   5  -3    0.72    2.07
   6  -5   3   -0.03    1.29
  -6   5  -3    1.38    1.74
  -6   5  -3    1.17    1.95
   1 -10  -1  120.08    8.17
  -1  10   1  118.79    7.85
   1 -10  -1  125.75    7.99
   3  -7   6    1.51    2.20
  -3   7  -6   -1.84    2.32
  -3   7  -6    0.77    1.82
  -6   4   4   37.77    3.05
  -6   4   4   44.98    3.43
   6  -4  -4   45.49    3.80
  -6   4   4   39.82    3.25
  -5   5   6   44.91    3.41
  -5   5   6   44.35    3.37
   5  -5  -6   44.19    3.90
   0   5  12   60.76    5.11
   0   5  12   67.24    4.92
   0   5  12   76.49    5.32
   0  -5 -12   71.49    5.18
   4  -8   1    2.05    1.96
  -4   8  -1    2.24    2.43
  -4   8  -1    2.28    1.65
  -3   9   1   62.43    5.46
   3  -9  -1   72.49    5.34
   3  -9  -1   72.57    5.16
  -3   9   1   79.77    5.15
  -4   4  -9   39.96    3.05
  -4   4  -9   31.20    3.08
   7   3   7   37.86    2.85
   7   3   7   36.75    3.38
  -3   9   2  191.17   12.23
   3  -9  -2  191.60   12.14
   3  -9  -2  192.47   11.91
  -7  -5  -2   64.73    4.22
  -7  -5  -2   57.58    3.85
   7   5   2   63.94    4.20
   7   5   2   61.50    4.36
   7   5   2   62.07    4.71
   2   1 -11   31.95    2.67
   2   1 -11   32.23    3.44
  -2  -1  11   36.41    3.17
  -2  -1  11   36.06    3.38
  -2  -1  11   32.83    2.78
   5   8   0   54.44    4.18
   5   8   0   54.56    4.00
   5   8   0   59.84    4.44
   5   8   0   56.13    4.14
   5   8   0   50.76    3.64
   5   8   0   58.39    3.85
   5   8   0   60.24    4.34
   5   8   0   56.69    4.57
  -5   7   0    0.19    2.22
   5  -7   0    1.55    1.80
  -2   8   8   91.14    5.91
  -2   8   8   80.14    5.72
   2  -8  -8   90.36    6.55
   0   3 -11   11.46    2.48
   0  -3  11   10.47    2.02
   0  -3  11   11.55    1.98
   0  -3  11   11.17    2.43
  -1  -7   7   10.21    1.71
   1   7  -7   10.53    2.16
   1   7  -7   10.66    2.35
   2  -3  11   71.70    5.01
   2  -3  11   71.76    4.97
  -2   3 -11   68.78    5.28
   2  -3  11   62.45    5.04
  -2   3 -11   68.02    4.69
   5   4  -6   54.43    4.37
  -5  -4   6   50.94    3.63
  -5  -4   6   56.12    4.13
   5   4  -6   53.46    4.19
   6  -3  -5   36.59    3.32
  -6   3   5   38.16    3.35
  -6   3   5   42.56    3.01
  -6   3   5   43.35    3.38
   1   4 -10    0.40    2.06
  -1  -4  10    1.96    2.18
  -1  -4  10    3.22    1.65
   1   4 -10    3.22    1.93
  -1  -4  10    1.94    1.78
  -3  -8   4   18.45    2.66
   3   8  -4   19.49    2.38
   3   8  -4   17.69    2.24
   3   8  -4   19.10    2.75
  -3  -8   4   18.32    2.13
   5  -7  -1   16.82    2.29
  -4  -2 -12    3.43    2.13
   4   2  12    6.79    1.73
   4   2  12    4.55    1.77
  -4  -2 -12    6.94    2.52
  -5  -8  -7    6.47    1.89
  -5  -8  -7    8.20    1.87
   5   8   7    5.00    1.69
   5   8   7    4.81    2.82
   5   8   7    8.02    2.77
   5   8   7    6.84    2.08
  -7   3  -1   13.78    2.35
   7  -3   1   14.27    1.91
   7  -3   1   11.29    1.63
  -7   3  -1   10.45    2.08
  -4  -3 -12    1.85    1.46
   4   3  12    1.14    1.85
   4   3  12    0.48    1.70
  -4  -3 -12    1.42    2.46
   4  -8  -3  117.37    7.73
  -4   8   3  123.65    8.25
   0  -1  12   11.12    1.99
   0  -1  12   12.74    2.30
   0  -1  12   10.66    2.05
   0   1 -12   12.56    2.68
   0   1 -12   11.52    2.55
   1  -6 -11   28.90    2.94
  -2   9   6   -2.30    2.02
   2  -9  -6    0.95    2.02
   2  -9  -6   -0.41    1.11
  -2   9   6    1.90    0.98
   2   9  -3   13.66    1.63
  -2  -9   3   11.95    1.71
  -2  -9   3   13.25    2.49
   2   9  -3   11.47    2.11
   2   9  -3   16.07    2.52
   2  10   6   59.45    4.28
  -2 -10  -6   56.17    4.47
   2  10   6   48.08    4.17
   2  10   6   53.97    4.75
   2  10   6   56.91    4.24
  -1  10   4   11.41    2.12
   1 -10  -4    8.08    2.33
   1 -10  -4    9.00    1.59
  -1  10   4    3.11    0.52
   3  -8   4   17.82    2.34
  -3   8  -4   18.65    2.47
   3  -8   4   15.25    2.63
   5   1  11  113.93    7.71
  -5  -1 -11  104.87    6.75
  -5  -1 -11   89.87    5.89
   5   1  11  111.90    7.77
   5   1  11  129.32    7.58
  -5  -1 -11   95.81    6.40
  -7   1  -6   19.98    2.77
  -7   1  -6   20.91    2.49
   7  -1   6   18.40    2.40
   4   6  11  139.91   10.03
   4   6  11  154.26    9.77
   4   6  11  166.52   10.03
  -4  -6 -11  155.44   10.19
  -4  -6 -11  158.80   10.20
  -4  -6 -11  157.81   10.14
  -4  -6 -11  165.38   10.00
  -7   3  -2    6.27    2.16
  -7   3  -2    7.57    1.63
  -7   3  -2    5.41    1.96
   7  -3   2    4.19    1.60
   7  -3   2    7.35    1.32
  -2  -8   5   37.14    3.05
   2   8  -5   41.12    3.49
   2   8  -5   43.07    3.40
  -2  -8   5   46.87    3.75
   2   8  -5   42.46    3.47
   2   8  -5   41.32    3.69
   2   8  -5   45.12    3.77
  -6   2  -8    3.78    2.03
  -6   2  -8    6.03    2.35
   6  -2   8    5.26    2.25
  -6   2  -8    3.99    1.74
   6   7   1   17.68    2.62
   6   7   1   25.61    2.65
   6   7   1   23.87    2.70
   6   7   1   19.20    3.04
   6   7   1   24.91    2.48
   6   7   6    3.34    2.27
   6   7   6    7.49    2.52
   6   7   6    3.76    1.60
  -6  -7  -6    4.11    1.67
  -6  -7  -6    4.54    1.95
  -6  -7  -6    4.09    2.56
   6   7   6    4.17    1.96
   5   6  -4   38.99    2.50
  -5  -6   4   46.74    3.79
   5   6  -4   45.05    3.34
   5   6  -4   48.38    3.05
   5   6  -4   48.76    3.05
   5   6  -4   44.32    3.53
   3  -6  -9   80.78    5.26
  -3   6   9   94.58    5.71
  -3   6   9   87.12    6.09
  -3   6   9   83.63    5.46
   3  -6  -9   97.40    6.28
  -3   6   9   73.10    5.46
   7   5   5   16.57    1.71
   7   5   5   11.07    2.23
  -7  -5  -5   17.60    2.90
  -7  -5  -5   14.78    2.21
  -7  -5  -5   17.41    1.95
   7   5   5   14.52    2.63
  -6   3  -7    1.95    2.23
  -6   3  -7   -0.33    1.62
  -6   3  -7   -0.37    1.72
  -6   3  -7    0.97    2.01
  -3 -10  -3  111.88    7.46
   3  10   3  126.84    7.91
   3  10   3  110.19    8.16
   3  10   3  119.07    7.73
   3  10   3  117.02    7.98
   3  10   3  119.41    7.82
   3  10   3  131.25    8.05
   3  10   3  123.26    8.35
  -6  -4   4    1.17    2.00
   6   4  -4   -0.16    1.87
   6   4  -4    4.18    1.76
   6   4  -4    3.91    2.39
  -6  -4   4    3.79    1.80
  -6  -4   4    3.23    1.62
   3  -9   0  101.17    6.76
  -3   9   0   92.82    6.87
   3  -9   0   98.26    6.80
  -3   9   0   99.14    6.50
   3  10   4   77.04    4.79
  -3 -10  -4   60.77    4.59
   3  10   4   59.12    4.70
   3  10   4   62.62    5.18
   3  10   4   65.04    5.48
   3  10   4   65.22    4.86
   3  10   4   66.30    4.94
   3  10   4   66.32    4.66
  -4   5  -8   10.95    1.55
  -4   5  -8   16.65    2.10
  -4   5  -8   14.92    2.37
  -4   5  -8   12.08    2.08
  -5   4   7   50.52    3.37
  -5   4   7   47.68    3.54
  -5   4   7   41.73    3.07
   5  -4  -7   53.00    4.43
  -3   7   8    9.99    1.88
   3  -7  -8   12.43    2.84
  -3   7   8   13.83    2.16
   3  -7  -8   11.74    2.10
  -3   7   8   13.17    1.70
  -4  -8  -9   45.85    4.02
  -4  -8  -9   50.32    3.88
   4   8   9   43.62    3.29
   4   8   9   49.27    4.43
  -4  -8  -9   52.86    3.95
   4   8   9   42.41    4.13
   5  -7   1    7.31    1.97
  -5   7  -1    9.78    2.44
  -6  -6  -8   90.24    6.53
   6   6   8   87.35    5.99
   6   6   8   82.70    5.62
   6   6   8   98.64    6.31
  -6  -6  -8   99.74    6.45
  -6  -6  -8   99.79    6.26
  -4   3 -10    2.42    1.54
   4  -3  10    1.77    2.08
  -4   3 -10    0.99    1.82
   4   9   0   10.76    1.64
   4   9   0   12.25    2.43
   4   9   0   11.88    2.52
   4   9   0    9.83    1.83
   4   9   0   10.28    2.37
   4   9   0   10.32    1.99
   4   9   0    8.03    1.84
  -4   7   6   33.27    2.64
   4  -7  -6   41.04    3.86
  -4   7   6   36.19    3.12
   4  -7  -6   33.62    3.15
  -5  -4 -11   13.55    1.66
  -5  -4 -11   15.09    2.31
   5   4  11   15.78    2.82
   5   4  11   16.85    2.22
  -5  -4 -11   19.93    3.07
   5   4  11   11.26    2.35
   3  -9  -3  108.68    7.28
  -3   9   3  106.94    7.71
  -3   9   3  115.57    7.45
   3  -9  -3  109.56    7.06
   7  -3   0   51.08    3.39
  -7   3   0   46.65    3.55
   7  -3   0   39.44    3.24
  -7   3   0   43.57    3.84
   3   9  -2   52.58    4.01
   3   9  -2   61.62    4.55
   3   9  -2   55.52    4.43
   3   9  -2   50.70    3.80
   3   9  -2   59.82    3.86
   3   9  -2   48.14    4.41
   3   9  -2   57.24    3.89
   2  10   0   66.78    4.30
   2  10   0   64.15    4.66
   2  10   0   63.34    4.79
  -2 -10   0   63.25    4.98
  -2 -10   0   71.39    4.94
   6   5  -3   15.81    1.93
  -6  -5   3   18.87    2.54
   6   5  -3   18.07    2.31
  -6  -5   3   16.20    2.12
  -6  -5   3   19.43    2.40
   6   5   9    2.81    2.40
   6   5   9    5.12    2.54
  -6  -5  -9    5.02    1.26
  -6  -5  -9    2.44    1.96
   6   5   9    4.05    1.88
  -6  -5  -9    1.86    1.81
  -6  -5  -9    3.87    1.66
  -6  -5  -9    3.54    2.64
   5   6  10   22.88    3.33
  -5  -6 -10   24.84    3.34
  -5  -6 -10   26.72    2.74
  -5  -6 -10   26.83    2.75
   5   6  10   30.05    3.27
   5   6  10   26.97    2.82
   5   6  10   23.63    2.54
  -5  -6 -10   26.45    2.43
   5   7   9   56.64    4.64
   5   7   9   69.24    4.68
  -5  -7  -9   53.35    4.16
  -5  -7  -9   59.03    4.04
  -5  -7  -9   52.45    4.16
  -7   2   2   79.99    5.05
  -7   2   2   69.26    5.01
  -7   2   2   78.30    5.41
   7  -2  -2   78.96    5.30
  -7   2   2   82.63    5.49
  -2   7  -7   46.63    3.23
  -2   7  -7   45.95    3.32
   2  -7   7   51.24    4.29
  -2   7  -7   47.67    3.21
  -7   2  -5    2.01    1.55
  -7   2  -5    2.15    1.33
   7  -2   5    2.96    1.80
  -7   2  -5    2.52    1.79
  -7   2  -5    1.56    2.00
  -1   0  12   34.98    2.97
  -1   0  12   36.12    3.37
   1   0 -12   32.85    2.90
   0 -10  -6   48.85    4.05
   0  10   6   44.91    3.72
   5  -7  -2   56.03    4.25
   4   9   7   69.27    4.71
   4   9   7   70.15    4.82
  -4  -9  -7   71.77    5.16
  -4  -9  -7   72.83    5.14
   4   9   7   60.96    4.56
   3   7  11   -1.29    2.22
  -3  -7 -11   -1.66    2.06
  -3  -7 -11    0.89    2.35
  -3  -7 -11   -0.83    1.91
   3   7  11   -1.84    2.31
  -1  10   0   53.22    4.31
   1 -10   0   57.59    4.32
   1 -10   0   52.86    4.33
   5  -1  -8   47.01    3.80
  -5   1   8   37.55    2.82
  -5   1   8   36.84    2.54
  -5   1   8   45.57    3.45
   1  -4 -12   68.45    4.94
  -1   4  12   66.48    4.85
  -1   4  12   61.37    4.56
   3  10   2   90.14    5.85
   3  10   2   86.73    6.14
   3  10   2   69.93    6.02
   3  10   2   93.99    6.45
   3  10   2   98.45    6.54
   3  10   2   97.23    6.30
  -3 -10  -2   89.75    6.22
   3  10   2   97.48    6.07
   0  -8 -10    6.15    2.17
   0  -8 -10    9.91    2.63
   0  -8 -10    9.02    2.15
   0   8  10    4.79    2.11
   0   8  10    5.77    1.91
   0 -10   1   73.21    5.68
   0 -10   1   92.13    5.87
   0  10  -1   95.37    6.60
   4   1  12   60.82    4.91
  -4  -1 -12   69.41    5.40
   4   1  12   73.48    4.49
   4   1  12   60.45    4.56
  -4  -1 -12   74.96    5.26
   4   1  12   64.12    4.85
   0  -9   4   89.94    5.77
   0  -9   4  102.20    6.57
   0   9  -4   95.56    6.90
   0   9  -4  112.54    7.10
   2   6  12    1.05    0.61
   2   6  12    2.41    2.64
   2   6  12    1.06    2.33
   2   6  12    0.68    2.08
  -2  -6 -12    0.24    1.92
  -2  -6 -12   -1.49    1.92
  -2  -6 -12   -1.67    2.02
   3   8  10   95.22    6.01
   3   8  10  134.90    7.26
  -3  -8 -10  129.49    8.87
  -3  -8 -10  133.87    8.82
  -3  -8 -10  143.28    8.78
  -7   0  -7   97.63    6.59
  -7   0  -7  115.59    6.63
   7   0   7  104.47    7.03
  -7   0  -7  118.00    6.35
  -5   6   5   32.30    2.70
  -5   6   5   35.14    2.96
   5  -6  -5   28.13    2.73
  -3   5  -9    3.87    1.71
  -3   5  -9    0.95    1.84
  -3   5  -9    1.71    2.29
   3  -5   9    2.34    2.15
   0  -7 -11   84.14    6.35
   0  -7 -11  105.99    6.58
   0  -7 -11   95.83    6.73
   0   7  11   84.35    6.31
   0   7  11   95.13    6.57
  -7   0   3    0.10    0.31
   7   0  -3   -0.76    1.67
   7   0  -3    0.32    1.59
  -7   0   3   -0.07    2.12
  -7   0   3    0.91    1.76
  -7   0   3    0.15    0.42
   7   5   1   52.42    2.85
   7   5   1   32.29    2.53
   7   5   1   52.25    3.52
   7   5   1   35.91    2.57
   7   5   1   54.75    3.28
  -7  -5  -1   57.22    4.40
  -7  -5  -1   52.65    3.56
  -7  -5  -1   55.25    3.92
   7  -3   3    1.07    1.03
  -7   3  -3    4.67    2.01
  -7   3  -3    0.07    2.01
  -7   3  -3    1.33    1.45
  -7   3  -3    0.78    1.49
   7  -3   3    1.35    1.60
   1  10  -1  110.52    7.45
  -1 -10   1  117.18    7.75
   4   4  12   48.56    3.94
  -4  -4 -12   50.16    4.29
  -4  -4 -12   48.31    3.80
  -4  -4 -12   43.01    3.45
  -6   0   6  118.39    7.36
   6   0  -6  119.35    8.00
  -6   0   6  105.41    6.97
  -1  -9  -9    1.04    2.07
  -1  -9  -9   -1.47    2.55
   1   9   9    0.76    1.83
   1   9   9   -3.07    2.57
   1   9   9    0.07    2.03
   3  10   5   50.59    3.46
   3  10   5   42.33    3.43
   3  10   5   39.87    3.53
   3  10   5   34.18    3.66
   3  10   5   46.27    3.69
   3  10   5   39.38    4.10
  -3 -10  -5   45.86    3.79
  -5   3  -9    4.23    2.02
  -5   3  -9    1.36    1.18
  -5   3  -9   -1.55    2.36
  -1  -6 -12   47.30    3.75
   1   6  12   47.00    4.07
   1   6  12   46.15    4.24
  -1  -6 -12   45.35    3.75
   1   6  12   49.84    4.43
  -1  -6 -12   46.05    3.86
  -6   1   6   76.34    3.93
  -6   1   6   64.38    3.50
  -6   1   6   43.79    2.70
  -3  -6   7  315.40   19.14
   3   6  -7  277.71   14.97
   3   6  -7  297.81   15.43
  -3   4 -10    2.84    2.33
  -3   4 -10    7.61    1.80
  -3   4 -10    7.79    1.95
   3  -4  10    6.50    2.18
   5   0  -8    0.13    1.94
  -5   0   8   -0.58    1.93
  -5   0   8    0.05    1.08
   2   9   9  112.82    7.44
  -2  -9  -9  107.68    7.72
   2   9   9  109.88    7.90
  -2  -9  -9  114.22    7.57
  -2  -9  -9  115.80    7.56
  -5   4  -8    2.04    1.95
  -5   4  -8    0.96    1.26
  -5   4  -8   -1.86    2.00
  -5   4  -8    5.38    2.37
  -5   4  -8    1.27    1.46
   3   5  -8   17.60    2.52
   3   5  -8   15.45    2.03
  -3  -5   8   15.91    2.81
  -3  -5   8   19.61    2.43
   0  -8   6   72.12    4.77
   0   8  -6   64.10    4.89
   0   8  -6   64.48    4.94
   0  -8   6   53.31    3.85
   0   8  -6   66.50    4.83
   4  -4  -9   92.89    6.05
  -4   4   9   95.06    5.78
  -4   4   9   82.72    5.90
  -4   4   9   84.74    6.17
  -7  -1   3   44.15    3.60
  -7  -1   3   37.50    2.66
  -7  -1   3   36.07    3.25
   7   1  -3   46.42    3.63
  -4   8  -2   -2.41    1.80
   4  -8   2   -0.69    1.92
   7   4   7  123.38    7.41
  -7  -4  -7  118.47    7.61
   7   4   7  109.77    7.77
   2  -9   3   61.92    4.53
  -2   9  -3   60.22    4.63
   2  -9   3   48.76    4.25
   7   3  -2  262.83   16.10
  -7  -3   2  263.74   15.83
  -7  -3   2  253.32   15.76
  -6   5   3  143.08    8.98
   6  -5  -3  129.21    8.24
  -5   2   8  108.34    6.63
  -5   2   8   99.02    6.95
   5  -2  -8  115.38    7.57
  -4   7  -5   26.87    2.67
  -4   7  -5   27.75    2.91
   6   2  10   92.16    6.19
  -6  -2 -10   92.81    6.88
   6   2  10   85.57    6.44
   6   2  10  100.22    6.13
   6   2  10   89.65    6.31
  -6  -2 -10  104.87    7.09
  -6  -3   5    6.26    0.94
   6   3  -5    7.45    2.44
  -6  -3   5    9.55    1.73
   6   3  -5    5.80    1.93
  -6  -3   5    6.27    1.67
   7   4  -1  108.93    5.99
  -7  -4   1  112.11    7.01
  -7  -4   1   99.87    7.07
   7   4  -1   79.51    5.54
  -6   1  -9   17.10    2.70
  -6   1  -9   19.88    2.94
   6  -1   9   14.42    2.67
   3   2 -10   -0.62    1.95
  -3  -2  10    0.19    1.86
  -3  -2  10   -1.37    1.54
   3   2 -10   -0.10    0.34
   3   2 -10    1.43    2.24
   3   2 -10   -0.36    1.26
  -5   6  -5   65.77    4.83
  -5   6  -5   55.71    4.91
  -5   6  -5   67.55    4.37
   5  -6   5   60.04    4.01
   1 -10  -5    0.31    1.25
  -1  10   5    0.79    2.08
  -3   1 -12   46.50    3.86
   3  -1  12   51.05    4.00
  -3   1 -12   51.55    4.42
   3  -1  12   46.64    3.97
  -3   1 -12   47.79    4.06
   3  -1  12   48.97    3.88
  -6  -3 -10    0.01    0.39
   6   3  10    2.30    1.69
   6   3  10    0.79    2.00
   6   3  10   -0.64    1.78
  -6  -3 -10    0.61    2.44
   6   3  10    1.26    2.36
  -3   9  -1   -4.75    2.68
  -3   9  -1    1.06    1.94
   3  -9   1   -0.78    2.01
   3  -9   1    1.69    2.14
   6  -5   4    4.75    1.41
  -6   5  -4    3.34    1.89
  -6   5  -4    3.33    2.27
   6  -5   4    3.87    1.38
   1   2  13   53.26    3.58
  -1  -2 -13   46.02    3.92
   1   2  13   44.44    4.00
   1   2  13   52.80    3.88
  -1  -2 -13   55.13    4.33
  -6   4  -6    4.05    2.08
  -6   4  -6    5.41    1.88
  -6   4  -6    6.44    2.23
  -6   4  -6    4.37    1.68
   5  -7   2   10.93    0.94
  -5   7  -2   11.65    2.55
  -5   7  -2   13.35    2.58
   5  -7   2   16.60    2.17
  -7   3   1   34.09    3.38
   7  -3  -1   43.89    3.03
   7  -3  -1   32.41    2.88
  -7   3   1   39.76    3.11
  -7   3   1   36.75    3.00
   7  -1  -3    8.53    1.77
   7  -1  -3    6.91    1.81
  -7   1   3    7.52    2.14
  -7   1   3    4.74    1.02
  -7   1   3    7.11    1.99
  -7   1   3    9.76    1.18
   2   2  13    0.86    2.09
   2   2  13    1.41    1.83
  -2  -2 -13    5.05    2.37
   2   2  13    1.72    1.46
  -2  -2 -13    2.14    1.85
  -2   5  11   10.13    2.70
  -2   5  11   12.71    2.60
   2  -5 -11   11.40    1.33
   2  -5 -11   15.68    2.23
   1   9  -4   25.99    3.10
  -1  -9   4   29.43    3.06
   1   9  -4   25.88    2.79
   1   9  -4   27.39    2.10
  -1  -9   4   23.55    2.17
  -5  -3   7   88.66    5.93
  -5  -3   7   97.67    6.38
  -5  -3   7   94.55    5.88
   5   3  -7   99.27    6.30
   5   3  -7   80.92    6.08
  -2  -3 -13   14.18    2.18
   2   3  13   15.29    2.02
   2   3  13   14.76    2.56
  -2  -3 -13   14.53    2.39
   2   3  13   12.11    2.10
   7   5   6    2.15    1.09
   7   5   6    5.52    1.27
   7   5   6    2.57    2.09
   7   5   6    2.64    2.36
  -7  -5  -6    4.49    1.96
  -7  -5  -6    3.34    1.61
  -7  -5  -6    2.25    2.47
  -4   8   4   56.29    4.04
   4  -8  -4   62.58    4.67
  -4   8   4   48.89    3.35
  -1   8  -6   19.33    2.67
   1  -8   6   21.59    3.03
   1  -8   6   21.32    1.84
  -1   8  -6   24.96    2.86
  -1   8  -6   21.75    2.86
  -1  -3 -13   47.14    3.55
   1   3  13   44.76    3.48
  -1  -3 -13   41.89    3.68
   1   3  13   43.91    3.89
   1   3  13   46.89    3.49
   4   8  -3   38.59    3.54
   4   8  -3   38.20    2.87
   4   8  -3   46.83    3.32
   4   8  -3   41.46    3.22
  -4  -8   3   37.14    3.20
   4   8  -3   36.32    3.70
   4   8  -3   31.60    2.92
   4   8  -3   36.02    3.08
   3  -9  -4  140.17    8.69
  -3   9   4  133.32    5.58
  -3   9   4  134.44    6.00
   3  -9  -4  136.48    9.02
  -1 -10  -7   31.17    3.17
   1  10   7   28.07    2.90
  -1   9   8  137.71    9.18
  -1   9   8  150.12    9.30
  -1   9  -4   41.76    3.65
  -1   9  -4   42.62    3.70
   1  -9   4   29.03    2.06
   1  -9   4   46.43    3.60
  -6  -1   6   48.54    3.81
  -6  -1   6   43.10    3.28
   6   1  -6   43.34    3.90
   4   5  -7    1.88    2.16
   4   5  -7    1.69    1.15
   4   5  -7    1.45    1.12
  -4  -5   7   -0.06    1.84
  -5   0 -11   40.89    3.63
  -5   0 -11   49.73    4.01
   5   0  11   42.13    3.56
  -5   0 -11   53.36    3.42
  -6  -6   2   51.76    4.16
   6   6  -2   52.46    3.46
   6   6  -2   56.21    3.28
   6   6  -2   53.37    4.05
   6   6  -2   51.62    3.44
  -3   5  10   84.25    5.97
  -3   5  10   95.63    6.43
   3  -5 -10   95.36    6.00
  -3   5  10   93.22    6.00
  -3   6  -8    1.68    1.97
  -3   6  -8    0.30    2.30
   4   6  -6   48.38    3.88
  -4  -6   6   46.65    3.73
   4   6  -6   44.55    2.96
   4   6  -6   42.22    3.08
   4   6  -6   42.35    3.18
   4   2  -9   66.30    3.86
  -4  -2   9   61.60    4.24
  -4  -2   9   60.47    4.60
   4   2  -9   61.33    4.02
   3  10   1  113.19    7.56
   3  10   1  116.48    7.30
   3  10   1  103.56    7.62
   3  10   1  107.12    7.39
  -3 -10  -1  103.51    7.01
   3  10   1  131.12    7.69
   3  10   1  120.24    7.88
   5  -7  -3   23.71    2.67
   6  -2  -6   43.66    3.80
  -6   2   6   39.16    2.79
  -6   2   6   44.95    3.41
  -6   2   6   43.75    3.53
   6   7   0   61.29    5.10
   6   7   0   67.88    4.49
   6   7   0   63.13    4.76
   6   7   0   65.83    4.74
   6   7   0   60.87    4.75
   6   7   7  112.36    7.73
  -6  -7  -7  118.14    6.98
  -6  -7  -7  103.97    6.79
   6   7   7  100.26    7.01
   6   7   7  119.23    7.61
  -6  -7  -7  107.82    7.04
   6   7   7  117.66    7.07
   2   6  -8  158.86    6.75
   2   6  -8  165.69    6.37
   2   6  -8  178.47    6.75
  -2  -6   8  158.20   10.46
  -2  -6   8  182.43   10.85
   6   1  10  139.77    9.27
   6   1  10  144.46    9.09
  -6  -1 -10  130.43    9.62
  -6  -1 -10  126.59    9.51
  -4   6  -7   23.59    2.74
  -4   6  -7   25.77    2.48
  -4   6  -7   19.66    1.91
   4  -6   7   24.32    2.96
  -5   2 -10    2.52    2.10
  -5   2 -10    1.47    2.38
  -5   2 -10    2.46    1.24
   2  10   7   80.44    5.70
   2  10   7   83.32    5.72
  -2 -10  -7   81.88    5.84
   2  10   7   78.34    5.66
  -3  -7   6  165.67   11.31
  -3  -7   6  185.38   11.07
   3   7  -6  207.33   12.06
   3   7  -6  187.50   12.14
   5   7  -3   22.42    2.63
   5   7  -3   25.59    2.92
   5   7  -3   26.06    2.47
   5   7  -3   28.83    2.54
  -5  -7   3   22.17    2.63
   5   7  -3   24.09    2.01
   5   7  -3   26.17    3.25
   1  -2  12   19.75    2.59
  -1   2 -12   18.59    2.89
   1  -2  12   18.35    2.40
  -1   2 -12   14.80    1.86
  -1   2 -12   23.38    2.88
   1  -2  12   14.93    2.31
   4  -2  11   27.36    2.89
  -4   2 -11   24.30    2.34
  -4   2 -11   24.85    3.26
   4  -2  11   26.87    2.81
  -4   2 -11   22.45    2.82
   4  -2  11   21.83    2.92
   1   1  13   24.83    2.64
  -1  -1 -13   19.76    2.48
  -1  -1 -13   21.87    2.92
   1   1  13   24.58    2.66
   1   1  13   21.30    1.94
   3  10   6   -0.25    1.84
   3  10   6   -0.06    1.98
   3  10   6    0.68    3.14
   3  10   6   -0.68    1.70
   3  10   6   -1.04    2.08
  -3 -10  -6    0.68    2.03
   5   8  -1   20.09    2.71
   5   8  -1   16.95    1.89
   5   8  -1   17.34    2.35
   5   8  -1   16.97    2.35
   5   8  -1   18.22    2.94
   5   8  -1   17.70    2.56
   5   8  -1   20.87    1.77
   7   2   8  110.19    7.30
  -7  -2  -8   99.34    5.99
  -7  -2  -8   96.93    5.97
   7   2   8  107.54    7.28
   1   8  -6   45.24    3.76
   1   8  -6   45.44    3.92
  -1  -8   6   43.68    3.27
   1   8  -6   46.74    3.74
   1   8  -6   42.78    3.92
  -1  -8   6   47.88    4.00
   3  -8  -7   -0.98    1.90
  -3   8   7   -0.87    1.95
  -3   8   7    0.55    1.22
   3  -8  -7    1.31    2.76
  -7   3  -4    8.20    1.82
  -7   3  -4    7.79    1.63
   7  -3   4    9.45    1.86
  -7   3  -4    9.30    2.26
   7  -3   4    7.36    0.89
  -7   3  -4    9.78    1.98
   5   1  -8   24.41    3.08
  -5  -1   8   19.30    1.63
   5   1  -8   25.72    2.88
  -2  -5   9   13.87    2.67
  -2  -5   9   13.08    2.18
   2   5  -9   15.40    2.42
   2   5  -9   13.77    2.26
   5   5  11   22.04    3.27
  -5  -5 -11   20.99    3.18
  -5  -5 -11   18.94    2.59
   5   5  11   23.89    2.89
   5   5  11   23.10    2.65
  -5  -5 -11   15.71    2.36
  -5  -5 -11   19.18    1.98
  -3  -6 -12   83.23    5.96
  -3  -6 -12   87.14    5.89
   3   6  12   81.28    5.28
   3   6  12   87.21    5.36
   1   3 -11    3.50    2.03
   1   3 -11    3.07    2.11
  -1  -3  11    1.03    1.87
  -1  -3  11    1.70    2.20
  -1  -3  11    1.30    1.68
  -5   5  -7   16.49    2.46
  -5   5  -7   15.11    1.84
  -5   5  -7   15.73    2.74
  -5   5  -7   14.63    2.41
  -5   5  -7   17.65    1.88
   2   1  13    5.41    1.98
   2   1  13    8.46    2.20
  -2  -1 -13    8.27    2.48
   2   1  13    6.60    1.43
  -7  -2   3  119.43    7.42
   7   2  -3  111.47    7.30
  -7  -2   3  115.92    7.63
  -7  -2   3  106.49    7.38
   1 -10   1  216.58   12.70
   1 -10   1  187.43   12.64
  -1  10  -1  191.15   12.11
  -3   3 -11   95.74    6.47
   3  -3  11   92.55    6.34
  -3   3 -11   98.10    6.54
   3  -3  11   90.17    6.30
  -3   3 -11  103.53    6.96
   3   4  -9   42.24    3.40
   3   4  -9   46.19    3.79
  -3  -4   9   43.28    3.21
  -3  -4   9   37.81    2.71
   5   8   8    1.48    2.77
  -5  -8  -8    2.93    1.85
  -5  -8  -8    3.51    1.75
  -5  -8  -8    0.27    1.99
   0  -9  -9  143.66    9.27
   0   9   9  133.73    9.07
   0   9   9  150.05    9.21
   0  -9  -9  133.73    9.00
   6   4  10   16.29    2.74
  -6  -4 -10   14.10    1.39
   6   4  10   21.99    2.98
   6   4  10   18.49    2.34
   6   4  10   19.43    2.39
  -6  -4 -10   17.32    2.26
   2   4  13  102.90    6.84
  -2  -4 -13   95.61    6.36
   2   4  13   95.79    6.27
   2   4  13   96.25    6.53
  -2  -4 -13   92.97    6.46
  -4   0 -12  107.84    7.52
   4   0  12  122.87    8.05
  -4   0 -12  116.64    7.50
  -4   0 -12  111.73    7.89
   4   0  12  118.44    8.09
   4   0  12  123.87    7.62
   7   5   0   26.87    2.82
   7   5   0   23.07    1.75
   7   5   0   29.10    2.62
   7   5   0   26.99    2.58
  -7  -5   0   31.73    3.29
   7   5   0   21.47    1.94
   7   3   8   13.23    1.82
  -7  -3  -8    6.12    0.80
   7   3   8   14.08    2.51
   7   3   8   12.15    2.44
   2  10  -1   44.92    3.58
   2  10  -1   44.44    3.89
   2  10  -1   45.88    3.19
  -2 -10   1   45.30    3.86
   1   4  13   21.01    2.26
   1   4  13   29.52    2.65
   1   4  13   24.29    3.05
  -1  -4 -13   28.71    2.92
  -1  -4 -13   28.10    2.77
  -2  -2  11   53.11    4.20
  -2  -2  11   52.86    3.96
  -2  -2  11   46.18    3.71
   2   2 -11   48.04    3.91
  -2  -2  11   46.29    3.59
   2   2 -11   53.34    4.34
  -2   2 -12   13.88    2.19
  -2   2 -12   19.99    3.03
   2  -2  12   19.95    2.61
   2  -2  12   20.83    2.75
  -5   3   8  152.90   10.01
  -5   3   8  160.04    9.67
  -5   3   8  160.27   10.10
   5  -3  -8  169.20   10.63
  -4  -5 -12  122.03    7.90
   4   5  12  124.46    8.25
  -4  -5 -12  117.55    7.64
  -7  -1  -8   37.79    3.87
  -7  -1  -8   41.95    3.92
   7   1   8   33.37    3.31
   0   6  12   91.26    6.49
   0   6  12   87.81    6.30
   0   6  12   90.63    6.57
   0  -6 -12   94.39    6.50
   4   9  -1   23.62    3.02
   4   9  -1   19.28    2.32
   4   9  -1   24.88    2.62
   4   9  -1   25.53    3.10
   4   9  -1   25.30    2.92
   4   9  -1   23.96    2.32
   4   9  -1   20.43    2.26
   4   9  -1   26.38    2.26
  -3  -9  -9  120.28    8.02
   3   9   9  113.34    7.00
   3   9   9   99.25    6.31
   3   9   9  112.45    7.47
  -3  -9  -9  121.48    8.00
  -6   4   5   52.41    4.10
   6  -4  -5   58.82    4.58
  -6   4   5   49.57    3.71
  -6   4   5   57.89    4.00
  -1  -1  12  102.71    6.50
  -1  -1  12   92.19    6.12
  -1  -1  12   86.46    6.23
  -1   5 -10   91.98    6.24
  -1   5 -10  104.37    6.47
  -1   5 -10   84.45    5.73
   1  -5  10  105.62    7.27
   5   9   4  129.30    9.60
   5   9   4  145.76    9.56
   5   9   4  152.81    9.54
   5   9   4  140.71    9.58
   5   9   4  162.17    9.47
   5   9   4  170.96   10.02
   5   9   4  152.02    9.56
   3  -2 -11   75.57    5.16
  -3   2  11   80.59    5.25
  -3   2  11   75.69    5.43
   3  -2 -11   79.13    5.27
  -2  10   2   68.94    5.75
  -2  10   2   80.47    6.08
   2 -10  -2   89.45    6.29
   2 -10  -2   87.17    5.97
  -1   6  -9   92.50    6.02
  -1   6  -9   90.94    6.09
  -1   6  -9   79.77    5.49
   4   4  -8    5.40    0.81
  -4  -4   8    7.22    1.30
   4   4  -8    9.81    2.29
  -4  -4   8    8.99    2.15
  -4  -4   8    8.74    1.57
  -3   1  11   63.04    3.89
   3  -1 -11   61.03    4.46
   3  -1 -11   71.59    4.72
  -3   1  11   60.37    3.47
   2  -9  -7    2.46    2.11
   2  -9  -7    3.19    0.76
  -2   9   7    1.73    1.85
  -2   9   7    2.45    2.02
   2   7  -7   30.12    3.18
   2   7  -7   30.65    2.81
   2   7  -7   27.42    2.42
  -2  -7   7   36.21    3.00
   5   9   3   78.98    5.25
   5   9   3   64.70    5.28
   5   9   3   71.78    5.28
   5   9   3   82.61    5.39
   5   9   3   82.79    5.69
   5   9   3   69.72    5.29
   5   9   3   81.02    5.13
   5   9   3   68.30    5.39
  -7   1  -7    1.03    2.27
  -7   1  -7   -0.06    2.00
  -7   1  -7   -1.16    2.30
   7  -1   7    2.99    2.25
  -7   2   3   57.88    4.36
   7  -2  -3   58.35    4.24
  -7   2   3   47.84    3.71
  -7   2   3   59.90    4.01
  -7   2   3   61.14    4.33
  -7   2   3   60.59    3.86
   7  -2  -3   59.72    4.21
  -7   2  -6   94.45    6.54
  -7   2  -6   87.59    6.50
   7  -2   6  102.81    6.81
  -7   2  -6   97.57    6.27
   0 -10  -7   83.23    5.95
   0  10   7   83.55    5.76
   0  10   7   80.35    5.82
  -1   5  12   73.35    5.39
  -1   5  12   65.57    4.97
   1  -5 -12   82.53    5.79
   0  -2 -13   36.28    3.07
   0   2  13   41.30    2.92
   0  -2 -13   42.10    3.40
   0   2  13   36.44    3.43
   0   2  13   43.42    3.41
   0   6  -9   27.48    2.20
   0  -6   9   33.31    2.83
   0  -6   9   31.77    3.48
   0   6  -9   33.26    3.11
   0   6  -9   30.52    3.10
   4   9   8  108.74    6.87
  -4  -9  -8  123.82    8.14
   4   9   8  105.15    7.14
  -4  -9  -8  124.90    8.18
  -7   3   2   80.64    5.17
   7  -3  -2   83.43    5.50
  -7   3   2   88.07    5.20
  -4   6   8   20.88    3.06
  -4   6   8   26.58    2.57
  -4   6   8   19.52    2.32
  -4   6   8   26.83    2.28
   4  -6  -8   27.74    3.43
  -3  -3 -13  126.80    8.32
   3   3  13  147.31    8.85
   3   3  13  132.94    8.47
   3   3  13  125.40    8.33
   2 -10  -1   39.91    3.68
  -2  10   1   43.55    3.54
  -2  10   1   32.45    3.89
   2 -10  -1   39.55    3.49
  -7  -6  -4   97.48    6.91
  -7  -6  -4  108.59    6.71
   7   6   4   93.82    5.47
   7   6   4   95.08    4.90
   7   6   4   90.51    5.50
  -7  -6  -4  110.51    7.46
  -6   6   0   37.43    3.39
   6  -6   0   37.45    2.65
   6  -6   0   36.32    3.17
  -6   6   0   31.89    3.20
  -3  -2 -13   27.29    3.34
   3   2  13   28.71    2.67
  -3  -2 -13   33.29    3.31
   3   2  13   29.11    3.19
   3   2  13   28.58    2.73
  -7  -6  -3   60.41    4.51
   7   6   3   53.83    4.40
  -7  -6  -3   64.81    4.22
   7   6   3   61.15    4.48
   7   6   3   48.58    3.93
  -7  -6  -3   59.03    5.02
   7   6   3   57.26    3.99
   4   7  -5    3.15    1.41
  -4  -7   5    5.65    1.96
   4   7  -5    4.47    2.34
   4   7  -5    4.49    1.27
   4   7  -5    4.44    1.60
   4   7  -5    3.14    1.54
   5  -7   3   23.90    1.67
   5  -7   3   26.60    2.57
  -5   7  -3   25.42    3.18
   0  -2  12    0.42    1.81
   0  -2  12    2.86    1.80
   0   2 -12    0.59    2.42
   0  -2  12    3.68    2.26
   0  -2  12   -0.41    0.54
  -2  10   3   71.15    5.75
   2 -10  -3   74.30    5.20
  -2  10   3   75.28    5.32
   2 -10  -3   79.96    5.63
  -2  10   3   76.46    5.40
  -4   8  -3  123.45    8.88
   4  -8   3  137.72    8.85
  -4   8  -3  141.25    8.58
  -3   9  -2    8.40    2.25
   3  -9   2    2.83    2.25
   3  -9   2    3.74    2.08
   0  10  -2  102.63    7.05
   0 -10   2   99.62    6.88
   0 -10   2  100.44    6.84
   0  -5  10    1.02    2.33
   0   5 -10    2.80    0.91
   0   5 -10    2.82    2.17
   0  -5  10    3.11    1.81
   5   9   5  134.78    8.44
   5   9   5  130.42    8.51
  -5  -9  -5  129.79    8.43
   5   9   5  138.08    8.42
   5   9   5  136.68    8.52
   5   9   5  142.42    8.92
   5   9   5  117.37    8.43
   5   9   5  121.22    8.53
   0   3  13   17.96    2.08
   0   3  13   19.15    2.55
   0   3  13   14.46    2.17
   0  -3 -13   17.07    2.43
   0  -3 -13   16.06    2.11
  -6   6  -1   12.80    2.52
  -6   6  -1   12.48    2.36
   6  -6   1    8.42    1.26
   6  -6   1    8.67    2.04
   1 -10  -6    1.28    1.00
  -1  10   6   -0.90    1.89
  -1  10   6   -0.41    2.11
  -6  -2   6    6.01    1.21
  -6  -2   6    4.46    1.48
   6   2  -6    2.56    2.17
   6   2  -6    6.35    2.34
   3  -8   5    0.23    0.49
   3  -8   5   -0.07    2.23
  -3   8  -5    4.58    2.50
  -3   8  -5   -0.06    2.01
  -7  -5  -7    0.88    1.67
   7   5   7   -1.29    1.84
   7   5   7    0.46    1.24
  -7  -5  -7   -0.38    2.63
  -7  -5  -7    0.76    1.92
   7   5   7   -0.68    2.47
   7   5   7   -0.94    2.25
  -1 -10   2  176.05   11.22
   1  10  -2  179.90   11.47
  -3   9   5   28.99    2.83
   3  -9  -5   34.23    3.29
  -3   9   5   22.56    1.76
   6   6   9   83.79    5.68
   6   6   9   75.07    5.31
   6   6   9   85.38    5.94
   6   6   9   82.22    5.96
  -6  -6  -9   80.65    5.67
  -6  -6  -9   78.86    5.21
  -6  -6  -9   79.13    5.53
   6  -6  -1   22.90    2.49
   2  -7 -10  104.44    7.39
  -2   7  10   99.79    7.13
  -2   7  10   97.09    6.50
  -2   7  10  103.15    6.73
   6  -5  -4  116.15    7.52
  -6   5   4  128.90    8.35
  -6   5   4  136.06    8.40
   2  -2 -12   55.15    3.91
  -2   2  12   57.01    3.86
  -2   2  12   46.45    3.37
   2  -2 -12   52.25    4.00
  -6   0 -10   46.46    3.55
  -6   0 -10   45.54    4.09
  -6   0 -10   43.04    4.15
   6   0  10   40.28    3.82
   6   0  10   41.48    3.50
   3  -3 -11   47.30    3.62
  -3   3  11   46.95    3.72
   3  -3 -11   49.41    3.61
  -3   3  11   48.21    3.74
   3  10   0  206.73   13.17
   3  10   0  209.22   13.10
   3  10   0  220.04   12.82
   3  10   0  196.25   12.64
   3  10   0  218.52   13.06
   3  10   0  200.81   12.92
   5  -5  -7    8.75    2.63
  -5   5   7   12.01    1.87
  -5   5   7   12.50    1.95
  -5   5   7    7.64    2.38
   5   9   2   90.70    6.13
   5   9   2  103.22    6.44
   5   9   2   88.60    6.13
   5   9   2   78.57    6.13
   5   9   2   97.10    6.36
   5   9   2   79.54    5.94
   5   9   2   85.14    6.07
   5   9   2   98.70    5.92
   0  -1 -13   96.50    6.82
   0   1  13   92.93    6.41
   0   1  13   92.35    5.91
   0  -1 -13   93.80    6.38
   7   6   5  131.39    7.24
   7   6   5  174.11    7.40
  -7  -6  -5  143.40    9.10
   7   6   5   90.14    6.42
   7   6   5  144.33    7.60
   7   6   5  129.99    7.43
   7   6   5  148.44    6.92
   7   6   5   96.85    6.42
  -7  -6  -5  146.26    9.80
  -7  -6  -5  149.08    9.34
  -2   8  -6   38.91    3.48
  -2   8  -6   36.87    3.55
   2  -8   6   30.39    3.40
   2  -8   6   29.61    2.16
  -2   8  -6   30.62    3.33
  -4   8   5   88.83    5.60
   4  -8  -5   88.42    6.14
  -4   8   5   74.43    4.97
   2   4 -10   28.15    2.86
  -2  -4  10   24.46    2.76
   2   4 -10   24.40    2.71
  -2  -4  10   31.36    3.35
  -2  -4  10   27.81    2.60
  -4   1  10    8.69    1.16
   4  -1 -10   11.77    2.16
  -4   1  10   12.23    1.51
  -4   1  10   12.19    2.17
   7   6   2   72.03    4.56
   7   6   2   69.85    4.89
  -7  -6  -2   67.81    4.58
  -7  -6  -2   70.50    4.89
   7   6   2   74.39    4.35
   7   6   2   57.16    4.72
  -7  -6  -2   75.95    5.51
   7   6   2   53.73    3.99
  -6   3   6   31.53    2.50
  -6   3   6   32.35    3.03
  -6   3   6   34.72    3.04
   6  -3  -6   30.96    3.29
  -1   0 -13   -2.06    2.72
  -1   0 -13   -0.23    2.40
   1   0  13   -0.34    1.99
   1   0  13    1.35    1.96
   1   0  13   -1.47    2.04
  -5   7   4   78.94    5.36
  -5   7   4   89.55    5.72
   5  -7  -4   84.48    5.84
  -3  -9   3   60.31    4.68
  -3  -9   3   58.27    4.20
   3   9  -3   67.97    4.47
   3   9  -3   61.11    5.04
   3   9  -3   60.27    4.59
   3   9  -3   69.90    4.91
   3   9  -3   61.39    5.04
   3   9  -3   66.49    4.34
  -2  -9   4   61.84    4.39
   2   9  -4   68.88    4.13
   2   9  -4   58.01    4.88
   2   9  -4   61.02    4.63
  -2  -9   4   69.07    5.06
   2   9  -4   60.16    4.66
   2   9  -4   59.90    4.85
   3   0 -11   15.67    1.87
   3   0 -11   18.45    2.90
  -3   0  11   14.04    1.79
   3   0 -11   12.15    2.32
   7   4   8  140.29    9.15
   7   4   8  151.78    8.91
   7   4   8  130.95    9.23
  -7  -4  -8  149.58    9.48
   7  -4   1    0.78    1.45
  -7   4  -1    2.27    2.02
  -7   4  -1    3.60    2.11
   7  -4   1    0.42    1.42
  -4  -7 -11    5.86    1.97
   4   7  11    1.14    2.24
  -4  -7 -11    5.83    2.05
  -4  -7 -11    6.59    2.22
  -4  -7 -11    7.06    2.40
   4   7  11    4.18    2.57
   4   7  11    4.61    2.88
  -6   5  -5  115.15    7.69
  -6   5  -5  119.31    7.81
  -6   5  -5  111.98    7.61
   6  -5   5  114.64    7.25
   6   8   4   -0.59    2.20
   6   8   4   -0.21    1.80
   6   8   4   -0.72    1.87
   6   8   4    0.95    2.22
   6   8   4   -0.26    1.80
  -6  -8  -4    1.07    1.62
   6   8   4    1.08    2.58
   6   8   4   -3.28    2.45
  -2  -8 -11   50.17    4.36
   2   8  11   47.04    4.40
   2   8  11   47.02    4.27
  -2  -8 -11   51.21    4.17
   4  -7  -7   22.02    2.64
   4  -7  -7   29.19    3.44
  -4   7   7   24.57    2.65
  -4   7   7   19.93    2.11
  -2   1  12    6.35    0.64
   2  -1 -12   13.97    2.89
   2  -1 -12   14.28    2.03
  -2   1  12   16.81    1.88
   2  -1 -12   15.88    2.11
   4  -2 -10    4.02    1.83
  -4   2  10    4.86    1.58
  -4   2  10    5.64    1.92
  -1   4 -11    8.70    1.55
  -1   4 -11    9.83    2.71
   1  -4  11    7.67    2.01
   1  -4  11   12.30    2.49
  -2   5 -10   32.55    3.33
   2  -5  10   33.70    3.48
  -2   5 -10   28.83    2.94
  -2   5 -10   25.53    2.50
  -3  -4 -13  215.17   13.39
  -3  -4 -13  215.89   13.48
   3   4  13  212.93   13.16
   3   4  13  192.90   12.62
   3   4  13  228.94   12.94
  -7  -4   2   71.60    5.16
   7   4  -2   66.24    4.47
  -7  -4   2   76.07    5.26
   2 -10   0   40.38    3.66
   2 -10   0   41.65    3.69
  -2  10   0   43.76    3.71
  -2  10   0   38.64    4.09
  -1   8  10    0.65    2.08
   1  -8 -10    1.71    2.01
  -1   8  10    1.02    1.80
  -2   0 -13   27.15    3.14
   2   0  13   24.72    2.85
   2   0  13   26.56    2.23
   2   0  13   28.39    2.97
  -2   0 -13   26.63    2.87
  -2   0 -13   25.59    3.55
   6   8   3    0.38    2.31
   6   8   3   -0.82    1.93
   6   8   3    2.77    2.21
   6   8   3   -3.25    2.22
   6   8   3    3.28    2.42
   6   8   3    1.66    1.84
   6   8   3    2.22    1.91
   0   7  -8   51.86    4.31
   0  -7   8   47.88    3.51
   0   7  -8   58.80    4.46
   3  10   7   26.05    2.80
   3  10   7   24.93    2.81
   3  10   7   24.89    2.36
  -3 -10  -7   29.78    3.20
   1   8  11    8.64    2.97
  -1  -8 -11   10.95    2.68
   1   8  11    7.17    2.21
  -1  -8 -11    7.80    2.22
  -1  -8 -11    9.89    2.31
   1   8  11   12.29    2.84
  -3  -1 -13    0.50    2.30
   3   1  13   -0.67    2.18
  -3  -1 -13    2.97    2.32
   3   1  13   -1.17    1.51
   3   1  13    2.67    2.20
   3   1  13    1.44    1.45
   3   1  13    4.07    1.95
  -3  -1 -13    3.60    2.80
   2  -8  -9   16.56    3.17
  -2   8   9   17.21    2.42
  -2   8   9   13.06    2.16
  -3   7  -7    8.33    2.48
   3  -7   7    5.17    2.39
  -3   7  -7    5.18    1.10
  -3   7  -7    8.81    2.17
  -5   6   6   51.42    3.69
  -5   6   6   44.54    3.50
   5  -6  -6   51.09    4.07
   5  -6  -6   37.12    3.44
   2 -10  -4   64.90    4.60
   2 -10  -4   51.89    3.97
  -2  10   4   61.08    4.67
  -2  10   4   59.94    5.09
   6  -6   2   -1.32    1.13
   6  -6   2    0.14    1.74
  -6   6  -2   -1.53    2.05
  -6   6  -2   -0.21    2.21
  -4  -8 -10    3.37    2.00
   4   8  10    1.00    2.39
   4   8  10    1.60    2.95
  -4  -8 -10   -0.66    2.37
   4   8  10    1.36    1.44
  -4  -8 -10    2.05    1.97
  -4  -8 -10    1.20    2.17
   4   8  10    3.71    2.62
  -1   7  -8  104.35    7.25
   1  -7   8  109.74    6.94
  -1   7  -8  110.58    7.34
  -1   7  -8  108.51    7.32
  -4   5   9  113.00    8.02
   4  -5  -9  139.19    8.99
  -4   5   9  121.54    7.78
  -4   5   9  130.93    8.44
   4  -5  -9  130.51    8.31
  -7   0  -8  126.71    9.24
  -7   0  -8  145.89    8.62
  -7   0  -8  136.89    9.27
   7   0   8  116.63    7.81
  -6   3  -8    5.09    1.76
  -6   3  -8    1.79    2.13
  -6   3  -8    7.68    2.45
  -7   4   0    6.58    2.01
   7  -4   0    9.70    1.61
   7  -4   0    7.09    1.66
  -7   4   0    7.13    2.31
  -2   3  12   31.33    2.80
   2  -3 -12   37.89    3.11
   2  -3 -12   32.38    2.79
  -2   3  12   33.39    3.09
   7  -4   2   -0.91    1.36
  -7   4  -2    0.62    2.02
  -7   4  -2    0.22    1.66
   7  -4   2    0.63    1.40
  -7   4  -2    3.43    2.16
  -7   0   4    8.66    2.28
   7   0  -4    7.76    1.89
  -7   0   4    3.76    0.81
  -7   0   4    6.02    1.90
   7  -3   5   49.82    3.79
  -7   3  -5   44.37    3.39
  -7   3  -5   50.73    3.94
  -7   3  -5   39.66    3.54
  -7   3  -5   46.37    3.58
   1  -7 -11    0.33    1.95
   1  -7 -11   -0.61    1.98
  -1   7  11    0.31    1.91
  -2   6  -9   37.95    3.39
  -2   6  -9   28.43    3.07
  -2   6  -9   29.99    2.68
  -2   9  -4   56.93    4.84
   2  -9   4   65.89    5.19
  -2   9  -4   67.34    5.08
  -2   9  -4   70.40    4.97
   2   5  13   42.10    3.22
  -2  -5 -13   55.26    4.24
  -2  -5 -13   54.59    4.31
   2   5  13   53.55    3.91
   2   5  13   53.30    4.32
   5   7  10   63.43    5.09
  -5  -7 -10   61.28    4.66
  -5  -7 -10   61.48    4.72
  -5  -7 -10   66.70    4.53
   5   7  10   73.03    5.09
  -6  -8  -5    3.06    1.69
   6   8   5    1.98    1.96
   6   8   5    4.92    2.86
   6   8   5    6.95    1.89
   6   8   5    5.12    2.40
   6   8   5    3.42    2.55
   6   8   5    3.51    2.35
   5   9   6   69.42    5.26
  -5  -9  -6   85.99    5.55
   5   9   6   70.48    5.26
   5   9   6   79.67    5.35
   5   9   6   74.03    5.15
   5   9   6   78.28    5.85
  -5  -9  -6   73.28    5.52
  -6  -5   4   47.97    3.56
  -6  -5   4   47.45    3.99
   6   5  -4   40.48    3.52
   5   2  -8   92.43    6.02
  -5  -2   8   47.90    3.49
  -5  -2   8   89.22    4.05
   5   2  -8   77.48    5.93
  -5   1 -11   -0.05    1.22
  -5   1 -11    0.34    1.98
  -5   1 -11    1.34    2.25
   5  -1  11    0.19    1.98
  -3  -8   5   20.40    2.89
   3   8  -5   19.58    2.92
  -3  -8   5   18.41    2.30
   3   8  -5   19.21    2.32
   3   8  -5   20.30    2.28
   7   3  -3  174.87   11.02
  -7  -3   3  170.61    9.93
   7   3  -3  175.78   11.44
  -7  -3   3  145.22    9.87
   5   5  -6   33.79    3.43
  -5  -5   6   34.34    2.96
  -5  -5   6   23.22    2.27
   6   7  -1  226.23   13.63
   6   7  -1  218.90   13.25
   6   7  -1  200.08   13.13
   6   7  -1  219.85   13.25
   6   7  -1  208.93   12.92
   6   7   8  202.88   13.48
  -6  -7  -8  199.52   12.23
  -6  -7  -8  193.48   12.07
  -6  -7  -8  196.71   12.36
   6   7   8  219.44   13.07
   0   4  13    6.63    2.38
   0   4  13    4.33    1.83
   0  -4 -13    4.81    1.80
   0  -4 -13    5.08    2.10
   4  10   4   26.00    3.31
   4  10   4   26.26    2.80
   4  10   4   26.05    2.80
   4  10   4   30.30    3.04
  -4 -10  -4   25.97    2.91
   4  10   4   34.81    3.71
   4  10   4   26.67    3.05
   4  10   4   26.66    3.00
  -6  -5 -10   98.58    6.10
   6   5  10  104.37    6.93
  -6  -5 -10   96.12    7.10
  -6  -5 -10  103.60    6.57
   6   5  10  100.63    7.10
  -6  -5 -10   89.66    6.36
   6   5  10  104.36    7.26
   4   0 -10   34.13    2.89
  -4   0  10   32.75    1.74
   4   0 -10   29.58    3.34
   4   0 -10   24.91    2.15
  -4   0  10   29.70    2.62
  -1 -10  -8   37.09    3.44
   1  10   8   36.42    3.34
   4  10   3   31.59    2.98
   4  10   3   36.37    3.46
   4  10   3   29.41    3.51
   4  10   3   33.87    3.24
   4  10   3   31.65    3.23
   4  10   3   37.67    3.69
  -4 -10  -3   28.46    2.98
   4  10   3   34.25    3.03
   6  -2   9    3.74    2.36
  -6   2  -9    3.83    2.41
  -6   2  -9   -1.25    2.21
   1   5  13   -0.47    2.48
   1   5  13   -0.53    1.93
   1   5  13   -0.23    2.60
  -1  -5 -13   -1.63    1.93
  -1  -5 -13    1.09    1.94
   6  -6  -2   20.29    2.46
   1 -10   2  110.55    6.91
   1 -10   2   88.26    6.67
  -1  10  -2  104.25    7.14
  -2  -7 -12   29.36    3.02
  -2  -7 -12   28.27    2.94
  -2  -7 -12   21.11    3.14
  -2  -7 -12   20.12    2.85
   2   7  12   25.84    3.19
   2   7  12   27.34    3.40
   2   7  12   28.22    3.68
  -7  -1   4    1.46    2.23
  -7  -1   4    0.96    1.77
   7   1  -4    2.18    1.83
  -6  -4   5   14.32    2.09
  -6  -4   5   15.83    1.99
   6   4  -5   20.45    2.92
  -6  -4   5   20.21    2.55
   6   4  -5   12.44    2.38
   6   4  -5   14.71    2.29
   7  -1  -4   66.88    4.76
  -7   1   4   54.32    3.28
  -7   1   4   69.60    4.34
  -7   1   4   75.17    4.25
   7  -1  -4   68.07    4.77
  -7   1   4   44.72    3.22
   0   4 -11   43.56    3.91
   0  -4  11   46.01    3.93
   0  -4  11   42.42    3.57
   5   6  -5    8.72    0.86
   5   6  -5   16.68    1.72
   5   6  -5   16.29    1.62
   5   6  -5   10.03    0.94
  -5  -6   5   14.48    2.38
   5   6  -5   21.85    2.69
   8   1   3   56.68    3.89
   8   1   3   97.79    4.97
  -8  -1  -3  105.31    6.87
  -8  -1  -3  100.35    7.16
  -8  -1  -2   65.28    5.28
   8   1   2   68.41    5.03
  -8  -1  -2   73.48    4.92
  -2 -10  -8    8.28    2.35
   2  10   8    9.62    3.10
   2  10   8   11.90    2.31
   2  10   8   12.01    2.47
  -5   6  -6   99.60    6.89
  -5   6  -6   96.11    6.29
  -5   6  -6   99.06    6.71
   6   8   2    3.34    2.10
   6   8   2    3.86    2.18
   6   8   2    2.83    0.80
   6   8   2    4.85    1.86
   6   8   2    1.25    2.51
   6   8   2    4.04    2.27
   6   8   2    4.17    1.96
   6   8   2    2.13    2.04
   7   5  -1   35.31    2.78
   7   5  -1   40.18    3.26
  -7  -5   1   40.37    3.65
   7   5  -1   36.71    3.89
   7   5  -1   33.14    3.04
   7   5  -1   36.16    3.43
  -3  -3  10   35.42    2.58
   3   3 -10   43.37    3.70
   3   3 -10   43.30    4.00
  -3  -3  10   40.87    3.07
  -3  -3  10   43.49    3.46
   8   2   3   13.05    1.49
  -8  -2  -3   17.21    2.86
   8   2   3   22.25    2.57
  -1  -7 -12   48.93    4.40
   1   7  12   43.20    4.14
   1   7  12   42.93    4.36
   1   7  12   38.45    3.83
  -1  -7 -12   51.14    4.16
  -1  -7 -12   50.30    4.08
  -2   4 -11   65.88    4.69
   2  -4  11   66.04    5.14
  -2   4 -11   73.94    5.37
   2  -4  11   80.48    5.48
  -2   4 -11   68.03    4.96
  -3   2 -12   96.23    6.63
   3  -2  12   92.16    6.29
  -3   2 -12   86.00    6.10
   3  -2  12   89.71    6.31
  -3   7   9   64.69    4.35
  -3   7   9   64.22    5.08
  -3   7   9   61.22    4.55
   3  -7  -9   47.72    3.30
  -3   7   9   56.83    4.22
   3  -7  -9   53.95    4.04
  -2   6  11    7.32    2.67
   2  -6 -11    0.81    2.74
   2  -6 -11    7.87    2.13
   0   9  -5   95.32    6.56
   0   9  -5   86.16    6.45
   0   9  -5  103.87    6.70
   0  -9   5   96.70    6.32
   0  -9   5   84.23    5.51
   1   6  -9    6.05    2.11
   1   6  -9    3.74    0.70
  -1  -6   9    4.23    2.43
   1   6  -9    3.21    0.86
  -1  -6   9    4.40    1.79
   1   6  -9    6.92    2.30
   1   6  -9    5.10    2.29
   7   6   6  105.93    7.26
   7   6   6  131.58    8.15
  -7  -6  -6  119.85    8.09
  -7  -6  -6  131.64    8.63
   7   6   6  113.60    7.93
   7   6   6  145.99    7.99
  -7  -6  -6  124.39    7.91
   7   6   6  125.51    7.45
  -4 -10  -5   40.22    3.55
   4  10   5   37.50    3.34
   4  10   5   34.66    3.27
   4  10   5   38.50    3.39
   4  10   5   39.27    3.33
   4  10   5   31.26    3.80
   4  10   5   40.48    4.17
   4  10   5   35.73    3.47
  -6   4  -7   12.55    2.50
  -6   4  -7   15.63    2.03
  -6   4  -7   14.18    2.40
  -6   4  -7   18.65    2.77
  -4   7  -6   40.01    3.25
  -4   7  -6   33.70    3.42
   4  -7   6   33.06    3.43
  -4   3  10   14.24    2.23
   4  -3 -10   14.94    2.07
  -4   3  10   18.06    2.29
   7   6   1   39.32    3.19
  -7  -6  -1   37.95    3.71
   7   6   1   35.93    2.71
   7   6   1   35.81    3.30
   7   6   1   34.05    2.70
   7   6   1   40.12    3.48
   7   6   1   36.98    3.83
  -2  -8   6   15.39    2.80
  -2  -8   6   15.09    2.00
   2   8  -6   15.18    2.24
   2   8  -6   13.97    2.34
   2   8  -6   14.09    2.62
   2   8  -6   14.21    2.70
   2   8  -6   14.56    2.15
  -8  -2  -2    0.19    2.04
   8   2   2    3.64    1.33
  -8  -2  -2    4.15    2.40
   8   2   2    5.01    2.07
   5   3  12   24.82    2.78
  -5  -3 -12   18.66    1.90
  -5  -3 -12   22.20    3.29
   5   3  12   25.81    2.57
   5   3  12   21.78    3.22
   5   9   1    7.34    1.65
   5   9   1    5.38    1.93
   5   9   1   10.83    2.54
   5   9   1    7.97    1.84
   5   9   1    7.90    2.12
   5   9   1   10.76    2.57
   5   9   1    7.86    2.24
   2   9  10   52.03    4.78
  -2  -9 -10   50.83    4.52
  -2  -9 -10   51.51    4.22
  -5   4   8  118.89    6.29
   5  -4  -8  108.73    7.25
  -5   4   8  103.88    6.64
   5  -4  -8  115.94    7.69
  -5   4   8  103.58    6.49
  -5  -6 -11   32.83    3.38
  -5  -6 -11   37.92    3.27
   5   6  11   40.22    3.73
   5   6  11   34.02    3.30
   5   6  11   26.81    3.79
  -5  -6 -11   33.45    2.90
  -5  -6 -11   39.99    3.43
   5   6  11   36.94    3.22
   7  -4  -1    6.16    1.53
   7  -4  -1    8.63    1.73
  -7   4   1    6.83    2.01
   5   2  12   85.95    6.32
   5   2  12  105.79    6.28
  -5  -2 -12   87.63    6.40
   5   2  12   90.58    6.46
  -5  -2 -12   82.69    5.49
  -7   4  -3    6.88    1.90
  -7   4  -3    6.75    1.87
   7  -4   3    5.94    1.46
  -7   4  -3    3.74    2.16
   7  -4   3    8.15    1.66
   1   9  10    1.84    1.96
   1   9  10    2.04    2.15
  -1  -9 -10    4.42    2.26
  -1  -9 -10    6.29    2.24
  -1  -9 -10    5.76    2.70
   1   9  10    3.72    2.70
   2   0 -12   19.37    2.31
   2   0 -12   15.81    2.15
  -2   0  12   18.37    2.14
   2   0 -12   14.63    1.50
   2   0 -12   17.01    3.02
   4   3  -9   37.47    2.99
  -4  -3   9   29.32    2.33
   4   3  -9   36.07    3.13
  -4  -3   9   33.59    3.11
  -4  -3   9   30.29    2.60
   4  -1  12   45.94    4.30
  -4   1 -12   54.23    4.32
   4  -1  12   58.06    4.28
   4  -1  12   53.60    4.15
  -4   1 -12   47.60    4.67
  -4   1 -12   57.79    4.33
   5   8  -2   55.02    4.61
   5   8  -2   46.45    3.99
   5   8  -2   52.41    3.98
   5   8  -2   53.32    4.31
  -5  -8   2   48.98    3.95
   5   8  -2   52.22    3.60
   5   8  -2   56.33    4.17
  -8  -1  -4   56.07    4.37
  -8  -1  -4   61.95    4.67
  -8  -1  -4   48.48    4.23
   8   1   4   64.69    4.85
   0   0  13   70.62    4.88
   0   0  13   60.17    4.65
   0   0 -13   59.92    4.94
   8   2   4  113.67    5.04
  -8  -2  -4  120.61    8.13
  -8  -2  -4  129.59    8.45
   8   2   4  104.23    4.65
   4  10   2   55.64    4.39
   4  10   2   51.84    4.03
   4  10   2   61.58    4.60
   4  10   2   56.88    4.03
   4  10   2   52.93    4.38
   4  10   2   49.69    3.98
   4  10   2   48.77    4.50
   4  10   2   58.80    4.27
   8   0   2  142.50    9.12
  -8   0  -2  139.00    8.70
  -8   0  -2  133.23    9.03
   6   6  -3   89.13    6.27
   6   6  -3   98.07    6.05
  -6  -6   3   82.01    5.82
   6   6  -3   85.93    6.21
   5   4  -7   72.34    5.41
  -5  -4   7   66.52    4.53
  -5  -4   7   67.73    4.49
  -5  -4   7   74.98    5.10
   5   4  -7   77.18    5.55
   1  11   3   13.25    1.48
  -1 -11  -3   14.91    2.53
  -1 -11  -3   11.17    2.04
   1  11   3   13.14    2.47
   1  11   3   14.65    3.11
   8   1   1   77.75    5.45
  -8  -1  -1   67.60    4.81
  -8  -1  -1   70.67    5.05
  -8  -1  -1   60.34    4.47
   3  -4 -11   -1.92    1.57
  -3   4  11   -0.31    2.24
  -3   4  11    0.38    2.31
  -3   4  11    0.45    1.76
   3  -4 -11   -0.56    1.77
  -4   4 -10   23.97    3.21
  -4   4 -10   24.88    2.72
  -4   4 -10   23.42    2.52
   4  -4  10   25.18    3.04
  -1  -5  10    8.96    2.60
   1   5 -10   12.44    2.37
  -1  -5  10   10.69    2.09
   1   5 -10   12.08    2.36
  -7   3   3  105.17    6.08
  -7   3   3   89.02    6.18
   7  -3  -3   84.77    5.63
  -7   3   3   81.95    5.91
  -7   3   3   89.32    6.31
   8   0   3   32.41    2.29
  -8   0  -3   63.46    4.77
  -8   0  -3   60.52    4.96
   8   0   3   34.59    2.29
  -8   0  -3   69.44    4.78
   3   8  11   33.54    3.19
  -3  -8 -11   35.07    3.26
  -3  -8 -11   32.46    3.17
   3   8  11   33.39    3.17
  -3  -8 -11   29.70    3.36
   6   8   6    1.95    2.96
   6   8   6    0.81    1.73
   6   8   6   -0.33    2.21
   6   8   6    2.55    2.31
   6   8   6    3.40    2.73
  -6  -8  -6   -0.93    1.70
   6   8   6    0.78    2.04
   2  10  -2    3.33    2.37
  -2 -10   2    3.04    2.33
   2  10  -2    3.89    1.89
   2  10  -2    2.81    1.94
  -5  -8  -9    6.09    1.99
   5   8   9    8.49    3.09
   5   8   9    3.50    2.14
  -5  -8  -9    8.90    1.96
   5   8   9    4.86    2.81
   4   6  12  225.87   14.69
  -4  -6 -12  231.73   15.23
  -4  -6 -12  242.07   15.09
  -4  -6 -12  267.23   15.34
   4   6  12  251.39   14.89
  -4  -6 -12  247.91   15.27
  -4   5  -9   13.80    2.40
  -4   5  -9   21.05    2.36
  -5   7  -4  238.19   15.17
  -5   7  -4  231.32   15.27
   5  -7   4  244.05   12.75
   5  -7   4  195.18   12.26
  -5   7  -4  255.14   14.87
   6  -6   3    1.25    1.15
  -6   6  -3    0.61    1.97
  -6   6  -3    1.50    2.20
   6  -6   3    0.09    1.60
  -6   6  -3   -0.22    2.33
  -3   6  10   71.98    5.24
  -3   6  10   79.99    5.37
  -3   6  10   82.53    5.81
   3  -6 -10   74.41    4.85
   3  -6 -10   88.63    6.02
   2 -10   1    8.33    2.37
   2 -10   1    4.73    2.42
  -2  10  -1    5.30    2.29
   1  11   4   14.91    3.23
   1  11   4   14.91    2.62
   1  11   4   18.85    2.76
   1  11   4   14.72    1.72
  -1 -11  -4   18.52    2.77
  -3   9  -3   20.08    2.71
   3  -9   3   15.29    2.73
   3  -9   3   16.46    2.49
   2 -10  -5   20.37    2.76
  -2  10   5    9.21    0.86
  -2  10   5   15.02    2.46
   2 -10  -5   20.10    2.10
  -1  -7   8    3.73    1.67
   1   7  -8    2.62    2.11
   1   7  -8    5.62    2.31
   4   8  -4   35.88    3.91
   4   8  -4   44.54    3.91
   4   8  -4   40.72    3.02
   4   8  -4   46.82    3.35
  -4  -8   4   40.66    3.42
   4   8  -4   34.60    3.10
   4   8  -4   43.25    3.38
   2  -4 -12   19.59    2.55
  -2   4  12   18.95    2.40
   2  -4 -12   20.92    2.00
  -2   4  12   21.93    2.77
  -1   9   9  138.15    9.09
   1  -9  -9  139.45    9.12
  -1   9   9  145.60    9.24
   1  11   2    2.87    2.91
  -1 -11  -2   -0.11    2.00
   1  11   2    0.32    2.02
   1  11   2    0.25    0.98
  -1   9  -5    0.82    2.34
  -1   9  -5    0.51    2.02
   1  -9   5    1.76    0.96
   1  -9   5    2.72    2.51
  -1   9  -5    1.67    2.35
   4   9  -2   40.90    4.00
   4   9  -2   39.27    3.18
   4   9  -2   43.42    3.18
   4   9  -2   36.18    3.61
   4   9  -2   44.14    3.16
   4   9  -2   48.38    3.49
   4   9  -2   39.36    3.83
   4   9  -2   34.98    3.16
   3   1 -11    1.28    2.06
   3   1 -11    3.32    2.50
   3   1 -11    1.84    1.45
  -3  -1  11    2.14    1.46
  -3  -1  11    0.79    1.94
  -8   0  -1   98.53    7.19
   8   0   1  116.66    7.61
  -8   0  -1  109.09    6.81
  -3  -5 -13  254.51   15.85
  -3  -5 -13  262.46   15.93
   3   5  13  271.68   14.86
  -3  -5 -13  255.00   15.75
   3   5  13  255.61   15.01
   1   9  -5   41.81    3.66
   1   9  -5   36.38    3.20
   1   9  -5   37.33    3.29
  -1  -9   5   38.95    2.97
  -1  -9   5   40.59    3.81
   1   9  -5   30.46    2.19
   6  -1  -7  120.67    8.05
  -6   1   7   97.16    6.71
  -6   1   7  117.70    7.09
   8   2   1    2.64    2.02
  -8  -2  -1   -2.22    1.98
  -8  -2  -1   -0.93    2.31
  -8  -2  -1   -0.14    1.04
  -7  -2  -9   83.20    6.11
   7   2   9   71.87    5.35
   7   2   9   73.80    5.24
   7   2   9   68.06    4.91
  -7  -2  -9   79.48    6.16
  -2   7  -8    5.61    2.32
  -2   7  -8    8.79    2.53
   2  -7   8    5.81    2.68
  -2   7  -8    8.63    2.31
  -4   8  -4   22.27    2.67
  -4   8  -4   25.67    2.95
   4  -8   4   24.63    2.72
   4  -8   4   25.23    3.08
  -4   8  -4   26.03    3.28
  -5  -4 -12   -0.86    2.70
  -5  -4 -12    1.70    1.44
  -5  -4 -12    2.60    1.99
   5   4  12    3.03    1.94
   5   4  12    2.35    2.63
   5   4  12    0.41    2.08
   0   8  11   10.77    2.77
   0   8  11   13.82    3.24
   0   8  11   10.16    2.33
   0  -8 -11   18.86    2.65
   0  -8 -11   15.70    2.52
   0  -8 -11   14.26    3.00
  -6   0   7   78.20    5.19
   6   0  -7   83.92    6.02
  -6   0   7   66.31    4.67
  -8  -3  -3   77.32    5.04
  -8  -3  -3   70.09    5.70
   8   3   3   71.92    4.86
  -8  -3  -3   85.76    5.35
   8   3   3   74.09    5.31
   8   3   3   70.29    4.64
  -8  -3  -3   73.97    5.53
  -1  -2  12   53.85    4.14
   1   2 -12   44.90    4.07
  -1  -2  12   45.54    3.59
  -1  -2  12   41.23    3.65
   3   0  13    3.67    2.02
  -3   0 -13    5.60    2.46
   3   0  13    7.50    2.32
  -3   0 -13    3.73    2.97
  -3   0 -13    7.66    2.39
   3   0  13    5.60    1.35
   3   0  13    7.51    2.31
  -5   4  -9    2.92    2.12
  -5   4  -9    4.78    1.51
  -1  10   7    5.43    2.07
  -1  10   7    5.25    2.24
  -7  -2   4    6.49    1.89
  -7  -2   4   11.48    2.03
  -7  -2   4   11.22    2.48
   7   2  -4   11.83    2.14
   7   2  -4    8.04    2.69
   3  -9  -6   42.77    3.79
  -3   9   6   36.61    2.72
  -3   9   6   48.45    3.63
   0  10   8  109.00    7.30
   0 -10  -8  108.06    7.38
   0  10   8  106.14    7.22
   0  11   3  120.24    5.68
   0 -11  -3  109.07    7.06
   0  11   3  124.29    5.61
  -7   2   4   93.33    6.40
   7  -2  -4  100.27    6.72
  -7   2   4   85.58    5.79
  -7   2   4   97.71    5.89
  -7   2   4  103.51    6.43
   7  -2  -4  104.46    6.71
   3   7  12    6.05    2.62
   3   7  12    4.92    2.40
  -3  -7 -12    5.27    2.51
  -3  -7 -12    5.45    2.26
  -3  -7 -12    6.23    2.24
   3   7  12    4.46    0.85
  -7   2  -7   20.29    2.86
  -7   2  -7   18.26    2.51
  -7   2  -7   23.63    3.00
   3  10  -1  128.75    7.97
   3  10  -1  122.28    7.61
   3  10  -1  116.36    7.30
   3  10  -1  104.82    7.40
   3  10  -1  108.75    7.79
   3  10  -1  117.74    7.38
   3  10  -1  113.35    7.88
   4  10   6   27.27    2.82
  -4 -10  -6   28.92    3.02
   4  10   6   26.85    2.71
   4  10   6   26.27    2.83
   4  10   6   19.77    3.63
   4  10   6   25.39    2.80
   4  10   6   23.60    2.98
  -5  -1 -12   77.70    6.06
   5   1  12   86.06    5.64
   5   1  12   85.06    6.00
  -5  -1 -12   86.69    5.80
  -5  -9  -7   31.42    2.97
   5   9   7   27.38    2.76
   5   9   7   23.48    2.53
   5   9   7   32.52    3.65
   5   9   7   23.21    2.82
  -5  -9  -7   30.16    2.98
   7   5   8   10.55    2.18
   7   5   8    7.62    2.59
   7   5   8    7.51    1.59
  -7  -5  -8    7.55    2.19
  -7  -5  -8    9.12    2.01
  -3   8   8   13.73    2.34
   3  -8  -8   12.99    3.20
   3  -8  -8   14.28    2.36
  -3   8   8   11.34    1.62
  -3   8   8   13.26    2.10
   7   3   9   23.40    3.05
   7   3   9   24.83    2.99
  -7  -3  -9   24.72    3.12
  -7  -3  -9   18.10    1.83
   7   3   9   28.24    2.52
  -6  -3   6   26.88    2.51
   6   3  -6   22.57    2.82
   6   3  -6   27.18    3.18
  -6  -3   6   26.82    2.10
  -6  -3   6   28.33    2.47
  -4  -1  10   25.21    2.03
   4   1 -10   25.80    3.06
   4   1 -10   29.72    2.79
   8   0   4   50.95    4.12
  -8   0  -4   46.33    3.94
  -8   0  -4   47.51    4.19
  -8   0  -4   53.51    4.09
   5   7  -4    7.03    2.69
   5   7  -4    5.59    1.67
   5   7  -4    4.76    2.07
   5   7  -4    3.57    1.67
  -5  -7   4    4.66    2.05
   5   7  -4    4.42    1.09
   5   7  -4   11.67    2.50
   5   7  -4    5.99    1.21
  -6   1 -10    2.43    2.53
   6  -1  10    0.07    2.43
  -6   1 -10    0.93    1.81
  -6   1 -10    1.30    2.46
  -8  -3  -4  147.12    9.30
  -8  -3  -4  157.66    9.95
   8   3   4  172.83    9.05
   8   3   4  163.53    8.62
  -4  -9  -9   34.40    3.35
   4   9   9   34.48    2.80
   4   9   9   35.38    3.94
  -4  -9  -9   36.80    3.41
   0  11   2  132.49    8.36
   0  11   2  130.13    8.25
   0 -11  -2  110.16    7.33
   0  11   2  107.35    8.58
   0 -11  -2  116.08    7.68
   6   8   1   67.58    4.79
   6   8   1   70.81    4.43
   6   8   1   61.07    4.08
   6   8   1   70.63    4.53
   6   8   1   66.38    4.34
  -1   6  12   40.89    3.69
   1  -6 -12   48.05    3.97
  -1   6  12   39.62    4.02
   6  -6  -3   50.55    3.93
  -6   6   3   55.44    4.01
  -8  -3  -2   32.40    2.74
  -8  -3  -2   26.91    3.26
   8   3   2   28.52    3.02
   8   3   2   26.75    2.34
  -8  -3  -2   32.14    3.11
  -8  -3  -2   28.08    2.30
   0  -8   7   60.31    4.92
   0   8  -7   58.20    4.64
   0   8  -7   55.90    4.61
   0   8  -7   64.90    4.72
   0  -8   7   60.33    4.14
  -6  -2 -11   93.66    6.62
   6   2  11   78.79    5.61
  -6  -2 -11   81.61    6.33
   6   2  11   78.62    5.54
   6   2  11   71.32    5.81
   6   2  11   84.96    5.43
   1  -3  12   46.54    3.80
  -1   3 -12   41.13    3.84
  -1   3 -12   34.40    2.74
   1  -3  12   40.33    3.55
   1  -3  12   38.20    3.52
  -2 -11  -3  119.69    8.04
   2  11   3  113.49    7.95
   2  11   3  122.26    7.71
   2  11   3  110.97    7.10
   2  11   3  111.10    7.47
   2  11   3  107.99    7.56
   2  11   3  112.92    7.34
   0 -10   3   73.50    5.51
   0  10  -3   65.54    5.11
   0  10  -3   74.20    5.27
   6   3  11   45.91    3.80
   6   3  11   45.67    4.16
  -6  -3 -11   44.08    3.80
   6   3  11   44.85    3.60
   6   3  11   47.01    3.92
  -6  -3 -11   26.31    1.83
  -8  -2  -5   49.92    4.07
  -8  -2  -5   46.58    4.32
   8   2   5   50.40    4.13
  -8  -2  -5   46.57    4.06
   8   2   5   47.46    3.85
  -5   3 -10    2.60    1.45
  -5   3 -10   -1.08    2.21
   1  -2 -13   15.09    1.92
   1  -2 -13   17.75    2.40
  -1   2  13   13.90    2.30
  -1   2  13   15.45    1.66
  -5   7   5   83.43    5.60
   5  -7  -5   77.77    5.49
  -5   7   5   92.56    5.97
   2  11   4   75.50    6.33
   2  11   4   89.49    5.91
  -2 -11  -4   77.97    5.65
   2  11   4   82.84    5.51
   2  11   4   81.80    6.00
   1  -1  13   10.32    2.27
  -1   1 -13    8.54    2.72
   1  -1  13    9.73    2.11
   1  -1  13    7.93    2.36
  -1   1 -13   10.49    2.82
   1  -1  13    7.89    1.19
   4   3  13    1.60    2.57
  -4  -3 -13    1.45    2.58
   4   3  13    0.06    1.93
   4   3  13   -1.04    1.82
  -2   9   8   18.64    2.64
  -2   9   8   18.19    2.43
   2  -9  -8   16.55    3.31
  -2  -3  11   59.80    3.55
   2   3 -11   64.40    5.12
   2   3 -11   62.77    4.68
  -2  -3  11   64.88    3.85
  -2  -3  11   69.19    4.22
   2   3 -11   61.11    4.75
   1  11   5   22.82    2.91
  -1 -11  -5   22.33    3.04
   1  11   5   19.42    2.87
   1  11   5   21.89    2.73
   1  11   5   21.95    3.60
   1  11   5   19.88    2.14
   0  11   4   69.50    5.31
   0 -11  -4   75.14    5.03
   0  11   4   82.03    4.81
  -8  -1  -5   48.26    4.18
  -8  -1  -5   43.20    3.88
  -8  -1  -5   42.16    3.80
   8   1   5   40.22    3.49
   8   1   5   40.96    3.71
  -7   1  -8   -0.72    2.53
  -7   1  -8    2.01    1.49
  -7   1  -8   -2.03    2.39
   7  -1   8    1.31    2.38
  -4   9   1    7.81    2.70
   4  -9  -1   10.01    2.40
   0   5  13   55.93    4.29
   0   5  13   46.78    4.35
   0   5  13   42.02    3.83
   0  -5 -13   47.84    3.98
   4  -3  11   44.22    3.73
  -4   3 -11   38.97    3.47
  -4   3 -11   40.27    3.26
   4  -3  11   37.11    3.73
  -4   3 -11   42.84    4.12
   4   2  13   52.98    4.02
  -4  -2 -13   59.69    4.63
   4   2  13   58.16    4.38
   4   2  13   50.10    4.48
   4   2  13   56.39    3.97
  -4  -2 -13   55.32    4.89
   4   2  13   48.06    3.95
  -7  -1  -9  138.92    9.82
  -7  -1  -9  159.18    9.94
   7   1   9  149.27    9.69
  -4   8   6   59.12    4.16
  -4   8   6   72.85    4.79
   4  -8  -6   68.47    5.03
  -5   1   9   11.15    1.24
  -5   1   9   11.27    2.26
   5  -1  -9   17.37    2.52
  -5   1   9   11.93    1.57
  -6   4   6    0.50    1.44
   6  -4  -6   -0.32    2.35
  -6   4   6    0.11    1.80
  -6   4   6   -2.13    2.10
   3  10   8   68.67    4.62
  -3 -10  -8   70.06    5.25
   3  10   8   75.23    5.30
   3  10   8   76.79    5.34
  -1   8  -7   86.55    6.31
   1  -8   7   81.41    5.33
  -1   8  -7   90.13    6.41
  -1   8  -7   94.15    6.39
   1  -8   7   90.80    6.25
  -8  -1   0   16.94    2.61
   8   1   0   20.58    2.58
  -8  -1   0   16.10    2.45
   7  -4  -2   42.43    3.00
   7  -4  -2   33.47    3.06
  -7   4   2   36.50    3.19
   4  10   1   58.20    4.54
   4  10   1   60.82    4.41
   4  10   1   66.96    4.46
   4  10   1   64.73    4.97
   4  10   1   62.42    4.36
   4  10   1   55.15    4.82
   4  10   1   59.07    4.80
   6  -5  -5  158.63    9.16
  -6   5   5  134.08    9.01
  -6   5   5  142.52    9.07
   6  -5  -5  125.67    8.82
  -6   5   5  161.75    9.36
   6  -2  -7   86.92    6.12
  -6   2   7   70.48    5.25
  -6   2   7   85.55    5.51
   7  -4   4   14.87    1.97
   7  -4   4    9.62    1.33
  -7   4  -4   13.36    2.12
  -7   4  -4   12.63    2.21
  -7   4  -4   14.29    2.52
  -3  -9 -10  115.16    7.36
  -3  -9 -10  104.98    7.23
   3   9  10   50.81    3.20
   3   9  10  108.08    5.34
  -3  -9 -10  102.28    7.41
   1  11   1   11.45    2.36
  -1 -11  -1   14.72    2.44
   1  11   1   18.14    3.31
   1  -3 -13    0.08    1.56
   1  -3 -13    2.71    1.95
  -1   3  13   -0.55    2.09
  -1   3  13    0.45    1.53
  -2   1 -13   50.27    4.32
  -2   1 -13   50.99    4.04
   2  -1  13   50.23    3.23
   2  -1  13   48.58    4.04
  -2   1 -13   49.17    4.61
   2  -1  13   43.04    3.94
  -4   9   2   28.04    3.48
   4  -9  -2   35.89    3.52
   7   6   7   65.42    4.97
   7   6   7   61.97    4.04
  -7  -6  -7   67.74    4.86
  -7  -6  -7   65.52    4.63
   7   6   7   60.12    4.81
  -7  -6  -7   62.18    5.40
   7   6   7   58.36    4.04
   7   6   7   58.44    4.79
   1  10  -3  155.60   10.53
  -1 -10   3  188.19   11.98
   1  10  -3  179.67   10.82
   0  -7 -12   67.82    5.27
   0  -7 -12   72.73    5.69
   0   7  12   73.04    5.85
   0   7  12   71.67    5.69
   0   7  12   69.94    5.45
   0  -7 -12   81.71    5.50
  -5   5  -8    1.72    2.10
  -5   5  -8   -0.98    2.22
  -5   5  -8    2.73    1.54
  -5   5  -8    4.10    2.43
  -5   5  -8    4.12    1.54
  -8   1  -2   42.74    3.75
   8  -1   2   28.39    2.33
  -8   1  -2   36.35    3.90
  -8   1  -2   45.31    3.21
   8  -1   2   44.93    3.12
  -7   3  -6  121.04    8.05
  -7   3  -6  126.14    8.39
   7  -3   6  129.35    8.29
  -7   3  -6  107.87    8.34
  -4   6  -8   41.74    3.76
  -4   6  -8   36.49    3.51
  -4   6  -8   39.58    2.97
   2  11   2   85.72    6.21
   2  11   2   89.46    6.80
   2  11   2   82.49    6.31
   2  11   2   97.13    5.82
  -2 -11  -2  103.74    7.12
   2  11   2   95.20    6.49
   2  11   2   88.33    6.17
   3  -5  10    1.94    2.33
  -3   5 -10   -0.15    1.77
  -3   5 -10    2.31    1.97
  -3   5 -10    2.68    2.49
   0  -9 -10   88.35    6.39
   0   9  10   82.88    5.74
   0  -9 -10   83.29    6.08
   0   9  10   74.46    5.51
  -4   9   0    1.54    2.64
   4  -9   0    1.67    2.24
  -8   0   0   91.85    5.66
  -8   0   0  107.78    6.58
  -8   0   0   89.70    6.28
  -8   0   0   87.53    5.95
   8   0   0  105.18    6.99
   7   6   0   22.99    2.52
   7   6   0   17.68    1.64
   7   6   0   24.39    2.53
  -7  -6   0   24.72    3.10
   7   6   0   21.60    2.81
   7   6   0   20.33    3.30
  -1   1  13   62.79    3.92
   1  -1 -13   59.89    4.21
   1  -1 -13   51.97    3.84
  -1   1  13   59.50    3.63
  -6  -1   7   15.93    2.45
   6   1  -7   11.67    2.61
  -6  -1   7    9.31    1.64
  -5   8   1   -2.25    2.58
   5  -8  -1    3.52    2.09
   2  -3  12   28.90    3.02
  -2   3 -12   26.69    2.63
   2  -3  12   28.03    3.04
   2  -3  12   28.67    3.28
  -2   3 -12   27.00    3.39
   6  -5   6    9.37    1.81
  -6   5  -6    9.32    1.88
  -6   5  -6    9.39    2.56
  -6   5  -6   12.40    2.40
  -6   5  -6    8.62    2.19
  -5   2   9   79.36    5.02
   5  -2  -9   85.89    5.90
  -5   2   9   73.02    5.45
   4  -4 -10   57.94    4.13
  -4   4  10   51.68    4.13
  -4   4  10   46.35    3.80
   0  11   1  142.03    8.97
   0  11   1  136.13    8.80
   0  11   1  123.77    9.17
   0 -11  -1  126.86    8.11
   0 -11  -1  121.64    8.32
   3   6  -8   91.48    5.79
  -3  -6   8   87.91    6.02
  -3  -6   8   88.08    6.41
   3   6  -8   71.65    5.25
   5   9   0   -0.17    1.88
   5   9   0    5.28    2.56
   5   9   0   -1.22    1.78
   5   9   0    1.29    1.95
   5   9   0    2.50    1.55
   5   9   0    1.84    2.39
   5   9   0    0.55    1.30
   5   9   0    0.64    2.22
   5  -8   0    5.37    2.18
  -5   8   0    1.76    2.45
   5   0  -9    0.52    2.07
  -5   0   9   -0.11    0.50
  -5   0   9   -1.11    2.09
  -5   0   9    0.38    0.98
  -8   1  -3   42.40    3.81
  -8   1  -3   47.43    4.10
   8  -1   3   50.47    3.15
  -8   1  -3   48.92    3.88
  -8   1  -3   47.20    3.35
   8  -1   3   26.27    1.93
   2  11   5  161.66    9.96
   2  11   5  154.13   10.70
   2  11   5  157.37   10.20
   2  11   5  163.38   10.32
  -2 -11  -5  181.66   11.60
   2  11   5  158.76   10.66
  -8  -3  -5  141.54    9.58
   8   3   5  140.83    5.42
   8   3   5  142.22    5.40
  -8  -3  -5  144.97    9.01
   8   3   5  150.31    4.99
   1   4 -11    1.37    2.22
  -1  -4  11    2.57    1.92
  -1  -4  11    3.14    1.78
  -1  -4  11    0.30    2.41
   6   8   7   13.46    3.08
  -6  -8  -7   18.41    2.37
   6   8   7   14.41    2.58
   6   8   7   21.21    2.25
  -6  -8  -7   18.67    2.68
  -6  -8  -7   20.01    2.40
   6   8   7   16.56    3.33
   6   8   7   17.19    2.73
  -8   1  -1   79.69    5.64
  -8   1  -1   72.27    4.85
   8  -1   1   83.90    5.73
  -8   1  -1   78.02    5.22
   2   6  13   24.59    3.05
   2   6  13   21.24    2.68
  -2  -6 -13   21.87    2.73
  -2  -6 -13   21.39    2.75
  -2  -6 -13   22.82    2.79
   2   6  13   30.13    3.35
  -4  -4 -13   44.56    3.84
   4   4  13   40.04    3.58
  -4  -4 -13   44.02    3.48
  -6  -1 -11  167.76   11.33
   6   1  11  151.27    9.57
  -6  -1 -11  176.84   10.78
  -6  -1 -11  167.74   11.14
   6   1  11  147.16    9.79
  -8  -3  -1   -0.58    2.01
  -8  -3  -1    1.38    0.95
   8   3   1    2.04    2.05
   8   3   1   -0.12    1.51
  -8  -3  -1    0.14    1.59
  -8  -3  -1    1.91    2.26
  -7  -4  -9  104.69    7.06
  -7  -4  -9  124.76    7.57
   7   4   9  129.94    9.10
   7   4   9  151.24    8.97
   7   4   9  127.75    9.10
   7   4   9  141.66    8.74
  -6  -4 -11    5.51    1.97
   6   4  11    3.94    2.69
  -6  -4 -11    5.02    1.11
  -6  -4 -11    8.82    3.00
   6   4  11    4.75    2.08
   6   4  11    7.57    2.40
   6   4  11    7.38    1.97
   8   2   0    3.48    2.13
  -8  -2   0    6.88    1.57
  -8  -2   0    5.80    2.03
  -8  -2   0    3.58    0.85
  -8  -2   0    6.57    2.28
   0  -3  12   17.97    2.38
   0  -3  12   18.45    2.79
   0   3 -12   15.62    2.80
   0  -3  12   16.36    2.33
   2   1 -12   61.99    5.03
   2   1 -12   59.13    4.32
   2   1 -12   62.68    4.55
  -2  -1  12   61.53    4.77
  -2  -1  12   68.82    5.05
  -2  -1  12   63.55    4.47
   6   6  10    6.69    2.74
   6   6  10    4.50    2.14
  -6  -6 -10    5.97    2.05
  -6  -6 -10    8.60    2.06
   6   6  10    8.64    2.65
  -6  -6 -10    9.49    3.03
  -6  -6 -10    7.93    1.63
  -6  -6 -10    5.35    2.24
   7   4  -3   21.14    2.32
  -7  -4   3   20.19    2.48
  -7  -4   3   27.32    2.72
   7   4  -3   21.27    3.35
  -5  -3   8  107.19    7.31
   5   3  -8  126.22    8.16
  -5  -3   8  122.27    7.35
  -5  -3   8  125.32    7.79
   5   3  -8  118.22    8.10
   6   7  -2  168.28   11.11
   6   7  -2  199.91   11.99
   6   7  -2  203.86   11.69
  -6  -7   2  188.57   11.95
   6   7  -2  198.16   11.50
   6   7  -2  182.46   11.56
   6   7   9  186.52   11.29
  -6  -7  -9  184.98   11.76
  -6  -7  -9  180.68   11.92
   6   7   9  190.46   11.61
  -6  -7  -9  216.88   12.17
   6   7   9  165.75   11.73
  -3   6  -9   34.49    3.22
  -3   6  -9   41.14    3.88
  -3   6  -9   44.68    3.60
  -1  -6 -13   37.63    3.50
   1   6  13   36.33    3.50
  -1  -6 -13   41.83    3.42
   1   6  13   38.63    3.88
  -1  -6 -13   31.46    3.29
   1   6  13   41.68    4.07
   4   6  -7   15.68    1.78
   4   6  -7   12.76    1.75
  -4  -6   7   12.87    2.23
   4   6  -7   18.40    2.89
  -3   4 -11   20.66    3.15
   3  -4  11   21.12    2.94
  -3   4 -11   20.40    2.43
  -3   4 -11   20.76    2.54
   0 -11  -5   26.53    2.32
   0  11   5   27.79    3.84
   0  11   5   30.68    3.00
   0  11   5   24.63    2.11
  -8   0  -5    6.92    2.31
  -8   0  -5   12.19    2.64
   8   0   5   10.17    2.32
  -8   0  -5    9.67    2.49
  -5   8   2   -0.51    2.30
   5  -8  -2    1.04    2.06
  -1  10  -3   12.46    2.64
   1 -10   3   13.97    2.79
   4  -9  -3   42.98    3.77
  -4   9   3   43.53    4.08
  -4   9   3   40.63    3.72
  -4  -1 -13   61.54    5.23
   4   1  13   74.82    5.44
   4   1  13   78.91    4.92
  -4  -1 -13   79.92    5.90
   4   1  13   69.24    5.15
   4   1  13   71.22    5.03
   4   1  13   68.31    5.44
  -4  -1 -13   74.94    5.49
  -3  -5   9   87.60    6.31
  -3  -5   9   85.36    6.02
   3   5  -9   81.26    5.63
   3   5  -9   75.09    5.28
  -6   6  -4    1.98    2.04
   6  -6   4    3.34    1.55
   6  -6   4    0.54    1.22
  -6   6  -4    1.14    2.38
  -3   8  -6    5.21    2.52
  -3   8  -6    2.61    2.10
   3  -8   6    0.91    2.46
   3  -8   6    2.76    0.83
   1   8  -7   37.50    3.54
   1   8  -7   42.51    3.78
  -1  -8   7   41.17    3.81
   1   8  -7   40.41    3.62
  -1  -8   7   35.59    2.95
  -5  -5 -12    8.19    2.20
  -5  -5 -12    8.97    1.74
   5   5  12    9.10    2.16
   5   5  12    7.07    2.43
  -5  -5 -12    9.38    2.98
  -5  -5 -12   10.90    2.40
   5   5  12   12.72    3.00
  -3  -7   7  266.80   16.33
   3   7  -7  269.83   16.13
   3   7  -7  263.44   15.86
   2 -10   2    5.04    2.32
   2 -10   2    0.07    2.47
  -2  10  -2   -0.64    2.37
  -5   8  -1   23.54    3.25
   5  -8   1   28.51    3.06
   0   1 -13   17.42    2.96
   0  -1  13   15.29    2.22
   0   1 -13   12.62    2.97
   0  -1  13   13.75    2.33
   0  -1  13   13.82    2.62
  -7  -7  -4   82.12    5.62
   7   7   4   72.60    5.47
   7   7   4   77.30    5.72
   7   7   4   84.08    5.31
  -7  -7  -4   81.36    6.12
   7   7   4   66.15    5.73
   7   7   4   81.96    5.51
  -7  -7  -4   79.43    5.37
   7   5  -2    7.23    2.18
   7   5  -2    4.85    1.79
  -7  -5   2    9.93    2.44
   7   5  -2    6.46    1.70
   7   5  -2    9.14    2.20
  -7  -5   2    7.92    2.00
  -7  -5   2   10.51    2.43
   4  10   7   56.54    4.28
   4  10   7   57.64    4.55
  -4 -10  -7   57.25    4.45
   4  10   7   66.36    5.27
   4  10   7   61.84    4.54
  -2  10   6    5.15    0.97
   2 -10  -6    7.87    2.37
   2 -10  -6    7.40    1.37
  -2  10   6    6.50    2.34
  -4  -5   8   15.95    2.38
   4   5  -8   14.18    1.68
   4   5  -8   13.17    1.51
   4   5  -8   14.66    2.68
   4  -9   1    2.85    2.18
  -4   9  -1    5.08    1.98
  -4   9  -1    4.04    2.73
   8   4   3    0.97    2.28
  -8  -4  -3    0.86    1.75
  -8  -4  -3   -0.25    2.46
  -8  -4  -3    0.46    1.27
   8   4   3    1.37    1.53
   8   4   3    1.26    2.23
   8   4   3   -1.54    1.62
  -5   2 -11    2.91    1.43
  -5   2 -11    1.40    2.28
  -1   4  13   14.20    2.57
   1  -4 -13   13.54    2.40
  -1   4  13   12.39    2.14
  -3  -9   4   50.54    3.98
   3   9  -4   56.35    4.66
  -3  -9   4   60.64    4.60
   3   9  -4   56.13    4.22
   3   9  -4   51.07    4.10
   5   0  12   52.12    4.23
  -5   0 -12   52.24    4.28
  -5   0 -12   46.55    3.99
   1  11   6  103.90    7.13
   1  11   6   97.54    7.61
   1  11   6  109.78    7.18
  -1 -11  -6  103.55    7.22
   1  11   6  105.29    7.15
  -7  -7  -3   38.90    3.01
   7   7   3   37.47    3.82
   7   7   3   36.87    3.31
   7   7   3   38.46    3.33
  -7  -7  -3   37.35    3.83
   7   7   3   42.13    3.83
   7   7   3   39.70    3.76
  -8   1  -4   30.35    3.32
   8  -1   4   32.43    3.12
  -8   1  -4   25.23    3.05
  -8   1  -4   30.38    2.98
  -8  -2  -6   18.05    3.03
  -8  -2  -6   16.81    2.80
   8   2   6   17.02    2.69
   8   2   6   16.24    2.53
  -2 -11  -1   60.09    4.78
   2  11   1   60.15    4.83
   2  11   1   70.34    4.39
   2  11   1   58.71    5.38
  -2 -11  -1   61.96    4.62
   2  11   1   73.72    5.02
   2  11   1   62.43    5.12
  -3   5  11   25.14    2.76
  -3   5  11   29.83    3.28
   3  -5 -11   30.54    2.48
   1  10   9    7.46    2.19
   1  10   9    6.63    2.85
  -1 -10  -9    9.43    2.43
  -8  -4  -4   68.65    4.75
   8   4   4   56.56    3.98
  -8  -4  -4   70.91    5.26
   8   4   4   58.62    4.75
   8   4   4   63.37    4.32
  -8  -4  -4   61.07    4.41
   8   4   4   68.08    4.80
   2  10   9   -0.99    2.97
   2  10   9    0.99    1.99
  -2 -10  -9    1.09    2.18
   2  10   9   -0.42    2.35
   5  -6  -7   -0.08    2.58
   5  -6  -7   -0.73    1.85
  -5   6   7    1.08    1.79
  -5   6   7   -0.82    2.37
  -5   6   7    0.27    1.59
  -8   1   0   71.93    4.52
  -8   1   0   68.29    4.80
   8  -1   0   78.41    5.45
  -8   1   0   64.69    5.21
  -2   5  12   23.60    3.04
  -2   5  12   14.94    2.92
   2  -5 -12   21.18    2.64
  -4   6   9   55.64    4.76
  -4   6   9   61.10    4.12
  -4   6   9   64.12    4.42
   4  -6  -9   68.39    5.18
  -4   6   9   56.22    4.28
   4  -6  -9   57.58    4.14
  -7   0  -9   24.51    3.31
  -7   0  -9   20.35    3.18
  -7   0  -9   22.24    2.22
   7   0   9   18.26    2.99
   4  -7  -8    0.17    2.76
  -4   7   8    0.23    1.89
   4  -7  -8    0.26    1.91
  -4   7   8   -1.44    1.66
  -4   7   8    1.09    1.53
   2  -9   5   36.06    3.41
  -2   9  -5   38.57    3.51
  -2   9  -5   32.02    3.40
  -2   9  -5   34.43    3.67
   2  -9   5   19.41    1.41
  -7   0   5   62.29    4.77
  -7   0   5   77.66    5.19
   6   8   0   92.97    6.28
   6   8   0   87.26    6.18
   6   8   0   94.57    6.30
   6   8   0   82.64    6.56
  -7  -7  -5   91.17    7.05
  -7  -7  -5   98.81    6.66
  -7  -7  -5  101.52    6.44
   7   7   5   92.38    6.04
   7   7   5   96.56    5.88
   7   7   5   92.81    5.92
   7   7   5  102.00    6.27
   7   7   5   97.00    5.56
  -7  -3   4   36.97    3.08
  -7  -3   4   32.08    2.99
   7   3  -4   31.81    3.24
   7   3  -4   42.62    3.96
   1  11   0   24.66    3.19
   1  11   0   26.01    2.81
  -1 -11   0   20.28    2.79
   8   1   6   42.86    3.71
   8   1   6   37.80    3.58
  -8  -1  -6   42.11    3.74
  -8  -1  -6   35.75    4.06
  -8  -1  -6   45.39    3.94
   3 -10  -2   64.75    4.81
   3 -10  -2   69.96    5.21
  -3  10   2   57.83    4.97
  -5   3   9   85.21    5.58
  -5   3   9   79.84    5.73
   5  -3  -9   81.14    5.61
  -7   3   4  107.60    6.90
  -7   3   4  106.38    7.20
  -7   3   4  106.93    7.30
  -7   3   4   99.42    6.76
  -7   3   4  126.16    7.10
   7  -3  -4  112.10    7.36
  -4  -7   6   69.04    5.01
   4   7  -6   76.88    5.34
   4   7  -6   69.12    4.69
   4   7  -6   73.41    4.49
   4   7  -6   61.99    4.57
   4   7  -6   66.72    4.47
  -6   3   7   35.86    2.80
  -6   3   7   33.76    2.01
   6  -3  -7   40.66    3.85
  -6   3   7   35.74    2.71
  -5   5   8   28.50    2.64
  -5   5   8   28.75    2.32
  -5   5   8   23.94    2.75
   5  -5  -8   25.58    3.39
  -5   5   8   30.54    3.16
   2   9  -5   96.46    6.85
   2   9  -5  107.17    7.14
   2   9  -5  102.01    6.80
   2   9  -5  104.36    7.10
  -2  -9   5   99.53    6.64
  -2  -9   5  110.46    7.28
   2   9  -5  100.58    6.76
   5   9   8   15.70    2.46
   5   9   8   20.81    3.40
  -5  -9  -8   15.51    2.44
  -5  -9  -8   17.08    2.39
   5   9   8   15.71    2.19
   2  11   6   63.51    4.71
   2  11   6   70.04    5.12
  -2 -11  -6   76.98    5.76
   2  11   6   60.32    5.56
   2  11   6   74.46    5.08
   2  11   6   67.15    5.70
   1 -11  -3   55.06    4.24
   1 -11  -3   68.63    4.94
  -1  11   3   69.25    5.23
  -3  10   1   15.30    2.46
   3 -10  -1   14.16    2.76
   3 -10  -1   16.50    2.51
  -3  10   1   13.79    3.11
  -1   0  13   61.87    4.43
   1   0 -13   48.54    3.79
  -1   0  13   47.67    3.92
  -1  11   2  113.16    7.78
  -1  11   2  120.50    7.88
   1 -11  -2  120.67    8.01
   1 -11  -2  115.64    7.64
   8   4   2    0.60    1.47
  -8  -4  -2    1.67    2.30
  -8  -4  -2    0.61    1.15
   8   4   2    0.20    2.17
  -8  -4  -2   -0.40    1.73
   8   4   2    1.94    1.52
   8   4   2    2.67    2.15
   0 -11   0  234.25   14.49
   0  11   0  207.10   13.91
   0 -11   0  232.58   14.63
   0  11   0  243.64   14.11
  -2  -6   9    4.78    1.97
   2   6  -9    5.94    2.29
  -2  -6   9    6.08    2.72
   2   6  -9    2.92    2.42
   2   6  -9    5.96    2.06
  -5  -1   9    7.16    0.86
   5   1  -9   13.85    2.47
   5   1  -9    9.24    2.67
  -8  -1   1    2.13    0.65
  -8  -1   1    3.77    2.26
   8   1  -1    1.60    1.95
  -8  -1   1    5.17    1.98
  -3  -6 -13   80.80    5.76
  -3  -6 -13   89.46    5.90
   3   6  13   76.56    5.20
  -3  -6 -13   77.05    5.90
   3   6  13   61.04    4.37
   3   6  13   72.58    5.29
   3   6  13   76.41    5.57
  -7   1   5   11.57    2.13
  -7   1   5   14.26    2.40
   7  -1  -5   17.36    2.49
  -7   1   5    6.66    0.68
  -5   7  -5   66.47    5.24
  -5   7  -5   73.89    4.85
   5  -7   5   54.17    3.57
  -5   7  -5   66.70    5.43
  -6   6   4   73.53    5.21
  -6   6   4   82.44    5.36
   6  -6  -4   70.76    5.09
  -3  -2  11   29.35    2.76
   3   2 -11   30.77    2.57
   3   2 -11   28.86    3.07
  -3  -2  11   29.82    3.09
   3   2 -11   28.79    3.50
   8   3   6  114.90    7.87
  -8  -3  -6  137.55    8.36
  -8  -3  -6  111.46    7.62
   8   3   6  121.61    8.10
   8   3   6  128.33    8.13
   4  10   0   32.59    2.85
   4  10   0   25.40    3.45
   4  10   0   35.92    3.13
   4  10   0   31.22    3.49
   4  10   0   34.39    2.78
   4  10   0   29.11    2.85
   4  10   0   33.86    3.62
  -8   0   1   83.26    5.49
  -8   0   1   82.99    5.00
  -8   0   1   88.24    5.69
  -8   0   1   71.24    4.75
   8   0  -1   90.52    6.12
  -2   8  -7   15.66    2.56
   2  -8   7   15.87    1.62
  -2   8  -7   19.09    2.71
   2  -8   7   17.71    3.04
  -2   8  -7   21.44    2.85
  -4  -8 -11   19.03    2.54
  -4  -8 -11   21.59    2.82
  -4  -8 -11   21.11    2.77
  -4  -8 -11   16.26    2.89
   4   8  11   16.29    3.52
   4   8  11   14.10    2.79
   4   8  11   17.25    3.07
  -3   9  -4    1.26    2.22
   3  -9   4   -1.80    2.42
   3  -9   4   -0.06    2.01
  -3   1 -13   23.31    3.49
  -3   1 -13   23.40    3.02
   3  -1  13   21.15    2.93
  -3   1 -13   22.50    2.85
   3  -1  13   24.01    2.92
   3  -1  13   24.15    2.83
   5  -8  -3   -0.07    1.99
   4   2 -10    7.08    1.14
  -4  -2  10    7.38    2.23
  -4  -2  10    7.24    1.70
   4   2 -10    7.33    2.34
   4   2 -10    8.47    2.67
   7   7   2   14.77    1.94
   7   7   2   16.99    2.77
   7   7   2   14.81    3.04
   7   7   2   20.03    2.46
   7   7   2   12.44    2.06
   7   7   2   15.24    2.61
  -7  -7  -2   23.79    3.22
  -8  -4  -5   57.51    4.17
  -8  -4  -5   60.92    4.46
   8   4   5   59.76    4.09
   8   4   5   65.25    4.49
  -8  -4  -5   61.93    4.99
   8   4   5   55.11    4.41
  -7   5  -1   11.67    2.43
   7  -5   1   11.70    1.87
   7  -5   1    9.43    1.60
  -7   4   3   60.46    4.59
  -7   4   3   62.41    4.59
   7  -4  -3   51.22    3.83
  -7   4   3   63.90    4.51
   7   1  -5  119.45    7.68
  -7  -1   5  104.26    7.05
   7   1  -5  102.96    7.22
  -7  -1   5  114.62    7.40
   3 -10  -3  124.98    8.08
  -3  10   3  106.15    7.47
  -3  10   3  118.30    7.91
   3 -10  -3  115.36    7.65
  -6   3  -9   37.76    3.29
  -6   3  -9   35.97    3.52
  -8  -3   0    3.47    1.59
  -8  -3   0    1.75    0.57
   8   3   0    0.39    2.19
  -8  -3   0    0.77    2.08
  -8  -3   0    3.07    2.26
  -7   4  -5   14.03    2.69
  -7   4  -5   13.34    2.65
  -7   4  -5   18.03    2.36
  -7   4  -5   16.86    2.45
  -7   4  -5   19.53    2.33
   7  -4   5   16.52    2.22
   4  -2  12   26.53    2.99
  -4   2 -12   31.46    3.51
   4  -2  12   18.74    3.03
  -4   2 -12   25.86    2.93
   4  -2  12   25.75    2.95
  -6  -2   7   -0.78    1.36
  -6  -2   7   -0.09    1.21
   6   2  -7    0.98    2.23
   6   2  -7    2.46    2.38
  -5  -7 -11  106.28    6.72
  -5  -7 -11  101.59    6.91
   5   7  11   99.19    6.98
  -5  -7 -11   98.29    6.95
   5   7  11   85.59    6.34
   5   7  11  105.23    6.89
  -5  -7 -11   98.75    6.90
  -5   6  -7  100.25    6.63
  -5   6  -7   92.14    6.75
  -5   6  -7  106.03    6.61
  -5   6  -7   83.02    6.04
  -5   6  -7  101.74    6.20
   3  11   4  112.88    7.60
   3  11   4  109.52    7.54
   3  11   4  104.06    8.00
   3  11   4   95.78    7.79
  -3 -11  -4  100.78    6.96
   3  11   4  103.49    7.38
   3  11   4  108.56    7.23
   2  10  -3   29.96    3.22
   2  10  -3   35.09    3.64
   2  10  -3   37.46    2.74
  -2 -10   3   32.08    3.50
  -5  -8   3    5.21    2.10
   5   8  -3    8.65    2.13
   5   8  -3    5.99    1.38
   5   8  -3    4.53    1.98
   5   8  -3    5.69    1.91
   5   8  -3    7.02    2.48
   5   8  -3    6.35    2.82
   4   5  13   74.63    5.46
  -4  -5 -13   65.67    4.71
  -4  -5 -13   65.22    4.97
  -7   5   0   -1.00    2.07
   7  -5   0    0.24    1.32
   7  -5   0    0.47    1.67
   2   7  -8   59.63    3.77
   2   7  -8   55.72    4.19
  -2  -7   8   55.14    4.19
   3  11   3   87.32    5.57
   3  11   3   79.90    6.01
   3  11   3   79.05    5.77
  -3 -11  -3   72.89    5.41
   3  11   3   95.95    5.84
   3  11   3   85.79    6.43
   3  11   3   68.09    5.86
   3  11   3   80.07    6.36
   2   3  14   37.41    3.05
  -2  -3 -14   31.14    2.97
  -2  -3 -14   26.97    3.06
   2   3  14   32.45    3.49
   2   3  14   31.79    2.95
  -6  -5   5   37.75    3.44
   6   5  -5   31.13    3.24
  -6  -5   5   34.56    2.94
   6   5  -5   36.25    3.73
   6   5  -5   39.30    3.37
  -4   9   4   49.00    4.06
   4  -9  -4   42.87    3.82
  -5   8  -2   44.56    4.18
  -5   8  -2   44.37    4.23
   5  -8   2   51.51    4.09
  -1  11   4   44.97    3.94
   1 -11  -4   54.09    4.41
   1 -11  -4   49.75    3.70
  -6   0 -11    2.69    2.77
   6   0  11    5.41    2.55
  -6   0 -11    4.23    1.99
   6   0  11    1.93    2.11
  -6   0 -11    3.44    2.56
   1 -11  -1   94.90    6.32
  -1  11   1   89.09    6.43
   1 -11  -1   89.27    6.53
  -1  11   1   92.00    6.39
  -2   8  10  147.97    9.17
   2  -8 -10  145.60    9.76
  -2   8  10  145.24    9.71
  -2   8  10  137.16    9.30
   3  10  -2   72.60    4.79
   3  10  -2   75.92    5.48
   3  10  -2   61.30    4.99
   3  10  -2   75.36    4.93
   3  10  -2   78.47    5.57
   3  10  -2   65.99    5.41
   2   2  14   10.73    2.28
  -2  -2 -14    9.54    2.77
  -2  -2 -14    6.95    2.17
   2   2  14    7.53    2.48
   2   2  14   11.63    1.81
   6   5  11  132.15    8.51
   6   5  11  129.38    8.33
  -6  -5 -11  109.59    7.49
   6   5  11  113.81    8.07
  -6  -5 -11  121.92    7.99
  -6  -5 -11  124.58    8.61
   3  -9  -7   26.01    2.13
   3  -9  -7   28.46    3.06
  -3   9   7   24.60    2.96
  -3   9   7   24.32    2.09
   3 -10   0    5.57    2.29
  -3  10   0    3.20    2.88
  -3  10   0    5.09    2.19
   3 -10   0    4.34    2.32
  -6   4  -8   51.91    3.43
  -6   4  -8   54.85    4.38
  -6   4  -8   56.57    4.59
  -6   4  -8   55.03    3.98
   4   7  12   44.19    4.01
   4   7  12   37.22    3.73
  -4  -7 -12   45.74    3.88
   4   7  12   39.65    4.25
  -4  -7 -12   47.75    3.69
  -4  -7 -12   35.52    3.94
  -4  -7 -12   46.91    3.82
   5   8  10   57.77    5.34
   5   8  10   55.85    4.65
  -5  -8 -10   69.60    4.96
  -5  -8 -10   68.72    5.09
   0  11   6    6.07    2.16
  -4   8  -5   88.72    5.60
   4  -8   5   36.36    2.45
  -4   8  -5   67.96    5.69
   4  -8   5   39.20    2.42
  -1  10   8   30.29    3.11
  -1  10   8   31.39    3.28
  -7  -6  -8   12.71    2.46
  -7  -6  -8   16.12    3.20
   7   6   8   13.37    2.36
   7   6   8   11.93    2.89
  -7  -6  -8   15.62    2.18
  -1  -3 -14   42.86    3.62
   1   3  14   47.04    3.85
   1   3  14   51.63    4.31
  -1  -3 -14   48.75    3.90
   1   3  14   55.02    3.79
   8  -2   2   -1.38    1.25
  -8   2  -2    2.36    2.38
  -8   2  -2    1.51    1.45
  -8   2  -2    1.23    1.98
   8  -2   2    3.30    1.79
  -8   2  -2    0.93    1.92
  -8   2  -2    1.20    0.90
  -1  -2 -14   42.54    3.69
  -1  -2 -14   42.32    3.45
   1   2  14   44.47    3.31
   1   2  14   48.77    3.77
   1   2  14   45.65    3.87
   2   5 -10   17.22    2.62
  -2  -5  10   17.60    2.25
   2   5 -10   18.21    2.48
  -2  -5  10   18.89    2.51
  -2  -5  10   17.53    3.06
  -7   5  -2    1.77    1.96
  -7   5  -2    3.88    2.30
   7  -5   2    2.10    1.68
   7  -5   2    1.94    1.47
  -7   5  -2    1.10    2.31
  -7  -7  -6  175.81   11.69
  -7  -7  -6  187.50   11.14
   7   7   6  175.72   11.08
  -7  -7  -6  169.68   11.28
   7   7   6  209.47   10.96
   7   7   6  181.53   10.94
   7   7   6  193.27   10.51
   7   7   6  168.80   10.80
   7   7   6  142.54   10.21
  -3   7  -8   50.25    4.07
   3  -7   8   43.68    4.07
  -3   7  -8   46.56    4.31
   8   2  -1   25.06    2.83
  -8  -2   1   21.67    2.15
  -8  -2   1   24.93    2.97
  -8  -2   1   25.97    2.74
  -7  -5  -9   34.58    3.23
   7   5   9   34.06    2.98
   7   5   9   34.00    3.73
   7   5   9   40.78    3.84
  -7  -5  -9   37.73    3.46
   7   5   9   39.02    3.41
   2  -7 -11   51.90    4.36
   2  -7 -11   65.37    5.08
  -2   7  11   62.66    4.78
  -2   7  11   66.16    5.25
  -3   3 -12  108.52    7.41
  -3   3 -12  110.74    6.96
   3  -3  12   97.66    7.15
  -3   3 -12   95.80    6.88
   3  -3  12  114.83    7.27
   3   4 -10   52.19    3.96
   3   4 -10   47.98    4.12
  -3  -4  10   61.70    4.00
  -3  -4  10   54.19    3.56
  -4   7  -7   38.73    3.05
  -4   7  -7   43.98    3.86
   4  -7   7   51.36    4.42
   7   6  -1    6.81    2.20
   7   6  -1    4.43    1.85
  -7  -6   1    6.83    2.33
   7   6  -1    6.18    2.35
   7   6  -1    0.54    2.92
  -8   2  -1    3.26    1.05
   8  -2   1    2.76    1.36
  -8   2  -1    4.68    2.38
  -8   2  -1    6.55    2.00
  -8   2  -1    3.67    1.46
   8  -2   1    4.23    1.87
   2   8  12   42.48    4.44
   2   8  12   43.12    4.22
   2   8  12   37.67    4.04
  -2  -8 -12   45.12    3.85
  -2  -8 -12   43.26    4.20
  -2  -8 -12   43.09    3.87
   3  11   5  123.98    8.18
  -3 -11  -5  120.39    8.05
   3  11   5  128.04    8.75
   3  11   5  120.95    7.89
   3  11   5  116.87    8.12
   3  11   5  116.91    7.83
   3  11   5  130.62    8.06
   3  11   5  119.79    8.55
  -4  -4   9    4.32    1.21
   4   4  -9    3.66    2.32
   4   4  -9    2.63    1.01
   4   4  -9    5.01    2.52
   4   4  -9    2.26    0.59
  -4  -4   9    5.13    2.24
  -4  -4   9    5.36    1.59
   4   9  -3   58.95    4.57
   4   9  -3   59.06    4.66
   4   9  -3   62.54    4.42
   4   9  -3   65.46    5.14
   4   9  -3   70.10    4.81
   4   9  -3   68.56    4.57
  -4  -9   3   62.77    4.62
   4   9  -3   72.73    5.36
   1  -8 -11   24.46    2.87
  -1   8  11   25.96    3.01
   6   8   8   71.80    5.46
   6   8   8   85.02    6.14
  -6  -8  -8   87.27    5.92
  -6  -8  -8   82.52    5.79
  -6  -8  -8   89.96    6.13
   6   8   8   86.33    5.44
  -1   6 -10   91.79    6.06
  -1   6 -10   91.85    6.00
   1  -6  10  101.93    7.15
  -1   6 -10   74.85    5.34
   6   6  -4   76.43    5.45
  -6  -6   4   78.43    5.72
   6   6  -4   70.51    5.32
   6   6  -4   75.17    4.96
   0   6  13  118.95    8.07
   0  -6 -13  117.43    7.86
   0   6  13  113.82    7.72
   0   6  13  112.97    7.98
  -8   1  -5   15.67    2.88
  -8   1  -5   16.39    2.56
   8  -1   5   13.62    2.40
  -8   1  -5   17.90    2.73
   8   0   6   28.49    3.05
  -8   0  -6   29.45    3.14
  -8   0  -6   29.02    3.39
   4   0  13  100.42    6.15
   4   0  13   99.97    6.69
  -4   0 -13   95.50    6.70
  -4   0 -13  102.54    7.21
  -4   0 -13   90.78    6.68
   4   0  13   88.20    6.51
   4   0  13   92.86    6.72
  -4   9  -2    5.74    2.04
   4  -9   2    2.00    2.27
   4  -9   2    7.67    2.47
  -4   9  -2    4.96    2.75
   8   4   1   25.58    2.93
  -8  -4  -1   27.76    2.45
  -8  -4  -1   20.17    1.75
  -8  -4  -1   21.90    2.96
   8   4   1   25.00    2.49
  -8  -4  -1   27.86    2.84
  -5   7   6  100.51    6.20
   5  -7  -6   86.86    6.01
  -5   7   6   83.73    5.83
  -3  -8   6   11.23    2.11
   3   8  -6   12.67    1.90
   3   8  -6   11.14    2.77
   3   8  -6   10.10    2.02
  -3  -8   6   12.16    2.78
  -6   7   0   90.96    6.25
   6  -7   0   88.24    6.03
  -6   7   0   82.85    6.19
   5   9  -1    4.70    2.68
   5   9  -1    5.60    1.60
   5   9  -1    5.83    2.18
   5   9  -1    1.49    2.34
   5   9  -1    5.48    2.52
   5   9  -1    2.94    1.91
   5   9  -1    5.55    1.44
   8  -1  -1  110.11    7.20
  -8   1   1  109.09    7.96
  -8   1   1  124.76    7.55
  -8   2  -3    1.81    2.13
  -8   2  -3    1.57    2.34
   8  -2   3   -0.88    1.88
  -8   2  -3    1.55    1.99
  -8   2  -3    2.30    1.49
  -6   2 -10   36.60    3.70
  -6   2 -10   41.75    4.08
   6  -2  10   35.20    3.61
  -7   5   1    4.39    2.21
   7  -5  -1    5.97    1.91
   7  -5  -1    6.59    1.50
  -3 -11  -2  124.83    8.33
   3  11   2  118.16    8.43
   3  11   2  123.31    8.39
   3  11   2  138.07    8.31
   3  11   2  120.04    8.02
   3  11   2  118.36    8.65
   3  11   2  112.53    8.67
   0 -10  -9   52.10    4.38
   0  10   9   51.46    4.39
   0  10   9   54.38    4.27
   0   9  -6   11.65    2.73
   0  -9   6   13.00    2.87
   0   9  -6   13.56    2.44
   0   9  -6   17.05    2.86
   0  -9   6   11.30    1.60
   6   4  -6   33.66    3.30
   6   4  -6   38.61    3.72
  -6  -4   6   39.25    3.11
  -6  -4   6   39.77    3.65
  -1  -8 -12   38.92    3.67
   1   8  12   42.85    4.27
  -1  -8 -12   42.23    4.05
  -1  -8 -12   36.27    3.63
   1   8  12   35.05    3.95
  -7   2   5    2.37    0.99
  -7   2   5    2.50    2.05
  -7   2   5    2.21    2.12
  -7   2   5    3.29    1.17
   7  -2  -5    1.65    2.08
  -3 -10  -9   78.45    5.62
   3  10   9   65.08    4.68
  -3 -10  -9   73.23    5.54
   3  10   9   56.09    3.72
  -7   2  -8   44.51    4.10
  -7   2  -8   41.85    3.76
  -2  -9 -11   55.36    4.55
   2   9  11   48.72    4.67
  -2  -9 -11   57.11    4.83
   2  11   0   29.53    3.18
   2  11   0   22.89    2.04
   2  11   0   21.53    2.74
  -2 -11   0   24.21    2.92
  -2 -11   0   23.89    3.01
   2   4  14   48.11    3.69
  -2  -4 -14   45.54    3.97
   2   4  14   45.69    4.41
  -2  -4 -14   47.52    3.86
   2   4  14   56.82    4.00
   0   6 -10   32.38    3.30
   0  -6  10   35.09    3.59
   0   6 -10   33.07    3.25
   0   6 -10   24.37    2.04
   0  -6  10   31.22    2.96
  -1   5 -11   56.82    4.57
  -1   5 -11   52.14    3.67
  -1   5 -11   50.40    4.26
   1  -5  11   66.08    5.21
   6  -7  -1   26.94    2.85
  -5  -6   6   35.02    3.33
   5   6  -6   32.52    3.15
   5   6  -6   32.93    1.91
   1  -2  13   22.82    2.86
   1  -2  13   16.96    2.56
  -1   2 -13   19.44    3.27
  -1   2 -13   22.92    3.20
   1  -2  13   18.80    2.56
  -4   5  10   63.43    5.00
  -4   5  10   74.28    5.44
   4  -5 -10   79.22    5.71
  -4   5  10   77.48    4.97
   4  -5 -10   67.75    4.75
   3 -10  -4  143.74    9.07
  -3  10   4  153.27    9.86
   3 -10  -4  145.89    9.44
  -3  10   4  141.19    9.48
   4   9  10   54.43    4.85
   4   9  10   44.43    3.29
  -4  -9 -10   52.27    4.26
  -4  -9 -10   53.25    4.30
   4   9  10   49.05    4.48
   6  -7   1   64.62    4.74
  -6   7  -1   56.38    4.82
  -6   7  -1   66.15    4.93
   1   3 -12    8.32    2.85
  -1  -3  12    5.56    2.17
  -1  -3  12    1.99    2.48
  -1  -3  12    4.86    1.90
   1   3 -12    3.79    2.51
  -1  -9 -11   -0.41    2.68
  -1  -9 -11    2.85    2.21
   1   9  11    3.79    2.81
  -1  -9 -11    2.91    2.32
   1   9  11    1.12    2.23
  -4   8   7   72.09    4.98
   4  -8  -7   66.72    4.96
  -4   8   7   63.25    4.44
   0  10  -4   44.37    3.93
   0 -10   4   46.02    4.18
   0  10  -4   48.06    4.18
   1  11   7  188.46   11.93
  -1 -11  -7  210.08   13.34
   1  11   7  187.88   11.96
  -5  -5   7   24.30    2.88
   5   5  -7   31.37    3.45
  -7   3  -7   48.95    4.32
  -7   3  -7   51.39    3.94
  -7   3  -7   46.78    4.26
  -2  -1 -14    9.94    2.79
   2   1  14   10.10    1.66
   2   1  14   16.86    2.54
   2   1  14   13.90    2.44
  -1   5  13   46.98    4.15
   1  -5 -13   47.10    4.01
  -1   5  13   41.64    3.79
   3  -2 -12  163.06   10.28
   3  -2 -12  166.27   10.33
  -3   2  12  157.89    8.92
  -3   2  12  156.18    9.17
   8   4   6  117.06    7.23
   8   4   6  108.35    7.16
  -8  -4  -6   97.03    6.45
  -8  -4  -6   94.50    7.07
  -8  -4  -6  103.48    6.70
   1   4  14   24.02    3.21
  -1  -4 -14   20.50    2.62
   1   4  14   28.08    2.72
  -1  -4 -14   25.60    2.84
   1   4  14   23.95    2.45
  -1  -1 -14    3.27    2.07
   1   1  14    5.18    2.14
   1   1  14    4.79    1.24
  -1  -1 -14    3.47    2.67
   1   1  14    2.41    2.12
   4  10   8   43.20    3.83
  -4 -10  -8   46.31    4.01
  -4 -10  -8   50.02    4.02
   4  10   8   49.70    3.76
   4  10   8   40.47    3.35
  -7  -7  -1   12.73    2.79
   7   7   1   12.52    3.10
   7   7   1   15.91    2.64
   7   7   1   15.14    2.05
   7   7   1   13.47    1.82
   7   7   1    9.62    2.37
   7   7   1   12.05    2.36
  -7  -2 -10   77.71    5.82
   7   2  10   70.30    4.90
   7   2  10   72.11    5.13
   7   2  10   62.07    5.30
  -7  -2 -10   66.82    5.62
  -8   2   0    0.48    2.34
  -8   2   0    2.22    1.41
  -8   2   0   -0.93    1.77
   8  -2   0    1.13    1.41
   8  -2   0   -0.67    1.80
  -8   2   0    3.36    1.19
  -3   7  10   75.65    5.68
   3  -7 -10   59.95    3.98
  -3   7  10   96.41    6.03
  -3   7  10   90.24    5.76
   3  -7 -10   99.37    5.63
  -3   7  10   86.48    6.43
  -6   6  -5   37.47    3.62
   6  -6   5   48.64    3.45
  -6   6  -5   45.50    3.98
   1 -11  -5   25.75    3.12
  -1  11   5    9.14    0.79
   1 -11  -5   20.22    2.10
  -1  11   5    9.61    0.92
  -7  -3 -10   41.63    4.21
   7   3  10   45.35    3.72
   7   3  10   54.19    4.13
   7   3  10   43.47    4.21
   8   2   7   25.01    2.98
   8   2   7   27.29    3.10
  -8  -2  -7   30.53    3.62
  -1  11   0   20.50    2.99
   1 -11   0   17.96    2.75
   1 -11   0   17.74    2.82
   1  -7   9   78.64    5.25
  -1   7  -9   86.35    6.26
  -1   7  -9   88.69    6.22
   2  -2  13  114.40    7.93
  -2   2 -13  104.25    7.38
  -2   2 -13  116.61    7.98
  -2   2 -13  125.70    7.91
   2  -2  13  120.70    8.00
   2  -2  13  126.14    8.07
   7   2  -5   84.13    5.87
  -7  -2   5   60.52    4.56
   7   2  -5   68.61    5.27
  -7  -2   5   65.14    4.02
  -7  -2   5   61.76    4.63
  -6   5   6   59.82    4.53
   6  -5  -6   64.99    5.14
  -6   5   6   54.72    4.09
  -6   5   6   57.29    4.20
  -1   9  10   15.76    2.66
  -1   9  10   13.73    2.41
   1  -9 -10   15.17    2.54
   1  -9   6    9.94    1.37
  -1   9  -6   12.96    2.53
  -1   9  -6   14.73    2.78
   1  -9   6   11.55    2.84
  -1   9  -6    9.99    2.67
   3  -1 -12  162.10    9.65
   3  -1 -12  143.60    9.46
  -3   1  12  150.30    9.92
  -3   1  12  157.69    9.62
   2  11   7   92.20    6.35
   2  11   7   89.26    6.32
   2  11   7   88.24    6.32
  -2 -11  -7  100.41    7.08
   7  -5   3   39.24    2.94
   7  -5   3   36.42    2.96
  -7   5  -3   44.20    3.77
  -7   5  -3   37.45    3.39
  -7   5  -3   38.76    3.53
  -5  -6 -12    3.53    1.71
   5   6  12    2.35    2.53
  -5  -6 -12   -0.36    2.16
   5   6  12    3.09    2.90
  -5  -6 -12   -0.21    2.08
  -5  -6 -12    1.35    2.34
   5  10   4  216.92   13.52
   5  10   4  229.67   13.33
   5  10   4  220.45   13.77
   5  10   4  203.44   13.33
   5  10   4  217.02   13.49
   5  10   4  214.04   13.42
   5  10   4  205.01   13.39
   5  10   4  214.14   13.50
   1  -7 -12    6.99    2.30
   1  -7 -12    4.20    2.14
  -2  -2  12   46.17    3.61
  -2  -2  12   48.95    3.96
  -2  -2  12   50.00    4.19
  -2  -2  12   44.11    3.70
   2   2 -12   57.37    4.24
   2   2 -12   47.90    4.55
   0   7  -9   89.53    6.37
   0  -7   9  102.46    6.67
   0   7  -9   87.71    6.21
   4   8  -5   95.64    6.34
   4   8  -5   82.67    5.73
  -4  -8   5   72.70    5.19
   4   8  -5   81.50    5.63
   4   8  -5   93.59    5.73
   4   8  -5   89.11    6.40
   4   8  -5   81.05    5.51
  -3  -3 -14   -0.29    2.16
   3   3  14    1.16    2.37
   3   3  14   -0.37    1.75
   3   3  14    0.58    1.87
   2 -10   3    1.80    2.16
  -2  10  -3   -1.59    2.35
   2 -10   3    0.95    2.62
   0 -11   1  131.92    9.41
   0 -11   1  161.80    9.61
   0  11  -1  166.74   10.81
  -1 -11   1   73.81    5.51
   1  11  -1   78.73    5.70
   1  11  -1   81.75    5.92
  -1 -11   1   74.58    5.56
   3 -10   1   15.49    2.67
  -3  10  -1   11.81    3.18
  -3  10  -1   18.10    2.68
   3 -10   1   14.86    2.71
   6   9   4  103.39    6.39
   6   9   4   93.25    6.63
   6   9   4   84.74    6.23
   6   9   4   75.30    6.49
   6   9   4   92.27    6.46
   6   9   4   87.38    6.29
  -5   8   4   13.76    2.40
   5  -8  -4   13.38    2.44
  -5   8   4   14.18    1.74
   0  -5  11   57.44    4.35
   0  -5  11   58.99    4.78
   0   5 -11   20.76    1.55
   0   5 -11   51.74    3.53
   3  11   6   87.54    6.77
   3  11   6   97.40    6.39
  -3 -11  -6   99.26    6.91
   3  11   6   96.00    7.09
   3  11   6   93.92    6.34
   3  11   6   81.89    5.90
   3  11   6   91.43    6.13
  -5   4   9   77.31    5.65
  -5   4   9   87.24    5.90
   5  -4  -9   83.97    6.29
   5  -4  -9   85.26    5.78
  -5   4   9   81.50    5.37
  -3   8   9   35.69    2.99
   3  -8  -9   34.26    2.90
   3  -8  -9   31.92    3.58
  -3   8   9   29.53    2.69
  -3   8   9   33.73    3.24
   3   2  14   24.24    3.08
   3   2  14   25.02    2.43
  -3  -2 -14   24.73    2.89
  -3  -2 -14   25.58    3.31
   3   2  14   21.53    2.66
  -2   9   9    6.38    2.36
   2  -9  -9    0.36    3.06
  -2   9   9    3.52    1.98
  -2  10   7    2.36    1.12
   2 -10  -7    3.23    2.29
  -2  10   7   -0.07    2.24
   2 -10  -7    2.54    0.79
  -2  10   7    5.29    2.13
   7  -1   9   26.85    3.30
  -7   1  -9   23.92    3.35
  -7   1  -9   27.74    2.50
  -7   1  -9   30.16    3.62
  -2  -8   7    1.16    1.72
  -2  -8   7   -0.08    2.64
   2   8  -7    1.72    2.48
   2   8  -7    2.74    1.76
   2   8  -7    3.64    2.09
   5  10   3  198.85   12.81
   5  10   3  204.44   12.57
   5  10   3  210.31   12.61
   5  10   3  216.44   12.42
   5  10   3  196.65   12.68
   5  10   3  178.82   12.58
   5  10   3  198.97   12.52
   5  10   3  191.57   12.44
  -1 -10   4  148.17    8.54
  -1 -10   4  116.17    7.72
   1  10  -4  135.47    8.32
   1  10  -4  129.86    8.85
   1  10  -4  142.95    9.08
   5  10   5  294.21   17.72
   5  10   5  281.93   18.05
  -5 -10  -5  289.03   17.76
   5  10   5  288.79   17.79
   5  10   5  272.29   17.69
   5  10   5  297.83   17.66
   5  10   5  305.38   17.79
   5  10   5  278.89   17.72
  -8   2  -4   27.97    3.01
   8  -2   4   27.91    2.87
  -8   2  -4   20.40    2.74
  -8   2  -4   24.82    3.15
  -8   2  -4   24.45    2.44
  -6   5  -7   72.81    5.30
  -6   5  -7   64.94    4.82
  -6   5  -7   68.66    5.22
  -6   5  -7   80.12    5.47
   8   3   7   57.03    4.55
  -8  -3  -7   61.31    5.12
   8   3   7   54.64    4.42
   8   1   7   -1.11    2.26
  -8  -1  -7   -1.05    2.57
   8   1   7   -0.69    2.35
  -5   1 -12   10.11    2.65
   5  -1  12    6.54    2.37
  -5   1 -12    7.28    1.56
  -5   1 -12   10.27    2.34
  -3  -8 -12   12.64    2.47
   3   8  12   11.05    2.92
   3   8  12   13.55    2.99
  -3  -8 -12    9.14    2.80
  -2   6 -10    8.08    1.82
   2  -6  10    7.38    2.71
  -2   6 -10   13.70    2.70
  -2   6 -10   13.44    2.43
   6  -7  -2   39.95    3.52
  -3   3  12  104.67    6.62
   3  -3 -12  113.94    7.24
  -3   3  12   89.76    6.37
   3  -3 -12  110.29    7.31
  -3   3  12  104.98    6.70
   4  -1 -11   68.63    4.84
   4  -1 -11   85.46    5.34
  -4   1  11   79.06    3.88
  -4   1  11   74.64    4.54
   6   9   5   67.08    4.95
   6   9   5   50.63    4.95
   6   9   5   68.80    4.58
   6   9   5   56.10    5.24
   6   9   5   57.51    4.78
   6   9   5   58.32    4.67
   8   5   4    2.65    1.45
   8   5   4   -0.04    1.83
  -8  -5  -4    0.66    1.40
  -8  -5  -4    1.40    1.93
   8   5   4   -0.58    2.39
  -8  -5  -4    1.01    2.54
  -4   2  11   45.17    3.90
   4  -2 -11   52.86    4.05
  -4   2  11   49.14    3.53
   6   9   3   86.20    5.85
   6   9   3   80.76    6.16
   6   9   3   85.76    6.29
   6   9   3   86.87    6.01
   6   9   3   79.47    5.81
   6   9   3   83.89    5.93
  -1  -9   6   41.01    3.17
   1   9  -6   48.72    4.28
   1   9  -6   45.16    4.03
   1   9  -6   52.18    4.16
  -1  -9   6   45.06    4.10
  -1  -1  13   68.45    5.04
  -1  -1  13   64.14    4.86
  -1  -1  13   78.81    5.38
   1   1 -13   64.07    4.63
   5   2  -9   84.61    5.68
  -5  -2   9   70.23    4.77
   5   2  -9   69.48    5.67
  -8  -5  -3   52.09    4.54
   8   5   3   51.56    3.79
  -8  -5  -3   52.08    3.64
   8   5   3   48.46    4.34
   8   5   3   55.30    3.82
  -8  -5  -3   52.35    4.01
   6   8  -1  171.51   11.55
   6   8  -1  169.14   11.86
   6   8  -1  180.10   11.53
   6   8  -1  207.11   11.59
  -2  -7 -13   10.17    2.38
  -2  -7 -13    8.81    2.83
  -2  -7 -13    7.25    2.37
   2   7  13    9.72    3.14
   2   7  13    5.01    2.52
  -2  -7 -13    9.09    2.40
   2   7  13    8.35    2.90
  -2   5 -11   14.30    1.99
  -2   5 -11   14.03    2.85
   2  -5  11   17.23    2.97
  -2   5 -11   16.44    2.56
  -6   7  -2  101.68    7.19
  -6   7  -2  103.45    7.13
   6  -7   2   95.54    6.08
   6  -7   2  110.84    6.64
  -5   8  -3   64.04    5.41
  -5   8  -3   78.82    5.58
  -5   8  -3   67.84    4.85
   5  -8   3   71.05    5.14
  -5  -7   5    0.68    2.11
   5   7  -5    1.34    1.06
   5   7  -5   -0.54    1.59
   5   7  -5    1.07    2.48
   5   7  -5    0.97    0.90
   5   7  -5    1.17    1.45
  -8   0   2   40.49    2.68
  -8   0   2   31.67    2.51
  -8   0   2   48.86    2.64
  -8   0   2   56.10    3.82
   8   0  -2   55.45    4.24
   7   7   7   85.42    6.17
   7   7   7   95.52    5.63
   7   7   7   76.94    5.41
  -7  -7  -7   98.54    6.43
  -7  -7  -7   89.55    6.91
  -7  -7  -7   89.21    6.21
   7   7   7   95.46    6.27
   7   7   7   82.95    6.38
  -8  -1   2   -0.60    1.30
   8   1  -2    0.30    1.97
   8   1  -2   -0.75    1.11
  -8  -1   2    2.11    2.19
  -8  -1   2    0.81    1.97
  -8  -1   2   -1.50    2.38
  -8  -3   1    3.97    1.49
   8   3  -1    2.88    2.19
  -8  -3   1    3.47    2.20
  -8  -3   1    5.28    2.11
   8   3  -1    1.34    0.50
   7   1  10   22.29    2.59
  -7  -1 -10   23.85    3.42
  -7  -1 -10   24.86    3.52
   7   1  10   20.65    3.11
   3  11   1  104.35    7.09
   3  11   1   91.61    7.53
   3  11   1  109.28    6.85
   3  11   1  106.91    7.39
   3  11   1  108.84    7.52
   3  11   1  108.87    7.25
   3  11   1  111.80    7.29
  -6   4   7    3.80    1.95
   6  -4  -7    2.56    2.59
  -6   4   7    6.14    1.56
  -6   4   7    3.99    1.04
   0   2  14   76.69    5.00
   0   2  14   71.63    5.52
   0  -2 -14   76.86    5.15
   0   2  14   86.96    5.54
   0  -2 -14   64.37    4.82
  -7   5   2   12.14    2.32
   7  -5  -2    7.39    1.89
  -4   9   5   62.90    4.35
   4  -9  -5   77.48    5.64
  -4   9   5   88.91    5.27
  -1  10  -4    7.17    2.55
   1 -10   4    4.24    2.65
  -1  10  -4    3.62    2.26
   0   3  14   77.37    4.89
   0   3  14   66.69    5.01
   0  -3 -14   74.51    5.15
   0   3  14   70.31    5.35
   0  -3 -14   65.79    4.88
   3   4  14   38.64    3.35
  -3  -4 -14   28.91    3.09
   3   4  14   41.75    3.84
   3   4  14   34.59    3.09
  -3  -4 -14   30.69    3.20
   6   7  -3   49.00    3.76
   6   7  -3   60.99    3.73
   6   7  -3   84.06    4.52
   6   7  -3   70.24    4.81
  -6  -7   3   79.05    5.70
   6   7  -3   78.29    5.33
   6   7  -3   77.58    4.77
   0   2 -13    3.34    2.81
   0  -2  13   -2.53    2.41
   0  -2  13    2.96    1.94
   0  -2  13   -0.60    1.97
   0  -2  13    0.10    0.48
  -6  -7 -10   90.61    6.00
   6   7  10   70.28    5.30
  -6  -7 -10   79.65    5.50
  -6  -7 -10   80.97    5.77
   6   7  10   84.82    5.68
   6   7  10   75.24    6.05
   6   7  10   88.58    6.08
   4  10  -1   80.57    5.68
   4  10  -1   90.58    5.68
   4  10  -1   72.46    5.63
   4  10  -1   89.70    5.66
   4  10  -1   91.83    5.98
   4  10  -1   85.89    6.33
   4  10  -1   94.86    6.20
   4  10  -1   77.38    6.20
  -2  -4  11   39.08    3.31
  -2  -4  11   39.06    3.53
   2   4 -11   40.09    3.55
  -2  -4  11   40.74    3.97
   2   4 -11   35.83    3.51
  -3  -9 -11   85.72    6.09
   3   9  11   85.22    6.62
  -3  -9 -11   80.86    6.24
   3   9  11   92.87    6.67
  -3  -9 -11   87.11    6.12
   7   4  10   79.69    5.68
  -7  -4 -10   69.35    4.55
   7   4  10   86.74    5.58
  -7  -4 -10   78.74    5.75
   7   4  10   73.54    5.25
   8   4   0   19.45    2.87
  -8  -4   0   21.11    2.18
  -8  -4   0   15.36    2.76
  -8  -4   0   18.60    2.63
   8   4   0   17.64    2.28
   1   7  13   59.36    5.03
   1   7  13   51.48    4.65
   1   7  13   60.84    5.13
  -1  -7 -13   63.59    4.82
  -1  -7 -13   57.90    4.62
  -1  -7 -13   59.16    5.00
  -2   2  13   67.12    4.45
  -2   2  13   77.95    4.98
   2  -2 -13   69.01    5.40
   2  -2 -13   87.04    5.40
   5   9   9    3.11    3.19
   5   9   9    1.41    1.90
  -5  -9  -9    1.10    2.08
  -5  -9  -9    2.13    1.97
  -7  -5   3    1.67    2.41
   7   5  -3    2.00    2.11
   7   5  -3   -0.58    2.12
  -7  -5   3   -1.19    1.89
   7   5  -3    1.84    1.70
  -7  -5   3    0.51    2.06
  -6   1   8   78.73    5.32
   6  -1  -8   79.15    5.77
  -6   1   8   68.94    4.88
   8   5   5    3.77    1.37
  -8  -5  -5    4.46    2.02
  -8  -5  -5    3.34    1.59
   8   5   5    7.44    2.05
  -8  -5  -5    6.10    2.74
   8   5   5    3.07    2.49
   5   3  13   33.62    3.12
   5   3  13   34.23    3.34
  -5  -3 -13   26.06    2.52
  -5  -3 -13   29.45    3.18
   5   3  13   36.82    3.54
   2  -6 -12   -1.13    2.08
  -2   6  12   -0.60    2.58
  -2   6  12   -0.17    2.66
  -6   6   5   66.52    4.77
  -6   6   5   70.58    4.86
   6  -6  -5   62.82    4.66
  -7  -4   4   10.17    2.03
   7   4  -4    8.80    2.12
  -7  -4   4   11.12    2.17
   7   4  -4   11.55    3.04
  -7  -4   4    8.26    2.56
  -4   5 -10  111.72    7.33
   4  -5  10  108.06    7.45
  -4   5 -10  104.56    6.83
  -4   5 -10   93.84    6.80
  -5  -4   8   65.58    4.29
   5   4  -8   71.17    5.35
  -5  -4   8   58.06    4.21
  -5  -4   8   69.65    4.90
   5   4  -8   71.85    5.42
   0 -11  -7    4.61    2.41
   0  11   7    1.09    2.10
   1  -4  12   60.63    4.70
   1  -4  12   65.79    5.04
  -1   4 -12   58.32    4.40
  -1   4 -12   42.24    3.23
   3   0 -12   46.15    3.76
   3   0 -12   48.06    4.32
  -3   0  12   49.47    3.61
   3   0 -12   41.50    3.35
   8   5   2   88.07    6.45
  -8  -5  -2  105.97    7.01
   8   5   2   92.27    6.10
  -8  -5  -2   90.49    6.12
  -8  -5  -2  109.01    6.53
   8   5   2   95.27    5.94
  -4  -6 -13  100.64    6.78
   4   6  13  103.19    7.18
  -4  -6 -13   96.08    6.61
  -2  -5 -14   33.47    3.40
   2   5  14   40.99    3.48
   2   5  14   39.86    3.91
  -2  -5 -14   41.66    3.57
   2   5  14   34.91    2.84
  -7   4   4   71.56    5.01
  -7   4   4   72.17    5.03
  -7   4   4   73.34    4.89
  -7   4   4   64.20    4.70
  -5   4 -10   36.56    3.57
  -5   4 -10   39.73    3.06
   5  10   2    3.95    2.63
   5  10   2    2.70    1.99
   5  10   2    2.45    2.12
   5  10   2    1.68    2.50
   5  10   2    3.23    1.93
   5  10   2    5.79    2.28
   5  10   2   -1.44    2.68
   5  10   2    3.58    1.64
  -8   2   1   23.61    2.52
   8  -2  -1   28.11    2.75
  -8   2   1   27.46    3.19
   6   0  -8   49.57    4.26
  -6   0   8   39.94    3.57
  -6   0   8   36.97    2.85
  -3   6  11   32.00    3.14
   3  -6 -11   35.87    3.95
   3  -6 -11   31.81    2.40
  -3   6  11   40.07    3.89
  -3   6  11   38.80    3.24
   5   2  13  126.89    8.90
  -5  -2 -13  111.23    7.32
   5   2  13  143.05    9.14
  -5  -2 -13  137.61    8.33
   5   2  13  146.84    8.82
  -7   4  -6  176.41   10.79
  -7   4  -6  175.65   10.98
   7  -4   6  197.06   12.19
  -7   4  -6  155.06   10.61
  -7   4  -6  177.02   10.98
  -8   1  -6    0.61    2.48
  -8   1  -6    1.53    0.61
  -8   1  -6   -1.33    2.25
   8  -1   6    0.13    2.15
   5  10   6  197.87   13.03
   5  10   6  217.21   13.04
   5  10   6  216.29   13.04
  -5 -10  -6  203.77   12.80
   5  10   6  216.35   13.50
   5  10   6  199.02   13.08
   3 -10  -5   37.45    3.07
   3 -10  -5   44.00    3.86
  -3  10   5   20.35    1.47
  -3  10   5   36.33    3.09
   6   3  -7   68.17    5.17
  -6  -3   7   53.76    3.91
  -6  -3   7   60.50    4.14
  -6  -3   7   59.34    3.85
   6   3  -7   61.05    4.87
   4   0 -11  103.30    6.03
   4   0 -11   76.98    5.37
  -4   0  11   86.71    6.15
  -4   0  11   87.05    5.55
   6   9   6  123.98    8.22
   6   9   6  131.43    7.78
   6   9   6  124.93    8.44
   6   9   6  113.58    7.96
  -6  -9  -6  130.86    8.45
   6   9   6  102.78    7.88
   6   9   6  116.35    7.99
   3   1  14   64.20    4.92
  -3  -1 -14   73.99    5.94
   3   1  14   64.30    4.64
   3   1  14   71.86    5.23
  -3  -1 -14   62.90    5.39
  -3  -1 -14   72.77    5.35
   3   1  14   62.92    5.12
   3   1  14   74.06    4.66
   4  -3 -11   -0.35    1.77
  -4   3  11    0.06    2.00
  -4   3  11    1.86    1.84
   6   9   2  155.79    9.79
   6   9   2  164.64    9.50
   6   9   2  178.20    9.87
   6   9   2  157.39    9.57
   6   9   2  140.62    9.40
   6   9   2  130.38    8.92
   6   9   2  156.58    9.59
   0  -8 -12   11.41    2.99
   0  -8 -12   11.90    2.54
   0  -8 -12   11.94    2.52
   0   8  12    8.04    3.27
   0   8  12   11.79    2.87
   6  -1  11   24.78    3.25
  -6   1 -11   27.69    3.32
  -6   1 -11   23.45    3.54
  -6   1 -11   21.60    2.65
   4  -9   3   85.94    6.00
   4  -9   3   83.19    6.18
  -4   9  -3   72.20    6.31
  -4   9  -3   96.21    6.01
   2  -3 -13  111.41    7.48
   2  -3 -13  114.72    7.25
  -2   3  13  107.12    6.80
  -2   3  13   97.16    6.46
   4  -4  11    4.17    2.37
  -4   4 -11    2.53    2.66
  -4   4 -11    0.68    2.08
  -4   4 -11    3.21    1.93
   2  -1 -13   19.93    2.40
  -2   1  13   12.24    2.06
   2  -1 -13   17.82    3.27
   2  -1 -13   13.65    2.24
   6   6  11   -1.65    2.63
   6   6  11    2.00    2.16
  -6  -6 -11   -1.58    2.99
   6   6  11    1.77    2.92
  -6  -6 -11    2.42    2.05
  -6  -6 -11    2.25    2.10
  -6  -6 -11    1.53    1.56
   8  -1  -2   89.73    6.06
  -8   1   2   70.88    4.93
  -8   1   2   89.13    5.66
  -2   7  -9    3.77    1.68
  -2   7  -9    0.48    2.25
  -2   7  -9    1.51    2.52
   0   1  14   71.02    4.98
   0  -1 -14   67.11    5.01
   0  -1 -14   63.79    4.72
   0   1  14   65.14    4.33
  -7   3   5   29.82    2.77
  -7   3   5   26.99    2.84
  -7   3   5   25.80    2.99
   7  -3  -5   27.32    3.10
  -7   3   5   22.34    2.14
  -7   3   5   23.86    2.37
  -6  -3 -12   39.59    2.72
   6   3  12   68.68    5.01
   6   3  12   62.10    4.99
   6   3  12   62.43    5.27
  -6  -3 -12   59.79    4.51
   6   3  12   71.17    4.82
   1   6 -10   20.37    2.75
  -1  -6  10   24.62    2.73
   1   6 -10   19.57    2.97
  -1  -6  10   27.18    3.35
  -5   5  -9    2.21    2.22
  -5   5  -9    4.75    1.70
  -8  -2   2   21.99    2.11
   8   2  -2   26.49    2.69
  -8  -2   2   27.27    3.17
  -8  -2   2   24.12    2.75
   8   2  -2   16.01    1.64
  -8  -2   2   23.77    2.91
   0  -9 -11    2.59    2.87
   0  -9 -11    1.53    2.26
   0   9  11   -1.66    2.36
  -1  -5 -14    0.58    2.10
  -1  -5 -14   -0.54    1.96
   1   5  14   -2.15    2.71
   1   5  14    2.05    2.10
   1   0  14    0.57    2.05
   1   0  14    3.66    2.26
  -1   0 -14    1.53    2.67
   1   0  14    3.45    2.17
   2  10  10    5.74    3.20
  -2 -10 -10    3.72    2.36
  -2   0 -14   22.64    3.79
   2   0  14   23.00    2.06
  -2   0 -14   26.84    3.38
   2   0  14   21.17    2.85
   2   0  14   22.13    2.95
   6  -2  -8   84.61    6.01
  -6   2   8   60.70    4.24
  -6   2   8   71.33    4.95
  -6   2   8   76.89    4.75
  -6  -2 -12   94.37    4.81
   6   2  12   89.02    6.36
   6   2  12   86.25    6.30
   6   2  12   94.93    6.64
  -6  -2 -12  105.07    5.20
   6   2  12   95.84    6.14
   7  -5   4   27.55    2.29
  -7   5  -4   25.98    2.83
  -7   5  -4   23.25    2.81
   7  -5   4   25.40    2.43
  -7   5  -4   23.18    3.16
  -7   5  -4   24.16    3.13
  -1  11   6   26.45    3.09
  -1  11   6   22.31    2.85
   1 -11  -6   19.56    1.80
   8   4   7   77.99    5.92
  -8  -4  -7   75.77    6.13
   8   4   7   79.72    5.78
  -8  -4  -7   87.25    5.78
   8   4   7   87.99    6.02
  -8  -4  -7   77.27    5.47
   5   4  13   -0.44    1.97
   5   4  13    4.51    2.27
  -5  -4 -13   -1.33    2.26
  -5  -4 -13    0.39    2.84
  -5  -4 -13    2.09    1.61
   8   0   7   29.47    3.29
   8   0   7   28.02    3.12
  -8   0  -7   34.91    3.58
  -8   0  -7   26.72    3.16
  -5   7  -6   98.14    6.37
  -5   7  -6   97.93    6.95
  -5   7  -6   93.38    6.74
   5  -7   6   88.66    5.62
   3   7  13   52.62    4.33
   3   7  13   58.74    4.03
  -3  -7 -13   60.44    4.71
   3   7  13   57.63    4.07
  -3  -7 -13   59.81    4.79
  -3  -7 -13   62.61    5.05
   0   4  14    7.16    2.51
   0  -4 -14    8.12    2.08
   0   4  14   10.43    2.06
   0  -4 -14   10.48    2.32
  -1  11  -1   67.89    5.30
   1 -11   1   55.40    4.51
   1 -11   1   50.25    4.42
  -1 -10 -10    6.96    2.54
   1  10  10    3.99    2.16
   1  10  10   -0.38    2.84
   1  10  10    6.42    2.48
  -1 -10 -10    0.26    2.80
   2  11  -1    6.38    2.60
   2  11  -1    7.82    2.12
  -2 -11   1    4.93    2.50
   0   8  -8   42.44    3.99
   0  -8   8   46.25    4.11
   0   8  -8   41.65    3.87
   0  -8   8   38.69    3.16
   0   8  -8   45.67    3.92
   1   7  -9    0.69    1.15
   1   7  -9    1.19    0.91
   1   7  -9    0.89    2.17
   1   7  -9   -0.93    2.42
  -1  -7   9    0.05    1.82
   7   7   0    6.52    2.26
   7   7   0    1.86    2.06
   7   7   0    2.18    2.33
   7   7   0   -1.18    2.96
   7   7   0    4.91    1.29
  -4  -3  10    8.11    1.76
  -4  -3  10    4.54    2.30
   4   3 -10    7.31    2.37
   4   3 -10    7.54    2.64
  -4  -3  10    5.31    1.25
   4   3 -10    2.90    1.06
  -2   4 -12   49.80    4.10
   2  -4  12   53.39    4.42
  -2   4 -12   47.85    3.81
  -2   4 -12   53.36    4.57
   2  -4  12   48.36    4.09
   7   6   9    6.37    2.80
  -7  -6  -9    3.66    2.25
   7   6   9    3.23    2.15
  -7  -6  -9    4.45    1.99
   6  -7  -3   -0.51    2.15
   3  11   7    3.60    2.40
   3  11   7    4.87    1.68
   3  11   7    5.53    2.11
  -3 -11  -7    7.81    2.53
   3  11   7    2.35    2.30
   3  11   7    3.75    3.34
  -2  11   2   48.14    4.02
   2 -11  -2   47.53    3.80
   2 -11  -2   41.22    4.13
  -2  11   2   40.98    4.49
  -3   9  -5    8.24    2.41
   3  -9   5    3.44    2.61
  -3   9  -5    4.41    2.90
  -4   6  -9   63.34    5.39
  -4   6  -9   67.56    5.17
  -4   6  -9   71.57    5.59
   1  -8   8  125.77    7.60
   1  -8   8   99.83    6.69
  -1   8  -8  106.85    7.09
  -1   8  -8   99.67    7.08
  -1   8  -8   97.79    7.05
  -3   8  -7   27.50    2.12
   3  -8   7   29.23    2.23
  -3   8  -7   26.71    3.41
   3  -8   7   33.29    3.54
  -3  -3  11   46.95    3.22
   3   3 -11   47.72    4.28
   3   3 -11   42.79    3.31
   3   3 -11   48.36    3.93
  -3  -3  11   48.28    3.65
   3  -4 -12   11.16    1.87
  -3   4  12   13.49    2.30
   3  -4 -12   10.39    2.13
  -3   4  12   10.24    2.41
   6   8   9  141.69    7.93
  -6  -8  -9  133.03    8.60
  -6  -8  -9  139.10    8.89
   6   8   9   95.12    7.06
  -6  -8  -9  133.21    8.77
   4  -1  13   45.75    4.22
  -4   1 -13   52.37    4.34
   4  -1  13   48.87    4.07
  -4   1 -13   52.10    4.38
  -4   1 -13   51.56    4.78
   4  -1  13   52.32    4.18
   3  -2  13   45.50    4.10
  -3   2 -13   46.31    4.04
  -3   2 -13   52.09    4.49
  -3   2 -13   55.14    4.84
   3  -2  13   48.98    4.11
   8  -2   5   44.85    3.76
  -8   2  -5   43.38    3.69
  -8   2  -5   29.83    3.25
  -5   3 -11   81.28    5.65
  -5   3 -11   74.33    5.12
   0   4 -12   47.04    4.33
   0  -4  12   48.45    3.99
   0  -4  12   54.27    4.42
  -3  10  -2   27.76    3.19
   3 -10   2   21.12    3.09
   3 -10   2   23.41    2.95
   2 -11  -3   70.48    5.26
  -2  11   3   86.36    6.00
  -2  11   3   85.39    5.96
   2 -11  -3   86.19    5.89
  -2  11   3   74.42    6.47
   7   6  -2   -1.86    2.99
   7   6  -2   -0.36    1.77
  -7  -6   2    2.86    2.37
  -7  -6   2    3.82    2.33
   7   6  -2    0.19    2.20
   7   6  -2    4.58    2.31
  -6   7  -3   91.06    6.82
   6  -7   3   87.56    5.67
   6  -7   3  104.78    6.20
  -6   7  -3  106.10    6.94
  -6   7  -3   92.97    6.69
   8  -3   2    6.41    1.47
  -8   3  -2   14.44    2.40
  -8   3  -2    8.16    1.90
   8  -3   2    8.05    1.93
  -8   3  -2   11.65    2.65
  -8  -5  -6   14.39    2.04
  -8  -5  -6   18.05    2.52
   8   5   6   17.29    2.91
  -8  -5  -6   14.41    3.09
   8   5   6   12.78    2.46
   8   5   6   14.85    1.54
  -8   3  -1   11.07    2.26
   8  -3   1    8.01    1.68
   8  -3   1    9.29    1.97
  -8   3  -1   11.67    2.77
  -8   3  -1   11.59    1.89
   2  -9   6   13.21    1.29
   2  -9   6   20.66    3.11
  -2   9  -6   19.18    2.84
  -2   9  -6   18.21    2.75
  -2   9  -6   14.66    2.97
  -5   6   8    0.47    1.80
  -5   6   8    0.10    1.76
  -5   6   8    1.55    1.48
  -5   6   8    0.70    2.39
   5  -6  -8   -1.62    2.78
   6   4  12   26.24    3.26
   6   4  12   27.60    3.66
   6   4  12   30.19    2.97
  -6  -4 -12   20.61    1.94
  -6  -4 -12   27.86    3.71
  -6  -4 -12   31.33    3.02
   6   4  12   36.15    3.25
  -3  -9   5   17.11    2.99
   3   9  -5   15.83    2.41
   3   9  -5   15.88    2.44
  -3  -9   5   16.37    2.21
   3   9  -5   24.43    3.22
   3   9  -5   17.70    2.46
  -3 -10   3   49.88    4.40
   3  10  -3   47.71    4.08
   3  10  -3   52.18    4.41
   3  10  -3   64.35    4.71
   3  10  -3   51.05    3.69
   3  10  -3   54.65    3.88
   5   1  13   69.91    5.38
  -5  -1 -13   67.09    5.18
  -5  -1 -13   73.74    5.59
   5   1  13   73.78    4.93
  -7  -3   5   73.71    5.02
   7   3  -5   89.51    6.66
  -7  -3   5   70.02    4.96
   2 -11  -1   18.44    2.75
  -2  11   1   18.14    3.57
  -2  11   1   22.02    2.90
   2 -11  -1   18.27    2.90
   7   0  10    5.74    2.72
  -7   0 -10    4.51    2.82
  -7   0 -10    5.67    1.87
  -7   0 -10    6.00    2.75
   8   5   1   63.73    4.13
  -8  -5  -1   56.03    5.01
  -8  -5  -1   68.23    4.56
   8   5   1   63.05    4.46
   6   1  -8    7.74    2.56
  -6  -1   8    6.41    2.29
  -6  -1   8    3.95    1.44
   1  11   8  106.95    7.30
  -1 -11  -8  111.07    7.71
   3   5  14   61.76    4.57
   3   5  14   54.46    4.04
  -3  -5 -14   62.92    4.71
   3   5  14   58.90    4.91
  -3  -5 -14   62.12    4.92
  -3  -5 -14   64.96    4.84
  -7   0   6   60.28    4.54
   7   0  -6   64.39    5.20
  -7   0   6   50.79    4.01
  -1  -5  11   27.21    2.86
   1   5 -11   22.34    2.96
  -1  -5  11   24.78    3.31
  -1  -5  11   25.07    2.73
   5   9  -2    0.18    2.04
   5   9  -2    0.83    2.34
   5   9  -2    3.94    1.49
   5   9  -2    0.70    1.53
   5   9  -2    3.15    1.98
   5   9  -2   -4.17    2.92
   5   9  -2    1.90    2.48
  -3   9   8    9.86    2.50
  -3   9   8    7.09    1.50
   3  -9  -8    6.81    2.35
  -3   9   8    5.91    2.12
   3  -9  -8    6.17    1.00
   2  11   8   63.38    4.79
   2  11   8   56.08    4.73
  -2 -11  -8   61.78    4.97
   5  -8  -5   36.06    3.44
  -5   8   5   35.42    3.23
  -5   8   5   29.73    2.58
   3  11   0   93.91    6.85
   3  11   0  109.01    6.75
   3  11   0   86.41    6.92
   3  11   0  100.06    7.21
   3  11   0  104.26    7.06
   3  11   0  104.76    6.48
   2  10  -4   53.64    4.61
  -2 -10   4   52.32    3.81
  -2 -10   4   52.54    4.60
   2  10  -4   59.47    4.93
   2  10  -4   52.31    4.52
   2  10  -4   61.94    4.92
   2  10  -4   62.46    3.93
  -7   1   6   22.30    2.92
  -7   1   6   21.87    2.57
   4  -7  -9   10.24    3.06
  -4   7   9    6.80    2.76
  -4   7   9   13.60    2.33
   4  -7  -9   10.07    2.20
  -4   7   9   12.16    1.95
   4  -7  -9    9.93    1.67
  -4   7   9    9.77    1.91
   4  11   4   52.19    4.95
   4  11   4   59.12    4.74
  -4 -11  -4   57.90    4.62
   4  11   4   60.88    4.49
   4  11   4   50.91    5.18
   4  11   4   61.98    4.78
   4  11   4   60.30    4.53
   4  11   4   59.49    4.62
   1 -10  -9   35.94    3.62
  -1  10   9   48.50    4.11
  -1  10   9   44.79    3.91
  -7   5   3   16.63    2.44
   7  -5  -3   16.38    2.36
  -6  -1 -12   17.34    2.58
   6   1  12   15.72    2.68
   6   1  12   19.01    3.12
  -6  -1 -12   24.34    3.65
  -6  -1 -12   15.19    3.03
   5  10   1    3.01    1.98
   5  10   1    1.30    2.51
   5  10   1    0.93    1.89
   5  10   1    0.07    2.33
   5  10   1   -0.07    2.09
   5  10   1    3.75    2.61
   5  10   1    0.39    1.59
   0  11  -2   58.38    4.85
   0 -11   2   54.50    4.60
  -4 -10  -9   65.13    5.12
   4  10   9   54.60    3.85
  -4 -10  -9   66.63    4.96
   2  -4 -13   81.44    5.75
  -2   4  13   74.90    5.26
  -2   4  13   76.36    5.52
   7   5  10   14.81    2.89
  -7  -5 -10   16.42    3.40
  -7  -5 -10   10.50    1.92
   7   5  10   12.17    2.35
   7   5  10   15.86    3.06
  -7  -5 -10   14.59    2.37
   7   5  10   12.70    2.16
  -7  -5 -10   10.14    2.44
  -4   8  -6   93.71    6.08
  -4   8  -6   79.39    6.23
   4  -8   6   85.63    6.29
  -8   3  -3   14.83    2.14
   8  -3   3   10.48    1.37
   8  -3   3   15.43    2.17
  -8   3  -3   14.10    2.43
  -8   3  -3   16.11    2.85
  -8   3  -3   20.73    2.72
   8   2   8   49.00    3.85
   8   2   8   33.14    3.79
  -8  -2  -8   45.72    4.43
  -5   1  10    0.86    1.19
  -5   1  10    0.85    2.22
   5  -1 -10    1.53    2.15
  -5   1  10    1.12    0.98
   1  -6 -13   42.66    3.82
  -1   6  13   39.46    4.19
  -1   6  13   41.38    3.83
  -5 -10  -7  155.81   10.17
   5  10   7  150.87    9.16
   5  10   7  140.67    9.12
   5  10   7  141.10    9.71
   5  10   7  134.73    9.22
  -5 -10  -7  160.42   10.16
  -8   3   0   16.27    2.44
   8  -3   0   13.31    1.95
   8  -3   0   19.55    2.21
  -8   3   0   16.38    2.87
  -8   3   0   20.63    2.11
   5   8  -4    0.86    2.06
   5   8  -4    0.38    1.46
  -5  -8   4    0.94    2.07
   5   8  -4    3.19    2.62
   5   8  -4   -0.53    1.25
   5   8  -4   -1.00    1.85
   5   8  -4   -1.67    2.85
   5   8  -4    1.19    1.85
  -2   0  13   12.27    2.02
   2   0 -13   13.09    2.36
   2   0 -13   11.37    2.12
   2   0 -13   11.33    1.43
   2   0 -13   14.06    3.06
  -6  -9  -7   15.30    2.44
  -6  -9  -7   16.14    2.41
   6   9   7   13.69    2.82
   6   9   7   14.06    2.75
   6   9   7   20.71    3.53
   6   9   7   14.71    3.41
   6   9   7   21.34    2.81
   6   9   7   20.26    2.43
   2 -11  -4   73.32    5.30
  -2  11   4   97.72    6.63
   2 -11  -4   90.70    6.02
  -2  11   4   88.44    7.08
   7   7   8   65.38    5.17
  -7  -7  -8   71.23    4.98
  -7  -7  -8   67.91    5.74
   7   7   8   67.99    5.07
   7   7   8   52.92    4.00
  -7  -7  -8   67.22    5.15
   7   7   8   66.87    4.87
   6   9   1  170.88   10.69
   6   9   1  161.49   10.23
   6   9   1  169.79   11.11
   6   9   1  182.94   10.89
   6   9   1  179.51   11.00
   6   9   1  174.21   10.89
  -1 -11   2   86.79    6.24
   1  11  -2   84.79    6.18
   4  11   3   51.69    3.96
   4  11   3   50.55    4.61
   4  11   3   51.73    4.23
   4  11   3   42.70    4.16
   4  11   3   50.22    4.28
   4  11   3   52.09    3.98
  -4 -11  -3   52.32    4.36
   4  11   3   45.82    4.61
  -5   7   7   56.45    4.05
   5  -7  -7   66.55    4.99
  -5   7   7   46.70    3.68
   5  -7  -7   48.75    4.26
   4  -3  12    0.86    2.32
  -4   3 -12    0.25    1.79
  -4   3 -12   -2.99    2.86
  -4   3 -12    0.07    2.23
   4  -3  12    0.85    2.34
   7   8   4   16.49    2.50
   7   8   4    5.79    2.31
   7   8   4    8.59    2.66
   7   8   4   10.25    2.15
   7   8   4    6.48    2.63
  -7  -8  -4   10.86    1.93
   7   8   4   14.89    3.00
   4  11   5    2.02    2.19
   4  11   5    1.03    2.34
   4  11   5    3.17    2.28
   4  11   5    3.35    2.38
   4  11   5   -0.08    3.02
   4  11   5    3.85    2.32
  -4 -11  -5    0.45    2.17
   4  11   5    2.63    3.25
   0  -7 -13   82.61    6.30
   0   7  13   95.53    6.78
   0   7  13   93.43    6.98
   0   7  13   93.92    7.05
   0  -7 -13  101.11    6.54
   0  -7 -13   91.07    6.69
  -5   2  10   38.03    2.88
   5  -2 -10   39.46    3.47
  -5   2  10   39.03    3.53
  -5   8  -4  133.84    9.25
  -5   8  -4  123.33    9.05
   5  -8   4  141.46    9.06
  -5   8  -4  148.17    8.75
   8   3   8   84.72    6.13
   8   3   8   86.81    6.17
   4   1 -11   62.40    4.41
   4   1 -11   71.22    5.48
  -4  -1  11   68.97    4.50
   3  10  10  124.21    8.33
  -3 -10 -10  139.60    9.42
  -3 -10 -10  146.98    9.43
   3  10  10  125.61    8.85
  -6   6  -6   20.76    2.31
  -6   6  -6   15.70    3.07
  -6   6  -6   23.25    2.94
   6  -6   6   23.41    2.24
  -6   6  -6   20.40    2.85
   5   8  11   76.33    5.76
  -5  -8 -11   86.80    5.90
   5   8  11   80.11    6.22
  -5  -8 -11   83.53    5.67
  -5  -8 -11   72.04    5.90
  -5  -8 -11   83.64    5.91
   5   8  11   88.78    6.33
  -5   6  -8   84.13    6.19
  -5   6  -8   85.11    5.74
  -5   6  -8   85.69    6.36
  -5   6  -8   98.44    5.93
   3   1 -12   -0.20    1.60
   3   1 -12   -0.70    2.11
  -3  -1  12   -0.85    2.18
  -3  -1  12    1.07    1.58
   3   1 -12   -0.43    2.70
  -2  -9   6   62.22    4.83
   2   9  -6   53.52    4.21
   2   9  -6   55.10    4.35
  -2  -9   6   50.70    3.94
   2   9  -6   55.56    4.45
   2   9  -6   53.60    4.69
   2   9  -6   63.59    4.81
  -4   4  11   39.27    3.40
   4  -4 -11   40.18    3.26
  -4   4  11   30.29    3.14
   4   3  14   18.91    2.47
  -4  -3 -14   18.01    2.82
   4   3  14   22.50    3.20
  -4  -3 -14   22.19    3.40
   4   3  14   21.18    2.52
   4   3  14   20.07    2.57
  -7  -1   6  123.27    7.80
   7   1  -6  131.85    8.96
  -7  -1   6  108.43    7.32
   0   0 -14   16.27    2.50
   0   0 -14   17.88    3.18
   0   0  14   15.92    2.41
   0   0  14   18.52    2.78
  -6   3   8   53.94    4.26
   6  -3  -8   55.74    4.73
   6  -3  -8   55.18    4.38
  -3   5 -11   10.97    2.31
  -3   5 -11    8.98    2.06
   3  -5  11   10.29    2.70
  -3   5 -11    6.37    2.87
  -8   2   2   51.41    4.30
  -8   2   2   49.41    3.70
   8  -2  -2   47.02    3.67
   8   4  -1   12.87    2.25
  -8  -4   1    8.40    2.45
  -8  -4   1   15.04    2.39
   7   8   5   36.39    3.60
   7   8   5   35.91    3.18
  -7  -8  -5   37.76    3.13
   7   8   5   29.85    3.42
   7   8   5   36.79    3.64
   7   8   5   39.07    3.74
   7   8   5   36.98    3.95
  -1  -8   8   43.82    4.33
   1   8  -8   45.36    4.08
   1   8  -8   52.12    4.31
  -1  -8   8   48.17    3.60
  -4  -9   4  101.41    6.79
   4   9  -4  102.20    6.87
   4   9  -4  113.41    7.72
   4   9  -4   97.44    6.96
   4   9  -4  120.21    7.16
   4   9  -4  110.88    7.12
   4   9  -4  112.02    7.58
   7   8   3    3.00    1.77
   7   8   3   -1.44    2.68
   7   8   3   -1.23    2.50
   7   8   3    1.64    2.00
   7   8   3    0.24    2.58
   7   8   3    2.18    1.99
   5   5  13    1.50    2.41
   5   5  13   -0.61    2.13
   5   5  13    2.61    2.86
  -5  -5 -13    2.15    2.26
  -5  -5 -13   -1.28    2.17
  -5  -5 -13    2.49    1.72
  -3  -6   9   60.16    4.88
  -3  -6   9   54.49    4.41
   3   6  -9   51.03    4.07
   3   6  -9   58.43    4.53
  -3   0 -14   83.56    6.61
  -3   0 -14   83.78    6.16
   3   0  14   81.91    5.90
   3   0  14   83.83    5.81
   3   0  14   79.98    5.24
   3   0  14   81.10    5.93
  -3   0 -14   80.70    6.04
   4  -6 -10   63.06    5.08
  -4   6  10   58.42    4.70
   4  -6 -10   52.02    3.80
  -4   6  10   62.27    4.22
  -5   5   9   44.27    3.96
   5  -5  -9   52.49    4.61
  -5   5   9   43.98    3.45
  -5   5   9   44.09    3.63
  -5   5   9   42.95    3.01
   5  -5  -9   44.25    3.66
   3  -6  10   15.58    2.96
  -3   6 -10   18.42    2.41
  -3   6 -10   23.87    2.82
  -3   6 -10   19.55    3.12
   4   6  -8   51.53    3.62
  -4  -6   8   56.31    4.40
   4   6  -8   57.30    4.50
   4   6  -8   47.16    3.52
   4  -9  -6   77.26    5.68
  -4   9   6   77.88    5.17
  -4   9   6   64.27    4.41
   4   8  12   -1.38    2.62
   4   8  12    3.73    2.77
  -4  -8 -12   -1.24    2.61
  -4  -8 -12    1.77    2.29
   4   8  12    0.57    3.04
  -4  -8 -12    3.65    2.17
  -4  -8 -12    1.45    2.34
   8   1   8   10.26    2.48
   8   1   8    4.75    2.60
  -8  -1  -8    9.56    2.83
  -8  -1  -8    6.32    2.99
  -2  11   0   -3.08    3.26
  -2  11   0   -0.22    2.42
   2 -11   0    2.31    2.34
   2 -11   0   -0.55    2.42
  -8  -3   2    5.22    2.62
  -8  -3   2    5.68    2.20
  -8  -3   2    8.47    2.19
   8   3  -2    7.19    2.28
   2 -10   4    5.13    2.85
  -2  10  -4   10.17    2.89
  -2  10  -4    7.55    2.55
  -2  10  -4    7.62    2.61
  -5   0  10   16.72    1.32
   5   0 -10   26.69    3.03
  -5   0  10   15.72    1.37
   4   2  14    1.94    2.55
   4   2  14   -0.05    1.98
  -4  -2 -14    1.92    2.71
   4   2  14    3.42    1.75
   4   2  14    1.70    1.77
   4   2  14    2.92    2.50
   8   0  -3   80.55    5.60
  -8   0   3   74.44    5.07
  -8   0   3   81.71    5.76
   8   0  -3   94.72    5.96
  -7   3  -8  111.37    8.25
  -7   3  -8  129.93    8.43
  -7   3  -8  124.91    7.98
   3   7  -8   31.81    3.47
  -3  -7   8   25.20    2.81
   3   7  -8   25.98    3.43
   3   7  -8   28.07    2.78
   5   7  12   21.74    3.60
  -5  -7 -12   22.86    3.13
  -5  -7 -12   23.78    3.04
   5   7  12   22.37    3.33
  -5  -7 -12   26.79    2.66
  -5  -7 -12   23.76    2.90
   5   7  12   23.76    2.89
  -6   4  -9   45.77    4.04
  -6   4  -9   43.02    3.02
  -6   4  -9   47.82    3.55
  -6   4  -9   48.98    4.35
   0  10  10   50.90    4.58
   0 -10 -10   67.55    5.42
   0  10  10   63.77    4.59
   0 -10 -10   61.01    5.01
  -3  10   6   39.77    2.84
   3 -10  -6   55.08    3.93
   3 -10  -6   63.50    4.71
  -3  10   6   61.37    4.08
   0   5  14   10.90    2.24
   0  -5 -14    8.77    2.39
   0   5  14    9.97    2.82
  -2  10   8   -0.61    2.01
  -2  10   8    2.06    2.43
  -5  -3   9   65.12    4.35
   5   3  -9   68.47    5.30
  -5  -3   9   58.41    4.28
   5   3  -9   68.27    5.26
  -5  -3   9   72.22    4.95
  -7   2   6   -1.34    1.98
  -7   2   6    1.67    2.13
  -7   2   6    0.86    0.95
   7  -2  -6    0.50    2.40
  -7   2   6    1.14    0.77
  -7   2  -9  103.08    7.23
  -7   2  -9  101.54    7.32
  -6   3 -10   60.26    4.62
  -6   3 -10   58.25    4.23
   6   8  -2   44.15    4.09
   6   8  -2   59.87    4.87
   6   8  -2   49.37    4.20
   6   8  -2   49.75    3.98
  -8  -1   3   27.23    3.13
   8   1  -3   24.18    2.62
  -8  -1   3   26.56    2.84
  -8  -1   3   27.57    2.70
   8   1  -3   17.83    2.17
  -4   8   8   10.48    1.80
   4  -8  -8   18.39    3.40
  -4   8   8   14.04    2.17
   4  -8  -8   13.05    2.55
  -4   8   8   12.65    2.44
  -1  -2  13   20.27    3.02
  -1  -2  13   16.86    2.36
   1   2 -13   17.25    3.12
  -1  -2  13   12.78    2.35
   4   7  -7    4.23    1.61
   4   7  -7    2.14    1.63
  -4  -7   7    5.52    2.15
   4   7  -7    3.60    0.84
   4   7  -7    7.42    2.82
  -2   8  -8   14.56    2.91
  -2   8  -8   15.99    2.83
   2  -8   8   15.87    3.14
  -2   8  -8   16.68    2.77
   2  -8   8   11.76    1.60
  -2  -6 -14   30.27    3.18
   2   6  14   29.73    3.43
  -2  -6 -14   31.47    3.27
   2   6  14   28.35    2.89
  -2  -6 -14   29.53    3.23
  -4  -4 -14   48.69    3.87
   4   4  14   62.13    4.51
   4   4  14   63.76    5.00
  -4  -4 -14   51.40    4.22
   4   4  14   52.27    4.18
   4  11   2   59.78    5.20
   4  11   2   52.71    5.26
   4  11   2   59.38    4.61
   4  11   2   63.53    4.66
   4  11   2   69.34    5.07
   4  11   2   73.03    5.09
   4  11   2   72.56    4.68
   4  11   2   54.61    4.83
   6   5  -6   43.63    3.79
   6   5  -6   42.23    4.19
  -6  -5   6   31.09    2.82
  -6  -5   6   38.17    3.49
  -6  -6   5   34.36    3.43
   6   6  -5   36.28    3.69
   4   9  11   53.73    4.62
  -4  -9 -11   62.44    4.89
   4   9  11   59.29    5.12
  -4  -9 -11   56.36    5.03
   4   9  11   62.16    4.84
   4   9  11   46.81    3.39
  -4  -9 -11   68.57    4.89
   1  -3  13   76.37    5.37
   1  -3  13   60.26    5.08
   1  -3  13   73.65    5.14
  -1   3 -13   43.60    3.30
  -1   3 -13   74.64    4.82
   6   5  12   43.50    3.93
   6   5  12   53.78    4.52
  -6  -5 -12   40.76    3.68
  -6  -5 -12   41.07    3.80
  -6  -5 -12   37.36    3.01
   6   5  12   45.98    4.15
  -6  -5 -12   50.47    4.58
  -6  -5 -12   40.47    3.66
   4  11   6   28.90    3.45
   4  11   6   30.27    3.20
   4  11   6   32.29    3.20
  -4 -11  -6   30.33    3.27
   4  11   6   32.89    4.20
   4  11   6   32.48    3.32
   4  11   6   34.40    3.39
  -8   3  -4   70.01    4.94
  -8   3  -4   68.24    5.14
   8  -3   4   25.77    1.82
  -8   3  -4   73.44    5.33
   8  -3   4   73.10    3.33
  -7   5  -5   33.86    3.79
  -7   5  -5   37.57    3.57
   7  -5   5   40.86    3.22
  -7   5  -5   41.25    3.89
  -7   5  -5   44.79    3.62
   0  11   8    4.90    2.44
   0 -11  -8    4.96    2.48
   0  11   8    2.10    2.28
   2   3 -12   33.85    3.74
  -2  -3  12   27.25    2.53
  -2  -3  12   31.62    3.28
  -2  -3  12   28.34    2.81
   2   3 -12   27.62    3.16
   2   3 -12   29.92    3.35
  -8  -5  -7   25.57    2.85
   8   5   7   25.29    3.29
   8   5   7   19.61    2.93
  -8  -5  -7   23.85    3.56
  -8  -5  -7   18.62    2.44
   0 -10   5   19.21    3.12
   0  10  -5   15.37    2.87
   0  10  -5   15.42    2.64
   0  10  -5   14.24    2.82
   0 -10   5   14.81    1.71
  -8   1  -7   33.50    3.44
  -8   1  -7   22.44    1.87
   8  -1   7   36.70    3.45
  -8   1  -7   31.99    3.08
  -8   1  -7   21.22    1.86
  -8   1  -7   34.03    3.49
   4  10  -2   87.54    6.23
   4  10  -2  104.35    7.02
   4  10  -2   98.57    6.21
   4  10  -2   81.37    6.20
   4  10  -2   97.93    6.62
   4  10  -2   93.12    6.87
   4  10  -2  100.59    6.55
   4  10  -2  101.63    6.23
  -4   7  -8   65.44    5.47
  -4   7  -8   75.10    5.26
   4  -7   8   72.98    5.58
  -4   7  -8   80.51    5.00
  -4   7  -8   59.00    4.31
   6  -7  -4    1.22    2.06
  -6   7   4   -0.42    1.63
  -6   7   4    3.03    1.95
  -5   2 -12   25.91    2.41
   5  -2  12   34.37    3.43
  -5   2 -12   28.48    3.31
  -8   3   1    2.15    1.83
  -8   3   1    1.21    1.64
   8  -3  -1    2.53    1.59
   8  -3  -1    0.44    1.70
  -8   3   1    2.45    2.45
  -8  -6  -4   26.76    3.67
   8   6   4   27.51    2.70
   8   6   4   25.51    2.49
  -8  -6  -4   25.97    2.41
  -8  -6  -4   27.51    2.87
   8   6   4   22.26    3.35
   8   6   4   28.58    3.34
  -1   2  14    7.46    1.23
  -1   2  14   10.60    2.23
   1  -2 -14    9.05    1.87
   1  -2 -14   15.13    2.38
  -1  11   7   -1.91    2.45
  -1  11   7   -0.44    2.14
   7   8   6  115.71    7.86
   7   8   6  113.41    7.59
   7   8   6  109.00    7.15
  -7  -8  -6  102.91    7.11
   7   8   6  103.34    7.55
  -7  -8  -6  106.60    6.92
   4   5  -9   43.59    2.97
   4   5  -9   41.07    3.27
   4   5  -9   52.97    4.20
  -4  -5   9   57.75    4.54
  -7   6   0   13.55    2.67
   7  -6   0    9.08    2.12
   7  -6   0    8.66    1.51
  -6   5   7   30.00    3.17
   6  -5  -7   32.46    3.62
  -6   5   7   25.33    2.79
  -6   5   7   26.16    2.55
   7  -6   1   16.07    2.29
  -7   6  -1   16.17    2.86
   7  -6   1   15.93    1.75
  -1  11  -2   12.10    2.79
   1 -11   2   12.78    2.62
   1 -11   2   11.02    2.78
  -5   3  10   84.34    5.48
   5  -3 -10   85.60    5.85
  -5   3  10   78.20    5.77
   2  -8 -11   91.07    6.64
  -2   8  11  106.78    8.00
   2  -8 -11  101.48    7.07
  -2   8  11  113.42    7.62
  -2   8  11  115.46    7.41
  -8   1   3  100.58    5.79
   8  -1  -3  105.77    7.02
  -8   1   3   86.11    4.85
  -8   1   3  105.12    5.84
   4  -9   4   61.79    4.91
  -4   9  -4   51.27    4.60
   4  -9   4   55.60    4.52
  -4   9  -4   58.84    4.43
   8   5   0   86.53    4.09
   8   5   0   76.05    3.87
  -8  -5   0   91.30    6.53
   8   6   3   81.50    5.18
  -8  -6  -3   69.08    5.71
   8   6   3   75.00    5.79
  -8  -6  -3   68.91    4.72
  -8  -6  -3   76.78    5.15
   8   6   3   75.85    5.28
   8   6   3   73.06    5.78
  -2  11   5   86.92    6.47
   2 -11  -5   86.72    5.91
  -2  11   5   98.87    7.04
   2 -11  -5  104.33    6.70
   7   8   2    0.92    2.13
   7   8   2   -1.31    1.96
   7   8   2    2.98    1.87
   7   8   2   -6.21    2.75
   7   8   2    1.47    2.44
   7   8   2   -2.56    3.06
   3  11   8    2.07    2.38
   3  11   8   -0.07    2.38
  -3 -11  -8   -0.42    2.44
   3  11   8    2.67    1.38
   8   4   8   64.58    5.02
   8   4   8   62.03    4.95
  -8  -4  -8   70.82    5.06
  -8   2  -6   39.25    4.12
  -8   2  -6   44.20    3.19
   8  -2   6   57.90    4.48
  -3   4 -12    1.41    2.05
   3  -4  12    1.68    2.48
  -3   4 -12    0.42    2.12
  -3   4 -12   -2.39    2.81
  -1  -6 -14   19.95    2.96
   1   6  14   30.00    3.66
   1   6  14   27.70    3.76
  -1  -6 -14   26.84    2.85
   1   6  14   24.31    2.98
  -1  -6 -14   21.57    2.83
  -6   7  -4  105.30    7.54
  -6   7  -4  119.47    7.81
   6  -7   4  105.86    6.55
   6  -7   4   96.49    6.11
  -6   7  -4  109.46    7.69
   1  -1  14    6.66    1.18
   1  -1  14    9.25    2.52
   1  -1  14    7.96    2.28
   1  -1  14   10.40    2.31
  -1   1 -14   10.84    3.19
  -1   1 -14    8.94    2.94
   1  -3 -14    5.78    2.21
  -1   3  14    7.53    2.29
  -1   3  14    6.96    1.66
   3   5 -10   75.24    5.12
   3   5 -10   58.34    4.67
  -3  -5  10   64.21    5.39
  -3  -5  10   69.68    5.08
  -5   0 -13   13.07    2.56
   5   0  13   12.49    2.60
  -5   0 -13    8.70    2.78
   2  -3  13   34.79    3.62
  -2   3 -13   28.48    2.86
  -2   3 -13   30.50    3.79
   2  -3  13   28.15    3.30
   2  -3  13   33.79    3.30
   7   7  -1    0.80    0.82
   7   7  -1    1.34    2.32
   7   7  -1    2.72    3.12
   7   7  -1    2.17    1.98
   7   7  -1    2.99    2.30
   2  -1  14   91.03    6.08
  -2   1 -14   70.42    5.54
  -2   1 -14   85.19    6.06
   2  -1  14   84.26    5.93
   2  -1  14   82.07    5.96
  -2   1 -14   92.67    6.50
   2  -1  14   81.57    5.21
  -6  -2   8    2.96    1.27
  -6  -2   8    3.62    1.42
   6   2  -8    3.96    2.55
   6   2  -8    4.58    2.57
  -3   5  12    4.70    2.59
  -3   5  12    2.70    2.59
   3  -5 -12    5.31    1.54
  -3   5  12    7.05    2.09
   8   6   5    2.94    2.15
   8   6   5    3.46    2.64
  -8  -6  -5    2.24    2.92
   8   6   5    4.37    1.62
  -8  -6  -5    3.13    1.64
  -8  -6  -5    3.95    2.08
   8   6   5    5.31    2.72
   5   9  10    2.96    3.28
  -5  -9 -10    0.31    2.07
   5   9  10    1.46    2.89
   5   9  10    2.55    2.52
  -5  -9 -10    1.17    2.16
   5   9  10    1.30    1.89
  -7   4   5   47.61    3.57
  -7   4   5   49.40    3.74
  -7   4   5   49.85    4.01
   7  -4  -5   55.22    4.44
  -7   4   5   52.14    4.00
   6  -6  -6   58.67    4.79
  -6   6   6   73.17    5.18
  -6   6   6   62.41    4.65
  -6   6   6   64.76    4.68
   6  -6  -6   78.23    5.37
  -1  -4  12    7.53    2.07
  -1  -4  12    9.10    2.82
   1   4 -12    8.48    2.66
  -1  -4  12    7.65    2.30
  -7   4  -7   78.65    5.71
  -7   4  -7   85.55    6.02
  -7   4  -7   76.98    5.99
  -7   4  -7   77.89    5.52
   7  -4   7   89.82    6.10
  -7  -3 -11   79.58    6.23
   7   3  11   80.35    5.36
   7   3  11   73.23    5.53
   7   3  11   67.69    5.70
  -3  10  -3    1.21    2.38
   3 -10   3    1.09    2.28
   3 -10   3    1.10    2.71
   4   1  14   19.47    2.71
   4   1  14   24.51    2.34
  -4  -1 -14   23.87    3.26
   4   1  14   25.02    3.21
   4   1  14   25.49    3.12
  -4  -1 -14   27.40    4.01
  -4  -1 -14   25.08    3.46
  -5   9   1   12.04    3.09
   5  -9  -1   14.11    2.70
   6   0  12    5.71    2.78
  -6   0 -12    6.68    2.23
   6   0  12    6.94    2.41
  -6   0 -12    3.36    2.77
  -6   0 -12    6.69    3.17
   4   7  13   72.03    5.78
  -4  -7 -13   88.47    6.02
  -4  -7 -13   77.00    6.06
  -4  -7 -13   98.21    6.42
   4   7  13   86.91    6.04
  -4  -7 -13   83.51    6.16
  -6   5  -8   53.61    3.46
  -6   5  -8   47.88    4.25
  -6   5  -8   48.15    3.80
  -6   5  -8   47.69    4.27
  -6   5  -8   50.48    4.54
  -7  -2 -11   40.84    4.27
  -7  -2 -11   32.69    4.02
   7   2  11   36.19    3.50
   7   2  11   34.93    3.88
   7   2  11   35.70    3.32
   2   9  12   39.97    4.30
  -2  -9 -12   42.36    3.89
  -2  -9 -12   39.46    4.10
   2   9  12   44.82    4.50
  -3   7  -9  112.08    6.68
  -3   7  -9  102.04    6.86
   0  -9   7   67.65    4.95
   0   9  -7   62.98    4.94
   0  -9   7   52.56    3.87
   0   9  -7   54.98    4.88
   0   9  -7   72.91    5.21
   2  11  -2   21.64    3.12
  -2 -11   2   12.53    2.86
   2  11  -2   16.36    2.45
  -1 -10   5   96.70    6.14
  -1 -10   5   74.46    5.26
   1  10  -5   74.28    5.35
   1  10  -5   86.28    5.74
   1  10  -5   68.02    4.46
   1  10  -5   79.60    5.48
  -7   6   1   31.15    3.31
   7  -6  -1   29.40    2.93
  -8  -2   3    4.03    2.68
   8   2  -3    2.98    2.14
  -8  -2   3    6.46    2.22
  -8  -2   3    5.88    2.14
   7  -6   2   28.95    2.76
  -7   6  -2   25.54    3.23
  -7   6  -2   39.11    3.56
   7  -6   2   26.64    2.30
   5  10   0    3.51    1.70
   5  10   0    1.72    1.89
   5  10   0    3.86    1.56
   5  10   0    2.63    2.23
   5  10   0   -2.49    2.00
   5  10   0    0.84    2.53
   5  10   0    5.60    2.64
   5  10   0    0.94    2.82
  -7  -2   6   58.48    3.88
  -7  -2   6   65.80    4.49
   7   2  -6   73.06    5.77
  -7  -2   6   56.57    4.26
  -7  -2   6   69.95    4.96
   1 -10   5    0.98    0.84
  -1  10  -5    3.84    2.48
  -1  10  -5    3.23    2.61
  -1  10  -5    3.73    2.37
   1 -10   5    1.47    2.66
   1  -1 -14   41.91    3.33
  -1   1  14   53.24    4.35
   1  -1 -14   50.33    3.87
  -1   1  14   52.02    4.03
  -5   9   0   23.95    3.41
   5  -9   0   30.21    3.32
   1  12   3   -0.75    3.34
   1  12   3    3.55    1.03
  -1 -12  -3    4.24    2.02
   1  12   3    2.68    2.35
   8   0   8    3.22    2.60
  -8   0  -8    2.17    2.74
   8   0   8    3.25    2.26
  -8   0  -8    5.02    2.92
  -3  -8   7   27.55    3.47
   3   8  -7   22.55    2.66
  -3  -8   7   23.35    2.68
   3   8  -7   23.38    2.15
  -3  -6 -14   62.09    4.82
  -3  -6 -14   57.83    4.75
   3   6  14   67.62    4.74
  -3  -6 -14   61.32    4.69
   3   6  14   51.73    3.82
   3   6  14   63.70    5.05
   5  10   8  117.53    7.65
   5  10   8  122.01    8.36
   5  10   8  112.59    7.58
  -5 -10  -8  115.91    8.01
  -5 -10  -8  125.66    8.05
   2  -5 -13   63.26    4.83
  -2   5  13   57.87    4.91
  -2   5  13   51.40    4.36
  -2   5  13   60.34    4.70
  -1 -12  -4    8.37    2.67
   1  12   4    5.68    1.25
   1  12   4    1.62    3.37
   1  12   4    3.23    2.46
  -4  10   1   -1.88    2.81
   4 -10  -1    0.89    2.50
   4 -10  -1    0.87    2.22
   5   1 -10   93.45    6.25
   5   1 -10   80.98    6.49
   6   9   8    0.80    3.14
  -6  -9  -8    1.76    2.00
  -6  -9  -8    2.10    2.09
   6   9   8    4.73    2.44
   6   9   8   -1.93    2.32
   6   9   8   -1.15    2.31
   6   9   8   -0.40    3.16
   6   9   8   -0.10    1.87
   6  -2  11   73.94    5.66
  -6   2 -11   76.35    4.55
  -6   2 -11   89.40    4.98
  -6  -4   7   48.80    3.77
  -6  -4   7   58.56    4.46
   6   4  -7   54.59    4.56
   6   4  -7   47.35    4.24
  -7   1 -10   48.74    3.74
  -7   1 -10   47.04    4.63
   7  -1  10   43.25    4.12
  -7   1 -10   51.61    4.56
  -2   9  10   80.12    5.76
   2  -9 -10   81.47    6.40
  -2   9  10   83.79    5.98
   6   9   0  190.60   12.88
   6   9   0  211.67   13.20
   6   9   0  208.85   12.49
   6   9   0  220.02   12.99
   6   9   0  190.92   12.81
   1  -8 -12    6.63    2.52
   1  -8 -12    6.16    2.28
  -1   8  12    4.74    2.30
  -4  10   2    0.28    2.92
   4 -10  -2    1.51    2.45
   4 -10  -2    2.89    2.16
   5  -9  -2    8.99    2.44
  -5   9   2    4.28    2.74
   8   6   2   82.46    6.15
  -8  -6  -2   83.87    5.81
   8   6   2   90.51    5.55
   8   6   2   80.67    6.20
   8   6   2   83.67    5.87
  -8  -6  -2   87.71    6.43
  -2  11  -1   34.87    3.58
   2 -11   1   39.89    3.75
   2 -11   1   30.02    3.56
  -2  11  -1   30.49    4.03
  -6  -7   4   40.18    3.71
   6   7  -4   38.44    3.84
   6   7  -4   40.44    3.26
   6   7  -4   40.94    3.68
  -6  -7 -11   44.12    3.46
   6   7  11   41.86    3.69
   6   7  11   44.55    4.32
  -6  -7 -11   43.17    3.83
  -6  -7 -11   47.24    3.93
   6   7  11   48.25    4.59
   6   7  11   48.94    4.08
   0  -3  13    9.26    2.17
   0  -3  13    9.53    2.21
   0   3 -13    4.24    2.81
   0  -3  13   14.08    2.78
  -2  -8 -13   16.22    2.75
   2   8  13   15.18    3.56
  -2  -8 -13   19.55    2.93
  -2  -8 -13   13.99    3.20
   2   8  13   10.51    2.91
   2   8  13   14.17    3.22
   1   9  12   60.54    5.46
  -1  -9 -12   59.84    5.30
  -1  -9 -12   64.31    5.09
  -1  -9 -12   71.20    5.22
   1   9  12   66.39    5.66
   3  11  -1   35.83    3.91
   3  11  -1   46.93    4.20
   3  11  -1   35.29    3.47
   3  11  -1   40.02    3.06
   3  11  -1   36.50    3.30
   3  11  -1   35.58    3.32
   3  11  -1   38.53    3.18
   3  11  -1   41.28    3.89
   7   5  -4    4.51    2.10
  -7  -5   4    3.11    2.41
   7   5  -4    2.81    2.24
  -7  -5   4    2.42    2.09
  -7  -5   4    3.81    1.90
   2   1 -13   50.34    3.63
  -2  -1  13   49.96    3.80
  -2  -1  13   52.34    4.22
   2   1 -13   52.02    4.44
   2   1 -13   55.43    3.93
  -2  -1  13   49.72    4.00
  -1   9  11   73.56    5.38
   1  -9 -11   62.24    4.91
  -1   9  11   68.20    5.12
  -1   9  -7   -0.24    2.45
   1  -9   7    0.95    1.23
  -1   9  -7    2.36    2.29
  -1   9  -7    2.93    2.57
   1  -9   7   -0.44    2.72
   2   6 -10    3.72    2.46
  -2  -6  10   -0.13    2.06
   2   6 -10    2.40    2.29
  -2  -6  10    1.94    2.72
   2   7  -9    0.98    2.53
   2   7  -9    3.99    2.20
  -2  -7   9    0.35    2.82
   2   7  -9    0.54    2.46
  -2  -7   9   -2.06    2.03
   2  -7 -12   17.18    2.66
   2  -7 -12   20.81    3.52
  -2   7  12   23.57    3.57
   7  -5  -4   30.32    2.94
  -7   5   4   29.90    2.94
  -7   5   4   31.19    2.77
  -7   5   4   30.44    3.19
   4  11   1  121.17    8.13
   4  11   1  115.32    7.54
   4  11   1  112.60    7.56
   4  11   1  110.93    7.55
   4  11   1  120.64    8.05
   4  11   1  118.59    7.96
   4  11   1  112.80    8.10
   4  11   1  123.20    7.84
   5   6  -7    2.08    2.69
   5   6  -7    1.83    1.33
  -5  -6   7    0.36    2.20
  -3   8  10   74.52    5.70
   3  -8 -10   63.94    4.98
   3  -8 -10   65.14    5.47
  -3   8  10   72.91    5.18
  -3   8  10   60.95    4.70
  -3   8  10   72.21    4.90
   4   5  14   95.90    6.96
  -4  -5 -14   92.35    6.40
   4   5  14   97.83    6.56
   4   5  14   90.74    6.11
  -4  -5 -14   89.48    6.19
   4   8  -6  142.95    8.98
   4   8  -6  152.18    8.84
   4   8  -6  137.92    8.89
  -4  -8   6  141.52    9.13
   4   8  -6  141.93    9.60
   4   8  -6  143.81    9.53
   4   8  -6  135.60    8.78
   1  12   2   -0.10    3.33
   1  12   2    1.80    0.85
   1  12   2   -2.70    2.33
  -1 -12  -2    1.56    2.15
  -1   4  14   35.03    3.08
   1  -4 -14   38.15    3.63
  -1   4  14   36.42    3.55
  -7  -4 -11  162.11   10.09
  -7  -4 -11  148.37    9.21
  -7  -4 -11  134.09    9.43
   7   4  11  162.26   10.15
   7   4  11  159.95   10.34
   7   4  11  149.65   10.01
   7   4  11  166.03   10.46
   6   8  10  125.86    7.88
   6   8  10  118.93    7.88
   6   8  10  119.76    7.48
  -6  -8 -10  123.43    7.74
  -6  -8 -10  103.07    7.78
  -6  -8 -10  118.21    7.50
   8   6   6    0.55    2.23
  -8  -6  -6    2.35    1.70
   8   6   6    0.58    2.71
  -8  -6  -6    0.07    2.10
   8   6   6    2.34    1.45
  -8  -6  -6    0.63    3.04
   4  11   7   16.97    3.68
  -4 -11  -7   19.24    2.82
   4  11   7   19.85    2.84
   4  11   7   14.72    2.92
   4  11   7   15.12    2.62
   4  11   7   20.48    2.89
   4  11   7   20.29    2.50
  -5   8   6   24.83    2.42
   5  -8  -6   26.34    3.00
  -5   8   6   33.81    3.14
  -4  10   0    5.42    2.94
   4 -10   0    5.31    2.40
   4 -10   0    3.46    2.41
  -7  -6 -10    1.20    2.07
  -7  -6 -10    2.79    2.30
   7   6  10    1.90    2.96
  -7  -6 -10    0.45    3.25
   7   6  10    1.05    2.19
   7   6  10   -0.77    2.65
  -1  -8 -13   31.51    3.39
   1   8  13   24.98    3.49
  -1  -8 -13   37.53    3.95
   1   8  13   28.34    3.88
   1   8  13   31.01    4.04
  -1  -8 -13   28.92    3.38
  -7   3   6    7.69    2.27
   7  -3  -6    9.21    2.60
  -7   3   6    6.56    1.39
  -7   3   6    5.73    2.27
  -7   3   6    7.35    1.65
  -2 -11  -9   18.71    3.04
   2  11   9   11.27    2.56
   2  11   9   13.36    3.59
   2  11   9   14.10    2.84
   0  12   3   76.27    5.52
   0 -12  -3   56.39    4.25
   0  12   3   77.19    5.60
   0  12   3   61.43    5.98
  -7  -8  -7  106.12    6.98
   7   8   7   91.15    6.69
   7   8   7  111.90    7.01
   7   8   7  106.23    6.18
  -7  -8  -7   98.30    6.77
   7   8   7   98.49    6.65
   7   8   7   94.17    6.47
   7   4  -5    2.90    2.17
  -7  -4   5    2.58    2.00
  -7  -4   5    2.65    2.46
  -7  -4   5    8.47    2.00
   7   4  -5    7.60    3.02
  -7  -1 -11    2.48    2.83
   7   1  11   -2.30    2.81
   7   1  11    0.06    2.10
  -7  -1 -11   -0.62    3.16
   2  12   4   58.21    5.35
  -2 -12  -4   53.47    4.50
   2  12   4   54.08    3.93
   2  12   4   53.94    5.22
   2  12   4   59.06    4.60
   2  12   4   51.56    4.64
   2  12   4   58.62    4.75
   1  12   5   11.74    2.64
   1  12   5    9.37    2.72
   1  12   5    9.69    2.59
   1  12   5    7.68    3.62
   1  12   5   12.71    1.68
  -1 -12  -5   13.08    2.84
  -3   7  11   56.72    4.22
   3  -7 -11   31.61    2.18
  -3   7  11   49.27    3.93
  -3   7  11   50.75    4.70
   3  -7 -11   63.82    4.46
  -6   4   8    7.75    1.58
   6  -4  -8    2.64    2.17
   6  -4  -8    7.04    2.95
  -6   4   8    3.15    0.72
  -6   4   8    2.00    2.21
  -6   4   8    5.42    2.03
  -5   9  -1   37.08    4.06
   5  -9   1   42.81    3.88
  -4  10   3   12.39    2.62
  -4  10   3   11.99    3.12
   4 -10  -3   13.12    2.35
   4 -10  -3   17.31    2.85
  -1 -11  -9  129.32    8.69
   1  11   9  137.44    8.70
   1  11   9  119.98    9.11
  -4   2 -13    1.70    3.05
  -4   2 -13    1.70    2.63
   4  -2  13    1.86    2.28
   4  -2  13   -0.91    2.34
  -4   2 -13    2.41    1.87
   4  -2  13    0.83    2.47
  -4   2 -13    3.27    2.35
  -7  -7  -9   46.17    3.93
   7   7   9   43.88    4.34
  -7  -7  -9   42.94    3.70
   7   7   9   42.02    3.82
   2  12   3   28.16    3.21
   2  12   3   26.52    3.38
   2  12   3   25.23    4.01
   2  12   3   29.25    2.46
   2  12   3   27.10    3.38
  -2 -12  -3   29.40    3.34
  -8   3  -5   64.53    4.75
  -8   3  -5   57.87    4.27
   8  -3   5   69.52    5.01
  -8   3  -5   62.79    4.54
  -8   3  -5   66.27    5.01
  -7  -6   3    2.46    2.41
   7   6  -3    1.95    2.28
   7   6  -3    2.53    2.24
   7   6  -3   -0.62    1.80
   7   8   1   47.48    3.93
   7   8   1   42.02    3.82
   7   8   1   41.47    3.33
   7   8   1   39.02    3.77
   7   8   1   39.01    3.43
   7   8   1   38.21    4.35
  -4  -2  11   31.23    3.41
   4   2 -11   22.54    2.08
  -4  -2  11   34.85    2.97
   4   2 -11   32.43    3.24
   4   2 -11   32.55    3.55
   5   6  13    5.63    3.12
  -5  -6 -13    2.76    1.82
  -5  -6 -13    2.09    2.54
  -5  -6 -13    3.36    2.34
  -5  -6 -13    2.67    2.21
   5   6  13    4.60    2.54
   0  -1  14    2.68    2.14
   0  -1  14   -2.67    1.95
   0   1 -14    1.18    2.83
   0  -1  14    0.43    2.42
  -8   2   3   84.46    5.42
  -8   2   3   72.80    4.76
  -8   2   3   64.35    4.58
   8  -2  -3   77.17    5.36
  -8   2   3   76.18    5.47
   4  -5 -11  102.73    6.59
  -4   5  11   99.18    6.65
  -4   5  11   87.76    6.27
   5   7  -6    0.92    0.85
   5   7  -6    2.73    1.62
  -5  -7   6    0.50    2.20
   5   7  -6    3.41    2.75
   5   7  -6    2.40    1.26
   5   7  -6    0.69    1.05
   8  -3  -2   10.50    1.96
  -8   3   2   12.96    2.73
  -8   3   2   10.00    1.92
   8  -3  -2    9.03    1.91
  -8   3   2   12.98    2.13
  -5   7  -7   80.62    5.17
  -5   7  -7   76.20    5.86
  -5   7  -7   67.87    4.89
  -5   7  -7   73.08    5.56
   0  12   4   35.08    4.66
   0  12   4   40.58    3.77
   0 -12  -4   30.29    2.85
  -3  -9 -12   69.91    5.28
  -3  -9 -12   66.66    5.50
   3   9  12   63.12    5.49
   3   9  12   69.19    5.48
   5   5  -8    8.12    2.76
   5   5  -8    7.19    2.76
  -5  -5   8    5.21    2.31
   0  11  -3   39.30    3.85
   0 -11   3   55.01    4.74
   0  11  -3   48.29    4.16
   1   9  -7   37.43    3.64
  -1  -9   7   37.55    3.05
  -1  -9   7   38.42    3.97
   1   9  -7   39.85    3.91
   1   9  -7   36.35    3.60
   0  12   2  116.81    7.67
   0  12   2  109.20    7.52
   0 -12  -2   99.96    6.98
   0 -12  -2  112.63    7.42
   0  12   2  103.64    8.07
  -7   6   2    0.85    2.31
   7  -6  -2    2.56    2.02
  -5   9   3   10.59    2.55
   5  -9  -3   19.37    2.88
  -7   6  -3   18.56    2.79
   7  -6   3   23.81    2.37
  -7   6  -3   19.87    3.05
  -7   6  -3   17.77    2.79
   7  -6   3   19.70    2.05
   3   2 -12   17.83    3.26
   3   2 -12   16.00    2.06
   3   2 -12   15.68    2.63
  -3  -2  12   13.64    2.61
  -3  -2  12   14.87    2.21
  -2 -10 -11   18.83    2.94
  -2 -10 -11   14.21    3.27
   2  10  11   18.45    3.57
  -3   9  -6   36.19    4.13
   3  -9   6   20.73    1.47
   3  -9   6   38.76    3.60
  -3   9  -6   45.70    3.89
  -8  -4   2   23.09    2.86
  -8  -4   2   26.84    2.99
  -5   8  -5  102.25    6.29
  -5   8  -5   82.39    6.75
   5  -8   5   54.83    3.38
  -5   8  -5   88.44    6.64
   4   4 -10    4.22    2.73
  -4  -4  10    4.49    1.22
  -4  -4  10    5.57    2.44
   4   4 -10    5.78    1.22
   4   4 -10    6.89    2.59
  -4  -4  10    4.23    1.73
   2  12   5   56.56    4.29
  -2 -12  -5   52.55    4.48
   2  12   5   48.13    3.72
   2  12   5   49.63    4.39
   2  12   5   45.87    5.05
   2  12   5   50.00    5.04
  -8   4  -1   32.79    3.06
   8  -4   1   32.79    2.74
   8  -4   1   25.92    2.59
  -8   4  -1   36.18    3.43
  -8   4  -1   34.45    3.69
  -3   1 -14   28.63    3.36
  -3   1 -14   35.43    3.68
  -3   1 -14   34.15    4.20
   3  -1  14   31.44    3.38
   3  -1  14   29.63    3.39
  -3  -8 -13    4.59    2.97
   3   8  13    6.48    2.74
  -3  -8 -13    2.88    2.38
   3   8  13    7.57    3.03
  -3  -8 -13   10.60    2.58
  -2  11   6   25.17    1.82
  -2  11   6   50.89    3.51
   2 -11  -6   35.15    2.83
   2 -11  -6   53.55    4.00
  -8  -2  -9   44.44    4.39
  -8  -2  -9   38.41    4.32
   8   2   9   30.97    3.57
  -5  -9   3   11.58    2.41
   5   9  -3   13.18    2.55
   5   9  -3    9.83    1.72
   5   9  -3    9.40    2.87
   5   9  -3   11.02    2.28
   5   9  -3    9.17    3.23
   5   9  -3   16.35    2.43
  -5   4  10  117.46    8.00
  -5   4  10  114.68    7.76
   5  -4 -10  123.63    7.99
  -5   4  10  120.60    7.73
   4  10  10   61.19    5.45
   4  10  10   66.03    4.29
  -4 -10 -10   81.24    5.67
  -4 -10 -10   72.33    5.66
  -1   6 -11   55.19    4.54
   1  -6  11   62.48    5.10
  -1   6 -11   47.21    3.62
  -1   6 -11   59.01    4.50
   1  11  -3   60.41    5.14
  -1 -11   3   71.72    5.53
   1  11  -3   77.70    5.43
  -8   4  -2   40.47    3.64
  -8   4  -2   37.80    3.90
   8  -4   2   31.36    2.76
   8  -4   2   36.12    2.98
  -8   4  -2   37.87    3.38
   8   5   8   55.78    4.41
  -8  -5  -8   48.55    4.85
   8   5   8   48.35    3.54
  -8  -5  -8   47.19    4.21
  -8  -5  -8   53.91    3.99
   8   3   9   69.15    5.25
   8   3   9   64.32    5.31
  -2  -5  11   10.10    2.90
  -2  -5  11    9.85    2.10
  -2  -5  11   10.01    2.37
   2   5 -11    9.41    2.45
   2   5 -11   10.81    2.64
   2  12   2    5.70    2.84
   2  12   2    7.80    2.64
   2  12   2   10.57    3.56
  -2 -12  -2    6.25    2.51
   2  12   2    4.81    1.45
   2  12   2    6.12    2.41
   0   6  14   42.05    3.96
   0  -6 -14   50.53    4.34
   0   6  14   54.63    4.61
   0   6  14   49.74    4.71
   2   8  -8    6.36    1.50
   2   8  -8    8.56    2.76
   2   8  -8    8.68    2.26
  -2  -8   8   10.13    2.06
   1  10  11    3.48    3.02
  -1 -10 -11   -0.72    2.99
   1  10  11    0.31    2.36
  -1 -10 -11    1.48    2.42
   8   6   1   68.57    4.22
   8   6   1   73.88    4.08
   8   6   1   57.53    4.67
  -8  -6  -1   72.66    5.72
   8   6   1   61.41    3.10
   8   6   1   72.08    3.88
   8   6   1   35.67    2.72
   8   6   1   36.66    2.71
  -1   0  14   56.05    4.58
   1   0 -14   52.60    3.89
  -1   0  14   75.93    5.11
   1   0 -14   60.01    4.36
   6   6  12   12.34    3.32
   6   6  12   14.61    2.63
  -6  -6 -12   13.93    1.97
  -6  -6 -12   12.97    2.63
  -6  -6 -12    9.14    3.28
  -6  -6 -12   14.70    2.52
   6   6  12   12.30    2.94
  -1 -12  -1   85.03    6.06
   1  12   1   91.68    6.58
   1  12   1   98.93    7.29
   3   4 -11   71.12    5.71
  -3  -4  11   63.64    4.85
   3   4 -11   71.49    5.36
  -3  -4  11   77.33    5.28
  -3 -10   4   12.36    2.89
   3  10  -4   12.88    2.24
   3  10  -4    8.63    1.88
   3  10  -4   11.62    2.62
  -3 -10   4   10.87    2.03
   3  10  -4   14.92    3.09
   3  -3  13   54.41    4.71
   3  -3  13   64.39    4.88
  -3   3 -13   55.39    4.32
  -3   3 -13   48.91    4.30
  -3  10   7   63.04    4.43
   3 -10  -7   43.99    3.21
   3 -10  -7   57.29    4.21
  -3  10   7   46.58    3.38
   6  -8   0   64.21    4.91
  -6   8   0   68.04    5.27
  -6   8   0   62.70    5.34
  -1   7 -10   37.31    3.67
  -1   7 -10   35.62    3.61
  -1   7 -10   30.11    2.68
   1  -7  10   35.28    3.02
  -4   9   7   53.49    3.88
  -4   9   7   66.89    4.70
   4  -9  -7   63.82    4.98
   4 -10   1   11.63    2.74
  -4  10  -1   10.57    3.21
  -4  10  -1   13.31    2.44
   4 -10   1   11.82    2.60
  -2  -3 -15    4.86    2.09
  -2  -3 -15    2.50    2.25
   2   3  15    3.73    2.03
   2   3  15    5.77    2.56
   2   3  15    4.53    1.80
   6  -8  -1   34.52    3.39
  -8   4   0   45.55    3.89
   8  -4   0   33.01    3.12
  -8   4   0   44.61    4.18
   8  -4   0   44.49    3.22
  -4   0 -14   24.85    3.31
   4   0  14   22.94    2.82
  -4   0 -14   19.87    3.19
  -4   0 -14   26.06    3.95
   4   0  14   22.11    3.07
   4   0  14   21.65    2.99
  -6   7   5    3.45    1.79
  -6   7   5    7.55    2.15
   6  -7  -5    3.67    2.16
  -8  -5   1   86.43    6.25
   8   5  -1   73.41    5.28
  -1   7  13   20.83    3.18
  -1   7  13   32.64    3.95
   1  -7 -13   23.75    3.00
   1  -7 -13   25.92    3.11
   8   3  -3    4.65    2.20
  -8  -3   3   -0.06    2.10
   8   3  -3    5.97    3.03
  -8  -3   3   -0.35    2.62
  -8  -3   3    0.95    2.08
   0  12   5   12.44    3.84
   0  12   5   17.67    2.89
   0  12   5    9.85    1.17
   0  12   5   16.10    2.69
   0 -12  -5   11.37    1.87
   3  -9  -9   -0.38    0.36
  -3   9   9   -1.36    2.04
  -3   9   9    0.35    2.23
   3  -9  -9    2.07    2.31
  -3   9   9    2.89    1.50
   0   6 -11   59.32    4.12
   0  -6  11   58.66    4.60
   0   6 -11   55.93    4.08
   0  -6  11   71.00    5.23
  -7   5  -6  110.00    6.92
  -7   5  -6  104.22    7.30
  -7   5  -6  108.33    7.09
  -7   5  -6   87.79    7.19
   7  -5   6  117.55    7.56
   0   7 -10   85.01    5.56
   0  -7  10   79.45    5.72
   0   7 -10   84.62    5.45
   0  -7  10   93.46    6.36
   2   2  15    0.92    2.12
  -2  -2 -15    1.42    2.23
   2   2  15    1.64    1.51
   2   2  15    6.40    2.50
   0 -12  -1   59.46    4.70
   0 -12  -1   63.84    5.10
   0  12   1   46.81    5.18
   0  12   1   58.36    4.47
   0  12   1   52.85    4.66
  -6   6  -7   13.53    2.13
  -6   6  -7   17.40    1.86
  -6   6  -7   13.50    3.08
  -6   6  -7   17.72    2.80
  -6   6  -7   15.08    2.74
   4 -10  -4    9.68    2.58
  -4  10   4   10.69    2.52
   1  12   6   70.26    5.04
   1  12   6   59.98    4.99
   1  12   6   64.18    4.96
   1  12   6   58.43    4.29
   1  12   6   63.52    5.70
  -1 -12  -6   61.70    5.16
  -8  -1  -9   -6.30    3.11
  -8  -1  -9    0.20    2.91
   8   1   9    1.38    2.73
  -8   0   4    1.06    0.84
  -8   0   4    1.52    2.51
   8   0  -4    2.46    2.05
  -8   0   4   -0.27    2.17
   8   0  -4   -0.49    1.96
   6  -7   5  127.48    7.83
  -6   7  -5  134.82    8.88
  -6   7  -5  130.76    9.05
   6  -1  -9   58.37    4.68
  -6   1   9   45.76    3.58
  -6   1   9   58.87    4.29
  -1  -3 -15   38.57    3.46
   1   3  15   37.68    3.26
   1   3  15   35.38    3.67
  -1  -3 -15   28.72    3.07
   1   3  15   36.25    3.00
   6  -8   1   82.79    5.93
  -6   8  -1   79.00    5.95
  -6   8  -1   75.94    5.93
   1 -10 -10    5.02    2.57
  -1  10  10    3.80    2.28
  -1  10  10    3.92    2.54
   8  -4   3   45.46    3.22
   8  -4   3   33.70    2.79
  -8   4  -3   49.24    3.96
  -8   4  -3   41.89    3.60
  -8   4  -3   39.52    4.11
   5  -9   2   52.65    4.28
  -5   9  -2   50.71    4.72
  -5   9  -2   47.72    4.52
  -1   5 -12   32.80    2.79
  -1   5 -12   40.69    3.71
  -1   5 -12   44.95    4.01
   1  -5  12   46.00    4.24
  -8  -6  -7    9.91    3.25
   8   6   7    6.65    2.89
   8   6   7    5.80    2.53
   8   6   7    5.99    1.17
  -8  -6  -7    4.71    1.91
  -8  -6  -7    6.05    2.31
  -8   2  -7  217.40   13.52
  -8   2  -7  252.79   14.28
  -8   2  -7  254.35   14.05
   8  -2   7  271.78   16.73
  -7  -5 -11   46.93    4.79
  -7  -5 -11   48.81    3.92
   7   5  11   48.54    4.14
   7   5  11   40.99    3.76
   7   5  11   43.64    4.30
  -7  -5 -11   42.32    3.53
  -7  -5 -11   42.54    4.02
   7   5  11   39.78    3.59
  -1  11   8   -0.97    2.22
  -1  11   8   -0.62    2.34
   0  -9 -12    3.91    2.52
   0   9  12    3.05    2.40
   0  -9 -12   -1.97    2.97
   0   9  12   -0.10    3.36
   0   9  12    0.37    2.89
   3  11   9   11.42    2.69
   3  11   9   13.36    3.70
  -3 -11  -9   11.44    2.71
   3  11   9    9.04    2.72
   1   2  15   12.00    1.73
  -1  -2 -15   16.51    2.65
  -1  -2 -15   14.47    2.31
   1   2  15   16.42    2.54
   1   2  15   16.92    2.70
   3  -8   8   44.69    3.23
   3  -8   8   53.18    4.47
  -3   8  -8   58.24    5.03
  -3   8  -8   59.06    4.74
   2  -9   7    0.81    2.91
   2  -9   7    0.07    1.17
  -2   9  -7    4.31    2.45
  -2   9  -7    3.75    2.71
  -2   9  -7    0.64    0.47
  -2   9  -7    2.96    2.56
  -2 -10   5   55.40    4.28
   2  10  -5   59.32    4.72
   2  10  -5   60.31    4.80
   2  10  -5   67.27    5.26
  -2 -10   5   71.90    5.18
   2  10  -5   60.66    4.78
   2  10  -5   65.36    5.22
   5  -5  10   13.95    2.90
  -5   5 -10    8.96    2.60
  -5   5 -10   17.20    2.11
  -1  11  -3    0.08    2.59
   1 -11   3    1.57    2.72
  -1  11  -3    3.29    2.33
  -4   8  -7   69.49    5.28
   4  -8   7   70.65    5.56
  -4   8  -7   57.58    4.34
   5  -1  13    0.78    2.64
   5  -1  13    2.81    2.40
  -5   1 -13    0.96    2.58
  -5   1 -13    5.04    2.33
  -5   1 -13    5.08    1.62
  -2  -7 -14    4.58    2.45
  -2  -7 -14    3.77    2.37
   2   7  14   -5.39    2.99
   2   7  14    0.84    2.47
  -2  -7 -14    0.08    2.46
  -2  -7 -14   -0.25    2.81
   2   7  14    3.05    3.08
  -8   1  -8   14.89    3.25
  -8   1  -8   22.60    3.16
  -8   1  -8   16.93    2.78
  -8   1  -8   13.12    1.73
   8  -1   8   16.44    2.73
   5  -7  -8   26.29    3.74
  -5   7   8   22.68    2.44
  -5   7   8   22.15    2.42
  -5   7   8   25.66    2.76
  -5   7   8   25.58    3.41
   5  -7  -8   23.94    2.96
   2   4  15   32.95    2.91
  -2  -4 -15   28.16    3.28
  -2  -4 -15   26.73    3.01
   2   4  15   29.20    3.54
   2   4  15   27.29    2.76
   5  -4  11  102.80    7.21
  -5   4 -11  100.15    7.09
  -5   4 -11  105.21    6.71
   2 -11   2   -0.65    2.80
  -2  11  -2    0.55    2.53
   2 -11   2    1.36    2.39
   2  12   6   69.40    6.30
   2  12   6   67.72    6.24
  -2 -12  -6   77.29    5.87
   2  12   6   79.25    5.79
   2  12   6   76.65    5.26
   2  12   6   82.93    5.69
  -2  10  -5    4.53    2.48
  -2  10  -5    3.55    2.63
   2 -10   5    3.74    2.94
  -2  10  -5   -0.18    2.82
   5  -6  -9    2.79    1.83
  -5   6   9    2.16    1.94
   5  -6  -9   -2.50    3.09
  -5   6   9    4.19    1.95
  -5   6   9    0.08    2.62
  -5   6   9    4.73    1.46
  -1   5  14   94.64    6.57
   1  -5 -14   85.82    6.16
  -1   5  14   87.98    6.22
  -2   6 -11    5.03    1.81
  -2   6 -11    7.47    2.46
  -2   6 -11    4.75    2.75
   2  -6  11    0.43    2.77
   6   3  -8   28.21    3.39
  -6  -3   8   32.86    3.50
   6   3  -8   33.80    3.58
  -6  -3   8   35.65    2.53
   4  11   0   95.37    6.73
   4  11   0  100.84    6.99
   4  11   0  118.48    6.78
   4  11   0   93.85    7.28
   4  11   0  105.99    7.29
   4  11   0   93.14    7.16
   4  11   0  101.56    6.72
  -8  -1   4   33.76    3.27
  -8  -1   4   34.07    3.63
  -8  -1   4   31.77    3.30
   8   1  -4   25.43    2.75
   8   1  -4   34.89    3.11
   7   3  -6   33.11    3.50
  -7  -3   6   31.68    2.90
  -7  -3   6   28.06    2.79
   7   3  -6   40.19    4.07
   3 -11  -2   -1.14    2.69
  -3  11   2    4.07    2.47
  -3  11   2   -0.77    3.21
   3 -11  -2    1.60    2.15
   6  -8  -2   59.14    4.66
   5   2 -10  148.80    9.41
   5   2 -10  135.81    9.53
  -5  -2  10  138.68    8.75
   8   4   9  108.09    6.96
   8   4   9  108.05    7.50
  -8  -4  -9  110.82    7.41
  -3 -10 -11  113.83    7.99
  -3 -10 -11  111.07    8.17
   3  10  11  112.09    8.08
  -3 -10 -11  128.69    8.07
   0 -11  -9   17.38    3.05
   0  11   9   15.34    2.72
   0  11   9   14.12    2.77
   6   0  -9   13.86    2.80
  -6   0   9   15.57    2.64
  -6   0   9   14.45    1.76
   6   8  -3   21.34    2.78
   6   8  -3   23.41    3.05
   6   8  -3   14.64    1.63
  -6  -8   3   22.32    2.99
   6   8  -3   21.74    2.55
   6  -1  12   82.53    5.94
   6  -1  12   80.61    6.19
  -6   1 -12   87.17    6.58
  -6   1 -12   90.42    6.12
  -6   1 -12   85.43    6.80
   6  10   4   95.88    6.95
   6  10   4   93.15    6.55
   6  10   4   92.95    6.68
   6  10   4   91.42    6.42
   6  10   4   98.07    6.49
   6  10   4   84.78    6.33
   3   9  -6   -0.04    1.92
   3   9  -6   -0.49    2.82
   3   9  -6   -0.70    1.95
  -3  -9   6   -0.36    2.72
  -3  -9   6   -0.06    1.89
   4  -5  11   54.12    4.60
  -4   5 -11   48.51    4.10
  -4   5 -11   53.07    4.19
  -4   5 -11   52.05    4.81
  -7   0 -11   -0.58    2.89
  -7   0 -11    1.80    3.01
   7   0  11    4.16    2.81
  -7   0 -11    2.70    1.91
   5  10  -1   15.22    2.07
   5  10  -1   12.30    2.18
   5  10  -1   16.06    1.96
   5  10  -1   21.38    3.54
   5  10  -1   16.38    2.63
   5  10  -1   13.92    2.88
   5  10  -1   15.10    3.07
   5  10  -1   12.44    2.21
   6  -2  -9  105.83    7.23
  -6   2   9  105.80    6.59
  -6   2   9   91.37    5.82
  -6   2   9   93.99    6.20
  -3   2  13  125.20    6.94
   3  -2 -13  134.39    8.16
  -3   2  13  124.87    6.58
   3  -2 -13  118.16    8.08
   8  -1  -4   19.21    2.47
   8  -1  -4   19.55    2.53
  -8   1   4   17.58    2.75
  -8   1   4    9.93    0.90
  -8   1   4   18.08    2.60
  -6  -3 -13   60.39    4.66
  -6  -3 -13   35.67    2.61
   6   3  13   64.25    4.80
   6   3  13   63.02    4.61
   6   3  13   63.20    4.93
   6   3  13   54.53    5.09
   7   0  -7   70.02    5.54
  -7   0   7   58.79    4.41
  -7   0   7   69.86    5.03
  -7   1   7   24.35    2.98
  -7   1   7   17.24    2.44
   7  -1  -7   17.61    3.01
  -2  10   9    1.57    2.40
  -2  10   9    4.19    2.18
   5  -9  -4    4.97    2.28
  -5   9   4    0.07    2.19
   7   7  -2   12.04    2.60
   7   7  -2   16.75    2.76
   7   7  -2   11.10    2.27
   7   7  -2   16.07    3.49
   4  -9   5   55.45    4.75
  -4   9  -5   67.16    4.90
  -4   9  -5   59.38    5.08
   4  11   8   81.92    5.73
   4  11   8   76.10    5.27
   4  11   8   79.72    5.73
   4  11   8   74.46    6.43
  -4 -11  -8   78.34    5.81
  -3  11   1   16.89    2.76
  -3  11   1   15.76    3.53
   3 -11  -1   17.59    2.93
   3 -11  -1   13.77    2.70
  -5  -8   5   21.14    2.83
   5   8  -5   19.22    1.95
   5   8  -5   18.20    2.28
   5   8  -5   16.39    3.41
   5   8  -5   15.92    1.76
   5   8  -5   21.31    2.21
   5   8  -5   15.71    3.19
   6  10   5   79.51    5.90
   6  10   5   81.90    6.48
   6  10   5   89.19    5.86
   6  10   5   82.65    5.92
   6  10   5   73.51    6.06
   5  10   9   73.28    5.77
  -5 -10  -9   60.15    4.87
  -5 -10  -9   67.78    4.97
   5  10   9   60.70    4.58
   2  12   1    1.60    2.25
   2  12   1   -1.77    2.56
  -2 -12  -1    1.17    2.45
   2  12   1    2.22    1.31
   2  12   1    4.15    3.46
   2  12   1    1.46    2.72
  -6  -9  -9   14.76    2.36
   6   9   9    9.72    2.46
  -6  -9  -9   12.75    2.37
   6   9   9   13.96    3.52
   6   9   9    9.85    2.49
   3 -11  -3    5.92    2.14
  -3  11   3    1.37    3.20
  -3  11   3    7.24    2.47
   3 -11  -3    5.31    2.75
   0   8  13   24.81    3.53
   0   8  13   23.94    3.92
   0  -8 -13   24.03    3.09
   0   8  13   20.96    3.86
   0  -8 -13   21.25    2.96
   0  -8 -13   20.85    3.61
   5   4  -9   12.24    2.85
   5   4  -9    8.92    2.84
  -5  -4   9    9.84    1.61
  -5  -4   9   11.18    1.81
  -5  -4   9   10.85    2.63
   4  10  -3  105.10    7.28
   4  10  -3  104.39    6.82
   4  10  -3   93.07    6.55
   4  10  -3   94.62    7.21
   4  10  -3   96.38    6.73
   4  10  -3  100.90    6.49
   7   8   8  198.62   11.33
  -7  -8  -8  189.79   12.21
  -7  -8  -8  201.72   12.39
   7   8   8  180.89   11.74
   7   8   8  206.77   12.10
   7   8   8  175.68   11.84
   7   8   8  166.68   11.21
  -4  -6 -14  132.64    8.82
   4   6  14  142.45    8.33
  -4  -6 -14  133.19    8.66
   4   6  14  112.58    7.55
   6   9  -1   85.23    6.38
   6   9  -1   86.62    5.75
   6   9  -1  101.41    6.40
   6   9  -1   84.70    6.25
   6   9  -1   89.88    6.80
   3 -10   4    2.69    2.76
  -3  10  -4    2.75    2.61
  -3  10  -4    5.69    2.95
  -8   4   1    4.62    1.95
   8  -4  -1    2.61    1.79
   8  -4  -1    4.27    1.71
  -8   4   1    7.63    2.63
  -8   4   1    5.91    2.18
   7  -6  -3    4.26    2.09
  -7   6   3    5.53    2.32
   1   4  15   61.58    4.48
  -1  -4 -15   60.37    4.67
  -1  -4 -15   55.69    4.41
   1   4  15   63.05    4.60
   1   4  15   67.21    5.17
   4  -2 -12   43.76    3.73
  -4   2  12   38.67    3.63
  -4   2  12   39.86    3.11
  -3   6  12   40.76    3.99
  -3   6  12   33.01    3.25
   3  -6 -12   37.89    4.06
   3  -6 -12   29.74    2.28
  -9  -1  -3   35.38    3.46
   9   1   3   18.70    1.46
  -9  -1  -3   35.52    3.97
   9   1   3   15.42    1.39
  -7   6  -4   44.48    3.82
   7  -6   4   44.04    3.40
  -7   6  -4   44.47    4.11
   7  -6   4   46.10    3.26
  -7   6  -4   35.41    4.00
  -7   6  -4   40.91    3.83
   1   7  14   36.14    4.06
  -1  -7 -14   30.42    3.42
  -1  -7 -14   28.88    3.25
   1   7  14   24.04    3.79
   1   7  14   29.30    3.35
  -1  -7 -14   29.68    3.79
  -1  -3  13    2.55    2.70
   1   3 -13    8.07    2.92
   1   3 -13    4.89    2.99
  -1  -3  13    5.67    2.08
  -1  -3  13    3.37    2.36
  -6  -2 -13   55.56    4.67
  -6  -2 -13   49.46    4.11
   6   2  13   51.05    4.89
   6   2  13   58.27    4.60
   6   2  13   57.56    4.48
   6   2  13   55.98    4.18
   1  -2  14   35.15    3.32
   1  -2  14   31.67    3.55
  -1   2 -14   34.16    3.85
  -1   2 -14   33.05    4.14
   1  -2  14   29.25    3.29
   5   3  14   86.05    6.26
  -5  -3 -14   66.70    4.78
  -5  -3 -14   81.26    6.00
   5   3  14   87.19    5.91
   5   3  14   84.00    6.01
  -3  -3 -15    1.37    2.23
   3   3  15    5.28    1.94
   3   3  15    3.68    2.64
   3   3  15    1.92    2.10
  -3  -3 -15    3.54    2.33
   0  -5  12   86.04    6.11
   0  -5  12   77.27    5.73
   0   5 -12   74.20    5.71
  -4   6 -10  152.39    9.97
  -4   6 -10  170.33    9.61
  -7   3  -9   77.78    5.55
  -7   3  -9   79.05    5.95
  -7   3  -9   82.50    6.19
   7   8   0   98.70    7.03
   7   8   0  104.81    7.53
   7   8   0   97.80    6.47
   7   8   0  101.88    6.97
   7   8   0  105.36    6.92
   9   2   3   49.22    3.60
   9   2   3   83.45    4.79
  -9  -2  -3   71.63    5.77
   3  -1 -13   55.84    4.24
   3  -1 -13   60.16    4.42
  -3   1  13   55.28    4.05
  -3   1  13   57.67    4.59
  -2   5 -12    4.15    2.87
  -2   5 -12    3.90    2.43
  -2   5 -12    4.67    1.87
   2  -5  12   -0.33    2.72
  -4   1  12   73.86    4.76
  -4   1  12   67.04    5.37
   4  -1 -12   60.81    4.46
   4  -1 -12   76.53    5.03
  -2   7 -10    8.32    1.90
  -2   7 -10   11.81    2.65
  -2   7 -10    8.15    2.74
   6  10   3  102.20    7.36
   6  10   3  121.75    7.76
   6  10   3   88.62    7.50
   6  10   3  112.17    7.25
   6  10   3  110.20    7.03
   6  10   3  113.19    7.32
   6  10   3  107.11    7.35
  -5  -8 -12  105.21    7.43
   5   8  12  107.08    7.75
  -5  -8 -12  111.75    7.39
  -5  -8 -12   99.39    7.36
  -5  -8 -12  110.94    7.20
   5   8  12  112.31    7.65
   5   8  12  100.40    7.20
  -4   7  10   17.72    2.41
  -4   7  10   14.26    3.16
   4  -7 -10   17.21    3.48
   4  -7 -10   16.25    1.83
  -4   7  10   19.69    2.26
   4  -7 -10   20.74    2.69
   3  12   4  106.99    6.95
   3  12   4  111.44    8.01
   3  12   4  106.93    7.40
  -3 -12  -4  104.75    7.31
   3  12   4  106.27    7.22
   3  12   4  105.41    7.08
   3  12   4   95.98    7.74
  -2  -1 -15   17.45    3.24
   2   1  15   15.78    2.91
   2   1  15   23.54    2.84
  -2  -1 -15   16.44    2.72
   1 -12  -3   64.03    4.95
  -1  12   3   70.40    5.43
   1 -12  -3   52.88    4.26
   9   1   2   46.42    3.52
  -9  -1  -2   43.72    4.26
   9   1   2   31.13    2.57
  -9  -1  -2   39.55    3.51
  -2   6  13    4.34    2.36
  -2   6  13    4.22    2.85
   2  -6 -13    7.01    2.38
  -2   6  13    8.33    2.92
  -3   3  13  106.53    7.03
   3  -3 -13  116.59    7.45
   3  -3 -13  115.06    7.59
  -3   3  13  106.02    6.87
  -3   3  13  107.22    7.23
  -2   2 -14  106.95    7.27
   2  -2  14  112.67    7.44
  -2   2 -14  114.45    7.78
   2  -2  14  104.01    7.29
   2  -2  14  103.69    7.28
  -2   2 -14  111.63    8.03
   4   9  -5   76.50    6.25
  -4  -9   5   80.15    5.64
   4   9  -5   79.85    5.66
   4   9  -5   78.42    5.53
   4   9  -5   75.15    6.10
   4   9  -5   76.79    5.39
  -6   8  -2   53.04    4.71
   6  -8   2   58.00    4.52
  -6   8  -2   47.19    4.55
   1  -8   9   28.79    2.57
  -1   8  -9   41.31    4.00
  -1   8  -9   39.06    3.91
   8  -3   6   70.65    5.16
  -8   3  -6   75.10    5.14
  -8   3  -6   62.77    5.17
  -8   3  -6   62.37    4.72
  -8   3  -6   56.66    4.58
  -8   3  -6   56.71    4.27
   0   8  -9   33.19    3.67
   0   8  -9   39.27    3.79
   0  -8   9   30.97    2.79
  -9  -2  -4   40.43    4.22
   9   2   4   47.94    4.23
   6   4  13   62.62    4.93
  -6  -4 -13   69.23    5.26
   6   4  13   57.42    4.83
   6   4  13   62.68    5.26
   6   4  13   64.66    4.69
  -6  -4 -13   65.29    4.47
   1  12   0   60.63    5.06
  -1 -12   0   57.44    4.67
   1  12   0   60.26    4.78
  -1  12   2   54.06    4.55
   1 -12  -2   52.64    4.09
  -1  12   2   51.58    4.44
   1 -12  -2   48.58    4.52
   3  11  -2   20.04    2.63
   3  11  -2   25.86    3.44
   3  11  -2   22.74    3.23
   3  11  -2   17.13    2.37
   3  11  -2   19.18    2.20
   3  11  -2   17.48    2.58
   3  11  -2   21.13    3.37
   3   2  15   27.69    2.77
  -3  -2 -15   29.80    3.26
   3   2  15   31.56    3.13
   3   2  15   32.93    3.50
   3   2  15   27.99    2.67
   5   2  14   96.88    6.86
   5   2  14  105.02    7.17
  -5  -2 -14  114.97    7.10
   5   2  14  105.91    6.77
  -5  -2 -14   83.60    5.87
   3  12   3  124.84    8.60
   3  12   3  119.65    8.85
   3  12   3  135.28    8.08
  -3 -12  -3  128.40    8.67
   3  12   3  135.35    8.41
   3  12   3  133.18    8.98
   3  12   3  122.35    8.31
   3  12   3  108.17    8.46
   9   1   4   30.69    3.36
  -9  -1  -4   37.50    3.68
  -9  -1  -4   34.44    3.64
  -9  -1  -4   37.68    4.04
   1   1  15    0.07    2.29
  -1  -1 -15    6.31    2.98
   1   1  15    1.79    2.35
  -1  -1 -15    1.00    2.14
   0  12   6   -1.25    2.30
   0  12   6    0.28    1.22
  -2  -2  13   66.45    4.85
   2   2 -13   62.72    4.82
   2   2 -13   64.14    5.25
  -2  -2  13   64.56    5.17
   2   2 -13   58.51    4.41
  -2  -2  13   60.76    4.58
  -2  -2  13   56.37    4.40
  -9  -2  -2   66.72    4.85
  -9  -2  -2   57.68    4.06
   9   2   2   76.26    4.78
  -9  -2  -2   63.34    5.13
   9   2   2   51.82    3.92
  -2 -11   3   39.37    3.98
   2  11  -3   34.88    3.43
   2  11  -3   34.22    3.93
   2  11  -3   37.23    2.89
   2  11  -3   38.98    3.40
   2  11  -3   30.32    3.70
   2  11  -3   40.76    4.08
  -4   4 -12   -2.43    3.01
   4  -4  12    3.55    2.50
  -4   4 -12    3.24    2.23
  -4   4 -12    1.47    2.05
  -8   3   3   34.44    3.40
  -8   3   3   36.86    3.65
  -8   3   3   28.95    2.93
  -8   3   3   30.48    2.70
   8  -3  -3   35.10    3.11
   4  -8  -9    2.51    1.33
   4  -8  -9    2.22    2.27
   4  -8  -9    2.25    3.23
  -4   8   9    4.73    2.24
  -4   8   9    3.75    1.89
  -4   8   9    3.08    1.71
  -4   8   9    3.98    2.98
   3   7  14   64.25    4.25
  -3  -7 -14   67.77    5.43
  -3  -7 -14   78.01    5.79
  -3  -7 -14   73.44    5.48
  -3  -7 -14   70.65    5.44
   3   7  14   64.17    4.38
   3   7  14   70.06    4.71
  -5   6  -9  107.59    6.18
  -5   6  -9   82.54    5.92
  -5   6  -9   88.32    6.48
  -5   6  -9   93.49    6.67
   3  12   5  167.45   10.30
   3  12   5  155.97   10.46
   3  12   5  166.62   10.64
   3  12   5  159.78   11.10
   3  12   5  161.81   11.21
   3  12   5  159.11   10.28
  -3 -12  -5  161.12   10.54
   3  12   5  172.37   10.65
   5  11   4   70.95    5.23
   5  11   4   73.16    5.46
   5  11   4   70.83    5.30
   5  11   4   76.20    5.49
   5  11   4   75.19    5.59
   5  11   4   64.15    5.79
   5  11   4   72.26    5.21
   5  11   4   71.13    5.66
   4 -10   2   27.15    3.30
   4 -10   2   29.96    3.48
  -4  10  -2   30.10    4.08
  -4  10  -2   35.61    3.38
   6  10   6  197.67   11.45
   6  10   6  178.58   11.23
   6  10   6  204.78   11.78
   6  10   6  157.32   11.36
   6  10   6  172.04   11.77
   6  10   6  164.36   11.31
  -7   5   5   59.12    4.65
  -7   5   5   64.41    4.56
  -7   5   5   56.91    4.25
   7  -5  -5   58.85    4.48
   0  10  11    6.21    2.63
   0 -10 -11    2.45    3.12
   0 -10 -11    3.02    2.54
   0  10  11    5.84    2.37
   5   4  14    5.47    2.43
  -5  -4 -14    4.88    3.05
  -5  -4 -14    8.29    1.93
   5   4  14    8.85    2.26
  -5  -4 -14    8.39    2.51
  -8   4  -4   52.78    4.36
  -8   4  -4   45.23    3.73
   8  -4   4   43.83    3.12
  -8   4  -4   52.62    4.09
   8  -4   4   29.65    2.25
  -8   4  -4   49.33    3.99
   0  12   0  128.50    8.37
   0 -12   0  128.43    8.41
   0  12   0  118.14    8.77
   0  12   0  116.73    8.11
   0 -12   0  122.74    8.55
   7  -4  -6   30.34    3.46
  -7   4   6   29.77    2.97
  -7   4   6   25.44    2.89
  -7   4   6   22.25    2.28
   8   6   0   96.37    5.57
   8   6   0   68.14    4.87
   8   6   0   87.10    6.31
   8   6   0   96.66    5.65
   8   6   0   69.19    4.85
   8   6   0   95.05    5.91
  -8  -6   0   87.65    6.49
  -3  -4 -15   -0.28    2.33
   3   4  15    6.39    2.86
   3   4  15    0.90    2.04
   3   4  15    1.74    1.93
  -3  -4 -15    2.78    2.36
   7   1  -7  115.93    8.11
  -7  -1   7  104.56    6.66
  -7  -1   7   85.02    5.98
   7  -2  -7   -0.07    2.56
   7  -2  -7    1.90    2.52
  -7   2   7    1.53    0.76
  -7   2   7    0.94    2.01
  -7   2   7    4.43    2.31
   1 -12  -4   82.84    5.90
   1 -12  -4  106.15    6.81
  -1  12   4   95.68    6.80
  -7   2 -10   78.63    6.16
  -7   2 -10   76.65    5.92
  -3  11   0   40.97    3.76
   3 -11   0   39.95    3.91
   3 -11   0   38.75    3.81
  -3  11   0   34.84    4.32
  -7   4  -8   66.04    5.06
  -7   4  -8   50.11    4.80
  -7   4  -8   58.21    4.42
   8   7   4  120.84    7.08
  -8  -7  -4  107.38    6.67
  -8  -7  -4   92.17    7.46
   8   7   4  103.47    7.46
  -8  -7  -4  102.45    6.96
   8   7   4  101.54    6.96
   8   7   4   95.88    7.52
  -4   3  12    0.76    2.16
  -4   3  12   -1.14    1.91
   4  -3 -12   -3.24    2.09
   5  11   5  125.92    7.90
  -5 -11  -5  101.29    7.04
   5  11   5  121.13    7.94
   5  11   5  118.04    8.21
   5  11   5  125.99    8.51
   5  11   5  122.48    8.09
   5  11   5  120.30    7.99
   5  11   5  108.19    7.97
   5  11   5  109.54    7.85
  -5   3 -12   29.27    2.81
   5  -3  12   36.13    3.66
  -5   3 -12   34.80    3.52
  -6   6   7   30.44    2.94
  -6   6   7   36.93    3.58
  -6   6   7   30.82    3.00
   6  -6  -7   33.37    3.76
   6  -6  -7   26.92    3.04
  -5  -9 -11   16.94    2.71
   5   9  11   18.27    3.70
   5   9  11   11.44    2.83
   5   9  11   13.04    3.33
  -5  -9 -11   16.60    2.74
   5   9  11   13.29    2.10
   8   2  -4  137.46    8.92
   8   2  -4  121.39    8.33
  -8  -2   4  116.10    8.04
  -8  -2   4  126.17    8.10
  -8  -2   4  127.45    8.41
   8   0   9   16.72    3.08
  -8   0  -9   18.76    3.39
  -8   0  -9   18.06    3.35
   3 -11  -4    8.72    2.77
  -3  11   4    7.39    3.34
   3 -11  -4    5.21    2.03
  -3  11   4    7.98    2.61
  -9   0  -3    4.03    2.80
   9   0   3    2.91    0.67
   9   0   3    1.83    0.68
  -9   0  -3    5.76    2.37
  -9   0  -3    2.83    2.28
   6  -8  -3   14.36    2.61
   9   0   2   21.46    2.61
   9   0   2   11.40    1.46
  -9   0  -2   20.53    2.67
  -9   0  -2   21.39    3.29
  -6  -1   9    5.50    2.51
   6   1  -9    4.63    2.56
  -6  -1   9    4.24    1.19
  -2  -4  12   15.18    2.30
  -2  -4  12    9.52    2.62
  -2  -4  12   13.30    3.09
   2   4 -12   13.80    2.71
   2   4 -12   13.72    2.85
   2   4 -12   16.45    3.31
   4   9  12    1.85    0.92
   4   9  12    8.01    3.52
  -4  -9 -12    3.38    2.40
   4   9  12    3.94    2.87
  -4  -9 -12    5.28    2.32
   4   9  12    3.08    2.85
  -4  -9 -12    1.68    2.83
   8   7   5  121.25    8.18
   8   7   5  125.51    8.49
  -8  -7  -5  134.41    8.42
   8   7   5  113.98    8.55
   8   7   5  132.16    7.98
  -8  -7  -5  125.45    9.18
  -8  -7  -5  134.34    8.69
  -2  11   7   53.05    3.92
   2 -11  -7   58.80    4.93
  -2  11   7   63.08    4.23
   1   7 -10   27.54    3.13
   1   7 -10   22.54    2.81
  -1  -7  10   26.88    3.49
  -1  -7  10   22.64    2.74
   2   9  -7   43.33    4.30
   2   9  -7   44.02    3.91
  -2  -9   7   39.98    3.40
   2   9  -7   43.37    3.69
  -2  -9   7   46.75    4.33
   5  11   3    1.30    2.27
   5  11   3    3.77    2.10
   5  11   3   -1.41    2.74
   5  11   3    0.06    1.96
   5  11   3   -3.66    2.95
   5  11   3   -1.77    2.77
   5  11   3    1.23    2.28
   5  11   3    1.99    2.38
  -4  10   5   37.26    3.74
   4 -10  -5   41.76    3.96
  -2  -5 -15   53.01    4.13
   2   5  15   55.18    4.01
   2   5  15   42.90    4.37
   2   5  15   43.18    3.37
  -2  -5 -15   44.44    4.15
   0  10  -6    8.76    2.53
   0  10  -6    7.08    2.72
   0 -10   6   11.59    1.64
   0 -10   6   10.24    3.00
   9   1   1   32.31    3.41
  -9  -1  -1   32.09    3.74
  -9  -1  -1   30.60    3.26
   1  12   7   54.65    4.55
  -1 -12  -7   58.17    5.01
   1  12   7   51.52    4.49
   8   7   3   90.62    7.00
   8   7   3  104.63    6.67
   8   7   3   98.88    6.49
   8   7   3   99.71    7.07
  -8  -7  -3  117.53    8.26
  -6   4 -10   59.73    5.01
  -6   4 -10   56.65    4.63
  -6   4 -10   52.27    3.58
  -9  -3  -3   70.26    4.99
   9   3   3   63.86    4.44
  -9  -3  -3   74.95    5.66
   9   3   3   76.97    5.29
  -9  -3  -3   63.92    4.63
  -9  -3  -3   79.74    5.39
  -6   3   9  100.56    6.54
  -6   3   9  103.16    6.93
   6  -3  -9  107.06    7.26
  -1  -1  14   53.11    4.36
  -1  -1  14   54.92    4.56
   1   1 -14   56.72    4.39
   1 -12  -1   17.98    2.78
   1 -12  -1   20.52    3.10
  -1  12   1   19.05    3.07
  -1  12   1   17.96    2.93
  -4   0  12   65.57    4.42
   4   0 -12   59.29    4.37
   4   0 -12   77.64    5.04
   9   3   4   64.67    4.29
   9   3   4   59.99    3.68
  -9  -3  -4   59.47    4.44
  -9  -3  -4   64.98    5.41
  -9  -3  -4   72.49    4.87
   1   6 -11   38.26    3.78
   1   6 -11   40.10    3.98
  -1  -6  11   46.53    4.27
  -1  -6  11   41.17    3.72
  -6   5   8    6.41    1.32
  -6   5   8    5.44    1.84
  -6   5   8    6.34    2.09
  -6   5   8    9.61    2.53
   6  -5  -8    9.38    3.04
  -4  -8 -13   38.69    3.70
  -4  -8 -13   38.06    3.55
   4   8  13   38.51    3.88
   4   8  13   35.00    3.96
  -4  -8 -13   35.85    3.68
  -4  -8 -13   34.82    3.88
  -8   2   4   36.79    3.30
  -8   2   4   28.28    2.30
  -8   2   4   24.20    2.11
   8  -2  -4   34.32    3.19
  -8   2   4   35.40    3.41
   9   2   5   18.82    3.01
  -9  -2  -5   22.24    3.17
  -9  -2  -5   29.75    3.72
   6  10   2  129.90    8.59
   6  10   2  118.70    8.10
   6  10   2  141.53    8.02
   6  10   2  109.03    7.68
   6  10   2  132.33    8.32
   6  10   2  120.95    8.29
   6  10   2  126.75    8.25
   6  10   2  148.74    8.70
   2  12   7  111.77    7.48
  -2 -12  -7  141.72    9.54
   2  12   7  111.96    8.52
   2  12   7  110.75    7.86
   2  12   7  124.92    7.90
   2  12   7  116.51    7.87
   5  -8  -7   45.44    3.97
  -5   8   7   54.66    4.12
  -5   8   7   45.96    3.58
   6   1  13   25.52    3.60
  -6  -1 -13   19.59    3.82
  -6  -1 -13   21.12    2.86
   6   1  13   26.55    3.20
  -6  -1 -13   18.95    3.48
   0   3  15   58.48    4.03
   0   3  15   58.76    4.68
   0  -3 -15   52.02    4.12
   0   3  15   55.29    4.33
   0  -3 -15   56.59    4.45
   3  12   2  144.14    9.39
   3  12   2  135.73    9.09
   3  12   2  133.32    8.55
  -3 -12  -2  132.76    8.90
   3  12   2  129.71    8.90
   3  12   2  141.00    9.15
   3  12   2  120.55    9.41
   3  12   2  145.27    8.93
  -5   9  -3   63.88    5.48
  -5   9  -3   61.05    4.71
  -5   9  -3   71.62    5.53
   5  -9   3   65.47    4.97
   1  -4  13   55.30    4.57
  -1   4 -13   49.45    4.19
   1  -4  13   49.40    4.23
  -1   4 -13   32.20    2.59
   6   6  -6   29.28    3.74
  -6  -6   6   25.00    3.24
   0   2  15   59.30    4.40
   0   2  15   51.73    4.37
   0  -2 -15   51.09    4.14
   0   2  15   53.04    3.63
   0  -2 -15   42.93    3.66
   7   7  10   32.19    3.96
   7   7  10   32.89    3.40
  -7  -7 -10   31.00    3.12
   7   7  10   30.16    3.92
  -7  -7 -10   30.73    3.36
  -5  -7 -13   27.25    3.28
  -5  -7 -13   36.61    3.14
  -5  -7 -13   33.26    3.66
  -5  -7 -13   30.04    3.44
   5   7  13   30.39    4.09
   5   7  13   35.95    3.84
  -5   5  10   84.15    5.27
   5  -5 -10   81.85    5.72
   5  -5 -10   92.36    6.67
  -5   5  10   74.13    5.50
  -5   5  10   69.03    5.74
   2  -2 -14   21.01    2.67
  -2   2  14   24.58    2.76
   3   0 -13    4.58    1.83
   3   0 -13    4.80    2.97
  -3   0  13    6.68    1.76
   3   0 -13    4.72    2.22
   9   0   4    4.51    2.37
  -9   0  -4    1.95    2.28
  -9   0  -4   -0.10    2.74
  -9   0  -4    1.12    2.38
  -9  -2  -1   46.33    3.48
   9   2   1   60.19    4.40
  -9  -2  -1   59.77    3.99
   9   2   1   47.46    3.65
  -9  -2  -1   53.64    4.69
  -9  -2  -1   67.22    4.51
   9   1   5   17.91    2.85
  -9  -1  -5   19.43    3.18
  -9  -1  -5   19.45    3.38
  -9  -1  -5   17.58    2.85
   0  -2  14    8.34    2.26
   0   2 -14   11.63    3.22
   0  -2  14    6.20    2.24
   0   2 -14    4.97    2.99
   0  -2  14    5.99    2.66
  -3 -12  -6  140.73    9.36
   3  12   6  127.22    9.73
   3  12   6  142.61    8.93
   3  12   6  139.32    9.04
   3  12   6  139.59    9.28
   3  12   6  144.09    9.35
   3  12   6  154.36   10.10
  -2 -11 -10    1.77    2.46
   2  11  10    5.07    3.56
   2  11  10    1.75    2.36
  -5 -11  -6   81.50    5.94
   5  11   6   78.87    5.55
   5  11   6   77.84    5.56
   5  11   6   75.16    6.26
   5  11   6   69.84    5.47
   5  11   6   71.94    5.54
   8   6   8    3.76    2.69
   8   6   8    3.20    2.90
   8   6   8    3.72    1.40
  -8  -6  -8    3.83    2.38
  -8  -6  -8    5.06    1.92
  -8  -6  -8    0.80    3.20
   8   5   9   70.71    5.33
  -8  -5  -9   59.13    4.89
  -8  -5  -9   64.77    4.72
   8   5   9   63.23    4.50
   4   3 -11    0.08    1.15
   4   3 -11    0.87    2.77
  -4  -3  11    1.73    1.21
  -4  -3  11    1.01    1.80
  -4  -3  11   -2.84    2.52
   4   3 -11   -0.16    2.39
   7   9   4    4.71    2.42
   7   9   4    2.77    2.96
   7   9   4    3.06    2.23
   7   9   4    3.75    2.50
   7   9   4    7.98    2.77
   7   9   4    0.17    2.73
   9   0   1   -0.94    2.33
  -9   0  -1    2.94    2.01
  -9   0  -1    1.52    2.62
  -9  -3  -2   42.17    3.21
   9   3   2   57.92    4.21
  -9  -3  -2   46.93    3.69
   9   3   2   42.39    3.38
  -9  -3  -2   46.04    4.37
  -1  -5 -15   25.11    2.93
   1   5  15   22.85    3.45
   1   5  15   28.19    2.96
  -1  -5 -15   27.95    3.18
  -8   4   2   -0.45    1.85
  -8   4   2    2.29    2.58
   8  -4  -2    0.23    1.66
   8  -4  -2   -1.02    1.84
  -8   4   2    0.32    1.98
  -6   3 -11   75.08    6.18
  -6   3 -11   78.81    5.86
   3   1  15   87.48    6.56
   3   1  15   91.98    6.01
  -3  -1 -15   96.02    7.00
   3   1  15   97.40    6.65
   3   1  15   90.20    6.42
   4  -6 -11   83.98    5.49
   4  -6 -11   86.85    6.70
  -4   6  11   75.75    5.65
  -4   6  11   78.74    6.16
  -4   6  11   88.24    5.67
   3  -4 -13   24.27    2.31
  -3   4  13   23.71    2.78
  -3   4  13   18.35    2.75
   3  -4 -13   19.09    2.66
  -3   4  13   19.87    2.55
  -2   3  14   34.65    2.82
  -2   3  14   39.32    3.44
   2  -3 -14   41.70    3.75
   7   9   5    3.98    2.75
   7   9   5    6.60    2.20
   7   9   5   -0.84    2.43
   7   9   5    1.96    2.73
   7   9   5    1.45    2.67
   7   9   5    5.31    3.19
  -5  -1 -14   51.24    4.81
   5   1  14   44.83    3.51
  -5  -1 -14   53.25    4.50
   5   1  14   48.71    4.22
  -4   7  -9   81.52    5.56
  -4   7  -9   68.54    5.50
  -4   7  -9   78.12    5.91
  -4   7  -9   84.82    6.13
   4  -7   9   76.59    5.89
  -6   5  -9   47.60    4.57
  -6   5  -9   48.69    3.71
  -6   5  -9   48.37    3.40
  -6   5  -9   49.06    4.28
  -1  10  -6   -0.17    2.72
  -1  10  -6   -0.17    2.29
  -1  10  -6   -0.57    2.65
   1 -10   6    4.19    2.90
   1 -10   6    0.17    1.11
   1 -12  -5   80.49    5.92
   1 -12  -5   70.91    4.92
  -6  -8 -11   66.12    4.73
  -6  -8 -11   65.17    5.03
   6   8  11   72.27    5.36
   6   8  11   59.26    5.29
   6   8  11   67.30    4.92
  -6  -5   7   51.26    4.07
  -6  -5   7   38.08    3.26
   6   5  -7   50.97    4.74
   6   5  -7   54.09    4.43
  -1 -11 -10   99.86    7.16
   1  11  10   96.09    7.40
   1  11  10   98.51    6.87
  -2 -12   0    0.88    2.44
   2  12   0    2.52    2.39
   4  -1  14   22.94    3.01
   4  -1  14   16.17    2.96
   4  -1  14   16.75    2.81
  -4   1 -14   23.51    3.18
  -4   1 -14   21.60    3.09
  -4   1 -14   20.59    3.91
   8   4  -3    0.80    3.09
  -8  -4   3    3.44    2.19
  -8  -4   3    2.02    2.31
  -8  -7  -6   67.35    5.10
   8   7   6   60.20    5.00
   8   7   6   62.20    5.27
  -8  -7  -6   65.73    4.79
  -8  -7  -6   73.14    5.83
   8   7   6   71.59    5.51
   8   7   6   66.63    4.54
  -6  -5 -13  106.57    7.41
   6   5  13  107.24    7.23
  -6  -5 -13  101.01    6.84
  -6  -5 -13   99.49    6.77
  -6  -5 -13   89.76    6.15
   6   5  13  115.66    7.44
   6   5  13   93.09    7.57
  -9  -3  -5   77.33    5.37
   9   3   5   77.96    5.95
  -9  -3  -5   85.73    6.28
   9   3   5   82.64    5.65
   2  -4  13    9.70    2.90
  -2   4 -13    7.63    1.97
   2  -4  13    9.44    2.46
  -2   4 -13   11.32    3.16
  -2   4 -13    9.64    2.57
  -7  -6 -11    7.81    2.19
   7   6  11    6.48    2.85
   7   6  11    8.46    2.47
   7   6  11    8.20    3.17
  -7  -6 -11   11.13    3.49
  -7  -6 -11    9.17    2.29
  -7  -6 -11    9.36    2.55
  -7  -6 -11    6.92    1.52
   0  11  -4    8.86    2.57
   0  11  -4    7.34    2.69
   0 -11   4    8.37    2.91
  -6 -10  -7   58.04    4.30
   6  10   7   62.73    5.45
   6  10   7   60.55    5.31
   6  10   7   47.47    4.50
  -6 -10  -7   48.42    4.23
   6  10   7   56.01    4.72
   6  10   7   55.31    4.35
   6  10   7   60.40    4.64
   8   5  -2   50.13    3.81
   8   5  -2   59.42    4.40
  -8  -5   2   58.90    4.84
  -8  -5   2   60.16    4.62
  -2   8  -9    5.07    2.77
  -2   8  -9    8.14    2.90
  -2   8  -9   11.16    2.70
   2  -8   9    8.90    1.64
   2  -8   9    8.78    3.10
  -1 -10   6  115.04    7.34
  -1 -10   6   95.61    6.47
   1  10  -6   94.34    7.23
   1  10  -6  105.10    7.31
  -7  -5   5   25.34    3.23
   7   5  -5   20.15    3.56
   7   5  -5   22.09    2.90
  -7  -5   5   20.25    2.50
   7   5  -5   15.21    2.67
   5  -9  -5   11.78    2.67
  -5   9   5   11.15    1.66
  -5   9   5   12.51    2.64
  -2   1  14    5.43    1.98
   2  -1 -14    4.24    2.02
   1   8  -9   36.99    3.50
   1   8  -9   29.93    2.73
  -1  -8   9   36.37    3.23
   8   7   2   66.24    5.62
  -8  -7  -2   77.74    6.02
   8   7   2   77.25    4.99
   8   7   2   67.38    6.01
   8   7   2   79.53    5.40
   8   7   2   77.60    5.70
   7   9   3   11.02    3.07
   7   9   3   12.26    2.79
   7   9   3   10.09    2.75
   7   9   3    8.53    2.40
   7   9   3    4.69    0.56
   7   9   3   14.45    2.50
   7   9   3    7.20    2.20
   7   9   3   11.28    2.48
  -5   8  -6   57.80    5.02
  -5   8  -6   56.52    4.23
   5  -8   6   47.91    4.39
  -5   8  -6   52.54    4.67
  -6   8  -3   78.20    5.70
  -6   8  -3   63.64    5.32
   6  -8   3   68.27    4.99
  -6   8  -3   66.36    5.59
   5   5  14   -1.28    2.56
  -5  -5 -14   -0.40    2.43
  -5  -5 -14    2.58    2.37
  -5  -5 -14   -0.20    1.84
   5   5  14   -0.28    2.17
   5  -1 -11   -0.60    2.14
  -5   1  11   -0.91    2.40
  -5   1  11    0.29    0.96
   7   3  12   44.45    4.57
   7   3  12   49.00    4.09
   7   3  12   53.85    4.32
  -7  -3 -12   43.91    4.60
   5  11   2   20.95    3.06
   5  11   2   16.25    2.48
   5  11   2   20.82    3.27
   5  11   2   19.27    2.80
   5  11   2   21.29    2.69
   5  11   2   13.83    3.10
   5  11   2   17.61    2.37
   5  11   2   13.63    3.07
   3   3 -12   68.31    4.97
  -3  -3  12   61.93    4.80
   3   3 -12   66.23    5.31
  -3  -3  12   56.74    4.35
   3   3 -12   59.29    4.36
   6   7  -5   32.01    2.77
   6   7  -5   33.26    3.71
  -6  -7   5   39.91    3.84
   6   7  12   13.82    3.37
   6   7  12   16.31    2.84
   6   7  12   17.01    3.16
  -6  -7 -12   14.18    2.56
  -6  -7 -12   13.05    2.70
  -6  -7 -12   13.64    2.12
  -3  -5 -15   41.18    3.79
   3   5  15   52.79    4.06
   3   5  15   42.40    3.61
  -3  -5 -15   48.28    3.97
   3   5  15   56.35    4.66
  -3  -5 -15   40.64    3.97
   0  -4 -15    6.99    2.40
   0   4  15    4.30    1.89
   0   4  15    5.97    2.69
   0  -4 -15    2.55    2.01
   5  -2 -11    6.81    2.25
  -5   2  11    5.71    2.40
  -5   2  11    9.05    1.57
  -5   2  11    5.95    1.54
  -6   7   6   27.81    2.79
  -6   7   6   33.91    3.10
   6  -7  -6   30.19    3.21
  -3   2 -14   44.47    4.66
  -3   2 -14   39.63    3.78
   3  -2  14   29.76    3.55
   3  -2  14   38.53    3.69
  -3   2 -14   44.45    4.21
   3 -11   1   31.43    3.76
  -3  11  -1   26.90    4.20
   3 -11   1   37.12    3.72
  -3  11  -1   38.95    3.67
   7   6  -4   16.05    2.78
   7   6  -4   17.78    2.87
  -7  -6   4   13.27    2.74
   7   6  -4   18.64    2.62
   4  11  -1  101.43    6.76
   4  11  -1  105.50    7.46
   4  11  -1  104.57    7.32
   4  11  -1  109.07    6.83
   4  11  -1  116.28    7.53
   4  11  -1   91.85    6.74
   4  11  -1   96.75    6.84
   4  11  -1  114.63    7.16
  -3  10   8   30.34    2.50
  -3  10   8   34.57    3.54
  -3  10   8   32.39    3.23
   3 -10  -8   31.29    3.48
   4   7  -8   11.92    3.07
   4   7  -8   16.32    1.95
   4   7  -8   12.50    2.08
  -4  -7   8   19.56    2.79
   2   0  15   31.70    3.23
   2   0  15   24.11    3.20
  -2   0 -15   27.71    3.64
   2   0  15   26.80    2.33
   0   7  14   97.19    6.93
   0   7  14   79.54    6.76
   0  -7 -14   65.17    5.43
   0  -7 -14   79.07    6.02
   0  -7 -14   82.37    5.72
   0   7  14   89.47    6.44
  -3   6 -11   47.90    3.99
  -3   6 -11   57.34    4.40
   3  -6  11   59.13    5.03
  -3   6 -11   53.32    4.79
  -7  -2 -12    7.77    3.48
  -7  -2 -12    0.31    3.00
   7   2  12    8.95    2.40
   7   2  12    7.53    3.17
   0   1  15   64.86    4.88
   0  -1 -15   50.59    4.17
   0  -1 -15   59.46    4.57
   0   1  15   59.01    4.66
   4   6  -9   61.90    4.20
   4   6  -9   62.57    4.38
  -4  -6   9   75.65    5.54
   4   6  -9   65.09    5.17
   2 -11   3   15.99    3.32
   2 -11   3   20.38    2.92
  -2  11  -3   21.83    3.29
   7  -6  -4   10.37    2.33
  -7   6   4   12.16    2.15
  -7   6   4   10.10    2.21
  -1   0 -15    5.72    2.99
   1   0  15    3.88    2.43
   1   0  15    7.75    2.56
   1   0  15    8.65    2.45
  -4   4  12    5.15    2.18
   4  -4 -12   -0.05    1.90
  -4   4  12    1.54    2.07
   0   4 -13   55.40    4.90
   0  -4  13   51.17    4.61
   0  -4  13   53.55    4.27
  -1   6  14  105.72    7.50
  -1   6  14  101.46    7.11
   1  -6 -14  103.88    7.20
  -7  -9  -6   25.53    2.76
   7   9   6   28.39    3.60
   7   9   6   28.71    3.05
   7   9   6   34.53    3.65
   7   9   6   36.63    3.77
   7   9   6   27.70    3.37
   7   9   6   32.03    4.06
   3 -11  -5   12.03    2.73
   3 -11  -5    5.06    1.86
  -3  11   5    7.23    2.66
  -8  -3 -10   45.29    4.63
   8   3  10   36.97    3.37
   8   3  10   47.92    4.03
   8   3  10   40.55    4.24
  -9  -1   0   46.19    4.12
  -9  -1   0   44.09    3.66
   9   1   0   56.81    4.54
  -9  -1   0   34.71    2.60
   1  11  -4   55.17    4.53
   1  11  -4   54.50    3.78
  -1 -11   4   68.02    5.50
   1  11  -4   57.83    4.87
  -3  -7   9   22.16    3.34
   3   7  -9   19.89    3.33
   3   7  -9   21.55    2.68
   3   7  -9   24.61    3.23
  -3  -7   9   18.31    2.66
  -9   1  -2    0.85    2.27
   9  -1   2   -0.70    1.14
   9  -1   2   -1.77    2.10
  -9   1  -2   -2.31    2.77
  -9   1  -2   -0.71    2.25
  -7   6  -5   33.17    3.96
  -7   6  -5   36.86    3.67
   7  -6   5   43.52    3.25
  -7   6  -5   40.00    3.79
  -7   6  -5   40.44    3.98
   7   2  -7   43.89    4.34
  -7  -2   7   33.23    2.96
  -7  -2   7   38.84    3.61
   2  -8 -12   58.59    4.90
   2  -8 -12   43.04    4.15
  -2   8  12   51.05    4.24
  -2   8  12   48.58    4.81
  -7   3   7    3.35    2.23
  -7   3   7    3.56    1.44
  -7   3   7   -0.63    2.22
   7  -3  -7    0.78    2.62
  -8  -2 -10    3.29    3.00
  -8  -2 -10    4.49    3.24
   8   2  10    2.43    2.79
   7  -1  11   63.30    5.29
  -7   1 -11   68.51    5.77
  -7   1 -11   65.21    5.52
  -7   1 -11   69.48    4.89
   4  -3  13   13.04    2.84
  -4   3 -13    6.53    3.33
  -4   3 -13   10.48    2.27
  -4   3 -13   11.11    2.61
   4  -3  13   11.82    2.75
   4  -3  13   12.98    2.74
  -2   9  11  106.26    7.87
   2  -9 -11  102.65    7.57
  -2   9  11  105.09    7.31
  -2   9  11  106.19    7.11
  -7   5  -7   50.53    4.48
  -7   5  -7   45.05    3.75
  -7   5  -7   52.28    4.40
   7  -5   7   48.61    3.76
  -7   5  -7   42.01    4.08
  -1  12   0    2.04    2.65
   1 -12   0    3.83    2.61
   1 -12   0    4.09    2.51
   0 -12  -7    0.73    2.72
   0  12   7    1.75    2.36
   1   5 -12   24.84    3.38
  -1  -5  12   35.88    3.27
  -1  -5  12   29.73    3.71
  -1  -5  12   27.06    3.06
  -4 -10 -11  139.47    9.12
   4  10  11  118.58    7.49
   4  10  11  139.43    7.95
  -4 -10 -11  134.35    9.10
  -8   4  -5   65.65    4.81
  -8   4  -5   66.30    5.06
  -8   4  -5   76.98    5.47
   8  -4   5   72.90    5.13
  -8   4  -5   69.81    5.15
  -9   1  -3    0.94    2.37
  -9   1  -3   -6.01    2.87
   9  -1   3    0.74    0.59
  -9   1  -3    0.78    2.25
   9  -1   3    0.64    2.14
  -9   0  -5    0.90    2.39
   9   0   5    2.27    2.36
  -9   0  -5    0.61    2.59
  -9   0  -5    0.59    2.84
   4  11   9   88.39    5.78
   4  11   9   89.49    6.39
  -4 -11  -9   89.52    6.52
  -6   7  -6   71.98    5.70
  -6   7  -6   69.98    5.45
  -6   7  -6   69.30    5.42
   6  -7   6   68.75    4.52
  -3   5 -12   32.42    3.14
   3  -5  12   36.21    3.90
  -3   5 -12   33.90    3.45
  -3   5 -12   40.07    4.14
  -7  -8  -9  105.03    7.78
   7   8   9  127.49    7.69
   7   8   9  105.02    8.36
  -7  -8  -9  124.19    7.71
  -4   9   8   44.85    3.83
  -4   9   8   43.20    3.39
   4  -9  -8   48.91    4.26
  -4   9   8   55.06    4.13
   9   2   6    8.19    2.49
  -9  -2  -6    4.97    2.82
   9   2   6    5.14    2.59
  -9  -2  -6    8.01    3.14
   1  12  -1   81.25    6.48
  -1 -12   1   73.59    5.62
   1  12  -1   94.67    6.32
  -2  -9 -13   45.18    4.57
   2   9  13   42.36    4.57
   2   9  13   46.76    5.02
  -2  -9 -13   50.02    4.50
  -2  -9 -13   52.65    4.43
   2   9  13   53.56    4.92
  -9  -3  -1   27.49    3.44
   9   3   1   27.23    3.24
  -9  -3  -1   23.53    2.64
   9   3   1   24.39    2.44
  -9  -3  -1   33.02    3.24
  -3  -6  10   66.87    5.18
   3   6 -10   61.87    4.55
   3   6 -10   57.04    4.87
  -3  -6  10   70.72    5.62
  -7  -4 -12   99.06    7.21
  -7  -4 -12  117.62    7.99
   7   4  12  110.67    7.33
   7   4  12   86.53    7.41
   7   4  12  110.17    7.11
   7   4  12  106.71    7.07
   3  12   1   99.78    6.91
   3  12   1  107.82    7.30
   3  12   1  101.97    7.06
   3  12   1  110.28    7.67
   3  12   1   96.08    6.53
   3  12   1  107.45    7.50
   3  12   1   95.71    7.05
  -8   2  -8   80.85    6.39
   8  -2   8   88.22    6.23
  -8   2  -8   77.43    5.99
   0 -12   1   50.75    4.46
   0  12  -1   55.04    4.82
   0 -12   1   51.08    4.52
   5   9  -4   30.24    4.27
   5   9  -4   42.65    3.39
   5   9  -4   38.76    4.02
   5   9  -4   36.56    2.84
   5   9  -4   36.00    3.30
   5   9  -4   32.05    2.96
  -5  -9   4   38.35    3.57
  -9   0   0   32.20    3.51
   9   0   0   32.50    3.31
  -9   0   0   26.73    2.72
  -9   0   0   24.70    3.10
   7  -7   0   18.38    2.60
  -7   7   0   23.73    3.30
  -2   4  14   46.72    3.74
   2  -4 -14   53.85    4.38
  -2   4  14   49.37    4.16
   6  -8  -4    2.21    2.37
  -6   8   4    6.31    2.32
  -5   7  -8   61.82    5.08
  -5   7  -8   60.03    4.46
  -5   7  -8   67.79    5.33
   5  -7   8   80.80    6.07
   0  -9   8   41.56    4.04
   0  -9   8   34.19    2.90
   0   9  -8   33.69    3.79
   0   9  -8   37.05    3.67
   0   9  -8   31.32    3.62
   5   0 -11   30.02    3.28
  -5   0  11   28.47    3.35
   7   8  -1   63.02    4.78
   7   8  -1   57.59    5.33
   7   8  -1   68.79    4.62
   7   8  -1   59.81    4.77
   7   8  -1   52.11    3.85
   5  11   7   77.77    5.71
   5  11   7   77.84    5.78
   5  11   7   77.06    6.40
  -5 -11  -7   79.19    5.83
   5  11   7   85.14    5.68
   5  11   7   75.54    5.69
  -9  -4  -4   43.56    3.42
   9   4   4   45.85    3.62
  -9  -4  -4   48.65    3.89
   9   4   4   41.20    3.09
  -9  -4  -4   50.68    4.50
   9   4   4   53.58    4.28
   6  10   1   67.16    5.24
   6  10   1   84.30    5.64
   6  10   1   73.41    5.25
   6  10   1   60.41    4.46
   6  10   1   71.98    5.02
   6  10   1   65.05    4.78
   6  10   1   75.74    5.78
   6  10   1   78.77    5.40
   3  11  10   33.49    3.64
   3  11  10   31.12    4.27
  -3 -11 -10   36.35    3.84
   5   3 -10   96.22    7.06
  -5  -3  10   79.51    5.68
  -5  -3  10   92.59    5.85
  -5  -3  10  101.87    6.48
   5   3 -10  100.14    7.02
  -8  -3   4   67.73    5.43
  -8  -3   4   63.62    4.92
  -8  -3   4   67.93    4.92
   8   3  -4   71.26    5.83
   8   3  -4   67.92    5.16
   4 -10   3   74.10    5.94
   4 -10   3   82.26    5.85
  -4  10  -3   86.38    6.15
  -9  -4  -3   30.17    2.88
  -9  -4  -3   24.43    2.29
   9   4   3   29.37    2.62
   9   4   3   33.26    2.79
  -9  -4  -3   29.20    3.56
   9   4   3   27.94    3.47
   9  -1   1    0.46    1.37
  -9   1  -1   -0.09    2.72
  -9   1  -1    1.91    2.09
   9  -1   1   -0.57    2.17
  -9   1  -1   -0.86    1.34
  -1  11   9    0.56    2.56
  -1  11   9   -0.08    2.35
   4   3  15   29.91    3.74
   4   3  15   27.23    3.01
  -4  -3 -15   33.73    3.62
   4   3  15   30.58    3.02
   4   3  15   34.00    3.08
   7   4  -6    2.57    3.05
  -7  -4   6   -0.63    1.86
  -7  -4   6   -2.40    2.67
   7   4  -6    3.42    2.37
  -7  -4   6    0.23    1.84
   7  -7   1   15.87    2.51
  -7   7  -1    9.05    2.72
  -7   7  -1   17.09    2.98
  -9  -2   0   86.28    5.76
   9   2   0   85.68    6.14
  -9  -2   0   71.90    5.26
  -9  -2   0   81.99    6.02
   5  10  -2   29.87    3.65
   5  10  -2   24.71    2.83
   5  10  -2   32.72    3.38
   5  10  -2   29.57    3.13
   5  10  -2   30.53    4.10
   5  10  -2   25.92    2.59
   5  10  -2   27.88    2.64
   1 -11   4    4.48    2.86
  -1  11  -4    1.07    2.61
  -1  11  -4    0.70    2.42
  -9  -1  -6   -0.15    2.41
  -9  -1  -6    2.06    3.03
   9   1   6    2.48    2.46
  -9  -1  -6    2.93    2.78
   1  -9 -12   53.58    4.55
  -1   9  12   58.66    4.83
   3  12   7   65.46    5.19
  -3 -12  -7   70.13    5.53
   3  12   7   74.16    6.16
   3  12   7   61.65    4.79
   3  12   7   65.56    5.21
   1  -9   8   -1.48    2.81
  -1   9  -8    1.57    2.62
  -1   9  -8    0.67    2.74
  -1   9  -8   -0.18    2.41
   1  -9   8   -0.67    1.45
   4   1 -12   39.20    3.55
   4   1 -12   27.94    2.56
   4   1 -12   39.97    4.02
  -3   9  -7   54.55    4.40
   3  -9   7   55.82    4.45
   3  -9   7   40.47    2.78
  -3   9  -7   61.88    4.13
   6   2  -9   29.63    3.69
  -6  -2   9   32.25    2.70
   6   2  -9   34.10    3.67
   7   9   2   41.64    3.84
   7   9   2   39.21    3.50
   7   9   2   40.13    3.92
   7   9   2   42.67    3.99
   7   9   2   40.56    3.60
   7   9   2   38.32    4.43
  -5   3  11   39.37    3.01
  -5   3  11   30.25    3.45
   5  -3 -11   35.08    3.28
  -3   8  11   68.10    4.79
   3  -8 -11   79.09    6.33
  -3   8  11   58.86    4.68
  -3   8  11   69.44    5.71
  -3   8  11   75.25    5.19
  -3   7 -10   62.08    5.28
  -3   7 -10   58.73    4.63
  -3   7 -10   71.15    5.08
  -9  -3  -6   41.74    3.57
   9   3   6   45.04    3.93
  -9  -3  -6   50.09    4.54
   9   3   6   45.44    4.26
   6   9  10   66.46    5.40
  -6  -9 -10   67.31    5.25
  -6  -9 -10   71.21    5.14
  -6  -9 -10   75.25    5.45
   6   9  10   52.69    4.46
  -5 -10 -10   65.05    5.03
   5  10  10   64.73    4.59
   5  10  10   63.30    5.65
  -5 -10 -10   65.50    5.01
   5  10  10   66.69    5.87
  -4  -7 -14   51.85    4.70
   4   7  14   56.71    4.22
   4   7  14   33.84    2.79
  -4  -7 -14   52.24    4.28
  -4  -7 -14   47.09    4.37
   5  -2  13   29.27    3.26
  -5   2 -13   23.46    2.44
  -5   2 -13   24.29    3.18
   5  -2  13   22.85    3.49
  -5   2 -13   25.34    3.36
   5  -2  13   26.83    3.30
  -8  -6   1   59.59    4.95
   8   6  -1   67.89    4.54
   8   6  -1   47.75    3.79
   8   6  -1   56.12    5.27
   8   6  -1   54.75    4.28
   8   6  -1   56.25    4.63
  -7   7   1   44.38    4.14
   7  -7  -1   37.72    3.54
   6   9  -2   39.42    4.04
   6   9  -2   41.27    3.16
   6   9  -2   47.31    3.87
   6   9  -2   38.07    3.85
  -9   1  -4   -0.58    2.55
   9  -1   4   -0.67    2.23
  -9   1  -4   -2.95    2.89
  -9   1  -4    0.86    2.29
   1   9  13   34.89    4.11
  -1  -9 -13   41.44    3.89
   1   9  13   28.80    4.32
  -1  -9 -13   34.65    3.81
  -1  -9 -13   33.06    4.10
   1   9  13   34.98    4.45
  -8   5  -1   27.78    3.71
   8  -5   1   27.93    2.64
  -8   5  -1   36.61    3.56
   8  -5   1   29.42    2.62
  -8   0   5    2.46    2.17
  -8   0   5    2.34    2.48
   8   0  -5    3.47    2.25
  -8  -7  -7   56.81    5.45
  -8  -7  -7   63.90    4.53
   8   7   7   59.31    4.00
   8   7   7   66.44    5.16
  -8  -7  -7   58.31    4.77
   8   7   7   55.82    4.88
  -8  -4 -10   91.24    6.80
   8   4  10   89.79    6.20
   8   4  10   73.07    6.13
   8   4  10   82.05    5.58
  -8  -4 -10   81.55    5.99
  -8   3  -7  144.16   10.47
   8  -3   7  173.55   10.99
  -8   3  -7  167.92   10.24
  -8   3  -7  160.72    9.91
  -8   3  -7  156.35   10.50
  -6   0 -13    8.24    3.07
  -6   0 -13   11.43    2.58
  -6   0 -13   10.10    3.64
   6   0  13   17.04    2.90
   2  10  12    7.84    3.21
   2  10  12   13.51    3.83
  -2 -10 -12    3.46    3.10
  -2 -10 -12   10.52    2.78
  -6  -4   8   39.28    3.77
  -6  -4   8   33.56    2.92
   6   4  -8   35.26    3.86
   6   4  -8   43.59    4.14
   4   8  -7   18.89    2.35
  -4  -8   7   20.58    2.71
   4   8  -7   22.73    2.45
  -8   1  -9   25.62    3.58
  -8   1  -9   21.75    3.64
   8   1  10    8.60    2.92
  -8  -1 -10    5.46    3.33
  -8  -1 -10    8.68    3.21
  -1  12   6   68.63    5.49
  -1  12   6   80.39    5.74
  -6   2 -12  127.11    9.65
  -6   2 -12  145.33   10.02
  -6   2 -12  159.37    9.48
   4   2  15   63.16    5.15
  -4  -2 -15   68.68    5.68
   4   2  15   64.34    5.22
   4   2  15   57.26    4.74
   4   2  15   63.65    4.62
   4   2  15   70.41    4.64
  -3  -8   8    8.68    2.24
   3   8  -8   10.75    2.99
   3   8  -8   10.20    2.26
   6  -4  -9   37.90    4.24
  -6   4   9   34.64    3.32
   6  -4  -9   36.91    3.48
  -7  -1 -12    3.53    3.35
   7   1  12    4.01    2.37
   7   1  12    0.74    2.93
  -7  -1 -12    0.10    2.88
   9   4   5  138.77    9.12
  -9  -4  -5  135.02    9.00
  -9  -4  -5  125.48    8.46
  -9  -4  -5  128.72    8.19
   9   4   5  134.71    8.75
  -4  -4 -15    5.06    2.44
  -4  -4 -15    0.17    2.04
   4   4  15    1.23    2.87
   4   4  15    1.57    2.15
   4   4  15    4.37    2.01
  -4  -4 -15    2.88    2.49
   2   6  15   35.67    3.47
  -2  -6 -15   31.66    3.45
  -2  -6 -15   33.34    3.49
   2   6  15   26.27    3.97
  -2  -6 -15   39.05    3.69
   3  10  -5    2.61    2.97
   3  10  -5    0.75    2.32
   3  10  -5    2.29    2.21
  -3 -10   5   -1.72    2.79
   3  10  -5    1.83    2.11
  -3 -10   5   -3.14    2.02
   4 -10  -6   49.65    4.33
  -4  10   6   35.73    2.68
  -4  10   6   47.75    3.88
  -6   6  -8    9.16    2.73
  -6   6  -8   14.10    3.25
  -6   6  -8   13.03    2.07
  -6   6  -8   12.20    2.73
  -6   6  -8   13.44    1.78
  -2   0  14   30.21    3.34
   2   0 -14   33.42    3.23
   2   0 -14   38.04    3.37
  -2   0  14   26.76    2.78
   2   0 -14   30.28    4.13
  -8   3   4   42.08    3.28
  -8   3   4   46.76    4.01
  -8   3   4   53.91    4.28
  -8   3   4   46.89    3.51
   4   5 -10   35.84    2.61
   4   5 -10   58.93    4.18
  -4  -5  10   60.42    4.82
  -3  -1  13    5.28    2.13
  -3  -1  13    0.84    2.37
   3   1 -13   -0.07    2.21
   3   1 -13    2.45    2.99
  -3  -1  13    3.55    1.77
   3   1 -13    0.89    1.68
   8   7   1   38.84    3.59
   8   7   1   34.49    2.58
   8   7   1   37.50    4.40
   8   7   1   30.68    2.59
   8   7   1   34.82    3.78
  -8  -7  -1   44.40    4.31
   8   7   1   43.00    3.53
  -1 -12  -8  101.75    7.31
   1  12   8   96.91    6.87
   8  -5   2   42.61    3.28
  -8   5  -2   41.57    4.18
  -8   5  -2   36.05    3.93
   8  -5   2   40.15    3.27
  -8   5  -2   46.55    3.75
  -2 -12  -8  115.90    8.15
   2  12   8  111.38    7.56
   2  12   8  104.20    7.50
   8  -5   0   52.57    4.12
   8  -5   0   57.52    3.97
  -8   5   0   64.57    5.33
  -8   5   0   66.18    5.02
   7   7  -3   24.80    2.71
  -7  -7   3   30.71    3.53
   7   7  -3   20.44    3.92
   7   7  -3   30.56    3.18
   7   7  -3   22.83    3.10
  -9  -4  -2   32.04    3.73
  -9  -4  -2   30.52    2.92
   9   4   2   30.71    2.74
  -9  -4  -2   28.27    2.31
   9   4   2   30.47    3.43
   0  11  10   21.17    3.27
   0  11  10   23.79    3.09
   0 -11 -10   18.40    3.12
   3 -10   5   34.19    3.94
  -3  10  -5   23.88    3.77
  -3  10  -5   29.89    3.43
  -1   8  13    1.03    2.65
   1  -8 -13    0.41    2.50
   1  -8 -13    3.32    2.48
   8  -1  -5    7.84    2.26
  -8   1   5    9.39    2.74
  -8   1   5    7.56    2.36
   5  11   1    7.79    3.17
   5  11   1   15.00    2.51
   5  11   1   11.26    3.25
   5  11   1   15.17    2.87
   5  11   1   15.83    2.18
   5  11   1   14.92    2.65
   5  11   1   18.26    3.21
   5  11   1   14.82    2.36
   7   9   7   10.15    3.45
   7   9   7    8.84    2.87
   7   9   7    7.54    3.29
   7   9   7    8.79    2.62
   7   9   7    8.05    2.20
  -7  -9  -7    7.79    2.20
   7   9   7    2.36    2.75
  -3  -9 -13   25.60    3.75
  -3  -9 -13   32.89    3.53
   3   9  13   29.16    3.95
   3   9  13   25.95    3.62
   7  -7   2   27.78    2.88
  -7   7  -2   32.03    3.65
  -7   7  -2   30.22    3.57
  -3   0 -15   73.70    6.42
  -3   0 -15   73.43    5.89
   3   0  15   70.77    5.66
   3   0  15   73.77    5.63
   3   0  15   80.64    5.80
   3   0  15   76.73    4.95
  -3   0 -15   79.83    5.74
  -5  -6   8   -1.25    2.40
   5   6  -8    1.00    2.92
   8   1  -5   71.86    5.91
  -8  -1   5   75.12    5.20
  -8  -1   5   62.94    4.69
   0  -5 -15   14.07    2.75
   0   5  15   14.65    2.39
   0   5  15   15.29    3.09
  -4   9  -6   55.25    4.36
   4  -9   6   45.94    4.39
  -4   9  -6   46.43    4.54
   5   0  14   -1.38    2.83
   5   0  14    4.58    2.57
  -5   0 -14    0.30    2.52
  -5   0 -14    1.32    2.76
   5   0  14    3.92    2.34
  -3   9  10   15.37    2.78
   3  -9 -10   10.63    2.69
  -3   9  10   13.72    1.99
   3  -9 -10   14.24    3.59
  -3   9  10   10.40    2.35
  -2  -8 -14   11.41    2.80
  -2  -8 -14    7.19    2.73
  -2  -8 -14   11.72    3.23
   2   8  14   15.47    3.64
   2   8  14   13.05    2.92
   2   8  14   12.05    3.49
  -1 -10 -12   31.21    3.56
   1  10  12   26.86    3.90
   1  10  12   18.99    3.13
  -1 -10 -12   22.81    3.72
  -1 -10 -12   25.55    3.42
   1  10  12   31.91    4.33
  -8   4   3   -0.78    1.68
   8  -4  -3    0.76    1.97
  -8   4   3    2.83    1.98
  -8   4   3    1.45    2.59
  -8   4   3    3.05    1.97
   6  10   8   19.55    3.08
   6  10   8   27.13    3.97
   6  10   8   18.31    3.84
  -6 -10  -8   21.97    2.76
   6  10   8   20.49    2.97
   6  10   8   15.25    2.46
  -6 -10  -8   19.49    2.76
   6  10   8   15.21    2.81
   5   7  -7   12.22    3.18
  -5  -7   7   13.21    2.56
   5   7  -7    8.49    3.24
   5   7  -7   13.13    1.86
  -5   9  -4   57.72    4.19
   5  -9   4   43.36    4.29
   5  -9   4   50.58    4.07
  -5   9  -4   47.76    4.93
  -5   9  -4   49.71    4.62
  -3   5  13    1.98    2.18
  -3   5  13    4.05    2.64
   3  -5 -13    1.38    1.43
  -2  10  -6   36.89    4.01
   2 -10   6   36.85    4.18
  -2  10  -6   45.43    4.08
  -2  10  -6   38.75    4.18
  -6  -8   4    4.65    2.45
   6   8  -4    6.13    2.89
   6   8  -4    5.54    2.01
   6   8  -4    2.80    3.23
   6   8  -4    1.62    2.44
  -9   1   0   10.78    1.55
   9  -1   0   21.89    2.78
  -9   1   0   17.33    2.27
  -9   1   0   13.61    3.00
   3  -4  13   -0.99    2.70
  -3   4 -13   -1.78    3.06
  -3   4 -13   -0.26    2.31
  -3   4 -13    1.24    2.15
   3  11  -3   -0.15    1.52
   3  11  -3   -3.69    2.95
   3  11  -3    4.54    2.83
   3  11  -3   -1.45    2.13
   3  11  -3   -1.19    1.76
   1   6  15    4.68    2.29
  -1  -6 -15    6.91    2.52
   1   6  15    2.97    2.90
  -3  -5  11   38.81    3.31
  -3  -5  11   42.34    4.22
   3   5 -11   35.40    3.53
   3   5 -11   39.27    3.75
  -3  -5  11   37.15    3.74
   0   0  15   24.79    3.13
   0   0 -15   31.97    3.18
   0   0 -15   24.98    3.86
   0   0  15   25.01    3.27
   0   0  15   23.76    2.87
   4  12   4   74.35    5.77
   4  12   4   81.22    5.80
   4  12   4   81.35    6.05
   4  12   4   76.07    6.40
   4  12   4   74.69    5.95
  -4 -12  -4   84.73    6.23
   4  12   4   92.59    6.65
   4  12   4   81.66    5.67
  -2  11   8   31.82    3.29
  -2  11   8   26.65    2.31
  -2  11   8   36.99    3.68
   2 -11  -8   31.98    3.70
  -1  10  11   79.91    5.89
  -1  10  11   84.81    6.15
   1 -10 -11   67.56    5.36
  -1  -9   8   44.67    4.46
  -1  -9   8   45.81    3.51
   1   9  -8   43.66    4.31
   1   9  -8   43.59    4.01
  -3   7  12   75.46    5.48
  -3   7  12   84.60    6.30
   3  -7 -12   90.44    7.00
  -2   7  13    2.30    3.15
   2  -7 -13    1.52    2.30
   2  -7 -13    3.21    3.20
  -2   7  13    6.13    3.13
  -3  11  -2   94.85    6.60
   3 -11   2   82.73    6.34
  -3  11  -2   85.25    7.01
   3 -11   2   84.82    6.22
  -6  -6 -13    4.72    2.56
  -6  -6 -13    4.75    1.76
  -6  -6 -13    4.43    2.68
   6   6  13    3.48    2.32
  -6  -6 -13    0.32    2.39
   6   6  13    5.21    3.26
   6   6  13    4.92    2.77
  -2 -12   1   18.77    3.05
   2  12  -1   19.52    2.87
   4  10  -4   88.27    6.45
   4  10  -4   73.07    5.62
   4  10  -4   79.37    5.75
   4  10  -4   88.92    5.86
  -4 -10   4   83.63    5.86
   4  10  -4   85.04    6.32
   4  10  -4   84.63    5.52
   4  10  -4   76.37    5.61
   7   5  12   78.21    5.88
   7   5  12   91.85    6.29
   7   5  12   75.87    6.35
  -7  -5 -12   85.46    6.03
  -7  -5 -12   96.48    7.13
  -7  -5 -12   85.21    6.26
   7   5  12   87.43    5.99
   2 -12  -2    0.49    2.14
   2 -12  -2    5.41    2.77
  -2  12   2   -1.63    3.43
  -2  12   2    1.00    2.50
  -7   7   2    6.11    2.55
   7  -7  -2    7.59    2.37
  -2  12   3   11.43    3.76
  -2  12   3   18.90    2.96
   2 -12  -3   19.82    2.59
   2 -12  -3   19.01    3.34
  -6   8  -4   45.73    4.24
  -6   8  -4   46.13    4.52
  -6   8  -4   47.25    4.52
   6  -8   4   54.08    4.19
  -9   0  -6    9.03    2.90
   9   0   6    6.51    2.56
  -9   0  -6    8.51    2.61
  -9   0  -6   10.57    3.17
  -2  10  10   21.58    3.24
   2 -10 -10   20.66    3.82
  -2  10  10   25.31    2.95
  -8  -6  -9   17.14    2.88
   8   6   9   15.49    1.95
   8   6   9   12.07    2.69
  -8  -6  -9   21.15    2.57
   8   6   9    9.90    3.04
   4  12   5   63.25    5.10
   4  12   5   62.86    5.13
   4  12   5   60.08    4.81
   4  12   5   64.30    4.97
   4  12   5   64.52    4.82
   4  12   5   59.09    5.72
  -4 -12  -5   60.63    4.90
   4  12   5   64.02    5.67
  -5  -6 -14    1.12    2.37
  -5  -6 -14    1.34    2.01
  -5  -6 -14    0.60    2.78
  -5  -6 -14    1.47    2.41
   5   6  14    2.10    2.64
   5   6  14    0.67    2.33
  -7   5   6   44.58    3.52
  -7   5   6   46.69    3.82
   7  -5  -6   49.54    4.45
  -7   5   6   44.38    4.00
   5  -7  -9    9.02    1.88
  -5   7   9   10.11    2.11
  -5   7   9    9.50    2.31
   5  -7  -9    6.85    2.43
   5  -7  -9    6.83    3.28
  -5   7   9    7.88    1.81
  -5   7   9   10.20    2.98
   9   3   0   15.87    2.20
  -9  -3   0   13.03    2.13
  -9  -3   0   17.50    2.83
  -9  -3   0   21.20    3.00
   9   3   0   14.05    2.83
  -3  -6 -15   50.33    4.37
  -3  -6 -15   48.60    4.38
  -3  -6 -15   50.52    4.33
   3   6  15   51.61    4.36
   3   6  15   48.50    4.86
   9   1  -1   37.66    3.57
  -9  -1   1   33.20    2.89
  -9  -1   1   36.43    3.51
  -9  -1   1   38.19    3.84
   8  -5   3   60.07    4.44
   8  -5   3   73.11    4.63
  -8   5  -3   61.54    5.30
  -8   5  -3   73.20    5.13
   4  -8   8   47.09    4.40
  -4   8  -8   47.80    4.29
  -4   8  -8   51.74    3.98
  -4   8  -8   52.00    4.56
  -4   8  -8   38.66    3.07
   3  10  12   76.01    6.29
  -3 -10 -12   64.88    5.76
   3  10  12   73.85    6.13
  -3 -10 -12   73.43    5.59
  -3 -10 -12   73.56    5.55
   1 -12   1    0.31    2.63
  -1  12  -1    1.35    2.73
   1 -12   1   -1.91    2.56
  -2  -3  13   32.12    3.91
  -2  -3  13   36.52    3.27
   2   3 -13   30.08    4.09
  -2  -3  13   34.22    3.57
   2   3 -13   38.82    3.62
   1   8  14   59.89    5.43
   1   8  14   62.24    5.59
  -1  -8 -14   59.61    4.86
   1   8  14   55.26    5.01
  -1  -8 -14   54.91    4.76
  -1  -8 -14   57.15    5.15
   5   1 -11   48.06    4.97
   5   1 -11   64.14    4.73
  -8   5   1   15.87    2.79
   8  -5  -1   17.81    2.47
   8  -5  -1   22.22    2.28
  -8   5   1   27.14    3.33
   1  -3  14   82.20    6.06
   1  -3  14   80.31    5.81
  -1   3 -14   87.96    6.70
   1  -3  14   78.92    5.83
  -1   3 -14   87.06    6.78
  -3  11   6   39.04    3.89
   3 -11  -6   36.51    3.89
  -1  -2  14   15.69    2.55
  -1  -2  14   19.28    3.27
  -1  -2  14   15.38    2.46
  -2  -7  10    8.56    2.41
   2   7 -10    8.99    2.95
   2   7 -10   13.16    2.58
   2   7 -10   11.83    2.89
  -2  -7  10   12.96    3.08
  -9  -4  -6   89.08    5.94
   9   4   6   79.60    6.48
  -9  -4  -6   76.59    6.41
  -9  -4  -6   80.74    5.62
   9   4   6   91.83    6.51
   9   4   6   91.58    6.16
   4  12   3   85.97    6.23
   4  12   3   78.58    5.37
   4  12   3   79.38    5.89
   4  12   3   67.29    5.63
   4  12   3   75.13    5.79
  -4 -12  -3   76.49    5.79
   4  12   3   75.36    5.50
   4  12   3   69.14    6.09
  -9   1  -5   23.47    3.25
  -9   1  -5   18.01    2.97
   9  -1   5   24.05    3.04
  -9   1  -5   19.90    3.31
   2  10  -6   71.53    5.21
  -2 -10   6   56.47    4.32
   2  10  -6   52.36    4.63
   2  10  -6   57.94    5.02
  -2 -10   6   69.74    5.32
   2  10  -6   58.93    4.53
   2  10  -6   52.88    4.59
   2  11  -4   26.56    3.67
   2  11  -4   24.50    3.34
   2  11  -4   23.91    2.19
  -2 -11   4   28.81    3.67
   2  11  -4   28.25    3.67
   2  11  -4   25.16    3.00
  -9   0   1   42.11    3.87
  -9   0   1   42.28    4.12
   9   0  -1   49.75    4.10
  -4  -1 -15   61.88    5.18
   4   1  15   58.54    4.86
   4   1  15   57.28    4.51
   4   1  15   53.37    4.90
  -4  -1 -15   61.80    5.34
   4   1  15   58.20    4.09
  -4  -1 -15   61.53    5.85
   9   2   7   -1.41    2.54
  -9  -2  -7   -0.64    3.08
  -9  -2  -7    2.02    2.91
   9   2   7   -0.85    2.48
   7   9   1   82.00    6.94
   7   9   1   91.34    6.51
   7   9   1   96.38    6.63
   7   9   1   90.40    6.52
   7   9   1   84.58    6.23
   7   9   1   97.74    6.23
   3  12   0   67.42    5.63
   3  12   0   77.81    5.97
   3  12   0   70.68    5.05
   3  12   0   79.28    6.24
   3  12   0   78.55    5.84
   3  12   0   85.18    5.55
   4   5  15    7.82    1.90
   4   5  15    9.17    3.20
  -4  -5 -15    6.37    2.29
  -4  -5 -15    4.38    2.50
  -4  -5 -15    3.80    2.55
   4   5  15    5.23    2.48
   5  -9  -6   19.72    3.03
  -5   9   6   20.10    2.83
  -5   9   6   15.00    1.93
  -3  -8 -14    2.56    3.09
  -3  -8 -14    6.05    2.61
  -3  -8 -14    7.85    2.61
   3   8  14    5.19    3.38
   3   8  14    6.05    2.84
   3   8  14    5.23    3.14
  -2   3 -14   20.35    3.58
   2  -3  14   16.41    2.88
   2  -3  14   17.27    2.86
  -2   3 -14   19.61    3.39
   2  -3  14   19.71    3.15
  -2   3 -14   15.91    2.50
   5  11   8   60.83    4.80
  -5 -11  -8   63.58    4.99
   5  11   8   54.96    4.87
   5  11   8   66.78    4.69
   5  11   8   68.12    5.75
   5   5  -9    1.52    2.85
   5   5  -9   -2.09    2.81
  -5  -5   9    2.32    2.43
   2  -5 -14   58.01    4.63
  -2   5  14   56.29    4.68
  -2   5  14   52.80    4.38
   9   4   1    5.90    1.96
  -9  -4  -1    4.14    1.91
  -9  -4  -1    4.68    2.52
   9   4   1    2.96    2.61
  -9  -4  -1    3.43    2.74
  -2  12   1    3.75    2.72
  -2  12   1    5.68    3.61
   2 -12  -1    2.03    2.38
   2 -12  -1    2.91    2.68
   2 -12  -4   18.50    2.47
  -2  12   4   24.61    3.28
  -2  12   4   21.52    4.14
   2 -12  -4   24.06    3.47
   9  -2   2    4.45    1.35
  -9   2  -2   11.54    2.53
  -9   2  -2    8.11    2.51
  -9   2  -2    7.98    1.70
  -9   2  -2    5.62    2.85
   9  -2   2    9.71    2.29
  -4   5  12   48.00    4.10
  -4   5  12   39.66    3.77
  -4   5  12   47.29    4.41
   4  -5 -12   43.92    3.41
   1  -2 -15   44.65    3.79
  -1   2  15   41.62    3.70
   1  -2 -15   39.90    3.30
   2  -9   8   27.08    3.72
  -2   9  -8   24.66    3.53
  -2   9  -8   30.75    3.56
  -2   9  -8   29.85    3.66
   2  -9   8   22.12    2.05
  -1   3  15   -1.62    2.31
   1  -3 -15    1.18    2.28
  -8   2   5   28.70    3.44
   8  -2  -5   27.58    3.09
  -8   2   5   33.82    3.48
  -2  -6  11   -4.48    2.39
   2   6 -11    0.07    2.39
   2   6 -11    4.08    2.69
  -2  -6  11   -1.50    2.91
  -5   4  11   64.72    4.64
   5  -4 -11   56.94    4.31
  -5   4  11   57.69    4.73
  -9  -3  -7   30.12    3.02
  -9  -3  -7   29.97    3.90
   9   3   7   25.05    3.27
   9   3   7   31.07    3.52
  -7   3 -10   43.66    4.36
  -7   3 -10   51.43    4.80
  -1  -4  13   27.67    3.17
  -1  -4  13   26.09    3.00
   1   4 -13   27.17    3.65
  -1  -4  13   28.34    3.61
   1   4 -13   26.36    3.94
   8   5  10  108.21    7.50
   8   5  10  106.79    7.44
   8   5  10  100.77    6.80
  -8  -5 -10  107.97    7.71
  -8  -5 -10  116.39    7.59
  -8   4  -6   33.48    3.44
  -8   4  -6   38.88    3.26
  -8   4  -6   37.73    3.47
  -8   4  -6   40.29    3.98
   8  -4   6   40.30    3.46
  -8   4  -6   27.71    3.92
  -7   7  -3    9.44    2.79
  -7   7  -3   14.00    2.72
   7  -7   3   14.31    2.27
  -7   7  -3    8.60    2.87
   4  12   6   18.67    3.88
   4  12   6   18.77    3.32
  -4 -12  -6   29.86    3.45
   4  12   6   22.55    2.85
   4  12   6   26.69    3.32
   4  12   6   25.63    2.96
   4  12   6   19.69    4.13
   4  12   6   22.42    3.10
   7   3  -7   21.28    3.01
   7   3  -7   12.89    3.27
  -7  -3   7   14.20    2.28
  -7  -3   7   16.13    2.22
  -7   4   7   15.20    2.54
  -7   4   7   12.38    2.63
   7  -4  -7   14.25    3.00
  -9  -2   1   36.35    3.06
  -9  -2   1   39.20    3.68
   9   2  -1   45.56    4.03
  -9  -2   1   42.03    4.04
   6  10   0   33.48    4.09
   6  10   0   22.55    3.06
   6  10   0   27.09    3.50
   6  10   0   23.86    3.31
   6  10   0   20.35    2.50
   6  10   0   27.12    2.13
  -9   2  -3    9.11    2.67
  -9   2  -3   11.18    1.91
   9  -2   3   10.62    2.35
  -9   2  -3   15.71    2.59
  -9   2  -3    5.88    3.01
  -8   0 -10   26.03    3.86
  -8   0 -10   31.18    3.97
   8   0  10   26.94    3.63
  -2   1 -15   80.57    6.30
  -2   1 -15   80.77    6.62
   2  -1  15   74.71    5.70
   2  -1  15   70.07    5.64
   2  -1  15   84.41    5.78
  -8  -2   5  120.92    7.56
   8   2  -5  132.24    8.37
   8   2  -5  105.13    7.66
  -8  -2   5  103.12    7.07
  -8  -2   5   96.37    6.95
   5  -6 -10   23.81    3.72
   5  -6 -10   14.85    2.22
  -5   6  10   18.86    3.09
  -5   6  10   20.58    2.47
  -5   6  10   16.02    2.57
   0  12   8    5.31    2.56
   0 -12  -8    4.98    2.82
   1  -1  15   46.07    4.04
   1  -1  15   39.24    3.83
  -1   1 -15   45.79    4.85
  -1   1 -15   45.49    4.62
   1  -1  15   37.74    3.73
  -3   8  -9  112.33    7.23
  -3   8  -9   89.83    7.34
   3  -8   9   78.86    5.14
   3  12   8   22.09    3.26
   3  12   8   23.21    2.90
   3  12   8   26.60    3.34
  -3 -12  -8   26.02    3.42
   5   8  -6    0.73    1.43
  -5  -8   6    1.76    2.32
   5   8  -6    1.40    2.95
   5   8  -6    2.21    1.80
  -7   4  -9   38.53    4.29
  -7   4  -9   40.46    3.49
  -7   4  -9   39.23    4.01
  -9   2  -1   11.56    3.03
   9  -2   1   13.08    2.33
   9  -2   1    7.31    1.67
  -9   2  -1   13.33    2.59
  -9   2  -1   14.06    2.55
  -9   2  -1   10.74    1.76
  -9  -1  -7   -0.09    2.94
   9   1   7    6.09    2.62
   9   1   7   -0.62    2.51
   2   8  -9    4.68    2.80
   2   8  -9    5.72    2.37
  -2  -8   9   10.78    2.26
  -6   8   5   -0.08    1.68
   6  -8  -5   -0.81    2.32
  -6   8   5    0.93    2.22
  -7   1   8   55.06    4.32
  -7   1   8   67.54    4.91
   7  -1  -8   66.13    5.33
  -7   6   5   62.10    4.74
   7  -6  -5   55.34    4.43
  -7   6   5   54.19    4.36
  -7   6   5   58.73    4.32
   8   7   8   12.73    3.16
   8   7   8   13.93    3.07
  -8  -7  -8   18.42    2.87
  -8  -7  -8   22.50    2.60
  -8  -7  -8   16.86    3.76
   8   7   8   19.99    3.46
  -5   8   8   26.47    2.66
  -5   8   8   21.50    2.46
  -5   8   8   27.44    2.97
   5  -8  -8   26.07    3.92
   5  -8  -8   25.31    3.17
   6  -6  -8    9.20    2.43
  -6   6   8   13.27    2.19
  -6   6   8   15.38    2.88
  -6   6   8   10.73    2.26
   6  -6  -8   11.53    3.20
  -6   6   8    9.86    1.71
   7   7  11    3.90    3.00
   7   7  11   -0.15    2.44
  -7  -7 -11    5.91    2.23
  -7  -7 -11    4.78    1.66
  -7  -7 -11    3.63    3.31
   7   7  11    8.84    3.39
  -7   0 -12    6.44    2.28
  -7   0 -12    5.31    2.99
  -7   0 -12   10.20    3.50
   7   0  12    9.04    3.10
   5   9  12   15.54    3.79
  -5  -9 -12    9.80    3.03
   5   9  12    9.99    3.36
  -5  -9 -12   11.29    2.52
   5   9  12    6.98    2.84
  -5  -9 -12    9.51    2.59
  -5  -9 -12    4.66    2.66
   5   9  12    6.01    1.90
   9   5   4   11.63    1.85
   9   5   4   12.50    2.19
  -9  -5  -4   14.17    1.92
   9   5   4   16.39    3.01
  -9  -5  -4   17.01    2.48
   9   5   4   16.72    3.07
  -9  -5  -4   10.16    3.26
  -7   6  -6   35.07    3.69
  -7   6  -6   31.15    3.07
  -7   6  -6   32.17    3.83
   7  -6   6   34.04    2.84
  -7   6  -6   33.13    3.51
   0  -9 -13    4.77    2.66
   0   9  13   -0.62    3.56
   0  -9 -13   -0.84    2.56
   0  -9 -13    1.60    3.19
   0   9  13    1.73    3.08
   0 -12   2   34.66    3.75
   0  12  -2   34.50    3.92
   4  11  -2  122.30    8.75
   4  11  -2  113.30    8.00
   4  11  -2  135.01    8.02
   4  11  -2  132.03    8.50
   4  11  -2  137.62    8.09
   4  11  -2  118.88    8.66
   4  11  -2  139.76    8.42
   4  11  -2  106.99    8.06
  -7   0   8   63.37    4.76
  -7   0   8   83.94    5.57
   7   0  -8   82.92    6.31
   3   9  -7    1.75    2.12
  -3  -9   7    2.41    2.02
   3   9  -7    1.96    3.04
   3   9  -7    1.32    2.79
  -8  -5   3   14.31    2.75
   8   5  -3   11.94    2.76
  -8  -5   3   12.58    3.01
  -8  -5   3    9.36    2.36
   1  12  -2   51.91    4.96
  -1 -12   2   46.38    4.36
   1  12  -2   62.18    4.77
   5 -10  -1   28.67    3.56
  -5  10   1   27.57    4.00
   4  12   2   64.96    5.18
   4  12   2   67.18    5.50
   4  12   2   69.04    5.78
   4  12   2   58.38    4.86
   4  12   2   66.70    5.34
   4  12   2   60.80    5.15
   4  12   2   62.78    4.85
   4  12   2   71.94    4.82
   5   8  13  106.87    7.02
  -5  -8 -13   97.00    7.19
  -5  -8 -13  110.06    7.30
  -5  -8 -13  103.79    7.17
  -5  -8 -13   98.11    6.89
   5   8  13  104.44    7.16
  -1  12   7   37.65    3.86
  -1  12   7   32.26    3.60
   5  -5  11   41.48    4.16
  -5   5 -11   40.85    3.74
  -5   5 -11   35.28    3.26
  -7  -9  -8   82.99    5.85
   7   9   8   76.61    6.32
   7   9   8   63.05    5.41
   7   9   8   85.14    6.06
   7   9   8   90.27    5.58
   7   9   8   81.68    6.00
   7   9   8   83.35    5.92
   7   9   8   92.15    6.63
   4  -2  14   -2.28    2.59
  -4   2 -14    1.08    3.43
   4  -2  14    2.07    2.46
  -4   2 -14    1.15    2.64
  -4   2 -14    1.59    1.97
  -4   2 -14    3.12    2.51
   4  -2  14    1.91    2.70
   4   9  -6   99.56    6.70
   4   9  -6   99.98    6.92
   4   9  -6  116.98    6.84
   4   9  -6   97.68    6.80
   4   9  -6  110.27    7.52
   4   9  -6  104.60    7.62
  -4  -9   6   96.36    6.62
   9   5   3    3.76    1.85
  -9  -5  -3    2.97    2.89
  -9  -5  -3    1.41    2.05
   9   5   3    3.65    1.83
  -9  -5  -3    0.67    1.39
   9   5   3    2.42    2.59
   4  -8 -10    3.33    2.43
   4  -8 -10    4.00    3.25
  -4   8  10    1.40    2.36
  -4   8  10    2.70    1.85
  -4   8  10    1.46    1.81
   8   7   0   45.92    3.42
  -8  -7   0   53.16    4.69
   8   7   0   46.62    4.95
   8   7   0   50.44    4.09
   8   7   0   39.54    3.94
   8   7   0   50.92    4.40
   9  -1  -1   44.96    3.85
  -9   1   1   38.41    3.91
  -9   1   1   33.59    3.01
  -2  11  -4   11.26    2.95
  -2  11  -4    9.64    3.12
  -2  11  -4    7.32    2.82
   2 -11   4    6.96    3.17
   2  11  11   -1.12    3.44
  -2 -11 -11    1.39    2.62
   1  -1 -15   51.43    3.94
  -1   1  15   60.82    4.59
   1  -1 -15   59.57    4.46
  -6   1  10   26.45    3.18
  -6   1  10   22.76    2.20
   6  -1 -10   27.49    3.22
   5 -10  -2   19.63    3.16
  -5  10   2   15.11    3.50
   0  -3  14   21.98    3.41
   0  -3  14   22.10    2.85
   0   3 -14   25.49    3.79
   0  -3  14   25.04    2.92
  -9  -5  -5   49.28    4.01
   9   5   5   52.75    4.86
  -9  -5  -5   44.99    3.55
   9   5   5   55.65    4.28
  -9  -5  -5   48.61    4.69
   9   5   5   55.83    4.78
  -1   4  15   15.00    2.86
   1  -4 -15   16.66    2.79
  -4  10  -4   64.09    5.49
   4 -10   4   69.65    5.10
  -4  10  -4   72.85    5.33
   4 -10   4   60.37    5.30
  -7  -8 -10  103.18    6.95
   7   8  10  119.49    7.66
  -7  -8 -10  107.46    7.25
   7   8  10  102.38    7.16
   7   8  10   95.28    6.65
  -7  -8 -10  111.40    7.46
  -4  -2  12    6.28    2.66
  -4  -2  12    4.38    1.92
   4   2 -12    3.24    1.39
   4   2 -12    4.43    2.50
   4   2 -12    5.40    3.00
  -4 -11 -10  120.62    8.26
   4  11  10  119.99    8.69
  -4 -11 -10  121.80    8.37
   7  -7  -3    0.33    2.27
  -8  -4   4   17.50    2.66
  -8  -4   4   14.74    2.60
   8   4  -4   12.71    3.60
   2   1 -14   76.10    5.48
  -2  -1  14   71.11    5.19
  -2  -1  14   74.87    5.46
   2   1 -14   76.88    6.28
  -2  -1  14   79.60    5.62
   2   1 -14   81.65    5.71
   5  11   0   26.38    2.74
   5  11   0   35.65    4.17
   5  11   0   33.73    3.38
   5  11   0   33.46    2.85
   5  11   0   26.77    3.68
   5  11   0   27.11    2.99
   5  11   0   34.29    3.72
   5  11   0   30.75    3.06
   8  -5   4   35.58    2.79
   8  -5   4   27.63    2.39
  -8   5  -4   35.27    3.37
  -8   5  -4   29.76    3.23
  -8   5  -4   35.69    3.66
  -5  10   0   33.32    4.12
   5 -10   0   41.71    4.04
  -4  -4  11    3.45    2.66
   4   4 -11    9.12    3.01
   4   4 -11    5.34    1.34
  -4  -4  11    8.10    1.93
   4   4 -11    4.82    2.64
   0  10  12    8.00    3.37
   0 -10 -12    8.39    2.90
   0  10  12   15.27    4.09
   0  10  12   14.60    2.88
   1  -7  11   11.13    2.12
  -1   7 -11   10.20    1.87
  -1   7 -11   16.29    3.07
  -1   7 -11   14.45    2.97
  -6   7   7   28.27    3.02
  -6   7   7   27.38    2.79
   6  -7  -7   26.07    3.07
  -6   7   7   31.99    3.55
   9  -2   4   11.76    2.46
  -9   2  -4   13.45    2.67
  -9   2  -4   10.47    3.11
  -8   5   2    5.66    2.22
  -8   5   2    6.24    2.80
   8  -5  -2    7.58    2.14
  -8   5   2    8.16    2.36
   2 -12   0   10.23    2.84
  -2  12   0    9.72    2.90
  -2  12   0   11.08    3.89
   2 -12   0    9.44    2.85
   8   8   4   54.47    4.39
   8   8   4   62.37    5.08
   8   8   4   42.49    4.84
   8   8   4   49.58    4.90
   7  -2  -8   16.27    2.99
   7  -2  -8   19.66    3.23
  -7   2   8   14.10    2.70
  -7   2   8   14.98    2.39
  -7   2 -11   75.18    6.31
  -7   2 -11   81.90    5.59
  -7   2 -11   76.38    6.12
  -4   7  11   49.80    4.03
  -4   7  11   54.16    4.22
  -4   7  11   50.10    4.79
   4  -7 -11   60.17    5.15
   4  -7 -11   47.19    4.33
  -2  12   5   53.60    5.37
  -2  12   5   56.80    4.80
   2 -12  -5   51.05    4.70
  -1   6 -12    8.45    3.06
  -1   6 -12    8.70    1.72
  -1   6 -12   12.75    2.94
   1  -6  12   11.61    2.35
   1  -6  12   10.39    2.97
  -1   7  14   62.48    5.18
  -1   7  14   44.59    4.56
   1  -7 -14   42.74    4.17
   1  -7 -14   55.42    4.38
  -6  -3   9  105.55    7.19
   6   3  -9  111.03    7.93
  -6  -3   9   93.65    6.53
   6   3  -9  118.12    8.01
  -6  -3   9  104.65    6.47
  -5   4 -12   57.28    5.15
  -5   4 -12   48.98    4.40
   5  -4  12   50.53    4.53
   6  -2 -10   49.03    4.18
  -6   2  10   56.16    4.28
  -6   2  10   44.00    3.57
   7   8  -2   93.41    6.61
   7   8  -2   95.24    7.25
   7   8  -2   96.25    6.62
   7   8  -2   89.33    6.38
  -8  -8  -5   95.34    6.52
   8   8   5   85.84    6.61
  -8  -8  -5  109.01    7.51
   8   8   5   88.27    6.52
   8   8   5   69.45    6.31
   8   8   5   97.21    5.98
   8   8   5   86.43    6.19
   9  -2   0   -2.64    2.07
  -9   2   0    1.85    1.43
  -9   2   0    0.99    2.11
   9  -2   0    0.77    1.61
  -9   2   0    0.56    2.75
   1  11  11   63.79    5.06
  -1 -11 -11   71.26    5.69
   1  11  11   62.13    5.74
   1  11  11   63.05    5.26
  -5   6 -10   52.14    4.51
  -5   6 -10   55.71    4.16
  -5   8  -7   29.00    3.57
  -5   8  -7   34.33    3.08
  -5   8  -7   28.21    2.62
   5  -8   7   31.02    3.75
   6  -1  13   45.26    4.20
  -6   1 -13   63.16    4.61
  -6   1 -13   60.43    5.50
   0  11  -5    0.51    2.38
   0  11  -5    2.05    2.74
   0  11  -5    1.70    2.71
   0 -11   5    0.37    2.87
   9   4   7   69.03    5.50
  -9  -4  -7   61.17    4.57
  -9  -4  -7   62.83    4.89
   9   4   7   66.14    5.08
   9   4   7   65.65    5.40
  -9  -4  -7   58.56    5.41
  -3  10   9    5.81    2.61
  -3  10   9    3.52    1.56
   3 -10  -9    3.27    2.66
  -3  10   9    4.60    2.32
   6   0 -10    2.81    2.60
  -6   0  10    3.30    2.51
  -6  -8 -12   66.39    5.23
   6   8  12   69.96    5.54
   6   8  12   56.68    4.74
  -6  -8 -12   69.38    5.29
   6   8  12   65.93    5.06
   6   8  12   58.93    5.51
  -6  -8 -12   68.87    4.91
   6   3  14   43.63    3.95
   6   3  14   49.37    4.57
   6   3  14   47.74    4.19
   6   3  14   39.88    3.68
  -6  -3 -14   41.21    4.60
  -6  -3 -14   37.23    3.82
  -4  -9 -13    0.50    2.90
  -4  -9 -13    2.71    2.51
  -4  -9 -13    0.68    2.48
   4   9  13    2.58    3.01
   4   9  13    4.62    3.65
   4   9  13    0.41    3.02
   0  -6 -15   74.58    5.66
   0   6  15   86.96    6.32
   0   6  15   75.29    5.72
   8   6  -2   20.91    3.18
   8   6  -2   26.39    3.18
  -8  -6   2   22.60    3.14
   6  10   9    6.10    3.68
   6  10   9    2.58    3.71
   6  10   9   -0.86    2.61
  -6 -10  -9    2.57    2.23
   6  10   9    2.25    2.41
   6  10   9    0.90    2.42
  -6 -10  -9    1.40    2.26
   0 -10   7    9.81    3.16
   0  10  -7    9.44    2.64
   0  10  -7    6.65    2.89
   0  10  -7    8.25    2.81
   0 -10   7    6.85    1.60
   0  -7  11   45.89    3.80
   0   7 -11   46.46    4.52
   0   7 -11   51.69    4.44
   9  -1   6   40.21    3.82
  -9   1  -6   34.36    3.60
  -9   1  -6   30.61    3.74
   9   5   2   -2.48    1.95
  -9  -5  -2   -1.26    1.92
  -9  -5  -2    0.96    2.87
   2  12   9  103.59    7.65
   2  12   9  106.98    8.35
  -2 -12  -9  126.13    8.72
   2  12   9  122.11    7.86
  -4 -12  -7    1.00    2.54
   4  12   7    1.81    3.69
   4  12   7   -1.52    2.73
   4  12   7    0.56    2.36
   4  12   7    3.91    2.63
   4  12   7    0.23    2.05
   4  12   7    1.09    2.57
  -6   7  -7   21.23    3.28
  -6   7  -7   27.22    2.64
  -6   7  -7   25.91    2.49
  -6   7  -7   27.01    3.70
  -6   7  -7   30.11    3.38
  -7  -1   8   45.22    3.69
  -7  -1   8   66.11    4.70
   7   1  -8   76.75    5.97
  -4  10   7   36.24    3.56
  -4  10   7   28.14    2.43
   4 -10  -7   29.84    3.54
  -6   5   9   -0.13    1.68
   6  -5  -9    4.17    3.07
  -6   5   9   -0.15    2.50
  -6   5   9    3.09    2.08
   6  -5  -9    2.10    2.11
  -7   5  -8   14.38    2.98
  -7   5  -8    9.35    2.20
  -7   5  -8    7.55    3.12
  -7   5  -8    9.80    2.57
   7  -5   8    5.63    2.01
   8   8   3   52.81    4.42
   8   8   3   50.48    4.85
   8   8   3   65.82    5.30
   8   8   3   60.71    4.33
   8   8   3   57.67    4.97
   2   5 -12    4.19    2.57
  -2  -5  12    1.04    1.96
   2   5 -12    3.06    2.57
  -2  -5  12   -1.42    2.39
  -2  -5  12   -0.75    2.90
   3   2 -13   29.79    3.21
   3   2 -13   24.76    2.64
   3   2 -13   27.38    3.91
  -3  -2  13   19.83    3.07
  -3  -2  13   23.69    2.70
   4 -11  -2    6.89    2.91
   4 -11  -2    5.20    2.35
  -4  11   2    2.44    3.35
  -4   6 -11   98.03    7.06
  -4   6 -11  105.78    6.55
  -5  10   3   28.62    3.34
   5 -10  -3   32.10    3.55
   1  12   9  102.27    7.13
  -1 -12  -9  112.33    8.03
   1  12   9   98.13    7.78
  -9   0  -7   21.70    3.18
  -9   0  -7   25.36    3.64
   9   0   7   20.12    3.14
   7   6  12   40.40    3.93
  -7  -6 -12   35.44    3.57
  -7  -6 -12   38.67    4.58
   7   6  12   41.56    4.31
   7   6  12   48.42    4.59
  -4   5 -12   57.67    4.31
  -4   5 -12   45.58    4.28
  -4   5 -12   56.61    5.14
   9   3  -1    7.32    2.64
  -9  -3   1   13.07    2.78
  -9  -3   1    8.31    2.56
  -9  -4   0   -0.52    2.39
   9   4   0   -0.75    2.57
   9   4   0    1.01    1.99
  -9  -4   0   -6.62    2.83
  -9  -4   0   -1.18    1.78
   4 -11  -1   15.57    2.76
   4 -11  -1   11.87    2.98
  -4  11   1    7.87    3.39
  -8   4   4   29.39    3.57
  -8   4   4   25.75    2.58
  -8   4   4   29.60    3.24
  -8   4   4   33.11    3.07
   8  -4  -4   25.92    2.84
  -8   4   4   34.41    2.95
  -3  -4  12   63.99    5.25
   3   4 -12   71.24    5.42
  -3  -4  12   69.04    4.89
   3   4 -12   69.71    5.80
   3  -1  15   21.07    3.05
  -3   1 -15   21.31    3.23
   3  -1  15   15.94    3.04
  -3   1 -15   26.51    3.54
  -3   1 -15   24.74    4.18
   2   7  15    1.80    2.58
  -2  -7 -15    2.32    2.68
  -2  -7 -15    1.72    2.51
   2   7  15   -0.38    3.34
  -2  -7 -15    4.72    2.45
   2   7  15    2.67    3.25
  -3   3 -14   10.35    2.50
  -3   3 -14   13.08    3.49
   3  -3  14   10.47    2.86
   3  -3  14    8.97    2.69
  -3   3 -14    9.08    2.46
  -8   2  -9   75.73    6.17
  -8   2  -9   78.37    6.08
   0   8  14   19.06    3.94
   0  -8 -14   26.96    3.36
   0   8  14   24.01    3.98
   0  -8 -14   19.84    3.16
   0   8  14   22.91    3.51
   6  -9  -1   45.95    4.21
  -6   9   1   44.00    4.47
   0  -6  12   50.80    4.18
   0   6 -12   47.64    4.51
   0   6 -12   49.92    4.56
   0  -6  12   51.82    4.67
   6   4  14  106.37    7.01
  -6  -4 -14  107.07    8.09
   6   4  14  107.38    7.23
  -6  -4 -14  107.87    7.49
   6   4  14   96.59    7.54
   6   4  14   99.53    7.22
   6   2  14   27.00    3.39
  -6  -2 -14   26.83    4.09
   6   2  14   24.12    2.65
   6   2  14   25.21    3.00
  -9  -5  -6   53.73    4.06
  -9  -5  -6   55.04    4.41
   9   5   6   61.51    5.36
  -9  -5  -6   54.01    5.12
   9   5   6   66.13    4.94
  -5   1 -14   18.02    3.41
  -5   1 -14   26.57    3.27
  -5   1 -14   30.15    4.23
   5  -1  14   23.93    3.30
   5  -1  14   24.48    3.23
  -6   9   0   35.65    3.90
   6  -9   0   32.40    3.58
  -6   9   0   29.93    3.97
   0  -1  15    4.42    2.32
   0  -1  15    2.58    2.24
   0  -1  15   -1.26    2.78
  -8  -8  -6  147.19   10.38
   8   8   6  152.27    9.90
   8   8   6  127.75    9.58
   8   8   6  151.62    9.34
  -8  -8  -6  171.39   10.22
   8   8   6  146.77    9.68
   8   8   6  161.76   10.05
  -8  -8  -6  164.90   10.96
   3 -11   3   68.26    5.54
  -3  11  -3   68.51    5.44
   3 -11   3   66.05    5.32
   4   0  15   17.91    3.27
  -4   0 -15   25.28    3.61
  -4   0 -15   31.59    4.45
   4   0  15   24.77    3.06
  -4   0 -15   23.75    3.43
   4   0  15   29.64    3.47
   5  10  -3   50.67    4.10
   5  10  -3   49.29    4.29
   5  10  -3   51.10    3.75
   5  10  -3   58.01    5.21
   5  10  -3   50.60    4.20
   5  10  -3   42.79    4.73
  -8   3  -8   37.10    4.27
  -8   3  -8   42.13    3.72
  -8   3  -8   38.48    4.14
   8  -3   8   44.95    3.92
   8   3  11   13.63    3.23
   8   3  11    8.90    2.76
  -8  -3 -11    8.32    3.27
  -5  10  -1   23.37    3.83
   5 -10   1   31.78    3.54
   5 -10   1   29.97    3.53
  -6   4 -11   27.62    3.96
  -6   4 -11   25.92    3.40
   1 -10   7   27.39    3.74
  -1  10  -7   16.62    3.10
  -1  10  -7   21.51    3.33
  -1  10  -7   24.40    3.44
   3  11  11   28.35    4.29
  -3 -11 -11   35.67    3.89
  -3 -11 -11   30.88    3.70
  -1 -11   5   42.87    3.42
  -1 -11   5   61.77    4.73
   1  11  -5   60.40    5.04
   1  11  -5   50.56    4.51
   1  11  -5   54.41    4.67
  -7  -6   5   39.43    4.04
   7   6  -5   37.26    3.43
   7   6  -5   36.68    3.72
   7   6  -5   32.79    4.28
   7   6  -5   28.65    3.55
  -4  -6 -15   18.39    3.01
   4   6  15   20.66    3.06
  -4  -6 -15   22.12    2.92
  -2   6 -12    2.44    2.91
  -2   6 -12    5.29    1.86
  -2   6 -12    1.01    2.61
   1 -12   2    2.43    2.69
   1 -12   2    3.83    2.77
  -1  12  -2    5.36    2.89
   9   1  -2   57.55    4.56
  -9  -1   2   46.41    4.29
  -9  -1   2   43.92    4.05
   4  -9  -9   12.14    3.54
   4  -9  -9   10.26    2.74
  -4   9   9    8.25    2.24
  -4   9   9   14.95    2.68
  -4   9   9   10.28    1.89
   7   9   0  154.27   10.10
   7   9   0  156.39   10.05
   7   9   0  139.03   10.44
   7   9   0  163.95   10.19
  -7   7  -4   13.64    2.81
   7  -7   4   16.17    2.24
  -7   7  -4   13.96    3.02
  -7   7  -4   14.83    3.26
   5   2 -11   86.16    6.69
   5   2 -11   91.15    6.53
  -5  -2  11   79.59    5.44
  -8  -2 -11   -2.52    3.43
  -8  -2 -11   -2.48    3.28
   8   2  11   -6.43    3.10
   6   9  11   56.17    4.83
  -6  -9 -11   71.27    5.02
  -6  -9 -11   64.55    5.17
   6   9  11   62.00    5.09
   5   4 -10   23.11    3.52
  -5  -4  10   24.05    3.22
   5   4 -10   22.33    3.40
  -5  -4  10   20.75    2.30
  -1   8 -10    3.86    2.73
  -1   8 -10    3.75    1.71
  -1   8 -10    1.77    2.72
   1  -8  10    1.75    1.74
   9   0  -2   80.28    5.72
  -9   0   2   77.87    5.92
  -3   6  13    4.41    3.10
  -3   6  13   12.18    3.12
  -3   6  13    5.32    2.28
  -5 -10 -11   20.02    3.01
   5  10  11   14.23    2.16
   5  10  11   15.48    3.22
  -5 -10 -11   20.99    2.97
   5  10  11   22.23    4.16
   5  -9   5   23.25    3.38
  -5   9  -5   24.20    2.77
  -5   9  -5   20.65    3.58
  -5   9  -5   17.71    3.20
  -4  11   3    1.98    3.25
   4 -11  -3   -1.32    2.67
  -4  11   3    3.09    2.53
   4 -11  -3    2.31    2.16
  -6   5 -10   21.00    3.61
  -6   5 -10   18.89    3.09
   6   9  -3   13.55    3.03
   6   9  -3   11.98    3.70
   6   9  -3    7.06    1.62
   6   9  -3   12.68    2.65
   6   9  -3   11.80    2.40
  -8   3   5   41.58    3.90
  -8   3   5   34.00    3.66
   8  -3  -5   35.95    3.53
  -1  11  10    0.85    2.34
   1 -11 -10    1.41    2.66
  -1  11  10    1.85    2.76
   6   6  -7   25.75    3.78
  -6  -6   7   28.18    3.43
   6   6  -7   19.60    3.25
  -2   7 -11   24.23    3.18
  -2   7 -11   15.71    2.30
  -2   7 -11   17.25    3.26
  -6   8  -5   32.79    3.58
  -6   8  -5   28.38    3.88
   4  12   1  123.03    9.10
   4  12   1  142.54    8.90
   4  12   1  125.07    8.60
   4  12   1  131.33    8.58
   4  12   1  131.54    9.29
   4  12   1  137.41    9.09
   4  12   1  143.18    9.03
   4  12   1  130.06    8.49
   4  10  12   63.41    5.41
  -4 -10 -12   64.13    5.47
  -4 -10 -12   67.33    5.36
   4  10  12   51.14    5.67
  -4 -10 -12   68.29    5.35
   4  10  12   62.54    5.37
  -2  -9   8   31.98    3.01
   2   9  -8   31.46    3.45
   2   9  -8   29.24    3.87
  -1  11  -5    4.15    2.75
  -1  11  -5    0.80    2.57
  -1  11  -5    3.10    2.90
   1 -11   5    2.89    2.93
  -7  -5   6   43.52    4.01
   7   5  -6   34.66    4.29
   7   5  -6   36.42    3.61
  -7  -5   6   34.16    3.21
   3 -11  -7   34.21    3.78
  -3  11   7   36.12    3.82
   0   8 -10   18.75    3.17
   0  -8  10   16.15    2.33
   0   8 -10   14.41    1.87
   0   8 -10   22.93    3.12
   2  12  -2   33.91    3.59
   2  12  -2   32.13    4.11
  -2 -12   2   38.67    4.02
   2  12  -2   34.38    2.99
   2  12  -2   37.86    3.51
  -2  -3 -16   -0.47    2.23
   2   3  16    1.24    2.67
  -2  -3 -16    3.75    2.54
   2   3  16    1.56    1.71
   2   3  16    2.30    2.14
  -9  -2  -8   45.58    4.69
   9   2   8   39.79    3.71
   9   2   8   26.05    3.65
   6  -9  -2   50.10    4.32
   4   8  14   21.33    3.57
  -4  -8 -14   34.68    3.71
  -4  -8 -14   32.94    3.94
   4   8  14   38.28    3.91
  -4  -8 -14   35.33    3.59
   1  -5  13   16.98    3.18
  -1   5 -13   13.28    3.33
  -1   5 -13    9.93    2.87
   6  -3 -10   62.43    4.83
  -6   3  10   61.57    4.81
  -5 -11  -9   60.95    5.05
  -5 -11  -9   69.82    5.14
   5  11   9   59.88    4.45
   4 -11   0   11.31    3.04
  -4  11   0   11.31    3.48
   4 -11   0   14.71    2.85
   3  12  -1   22.02    2.86
   3  12  -1   22.53    3.08
   3  12  -1   20.81    2.80
   3  12  -1   19.78    2.54
   3  12  -1   29.96    3.97
   3  12  -1   26.98    3.65
  -8  -3   5   56.63    4.66
  -8  -3   5   69.74    5.40
   8   3  -5   67.34    5.89
  -8  -3   5   65.65    4.77
  -5  -3 -15   17.83    3.60
   5   3  15   18.58    2.44
  -5  -3 -15   13.81    2.21
   5   3  15   17.02    2.56
   5   3  15   13.27    3.08
   5   3  15   20.64    2.67
  -9   2  -5   21.48    3.40
  -9   2  -5   21.50    3.05
  -9   2  -5   25.20    3.58
   9  -2   5   27.59    3.15
   6   7  -6   15.26    3.24
  -6  -7   6   17.50    2.97
  -6  -7 -13    6.39    2.48
   6   7  13    7.35    3.53
  -6  -7 -13    6.02    2.71
   6   7  13   10.37    2.74
  -6  -7 -13    2.61    1.95
   6   7  13    7.40    2.96
  -6   9  -1   45.56    4.32
  -6   9  -1   36.54    4.30
   6  -9   1   49.49    4.29
   1   7  15    9.13    3.36
  -1  -7 -15    6.08    2.71
   1   7  15    7.17    3.53
  -1  -7 -15    4.23    2.47
   1   7  15    7.52    2.63
  -5  -7 -14   23.50    2.83
  -5  -7 -14   23.82    3.19
   5   7  14   23.80    3.43
  -5  -7 -14   18.95    3.50
   1   0 -15   46.21    3.97
  -1   0  15   52.46    4.43
  -1   0  15   45.15    3.91
  -9  -3  -8   -3.38    3.31
  -9  -3  -8    1.80    2.07
   9   3   8    3.04    2.68
   9   3   8    0.07    2.65
   1  13   4    4.75    3.87
   1  13   4    8.63    2.77
  -1 -13  -4   11.91    2.99
  -1 -10   7   62.69    4.42
   1  10  -7   72.21    5.57
   1  10  -7   63.85    5.14
   1  10  -7   62.51    5.17
   8   4  11   26.72    2.85
  -8  -4 -11   25.54    3.16
  -8  -4 -11   31.85    4.15
   8   4  11   21.33    3.61
   1  13   3   17.32    4.30
   1  13   3   26.15    3.34
  -1 -13  -3   20.01    2.68
   3   7  15   47.43    4.38
  -3  -7 -15   49.50    4.43
  -3  -7 -15   53.45    4.46
  -3  -7 -15   45.65    4.76
  -3  -7 -15   51.83    4.43
   1  -5 -15   52.99    4.50
  -1   5  15   56.13    4.75
  -1   5  15   51.82    4.14
   8   8   2   14.17    3.72
   8   8   2   18.33    3.24
   8   8   2   22.45    2.89
   8   8   2   17.68    3.12
   7  -3  -8   -1.43    2.90
  -7   3   8    2.53    2.22
  -7   3   8    0.59    2.33
   7  -3  -8    1.30    2.44
   5   9  -5   83.04    5.75
   5   9  -5   97.60    7.05
   5   9  -5   91.78    6.04
  -5  -9   5   99.36    6.88
   5   9  -5   87.66    6.68
   9  -2  -1    1.24    1.99
  -9   2   1    3.63    1.48
  -9   2   1   -0.83    2.77
  -9   2   1    4.26    2.05
   9  -2  -1    2.17    1.71
   8   6  10   33.34    4.00
   8   6  10   30.28    3.48
  -8  -6 -10   38.41    3.58
   8   6  10   34.58    2.99
   2   2  16   16.36    2.64
  -2  -2 -16   14.79    2.84
  -2  -2 -16   14.89    2.60
   2   2  16   12.59    1.93
   2   2  16   19.08    2.96
  -5   5  11   47.14    4.09
  -5   5  11   50.65    4.42
  -5   5  11   41.32    3.92
   5  -5 -11   43.98    3.51
   5  -5 -11   41.29    4.68
  -4   7 -10   87.44    6.81
  -4   7 -10  111.55    6.97
  -4   7 -10  104.32    7.40
  -2   6  14   22.49    3.77
  -2   6  14   19.72    3.46
   2  -6 -14   17.11    2.83
  -2   6  14   15.92    2.89
   6   1 -10   13.11    2.93
  -6  -1  10   14.39    2.95
  -2  12  -1   47.44    5.40
   2 -12   1   41.33    4.18
   2 -12   1   42.16    4.20
  -2  12  -1   55.71    4.73
   5   4  15    3.00    2.03
  -5  -4 -15   -0.33    2.53
  -5  -4 -15   -0.29    1.90
   5   4  15    2.12    2.23
   5   4  15    3.23    2.39
  -8   1 -10   23.43    3.83
   8  -1  10   26.48    3.69
  -8   1 -10   28.85    3.87
   2   4  16   24.62    2.74
  -2  -4 -16   21.62    2.86
   2   4  16   27.86    3.51
  -2  -4 -16   16.90    3.06
  -5   3 -13   49.09    4.62
  -5   3 -13   61.80    5.29
   5  -3  13   53.18    4.63
  -4   2  13   35.69    3.67
   4  -2 -13   38.42    3.27
   4  -2 -13   42.26    3.65
  -9  -2   2   63.60    5.38
  -9  -2   2   74.77    5.30
   9   2  -2   63.26    4.98
   6  11   5   76.45    6.13
   6  11   5   76.26    5.51
   6  11   5   76.37    5.50
   6  11   5   73.61    5.73
   6  11   5   61.19    5.40
   7   3  13    5.33    2.57
  -7  -3 -13   12.61    3.64
   7   3  13    8.60    2.61
   7   3  13    5.34    3.21
   9   5   1    3.95    2.06
  -9  -5  -1    5.58    2.93
  -9  -5  -1    5.04    1.97
   6  11   4   56.25    4.73
   6  11   4   59.94    4.90
   6  11   4   58.92    5.44
   6  11   4   64.73    4.63
   6  11   4   68.78    5.01
   6  11   4   58.69    5.04
   6  11   4   66.22    5.35
   1   3  16   36.04    3.36
  -1  -3 -16   32.57    3.23
  -1  -3 -16   35.25    3.61
   1   3  16   34.62    3.71
   2 -12  -6   24.18    3.55
  -4   4 -13    8.80    2.36
   4  -4  13   10.29    2.86
  -4   4 -13   11.31    2.64
  -4   4 -13   10.76    3.50
  -2  11   9   27.53    3.37
  -2  11   9   19.85    2.13
  -2  11   9   23.64    3.08
  -6   3 -12  105.93    7.53
  -3  10  -6   28.49    3.92
   3 -10   6   36.00    4.21
  -3  10  -6   21.87    3.54
   3  12   9    8.15    2.88
   3  12   9    1.37    2.69
  -3 -12  -9    2.83    2.87
  -7  -7   4   31.63    3.60
   7   7  -4   29.87    3.57
   7   7  -4   33.04    3.54
   5   2  15   42.44    3.99
   5   2  15   36.63    3.49
   5   2  15   37.33    3.19
  -5  -2 -15   40.89    4.56
   5   2  15   32.23    3.32
  -8   0   6   11.78    2.87
  -8   0   6    6.52    2.27
   8   0  -6   10.18    2.62
   8   0  -6   13.27    3.17
   6  10  -1   26.65    3.41
   6  10  -1   20.90    4.01
   6  10  -1   23.36    3.09
   6  10  -1   19.93    3.40
   6  10  -1   23.82    2.44
   6  10  -1   23.96    3.05
  -8  -7  -9   16.84    3.73
   8   7   9   13.75    2.86
  -8  -7  -9   18.61    2.91
   8   7   9    9.62    3.25
  -8  -7  -9   13.86    2.45
  -8   5  -5   36.60    3.45
  -8   5  -5   37.16    3.92
  -8   5  -5   33.10    3.33
  -8   5  -5   34.96    3.88
   8  -5   5   38.38    3.19
  -8   5  -5   35.60    3.52
  -9   1   2   82.23    6.24
   9  -1  -2   83.76    5.87
  -6  -5   8   27.80    3.35
   6   5  -8   24.60    3.50
  -6  -5   8   23.24    2.41
   6   5  -8   36.08    3.99
  -9  -1  -8   44.44    4.77
   9   1   8   41.29    4.30
   9   1   8   48.27    4.16
  -2   5 -13    3.33    2.00
   2  -5  13    3.28    2.79
  -2   5 -13    3.00    2.97
  -2   5 -13    3.47    2.63
   3  -2 -14   61.06    4.39
  -3   2  14   58.75    4.22
  -3   2  14   52.51    4.58
   3  -2 -14   53.34    4.33
   5 -10  -4    5.61    2.63
  -5  10   4    3.63    2.44
  -5   7  -9   35.31    3.91
  -5   7  -9   34.45    3.69
  -5   7  -9   41.70    3.41
  -1 -13  -5    0.57    2.73
   1  13   5   -2.69    4.00
   1  13   5    2.03    2.75
  -8   5   3    2.39    1.84
  -8   5   3    1.53    2.22
   8  -5  -3    3.08    2.09
  -8   5   3    3.75    2.68
  -8   5   3    5.53    2.22
   8   1  11    5.37    3.10
  -8  -1 -11    8.63    3.65
  -8  -1 -11    4.83    3.22
   7  -7  -4    3.23    2.28
  -7   7   4    1.09    2.02
   7   9   9  137.78    8.45
   7   9   9  133.57    9.14
  -7  -9  -9  110.19    7.44
   7   9   9  119.55    8.89
  -6  -5 -14   76.05    6.26
  -6  -5 -14   71.59    5.62
   6   5  14   81.15    6.11
   6   5  14   81.44    5.89
   4  -1 -13   50.87    3.92
   4  -1 -13   62.69    4.50
  -4   1  13   56.69    4.70
  -6  -1 -14    1.96    2.51
  -6  -1 -14    2.74    3.14
   6   1  14   -0.16    2.54
  -6  -1 -14   -3.84    3.77
  -5   9   7   32.70    2.95
   5  -9  -7   39.74    3.84
  -5   9   7   45.29    3.77
   8   8   7  100.43    7.35
  -8  -8  -7  111.72    8.24
   8   8   7   97.44    7.55
   8   8   7  114.24    7.55
  -8  -8  -7  116.73    7.42
  -8  -8  -7  106.68    7.61
   8   8   7  108.62    7.81
   8   8   7  109.44    6.95
   2  13   4   28.27    3.44
   2  13   4   24.48    4.36
  -2 -13  -4   26.85    3.52
   2  13   4   31.12    3.51
  -8   1   6    0.79    2.21
  -8   1   6   -1.83    2.60
   8  -1  -6    1.02    2.48
  -8   4  -7   38.30    4.21
  -8   4  -7   36.85    4.27
   8  -4   7   44.94    3.76
  -8   4  -7   35.45    3.77
  -8   4  -7   47.56    3.67
  -8   4  -7   46.17    3.76
   1   2  16   26.58    3.01
   1   2  16   20.36    3.09
  -1  -2 -16   19.10    2.90
  -1  -2 -16   15.33    2.51
   9  -3   2   50.41    4.04
  -9   3  -2   49.29    4.60
  -9   3  -2   52.08    4.16
  -9   3  -2   40.33    3.58
  -4  11   4    3.57    2.65
   4 -11  -4    6.10    2.83
   4 -11  -4    6.38    2.11
   0 -11 -11    7.11    2.81
   0  11  11    4.98    2.49
   7   2  13   12.40    3.46
  -7  -2 -13    3.26    3.14
  -7  -2 -13    4.68    3.56
   7   2  13    8.31    2.67
   1  13   2   23.86    4.43
  -1 -13  -2   19.52    2.80
   1  13   2   26.71    3.45
  -7   1 -12   56.70    5.38
  -7   1 -12   68.26    5.70
  -7   1 -12   63.13    4.76
  -4   6  12   52.63    4.31
  -4   6  12   57.15    4.89
   4  -6 -12   60.65    5.56
  -2   9  12   80.86    5.89
  -2   9  12   72.76    6.42
   2  -9 -12   69.31    5.45
   0  -5  13   85.65    6.63
   0  -5  13   92.34    6.34
   0   5 -13   86.01    6.57
   3  11  -4    9.69    2.41
   3  11  -4   10.49    2.88
   3  11  -4   10.39    2.08
   3  11  -4    9.33    3.37
  -3 -11   4    8.88    3.03
   7   4  13   96.12    6.16
   7   4  13   80.08    6.28
  -7  -4 -13   85.92    6.37
   7   4  13   83.08    6.60
  -7  -4 -13   93.54    7.16
   7   4  13   81.35    6.09
  -4   9  -7   55.61    4.46
  -4   9  -7   45.51    4.58
  -4   9  -7   53.86    4.93
  -3   3  14   76.09    5.44
   3  -3 -14   82.89    5.36
   3  -3 -14   70.62    5.46
  -3   3  14   67.89    5.10
  -2 -13  -3    5.26    2.70
   2  13   3    7.28    2.91
   2  13   3    9.59    3.75
   2  13   3    3.82    3.81
   2  13   3    6.90    2.65
  -3  -3 -16    8.13    2.76
   3   3  16    7.65    2.85
   3   3  16    5.30    1.99
   3   3  16    6.41    2.31
  -3  -3 -16    7.25    2.45
   9  -3   1   64.84    4.95
  -9   3  -1   95.13    6.12
   9  -3   1   93.15    5.43
  -9   3  -1   86.34    5.74
  -9  -5  -7   47.59    4.95
  -9  -5  -7   53.02    3.95
  -9  -5  -7   45.32    4.25
   9   5   7   46.58    4.18
  -6   8   6   24.93    2.92
   6  -8  -6   19.85    2.93
  -6   8   6   19.39    2.38
  -3   9  -8   44.95    4.59
  -3   9  -8   45.59    4.23
  -3   9  -8   45.94    4.39
   8   7  -1   13.72    2.80
   8   7  -1    9.40    3.76
   8   7  -1   13.74    2.45
  -1  12   8   38.72    3.84
   0 -12  -9   17.45    3.16
   0  12   9   20.41    3.08
   7   2  -8    5.85    2.95
  -7  -2   8    9.30    2.93
  -7  -2   8    9.73    2.21
  -4   3  13    3.34    2.43
   4  -3 -13    6.22    2.16
  -4   3  13    2.72    1.95
  -4 -12  -8   11.58    2.87
   4  12   8   14.06    2.74
   4  12   8   13.87    2.87
   4  12   8   12.10    2.90
   4  12   8   17.61    2.23
   6  11   6  143.20    9.69
   6  11   6  135.53    9.03
   6  11   6  128.27    9.08
   6  11   6  147.06    9.28
   6  11   6  138.13    9.17
   5 -10   2   55.50    4.62
  -5  10  -2   53.13    4.86
  -5  10  -2   48.64    5.03
   5 -10   2   48.93    4.43
   0  13   3   48.55    5.31
   0 -13  -3   51.22    4.26
   0 -13  -3   60.99    4.97
  -6   6  -9    5.15    2.66
  -6   6  -9    5.84    2.68
  -6   6  -9    6.24    3.11
  -6   6  -9    6.46    1.89
  -1  -4 -16   28.38    3.31
  -1  -4 -16   25.41    3.04
   1   4  16   31.34    3.85
   1   4  16   35.36    3.02
   6  11   3   39.36    3.75
   6  11   3   43.07    3.99
   6  11   3   43.49    4.45
   6  11   3   47.90    3.63
   6  11   3   55.50    4.51
   6  11   3   41.38    4.11
   6  11   3   42.09    4.04
   6  -9  -3   21.03    3.04
  -6   9   3   19.22    2.97
   2  -8  10   21.30    2.25
  -2   8 -10   22.08    2.61
  -2   8 -10   29.27    3.60
  -2   8 -10   25.82    3.52
   1   7 -11   36.15    3.79
   1   7 -11   36.03    4.04
  -1  -7  11   34.50    3.32
   2  13   5   23.91    4.48
  -2 -13  -5   30.23    3.60
   2  13   5   28.20    3.35
   2  13   5   25.81    4.54
  -3   1  14   20.52    3.00
  -3   1  14   16.67    2.26
   3  -1 -14   16.54    2.46
   3  -1 -14   16.47    2.58
   0  13   4   37.37    5.03
  -8  -1   6   45.65    4.27
  -8  -1   6   40.24    3.63
   8   1  -6   51.90    5.00
   9  -3   3   78.59    5.53
  -9   3  -3   75.33    5.45
  -9   3  -3   72.74    4.96
  -9   3  -3   58.24    5.63
  -9  -4  -8   39.55    3.91
  -9  -4  -8   42.77    4.56
  -9  -4  -8   38.92    3.57
   9   4   8   38.87    3.91
   7   4  -7    3.20    2.64
  -7  -4   7    1.88    2.67
   7   4  -7   -0.39    3.19
  -7  -4   7   -0.58    1.86
  -7   5   7   30.04    3.31
  -7   5   7   26.87    3.08
   7  -5  -7   27.28    3.64
   4 -11   1   21.77    3.26
   4 -11   1   24.30    3.34
  -4  11  -1   24.89    3.15
  -4  11  -1   21.64    3.98
   7  10   5    6.33    2.86
   7  10   5    9.82    2.55
   7  10   5    2.61    3.03
   7  10   5    7.52    3.18
   7  10   5    5.60    3.46
   7  10   5    2.30    2.48
   6  -9   2   22.51    2.96
  -6   9  -2   19.47    3.54
  -6   9  -2   23.94    3.59
   7  10   4   11.27    3.35
   7  10   4   13.40    2.80
   7  10   4   18.11    3.31
   7  10   4    9.33    2.60
   7  10   4   16.26    3.07
   7  10   4   20.64    3.17
   5  11  -1   46.52    4.04
   5  11  -1   47.51    5.10
   5  11  -1   47.72    4.01
   5  11  -1   51.85    4.38
   5  11  -1   48.91    4.82
   5  11  -1   45.77    3.83
   5  11  -1   59.95    3.95
  -1  -3  14    0.58    2.13
  -1  -3  14    0.89    2.83
   1   3 -14   -1.14    3.10
  -1  -3  14    3.47    2.52
   3  10  -6   -4.92    3.22
   3  10  -6    2.80    2.24
  -3 -10   6   -0.47    2.01
  -3  -4 -16    0.94    2.58
  -3  -4 -16    2.29    2.30
   3   4  16    0.91    2.08
   3   4  16    2.15    2.03
   0 -12   3   15.66    3.19
   0  12  -3   17.47    3.01
   3   2  16   23.74    2.62
   3   2  16   27.33    3.25
   3   2  16   31.16    2.77
  -3  -2 -16   27.74    3.43
   3   2  16   35.11    3.66
   1  -2  15   46.73    4.22
   1  -2  15   39.66    3.88
  -1   2 -15   54.76    5.29
  -7   6   6   46.95    3.91
  -7   6   6   41.19    4.16
   7  -6  -6   45.18    3.94
  -7   6   6   51.42    3.78
  -9  -6  -4    7.67    2.29
  -9  -6  -4   10.08    3.26
   9   6   4   10.06    2.97
   9   6   4   10.27    2.27
  -9  -6  -4    6.05    1.72
  -2   2 -15   94.88    7.36
   2  -2  15   68.79    5.85
   2  -2  15   90.61    6.05
   2  10  13   30.27    4.51
  -2 -10 -13   40.21    4.20
   2  10  13   34.04    4.29
  -2 -10 -13   42.32    4.56
  -2 -10 -13   46.57    4.20
  -6  -8   5   11.52    2.83
   6   8  -5    4.56    3.50
   6   8  -5    8.80    3.09
   0  13   2   56.46    5.71
   0 -13  -2   44.61    4.17
   0 -13  -2   61.87    4.83
  -9   1  -7   36.70    4.13
  -9   1  -7   34.13    3.71
   9  -1   7   32.45    3.53
  -8   6  -1   21.56    3.33
   8  -6   1   21.78    2.66
  -8   6  -1   17.92    3.05
   2   1  16   37.06    4.01
  -2  -1 -16   41.28    3.99
  -2  -1 -16   40.70    4.50
   2   1  16   40.38    3.24
   2   1  16   47.52    3.90
  -2  -9 -14   41.30    4.48
  -2  -9 -14   38.90    4.23
  -2  -9 -14   43.62    4.14
   2   9  14   44.42    4.79
   2   9  14   36.52    4.18
  -7   6  -7   -0.25    2.50
  -7   6  -7    0.09    2.84
  -7   6  -7    2.56    2.00
  -7   6  -7    1.43    2.74
  -2   8  13   47.22    4.99
   2  -8 -13   32.98    3.52
  -1 -12   3   42.36    4.31
   1  12  -3   34.18    3.69
   4   7  -9   19.57    2.19
  -4  -7   9   21.48    2.92
   4   7  -9   24.22    3.43
  -2  10  -7   51.44    4.60
  -2  10  -7   49.22    4.81
  -2  10  -7   54.80    4.60
  -5  -5 -15    6.43    2.67
  -5  -5 -15    4.75    2.12
   5   5  15    5.55    2.43
   5   5  15    7.84    2.62
  -1  -8  10   37.92    3.43
   1   8 -10   44.13    4.34
   1   8 -10   38.33    3.86
  -4 -10   5   63.12    4.76
   4  10  -5   59.87    4.20
   4  10  -5   65.61    5.37
   4  10  -5   50.91    4.33
   4  10  -5   56.67    4.41
   4  10  -5   54.82    4.51
  -9  -4   1   -1.47    2.65
   9   4  -1    0.39    2.19
  -9  -4   1    2.06    2.39
  -1  -6  12   61.54    4.83
   1   6 -12   58.11    5.01
   1   6 -12   61.93    5.20
   9   6   5    2.53    2.90
  -9  -6  -5    2.11    1.72
  -9  -6  -5   -0.22    3.20
  -9  -6  -5    2.11    2.23
   9   6   5    1.38    2.26
  -8   6   0   39.46    3.89
   8  -6   0   42.40    3.47
   8  -6   0   37.13    3.03
   9  -3   0   28.65    2.74
   9  -3   0   31.80    3.08
  -9   3   0   41.28    3.37
  -9   3   0   40.15    4.35
  -9   3   0   44.90    3.75
  -2  -2  14   51.21    4.02
   2   2 -14   42.17    3.60
  -2  -2  14   47.02    4.28
  -2  -2  14   53.30    4.65
  -2  -2  14   43.38    3.76
  -2  -5 -16   66.54    5.26
  -2  -5 -16   64.42    5.06
   2   5  16   68.34    5.75
   2   5  16   71.85    5.18
   2  13   2    2.21    2.82
   2  13   2   -0.72    3.88
   2  13   2    5.89    3.23
  -2 -13  -2    7.99    2.87
   2  13   2    8.31    2.67
   8   5  11   49.28    5.17
   8   5  11   64.47    4.48
  -8  -5 -11   59.48    4.87
  -8  -5 -11   66.31    5.78
  -3   9  11   20.37    2.52
  -3   9  11   23.53    2.83
  -3   9  11   20.51    3.92
  -3   9  11   28.60    3.26
   1  13   6    0.74    3.84
  -1 -13  -6    2.39    2.82
   1  13   6    4.38    2.78
   0   9  -9    8.68    2.94
   0  -9   9    5.94    1.82
   0   9  -9    4.14    2.73
   7  10   6   -1.55    3.55
   7  10   6    1.17    2.55
   7  10   6    5.29    3.30
   7  10   6   -3.58    2.86
   7  10   6    2.18    3.05
   7  10   6    1.96    2.31
  -9  -6  -3   27.68    2.99
  -9  -6  -3   28.86    3.89
   9   6   3   24.07    2.72
   9   6   3   27.28    3.50
  -3   8  12   71.47    6.04
  -3   8  12   68.89    5.12
  -3   8  12   76.36    5.47
   2  11  -5   50.07    4.30
   2  11  -5   45.45    4.19
   2  11  -5   51.81    4.34
  -2 -11   5   49.66    3.78
   0  13   5   19.99    3.16
   0  13   5   15.24    4.39
   1  -9 -13   19.49    3.16
  -1   9  13   15.19    3.36
  -8   2   6   16.89    2.86
  -8   2   6   16.31    2.94
   8  -2  -6   18.28    2.91
   4   0 -13   20.47    2.20
   4   0 -13   21.36    2.92
   4  11  -3   86.95    6.29
   4  11  -3   64.66    5.54
   4  11  -3   69.60    5.53
   4  11  -3   70.75    5.30
   4  11  -3   82.73    5.26
   1  -9   9    5.52    1.66
  -1   9  -9    4.94    2.96
  -1   9  -9    6.91    2.92
   8   8   1    8.26    2.63
   8   8   1    1.06    2.48
   8   8   1    1.70    3.63
  -5  -1 -15   15.19    4.13
  -5  -1 -15   12.19    3.03
   5   1  15   15.27    2.11
   5   1  15   19.46    3.22
   5   1  15   15.87    2.81
  -5  -1 -15   15.46    3.48
   7  10   3   47.35    4.18
   7  10   3   44.06    4.11
   7  10   3   49.48    4.21
   7  10   3   44.37    4.49
   7  10   3   51.58    4.52
   7  10   3   39.59    3.91
   7  10   3   41.78    3.96
  -4  10  -5   25.54    3.58
   4 -10   5   30.05    3.78
  -4  10  -5   34.51    3.51
   2   4 -13   17.48    2.93
   2   4 -13   14.03    3.12
  -2  -4  13   12.85    2.43
  -2  -4  13   11.89    2.77
  -2  -4  13   13.81    3.34
   1   1  16    2.62    2.49
  -1  -1 -16    2.42    2.51
   1   1  16    1.51    2.44
   4  12   0   55.90    4.47
   4  12   0   54.42    4.54
   4  12   0   62.70    4.88
   4  12   0   72.66    5.44
   4  12   0   58.90    4.41
   4  12   0   64.59    5.29
   4  12   0   59.54    4.51
  -2  10  11   48.04    4.21
  -2  10  11   52.62    4.60
  -8   6  -2   22.62    3.25
  -8   6  -2   18.88    3.31
   8  -6   2   17.54    2.43
  -8   6  -2   13.69    2.72
   6  -4 -10   31.02    3.95
  -6   4  10   26.74    3.07
   6  -4 -10   24.18    3.00
  -9   2  -6   46.67    4.40
  -9   2  -6   44.01    4.12
   9  -2   6   37.22    3.63
   2  13   6   32.50    4.76
  -2 -13  -6   38.16    4.10
  -1 -13  -1   75.97    5.66
   1  13   1   79.17    5.92
   1  13   1   77.87    6.74
  -7  -1 -13   22.20    3.71
  -7  -1 -13   16.77    4.01
   7   1  13   18.99    3.03
   6  10  10   10.90    3.79
  -6 -10 -10    8.51    2.42
  -6 -10 -10    8.23    2.51
   6  10  10    6.04    2.39
   6  10  10    6.64    2.77
  -3   6 -12   60.46    4.49
  -3   6 -12   54.89    4.97
   4   3 -12    5.57    2.70
  -4  -3  12    5.73    1.93
  -4  -3  12   -0.34    2.71
   4   3 -12    7.55    3.25
   5  -2 -12    0.52    2.24
  -5   2  12   -0.31    2.51
   4   6 -10   70.80    5.68
  -4  -6  10   66.71    5.20
  -9  -3   2   23.86    2.99
  -9  -3   2   21.13    3.10
  -9   0  -8  140.10    9.64
   9   0   8  131.80    8.80
  -7   7  -5    7.61    3.08
  -7   7  -5   10.00    2.68
  -7   7  -5   12.93    3.00
  -7   7  -5    9.07    2.97
  -5   1  12    3.81    2.55
   5  -1 -12    5.80    2.41
  -1 -10 -13    8.98    2.84
  -1 -10 -13    4.35    2.92
   1  10  13    9.66    3.52
   1  10  13    7.35    3.90
  -9   3  -4   73.12    5.50
  -9   3  -4   70.56    5.75
  -9   3  -4   70.18    5.02
  -9   3  -4   66.23    5.34
   9  -3   4   81.48    5.75
  -3   4  14   24.73    3.07
   3  -4 -14   23.65    2.88
  -3   4  14   22.16    2.89
   3  -4 -14   23.11    2.42
  -6 -11  -7   60.30    4.83
   6  11   7   52.25    5.41
   6  11   7   53.39    4.41
   6  11   7   58.48    4.73
   6  11   7   50.41    4.66
   6  11   7   57.99    4.62
   6  11   2   14.33    2.55
   6  11   2   19.56    3.07
   6  11   2   19.57    2.93
   6  11   2   23.43    2.49
   6  11   2   22.37    3.07
   6  11   2   24.83    3.52
   6  11   2   15.11    3.29
   6  11   2   19.33    2.00
   3   7 -10    9.40    2.38
   3   7 -10    4.41    2.94
  -3  -7  10    8.05    2.40
   5  12   4    2.17    2.74
   5  12   4    6.82    2.59
   5  12   4    5.02    2.32
   5  12   4    2.26    3.26
   5  12   4    2.23    3.25
   5  12   4    6.37    2.44
   5  12   4    9.75    3.07
   5  12   4    6.51    2.84
   1 -10 -12   73.68    5.74
  -1  10  12   93.62    6.81
  -7  -8 -11   48.97    3.85
   7   8  11   49.89    4.90
   7   8  11   44.78    4.23
  -7  -8 -11   52.71    4.29
   5  12   5   14.94    3.10
   5  12   5   19.08    2.87
  -5 -12  -5    8.90    2.76
   5  12   5   11.24    2.97
   5  12   5    8.39    2.49
   5  12   5   13.18    3.81
   5  12   5    8.07    3.05
   5  12   5   11.39    3.47
   5  12   5   17.59    2.89
   3 -12  -2   21.46    3.39
  -3  12   2   22.38    4.17
   3 -12  -2   14.33    2.83
   4   8  -8   17.21    2.27
  -4  -8   8   20.69    2.85
   4   8  -8   14.88    2.31
   7   5  13   53.86    4.42
   7   5  13   46.91    4.37
  -7  -5 -13   62.05    5.65
  -7  -5 -13   49.60    4.52
   7   5  13   55.92    5.11
   7   5  13   56.99    4.76
  -2  11  -5   66.29    5.13
   2 -11   5   65.44    5.59
  -2  11  -5   55.87    5.32
  -2  11  -5   59.16    5.13
   8   5  -4   21.90    4.05
  -8  -5   4   17.00    2.85
  -8  -5   4   20.88    3.32
  -8  -5   4   22.39    2.73
   1   9  14   45.06    4.63
  -1  -9 -14   51.13    4.55
  -1  -9 -14   45.67    4.46
   1   9  14   48.82    5.14
  -4 -11 -11  162.22   10.64
  -4 -11 -11  162.71   10.72
   1  -4  14   41.75    4.24
  -1   4 -14   37.48    4.34
  -9   2   2    5.60    2.93
   9  -2  -2   11.51    2.31
  -5   7  10    0.29    2.02
   5  -7 -10    2.60    2.42
  -5   7  10    2.36    2.09
   5  -7 -10   -1.64    3.35
  -5   7  10    2.39    2.89
   0  -7 -15  109.50    7.07
   0  -7 -15   87.14    6.84
   0   7  15   90.98    7.46
   0   7  15   99.95    6.92
   0   7  15  100.79    7.46
  -9  -5   0   28.13    3.60
   9   5   0   20.47    2.74
   3  10  13   41.03    4.63
  -3 -10 -13   44.95    4.78
  -3 -10 -13   49.57    4.48
   3  10  13   52.25    5.07
   7   9  -1  139.18    9.26
   7   9  -1  122.13    8.58
   7   9  -1  136.34    8.53
   7   9  -1  118.88    8.58
   3   9  14   10.82    3.57
   3   9  14    9.25    3.19
  -3  -9 -14    9.92    2.98
  -3  -9 -14    7.18    3.20
  -3  12   3    7.11    3.70
   3 -12  -3    8.60    3.09
   3 -12  -3    8.29    2.46
   4 -11  -5    2.30    2.62
  -4  11   5    0.49    2.49
   8  -6  -1   15.89    2.54
  -8   6   1   16.67    2.91
  -4   4  13   -1.37    2.28
   4  -4 -13   -2.88    1.95
  -4   4  13    0.41    2.11
  -1  -5 -16   21.08    2.79
   1   5  16   23.73    2.82
   1   5  16   18.93    3.47
  -1  -5 -16   18.54    3.09
  -4   1 -15    1.95    2.81
  -4   1 -15    3.49    2.89
  -4   1 -15    0.24    3.59
   4  -1  15    0.30    2.49
  -3   7 -11   53.78    5.10
  -3   7 -11   63.46    4.87
  -3   7 -11   53.32    4.34
  -9  -6  -6    7.28    2.38
   9   6   6    3.66    2.40
  -9  -6  -6    6.70    3.38
  -9  -6  -6    4.80    1.94
   3   0 -14    0.20    1.99
   3   0 -14    1.52    2.24
   7   7  12    3.41    3.38
   7   7  12   -0.08    2.48
  -7  -7 -12    3.59    2.44
   2  12  10   66.05    5.34
  -2 -12 -10   67.92    5.60
   0 -13  -1   14.66    3.20
   0  13   1   17.51    4.27
   0 -13  -1   19.13    2.86
   8   0  11   51.38    4.81
  -8   0 -11   47.37    5.00
  -8   0 -11   56.18    5.23
  -4   8  -9   37.53    4.29
  -4   8  -9   41.06    3.69
  -4   8  -9   33.86    3.97
  -4   8  -9   34.50    3.56
   8   8   8   71.83    5.78
  -8  -8  -8   54.51    4.86
  -8  -8  -8   60.14    5.60
  -8  -8  -8   66.92    4.66
   7   8  -3   86.10    6.39
   7   8  -3   93.16    6.08
   7   8  -3   77.22    6.27
   7   8  -3   93.18    7.06
   7  -8   0   41.16    3.80
  -7   8   0   54.46    4.89
  -6  -4   9   62.86    4.77
   6   4  -9   77.98    6.29
   6   4  -9   83.62    6.20
  -6  -4   9   89.70    5.74
   3   5  16   26.47    3.04
  -3  -5 -16   25.95    3.28
  -3  -5 -16   26.28    3.08
  -3  -5 -16   18.81    2.96
   0   3  16   40.88    3.93
   0  -3 -16   39.14    3.53
   0  -3 -16   44.71    3.96
   5  -8  -9   11.65    3.55
  -5   8   9   12.06    3.18
  -5   8   9   11.22    2.53
  -5   8   9    9.31    2.05
  -5   8   9    9.79    2.09
   5  -8  -9   11.35    2.69
   6   2 -10   46.88    4.32
   6   2 -10   41.38    4.40
  -2   2  15    6.38    2.17
   2  -2 -15    0.72    2.26
   5 -10  -5    0.74    2.51
  -5  10   5    1.25    2.57
  -6   2 -13   69.92    5.94
  -6   2 -13   78.17    5.62
  -9   0   3   18.20    3.07
   9   0  -3   21.51    2.80
  -3  11  -4   82.25    6.65
  -3  11  -4   88.63    6.43
   3 -11   4   91.60    6.97
  -8  -2   6  114.59    7.04
   8   2  -6  129.52    9.17
  -8  -2   6  113.73    7.46
  -4  -7 -15   15.54    2.92
   4   7  15   19.95    3.31
  -4  -7 -15   16.30    2.87
  -4  -7 -15   13.33    3.35
  -3  12   1   17.19    4.02
   3 -12  -1   20.57    3.11
   3 -12  -1   18.80    3.41
  -3  12   1   20.81    3.22
  -1  -1  15   41.75    3.77
   1   1 -15   37.52    3.53
  -1  -1  15   42.06    3.97
  -1  12  -3   22.18    3.30
   1 -12   3   28.61    3.76
  -1  12  -3   26.44    3.64
  -8   4   5   21.54    3.43
  -8   4   5   27.62    2.94
  -8   4   5   25.01    3.08
   2 -12   2   32.56    4.10
   2 -12   2   52.23    4.43
  -2  12  -2   40.56    4.21
  -4  10   8   59.40    4.43
   4 -10  -8   76.61    5.88
  -4  10   8   69.56    5.06
  -8  -6   3    7.78    2.93
   8   6  -3    2.84    2.61
  -3  -8   9    9.18    2.44
   3   8  -9    5.13    2.97
   3   8  -9    8.92    2.34
  -7   4   8    7.13    2.44
   7  -4  -8    5.39    3.08
  -2   3  15   13.53    2.49
   2  -3 -15   10.89    2.53
   9   1  -3    3.04    2.30
  -9  -1   3    3.42    2.65
  -2   4 -14    0.54    2.60
  -2   4 -14   -2.38    3.22
   2  -4  14   -1.56    2.73
   9   6   2   57.61    4.30
  -9  -6  -2   59.08    5.29
   9   6   2   50.36    4.66
  -3  -1 -16   61.42    5.38
   3   1  16   64.25    4.41
   3   1  16   59.25    5.16
   3   1  16   64.86    5.03
  -6   9   4   11.64    2.62
   6  -9  -4   14.43    2.85
  -7   4 -10   19.59    3.35
  -7   4 -10   26.83    3.76
  -2  12   7   27.30    3.37
   2 -12  -7   28.93    3.65
   0   2  16   61.74    4.80
   0  -2 -16   55.72    4.40
   0  -2 -16   46.59    3.95
   0   2  16   59.37    4.81
   5  12   3   22.05    2.79
   5  12   3   22.16    3.46
   5  12   3   16.94    3.14
   5  12   3   19.41    3.26
   5  12   3   20.35    2.92
   5  12   3   17.38    3.55
   5  12   3   16.55    3.47
   5  12   3   22.90    2.91
  -5  -7   8   23.48    3.17
   5   7  -8   26.53    3.90
  -3   5 -13   23.65    3.16
  -3   5 -13   24.42    2.94
  -3   5 -13   22.64    3.91
  -1   6  15   81.52    6.04
  -1   6  15   88.92    6.51
   1  -6 -15   90.43    6.56
   2  10  -7   67.38    5.46
  -2 -10   7   71.12    5.03
   2  10  -7   84.40    6.08
  -4   3 -14    4.55    2.58
  -4   3 -14    8.11    3.46
  -4   3 -14    8.03    2.27
   4  -3  14    5.94    2.76
   1  12  10   88.14    6.51
  -1 -12 -10   86.90    6.59
   5  12   6   15.68    2.92
   5  12   6   11.62    2.83
   5  12   6   12.93    2.98
  -5 -12  -6   11.83    2.85
   5  12   6   17.03    2.99
  -7   8   1   86.18    6.43
   7  -8  -1   75.17    5.53
   6   6  14   11.36    2.91
  -6  -6 -14   15.33    2.84
   6   6  14    8.64    2.71
  -6  -6 -14    9.39    3.08
   6   0  14   15.35    3.10
  -6   0 -14   13.05    3.46
  -6   0 -14   25.43    3.16
   7  -8   1   37.76    3.71
  -7   8  -1   31.74    3.86
  -7   8  -1   39.39    4.08
   3  13   4   41.67    5.05
   3  13   4   53.88    4.40
   3  13   4   35.49    3.78
   3  13   4   40.66    4.02
   3  13   4   43.03    5.26
  -3 -13  -4   42.61    4.26
   5  -3 -12   13.99    2.49
  -5   3  12   11.33    2.72
   3   6 -11   16.60    3.09
   3   6 -11   12.46    2.65
  -3  -6  11   15.59    2.93
   7  10   7    4.10    2.87
   7  10   7    2.65    2.59
   7  10   7    8.97    2.43
   7  10   7    2.33    2.84
  -7 -10  -7    4.09    2.22
   7  10   7    3.18    3.41
   6  -7  -8   10.87    2.64
  -6   7   8   13.98    2.34
  -6   7   8   10.00    2.25
   6  -7  -8   11.90    3.49
  -6   7   8   17.11    3.05
  -6   7   8   11.19    1.97
   0  -2  15    4.19    2.80
   0   2 -15    5.58    3.47
   0  -2  15    5.02    2.38
  -8   6  -3   13.43    2.63
  -8   6  -3   13.71    2.56
  -8   6  -3    9.13    3.05
   5   3 -11   53.09    4.95
   5   3 -11   56.11    4.79
  -5  -3  11   47.31    3.76
  -5  -3  11   55.24    4.56
  -3  -3  13   55.59    4.76
  -3  -3  13   56.27    4.34
   3   3 -13   49.63    3.81
   3   3 -13   52.86    4.49
  -5 -11 -10   54.60    4.68
   5  11  10   55.63    5.69
  -5 -11 -10   57.17    4.72
  -6   9  -3   14.78    3.44
  -6   9  -3   18.30    3.03
   6  -9   3   13.54    2.64
  -6   9  -3   17.21    3.47
  -4  11  -2   56.31    4.40
   4 -11   2   36.93    4.15
  -4  11  -2   38.53    5.05
   4 -11   2   45.87    4.14
   5   0 -12   19.12    3.03
  -5   0  12   17.34    3.04
   9  -3  -1   10.67    2.09
  -9   3   1   17.99    2.58
   9  -3  -1   17.70    2.43
  -9   3   1   11.27    3.23
   9   2   9   17.12    3.19
  -9  -2  -9   27.63    4.12
   9   2   9   23.93    3.42
  -6   6   9   18.15    3.06
   6  -6  -9   19.63    3.59
   6  -6  -9   17.21    2.54
  -6   6   9   15.22    2.48
  -6   6   9   14.90    2.33
  -3  11   8   26.74    3.50
  -3  11   8   28.83    3.26
   3 -11  -8   26.17    3.45
   8   4  -5   16.40    3.74
  -8  -4   5   12.83    2.56
  -8  -4   5   11.74    2.49
   7  10   2   48.51    5.14
   7  10   2   61.81    4.85
   7  10   2   49.58    4.66
   7  10   2   54.11    4.85
   7  10   2   58.64    4.63
   7  10   2   60.50    4.53
   9   5   8   43.67    4.22
  -9  -5  -8   45.48    4.23
  -9  -5  -8   43.52    3.90
  -7   3 -11   23.05    3.60
  -7   3 -11   27.56    3.86
  -3 -13  -5   55.36    4.83
   3  13   5   40.72    5.45
   3  13   5   52.44    4.48
   3  13   5   53.05    4.68
   3  13   5   51.59    4.01
   3  -2  15    7.41    2.79
  -3   2 -15    6.79    3.02
  -3   2 -15    5.48    2.65
   3  -2  15    6.50    2.74
  -3   2 -15    4.01    3.61
   0  13   6    4.84    2.68
  -5  10  -3   26.10    2.99
   5 -10   3   25.51    3.53
   5 -10   3   26.99    3.23
  -5  10  -3   21.65    4.01
  -5  10  -3   22.36    3.75
  -9  -3  -9    1.95    2.22
   9   3   9   -0.37    2.82
  -2 -11 -12    3.70    2.91
  -5  -6   9    2.42    2.52
   5   6  -9    6.41    3.27
   2  13   1    6.70    3.96
   2  13   1    9.58    3.35
   2  13   1   15.58    3.20
   2  13   1   15.12    2.97
  -2 -13  -1   15.19    3.04
   3  12  -2    5.08    3.32
   3  12  -2    2.60    2.12
   3  12  -2   -0.87    2.38
   3  12  -2    1.06    3.35
   3  12  -2    0.28    2.22
   3  12  -2    0.35    1.81
  -6   8  -6    6.47    3.14
  -6   8  -6    4.19    2.61
   8  -5   6   30.82    2.88
  -8   5  -6   23.99    3.17
  -8   5  -6   23.41    3.65
  -8   5  -6   27.84    3.04
  -8   5  -6   26.76    3.04
  -8   5  -6   24.29    3.56
  -5  -9 -13   54.44    4.62
  -5  -9 -13   51.79    4.93
   5   9  13   46.79    4.42
  -5  -9 -13   56.47    4.54
  -3  12   4   -4.21    3.63
   3 -12  -4   -0.57    2.83
   1  -8 -14    6.11    2.64
   1  -8 -14    9.05    2.81
  -1   8  14    5.92    3.00
  -1   8  14    7.56    3.63
  -5   2 -14   57.94    5.08
   5  -2  14   63.56    5.15
  -5   2 -14   66.37    5.27
  -5   2 -14   71.44    5.93
   0  -4 -16    9.49    2.30
   0  -4 -16   12.32    2.77
   0   4  16   14.53    3.05
   3  13   3   31.77    4.50
   3  13   3   34.82    4.01
   3  13   3   36.05    3.67
   3  13   3   31.11    4.65
  -3 -13  -3   34.48    3.85
   3  13   3   40.62    3.78
   8  -5  -4    7.61    2.26
  -8   5   4    5.79    2.32
  -8   5   4    8.29    2.28
  -1  -9   9   28.18    2.81
   1   9  -9   30.45    3.52
   2  -1 -15    7.11    2.35
  -2   1  15    5.78    2.07
   9  -1  -3   76.01    5.49
  -9   1   3   68.02    5.45
  -5   9  -6   11.25    2.36
  -5   9  -6    7.59    2.79
  -5   9  -6    9.76    3.28
   2   8  15   -5.74    3.64
  -2  -8 -15    4.02    2.76
  -2  -8 -15    4.62    2.63
   2   8  15    8.25    2.85
   1   5 -13   28.29    3.63
  -1  -5  13   37.72    3.64
  -1  -5  13   31.94    3.40
   1 -13  -3   49.29    4.73
   2  12  -3   25.20    3.41
   2  12  -3   26.68    3.88
  -2 -12   3   35.60    4.02
   2  12  -3   32.93    2.78
   2  12  -3   36.25    3.42
  -7   7   5    4.12    2.13
   7  -7  -5    9.28    2.53
  -7   7   5    3.96    2.06
  -3  10  10    2.55    2.29
  -3  10  10    2.10    2.62
   3 -10 -10    0.86    2.63
  -3  10  10    4.63    1.72
  -1 -13  -7   13.57    3.40
   1  13   7   11.87    2.96
  -6   7  -8   -0.56    2.57
  -6   7  -8    1.86    1.78
  -6   7  -8    4.87    2.99
  -6   7  -8    5.93    2.69
  -4 -12  -9   19.65    3.23
  -2   9  -9   10.55    2.99
  -2   9  -9    8.92    3.28
  -2   9  -9   19.01    3.29
  -8   3  -9   18.08    2.69
  -8   3  -9   12.48    3.21
  -8   3  -9   13.21    3.41
   0  -4  14   48.61    4.37
   0   4 -14   46.61    4.71
   0  -4  14   58.88    4.89
  -2 -13  -7   74.11    5.88
   2  13   7   73.20    5.73
   4   3  16   49.95    4.16
   4   3  16   49.25    4.06
  -4  -3 -16   56.17    4.79
   4   3  16   54.91    4.05
  -5   8  -8   32.82    3.17
  -5   8  -8   27.47    3.48
  -5   8  -8   32.23    3.71
  -3   7  13   27.62    3.12
  -3   7  13   31.00    4.08
  -3   7  13   33.23    4.11
   3 -12   0   45.68    4.39
  -3  12   0   45.01    5.30
   3 -12   0   47.42    4.53
  -3  12   0   53.91    4.60
   5   8  -7   21.81    2.45
  -5  -8   7   24.60    3.21
   2   0  16   37.40    3.99
   2   0  16   45.34    4.06
  -7   5  -9    0.82    2.78
  -7   5  -9    1.67    2.05
  -7   5  -9    2.70    3.06
  -9  -2   3    0.39    2.43
   2  -4 -15   23.86    3.02
  -2   4  15   25.20    3.17
  -1 -11 -12    1.95    2.75
  -9   3  -5   34.31    3.37
  -9   3  -5   41.56    3.76
  -9   3  -5   40.20    4.08
   9  -3   5   41.48    3.74
   7  -8  -2   51.17    4.35
  -7   8   2   72.25    5.64
  -5  -6 -15    6.60    2.31
   5   6  15    6.59    2.80
   5   6  15    8.20    2.69
   8   7  10    3.36    3.18
   8   7  10    2.14    2.51
  -8  -7 -10    3.36    2.21
   1 -13  -4   59.00    5.19
   0  11  -6    7.96    2.96
   0  11  -6    7.71    2.70
  -7  -9 -10  109.01    7.43
  -7  -9 -10  118.07    7.67
   7   9  10  107.04    7.22
   7   9  10   86.14    6.25
   7   3  -8   -0.39    2.72
   7   3  -8   -1.75    3.13
  -7  -3   8    2.26    1.94
   1 -13  -2   14.29    2.61
   1 -13  -2   13.38    3.15
  -4  -5  11   99.31    7.09
   4   5 -11   98.04    6.87
   4   5 -11   87.47    7.04
  -8   6   2   15.68    2.84
   8  -6  -2   12.57    2.50
  -3 -12 -10    0.57    2.94
  -7   8  -2   33.06    3.93
  -7   8  -2   38.21    4.12
   7  -8   2   34.64    3.41
  -8   3   6   26.28    3.35
  -8   3   6   28.82    3.36
   8  -3  -6   30.52    3.43
  -5 -10   4   71.49    5.38
   5  10  -4   78.10    6.37
   5  10  -4   70.37    5.14
   5  10  -4   76.92    5.43
  -1 -13   0   46.43    4.44
   1  13   0   52.24    4.59
  -1 -13   0   53.20    4.68
   1  13   0   54.46    5.65
  -8   2 -10   31.82    4.14
  -8   2 -10   32.09    4.07
   4   1 -13    9.95    2.66
  -4  -1  13    7.80    2.22
   5  -6 -11   15.93    3.84
  -5   6  11   13.75    2.61
  -5   6  11   16.20    3.15
  -5   6  11   19.18    2.40
   4   4  16   10.93    2.38
  -4  -4 -16   16.30    3.04
   4   4  16   12.95    2.44
   4   4  16   14.97    2.63
  -4  -4 -16   13.58    2.55
  -4  -4 -16   14.42    2.88
   3  13   6   99.33    7.14
  -3 -13  -6  123.07    8.51
   3  13   6  105.65    6.80
   3  13   6   99.39    7.29
   3  13   6   92.93    7.84
   9   1   9   23.74    3.68
  -9  -1  -9   24.21    3.95
  -9  -1  -9   17.58    3.78
   9   1   9   28.89    3.39
   0   1  16   39.67    3.94
   0  -1 -16   35.91    3.64
   0   1  16   51.30    4.21
  -4   8  11    8.72    1.97
  -4   8  11    5.26    2.09
  -4   8  11    8.56    2.52
   4  -8 -11    6.28    2.62
  -4   8  11    2.25    3.13
   9   6   7   19.80    3.04
  -9  -6  -7   16.18    3.77
  -9  -6  -7   14.16    2.24
  -9  -6  -7   13.07    2.71
   6  10  -2   -0.59    2.41
   6  10  -2   -1.54    3.71
   6  10  -2    2.36    2.40
   6  10  -2    1.80    3.01
   6  10  -2    7.22    2.72
   6  11   8   26.49    3.26
   6  11   8   25.58    3.47
   6  11   8   28.31    3.35
  -6 -11  -8   26.28    3.17
   6  11   8   27.14    3.06
   6  11   8   32.20    4.39
  -2  -6 -16   65.64    5.11
   2   6  16   76.01    5.64
  -2  -6 -16   58.37    4.98
  -2  -6 -16   64.44    4.99
  -7   1   9   41.46    4.09
   7  -1  -9   41.08    4.10
   1   0  16    8.14    2.74
  -1   0 -16    3.70    2.52
   1   0  16    8.42    2.58
   5  12   2   72.24    5.06
   5  12   2   79.14    5.15
   5  12   2   66.28    5.48
   5  12   2   64.88    5.33
   5  12   2   58.75    5.52
   5  12   2   60.01    5.66
   5  12   2   62.85    4.95
   5  12   2   68.91    5.60
   6  11   1   -1.31    2.58
   6  11   1   -2.21    3.19
   6  11   1    0.41    2.34
   6  11   1    2.41    2.15
   6  11   1   -3.98    2.84
   6  11   1    0.09    3.07
   6  11   1    3.68    2.60
   6  11   1   -0.26    1.93
  -6  -9 -12   94.61    6.65
   6   9  12   86.29    6.36
  -6  -9 -12   91.32    6.41
   6   9  12   84.49    6.13
   5  12   7   17.40    3.05
   5  12   7   21.49    3.10
   5  12   7   20.25    3.03
   5  12   7   26.36    3.22
  -5 -12  -7   20.30    3.10
   9   4   9   25.99    3.60
  -9  -4  -9   30.08    3.26
  -2   7  14   -2.46    3.28
  -2   7  14   -7.64    3.48
   2  -7 -14    2.44    2.58
  -2   7  14    1.99    2.64
   3  -8  10   50.84    3.69
  -3   8 -10   51.04    4.44
  -3   8 -10   58.33    5.16
   5   8  14   84.30    6.47
  -5  -8 -14   96.27    6.66
   5   8  14   90.48    6.70
  -5  -8 -14   87.78    6.35
  -5  -8 -14   89.99    6.70
   4   9  -7   13.28    3.54
   4   9  -7   10.84    2.25
  -4  -9   7   17.23    2.74
   4   9  -7   13.39    2.41
  -5 -10 -12   22.13    3.12
   5  10  12    9.58    3.14
  -5 -10 -12   20.69    3.16
   6   8  13   39.43    3.99
  -6  -8 -13   34.55    3.65
  -6  -8 -13   36.30    3.33
  -6  -9   4    0.32    2.52
   6   9  -4    0.21    3.56
   8   8   0    3.23    2.47
   8   8   0    9.93    3.76
   8   8   0    4.55    2.66
   5   0  15   10.31    2.68
  -5   0 -15    5.04    2.77
  -5   0 -15    1.11    3.72
  -5   0 -15    5.95    3.15
  -4  -2 -16   61.46    5.06
   4   2  16   62.21    4.45
   4   2  16   56.95    4.70
   4   2  16   62.18    4.51
  -3 -11 -12   38.25    4.08
  -3 -11 -12   40.35    4.07
  -7   0 -13   45.76    4.13
  -7   0 -13   53.56    5.22
  -7   0 -13   48.39    4.82
   8   6  11   29.15    4.06
  -8  -6 -11   30.94    4.48
   8   6  11   30.02    3.00
  -8  -6 -11   28.63    3.28
   8   6  11   31.57    3.48
   0 -13   0   49.72    4.43
   0  13   0   47.07    5.38
   0 -13   0   49.98    4.63
   3   8  15    4.31    3.33
  -3  -8 -15    6.33    3.31
   3   8  15    7.96    2.97
  -3  -8 -15    7.78    2.87
  -3  -8 -15   10.20    2.95
  -3  -8 -15    6.42    2.83
  -3   5  14    4.84    2.55
  -3   5  14    1.71    2.39
   3  -5 -14   -1.10    2.33
   8   7  -2    4.11    2.83
   8   7  -2   -4.35    2.21
   8   7  -2    2.67    3.68
  -7   0   9   44.25    4.29
   7   0  -9   47.77    4.47
  -1  -8 -15   19.14    3.16
   1   8  15   15.94    3.89
  -1  -8 -15   14.18    3.10
   1   8  15   22.95    3.31
   3  13   2   25.08    4.07
   3  13   2   28.18    3.29
   3  13   2   24.17    3.32
  -3 -13  -2   25.23    3.35
   3  13   2   18.36    4.28
   3  13   2   24.91    3.58
   9   6   1   67.49    6.36
   9   6   1   72.88    5.52
  -9  -6  -1   81.20    6.37
  -3  -9   8   15.70    2.58
   3   9  -8   13.49    2.56
  -1  12   9   20.33    3.14
  -1  11  11   30.15    3.48
   1 -11 -11   31.03    3.75
  -8   4  -8    3.97    3.03
  -8   4  -8    4.80    2.94
   8  -4   8    4.70    2.16
  -8   4  -8    3.49    2.39
   0 -10 -13    2.18    2.76
   0  10  13   -3.36    3.97
  -8  -3 -12    0.82    3.40
   8   3  12    7.49    3.35
   8   3  12   -2.73    2.37
  -1  11  -6   27.30    3.51
  -1  11  -6   18.47    3.22
  -1  11  -6   20.96    3.64
  -4   9  10    0.84    2.03
  -4   9  10    6.39    3.43
   4  -9 -10    3.65    2.61
  -4   9  10    5.20    2.56
  -4   9  10    2.15    1.87
   7   6  13   72.84    5.53
  -7  -6 -13   69.80    5.49
  -7  -6 -13   73.04    6.30
  -7   2   9   13.89    2.90
  -7   2   9   14.51    2.34
   7  -2  -9   13.96    2.94
  -9   1  -8  119.00    8.00
   9  -1   8  117.49    8.00
  -9   1  -8  100.52    7.93
  -9   1  -8  108.62    7.60
  -7   2 -12   33.82    3.39
  -7   2 -12   37.24    4.46
  -7   2 -12   32.87    4.16
   3 -12  -5   -0.29    2.84
  -6   8   7   18.49    2.78
  -6   8   7   16.14    2.30
   6  -8  -7   16.04    2.94
   1  11  -6   69.54    5.48
   1  11  -6   68.44    5.45
  -8   6  -4    7.40    2.46
  -8   6  -4    7.27    3.07
  -8   6  -4   11.38    2.50
  -5   4  12   38.20    3.77
   5  -4 -12   43.55    3.64
   1 -13  -5  104.35    7.74
  -5   9   8   45.66    3.92
  -5   9   8   45.75    3.64
   5  -9  -8   44.81    4.19
  -5   9   8   57.46    4.33
   5   5 -10    0.46    3.09
  -5  -5  10    2.22    2.51
   5   5 -10    2.05    2.96
  -9   2  -7   17.76    3.33
  -9   2  -7    6.61    2.74
   9  -2   7   14.08    2.78
   1 -13  -1    8.35    2.64
   1 -13  -1   13.43    3.13
   5  11  -2   64.25    4.90
   5  11  -2   61.18    4.62
   5  11  -2   62.27    4.45
   5  11  -2   57.65    4.41
   5  11  -2   56.18    4.98
   5  11  -2   65.13    5.81
   0   9  14    4.55    3.84
   0   9  14    4.40    3.15
   0  -9 -14    5.17    2.72
   0  -9 -14    6.15    2.85
   9   4  -2    7.55    2.51
  -9  -4   2    1.32    2.46
  -9  -4   2    6.87    2.68
   9   4  -2    5.85    3.56
   7  10   8    6.80    3.55
   7  10   8    1.10    2.71
  -7 -10  -8    5.59    2.34
   7  10   8    5.90    2.95
   7  10   8    7.20    2.94
   7  10   8    5.08    2.23
   4  12  -1   55.72    5.38
   4  12  -1   83.08    5.87
   4  12  -1   71.45    5.20
   4  12  -1   68.72    4.78
   4  12  -1   67.67    4.72
   4  12  -1   60.83    4.82
   4  12  -1   55.39    4.64
   8   9   5   48.51    4.03
   8   9   5   43.72    4.79
   8   9   5   55.17    4.42
   8   9   5   39.40    4.48
   4 -11  -6   13.72    3.11
  -4  11   6   16.69    3.10
  -2  -7  11   20.31    2.92
   2   7 -11   21.97    3.20
   2   7 -11   25.10    3.48
  -3   4 -14   17.88    3.84
  -3   4 -14   16.17    2.69
  -3   4 -14   17.92    2.85
  -3  -6 -16   30.30    3.53
  -3  -6 -16   31.99    3.59
   3   6  16   39.98    3.90
  -3  -6 -16   35.24    3.62
  -8  -2 -12    9.70    3.52
  -8  -2 -12    0.93    3.62
  -2  11  10    4.99    1.73
  -2  11  10    3.98    2.41
   8   9   4   27.88    3.95
   8   9   4   36.23    4.15
   8   9   4   30.00    3.34
   8   9   4   33.09    3.44
   3   5 -12   38.09    3.97
  -3  -5  12   40.79    3.90
  -3  -5  12   35.98    3.38
   3   5 -12   36.13    3.69
  -1  -6 -16    5.30    2.83
   1   6  16    2.17    2.34
   1   6  16    4.49    3.12
   3   1 -14   10.66    2.14
  -3  -1  14   14.72    2.54
   3   1 -14   16.26    2.80
  -3  -1  14   17.49    2.95
   0 -12 -10   37.83    4.11
   0  12  10   36.67    3.92
  -4   5  13   24.33    3.02
  -4   5  13   15.36    2.84
   0   5  16    0.61    2.89
   0  -5 -16   -0.83    2.71
  -5  -1  12   41.31    3.48
   5   1 -12   48.43    4.42
  -5   5 -12    5.20    2.62
  -5   5 -12    3.98    3.28
   7   6  -6   43.47    4.06
   7   6  -6   48.27    4.97
   7   6  -6   46.66    4.47
  -7  -6   6   48.24    4.50
   7  10   1   78.06    5.76
   7  10   1   63.52    5.75
   7  10   1   71.34    5.79
   7  10   1   82.49    6.35
   7  10   1   79.56    5.56
  -9   4  -2   41.18    3.93
   9  -4   2   43.82    3.65
  -9   4  -2   40.33    4.30
  -9   4  -2   38.81    3.51
   4   9  14   22.42    3.65
  -4  -9 -14   31.46    4.00
  -4  -9 -14   29.62    3.63
   4   9  14   25.13    3.79
  -4  -9 -14   32.61    3.70
   0  10  -8    1.38    2.64
   0  10  -8   -0.92    2.69
   0 -10   8   -0.86    1.61
  -9   4  -1   78.56    5.89
  -9   4  -1   96.61    6.24
   9  -4   1   83.97    5.77
  -9   4  -1   83.42    6.59
   4  10  13   14.17    3.55
  -4 -10 -13   18.47    3.20
  -4 -10 -13   18.91    3.64
  -4 -10 -13   24.53    3.25
   9   5  -1   18.26    2.85
  -9  -5   1   11.23    2.98
  -6   5  10    0.07    2.19
   6  -5 -10   -0.48    2.09
  -6   5  10    1.69    2.61
   6  -5 -10    1.71    3.39
   3   0  16   54.87    4.72
  -3   0 -16   59.75    5.91
   8   4  12    8.64    3.44
  -8  -4 -12   18.51    3.96
   8   4  12   15.25    2.61
  -8  -4 -12   15.36    2.83
   0  13   7   10.68    2.95
   0 -13  -7    6.76    3.17
   2   8 -10   22.53    3.48
   2   8 -10   19.02    3.02
  -2  -8  10   22.01    2.75
   2   0 -15   49.46    4.08
  -2   0  15   53.60    4.42
  -2   0  15   46.24    3.85
   8   3  -6   79.21    6.52
  -8  -3   6   65.82    4.90
   9  -3  -2    7.06    2.06
   9  -3  -2    8.96    2.21
  -9   3   2    6.59    3.15
   8   8   9   50.47    4.89
  -8  -8  -9   57.94    4.52
  -8  -8  -9   53.57    5.49
   9  -2  -3   47.52    3.93
  -9   2   3   41.99    4.28
  -4   7  12   26.79    2.93
  -4   7  12   25.21    3.81
  -4  -5 -16   -0.48    2.60
   4   5  16   -0.36    2.36
  -4  -5 -16    0.07    2.35
  -4  -5 -16   -2.42    2.77
  -5   6 -11   15.14    3.57
  -5   6 -11    9.72    2.64
   6  -9  -5    3.09    2.55
  -6   9   5    4.55    2.53
   2  13   0   35.71    4.37
   2  13   0   36.71    4.83
   2  13   0   33.42    3.68
  -2 -13   0   32.45    3.66
   7  -8  -3   44.35    4.04
  -7   8   3   46.05    4.07
   0  12  -4    2.64    2.65
   0 -12   4    1.60    2.94
  -5  10   6    4.53    2.62
   5 -10  -6    1.18    2.61
  -7   7  -6    2.77    2.08
  -7   7  -6   -1.57    3.01
  -7   7  -6    1.32    2.49
  -7   7  -6    0.28    2.74
   3 -12   1   46.31    4.36
   3 -12   1   38.01    4.24
  -3  12  -1   38.20    5.14
  -3  12  -1   49.54    4.45
   8   9   6   81.06    6.87
   8   9   6   88.71    6.73
   8   9   6   99.84    6.47
  -8  -9  -6   98.93    6.65
   8   9   6  106.32    6.91
  -1  10  -8   23.39    3.57
  -1  10  -8   20.83    3.52
  -1  10  -8   21.04    3.31
  -3 -13  -7   44.95    4.36
   3  13   7   46.31    3.97
  -7   8  -3    8.36    3.09
  -7   8  -3    5.48    2.67
   7  -8   3    9.03    2.27
  -7   8  -3    7.13    2.98
  -3  10  -7   27.89    3.86
  -3  10  -7   19.98    3.40
  -3  10  -7   25.36    3.45
  -8   1 -11    7.47    3.45
  -8   1 -11   14.23    3.49
  -7  -7   5   39.87    4.05
   7   7  -5   33.34    3.86
   8   9   3    4.14    3.39
   8   9   3    6.88    2.49
   8   9   3   10.44    3.19
   7   1  -9   25.95    3.65
  -7  -1   9   27.85    3.56
   6  -1 -11   16.15    2.87
  -6   1  11   13.13    2.89
  -9   4  -3   35.12    3.71
  -9   4  -3   27.92    3.94
  -9   4  -3   32.89    3.18
   9  -4   3   36.79    3.34
  -6   9  -4    9.97    3.37
   6  -9   4   10.77    2.50
  -6   9  -4   10.52    3.24
  -6   9  -4    9.70    2.89
   4 -11   3   19.48    3.44
  -4  11  -3   26.68    3.43
  -4  11  -3   27.50    4.33
   4 -11   3   21.35    3.20
   9   3  -3    8.36    3.65
  -9  -3   3   10.19    2.61
  -9  -3   3    6.97    2.59
  -9   4   0   36.47    4.20
  -9   4   0   39.88    3.44
   9  -4   0   35.37    3.03
   9  -4   0   27.35    2.89
  -9   4   0   38.46    3.72
  -7  -5   7   21.65    2.59
   7   5  -7   24.07    3.34
  -7  -5   7   28.52    3.48
   7   5  -7   28.66    4.07
  -7   6   7   42.15    4.15
   7  -6  -7   32.02    3.55
  -7   6   7   43.76    3.76
   7  -6  -7   41.89    4.19
   2  -5 -15   40.86    3.97
  -2   5  15   36.62    3.97
   2   6 -12    3.77    2.73
  -2  -6  12    4.57    2.56
   2   6 -12    5.16    2.80
  -4  -1 -16   36.99    4.09
  -4  -1 -16   30.71    3.99
   4   1  16   33.36    3.44
   4   1  16   28.38    2.68
  -6   5 -11    5.23    2.73
  -9   0  -9   29.29    4.14
  -9   0  -9   27.96    4.07
   1  12  -4   42.32    4.13
  -6   2  11   36.75    3.77
   6  -2 -11   42.16    3.85
  -2  12  -3   15.87    3.31
  -2  12  -3   19.93    3.53
   2 -12   3   21.28    3.58
   5   9  -6   28.89    4.28
  -5  -9   6   28.62    3.31
   5   9  -6   28.68    2.93
   8   0  -7   15.27    3.45
  -8   0   7   17.57    2.59
  -8   0   7   19.56    3.25
  -8   6   3    6.47    2.50
  -8   6   3   11.27    2.57
  -8   6   3    4.18    2.08
   8  -6  -3    3.72    2.30
  -2 -13  -8  128.45    8.99
   2  13   8  114.30    8.02
   3  11  -5    8.25    3.47
   3  11  -5    4.60    2.42
  -3 -11   5    4.70    2.07
   3  11  -5    2.03    2.46
   3  11  -5    5.96    2.03
  -7   6  -8    6.72    3.13
  -7   6  -8    4.85    2.68
  -7   6  -8    2.97    2.09
  -7   6  -8    2.94    2.84
   9   7   4   56.76    5.06
  -9  -7  -4   62.03    4.78
  -9  -7  -4   62.77    5.67
   6  10  11   19.64    3.34
   6  10  11   34.45    3.15
  -6 -10 -11   32.46    3.41
  -6 -10 -11   39.65    3.72
   5  12   1   38.43    3.57
   5  12   1   36.64    3.36
   5  12   1   43.18    4.27
   5  12   1   45.06    3.73
   5  12   1   29.29    4.33
   5  12   1   37.59    4.43
   5  12   1   41.21    3.95
   5  12   1   43.43    3.52
   6   3 -10   80.50    6.17
   6   3 -10   77.29    6.14
  -6  -3  10   84.32    6.34
   8  -1  -7    2.10    2.68
   8  -1  -7    1.88    2.95
  -8   1   7    2.33    2.69
  -8   1   7    2.55    2.24
  -2  12   8   34.22    3.75
   2 -12  -8   38.86    4.12
   1  13   8   24.93    3.41
  -1 -13  -8   27.88    3.86
   5  12   8   22.82    3.07
   5  12   8   17.74    3.14
   5  12   8   17.66    3.12
  -5 -12  -8   19.95    3.16
   5  12   8   16.67    2.79
  -9  -7  -5    8.23    1.95
  -9  -7  -5    9.77    3.50
  -9  -7  -5    7.56    2.41
  -2  -3  14   26.46    3.42
  -2  -3  14   26.75    3.05
  -2  -3  14   26.28    3.78
   2   3 -14   23.14    2.75
   7   9  -2  101.36    6.64
   7   9  -2  100.53    7.52
   7   9  -2   88.69    6.83
   7   9  -2   89.37    6.77
  -5   4 -13   32.00    3.74
  -5   4 -13   32.78    4.36
  -9  -5  -9   34.33    4.71
   9   5   9   29.02    3.76
  -9  -5  -9   39.11    3.57
   5 -10   4   25.53    3.17
  -5  10  -4   26.78    3.52
  -5  10  -4   28.30    3.99
  -5  10  -4   28.05    3.21
   3  13   1   14.01    3.08
   3  13   1   14.29    3.78
   3  13   1    2.95    3.99
   3  13   1   15.69    2.82
   3  13   1   11.10    3.04
  -6   4 -12   20.21    3.23
   0   0  16   14.22    2.69
   0   0  16   19.78    3.22
   0   0 -16   15.64    2.82
  -9   3  -6   27.11    3.41
  -9   3  -6   32.61    3.84
   9  -3   6   30.80    3.30
  -6  -7   7    7.46    2.73
   6   7  -7    5.27    3.46
   0 -11 -12   24.44    3.54
  -6  -7 -14    1.01    2.44
   6   7  14    1.63    2.65
  -9  -6  -8   35.92    3.37
   9   6   8   32.59    3.79
  -9  -6  -8   42.22    4.70
   1  -3  15   38.02    3.80
  -1   3 -15   49.61    5.16
   1  -3  15   42.48    4.19
  -8  -1 -12   30.63    4.39
  -8  -1 -12   23.09    3.93
  -6   1 -14   52.98    4.93
  -6   1 -14   53.26    4.61
  -4  10  -6   14.43    3.00
  -4  10  -6   11.34    3.53
  -7   3   9   -1.02    2.52
  -7   3   9    0.12    2.17
   7  -3  -9   -1.41    2.58
   7  -3  -9   -0.95    3.16
  -4   9  -8   15.40    3.62
  -4   9  -8   21.14    3.06
  -6  -3 -15   32.38    4.52
   6   3  15   27.25    3.28
   6   3  15   29.90    3.62
   6   3  15   27.04    3.01
  -6  -3 -15   28.80    3.51
   6   6  -8    5.63    3.28
  -6  -6   8    9.92    2.84
   6   6  -8    2.50    2.84
   7  -5  -8   39.42    4.34
  -7   5   8   38.92    3.75
  -7   5   8   32.78    3.46
   2  -3  15   28.87    3.69
  -2   3 -15   19.96    4.04
  -1  13   6   67.97    5.49
   1 -13  -6   79.67    6.36
   6   0 -11    0.24    2.48
  -6   0  11    0.52    2.57
  -1  -2  15    6.36    3.04
  -1  -2  15    5.79    2.25
  -1  -2  15    8.83    2.76
   1   2 -15    5.21    2.33
   1 -13   0   10.08    2.84
   1 -13   0    8.75    2.99
  -4   6 -12   55.25    5.15
  -4   6 -12   57.95    4.55
  -4   6 -12   47.14    4.32
  -1 -10   8   23.46    2.52
   1  10  -8   24.17    3.30
  -9   0   4   11.33    3.12
  -9   0   4   10.13    2.85
  -1   7 -12    2.85    2.93
   1  -7  12    1.51    1.97
  -1   7 -12    2.65    2.93
   9   7   3   78.86    6.14
   9   7   3   80.51    5.64
  -9  -7  -3   86.23    6.75
   4  11  -4   53.97    4.17
   4  11  -4   46.46    4.27
   4  11  -4   49.23    4.32
   4  11  -4   54.77    4.57
   6  11   9    6.54    2.87
  -6 -11  -9   13.72    2.78
   6  11   9   11.28    2.62
   6  11   9    6.55    3.93
  -6 -11  -9   12.59    2.70
   6  11   9   12.12    2.73
  -1 -13   1   17.95    3.26
   1  13  -1   21.81    3.31
  -6  -4 -15   76.60    6.33
   6   4  15   75.57    5.98
   6   4  15   81.74    5.66
   6   4  15   76.44    5.85
  -6  -4 -15   69.96    5.71
  -1   7  15   61.08    5.43
  -1   7  15   54.95    4.84
   1  -7 -15   57.33    4.83
   1  -7 -15   51.85    4.59
   6  11   0   -0.09    2.89
   6  11   0   -1.66    2.65
   6  11   0    1.15    2.33
   6  11   0    6.56    3.60
   6  11   0    2.74    3.08
  -1  12  -4   19.44    3.58
   1 -12   4   24.53    3.75
  -1  12  -4   15.67    3.22
   4  -2  15   14.22    3.00
  -4   2 -15   17.83    3.10
  -4   2 -15   13.71    3.21
  -4   2 -15   18.74    4.05
   1  -3 -16   10.20    2.64
  -1   3  16    8.47    2.61
   1   4 -14   14.74    3.53
  -1  -4  14   16.11    2.73
  -1  -4  14   17.27    2.95
   8   9   7  168.63   10.80
  -8  -9  -7  163.07   10.38
   8   9   7  167.75   10.79
   8   9   7  154.01   10.63
   9   6   0   57.68    4.52
  -9  -6   0   71.71    5.84
   9   6   0   55.14    5.53
  -8   5  -7    5.87    2.47
  -8   5  -7    5.61    2.29
  -8   5  -7    4.34    2.96
  -8   5  -7    3.38    3.02
  -8   5  -7    5.84    2.52
   8   5  12   53.81    4.52
  -8  -5 -12   62.74    5.86
   8   5  12   53.41    4.31
   8   5  12   51.44    5.10
  -8  -5 -12   57.51    4.84
  -3  11  -5   57.28    5.63
  -3  11  -5   57.97    5.31
   0  13  -1   13.52    4.05
   0 -13   1   16.16    3.15
   0 -13   1   17.74    3.17
  -5   7 -10   11.01    2.70
  -9  -1   4    3.33    2.55
  -9  -1   4    0.85    2.81
  -8  -1   7   76.25    5.99
   8   1  -7   65.91    5.77
  -2  -9   9   40.52    3.57
   2   9  -9   44.55    4.02
   9   7   6   14.98    2.86
  -9  -7  -6    9.14    2.12
  -9  -7  -6   10.42    2.57
  -9  -7  -6   14.31    3.69
  -6   6 -10    3.89    3.29
  -6   6 -10   -0.43    2.63
  -1   2  16   48.51    4.12
   1  -2 -16   48.97    4.25
   3 -12  -6   15.48    3.22
  -2 -12 -11   33.55    4.08
  -8   5   5    6.74    2.42
  -8   5   5    7.24    2.46
   8  -5  -5    9.43    2.39
   9  -4   4   22.40    2.60
  -9   4  -4   17.98    3.43
  -9   4  -4   22.24    3.33
  -9   4  -4   22.50    2.71
  -4  -4  12   30.21    3.56
   4   4 -12   31.70    3.74
  -4  -4  12   25.78    2.84
  -4  -8 -15   24.19    3.29
   4   8  15   23.02    3.83
  -4  -8 -15   22.84    3.77
   6   2  15   17.74    3.34
  -6  -2 -15   13.86    3.78
   8   9   2   11.40    3.76
   8   9   2    3.65    2.72
  -7  -8 -12   29.71    3.38
   7   8  12   28.17    3.52
  -4 -12 -10   41.95    4.28
  -2   1 -16   57.13    5.77
   2  -1  16   52.99    4.66
  -6   3  11   35.28    3.66
   6  -3 -11   38.01    3.63
  -4   5 -13   40.67    3.98
  -4   5 -13   47.86    4.87
   8  -4  -6   20.18    3.20
  -8   4   6   23.07    3.32
  -8   4   6   20.70    3.05
   0   8  15   72.26    5.70
   0  -8 -15   59.45    5.41
   0  -8 -15   82.97    5.75
   0   8  15   66.88    6.15
  -4 -13  -4   46.18    4.42
   4  13   4   41.11    5.26
   4  13   4   53.72    4.45
   4  13   4   50.32    4.40
   4  13   4   50.05    4.14
   4  13   4   53.90    4.78
  -5  -7 -15   21.07    2.92
   5   7  15   29.83    3.72
  -5  -7 -15   20.56    3.17
  -5  -7 -15   21.70    3.76
   8  -2  -7    3.64    2.90
   8  -2  -7    3.14    2.67
  -8   2   7    1.74    2.69
  -8   2   7    5.91    2.49
  -5 -11 -11   75.64    5.90
  -5 -11 -11   81.07    5.90
   4  13   5   98.65    6.78
   4  13   5   89.35    7.09
   4  13   5   88.66    7.63
  -4 -13  -5   99.14    7.16
   4  13   5  106.48    6.76
   4  13   5   97.56    6.97
   7   3  14    9.92    2.88
   7   3  14   16.47    3.04
  -7  -3 -14   11.24    3.84
  -7  -3 -14    7.25    2.74
  -9  -3 -10    0.53    2.33
   9   3  10   -5.69    3.23
  -9  -3 -10   -0.12    3.44
  -1   6 -13    2.50    3.07
   1  -6  13   -0.91    2.18
  -1   6 -13    0.44    2.81
   9  -4  -1   24.92    2.64
   9  -4  -1   19.71    2.58
  -9   4   1   26.95    3.13
  -9   4   1   30.27    3.93
  -4 -11 -12  117.20    8.43
  -4 -11 -12  126.74    8.39
   4  11  12  114.01    8.38
  -4  -2  13   -4.55    2.82
  -4  -2  13   -0.57    1.97
   4   2 -13   -3.88    2.73
  -8   6  -5    3.67    2.91
  -8   6  -5    2.60    2.24
  -8   6  -5    2.53    2.91
  -8   6  -5    1.05    2.44
  -8   6  -5    2.43    2.38
  -3   9  -9   29.71    4.18
  -3   9  -9   38.22    3.91
  -3   9  -9   38.48    4.03
   7  -7  -6   10.79    2.74
  -7   7   6    8.93    2.25
  -7   7   6   10.96    2.31
  -7   7   6    5.73    2.89
   0  -7  12   24.70    2.91
   0   7 -12   27.42    3.71
   0   7 -12   33.27    3.97
  -9   1   4   40.39    4.33
   9  -1  -4   59.38    4.70
  -9   1   4   55.71    4.59
  -2  11  -6   56.80    5.16
  -2  11  -6   52.61    4.85
  -1   8 -11    0.91    2.94
  -1   8 -11    3.50    2.89
   1  -8  11    5.05    1.99
   9   2  10   30.34    4.03
  -9  -2 -10   28.74    4.20
  -9  -2 -10   18.99    3.95
  -4   7 -11   25.79    3.28
  -4   7 -11   28.04    4.12
  -4   7 -11   36.17    3.53
   4 -10  -9   38.17    3.99
  -4  10   9   38.73    3.73
  -4  10   9   44.93    4.12
   1  -1  16   39.29    3.94
   1  -1  16   46.16    4.23
   3  12  -3    8.75    3.53
   3  12  -3    6.57    2.20
   3  12  -3    9.29    2.45
   3  12  -3   10.68    3.30
  -6  -8   6   -2.86    2.69
  -3  11   9   22.10    3.07
   3 -11  -9   22.41    3.35
   8   8  -1    7.42    2.87
   8   8  -1   10.89    3.88
   8   6  -4    0.08    2.65
  -8  -6   4   -0.19    2.89
   7  10   9   49.15    4.39
   7  10   9   38.04    3.97
   7  10   9   55.35    5.11
  -7 -10  -9   66.99    5.14
   7  10   9   53.82    4.52
  -7  -8   4   60.88    5.07
   7   8  -4   66.65    6.28
   7   8  -4   71.37    5.67
   2  11  -6   46.40    4.18
  -2 -11   6   45.34    3.60
   2  11  -6   42.98    4.14
  -2  -7 -16   25.71    3.40
   2   7  16   26.35    3.47
  -2  -7 -16   28.47    3.55
  -1 -12 -11   73.34    5.92
   1  12  11   76.92    5.94
  -8  -5   5    4.96    2.95
  -8  -5   5    6.65    2.28
   8   5  -5   13.05    3.92
   4  10  -6   53.20    4.32
   4  10  -6   50.20    4.48
  -4 -10   6   54.54    4.44
  -7  -4 -14   49.79    5.27
  -7  -4 -14   42.97    4.26
   7   4  14   45.05    3.96
   7   4  14   42.72    4.18
   1  -4 -16    0.16    2.52
  -1   4  16    2.25    2.68
  -4  -6 -16    5.23    2.72
  -4  -6 -16    7.49    2.60
   4   6  16    8.39    2.78
  -3 -10   7    1.92    2.16
   3  10  -7   -0.44    2.37
   3  10  -7   -1.51    3.39
  -7   1 -13   80.54    6.70
  -7   1 -13   81.43    6.51
  -5   5  12   27.68    3.28
  -2  10  -8   84.72    6.34
  -2  10  -8   79.36    6.44
  -2  10  -8   81.34    6.32
  -6   8  -7    5.21    3.28
  -6   8  -7    8.36    2.92
  -6   8  -7    6.91    2.74
   0  -6 -16   28.72    3.63
   0  -8  11    4.35    2.10
   0   8 -11    6.05    2.91
  -3   6  14   -0.43    2.86
  -3   6  14   -3.17    2.43
   2  -7  12   22.61    2.70
  -2   7 -12   23.39    3.72
  -2   7 -12   24.57    3.52
   7  -8  -4   30.30    3.45
  -7   8   4   32.04    3.33
  -3 -13  -8   62.12    5.32
   3  13   8   58.98    4.63
  -2   9  13   77.56    6.59
   2  -9 -13   80.11    6.12
  -5   1 -15   18.20    3.43
   5  -1  15   18.55    3.05
  -5   1 -15   17.18    4.22
  -5   1 -15   17.73    3.23
  -5  -4  11    3.54    2.74
   5   4 -11    6.07    3.19
   5   4 -11    8.08    3.32
   4  13   3   56.70    4.23
   4  13   3   57.70    5.20
   4  13   3   44.33    5.20
   4  13   3   52.37    4.38
   4  13   3   50.52    4.53
   4  13   3   44.06    4.62
   7  10   0  120.19    8.46
   7  10   0  125.60    8.51
   7  10   0  122.82    8.42
   7  10   0  129.80    8.99
   7   2  14    6.39    2.85
  -7  -2 -14    7.42    3.74
  -6   3 -13   39.02    4.26
   6   5  -9   37.52    4.35
  -6  -5   9   39.64    4.10
   6   5  -9   51.39    4.70
  -9  -7  -2  100.61    7.47
   9   7   2   95.76    6.73
   9   7   2   83.99    7.41
 -10  -2  -3    5.17    3.28
   4  13   6   42.36    5.26
   4  13   6   52.26    4.34
  -4 -13  -6   57.74    4.97
   4  13   6   52.17    4.24
   4  13   6   51.13    4.61
   4  13   6   52.57    4.79
  -7   8  -4    3.41    2.95
   7  -8   4   -0.48    2.02
  -7   8  -4    3.09    2.71
  -7   8  -4    5.25    3.14
 -10  -1  -3    5.66    3.27
  -7  -4   8   22.88    2.64
  -7  -4   8   27.88    3.59
   7   4  -8   21.52    3.46
   7   4  -8   29.61    4.02
   0  -3  15   26.85    3.70
   0   3 -15   25.87    4.16
  -7  -9 -11   66.71    5.05
   7   9  11   65.68    5.31
  -7  -9 -11   75.34    5.45
   7   9  11   62.11    4.75
   7   9  11   65.40    5.80
   3 -12   2   71.93    5.91
   3 -12   2   74.17    5.89
  -3  12  -2   71.38    6.44
 -10  -2  -4   -1.80    3.27
   6   5  15  118.97    8.05
  -6  -5 -15  110.39    7.80
  -7  -2   9    2.79    2.01
   7   2  -9   -0.76    3.02
  -7  -2   9    1.85    2.93
   0  13   8    1.06    2.74
   0 -13  -8    3.03    2.97
  -2   6 -13   32.65    4.27
  -2   6 -13   36.63    3.96
   1  -1 -16   68.73    5.25
  -1   1  16   70.28    5.22
  -2  13   3   -2.74    4.00
   2 -13  -3    3.96    2.93
   2   1 -15   76.64    5.53
  -2  -1  15   74.86    5.74
   8   7  11   -0.81    2.72
  -8  -7 -11    1.35    2.36
   8   7  11    4.28    3.45
  -9  -4 -10   19.71    2.93
   9   4  10   21.73    3.69
  -5  -2  12   35.81    3.98
   5   2 -12   40.01    4.13
   5   2 -12   38.69    4.47
  -5  -2  12   33.60    3.12
  -2  10  12   53.86    5.62
  -2  10  12   54.50    4.48
   2 -10 -12   44.83    4.36
   4 -11  -7   19.96    3.30
  -9   3   3    2.28    2.95
 -10  -1  -4    9.21    2.92
 -10  -1  -4    9.36    3.40
  -9  -2   4    1.47    2.97
   9   2  -4    1.19    3.39
  -9  -2   4    2.41    2.43
  -2 -10 -14   25.93    3.60
  -2 -10 -14   27.68    3.72
   2  10  14   24.06    4.33
   5 -11  -1   20.13    3.10
   5 -11  -1   22.72    3.53
  -5  11   1   15.84    3.97
  -2  -5  13    0.21    2.09
  -2  -5  13    1.22    2.57
   2   5 -13    2.12    2.89
   0   6 -13   59.84    5.25
   0   6 -13   59.52    5.27
   0  -6  13   58.83    4.70
   7   7  13    2.03    2.65
  -7  -7 -13    3.27    2.52
   2 -13  -2   15.26    3.29
  -2  13   2    7.82    3.87
   2  12  -4   18.26    3.07
   2  12  -4   18.69    2.95
   2  12  -4   21.87    3.47
  -3 -12 -11    8.02    3.17
  -6  -1  11   18.33    3.14
   6   1 -11   28.02    3.56
   5 -11  -2   30.17    3.32
  -5  11   2   31.88    4.48
   5 -11  -2   26.05    3.75
  -3   9  12   43.01    4.14
  -3   9  12   43.90    4.92
  -3   9  12   40.45    3.54
   2  13  -1   52.48    5.26
   2  13  -1   54.57    4.63
  -2 -13   1   55.42    4.84
 -10  -1  -2    3.48    3.27
  -5   9  -7    3.52    2.27
  -5   9  -7    1.07    2.63
  -9  -7  -7    0.41    2.05
   9   7   7    4.06    2.79
  -9  -7  -7   -0.37    3.47
  -3  -7 -16   36.40    3.69
  -3  -7 -16   29.37    3.65
   3   7  16   38.78    4.02
  -3  -7 -16   30.80    3.79
  -3  -4  13   56.84    4.82
   3   4 -13   59.99    5.05
  -3  -4  13   54.47    4.36
  -3   3 -15   -3.67    3.61
  -3   3 -15   -0.87    2.47
  -9   2  -8   23.22    3.88
  -9   2  -8   31.65    3.59
   9  -2   8   35.42    3.68
  -9  -1 -10   16.99    4.07
  -9  -1 -10   20.51    3.78
   9   1  10   26.74    3.83
  -5  -3 -16   57.74    5.15
   5   3  16   56.01    4.65
   5   3  16   62.90    4.56
  -5  -3 -16   65.22    5.66
   5   3  16   61.88    4.72
  -5   8  10   17.21    2.46
  -5   8  10   14.59    2.81
   5  -8 -10   13.60    2.86
  -5   8  10   14.15    3.52
 -10  -2  -2    1.83    3.17
  -4   0 -16    7.03    3.14
  -4   0 -16    2.05    3.93
   4   0  16    2.98    2.56
  -4   0 -16    4.33    3.03
   6  10  -3    5.30    3.92
   6  10  -3    0.77    2.45
   6  10  -3   10.32    2.61
  -3  -2  14   47.80    4.09
  -3  -2  14   52.59    4.60
   3   2 -14   58.49    4.83
  -6   7   9   35.29    3.37
  -6   7   9   33.34    3.31
  -6   7   9   43.12    4.15
   6  -7  -9   36.78    4.40
   6  -7  -9   33.23    3.65
  -5   3 -14   36.85    4.69
  -5   3 -14   31.95    3.95
  -5   3 -14   39.40    4.08
  -2  13   4    0.45    3.89
   2 -13  -4    1.22    3.01
  -1  -7 -16    3.63    2.70
  -1  -7 -16    9.01    2.98
   1   7  16    5.46    2.59
  -4   6  13   41.22    4.42
  -4   6  13   35.36    3.63
  -4   6  13   38.84    4.10
  -8   0 -12   26.73    4.28
  -8   0 -12   31.61    4.27
   6  -9  -6    0.66    2.75
  -6   9   6    1.39    2.48
   3  13   0   10.78    3.23
   3  13   0   -1.04    2.85
   3  13   0    6.17    2.58
   3  13   0    8.70    3.77
   3  13   0    7.16    3.90
   3  13   0    2.63    2.19
  -6  10   1   17.68    3.66
   6 -10  -1   21.20    3.36
   4  12  -2   41.82    4.00
   4  12  -2   37.18    4.68
   4  12  -2   45.40    3.41
   4  12  -2   43.96    4.31
   4  12  -2   40.04    3.50
   4  12  -2   33.02    3.57
   5   4  16   35.87    3.62
   5   4  16   36.01    3.53
   8  -7   1   29.49    3.13
  -8   7  -1   27.33    3.56
  -8   7   0   23.14    3.42
   8  -7   0   34.96    3.46
  -3   1 -16   18.06    4.25
   3  -1  16   17.15    3.18
  -6  -1 -15    4.66    3.35
  -6  -1 -15    1.44    2.80
 -10  -2  -5   -1.95    3.25
   8   8  10   23.18    3.87
   8   8  10   17.08    3.27
  -8  -8 -10   29.63    3.27
   5  12   0   64.37    4.42
   5  12   0   49.83    4.44
   5  12   0   68.19    5.31
   5  12   0   62.97    4.92
   5  12   0   62.93    4.59
   5  12   0   49.77    4.30
   5  12   0   59.06    5.49
  -2   8 -11   28.67    4.03
  -2   8 -11   36.18    3.99
   2  -8  11   30.08    2.83
   8   9   8   84.64    6.22
  -8  -9  -8   71.86    5.31
   8   9   8   70.47    5.84
   9   5  -2    3.43    2.58
  -9  -5   2    5.04    2.79
  -5  11   0   30.22    4.49
   5 -11   0   39.79    4.05
   5 -11   0   29.84    3.75
   8   7  -3    1.69    2.72
   8   7  -3    3.06    3.72
  -8  -2   7  106.65    7.16
   8   2  -7  104.07    7.78
  -8  -2   7   89.64    6.60
  -1  13   7   36.53    3.89
 -10  -3  -4   34.18    4.52
 -10  -3  -4   47.34    3.87
  -9   1  -9   31.22    4.23
   9  -1   9   25.46    3.39
  -9   1  -9   27.97    4.10
  -5 -12  -9   35.71    3.84
   5  12   9   33.67    3.73
 -10  -3  -3   53.02    5.07
 -10  -3  -3   54.66    4.34
   1 -13   1   -0.19    2.95
   1 -13   1    1.58    2.77
   6 -10   0   16.29    3.12
  -6  10   0   13.56    3.73
  -6  10   0   24.68    3.56
  -8   6   4   -0.28    2.32
  -8   6   4    3.13    2.39
   8  -6  -4   -0.47    2.29
 -10   0  -3    4.99    3.30
  -8   3 -10    4.22    2.98
  -8   3 -10    1.57    3.23
   9   4  -3   28.48    4.40
  -9  -4   3   23.94    3.24
  -8  -4   6    9.07    2.43
   8   4  -6   15.87    3.86
   1 -10 -13   38.04    4.02
  -1  10  13   38.71    4.46
  -2   6  15   17.98    3.40
   2  -6 -15   16.72    3.02
  -7   4   9    0.75    2.41
   7  -4  -9    2.27    3.23
   7  -4  -9    3.29    2.50
  -7  -5 -14   51.06    5.70
  -7  -5 -14   62.71    4.97
   7   5  14   57.34    4.80
   7   5  14   56.12    4.72
   9  -4   5   15.79    2.48
  -9   4  -5   13.47    2.52
  -9   4  -5   12.05    3.07
   1 -12 -10    5.77    2.95
  -1  12  10   12.63    2.95
  -4   4 -14    6.27    2.69
  -4   4 -14    6.57    3.71
  -9   2   4   29.50    3.75
  -9   2   4   31.10    3.70
  -5   7  11   -1.14    3.08
   5  -7 -11    0.73    2.45
  -5   7  11   -2.46    2.26
  -5   7  11   -0.56    2.12
   5 -11  -3   24.71    3.60
   3  10  14   33.58    4.68
  -3 -10 -14   35.71    4.01
  -2  13   1   25.30    4.56
   2 -13  -1   19.96    3.12
   2 -13  -1   27.67    3.68
   5 -10  -7   19.06    3.28
  -5  10   7   25.38    3.37
 -10  -1  -5   10.09    3.17
 -10  -1  -5    6.10    3.40
  -7   4 -11   13.19    3.57
  -7   4 -11   12.22    3.26
   4  13   2   57.19    4.59
   4  13   2   55.31    4.77
   4  13   2   51.85    5.53
   4  13   2   45.00    4.75
   4  13   2   61.51    5.29
   4  13   2   57.94    4.44
   6 -10  -2   44.29    4.31
   1  10  14    8.44    4.10
  -1 -10 -14   13.38    3.12
  -1 -10 -14    9.09    3.13
  -2  -9 -15   22.13    3.46
   2   9  15   19.00    3.51
  -2  -9 -15   22.95    3.63
   2   9  15   22.40    4.12
   8   9   1    2.58    3.69
   8   9   1    7.37    2.73
   8   9   1    7.80    2.87
   2  13   9   96.79    7.09
  -2 -13  -9   99.32    7.45
  -6   9  -5   -1.63    2.63
  -6   9  -5   -1.54    3.21
  -1   5 -14   14.02    3.31
  -1   5 -14   23.70    3.78
  10   0   2    9.61    2.87
 -10   0  -2   13.09    3.51
   5   2  16   35.85    3.14
  -5  -2 -16   37.13    4.34
  -5  -2 -16   32.10    3.83
   5   2  16   33.42    3.49
  -3   8  13   53.42    5.43
  -3   8  13   56.64    4.39
  -9  -6  -9   52.96    4.34
   9   6   9   55.54    4.98
  -9  -6  -9   57.95    5.58
  -2 -11 -13   44.22    4.47
   2  11  13   35.44    4.96
  -4  11  -4   22.47    3.30
  -6   7  -9   -1.22    2.73
  -6   7  -9   -0.74    3.20
  -6   7  -9   -0.10    2.60
   8  -3  -7   33.11    3.80
  -8   3   7   36.61    3.81
  -8   3   7   36.72    3.83
   4  13   7   30.13    3.33
  -4 -13  -7   28.76    3.61
   4  13   7   23.81    3.71
  -9   4   2   14.91    3.31
   9  -4  -2   18.37    2.41
   9  -4  -2    9.20    2.31
   6  -4 -11   18.69    2.70
  -6   4  11   22.18    3.16
   6  -4 -11   23.17    3.99
 -10   0  -4   10.15    3.48
 -10   0  -4    8.16    3.04
   1  -9 -14    4.00    2.81
  -1   9  14    7.74    3.25
   5  11  -3   81.88    5.99
   5  11  -3   81.48    6.79
   1  -9  10    6.07    1.91
  -1   9 -10   11.97    3.19
  -8   7  -2   10.99    3.19
  -8   7  -2    7.43    2.57
 -10  -3  -5   30.41    3.30
 -10  -3  -5   24.50    3.97
  -9   3  -7   23.90    3.61
  -9   3  -7   17.30    3.48
   9  -3   7   16.84    2.79
  -9   3  -7   12.53    2.93
  -8   4  -9   -0.53    2.35
   8  -4   9   -0.32    2.20
  -8   4  -9    4.76    3.03
  -8   4  -9    2.39    3.19
   8  -7  -1   28.91    3.17
  -8   7   1   34.54    3.86
   7   1  14   25.69    3.51
  -7  -1 -14   34.74    4.82
  -7  -1 -14   28.50    4.33
  -3  10  11    4.43    1.91
  -3  10  11    5.79    3.82
  -3  10  11    1.87    2.23
   3 -10 -11   -0.09    2.71
 -10  -1  -1    8.78    3.39
  -2   8  14   19.77    3.98
   2  -8 -14   14.08    2.87
  -2   8  14   10.40    3.15
  -2   8  14   14.27    3.90
   1  13   9   52.84    4.79
  -1 -13  -9   54.18    5.09
  -4   8 -10   10.21    2.60
  -4   8 -10    9.63    3.42
  -4   8 -10   10.03    2.65
   0  -1  16    1.10    2.91
   0   1 -16    0.52    2.45
   0  -1  16    1.02    2.38
   8   6  12   40.82    3.96
   8   6  12   38.08    3.58
  -8  -6 -12   37.41    4.02
  -8  -6 -12   54.07    5.28
  -4   2  14   43.18    4.14
   4  -2 -14   54.03    4.32
   0   9 -10    4.97    2.76
   0  -9  10    4.89    2.03
   1  -5 -16   25.74    3.41
  -1   5  16   31.91    3.79
  -6   6  10    2.00    2.77
   6  -6 -10    0.39    3.34
  -6   6  10    3.20    2.24
  -2  -3 -17   -0.28    2.39
  -2  -3 -17    2.71    2.74
   6  -8  -8   12.94    2.87
  -6   8   8   15.31    2.33
  -6   8   8   18.56    2.73
  -6   8   8   13.71    3.36
  -5 -10   5  151.84    9.89
   5  10  -5  159.85   10.25
   5  10  -5  139.02    9.40
  -7   5 -10   -0.93    2.86
  -7   5 -10    0.85    3.13
 -10  -3  -2   54.56    5.10
   4   7 -10   19.84    3.54
  -4  -7  10   16.04    2.99
  -7   7  -7    4.25    3.15
  -7   7  -7   -0.06    2.07
  -7   7  -7    3.47    2.89
  -7   7  -7    1.38    2.57
  -2   5 -14   28.13    4.18
  -2   5 -14   23.33    3.54
  -5  -9 -14   63.23    5.22
  -5  -9 -14   64.46    5.17
  -5  -9 -14   66.13    5.58
   5   9  14   45.66    4.42
 -10  -2  -1   15.06    3.63
  -5   8  -9    4.99    2.59
  -5   8  -9    0.80    2.70
   6 -10   1   11.65    2.88
  -6  10  -1    7.69    3.50
  -6  10  -1   17.22    3.42
  -2  13   5   17.70    4.30
   2 -13  -5   15.82    3.45
  -8   2 -11   10.82    3.48
  -8   2 -11   16.27    3.82
   9   7   1  110.92    8.20
  -9  -7  -1  105.24    7.67
   9   7   1  110.79    7.51
   9   7   1  105.25    7.43
   7  11   5   24.29    3.23
   7  11   5   21.10    3.02
   7  11   5   14.21    3.05
   7  11   5   11.24    3.46
   7  11   5   17.90    3.72
   6   9  13   26.18    3.49
   6   9  13   39.36    3.87
  -6  -9 -13   36.05    3.55
  -6  -9 -13   36.53    3.88
   1   7 -12   37.96    4.12
  -1  -7  12   38.24    3.73
   3 -12  -7   25.13    3.49
   2  10  -8   66.09    5.16
  -2 -10   8   63.90    4.69
  -5 -10 -13    3.16    2.69
  -5 -10 -13    2.31    2.59
   5  10  13   -0.49    3.17
   5  -9  -9   25.48    3.40
  -5   9   9   24.91    2.88
  -5   9   9   27.71    4.04
  -5   9   9   24.31    2.62
  -5   9   9   29.98    3.27
  -3  -9 -15   -3.18    2.84
  -3  -9 -15   -0.09    2.89
   3   9  15    0.77    3.56
   6   9  -5   -1.64    3.77
  -6  -9   5   -0.58    2.66
   9   6  -1   43.99    4.03
   9   6  -1   37.88    4.96
  -9  -6   1   43.18    4.31
   4   8  -9   17.12    3.66
  -4  -8   9   10.20    2.67
  -7   3 -12    7.90    3.33
  -7   3 -12   17.28    3.73
  -5  10  -5    6.26    3.33
  -5  10  -5    2.42    2.42
  -5  10  -5    5.47    2.79
  -2  12  -4   44.29    4.51
  -2  12  -4   48.28    4.84
   5   5  16   34.23    3.76
   5   5  16   40.13    3.69
  -2  -4 -17   19.04    3.00
  -2  -4 -17   25.06    3.39
   1   8 -11   29.39    3.68
  -1  -8  11   24.83    2.99
   0 -12 -11   10.08    3.18
   0  12  11    8.07    2.93
  -9  -5 -10   27.74    3.24
   9   5  10   18.90    3.59
   4  -3 -14   30.85    3.07
  -4   3  14   31.58    3.56
  -4   1  14   23.99    3.35
   4  -1 -14   30.89    3.32
   6  12   5   41.87    4.43
   6  12   5   40.73    4.06
   6  12   5   40.99    4.14
   6  12   5   47.97    3.90
   6  12   5   51.33    4.37
   6  12   5   31.37    3.83
   6  11  10    6.84    2.70
   6  11  10    9.59    3.09
  -6 -11 -10    6.83    2.62
  -6 -11 -10    9.88    2.63
   5 -11   1   17.11    3.11
  -5  11  -1   10.50    3.79
   5 -11   1   14.73    3.09
   7  11   4   32.89    4.04
   7  11   4   22.76    3.35
   7  11   4   32.49    3.60
   7  11   4   43.18    3.73
   7  11   4   27.90    3.41
   7  11   4   35.18    4.00
   0  11  -7    1.78    2.65
   0  11  -7    4.08    2.96
  -4  12   2   39.16    5.05
   4 -12  -2   39.83    4.38
  -1 -11 -13    2.90    2.95
   1  11  13    1.97    4.09
 -10   0  -1    0.43    3.20
   0 -13   2    9.33    3.05
   1  13  -2   11.57    3.02
  -1 -13   2   13.26    3.29
   6  11  -1    9.60    2.50
   6  11  -1    4.68    3.87
   6  11  -1    3.61    2.66
   6  11  -1    8.40    3.17
   2 -12  -9   21.31    3.58
  -2  12   9   22.74    3.30
  -3   2  15   30.49    3.56
   3  -2 -15   29.93    3.07
   3  -2 -15   26.40    3.04
 -10  -2  -6    1.17    3.28
   6  12   4   28.22    3.50
   6  12   4   22.36    3.03
   6  12   4   24.14    3.81
   6  12   4   27.13    3.42
   6  12   4   28.76    3.75
   6  12   4   29.66    3.12
  -1  -9 -15   45.16    4.47
  -1  -9 -15   48.40    4.60
   1   9  15   46.95    5.27
   1   9  15   49.75    4.77
  -2  -2 -17    7.78    2.56
  -2  -2 -17    8.05    2.82
  -3 -11 -13   30.60    3.82
   3  11  13   30.55    4.65
  -1   0  16   68.02    5.29
  -1   0  16   57.55    4.70
   1   0 -16   62.72    4.98
   6 -10  -3   31.73    3.69
   7  11   6    6.91    2.84
   7  11   6    5.41    2.87
   7  11   6   10.02    2.68
   7  11   6   14.09    3.82
   7  11   6    0.33    3.17
  -6  -6 -15   20.28    3.57
   6   6  15   17.87    3.14
  -6  -6 -15   24.60    3.42
   4 -12  -1   54.67    5.00
  -4  12   1   46.41    5.28
   4 -12  -1   50.09    4.54
   3  -3 -15   38.23    3.61
  -3   3  15   38.82    3.89
   1   3  17   19.62    3.29
  -1  -3 -17   17.00    2.70
  -1  -3 -17   15.98    3.15
  -9  -3   4   14.42    2.79
   9   3  -4   22.34    4.19
  -9  -3   4   16.18    3.39
 -10   0  -5   17.54    3.47
 -10   0  -5   21.83    3.85
  -8   6  -6    5.05    2.33
  -8   6  -6    3.88    2.56
  -8   6  -6    3.68    3.02
  -8   6  -6    6.00    3.10
  -8   6  -6    2.90    2.57
   0   5 -14   44.73    4.68
   0  -5  14   40.84    3.96
   9   7   8    3.91    3.05
  -9  -7  -8    9.08    3.70
  -9  -7  -8    0.83    2.15
  -4  12   3   34.22    4.81
   4 -12  -3   36.00    4.25
   6  12   6   82.46    5.95
   6  12   6   70.84    6.06
   6  12   6   85.73    6.04
   6  12   6   77.65    5.96
   5 -11  -4   11.77    3.11
  -2  11  11   -0.16    2.45
   0  12  -5    4.19    2.72
   0  12  -5    4.22    3.22
  -9   0 -10   40.77    4.77
  -9   0 -10   37.52    4.65
   2 -13   0   28.33    3.62
   2 -13   0   34.46    3.97
  -2  13   0   23.59    4.51
   1 -11 -12   35.54    4.00
  -1  11  12   41.14    3.94
  -3  -3 -17   22.23    3.33
  -3  -3 -17   17.73    2.99
 -10  -4  -4   41.39    3.75
 -10  -4  -4   37.22    4.50
  -5  -7   9   30.16    3.61
   5   7  -9   31.00    4.22
 -10  -3  -6   10.73    3.54
 -10  -3  -6   12.81    2.31
   3  13   9   40.81    4.22
  -3 -13  -9   49.07    4.72
  -9   5  -1   45.21    4.64
  -9   5  -1   49.02    4.27
  -9   5  -1   43.28    3.94
   6   4 -10   53.19    4.79
   6   4 -10   41.27    4.58
  -6  -4  10   46.51    4.48
 -10  -1  -6   34.92    4.45
 -10  -1  -6   31.24    4.09
  -1  11  -7   41.19    4.53
  -1  11  -7   45.21    4.35
  -8   7  -3    9.74    2.70
  -8   7  -3    4.71    3.08
  -8   7  -3    8.51    2.65
  -3   7 -12   40.54    4.83
  -3   7 -12   44.31    3.92
   7   9  -3   65.14    6.07
  -3   6 -13   51.72    5.42
  -3   6 -13   61.52    4.94
   6   8  14   29.57    3.62
  -6  -8 -14   29.59    3.55
   8  -7  -2   30.63    3.36
  -8   7   2   37.40    3.93
  -4  -6  11   77.76    5.92
   4   6 -11   85.67    6.55
  -7   8   5   16.14    2.72
   7  -8  -5   10.22    2.77
  -6   2 -14   40.61    4.37
  -6   2 -14   40.96    4.04
  -9   5  -2   27.52    3.05
  -9   5  -2   26.14    3.41
  -9   5  -2   22.70    3.72
   7  10  10   70.70    5.91
   7  10  10   58.74    5.10
  -7 -10 -10   76.39    5.61
  -7 -10 -10   80.18    5.82
 -10  -4  -3   30.64    4.35
 -10  -4  -3   42.92    3.57
  -3  -4 -17    2.71    2.57
  -3  -4 -17    1.92    2.82
   3   7 -11    0.36    2.95
  -3  -7  11    1.02    2.50
  -1  -4 -17   47.40    4.09
  -1  -4 -17   48.70    4.43
   7  11   3   39.16    4.14
   7  11   3   41.46    4.25
   7  11   3   57.97    4.80
   7  11   3   47.67    4.78
   7  11   3   47.59    4.30
   7  11   3   50.29    4.12
  -8  -3 -13    7.55    2.76
   8   3  13    7.94    2.69
  -8  -3 -13   10.22    3.73
  -5   2  13    2.09    2.64
   5  -2 -13    3.84    2.43
  -1  -2 -17   12.51    3.05
   1   2  17   12.14    2.88
  -6 -10 -12   38.51    3.71
   6  10  12   36.48    4.03
   6  10  12   32.75    3.80
  -6 -10 -12   38.35    3.88
   3  -1 -15    5.63    2.34
  -3   1  15    5.56    2.71
 -10   1  -3   11.78    3.46
  10  -1   3   13.76    2.78
 -10   1  -3   14.74    3.05
  -3  -8  10   13.44    2.64
   3   8 -10   17.83    3.50
  -5  -1 -16    0.09    3.00
   5   1  16    1.04    2.45
  -5  -1 -16    2.31    3.38
  -7   8  -5    1.30    2.68
  -7   8  -5    3.62    3.17
  -7   8  -5    2.14    3.18
  -4   9  11    3.52    2.08
  -4   9  11    4.03    2.66
   4  -9 -11    3.21    2.65
  -4   9  11    5.21    3.45
  -4   9  11    5.30    2.11
   4   7  16    3.98    2.89
  -4  -7 -16    4.53    2.68
  -4  -7 -16    5.67    3.34
  -4  -7 -16   -0.91    2.75
 -10  -4  -5   16.04    3.81
 -10  -4  -5   23.10    2.97
 -10   1  -2   42.57    4.58
  10  -1   2   38.46    3.82
   6  12   3    4.21    2.32
   6  12   3    2.79    2.95
   6  12   3    5.39    3.25
   6  12   3    4.24    2.62
   6  12   3    5.85    2.23
   6  12   3    2.03    3.33
   1   6 -13   40.64    4.35
  -1  -6  13   51.49    4.50
   6   2 -11   33.92    4.02
 -10  -3  -1   54.06    5.09
  -5  -8   8   36.30    3.76
  -2   9 -10   20.98    3.55
  -2   9 -10   24.84    3.56
   4  13   1   28.50    4.90
   4  13   1   43.80    4.34
   4  13   1   40.03    3.89
   4  13   1   42.47    4.14
   4  13   1   52.13    3.86
   4  13   1   37.00    4.63
   4  -8 -12    6.56    2.65
  -4   8  12    5.84    2.52
  -4   8  12    6.53    3.44
  -4   8  12    5.24    2.26
  -3  12  -3   51.80    5.18
   3 -12   3   61.19    5.41
   3 -12   3   57.45    5.11
  -3  12  -3   57.93    5.51
   5  -1 -13   13.30    2.82
  -5   1  13    9.96    2.92
 -10  -1   0   18.65    3.69
  -8   5  -8   -3.83    3.07
  -8   5  -8    0.46    2.25
  -8   5  -8    4.87    3.23
   1  12  -5   15.98    3.31
   1  12  -5   15.10    3.03
   1  11  -7   23.70    3.35
   1  11  -7   19.31    3.28
   7  10  -1   69.68    5.47
   7  10  -1   72.80    6.34
   7  -6  -8   91.39    6.44
  -7   6   8   82.74    5.66
  -7   6   8   71.24    5.90
   7  -6  -8   70.93    5.83
  -9   5   0   29.62    3.46
  -9   5   0   28.08    3.99
   4 -12   0   27.35    3.84
   4 -12   0   31.21    3.64
  -4  12   0   29.57    4.60
  -3  -2 -17   46.00    4.48
   3   2  17   48.11    3.78
   4  13   8    0.83    2.61
  -4 -13  -8   -1.94    2.83
   6 -10   2    1.89    2.58
  -6  10  -2    1.44    3.17
  -6  10  -2   -0.20    3.36
  -2  -5 -17   49.37    4.59
  -2  -5 -17   50.92    4.36
  -4 -12 -11   68.05    5.74
  -9   0   5   13.58    3.19
  -9   0   5   12.80    2.86
   7   3  -9    8.05    3.33
  -7  -3   9    5.32    2.09
   8   8  -2   11.57    2.97
   8   8  -2   12.95    2.58
   8   8  -2    5.40    3.85
   7   6  14   50.68    4.43
   7   6  14   49.06    4.54
  -7  -6 -14   51.26    5.51
  -7  -6 -14   54.91    4.77
   8   4  13    8.47    2.69
  -8  -4 -13    9.44    2.78
  -8  -4 -13    9.98    3.89
  -8  -9  -9   64.67    4.96
   8   9   9   66.21    5.76
   6   0  15   31.62    3.64
  -6   0 -15   30.68    3.73
  -6   0 -15   34.34    4.24
   8  -5  -6   10.30    2.62
  -8   5   6   14.39    3.08
  -8   5   6   12.52    2.58
  -8   5   6    8.02    2.58
   1   9 -10    4.75    2.69
  -1  -9  10    6.04    2.10
  -7   6  -9   12.68    3.20
  -7   6  -9   14.16    3.48
   7  11   7   53.76    5.18
   7  11   7   36.52    4.44
   7  11   7   41.70    4.21
   7  11   7   52.82    4.22
  -8  -2 -13   24.15    4.20
   8   2  13   21.57    3.17
  -8  -2 -13   25.88    4.47
  -1  -3  15   -0.33    2.63
   0   7  16   55.21    4.65
   0  -7 -16   63.15    4.83
   0  -7 -16   40.96    4.37
  -4   4  14   10.99    2.75
  -5  -6  10   10.30    2.90
   5   6 -10    6.08    3.29
   4   0 -14   12.18    2.73
  -4  -9   8    2.21    2.41
   4   9  -8    4.82    2.22
  10  -1   4   28.32    3.37
 -10   1  -4   31.31    4.06
 -10   1  -4   26.44    3.64
   0 -13  -9   11.25    3.32
   0  13   9    4.65    2.82
   4 -12  -4   51.61    4.90
   2  -2  16   36.45    3.96
  -2   2 -16   35.32    4.93
  -4  -3  13   18.22    3.39
  -4  -3  13   19.08    2.58
   4   3 -13   20.75    3.30
  -5  -8 -15   83.17    6.22
  -5  -8 -15   78.67    6.03
  -5  -8 -15   87.28    6.54
  -7   1  10   23.57    3.38
   7  -1 -10   20.90    3.28
   3  -4 -15   27.77    3.18
  -3   4  15   26.43    3.31
  -9   5  -3    4.56    2.82
  -9   5  -3    5.78    3.09
  -9   5  -3    6.03    2.34
  -5   6  12    9.94    2.57
  -5   6  12   10.88    3.27
  -4  10  -7   18.94    3.15
  -4  10  -7    8.05    3.57
  -7   9   0   32.06    4.05
   7  -9   0   26.64    3.43
   6  12   7   57.41    4.75
   6  12   7   57.59    4.93
   6  12   7   56.09    4.85
  -6 -12  -7   53.33    4.64
   6  12   7   59.13    4.91
   2 -13  -6    8.05    3.18
  -9   4  -6    2.52    3.13
  -9   4  -6    1.87    3.03
  -9   4  -6   -1.59    2.27
   9  -4   6    2.19    2.14
  -1  12  -5   46.79    4.75
  -1  12  -5   43.92    4.43
   8   3  -7   42.28    4.79
  -8  -3   7   34.85    3.37
 -10  -2   0   29.86    4.07
 -10   0   0    1.79    3.20
  -5   3  13    2.20    2.61
   5  -3 -13   -1.52    2.30
   1  -2  16   34.07    3.74
   1  -2  16   41.34    4.11
  -1   2 -16   39.60    4.98
  -9   3   4    3.19    2.99
  -3  10  -8    6.92    3.46
  -3  10  -8   12.11    3.14
  -3  10  -8   16.69    3.16
   1  -8 -15   16.76    3.23
   1  -8 -15   11.62    2.98
  -1   8  15   14.87    3.31
  10  -1   1   10.43    2.69
 -10   1  -1   12.45    3.43
  -4 -10 -14    6.01    2.85
   4  10  14    2.22    3.56
  -4 -10 -14    4.37    2.83
  -4 -10 -14    3.05    3.31
  -7   9   1   37.27    4.17
   7  -9  -1   37.72    3.93
 -10  -4  -2   22.26    3.75
   3  13  -1   11.97    3.43
   3  13  -1    9.43    2.28
   3  13  -1    4.45    2.75
   3  13  -1    6.90    2.56
   3  13  -1   11.53    3.87
   3  13  -1    7.15    2.61
  -1  13   8   47.47    4.48
   2   1  17   35.91    3.83
  -2  -1 -17   29.15    3.68
   9   1  -5    0.76    3.37
  -9  -1   5    1.16    2.91
  -9  -1   5    3.01    2.55
   7   6  -7   27.09    3.64
   7   6  -7   36.14    4.44
  -7  -6   7   30.26    3.76
   7  -7  -7    8.09    2.73
  -7   7   7    4.01    2.88
  -7   7   7    8.38    2.30
  -2  -4  14    1.87    2.78
  -2  -4  14    4.77    2.35
  -3  11  -6   55.87    5.11
  -3  11  -6   57.67    5.45
  -3  11  -6   63.71    5.21
  -9  -8  -5   75.61    6.37
   9   8   5   43.63    4.61
   8   9   0   12.33    2.86
   8   9   0    5.76    3.84
   8   9   0    9.34    3.19
   7   7  -6   34.25    3.87
  -7  -7   6   41.16    4.29
   0 -10 -14   -2.91    2.90
   0  10  14    4.70    3.48
   0  10  14   -3.86    4.06
  -9   1   5   52.44    4.66
  -9   1   5   48.30    4.59
   1 -13   2   15.94    3.33
   2  13  -2   42.48    4.93
   2  13  -2   48.23    4.27
   2  13  -2   46.57    4.35
   9   8   4   77.53    6.41
  -9  -8  -4   92.72    7.23
  -2  -2  15   56.59    4.88
   2   2 -15   54.42    4.36
   5 -11   2   12.37    2.89
  -5  11  -2    8.70    3.95
   5 -11   2   11.39    3.11
  -5  11  -2   13.02    3.47
  -8   1 -12    8.35    3.50
  -8   1 -12    5.78    3.58
  -7   0 -14   13.83    4.26
  -7   0 -14   17.21    3.73
  -3   8 -11   38.66    4.36
  -3   8 -11   29.47    3.29
  -3   8 -11   35.86    3.93
   9  -4  -3    1.89    2.20
  -9   4   3    6.36    3.18
  -9  -3 -11    5.95    2.55
  -9  -3 -11    5.27    3.56
   6 -10  -4   24.19    3.38
   7  -2 -10   19.50    3.12
  -7   2  10   18.44    3.16
   4 -11  -8   35.69    3.93
  -4  11   8   26.09    3.21
   5  11  12   46.15    4.79
  -5 -11 -12   50.99    4.45
  -5 -11 -12   42.07    4.30
  -3   5 -14   40.16    4.18
  -3   5 -14   44.92    4.89
 -10  -4  -6   12.15    2.74
 -10  -4  -6    9.39    3.52
  -2  -8 -16    7.60    3.04
   2   8  16   10.96    3.93
  -2  -8 -16    8.01    2.97
   2   8  16    6.47    2.89
   5  12  -1   62.69    4.82
   5  12  -1   49.36    5.22
   5  12  -1   43.50    3.95
   5  12  -1   47.80    4.05
   5  12  -1   47.95    4.48
  -7   2 -13   34.31    4.40
  -7   2 -13   40.25    4.79
  -7   0  10   19.41    3.30
   7   0 -10   23.05    3.47
  -3   7  14   16.51    2.82
  -3   7  14   15.33    3.75
  -3   7  14   16.65    3.70
   3   5  17   11.74    2.59
  -3  -5 -17   14.12    3.07
  -3  -5 -17   10.50    2.78
  -3  -5 -17   15.93    2.89
  -5  -3  12   20.31    3.38
   5   3 -12   17.92    3.45
  -7   9  -1    7.86    3.28
   7  -9   1   10.51    2.66
  -7   9  -1   11.00    3.28
   4  -1  16    3.46    2.74
  -4   1 -16    5.97    3.22
  -4   1 -16    7.24    4.15
   3   6 -12   22.67    3.64
  -3  -6  12   16.46    3.19
  -3 -11   6   10.74    2.35
   3  11  -6    9.80    3.70
   3  11  -6   10.65    2.72
   3  11  -6   10.63    2.37
   5   6  16    9.32    2.87
   5   6  16   16.18    3.01
 -10   0  -6   22.08    3.81
 -10   0  -6   27.38    4.15
  -5 -12 -10   37.97    3.98
  -4   3 -15   20.10    3.25
  -4   3 -15   24.75    4.34
 -10  -2  -7    8.94    3.58
  -2 -12 -12   10.66    3.28
  -3  -9   9   39.79    3.73
   1  14   4   45.28    5.54
  -4 -11   5   12.75    2.58
   4  11  -5   13.52    2.93
   4  11  -5   14.96    2.77
   4  11  -5   21.82    3.96
  -9  -2 -11   31.37    4.59
  -9  -2 -11   31.36    4.41
   1  -6 -16   45.91    4.39
  -1   6  16   38.22    4.28
  -5   2 -15   30.87    3.79
  -5   2 -15   29.58    3.83
  -5   2 -15   34.28    4.70
  -1  -5 -17   29.28    3.48
  -1  -5 -17   37.68    3.92
  -8   4   7   52.30    4.65
  -8   4   7   50.59    4.48
  -5   0  13   25.61    3.51
   5   0 -13   34.59    3.80
   3  12  -4   25.41    4.12
   3  12  -4   21.45    2.69
   3  12  -4   19.76    2.92
  -9  -7   0   70.14    5.74
   9   7   0   68.92    5.49
   9   7   0   81.05    5.56
   9   7   0   61.61    6.29
  -1   4 -15    2.69    3.52
  -8   6   5   -1.09    2.27
   8  -6  -5    2.85    2.41
  -8   6   5    0.36    2.36
   1   1  17    1.70    2.67
  -1  -1 -17    3.37    2.75
   1   1  17   -1.33    2.78
  -9   5   1   34.36    4.14
  -9   5   1   33.66    3.65
   7  11   2   31.23    3.76
   7  11   2   28.76    3.68
   7  11   2   38.01    4.54
   7  11   2   42.74    4.18
  -9  -8  -6   39.01    3.47
  -9  -8  -6   44.46    4.81
   8  -1  -8    1.83    3.08
  -8   1   8    2.69    2.78
  -3  11  10   10.95    2.71
   3 -11 -10    7.62    2.93
   1  14   3   66.21    5.56
   1  14   3   61.75    6.32
  -4  -9 -15   45.72    4.27
   4   9  15   18.57    3.75
  -4  -9 -15   33.75    4.49
  -6   5  11    2.06    2.39
   6  12   2    8.03    3.08
   6  12   2   -0.10    3.12
   6  12   2    7.46    2.77
   6  12   2    7.08    2.65
   6  12   2    3.93    3.38
   6  12   2    1.98    2.32
   0  10  -9    0.97    2.94
 -10  -3  -7   -1.14    2.16
 -10  -3  -7   -2.36    3.37
  10   3   7    3.30    2.82
  -8   0   8   18.88    3.34
   8   0  -8   18.75    3.70
  -7   9   2   56.59    5.05
   7  -9  -2   55.17    4.68
   5 -11  -5   15.54    3.17
  -7   5   9   13.22    3.08
   7  -5  -9   14.73    3.60
   7  -5  -9   19.15    2.80
  -7   5   9   18.39    2.83
  -6   9   7    4.89    2.56
   6  -9  -7    3.30    2.78
  -2   4 -15    1.51    2.87
  -2   4 -15  -10.70    3.82
   8  10   5    9.71    2.67
   8  10   5    0.31    2.65
   8  10   5    5.20    3.28
  -9  -8  -3  113.11    8.25
   9   8   3  105.45    7.95
   3   0 -15    5.18    2.49
  -8   7  -4   -0.29    3.15
  -8   7  -4    1.92    2.96
  -8   7  -4    1.45    2.55
  -8   7  -4    0.52    2.52
   2 -13   1   52.20    4.70
   2 -13   1   40.75    4.45
  -2  13  -1   44.72    5.41
  -1  10  -9   23.20    3.55
  -1  10  -9   25.27    3.77
  -9  -4 -11   15.07    2.87
  -9  -4 -11   15.87    4.07
   1  14   5   18.69    4.74
   1  14   5   21.69    3.55
  -1 -14  -5   28.27    3.81
  -9   2  -9    3.37    3.33
  -9   2  -9    6.56    3.30
   9  -2   9    5.42    2.62
   0  11  13   21.95    4.73
   0 -11 -13   18.29    3.43
  -8   7   3   24.59    3.41
   8  -7  -3   22.09    3.05
  -8   7   3   26.72    3.06
  -7  -8 -13    9.69    2.78
   7   8  13    8.16    2.92
  -3  -8 -16    7.95    3.08
   3   8  16   14.91    3.33
  -3  -8 -16   12.36    3.15
 -10   1  -5   28.70    3.81
 -10   1  -5   27.29    4.07
  10  -1   5   26.60    3.44
   7   9  12   50.44    4.71
  -7  -9 -12   63.43    5.08
   4 -10 -10   13.47    3.01
  -4  10  10   14.84    3.06
  -4  10  10   13.00    2.57
   9   6  10   65.21    5.58
  -9  -6 -10   61.60    4.84
   8   5  13   47.16    4.25
   8   5  13   47.55    4.26
  -8  -5 -13   53.05    5.65
  -8  -5 -13   49.20    4.49
  -4   9  -9    6.75    2.62
  -4   9  -9    4.28    3.45
  -4   9  -9    3.81    2.73
  -5  -9   7   42.66    4.05
  -2 -14  -4    1.79    2.85
   2  14   4    9.17    3.18
   2  14   4   -3.13    4.09
  -8  -8 -11   18.07    2.88
   8   8  11   11.24    2.97
  -4  12  -1   53.63    4.70
   4 -12   1   36.79    4.30
   4 -12   1   48.73    4.46
  -4  12  -1   48.28    5.52
   2  -3 -16    2.66    2.54
  -2   3  16    1.58    2.30
  -2 -13 -10  119.63    8.57
   2  13  10  102.39    7.43
   8  10   4    0.88    2.63
   8  10   4    5.01    3.32
   2  -2 -16    2.29    2.41
  -2   2  16    1.49    2.61
  -6   8  -8   14.69    3.13
  -6   8  -8   12.11    3.58
  -6   8  -8    7.03    2.99
 -10  -1  -7   48.69    4.84
 -10  -1  -7   40.02    4.87
  -8  -1 -13   30.32    4.63
  -8  -1 -13   29.75    4.32
   3   1  17   56.21    4.76
  -3  -1 -17   43.68    4.39
  -4 -11 -13   65.41    5.53
  -4 -11 -13   72.65    5.75
   4  11  13   52.40    5.31
   9   5  -3   40.18    5.11
  -9  -5   3   44.77    4.28
   9   5  -3   39.40    4.01
   0  -9 -15    9.37    3.07
   0   9  15    8.48    3.37
   0  -9 -15   11.29    3.12
   0   9  15    9.49    4.07
  -1 -12 -12    7.11    3.13
   0  -3 -17   49.40    4.46
   0   3  17   64.62    5.20
  -2   7  15   -0.11    3.58
  -2   7  15    8.56    3.42
   2  -7 -15    2.04    2.78
  -9   5  -4    6.48    2.47
  -9   5  -4    8.84    3.03
  -8  -7 -12   21.99    4.28
  -8  -7 -12   22.56    3.14
   8   7  12   14.00    3.03
   7   5  -8   67.42    5.87
   7   5  -8   88.86    6.46
  -7  -5   8   69.76    5.68
  -5   6 -12    2.68    3.44
  -5   6 -12    6.56    2.68
   8   6  -5   -3.35    3.88
  -8  -6   5    0.59    2.96
  -2 -14  -5    4.12    2.93
   2  14   5   -0.91    4.17
  -3  -3  14   65.93    4.94
  -3  -3  14   63.01    5.35
   3   3 -14   67.99    5.51
   8  10   6    0.96    3.23
   8  10   6    7.65    2.83
   8  10   6    6.44    3.20
  -4  -5  12   74.51    5.92
   4   5 -12   76.45    6.03
 -10  -3   0   52.83    4.95
 -10   1   0    0.52    3.18
   5  13   5    3.56    3.04
   5  13   5    5.06    3.66
   5  13   5    4.43    2.48
   5  13   5    7.54    3.03
   5  13   5    4.94    2.72
   5  13   5    9.40    2.89
  -2  11  -7   69.66    5.93
  -2  11  -7   69.76    5.73
   4  12  -3   13.93    2.57
   4  12  -3   17.32    3.89
   4  12  -3   15.80    3.17
   9  -3   8    0.21    2.40
  -9   3  -8   -1.22    3.19
  -9   3  -8    1.29    3.20
  -6   9  -6    2.87    2.78
  -6   9  -6    1.29    3.27
   1   8  16   34.32    4.65
  -1  -8 -16   31.95    3.85
   1   8  16   31.45    3.79
  -1  -8 -16   28.44    3.81
   7  11   8   -1.63    2.78
   7  11   8    0.51    2.39
   7  11   8    4.77    3.10
   7  11   8    5.55    3.79
  -9  -7  -9   12.32    2.52
  -9  -7  -9   23.28    4.19
   9   7   9   19.50    3.62
  -3   2 -16    5.43    4.01
  -7  -8   5   47.62    4.54
   9   2  -5    6.28    3.65
  -9  -2   5    4.50    3.09
  -4   7  13   24.05    2.99
  -4   7  13   25.20    3.82
  -4   7  13   18.71    3.72
   4 -12  -5    9.44    3.15
  -2 -14  -3    4.55    2.94
   2  14   3    4.16    4.16
   2  14   3    8.58    3.20
  -6   5 -12    1.58    2.78
   5  13   4    4.60    3.04
   5  13   4    6.77    3.06
   5  13   4    2.04    3.63
   5  13   4    0.57    2.58
   5  13   4    2.48    2.41
   5  13   4    7.90    2.72
   1   1 -16   35.57    3.63
  -1  -1  16   50.96    4.59
  -1  -1  16   41.57    3.94
   7  -9   2    6.26    2.50
  -7   9  -2   10.18    3.41
  -7   9  -2    5.59    3.24
  -3 -12 -12   20.76    3.68
  -5   5 -13    8.41    2.83
  -5   5 -13    6.67    3.58
   5 -10  -8   20.36    3.35
  -5  10   8   27.78    3.41
  -5  10   8   20.77    2.89
 -10  -4  -1   26.94    3.93
  -4  11  -5   12.90    3.09
 -10  -5  -4   44.24    4.91
 -10  -5  -4   45.85    3.99
   1  13  10   62.28    5.34
  -1 -13 -10   72.74    6.11
  -4  -3 -17   48.98    4.64
   4   3  17   60.67    4.56
   3 -12  -8   20.08    3.46
  -3  12   8   22.04    3.28
   8  -2  -8    2.13    2.95
  -8   2   8    0.52    2.70
   1  14   2   54.00    4.96
   1  14   2   53.08    5.86
  -9   2   5   22.75    3.44
  -9   2   5   20.53    3.35
  -5   4  13   -0.40    2.50
   6  12   8   26.22    3.28
   6  12   8   26.74    3.55
   6  12   8   31.93    4.80
  -6 -12  -8   29.00    3.53
   6  12   8   27.52    3.58
   6  12   8   31.62    3.56
   0  -2 -17   51.13    4.56
   0   2  17   54.66    4.61
   0  14   4   28.35    3.79
   0  14   4   32.04    5.06
   7  -3 -10    7.21    3.49
  -7   3  10    9.23    2.74
   7  -3 -10    5.18    2.66
  -1  -5  14   37.62    3.91
   1   5 -14   38.35    4.43
  -6  10  -3    0.59    2.75
  -6  10  -3    0.31    3.53
   6 -10   3    2.98    2.53
  -6  10  -3    1.91    3.32
  -4  -4 -17   15.06    2.73
   4   4  17   13.50    2.62
   4   4  17   17.85    2.61
  -4  -4 -17   18.45    3.28
   0 -14  -3   27.57    3.85
   0  14   3   22.14    4.62
  -9  -1 -11   49.18    5.21
  -9  -1 -11   54.65    5.47
 -10  -1   1   46.08    4.80
  -7  -1  10   15.19    3.23
   7   1 -10   17.88    3.46
 -10  -5  -5   48.21    4.07
 -10  -5  -5   39.27    4.84
  -6  -7   8    1.98    2.72
   6   7  -8   -1.61    3.50
   8   1  -8   47.51    4.99
  -8  -1   8   43.61    4.41
   0   4  17   25.57    3.51
   0  -4 -17   20.49    3.26
  -6  -7 -15    1.60    2.65
   6   7  15    5.18    2.96
  -5  -5  11   10.31    2.99
   5   5 -11    5.21    3.28
  -9   1 -10    6.33    3.48
   9  -1  10    7.66    2.89
  -9   1 -10   13.19    3.66
  -8  -5   6    1.79    2.90
  -8  -5   6    6.15    2.25
   8   5  -6    1.33    3.56
   0  -2  16   13.67    3.28
   0  -2  16   10.78    2.74
  -5   0 -16   10.33    3.59
   5   0  16    7.48    2.67
  -5   0 -16    7.33    4.21
  -5   0 -16   11.73    3.21
   5  13   6    3.34    2.86
   5  13   6    4.08    3.02
   5  13   6   10.20    2.91
  -5 -13  -6    5.96    2.90
   9   6  -2   14.65    3.09
  -9  -6   2   18.66    3.20
   2  12  -5   46.95    4.36
   2  12  -5   50.06    4.56
  -2  -6 -17   41.92    4.37
  -2  -6 -17   53.67    4.64
  -2  -6 -17   52.67    4.41
   9   4  -4   43.29    5.15
  -9  -8  -7   37.52    4.68
  -9  -8  -7   36.41    3.36
   6  10  -4   25.21    4.46
   6  10  -4   22.02    3.02
   4  13   0   28.60    3.44
   4  13   0   43.41    4.06
   4  13   0   45.96    4.57
   4  13   0   34.98    3.53
   4  13   0   32.07    4.84
   4  13   0   35.35    3.45
   4  13   0   41.05    4.42
   8  10   3    1.42    2.77
   8  10   3    9.33    3.63
 -10  -5  -3   19.44    3.78
 -10  -5  -3   20.34    2.84
   3  -5 -15   14.43    2.80
  -3   5  15   14.38    2.87
  10  -2   2   57.11    4.65
 -10   2  -2   56.06    5.29
 -10  -4  -7   -3.63    3.46
 -10  -4  -7    2.21    2.14
  -6   6 -11   -0.09    2.75
   1  14   6    4.46    4.31
   1  14   6    9.79    3.11
  -1 -14  -6    9.04    3.19
   2  -4 -16   17.50    2.98
  -2   4  16   19.57    3.05
  -8  -7   4   11.10    3.22
 -10   2  -3   37.94    3.91
 -10   2  -3   27.30    4.25
  10  -2   3   34.25    3.61
 -10   0   1   15.62    3.58
  -4   5  14    2.21    2.49
  -5   9  -8    5.69    2.92
   4   1 -14    3.16    2.60
  -4  -1  14   -1.18    2.15
   0  13  -3   -1.47    2.79
   2  -1 -16    7.16    2.49
   0   4 -15   50.04    5.25
   0  -4  15   51.68    4.58
   2   8 -11   24.45    3.43
  -2  -8  11   29.68    3.33
  -6 -11 -11    2.02    2.63
   6  11  11    0.91    3.02
  -6 -11 -11    1.58    2.49
   2  14   6    1.45    4.15
  -2 -14  -6    5.00    3.04
  -4 -13  -9    1.21    2.85
   4  13   9    3.13    2.65
   7  -9  -3   54.06    4.71
  -7   9   3   60.78    4.99
   9   8   2   78.85    7.02
   9   8   2   93.45    6.55
  -6   4 -13    5.95    3.12
  -5   7 -11    4.90    2.66
  -5   7 -11    1.33    3.35
   5  13   3   20.19    2.84
   5  13   3   11.71    2.82
   5  13   3   11.17    3.80
   5  13   3   13.86    2.89
   5  13   3    9.94    3.26
   5  13   3   15.41    3.23
  -2  13   7   39.64    4.14
   2 -13  -7   47.64    4.79
   6  11  -2   22.41    3.02
   6  11  -2   15.75    4.37
   6  11  -2   13.77    3.02
   0  14   5   55.20    4.80
   0  14   5   46.04    5.90
   1  13  -3   13.18    3.02
   2  11  -7   42.21    4.06
   2   7 -12   15.44    3.16
  -2  -7  12   18.79    3.11
   1 -12 -11    2.36    2.92
  -1  12  11    3.54    2.75
   1  10  -9    2.84    2.83
  -4  -2 -17   40.61    4.26
   8  10   7   28.45    3.89
  -8 -10  -7   28.06    3.11
   8  10   7   28.51    3.56
   8  10   7   23.85    3.94
  -3 -13 -10   16.80    3.65
 -10  -2   1   54.78    5.12
   6   6  -9    4.43    3.57
  -6  -6   9    5.66    2.85
   6   6  -9    4.71    3.09
  -8   6  -7    8.80    3.24
  -8   6  -7   11.64    2.93
  -8   6  -7   19.49    3.51
  -8   6  -7   12.41    2.58
   0  14   2   10.27    4.27
   0 -14  -2   11.00    3.22
  -6  -8   7    3.70    2.76
  -9   5   2   33.65    4.15
   9  -5  -2   27.55    3.08
  -5  10  -6    2.55    2.80
   2  14   2   54.31    5.73
  -2 -14  -2   40.32    4.33
   2  14   2   43.89    4.65
   3   6  17   30.74    3.44
  -3  -6 -17   20.07    3.22
  -3  -6 -17   19.93    3.36
   2   0  17   32.47    3.80
  -2   0 -17   32.74    3.81
  10  -2   1   26.67    3.20
 -10   2  -1   22.65    3.87
   4  10  -7    5.70    2.55
  -4 -10   7    4.66    2.44
   4  10  -7    8.82    3.73
  -6   1  12   -0.27    2.75
   6  -1 -12    2.60    2.56
  -9  -5 -11    7.78    3.97
  -9  -5 -11   12.14    2.80
  -7   8   6    5.05    2.97
  -7   8   6    2.68    2.35
   7  -8  -6    4.38    2.66
   6  -2 -12    6.51    2.49
  -6   2  12   -2.02    2.77
   3 -13  -2   31.84    4.15
  -3  13   2   22.56    4.65
   6 -10  -5   11.22    2.96
  -3  13   3   18.76    4.55
   3 -13  -3   22.27    3.74
  -5  11  -3    3.49    3.88
  -5  11  -3    6.47    2.92
  -5  11  -3    5.41    3.42
   5 -11   3    4.70    2.76
  -5  11  -3    7.31    2.60
   5  11  -4   78.06    5.98
   5  11  -4   86.27    6.88
 -10  -5  -6   69.64    5.47
 -10  -5  -6   74.13    6.33
  -7   7  -8   10.33    3.08
  -7   7  -8   10.57    3.49
  -7   7  -8    8.97    3.07
   5   1 -13   25.58    3.53
  -5  -1  13   20.97    2.68
  -3   9 -10   23.32    3.79
  -3   9 -10   15.70    2.77
  -3   9 -10   22.31    3.57
  -2  12  -5   52.56    5.15
  -2  12  -5   64.96    5.55
 -10   0  -7   46.40    4.86
 -10   0  -7   41.14    4.94
  -7   8  -6   17.93    3.80
  -7   8  -6   23.25    3.76
  -7   8  -6   24.96    3.58
  -7   8  -6   19.52    3.38
  -7   8  -6   19.28    2.74
   7  11   1   53.90    5.13
   7  11   1   43.06    4.56
   7  11   1   41.36    4.19
  -8  -9 -10   61.99    4.92
   8   9  10   67.24    5.97
 -10   2  -4   23.57    3.95
  10  -2   4   32.37    3.48
 -10   2  -4   27.98    3.69
  10  -1   6   30.75    3.62
 -10   1  -6   23.89    3.99
 -10   1  -6   26.40    3.87
  -2  10  -9   47.49    4.65
  -2  10  -9   43.52    4.79
   6  12   1    2.87    2.39
   6  12   1    1.01    3.27
   6  12   1   -2.37    3.19
   6  12   1    0.69    2.45
   6  12   1   -3.91    3.89
   6  12   1   -1.17    2.81
   7   7  14   10.68    2.93
  -7  -7 -14   16.62    3.02
  -4  -5 -17   -0.47    2.79
   4   5  17    0.58    2.44
  -4  -5 -17    4.38    2.55
  -3   4 -15   24.57    4.32
   3   5 -13   36.32    4.10
  -3  -5  13   26.80    3.61
  -3  -5  13   28.83    3.11
   6   3 -11   45.03    4.66
   6   3 -11   42.78    4.75
  -6  -3  11   43.62    4.43
  -1  -6 -17   10.36    3.05
  -7 -10 -11   52.31    4.52
  -5 -13  -7    6.09    2.81
   5  13   7    2.29    2.75
  -2  12  10    9.60    2.94
   0  -1 -17   49.49    4.48
   0   1  17   50.66    4.40
  -6   7  10   13.23    3.30
   6  -7 -10   11.62    2.86
  -6   7  10   13.45    2.55
 -10  -5  -2    7.57    3.44
  -8   4 -10    7.11    3.27
  -8   4 -10    8.14    3.40
   1   0  17   12.47    2.85
   1   0  17   10.61    3.06
  -1   0 -17   13.66    3.01
  -3  12  -4   53.87    5.20
  -3  12  -4   47.57    4.84
  -8   3 -11    3.10    3.21
  -8   3 -11    3.03    3.38
  -5   4 -14   16.24    3.33
  -5   4 -14   25.87    4.22
  -9   4  -7   -0.53    3.19
  -9   4  -7    4.62    3.18
  -3 -10   8   15.13    2.65
   3  10  -8   15.32    2.89
   3  10  -8   19.78    3.82
   1  14   1   99.70    8.08
 -10  -2  -8   31.35    4.43
  10   2   8   46.51    4.51
  -6   1 -15   33.75    4.30
  -6   1 -15   38.29    4.01
  -6   8   9   57.65    5.08
   6  -8  -9   52.16    4.64
  -6   8   9   51.74    4.20
  -7  -3 -15   -0.51    3.75
   7   3  15    9.52    3.16
  -7  -3 -15   -1.38    2.80
   3 -13  -1   30.16    3.96
  -3  13   1   23.82    4.66
  -5   8  11    2.27    2.23
   5  -8 -11    5.67    2.75
  -5   8  11    5.82    2.53
   6   3  16    5.52    2.49
   6   3  16    4.00    2.47
   6   3  16    3.41    2.20
  -6  -3 -16    4.50    3.70
  10   3   8    2.35    2.97
 -10  -3  -8   -0.73    3.58
 -10  -3  -8    3.68    2.35
  -4  12  -2   26.57    4.71
   4 -12   2   27.47    3.65
   4 -12   2   20.14    3.66
  -2  -9  10   39.01    3.61
   2   9 -10   34.32    3.75
   2 -10 -13   52.91    4.86
  -2  10  13   74.24    6.64
  -7   9  -3    2.04    3.18
  -7   9  -3    4.14    2.82
  -7   9  -3    1.10    3.12
   0  -5 -17    3.42    2.87
  -9   5  -5    4.33    2.97
  -9   5  -5    3.90    2.45
  -4   6 -13   14.96    4.01
  -4   6 -13   22.71    3.02
   3 -13  -4   13.19    3.54
  -3  13   4    9.53    4.23
 -10   1   1    0.72    3.09
   7  10  -2   31.79    4.78
   3  14   4    3.91    4.15
  -3 -14  -4    8.82    3.06
   3  14   4    8.99    3.14
  -6  -4 -16   29.06    3.75
   6   4  16   24.45    2.97
  -6  -4 -16   27.12    4.37
   6   4  16   22.94    3.29
   8   9  -1   12.96    4.20
   8   9  -1   19.82    3.40
   8   9  -1   22.83    3.16
  -8  -6 -13   19.49    4.36
   8   6  13   24.26    3.34
  -8  -6 -13   20.03    3.22
  -4  -8 -16   16.73    3.29
  -7  -4 -15   20.75    3.37
  -7  -4 -15   20.72    4.38
   7   4  15   17.23    3.34
   7   4  15   17.21    2.89
   3  14   5    9.11    3.18
   3  14   5    6.51    4.36
  -3 -14  -5   10.05    3.15
   8  -3  -8   10.83    3.08
  -8   3   8   12.68    2.88
  -8   3   8   17.25    3.04
   5 -11  -6   -1.66    2.87
   8  10   2   12.72    3.13
   8  10   2    3.51    3.74
   8  10   2    9.96    3.00
   6   0 -12    5.63    2.78
  -6   0  12    8.09    2.97
  -8   7  -5    6.08    3.30
  -8   7  -5   10.38    3.22
  -8   7  -5    7.75    2.81
  -8   7  -5    7.59    2.82
  -9   4   4   -0.48    3.01
   9  -4  -4    0.19    2.20
  -5  -7 -16    1.76    3.30
  -3  -1  15    9.72    2.87
   3   1 -15   12.86    2.91
  -8   7   4   15.89    3.01
  -8   7   4   15.55    2.97
   8  -7  -4   14.22    2.82
  -1  13   9   28.28    3.72
   0  14   6   36.49    4.13
  -8   0 -13   17.54    3.89
  -8   0 -13   19.79    4.33
  -4   7 -12   11.24    3.64
  -4   7 -12    8.05    2.58
  -6   3  12    8.67    2.82
   6  -3 -12   13.72    2.63
  -8  -4   7    1.26    2.17
   8   4  -7   -8.54    3.67
   2 -13   2   43.77    4.49
   2 -13   2   39.06    4.38
  -2  13  -2   39.68    5.29
  -7   1 -14   25.63    4.48
  -7   1 -14   19.57    3.72
   3  13  -2   34.30    3.66
   3  13  -2   24.33    4.22
   3  13  -2   19.24    3.19
   3  13  -2   34.14    4.33
   3  13  -2   25.29    3.22
  -1  13  -3   12.44    3.19
  -2 -14  -7   12.35    3.28
   2  14   7   10.60    3.12
   1  14   7   -1.97    2.96
  -1 -14  -7    1.68    3.05
   0 -12 -12   50.42    4.86
   0  12  12   56.75    4.96
 -10  -4   0   26.71    3.87
  10  -2   0   15.17    2.72
 -10   2   0   11.34    3.54
   9   7  -1   51.97    4.52
   9   7  -1   45.51    5.46
   9   8   8    5.73    3.16
  -9  -8  -8   14.97    3.95
  -9  -8  -8   11.69    2.48
   5  13   2   10.62    2.59
   5  13   2    9.40    2.52
   5  13   2    6.80    2.96
   5  13   2    9.05    3.28
   5  13   2   18.70    4.02
   0 -14  -1   -0.10    3.07
   0  14   1    0.71    4.23
  -2  -6  13    7.43    2.86
   2  -9 -14   33.25    3.82
  -2   9  14   42.09    5.10
   7   4  -9   16.77    3.61
   7   4  -9   25.87    3.95
  -7  -4   9   22.66    3.59
   0  13  10    7.91    3.04
   0 -13 -10   11.15    3.27
  -6   7 -10    1.17    2.78
   8   2  -8   60.98    5.61
  -8  -2   8   55.76    4.69
  -8  -2   8   66.09    5.32
   3   0  17   25.63    3.52
   4 -12  -6    0.28    2.84
   9   3  -5   23.32    4.31
  -9  -3   5   21.75    3.73
  -5   9  10   51.05    5.09
  -5   9  10   45.82    3.93
  -5   9  10   59.14    4.56
   5  -9 -10   48.38    4.50
   7  11   9    5.77    3.95
  -7 -11  -9    0.31    2.49
   7  11   9    4.88    3.07
   7  11   9    0.86    2.94
  -3   9  13   34.03    3.44
  -3   9  13   45.37    4.87
  -3   9  13   37.56    3.97
   2  -5 -16   22.78    3.29
  -2   5  16   24.86    3.50
   2  10  15   39.81    5.13
  -2 -10 -15   41.30    4.52
  -2 -10 -15   43.42    4.39
  -7  -2 -15   17.10    4.04
  -9   0 -11   15.95    4.12
  -9   0 -11   19.58    4.03
   3  14   3   -1.70    4.10
  -3 -14  -3    2.34    2.86
   3  14   3   -2.55    3.03
 -10  -1  -8   43.07    4.87
 -10  -3   1   88.59    6.72
   8   8  -3   29.28    4.65
   7   9  -4   55.24    5.73
  -5 -10   6   40.22    3.91
   5  10  -6   43.32    5.04
  -9   3   5    3.41    3.05
  -9   3   5    5.24    2.79
   6   2  16    6.89    2.58
  -6  -2 -16   -4.20    3.75
   6  12   9   20.52    3.40
  -6 -12  -9   16.61    3.07
   6  12   9   17.17    3.22
  -3  10  12   12.58    2.45
  -3  10  12    9.01    2.18
  -1   7 -13   14.02    3.51
   1  -7  13   10.90    2.48
  -7   4  10   -0.08    2.53
   7  -4 -10   -0.81    2.42
   7  -4 -10    4.23    3.66
   4   1  17   10.20    2.86
   2   0 -16   18.54    2.83
  -2   0  16   25.31    3.40
  -2 -11 -14   32.25    4.11
   2  11  14   31.84    4.92
  -2 -11 -14   32.89    4.07
  -8 -10  -8   13.75    2.54
   8  10   8    6.40    3.55
   8  10   8    6.98    2.81
   8  10   8    5.42    3.25
   3  14   6    8.18    3.28
  -3 -14  -6   12.13    3.27
   3  14   6    8.45    4.38
   7   2 -10    3.70    3.18
   5  12  -2   69.98    6.08
   5  12  -2   61.14    5.27
 -10  -5  -7   51.19    5.39
  10  -2   5   28.84    3.43
 -10   2  -5   30.67    3.94
 -10   2  -5   25.40    4.07
   1  -7 -16   52.47    4.49
   1  -7 -16   37.97    4.19
   2  14   1   60.08    6.40
   2  14   1   67.05    5.59
  -7   5 -11    6.17    3.45
  -7   5 -11    2.98    3.00
  -7   4 -12    3.46    3.51
  -7   4 -12    6.11    3.02
   0   8  16   57.76    5.83
   0  -8 -16   48.40    4.72
   0   8  16   54.20    4.84
   0  -8 -16   58.21    4.97
  -5   5  13    4.48    2.58
   9   8   1   75.90    5.87
   9   8   1   72.85    6.64
   9   8   1   79.88    5.86
  -6  -9 -14   79.25    6.10
   6   9  14   76.22    6.04
  -8   5  -9    2.16    2.35
  -8   5  -9    2.76    3.15
  -8   5  -9    2.04    3.29
   2  13  -3   46.76    4.15
   2  13  -3   40.05    4.80
   2  13  -3   44.56    4.30
  -1   8 -12    3.48    3.15
   1  -8  12    6.38    2.16
   7  -9  -4   35.34    3.88
  -7   9   4   28.63    3.43
  -6   3 -14   31.28    3.75
  -6   3 -14   29.66    4.03
  -4 -12 -12   56.42    5.18
  -4 -12 -12   53.18    4.93
   0  12  -6   20.84    3.46
   0  12  -6   21.05    3.73
  -5 -12 -11   52.93    4.84
  -5 -12 -11   55.19    4.91
  -6  -5  10   23.35    3.65
   6   5 -10   23.44    3.94
   6   5 -10   20.58    3.77
 -10  -4  -8    4.23    3.67
  10   4   8    3.42    3.02
 -10  -4  -8    0.07    2.26
  -4   5 -14    9.41    3.84
  -5 -10 -14   21.47    3.43
   5  10  14   20.96    3.73
  -5 -10 -14   25.46    3.47
  -5 -10 -14   18.53    3.87
  -6  -9   6   13.79    2.93
   6   9  -6   10.53    4.11
  -8   2 -12    6.86    3.51
  -8   2 -12    6.01    3.68
   3 -13   0   24.96    3.66
   3 -13   0   28.61    3.93
  -3  13   0   24.05    4.67
   6   5  16   28.87    3.39
  -6  -5 -16   32.89    3.96
  -8   5   7   38.28    3.85
  -8   5   7   40.27    3.86
  -8   5   7   37.36    4.17
  -6 -10 -13   46.06    4.40
  -6 -10 -13   48.02    4.22
   6  10  13   33.59    3.98
   6  10  13   40.76    4.19
  -6  10  -4    8.40    3.13
  -6  10  -4   12.68    3.51
  -6  10  -4    8.31    3.81
   6 -10   4    6.01    2.55
   1 -14  -3    9.90    3.23
  -3 -10 -15   14.96    3.45
   3  10  15   19.52    4.33
   1 -10 -14   29.11    3.82
  -7  -5 -15   39.74    4.18
   7   5  15   41.59    3.98
  -7  -5 -15   37.13    5.02
   7   5  15   41.31    4.31
  -5   7  12    1.64    2.36
  -5   7  12   -4.93    3.22
   5  -7 -12    1.02    2.61
  -5   8 -10    0.82    2.64
  -5   8 -10    7.87    3.50
   3 -13  -5   13.81    3.50
   1 -14  -4   12.08    3.41
  -8   6   6   -2.21    2.62
   8  -6  -6    2.70    2.54
  -8   6   6   -0.33    2.31
  -4  11   9   36.94    3.74
   4 -11  -9   31.62    3.88
 -10  -5  -1    8.21    3.37
  -9  -7 -10   27.06    3.17
  -9  -7 -10   22.73    4.53
   9   7  10   29.43    4.17
 -10  -1   2   32.31    4.13
  -5 -13  -8    5.51    2.91
   5  13   8    6.53    2.98
  -2  11  12   23.19    4.57
  -2  11  12   11.22    2.82
  -6   6  11    4.47    3.08
  -6   6  11    1.90    2.41
  -4   2 -16   33.19    4.96
  -9   0   6    2.60    2.96
   9   0  -6    0.32    3.43
  -2  -3  15   24.10    3.50
  -3 -11 -14   58.01    5.26
   3  11  14   43.02    5.19
   0   8 -12    6.28    3.09
   0  -8  12    2.57    2.27
 -10   0   2   27.07    4.03
   4   4 -13   44.99    4.54
  -4  -4  13   45.78    3.90
  -4  -4  13   45.79    4.57
  -9   5   3   12.58    3.46
   9  -5  -3   10.98    2.52
   0   7 -13   32.55    4.12
   0  -7  13   31.45    3.40
  -4  -6 -17    1.64    2.69
  -4  -6 -17    0.75    2.85
   4   6  17   -2.98    2.67
   0  11  -8    9.71    3.21
   0  11  -8   10.11    3.03
  -2   7 -13   28.77    3.89
  -2   7 -13   31.63    4.34
   2  -7  13   28.21    3.02
  -1 -10 -15   17.56    3.62
  -1 -10 -15   23.03    3.56
   1  10  15   19.01    4.48
   8  -8   0    8.37    2.67
  -8   8   0   10.50    3.19
  -2   3 -16    0.49    3.88
  -5  -9 -15   61.81    5.34
  -5  -9 -15   66.07    5.67
   5   9  15   60.04    5.42
  -5  -9 -15   64.30    5.16
   1 -14  -2   -0.94    3.12
  -1   3 -16   33.85    4.78
  -7   7   8   37.19    3.44
   7  -7  -8   31.07    3.67
  -7   7   8   30.20    3.97
  -3   6  15    6.53    2.64
  -2  -7 -17   16.18    3.33
  -2  -7 -17   13.12    3.14
   2   7  17   12.07    2.97
   4  13  -1   12.25    3.81
   4  13  -1   14.44    3.70
   4  13  -1   18.27    2.63
   4  13  -1   12.03    2.66
   4  13  -1   14.96    3.14
   1  11  14    1.65    4.18
  -1 -11 -14   -1.60    3.15
  -4   8 -11    0.36    2.46
  -4   8 -11    3.30    3.40
  -1   6 -14    0.21    3.36
   1  -6  14    0.63    2.41
   1  12  -6   13.07    3.24
   1  12  -6    9.09    2.99
  -9  -6 -11   45.84    4.18
  -8   8  -1   -1.20    3.06
  -9   1   6   57.44    4.86
  -9   1   6   47.68    4.51
   5   4 -12    0.47    3.08
  -5  -4  12    3.99    2.93
 -10  -6  -4    6.36    2.44
 -10  -6  -4    5.26    3.60
   3  14   2    5.18    3.24
   3  14   2    3.02    4.27
  -1  12  -6   29.52    3.88
  -1  12  -6   28.01    4.14
  -9   6  -1   21.78    3.72
  -9   6  -1   18.82    3.37
  -9   6  -1   22.67    3.02
 -10  -6  -5   26.22    4.23
 -10  -6  -5   24.64    3.19
  -7   6   9   31.93    3.37
   7  -6  -9   42.38    4.55
   7  -6  -9   29.24    3.67
  -7   6   9   28.93    3.72
   1  14   0   44.63    5.54
  -1 -14   0   56.49    4.96
  -6   9   8    1.20    3.20
  -6   9   8    2.78    2.53
   6  -9  -8   -0.69    2.73
   1 -11 -13   37.08    4.24
   0   0 -17   20.19    3.22
   0   0  17   18.58    2.96
   0   0  17   22.71    3.52
   6   1 -12   24.98    3.63
  -6  -1  12   27.63    3.73
 -10   1  -7   11.46    3.53
  -2 -13 -11   62.52    5.58
   2  13  11   55.24    5.06
  -2  13   8   42.78    4.34
   2 -13  -8   45.92    4.74
  -5   1 -16   34.68    4.26
  -5   1 -16   34.27    5.19
  -1  -4  15   24.91    3.43
   1   4 -15   23.86    4.04
   9   1  -6    9.76    3.80
  -9  -1   6   16.01    3.39
  -1  11  -8   32.15    4.06
  -1  11  -8   36.01    4.27
  -4   6  14    4.27    2.52
  -4 -13 -10    9.10    3.21
   4  13  10   10.04    2.88
   4   2 -14    3.61    2.75
  -4  -2  14    3.66    2.20
  -4  -2  14    3.08    2.98
  -2   8 -12   27.56    4.13
  -2   8 -12   32.64    4.02
   1 -14  -5   14.92    3.52
  -1  14   5   11.45    3.16
  -1  -2  16   12.76    3.06
   1   2 -16   12.44    2.71
  -3 -14  -7   25.85    3.76
   0  14   7   33.37    4.07
  -3   8  14   45.25    4.90
  -3   8  14   36.68    3.73
  -3   8  14   40.18    4.79
   3  -8 -14   22.68    3.37
  -8   8   1    9.66    3.13
   8  -8  -1   10.82    2.71
  -7   6 -10    0.34    3.35
  -7   6 -10    2.34    2.94
  -7   3 -13    5.70    3.76
  -7   3 -13    3.68    3.32
  -9  -3 -12   23.16    4.39
  -9  -3 -12   21.27    3.29
  -3  11  -7    8.34    3.09
  -3  11  -7    7.09    3.50
  -9   6  -2    4.35    3.23
  -9   6  -2    3.72    2.98
  -9   6  -2    4.24    2.52
  -6   4  12    5.94    2.80
  -1   3  17   11.61    2.84
   1  -3 -17    8.72    2.79
 -10  -2   2   14.03    3.32
   7  11   0   47.99    5.26
   7  11   0   42.82    4.57
   7  11   0   51.71    4.50
 -10   2   1    6.05    3.35
  -4  10  -8    1.53    2.85
  -4  10  -8   -0.11    3.39
  -9   6   0   28.17    3.59
  -9   6   0   23.92    3.93
   6  12   0    8.37    3.47
   6  12   0    3.00    3.32
   6  12   0    4.16    3.01
   6  12   0    6.52    4.10
   6  12   0    6.42    2.60
   8  10   1   42.61    5.32
   8  10   1   51.32    4.59
   8  10   1   52.46    4.83
  -2  -9 -16   10.79    3.15
  -2  -9 -16    6.05    3.13
   2   9  16   -4.77    4.04
  -7  -1 -15   19.11    4.51
  -7  -1 -15   12.10    3.76
   5  11  13   -0.09    3.41
  -5 -11 -13    3.37    2.82
  -5 -11 -13    6.06    3.03
  -3  12   9   52.36    4.66
   3 -12  -9   53.31    4.95
   6 -10  -6    8.30    2.92
  10  -3   2   32.57    3.42
 -10   3  -2   31.17    4.25
   3   7  17   64.28    5.27
  -3  -7 -17   50.13    4.84
  -3  -7 -17   63.11    5.14
  -2 -10   9   48.72    4.02
   2  10  -9   51.63    4.49
   9  -3   9   -1.86    2.50
  -9   3  -9    2.96    3.27
  -9   3  -9    2.69    3.38
  -8  -8 -12    3.04    2.57
   8   8  12   -2.94    2.88
   0  14   0    3.25    4.39
   0 -14   0    6.59    3.11
   0 -14   0    2.22    2.86
  -1   9  15    1.64    3.27
   1  -9 -15   -0.56    2.81
  -7   9  -4    5.09    3.38
  -7   9  -4    7.52    2.97
  -7   9  -4    4.95    3.36
   9  -2  10   -1.63    2.60
  -9   2 -10    0.23    3.35
  -9   2 -10   -1.46    3.52
  -1   9 -11   25.15    3.81
 -10   0  -8   24.34    4.19
  -2   6 -14   33.40    4.53
  -2   6 -14   39.70    4.32
 -10  -6  -3    2.55    3.44
   0  -6 -17    3.52    2.89
   5   2 -13   17.99    3.36
  -5  -2  13   27.84    3.81
  -5  11  -4    7.32    3.58
  -5  11  -4    0.32    2.95
  -5  11  -4    0.46    3.84
  -5  11  -4    2.76    2.59
   6   1  16    3.62    2.71
  -6  -1 -16    4.79    3.61
   5  13   1    8.59    2.54
   5  13   1    9.34    3.53
   5  13   1    9.67    3.00
   5  13   1    6.71    3.93
   5  13   1    1.81    3.55
   5  13   1   10.78    2.46
   1  -2 -17   23.46    3.29
  -1   2  17   29.27    3.33
  -5   3 -15   28.30    4.56
  -5   3 -15   20.91    3.47
   2  14   8   25.54    3.65
  -2 -14  -8   32.73    4.17
  -4   9  12    1.18    2.12
  -4   9  12    3.08    2.74
  -4   9  12   -1.52    3.49
   4  -9 -12    2.71    2.78
 -10   3  -3   19.96    3.90
  10  -3   3   18.31    2.87
 -10   3  -3   20.25    3.47
  -8  -3 -14   25.86    3.55
  -8  -3 -14   37.50    4.81
   8   3  14   30.17    3.73
   6   8  15   20.73    3.44
  -6  -8 -15   22.54    3.47
  -6   9  -7    6.36    3.04
  -6   9  -7    7.60    3.12
  -6   9  -7    9.08    3.59
  -9  -2 -12   52.12    5.46
  -8   8  -2    0.69    2.67
  -8   8  -2    0.09    2.62
  -8   8  -2   -3.54    3.03
   9   5  -4   48.56    5.35
   9   5  -4   38.63    4.32
 -10  -6  -6   55.91    5.64
   2  -1  17   38.08    4.15
 -10   1   2    3.84    3.17
   1  13  11   49.98    4.75
  -1 -13 -11   62.74    5.62
   3  12  -5   25.11    3.35
   3  12  -5   25.23    3.47
  -9   5  -6    5.64    3.20
  -9   5  -6   10.71    3.48
  -9   5  -6    9.93    2.64
  -9  -4 -12   -3.51    3.89
  -9  -4 -12    3.28    2.67
   5   3  17   32.72    3.12
  -5  -3 -17   30.76    3.91
   5   3  17   31.45    3.36
  10  -3   1   23.11    3.00
 -10   3  -1   21.11    3.91
   0   9 -11    3.89    3.02
   1  14   8   -0.47    2.95
  -1 -14  -8    3.66    3.41
   9   6  -3   40.12    4.26
  -5  -4 -17   44.19    4.58
   5   4  17   45.38    4.05
   5   4  17   41.84    3.85
  -4  12  -3   21.12    4.61
   4 -12   3   17.27    3.35
   2  -8 -15    0.54    2.71
  -2   8  15   -3.77    3.84
  -4  11  -6    1.67    3.48
  -4  11  -6   -0.08    2.81
   1 -14  -1    5.07    3.25
  -3  -9 -16    2.26    2.90
  -3  -9 -16    0.38    3.13
   3   9  16   -2.75    3.83
  -8  -4 -14    1.50    3.97
  -8  -4 -14    6.24    2.89
   8   4  14    1.80    2.81
  -1   4  17    1.27    2.69
   1  -4 -17   -1.49    2.78
 -10   2  -6    5.62    3.28
 -10   2  -6    7.42    3.44
  10  -2   6    8.33    2.75
   2  12  13   10.20    4.50
  -2 -12 -13    5.39    3.17
   8  -4  -8   20.93    3.34
  -8   4   8   22.03    3.21
   9   8   9    3.63    3.33
  -9  -8  -9    1.70    3.75
  -9  -8  -9    2.95    2.30
   3 -11 -11    0.38    2.95
  -3  11  11    0.15    2.47
  -1  -7 -17    2.34    2.82
  -1  -7 -17   -4.07    2.99
   1  11  -8    2.28    2.94
   0  -6  14   14.66    2.87
   0   6 -14   14.01    3.66
   7   9  13   51.54    4.89
  -7  -9 -13   53.63    4.73
  -5  10   9   22.92    2.89
   5 -10  -9   21.60    3.45
   4  12  -4    2.74    3.71
   4  12  -4    0.64    2.38
   4  12  -4   -0.24    2.91
   4  12  -4    6.76    2.61
 -10  -5  -8   26.61    3.04
 -10  -5  -8   25.72    4.47
   3 -13   1   48.24    4.65
  -3  13  -1   42.10    5.44
   3 -13   1   42.74    4.65
 -10  -3  -9   36.25    3.73
  10   3   9   32.97    4.11
   1  -1  17   55.35    4.96
  -1   1 -17   50.71    4.63
   4   8 -10    8.13    3.48
  -4  -8  10    1.41    2.62
  10   2   9  107.18    7.73
  -9   6  -3    4.42    2.95
  -9   6  -3    1.65    2.46
  -9   6  -3    5.80    3.32
  -2  -5  14   -2.18    2.89
   8  10   9   12.14    3.91
   8  10   9   21.72    3.56
   8  10   9   21.91    3.37
  -8 -10  -9   21.29    3.00
  -3 -13 -11    1.29    3.36
  -9   2   6   31.61    4.01
  -9   2   6   48.50    4.25
   0  13  -4    1.40    3.33
   0  13  -4    0.70    2.89
   9   9   5   17.07    3.54
  -3  10  -9    8.82    3.18
  -3  10  -9   10.02    3.22
  -3  10  -9    9.17    3.64
   6   6  16    4.86    2.78
  -6  -6 -16    6.79    3.02
 -10  -4   1   42.47    4.37
   2  14   0   41.86    5.59
   2  14   0   46.52    4.63
  -8  -2 -14   72.82    6.54
   8   2  14   66.95    5.46
  -9   6   1   22.91    3.89
  -9   6   1   28.87    3.49
   4  11  -6   10.06    2.92
  -4 -11   6   13.31    2.65
   4  11  -6   14.44    3.98
   8   9  11   38.67    4.20
  -8  -9 -11   39.92    3.90
   3 -13  -6    1.04    3.20
  -8   8   2   13.09    3.18
   8  -8  -2   12.65    2.80
  -4   4 -15   10.68    4.01
   3   4 -14   59.62    5.20
  -3  -4  14   50.96    4.71
  -3  -4  14   48.39    4.18
   4   7 -11   14.51    3.53
  -4  -7  11   15.33    3.14
   6  11  12   12.34    3.34
  -6 -11 -12   11.64    3.00
  -8   7  -6    7.68    3.25
  -8   7  -6   10.75    2.59
  -8   7  -6    9.64    3.36
  -8   7  -6    4.89    2.77
  -7  -6 -15   74.13    5.92
   7   6  15   76.96    6.11
   7   6  15   79.36    5.97
  -2   6  16   31.90    4.11
   2  -6 -16   30.28    3.71
  -8  -7 -13   21.14    3.33
  -8  -7 -13   33.82    4.69
   8   7  13   22.63    3.46
   8   3  -8   22.07    4.09
  -8  -3   8   22.71    2.87
  -3   3 -16    1.50    3.93
   7   7  -7   11.92    3.99
  -7  -7   7   18.20    3.42
  -7   8   7   -0.64    3.08
   7  -8  -7    3.91    2.78
   4 -12  -7    2.22    2.97
   9   9   4    7.73    3.58
  -8   6  -8   20.05    3.80
  -8   6  -8   18.26    3.17
  -8   6  -8   11.14    3.46
   5 -11  -7    3.07    3.00
   4   0  17    2.67    2.82
  -4   0 -17    1.77    4.16
   8  -7  -5    9.87    2.78
  -8   7   5    9.16    2.78
   1   9  16   48.49    4.73
   1   9  16   44.43    5.35
  -1  -9 -16   46.15    4.82
  -1  -9 -16   57.26    4.90
 -10   3  -4    5.96    3.16
  10  -3   4    6.65    2.43
 -10   3  -4    3.60    3.36
  -6   8  -9    2.14    3.46
  -6   8  -9    3.95    2.95
  -6   8  -9    1.05    2.97
   0   3 -16   35.00    4.81
   7  11  10   12.79    3.33
  -7 -11 -10   14.44    2.85
  -7 -11 -10   13.13    2.74
   6  11  -3   36.89    5.18
   6  11  -3   32.44    3.63
  -4   8  13    6.87    2.46
  -4   8  13    2.12    3.48
   4  -8 -13    9.65    2.94
   4 -10 -11   23.06    3.53
  -4  10  11   23.17    4.35
  -9   4  -8    1.70    3.33
  -9   4  -8    5.67    3.41
   1  13  -4    1.22    2.64
  -1  14   6   27.96    3.85
   9   8   0   49.19    4.69
   9   8   0   61.26    4.95
   9   8   0   61.09    5.93
  -5  -2 -17   11.53    3.72
   9   9   6    7.77    3.21
  -8   1 -13    0.62    3.81
  -8   1 -13    0.70    3.58
  -3 -11   7    9.25    2.46
   3  11  -7   20.68    4.05
   3  11  -7   13.19    2.92
   4  10  15   -1.98    3.57
  -4 -10 -15    4.17    3.04
   9   2  -6   21.41    4.30
  -9  -2   6   18.35    3.59
  -7   8  -7   16.94    3.79
  -7   8  -7   13.91    3.38
  -7   8  -7   13.07    3.16
 -10  -6  -2    1.92    3.40
  -2  -1  16   21.35    3.32
   7  -9  -5   27.17    3.63
  -7   9   5   37.74    3.86
  -2  13  -3   23.38    3.80
  -5  -8   9   26.08    3.53
   5   8  -9   28.08    4.28
   3  12  13   16.71    4.68
  -3 -12 -13   10.92    3.52
 -10  -5   0    4.46    3.21
  10   5   0   -0.90    3.95
  -7  -8 -14    2.05    2.73
   7   8  14   -1.94    2.99
  10  -3   0   25.65    3.07
 -10   3   0   21.72    3.88
  -5  -7  10   41.69    4.30
   5   7 -10   41.39    4.71
   9   4  -5   39.38    5.13
   3  14   1    7.70    3.30
   3  14   1   16.78    4.46
  -9   1 -11    1.08    3.56
  -9   1 -11    8.68    3.74
  -6 -12 -10   27.43    3.48
   6  12  10   29.45    3.92
   1  -1 -17   23.52    3.27
  -3  -2  15   11.23    3.18
   3   2 -15   19.52    3.28
  -1 -12 -13   14.37    3.56
   1  12  13   26.92    5.16
   5   5  17   54.99    4.64
   5   5  17   54.16    4.70
   7   6  -8   47.85    5.22
  -7  -6   8   51.97    4.88
  -5 -13  -9   25.81    3.69
   5  13   9   22.50    3.49
  -1  -8  12   28.89    3.33
   1   8 -12   26.73    3.78
  -2   9 -11   22.09    3.90
  -8  -6   6    4.75    3.07
   8   6  -6    0.93    3.86
   8   9  -2   35.16    4.99
  10   4   9    6.74    3.22
 -10  -4  -9   13.52    2.81
   4  14   5    9.93    3.36
   4  14   5    4.86    4.14
  -4 -14  -5    2.04    2.92
 -10  -3   2   12.18    3.17
  -3   1 -17   -0.80    4.13
 -10  -6  -7   41.72    5.13
  -9  -1 -12   28.70    4.39
  -9  -1 -12   25.56    4.68
   4  11  14   30.04    4.56
  -4 -11 -14   37.22    4.33
  -3  12  -5   20.42    4.05
  -8   8  -3    1.71    2.90
  -8   8  -3   -0.46    2.70
  -8   8  -3    0.50    3.14
  -7   5  10   12.57    2.85
  -9   4   5    0.86    3.00
   9  -4  -5    0.68    2.34
  -9   4   5   -2.30    2.71
  -7 -10 -12   50.07    4.55
   7  10  12   49.51    4.84
 -10  -1  -9   98.45    7.80
  -8  -5 -14   18.56    3.32
   8   5  14   12.19    3.06
  -8  -5 -14   19.44    4.47
   8   5  14   23.27    3.25
   4  14   4   -2.95    3.02
   4  14   4    1.36    4.09
  -4 -14  -4   -1.45    2.91
   4  14   4   -1.15    3.22
  -3 -14  -8   49.22    4.85
  -4  -9   9    2.51    2.55
  -6  11   1   12.40    3.81
   6 -11  -1    8.24    3.21
  -1   5 -15    3.05    3.57
  -9  -5 -12    4.75    4.12
  -9  -5 -12    5.30    2.73
   6   4 -11   28.15    4.18
  -6  -4  11   25.62    3.75
  -8   1   9    5.42    2.97
   8  -1  -9    4.70    3.14
   9   7  -2   27.62    4.66
   9   7  -2   18.36    3.44
   7   3 -10   11.71    3.59
  -8  -7   5   26.67    3.83
   1   7 -13   11.39    3.31
  -1  -7  13   13.93    2.87
   6  10  -5   10.44    4.35
  -6 -10   5    4.38    2.76
  -4   2  15   30.32    3.74
  -5  -8 -16   23.90    4.15
  -7  -8   6   24.68    3.56
  -6   2 -15   24.01    4.06
  -6   2 -15   39.60    3.90
   7  12   5   32.19    3.80
   7  12   5   45.78    4.68
  -2  11  -8   40.30    4.45
  -2  11  -8   38.96    4.60
  -3   7 -13   16.12    3.85
   9   9   3   12.17    4.03
  -7   1  11    5.10    2.87
   7  -1 -11    5.08    2.88
   8   0  -9   19.52    3.76
  -8   0   9   18.32    3.47
   6 -11  -2   22.24    3.64
   2  12  -6   26.93    3.57
   2  12  -6   25.23    3.60
  -1  13  10   16.56    3.27
  -5  12   2   16.45    4.30
   5 -12  -2   21.38    3.75
   1  -5 -17    0.51    2.85
  -1   5  17    7.06    3.10
   4  14   6   12.99    4.47
  -4 -14  -6   14.93    3.38
   4  14   6   24.27    3.75
  -2   5 -15    6.86    3.19
  -2   5 -15    9.75    3.79
   3   8 -11   18.74    3.85
  -3  -8  11   13.39    2.87
   6 -11   0    6.08    2.87
  -6  11   0   10.47    3.41
  -6  11   0    8.08    3.79
   6 -11   0    9.46    3.06
   0  10  15   -4.41    4.21
   0 -10 -15    5.37    3.10
  -5   6  13    1.13    2.51
   0 -11 -14    6.09    3.23
   0  11  14    4.76    4.29
   5 -12  -1   18.63    3.58
  -5  12   1   11.86    4.35
  -4   3  15   24.48    3.42
  -2  12  -6   50.34    4.98
  -2  12  -6   55.33    5.27
   7  10  -3    2.20    4.12
  -4   9 -10    1.89    2.53
  -4   9 -10    4.08    3.45
  -1  13  -4   37.76    4.55
  -1  13  -4   36.47    4.25
   7  12   6   41.43    4.81
   7  12   6   50.42    4.39
   7  12   6   40.12    4.34
  -6  10  -5   47.13    5.20
  -6  10  -5   38.97    4.47
   1 -14   0   12.71    3.44
   3  13  -3   26.47    3.14
   3  13  -3   26.86    4.46
   3  13  -3   29.11    3.60
   3  13  -3   21.66    3.26
  -1  12  12    3.38    2.81
   7  12   4   29.28    4.20
   7  12   4   17.92    2.91
   9   9   7    7.81    3.31
  -4  -7 -17   -0.16    2.80
   0  14   8    4.03    3.10
   9  -5  -4    9.44    2.50
  -9   5   4   12.94    3.52
  -7   7  -9   16.03    3.49
  -7   7  -9   11.82    3.24
   7  -2 -11    1.88    2.70
  -7   2  11    3.59    2.85
  -9   6  -4    5.03    3.07
  -9   6  -4    3.42    2.59
  -7   2 -14   18.02    3.79
 -10   2   2   -1.99    3.20
   1  14  -1   28.27    5.09
   1   9 -11    2.96    2.91
  -5   9  -9    6.38    2.88
  -3   6 -14   11.28    3.82
  -2  12  11    6.06    2.84
   6   2 -12   40.63    4.49
  -4  -6  12   59.21    5.11
   4   6 -12   67.57    5.68
   4  -1 -15   18.36    2.89
  -8  -1 -14   30.08    4.70
  -8  -1 -14   45.11    5.29
   4  14   3    0.24    3.05
   4  14   3    3.03    3.18
   4  14   3    0.92    4.11
  -8   2   9    2.70    2.85
   8  -2  -9    1.94    3.04
  -9   6   2   19.90    3.76
   3   7 -12    1.33    3.25
  -3  -7  12   -0.08    2.71
  -7   0 -15   12.19    3.79
  -5  -9   8   58.48    4.95
   5  11  -5  112.56    7.76
   5  11  -5   87.02    6.68
   8   5  -7   -1.60    3.78
  -2  -3 -18    0.94    3.00
   0 -14   1    1.96    3.05
 -10   3  -5    6.70    3.21
 -10   0   3   26.11    3.94
   5 -12  -3   36.56    4.32
 -10  -1   3   38.28    4.32
   7   0 -11    8.96    3.15
  -7   0  11    5.76    3.11
   5   6 -11   18.98    3.78
  -5  -6  11   22.48    3.58
  -3   8 -12    9.17    3.52
  -8   8   3   10.44    2.78
   8  -8  -3   13.02    2.86
  -8   8   3   18.48    3.23
   8  10   0   37.79    4.03
   8  10   0   34.47    4.99
   0  13  11   11.66    3.27
  -6   5  12    1.11    2.54
  -5   2  14    8.50    3.01
  -1  10 -10   56.80    5.21
 -10   1  -8    5.14    3.61
  -4  -9 -16   38.53    4.26
   4   9  16   34.41    4.62
   0  10 -10    6.13    3.03
  -2  -4 -18   14.61    3.24
  -6   0 -16   11.82    3.75
   5  13   0    4.12    3.84
   5  13   0    1.85    2.81
   5  13   0    0.48    2.32
   5  13   0   -1.50    3.64
   0  -1  17    0.36    3.10
   0   1 -17    0.97    2.71
   0  -1  17    5.12    2.70
  -5  12   0    9.62    4.28
   5 -12   0   19.34    3.45
   6 -11  -3   28.96    3.91
  -3  -9  10   61.54    4.93
   5  12  -3   61.46    5.34
   5  12  -3   74.05    6.28
  -9  -7 -11   37.46    3.78
  -2 -14  -9   41.21    4.73
   2  14   9   43.52    4.62
  -3   3  16   24.04    3.42
  -5  -1 -17    3.42    3.46
   5   1  17    7.04    2.78
  -9   3   6   23.40    3.34
  -9   3   6   14.71    3.43
 -10   3   1   16.52    3.83
  10  -3  -1   29.61    3.23
  -7   9  -5    8.02    3.61
  -7   9  -5    9.19    3.64
  -7   9  -5    6.24    3.07
  -5 -12 -12   60.17    5.24
   5  12  12   58.70    5.75
  -5 -12 -12   59.22    5.11
   6  13   5   12.04    3.56
   6  13   5    6.72    2.71
   6  13   5    8.22    3.08
   6  13   5   16.37    3.61
   6  13   5    8.75    2.80
   7  12   7   32.33    3.59
   7  12   7   33.67    4.75
   7  12   7   30.91    4.14
   7  12   7   27.02    3.67
  -6  11  -1    7.46    3.57
  -6  11  -1    5.72    3.73
   6 -11   1   14.91    3.16
   1  -8 -16   17.70    3.26
   1  -8 -16   14.33    3.29
 -10  -6  -1    1.21    3.42
   5  -1 -14   16.15    2.96
   7   5  -9   44.52    5.02
  10  -2   7    3.33    2.62
 -10   2  -7    4.24    3.39
   0   5 -15   23.92    4.20
   0  -5  15   27.87    3.46
   3 -13   2   27.72    3.92
  -3  13  -2   20.41    4.80
   8   1  -9   23.66    3.97
   4  13  -2    2.01    3.79
   4  13  -2    4.55    3.00
   4  13  -2    2.13    2.36
  -8   4 -11    6.14    3.37
  -8   4 -11    4.76    3.59
  -4 -14  -7   13.89    3.35
   7  11  -1   15.11    4.41
  -1  14   7   17.14    3.43
   7  12   3   25.12    4.15
   7  12   3   27.56    3.19
   6  12  -1    5.08    2.96
   6  12  -1    1.29    2.50
   6  12  -1    8.68    4.39
   2  13  -4   34.87    3.92
   2 -14  -3   14.82    3.59
  -5   3  14   -2.09    2.76
   1  14   9    5.26    3.11
  -2  -2 -18   16.76    3.38
  -3   7  15    1.95    2.51
  -3   7  15    4.04    3.85
  -3  -3 -18   17.79    3.44
  -2  13   9   42.26    4.40
  -6   8  10   25.41    2.96
  -6   8  10   24.14    3.92
   6  -8 -10   20.96    3.36
   5   6  17   37.17    3.90
   6  13   6   30.02    3.83
   6  13   6   23.56    3.51
  -4   4  15    6.52    2.84
 -10  -5  -9    3.13    2.55
   1   6 -14   47.43    4.84
  -1  -6  14   51.48    4.64
   6  13   4    2.80    3.57
   6  13   4    8.15    3.48
   6  13   4   -3.42    2.46
   6  13   4   -1.16    2.84
   6  13   4    4.04    2.57
   9   9   2    4.86    4.02
  -3  -4 -18    1.46    2.95
   0  -7 -17   24.40    3.63
   0  -7 -17   31.57    3.89
  -3  13   7   -1.77    2.85
  -6   5 -13    3.77    3.06
  -2  -8 -17    1.88    3.09
   2   8  17    5.52    3.11
  -2  -8 -17    1.85    2.97
  -7   3  11   -0.95    2.76
   7  -3 -11    2.22    2.47
  -6   6 -12    1.26    2.89
  -1  -3 -18   35.48    4.00
 -10   1   3    9.01    3.30
   6 -10  -7    0.54    2.94
   1   0 -17    5.30    2.71
   8  11   5   -0.76    3.30
   8  11   5   -3.54    2.95
   2  11  -8   23.87    3.43
 -10  -2   3    6.73    3.04
  -4 -13 -11   10.67    3.34
   8  -6  -7   20.32    3.16
  -8   6   7   18.09    2.91
  -8   6   7   20.76    3.16
   2 -14  -2    5.72    3.31
  -9   5  -7   14.68    3.66
 -10   0  -9   68.48    6.25
  -5   6 -13    3.45    2.75
  -9  -8 -10    4.28    2.45
  -8 -10 -10   18.42    2.90
   8  10  10   12.56    3.33
   9   3  -6   25.38    4.53
  -8   3 -12    1.35    3.39
  -8   8  -4   17.38    3.77
  -8   8  -4   15.39    3.22
  -6  -7   9    0.86    2.97
   6   7  16    5.31    3.01
   2  14  -1   35.94    5.33
   2  14  -1   36.49    4.02
   5 -12  -4   25.31    3.85
   7 -10  -1    5.19    2.95
  -7  10   1    7.85    3.28
   8  11   6   12.52    3.76
   8  11   6    5.90    3.07
  -1  -4 -18   37.79    4.11
  -7  10   0   -1.22    3.23
   7 -10   0   -2.10    2.79
   3  14   0   18.81    3.59
   3  14   0   21.64    4.78
   8   6  14   30.99    3.78
  -8  -6 -14   31.25    3.75
  -8  -6 -14   26.93    4.79
   4  14   2    3.48    3.11
   4  14   2    4.48    2.62
   4  14   2    0.75    3.21
   4  12  13   56.23    5.91
  -4 -12 -13   61.43    5.56
  -2  -5 -18   32.31    3.97
 -10  -7  -5    3.32    3.80
  -9   0 -12   14.81    4.28
  -9   0 -12   12.76    3.98
  -6  -8   8    8.69    3.06
  -7  -9   5   10.26    3.15
   8  11   4    3.61    2.90
   8  11   4   -2.76    3.40
  -8   5 -10    4.62    3.59
  -8   5 -10    5.05    3.30
  -4   7  14    1.31    3.61
  -4   7  14    3.61    2.49
  -3   4  16   14.34    3.04
  -6   7  11   13.99    2.68
  -6   7  11   12.22    3.48
   6  -7 -11    6.92    2.90
   0  -9 -16   29.18    3.77
   0  -9 -16   20.19    3.64
   0   9  16   22.93    3.80
   4   3 -14   13.59    3.24
  -3  -8 -17   18.77    3.52
  -4 -10   8    1.43    2.53
  -4  11  10   18.63    2.93
   7   7  15    9.99    3.00
 -10  -7  -4   12.32    3.86
   4   0 -15    3.52    2.61
   5   3 -13    7.42    3.23
   8  -3  -9   12.53    3.18
  -8   3   9   11.30    3.03
  -9  -6 -12   23.21    3.38
  -3   5 -15   41.51    5.12
  -5   7 -12    0.81    2.66
  -3  -2 -18   44.08    4.51
   5 -12   1    4.16    3.13
  -5  12  -1   -0.69    4.03
  -1  -2 -18   14.20    3.26
  -3  -6  13    7.42    3.08
   3   6 -13    9.30    3.31
  -8   5   8   16.02    3.31
  -8   5   8   21.09    3.18
   7   1 -11    4.74    3.11
  -5   9  11   17.06    3.91
 -10  -4   2   -0.09    2.91
 -10  -5   1    2.44    3.13
  -3 -14  -9   41.89    4.64
   6  13   7   34.20    3.90
   6  13   7   27.83    3.86
   6  13   3    7.90    2.94
   6  13   3    5.43    3.50
   6  13   3    0.38    3.54
   6  13   3    0.28    2.47
 -10  -3 -10   18.82    3.05
  -4   3 -16   23.44    4.70
  -7  10   2    6.74    3.13
   7 -10  -2    2.00    3.02
   9   8  -1   25.29    3.69
   5   0 -14   20.02    3.30
   6 -11  -4   30.75    3.95
 -10  -7  -6   14.41    4.13
  -2  10 -10   24.76    3.99
  -5   8  12    0.80    2.39
  -5   8  12    0.52    3.46
  -9   6  -5    4.77    2.65
  -9   6  -5    8.41    3.33
   5  13  10   26.39    3.60
  -5 -13 -10   35.24    4.08
  -3  -5 -18    7.10    2.77
  -7  10  -1    2.40    3.49
  -7  10  -1    0.64    3.40
   7 -10   1    2.79    2.67
  -2 -13 -12   37.56    4.58
   1  10 -10    1.86    2.86
   2 -14  -1   49.78    5.03
  -4  12   8    4.40    2.74
  -3  12  10   27.73    3.52
   4 -13  -2   48.57    5.01
  -4  13   2   36.82    5.36
   1  -6 -17   34.67    4.00
   7  -9  -6   13.89    3.18
  -1  -3  16    4.39    2.92
  -2   2 -17   19.22    4.62
   6  -9  -9   25.12    3.60
  -6   9   9   21.16    3.88
   7  12   8    9.54    3.11
  -4   1 -17    3.19    4.36
  -3   9 -11    9.07    3.49
  -2  -4  15    2.82    2.90
   6  10  14   27.87    3.74
   0  12  -7   13.52    3.40
   0  12  -7   13.31    3.44
   2  -7 -16   20.58    3.41
   8  11   7   11.49    3.62
   8  11   7   -0.25    2.99
  -7 -11 -11   13.01    2.95
  -6  11  -2    1.54    3.78
   6 -11   2    8.28    2.98
  -6   4 -14   -0.19    3.13
 -10  -7  -3   27.29    4.27
  10   7   3   15.81    4.09
  -9   6   3   24.66    4.11
  -1  -8 -17   16.08    3.31
  -1  -8 -17    6.72    3.13
 -10   3  -6    4.25    3.27
  -8   7  -7   20.05    3.57
  -8   7  -7   29.97    4.12
  -5   4  14   14.08    3.12
  -6   7 -11    7.82    3.11
   4 -13  -3   52.65    5.19
  -4  13   3   46.00    5.62
   8   4  -8    4.20    3.76
  -9   3 -10   -1.94    3.58
   7  12   2   11.83    2.66
   7  12   2   12.00    3.75
   8  -7  -6    5.74    2.77
  -8   7   6    5.49    2.68
  -7   7   9   12.03    2.60
  -7   7   9   10.17    3.26
   7  -7  -9    9.83    2.98
   9   0  -7    1.22    3.48
  -9   0   7    1.40    3.07
  -5  11   8    3.99    2.48
   5 -11  -8    6.08    3.05
   8  11   3   14.74    3.87
   8  11   3   17.80    3.37
  -3 -10   9   29.06    3.32
  -4 -14  -8    5.37    3.19
  -2  -1 -18   25.25    3.67
  -6 -12 -11   14.15    3.08
   6  12  11   17.80    3.85
  -6 -12 -11   14.99    3.15
  -5 -10   7   42.35    4.10
   4 -13  -1   44.83    4.75
  -4  13   1   34.27    5.23
  -8   0 -14   25.35    4.30
   8  -8  -4   23.08    3.33
  -8   8   4   28.26    3.64
  -1  -5 -18   43.51    4.41
  -9   1   7   23.30    3.64
   9  -1  -7   22.32    4.06
 -10  -4 -10   20.19    3.18
   4   5 -13   76.70    6.21
  -4  -5  13   76.24    6.22
  -8  -8 -13   10.78    2.95
   5   5 -12   25.79    3.98
   6   9  15   43.57    4.56
  -3  10  13   10.61    2.40
   8   2  -9   20.70    4.04
  -8  -9 -12   13.10    2.92
 -10   3   2    3.83    3.46
  -1   4 -16    4.28    3.89
  -6  -9   7   21.91    3.44
   5  10  15   13.86    3.66
  -6   9  -8   15.39    3.47
  -2   4 -16   16.18    4.21
  -7   5 -12    7.53    3.23
  -9   2 -11   -0.48    3.69
   0  14   9   12.35    3.37
  -1  12  -7   41.70    4.49
  -1  12  -7   40.10    4.72
 -10   2   3   -0.93    3.21
  -3 -13 -12    0.98    3.37
  -2  -8  12   18.46    3.07
  -2 -11 -15   45.98    4.82
   2  11  15   37.99    5.28
  -8   2 -13    3.27    3.56
   9   9   1   13.41    4.36
 -10  -6   0   14.02    3.63
  -9   4  -9   18.04    3.97
  -4   5  15    0.57    2.71
 -10   4   0   22.72    4.06
  -7  -3 -16    8.29    4.14
  -9  -3 -13   28.91    3.73
   5 -12  -5   25.90    3.90
   9   1  -7   12.28    4.02
   7   4  16    4.71    2.51
  -7  -4 -16    9.53    4.09
   4 -13  -4   44.79    4.90
   7 -10  -3   11.90    3.11
   1  12  -7   -0.79    2.83
   1  12  -7    0.18    3.00
  -7   4  11   -0.84    2.67
   1  14  -2   30.15    3.86
 -10  -1 -10   39.35    5.10
   0  13  -5   10.41    3.60
   0  13  -5    7.33    3.17
   6  -1 -13   -0.08    2.73
   7  -8  -8    3.98    2.84
  -7   8   8    1.96    3.13
  -1  -1 -18    3.32    2.85
  -7  10  -2    2.48    3.48
  -7  10  -2    1.42    2.86
  -7  10  -2    0.52    3.60
  -3   9  14   27.39    3.22
  -5 -11 -14   -3.11    3.15
   5  11  14   -4.94    3.73
   0  14  -2    8.52    3.30
   2  -3 -17   -1.82    2.68
   4   4  18   38.42    3.59
  -7   4 -13    4.73    3.33
   6  13   8   18.59    3.46
  -6 -13  -8   17.24    3.29
  -3   5  16    8.24    2.84
  -7   6  10   30.43    3.70
  -7   6  10   44.46    4.33
   3   3 -15   15.45    3.34
  -1  14   8   27.47    3.89
   4  14   1    6.43    2.58
   4  14   1   -2.28    3.20
   4  14   1    5.10    3.45
   4  14   1    5.86    4.33
  -5  10  10   63.44    5.99
  -5   8 -11    0.68    2.82
  -3  -1 -18   30.83    4.02
  -8   6  -9    7.21    3.40
   9  -5  -5    4.38    2.60
  -9   5   5    6.97    3.25
  -9  -4 -13    8.08    2.97
 -10   4  -4    2.33    3.13
   6  13   2    3.77    3.75
   6  13   2    0.61    2.52
   6  13   2    4.74    3.57
   6  13   2    9.01    3.01
  -2  -6 -18   51.98    4.66
  -2  -6 -18   38.57    4.26
   6  11  13    2.94    3.23
  -3   2 -17    1.76    4.33
   3  11  15   32.57    5.02
  -3 -11 -15   44.25    4.77
  -7   8  -8   22.64    3.77
  -7   8  -8   23.47    3.79
   7   4 -10   16.35    3.86
  -4  13   0   12.80    4.59
   4 -13   0   21.05    3.80
  -2 -10 -16   22.02    3.85
   2  10  16   21.84    4.62
  -7   1 -15   17.79    3.88
  -2  -9  11   38.88    3.77
  -2  -7  13   27.42    3.58
 -10  -7  -2   28.05    4.21
   5  13  -1   12.44    4.12
   5  13  -1    5.57    3.06
   4  12  -5    2.87    3.96
   4  12  -5    0.08    2.99
   6   3 -12   37.90    4.57
  -7   6 -11    8.22    3.27
  -5  12  -2    4.73    4.21
   5 -12   2    5.24    2.98
  -9   4   6    8.07    2.85
  -9   4   6    9.14    3.27
  -2  14   6    2.06    2.98
 -10  -6  -9   16.55    2.82
  -4  -8 -17   14.78    3.40
   9  -2  -7   33.19    4.34
  -9   2   7   33.04    3.97
  -9  -9  -9    4.81    2.43
   0  -3 -18   19.89    3.35
   8  11   8    6.92    3.79
   8  11   8   12.16    3.66
  -1  -5  15   39.39    4.13
   5   7  17    3.28    2.87
   1  13  -5    0.77    2.86
   1  13  -5    1.36    3.22
  -6   1 -16   29.28    4.26
 -10   2  -8   -1.09    3.55
  -8   8  -5   11.84    3.76
  -8   8  -5   11.88    3.18
   6   4  17   23.16    3.08
   0  11  -9    9.95    3.31
  -6   3  13   26.40    3.67
  -6  -3 -17    1.56    3.70
   6   3  17   -0.38    2.13
  -3  -6 -18   17.47    3.32
 -10   1  -9    5.00    3.67
  -7  -2 -16   11.64    4.21
  -6   6  12    2.29    2.56
   3  10  16    4.13    4.05
  -3 -10 -16    9.46    3.46
   4   1 -15   -0.81    2.72
   2  -4 -17    5.46    2.75
   8  11   2   55.89    5.65
  -5   7  13    2.44    2.54
  -5   7  13    0.53    3.50
  -3  11  12    2.13    2.45
   6 -11  -5   13.71    3.28
   0  -4 -18   16.04    3.24
  -7  -5 -16   26.94    4.71
   7   5  16   22.57    3.31
  -1 -11 -15    4.18    3.39
 -10   0   4   21.22    3.70
  -9   7  -1    5.00    3.13
  -9   7  -1    4.66    2.62
   1   1 -17    1.83    2.65
  -3  13   8    4.59    2.97
   5   1 -14   15.43    3.23
  -1  11  -9   55.27    5.26
   8  -4  -9   18.17    3.28
  -8   4   9   19.48    3.28
  -7   9  -6   26.53    4.43
  -7 -10 -13   49.74    4.58
   7   2 -11   15.89    3.70
  -1  13  11    3.19    3.04
  -2 -12 -14    3.64    3.34
   2  12  14   -1.71    4.56
   0  -2 -18   10.41    3.08
   4   5  18   11.89    2.76
 -10  -5 -10   16.22    3.02
   6   0 -13    5.20    3.10
  -9   7   0    0.09    2.98
  -1  13  -5   23.10    4.14
   8   7  14   11.54    3.17
   3  14  -1   20.12    3.32
   3  14  -1   21.27    3.69
   0   2 -17    5.43    2.75
   0   4 -16   24.03    4.42
   0  -4  16   25.66    3.56
   6 -11   3    5.36    2.81
  -6  11  -3    8.04    4.00
 -10   4   1   19.35    4.11
   3  13  -4   37.70    4.02
   3  13  -4   32.99    3.76
   3  13  -4   35.66    4.08
  -9   7  -2    4.75    3.21
  -9   7  -2    6.77    2.77
   7  12   1   10.59    4.06
   5  14   5   27.89    3.44
   5  14   5   31.00    4.83
   3   5 -14   38.37    4.42
  -3  -5  14   34.28    4.16
  -3   4 -16    8.20    4.17
  -6   3 -15    9.68    3.43
   6  12  -2    9.22    3.08
   6  12  -2    8.60    4.56
  -1  -6 -18   24.41    3.76
  -5   5  14   24.69    3.46
  -9  -5 -13   -0.18    2.80
  -9   6  -6    4.27    2.74
  -9   6  -6    7.04    3.35
  -8 -10 -11   21.69    3.22
  -6   8 -10    9.74    3.15
   9   2  -7   20.27    4.41
  -1 -10 -16   35.55    4.36
   2  14  -2   18.46    3.39
   6   5  17   71.06    5.46
  -9  -8 -11    9.66    2.74
  -4   9  13    1.89    2.39
  -4 -14  -9    0.61    3.07
  -6  -2 -17    0.12    3.80
 -10   1   4   20.05    3.61
  -3 -12 -14   66.35    5.81
   3  12  14   39.74    5.41
   5  14   4   52.71    4.40
   5  14   4   45.20    4.81
   5  14   4   49.58    5.71
  -5 -14  -6   26.69    3.77
   5  14   6   16.81    3.15
  -8  -3 -15   37.89    5.31
  -9  -7 -12   21.01    3.16
  -4 -11   7   -0.22    2.51
  -9   5  -8   23.46    4.05
   7 -10  -4    8.83    3.05
 -10   3  -7   -1.05    3.35
  -7   3 -14    1.96    3.43
  -8  -4 -15   12.74    4.51
   4  13  -3    3.17    4.01
   4  13  -3    9.15    3.24
  -2   0 -18   30.99    3.90
  -1   8 -13   15.70    3.70
  -2  13  10   32.61    3.94
  -9   6   4   14.02    3.58
   9  -6  -4    9.22    2.70
 -10   4  -5    7.00    3.34
  -9   7   1    1.00    2.97
   6   8  16   32.35    4.04
  -7  10  -3   19.23    4.16
   4 -13   1   16.44    3.59
   0  -8 -17   26.28    3.93
   6 -10  -8   -1.88    3.09
 -10   0 -10   16.60    4.24
   0  13  12   40.77    4.45
  -1   7 -14    0.96    3.39
   1  -7  14    6.24    2.53
   1  11  -9    0.18    3.03
   0  -5 -18    4.26    3.03
  -2  -6  14   15.65    3.33
   5  12  -4   34.20    3.95
  -6 -10   6   21.90    3.37
  -8   9   0    0.59    3.21
   1  -7 -17   38.84    4.31
  -4 -13 -12   20.23    3.91
   8  -8  -5    9.65    2.98
  -8   8   5    9.83    3.11
   9  10   5    9.65    3.48
  -6 -13  -9   21.19    3.44
   5 -12  -6    8.59    3.22
 -10  -7  -1   47.97    4.98
  -2  12  12    0.77    2.80
  -5 -13 -11   29.98    3.95
   5  12  13   19.23    4.17
  -5 -12 -13   31.22    4.08
  -7   7 -10    4.89    3.32
  -9   7  -3   11.15    3.41
  -9   7  -3   16.79    3.08
  -6   4  13   28.05    3.77
 -10   3   3    6.93    3.50
   6  13   1   25.51    3.19
   6  13   1   21.60    4.49
   6  13   1   25.32    3.61
   6  13   1   19.03    4.03
   2  -5 -17   20.51    3.42
  -3   8  15    9.94    2.74
   0  -1 -18    1.82    2.89
  -9   3   7   12.79    3.19
  -8  -2 -15   19.67    4.50
  -1   0 -18    5.89    3.10
  -4 -11 -15   23.19    3.86
   4  11  15   17.78    4.28
  -7  -1 -16   19.90    4.27
   9  10   6   19.31    3.77
  -8   9  -1    7.26    3.41
  -8   9   1    6.09    3.26
   5  14   3   26.58    4.85
   5  14   3   32.53    4.33
   5  14   3   40.03    3.84
   5  14   3   38.91    4.43
   0   8 -13   -0.10    3.36
   0  -8  13   -0.07    2.42
  -5 -14  -7   17.21    3.43
  -2  14   7   12.30    3.37
  -8 -11  -9   25.50    3.24
   2  12  -7    9.78    3.17
   9  10   4   18.87    4.03
  -8   1 -14   10.27    3.77
  -7   9   7   18.76    3.77
   7  -9  -7   14.36    3.20
  -2  -9 -17    6.78    3.33
   7   6  16   82.71    6.25
   4  14   0   22.11    4.07
   4  14   0    9.80    4.54
   4  14   0   11.22    3.26
   2  13  -5   40.57    4.25
   2  13  -5   43.18    4.50
  -2   7 -14   28.23    4.49
  -1   9 -12   18.94    3.78
  -2   8 -13   14.76    3.93
   8   5  15    5.48    2.78
 -10  -6   1    7.00    3.42
  -4   6  15   13.96    3.03
  -5 -11   6   23.54    3.30
  -4 -10 -16    8.08    3.32
   4  10  16   -8.81    3.99
  -4  12   9    7.80    2.91
 -10  -3 -11   24.27    3.51
  -5  12  -3    1.71    4.26
   5 -12   3   -0.35    2.92
  -3   6  16    5.06    2.86
  -7   5  11   16.17    3.09
 -11  -1  -2   15.91    4.17
   6   1 -13   23.72    3.78
   8  -6  -8    6.76    2.79
  -8   6   8    5.62    2.69
   8  11   1   50.15    5.73
 -11  -2  -2   -0.97    3.70
   0   7 -14    1.74    3.48
   0  -7  14    2.56    2.58
  -3  -9 -17    7.06    3.34
 -11  -3  -3    1.57    3.70
  -5   9 -10   11.41    3.10
  -7 -11 -12   21.26    3.31
   5   4 -13    6.49    3.43
  -2  -7 -18   26.86    3.72
   0   9 -12   13.24    3.47
   8  -1 -10   -1.15    3.07
 -10   2   4    3.85    3.27
  -4   8  14    1.60    2.51
  -9  -9 -10   12.04    2.75
  -8   7  -8   14.96    3.39
   9  10   7   28.20    4.14
 -10   4   2   42.53    4.99
  -1  14   9   15.92    3.63
   6   6  17   37.45    3.98
 -10  -8  -5    0.38    3.68
  10   8   5   -3.38    3.89
  -6 -12 -12    0.17    2.84
   6  12  12   -2.56    3.49
  -8   9  -2   16.15    3.43
  -8   9  -2   24.95    3.90
  -6  -1 -17    4.48    4.03
  -8   9   2    6.28    3.21
   8  -7  -7    6.61    2.85
 -10  -4 -11   22.50    3.44
  -4  -8  11    2.68    2.86
  -3  -7 -18   24.96    3.71
   6 -11  -6   23.05    3.67
 -10  -6 -10   15.31    2.92
  -1   6 -15   11.48    3.92
   1  -6  15   13.96    2.92
  -9  -6 -13   37.82    4.05
   8   0 -10    3.99    3.25
 -10  -8  -4    7.97    3.65
   9  10   3    7.22    4.10
  -5  -8  10   30.73    3.82
   8  -2 -10    9.39    3.25
  -8   4 -12    9.21    3.56
  -8   8  -6    6.14    3.07
   1  14  -3    9.40    3.20
   4  12  14   31.30    4.79
  -4 -12 -14   40.17    4.66
  -6   8  11   25.95    4.14
  -3  12  11   15.13    3.11
 -11  -3  -2    3.06    3.64
  -2   6 -15   12.96    4.05
  -2   9 -12   16.80    3.86
   5   2 -14    7.51    3.21
  -9   7  -4   14.49    3.59
  -9   7  -4   12.21    3.05
  -2   3 -17    1.05    4.25
  -6  11  -4    4.36    4.07
  -1  -9 -17   27.83    3.96
  -4  -9  10    0.92    2.72
   5  14   2   37.04    3.94
   5  14   2   38.17    5.17
   5  14   2   45.82    4.55
   5  14   2   48.28    4.79
 -10   4  -6    9.56    3.48
  -5 -14  -8    7.19    3.19
   4   2 -15    7.93    3.11
   7  12   0   13.28    4.51
 -11  -1  -1    6.39    3.86
  -8  -1 -15   14.86    4.22
   4 -13   2    6.25    3.23
   7 -10  -5   20.80    3.51
  -4  -7  12    4.19    3.08
   5  13  -2    4.45    3.14
   5  13  -2   11.73    4.38
  -1   3 -17   13.01    4.44
   0  -6 -18    1.80    3.05
   7   3 -11    9.70    3.72
 -11  -2  -1    3.80    3.62
  -8   5   9   19.83    3.28
  -7  10  -4   22.35    4.36
  -9   5   6   -0.55    2.69
  -9   5   6    6.41    3.25
   9  -5  -6   -0.30    2.56
  -5  -9   9   29.27    3.73
  -6   9  10   10.12    3.65
 -10   2  -9    0.12    3.60
   3  15   5    6.75    4.84
  -1  -7 -18    4.92    3.00
 -10  -8  -3    5.02    3.59
   7  -1 -12   28.26    3.75
   3  15   4    4.97    4.85
 -10  -1 -11   13.00    4.26
  -4 -14 -10   -0.21    3.25
  -3  13   9   19.94    3.46
   7  -2 -12   26.45    3.62
  -7   2 -15    8.47    3.57
 -10   5  -3    7.50    3.27
  -5   6  14   24.47    3.43
   8   6  15   24.59    3.60
   1  -3 -18   12.82    3.12
  -8   3 -13    4.58    3.63
  -3 -13 -13    1.69    3.51
   3  13  13    9.99    4.76
   0   0 -18    5.52    2.96
   9  10   8   28.87    4.20
   3  14  -2   27.20    3.81
   3  14  -2   22.08    3.44
 -11  -4  -3   17.50    4.07
 -10  -7   0   44.68    4.77
   0   6 -15    7.69    3.75
   0  -6  15    7.60    2.84
  -9   6  -7    5.39    2.94
   8   1 -10    8.29    3.53
   5   5  18   59.56    4.92
   3  15   6    5.93    4.69
   2  -6 -17   19.93    3.39
  -1  10 -11   41.29    4.62
 -10  -5 -11    7.77    2.90
  -1  -8  13    3.37    2.61
 -10   1 -10    4.60    3.86
  -8   9  -3   13.64    3.35
  -6   5  13   19.44    3.36
   8  -9  -3    7.78    2.98
  -8   9   3    7.59    3.18
  -6 -13 -10   15.42    3.21
 -10   3  -8    3.77    3.52
   0  10 -11   18.81    3.69
  -7   7  10   12.10    3.34
  -7   7  10   13.82    2.85
   6  13   0   25.78    4.39
   6  13   0   30.12    3.88
   6  13   0   28.64    4.85
  -7   0 -16   11.75    3.96
  -6   9  -9    7.42    3.15
   1  -2 -18   20.71    3.36
   1  -4 -18    5.91    3.02
   8  -3 -10   13.26    3.32
  -8   3  10   14.49    3.29
  -7   8   9   -2.43    3.20
   9  -6  -5   12.44    2.92
  -9   6   5    9.55    3.52
   7   0 -12    8.56    3.23
  -8 -11 -10   35.01    3.78
  -3  -8  12   18.32    3.21
  -6   7  12    8.60    2.68
  -6   7  12    8.09    3.57
  -9   4   7    3.56    2.84
  -9   4   7    2.59    3.08
   9   0  -8    1.55    3.62
   9  -1  -8    8.78    3.69
  -6   6 -13    9.03    3.19
   0  13  -6   19.61    3.96
   0  12  -8   10.73    3.48
 -11  -3  -1   11.57    3.74
  -8 -10 -12    1.22    2.69
   2  14  -3   22.29    3.53
  -3  -9  11   30.28    3.58
  -1  -7  14   16.46    3.18
   8  -8  -6    8.89    3.08
  -4 -10   9    3.84    2.77
  -9  -8 -12    6.74    2.81
   6   2 -13   30.63    4.26
  -1   1 -18   16.95    3.32
 -10   3   4   -0.11    3.35
  -6   5 -14    4.48    3.30
 -10   5  -4   17.41    3.66
 -11  -4  -2   33.92    4.56
 -11  -1   0    1.08    3.56
   4  14  -1   34.31    4.72
   4  14  -1   24.62    3.85
 -10   4   3   20.22    4.04
  -5   8  13   -0.73    2.59
   6   7  17   20.13    3.51
   1  13  -6    3.63    3.05
   1  13  -6    5.80    3.36
  -3  -7  13    0.09    2.97
  -1  13  12   -0.94    3.02
  -6   7 -12   16.77    3.41
   7  13   5   33.10    3.72
   7  13   5   31.84    4.60
   5  14   1    9.92    3.88
   5  14   1    6.44    4.28
   5  14   1    9.03    3.27
  -1   5 -16    5.12    3.99
   1  -5  16    3.81    2.73
  -5 -14  -9    2.89    3.22
  -9   7  -5   27.63    3.78
  -9   7  -5   35.74    4.40
 -11  -2   0   16.09    3.82
  -5 -10   8   18.36    3.29
   9  -2  -8   15.07    3.84
   5  11  15    5.82    3.76
  -2   5 -16   41.91    5.17
  -5 -13 -12   59.36    5.39
 -11   0   0   10.12    4.04
   1  -8 -17   37.79    4.33
   1  -5 -18    4.14    3.01
   1  12  -8    3.40    3.23
  -2  13  11   22.08    3.59
  -3   7  16    4.93    2.77
   3  13  -5   33.31    3.90
   5   6  18   40.65    4.15
   4  13  -4    2.08    3.21
   5  10  16   26.12    4.38
  -6  10   9    5.18    3.78
 -10   0 -11   22.17    4.72
   7  13   4    4.29    2.52
   7  13   4    5.91    3.85
  -9  -9 -11   21.04    3.21
  -8   0 -15   23.31    4.48
  -4   7  15   19.26    3.20
   8  12   5    8.97    3.94
  -7   5 -13    7.13    3.49
   9  10   9    9.76    3.69
  -7   6  11   29.14    3.57
   8  12   6    4.63    3.75
 -10   4  -7   16.29    3.81
  -8   2 -14    2.52    3.70
  -6  12   1    4.75    4.07
   6 -12  -1    1.06    3.14
   7   1 -12   -1.88    3.32
  -2  -8 -18    7.13    3.26
   1  10 -11    3.25    3.20
   6 -12  -2    3.98    3.41
  -7   9   8    0.61    3.34
  -7   6 -12   10.13    3.49
   8  -9  -4   39.39    4.19
  -8   9   4   42.52    4.43
  -4 -13 -13   22.96    4.17
   4  13  13   36.82    5.41
   7 -10  -6    9.96    3.17
  -5  10  -9    7.63    3.14
  -3  -8 -18   19.83    3.71
 -10  -6 -11   33.89    3.78
   8  12   4   38.44    4.82
  -6  11  -5    9.48    4.37
  -7  10  -5   15.18    4.29
  -6  12   0   -0.48    4.20
   6 -12   0    4.19    3.09
 -11  -4  -1   27.18    4.28
  -3 -11 -16   34.62    4.50
  -8   4  10   21.96    3.45
 -11  -3   0   36.36    4.56
 -10   5  -5   13.98    3.64
 -10  -3 -12   43.34    4.43
  -1  -6  15   34.29    4.02
   0   5 -16   15.81    4.33
   0  -5  16   15.70    3.22
  -7   4 -14    5.87    3.61
   6 -12  -3   11.87    3.57
   7  13   3    4.15    3.90
   7  13   3    8.38    2.75
  -5 -12 -14   12.01    3.63
   5  12  14   12.48    4.08
   5 -13  -2   11.82    3.49
   5   3 -14    7.19    3.39
   4  15   5   14.73    5.02
   0   1 -18   17.62    3.39
  -3   9  15   11.98    2.83
  -3 -12 -15   38.77    4.62
 -10  -4 -12   35.27    4.12
   7 -11  -1   -0.74    3.19
   5 -13  -1    6.38    3.39
  -6   8 -11   13.66    3.43
   9  -3  -8   13.71    3.72
  -7  -4 -17    4.70    4.14
   7   4  17   -1.17    2.57
   0  11 -10   30.79    4.08
  -7  -3 -17   11.50    4.30
   4  15   4    3.09    4.71
 -11  -1   1    0.94    3.54
   4   3 -15   13.77    3.48
   2  -7 -17   21.83    3.59
   6  14   5    3.80    2.69
   1  14  -4    7.28    3.22
   1  14  -4    6.66    3.60
  -6 -13 -11   18.08    3.40
   8  -7  -8    0.79    2.86
   8  12   3   54.34    5.59
   2  13  -6   32.21    4.04
   2  13  -6   25.30    3.76
  -6   6  13    8.29    2.96
   6  13  -1   19.19    3.70
   7 -11  -2    3.03    3.26
   6 -12   1    3.52    3.05
  -8 -11 -11   31.22    3.73
 -11  -5  -2   26.67    4.52
   5  13  -3   -3.03    3.21
  -7   7 -11    3.70    3.35
  -9   8  -1    8.16    3.38
  -9   8  -1    2.65    2.85
  -8   6   9   14.45    3.00
  -9   8   0    0.94    3.10
 -11   0   1    2.17    3.65
  -7   1 -16   14.75    4.03
  -6 -10   7   43.30    4.41
  -3 -10 -17   -1.14    3.40
 -11  -2   1   14.28    3.73
   6  14   4    2.03    2.57
   1  -6 -18    8.44    3.22
  -5  12   8    4.25    2.77
  -5   7  14   13.30    3.05
  -3  13  10   18.30    3.43
   5  14   0    2.53    4.45
   5  14   0    8.41    3.24
   7   5  17    0.63    2.72
   5 -13   0    4.37    3.27
  -2  -8  13   21.20    3.37
   3  14  -3   33.40    4.02
   3  14  -3   22.10    3.62
   6 -12  -4   12.62    3.60
  -7  11  -1   26.01    4.72
  -2  -9  12   12.22    2.88
  -9   7  -6   20.27    3.51
  -9   5   7    1.72    2.76
  -9   5   7    4.26    3.18
   9  -5  -7    0.80    2.70
   4  15   3    2.60    2.85
  -9   8  -2   10.71    3.14
  -9   8  -2   11.02    3.47
  -9   6   6    3.95    3.41
   9  -6  -6    0.88    2.71
   5   7  18    9.07    3.07
 -10   4   4   18.72    4.07
  -7  -2 -17   11.69    4.45
  -4  13   8    2.90    3.03
  -1  -2 -19    6.41    3.22
 -10  -5 -12   -2.17    2.94
  -5 -11   7   11.15    3.00
   7  13   2    1.07    2.73
   7  13   2   -6.57    4.33
  -9 -10 -10   10.58    2.81
   4  11  16    7.93    4.23
  -4 -11 -16    4.15    3.28
   7 -11  -3    1.63    3.17
   4  14  -2   30.78    4.11
 -11  -4   0   41.36    4.81
   1  11 -10    6.07    3.26
 -10   3   5    4.03    3.41
  -7   3 -15   10.22    3.79
   8  -9  -5   20.44    3.52
   8  -8  -7    2.74    2.94
   6  14   3   36.09    4.62
   6  14   3   37.30    3.86
 -10   5  -6   28.53    4.30
  -2  -7  14   29.68    3.93
  -1   4 -17    3.59    4.20
   9  11   5   21.57    4.10
   4  12  15   30.98    5.15
  -4 -12 -15   40.75    4.90
 -11  -3   1   22.19    3.89
   9  11   6   18.79    4.22
  -2  -6 -19   40.32    4.26
   2  14  -4    4.05    2.99
   2  14  -4    0.88    3.41
   6   0 -14    8.36    3.37
 -11  -5  -1   26.72    4.47
  -9   8  -3   16.50    3.33
   5 -13   1    8.86    3.37
   6   5  18   31.20    3.62
  -7  11  -2   17.15    4.58
 -10  -7 -11   16.66    3.07
  -8   5  10   29.21    3.70
   5   1 -15   12.49    3.34
  -9   4   8   12.13    3.26
   9  -4  -8   10.25    3.45
   8  -1 -11   17.89    3.70
   9  11   7   42.20    5.02
  -7   8  10    4.51    3.37
   3  15   0   46.27    4.56
   4   1 -16    2.67    3.02
  -7  10  -6   26.22    4.88
  -1   8 -14    7.69    3.89
   5  13  13   46.44    5.51
  -5 -13 -13   48.58    5.00
  -7  -1 -17   14.19    4.41
   2  15  -1    6.84    3.13
   7 -11  -4    4.02    3.17
 -11  -1   2    5.65    3.64
   0  -3 -19   12.05    3.21
  -6   9 -10   14.22    3.48
   8   0 -11   29.06    4.24
   0  -4 -19   18.30    3.61
 -11   0   2    1.18    3.66
  -4   8  15   20.43    3.26
   6  14   2   26.61    4.33
   6  14   2   19.54    3.21
 -10  -6 -12   19.28    3.38
  -1   9 -13   18.87    4.07
  -7   7  11   29.66    4.21
  -3  -9 -18    4.27    3.56
  -1   7 -15   13.19    4.23
  -2  13  12   12.90    3.34
   0  -2 -19    3.22    2.95
   6   6  18   43.59    4.26
  -6 -11   6   34.03    4.02
   4  13  -5   15.57    3.72
  -7   9   9    2.14    3.37
   0   9 -13    7.55    3.60
   1  13  -7   11.61    3.58
   5  14  -1   -1.61    4.43
   5  14  -1    0.09    3.32
 -10   6  -4   25.76    4.14
   6   1 -14   25.05    3.97
   5 -13   2   14.27    3.51
  -7  11  -3   41.53    5.36
   9  -2  -9   12.68    3.73
  -9 -10 -11    0.75    2.65
  -6   7  13    2.63    2.74
   0  -7  15   -2.18    2.79
 -10   4   5    3.96    3.61
  -4  13   9    5.06    3.11
   5  15   5   28.80    5.24
   5  11  16    2.70    3.93
   8  -9  -6   23.85    3.79
   5  15   4   44.10    6.17
   5  15   4   64.11    5.06
   0  10 -12   28.83    4.21
  -1   6 -16    6.51    4.04
   1  -6  16    7.43    2.83
  -3  13  11   13.05    3.40
  -8  10   3    9.46    3.45
  -9   6   7    5.41    3.37
   9  -6  -7    8.83    3.10
  -5   8  14    0.78    2.77
   5  12  15   -0.61    4.05
   7   0 -13    5.36    3.43
 -11  -6  -1    8.53    3.94
  -9   5   8   -1.70    2.91
  -3  -9  12   44.42    4.43
   4   2 -16   10.55    3.47
  -7   5 -14    3.30    3.53
  -7  11  -4   26.24    4.90
   5 -13   3   16.72    3.58
  -7  10  -7   13.82    4.56
   2  14  -5    9.59    3.67
   5  13  14   24.06    4.79
   0   0   0    0.00    0.00

_computing_structure_solution     'SHELXT 2014/5 (Sheldrick, 2014)'
;
_shelx_hkl_checksum              99654
_olex2_submission_special_instructions 'No special instructions were received'
loop_
_space_group_symop_operation_xyz
'x, y, z'
'-x, -y, -z'
loop_
_atom_site_label
_atom_site_type_symbol
_atom_site_fract_x
_atom_site_fract_y
_atom_site_fract_z
_atom_site_U_iso_or_equiv
_atom_site_adp_type
_atom_site_occupancy
_atom_site_site_symmetry_order
_atom_site_calc_flag
_atom_site_refinement_flags_posn
_atom_site_refinement_flags_adp
_atom_site_refinement_flags_occupancy
_atom_site_disorder_assembly
_atom_site_disorder_group
Zn1 Zn 0.87897(4) 0.58775(3) 0.45616(2) 0.01658(14) Uani 1 1 d . . . . .
O1 O 0.7975(3) 0.4270(2) 0.46503(18) 0.0308(6) Uani 1 1 d . . . . .
O2 O 0.9812(3) 0.2922(2) 0.5252(2) 0.0347(6) Uani 1 1 d . . . . .
O3 O 0.7473(4) 0.5892(3) 0.58937(19) 0.0408(7) Uani 1 1 d . . . . .
O4 O 0.9299(3) 0.4548(3) 0.6480(2) 0.0443(7) Uani 1 1 d . . . . .
N1 N 0.741(4) 0.682(3) 0.357(2) 0.031(2) Uani 0.236(8) 1 d D U P A 1
C1 C 0.8043(5) 0.5190(4) 0.6575(3) 0.0346(8) Uani 1 1 d . . . . .
C8 C 0.8518(4) 0.3228(3) 0.4942(3) 0.0280(7) Uani 1 1 d . . . . .
C2 C 0.7122(4) 0.5134(4) 0.7593(3) 0.0333(8) Uani 1 1 d . . . . .
C5 C 0.5447(4) 0.5023(3) 0.9494(2) 0.0313(7) Uani 1 1 d . . . . .
C14 C 0.5061(4) 0.1639(3) 0.4667(3) 0.0327(8) Uani 1 1 d . U . . .
H14 H 0.4051 0.1846 0.4466 0.039 Uiso 1 1 calc R . . . .
C15 C 0.6033(4) 0.2523(3) 0.4641(3) 0.0332(8) Uani 1 1 d . U . . .
H15 H 0.5682 0.3323 0.4416 0.040 Uiso 1 1 calc R . . . .
C9 C 0.7490(5) 0.2265(3) 0.4935(3) 0.0379(9) Uani 1 1 d . U . . .
C4 C 0.4986(5) 0.5852(4) 0.8718(3) 0.0443(10) Uani 1 1 d . . . . .
H4 H 0.4092 0.6398 0.8835 0.053 Uiso 1 1 calc DR . . . .
C3 C 0.5798(5) 0.5903(4) 0.7776(3) 0.0436(10) Uani 1 1 d . . . . .
H3 H 0.5444 0.6467 0.7255 0.052 Uiso 1 1 calc R . . . .
C6 C 0.6767(5) 0.4254(4) 0.9291(3) 0.0438(10) Uani 1 1 d . . . . .
H6 H 0.7116 0.3676 0.9805 0.053 Uiso 1 1 calc R . . . .
C13 C 0.5527(5) 0.0474(3) 0.4977(4) 0.0526(12) Uani 1 1 d . U . . .
C7 C 0.7588(5) 0.4313(4) 0.8354(3) 0.0455(10) Uani 1 1 d . . . . .
H7 H 0.8489 0.3774 0.8235 0.055 Uiso 1 1 calc R . . . .
C16 C 0.605(4) 0.644(2) 0.345(2) 0.032(2) Uani 0.236(8) 1 d D U P A 1
H16 H 0.5597 0.5788 0.3918 0.038 Uiso 0.236(8) 1 calc R . P A 1
C10 C 0.7996(8) 0.1103(5) 0.5210(7) 0.106(2) Uani 1 1 d . U . . .
H10 H 0.9026 0.0898 0.5384 0.127 Uiso 1 1 calc R . . . .
C17 C 0.529(3) 0.6958(16) 0.2677(13) 0.032(2) Uani 0.236(8) 1 d D U P A 1
H17 H 0.4338 0.6667 0.2607 0.038 Uiso 0.236(8) 1 calc R . P A 1
C20 C 0.806(2) 0.7725(19) 0.2912(14) 0.032(2) Uani 0.236(8) 1 d D U P A 1
H20 H 0.9046 0.7980 0.2978 0.038 Uiso 0.236(8) 1 calc R . P A 1
C22 C 0.6112(14) 0.6882(10) 0.2257(7) 0.053(3) Uani 0.401(7) 1 d D U P A 2
H22 H 0.5181 0.6640 0.2107 0.063 Uiso 0.401(7) 1 calc R . P A 2
C23 C 0.7044(13) 0.7679(9) 0.1589(7) 0.057(3) Uani 0.401(7) 1 d D U P A 2
C19 C 0.7313(19) 0.8302(14) 0.2122(11) 0.032(2) Uani 0.236(8) 1 d D U P A 1
H19 H 0.7763 0.8962 0.1674 0.038 Uiso 0.236(8) 1 calc R . P A 1
C24 C 0.8372(14) 0.7997(10) 0.1825(8) 0.060(3) Uani 0.401(7) 1 d D U P A 2
H24 H 0.9044 0.8538 0.1372 0.072 Uiso 0.401(7) 1 calc R . P A 2
C21 C 0.6555(15) 0.6441(13) 0.3147(8) 0.045(3) Uani 0.401(7) 1 d D U P A 2
H21 H 0.5943 0.5853 0.3589 0.054 Uiso 0.401(7) 1 calc R . P A 2
N2 N 0.7793(12) 0.6788(12) 0.3429(8) 0.019(2) Uani 0.401(7) 1 d D U P A 2
C18 C 0.5940(19) 0.7905(13) 0.2006(10) 0.032(2) Uani 0.236(8) 1 d D U P A 1
C25 C 0.8729(17) 0.7513(11) 0.2740(8) 0.053(3) Uani 0.401(7) 1 d D U P A 2
H25 H 0.9691 0.7706 0.2889 0.063 Uiso 0.401(7) 1 calc R . P A 2
C28 C 0.5354(15) 0.8192(11) 0.2400(10) 0.040(3) Uani 0.300(8) 1 d D U P A 3
C27 C 0.6670(18) 0.8642(13) 0.2567(12) 0.067(6) Uani 0.300(8) 1 d D U P A 3
H27 H 0.6957 0.9411 0.2237 0.080 Uiso 0.300(8) 1 calc R . P A 3
C26 C 0.758(2) 0.7950(15) 0.3230(14) 0.056(5) Uani 0.300(8) 1 d D U P A 3
H26 H 0.8441 0.8302 0.3360 0.068 Uiso 0.300(8) 1 calc R . P A 3
N3 N 0.734(2) 0.6857(15) 0.3688(13) 0.018(3) Uani 0.300(8) 1 d D U P A 3
C29 C 0.500(2) 0.7082(13) 0.2951(11) 0.047(5) Uani 0.300(8) 1 d D U P A 3
H29 H 0.4069 0.6738 0.2899 0.057 Uiso 0.300(8) 1 calc R . P A 3
C30 C 0.600(3) 0.649(2) 0.3574(17) 0.039(5) Uani 0.300(8) 1 d D U P A 3
H30 H 0.5695 0.5741 0.3957 0.047 Uiso 0.300(8) 1 calc R . P A 3
C36 C 0.4265(18) 0.8883(12) 0.1787(11) 0.065(5) Uani 0.300(8) 1 d D U P A 3
H36 H 0.3244 0.8601 0.1839 0.078 Uiso 0.300(8) 1 calc R . P A 3
C31 C 0.660(2) 0.8133(14) 0.0640(9) 0.082(5) Uani 0.401(7) 1 d D U P A 2
H31 H 0.5812 0.7751 0.0468 0.099 Uiso 0.401(7) 1 calc R . P A 2
C35 C 0.5352(18) 0.9670(12) 0.0693(11) 0.058(5) Uani 0.236(8) 1 d D U P A 1
H35 H 0.6025 1.0046 0.1021 0.069 Uiso 0.236(8) 1 calc R . P A 1
C37 C 0.461(2) 0.9872(13) 0.1166(14) 0.065(5) Uani 0.300(8) 1 d D U P A 3
H37 H 0.5677 1.0095 0.0998 0.078 Uiso 0.300(8) 1 calc R . P A 3
C32 C 0.722(3) 0.9028(16) 0.0007(12) 0.108(8) Uani 0.401(7) 1 d D U P A 2
H32 H 0.8047 0.9360 0.0190 0.129 Uiso 0.401(7) 1 calc R . P A 2
C38 C 0.340(2) 1.0597(14) 0.0751(16) 0.065(5) Uani 0.31(2) 1 d D U . A 3
C39 C 0.6148(17) 0.9510(13) -0.0358(11) 0.050(3) Uani 0.236(8) 1 d D U P A 1
C45 C 0.581(3) 0.9128(16) -0.1361(11) 0.114(6) Uani 0.401(7) 1 d D U P A 2
H45 H 0.5267 0.8455 -0.1007 0.137 Uiso 0.401(7) 1 calc R . P A 2
C44 C 0.557(3) 0.9613(16) -0.2293(12) 0.123(6) Uani 0.401(7) 1 d D U P A 2
H44 H 0.4886 0.9269 -0.2585 0.148 Uiso 0.401(7) 1 calc R . P A 2
C42 C 0.734(3) 1.1107(17) -0.2365(13) 0.134(6) Uani 0.401(7) 1 d D U P A 2
H42 H 0.7905 1.1769 -0.2729 0.160 Uiso 0.401(7) 1 calc R . P A 2
C41 C 0.754(3) 1.0654(19) -0.1426(14) 0.132(6) Uani 0.401(7) 1 d D U P A 2
H41 H 0.8133 1.1043 -0.1111 0.158 Uiso 0.401(7) 1 calc R . P A 2
C43 C 0.633(3) 1.0607(18) -0.2795(13) 0.134(6) Uani 0.401(7) 1 d D U P A 2
H43 H 0.6168 1.0954 -0.3437 0.160 Uiso 0.401(7) 1 calc R . P A 2
C40 C 0.682(3) 0.9589(19) -0.0930(15) 0.123(6) Uani 0.401(7) 1 d D U P A 2
C50 C 0.759(2) 0.9934(16) -0.0276(19) 0.057(5) Uani 0.236(8) 1 d D U P A 1
H50 H 0.7659 1.0761 -0.0370 0.069 Uiso 0.236(8) 1 calc R . P A 1
C49 C 0.890(2) 0.9179(18) -0.006(2) 0.072(6) Uani 0.236(8) 1 d D U P A 1
H49 H 0.9867 0.9498 -0.0045 0.087 Uiso 0.236(8) 1 calc R . P A 1
C47 C 0.743(2) 0.7448(14) 0.0139(16) 0.052(4) Uani 0.236(8) 1 d D U P A 1
H47 H 0.7447 0.6623 0.0177 0.063 Uiso 0.236(8) 1 calc R . P A 1
C48 C 0.883(2) 0.7954(18) 0.013(2) 0.078(6) Uani 0.236(8) 1 d D U P A 1
H48 H 0.9759 0.7457 0.0256 0.093 Uiso 0.236(8) 1 calc R . P A 1
C53 C -0.2430(5) 1.2073(6) 0.1792(3) 0.096(5) Uani 0.561(8) 1 d D U P B 4
H53A H -0.2231 1.1212 0.1939 0.144 Uiso 0.561(8) 1 calc GR . P B 4
H53B H -0.2400 1.2352 0.1093 0.144 Uiso 0.561(8) 1 calc DGR . P B 4
H53C H -0.3484 1.2296 0.2142 0.144 Uiso 0.561(8) 1 calc DGR . P B 4
O5 O 0.0712(16) 1.2017(14) 0.2994(13) 0.157(6) Uani 0.561(8) 1 d D U P B 4
C57 C -0.1194(19) 1.2047(11) 0.0484(10) 0.087(6) Uani 0.439(8) 1 d D U P B 5
H57A H -0.0868 1.2281 -0.0221 0.130 Uiso 0.439(8) 1 calc GR . P B 5
H57B H -0.2356 1.2195 0.0655 0.130 Uiso 0.439(8) 1 calc DGR . P B 5
H57C H -0.0895 1.1205 0.0697 0.130 Uiso 0.439(8) 1 calc GR . P B 5
C54 C -0.0984(16) 1.3700(10) 0.2101(12) 0.088(4) Uani 0.561(8) 1 d D U P B 4
H54A H -0.1871 1.4275 0.1936 0.132 Uiso 0.561(8) 1 calc GR . P B 4
H54B H -0.0004 1.3917 0.1640 0.132 Uiso 0.561(8) 1 calc GR . P B 4
H54C H -0.0826 1.3698 0.2759 0.132 Uiso 0.561(8) 1 calc GR . P B 4
C56 C -0.181(2) 1.1510(15) 0.2307(14) 0.098(6) Uani 0.439(8) 1 d D U P B 5
H56A H -0.2643 1.1709 0.1903 0.148 Uiso 0.439(8) 1 calc GR . P B 5
H56B H -0.2289 1.1522 0.2983 0.148 Uiso 0.439(8) 1 calc GR . P B 5
H56C H -0.1307 1.0720 0.2265 0.148 Uiso 0.439(8) 1 calc GR . P B 5
C52 C -0.1026(19) 1.0499(9) 0.2796(11) 0.123(6) Uani 0.561(8) 1 d D U P B 4
H52A H -0.0106 0.9958 0.2620 0.185 Uiso 0.561(8) 1 calc GR . P B 4
H52B H -0.1837 1.0497 0.2398 0.185 Uiso 0.561(8) 1 calc GR . P B 4
H52C H -0.1485 1.0241 0.3483 0.185 Uiso 0.561(8) 1 calc GR . P B 4
C51 C -0.0463(11) 1.1794(14) 0.2614(11) 0.151(8) Uani 0.561(8) 1 d D U P B 4
C55 C -0.0562(19) 1.2399(15) 0.1956(10) 0.155(9) Uani 0.439(8) 1 d D U P B 5
N4 N -0.1353(6) 1.2542(8) 0.2055(3) 0.223(10) Uani 0.561(8) 1 d D U P B 4
N5 N -0.046(2) 1.2679(15) 0.0922(13) 0.200(11) Uani 0.439(8) 1 d D U P B 5
C58 C 0.042(3) 1.3712(17) 0.0447(14) 0.122(8) Uani 0.439(8) 1 d D U P B 5
H58A H 0.0384 1.3886 -0.0249 0.183 Uiso 0.439(8) 1 calc GR . P B 5
H58B H 0.1534 1.3557 0.0544 0.183 Uiso 0.439(8) 1 calc GR . P B 5
H58C H -0.0072 1.4389 0.0725 0.183 Uiso 0.439(8) 1 calc GR . P B 5
C34 C 0.5186(18) 0.8329(13) 0.1110(8) 0.050(3) Uani 0.236(8) 1 d D U P A 1
H34 H 0.4036 0.8148 0.1249 0.060 Uiso 0.236(8) 1 calc R . P A 1
C46 C 0.5964(18) 0.8182(12) 0.0089(12) 0.049(4) Uani 0.236(8) 1 d D U P A 1
H46 H 0.5223 0.7849 -0.0224 0.058 Uiso 0.236(8) 1 calc R . P A 1
C59 C 0.3602(19) 1.1771(15) 0.0589(14) 0.074(4) Uani 0.300(8) 1 d D U P A 3
H59 H 0.4570 1.2023 0.0681 0.089 Uiso 0.300(8) 1 calc R . P A 3
C60 C 0.239(2) 1.2611(15) 0.0287(18) 0.082(5) Uani 0.300(8) 1 d D U P A 3
H60 H 0.2552 1.3430 0.0110 0.098 Uiso 0.300(8) 1 calc R . P A 3
C63 C 0.209(2) 1.0172(15) 0.0502(17) 0.060(4) Uani 0.300(8) 1 d D U P A 3
H63 H 0.2094 0.9385 0.0420 0.073 Uiso 0.300(8) 1 calc R . P A 3
C61 C 0.096(2) 1.2203(15) 0.0257(16) 0.068(4) Uani 0.300(8) 1 d D U P A 3
H61 H 0.0065 1.2750 0.0147 0.082 Uiso 0.300(8) 1 calc R . P A 3
C62 C 0.080(2) 1.1001(16) 0.0385(15) 0.063(4) Uani 0.300(8) 1 d D U P A 3
H62 H -0.0222 1.0739 0.0394 0.075 Uiso 0.300(8) 1 calc R . P A 3
C64 C 0.7018(8) 0.0223(5) 0.5238(7) 0.114(2) Uani 1 1 d . U . . .
H64 H 0.7387 -0.0578 0.5442 0.137 Uiso 1 1 calc R . . . .
O6 O 0.010(3) 1.284(2) 0.2496(17) 0.218(9) Uani 0.439(8) 1 d D U P B 5
loop_
_atom_site_aniso_label
_atom_site_aniso_U_11
_atom_site_aniso_U_22
_atom_site_aniso_U_33
_atom_site_aniso_U_23
_atom_site_aniso_U_13
_atom_site_aniso_U_12
Zn1 0.0185(2) 0.01426(19) 0.0192(2) -0.00456(12) -0.00433(13) -0.00662(12)
O1 0.0446(14) 0.0181(11) 0.0356(13) -0.0014(9) -0.0177(11) -0.0163(10)
O2 0.0318(13) 0.0220(12) 0.0577(17) -0.0101(11) -0.0177(12) -0.0128(10)
O3 0.0453(16) 0.0533(17) 0.0243(13) -0.0135(12) 0.0067(11) -0.0165(13)
O4 0.0304(14) 0.077(2) 0.0291(13) -0.0231(14) 0.0053(11) -0.0125(14)
N1 0.032(4) 0.029(4) 0.033(4) 0.001(3) -0.010(3) -0.010(3)
C1 0.0346(19) 0.049(2) 0.0254(17) -0.0175(16) 0.0051(14) -0.0235(17)
C8 0.0340(18) 0.0207(15) 0.0344(17) -0.0055(13) -0.0113(14) -0.0147(13)
C2 0.0317(18) 0.046(2) 0.0247(16) -0.0142(15) 0.0031(14) -0.0138(15)
C5 0.0297(17) 0.040(2) 0.0231(17) -0.0073(14) 0.0002(14) -0.0029(14)
C14 0.0259(16) 0.0206(16) 0.057(2) -0.0062(15) -0.0186(15) -0.0077(12)
C15 0.0320(17) 0.0171(15) 0.055(2) -0.0047(14) -0.0173(16) -0.0085(13)
C9 0.0378(19) 0.0179(15) 0.065(2) -0.0022(15) -0.0274(18) -0.0136(14)
C4 0.048(2) 0.050(2) 0.0291(19) -0.0079(17) -0.0014(17) 0.0116(19)
C3 0.051(2) 0.049(2) 0.0251(18) -0.0051(16) 0.0007(16) 0.0005(19)
C6 0.039(2) 0.058(3) 0.0283(19) -0.0063(17) -0.0010(16) 0.0068(19)
C13 0.049(2) 0.0167(17) 0.103(3) 0.0026(19) -0.050(2) -0.0142(16)
C7 0.033(2) 0.065(3) 0.035(2) -0.0158(19) -0.0004(16) 0.0098(19)
C16 0.032(4) 0.029(4) 0.033(4) 0.001(3) -0.010(4) -0.011(3)
C10 0.075(3) 0.031(2) 0.228(6) 0.014(3) -0.104(4) -0.020(2)
C17 0.033(4) 0.029(4) 0.033(4) 0.000(3) -0.010(3) -0.011(3)
C20 0.033(4) 0.029(4) 0.033(4) 0.001(3) -0.010(3) -0.011(3)
C22 0.046(5) 0.067(6) 0.051(5) -0.004(5) -0.026(5) -0.016(5)
C23 0.060(6) 0.053(6) 0.055(6) 0.001(5) -0.014(5) -0.007(5)
C19 0.033(4) 0.029(4) 0.034(4) 0.001(3) -0.010(3) -0.011(3)
C24 0.062(6) 0.052(6) 0.054(6) 0.022(5) -0.019(5) -0.007(5)
C21 0.035(6) 0.068(7) 0.034(6) -0.001(5) -0.021(5) -0.006(5)
N2 0.017(5) 0.020(3) 0.022(5) -0.002(3) -0.008(4) -0.003(4)
C18 0.033(4) 0.029(4) 0.034(4) 0.001(3) -0.010(3) -0.011(3)
C25 0.051(6) 0.045(6) 0.051(6) 0.016(5) -0.013(5) -0.005(5)
C28 0.032(7) 0.042(8) 0.046(8) -0.004(6) -0.009(6) -0.008(6)
C27 0.068(11) 0.051(10) 0.078(12) 0.029(9) -0.040(10) -0.030(8)
C26 0.059(11) 0.041(9) 0.072(12) 0.013(8) -0.038(10) -0.020(8)
N3 0.021(5) 0.016(4) 0.016(5) -0.001(4) -0.003(4) 0.005(4)
C29 0.048(10) 0.054(9) 0.044(9) 0.012(7) -0.028(8) -0.031(8)
C30 0.044(10) 0.039(8) 0.042(10) 0.003(8) -0.029(9) -0.015(7)
C36 0.070(10) 0.045(7) 0.085(11) 0.020(7) -0.056(9) -0.022(7)
C31 0.096(12) 0.084(11) 0.071(10) 0.006(8) -0.037(9) -0.034(10)
C35 0.069(10) 0.047(9) 0.065(9) 0.002(8) -0.039(8) -0.015(8)
C37 0.071(10) 0.037(7) 0.095(11) 0.018(7) -0.060(9) -0.023(7)
C32 0.146(17) 0.105(14) 0.084(11) 0.011(10) -0.037(12) -0.089(14)
C38 0.066(8) 0.060(8) 0.080(9) -0.028(7) -0.037(7) 0.015(7)
C39 0.057(7) 0.035(6) 0.064(7) 0.004(5) -0.037(6) -0.012(5)
C45 0.176(13) 0.097(9) 0.084(8) 0.015(7) -0.073(9) -0.057(9)
C44 0.185(13) 0.102(10) 0.094(9) 0.014(7) -0.066(9) -0.062(9)
C42 0.171(13) 0.118(10) 0.115(10) 0.025(8) -0.056(9) -0.071(9)
C41 0.167(13) 0.114(10) 0.117(10) 0.031(8) -0.063(9) -0.063(10)
C43 0.183(13) 0.115(10) 0.110(9) 0.016(8) -0.058(9) -0.067(9)
C40 0.172(13) 0.105(10) 0.100(10) 0.027(8) -0.071(9) -0.059(9)
C50 0.071(9) 0.039(8) 0.066(10) -0.003(7) -0.031(8) -0.011(7)
C49 0.073(10) 0.053(9) 0.087(11) -0.002(8) -0.024(9) 0.002(8)
C47 0.077(9) 0.039(7) 0.052(8) -0.022(7) -0.028(8) 0.006(7)
C48 0.084(10) 0.058(9) 0.085(10) -0.003(8) -0.022(9) 0.011(8)
C53 0.105(9) 0.029(4) 0.190(14) -0.028(6) -0.117(10) 0.017(5)
O5 0.145(11) 0.138(12) 0.230(15) -0.078(11) -0.110(10) 0.024(9)
C57 0.138(13) 0.045(7) 0.113(11) -0.034(7) -0.108(11) 0.024(7)
C54 0.080(8) 0.050(6) 0.148(12) -0.043(7) -0.017(8) -0.020(6)
C56 0.138(17) 0.065(10) 0.108(13) -0.018(9) -0.047(12) -0.030(11)
C52 0.170(18) 0.075(10) 0.129(14) -0.027(9) -0.037(12) 0.003(10)
C51 0.096(11) 0.152(17) 0.22(2) -0.014(15) -0.097(12) -0.019(11)
C55 0.068(12) 0.102(16) 0.30(3) -0.018(18) -0.051(17) -0.027(11)
N4 0.105(14) 0.27(2) 0.29(2) -0.03(2) -0.068(15) 0.014(16)
N5 0.119(15) 0.185(19) 0.26(2) 0.02(2) -0.071(17) 0.052(14)
C58 0.121(17) 0.086(13) 0.18(2) -0.015(13) -0.065(16) -0.031(12)
C34 0.057(7) 0.035(6) 0.064(7) 0.004(5) -0.037(6) -0.012(5)
C46 0.069(8) 0.036(7) 0.053(8) -0.012(6) -0.037(7) -0.008(6)
C59 0.078(8) 0.070(8) 0.091(9) -0.047(7) -0.032(8) 0.012(7)
C60 0.084(9) 0.069(8) 0.107(10) -0.046(8) -0.035(8) 0.016(7)
C63 0.063(8) 0.060(8) 0.072(9) -0.031(7) -0.029(7) 0.006(7)
C61 0.074(8) 0.066(8) 0.083(9) -0.048(7) -0.037(7) 0.022(7)
C62 0.064(8) 0.070(8) 0.072(9) -0.039(7) -0.034(7) 0.007(7)
C64 0.085(4) 0.026(2) 0.247(6) 0.018(3) -0.112(4) -0.022(2)
O6 0.212(18) 0.196(19) 0.26(2) -0.055(17) -0.078(16) 0.021(16)
loop_
_atom_type_symbol
_atom_type_description
_atom_type_scat_dispersion_real
_atom_type_scat_dispersion_imag
_atom_type_scat_source
C C 0.0033 0.0016 'International Tables Vol C Tables 4.2.6.8 and 6.1.1.4'
H H 0.0000 0.0000 'International Tables Vol C Tables 4.2.6.8 and 6.1.1.4'
N N 0.0061 0.0033 'International Tables Vol C Tables 4.2.6.8 and 6.1.1.4'
O O 0.0106 0.0060 'International Tables Vol C Tables 4.2.6.8 and 6.1.1.4'
Zn Zn 0.2839 1.4301 'International Tables Vol C Tables 4.2.6.8 and 6.1.1.4'
loop_
_geom_angle_atom_site_label_1
_geom_angle_atom_site_label_2
_geom_angle_atom_site_label_3
_geom_angle
_geom_angle_site_symmetry_1
_geom_angle_site_symmetry_3
O1 Zn1 Zn1 75.12(7) . 2_766
O1 Zn1 O4 87.94(12) . 2_766
O1 Zn1 N1 96.3(9) . .
O2 Zn1 Zn1 83.70(8) 2_766 2_766
O2 Zn1 O1 158.69(11) 2_766 .
O2 Zn1 O4 86.16(12) 2_766 2_766
O2 Zn1 N1 104.6(9) 2_766 .
O3 Zn1 Zn1 90.64(9) . 2_766
O3 Zn1 O1 88.09(11) . .
O3 Zn1 O2 89.92(12) . 2_766
O3 Zn1 O4 158.41(13) . 2_766
O3 Zn1 N1 106.4(12) . .
O4 Zn1 Zn1 67.83(9) 2_766 2_766
N1 Zn1 Zn1 160.8(13) . 2_766
N1 Zn1 O4 95.1(12) . 2_766
N2 Zn1 Zn1 152.6(4) . 2_766
N2 Zn1 O1 98.2(4) . .
N2 Zn1 O2 101.7(4) . 2_766
N2 Zn1 O3 116.0(4) . .
N2 Zn1 O4 85.6(4) . 2_766
N3 Zn1 Zn1 165.5(6) . 2_766
N3 Zn1 O1 97.9(6) . .
N3 Zn1 O2 103.2(6) . 2_766
N3 Zn1 O3 101.9(6) . .
N3 Zn1 O4 99.7(6) . 2_766
C8 O1 Zn1 132.9(2) . .
C8 O2 Zn1 121.9(2) . 2_766
C1 O3 Zn1 113.8(3) . .
C1 O4 Zn1 142.1(3) . 2_766
C16 N1 Zn1 122.3(14) . .
C20 N1 Zn1 117.2(16) . .
C20 N1 C16 119.4(17) . .
O3 C1 C2 117.3(4) . .
O4 C1 O3 125.5(3) . .
O4 C1 C2 117.2(4) . .
O1 C8 C9 116.3(3) . .
O2 C8 O1 126.2(3) . .
O2 C8 C9 117.4(3) . .
C3 C2 C1 120.9(4) . .
C7 C2 C1 120.3(4) . .
C7 C2 C3 118.8(3) . .
C4 C5 C5 120.9(4) . 2_667
C6 C5 C5 121.9(4) . 2_667
C6 C5 C4 117.2(3) . .
C15 C14 H14 119.4 . .
C13 C14 H14 119.4 . .
C13 C14 C15 121.3(3) . .
C14 C15 H15 119.3 . .
C9 C15 C14 121.3(3) . .
C9 C15 H15 119.3 . .
C15 C9 C8 121.3(3) . .
C10 C9 C8 120.8(4) . .
C10 C9 C15 118.0(3) . .
C5 C4 H4 119.2 . .
C3 C4 C5 121.6(4) . .
C3 C4 H4 119.2 . .
C2 C3 C4 120.1(4) . .
C2 C3 H3 120.0 . .
C4 C3 H3 120.0 . .
C5 C6 H6 119.4 . .
C7 C6 C5 121.2(4) . .
C7 C6 H6 119.4 . .
C14 C13 C13 121.4(4) . 2_656
C14 C13 C64 116.9(3) . .
C64 C13 C13 121.7(5) . 2_656
C2 C7 C6 121.1(4) . .
C2 C7 H7 119.4 . .
C6 C7 H7 119.4 . .
N1 C16 H16 119.2 . .
N1 C16 C17 121.6(16) . .
C17 C16 H16 119.2 . .
C9 C10 H10 119.8 . .
C9 C10 C64 120.4(5) . .
C64 C10 H10 119.8 . .
C16 C17 H17 120.3 . .
C18 C17 C16 119.5(13) . .
C18 C17 H17 120.3 . .
N1 C20 H20 119.6 . .
N1 C20 C19 120.9(15) . .
C19 C20 H20 119.6 . .
C23 C22 H22 120.7 . .
C21 C22 H22 120.7 . .
C21 C22 C23 118.6(9) . .
C22 C23 C31 119.1(10) . .
C24 C23 C22 119.1(8) . .
C24 C23 C31 121.8(9) . .
C20 C19 H19 120.2 . .
C18 C19 C20 119.5(11) . .
C18 C19 H19 120.2 . .
C23 C24 H24 120.7 . .
C23 C24 C25 118.5(9) . .
C25 C24 H24 120.7 . .
C22 C21 H21 118.0 . .
N2 C21 C22 124.0(11) . .
N2 C21 H21 118.0 . .
C21 N2 Zn1 123.7(8) . .
C21 N2 C25 115.5(10) . .
C25 N2 Zn1 116.5(7) . .
C17 C18 C34 116.7(11) . .
C19 C18 C17 119.1(10) . .
C19 C18 C34 123.6(10) . .
C24 C25 H25 118.1 . .
N2 C25 C24 123.8(11) . .
N2 C25 H25 118.1 . .
C27 C28 C29 115.9(9) . .
C27 C28 C36 122.7(10) . .
C29 C28 C36 120.9(10) . .
C28 C27 H27 120.5 . .
C28 C27 C26 119.0(10) . .
C26 C27 H27 120.5 . .
C27 C26 H26 117.1 . .
N3 C26 C27 125.7(12) . .
N3 C26 H26 117.1 . .
C26 N3 Zn1 123.6(13) . .
C26 N3 C30 113.5(13) . .
C30 N3 Zn1 122.8(11) . .
C28 C29 H29 120.3 . .
C30 C29 C28 119.4(11) . .
C30 C29 H29 120.3 . .
N3 C30 C29 125.8(14) . .
N3 C30 H30 117.1 . .
C29 C30 H30 117.1 . .
C28 C36 H36 118.0 . .
C37 C36 C28 124.1(12) . .
C37 C36 H36 118.0 . .
C23 C31 H31 117.6 . .
C32 C31 C23 124.8(13) . .
C32 C31 H31 117.6 . .
C39 C35 H35 114.6 . .
C39 C35 H35 114.6 2_675 .
C39 C35 C39 94.9(15) . 2_675
C34 C35 H35 114.6 . .
C34 C35 C39 119.6(13) . 2_675
C34 C35 C39 94.7(9) . .
C36 C37 H37 120.0 . .
C36 C37 C38 120.1(16) . .
C38 C37 H37 120.0 . .
C31 C32 H32 115.1 . .
C31 C32 C40 129.7(16) . .
C40 C32 H32 115.1 . .
C37 C38 C63 123.9(15) . .
C59 C38 C37 113.9(14) . .
C59 C38 C63 122.2(12) . .
C35 C39 C35 85.1(15) . 2_675
C50 C39 C35 124.4(14) . 2_675
C50 C39 C35 91.6(11) . .
C50 C39 C46 115.1(10) . .
C46 C39 C35 83.6(8) . .
C46 C39 C35 119.5(12) . 2_675
C44 C45 H45 119.1 . .
C40 C45 H45 119.1 . .
C40 C45 C44 121.8(14) . .
C45 C44 H44 120.5 . .
C45 C44 C43 118.9(12) . .
C43 C44 H44 120.5 . .
C41 C42 H42 119.7 . .
C41 C42 C43 120.7(13) . .
C43 C42 H42 119.7 . .
C42 C41 H41 120.7 . .
C42 C41 C40 118.6(14) . .
C40 C41 H41 120.7 . .
C44 C43 C42 120.4(13) . .
C44 C43 H43 119.8 . .
C42 C43 H43 119.8 . .
C45 C40 C32 122.6(15) . .
C45 C40 C41 119.2(14) . .
C41 C40 C32 118.2(15) . .
C39 C50 H50 119.1 . .
C49 C50 C39 121.8(13) . .
C49 C50 H50 119.1 . .
C50 C49 H49 119.4 . .
C50 C49 C48 121.2(13) . .
C48 C49 H49 119.4 . .
C48 C47 H47 120.2 . .
C48 C47 C46 119.5(12) . .
C46 C47 H47 120.2 . .
C49 C48 H48 119.2 . .
C47 C48 C49 121.5(13) . .
C47 C48 H48 119.2 . .
H53A C53 H53B 109.5 . .
H53A C53 H53C 109.5 . .
H53B C53 H53C 109.5 . .
N4 C53 H53A 109.5 . .
N4 C53 H53B 109.5 . .
N4 C53 H53C 109.5 . .
H57A C57 H57B 109.5 . .
H57A C57 H57C 109.5 . .
H57B C57 H57C 109.5 . .
N5 C57 H57A 109.5 . .
N5 C57 H57B 109.5 . .
N5 C57 H57C 109.5 . .
H54A C54 H54B 109.5 . .
H54A C54 H54C 109.5 . .
H54B C54 H54C 109.5 . .
N4 C54 H54A 109.5 . .
N4 C54 H54B 109.5 . .
N4 C54 H54C 109.5 . .
H56A C56 H56B 109.5 . .
H56A C56 H56C 109.5 . .
H56B C56 H56C 109.5 . .
C55 C56 H56A 109.5 . .
C55 C56 H56B 109.5 . .
C55 C56 H56C 109.5 . .
H52A C52 H52B 109.5 . .
H52A C52 H52C 109.5 . .
H52B C52 H52C 109.5 . .
C51 C52 H52A 109.5 . .
C51 C52 H52B 109.5 . .
C51 C52 H52C 109.5 . .
O5 C51 C52 121.7(13) . .
O5 C51 N4 128.3(15) . .
N4 C51 C52 110.0(7) . .
N5 C55 C56 104.3(12) . .
O6 C55 C56 125.2(15) . .
O6 C55 N5 130.3(15) . .
C53 N4 C54 138.3(9) . .
C53 N4 C51 114.7(9) . .
C51 N4 C54 105.5(10) . .
C57 N5 C55 120.5(14) . .
C57 N5 C58 125.8(16) . .
C55 N5 C58 113.6(12) . .
N5 C58 H58A 109.5 . .
N5 C58 H58B 109.5 . .
N5 C58 H58C 109.5 . .
H58A C58 H58B 109.5 . .
H58A C58 H58C 109.5 . .
H58B C58 H58C 109.5 . .
C18 C34 C35 111.6(10) . .
C18 C34 H34 110.7 . .
C18 C34 C46 125.2(14) . .
C35 C34 H34 110.7 . .
C46 C34 C35 85.0(8) . .
C46 C34 H34 110.7 . .
C39 C46 H46 111.4 . .
C47 C46 C39 115.8(11) . .
C47 C46 C34 109.1(15) . .
C47 C46 H46 111.4 . .
C34 C46 C39 96.8(8) . .
C34 C46 H46 111.4 . .
C38 C59 H59 119.8 . .
C38 C59 C60 120.3(12) . .
C60 C59 H59 119.8 . .
C59 C60 H60 121.3 . .
C61 C60 C59 117.4(12) . .
C61 C60 H60 121.3 . .
C38 C63 H63 122.8 . .
C62 C63 C38 114.4(11) . .
C62 C63 H63 122.8 . .
C60 C61 H61 119.5 . .
C60 C61 C62 121.0(12) . .
C62 C61 H61 119.5 . .
C63 C62 H62 119.3 . .
C61 C62 C63 121.5(12) . .
C61 C62 H62 119.3 . .
C13 C64 C10 122.0(5) . .
C13 C64 H64 119.0 . .
C10 C64 H64 119.0 . .
loop_
_geom_bond_atom_site_label_1
_geom_bond_atom_site_label_2
_geom_bond_distance
_geom_bond_site_symmetry_2
Zn1 Zn1 2.9870(7) 2_766
Zn1 O1 2.041(2) .
Zn1 O2 2.033(2) 2_766
Zn1 O3 2.026(3) .
Zn1 O4 2.086(3) 2_766
Zn1 N1 2.07(2) .
Zn1 N2 2.013(10) .
Zn1 N3 2.008(15) .
O1 C8 1.259(4) .
O2 Zn1 2.033(2) 2_766
O2 C8 1.255(4) .
O3 C1 1.264(5) .
O4 Zn1 2.086(3) 2_766
O4 C1 1.239(5) .
N1 C16 1.343(18) .
N1 C20 1.339(17) .
C1 C2 1.511(5) .
C8 C9 1.504(4) .
C2 C3 1.382(6) .
C2 C7 1.371(6) .
C5 C5 1.497(6) 2_667
C5 C4 1.389(6) .
C5 C6 1.385(5) .
C14 H14 0.9500 .
C14 C15 1.385(4) .
C14 C13 1.369(5) .
C15 H15 0.9500 .
C15 C9 1.370(5) .
C9 C10 1.367(6) .
C4 H4 0.9500 .
C4 C3 1.389(5) .
C3 H3 0.9500 .
C6 H6 0.9500 .
C6 C7 1.383(6) .
C13 C13 1.485(7) 2_656
C13 C64 1.378(7) .
C7 H7 0.9500 .
C16 H16 0.9500 .
C16 C17 1.385(15) .
C10 H10 0.9500 .
C10 C64 1.384(6) .
C17 H17 0.9500 .
C17 C18 1.380(14) .
C20 H20 0.9500 .
C20 C19 1.411(15) .
C22 H22 0.9500 .
C22 C23 1.375(12) .
C22 C21 1.374(12) .
C23 C24 1.357(12) .
C23 C31 1.451(12) .
C19 H19 0.9500 .
C19 C18 1.360(13) .
C24 H24 0.9500 .
C24 C25 1.386(12) .
C21 H21 0.9500 .
C21 N2 1.335(13) .
N2 C25 1.342(12) .
C18 C34 1.5096(11) .
C25 H25 0.9500 .
C28 C27 1.375(13) .
C28 C29 1.389(13) .
C28 C36 1.454(12) .
C27 H27 0.9500 .
C27 C26 1.398(13) .
C26 H26 0.9500 .
C26 N3 1.314(15) .
N3 C30 1.326(16) .
C29 H29 0.9500 .
C29 C30 1.376(14) .
C30 H30 0.9500 .
C36 H36 0.9500 .
C36 C37 1.312(14) .
C31 H31 0.9500 .
C31 C32 1.305(14) .
C35 H35 1.0000 .
C35 C39 1.574(6) .
C35 C39 1.593(10) 2_675
C35 C34 1.554(15) .
C37 H37 0.9500 .
C37 C38 1.394(15) .
C32 H32 0.9500 .
C32 C40 1.44(2) .
C38 C59 1.361(15) .
C38 C63 1.406(15) .
C39 C35 1.593(10) 2_675
C39 C50 1.412(15) .
C39 C46 1.549(14) .
C45 H45 0.9500 .
C45 C44 1.377(14) .
C45 C40 1.372(16) .
C44 H44 0.9500 .
C44 C43 1.378(15) .
C42 H42 0.9500 .
C42 C41 1.367(15) .
C42 C43 1.399(15) .
C41 H41 0.9500 .
C41 C40 1.423(16) .
C43 H43 0.9500 .
C50 H50 0.9500 .
C50 C49 1.380(16) .
C49 H49 0.9500 .
C49 C48 1.398(16) .
C47 H47 0.9500 .
C47 C48 1.385(16) .
C47 C46 1.440(15) .
C48 H48 0.9500 .
C53 H53A 0.9800 .
C53 H53B 0.9800 .
C53 H53C 0.9800 .
C53 N4 1.276(4) .
O5 C51 1.309(11) .
C57 H57A 0.9800 .
C57 H57B 0.9800 .
C57 H57C 0.9800 .
C57 N5 1.344(15) .
C54 H54A 0.9800 .
C54 H54B 0.9800 .
C54 H54C 0.9800 .
C54 N4 1.440(11) .
C56 H56A 0.9800 .
C56 H56B 0.9800 .
C56 H56C 0.9800 .
C56 C55 1.507(15) .
C52 H52A 0.9800 .
C52 H52B 0.9800 .
C52 H52C 0.9800 .
C52 C51 1.587(16) .
C51 N4 1.323(12) .
C55 N5 1.433(15) .
C55 O6 1.266(14) .
N5 C58 1.453(16) .
C58 H58A 0.9800 .
C58 H58B 0.9800 .
C58 H58C 0.9800 .
C34 H34 1.0000 .
C34 C46 1.527(16) .
C46 H46 1.0000 .
C59 H59 0.9500 .
C59 C60 1.404(15) .
C60 H60 0.9500 .
C60 C61 1.372(16) .
C63 H63 0.9500 .
C63 C62 1.393(15) .
C61 H61 0.9500 .
C61 C62 1.391(15) .
C62 H62 0.9500 .
C64 H64 0.9500 .
loop_
_geom_torsion_atom_site_label_1
_geom_torsion_atom_site_label_2
_geom_torsion_atom_site_label_3
_geom_torsion_atom_site_label_4
_geom_torsion
_geom_torsion_site_symmetry_1
_geom_torsion_site_symmetry_4
Zn1 O1 C8 O2 -1.7(6) . .
Zn1 O1 C8 C9 177.0(3) . .
Zn1 O2 C8 O1 5.1(5) 2_766 .
Zn1 O2 C8 C9 -173.5(3) 2_766 .
Zn1 O3 C1 O4 1.2(5) . .
Zn1 O3 C1 C2 -179.2(2) . .
Zn1 O4 C1 O3 1.9(7) 2_766 .
Zn1 O4 C1 C2 -177.6(3) 2_766 .
Zn1 N1 C16 C17 -168(3) . .
Zn1 N1 C20 C19 170(2) . .
Zn1 N2 C25 C24 165.0(11) . .
Zn1 N3 C30 C29 -176(2) . .
O1 C8 C9 C15 -1.2(6) . .
O1 C8 C9 C10 178.0(6) . .
O2 C8 C9 C15 177.6(4) . .
O2 C8 C9 C10 -3.2(7) . .
O3 C1 C2 C3 -6.1(5) . .
O3 C1 C2 C7 173.7(4) . .
O4 C1 C2 C3 173.5(4) . .
O4 C1 C2 C7 -6.7(5) . .
N1 C16 C17 C18 -0.5(19) . .
N1 C20 C19 C18 -3(4) . .
C1 C2 C3 C4 -178.8(4) . .
C1 C2 C7 C6 179.5(4) . .
C8 C9 C10 C64 177.5(7) . .
C5 C5 C4 C3 -179.7(5) 2_667 .
C5 C5 C6 C7 -179.5(5) 2_667 .
C5 C4 C3 C2 -1.5(7) . .
C5 C6 C7 C2 0.0(7) . .
C14 C15 C9 C8 -177.7(4) . .
C14 C15 C9 C10 3.1(8) . .
C14 C13 C64 C10 1.3(13) . .
C15 C14 C13 C13 178.8(6) . 2_656
C15 C14 C13 C64 -1.5(9) . .
C15 C9 C10 C64 -3.3(12) . .
C9 C10 C64 C13 1.1(15) . .
C4 C5 C6 C7 -0.1(7) . .
C3 C2 C7 C6 -0.7(7) . .
C6 C5 C4 C3 0.8(7) . .
C13 C14 C15 C9 -0.7(7) . .
C13 C13 C64 C10 -179.0(9) 2_656 .
C7 C2 C3 C4 1.4(7) . .
C16 N1 C20 C19 2(4) . .
C16 C17 C18 C19 0(3) . .
C16 C17 C18 C34 172(2) . .
C17 C18 C34 C35 151.2(16) . .
C17 C18 C34 C46 -109.3(19) . .
C20 N1 C16 C17 -1(2) . .
C20 C19 C18 C17 1(3) . .
C20 C19 C18 C34 -170.0(18) . .
C22 C23 C24 C25 -0.8(13) . .
C22 C23 C31 C32 168.0(19) . .
C22 C21 N2 Zn1 -163.6(11) . .
C22 C21 N2 C25 -8(2) . .
C23 C22 C21 N2 4(2) . .
C23 C24 C25 N2 -3(2) . .
C23 C31 C32 C40 -177(2) . .
C19 C18 C34 C35 -37(2) . .
C19 C18 C34 C46 62(2) . .
C24 C23 C31 C32 -14(3) . .
C21 C22 C23 C24 0.6(13) . .
C21 C22 C23 C31 178.8(14) . .
C21 N2 C25 C24 7(2) . .
C18 C34 C46 C39 -113.2(13) . .
C18 C34 C46 C47 7.2(17) . .
C28 C27 C26 N3 3.8(18) . .
C28 C29 C30 N3 -2(3) . .
C28 C36 C37 C38 -167.1(17) . .
C27 C28 C29 C30 -4(3) . .
C27 C28 C36 C37 17(3) . .
C27 C26 N3 Zn1 175.6(12) . .
C27 C26 N3 C30 -9(2) . .
C26 N3 C30 C29 8(3) . .
C29 C28 C27 C26 2.8(16) . .
C29 C28 C36 C37 -171.9(19) . .
C36 C28 C27 C26 174.7(14) . .
C36 C28 C29 C30 -176(2) . .
C36 C37 C38 C59 145.4(18) . .
C36 C37 C38 C63 -36(3) . .
C31 C23 C24 C25 -179.0(14) . .
C31 C32 C40 C45 -9(5) . .
C31 C32 C40 C41 172(2) . .
C35 C39 C50 C49 101(2) . .
C35 C39 C50 C49 -174(2) 2_675 .
C35 C39 C46 C47 164.5(18) 2_675 .
C35 C39 C46 C47 -114.9(15) . .
C35 C39 C46 C34 0.2(11) . .
C35 C39 C46 C34 -80.5(18) 2_675 .
C35 C34 C46 C39 -0.2(12) . .
C35 C34 C46 C47 120.1(11) . .
C37 C38 C59 C60 -172(2) . .
C37 C38 C63 C62 161(2) . .
C38 C59 C60 C61 6.2(19) . .
C38 C63 C62 C61 17(3) . .
C39 C35 C39 C35 0.001(1) 2_675 2_675
C39 C35 C39 C50 124.4(14) 2_675 .
C39 C35 C39 C46 -120.5(12) 2_675 .
C39 C35 C34 C18 -135.5(19) 2_675 .
C39 C35 C34 C18 126.2(14) . .
C39 C35 C34 C46 0.2(11) . .
C39 C35 C34 C46 98.5(18) 2_675 .
C39 C50 C49 C48 -3(3) . .
C45 C44 C43 C42 0(3) . .
C44 C45 C40 C32 -174(3) . .
C44 C45 C40 C41 5(3) . .
C42 C41 C40 C32 171(3) . .
C42 C41 C40 C45 -8(3) . .
C41 C42 C43 C44 -3(3) . .
C43 C42 C41 C40 7(3) . .
C40 C45 C44 C43 -1.7(19) . .
C50 C39 C46 C47 -26.2(19) . .
C50 C39 C46 C34 88.9(15) . .
C50 C49 C48 C47 -2(3) . .
C48 C47 C46 C39 23(3) . .
C48 C47 C46 C34 -85(2) . .
O5 C51 N4 C53 -179.6(13) . .
O5 C51 N4 C54 -11.1(18) . .
C56 C55 N5 C57 -9.7(18) . .
C56 C55 N5 C58 167.2(15) . .
C52 C51 N4 C53 -0.2(13) . .
C52 C51 N4 C54 168.3(11) . .
C34 C35 C39 C35 120.3(14) . 2_675
C34 C35 C39 C50 -115.3(11) . .
C34 C35 C39 C46 -0.2(11) . .
C46 C39 C50 C49 17(3) . .
C46 C47 C48 C49 -9(3) . .
C59 C38 C63 C62 -20(3) . .
C59 C60 C61 C62 -9(3) . .
C60 C61 C62 C63 -3(3) . .
C63 C38 C59 C60 8.9(17) . .
O6 C55 N5 C57 176(2) . .
O6 C55 N5 C58 -7(2) . .
