#------------------------------------------------------------------------------
#$Date: 2019-11-03 17:08:59 +0200 (Sun, 03 Nov 2019) $
#$Revision: 221923 $
#$URL: file:///home/coder/svn-repositories/cod/cif/4/12/88/4128888.cif $
#------------------------------------------------------------------------------
#
# This file is available in the Crystallography Open Database (COD),
# http://www.crystallography.net/
#
# All data on this site have been placed in the public domain by the
# contributors.
#
data_4128888
loop_
_publ_author_name
'Mon, Marta'
'Bruno, Rosaria'
'Tiburcio, Estefania'
'Viciano-Chumillas, Marta'
'Kalinke, Lucas H. G.'
'Ferrando-Soria, Jes\'us'
'Armentano, Donatella'
'Pardo, Emilio'
_publ_section_title
;
 Multivariate Metal-Organic Frameworks for the Simultaneous Capture of
 Organic and Inorganic Contaminants from Water.
;
_journal_issue                   34
_journal_name_full               'Journal of the American Chemical Society'
_journal_page_first              13601
_journal_page_last               13609
_journal_paper_doi               10.1021/jacs.9b06250
_journal_volume                  141
_journal_year                    2019
_chemical_formula_sum            'C42 H70 Ca Cl3 Cu6 Hg N7 O30 S4'
_chemical_formula_weight         2009.55
_space_group_crystal_system      hexagonal
_space_group_IT_number           173
_space_group_name_Hall           'P 6c'
_space_group_name_H-M_alt        'P 63'
_atom_sites_solution_hydrogens   geom
_audit_creation_method           SHELXL-2018/3
_cell_angle_alpha                90
_cell_angle_beta                 90
_cell_angle_gamma                120
_cell_formula_units_Z            2
_cell_length_a                   17.969(4)
_cell_length_b                   17.969(4)
_cell_length_c                   12.949(4)
_cell_measurement_reflns_used    5502
_cell_measurement_temperature    296(2)
_cell_measurement_theta_max      24.13
_cell_measurement_theta_min      2.27
_cell_volume                     3620.9(16)
_computing_cell_refinement       'Bruker APEX'
_computing_data_collection       'Bruker APEX'
_computing_data_reduction        'Bruker SAINT'
_computing_molecular_graphics    'Bruker SHELXTL'
_computing_publication_material  'Bruker SHELXTL'
_computing_structure_refinement  'SHELXL-2018/3 (Sheldrick, 2018)'
_diffrn_ambient_temperature      296(2)
_diffrn_measured_fraction_theta_full 1.000
_diffrn_measured_fraction_theta_max 0.998
_diffrn_measurement_device_type  'CCD area detector'
_diffrn_measurement_method       'phi and omega scans'
_diffrn_radiation_type           MoK\a
_diffrn_radiation_wavelength     0.71073
_diffrn_reflns_av_R_equivalents  0.0546
_diffrn_reflns_av_unetI/netI     0.0442
_diffrn_reflns_Laue_measured_fraction_full 1.000
_diffrn_reflns_Laue_measured_fraction_max 0.998
_diffrn_reflns_limit_h_max       22
_diffrn_reflns_limit_h_min       -22
_diffrn_reflns_limit_k_max       22
_diffrn_reflns_limit_k_min       -19
_diffrn_reflns_limit_l_max       15
_diffrn_reflns_limit_l_min       -14
_diffrn_reflns_number            29685
_diffrn_reflns_point_group_measured_fraction_full 0.946
_diffrn_reflns_point_group_measured_fraction_max 0.944
_diffrn_reflns_theta_full        25.242
_diffrn_reflns_theta_max         26.086
_diffrn_reflns_theta_min         2.046
_diffrn_source                   'fine-focus sealed tube'
_exptl_absorpt_coefficient_mu    4.218
_exptl_absorpt_correction_T_max  0.976
_exptl_absorpt_correction_T_min  0.873
_exptl_absorpt_correction_type   multi-scan
_exptl_absorpt_process_details   sadabs
_exptl_crystal_colour            blue
_exptl_crystal_density_diffrn    1.843
_exptl_crystal_description       hexagonal
_exptl_crystal_F_000             2000
_exptl_crystal_size_max          0.18
_exptl_crystal_size_mid          0.14
_exptl_crystal_size_min          0.14
_refine_diff_density_max         2.572
_refine_diff_density_min         -0.828
_refine_diff_density_rms         0.223
_refine_ls_abs_structure_details
;
 Flack x determined using 1136 quotients [(I+)-(I-)]/[(I+)+(I-)]
 (Parsons, Flack and Wagner, Acta Cryst. B69 (2013) 249-259).
;
_refine_ls_abs_structure_Flack   0.34(2)
_refine_ls_extinction_method     none
_refine_ls_goodness_of_fit_ref   1.032
_refine_ls_hydrogen_treatment    constr
_refine_ls_matrix_type           full
_refine_ls_number_parameters     229
_refine_ls_number_reflns         4525
_refine_ls_number_restraints     123
_refine_ls_restrained_S_all      1.045
_refine_ls_R_factor_all          0.1120
_refine_ls_R_factor_gt           0.0826
_refine_ls_shift/su_max          0.000
_refine_ls_shift/su_mean         0.000
_refine_ls_structure_factor_coef Fsqd
_refine_ls_weighting_details
'w=1/[\s^2^(Fo^2^)+(0.1882P)^2^+8.2543P] where P=(Fo^2^+2Fc^2^)/3'
_refine_ls_weighting_scheme      calc
_refine_ls_wR_factor_gt          0.2409
_refine_ls_wR_factor_ref         0.2735
_reflns_Friedel_coverage         0.809
_reflns_Friedel_fraction_full    0.887
_reflns_Friedel_fraction_max     0.886
_reflns_number_gt                3247
_reflns_number_total             4525
_reflns_threshold_expression     'I > 2\s(I)'
_cod_data_source_file            ja9b06250_si_005.cif
_cod_data_source_block           MV_HgMB5_0m
_cod_original_cell_volume        3620.8(19)
_cod_database_code               4128888
_shelx_shelxl_version_number     2018/3
_shelx_space_group_comment
;
The symmetry employed for this shelxl refinement is uniquely defined
by the following loop, which should always be used as a source of
symmetry information in preference to the above space-group names.
They are only intended as comments.
;
_shelx_res_file
;
TITL MV_HgMB5_0m in P6(3)
    MV_HgMB5_0m.res
    created by SHELXL-2018/3 at 14:41:27 on 07-Jun-2019
CELL 0.71073  17.96900  17.96900  12.94880  90.0000  90.0000 120.0000
ZERR    2.00   0.00390   0.00390   0.00400   0.0000   0.0000   0.0000
LATT -1
SYMM -Y, X-Y, Z
SYMM -X+Y, -X, Z
SYMM -X, -Y, 0.5+Z
SYMM Y, -X+Y, 0.5+Z
SYMM X-Y, X, 0.5+Z
SFAC C  H  N  O  S  Ca Cu Hg Cl
UNIT 84  140  14  60  8  2  12  2  6
ACTA
OMIT 0 1 0
L.S. 120
BOND
FMAP 2
PLAN 50
DFIX 2.2 0.02 HG1 CL1  HG1 CL2
DANG 2.7 CL1 CL2
DANG 2.7 S1 C1S
TEMP 23.000
EADP C5L > C4L
EADP C7L > C4L
EADP C5L > N4'
EADP S1 S1L
EADP C2S C1S
EADP CL1 CL2
DFIX 2.8 HG1 S1
DFIX 3.4 S1L N4'
DFIX 2.6 N4' C1L
DFIX 2.6 S1L C10L
DFIX 2.4 C1L C9L  C7L C2L
DFIX 1.82 0.01 C9L S1L  C1L S1L
DFIX 1.40 0.01 N4' C7L
DFIX 1.40 0.01 N4' C2L
DFIX 2.45 0.001 C2L C7L
FLAT 0.1 S1L C1L C2L C3L C4L C5L C6L C7L C9L C10L C11L C12L C8L
DFIX 1.54 0.01 C6 C2H  C3 C1S  C1S C2S
DFIX 1.45 0.02 C2H O2H'
DFIX 1.85 0.01 C2S S1  C3S S1
DANG 2.6 0.02 C3S C2S
REM DANG 2.7 0.02 C1S O6
DANG 2.7 C3 C2S
DANG 2.7 O3 C1S
SADI HG1 CL1  HG1 CL2
SIMU 0.04 0.008 0.9 C5L > C4L
DELU C5L > C4L
SIMU 0.04 0.008 0.9 C7L > C8L
DELU C7L > C8L
SIMU 0.04 0.008 0.9 C2H > O2H'
SIMU 0.04 0.008 0.9 C2S > CL2
REM SIMU 0.04 0.008 0.9 S1 > CL2
REM O3W   4   0.21656   0.20002   0.18913  11.00000   0.31051
SIMU 0.04 0.008 0.9 S1L > N4'
WGHT    0.188200    8.254300
FVAR       0.09947   0.77252
CU1   7    0.863452    0.445914   -1.150205    11.00000    0.02298    0.03356 =
         0.03438    0.00045   -0.00648    0.00847
CU2   7    0.864405    0.443249   -1.409204    11.00000    0.02306    0.03287 =
         0.03751   -0.00147    0.01048    0.00821
CA1   6    0.666667    0.333333   -1.279486    10.33333    0.01549    0.01549 =
         0.02139    0.00000    0.00000    0.00774
SIMU N1 > C6
DELU N1 > C6
N1    3    0.765802    0.323673   -1.414803    11.00000    0.01505    0.02136 =
         0.01611    0.00287    0.00747    0.00319
N2    3    0.759275    0.323943   -1.143681    11.00000    0.01630    0.01664 =
         0.05415    0.00894   -0.01493    0.00601
O1    4    0.979605    0.557373   -1.131539    11.00000    0.02847    0.06260 =
         0.07424    0.00846   -0.02305    0.02018
O2    4    0.980650    0.550455   -1.424506    11.00000    0.03119    0.02585 =
         0.03326   -0.00408    0.00592    0.00709
O3    4    0.900445    0.408388   -1.030501    11.00000    0.04270    0.05375 =
         0.09341    0.00940   -0.01320    0.01452
O4    4    0.905432    0.401207   -1.518791    11.00000    0.03123    0.04141 =
         0.05051    0.00052    0.01807    0.01261
O5    4    0.797043    0.503894   -1.503947    11.00000    0.06618    0.11508 =
         0.08431    0.05625    0.03521    0.06320
O6    4    0.798760    0.507284   -1.052379    11.00000    0.02265    0.05827 =
         0.06456   -0.02631   -0.00134    0.02245
O1HH  4    0.823933    0.465180   -1.281969    11.00000    0.02703    0.03623 =
         0.02928   -0.00647   -0.00959    0.01680
C1    1    1.019798    0.542223   -1.060267    11.00000    0.02565    0.05653 =
         0.04247   -0.00051   -0.00932    0.01890
C2    1    1.022107    0.542728   -1.501002    11.00000    0.02871    0.02425 =
         0.03944    0.00270    0.00362    0.01194
C3    1    0.845348    0.315198   -1.005838    11.00000    0.05097    0.05497 =
         0.05746    0.03006   -0.00466    0.01656
C4    1    0.770111    0.280293   -1.062965    11.00000    0.03328    0.04821 =
         0.03898    0.01751    0.00694    0.02114
C5    1    0.764491    0.276576   -1.480929    11.00000    0.03551    0.02503 =
         0.03923    0.01101    0.02517    0.00176
C6    1    0.848114    0.314278   -1.558762    11.00000    0.03971    0.03936 =
         0.07874   -0.01134    0.04243   -0.00295
AFIX  13
H6A   2    0.832359    0.314674   -1.631133    11.00000   -1.20000
AFIX   0
C2H   1    0.888250    0.255920   -1.540735    11.00000    0.06304    0.04908 =
         0.18088   -0.01587    0.05722    0.01899
AFIX  23
H2HA  2    0.847597    0.198643   -1.565136    11.00000   -1.20000
H2HB  2    0.939195    0.277402   -1.583543    11.00000   -1.20000
AFIX   0
O2H'  4    0.912102    0.248578   -1.435747    11.00000    0.21717
SIMU C3 > C3S
DELU C3 > C3S
C2S   1    0.755428    0.264287   -0.845081    11.00000    0.23710
AFIX  23
H2SA  2    0.751255    0.247621   -0.773129    11.00000   -1.20000
H2SB  2    0.706460    0.220755   -0.883156    11.00000   -1.20000
AFIX   0
C1S   1    0.841720    0.284200   -0.894004    11.00000    0.23710
AFIX  23
H1SA  2    0.846881    0.232984   -0.893684    11.00000   -1.20000
H1SB  2    0.888999    0.328368   -0.854360    11.00000   -1.20000
AFIX   0
C3S   1    0.701713    0.353325   -0.744033    11.00000    0.42680
S1    5    0.768611    0.372699   -0.860796    11.00000    0.43039
HG1   8    0.854645    0.509600   -0.721380    10.33333    0.68636
CL1   9    0.932441    0.633783   -0.643924    10.33333    0.24416
CL2   9    0.968800    0.579979   -0.821144    10.33333    0.24416
ISOR O1W O2W
O1W   4    1.026233    0.691883   -0.261016    11.00000    0.50857    0.19152 =
         0.26686    0.15304    0.16142    0.12879
O2W   4    0.824398    0.639504   -0.260127    11.00000    0.21398
S1L   5    1.001823    0.760192   -0.469608    10.33333    0.43039
AFIX  66
C7L   1    0.873457    0.819390   -0.436493    10.33333    0.34863
C9L   1    0.930823    0.792733   -0.406952    10.33333    0.34863
C10L  1    0.940873    0.780301   -0.303075    10.33333    0.34863
C11L  1    0.893556    0.794524   -0.228739    10.33333    0.34863
C12L  1    0.836189    0.821181   -0.258278    10.33333    0.34863
C8L   1    0.826138    0.833614   -0.362154    10.33333    0.34863
AFIX  66
C5L   1    0.946409    0.814044   -0.796280    10.33333    0.34863
C6L   1    1.002246    0.784335   -0.771282    10.33333    0.34863
C3L   1    1.014269    0.770291   -0.668619    10.33333    0.34863
C1L   1    0.970455    0.785957   -0.590953    10.33333    0.34863
C2L   1    0.914618    0.815666   -0.615950    10.33333    0.34863
C4L   1    0.902595    0.829710   -0.718612    10.33333    0.34863
AFIX   0
N4'   3    0.870681    0.838143   -0.541584    10.33333    0.34863

HKLF 4




REM  MV_HgMB5_0m in P6(3)
REM wR2 = 0.273471, GooF = S = 1.03173, Restrained GooF = 1.04501 for all data
REM R1 = 0.082578 for 3247 Fo > 4sig(Fo) and 0.111964 for all 4525 data
REM 229 parameters refined using 123 restraints

END

WGHT      0.2000      0.0000

REM Highest difference peak  2.572,  deepest hole -0.828,  1-sigma level  0.223
Q1    1   1.0572  0.6180 -0.7776  11.00000  0.05    2.57
Q2    1   0.8170  0.3235 -0.8804  11.00000  0.05    1.77
Q3    1   0.8182  0.3242 -1.6748  11.00000  0.05    1.70
Q4    1   0.9132  0.6247 -0.9107  11.00000  0.05    1.40
Q5    1   0.9153  0.6904 -0.4367  11.00000  0.05    1.22
Q6    1   0.9172  0.6907 -0.1162  11.00000  0.05    1.17
Q7    1   0.8612  0.7114 -0.7764  11.00000  0.05    0.99
Q8    1   0.7793  0.4177 -0.7264  11.00000  0.05    0.87
Q9    1   0.7022  0.1392 -0.8646  11.00000  0.05    0.83
Q10   1   0.8903  0.4243 -1.3852  11.00000  0.05    0.75
Q11   1   0.8891  0.4232 -1.1742  11.00000  0.05    0.73
Q12   1   0.9957  0.6741 -0.2802  11.00000  0.05    0.72
Q13   1   0.6667  0.3333 -0.9530  10.33333  0.05    0.69
Q14   1   0.6667  0.3333 -0.6533  10.33333  0.05    0.69
Q15   1   0.7741  0.4163 -0.8273  11.00000  0.05    0.67
Q16   1   0.9729  0.7029 -0.3830  11.00000  0.05    0.65
Q17   1   0.8620  0.3585 -0.7681  11.00000  0.05    0.62
Q18   1   0.9904  0.7375 -0.7173  11.00000  0.05    0.62
Q19   1   0.8619  0.5624 -0.6955  11.00000  0.05    0.60
Q20   1   0.8787  0.8764 -0.6728  11.00000  0.05    0.53
Q21   1   0.6667  0.3333 -1.0186  10.33333  0.05    0.50
Q22   1   0.9418  0.6526 -0.2813  11.00000  0.05    0.50
Q23   1   0.7552  0.3417 -1.6187  11.00000  0.05    0.50
Q24   1   0.7071  0.3201 -0.9926  11.00000  0.05    0.46
Q25   1   1.0000  1.0000 -0.5388  10.33333  0.05    0.46
Q26   1   0.8277  0.3902 -0.7757  11.00000  0.05    0.45
Q27   1   0.8195  0.5349 -0.9915  11.00000  0.05    0.43
Q28   1   0.7909  0.4820 -0.9795  11.00000  0.05    0.43
Q29   1   0.8637  0.5688 -0.9597  11.00000  0.05    0.42
Q30   1   0.9398  0.8589 -0.4447  11.00000  0.05    0.42
Q31   1   0.8454  0.4012 -1.5669  11.00000  0.05    0.42
Q32   1   0.7040  0.3212 -1.5673  11.00000  0.05    0.42
Q33   1   0.8703  0.2982 -0.9779  11.00000  0.05    0.41
Q34   1   0.8922  0.6405 -0.8170  11.00000  0.05    0.41
Q35   1   0.8423  0.3363 -1.5824  11.00000  0.05    0.38
Q36   1   0.7695  0.4744 -1.5854  11.00000  0.05    0.38
Q37   1   1.0292  0.8150 -0.6803  11.00000  0.05    0.38
Q38   1   1.0000  1.0000 -0.4409  10.33333  0.05    0.38
Q39   1   0.9513  0.3778 -1.5638  11.00000  0.05    0.35
Q40   1   1.0718  0.5625 -1.1805  11.00000  0.05    0.35
Q41   1   0.7903  0.3541 -1.5689  11.00000  0.05    0.35
Q42   1   0.7996  0.6086 -0.2789  11.00000  0.05    0.35
Q43   1   0.9891  0.5337 -1.1575  11.00000  0.05    0.35
Q44   1   0.8822  0.1612 -0.8709  11.00000  0.05    0.34
Q45   1   0.9582  0.4362 -1.4091  11.00000  0.05    0.34
Q46   1   0.9385  0.8567 -0.1177  11.00000  0.05    0.34
Q47   1   0.8964  0.4261 -1.6384  11.00000  0.05    0.33
Q48   1   0.9942  0.7783 -0.6417  11.00000  0.05    0.33
Q49   1   0.8330  0.1362 -1.6673  11.00000  0.05    0.32
Q50   1   0.8310  0.5568 -1.5381  11.00000  0.05    0.32
;
_shelx_res_checksum              3011
_shelx_hkl_file
;
  -1   0   0   -0.32    0.06
  -1   0   0   -0.29    0.04
  -1   0   0   -0.27    0.06
   1   0   0   -0.30    0.06
   1   0   0   -0.22    0.06
   1   0   0   -0.31    0.07
  -2   0   0  193.03    5.06
  -2   0   0  197.37    5.02
  -2   0   0  189.52    5.12
   2   0   0  200.62    5.13
   2   0   0  201.04    5.03
   2   0   0  191.08    5.06
  -3   0   0  347.45    8.87
  -3   0   0  345.06    8.79
   3   0   0  347.24    8.97
   3   0   0  341.97    8.77
   3   0   0  336.07    9.29
  -4   0   0    9.20    0.79
  -4   0   0    9.43    0.77
  -4   0   0    8.09    0.72
   4   0   0    8.43    0.70
   4   0   0    9.18    0.74
   4   0   0    8.60    0.61
   4   0   0    8.01    0.70
  -5   0   0    0.70    0.53
  -5   0   0    0.16    0.54
  -5   0   0   -0.02    0.53
   5   0   0    0.23    0.52
   5   0   0   -0.30    0.53
   5   0   0    0.37    0.48
   5   0   0    0.14    0.44
  -6   0   0    0.33    0.60
  -6   0   0   -0.80    0.49
  -6   0   0    0.39    0.65
   6   0   0    1.01    0.64
   6   0   0   -0.21    0.54
   6   0   0    0.64    0.53
   6   0   0    0.71    0.46
  -7   0   0  435.81   11.65
  -7   0   0  434.91   11.41
   7   0   0  445.77   11.38
   7   0   0  413.56   11.43
   7   0   0  435.07   11.86
  -8   0   0   46.61    2.12
  -8   0   0   41.17    1.89
   8   0   0   45.84    1.96
   8   0   0   43.75    1.77
  -9   0   0  222.44    6.82
  -9   0   0  240.10    6.74
   9   0   0  234.50    6.73
   9   0   0  239.09    6.70
 -10   0   0   43.23    2.32
 -10   0   0   49.17    2.27
  10   0   0   47.87    1.91
  10   0   0   48.76    2.28
 -11   0   0   34.15    1.94
 -11   0   0   36.37    2.09
  11   0   0   37.37    1.70
  11   0   0   36.78    2.10
 -12   0   0    1.95    0.97
 -12   0   0    2.02    1.14
  12   0   0    1.90    0.65
  12   0   0    3.67    1.15
 -13   0   0    7.29    1.34
 -13   0   0    5.37    1.28
  13   0   0    4.68    1.26
 -14   0   0   23.09    2.19
 -14   0   0   27.78    2.14
  14   0   0   26.52    2.16
 -15   0   0    1.22    1.29
 -15   0   0   -0.27    1.30
  15   0   0   -0.50    1.19
 -16   0   0    5.28    1.63
 -16   0   0    6.91    1.59
  16   0   0    3.57    1.50
 -17   0   0    9.52    1.83
 -17   0   0   11.75    1.92
  17   0   0    8.49    1.63
 -18   0   0    1.76    1.55
 -18   0   0    0.28    1.54
  18   0   0    1.66    1.56
 -19   0   0    7.73    2.08
 -19   0   0    9.06    1.96
  19   0   0   15.54    2.20
  19  -1   0   25.94    2.54
 -19   1   0   23.95    2.49
 -19   1   0   27.47    2.80
  18  -1   0    2.12    1.56
 -18   1   0    4.04    1.54
 -18   1   0    3.93    1.65
  17  -1   0   27.94    2.36
 -17   1   0   23.78    2.29
 -17   1   0   26.00    2.47
  16  -1   0    5.00    1.44
 -16   1   0    3.94    1.44
 -16   1   0    6.67    1.50
  15  -1   0   32.06    2.17
 -15   1   0   34.44    2.37
 -15   1   0   31.82    2.29
  14  -1   0    2.58    1.23
 -14   1   0    3.43    1.22
 -14   1   0    3.72    1.15
  13  -1   0   11.47    1.42
  13  -1   0    8.92    0.92
 -13   1   0    8.51    1.45
 -13   1   0    8.26    1.34
  12  -1   0   48.67    2.37
  12  -1   0   46.25    1.97
 -12   1   0   47.79    2.52
 -12   1   0   43.27    2.31
  11  -1   0   30.34    1.57
  11  -1   0   27.77    1.85
 -11   1   0   30.25    1.99
 -11   1   0   32.51    1.88
  10  -1   0    0.88    0.56
  10  -1   0    0.29    0.76
 -10   1   0   -0.51    0.83
 -10   1   0    0.05    0.72
   9  -1   0   79.31    2.77
   9  -1   0   77.28    2.61
  -9   1   0   72.57    2.87
  -9   1   0   75.98    2.76
   8  -1   0    0.78    0.56
   8  -1   0    1.00    0.67
   8  -1   0    1.96    0.72
  -8   1   0    1.99    0.74
  -8   1   0    1.57    0.81
   7  -1   0   96.21    3.08
   7  -1   0   95.86    3.02
   7  -1   0   97.23    3.06
  -7   1   0  100.11    3.13
  -7   1   0   97.12    3.05
  -7   1   0   97.35    3.19
   6  -1   0    7.88    0.78
   6  -1   0    8.53    0.81
   6  -1   0    8.82    0.70
   6  -1   0    8.06    0.74
  -6   1   0    9.75    0.87
  -6   1   0    8.75    0.83
  -6   1   0    8.82    0.89
   5  -1   0    2.24    0.49
   5  -1   0    2.32    0.58
   5  -1   0    2.49    0.48
   5  -1   0    2.24    0.51
  -5   1   0    2.60    0.58
  -5   1   0    3.18    0.58
  -5   1   0    2.63    0.57
  -5   1   0    2.17    0.60
   4  -1   0  298.95    7.74
   4  -1   0  295.28    7.56
   4  -1   0  292.45    7.61
   4  -1   0  291.26    8.00
  -4   1   0  288.67    8.03
  -4   1   0  293.25    7.62
  -4   1   0  292.90    7.56
  -4   1   0  285.44    7.73
   3  -1   0   60.27    1.78
   3  -1   0   61.06    1.85
   3  -1   0   64.34    1.85
   3  -1   0   59.37    1.76
  -3   1   0   59.02    1.81
  -3   1   0   59.08    1.78
  -3   1   0   63.26    1.78
  -3   1   0   61.60    1.89
  -2   1   0  160.51    4.46
  -2   1   0  164.88    4.15
   1  -1   0   -0.31    0.01
   1  -1   0   -0.29    0.02
  -1   1   0   -0.37    0.09
  -1   1   0   -0.30    0.05
  -1   1   0   -0.34    0.06
   0  -1   0   -0.31    0.01
   0  -1   0   -0.31    0.01
   0  -1   0   -0.29    0.01
   0  -1   0   -0.27    0.04
   0   1   0   -0.31    0.08
   0   1   0   -0.40    0.08
   0   1   0   -0.31    0.07
   0   1   0   -0.38    0.06
  -2  -1   0   76.60    2.24
  -2  -1   0   77.00    2.20
  -2  -1   0   75.34    2.21
   2   1   0   74.13    2.19
   2   1   0   77.24    2.23
   2   1   0   77.33    2.23
  -3  -1   0  296.63    7.73
   3   1   0  297.52    7.79
   3   1   0  293.70    7.75
   3   1   0  292.29    7.65
  -4  -1   0   43.37    1.66
  -4  -1   0   44.62    1.75
  -4  -1   0   45.27    1.64
   4   1   0   45.39    1.73
   4   1   0   44.82    1.67
   4   1   0   47.24    1.67
  -5  -1   0   89.16    2.69
  -5  -1   0   84.07    2.74
  -5  -1   0   80.14    2.65
   5   1   0   81.36    2.69
   5   1   0   80.85    2.62
   5   1   0   74.95    2.63
  -6  -1   0  205.76    6.06
  -6  -1   0  216.35    5.98
   6   1   0  219.01    5.96
   6   1   0  213.36    6.02
  -7  -1   0   97.41    3.31
  -7  -1   0   97.38    3.18
   7   1   0   95.87    3.27
   7   1   0   96.40    3.08
   7   1   0   96.07    3.12
  -8  -1   0    4.12    0.95
  -8  -1   0    3.92    0.94
   8   1   0    3.01    0.82
   8   1   0    4.16    0.66
  -9  -1   0  169.06    5.22
  -9  -1   0  166.90    5.33
   9   1   0  173.36    5.03
   9   1   0  167.10    5.17
 -10  -1   0  305.36    8.76
 -10  -1   0  312.78    8.99
  10   1   0  310.77    8.78
  10   1   0  309.83    8.73
 -11  -1   0   46.22    2.29
 -11  -1   0   46.16    2.51
  11   1   0   48.25    2.45
  11   1   0   48.50    1.96
 -12  -1   0   55.43    2.75
 -12  -1   0   57.43    2.78
  12   1   0   58.85    2.24
  12   1   0   56.98    2.79
 -13  -1   0   34.41    2.41
 -13  -1   0   31.67    2.24
  13   1   0   32.71    2.19
 -14  -1   0    1.74    1.29
 -14  -1   0   -0.11    1.18
  14   1   0   -0.71    1.20
 -15  -1   0    5.47    1.37
 -15  -1   0    5.30    1.58
  15   1   0    7.08    1.60
 -16  -1   0    9.28    1.79
 -16  -1   0    6.72    1.63
  16   1   0   13.22    1.90
 -17  -1   0   33.75    2.94
 -17  -1   0   28.89    2.63
  17   1   0   36.00    2.76
 -18  -1   0    1.36    1.54
 -18  -1   0    0.49    1.60
  18   1   0    1.17    1.58
  20  -2   0   15.20    2.21
 -20   2   0   15.96    2.20
 -20   2   0   19.10    2.39
  19  -2   0    0.00    1.46
 -19   2   0    1.18    1.33
 -19   2   0    2.58    1.50
  18  -2   0    1.44    1.43
 -18   2   0    0.50    1.28
 -18   2   0    1.00    1.39
  17  -2   0   31.77    2.42
 -17   2   0   32.33    2.31
 -17   2   0   35.24    2.64
  16  -2   0   77.65    3.46
 -16   2   0   79.16    3.49
 -16   2   0   76.77    3.68
  15  -2   0    1.08    1.13
 -15   2   0   -0.27    1.20
 -15   2   0    1.07    1.02
  14  -2   0   18.81    1.73
 -14   2   0   18.57    1.87
 -14   2   0   20.11    1.80
  13  -2   0   16.58    1.52
  13  -2   0   17.00    1.37
 -13   2   0   12.99    1.59
 -13   2   0   17.70    1.58
  12  -2   0   76.04    2.96
  12  -2   0   76.13    2.71
 -12   2   0   76.19    3.17
 -12   2   0   74.35    2.98
  11  -2   0    5.12    0.77
  11  -2   0    5.60    0.88
 -11   2   0    4.55    1.08
 -11   2   0    7.09    1.08
  10  -2   0    2.84    0.65
  10  -2   0    1.39    0.74
 -10   2   0    2.33    0.85
 -10   2   0    2.18    0.84
   9  -2   0  331.16    9.13
   9  -2   0  333.68    9.44
   9  -2   0  351.42    9.10
  -9   2   0  349.01    9.39
  -9   2   0  325.53    9.09
   8  -2   0  290.72    8.23
   8  -2   0  309.21    7.92
   8  -2   0  303.77    7.99
  -8   2   0  281.67    8.34
  -8   2   0  284.66    7.96
  -8   2   0  288.42    7.90
  -8   2   0  299.55    8.15
   7  -2   0  575.30   14.60
   7  -2   0  540.05   15.11
   7  -2   0  571.19   14.27
   7  -2   0  554.74   14.36
  -7   2   0  555.72   14.28
  -7   2   0  540.17   14.38
  -7   2   0  541.65   15.18
  -7   2   0  567.01   14.64
   6  -2   0   52.98    1.89
   6  -2   0   54.28    1.83
   6  -2   0   56.11    1.94
   6  -2   0   50.45    1.80
  -6   2   0   54.04    1.85
  -6   2   0   53.04    1.90
  -6   2   0   52.21    1.85
  -6   2   0   48.82    1.96
   5  -2   0   25.91    1.22
   5  -2   0   27.57    1.13
   5  -2   0   25.86    1.18
   5  -2   0   24.19    1.14
  -5   2   0   26.11    1.16
  -5   2   0   24.68    1.28
  -5   2   0   26.68    1.22
  -5   2   0   27.53    1.17
   4  -2   0   66.47    2.00
   4  -2   0   67.12    2.06
   4  -2   0   68.38    2.17
   4  -2   0   69.72    2.00
  -4   2   0   66.53    2.05
  -4   2   0   67.96    1.97
  -4   2   0   67.23    2.20
   3  -2   0   76.53    2.32
   3  -2   0   76.46    2.14
   3  -2   0   75.35    2.10
  -3   2   0   78.36    2.15
  -3   2   0   76.01    2.34
  -3   2   0   74.87    2.07
  -2   2   0  198.07    5.00
  -2   2   0  199.43    5.07
  -2   2   0  193.66    5.44
   0   2   0  192.32    5.05
   0   2   0  197.78    5.07
   0   2   0  202.40    5.01
   0   2   0  191.93    5.07
  -1  -2   0   59.30    1.80
  -1  -2   0   62.48    1.85
  -1  -2   0   63.46    1.82
   1   2   0   59.45    1.84
   1   2   0   60.88    1.81
   1   2   0   60.93    1.81
   1   2   0   63.66    1.83
  -2  -2   0   68.39    2.08
  -2  -2   0   66.58    2.11
   2   2   0   65.61    2.04
   2   2   0   70.18    2.13
   2   2   0   66.83    2.09
  -3  -2   0   69.05    2.20
  -3  -2   0   68.29    2.25
  -3  -2   0   68.83    2.21
   3   2   0   67.76    2.21
   3   2   0   68.20    2.23
   3   2   0   67.97    2.19
  -4  -2   0   44.21    1.78
  -4  -2   0   45.41    1.81
  -4  -2   0   47.95    1.87
   4   2   0   45.46    1.88
   4   2   0   48.85    1.79
   4   2   0   48.85    1.81
  -5  -2   0  106.56    3.42
  -5  -2   0  106.07    3.33
  -5  -2   0  106.90    3.42
   5   2   0  107.58    3.29
   5   2   0  109.87    3.41
   5   2   0  109.44    3.42
  -6  -2   0   91.42    3.09
  -6  -2   0   86.04    2.98
   6   2   0   86.25    2.94
   6   2   0   92.90    3.09
   6   2   0   96.34    3.09
  -7  -2   0   29.77    1.64
  -7  -2   0   30.50    1.75
   7   2   0   30.18    1.82
  -8  -2   0   60.48    2.54
  -8  -2   0   63.50    2.66
   8   2   0   64.68    2.64
  -9  -2   0   40.02    2.02
  -9  -2   0   41.85    2.10
   9   2   0   38.80    2.15
   9   2   0   39.96    1.81
 -10  -2   0   22.96    1.77
 -10  -2   0   22.83    1.86
  10   2   0   24.32    1.46
  10   2   0   21.43    1.76
 -11  -2   0    0.97    1.09
 -11  -2   0    1.13    1.06
  11   2   0    0.81    0.60
  11   2   0    0.86    1.04
 -12  -2   0    7.32    1.48
 -12  -2   0   10.07    1.53
  12   2   0    7.88    1.47
 -13  -2   0   16.11    1.92
 -13  -2   0   15.97    1.82
  13   2   0   17.18    1.89
 -14  -2   0    1.33    1.20
 -14  -2   0    1.34    1.25
  14   2   0    0.16    1.30
 -15  -2   0   52.58    3.05
 -15  -2   0   45.32    3.02
  15   2   0   55.61    2.97
 -16  -2   0   13.90    2.01
 -16  -2   0   14.69    2.15
  16   2   0   16.24    2.13
 -17  -2   0   -0.02    1.52
 -17  -2   0    1.90    1.68
  17   2   0    0.93    1.64
 -18  -2   0    5.15    1.72
 -18  -2   0    5.60    1.85
  18   2   0    4.39    1.72
  20  -3   0    8.42    1.79
 -20   3   0    7.66    1.75
 -20   3   0    4.98    1.86
  19  -3   0   -0.22    1.35
 -19   3   0    0.26    1.36
 -19   3   0    0.08    1.49
  18  -3   0   18.19    1.96
 -18   3   0   14.92    1.96
 -18   3   0   17.25    2.17
  17  -3   0    6.35    1.45
 -17   3   0    7.35    1.54
 -17   3   0    6.49    1.60
  16  -3   0   21.43    1.88
 -16   3   0   18.77    1.86
 -16   3   0   15.34    1.85
  15  -3   0   -1.08    1.02
 -15   3   0    1.22    1.14
 -15   3   0   -0.03    1.04
  14  -3   0   17.22    1.58
 -14   3   0   14.36    1.55
 -14   3   0   14.88    1.72
  13  -3   0   94.56    3.41
 -13   3   0   98.64    3.71
 -13   3   0   88.02    3.41
  12  -3   0    7.60    0.88
  12  -3   0    7.25    1.04
 -12   3   0    7.62    1.16
 -12   3   0    6.53    1.08
  11  -3   0   57.25    2.34
  11  -3   0   59.79    2.34
 -11   3   0   66.08    2.67
 -11   3   0   62.58    2.49
  10  -3   0  217.34    6.22
  10  -3   0  218.56    6.40
 -10   3   0  215.26    6.52
 -10   3   0  223.37    6.25
 -10   3   0  222.60    6.44
   9  -3   0    1.59    0.62
   9  -3   0    1.62    0.68
   9  -3   0    0.76    0.62
  -9   3   0    2.40    0.74
  -9   3   0    0.99    0.78
  -9   3   0    1.94    0.71
   8  -3   0    1.11    0.61
   8  -3   0    0.69    0.57
   8  -3   0    0.85    0.55
  -8   3   0    1.86    0.65
  -8   3   0    0.68    0.69
  -8   3   0    1.07    0.70
   7  -3   0  241.91    6.54
   7  -3   0  237.78    6.35
   7  -3   0  237.44    6.40
   7  -3   0  231.99    6.74
  -7   3   0  236.67    6.36
  -7   3   0  237.13    6.81
  -7   3   0  236.83    6.55
   6  -3   0  172.67    4.66
   6  -3   0  167.97    4.94
   6  -3   0  165.88    4.61
   6  -3   0  171.54    4.74
  -6   3   0  171.22    4.76
  -6   3   0  171.72    4.60
  -6   3   0  166.79    4.98
   5  -3   0   71.33    2.36
   5  -3   0   69.40    2.11
   5  -3   0   69.59    2.14
   5  -3   0   71.10    2.19
  -5   3   0   70.62    2.38
  -5   3   0   69.99    2.17
  -5   3   0   69.97    2.09
   4  -3   0  293.00    7.47
   4  -3   0  284.62    7.36
   4  -3   0  288.88    7.95
  -4   3   0  279.33    7.96
  -4   3   0  285.65    7.29
  -4   3   0  285.59    7.46
   3  -3   0  338.57    9.31
   3  -3   0  342.06    8.58
  -3   3   0  342.63    8.58
  -3   3   0  340.11    8.70
  -3   3   0  331.90    9.32
   2  -3   0   61.67    1.62
   2  -3   0   58.79    1.98
   2  -3   0   59.03    1.58
  -2   3   0   61.91    2.04
  -2   3   0   59.89    1.60
   1  -3   0   78.70    2.10
  -1   3   0   76.58    2.10
  -1   3   0   77.76    2.08
  -1   3   0   76.05    2.10
  -1   3   0   80.09    2.41
   0  -3   0  342.14    8.77
   0  -3   0  339.73    8.74
   0  -3   0  333.32    8.64
   0   3   0  340.84    8.63
   0   3   0  341.39    8.72
   0   3   0  342.33    8.76
  -1  -3   0  299.56    7.64
  -1  -3   0  292.73    7.73
  -1  -3   0  292.35    7.71
   1   3   0  288.57    7.73
   1   3   0  300.89    7.62
   1   3   0  297.02    7.73
   1   3   0  291.40    7.70
  -2  -3   0   26.38    1.23
  -2  -3   0   27.37    1.25
  -2  -3   0   26.23    1.19
   2   3   0   26.10    1.23
   2   3   0   26.29    1.25
   2   3   0   26.33    1.22
   2   3   0   25.47    1.18
  -3  -3   0  170.96    4.77
  -3  -3   0  164.18    4.66
  -3  -3   0  161.13    4.71
   3   3   0  167.65    4.64
   3   3   0  172.94    4.76
   3   3   0  167.02    4.70
   3   3   0  166.32    4.69
  -4  -3   0    3.20    0.68
  -4  -3   0    1.69    0.64
  -4  -3   0    2.62    0.74
   4   3   0    1.88    0.73
   4   3   0    0.59    0.56
   4   3   0    1.57    0.59
   4   3   0    1.58    0.58
  -5  -3   0   59.19    2.22
  -5  -3   0   61.19    2.34
   5   3   0   58.17    2.28
   5   3   0   59.40    2.22
   5   3   0   62.53    2.21
  -6  -3   0   78.67    2.89
  -6  -3   0   88.49    3.06
   6   3   0   87.19    3.07
  -7  -3   0  130.63    4.29
  -7  -3   0  130.89    4.17
   7   3   0  133.03    4.28
  -8  -3   0   35.05    2.00
  -8  -3   0   40.04    2.12
   8   3   0   40.24    2.15
  -9  -3   0    1.63    0.96
  -9  -3   0    1.84    1.02
   9   3   0    2.99    0.96
 -10  -3   0   18.07    1.71
 -10  -3   0   19.62    1.77
  10   3   0   19.00    1.69
  10   3   0   17.74    1.42
 -11  -3   0    2.81    1.28
 -11  -3   0    1.67    1.06
  11   3   0    2.97    1.12
 -12  -3   0    6.92    1.44
 -12  -3   0    7.50    1.52
  12   3   0    7.39    1.51
 -13  -3   0    2.08    1.38
 -13  -3   0    1.90    1.36
  13   3   0    5.09    1.48
 -14  -3   0   21.55    2.24
 -14  -3   0   23.64    2.33
  14   3   0   23.04    2.25
 -15  -3   0   -2.23    1.10
 -15  -3   0   -0.51    1.48
  15   3   0    0.35    1.47
 -16  -3   0    4.74    1.77
 -16  -3   0    4.16    1.63
  16   3   0    2.50    1.66
 -17  -3   0    2.54    1.71
 -17  -3   0    1.87    1.65
  17   3   0    0.85    1.68
  20  -4   0    8.46    1.73
 -20   4   0    8.49    1.97
 -20   4   0    8.92    1.77
  19  -4   0    3.85    1.46
 -19   4   0    5.05    1.74
 -19   4   0    7.17    1.58
  18  -4   0    0.25    1.20
 -18   4   0   -0.55    1.17
 -18   4   0    2.02    1.43
  17  -4   0    9.47    1.49
 -17   4   0   10.21    1.67
 -17   4   0    5.61    1.42
  16  -4   0   11.58    1.47
 -16   4   0   10.68    1.52
 -16   4   0   10.06    1.68
  15  -4   0    3.04    1.03
 -15   4   0    2.58    1.09
 -15   4   0    3.07    1.24
  14  -4   0    1.80    0.94
 -14   4   0    2.13    1.02
 -14   4   0    1.69    1.03
  13  -4   0   50.49    2.24
 -13   4   0   51.23    2.50
 -13   4   0   46.88    2.26
  12  -4   0   10.33    1.09
 -12   4   0   11.09    1.26
 -12   4   0    9.56    1.16
 -12   4   0   10.21    1.31
  11  -4   0    4.61    0.83
  11  -4   0    5.04    0.79
 -11   4   0    3.56    0.85
 -11   4   0    4.83    0.93
 -11   4   0    4.72    0.95
  10  -4   0   79.61    2.83
  10  -4   0   78.21    2.72
 -10   4   0   81.67    2.92
 -10   4   0   82.01    2.76
 -10   4   0   76.09    2.92
   9  -4   0    4.99    0.76
   9  -4   0    6.57    0.77
  -9   4   0    6.64    0.86
  -9   4   0    6.99    0.94
  -9   4   0    6.18    0.91
   8  -4   0  107.09    3.47
   8  -4   0  105.96    3.23
   8  -4   0  112.86    3.37
   8  -4   0  107.91    3.26
  -8   4   0  105.07    3.52
  -8   4   0  104.39    3.35
  -8   4   0  111.96    3.23
   7  -4   0    2.57    0.55
   7  -4   0    2.13    0.62
   7  -4   0    1.68    0.54
   7  -4   0    3.06    0.60
  -7   4   0    2.05    0.62
  -7   4   0    1.60    0.54
  -7   4   0    3.08    0.72
   6  -4   0   45.88    1.66
   6  -4   0   46.05    1.88
   6  -4   0   46.59    1.60
   6  -4   0   47.54    1.60
  -6   4   0   44.04    1.64
  -6   4   0   47.39    1.89
  -6   4   0   46.57    1.55
   5  -4   0   49.36    1.52
   5  -4   0   48.34    1.55
   5  -4   0   44.72    1.80
  -5   4   0   45.88    1.56
  -5   4   0   46.74    1.46
  -5   4   0   44.71    1.87
   4  -4   0    8.79    0.57
   4  -4   0    8.06    0.73
  -4   4   0    8.45    0.61
  -4   4   0    9.12    0.58
  -4   4   0    8.00    0.84
   3  -4   0  287.01    7.40
   3  -4   0  284.44    7.36
   3  -4   0  305.14    8.17
  -3   4   0  291.00    7.39
   2  -4   0   66.27    1.85
  -2   4   0   68.64    2.36
  -2   4   0   68.49    1.85
   1  -4   0  287.83    7.47
   1  -4   0  282.54    7.41
  -1   4   0  292.84    7.41
  -1   4   0  285.22    7.42
  -1   4   0  291.11    7.35
   0  -4   0    8.83    0.69
   0  -4   0    7.34    0.62
   0  -4   0    9.75    0.71
   0   4   0    8.53    0.67
   0   4   0    7.94    0.63
   0   4   0    8.44    0.62
  -1  -4   0    1.76    0.53
  -1  -4   0    2.06    0.52
  -1  -4   0    2.53    0.55
   1   4   0    1.97    0.47
   1   4   0    0.97    0.49
   1   4   0    1.86    0.48
   1   4   0    1.37    0.61
  -2  -4   0   52.79    1.90
  -2  -4   0   51.47    1.83
  -2  -4   0   51.56    1.87
   2   4   0   52.79    1.87
   2   4   0   50.91    1.96
   2   4   0   50.97    1.83
   2   4   0   51.12    1.87
  -3  -4   0  219.93    6.30
  -3  -4   0  219.29    6.31
  -3  -4   0  236.65    6.28
   3   4   0  226.59    6.30
   3   4   0  232.35    6.34
   3   4   0  229.82    6.22
   3   4   0  234.64    6.31
  -4  -4   0  105.59    3.43
  -4  -4   0  108.76    3.43
   4   4   0  112.20    3.46
   4   4   0  104.86    3.44
   4   4   0  109.87    3.39
  -5  -4   0   -0.58    0.65
  -5  -4   0    0.09    0.72
   5   4   0   -0.64    0.76
  -6  -4   0  407.67   10.91
  -6  -4   0  406.10   11.07
   6   4   0  395.03   10.94
  -7  -4   0    2.12    0.95
  -7  -4   0    1.41    0.82
   7   4   0    1.29    0.83
  -8  -4   0    0.14    0.90
  -8  -4   0    1.36    0.86
   8   4   0    0.62    0.97
  -9  -4   0   30.42    2.03
  -9  -4   0   30.93    2.09
   9   4   0   27.53    2.03
 -10  -4   0    2.45    1.21
 -10  -4   0    1.21    1.11
  10   4   0    1.65    1.08
 -11  -4   0    1.91    1.25
 -11  -4   0    1.10    1.19
  11   4   0    1.88    1.23
 -12  -4   0   19.57    2.05
 -12  -4   0   19.16    1.94
  12   4   0   20.68    1.99
 -13  -4   0   65.53    3.35
 -13  -4   0   68.12    3.37
  13   4   0   69.41    3.45
 -14  -4   0   -1.44    1.20
 -14  -4   0   -1.11    1.23
  14   4   0    1.58    1.35
 -15  -4   0   -0.26    1.44
 -15  -4   0    0.22    1.42
  15   4   0    0.83    1.46
 -16  -4   0    0.50    1.49
 -16  -4   0    0.58    1.59
  16   4   0    3.47    1.65
  21  -5   0    1.72    1.52
 -21   5   0    1.63    1.65
 -21   5   0    0.86    1.42
  20  -5   0   41.62    2.77
 -20   5   0   30.97    2.82
 -20   5   0   41.36    2.69
  19  -5   0    4.20    1.40
 -19   5   0    6.82    1.54
 -19   5   0    5.33    1.71
  18  -5   0    2.42    1.20
 -18   5   0    0.85    1.21
 -18   5   0    0.82    1.40
  17  -5   0   25.14    1.98
 -17   5   0   27.48    2.07
 -17   5   0   31.71    2.25
  16  -5   0    6.44    1.26
 -16   5   0    4.28    1.26
 -16   5   0    6.15    1.47
  15  -5   0    3.00    1.00
 -15   5   0    4.07    1.10
 -15   5   0    3.08    1.24
  14  -5   0    2.45    0.95
 -14   5   0    3.11    1.17
 -14   5   0    3.53    1.04
 -14   5   0    2.54    1.08
  13  -5   0  158.23    4.89
 -13   5   0  161.32    5.18
 -13   5   0  159.99    4.94
 -13   5   0  160.30    5.25
  12  -5   0   51.13    2.15
 -12   5   0   49.04    2.37
 -12   5   0   47.57    2.16
 -12   5   0   46.54    2.27
  11  -5   0   81.65    2.79
 -11   5   0   80.45    3.00
 -11   5   0   83.89    2.81
 -11   5   0   83.26    3.12
  10  -5   0   60.39    2.42
  10  -5   0   54.52    2.08
 -10   5   0   59.39    2.12
 -10   5   0   55.46    2.41
 -10   5   0   57.76    2.29
   9  -5   0    0.45    0.62
   9  -5   0    1.03    0.55
   9  -5   0    0.26    0.57
  -9   5   0   -0.61    0.75
  -9   5   0    0.20    0.58
  -9   5   0    0.48    0.65
   8  -5   0   63.58    2.17
   8  -5   0   59.63    2.35
   8  -5   0   59.92    2.08
   8  -5   0   62.00    2.04
  -8   5   0   59.33    2.16
  -8   5   0   56.11    2.37
  -8   5   0   58.44    2.02
   7  -5   0  110.25    3.17
   7  -5   0  114.98    3.26
   7  -5   0  107.35    3.51
   7  -5   0  108.34    3.13
  -7   5   0  109.84    3.09
  -7   5   0  109.84    3.26
  -7   5   0  104.08    3.57
   6  -5   0   84.81    2.40
   6  -5   0   83.40    2.76
  -6   5   0   78.20    2.43
  -6   5   0   82.96    2.84
  -6   5   0   78.90    2.33
   5  -5   0    0.77    0.56
   5  -5   0    0.33    0.34
  -5   5   0   -0.09    0.70
  -5   5   0    0.32    0.38
   4  -5   0    1.92    0.25
   4  -5   0    2.52    0.59
   4  -5   0    1.34    0.31
  -4   5   0    1.91    0.34
  -4   5   0    2.12    0.33
  -4   5   0    1.38    0.71
   3  -5   0   26.85    0.84
  -3   5   0   24.59    1.47
  -3   5   0   26.32    0.86
  -3   5   0   25.06    0.86
   2  -5   0   69.02    1.97
  -2   5   0   68.97    1.93
  -2   5   0   68.89    1.99
  -2   5   0   70.33    2.49
  -2   5   0   68.40    1.98
   1  -5   0   46.08    1.61
  -1   5   0   44.92    1.50
  -1   5   0   44.61    1.42
  -1   5   0   45.10    1.52
   0  -5   0    0.80    0.43
   0  -5   0    0.34    0.48
   0  -5   0   -0.41    0.49
   0   5   0   -0.24    0.43
   0   5   0    0.08    0.49
   0   5   0    0.21    0.41
  -1  -5   0    8.63    0.86
  -1  -5   0    9.04    0.81
  -1  -5   0    8.13    0.74
   1   5   0    8.48    0.70
   1   5   0    8.28    0.77
   1   5   0    9.35    0.79
   1   5   0    7.59    0.80
  -2  -5   0  532.98   14.29
  -2  -5   0  576.64   14.49
  -2  -5   0  554.36   14.52
   2   5   0  555.54   14.49
   2   5   0  532.33   14.42
   2   5   0  556.60   14.48
   2   5   0  581.25   14.31
  -3  -5   0    1.02    0.63
  -3  -5   0    2.21    0.70
   3   5   0    1.28    0.79
   3   5   0    0.35    0.56
   3   5   0    2.76    0.70
   3   5   0    2.02    0.66
  -4  -5   0    6.61    0.93
  -4  -5   0    5.87    0.95
   4   5   0    5.04    0.93
  -5  -5   0   56.62    2.39
  -5  -5   0   56.84    2.37
   5   5   0   58.60    2.41
  -6  -5   0  142.58    4.62
  -6  -5   0  146.62    4.58
   6   5   0  141.78    4.62
  -7  -5   0   19.37    1.59
  -7  -5   0   13.46    1.39
   7   5   0   17.98    1.56
  -8  -5   0    9.27    1.32
  -8  -5   0    7.04    1.28
   8   5   0   10.16    1.40
  -9  -5   0  112.65    4.16
  -9  -5   0  109.43    4.19
   9   5   0  114.82    4.20
 -10  -5   0   13.22    1.58
 -10  -5   0   10.05    1.47
  10   5   0   13.37    1.74
 -11  -5   0   30.70    2.15
 -11  -5   0   28.01    2.16
  11   5   0   29.53    2.20
 -12  -5   0   26.86    2.30
 -12  -5   0   31.76    2.59
  12   5   0   27.82    2.31
 -13  -5   0   15.52    2.01
 -13  -5   0   22.85    2.31
  13   5   0   17.10    2.11
 -14  -5   0    0.30    1.42
 -14  -5   0   -0.20    1.48
  14   5   0    6.68    1.77
 -15  -5   0   11.11    2.07
 -15  -5   0    6.39    1.80
  15   5   0    9.36    2.03
 -16  -5   0   22.87    2.63
 -16  -5   0   24.73    2.64
  16   5   0   21.39    2.60
  21  -6   0    3.11    1.48
 -21   6   0    2.19    1.71
 -21   6   0    1.76    1.40
  20  -6   0   20.93    1.99
 -20   6   0   17.34    2.00
 -20   6   0   18.26    2.26
  19  -6   0   17.44    1.86
 -19   6   0   18.85    1.95
 -19   6   0   18.39    2.14
  18  -6   0    5.77    1.38
 -18   6   0    9.87    1.76
 -18   6   0    6.40    1.41
  17  -6   0  114.34    4.11
 -17   6   0  107.02    4.08
 -17   6   0  114.65    4.44
  16  -6   0   37.70    2.20
 -16   6   0   37.72    2.41
 -16   6   0   39.29    2.28
  15  -6   0   49.54    2.30
 -15   6   0   51.89    2.74
 -15   6   0   52.06    2.67
 -15   6   0   52.81    2.49
  14  -6   0   69.52    2.73
 -14   6   0   74.59    2.82
 -14   6   0   69.10    3.10
 -14   6   0   75.14    3.06
  13  -6   0   25.79    1.52
 -13   6   0   21.45    1.67
 -13   6   0   20.89    1.68
 -13   6   0   22.82    1.58
  12  -6   0   10.66    0.97
  12  -6   0   12.44    1.10
 -12   6   0   11.44    1.20
 -12   6   0   11.97    1.11
 -12   6   0   13.91    1.33
  11  -6   0  149.03    4.37
 -11   6   0  150.63    4.60
 -11   6   0  146.86    4.82
 -11   6   0  145.23    4.37
  10  -6   0  397.07   10.67
 -10   6   0  407.25   10.64
 -10   6   0  402.53   11.59
 -10   6   0  419.87   10.97
   9  -6   0   82.57    2.64
   9  -6   0   84.70    2.72
   9  -6   0   88.70    2.78
  -9   6   0   81.43    3.10
  -9   6   0   82.59    2.81
  -9   6   0   87.22    2.63
   8  -6   0   88.42    2.73
   8  -6   0   87.50    3.11
   8  -6   0   93.01    2.79
  -8   6   0   91.89    3.26
  -8   6   0   91.47    2.85
  -8   6   0   94.80    2.70
   7  -6   0  212.94    5.66
   7  -6   0  217.42    6.31
  -7   6   0  211.88    5.58
  -7   6   0  212.63    5.76
  -7   6   0  207.21    6.33
   6  -6   0    0.32    0.36
   6  -6   0   -0.18    0.55
  -6   6   0    0.74    0.72
  -6   6   0    0.01    0.41
   5  -6   0    7.57    0.61
   5  -6   0    8.50    0.86
  -5   6   0    8.84    0.99
  -5   6   0    7.91    0.55
  -5   6   0    8.52    0.62
   4  -6   0   53.20    1.45
  -4   6   0   51.02    1.48
  -4   6   0   51.93    2.16
   3  -6   0  168.14    4.41
  -3   6   0  170.51    4.42
  -3   6   0  167.93    4.41
  -2   6   0   46.51    1.51
  -2   6   0   45.84    1.41
  -2   6   0   47.24    1.50
  -2   6   0   45.44    2.01
   1  -6   0   78.66    2.53
  -1   6   0   76.49    2.83
  -1   6   0   83.36    2.43
  -1   6   0   80.63    2.35
  -1   6   0   84.60    2.46
   0  -6   0    0.10    0.52
   0  -6   0   -0.33    0.55
   0  -6   0    0.47    0.48
   0   6   0   -0.32    0.50
   0   6   0    0.35    0.47
   0   6   0   -0.04    0.47
  -1  -6   0   99.73    3.04
  -1  -6   0  101.97    3.18
  -1  -6   0   95.15    3.04
   1   6   0   99.71    3.05
   1   6   0   96.01    2.98
   1   6   0   97.30    2.98
  -2  -6   0  303.07    8.16
  -2  -6   0  298.15    8.08
   2   6   0  296.52    8.09
   2   6   0  290.43    8.10
   2   6   0  295.51    8.22
   2   6   0  310.05    8.05
  -3  -6   0    1.55    0.72
  -3  -6   0    0.72    0.75
   3   6   0    2.67    0.92
   3   6   0    0.78    0.61
  -4  -6   0   83.06    2.96
  -4  -6   0   77.08    2.85
   4   6   0   84.74    3.02
  -5  -6   0   81.39    3.05
  -5  -6   0   81.68    3.04
   5   6   0   85.42    3.19
  -6  -6   0   11.42    1.34
  -6  -6   0   11.33    1.32
   6   6   0   11.79    1.33
  -7  -6   0    2.03    1.02
  -7  -6   0    2.28    1.02
   7   6   0    2.29    0.98
  -8  -6   0   30.99    2.03
  -8  -6   0   35.06    2.15
   8   6   0   34.48    2.24
  -9  -6   0   25.46    2.07
  -9  -6   0   21.66    2.01
   9   6   0   25.31    1.97
 -10  -6   0    8.33    1.60
 -10  -6   0    8.37    1.42
  10   6   0    8.30    1.52
 -11  -6   0    3.72    1.49
 -11  -6   0    1.51    1.32
  11   6   0    1.13    1.41
 -12  -6   0   37.68    2.73
 -12  -6   0   42.35    2.90
  12   6   0   44.98    2.75
 -13  -6   0    1.42    1.39
 -13  -6   0   -3.24    1.12
  13   6   0    1.23    1.44
 -14  -6   0    1.95    1.52
 -14  -6   0    0.42    1.59
  14   6   0    0.95    1.71
 -15  -6   0    1.84    1.71
 -15  -6   0    0.08    1.43
  21  -7   0    7.32    1.57
 -21   7   0    6.60    1.82
 -21   7   0    8.55    1.69
  20  -7   0    4.22    1.30
 -20   7   0    1.56    1.54
 -20   7   0    2.02    1.27
  19  -7   0    6.66    1.39
 -19   7   0    4.29    1.31
 -19   7   0    3.06    1.44
  18  -7   0   14.41    1.61
 -18   7   0   14.30    1.68
 -18   7   0   19.26    2.11
  17  -7   0   13.96    1.50
 -17   7   0   15.79    1.68
 -17   7   0   17.74    1.87
 -17   7   0   16.11    1.78
  16  -7   0    5.49    1.10
 -16   7   0    4.24    1.29
 -16   7   0    6.30    1.35
 -16   7   0    5.45    1.20
  15  -7   0   23.79    1.67
 -15   7   0   22.80    1.89
 -15   7   0   23.27    1.89
 -15   7   0   24.28    1.77
  14  -7   0  101.74    3.46
 -14   7   0  103.80    3.52
 -14   7   0   97.10    3.67
 -14   7   0  103.91    3.91
  13  -7   0    1.54    0.75
 -13   7   0    0.42    0.73
 -13   7   0    1.18    1.05
 -13   7   0    2.50    0.91
  12  -7   0   17.47    1.12
  12  -7   0   17.37    1.32
 -12   7   0   19.39    1.59
 -12   7   0   15.64    1.23
 -12   7   0   18.95    1.42
  11  -7   0    1.16    0.61
 -11   7   0    1.65    0.79
 -11   7   0    1.15    0.96
 -11   7   0    2.37    0.68
  10  -7   0  132.99    3.99
  10  -7   0  134.81    3.92
 -10   7   0  139.48    4.09
 -10   7   0  131.21    4.51
 -10   7   0  136.71    3.90
   9  -7   0   29.32    1.41
   9  -7   0   31.07    1.38
  -9   7   0   31.35    1.32
  -9   7   0   32.32    1.46
  -9   7   0   30.18    1.88
   8  -7   0   98.04    2.85
  -8   7   0   94.53    2.76
  -8   7   0   93.37    3.42
  -8   7   0   97.74    2.92
   7  -7   0  435.78   10.97
  -7   7   0  430.62   11.11
  -7   7   0  414.99   12.08
   6  -7   0   96.76    2.51
   6  -7   0   94.44    2.64
  -6   7   0   92.96    2.66
  -6   7   0   96.92    3.38
  -6   7   0   94.07    2.62
   5  -7   0  570.52   14.04
  -5   7   0  550.92   14.24
  -5   7   0  550.80   15.51
  -5   7   0  561.14   14.07
   4  -7   0  233.68    5.94
  -4   7   0  227.67    6.84
  -4   7   0  229.82    5.92
  -3   7   0    2.40    0.80
  -3   7   0    2.70    0.42
  -3   7   0    2.35    0.34
  -3   7   0    1.81    0.45
   2  -7   0  108.44    3.20
  -2   7   0  108.90    3.06
  -2   7   0  109.78    3.08
  -2   7   0  104.18    3.58
  -2   7   0  106.62    2.98
   1  -7   0  214.20    5.87
  -1   7   0  215.48    6.31
  -1   7   0  207.78    5.71
  -1   7   0  215.58    5.76
  -1   7   0  209.04    5.69
   0  -7   0  445.13   11.52
   0  -7   0  435.46   11.35
   0  -7   0  431.35   11.44
   0   7   0  444.61   11.43
   0   7   0  432.62   11.31
   0   7   0  429.19   11.43
  -1  -7   0    1.24    0.63
  -1  -7   0    0.60    0.68
   1   7   0    0.68    0.57
   1   7   0    1.70    0.62
   1   7   0    1.64    0.64
  -2  -7   0  345.54    9.10
  -2  -7   0  337.25    9.16
   2   7   0  345.45    9.03
   2   7   0  316.49    9.08
  -3  -7   0  222.71    6.45
  -3  -7   0  222.36    6.43
   3   7   0  228.10    6.58
  -4  -7   0    5.59    0.96
  -4  -7   0    4.71    0.94
   4   7   0    3.49    0.97
  -5  -7   0   46.26    2.28
  -5  -7   0   52.62    2.38
   5   7   0   50.04    2.34
  -6  -7   0   21.53    1.62
  -6  -7   0   19.29    1.66
   6   7   0   21.94    1.75
  -7  -7   0  108.58    3.96
  -7  -7   0   99.65    3.85
   7   7   0  103.08    3.99
  -8  -7   0    2.01    1.21
  -8  -7   0    1.75    1.07
   8   7   0    1.90    1.25
  -9  -7   0   83.97    3.63
  -9  -7   0   83.21    3.69
   9   7   0   79.93    3.65
 -10  -7   0    3.98    1.47
 -10  -7   0    4.90    1.45
  10   7   0    4.06    1.48
 -11  -7   0   18.09    2.03
 -11  -7   0   21.59    2.27
  11   7   0   19.07    2.14
 -12  -7   0    4.16    1.45
 -12  -7   0    5.54    1.66
  12   7   0    3.53    1.53
 -13  -7   0    2.67    1.47
 -13  -7   0    2.47    1.63
 -14  -7   0    2.35    1.57
 -14  -7   0   -2.21    1.49
  21  -8   0    1.90    1.28
 -21   8   0    4.26    1.42
 -21   8   0    4.75    1.66
  20  -8   0   11.16    1.58
 -20   8   0   10.56    1.58
 -20   8   0    8.40    1.75
  19  -8   0   74.49    3.12
 -19   8   0   66.17    3.12
 -19   8   0   69.22    3.55
  18  -8   0    0.41    1.00
 -18   8   0    0.25    1.24
 -18   8   0    1.67    1.29
 -18   8   0    0.95    1.11
  17  -8   0   34.55    2.07
 -17   8   0   37.97    2.60
 -17   8   0   36.77    2.19
 -17   8   0   37.91    2.40
  16  -8   0    9.82    1.21
 -16   8   0   11.70    1.51
 -16   8   0   12.41    1.38
 -16   8   0    9.70    1.53
  15  -8   0    1.07    0.83
 -15   8   0    3.02    1.13
 -15   8   0    2.25    1.22
 -15   8   0    1.03    0.89
  14  -8   0   34.22    1.78
 -14   8   0   34.00    1.81
 -14   8   0   34.25    2.31
 -14   8   0   34.39    1.98
  13  -8   0    9.79    1.03
  13  -8   0   11.71    0.92
 -13   8   0    9.45    1.15
 -13   8   0   10.45    1.41
 -13   8   0   10.43    1.04
  12  -8   0    0.50    0.63
  12  -8   0    0.44    0.46
 -12   8   0    0.41    0.96
 -12   8   0    0.67    0.66
 -12   8   0    1.80    0.81
  11  -8   0   37.02    1.58
 -11   8   0   35.76    1.56
 -11   8   0   35.89    1.73
 -11   8   0   36.42    2.15
  10  -8   0   64.22    2.12
  10  -8   0   59.89    2.14
 -10   8   0   58.76    2.02
 -10   8   0   61.67    2.72
 -10   8   0   63.82    2.27
   9  -8   0    4.50    0.60
  -9   8   0    3.40    1.00
  -9   8   0    3.22    0.56
  -9   8   0    3.23    0.64
   8  -8   0   43.47    1.56
  -8   8   0   45.98    1.62
  -8   8   0   45.53    2.30
   7  -8   0    0.76    0.41
   7  -8   0    1.30    0.27
  -7   8   0    1.40    0.92
  -7   8   0    1.39    0.43
   6  -8   0  287.52    7.59
   6  -8   0  298.17    7.45
  -6   8   0  293.99    7.63
  -6   8   0  300.12    8.67
  -6   8   0  293.82    7.54
   5  -8   0    1.48    0.31
  -5   8   0    0.89    0.31
  -5   8   0    0.55    0.85
  -4   8   0  106.82    2.84
  -4   8   0  104.51    2.90
  -4   8   0  106.03    2.89
  -4   8   0  101.44    3.64
  -4   8   0  108.05    2.94
   3  -8   0   61.43    2.10
  -3   8   0   59.85    1.91
  -3   8   0   59.25    1.77
  -3   8   0   58.44    1.88
  -3   8   0   59.21    2.49
   2  -8   0   88.75    2.88
  -2   8   0   92.13    3.29
  -2   8   0   88.36    2.63
  -2   8   0   94.76    2.75
  -2   8   0   91.66    2.74
   1  -8   0   95.29    3.10
  -1   8   0   95.82    3.42
  -1   8   0   93.07    2.97
  -1   8   0   99.19    2.98
  -1   8   0   97.89    2.88
   0  -8   0   47.20    1.82
   0   8   0   45.21    1.83
   0   8   0   47.29    1.77
   0   8   0   46.68    1.84
  -1  -8   0   72.13    2.57
  -1  -8   0   79.22    2.71
   1   8   0   76.06    2.67
   1   8   0   78.59    2.65
   1   8   0   76.57    2.59
  -2  -8   0    3.42    0.84
  -2  -8   0    2.92    0.82
  -3  -8   0   64.06    2.52
  -3  -8   0   64.26    2.59
  -4  -8   0   10.17    1.20
  -4  -8   0   11.16    1.32
  -5  -8   0  150.00    5.01
  -5  -8   0  161.19    5.09
   5   8   0  161.79    5.23
  -6  -8   0   73.31    3.05
  -6  -8   0   63.69    2.98
   6   8   0   71.99    3.18
  -7  -8   0   22.31    1.89
  -7  -8   0   21.40    1.89
   7   8   0   22.09    2.00
  -8  -8   0   11.91    1.64
  -8  -8   0   13.33    1.70
   8   8   0   10.56    1.68
  -9  -8   0   49.07    2.87
  -9  -8   0   47.38    2.82
   9   8   0   47.23    2.85
 -10  -8   0   53.10    3.06
 -10  -8   0   45.27    2.92
 -11  -8   0    1.79    1.45
 -11  -8   0    1.58    1.47
 -12  -8   0   38.86    2.89
 -12  -8   0   39.85    2.98
 -13  -8   0   12.63    2.17
 -13  -8   0   10.61    1.93
 -22   9   0    0.94    1.64
  21  -9   0   29.78    2.24
 -21   9   0   31.86    2.69
 -21   9   0   32.14    2.32
  20  -9   0   16.45    1.73
 -20   9   0   18.80    2.14
 -20   9   0   20.63    1.93
  19  -9   0   15.99    1.60
 -19   9   0   17.45    1.97
 -19   9   0   16.57    1.70
 -19   9   0   14.57    1.90
  18  -9   0    0.32    0.93
 -18   9   0    0.25    1.24
 -18   9   0   -0.38    1.23
 -18   9   0    1.24    1.03
  17  -9   0   43.02    2.23
 -17   9   0   50.72    2.83
 -17   9   0   43.72    2.35
 -17   9   0   52.10    2.64
  16  -9   0   80.16    3.07
 -16   9   0   81.17    3.05
 -16   9   0   81.19    3.58
 -16   9   0   85.02    3.42
  15  -9   0   25.55    1.70
 -15   9   0   30.13    2.24
 -15   9   0   27.05    1.75
 -15   9   0   28.43    1.90
  14  -9   0  109.72    3.60
  14  -9   0  112.26    3.50
 -14   9   0  115.75    3.91
 -14   9   0  115.48    3.63
 -14   9   0  107.59    4.24
  13  -9   0   28.00    1.32
  13  -9   0   30.18    1.49
 -13   9   0   27.99    1.44
 -13   9   0   26.62    1.70
 -13   9   0   29.02    2.13
  12  -9   0    1.45    0.51
  12  -9   0    1.40    0.67
 -12   9   0    1.57    0.79
 -12   9   0    0.13    0.99
 -12   9   0    1.92    0.66
  11  -9   0   40.19    1.66
  11  -9   0   39.33    1.64
 -11   9   0   41.82    1.60
 -11   9   0   41.19    2.28
 -11   9   0   40.76    1.81
  10  -9   0  172.24    4.82
 -10   9   0  174.07    4.92
 -10   9   0  173.15    5.64
 -10   9   0  173.01    4.70
   9  -9   0  238.91    6.35
  -9   9   0  238.61    6.23
  -9   9   0  236.39    7.32
  -9   9   0  237.98    6.43
   8  -9   0   77.04    2.26
   8  -9   0   76.28    2.01
  -8   9   0   70.86    2.24
  -8   9   0   75.52    3.06
   7  -9   0  328.82    8.54
  -7   9   0  332.16    9.74
  -7   9   0  328.96    8.58
  -7   9   0  335.38    8.48
  -6   9   0    1.36    0.32
  -6   9   0    1.49    0.93
  -6   9   0    1.75    0.35
  -5   9   0    6.98    1.12
  -5   9   0    6.12    0.47
  -5   9   0    6.59    0.58
  -5   9   0    6.12    0.48
  -4   9   0    0.39    0.32
  -4   9   0    0.94    0.44
  -4   9   0    0.54    0.46
  -4   9   0    0.56    0.41
  -4   9   0    0.21    0.86
   3  -9   0   86.06    2.79
  -3   9   0   84.60    2.46
  -3   9   0   85.39    2.58
  -3   9   0   85.31    2.59
  -3   9   0   85.07    3.27
   2  -9   0   31.76    1.64
  -2   9   0   31.85    1.92
  -2   9   0   31.26    1.43
  -2   9   0   31.32    1.40
  -2   9   0   31.28    1.28
  -1   9   0    5.78    1.09
  -1   9   0    4.63    0.63
  -1   9   0    3.85    0.72
  -1   9   0    3.84    0.71
   0  -9   0  233.19    6.70
   0   9   0  248.70    7.29
   0   9   0  243.12    6.69
   0   9   0  244.03    6.77
   0   9   0  243.42    6.66
  -1  -9   0    0.79    0.69
  -1  -9   0   -0.38    0.69
   1   9   0    0.91    0.87
  -2  -9   0    4.73    0.92
  -2  -9   0    5.65    0.92
  -3  -9   0    5.99    1.12
  -3  -9   0    7.46    1.06
  -4  -9   0   48.28    2.42
  -4  -9   0   48.60    2.32
  -5  -9   0    3.25    1.15
  -5  -9   0    2.60    1.07
  -6  -9   0   55.96    2.74
  -6  -9   0   53.66    2.75
  -7  -9   0    5.45    1.40
  -7  -9   0    5.20    1.31
  -8  -9   0   39.52    2.58
  -8  -9   0   38.51    2.60
  -9  -9   0   -1.16    1.25
  -9  -9   0    1.30    1.23
 -10  -9   0    1.70    1.27
 -10  -9   0   -0.31    1.37
 -11  -9   0   24.40    2.41
 -11  -9   0   27.07    2.50
 -12  -9   0   -1.52    1.52
 -12  -9   0    0.22    1.55
 -13  -9   0    1.95    1.64
 -13  -9   0    0.73    1.69
 -22  10   0    2.21    1.53
 -21  10   0    7.61    1.68
  20 -10   0   42.90    2.36
 -20  10   0   40.92    2.96
 -20  10   0   46.63    2.78
 -20  10   0   41.14    2.39
  19 -10   0   -0.47    0.90
 -19  10   0    0.64    1.09
 -19  10   0    1.00    1.36
 -19  10   0   -0.02    1.25
  18 -10   0   50.04    2.35
 -18  10   0   54.57    2.83
 -18  10   0   48.88    2.99
 -18  10   0   47.27    2.39
  17 -10   0    3.30    1.00
 -17  10   0    2.44    1.14
 -17  10   0    2.53    1.04
 -17  10   0    1.17    1.31
  16 -10   0    9.86    1.17
 -16  10   0   11.21    1.43
 -16  10   0    9.05    1.20
 -16  10   0    9.93    1.60
  15 -10   0   13.69    1.08
  15 -10   0   12.99    1.19
 -15  10   0   13.44    1.42
 -15  10   0   15.70    1.27
 -15  10   0   14.53    1.74
  14 -10   0    1.61    0.77
  14 -10   0    1.40    0.59
 -14  10   0    2.87    1.24
 -14  10   0    0.91    0.73
 -14  10   0    2.24    0.93
  13 -10   0   18.71    1.26
  13 -10   0   18.61    1.11
 -13  10   0   19.37    1.83
 -13  10   0   20.42    1.53
 -13  10   0   18.77    1.23
  12 -10   0   24.65    1.11
  12 -10   0   23.41    1.31
 -12  10   0   25.81    1.50
 -12  10   0   25.01    1.26
 -12  10   0   23.86    1.99
  11 -10   0  313.13    8.48
  11 -10   0  316.28    8.27
 -11  10   0  324.51    8.64
 -11  10   0  320.59    8.34
 -11  10   0  323.60    9.65
  10 -10   0   47.24    1.69
  10 -10   0   47.88    1.42
 -10  10   0   45.18    1.58
 -10  10   0   45.93    1.72
 -10  10   0   45.56    2.44
   9 -10   0   -0.03    0.21
   9 -10   0    0.24    0.43
  -9  10   0   -0.36    0.42
  -9  10   0   -0.86    1.00
   8 -10   0    2.77    0.49
  -8  10   0    3.35    1.11
  -8  10   0    2.96    0.45
  -7  10   0  218.53    5.62
  -7  10   0  225.43    5.66
  -7  10   0  204.29    6.76
  -6  10   0   76.40    3.17
  -6  10   0   82.67    2.19
  -6  10   0   83.60    2.36
  -6  10   0   78.24    2.22
  -5  10   0   60.53    1.83
  -5  10   0   54.10    2.56
  -5  10   0   54.53    1.77
  -5  10   0   55.16    1.70
  -5  10   0   56.21    1.62
   4 -10   0  407.98   10.80
  -4  10   0  401.98   10.58
  -4  10   0  413.22   10.55
  -4  10   0  409.76   10.53
  -4  10   0  411.22   11.84
  -3  10   0  141.27    3.99
  -3  10   0  140.85    3.98
  -3  10   0  137.18    4.74
  -3  10   0  136.85    3.84
  -2  10   0   62.04    2.05
  -2  10   0   61.15    2.18
  -2  10   0   61.22    2.18
  -2  10   0   62.67    2.72
  -1  10   0  176.13    5.00
  -1  10   0  175.70    4.92
  -1  10   0  177.69    5.06
  -1  10   0  165.26    5.56
   0  10   0   43.48    2.26
  -1 -10   0   31.25    1.73
   1  10   0   32.50    1.95
  -2 -10   0   78.29    2.97
  -2 -10   0   75.37    2.88
  -3 -10   0   98.72    3.54
  -3 -10   0   89.76    3.44
  -4 -10   0    3.27    1.13
  -4 -10   0    1.70    1.02
   4  10   0    1.77    1.01
  -5 -10   0    3.56    1.19
  -5 -10   0    3.53    1.22
  -6 -10   0   35.82    2.28
  -6 -10   0   39.33    2.43
  -7 -10   0   16.16    1.90
  -7 -10   0   17.87    1.91
  -8 -10   0    0.91    1.31
  -8 -10   0   -0.36    1.24
   8  10   0   -1.32    1.03
  -9 -10   0   16.14    2.06
  -9 -10   0   15.26    2.04
 -10 -10   0   45.09    3.04
 -10 -10   0   44.19    3.04
 -11 -10   0    0.30    1.50
 -11 -10   0    0.05    1.53
 -12 -10   0   -0.26    1.56
 -12 -10   0    0.61    1.43
 -22  11   0    0.89    1.46
 -21  11   0   -1.36    1.26
 -20  11   0   29.95    2.54
 -20  11   0   27.56    2.38
  19 -11   0    0.90    0.96
 -19  11   0    1.19    0.98
 -19  11   0    1.39    1.39
 -19  11   0    1.18    1.17
  18 -11   0   20.95    1.56
 -18  11   0   16.02    1.98
 -18  11   0   19.68    1.62
 -18  11   0   18.95    1.80
  17 -11   0    1.70    0.94
 -17  11   0    0.04    1.00
 -17  11   0    1.02    1.37
 -17  11   0    3.33    1.00
  16 -11   0   31.72    1.84
 -16  11   0   30.58    1.77
 -16  11   0   32.28    2.48
 -16  11   0   33.72    2.03
  15 -11   0    1.56    0.81
 -15  11   0    0.35    0.90
 -15  11   0    0.66    0.75
 -15  11   0    0.53    1.21
  14 -11   0    3.86    0.63
  14 -11   0    2.39    0.75
 -14  11   0    0.74    1.19
 -14  11   0    2.46    0.73
 -14  11   0    1.93    0.85
  13 -11   0    0.81    0.46
  13 -11   0   -0.47    0.61
 -13  11   0   -0.06    0.57
 -13  11   0   -1.06    0.68
 -13  11   0    0.08    1.11
  12 -11   0   50.49    1.89
  12 -11   0   48.48    1.58
 -12  11   0   48.53    1.96
 -12  11   0   49.15    1.75
 -12  11   0   48.78    2.70
  11 -11   0   35.44    1.49
  11 -11   0   35.57    1.12
 -11  11   0   34.41    1.52
 -11  11   0   34.21    2.28
 -11  11   0   36.57    1.36
  10 -11   0   27.76    1.27
 -10  11   0   33.11    1.21
 -10  11   0   32.98    2.22
 -10  11   0   30.75    1.31
   9 -11   0    4.72    0.58
  -9  11   0    5.01    0.52
  -9  11   0    4.64    1.15
  -8  11   0   59.35    2.88
  -8  11   0   62.81    1.80
  -7  11   0    4.91    0.33
  -7  11   0    4.23    0.40
  -7  11   0    4.05    0.51
  -7  11   0    4.04    1.10
  -6  11   0   79.51    2.31
  -6  11   0   83.66    2.46
  -6  11   0   85.77    2.23
  -6  11   0   84.79    3.42
   5 -11   0  147.51    4.29
  -5  11   0  143.34    4.05
  -5  11   0  148.89    5.03
  -5  11   0  145.49    4.03
  -5  11   0  147.05    3.87
  -5  11   0  143.02    3.95
  -4  11   0    2.97    1.09
  -4  11   0    0.83    0.55
  -4  11   0    1.73    0.41
  -4  11   0    1.89    0.52
  -3  11   0   38.46    1.45
  -3  11   0   35.40    2.22
  -3  11   0   39.26    1.63
  -3  11   0   40.08    1.68
  -2  11   0   40.29    1.62
  -2  11   0   42.39    1.77
  -2  11   0   42.16    2.32
  -2  11   0   44.94    1.82
  -1  11   0  315.61    8.47
  -1  11   0  311.37    9.35
   0  11   0   36.37    2.17
  -1 -11   0   47.86    2.16
   1  11   0   45.15    2.45
  -2 -11   0   18.11    1.53
   2  11   0   18.54    1.68
  -3 -11   0   18.91    1.61
   3  11   0   15.90    1.61
  -4 -11   0    2.71    1.17
  -4 -11   0    3.85    1.20
   4  11   0    2.42    1.12
  -5 -11   0    4.90    1.29
  -5 -11   0    2.50    1.31
   5  11   0    6.33    1.27
  -6 -11   0  112.76    4.30
  -6 -11   0  113.99    4.31
   6  11   0  106.72    4.08
  -7 -11   0   14.21    1.85
  -7 -11   0   15.11    1.87
   7  11   0   15.30    1.63
  -8 -11   0   71.73    3.53
  -8 -11   0   68.86    3.53
   8  11   0   69.11    3.16
  -9 -11   0   19.67    2.27
  -9 -11   0   19.11    2.25
 -10 -11   0    7.63    1.86
 -11 -11   0   -1.31    1.52
 -22  12   0    0.36    1.38
 -21  12   0   -1.05    1.41
 -21  12   0    0.82    1.32
 -20  12   0   37.98    3.01
 -20  12   0   40.07    2.59
 -19  12   0    5.84    1.41
 -19  12   0    3.06    1.55
  18 -12   0   44.93    2.18
 -18  12   0   44.04    2.96
 -18  12   0   46.51    2.50
  17 -12   0   30.34    1.75
 -17  12   0   32.20    1.73
 -17  12   0   30.51    2.02
 -17  12   0   32.67    2.56
  16 -12   0   18.99    1.36
 -16  12   0   23.13    2.18
 -16  12   0   21.92    1.39
 -16  12   0   21.53    1.69
  15 -12   0    7.88    0.96
 -15  12   0    7.31    1.58
 -15  12   0    6.81    1.11
 -15  12   0    9.51    0.99
  14 -12   0    7.57    0.90
 -14  12   0    8.35    1.60
 -14  12   0    8.88    1.08
 -14  12   0    8.54    0.86
  13 -12   0   58.38    2.13
  13 -12   0   57.67    2.08
  13 -12   0   56.79    1.75
 -13  12   0   59.59    2.23
 -13  12   0   57.28    1.97
 -13  12   0   54.30    2.99
  12 -12   0    2.38    0.29
  12 -12   0    2.90    0.59
 -12  12   0    3.00    0.57
 -12  12   0    4.22    1.31
 -12  12   0    3.24    0.70
  11 -12   0   44.65    1.70
 -11  12   0   45.61    1.69
 -11  12   0   48.66    2.68
 -11  12   0   48.56    1.58
  10 -12   0   71.65    2.29
 -10  12   0   76.06    2.24
 -10  12   0   73.63    3.35
  -9  12   0    7.85    1.33
  -9  12   0    7.98    0.60
  -8  12   0    9.69    0.73
  -8  12   0   11.75    1.54
  -7  12   0   50.64    1.63
  -7  12   0   51.43    2.70
  -7  12   0   46.63    1.44
   6 -12   0   10.51    0.95
  -6  12   0    9.67    1.42
  -6  12   0   11.17    0.52
  -6  12   0   12.67    0.70
  -6  12   0   11.65    0.86
  -5  12   0   15.98    0.97
  -5  12   0   17.84    1.10
  -5  12   0   16.09    1.65
  -5  12   0   18.94    0.81
  -5  12   0   17.91    1.01
  -4  12   0    0.63    0.52
  -4  12   0    2.07    0.45
  -4  12   0    1.44    1.04
  -4  12   0    0.76    0.58
  -3  12   0    2.00    1.13
  -3  12   0    1.88    0.52
  -3  12   0    2.45    0.66
  -3  12   0    1.23    0.59
  -2  12   0   23.78    1.28
  -2  12   0   21.36    1.83
  -1  12   0   49.02    2.57
   0  12   0    2.28    1.12
   1  12   0   10.25    1.44
  -2 -12   0   19.19    1.59
   2  12   0   19.27    1.79
  -3 -12   0   -0.22    1.05
   3  12   0    0.61    1.09
  -4 -12   0    9.17    1.44
   4  12   0   13.43    1.59
  -5 -12   0   29.33    2.32
   5  12   0   27.50    2.12
  -6 -12   0    8.30    1.58
   6  12   0    6.98    1.38
  -7 -12   0    7.70    1.66
   7  12   0    3.56    1.27
  -8 -12   0   14.13    1.99
  -9 -12   0   32.37    2.83
 -10 -12   0    0.38    1.67
 -21  13   0   12.59    1.79
 -21  13   0    7.68    1.89
 -20  13   0    3.40    1.63
 -20  13   0    3.82    1.33
 -19  13   0    1.48    1.13
 -19  13   0    0.94    1.48
 -18  13   0   21.15    1.82
 -18  13   0   19.67    2.22
 -17  13   0   72.85    2.88
 -17  13   0   63.75    3.54
  16 -13   0    2.86    0.84
 -16  13   0    3.18    1.48
 -16  13   0    5.15    1.03
  15 -13   0   15.50    1.14
 -15  13   0   18.11    1.21
 -15  13   0   18.62    2.04
 -15  13   0   15.53    1.32
  14 -13   0   33.30    1.62
 -14  13   0   37.40    1.74
 -14  13   0   35.28    2.57
 -14  13   0   35.54    1.47
 -13  13   0    7.64    0.71
 -13  13   0    5.39    1.53
 -13  13   0    6.45    0.84
  12 -13   0    9.14    0.80
 -12  13   0   10.35    1.70
 -12  13   0    9.87    0.83
 -12  13   0   10.93    0.80
 -11  13   0   14.99    0.93
 -11  13   0   15.68    0.85
 -11  13   0   20.87    1.97
 -10  13   0   95.86    3.94
 -10  13   0   90.84    2.57
  -9  13   0   50.01    2.80
  -9  13   0   49.77    1.60
  -8  13   0  153.53    5.64
  -8  13   0  167.79    4.38
   7 -13   0   24.68    1.43
  -7  13   0   20.55    1.89
  -7  13   0   22.83    0.85
  -7  13   0   22.81    1.10
  -6  13   0    0.96    0.54
  -6  13   0    2.01    0.44
  -6  13   0    1.87    0.28
  -6  13   0    1.33    1.15
  -5  13   0   10.71    0.85
  -5  13   0    9.80    1.48
  -5  13   0    8.12    0.77
  -5  13   0   10.73    0.89
  -5  13   0   10.87    0.71
  -4  13   0   26.77    2.20
  -4  13   0   27.69    1.49
  -4  13   0   29.94    1.50
  -4  13   0   28.99    1.23
  -3  13   0   22.08    1.39
  -3  13   0   20.64    1.17
  -3  13   0   19.76    1.85
  -2  13   0    0.64    1.16
  -2  13   0   -0.09    0.55
  -1  13   0   59.40    2.97
   0  13   0    6.30    1.33
   1  13   0    2.31    1.17
   2  13   0    2.27    1.21
   3  13   0   17.43    1.79
  -4 -13   0    8.38    1.55
   4  13   0    7.33    1.41
  -5 -13   0    3.92    1.38
   5  13   0    1.62    1.21
  -6 -13   0   20.28    2.19
   6  13   0   16.66    1.79
  -7 -13   0    2.77    1.50
  -8 -13   0    4.08    1.64
  -9 -13   0    3.93    1.79
 -21  14   0   -2.02    1.48
 -20  14   0    2.26    1.67
 -19  14   0    4.16    1.73
 -18  14   0   -2.17    1.33
 -17  14   0   23.65    1.77
 -17  14   0   25.06    2.44
 -16  14   0    0.07    0.81
 -16  14   0    1.02    1.54
  15 -14   0    0.24    0.63
 -15  14   0    1.19    1.49
 -15  14   0   -0.29    0.71
  14 -14   0   23.63    1.39
 -14  14   0   30.77    1.52
 -14  14   0   28.79    2.48
 -13  14   0    5.34    1.48
 -13  14   0    3.06    0.52
 -13  14   0    3.89    0.68
 -12  14   0   21.24    1.03
 -12  14   0   19.78    0.91
 -12  14   0   18.46    2.06
 -11  14   0   17.38    0.80
 -11  14   0   21.55    2.05
 -10  14   0    0.90    1.32
 -10  14   0    2.24    0.45
  -9  14   0    3.40    0.51
  -9  14   0    5.29    1.39
  -8  14   0   74.94    2.23
  -8  14   0   63.42    3.29
  -7  14   0  103.88    2.81
  -7  14   0  104.09    3.09
  -7  14   0  103.08    4.22
  -6  14   0   35.08    1.48
  -6  14   0   35.52    2.53
  -6  14   0   37.86    1.34
  -6  14   0   34.82    1.56
  -6  14   0   35.54    1.12
  -5  14   0  117.94    3.53
  -5  14   0  105.15    4.42
  -5  14   0  118.24    3.50
  -5  14   0  111.89    3.41
  -5  14   0  117.70    3.23
  -4  14   0    1.87    1.16
  -4  14   0    1.60    0.66
  -3  14   0    0.67    1.22
  -2  14   0    8.85    1.61
  -1  14   0   39.85    2.73
   0  14   0   28.78    2.40
   1  14   0   34.98    2.60
   2  14   0   73.02    3.39
   3  14   0    6.07    1.42
   4  14   0   -1.58    1.14
   5  14   0    5.76    1.56
   6  14   0   20.42    2.11
 -21  15   0    3.15    1.73
 -20  15   0   10.16    2.06
 -19  15   0    0.42    1.59
 -18  15   0    2.12    1.62
 -17  15   0   51.76    3.27
 -16  15   0    8.03    1.96
 -15  15   0    1.70    1.59
 -14  15   0   33.66    2.76
 -13  15   0    2.23    1.54
 -12  15   0   -0.41    1.36
 -11  15   0    3.79    1.56
 -10  15   0    6.04    1.56
  -9  15   0   53.74    3.08
  -8  15   0   21.97    2.17
  -7  15   0    1.65    0.38
  -7  15   0    3.00    1.46
  -6  15   0   23.79    2.17
  -6  15   0   25.90    1.19
  -6  15   0   25.34    1.39
  -5  15   0   13.33    1.83
  -5  15   0   14.05    1.07
  -5  15   0   14.17    1.13
  -4  15   0    0.74    1.29
  -3  15   0    8.21    1.56
  -2  15   0   15.10    1.83
  -1  15   0    0.10    1.26
   0  15   0   -0.09    1.35
   1  15   0    3.11    1.52
   2  15   0   37.24    2.80
   3  15   0   15.69    2.02
   4  15   0    4.53    1.61
   5  15   0   34.61    2.67
 -21  16   0   22.46    2.70
 -20  16   0    1.87    1.78
 -19  16   0    4.67    1.89
 -18  16   0   16.37    2.32
 -17  16   0   10.02    1.99
 -16  16   0    3.15    1.77
 -15  16   0    4.43    1.67
 -14  16   0   79.52    3.98
 -13  16   0   22.17    2.33
 -12  16   0   11.64    1.91
 -11  16   0    2.35    1.62
 -10  16   0   37.81    2.65
  -9  16   0    5.68    1.69
  -8  16   0    7.90    1.72
  -7  16   0   78.72    3.82
  -6  16   0    6.36    1.65
  -5  16   0   32.62    2.56
  -4  16   0   19.88    2.12
  -3  16   0    3.13    1.49
  -2  16   0    1.53    1.40
  -1  16   0    7.08    1.60
   0  16   0    2.37    1.45
   1  16   0   25.83    2.34
   2  16   0   -0.98    1.29
   3  16   0    3.14    1.51
   4  16   0    5.92    1.63
 -20  17   0    0.09    1.69
 -19  17   0    2.43    1.82
 -18  17   0   36.94    3.06
 -17  17   0   11.67    2.13
 -16  17   0   31.14    2.84
 -15  17   0   36.49    3.00
 -14  17   0    3.54    1.79
 -13  17   0   11.21    1.99
 -12  17   0   26.94    2.50
 -11  17   0  108.89    4.74
 -10  17   0   18.11    2.17
  -9  17   0   36.33    2.71
  -8  17   0   49.67    3.18
  -7  17   0    3.70    1.71
  -6  17   0    1.00    1.57
  -5  17   0   28.22    2.49
  -4  17   0   70.12    3.63
  -3  17   0   21.34    2.26
  -2  17   0   51.42    3.11
  -1  17   0    6.43    1.73
   0  17   0   10.05    1.80
   1  17   0    2.09    1.55
   2  17   0    1.20    1.60
   3  17   0    7.99    1.69
 -20  18   0    3.17    2.04
 -19  18   0   -1.19    1.74
 -18  18   0    0.56    1.80
 -17  18   0    4.02    1.90
 -16  18   0    0.21    1.69
 -15  18   0   16.37    2.36
 -14  18   0    0.09    1.67
 -13  18   0    2.39    1.75
 -12  18   0    6.18    1.97
 -11  18   0   17.34    2.22
 -10  18   0   -0.30    1.55
  -9  18   0    1.69    1.69
  -8  18   0   51.94    3.30
  -7  18   0   15.84    2.12
  -6  18   0   45.80    3.09
  -5  18   0   14.90    2.12
  -4  18   0    0.25    1.65
  -3  18   0    0.99    1.72
  -2  18   0   14.71    2.11
  -1  18   0   27.80    2.57
   0  18   0   -0.40    1.66
   1  18   0   25.05    2.49
 -19  19   0   13.61    2.43
 -18  19   0   29.04    3.04
 -17  19   0    4.53    2.09
 -16  19   0   -0.13    1.77
 -15  19   0    5.80    1.98
 -14  19   0    5.66    2.06
 -13  19   0   21.43    2.55
 -12  19   0    4.92    1.98
 -11  19   0   56.67    3.56
 -10  19   0   17.41    2.27
  -9  19   0   -0.65    1.68
  -8  19   0    3.64    1.91
  -7  19   0    2.10    1.82
  -6  19   0    1.39    1.78
  -5  19   0    1.31    1.76
  -4  19   0    1.07    1.70
  -3  19   0    0.48    1.83
  -2  19   0    0.69    1.78
  -1  19   0   -0.68    1.74
   0  19   0    7.45    2.09
 -18  20   0   17.66    2.65
 -17  20   0    7.47    2.20
 -16  20   0   11.76    2.34
 -15  20   0   41.04    3.38
 -14  20   0   20.48    2.58
 -13  20   0    1.84    1.84
 -12  20   0   11.71    2.17
 -11  20   0   18.49    2.52
 -10  20   0   42.67    3.24
  -9  20   0   24.01    2.70
  -8  20   0   34.10    3.03
  -7  20   0    3.38    1.92
  -6  20   0    1.58    1.90
  -5  20   0    9.10    2.21
  -4  20   0    1.77    1.93
  -3  20   0    0.02    1.89
  -2  20   0    4.53    2.10
 -16  21   0    2.19    2.02
 -15  21   0    4.13    2.16
 -14  21   0    7.45    2.12
 -13  21   0    4.60    2.17
 -12  21   0   34.56    3.26
 -11  21   0    8.03    2.10
 -10  21   0    0.33    1.90
  -9  21   0   -2.02    1.79
  -8  21   0    5.86    2.19
  -7  21   0    1.34    1.97
  -6  21   0   -0.82    1.93
  -5  21   0   19.19    2.50
 -13  22   0    0.98    2.04
 -12  22   0    0.68    2.05
 -11  22   0    0.32    1.99
 -10  22   0   -0.78    1.96
  -9  22   0    2.89    2.11
  -9  22  -1    1.82    2.18
 -10  22  -1   -0.35    2.03
 -11  22  -1    0.18    2.05
 -12  22  -1    0.61    2.02
 -13  22  -1   -0.75    1.96
  -5  21  -1    4.03    2.16
  -6  21  -1    3.67    2.07
  -7  21  -1    1.90    2.03
  -8  21  -1    3.23    2.13
  -9  21  -1    7.18    2.23
 -10  21  -1    3.40    2.06
 -11  21  -1    9.95    2.33
 -12  21  -1   -0.53    1.81
 -13  21  -1    6.90    2.25
 -14  21  -1   -0.32    1.90
 -15  21  -1    5.23    2.19
 -16  21  -1    1.30    2.07
  -2  20  -1    3.09    2.00
  -3  20  -1    1.02    1.88
  -4  20  -1    6.86    2.06
  -5  20  -1    1.86    1.85
  -6  20  -1    0.35    1.83
  -7  20  -1    1.27    1.91
  -8  20  -1   -0.57    1.79
  -9  20  -1   -0.13    1.89
 -10  20  -1    1.18    1.91
 -11  20  -1   31.36    2.99
 -12  20  -1   19.96    2.54
 -13  20  -1    6.60    2.22
 -14  20  -1    4.59    2.10
 -15  20  -1   -2.45    1.80
 -16  20  -1    5.13    2.15
 -17  20  -1   -0.01    2.05
 -18  20  -1    4.54    2.15
   0  19  -1    0.23    1.77
  -1  19  -1    2.81    1.66
  -2  19  -1    3.27    1.80
  -3  19  -1    1.63    1.69
  -4  19  -1   -2.03    1.60
  -5  19  -1   -0.37    1.67
  -6  19  -1    2.27    1.76
  -7  19  -1    0.72    1.76
  -8  19  -1    2.99    1.85
  -9  19  -1    2.90    1.89
 -10  19  -1   22.26    2.59
 -11  19  -1    0.57    1.76
 -12  19  -1    4.97    1.97
 -13  19  -1   -0.43    1.73
 -14  19  -1    7.09    1.98
 -15  19  -1    6.56    2.10
 -16  19  -1    0.82    1.87
 -17  19  -1    7.83    2.28
 -18  19  -1    4.43    1.96
 -19  19  -1    2.16    1.97
   2  18  -1    2.37    1.72
   1  18  -1    2.43    1.78
   0  18  -1   -0.34    1.65
  -1  18  -1    1.41    1.66
  -2  18  -1   10.52    1.93
  -3  18  -1    9.33    1.83
  -4  18  -1   10.38    1.91
  -5  18  -1   16.43    2.17
  -6  18  -1   -0.83    1.54
  -7  18  -1    2.43    1.69
  -8  18  -1    2.61    1.68
  -9  18  -1    8.75    2.00
 -10  18  -1    2.75    1.77
 -11  18  -1    1.86    1.68
 -12  18  -1    7.21    1.85
 -13  18  -1    1.53    1.71
 -14  18  -1    2.90    1.84
 -15  18  -1    0.50    1.77
 -16  18  -1    7.22    1.93
 -17  18  -1    2.50    1.86
 -18  18  -1    1.78    1.84
 -19  18  -1   -0.93    1.73
 -20  18  -1    5.39    2.02
   3  17  -1    1.54    1.65
   2  17  -1   12.46    2.07
   1  17  -1   -1.49    1.50
   0  17  -1    4.21    1.71
  -1  17  -1   27.52    2.58
  -2  17  -1    2.81    1.65
  -3  17  -1    0.69    1.50
  -4  17  -1   -0.92    1.40
  -5  17  -1   33.07    2.72
  -6  17  -1   25.01    2.42
  -7  17  -1   37.59    2.80
  -8  17  -1   29.10    2.61
  -9  17  -1    2.13    1.61
 -10  17  -1   13.10    2.04
 -11  17  -1    2.35    1.67
 -12  17  -1   11.92    1.99
 -13  17  -1    7.33    1.84
 -14  17  -1   27.26    2.67
 -15  17  -1   29.30    2.72
 -16  17  -1    1.16    1.76
 -17  17  -1    1.91    1.78
 -18  17  -1    2.03    1.76
 -19  17  -1    0.10    1.72
 -20  17  -1    3.98    1.93
   5  16  -1    0.00    1.51
   4  16  -1    0.42    1.37
   3  16  -1    1.57    1.37
   2  16  -1    1.71    1.43
   1  16  -1    1.39    1.38
   0  16  -1    4.86    1.51
  -1  16  -1    4.62    1.49
  -2  16  -1    0.86    1.39
  -3  16  -1    6.04    1.67
  -4  16  -1   18.78    2.17
  -5  16  -1   -1.09    1.31
  -6  16  -1    1.60    1.39
  -7  16  -1    1.07    1.44
  -8  16  -1   17.64    2.09
  -9  16  -1   -0.01    1.43
 -11  16  -1   47.36    3.11
 -12  16  -1   11.17    1.90
 -13  16  -1   14.63    2.03
 -14  16  -1    1.57    1.66
 -15  16  -1   20.42    2.35
 -16  16  -1    2.69    1.72
 -17  16  -1   25.80    2.60
 -18  16  -1   10.57    2.01
 -19  16  -1    0.81    1.63
 -20  16  -1    8.48    2.06
 -21  16  -1    1.47    1.71
   5  15  -1    0.57    1.35
   4  15  -1    1.82    1.37
   3  15  -1   -1.07    1.20
   2  15  -1   26.99    2.29
   1  15  -1   19.56    2.01
   0  15  -1    0.80    1.27
  -1  15  -1    6.45    1.50
  -2  15  -1   -0.25    1.22
  -3  15  -1    1.89    1.31
  -4  15  -1    4.77    1.56
  -5  15  -1   10.24    0.81
  -5  15  -1   10.62    1.79
  -6  15  -1    1.79    1.32
  -6  15  -1    2.95    0.75
  -7  15  -1    0.88    1.27
  -7  15  -1    1.31    0.66
  -8  15  -1   19.35    2.09
  -9  15  -1    3.18    0.43
  -9  15  -1    1.85    1.44
 -10  15  -1    3.57    1.56
 -11  15  -1    1.69    1.52
 -12  15  -1    0.86    1.44
 -13  15  -1   12.19    1.84
 -14  15  -1   12.79    1.97
 -15  15  -1   -0.94    1.44
 -16  15  -1    3.61    1.57
 -17  15  -1    4.16    1.71
 -18  15  -1    9.17    1.92
 -19  15  -1    0.09    1.59
 -20  15  -1    2.36    1.70
 -21  15  -1    6.89    1.88
   6  14  -1    5.21    1.51
   5  14  -1   10.90    1.76
   4  14  -1    0.24    1.26
   3  14  -1   25.75    2.21
   2  14  -1   -0.47    1.18
   1  14  -1   12.07    1.65
   0  14  -1    3.59    1.34
  -1  14  -1   23.71    2.08
  -2  14  -1   17.57    1.87
  -3  14  -1    2.86    1.31
  -4  14  -1   44.67    2.73
  -5  14  -1    0.86    0.50
  -5  14  -1    1.46    0.68
  -5  14  -1    0.95    0.40
  -5  14  -1   -0.84    0.54
  -5  14  -1    0.47    1.27
  -5  14  -1   -0.08    0.50
  -6  14  -1    0.31    0.61
  -6  14  -1    1.24    0.47
  -6  14  -1    0.68    1.21
  -7  14  -1   -0.25    0.41
  -7  14  -1   -0.18    1.18
  -7  14  -1    1.02    0.60
   7 -14   1    1.04    0.64
  -8  14  -1   62.28    1.86
  -8  14  -1   57.23    3.16
  -8  14  -1   61.99    2.15
   8 -14   1   58.30    2.13
  -9  14  -1   24.30    2.20
  -9  14  -1   25.81    1.07
   9 -14   1   26.01    1.27
 -10  14  -1    9.10    0.70
 -10  14  -1    6.29    1.57
  10 -14   1   10.41    0.76
 -11  14  -1   16.54    1.94
 -11  14  -1   17.01    1.05
 -12  14  -1    1.91    1.47
 -12  14  -1    1.68    0.62
 -13  14  -1    0.26    1.43
 -13  14  -1    1.27    0.66
 -13  14  -1    1.05    0.67
  13 -14   1    1.24    0.48
 -14  14  -1    3.68    1.58
 -14  14  -1    3.62    0.83
 -14  14  -1    3.51    0.75
 -15  14  -1    7.14    1.69
 -15  14  -1    7.15    0.93
 -15  14  -1    7.17    1.07
 -16  14  -1    1.28    1.48
 -16  14  -1    1.19    0.91
 -17  14  -1    2.42    1.49
 -17  14  -1    1.82    1.03
 -18  14  -1   15.42    1.60
 -18  14  -1   12.90    1.97
 -19  14  -1   -0.38    1.48
 -19  14  -1    2.53    1.20
 -20  14  -1    0.92    1.59
 -21  14  -1   -0.51    1.51
   7  13  -1    3.48    1.46
   6  13  -1    1.69    1.27
   5  13  -1    0.82    1.24
   4  13  -1    3.43    1.31
   1  13  -1    0.87    1.13
   0  13  -1    6.91    1.42
  -1  13  -1    2.58    1.23
  -2  13  -1   -0.02    1.13
  -3  13  -1   14.00    1.11
  -3  13  -1   14.09    1.66
  -4  13  -1   19.04    1.32
  -4  13  -1   21.46    1.17
  -4  13  -1   20.95    1.36
  -4  13  -1   19.92    1.88
  -5  13  -1    5.61    0.73
  -5  13  -1    6.92    1.42
  -5  13  -1    6.13    0.79
  -5  13  -1    5.71    0.65
  -5  13  -1    6.33    0.49
  -5  13  -1    5.08    0.54
  -6  13  -1   23.69    1.06
  -6  13  -1   20.24    1.26
  -6  13  -1   19.77    1.92
   6 -13   1   22.03    1.33
  -7  13  -1   78.39    2.50
  -7  13  -1   71.59    3.36
  -7  13  -1   76.50    2.26
   7 -13   1   73.77    2.49
  -8  13  -1    1.40    1.19
   8 -13   1    0.87    0.43
   8 -13   1    0.55    0.54
  -9  13  -1    4.35    0.56
  -9  13  -1    2.91    1.29
   9 -13   1    3.56    0.43
   9 -13   1    3.52    0.58
 -10  13  -1    5.41    0.63
 -10  13  -1    3.90    1.37
  10 -13   1    4.19    0.40
 -11  13  -1   59.09    2.06
 -11  13  -1   57.40    3.05
  11 -13   1   59.48    1.70
 -12  13  -1    5.79    1.54
 -12  13  -1    4.02    0.71
  12 -13   1    4.61    0.47
  12 -13   1    4.73    0.55
  12 -13   1    5.16    0.56
 -13  13  -1    9.21    0.89
 -13  13  -1   10.21    1.69
 -13  13  -1    9.89    1.00
  13 -13   1    8.60    0.69
 -14  13  -1   21.68    1.58
 -14  13  -1   26.24    2.23
 -14  13  -1   25.20    1.38
  14 -13   1   23.64    1.18
 -15  13  -1    0.53    0.74
 -15  13  -1    0.91    1.34
 -15  13  -1    0.53    0.88
  15 -13   1   -0.54    0.56
 -16  13  -1    8.58    1.23
 -16  13  -1    6.29    1.00
 -16  13  -1    8.42    1.65
 -17  13  -1    1.36    0.86
 -17  13  -1    0.81    1.00
 -17  13  -1   -0.51    1.29
 -18  13  -1   19.20    2.19
 -18  13  -1   24.25    1.99
 -19  13  -1    4.69    1.56
 -19  13  -1    4.66    1.29
 -20  13  -1    4.43    1.70
 -20  13  -1    4.97    1.39
 -21  13  -1    6.25    1.55
 -22  13  -1   -0.29    1.29
   7  12  -1    1.67    1.31
   1  12  -1    3.63    1.20
   0  12  -1    1.76    1.16
  -1  12  -1    7.96    1.34
  -2  12  -1   36.51    2.32
  -3  12  -1    9.93    0.85
  -3  12  -1    8.91    0.97
  -3  12  -1    9.58    0.94
  -3  12  -1    9.69    1.44
  -4  12  -1    4.07    0.60
  -4  12  -1    4.18    0.71
  -4  12  -1    4.91    0.79
  -4  12  -1    2.87    1.11
  -5  12  -1    1.81    0.59
  -5  12  -1    3.15    0.38
  -5  12  -1    3.02    0.69
  -5  12  -1    2.66    0.34
  -5  12  -1    2.42    1.12
  -5  12  -1    2.30    0.50
   5 -12   1    1.79    0.63
  -6  12  -1    9.16    1.40
  -6  12  -1   10.57    0.78
  -6  12  -1    9.69    0.84
   6 -12   1    9.32    0.84
   6 -12   1    9.32    0.76
  -7  12  -1   25.47    2.03
   7 -12   1   25.50    1.06
   7 -12   1   22.65    1.23
  -8  12  -1   24.91    2.09
   8 -12   1   21.94    1.14
   8 -12   1   23.71    0.97
  -9  12  -1   12.63    1.58
  -9  12  -1   10.91    0.77
   9 -12   1   11.03    0.68
 -10  12  -1   16.68    1.74
 -10  12  -1   17.82    1.08
  10 -12   1   17.87    0.81
 -11  12  -1    8.07    0.83
 -11  12  -1    8.07    1.45
  11 -12   1    8.55    0.62
  11 -12   1    8.56    0.62
 -12  12  -1    2.44    0.69
 -12  12  -1    2.70    0.74
 -12  12  -1    3.36    1.35
  12 -12   1    3.68    0.54
  12 -12   1    3.50    0.57
 -13  12  -1    3.73    1.41
 -13  12  -1    1.43    0.71
 -13  12  -1    2.01    0.78
  13 -12   1    2.15    0.55
  13 -12   1    1.73    0.57
 -14  12  -1   15.20    1.20
 -14  12  -1   14.48    1.82
 -14  12  -1   16.75    1.36
  14 -12   1   16.11    1.11
 -15  12  -1    1.16    0.81
 -15  12  -1   -0.18    0.83
 -15  12  -1    0.52    1.28
  15 -12   1    1.65    0.67
 -16  12  -1   18.94    1.46
 -16  12  -1   17.73    1.96
 -16  12  -1   18.81    1.59
  16 -12   1   19.08    1.32
 -17  12  -1   33.29    1.88
 -17  12  -1   34.47    2.58
 -17  12  -1   31.71    2.16
 -18  12  -1   -0.25    1.31
 -18  12  -1   -0.34    0.95
 -18  12  -1   -0.82    1.08
 -19  12  -1    1.54    1.12
 -19  12  -1   -2.00    1.34
 -20  12  -1    2.07    1.52
 -20  12  -1   -1.41    1.23
 -21  12  -1   10.48    1.76
 -22  12  -1    0.80    1.47
 -11 -11   1   -0.18    1.63
 -10 -11   1   10.59    2.04
  -9 -11   1   32.30    2.77
  -8 -11   1    0.03    1.36
  -7 -11   1    2.45    1.42
  -6 -11   1    0.28    1.21
  -5 -11   1   46.69    2.75
  -1  11  -1    0.89    1.01
  -2  11  -1   72.50    2.48
  -2  11  -1   76.21    3.16
  -2  11  -1   76.33    2.65
  -2  11  -1   73.01    2.61
  -3  11  -1   11.88    1.47
  -3  11  -1   11.21    0.99
  -3  11  -1   10.42    0.94
  -3  11  -1   10.52    0.80
  -4  11  -1   81.35    2.59
  -4  11  -1   78.00    3.29
  -4  11  -1   80.73    2.49
  -4  11  -1   84.08    2.66
   4 -11   1   78.54    2.58
   4 -11   1   80.94    2.68
  -5  11  -1   64.93    2.86
  -5  11  -1   58.94    1.67
  -5  11  -1   65.12    2.16
  -5  11  -1   62.77    1.95
  -5  11  -1   60.06    1.66
   5 -11   1   60.69    2.14
   5 -11   1   60.59    2.04
  -6  11  -1    1.24    1.05
   6 -11   1    2.14    0.55
   6 -11   1    1.60    0.48
  -7  11  -1    9.16    1.33
   7 -11   1    6.42    0.65
   7 -11   1    7.60    0.60
  -8  11  -1    6.21    1.26
   8 -11   1    6.01    0.52
  -9  11  -1    0.65    0.52
  -9  11  -1    0.34    1.05
   9 -11   1    0.40    0.36
 -10  11  -1    4.32    0.67
 -10  11  -1    3.86    1.23
  10 -11   1    3.85    0.51
  10 -11   1    4.72    0.50
 -11  11  -1   46.11    1.82
 -11  11  -1   47.45    2.58
  11 -11   1   42.99    1.52
  11 -11   1   41.81    1.57
 -12  11  -1    9.75    0.94
 -12  11  -1    7.60    1.43
 -12  11  -1    7.85    0.94
  12 -11   1    8.66    0.77
  12 -11   1    8.77    0.69
 -13  11  -1    1.56    1.25
 -13  11  -1    1.78    0.75
 -13  11  -1    2.61    0.86
  13 -11   1    2.85    0.62
  13 -11   1    3.38    0.62
 -14  11  -1    1.40    1.20
 -14  11  -1    2.16    0.90
 -14  11  -1    1.28    0.76
  14 -11   1    2.35    0.69
 -15  11  -1    8.18    1.50
 -15  11  -1    5.08    0.99
 -15  11  -1    6.46    1.20
  15 -11   1    5.90    0.85
 -16  11  -1   -0.18    0.82
 -16  11  -1    0.71    1.03
 -16  11  -1    0.68    1.24
  16 -11   1   -0.42    0.71
 -17  11  -1   26.03    2.22
 -17  11  -1   27.59    1.82
 -17  11  -1   24.32    1.93
  17 -11   1   24.76    1.62
 -18  11  -1    1.52    1.09
 -18  11  -1    0.13    1.06
 -18  11  -1    1.31    1.39
  18 -11   1    1.28    0.88
 -19  11  -1    2.30    1.42
 -19  11  -1    2.02    1.09
 -19  11  -1    1.00    1.29
 -20  11  -1    0.38    1.12
 -20  11  -1    0.56    1.29
 -20  11  -1   -1.74    1.27
 -21  11  -1    5.06    1.54
 -22  11  -1    3.45    1.61
 -12 -10   1    0.21    1.66
 -11 -10   1    7.01    1.92
 -10 -10   1    3.48    1.59
  -9 -10   1   23.33    2.37
   8  10  -1    1.66    1.49
  -8 -10   1    0.16    1.30
   7  10  -1   17.67    2.05
  -7 -10   1   16.32    1.89
   6  10  -1   22.20    2.01
  -6 -10   1   22.20    2.01
   5  10  -1    2.73    1.32
  -5 -10   1    4.79    1.31
   4  10  -1    8.99    1.49
  -4 -10   1   10.40    1.40
  -3 -10   1    4.00    1.08
  -1  10  -1  224.77    6.18
  -1  10  -1  219.27    6.25
  -1  10  -1  220.79    6.21
  -2  10  -1   14.54    1.04
  -2  10  -1   14.85    1.07
  -2  10  -1   14.79    1.12
  -3  10  -1   52.26    1.94
  -3  10  -1   45.55    2.39
  -3  10  -1   50.28    1.78
  -3  10  -1   52.13    1.89
   3 -10   1   50.79    1.86
   3 -10   1   50.94    1.98
  -4  10  -1    0.14    0.57
  -4  10  -1    0.99    0.45
  -4  10  -1    2.11    0.99
  -4  10  -1    1.75    0.55
   4 -10   1    0.80    0.52
   4 -10   1    1.43    0.59
  -5  10  -1   39.68    2.24
   5 -10   1   36.29    1.42
   5 -10   1   41.38    1.54
  -6  10  -1    6.30    1.19
   6 -10   1    7.21    0.60
   6 -10   1    6.71    0.64
  -7  10  -1   88.02    3.41
   7 -10   1   84.58    2.44
  -8  10  -1  124.21    3.70
  -8  10  -1  132.00    4.57
   8 -10   1  133.29    3.54
  -9  10  -1   53.93    1.93
  -9  10  -1   53.62    2.66
   9 -10   1   54.96    1.68
 -10  10  -1  111.19    3.45
 -10  10  -1  118.48    4.19
  10 -10   1  111.68    3.15
  10 -10   1  112.84    3.23
 -11  10  -1    3.24    0.74
 -11  10  -1    1.89    0.66
 -11  10  -1    3.11    1.21
  11 -10   1    2.84    0.56
  11 -10   1    1.12    0.49
 -12  10  -1   29.42    1.49
 -12  10  -1   28.18    2.14
 -12  10  -1   30.61    1.62
  12 -10   1   31.01    1.34
  12 -10   1   28.30    1.38
 -13  10  -1   13.86    1.27
 -13  10  -1   10.95    1.52
 -13  10  -1   14.93    1.16
  13 -10   1   13.50    1.07
 -14  10  -1   43.44    2.00
 -14  10  -1   41.82    2.54
 -14  10  -1   43.60    2.12
  14 -10   1   45.40    1.83
 -15  10  -1   10.76    1.20
 -15  10  -1   11.47    1.37
 -15  10  -1   13.94    1.70
  15 -10   1   10.08    1.01
 -16  10  -1    3.64    1.01
 -16  10  -1    2.89    1.11
 -16  10  -1    2.71    1.27
  16 -10   1    3.30    0.85
 -17  10  -1   37.53    2.54
 -17  10  -1   41.72    2.50
 -17  10  -1   40.57    2.17
  17 -10   1   37.96    1.94
 -18  10  -1    3.49    1.38
 -18  10  -1    3.08    1.15
 -18  10  -1    1.64    1.23
  18 -10   1    3.62    0.97
 -19  10  -1    3.76    1.37
 -19  10  -1    2.66    1.19
 -19  10  -1    3.96    1.43
  19 -10   1    2.18    1.00
 -20  10  -1    2.63    1.47
 -20  10  -1    1.05    1.20
 -21  10  -1   10.91    1.64
 -21  10  -1   10.36    1.91
 -22  10  -1    4.07    1.58
 -13  -9   1   -0.06    1.69
 -12  -9   1   11.74    2.13
  11   9  -1    0.67    1.56
 -11  -9   1    1.77    1.54
  10   9  -1    3.88    1.49
 -10  -9   1    2.55    1.51
 -10  -9   1    3.22    1.38
   9   9  -1   10.45    1.75
  -9  -9   1   12.36    1.75
  -9  -9   1   12.32    1.86
   8   9  -1    2.70    1.45
  -8  -9   1    2.32    1.34
  -8  -9   1    1.30    1.33
   7   9  -1    1.35    1.32
  -7  -9   1    0.51    1.19
  -7  -9   1   -0.18    1.15
   6   9  -1    3.72    1.32
  -6  -9   1    2.06    1.16
  -6  -9   1    5.00    1.32
   5   9  -1   26.23    2.06
  -5  -9   1   27.32    1.96
   4   9  -1    3.96    1.22
  -4  -9   1    5.42    1.13
   3   9  -1   14.89    1.51
  -3  -9   1   12.48    1.32
   2   9  -1    0.31    0.85
  -2  -9   1    0.35    0.73
   0   9  -1    0.73    0.65
  -1   9  -1   53.66    2.04
  -1   9  -1   53.13    2.01
  -1   9  -1   48.88    1.91
  -2   9  -1    3.76    0.60
  -2   9  -1    4.12    0.71
  -2   9  -1    4.80    0.69
   2  -9   1    2.37    0.64
   2  -9   1    3.42    0.72
  -3   9  -1   28.73    1.24
  -3   9  -1   27.86    1.35
  -3   9  -1   28.86    1.38
   3  -9   1   29.66    1.47
   3  -9   1   31.93    1.35
  -4   9  -1   19.86    1.09
  -4   9  -1   21.36    1.60
   4  -9   1   20.05    1.02
   4  -9   1   20.64    1.15
  -5   9  -1    2.36    0.96
   5  -9   1    0.94    0.44
   5  -9   1    1.16    0.47
  -6   9  -1  112.57    4.04
   6  -9   1  110.85    3.09
  -7   9  -1   11.97    1.31
   7  -9   1   13.20    0.76
  -8   9  -1    1.26    0.56
  -8   9  -1    1.38    1.02
   8  -9   1    2.06    0.38
  -9   9  -1    0.09    0.56
  -9   9  -1    0.43    0.96
   9  -9   1    1.19    0.41
 -10   9  -1  218.09    6.12
 -10   9  -1  218.44    6.83
  10  -9   1  217.87    5.89
  10  -9   1  220.89    5.79
 -11   9  -1   78.27    3.13
 -11   9  -1   69.31    2.44
 -11   9  -1   69.05    2.56
  11  -9   1   75.22    2.39
  11  -9   1   70.42    2.26
 -12   9  -1    5.61    0.95
 -12   9  -1    9.67    1.36
 -12   9  -1    8.56    0.93
  12  -9   1    9.93    0.82
 -13   9  -1   19.58    1.34
 -13   9  -1   18.11    1.48
 -13   9  -1   24.22    1.85
  13  -9   1   19.00    1.26
 -14   9  -1    0.86    0.94
 -14   9  -1    0.86    0.84
 -14   9  -1    0.36    1.09
  14  -9   1    0.23    0.67
 -15   9  -1    0.10    0.88
 -15   9  -1    0.95    1.07
 -15   9  -1    2.11    1.18
  15  -9   1    2.82    0.82
 -16   9  -1    1.28    1.09
 -16   9  -1    1.88    0.99
 -16   9  -1   -0.17    1.13
  16  -9   1    0.64    0.83
 -17   9  -1   26.42    1.87
 -17   9  -1   27.27    2.29
 -17   9  -1   31.69    2.33
  17  -9   1   29.21    1.80
 -18   9  -1   11.63    1.48
 -18   9  -1   15.54    1.82
 -18   9  -1   11.65    1.67
  18  -9   1   11.80    1.30
 -19   9  -1   22.49    1.98
 -19   9  -1   24.49    2.23
  19  -9   1   21.39    1.74
 -20   9  -1   29.45    2.59
 -20   9  -1   34.42    2.39
  20  -9   1   32.46    2.21
 -21   9  -1   -2.02    1.40
 -21   9  -1    0.42    1.23
 -22   9  -1    1.75    1.55
 -22   9  -1   -1.54    1.11
  13   8  -1    4.09    1.84
 -13  -8   1    2.29    1.52
 -13  -8   1    5.03    1.84
  12   8  -1    2.51    1.54
 -12  -8   1    0.16    1.45
 -12  -8   1    2.91    1.49
  11   8  -1    2.91    1.48
 -11  -8   1    2.71    1.47
 -11  -8   1    4.33    1.49
  10   8  -1    2.48    1.58
 -10  -8   1    3.58    1.49
 -10  -8   1    4.22    1.39
   9   8  -1   29.57    2.30
  -9  -8   1   30.84    2.24
  -9  -8   1   32.59    2.49
   8   8  -1   18.36    2.00
  -8  -8   1   20.04    2.00
  -8  -8   1   22.06    2.07
   7   8  -1   17.41    1.79
  -7  -8   1   16.65    1.67
  -7  -8   1   14.25    1.70
   6   8  -1   61.61    2.83
  -6  -8   1   59.50    2.82
  -6  -8   1   59.88    2.82
   5   8  -1    1.02    1.00
  -5  -8   1    1.52    0.99
  -5  -8   1    0.55    0.98
   4   8  -1   23.12    1.74
  -4  -8   1   20.64    1.62
  -4  -8   1   22.63    1.71
   3   8  -1    7.52    1.18
  -3  -8   1    4.36    0.93
   2   8  -1  131.05    4.11
  -2  -8   1  122.33    3.97
   1   8  -1    1.99    0.84
   1   8  -1    1.02    0.64
   0   8  -1    3.82    0.73
   0   8  -1    5.72    0.80
   0   8  -1    4.99    0.68
  -1   8  -1  109.77    3.36
  -1   8  -1  110.77    3.43
  -1   8  -1  116.09    3.46
   1  -8   1  111.37    3.42
   1  -8   1  119.50    3.50
  -2   8  -1    1.16    0.47
  -2   8  -1    1.69    0.60
  -2   8  -1    2.19    0.56
   2  -8   1    1.88    0.58
   2  -8   1    1.19    0.57
  -3   8  -1    3.29    0.55
  -3   8  -1    1.96    0.87
  -3   8  -1    2.49    0.52
   3  -8   1    3.08    0.60
   3  -8   1    3.71    0.59
  -4   8  -1   10.83    1.18
   4  -8   1    8.84    0.68
   4  -8   1    8.61    0.67
  -5   8  -1  248.88    7.58
   5  -8   1  253.42    6.64
   5  -8   1  261.39    6.64
  -6   8  -1   46.43    2.25
   6  -8   1   47.82    1.53
  -7   8  -1   17.35    1.48
   7  -8   1   20.77    0.81
  -8   8  -1    4.39    0.70
  -8   8  -1    4.36    1.02
   8  -8   1    4.95    0.51
  -9   8  -1   49.15    1.85
  -9   8  -1   48.03    2.33
   9  -8   1   47.37    1.56
   9  -8   1   45.54    1.64
 -10   8  -1   16.85    1.46
 -10   8  -1   15.53    1.14
 -10   8  -1   14.32    1.06
  10  -8   1   14.51    1.02
  10  -8   1   14.84    0.96
 -11   8  -1    8.45    1.23
 -11   8  -1    8.52    1.02
 -11   8  -1   10.92    0.97
  11  -8   1   10.37    0.89
  11  -8   1   10.22    0.80
 -12   8  -1    2.87    0.78
 -12   8  -1    3.61    1.09
 -12   8  -1    3.16    0.91
  12  -8   1    3.12    0.69
 -13   8  -1    6.46    1.20
 -13   8  -1    6.43    0.99
 -13   8  -1    5.59    1.06
  13  -8   1    4.40    0.77
 -14   8  -1    0.90    0.92
 -14   8  -1    0.59    1.05
 -14   8  -1    1.90    0.90
  14  -8   1   -0.56    0.67
 -15   8  -1    1.65    1.07
 -15   8  -1    1.49    1.08
 -15   8  -1    1.38    0.89
  15  -8   1    0.01    0.80
 -16   8  -1   16.58    1.69
 -16   8  -1   18.15    1.76
 -16   8  -1   17.29    1.57
  16  -8   1   16.13    1.39
 -17   8  -1    3.24    1.25
 -17   8  -1    0.84    1.21
 -17   8  -1    1.05    1.04
  17  -8   1    2.24    0.97
 -18   8  -1   -0.12    1.13
 -18   8  -1    1.88    1.31
 -18   8  -1    2.51    1.23
  18  -8   1    0.73    0.93
 -19   8  -1   -0.99    1.24
 -19   8  -1   -1.76    1.03
  19  -8   1    0.37    1.00
 -20   8  -1   22.23    2.10
 -20   8  -1   19.43    2.26
  20  -8   1   18.68    1.83
 -21   8  -1    1.78    1.61
 -21   8  -1    3.14    1.34
  21  -8   1    6.02    1.38
  14   7  -1    0.23    1.76
 -14  -7   1    0.75    1.38
 -14  -7   1    0.70    1.47
  13   7  -1    7.90    1.83
 -13  -7   1    4.73    1.77
 -13  -7   1    6.76    1.77
  12   7  -1    0.16    1.52
 -12  -7   1   -1.38    1.39
 -12  -7   1    0.10    1.20
  11   7  -1    1.70    1.44
 -11  -7   1   -0.57    1.18
 -11  -7   1    1.53    1.42
  10   7  -1   40.29    2.70
 -10  -7   1   41.57    2.53
 -10  -7   1   30.57    2.44
   9   7  -1    1.79    1.22
  -9  -7   1    2.28    1.15
  -9  -7   1   -0.65    1.08
   8   7  -1   -0.67    1.04
  -8  -7   1    1.47    1.17
  -8  -7   1    0.67    1.11
   7   7  -1    2.66    1.06
  -7  -7   1    1.22    1.08
  -7  -7   1   -0.69    0.98
   6   7  -1   71.30    2.96
  -6  -7   1   67.58    2.94
  -6  -7   1   71.34    3.00
   5   7  -1   23.67    1.78
  -5  -7   1   24.33    1.78
  -5  -7   1   23.33    1.75
   4   7  -1    8.29    1.14
  -4  -7   1    5.06    1.03
  -4  -7   1    6.92    1.09
   3   7  -1   92.89    3.19
  -3  -7   1   86.22    3.06
  -3  -7   1   82.47    3.06
   2   7  -1   13.61    1.22
  -2  -7   1   13.60    1.17
   1   7  -1   17.67    1.37
   1   7  -1   19.70    1.28
   1   7  -1   17.77    1.15
   1   7  -1   18.02    1.26
   0   7  -1   14.46    1.12
   0   7  -1   14.31    1.02
   0   7  -1   15.14    1.09
   0   7  -1   14.63    1.03
   0  -7   1   13.80    1.03
   0  -7   1   14.76    1.06
  -1   7  -1   78.40    2.51
  -1   7  -1   83.22    2.54
  -1   7  -1   78.63    2.46
   1  -7   1   81.86    2.61
   1  -7   1   75.78    2.52
  -2   7  -1  284.03    7.47
  -2   7  -1  288.92    7.44
  -2   7  -1  284.24    7.47
   2  -7   1  279.58    7.47
   2  -7   1  275.34    7.46
  -3   7  -1  270.08    7.04
   3  -7   1  272.34    7.03
   3  -7   1  261.64    7.03
  -4   7  -1  192.21    6.12
   4  -7   1  209.35    5.34
   4  -7   1  205.85    5.36
  -5   7  -1    5.05    0.91
   5  -7   1    3.62    0.46
  -6   7  -1    1.20    0.80
   6  -7   1    1.02    0.29
  -7   7  -1   12.46    1.18
  -7   7  -1   14.02    1.00
   7  -7   1   14.05    0.75
  -8   7  -1  106.71    3.82
  -8   7  -1  112.04    3.38
   8  -7   1  113.17    3.18
   8  -7   1  112.59    3.07
  -9   7  -1    4.01    0.97
  -9   7  -1    3.45    0.66
  -9   7  -1    4.20    0.76
   9  -7   1    3.47    0.54
   9  -7   1    3.68    0.58
 -10   7  -1   47.60    2.26
 -10   7  -1   44.55    1.96
 -10   7  -1   50.17    1.89
  10  -7   1   48.67    1.69
  10  -7   1   48.59    1.82
 -11   7  -1   76.04    2.60
 -11   7  -1   74.33    2.74
 -11   7  -1   77.57    3.02
  11  -7   1   76.97    2.49
 -12   7  -1    2.64    0.78
 -12   7  -1    4.04    1.03
 -12   7  -1    2.88    0.89
  12  -7   1    2.69    0.69
 -13   7  -1   17.85    1.42
 -13   7  -1   21.21    1.67
 -13   7  -1   22.39    1.68
  13  -7   1   22.41    1.41
 -14   7  -1   -0.02    0.93
 -14   7  -1   -0.37    0.78
 -14   7  -1    0.87    1.01
  14  -7   1    0.85    0.74
 -15   7  -1   18.18    1.66
 -15   7  -1   17.21    1.70
 -15   7  -1   17.29    1.52
  15  -7   1   16.86    1.37
 -16   7  -1    0.58    1.12
 -16   7  -1   -0.55    0.98
 -16   7  -1    2.00    1.08
  16  -7   1    0.90    0.93
 -17   7  -1   16.02    1.84
 -17   7  -1   15.48    1.63
 -17   7  -1   13.59    1.64
  17  -7   1   16.99    1.54
 -18   7  -1    1.11    1.16
 -18   7  -1    1.18    1.35
  18  -7   1    2.35    1.07
 -19   7  -1    0.68    1.34
 -19   7  -1    3.98    1.45
  19  -7   1    5.49    1.28
 -20   7  -1    2.79    1.59
 -20   7  -1    5.65    1.49
  20  -7   1    3.68    1.32
 -21   7  -1   -1.05    1.22
 -21   7  -1   -1.86    1.44
  21  -7   1    3.95    1.37
  15   6  -1    9.03    2.11
 -15  -6   1    3.95    1.75
 -15  -6   1    5.32    1.93
  14   6  -1   -0.53    1.57
 -14  -6   1    2.99    1.67
 -14  -6   1    0.92    1.53
  13   6  -1    4.64    1.67
 -13  -6   1    3.00    1.60
 -13  -6   1    6.86    1.59
  12   6  -1   -0.70    1.26
 -12  -6   1   -0.95    1.19
 -12  -6   1   -0.25    1.26
  11   6  -1   26.34    2.36
 -11  -6   1   27.55    2.35
 -11  -6   1   26.67    2.41
  10   6  -1    3.52    1.41
 -10  -6   1    3.95    1.29
 -10  -6   1    4.96    1.39
   9   6  -1    2.12    1.27
  -9  -6   1    0.65    1.13
  -9  -6   1    2.23    1.21
   8   6  -1    0.49    1.02
  -8  -6   1    0.10    0.94
  -8  -6   1   -1.10    1.02
   7   6  -1   20.94    1.76
  -7  -6   1   24.45    1.87
  -7  -6   1   20.43    1.65
   6   6  -1    8.49    1.27
  -6  -6   1    9.08    1.18
  -6  -6   1   10.00    1.30
   5   6  -1    2.01    0.96
  -5  -6   1    0.26    0.82
  -5  -6   1    0.77    0.85
   4   6  -1    7.64    1.11
  -4  -6   1    8.04    1.02
  -4  -6   1    7.06    1.02
   3   6  -1  115.53    3.70
  -3  -6   1  108.07    3.60
  -3  -6   1  112.85    3.62
   2   6  -1   50.51    1.96
   2   6  -1   51.71    2.02
   2   6  -1   50.84    2.03
   2   6  -1   49.00    2.09
  -2  -6   1   47.50    1.98
   1   6  -1    1.35    0.56
   1   6  -1    0.97    0.54
   1   6  -1    0.53    0.60
   1   6  -1    1.73    0.72
  -1  -6   1    1.25    0.61
  -1  -6   1    1.45    0.66
  -1  -6   1    1.53    0.66
   0   6  -1   95.04    2.89
   0   6  -1   92.85    2.86
   0   6  -1   94.28    2.93
   0   6  -1   92.19    2.81
   0  -6   1   92.86    2.91
   0  -6   1   95.99    2.91
  -1   6  -1   29.00    1.31
  -1   6  -1   28.89    1.22
  -1   6  -1   29.09    1.29
  -1   6  -1   29.68    1.32
   1  -6   1   36.42    1.40
   1  -6   1   32.71    1.30
  -2   6  -1   10.93    0.72
   2  -6   1    8.14    0.66
   2  -6   1   10.38    0.71
  -3   6  -1   31.41    1.22
   3  -6   1   33.77    1.18
   3  -6   1   32.81    1.17
  -4   6  -1  157.14    4.87
   4  -6   1  158.43    4.20
  -5   6  -1    6.02    0.91
   5  -6   1    7.78    0.45
  -6   6  -1   93.00    3.16
   6  -6   1   89.95    2.52
  -7   6  -1   76.48    2.51
  -7   6  -1   76.60    2.89
   7  -6   1   79.73    2.22
   7  -6   1   78.47    2.31
  -8   6  -1    2.42    0.82
  -8   6  -1    2.23    0.67
   8  -6   1    0.80    0.47
   8  -6   1    0.78    0.44
   8  -6   1    1.19    0.55
  -9   6  -1   28.22    1.51
  -9   6  -1   30.30    1.44
  -9   6  -1   27.99    1.74
   9  -6   1   31.36    1.32
   9  -6   1   30.22    1.39
   9  -6   1   29.47    1.65
 -10   6  -1    0.76    0.71
 -10   6  -1    1.30    0.80
 -10   6  -1   -0.25    0.64
  10  -6   1    1.16    0.57
 -11   6  -1   58.56    2.21
 -11   6  -1   56.60    2.47
 -11   6  -1   55.83    2.36
  11  -6   1   58.13    2.05
 -12   6  -1    7.81    1.13
 -12   6  -1    9.22    1.15
 -12   6  -1   10.09    1.11
  12  -6   1    8.79    0.92
 -13   6  -1   68.40    2.75
 -13   6  -1   72.87    2.95
 -13   6  -1   75.81    3.01
  13  -6   1   78.19    2.69
 -14   6  -1   57.38    2.66
 -14   6  -1   59.29    2.77
 -14   6  -1   63.31    2.62
  14  -6   1   52.85    2.28
 -15   6  -1    2.33    1.04
 -15   6  -1    1.66    1.01
 -15   6  -1    0.82    1.01
  15  -6   1    3.48    0.95
 -16   6  -1   21.07    1.91
 -16   6  -1   21.29    1.80
 -16   6  -1   20.13    1.72
  16  -6   1   21.03    1.65
 -17   6  -1    2.23    1.34
 -17   6  -1    2.54    1.19
  17  -6   1    0.32    1.00
 -18   6  -1    7.20    1.46
 -18   6  -1    6.51    1.62
  18  -6   1    6.10    1.29
 -19   6  -1    0.37    1.44
 -19   6  -1    0.70    1.23
  19  -6   1    1.30    1.10
 -20   6  -1    2.76    1.67
 -20   6  -1    5.30    1.61
  20  -6   1    6.92    1.46
 -21   6  -1    5.30    1.66
 -21   6  -1    4.84    1.81
  21  -6   1    6.54    1.60
  16   5  -1    3.92    1.75
 -16  -5   1    3.97    1.89
 -16  -5   1    3.58    1.62
  15   5  -1    2.68    1.73
 -15  -5   1    2.94    1.59
 -15  -5   1    2.43    1.62
  14   5  -1   -0.18    1.55
 -14  -5   1   -2.52    1.20
 -14  -5   1    0.57    1.45
  13   5  -1   20.68    2.23
 -13  -5   1   19.97    2.20
 -13  -5   1   20.19    2.23
  12   5  -1   31.34    2.53
 -12  -5   1   32.84    2.36
 -12  -5   1   35.74    2.64
  11   5  -1    1.05    1.30
 -11  -5   1    1.08    1.16
 -11  -5   1    0.27    1.16
  10   5  -1    9.08    1.45
 -10  -5   1   11.09    1.48
 -10  -5   1    9.46    1.57
   9   5  -1    0.86    1.11
  -9  -5   1   -0.70    1.02
  -9  -5   1   -1.02    1.04
   8   5  -1    6.44    1.19
  -8  -5   1    5.39    1.19
  -8  -5   1    6.58    1.19
   7   5  -1    2.17    1.04
  -7  -5   1    4.76    1.06
  -7  -5   1    2.48    0.93
   6   5  -1   52.32    2.40
  -6  -5   1   58.88    2.52
  -6  -5   1   54.69    2.44
   5   5  -1   38.16    1.99
  -5  -5   1   37.79    1.87
  -5  -5   1   39.91    1.88
   4   5  -1   -0.36    0.69
  -4  -5   1    0.36    0.76
  -4  -5   1    1.20    0.67
   3   5  -1  255.41    7.29
   3   5  -1  267.76    7.19
   3   5  -1  263.80    7.25
  -3  -5   1  262.48    7.30
  -3  -5   1  262.42    7.22
   2   5  -1    4.13    0.62
   2   5  -1    4.22    0.81
   2   5  -1    4.46    0.68
   2   5  -1    5.40    0.70
  -2  -5   1    3.14    0.73
  -2  -5   1    4.72    0.74
  -2  -5   1    3.88    0.71
  -2  -5   1    2.65    0.72
   1   5  -1    6.92    0.76
   1   5  -1    7.12    0.72
   1   5  -1    6.45    0.81
   1   5  -1    6.71    0.73
  -1  -5   1    8.09    0.82
  -1  -5   1    7.84    0.77
  -1  -5   1    8.45    0.81
   0   5  -1   72.18    2.27
   0   5  -1   69.80    2.33
   0   5  -1   69.52    2.22
   0   5  -1   71.67    2.27
   0  -5   1   75.07    2.32
   0  -5   1   75.24    2.29
  -1   5  -1   41.48    1.41
  -1   5  -1   40.11    1.43
  -1   5  -1   40.07    1.46
   1  -5   1   38.26    1.44
   1  -5   1   39.63    1.46
  -2   5  -1   14.71    0.81
  -2   5  -1   13.74    0.55
   2  -5   1   16.36    0.81
   2  -5   1   14.00    0.79
   3  -5   1  107.15    2.82
   3  -5   1  103.90    2.90
  -4   5  -1   24.09    1.48
   4  -5   1   22.50    0.70
  -5   5  -1   70.61    2.61
   5  -5   1   74.80    2.04
  -6   5  -1   27.32    1.58
  -6   5  -1   28.48    1.32
   6  -5   1   33.15    1.06
  -7   5  -1  288.95    7.46
  -7   5  -1  264.33    7.83
   7  -5   1  271.42    7.12
   7  -5   1  274.52    7.83
  -8   5  -1    4.01    0.84
  -8   5  -1    3.49    0.73
  -8   5  -1    3.69    0.71
   8  -5   1    3.54    0.55
   8  -5   1    3.03    0.61
  -9   5  -1   20.06    1.47
  -9   5  -1   22.52    1.41
  -9   5  -1   21.96    1.31
   9  -5   1   21.59    1.45
   9  -5   1   17.32    1.08
 -10   5  -1   33.97    1.89
 -10   5  -1   37.82    1.72
 -10   5  -1   40.44    1.89
  10  -5   1   39.39    1.60
  10  -5   1   38.96    1.89
 -11   5  -1    1.32    0.82
 -11   5  -1    1.16    0.74
 -11   5  -1    2.01    0.86
  11  -5   1    2.59    0.67
  11  -5   1    1.51    0.63
 -12   5  -1   24.11    1.74
 -12   5  -1   24.11    1.69
 -12   5  -1   27.22    1.59
  12  -5   1   20.82    1.42
  12  -5   1   21.97    1.59
 -13   5  -1    0.47    0.87
 -13   5  -1    0.76    0.88
 -13   5  -1    0.85    0.86
  13  -5   1    1.36    0.77
 -14   5  -1   25.58    1.80
 -14   5  -1   22.04    1.84
 -14   5  -1   29.23    2.07
  14  -5   1   29.59    1.78
 -15   5  -1    3.82    1.28
 -15   5  -1    3.78    1.23
  15  -5   1    2.77    1.01
 -16   5  -1   47.20    2.58
 -16   5  -1   41.87    2.63
  16  -5   1   43.46    2.38
 -17   5  -1   10.92    1.69
 -17   5  -1   10.24    1.59
  17  -5   1   10.49    1.46
 -18   5  -1    0.11    1.36
 -18   5  -1   -0.63    1.14
  18  -5   1    1.75    1.13
 -19   5  -1    8.33    1.89
 -19   5  -1   10.23    1.79
  19  -5   1   12.45    1.66
 -20   5  -1   -2.75    1.17
 -20   5  -1    1.72    1.65
  20  -5   1    1.22    1.32
 -21   5  -1    2.92    1.74
 -21   5  -1    0.22    1.39
  21  -5   1    0.69    1.37
  16   4  -1    6.83    1.93
 -16  -4   1    7.83    1.96
 -16  -4   1    4.63    1.62
  15   4  -1    0.87    1.60
 -15  -4   1    1.10    1.41
 -15  -4   1    2.09    1.46
  14   4  -1   15.05    1.95
 -14  -4   1   11.60    1.84
 -14  -4   1   14.59    2.11
  13   4  -1    1.32    1.38
 -13  -4   1    3.08    1.40
 -13  -4   1    0.07    1.32
  12   4  -1   18.95    2.02
 -12  -4   1   16.98    1.92
 -12  -4   1   17.97    1.98
  11   4  -1    5.09    1.42
 -11  -4   1    7.03    1.34
 -11  -4   1    5.42    1.45
  10   4  -1   41.98    2.51
 -10  -4   1   46.34    2.60
 -10  -4   1   36.01    2.22
   9   4  -1   23.33    1.84
  -9  -4   1   19.56    1.72
  -9  -4   1   21.13    1.79
   8   4  -1    4.67    1.05
  -8  -4   1    2.97    0.94
  -8  -4   1    2.25    0.90
   7   4  -1   76.32    2.95
  -7  -4   1   76.79    2.96
  -7  -4   1   75.88    2.89
   6   4  -1   -0.02    0.72
  -6  -4   1   -0.10    0.79
  -6  -4   1   -0.10    0.81
   5   4  -1   23.27    1.58
  -5  -4   1   22.58    1.42
  -5  -4   1   19.34    1.38
   4   4  -1    9.95    0.97
   4   4  -1    9.88    0.97
   4   4  -1    8.11    0.95
  -4  -4   1   10.23    1.00
  -4  -4   1    8.59    0.98
   3   4  -1  200.62    5.67
   3   4  -1  198.56    5.63
   3   4  -1  200.31    5.70
   3   4  -1  194.20    5.56
  -3  -4   1  212.02    5.72
  -3  -4   1  203.89    5.70
  -3  -4   1  201.02    5.61
   2   4  -1  149.92    4.42
   2   4  -1  157.89    4.52
   2   4  -1  152.96    4.42
   2   4  -1  157.70    4.46
  -2  -4   1  163.13    4.48
  -2  -4   1  158.37    4.49
  -2  -4   1  158.13    4.47
  -2  -4   1  161.01    4.49
   1   4  -1   21.89    1.07
   1   4  -1   22.80    1.21
   1   4  -1   19.38    1.14
   1   4  -1   22.09    1.11
  -1  -4   1   26.30    1.24
  -1  -4   1   25.31    1.17
  -1  -4   1   24.61    1.17
   0   4  -1  264.72    6.79
   0   4  -1  257.74    6.83
   0   4  -1  257.30    6.86
   0   4  -1  264.17    6.84
   0  -4   1  257.16    6.84
   0  -4   1  255.26    6.81
  -1   4  -1    3.27    0.47
  -1   4  -1    2.47    0.44
  -1   4  -1    2.35    0.33
   1  -4   1    2.33    0.42
   1  -4   1    1.46    0.45
  -2   4  -1   15.12    0.83
   2  -4   1   15.51    0.77
   2  -4   1   16.32    0.70
   3  -4   1   13.69    0.51
  -4   4  -1  251.56    7.22
   4  -4   1  259.63    6.45
  -5   4  -1   38.11    1.63
  -5   4  -1   38.78    1.46
   5  -4   1   37.01    1.18
  -6   4  -1   10.47    0.92
  -6   4  -1   10.46    0.82
   6  -4   1    9.01    0.65
   6  -4   1    8.74    0.74
  -7   4  -1  274.95    7.16
  -7   4  -1  269.86    7.34
  -7   4  -1  265.48    7.63
   7  -4   1  261.79    7.58
   7  -4   1  272.29    7.05
  -8   4  -1    8.85    0.96
  -8   4  -1    9.14    0.93
  -8   4  -1    9.55    0.90
   8  -4   1    9.19    0.81
   8  -4   1    8.82    0.74
  -9   4  -1    1.01    0.61
  -9   4  -1    1.12    0.71
  -9   4  -1    2.01    0.79
  -9   4  -1    0.87    0.73
   9  -4   1    1.88    0.56
   9  -4   1    0.28    0.52
 -10   4  -1    8.20    0.99
 -10   4  -1    9.12    0.98
 -10   4  -1    7.03    0.86
 -10   4  -1    8.66    1.10
  10  -4   1    8.79    0.86
  10  -4   1    7.40    0.78
 -11   4  -1    6.70    1.09
 -11   4  -1   11.02    1.07
 -11   4  -1    9.24    1.10
  11  -4   1    8.28    0.92
  11  -4   1    6.14    0.76
 -12   4  -1   21.98    1.60
 -12   4  -1   19.25    1.55
 -12   4  -1   23.87    1.59
  12  -4   1   23.05    1.51
  12  -4   1   23.12    1.45
 -13   4  -1    4.63    1.06
 -13   4  -1    4.08    1.20
  13  -4   1    3.39    0.68
  13  -4   1    3.81    0.94
 -14   4  -1    7.80    1.27
 -14   4  -1   10.10    1.48
  14  -4   1    7.76    0.87
  14  -4   1    7.93    1.16
 -15   4  -1    2.48    1.27
 -15   4  -1    0.00    0.94
  15  -4   1    1.99    1.02
 -16   4  -1   12.04    1.73
 -16   4  -1   10.92    1.56
  16  -4   1   12.44    1.48
 -17   4  -1    6.29    1.46
 -17   4  -1    8.36    1.69
  17  -4   1    6.28    1.40
 -18   4  -1    2.36    1.35
 -18   4  -1    4.86    1.60
  18  -4   1    1.02    1.22
 -19   4  -1    3.43    1.65
 -19   4  -1    3.02    1.47
  19  -4   1    3.45    1.51
 -20   4  -1    2.30    1.65
 -20   4  -1    1.91    1.56
  20  -4   1    3.17    1.51
  17   3  -1    2.17    1.74
 -17  -3   1    0.25    1.68
 -17  -3   1   -0.25    1.38
  16   3  -1    1.60    1.64
 -16  -3   1    2.67    1.70
 -16  -3   1   -1.26    1.37
  15   3  -1   11.17    1.95
 -15  -3   1    6.98    1.68
 -15  -3   1    8.95    1.83
  14   3  -1    1.79    1.43
 -14  -3   1    0.83    1.22
 -14  -3   1    1.13    1.41
  13   3  -1    4.95    1.42
 -13  -3   1    8.13    1.48
 -13  -3   1    8.62    1.69
  12   3  -1    0.31    1.25
 -12  -3   1    1.75    1.11
 -12  -3   1    0.28    1.25
  11   3  -1    1.07    1.20
 -11  -3   1    3.44    1.21
 -11  -3   1    1.59    1.11
  10   3  -1   12.36    1.51
 -10  -3   1   10.74    1.42
 -10  -3   1   12.34    1.48
   9   3  -1    9.99    1.28
  -9  -3   1    7.61    1.27
  -9  -3   1    9.39    1.21
   8   3  -1   11.01    1.29
  -8  -3   1    9.16    1.27
  -8  -3   1   10.68    1.21
   7   3  -1   49.67    2.31
  -7  -3   1   46.51    2.07
  -7  -3   1   45.08    2.14
   6   3  -1   27.09    1.65
  -6  -3   1   31.31    1.67
  -6  -3   1   28.16    1.62
   5   3  -1    4.20    0.86
   5   3  -1    2.46    0.72
   5   3  -1    3.02    0.69
  -5  -3   1    2.67    0.71
  -5  -3   1    4.23    0.82
   4   3  -1  258.53    7.35
   4   3  -1  262.13    7.24
   4   3  -1  273.17    7.38
   4   3  -1  282.02    7.41
  -4  -3   1  267.45    7.36
  -4  -3   1  268.65    7.44
  -4  -3   1  274.09    7.34
   3   3  -1   29.82    1.45
   3   3  -1   32.71    1.48
   3   3  -1   31.87    1.39
   3   3  -1   31.95    1.53
  -3  -3   1   30.00    1.39
  -3  -3   1   32.99    1.50
  -3  -3   1   33.18    1.48
  -3  -3   1   32.21    1.58
   2   3  -1  114.97    3.24
   2   3  -1  115.09    3.23
   2   3  -1  109.71    3.21
   2   3  -1  106.17    3.21
  -2  -3   1  106.83    3.24
  -2  -3   1  109.22    3.24
  -2  -3   1  106.92    3.23
  -2  -3   1  110.78    3.20
   1   3  -1   13.73    0.96
   1   3  -1   15.02    0.93
   1   3  -1   16.09    0.90
   1   3  -1   13.95    0.84
  -1  -3   1   13.81    0.92
  -1  -3   1   13.90    0.92
  -1  -3   1   14.48    0.99
   0   3  -1  349.89    8.92
   0   3  -1  351.41    9.03
   0   3  -1  336.67    9.08
   0   3  -1  355.00    9.01
   0  -3   1  354.65    9.00
   0  -3   1  355.91    9.04
  -1   3  -1  127.32    3.20
  -1   3  -1  128.32    3.35
  -1   3  -1  124.81    3.29
   1  -3   1  120.50    3.27
   1  -3   1  120.81    3.35
   2  -3   1    5.85    0.33
  -3   3  -1  347.29    9.56
  -4   3  -1    2.18    0.58
   4  -3   1    2.05    0.31
  -5   3  -1   14.14    1.00
  -5   3  -1   14.50    1.13
  -5   3  -1   14.70    0.81
   5  -3   1   15.57    0.78
   5  -3   1   14.11    1.02
  -6   3  -1   32.19    1.31
  -6   3  -1   32.19    1.36
  -6   3  -1   33.78    1.47
  -6   3  -1   30.25    1.44
   6  -3   1   33.42    1.26
   6  -3   1   32.73    1.44
  -7   3  -1  192.13    5.82
  -7   3  -1  199.44    5.59
  -7   3  -1  205.08    5.76
  -7   3  -1  206.75    5.53
   7  -3   1  206.41    5.80
   7  -3   1  213.26    5.76
   7  -3   1  201.35    5.49
  -8   3  -1  263.76    7.00
  -8   3  -1  256.08    7.18
  -8   3  -1  255.31    7.27
  -8   3  -1  265.60    6.96
   8  -3   1  238.95    6.86
   8  -3   1  258.26    7.21
  -9   3  -1  110.03    3.57
  -9   3  -1  114.90    3.57
  -9   3  -1  117.83    3.55
  -9   3  -1  114.22    3.71
   9  -3   1  105.33    3.41
   9  -3   1  114.60    3.50
 -10   3  -1   80.76    2.87
 -10   3  -1   78.77    3.00
 -10   3  -1   81.46    2.86
  10  -3   1   82.28    2.83
  10  -3   1   90.02    2.79
 -11   3  -1    5.11    0.97
 -11   3  -1    5.40    1.08
 -11   3  -1    5.43    0.88
  11  -3   1    5.36    0.89
  11  -3   1    6.61    0.74
 -12   3  -1   12.69    1.44
 -12   3  -1    9.20    1.22
  12  -3   1   10.90    1.14
  12  -3   1    9.27    0.84
 -13   3  -1    4.14    1.02
 -13   3  -1    4.07    1.22
  13  -3   1    3.56    0.69
  13  -3   1    4.87    1.02
 -14   3  -1   15.11    1.74
 -14   3  -1   16.90    1.67
  14  -3   1   17.88    1.56
 -15   3  -1    1.27    1.02
 -15   3  -1    0.46    1.10
  15  -3   1   -0.74    0.92
 -16   3  -1   14.75    1.70
 -16   3  -1   13.84    1.92
  16  -3   1   17.08    1.71
 -17   3  -1   28.06    2.48
 -17   3  -1   27.72    2.34
  17  -3   1   26.65    2.17
 -18   3  -1    1.89    1.36
 -18   3  -1   -0.98    1.41
  18  -3   1    2.30    1.34
 -19   3  -1    0.70    1.38
 -19   3  -1    3.57    1.67
  19  -3   1    1.37    1.40
 -20   3  -1   -2.53    1.29
 -20   3  -1   -0.05    1.59
  20  -3   1    1.31    1.61
  18   2  -1    5.89    1.90
 -18  -2   1    3.55    1.86
 -18  -2   1    5.90    1.84
  17   2  -1    1.25    1.57
 -17  -2   1   -0.02    1.55
 -17  -2   1    0.92    1.52
  16   2  -1   10.55    1.97
 -16  -2   1    9.42    1.85
 -16  -2   1   10.30    1.81
  15   2  -1    3.38    1.53
 -15  -2   1    6.04    1.59
 -15  -2   1    4.39    1.53
  14   2  -1    1.73    1.43
 -14  -2   1    2.00    1.31
 -14  -2   1    1.74    1.30
  13   2  -1   -0.39    1.08
 -13  -2   1    0.19    1.03
 -13  -2   1    1.16    1.31
  12   2  -1   14.06    1.64
 -12  -2   1   14.86    1.64
 -12  -2   1   13.77    1.73
  11   2  -1    1.28    1.02
 -11  -2   1    2.24    1.09
 -11  -2   1    2.56    1.11
  10   2  -1   29.98    2.04
  10   2  -1   29.53    1.79
 -10  -2   1   31.93    1.88
 -10  -2   1   27.33    1.90
   9   2  -1   74.03    3.04
  -9  -2   1   74.60    2.97
  -9  -2   1   74.59    2.89
   8   2  -1   14.58    1.39
  -8  -2   1   12.23    1.23
  -8  -2   1   13.76    1.31
   7   2  -1    2.26    0.89
  -7  -2   1    2.75    0.80
  -7  -2   1    4.16    0.94
   6   2  -1    1.49    0.71
   6   2  -1    1.57    0.63
   6   2  -1    1.65    0.70
  -6  -2   1    2.26    0.81
  -6  -2   1    0.92    0.68
   5   2  -1  283.14    7.69
   5   2  -1  289.68    7.63
  -5  -2   1  279.42    7.81
  -5  -2   1  279.21    7.65
   4   2  -1   10.17    0.86
   4   2  -1   11.20    0.87
   4   2  -1    8.96    0.89
   4   2  -1    9.67    0.83
  -4  -2   1    9.82    0.89
  -4  -2   1    8.73    0.85
  -4  -2   1    8.78    0.88
   3   2  -1   13.27    1.01
   3   2  -1   12.43    0.89
   3   2  -1   12.70    1.01
   3   2  -1   13.93    1.04
  -3  -2   1   14.08    1.06
  -3  -2   1   14.87    0.99
  -3  -2   1   15.47    1.04
  -3  -2   1   15.82    1.04
   2   2  -1   15.23    0.89
   2   2  -1   14.98    0.98
   2   2  -1   16.35    0.95
   2   2  -1   14.57    0.88
  -2  -2   1   16.32    0.90
  -2  -2   1   15.05    0.99
  -2  -2   1   16.66    0.93
  -2  -2   1   14.25    0.95
   1   2  -1    5.24    0.50
   1   2  -1    5.58    0.48
   1   2  -1    3.94    0.52
   1   2  -1    3.91    0.50
   1   2  -1    4.29    0.51
  -1  -2   1    5.20    0.51
  -1  -2   1    5.59    0.53
  -1  -2   1    5.04    0.50
   0   2  -1   49.54    1.60
   0   2  -1   57.55    1.56
   0   2  -1   54.39    1.64
   0  -2   1   57.41    1.65
   0  -2   1   57.27    1.56
   0  -2   1   56.74    1.60
  -1   2  -1    0.23    0.16
  -1   2  -1    0.08    0.17
   1  -2   1    0.26    0.15
   1  -2   1    0.27    0.24
  -3   2  -1  124.10    3.54
  -3   2  -1  122.09    3.19
   3  -2   1  121.99    3.18
  -4   2  -1   14.66    0.81
  -4   2  -1   15.82    0.94
  -4   2  -1   15.73    0.90
   4  -2   1   15.33    0.93
   4  -2   1   13.66    0.70
  -5   2  -1  110.91    3.10
  -5   2  -1  116.26    3.20
  -5   2  -1  109.77    3.25
  -5   2  -1  114.15    3.30
   5  -2   1  103.91    3.06
   5  -2   1  108.63    3.23
   5  -2   1  107.92    3.28
  -6   2  -1  153.99    4.55
  -6   2  -1  156.13    4.44
  -6   2  -1  158.99    4.40
  -6   2  -1  158.87    4.55
   6  -2   1  166.41    4.59
   6  -2   1  154.21    4.35
   6  -2   1  160.83    4.52
  -7   2  -1    3.79    0.79
  -7   2  -1    4.56    0.67
  -7   2  -1    5.00    0.66
  -7   2  -1    4.63    0.78
   7  -2   1    3.74    0.55
   7  -2   1    3.64    0.60
  -8   2  -1   48.75    1.99
  -8   2  -1   48.91    1.83
  -8   2  -1   46.54    1.95
  -8   2  -1   48.29    1.91
   8  -2   1   44.22    1.81
   8  -2   1   45.88    1.76
  -9   2  -1   11.51    1.22
  -9   2  -1   12.47    1.17
   9  -2   1   13.45    1.06
   9  -2   1   12.64    1.04
 -10   2  -1  120.60    4.12
 -10   2  -1  122.50    4.01
  10  -2   1  122.87    3.92
  10  -2   1  133.50    3.81
 -11   2  -1    0.61    0.81
 -11   2  -1    0.83    0.84
  11  -2   1    1.33    0.76
  11  -2   1    0.35    0.51
 -12   2  -1   17.95    1.63
 -12   2  -1   17.49    1.57
  12  -2   1   16.17    1.44
  12  -2   1   16.83    1.22
 -13   2  -1   57.17    2.72
 -13   2  -1   60.70    2.73
  13  -2   1   55.83    2.17
  13  -2   1   58.12    2.61
 -14   2  -1    1.63    1.24
 -14   2  -1    2.52    1.20
  14  -2   1    1.91    1.05
 -15   2  -1   11.63    1.76
 -15   2  -1   11.73    1.53
  15  -2   1   12.92    1.60
 -16   2  -1   -0.41    1.21
 -16   2  -1   -0.42    1.26
  16  -2   1   -0.93    1.12
 -17   2  -1   29.13    2.22
 -17   2  -1   29.47    2.57
  17  -2   1   26.28    2.22
 -18   2  -1    4.71    1.71
 -18   2  -1    5.95    1.65
  18  -2   1    5.59    1.63
 -19   2  -1   11.01    1.95
 -19   2  -1    9.86    2.07
  19  -2   1    9.79    1.86
 -20   2  -1    2.01    1.60
 -20   2  -1    4.67    1.69
  20  -2   1    5.13    1.73
  18   1  -1    1.95    1.69
 -18  -1   1    1.35    1.55
 -18  -1   1    3.09    1.73
  17   1  -1    1.01    1.55
 -17  -1   1   -0.15    1.28
 -17  -1   1   -0.13    1.53
  16   1  -1   23.50    2.34
 -16  -1   1   22.92    2.39
 -16  -1   1   22.76    2.22
  15   1  -1    3.30    1.34
 -15  -1   1    3.42    1.33
 -15  -1   1    2.63    1.38
  14   1  -1    4.23    1.50
 -14  -1   1    7.73    1.62
 -14  -1   1    7.35    1.47
  13   1  -1   22.69    2.01
 -13  -1   1   21.32    1.87
 -13  -1   1   19.82    1.95
  12   1  -1    0.28    1.11
 -12  -1   1    1.65    1.06
 -12  -1   1    3.03    1.17
  11   1  -1    9.79    1.41
  11   1  -1    8.87    0.99
 -11  -1   1    7.28    1.32
 -11  -1   1    7.41    1.20
  10   1  -1    1.63    0.99
  10   1  -1    2.63    0.74
 -10  -1   1    2.83    1.00
 -10  -1   1    1.93    0.95
   9   1  -1  212.86    6.42
   9   1  -1  224.54    6.43
  -9  -1   1  212.33    6.47
  -9  -1   1  213.51    6.34
   8   1  -1   49.80    2.21
   8   1  -1   46.60    2.07
  -8  -1   1   47.12    2.13
  -8  -1   1   48.52    2.22
   7   1  -1  112.09    3.56
   7   1  -1  108.40    3.48
  -7  -1   1  114.42    3.66
  -7  -1   1  103.39    3.47
   6   1  -1   77.46    2.61
   6   1  -1   81.79    2.65
  -6  -1   1   76.16    2.61
  -6  -1   1   73.68    2.65
   5   1  -1   31.44    1.41
   5   1  -1   31.50    1.54
   5   1  -1   28.38    1.44
   5   1  -1   29.90    1.47
  -5  -1   1   34.71    1.62
  -5  -1   1   35.99    1.52
  -5  -1   1   35.34    1.59
   4   1  -1   40.10    1.58
   4   1  -1   40.75    1.57
   4   1  -1   41.05    1.67
   4   1  -1   42.47    1.63
  -4  -1   1   35.53    1.53
  -4  -1   1   39.85    1.57
  -4  -1   1   36.85    1.64
   3   1  -1    2.58    0.52
   3   1  -1    2.94    0.50
   3   1  -1    2.55    0.48
   3   1  -1    1.82    0.48
   3   1  -1    1.92    0.55
  -3  -1   1    2.32    0.56
  -3  -1   1    2.06    0.54
  -3  -1   1    1.47    0.49
  -3  -1   1    0.83    0.53
   2   1  -1  124.54    3.42
   2   1  -1  123.89    3.45
   2   1  -1  125.53    3.40
   2   1  -1  126.25    3.41
  -2  -1   1  127.12    3.43
  -2  -1   1  119.33    3.44
  -2  -1   1  127.93    3.44
  -2  -1   1  121.80    3.38
   1   1  -1    0.27    0.29
   1   1  -1    0.57    0.27
   1   1  -1    0.19    0.23
   1   1  -1    0.78    0.27
  -1  -1   1    0.00    0.22
  -1  -1   1    0.33    0.26
  -1  -1   1    0.69    0.26
   0   1  -1   -0.15    0.15
   0  -1   1    0.02    0.12
  -2   1  -1    0.83    0.24
  -3   1  -1    4.89    0.56
  -3   1  -1    5.06    0.47
  -3   1  -1    4.64    0.42
   3  -1   1    5.82    0.44
  -4   1  -1   14.03    0.97
  -4   1  -1   14.86    0.90
  -4   1  -1   14.44    0.76
  -4   1  -1   14.79    0.87
   4  -1   1   14.25    0.75
   4  -1   1   14.71    0.82
   4  -1   1   14.48    1.04
  -5   1  -1   20.08    1.26
  -5   1  -1   22.32    1.13
  -5   1  -1   22.71    1.20
  -5   1  -1   21.92    1.00
   5  -1   1   24.60    1.12
   5  -1   1   23.68    0.98
   5  -1   1   22.56    1.27
  -6   1  -1    8.07    0.86
  -6   1  -1    6.87    0.83
  -6   1  -1    7.14    0.76
  -6   1  -1    6.36    0.61
   6  -1   1    8.10    0.75
   6  -1   1    8.81    0.57
   6  -1   1    8.65    0.87
  -7   1  -1    1.62    0.64
  -7   1  -1    0.71    0.63
  -7   1  -1    0.45    0.63
   7  -1   1    2.15    0.70
   7  -1   1    1.63    0.63
   7  -1   1    1.40    0.42
  -8   1  -1   19.13    1.37
  -8   1  -1   18.59    1.39
   8  -1   1   22.75    1.09
   8  -1   1   22.26    1.43
   8  -1   1   21.89    1.38
  -9   1  -1    1.52    0.81
  -9   1  -1    0.65    0.84
   9  -1   1    2.06    0.49
   9  -1   1    1.95    0.74
 -10   1  -1   53.14    2.42
 -10   1  -1   55.03    2.40
  10  -1   1   60.02    2.38
  10  -1   1   58.01    1.99
 -11   1  -1    4.20    1.04
 -11   1  -1    2.79    1.05
  11  -1   1    3.82    0.58
  11  -1   1    5.17    1.03
 -12   1  -1    7.69    1.28
 -12   1  -1    9.58    1.35
  12  -1   1    7.32    1.16
  12  -1   1    8.84    0.76
 -13   1  -1    3.13    1.18
 -13   1  -1    5.32    1.32
  13  -1   1    4.06    1.15
  13  -1   1    5.51    0.67
 -14   1  -1    0.40    1.23
 -14   1  -1    1.24    1.16
  14  -1   1    0.64    1.10
 -15   1  -1   12.27    1.61
 -15   1  -1    9.48    1.71
  15  -1   1   10.21    1.56
 -16   1  -1   17.55    2.00
 -16   1  -1   19.60    2.17
  16  -1   1   20.40    2.02
 -17   1  -1    0.51    1.32
 -17   1  -1   -0.19    1.33
  17  -1   1    2.72    1.42
 -18   1  -1    2.09    1.47
 -18   1  -1    0.98    1.45
  18  -1   1   -1.42    1.49
 -19   1  -1    1.74    1.57
 -19   1  -1    4.24    1.80
  19  -1   1    2.00    1.61
  19   0  -1    1.13    1.70
 -19   0   1    1.95    1.59
 -19   0   1    4.59    1.73
  18   0  -1   -0.91    1.53
 -18   0   1   -0.72    1.50
 -18   0   1    0.74    1.38
  17   0  -1    5.20    1.67
 -17   0   1    4.69    1.59
 -17   0   1    4.53    1.69
  16   0  -1    5.33    1.61
 -16   0   1    5.82    1.58
 -16   0   1    7.48    1.74
  15   0  -1    1.46    1.32
 -15   0   1    0.41    1.20
 -15   0   1   -0.93    1.19
  14   0  -1    4.59    1.38
 -14   0   1    5.46    1.38
 -14   0   1    3.65    1.41
  13   0  -1    8.46    1.46
 -13   0   1    5.52    1.30
 -13   0   1    7.50    1.28
  12   0  -1    3.00    1.02
 -12   0   1    1.89    1.14
 -12   0   1    3.86    1.13
  11   0  -1   43.15    2.28
  11   0  -1   42.72    2.01
 -11   0   1   42.50    2.21
 -11   0   1   40.62    2.21
  10   0  -1  110.64    3.64
  10   0  -1  119.03    3.84
 -10   0   1  100.22    3.64
 -10   0   1  107.05    3.87
   9   0  -1    0.92    0.63
   9   0  -1    0.34    0.84
  -9   0   1    0.73    0.84
  -9   0   1   -0.27    0.69
   8   0  -1    4.21    0.87
   8   0  -1    4.49    0.78
  -8   0   1    5.06    0.91
  -8   0   1    4.55    0.87
   7   0  -1   20.30    1.36
   7   0  -1   17.32    1.29
   7   0  -1   16.72    1.14
   7   0  -1   13.80    1.16
  -7   0   1   16.05    1.18
  -7   0   1   17.17    1.37
   6   0  -1   98.29    2.96
   6   0  -1   93.85    3.12
   6   0  -1   96.34    3.02
   6   0  -1   97.07    3.03
   6   0  -1   97.77    3.06
  -6   0   1   92.61    2.99
  -6   0   1   95.53    3.11
  -6   0   1   93.42    3.05
   5   0  -1   70.48    2.31
   5   0  -1   71.25    2.29
   5   0  -1   68.50    2.40
   5   0  -1   70.74    2.34
   5   0  -1   71.44    2.38
  -5   0   1   79.99    2.41
  -5   0   1   74.97    2.37
  -5   0   1   70.87    2.38
   4   0  -1  252.60    6.91
   4   0  -1  254.51    6.86
   4   0  -1  257.41    6.84
   4   0  -1  262.16    6.78
   4   0  -1  253.03    6.84
  -4   0   1  257.43    6.87
  -4   0   1  262.61    6.96
  -4   0   1  268.60    6.90
  -4   0   1  255.27    6.78
   3   0  -1  350.81    8.82
   3   0  -1  340.37    8.91
   3   0  -1  333.92    8.93
   3   0  -1  345.14    9.02
   3   0  -1  348.20    8.93
  -3   0   1  345.46    8.93
  -3   0   1  341.63    8.83
  -3   0   1  355.57    9.05
   2   0  -1   55.00    1.69
   2   0  -1   55.19    1.67
   2   0  -1   56.53    1.68
   2   0  -1   56.26    1.64
  -2   0   1   59.51    1.68
  -2   0   1   56.84    1.70
  -2   0   1   57.51    1.71
  -2   0   1   59.58    1.69
   0   0  -1   -0.09    0.11
   0   0   1   -0.18    0.11
  -2   0  -1   57.35    1.74
  -2   0  -1   56.12    1.68
  -3   0  -1  346.13    9.24
  -3   0  -1  350.74    9.10
  -3   0  -1  355.36    9.07
   3   0   1  346.44    9.09
   3   0   1  367.20    9.25
  -4   0  -1  252.76    6.90
  -4   0  -1  259.20    6.78
  -4   0  -1  245.07    6.76
   4   0   1  250.81    6.78
   4   0   1  257.18    6.89
   4   0   1  267.70    6.77
   4   0   1  261.40    6.90
  -5   0  -1   68.06    2.33
  -5   0  -1   73.91    2.46
   5   0   1   71.82    2.10
   5   0   1   73.46    2.38
   5   0   1   71.50    2.36
   5   0   1   74.53    2.38
  -6   0  -1   97.38    3.06
  -6   0  -1   91.87    2.99
  -6   0  -1  100.01    3.02
   6   0   1   89.90    2.95
   6   0   1   93.07    2.94
   6   0   1   91.23    2.70
  -7   0  -1   15.74    1.25
  -7   0  -1   14.46    1.14
   7   0   1   13.66    0.86
   7   0   1   15.43    1.15
   7   0   1   14.47    1.12
  -8   0  -1    5.00    0.93
  -8   0  -1    5.77    0.93
   8   0   1    4.21    0.50
   8   0   1    3.88    0.88
  -9   0  -1    0.97    0.86
  -9   0  -1    0.55    0.74
   9   0   1    0.56    0.42
   9   0   1    0.28    0.79
 -10   0  -1  114.16    3.97
 -10   0  -1  113.51    3.82
  10   0   1  109.14    3.75
  10   0   1  109.01    3.32
 -11   0  -1   41.61    2.26
 -11   0  -1   46.09    2.35
  11   0   1   45.53    1.69
  11   0   1   43.77    2.25
 -12   0  -1    1.91    0.99
 -12   0  -1    3.51    1.11
  12   0   1    2.87    0.55
  12   0   1    3.32    1.11
 -13   0  -1    9.94    1.51
 -13   0  -1    9.97    1.49
  13   0   1   10.20    1.47
 -14   0  -1    4.70    1.32
 -14   0  -1    3.53    1.32
  14   0   1    2.25    1.23
 -15   0  -1    1.70    1.33
 -15   0  -1   -0.67    1.20
  15   0   1    1.63    1.16
 -16   0  -1    3.30    1.55
 -16   0  -1    2.13    1.28
  16   0   1    2.73    1.44
 -17   0  -1    5.83    1.52
 -17   0  -1    3.90    1.53
  17   0   1    6.69    1.73
 -18   0  -1   -1.25    1.49
 -18   0  -1    0.84    1.48
  18   0   1    0.82    1.52
 -19   0  -1    2.39    1.64
 -19   0  -1    3.72    1.67
  19   0   1   -0.87    1.58
  19  -1  -1    1.59    1.63
 -19   1   1    3.44    1.61
 -19   1   1    0.12    1.58
  18  -1  -1   -0.60    1.24
 -18   1   1    0.22    1.38
 -18   1   1    1.23    1.43
  17  -1  -1    2.13    1.42
 -17   1   1   -0.18    1.31
 -17   1   1   -0.35    1.28
  16  -1  -1   18.78    2.04
 -16   1   1   20.86    2.16
 -16   1   1   18.16    1.97
  15  -1  -1   13.69    1.71
 -15   1   1    8.70    1.52
 -15   1   1    7.09    1.50
  14  -1  -1    0.98    1.21
 -14   1   1    1.72    1.14
 -14   1   1    0.18    1.18
  13  -1  -1    3.36    1.19
 -13   1   1    4.35    1.16
 -13   1   1    5.50    1.25
  12  -1  -1    7.71    1.25
 -12   1   1    7.55    1.19
 -12   1   1   10.43    1.42
  11  -1  -1    5.99    0.84
  11  -1  -1    3.20    0.91
 -11   1   1    3.73    1.07
 -11   1   1    4.59    1.03
  10  -1  -1   56.18    2.28
  10  -1  -1   50.90    2.27
 -10   1   1   53.92    2.38
 -10   1   1   54.65    2.32
   9  -1  -1   -0.70    0.73
   9  -1  -1    0.91    0.62
  -9   1   1    2.43    0.80
  -9   1   1    1.57    0.76
   8  -1  -1   18.70    1.31
   8  -1  -1   19.38    1.41
   8  -1  -1   18.46    1.21
   8  -1  -1   19.12    1.32
  -8   1   1   19.09    1.43
  -8   1   1   22.58    1.34
   7  -1  -1    2.02    0.63
   7  -1  -1    1.22    0.60
   7  -1  -1    0.14    0.58
   7  -1  -1    0.76    0.66
  -7   1   1    1.01    0.67
  -7   1   1    1.77    0.68
  -7   1   1    1.58    0.66
   6  -1  -1    9.19    0.84
   6  -1  -1    6.83    0.71
   6  -1  -1    7.89    0.81
   6  -1  -1    7.67    0.75
   6  -1  -1    8.92    0.80
   6  -1  -1    7.09    0.75
  -6   1   1    7.63    0.79
  -6   1   1    7.08    0.78
   5  -1  -1   22.05    1.20
   5  -1  -1   22.20    1.11
   5  -1  -1   24.23    1.06
   5  -1  -1   24.91    1.20
   5  -1  -1   21.74    1.31
   5  -1  -1   21.89    1.13
  -5   1   1   24.06    1.15
  -5   1   1   24.32    1.23
   4  -1  -1   14.86    0.83
   4  -1  -1   14.62    0.84
   4  -1  -1   15.77    0.98
   4  -1  -1   16.60    0.87
   4  -1  -1   12.61    1.05
   4  -1  -1   14.80    0.93
  -4   1   1   14.62    0.86
  -4   1   1   13.20    0.84
  -4   1   1   13.40    0.83
   3  -1  -1    5.98    0.46
   3  -1  -1    4.77    0.46
   3  -1  -1    4.09    0.43
   3  -1  -1    5.02    0.49
   3  -1  -1    4.91    0.57
  -3   1   1    5.16    0.64
  -3   1   1    5.10    0.52
  -3   1   1    5.95    0.49
  -3   1   1    6.41    0.49
  -3   1   1    5.93    0.53
   2  -1  -1    0.54    0.28
   2  -1  -1   -0.02    0.17
   2  -1  -1    0.86    0.24
   2  -1  -1    0.43    0.23
   2  -1  -1    0.55    0.21
  -2   1   1    0.95    0.38
  -2   1   1    0.17    0.25
  -2   1   1    0.16    0.24
  -2   1   1    0.68    0.26
  -1  -1  -1    0.35    0.24
  -1  -1  -1    0.83    0.21
  -1  -1  -1    0.23    0.24
   1   1   1    0.37    0.19
  -2  -1  -1  123.40    3.39
  -2  -1  -1  120.57    3.42
  -2  -1  -1  124.24    3.44
   2   1   1  122.02    3.38
   2   1   1  121.06    3.35
   2   1   1  130.15    3.46
  -3  -1  -1    2.92    0.53
  -3  -1  -1    2.23    0.52
  -3  -1  -1    1.80    0.57
   3   1   1    1.37    0.52
   3   1   1    2.48    0.54
   3   1   1    2.31    0.59
  -4  -1  -1   40.50    1.58
  -4  -1  -1   40.76    1.61
  -4  -1  -1   40.01    1.64
   4   1   1   35.85    1.54
   4   1   1   36.25    1.50
   4   1   1   36.59    1.51
  -5  -1  -1   27.48    1.46
  -5  -1  -1   27.80    1.54
  -5  -1  -1   29.41    1.52
   5   1   1   32.75    1.51
   5   1   1   33.60    1.46
   5   1   1   33.50    1.41
  -6  -1  -1   74.66    2.70
  -6  -1  -1   83.39    2.81
   6   1   1   75.79    2.35
   6   1   1   80.42    2.68
   6   1   1   79.51    2.72
  -7  -1  -1  104.18    3.45
  -7  -1  -1  102.92    3.57
   7   1   1  111.67    3.15
   7   1   1  110.27    3.52
  -8  -1  -1   48.11    2.10
  -8  -1  -1   45.08    2.21
   8   1   1   49.07    2.14
   8   1   1   46.40    1.64
  -9  -1  -1  209.96    6.26
  -9  -1  -1  212.43    6.41
   9   1   1  209.71    5.91
   9   1   1  212.64    6.21
 -10  -1  -1    2.40    0.98
 -10  -1  -1    2.60    1.03
  10   1   1    2.04    0.49
  10   1   1    2.67    0.99
 -11  -1  -1    7.74    1.29
 -11  -1  -1    9.06    1.39
  11   1   1    9.51    0.72
  11   1   1   10.65    1.37
 -12  -1  -1    1.07    1.16
 -12  -1  -1    2.02    1.17
  12   1   1    1.77    0.53
  12   1   1    2.65    1.16
 -13  -1  -1   21.77    2.00
 -13  -1  -1   24.65    1.91
  13   1   1   26.32    2.08
 -14  -1  -1    5.48    1.51
 -14  -1  -1    5.07    1.40
  14   1   1    6.06    1.39
 -15  -1  -1    2.77    1.32
 -15  -1  -1    3.95    1.42
  15   1   1    2.90    1.43
 -16  -1  -1   26.63    2.41
 -16  -1  -1   24.60    2.50
  16   1   1   25.07    2.36
 -17  -1  -1   -0.05    1.33
 -17  -1  -1   -2.06    1.36
  17   1   1   -0.18    1.45
 -18  -1  -1    0.61    1.55
 -18  -1  -1    2.37    1.51
  18   1   1    2.72    1.65
  20  -2  -1    3.04    1.75
 -20   2   1    3.93    1.83
 -20   2   1    2.94    1.65
  19  -2  -1   13.59    1.99
 -19   2   1   10.88    1.89
 -19   2   1   11.56    1.96
  18  -2  -1    6.94    1.74
 -18   2   1    6.89    1.78
 -18   2   1    5.64    1.60
  17  -2  -1   29.36    2.40
 -17   2   1   28.48    2.35
 -17   2   1   30.67    2.62
  16  -2  -1    0.14    1.08
 -16   2   1   -2.62    1.07
 -16   2   1    1.42    1.36
  15  -2  -1    9.56    1.43
 -15   2   1   11.14    1.54
 -15   2   1   10.84    1.72
  14  -2  -1    3.18    1.15
 -14   2   1    1.27    0.94
 -14   2   1    2.22    1.14
  13  -2  -1   60.08    2.69
 -13   2   1   53.96    2.50
 -13   2   1   58.75    2.81
  12  -2  -1   16.52    1.49
 -12   2   1   15.10    1.44
 -12   2   1   16.87    1.55
  11  -2  -1    0.17    0.62
  11  -2  -1    0.23    0.78
 -11   2   1   -0.34    0.77
 -11   2   1    0.44    0.79
  10  -2  -1  123.79    3.98
  10  -2  -1  122.53    4.01
 -10   2   1  125.69    3.93
 -10   2   1  123.38    4.10
   9  -2  -1   16.42    1.24
   9  -2  -1   17.32    1.41
   9  -2  -1   12.68    1.13
   9  -2  -1   16.40    1.14
  -9   2   1   17.51    1.27
  -9   2   1   17.10    1.32
   8  -2  -1   49.70    2.07
   8  -2  -1   51.47    2.03
   8  -2  -1   52.38    1.96
   8  -2  -1   51.87    1.98
  -8   2   1   47.74    1.94
  -8   2   1   49.26    2.11
   7  -2  -1    5.98    0.71
   7  -2  -1    5.89    0.71
   7  -2  -1    4.60    0.69
   7  -2  -1    4.90    0.71
   7  -2  -1    5.83    0.71
   7  -2  -1    6.18    0.76
  -7   2   1    4.07    0.69
  -7   2   1    4.89    0.79
  -7   2   1    4.70    0.85
   6  -2  -1  157.36    4.33
   6  -2  -1  153.20    4.35
   6  -2  -1  151.42    4.35
   6  -2  -1  154.61    4.42
   6  -2  -1  151.98    4.26
   6  -2  -1  154.20    4.63
  -6   2   1  160.18    4.29
  -6   2   1  156.08    4.44
  -6   2   1  156.91    4.71
   5  -2  -1  112.46    3.21
   5  -2  -1  109.54    3.19
   5  -2  -1  113.58    3.19
   5  -2  -1  112.41    3.46
   5  -2  -1  113.97    3.15
   5  -2  -1  114.36    3.11
  -5   2   1  108.40    3.12
  -5   2   1  111.44    3.25
  -5   2   1  105.15    3.47
   4  -2  -1   15.21    0.85
   4  -2  -1   13.68    1.11
   4  -2  -1   15.27    0.76
   4  -2  -1   15.84    0.76
   4  -2  -1   14.97    0.82
  -4   2   1   16.57    0.90
  -4   2   1   15.74    0.82
  -4   2   1   16.06    1.15
  -4   2   1   15.65    0.79
  -4   2   1   17.31    0.90
   3  -2  -1  126.56    3.39
   3  -2  -1  123.25    3.28
   3  -2  -1  127.56    3.42
   3  -2  -1  127.02    3.32
   3  -2  -1  128.23    3.71
  -3   2   1  124.62    3.28
  -3   2   1  123.86    3.41
  -3   2   1  129.85    3.75
  -3   2   1  128.59    3.33
  -3   2   1  125.44    3.40
   2  -2  -1   55.09    1.57
   2  -2  -1   56.59    1.64
   2  -2  -1   56.55    1.84
  -2   2   1   58.88    1.66
  -2   2   1   57.06    1.54
  -2   2   1   57.43    1.88
   1  -2  -1    0.09    0.30
  -1   2   1    0.27    0.32
  -1   2   1    0.63    0.32
   0  -2  -1   55.30    1.75
   0  -2  -1   54.51    1.59
   0  -2  -1   55.00    1.58
   0   2   1   56.20    1.72
   0   2   1   57.82    1.59
  -1  -2  -1    5.16    0.49
  -1  -2  -1    4.61    0.42
  -1  -2  -1    5.03    0.51
   1   2   1    6.21    0.50
   1   2   1    6.50    0.53
   1   2   1    5.82    0.46
  -2  -2  -1   15.24    0.96
  -2  -2  -1   14.13    0.94
  -2  -2  -1   15.13    1.04
   2   2   1   16.47    0.88
   2   2   1   15.83    0.82
   2   2   1   19.11    0.97
  -3  -2  -1   12.74    0.92
  -3  -2  -1   15.31    0.95
  -3  -2  -1   14.91    1.00
   3   2   1   16.27    1.05
   3   2   1   14.33    1.02
   3   2   1   14.46    0.99
  -4  -2  -1    9.60    0.85
  -4  -2  -1   10.51    0.92
  -4  -2  -1   10.03    0.91
   4   2   1   10.53    0.88
   4   2   1    6.81    0.85
   4   2   1    7.58    0.76
  -5  -2  -1  286.71    7.75
  -5  -2  -1  281.99    7.64
  -5  -2  -1  282.16    7.60
   5   2   1  271.52    7.61
   5   2   1  276.67    7.53
  -6  -2  -1    1.30    0.75
  -6  -2  -1    2.24    0.82
   6   2   1    1.55    0.65
   6   2   1    0.83    0.75
  -7  -2  -1    3.58    0.87
  -7  -2  -1    4.94    0.96
   7   2   1    4.20    0.96
  -8  -2  -1   14.75    1.35
  -8  -2  -1   15.53    1.41
   8   2   1   13.60    1.33
   8   2   1   12.45    1.00
  -9  -2  -1   64.15    2.80
  -9  -2  -1   67.58    2.78
   9   2   1   74.24    2.90
   9   2   1   72.68    2.31
 -10  -2  -1   29.63    1.90
 -10  -2  -1   27.21    1.80
  10   2   1   24.37    1.75
  10   2   1   27.82    1.29
 -11  -2  -1    1.45    1.18
 -11  -2  -1    3.34    1.18
  11   2   1    1.97    1.01
  11   2   1    2.97    0.55
 -12  -2  -1   16.78    1.81
 -12  -2  -1   12.88    1.58
  12   2   1   13.02    1.66
 -13  -2  -1    0.49    1.13
 -13  -2  -1    1.94    1.16
  13   2   1    2.13    1.28
 -14  -2  -1    1.01    1.38
 -14  -2  -1    2.81    1.35
  14   2   1    0.41    1.29
 -15  -2  -1    3.40    1.49
 -15  -2  -1    7.62    1.76
  15   2   1    4.67    1.59
 -16  -2  -1   11.82    1.93
 -16  -2  -1    9.41    1.80
  16   2   1    8.73    1.88
 -17  -2  -1    1.39    1.38
 -17  -2  -1    1.60    1.51
  17   2   1    2.11    1.65
 -18  -2  -1    6.33    1.96
 -18  -2  -1    6.27    1.86
  20  -3  -1    3.07    1.59
 -20   3   1   -0.65    1.55
 -20   3   1    0.82    1.48
  19  -3  -1    1.27    1.39
 -19   3   1   -0.29    1.34
 -19   3   1    0.55    1.40
  18  -3  -1   -1.10    1.37
 -18   3   1    0.10    1.42
 -18   3   1   -0.88    1.17
  17  -3  -1   27.79    2.26
 -17   3   1   29.02    2.53
 -17   3   1   27.67    2.26
  16  -3  -1   16.96    1.84
 -16   3   1   17.14    1.96
 -16   3   1   15.78    1.74
  15  -3  -1    2.17    1.10
 -15   3   1   -0.38    0.99
 -15   3   1    2.27    1.27
  14  -3  -1   17.24    1.58
 -14   3   1   16.46    1.60
 -14   3   1   16.23    1.75
  13  -3  -1    4.68    1.08
 -13   3   1    3.78    1.05
 -13   3   1    4.85    1.13
  12  -3  -1   11.17    1.21
 -12   3   1   10.67    1.36
 -12   3   1   10.01    1.19
  11  -3  -1    6.37    0.96
 -11   3   1    6.04    0.97
 -11   3   1    5.28    1.04
  10  -3  -1   85.34    3.08
  10  -3  -1   86.98    3.02
  10  -3  -1   88.79    2.94
 -10   3   1   87.80    2.94
 -10   3   1   84.11    3.07
   9  -3  -1  115.01    3.69
   9  -3  -1  113.56    3.43
   9  -3  -1  115.16    3.55
   9  -3  -1  108.85    3.44
  -9   3   1  108.56    3.62
  -9   3   1  113.95    3.47
  -9   3   1  106.61    3.81
   8  -3  -1  261.15    6.90
   8  -3  -1  252.35    7.41
   8  -3  -1  258.72    7.03
   8  -3  -1  255.96    6.96
  -8   3   1  253.87    7.13
  -8   3   1  249.88    7.50
  -8   3   1  265.94    6.94
   7  -3  -1  204.07    5.58
   7  -3  -1  201.79    5.94
   7  -3  -1  197.16    5.56
   7  -3  -1  197.67    5.43
   7  -3  -1  202.52    5.63
   7  -3  -1  200.19    5.50
  -7   3   1  202.48    6.00
  -7   3   1  201.30    5.65
  -7   3   1  209.29    5.47
   6  -3  -1   32.12    1.33
   6  -3  -1   31.41    1.56
   6  -3  -1   32.69    1.24
   6  -3  -1   31.95    1.24
   6  -3  -1   32.09    1.35
  -6   3   1   36.25    1.66
  -6   3   1   33.46    1.45
  -6   3   1   34.35    1.30
   5  -3  -1   14.76    0.71
   5  -3  -1   14.66    0.80
   5  -3  -1   11.88    0.87
   5  -3  -1   13.19    0.70
   5  -3  -1   14.24    0.94
  -5   3   1   15.59    1.19
  -5   3   1   14.98    0.87
  -5   3   1   14.32    0.75
  -5   3   1   14.35    0.92
   4  -3  -1    2.29    0.32
   4  -3  -1    2.75    0.39
   4  -3  -1    3.01    0.45
   4  -3  -1    2.70    0.35
   4  -3  -1    3.08    0.57
  -4   3   1    1.83    0.41
  -4   3   1    2.12    0.47
  -4   3   1    1.63    0.33
  -4   3   1    1.82    0.64
   3  -3  -1  347.00    8.75
   3  -3  -1  354.01    9.00
   3  -3  -1  347.38    9.70
   3  -3  -1  354.83    9.00
   3  -3  -1  348.56    8.86
  -3   3   1  351.57    9.00
  -3   3   1  359.96    8.87
  -3   3   1  348.95    9.70
   2  -3  -1    5.51    0.50
   2  -3  -1    5.59    0.62
  -2   3   1    6.82    0.51
  -2   3   1    6.80    0.69
   1  -3  -1  126.54    3.64
   1  -3  -1  122.90    3.24
   1  -3  -1  121.73    3.21
  -1   3   1  124.20    3.63
  -1   3   1  125.12    3.22
   0  -3  -1  353.74    9.57
   0  -3  -1  345.46    8.88
   0  -3  -1  347.08    9.01
   0   3   1  349.89    9.56
   0   3   1  353.23    9.02
   0   3   1  349.91    8.88
  -1  -3  -1   13.99    0.96
  -1  -3  -1   13.03    0.88
  -1  -3  -1   14.34    0.80
   1   3   1   15.23    0.87
   1   3   1   13.15    0.81
   1   3   1   13.01    0.95
  -2  -3  -1  114.38    3.35
  -2  -3  -1  111.95    3.25
  -2  -3  -1  111.10    3.26
   2   3   1  115.02    3.27
   2   3   1  108.77    3.24
   2   3   1  109.55    3.22
  -3  -3  -1   28.72    1.43
  -3  -3  -1   32.04    1.49
  -3  -3  -1   33.67    1.48
   3   3   1   34.62    1.46
   3   3   1   32.34    1.50
   3   3   1   33.59    1.44
  -4  -3  -1  282.65    7.54
  -4  -3  -1  274.40    7.52
  -4  -3  -1  264.57    7.39
   4   3   1  280.16    7.53
   4   3   1  269.41    7.46
   4   3   1  273.46    7.38
  -5  -3  -1    4.07    0.78
  -5  -3  -1    4.08    0.85
   5   3   1    3.93    0.78
   5   3   1    3.45    0.87
  -6  -3  -1   27.27    1.66
  -6  -3  -1   25.56    1.56
   6   3   1   30.21    1.75
  -7  -3  -1   47.87    2.26
  -7  -3  -1   48.41    2.13
   7   3   1   50.13    2.18
  -8  -3  -1    9.20    1.21
  -8  -3  -1    9.96    1.19
   8   3   1    9.87    1.26
  -9  -3  -1   11.71    1.38
  -9  -3  -1    7.41    1.20
   9   3   1   10.16    0.80
   9   3   1   10.30    1.34
 -10  -3  -1   13.24    1.54
 -10  -3  -1   14.54    1.63
  10   3   1   12.41    1.53
  10   3   1   14.60    1.09
 -11  -3  -1    4.40    1.18
 -11  -3  -1    2.89    1.26
  11   3   1    1.67    1.20
 -12  -3  -1    1.59    1.08
 -12  -3  -1    1.66    1.27
  12   3   1    0.54    1.13
 -13  -3  -1    8.50    1.66
 -13  -3  -1    7.23    1.47
  13   3   1    4.62    1.49
 -14  -3  -1    2.80    1.46
 -14  -3  -1    0.80    1.42
  14   3   1   -0.05    1.38
 -15  -3  -1    8.83    1.80
 -15  -3  -1    8.76    1.85
  15   3   1    7.97    1.78
 -16  -3  -1    0.09    1.47
 -16  -3  -1    0.40    1.54
  16   3   1   -1.45    1.49
 -17  -3  -1    2.82    1.64
 -17  -3  -1    1.81    1.74
  20  -4  -1    1.80    1.60
 -20   4   1    5.61    1.65
 -20   4   1    3.99    1.55
  19  -4  -1    6.46    1.60
 -19   4   1    5.69    1.76
 -19   4   1    4.14    1.49
  18  -4  -1    1.35    1.28
 -18   4   1    1.57    1.45
 -18   4   1    2.23    1.31
  17  -4  -1    7.77    1.48
 -17   4   1    7.10    1.51
 -17   4   1    6.86    1.51
  16  -4  -1   11.29    1.51
 -16   4   1   13.38    1.77
 -16   4   1   11.03    1.50
  15  -4  -1    1.25    1.02
 -15   4   1    1.42    1.05
 -15   4   1   -0.90    1.11
  14  -4  -1    7.16    1.21
 -14   4   1   10.93    1.42
 -14   4   1    8.28    1.24
  13  -4  -1    5.78    1.01
 -13   4   1    3.02    0.93
 -13   4   1    3.02    1.09
  12  -4  -1   24.55    1.64
 -12   4   1   21.62    1.70
 -12   4   1   22.39    1.48
  11  -4  -1    6.75    0.95
 -11   4   1    8.12    0.98
 -11   4   1    7.09    1.02
 -11   4   1    6.97    1.13
  10  -4  -1    7.81    0.87
  10  -4  -1    9.18    0.87
  10  -4  -1    7.96    0.91
 -10   4   1    7.01    0.88
 -10   4   1    6.82    0.98
 -10   4   1    8.03    1.13
   9  -4  -1    2.02    0.61
   9  -4  -1    0.60    0.69
   9  -4  -1    0.75    0.63
   9  -4  -1    2.26    0.54
  -9   4   1    1.32    0.66
  -9   4   1    0.85    0.79
  -9   4   1    0.94    0.70
   8  -4  -1    9.35    0.92
   8  -4  -1    9.15    0.79
   8  -4  -1    9.44    0.81
   8  -4  -1   10.78    0.99
   8  -4  -1    8.42    0.85
   8  -4  -1    9.54    0.75
  -8   4   1    9.29    0.91
  -8   4   1    9.14    1.05
  -8   4   1   11.00    0.88
   7  -4  -1  278.30    7.37
   7  -4  -1  275.00    7.24
   7  -4  -1  274.49    7.88
   7  -4  -1  280.94    7.41
   7  -4  -1  277.96    7.19
  -7   4   1  274.10    7.42
  -7   4   1  268.30    7.93
  -7   4   1  271.90    7.18
   6  -4  -1   10.49    0.76
   6  -4  -1   10.45    0.88
   6  -4  -1    9.18    0.68
   6  -4  -1   11.59    0.70
   6  -4  -1    9.74    0.63
  -6   4   1   10.28    0.73
  -6   4   1    8.77    0.74
  -6   4   1    9.29    0.74
  -6   4   1   10.18    1.00
   5  -4  -1   41.27    1.33
   5  -4  -1   38.69    1.19
   5  -4  -1   40.59    1.44
   5  -4  -1   40.14    1.69
   5  -4  -1   40.38    1.21
  -5   4   1   36.19    1.75
  -5   4   1   37.11    1.34
  -5   4   1   38.16    1.21
  -5   4   1   36.08    1.37
   4  -4  -1  257.21    6.66
   4  -4  -1  259.05    6.51
   4  -4  -1  258.72    6.70
   4  -4  -1  260.40    7.31
  -4   4   1  261.13    6.69
  -4   4   1  257.05    7.32
  -4   4   1  250.43    6.44
  -4   4   1  254.74    6.66
   3  -4  -1   13.80    0.52
   3  -4  -1   14.05    0.79
   3  -4  -1   14.94    0.99
  -3   4   1   13.22    0.97
  -3   4   1   14.50    0.78
   2  -4  -1   16.53    1.27
   2  -4  -1   16.46    0.62
  -2   4   1   15.96    1.16
  -2   4   1   15.99    0.90
  -2   4   1   16.54    0.62
   1  -4  -1    2.97    0.57
   1  -4  -1    2.40    0.33
   1  -4  -1    2.45    0.39
  -1   4   1    1.88    0.63
  -1   4   1    2.59    0.39
  -1   4   1    1.62    0.33
   0  -4  -1  251.27    6.63
   0  -4  -1  248.77    6.57
   0   4   1  244.81    7.09
   0   4   1  262.34    6.58
   0   4   1  258.55    6.64
  -1  -4  -1   22.09    1.11
  -1  -4  -1   22.89    1.09
  -1  -4  -1   20.99    1.30
   1   4   1   24.75    1.11
   1   4   1   26.21    1.13
   1   4   1   24.50    1.21
  -2  -4  -1  150.01    4.38
  -2  -4  -1  150.31    4.41
  -2  -4  -1  160.56    4.53
   2   4   1  166.64    4.54
   2   4   1  157.86    4.41
   2   4   1  154.39    4.35
  -3  -4  -1  201.16    5.67
  -3  -4  -1  201.39    5.79
  -3  -4  -1  199.35    5.75
   3   4   1  210.99    5.64
   3   4   1  209.45    5.71
  -4  -4  -1    8.98    1.01
  -4  -4  -1    8.81    0.92
   4   4   1    7.86    0.97
   4   4   1   10.19    0.98
  -5  -4  -1   19.77    1.32
  -5  -4  -1   20.59    1.49
   5   4   1   18.81    1.44
  -6  -4  -1   -0.12    0.78
  -6  -4  -1    0.14    0.79
   6   4   1   -0.42    0.84
  -7  -4  -1   78.06    2.99
  -7  -4  -1   80.64    3.02
   7   4   1   77.38    2.99
  -8  -4  -1    5.10    1.05
  -8  -4  -1    4.12    1.12
   8   4   1    3.95    1.11
  -9  -4  -1   17.64    1.63
  -9  -4  -1   18.84    1.66
   9   4   1   18.99    1.66
 -10  -4  -1   43.36    2.53
 -10  -4  -1   41.53    2.40
  10   4   1   44.82    2.55
  10   4   1   43.36    1.83
 -11  -4  -1    5.79    1.43
 -11  -4  -1    3.16    1.28
  11   4   1    6.03    1.35
 -12  -4  -1   18.80    1.96
 -12  -4  -1   16.37    1.81
  12   4   1   17.40    1.96
 -13  -4  -1    2.34    1.42
 -13  -4  -1    1.64    1.37
  13   4   1    1.70    1.40
 -14  -4  -1   14.08    2.10
 -14  -4  -1   11.60    1.88
  14   4   1   17.70    2.15
 -15  -4  -1   -0.07    1.32
 -15  -4  -1    2.11    1.63
 -16  -4  -1    6.89    1.83
 -16  -4  -1    7.57    1.98
  21  -5  -1    2.08    1.51
 -21   5   1   -1.13    1.33
 -21   5   1    0.63    1.54
  20  -5  -1    1.63    1.36
 -20   5   1    0.35    1.55
 -20   5   1    0.35    1.44
  19  -5  -1   10.38    1.65
 -19   5   1   12.82    2.00
 -19   5   1   11.75    1.77
  18  -5  -1    1.57    1.17
 -18   5   1    0.22    1.19
 -18   5   1    0.19    1.21
  17  -5  -1   12.15    1.56
 -17   5   1   11.05    1.58
 -17   5   1   15.34    1.88
  16  -5  -1   43.87    2.44
 -16   5   1   42.96    2.33
 -16   5   1   40.01    2.55
  15  -5  -1    5.35    1.17
 -15   5   1    3.86    1.26
 -15   5   1    2.60    1.04
  14  -5  -1   25.78    1.74
 -14   5   1   24.41    1.80
 -14   5   1   27.26    1.70
  13  -5  -1   -0.04    0.75
 -13   5   1    0.53    0.93
 -13   5   1    0.12    1.01
 -13   5   1    1.44    0.89
  12  -5  -1   22.45    1.51
 -12   5   1   25.45    1.90
 -12   5   1   24.23    1.45
 -12   5   1   22.31    1.65
  11  -5  -1    1.45    0.69
  11  -5  -1    0.77    0.66
  11  -5  -1    1.78    0.58
 -11   5   1    1.37    0.80
 -11   5   1    1.50    0.94
 -11   5   1    1.61    0.73
  10  -5  -1   39.42    1.78
  10  -5  -1   37.06    1.57
  10  -5  -1   39.57    1.66
 -10   5   1   34.22    1.76
 -10   5   1   41.32    1.68
 -10   5   1   35.44    2.05
   9  -5  -1   20.11    1.06
   9  -5  -1   23.10    1.17
   9  -5  -1   19.10    1.22
  -9   5   1   20.32    1.49
  -9   5   1   21.74    1.16
  -9   5   1   21.05    1.29
   8  -5  -1    3.31    0.58
   8  -5  -1    1.69    0.60
   8  -5  -1    2.05    0.74
   8  -5  -1    3.13    0.53
   8  -5  -1    2.86    0.51
  -8   5   1    3.57    0.59
  -8   5   1    3.19    0.70
  -8   5   1    2.39    0.87
   7  -5  -1  278.26    7.42
   7  -5  -1  282.37    7.24
   7  -5  -1  288.71    7.41
   7  -5  -1  270.12    7.99
  -7   5   1  275.17    8.05
  -7   5   1  279.09    7.43
  -7   5   1  276.24    7.40
  -7   5   1  272.95    7.17
   6  -5  -1   29.89    1.59
   6  -5  -1   29.94    1.20
   6  -5  -1   29.34    1.24
   6  -5  -1   29.63    1.05
  -6   5   1   32.79    1.29
  -6   5   1   33.52    1.70
  -6   5   1   34.38    1.08
  -6   5   1   33.14    1.21
   5  -5  -1   72.08    1.94
   5  -5  -1   70.92    2.09
   5  -5  -1   70.38    2.18
   5  -5  -1   73.42    2.67
  -5   5   1   73.75    1.93
  -5   5   1   77.07    2.69
  -5   5   1   74.46    2.19
  -5   5   1   74.42    2.09
   4  -5  -1   22.92    0.78
   4  -5  -1   22.57    1.52
   4  -5  -1   22.87    1.06
  -4   5   1   25.40    0.78
  -4   5   1   25.48    1.44
  -4   5   1   25.58    1.00
   3  -5  -1  113.63    3.49
  -3   5   1  106.13    2.79
  -3   5   1  107.93    3.02
  -3   5   1  107.14    2.77
  -3   5   1  107.46    3.47
   2  -5  -1   14.05    0.53
   2  -5  -1   13.90    0.67
   2  -5  -1   12.47    0.94
  -2   5   1   15.30    0.68
  -2   5   1   14.76    1.22
   1  -5  -1   38.73    1.22
   1  -5  -1   38.51    1.32
  -1   5   1   37.84    1.66
  -1   5   1   36.16    1.21
  -1   5   1   36.23    1.27
   0  -5  -1   71.70    2.22
   0  -5  -1   70.74    2.26
   0   5   1   76.86    2.58
   0   5   1   74.50    2.26
   0   5   1   74.42    2.20
  -1  -5  -1    7.98    0.72
  -1  -5  -1    7.62    0.77
  -1  -5  -1    8.18    0.81
   1   5   1    9.38    0.77
   1   5   1    8.47    0.78
   1   5   1    7.11    0.66
  -2  -5  -1    3.87    0.75
  -2  -5  -1    4.52    0.80
  -2  -5  -1    4.47    0.69
   2   5   1    4.78    0.70
   2   5   1    4.55    0.67
   2   5   1    3.41    0.62
  -3  -5  -1  260.66    7.16
  -3  -5  -1  258.85    7.21
   3   5   1  261.00    7.16
   3   5   1  261.87    7.10
  -4  -5  -1    1.57    0.78
  -4  -5  -1    1.56    0.75
  -5  -5  -1   39.67    1.87
  -5  -5  -1   38.96    1.94
   5   5   1   35.26    1.92
  -6  -5  -1   57.88    2.58
  -6  -5  -1   60.43    2.56
   6   5   1   62.56    2.55
  -7  -5  -1    3.29    1.05
  -7  -5  -1    1.69    0.87
   7   5   1    2.36    0.95
  -8  -5  -1    7.75    1.20
  -8  -5  -1    3.08    1.05
   8   5   1    4.35    1.21
  -9  -5  -1    1.30    1.09
  -9  -5  -1    0.28    0.97
   9   5   1    0.60    1.10
 -10  -5  -1    8.67    1.51
 -10  -5  -1   11.02    1.50
  10   5   1    9.76    1.58
 -11  -5  -1    0.88    1.14
 -11  -5  -1   -0.39    1.25
  11   5   1    2.08    1.34
 -12  -5  -1   38.04    2.49
 -12  -5  -1   29.13    2.27
  12   5   1   31.77    2.54
 -13  -5  -1   18.78    2.20
 -13  -5  -1   19.07    2.14
 -14  -5  -1   -0.55    1.46
 -14  -5  -1   -0.34    1.37
 -15  -5  -1    4.56    1.81
 -15  -5  -1    1.97    1.57
 -16  -5  -1    4.11    1.78
 -16  -5  -1    6.01    1.99
  21  -6  -1    3.53    1.46
 -21   6   1    2.33    1.51
 -21   6   1    3.68    1.76
  20  -6  -1    6.68    1.54
 -20   6   1    7.12    1.60
 -20   6   1    4.86    1.71
  19  -6  -1    0.55    1.20
 -19   6   1    0.96    1.42
 -19   6   1   -1.38    1.08
  18  -6  -1    5.23    1.35
 -18   6   1    5.83    1.35
 -18   6   1    7.32    1.62
  17  -6  -1    0.26    1.08
 -17   6   1    1.89    1.30
 -17   6   1    3.45    1.15
  16  -6  -1   20.62    1.76
 -16   6   1   20.70    1.72
 -16   6   1   20.94    1.92
  15  -6  -1    2.50    1.00
 -15   6   1    3.18    1.18
 -15   6   1    2.65    0.96
  14  -6  -1   60.55    2.54
 -14   6   1   53.02    2.38
 -14   6   1   59.03    2.89
 -14   6   1   55.24    2.64
  13  -6  -1   75.47    2.85
 -13   6   1   71.02    2.94
 -13   6   1   69.54    2.68
 -13   6   1   79.41    3.22
  12  -6  -1    9.18    1.01
  12  -6  -1    9.43    0.89
 -12   6   1    9.67    1.31
 -12   6   1   10.02    1.14
 -12   6   1    8.91    1.01
  11  -6  -1   58.65    2.29
  11  -6  -1   59.88    2.09
 -11   6   1   56.64    2.38
 -11   6   1   57.58    2.66
 -11   6   1   61.83    2.22
  10  -6  -1    1.27    0.70
  10  -6  -1    1.50    0.48
 -10   6   1    1.83    0.73
 -10   6   1    0.84    0.58
 -10   6   1    0.83    0.90
   9  -6  -1   28.05    1.20
   9  -6  -1   27.42    1.33
   9  -6  -1   28.92    1.42
  -9   6   1   30.20    1.28
  -9   6   1   30.80    1.43
  -9   6   1   33.02    1.88
   8  -6  -1    1.73    0.44
   8  -6  -1    1.38    0.50
   8  -6  -1    0.90    0.55
  -8   6   1    0.70    0.55
  -8   6   1    1.07    0.46
  -8   6   1    1.85    0.84
   7  -6  -1   80.14    2.24
   7  -6  -1   81.77    2.95
   7  -6  -1   80.52    2.48
   7  -6  -1   78.25    2.41
  -7   6   1   76.76    2.95
  -7   6   1   81.42    2.24
  -7   6   1   78.06    2.47
  -7   6   1   80.85    2.42
   6  -6  -1   97.31    3.36
   6  -6  -1  103.43    2.74
   6  -6  -1   98.83    2.53
   6  -6  -1   97.08    2.82
  -6   6   1   92.94    2.72
  -6   6   1   93.05    2.54
  -6   6   1   93.97    3.33
  -6   6   1   97.31    2.82
   5  -6  -1    7.39    0.63
   5  -6  -1    7.35    0.87
  -5   6   1    7.54    0.50
  -5   6   1    7.53    0.60
  -5   6   1    6.69    0.95
   4  -6  -1  163.04    4.85
  -4   6   1  156.98    3.96
  -4   6   1  154.72    4.22
  -4   6   1  155.24    4.84
   3  -6  -1   31.07    1.74
  -3   6   1   32.56    1.30
  -3   6   1   33.55    1.76
  -3   6   1   32.98    1.04
  -3   6   1   33.23    1.04
   2  -6  -1    9.02    0.87
   2  -6  -1    9.14    0.54
   2  -6  -1   10.98    0.73
  -2   6   1    9.91    0.71
  -2   6   1    7.61    0.91
  -2   6   1    8.13    0.55
  -2   6   1    8.54    0.58
   1  -6  -1   29.56    1.16
   1  -6  -1   28.68    1.25
  -1   6   1   34.55    1.64
  -1   6   1   35.03    1.26
  -1   6   1   34.29    1.19
   0  -6  -1   97.04    2.86
   0  -6  -1   98.38    2.82
   0  -6  -1   95.26    3.01
   0   6   1   96.39    2.86
   0   6   1   91.74    2.79
   0   6   1   92.63    3.17
  -1  -6  -1    0.27    0.58
  -1  -6  -1    1.02    0.56
   1   6   1    1.05    0.63
   1   6   1    0.26    0.54
   1   6   1    1.73    0.54
  -2  -6  -1   49.13    1.97
  -2  -6  -1   48.19    1.87
   2   6   1   51.60    1.86
   2   6   1   44.52    1.81
   2   6   1   46.14    1.96
  -3  -6  -1  115.50    3.65
  -3  -6  -1  116.24    3.66
   3   6   1  113.62    3.67
   3   6   1  115.93    3.61
  -4  -6  -1    7.89    1.00
  -4  -6  -1    6.72    1.02
  -5  -6  -1    0.89    0.80
  -5  -6  -1    1.26    0.79
  -6  -6  -1    9.07    1.20
  -6  -6  -1    8.08    1.16
  -7  -6  -1   20.64    1.64
  -7  -6  -1   21.47    1.76
  -8  -6  -1   -0.03    1.02
  -8  -6  -1    0.35    1.02
   8   6   1    0.15    0.99
  -9  -6  -1    1.22    1.14
  -9  -6  -1    0.77    1.05
 -10  -6  -1    3.63    1.35
 -10  -6  -1    4.05    1.42
 -11  -6  -1   25.18    2.33
 -11  -6  -1   26.60    2.33
 -12  -6  -1   -0.82    1.33
 -12  -6  -1   -0.36    1.18
 -13  -6  -1    7.39    1.70
 -13  -6  -1    6.07    1.56
 -14  -6  -1    0.39    1.55
 -14  -6  -1   -0.08    1.40
 -15  -6  -1    6.96    1.91
 -15  -6  -1    9.97    2.13
  21  -7  -1    0.15    1.33
 -21   7   1    1.57    1.29
 -21   7   1   -0.12    1.41
  20  -7  -1    5.17    1.41
 -20   7   1    4.02    1.40
 -20   7   1    4.00    1.62
  19  -7  -1    3.11    1.27
 -19   7   1    5.23    1.36
 -19   7   1   -1.09    1.35
  18  -7  -1    0.93    1.12
 -18   7   1    1.07    1.30
 -18   7   1    1.39    1.15
  17  -7  -1   15.77    1.57
 -17   7   1   16.09    1.83
 -17   7   1   15.07    1.58
  16  -7  -1   -0.09    0.88
 -16   7   1    1.14    1.26
 -16   7   1    0.06    0.88
 -16   7   1   -0.06    1.04
  15  -7  -1   20.79    1.59
 -15   7   1   15.67    1.40
 -15   7   1   18.93    1.84
 -15   7   1   17.92    1.67
  14  -7  -1    1.62    0.84
 -14   7   1    1.51    0.77
 -14   7   1   -0.65    0.88
 -14   7   1    0.33    1.10
  13  -7  -1   19.36    1.23
  13  -7  -1   21.16    1.54
 -13   7   1   23.58    1.46
 -13   7   1   20.65    1.77
 -13   7   1   20.71    1.56
  12  -7  -1    2.95    0.61
  12  -7  -1    3.60    0.79
 -12   7   1    3.12    1.07
 -12   7   1    3.00    0.77
 -12   7   1    1.95    0.83
  11  -7  -1   81.79    2.55
  11  -7  -1   78.25    2.72
 -11   7   1   80.40    2.82
 -11   7   1   80.17    2.59
 -11   7   1   77.98    3.22
  10  -7  -1   48.28    1.89
  10  -7  -1   48.01    1.69
 -10   7   1   47.75    2.38
 -10   7   1   50.59    1.95
 -10   7   1   50.02    1.74
   9  -7  -1    4.24    0.61
   9  -7  -1    3.95    0.51
   9  -7  -1    4.35    0.68
  -9   7   1    3.50    0.64
  -9   7   1    3.80    0.54
  -9   7   1    2.00    0.93
   8  -7  -1  113.91    3.27
   8  -7  -1  105.81    3.18
   8  -7  -1  108.39    2.98
  -8   7   1  114.83    3.00
  -8   7   1  112.70    3.24
  -8   7   1  110.03    3.20
  -8   7   1   98.27    3.78
   7  -7  -1   14.17    0.56
   7  -7  -1   14.95    0.99
  -7   7   1   12.99    0.81
  -7   7   1   14.20    0.63
  -7   7   1   16.98    1.37
  -7   7   1   13.79    0.89
   6  -7  -1    1.20    0.46
  -6   7   1    1.47    0.34
  -6   7   1    1.29    0.45
  -6   7   1    0.80    0.82
   5  -7  -1    4.59    0.57
  -5   7   1    3.77    0.51
  -5   7   1    4.24    0.28
  -5   7   1    5.05    0.94
   4  -7  -1  201.74    6.11
  -4   7   1  201.78    6.08
  -4   7   1  201.18    5.37
  -4   7   1  204.05    5.16
  -4   7   1  201.63    5.14
   3  -7  -1  268.25    7.82
  -3   7   1  265.57    7.82
  -3   7   1  268.19    6.95
  -3   7   1  273.05    6.89
   2  -7  -1  273.63    7.12
   2  -7  -1  271.26    7.12
  -2   7   1  272.85    7.12
  -2   7   1  265.58    7.94
  -2   7   1  281.54    7.19
  -2   7   1  279.77    7.12
   1  -7  -1   75.14    2.36
   1  -7  -1   77.44    2.44
  -1   7   1   80.72    2.43
  -1   7   1   80.15    2.35
  -1   7   1   79.90    2.46
  -1   7   1   79.81    2.85
   0  -7  -1   15.06    1.01
   0  -7  -1   14.75    1.10
   0   7   1   13.93    1.02
   0   7   1   13.32    0.95
   0   7   1   14.92    1.19
   0   7   1   14.15    1.00
  -1  -7  -1   19.61    1.21
  -1  -7  -1   20.31    1.30
   1   7   1   22.00    1.29
   1   7   1   22.90    1.28
   1   7   1   19.22    1.44
   1   7   1   20.75    1.22
  -2  -7  -1   14.63    1.16
  -2  -7  -1   12.64    1.06
   2   7   1   13.56    1.09
   2   7   1   12.40    1.08
   2   7   1   14.02    1.15
  -3  -7  -1   87.28    3.06
  -3  -7  -1   88.80    3.00
   3   7   1   86.06    3.03
  -4  -7  -1    8.46    1.04
  -4  -7  -1    8.46    1.09
   4   7   1    7.06    0.91
  -5  -7  -1   23.76    1.72
  -5  -7  -1   21.45    1.64
   5   7   1   24.18    1.54
  -6  -7  -1   71.81    2.95
  -6  -7  -1   71.87    2.99
   6   7   1   72.96    2.71
  -7  -7  -1    0.22    0.94
  -7  -7  -1    0.72    1.04
   7   7   1   -0.10    0.74
  -8  -7  -1    1.58    1.12
  -8  -7  -1    0.32    1.09
   8   7   1    0.50    0.79
  -9  -7  -1    1.80    1.16
  -9  -7  -1    1.56    1.24
   9   7   1    1.17    0.78
 -10  -7  -1   39.49    2.62
 -10  -7  -1   38.96    2.67
 -11  -7  -1    1.71    1.30
 -11  -7  -1    0.43    1.36
 -12  -7  -1    1.66    1.28
 -12  -7  -1   -0.84    1.43
 -13  -7  -1    4.04    1.55
 -13  -7  -1    5.23    1.81
 -14  -7  -1   -0.82    1.48
 -14  -7  -1   -0.48    1.45
  21  -8  -1    3.93    1.41
 -21   8   1    3.86    1.44
 -21   8   1    4.42    1.69
  20  -8  -1   17.47    1.89
 -20   8   1   20.73    1.94
 -20   8   1   25.34    2.46
  19  -8  -1   -1.03    1.06
 -19   8   1    0.29    1.10
 -19   8   1   -0.60    1.26
  18  -8  -1    1.45    1.13
 -18   8   1    1.83    1.27
 -18   8   1    4.03    1.12
  17  -8  -1    0.89    1.03
 -17   8   1    1.29    1.33
 -17   8   1    2.59    1.07
 -17   8   1    3.07    1.26
  16  -8  -1   16.54    1.51
 -16   8   1   19.13    1.94
 -16   8   1   18.94    1.79
 -16   8   1   17.78    1.49
  15  -8  -1   -0.10    0.86
 -15   8   1    1.06    0.84
 -15   8   1    2.45    1.23
 -15   8   1   -0.37    0.92
  14  -8  -1   -0.04    0.80
 -14   8   1    0.42    1.13
 -14   8   1    0.51    0.76
 -14   8   1    1.40    0.94
  13  -8  -1    5.22    0.92
  13  -8  -1    5.84    0.72
 -13   8   1    5.30    0.87
 -13   8   1    6.06    1.32
 -13   8   1    5.16    1.02
  12  -8  -1    2.92    0.79
  12  -8  -1    2.46    0.57
 -12   8   1    4.74    0.74
 -12   8   1    3.42    1.12
 -12   8   1    4.53    0.89
  11  -8  -1   11.00    0.80
  11  -8  -1   11.68    1.02
 -11   8   1   12.56    1.45
 -11   8   1   10.10    0.83
 -11   8   1   11.77    1.03
  10  -8  -1   15.86    1.11
  10  -8  -1   14.73    0.87
  10  -8  -1   16.36    1.10
 -10   8   1   15.16    1.12
 -10   8   1   15.33    1.50
 -10   8   1   13.85    0.91
   9  -8  -1   49.21    1.82
   9  -8  -1   49.63    1.51
  -9   8   1   47.92    1.56
  -9   8   1   50.12    2.42
  -9   8   1   48.68    1.76
   8  -8  -1    4.77    0.31
   8  -8  -1    5.38    0.66
  -8   8   1    4.09    0.39
  -8   8   1    4.45    0.55
  -8   8   1    4.77    0.65
  -8   8   1    5.74    1.11
   7  -8  -1   20.08    1.07
  -7   8   1   19.45    1.63
  -7   8   1   20.21    1.06
  -7   8   1   21.18    0.86
  -7   8   1   19.83    0.63
   6  -8  -1   48.09    1.71
  -6   8   1   47.13    1.60
  -6   8   1   47.00    2.32
  -5   8   1  250.64    7.44
  -5   8   1  251.16    6.57
  -5   8   1  249.11    6.32
  -4   8   1    9.30    0.60
  -4   8   1   10.65    1.15
  -4   8   1    9.74    0.74
  -4   8   1    8.64    0.62
  -3   8   1    3.08    0.34
  -3   8   1    2.39    0.86
  -3   8   1    3.27    0.50
  -3   8   1    3.53    0.48
   2  -8  -1    1.35    0.53
   2  -8  -1    1.65    0.42
  -2   8   1    1.36    0.49
  -2   8   1    1.18    0.40
  -2   8   1    2.22    0.85
  -2   8   1    1.71    0.53
   1  -8  -1  105.99    3.33
   1  -8  -1  109.64    3.25
  -1   8   1  111.98    3.82
  -1   8   1  114.36    3.24
  -1   8   1  116.01    3.32
  -1   8   1  116.39    3.37
   0  -8  -1    2.76    0.75
   0  -8  -1    4.84    0.68
   0   8   1    3.95    0.69
   0   8   1    3.87    0.92
   0   8   1    4.91    0.75
   0   8   1    4.80    0.65
  -1  -8  -1    0.21    0.65
  -1  -8  -1    0.59    0.62
   1   8   1    2.42    0.69
   1   8   1    1.44    0.59
   1   8   1    0.50    0.62
   1   8   1    1.44    0.76
  -2  -8  -1  122.31    3.91
  -2  -8  -1  122.62    3.85
   2   8   1  124.50    4.03
  -3  -8  -1    6.08    1.02
  -3  -8  -1    4.99    0.89
   3   8   1    5.48    0.91
  -4  -8  -1   19.94    1.58
  -4  -8  -1   24.05    1.70
   4   8   1   25.55    1.64
  -5  -8  -1    1.20    0.91
  -5  -8  -1    1.20    0.96
   5   8   1    1.60    0.83
  -6  -8  -1   59.23    2.76
  -6  -8  -1   59.56    2.72
   6   8   1   55.76    2.40
  -7  -8  -1   19.18    1.82
  -7  -8  -1   13.11    1.66
   7   8   1   19.64    1.54
  -8  -8  -1   19.68    1.94
  -8  -8  -1   15.61    1.82
   8   8   1   17.86    1.38
  -9  -8  -1   26.97    2.25
  -9  -8  -1   32.13    2.26
   9   8   1   28.21    1.80
 -10  -8  -1    4.08    1.50
 -10  -8  -1    5.72    1.63
 -11  -8  -1    2.57    1.59
 -11  -8  -1    2.22    1.46
 -12  -8  -1   -0.18    1.50
 -12  -8  -1    2.32    1.43
 -13  -8  -1    2.76    1.70
 -13  -8  -1    4.95    1.84
  22  -9  -1    0.29    1.28
 -22   9   1    1.45    1.51
  21  -9  -1   -0.47    1.20
 -21   9   1   -0.76    1.34
  20  -9  -1   33.74    2.21
 -20   9   1   31.18    2.65
 -20   9   1   34.13    2.23
  19  -9  -1   25.94    2.01
 -19   9   1   24.12    1.87
 -19   9   1   24.53    2.19
 -19   9   1   20.25    2.25
  18  -9  -1    8.15    1.35
 -18   9   1   12.31    1.72
 -18   9   1    9.95    1.78
 -18   9   1   12.29    1.40
  17  -9  -1   24.73    1.88
 -17   9   1   24.87    1.73
 -17   9   1   29.49    2.20
 -17   9   1   30.99    2.39
  16  -9  -1    2.19    0.95
 -16   9   1   -0.33    0.97
 -16   9   1    1.94    0.93
 -16   9   1    2.53    1.33
  15  -9  -1    0.51    0.85
 -15   9   1    4.34    1.11
 -15   9   1    2.13    1.27
 -15   9   1    2.93    0.87
  14  -9  -1    0.68    0.54
  14  -9  -1    0.68    0.80
 -14   9   1   -0.27    0.86
 -14   9   1    1.66    1.17
 -14   9   1    1.14    0.74
  13  -9  -1   20.96    1.53
  13  -9  -1   20.22    1.12
 -13   9   1   18.48    1.81
 -13   9   1   21.19    1.22
 -13   9   1   21.91    1.52
  12  -9  -1    8.64    0.73
  12  -9  -1    9.29    1.01
 -12   9   1   10.98    0.85
 -12   9   1   12.17    1.45
 -12   9   1    9.51    1.00
  11  -9  -1   73.94    2.23
 -11   9   1   75.72    2.28
 -11   9   1   70.95    3.12
 -11   9   1   73.73    2.52
  10  -9  -1  213.93    5.58
  10  -9  -1  210.16    5.91
 -10   9   1  216.03    5.90
 -10   9   1  219.28    6.80
 -10   9   1  213.04    5.60
   9  -9  -1    0.58    0.48
  -9   9   1    0.25    0.91
  -9   9   1    0.49    0.46
  -9   9   1    0.54    0.33
  -9   9   1    0.88    0.54
   8  -9  -1    1.04    0.52
  -8   9   1    2.00    0.24
  -8   9   1    1.84    0.40
  -8   9   1    1.01    0.51
  -8   9   1    1.55    1.01
   7  -9  -1   13.17    1.00
  -7   9   1   12.50    0.55
  -7   9   1   12.62    1.32
  -7   9   1   13.57    0.86
  -6   9   1  111.67    2.93
  -6   9   1  115.45    3.20
  -6   9   1  113.52    4.00
  -5   9   1    1.86    0.51
  -5   9   1    1.20    0.35
  -5   9   1    0.39    0.91
  -5   9   1    1.65    0.29
  -4   9   1   19.03    1.16
  -4   9   1   20.05    1.54
  -4   9   1   19.77    0.92
  -4   9   1   21.73    0.94
  -3   9   1   33.23    1.31
  -3   9   1   30.79    1.09
  -3   9   1   30.55    1.25
  -3   9   1   29.96    1.86
  -2   9   1    3.87    0.60
  -2   9   1    2.44    0.58
  -2   9   1    4.21    0.51
  -2   9   1    3.08    0.93
   1  -9  -1   47.90    1.89
   1  -9  -1   46.83    1.76
  -1   9   1   47.01    1.82
  -1   9   1   49.20    1.87
  -1   9   1   50.65    2.30
  -1   9   1   48.96    1.71
   0  -9  -1    1.00    0.61
   0  -9  -1   -0.32    0.63
   0   9   1   -0.17    0.56
   0   9   1   -0.32    0.81
   0   9   1    0.65    0.53
   0   9   1   -0.05    0.60
  -1  -9  -1   53.38    2.10
  -1  -9  -1   51.23    2.16
   1   9   1   54.06    2.37
  -2  -9  -1    1.20    0.76
  -2  -9  -1    0.48    0.77
   2   9   1    1.44    0.81
  -3  -9  -1   12.72    1.32
  -3  -9  -1    9.71    1.14
   3   9   1   11.93    1.17
  -4  -9  -1    1.78    0.99
  -4  -9  -1    3.75    1.00
   4   9   1    3.39    0.93
  -5  -9  -1   26.49    1.93
  -5  -9  -1   22.92    1.82
   5   9   1   28.37    1.79
  -6  -9  -1    3.19    1.20
  -6  -9  -1    6.12    1.30
   6   9   1    4.10    1.01
  -7  -9  -1    1.14    1.22
  -7  -9  -1    0.84    1.15
   7   9   1    1.06    0.90
  -8  -9  -1    1.08    1.28
  -8  -9  -1    2.42    1.35
   8   9   1    2.48    0.96
  -9  -9  -1   12.56    1.89
  -9  -9  -1    9.45    1.73
 -10  -9  -1    4.43    1.47
 -10  -9  -1    3.57    1.57
 -11  -9  -1   -0.11    1.29
 -11  -9  -1    0.00    1.48
 -12  -9  -1   12.89    2.06
 -12  -9  -1    8.97    2.02
 -13  -9  -1    2.16    1.65
 -13  -9  -1    0.59    1.66
 -22  10   1    1.40    1.56
  21 -10  -1   11.13    1.57
 -21  10   1   11.43    1.89
  20 -10  -1   -0.63    1.03
 -20  10   1    0.78    1.30
 -20  10   1   -0.23    1.48
  19 -10  -1    2.65    1.16
 -19  10   1    3.30    1.14
 -19  10   1    2.94    1.29
 -19  10   1    3.21    1.56
  18 -10  -1    2.55    1.11
 -18  10   1    2.64    1.43
 -18  10   1    3.25    1.05
 -18  10   1    3.86    1.35
  17 -10  -1   38.47    2.08
 -17  10   1   37.20    1.95
 -17  10   1   37.25    2.22
 -17  10   1   36.54    2.69
  16 -10  -1    3.01    1.01
 -16  10   1    4.13    1.15
 -16  10   1    5.39    1.50
 -16  10   1    2.91    0.89
  15 -10  -1   10.66    1.18
 -15  10   1   14.89    1.81
 -15  10   1    9.83    1.29
 -15  10   1   10.60    1.03
  14 -10  -1   43.06    1.71
  14 -10  -1   41.96    2.04
 -14  10   1   42.85    1.76
 -14  10   1   46.07    2.66
 -14  10   1   45.08    2.10
  13 -10  -1   13.41    1.14
  13 -10  -1   13.58    0.92
 -13  10   1   13.40    1.02
 -13  10   1   14.56    1.23
 -13  10   1   12.12    1.61
  12 -10  -1   30.74    1.19
 -12  10   1   28.15    1.22
 -12  10   1   28.61    1.51
 -12  10   1   32.30    2.26
  11 -10  -1    2.80    0.63
  11 -10  -1    3.00    0.39
 -11  10   1    2.04    0.48
 -11  10   1    2.81    1.16
 -11  10   1    3.22    0.67
  10 -10  -1  111.89    3.38
 -10  10   1  113.50    4.20
 -10  10   1  112.46    3.02
 -10  10   1  112.98    3.28
   9 -10  -1   53.32    1.93
  -9  10   1   63.16    2.77
  -9  10   1   55.77    1.89
  -9  10   1   53.54    1.50
  -9  10   1   55.30    1.75
   8 -10  -1  126.18    3.75
  -8  10   1  134.30    3.68
  -8  10   1  129.76    3.45
  -8  10   1  131.72    4.59
  -7  10   1   86.78    2.56
  -7  10   1   86.99    2.23
  -7  10   1   84.54    3.42
  -6  10   1    6.91    0.53
  -6  10   1    7.02    1.19
  -6  10   1    7.83    0.66
  -5  10   1   37.01    1.22
  -5  10   1   35.74    1.26
  -5  10   1   36.24    2.12
  -5  10   1   39.60    1.47
  -4  10   1    0.46    0.94
  -4  10   1    1.26    0.47
  -4  10   1    0.43    0.44
  -4  10   1    2.09    0.61
  -3  10   1   50.30    2.43
  -3  10   1   49.57    1.58
  -3  10   1   49.88    1.76
  -3  10   1   48.26    1.75
  -2  10   1   13.76    0.98
  -2  10   1   14.45    1.42
  -2  10   1   12.54    0.95
  -2  10   1   11.60    0.86
   1 -10  -1  203.18    5.97
   1 -10  -1  220.92    5.93
  -1  10   1  221.73    5.97
  -1  10   1  213.72    5.88
  -1  10   1  205.08    6.58
  -1  10   1  218.50    6.03
   0 -10  -1  112.35    3.61
   0 -10  -1  111.79    3.47
   0  10   1  112.18    3.42
   0  10   1  104.71    3.94
  -1 -10  -1    4.92    0.98
  -1 -10  -1    3.89    0.84
   1  10   1    5.06    1.07
  -2 -10  -1   15.47    1.35
  -2 -10  -1   17.31    1.47
   2  10   1   19.56    1.63
  -3 -10  -1    4.45    1.12
  -3 -10  -1    4.62    1.07
   3  10   1    4.17    1.02
  -4 -10  -1    8.86    1.27
  -4 -10  -1    8.03    1.33
   4  10   1    8.58    1.18
  -5 -10  -1    6.31    1.28
  -5 -10  -1    5.31    1.23
   5  10   1    2.95    1.01
  -6 -10  -1   24.02    2.08
  -6 -10  -1   20.94    1.98
   6  10   1   19.81    1.62
  -7 -10  -1   14.20    1.88
  -7 -10  -1   16.01    1.83
   7  10   1   14.89    1.42
  -8 -10  -1    4.15    1.40
  -8 -10  -1    3.00    1.30
   8  10   1    1.41    1.08
  -9 -10  -1   27.22    2.46
  -9 -10  -1   23.18    2.32
 -10 -10  -1    0.39    1.45
 -10 -10  -1   -0.17    1.44
 -11 -10  -1    6.07    1.66
 -11 -10  -1    5.48    1.85
 -12 -10  -1   -0.75    1.32
 -12 -10  -1   -2.21    1.51
 -22  11   1   -0.94    1.38
 -21  11   1    7.06    1.66
 -21  11   1    7.69    1.90
  20 -11  -1   -1.00    1.05
 -20  11   1    1.77    1.41
 -20  11   1    0.72    1.52
  19 -11  -1    2.39    1.13
 -19  11   1    1.41    1.26
 -19  11   1    2.22    1.50
  18 -11  -1    0.12    1.01
 -18  11   1    0.35    1.12
 -18  11   1    0.72    0.91
 -18  11   1    1.47    1.47
  17 -11  -1   25.07    1.91
 -17  11   1   27.72    1.60
 -17  11   1   27.31    2.37
 -17  11   1   26.62    1.99
  16 -11  -1   -0.34    0.86
 -16  11   1    0.72    0.92
 -16  11   1    1.95    1.35
 -16  11   1    0.41    0.70
  15 -11  -1    7.19    1.08
 -15  11   1    7.82    1.57
 -15  11   1    6.75    0.85
 -15  11   1    6.15    1.10
  14 -11  -1    2.32    0.54
  14 -11  -1    3.38    0.88
 -14  11   1    2.91    1.35
 -14  11   1    1.08    0.60
 -14  11   1    4.03    0.92
  13 -11  -1    3.36    0.49
 -13  11   1    1.85    0.75
 -13  11   1    1.18    1.18
 -13  11   1    2.16    0.55
  12 -11  -1    8.10    0.57
 -12  11   1    9.97    0.71
 -12  11   1    8.70    1.49
 -12  11   1    8.55    0.87
  11 -11  -1   44.50    1.76
 -11  11   1   42.65    1.36
 -11  11   1   42.23    2.52
 -11  11   1   46.63    1.66
  10 -11  -1    4.17    0.66
 -10  11   1    4.89    0.54
 -10  11   1    4.07    0.67
 -10  11   1    4.21    1.25
   9 -11  -1    0.28    0.52
  -9  11   1    0.61    0.29
  -9  11   1   -0.78    1.04
  -9  11   1    0.15    0.49
  -8  11   1    5.17    0.60
  -8  11   1    4.15    1.17
  -7  11   1    6.73    0.48
  -7  11   1    6.91    0.64
  -7  11   1    6.05    1.23
  -6  11   1    1.54    0.39
  -6  11   1    1.60    1.01
  -6  11   1    2.14    0.52
  -5  11   1   59.07    2.80
  -5  11   1   60.24    1.85
  -5  11   1   58.55    1.88
  -5  11   1   58.01    2.00
  -4  11   1   82.87    3.35
  -4  11   1   84.36    2.53
  -4  11   1   80.36    2.51
  -3  11   1   11.47    1.39
  -3  11   1    9.71    0.84
  -3  11   1   11.06    0.81
  -3  11   1   12.47    0.91
  -2  11   1   68.90    3.03
  -2  11   1   75.20    2.37
  -2  11   1   77.79    2.57
  -2  11   1   73.64    2.54
   1 -11  -1    2.60    0.69
  -1  11   1    3.02    0.62
  -1  11   1    1.68    1.00
  -1  11   1    2.74    0.72
   0 -11  -1   40.92    1.82
   0 -11  -1   39.67    1.91
   0  11   1   41.51    2.26
  -1 -11  -1    8.24    1.16
  -1 -11  -1    8.86    1.10
   1  11   1   10.10    1.37
  -2 -11  -1   57.55    2.53
  -2 -11  -1   61.44    2.71
   2  11   1   58.48    2.79
  -3 -11  -1   18.63    1.58
  -3 -11  -1   17.19    1.63
   3  11   1   15.24    1.57
  -4 -11  -1    2.47    1.17
  -4 -11  -1    3.23    1.09
   4  11   1    2.32    1.11
  -5 -11  -1   47.65    2.67
  -5 -11  -1   45.10    2.61
   5  11   1   41.52    2.48
  -6 -11  -1    0.85    1.27
  -6 -11  -1    2.72    1.27
   6  11   1    2.65    1.17
  -7 -11  -1    1.95    1.40
  -7 -11  -1   -0.67    1.28
   7  11   1    0.98    1.14
  -8 -11  -1    1.06    1.37
  -8 -11  -1    1.81    1.42
  -9 -11  -1   38.32    2.82
  -9 -11  -1   34.33    2.88
 -10 -11  -1   12.73    2.10
 -10 -11  -1   11.99    2.05
 -11 -11  -1    0.46    1.59
 -11 -11  -1    2.98    1.70
 -22  12   1    2.25    1.43
 -21  12   1    8.19    1.91
 -21  12   1   11.99    1.80
 -20  12   1    3.20    1.40
 -20  12   1    2.82    1.62
  19 -12  -1   -1.20    0.93
 -19  12   1   -0.77    1.10
 -19  12   1   -0.46    1.43
  18 -12  -1   -0.08    0.95
 -18  12   1    0.60    1.06
 -18  12   1    2.94    1.54
  17 -12  -1   30.90    1.88
 -17  12   1   30.66    2.54
 -17  12   1   31.20    2.03
  16 -12  -1   19.82    1.46
 -16  12   1   19.10    2.07
 -16  12   1   19.15    1.54
 -16  12   1   15.47    1.15
  15 -12  -1   -0.01    0.78
 -15  12   1    1.05    0.61
 -15  12   1    1.55    1.36
 -15  12   1    1.59    0.86
  14 -12  -1   16.31    1.28
 -14  12   1   19.26    1.96
 -14  12   1   16.63    0.98
 -14  12   1   19.03    1.41
 -13  12   1    1.51    0.46
 -13  12   1    2.49    0.70
 -13  12   1    1.83    1.33
  12 -12  -1    6.04    0.77
 -12  12   1    2.79    0.63
 -12  12   1    5.15    1.38
 -12  12   1    3.66    0.41
  11 -12  -1    9.18    0.84
 -11  12   1    9.38    0.69
 -11  12   1    8.61    1.52
  10 -12  -1   15.06    1.14
 -10  12   1   18.87    1.04
 -10  12   1   14.82    0.72
 -10  12   1   15.43    1.69
  -9  12   1   12.12    1.55
  -9  12   1   12.58    0.91
  -8  12   1   22.42    1.07
  -8  12   1   24.34    1.97
  -8  12   1   24.11    0.74
  -7  12   1   23.10    1.89
  -7  12   1   24.02    0.91
  -7  12   1   23.19    1.09
  -6  12   1    8.69    0.64
  -6  12   1    9.67    0.65
  -6  12   1    6.42    1.31
  -6  12   1    8.58    0.74
  -5  12   1    2.00    0.50
  -5  12   1    2.82    0.56
  -5  12   1    1.57    1.11
  -5  12   1    2.15    0.63
  -4  12   1    1.78    1.09
  -4  12   1    3.53    0.61
  -4  12   1    2.72    0.61
  -3  12   1   10.33    1.44
  -3  12   1    9.85    0.72
  -3  12   1    9.60    0.87
  -3  12   1    9.50    0.90
  -2  12   1   27.96    1.48
  -2  12   1   30.96    1.37
  -2  12   1   28.16    2.05
  -2  12   1   28.20    1.51
  -1  12   1   10.55    1.35
  -1  12   1   10.09    0.92
   0 -12  -1    3.54    0.84
   0  12   1    2.83    1.14
  -1 -12  -1    4.00    1.10
  -1 -12  -1    4.16    1.00
   1  12   1    4.29    1.21
  -2 -12  -1    4.61    1.06
  -2 -12  -1    2.98    1.14
   2  12   1    1.38    1.14
  -3 -12  -1    0.87    0.97
  -3 -12  -1   -0.77    1.05
   3  12   1    1.11    1.13
  -4 -12  -1   10.69    1.47
  -4 -12  -1   10.72    1.59
   4  12   1   12.77    1.56
  -5 -12  -1   14.21    1.72
  -5 -12  -1   12.67    1.76
   5  12   1   11.97    1.54
  -6 -12  -1    6.79    1.59
  -6 -12  -1    4.28    1.44
   6  12   1    6.25    1.33
  -7 -12  -1    5.58    1.61
  -7 -12  -1    1.33    1.41
  -8 -12  -1   20.65    2.26
  -8 -12  -1   18.21    2.23
  -9 -12  -1    0.57    1.46
  -9 -12  -1   -1.06    1.36
 -10 -12  -1    2.21    1.63
 -10 -12  -1    0.98    1.71
 -21  13   1    4.44    1.75
 -20  13   1    6.35    1.42
 -20  13   1    5.54    1.75
 -19  13   1    4.70    1.71
 -19  13   1    5.30    1.27
  18 -13  -1   19.70    1.61
 -18  13   1   20.24    2.37
 -18  13   1   23.97    1.87
  17 -13  -1    0.31    0.88
 -17  13   1    0.32    1.40
 -17  13   1   -1.04    0.90
  16 -13  -1    6.66    1.06
 -16  13   1    8.90    1.75
 -16  13   1    6.18    1.07
  15 -13  -1    0.77    0.83
 -15  13   1    1.13    1.44
 -15  13   1    0.95    0.81
 -14  13   1   25.31    1.02
 -14  13   1   27.49    2.40
 -14  13   1   26.16    1.49
 -13  13   1    9.49    0.55
 -13  13   1   11.84    1.78
 -13  13   1    9.15    0.86
  12 -13  -1    4.39    0.72
 -12  13   1    5.25    0.62
 -12  13   1    5.21    1.46
  11 -13  -1   59.21    2.14
 -11  13   1   58.25    3.12
 -10  13   1    3.53    0.61
 -10  13   1    4.11    1.37
  -9  13   1    3.99    0.56
  -9  13   1    3.99    1.27
  -8  13   1    1.02    1.22
  -8  13   1    0.96    0.48
  -8  13   1    1.02    0.31
  -7  13   1   74.13    3.28
  -7  13   1   70.77    2.25
  -7  13   1   74.24    2.15
  -6  13   1   20.41    0.99
  -6  13   1   20.92    1.06
  -6  13   1   19.86    1.12
  -6  13   1   21.88    1.91
  -5  13   1    4.97    0.78
  -5  13   1    4.83    0.64
  -5  13   1    3.59    1.29
  -5  13   1    6.44    0.70
  -4  13   1   20.74    1.23
  -4  13   1   19.10    1.23
  -4  13   1   19.72    1.89
  -3  13   1   13.11    1.08
  -3  13   1   15.34    1.70
  -3  13   1   14.41    0.98
  -3  13   1   12.55    1.03
  -2  13   1    1.75    1.16
  -2  13   1    3.46    0.65
  -1  13   1    3.06    1.17
   0  13   1    8.18    1.43
  -1 -13  -1    2.91    0.98
   1  13   1    1.11    1.14
  -2 -13  -1   10.89    1.37
   2  13   1    9.76    1.48
  -3 -13  -1   17.54    1.71
   3  13   1   11.26    1.57
  -4 -13  -1    6.87    1.45
  -4 -13  -1    6.28    1.45
   4  13   1    8.77    1.44
  -5 -13  -1    0.67    1.26
  -5 -13  -1    1.51    1.31
   5  13   1    1.26    1.19
  -6 -13  -1    1.18    1.37
  -6 -13  -1    0.48    1.27
   6  13   1    0.74    1.18
  -7 -13  -1    2.64    1.57
  -7 -13  -1    5.32    1.61
  -8 -13  -1    6.07    1.76
  -8 -13  -1    2.95    1.59
  -9 -13  -1    2.20    1.58
 -21  14   1   -0.60    1.71
 -20  14   1   -1.34    1.54
 -19  14   1   -0.69    1.55
 -18  14   1   12.28    2.08
 -17  14   1    1.81    1.55
  16 -14  -1    1.97    0.88
 -16  14   1    2.59    1.58
 -15  14   1    7.53    1.82
 -15  14   1    8.37    0.96
 -14  14   1    4.74    1.56
 -14  14   1    4.22    0.75
 -13  14   1    1.08    0.52
 -13  14   1    1.68    1.44
 -12  14   1    1.32    1.43
 -11  14   1   18.95    1.99
 -10  14   1   10.17    1.62
 -10  14   1    9.79    0.76
  -9  14   1   26.98    1.15
  -9  14   1   23.02    2.06
  -8  14   1   59.39    1.71
  -8  14   1   57.64    3.02
  -8  14   1   54.75    1.85
  -7  14   1   -0.71    1.21
  -7  14   1    0.22    0.45
  -7  14   1   -0.07    0.50
  -6  14   1    1.63    0.49
  -6  14   1    2.18    0.63
  -6  14   1    1.42    1.32
  -6  14   1    1.14    0.53
  -5  14   1    0.94    0.55
  -5  14   1    1.46    0.63
  -5  14   1    1.06    1.30
  -5  14   1    0.10    0.70
  -4  14   1   46.56    1.85
  -4  14   1   37.55    2.56
  -4  14   1   45.19    1.87
  -3  14   1    1.47    1.27
  -2  14   1   14.16    1.71
  -1  14   1   22.36    1.98
   0  14   1    2.98    1.27
   1  14   1    9.34    1.49
  -2 -14  -1    0.61    1.05
   2  14   1   -1.32    1.12
  -3 -14  -1   28.09    2.20
   3  14   1   29.14    2.21
  -4 -14  -1    1.58    1.25
   4  14   1    2.93    1.28
  -5 -14  -1    8.83    1.62
   5  14   1    6.96    1.54
  -6 -14  -1    8.95    1.75
  -7 -14  -1   -0.63    1.45
 -21  15   1    7.66    2.02
 -20  15   1    3.57    1.83
 -19  15   1   -0.54    1.62
 -18  15   1    8.67    1.90
 -17  15   1    8.14    1.88
 -16  15   1    2.12    1.59
 -15  15   1    0.16    1.53
 -14  15   1    9.99    1.83
 -13  15   1   11.95    1.89
 -12  15   1    0.82    1.48
 -11  15   1    1.92    1.41
 -10  15   1    4.29    1.55
 -10  15   1    3.64    0.56
  -9  15   1    1.74    1.45
  -9  15   1    3.69    0.54
  -8  15   1   18.56    1.98
  -8  15   1   15.75    0.94
  -7  15   1    2.38    0.60
  -7  15   1    1.14    1.40
  -6  15   1    1.25    1.39
  -6  15   1    2.46    0.73
  -5  15   1   10.60    1.06
  -5  15   1    6.44    1.61
  -4  15   1    7.80    1.54
  -3  15   1    2.44    1.44
  -2  15   1    1.33    1.41
  -1  15   1    6.54    1.50
   0  15   1   -0.40    1.31
   1  15   1   20.47    2.04
   2  15   1   29.69    2.40
   3  15   1   -0.82    1.27
   4  15   1    4.42    1.51
  -6 -15  -1    6.11    1.74
 -21  16   1    1.87    1.80
 -20  16   1    6.75    2.07
 -19  16   1    2.55    1.77
 -18  16   1   10.99    2.11
 -17  16   1   25.27    2.58
 -16  16   1    5.45    1.77
 -15  16   1   22.31    2.47
 -14  16   1   -0.17    1.52
 -13  16   1   16.38    2.15
 -12  16   1   12.99    1.99
 -11  16   1   48.28    2.99
 -10  16   1   21.98    2.26
  -9  16   1    1.33    1.51
  -8  16   1   15.14    1.92
  -7  16   1    2.63    1.54
  -7  16   1    2.51    0.63
  -6  16   1    1.22    1.51
  -6  16   1    2.74    0.73
  -5  16   1    0.10    0.76
  -5  16   1    1.95    1.48
  -4  16   1   18.60    2.09
  -3  16   1    2.40    1.52
  -2  16   1    2.75    1.51
  -1  16   1    0.76    1.47
   0  16   1    5.06    1.55
   1  16   1    1.83    1.51
   2  16   1    4.61    1.62
   3  16   1    2.18    1.55
   4  16   1    2.96    1.53
 -20  17   1    2.31    1.86
 -19  17   1   -0.18    1.77
 -18  17   1    1.98    1.80
 -17  17   1    1.66    1.81
 -16  17   1    2.80    1.78
 -15  17   1   29.86    2.81
 -14  17   1   27.00    2.57
 -13  17   1    5.40    1.75
 -12  17   1   12.00    2.00
 -11  17   1   -0.11    1.57
 -10  17   1   16.17    2.12
  -9  17   1    0.22    1.54
  -8  17   1   30.30    2.62
  -7  17   1   39.10    2.79
  -6  17   1   28.89    2.54
  -5  17   1   33.55    2.68
  -4  17   1    0.09    1.54
  -3  17   1    0.59    1.54
  -2  17   1    6.86    1.63
  -1  17   1   18.76    2.18
   0  17   1    2.98    1.66
   1  17   1    0.82    1.56
   2  17   1   11.17    1.88
   3  17   1    0.52    1.59
 -20  18   1    4.01    2.03
 -19  18   1   -0.62    1.82
 -18  18   1    3.31    1.96
 -17  18   1    1.02    1.79
 -16  18   1   10.53    2.18
 -15  18   1    4.35    1.83
 -14  18   1    2.58    1.82
 -13  18   1   -0.56    1.62
 -12  18   1    4.87    1.76
 -11  18   1    3.16    1.75
 -10  18   1    3.38    1.76
  -9  18   1   15.25    2.16
  -8  18   1    6.93    1.77
  -7  18   1    2.55    1.53
  -6  18   1    2.14    1.69
  -5  18   1   19.35    2.25
  -4  18   1    8.33    1.95
  -3  18   1    5.14    1.81
  -2  18   1    9.27    2.02
  -1  18   1    0.31    1.73
   0  18   1    0.20    1.69
   1  18   1    1.66    1.77
   2  18   1   -1.24    1.69
 -19  19   1    1.12    1.96
 -18  19   1    1.60    1.95
 -17  19   1   15.33    2.44
 -16  19   1    2.64    1.90
 -15  19   1    3.57    1.94
 -14  19   1   10.85    2.19
 -13  19   1    0.88    1.77
 -12  19   1    3.23    1.84
 -11  19   1    0.52    1.77
 -10  19   1   24.78    2.59
  -9  19   1    3.90    1.92
  -8  19   1    0.80    1.72
  -7  19   1    1.85    1.76
  -6  19   1    6.43    1.77
  -5  19   1    0.38    1.74
  -4  19   1    1.29    1.74
  -3  19   1    0.25    1.71
  -2  19   1   -0.02    1.73
  -1  19   1    1.33    1.78
   0  19   1    3.19    1.87
 -18  20   1    2.17    2.07
 -17  20   1   -1.11    1.86
 -16  20   1    1.31    1.96
 -15  20   1    1.30    1.82
 -14  20   1    7.69    2.07
 -13  20   1    0.29    1.87
 -12  20   1   18.54    2.53
 -11  20   1   28.55    2.85
 -10  20   1    1.68    1.90
  -9  20   1    1.63    1.91
  -8  20   1    2.57    1.89
  -7  20   1    7.40    1.95
  -6  20   1   -1.67    1.73
  -5  20   1    4.67    1.93
  -4  20   1    5.55    2.04
  -3  20   1    0.88    1.88
  -2  20   1    3.54    2.01
 -16  21   1   -1.81    1.85
 -15  21   1    6.02    2.08
 -14  21   1    1.25    1.99
 -13  21   1    4.71    2.14
 -12  21   1   -0.50    1.80
 -11  21   1   10.12    2.21
 -10  21   1    7.92    2.09
  -9  21   1    7.31    2.22
  -8  21   1    3.76    2.05
  -7  21   1    0.09    1.88
  -6  21   1    2.28    1.98
  -5  21   1    3.84    2.04
 -13  22   1   -1.97    1.93
 -12  22   1    1.82    2.11
 -11  22   1   -1.04    1.95
 -10  22   1    1.60    2.01
  -9  22   1    1.22    2.08
 -10  22  -2   -1.96    1.98
 -11  22  -2    2.56    2.17
 -12  22  -2    2.89    2.20
  -5  21  -2    3.04    2.00
  -6  21  -2    0.00    1.98
  -7  21  -2    0.59    1.96
  -8  21  -2    0.68    1.95
  -9  21  -2    0.67    1.92
 -10  21  -2    0.75    2.06
 -11  21  -2   -3.89    1.78
 -12  21  -2   -0.70    1.89
 -13  21  -2    0.47    1.89
 -14  21  -2    1.13    1.98
 -15  21  -2    0.11    2.01
 -16  21  -2    1.64    2.09
  -2  20  -2    0.57    1.84
  -3  20  -2    1.67    1.85
  -4  20  -2    4.25    1.99
  -5  20  -2   -0.01    1.74
  -6  20  -2    2.03    1.79
  -7  20  -2    1.75    1.91
  -8  20  -2   -1.43    1.72
  -9  20  -2    2.33    1.94
 -10  20  -2    0.69    1.86
 -11  20  -2   -0.04    1.85
 -12  20  -2   -2.00    1.78
 -13  20  -2    3.63    2.01
 -14  20  -2   -0.45    1.85
 -15  20  -2   -0.32    1.89
 -16  20  -2   -0.84    1.92
 -17  20  -2    1.33    2.08
   0  19  -2    1.53    1.87
  -1  19  -2    0.81    1.82
  -2  19  -2    1.90    1.90
  -3  19  -2    2.20    1.76
  -4  19  -2    2.10    1.78
  -5  19  -2    2.06    1.72
  -6  19  -2   -0.31    1.66
  -7  19  -2   -0.44    1.61
  -8  19  -2    2.69    1.79
  -9  19  -2    1.12    1.70
 -10  19  -2    0.96    1.76
 -11  19  -2    1.22    1.78
 -12  19  -2    0.74    1.81
 -13  19  -2   -2.18    1.73
 -14  19  -2   -2.02    1.73
 -15  19  -2    3.24    1.97
 -16  19  -2    3.26    1.98
 -17  19  -2   -0.87    1.86
 -18  19  -2   -0.67    1.86
 -19  19  -2    1.12    1.87
   2  18  -2    0.64    1.50
   1  18  -2    0.63    1.49
   0  18  -2    3.09    1.57
  -1  18  -2    2.90    1.59
  -2  18  -2   -0.57    1.34
  -3  18  -2    2.44    1.69
  -4  18  -2    0.93    1.64
  -5  18  -2    0.92    1.63
  -6  18  -2    3.35    1.69
  -7  18  -2    0.74    1.54
  -8  18  -2    2.61    1.58
  -9  18  -2    5.11    1.90
 -10  18  -2    2.49    1.74
 -11  18  -2   -0.51    1.64
 -12  18  -2   -0.54    1.65
 -13  18  -2    2.03    1.81
 -14  18  -2   -0.26    1.69
 -15  18  -2    0.22    1.76
 -16  18  -2    0.90    1.84
 -17  18  -2    0.02    1.77
 -18  18  -2    2.03    1.93
 -19  18  -2   -0.77    1.74
   3  17  -2    1.10    1.42
   2  17  -2    0.53    1.42
   1  17  -2    0.76    1.37
   0  17  -2   -0.43    1.36
  -1  17  -2    1.67    1.40
  -2  17  -2    2.27    1.49
  -3  17  -2    2.24    1.47
  -4  17  -2    3.01    1.47
  -5  17  -2   -1.57    1.45
  -6  17  -2    2.45    1.58
  -7  17  -2    2.70    1.58
  -8  17  -2    0.57    1.47
  -9  17  -2    5.63    1.69
 -10  17  -2    0.25    1.54
 -11  17  -2    1.81    1.67
 -12  17  -2    1.21    1.67
 -13  17  -2    2.41    1.74
 -14  17  -2    3.35    1.80
 -15  17  -2    2.79    1.78
 -16  17  -2    0.64    1.74
 -17  17  -2    0.04    1.71
 -18  17  -2    3.26    1.82
 -19  17  -2    3.74    1.85
 -20  17  -2   -0.90    1.70
   5  16  -2    1.91    1.50
   4  16  -2    2.32    1.53
   3  16  -2    2.64    1.50
   2  16  -2    1.90    1.45
   1  16  -2    1.40    1.44
   0  16  -2    0.84    1.39
  -1  16  -2    1.07    1.34
  -2  16  -2    4.37    1.51
  -3  16  -2    0.18    1.33
  -4  16  -2    0.73    1.37
  -5  16  -2    0.95    1.36
  -6  16  -2    0.16    1.40
  -7  16  -2    7.63    1.77
  -8  16  -2    2.32    1.48
  -9  16  -2    1.75    1.47
 -10  16  -2    0.37    1.42
 -11  16  -2    0.40    1.56
 -12  16  -2    3.59    1.70
 -13  16  -2    1.53    1.62
 -14  16  -2    3.33    1.72
 -15  16  -2    4.22    1.76
 -16  16  -2    0.99    1.64
 -17  16  -2    0.44    1.65
 -18  16  -2   -0.34    1.58
 -19  16  -2    3.10    1.86
 -20  16  -2    2.19    1.78
 -21  16  -2   -0.51    1.64
   6  15  -2    1.15    1.47
   5  15  -2    1.93    1.45
   4  15  -2   -0.14    1.28
   3  15  -2   -0.10    1.27
   2  15  -2   -1.32    1.21
   1  15  -2    2.69    1.34
   0  15  -2    3.50    1.39
  -1  15  -2    2.95    1.38
  -2  15  -2    0.67    1.28
  -3  15  -2    0.64    1.31
  -4  15  -2    2.98    1.39
  -5  15  -2    2.30    1.36
  -6  15  -2   22.53    2.21
  -7  15  -2   18.65    2.15
   7 -15   2   21.68    1.31
  -8  15  -2    3.54    1.44
  -8  15  -2    3.21    0.81
   8 -15   2    3.19    0.69
  -9  15  -2    7.07    1.58
   9 -15   2    9.27    0.80
 -10  15  -2    2.72    1.47
  10 -15   2    2.68    0.57
 -11  15  -2   15.98    1.19
 -11  15  -2   19.32    2.17
  11 -15   2   14.07    0.90
 -12  15  -2   23.58    2.33
 -12  15  -2   21.12    1.31
 -13  15  -2   13.35    1.12
 -13  15  -2   13.96    1.94
 -14  15  -2    1.48    0.82
 -14  15  -2   -1.37    1.43
 -15  15  -2    3.05    0.94
 -15  15  -2    5.25    1.70
 -16  15  -2    3.68    1.49
 -17  15  -2    4.25    1.71
 -18  15  -2    4.55    1.80
 -19  15  -2    0.92    1.58
 -20  15  -2   -0.36    1.53
 -21  15  -2    0.52    1.57
   7  14  -2   -0.62    1.42
   6  14  -2   -0.28    1.37
   1  14  -2   -0.04    1.20
   0  14  -2    0.95    1.24
  -1  14  -2    0.92    1.26
  -2  14  -2   -0.42    1.15
  -3  14  -2    0.58    1.26
  -4  14  -2    2.19    1.31
  -5  14  -2   15.51    0.72
  -5  14  -2   18.16    1.18
  -5  14  -2   15.51    0.65
  -5  14  -2   13.68    1.76
  -5  14  -2   14.29    1.15
   5 -14   2   12.93    1.15
  -6  14  -2   -0.30    1.17
  -6  14  -2    0.74    0.57
   6 -14   2    0.54    0.69
  -7  14  -2    9.73    1.03
  -7  14  -2   11.01    0.89
  -7  14  -2    9.57    1.66
   7 -14   2    9.74    0.91
   7 -14   2   12.12    0.91
  -8  14  -2    0.81    1.32
   8 -14   2   -0.25    0.49
   8 -14   2   -0.97    0.54
  -9  14  -2    1.66    1.29
   9 -14   2    1.18    0.56
   9 -14   2    1.37    0.45
 -10  14  -2    4.96    0.77
 -10  14  -2    5.18    1.51
  10 -14   2    4.06    0.41
  10 -14   2    5.58    0.65
 -11  14  -2    1.83    1.44
 -11  14  -2    1.82    0.70
  11 -14   2    0.55    0.50
 -12  14  -2    2.09    0.74
 -12  14  -2    3.72    1.51
  12 -14   2    3.07    0.57
 -13  14  -2    5.48    0.91
 -13  14  -2    5.64    1.58
  13 -14   2    4.78    0.67
 -14  14  -2    4.32    1.50
 -14  14  -2    2.90    0.87
 -14  14  -2    3.76    0.92
  14 -14   2    2.43    0.65
 -15  14  -2    4.45    0.94
 -15  14  -2    2.75    1.57
 -15  14  -2    2.57    0.94
 -16  14  -2    5.39    1.02
 -16  14  -2    3.67    1.06
 -16  14  -2    4.10    1.62
 -17  14  -2    1.53    1.53
 -17  14  -2    0.53    0.97
 -18  14  -2   -0.03    1.50
 -18  14  -2    1.74    1.19
 -19  14  -2   -0.17    1.49
 -19  14  -2    2.58    1.26
 -20  14  -2    1.12    1.25
 -20  14  -2    0.58    1.45
  -2  13  -2    0.63    0.54
  -2  13  -2    1.18    1.16
  -3  13  -2    0.50    1.16
  -3  13  -2    2.58    0.55
   3 -13   2    2.24    0.87
  -4  13  -2    1.67    1.22
  -4  13  -2    1.78    0.43
  -4  13  -2    2.50    0.67
   4 -13   2    2.35    0.83
  -5  13  -2   23.32    2.05
  -5  13  -2   23.77    1.30
   5 -13   2   23.78    1.40
  -6  13  -2   19.96    1.14
  -6  13  -2   20.47    1.92
   6 -13   2   17.99    1.17
   6 -13   2   18.10    1.21
  -7  13  -2    3.21    1.26
   7 -13   2    3.19    0.59
   7 -13   2    2.50    0.65
  -8  13  -2    1.23    1.23
   8 -13   2    1.24    0.55
   8 -13   2    0.12    0.44
  -9  13  -2    4.18    1.32
   9 -13   2    3.63    0.44
   9 -13   2    2.94    0.60
 -10  13  -2    1.03    1.22
 -10  13  -2    1.65    0.69
  10 -13   2    1.86    0.55
 -11  13  -2    4.20    1.51
 -11  13  -2    3.55    0.77
  11 -13   2    3.73    0.61
 -12  13  -2    0.09    0.71
 -12  13  -2    1.78    1.41
  12 -13   2    0.59    0.32
  12 -13   2    0.85    0.55
 -13  13  -2    2.68    1.27
 -13  13  -2    1.83    0.84
 -14  13  -2    2.02    0.83
 -14  13  -2    2.41    1.46
 -14  13  -2    3.78    0.96
 -15  13  -2    2.76    0.97
 -15  13  -2    0.80    1.40
 -15  13  -2    1.09    0.88
 -16  13  -2    1.79    1.41
 -16  13  -2    1.00    0.88
 -16  13  -2    1.33    1.03
 -17  13  -2    2.75    1.03
 -17  13  -2   -1.31    0.97
 -17  13  -2    2.42    1.43
 -18  13  -2   -0.49    0.95
 -18  13  -2    0.23    1.14
 -18  13  -2    0.04    1.33
 -19  13  -2    1.75    1.44
 -19  13  -2    0.06    1.18
 -20  13  -2    0.82    1.31
 -20  13  -2    3.25    1.56
 -21  13  -2    0.76    1.36
  -2  12  -2    1.98    0.56
   2 -12   2    2.48    0.84
  -3  12  -2   12.62    0.87
   3 -12   2   12.33    1.14
  -4  12  -2   -0.29    0.55
  -4  12  -2   -0.11    0.59
  -4  12  -2   -0.98    1.00
  -4  12  -2    0.45    0.35
   4 -12   2   -0.14    0.65
  -5  12  -2    8.71    1.43
  -5  12  -2    8.67    0.81
   5 -12   2    8.52    0.82
   5 -12   2    6.55    0.84
  -6  12  -2   28.12    2.14
   6 -12   2   28.83    1.39
   6 -12   2   28.90    1.32
  -7  12  -2    1.87    1.13
   7 -12   2    0.09    0.55
   7 -12   2   -0.59    0.42
  -8  12  -2    2.72    1.17
   8 -12   2    1.73    0.55
   8 -12   2    1.38    0.40
  -9  12  -2    1.18    1.12
   9 -12   2    1.57    0.52
   9 -12   2    0.17    0.26
 -10  12  -2    0.17    0.61
 -10  12  -2   -1.46    1.09
  10 -12   2    0.17    0.49
 -11  12  -2    5.23    1.41
 -11  12  -2    8.26    0.95
  11 -12   2    8.94    0.79
  11 -12   2    8.35    0.59
 -12  12  -2    0.77    1.31
 -12  12  -2    1.21    0.78
  12 -12   2    1.25    0.45
 -13  12  -2    1.82    1.34
 -13  12  -2    2.51    0.89
  13 -12   2    0.67    0.31
 -14  12  -2   -0.42    0.78
 -14  12  -2    2.17    1.40
 -14  12  -2    2.41    0.91
  14 -12   2   -0.27    0.39
 -15  12  -2    2.82    1.43
 -15  12  -2    4.84    1.09
 -15  12  -2    3.48    0.98
 -16  12  -2    0.95    1.26
 -16  12  -2    1.12    1.01
 -16  12  -2    0.57    0.84
 -17  12  -2   -0.53    1.03
 -17  12  -2   -0.74    1.27
 -17  12  -2    0.70    1.00
 -18  12  -2    3.35    1.28
 -18  12  -2    3.16    1.10
 -18  12  -2   -0.42    1.29
 -19  12  -2   -0.57    1.32
 -19  12  -2    0.47    1.24
 -19  12  -2   -0.28    1.05
 -20  12  -2    2.36    1.43
 -21  12  -2    0.49    1.41
 -22  12  -2   -0.87    1.42
  10  11  -2   -0.01    1.65
   9  11  -2    3.09    1.70
   8  11  -2    1.16    1.59
   7  11  -2   -0.96    1.24
   6  11  -2    1.47    1.45
   5  11  -2    1.68    1.33
   4  11  -2   15.94    1.72
   3  11  -2    1.44    1.18
   2  11  -2    4.73    1.23
   1  11  -2    4.83    1.15
  -1  11  -2    0.59    0.53
   1 -11   2    0.18    0.76
  -2  11  -2    3.75    0.59
   2 -11   2    2.96    0.80
  -3  11  -2   28.32    1.51
  -3  11  -2   26.66    1.46
  -3  11  -2   26.93    1.11
  -3  11  -2   24.64    1.39
   3 -11   2   28.95    1.51
  -4  11  -2    0.28    0.54
  -4  11  -2   -0.01    0.60
  -4  11  -2   -0.06    0.29
  -4  11  -2   -0.07    0.98
   4 -11   2    0.49    0.55
   4 -11   2    0.47    0.62
  -5  11  -2    3.41    1.09
   5 -11   2    1.48    0.54
   5 -11   2    2.21    0.63
  -6  11  -2   12.14    1.47
   6 -11   2   12.35    0.87
   6 -11   2   11.90    0.89
  -7  11  -2    1.30    1.01
   7 -11   2    2.45    0.57
   7 -11   2    1.86    0.43
  -8  11  -2    3.65    1.19
   8 -11   2    4.96    0.64
   8 -11   2    4.41    0.39
  -9  11  -2    1.94    1.09
   9 -11   2    3.32    0.61
 -10  11  -2    6.97    1.34
 -10  11  -2    9.04    0.96
  10 -11   2    8.93    0.58
 -11  11  -2    4.41    0.80
 -11  11  -2    5.45    1.29
  11 -11   2    3.60    0.51
 -12  11  -2    0.61    1.19
 -12  11  -2    0.58    0.75
  12 -11   2   -0.35    0.30
  12 -11   2   -0.39    0.45
 -13  11  -2   -0.15    1.19
 -13  11  -2    0.89    0.80
 -13  11  -2   -0.49    0.71
  13 -11   2   -0.07    0.50
  13 -11   2   -0.48    0.40
 -14  11  -2    0.49    1.23
 -14  11  -2    2.12    0.91
 -14  11  -2    1.63    0.95
  14 -11   2    0.26    0.50
 -15  11  -2    2.01    0.89
 -15  11  -2    1.90    1.22
 -15  11  -2    3.06    1.01
  15 -11   2    2.31    0.62
 -16  11  -2    0.64    1.08
 -16  11  -2    1.01    0.92
 -16  11  -2   -0.50    1.17
  16 -11   2    1.00    0.64
 -17  11  -2    3.33    1.37
 -17  11  -2    2.01    1.05
 -17  11  -2    1.24    1.08
 -18  11  -2    1.80    1.24
 -18  11  -2   -0.83    1.21
 -18  11  -2   -0.72    0.96
 -19  11  -2    3.61    1.44
 -19  11  -2    3.11    1.30
 -19  11  -2    3.98    1.26
 -20  11  -2   -1.03    1.07
 -20  11  -2    0.51    1.40
 -21  11  -2    4.08    1.51
 -22  11  -2    4.38    1.64
  12  10  -2    2.97    1.90
  11  10  -2   -0.17    1.67
  10  10  -2    2.82    1.70
   9  10  -2    1.04    1.50
   8  10  -2    1.84    1.36
   7  10  -2   -0.36    1.37
   6  10  -2    0.06    1.25
   5  10  -2    1.97    1.28
   4  10  -2    5.20    1.33
   3  10  -2    1.27    1.10
   2  10  -2    0.74    1.00
   1  10  -2   10.60    1.26
   0  10  -2   30.63    1.78
   0 -10   2   27.18    1.71
  -1  10  -2   11.82    0.88
   1 -10   2   11.55    1.11
  -2  10  -2    2.77    0.64
  -2  10  -2    3.35    0.76
  -2  10  -2    3.72    0.55
  -2  10  -2    3.85    0.73
   2 -10   2    3.42    0.75
  -3  10  -2   20.71    1.22
  -3  10  -2   21.25    1.28
  -3  10  -2   19.22    1.28
  -3  10  -2   20.77    0.90
   3 -10   2   18.21    1.21
   3 -10   2   19.61    1.25
  -4  10  -2   14.89    1.09
  -4  10  -2   12.71    0.57
   4 -10   2   14.13    1.03
   4 -10   2   13.48    0.99
   5 -10   2   11.99    0.88
   5 -10   2   12.29    0.97
  -6  10  -2   14.90    1.52
   6 -10   2   12.62    0.95
   6 -10   2   11.33    0.79
  -7  10  -2   13.52    1.45
   7 -10   2   12.59    0.66
   7 -10   2   12.82    0.92
  -8  10  -2    0.36    0.99
   8 -10   2    0.71    0.51
  -9  10  -2    6.07    1.16
   9 -10   2    5.26    0.41
 -10  10  -2   29.19    1.57
 -10  10  -2   27.95    2.08
  10 -10   2   27.36    1.12
 -11  10  -2   -0.27    1.10
 -11  10  -2    0.70    0.73
  11 -10   2    1.12    0.45
  11 -10   2    0.50    0.33
 -12  10  -2    3.10    0.84
 -12  10  -2    2.92    1.19
  12 -10   2    1.17    0.43
  12 -10   2    2.24    0.56
 -13  10  -2    2.06    1.22
 -13  10  -2    1.47    0.81
 -13  10  -2    0.87    0.87
  13 -10   2    2.08    0.53
 -14  10  -2   -0.74    0.88
 -14  10  -2    0.61    0.83
 -14  10  -2    1.20    1.14
  14 -10   2   -0.24    0.54
 -15  10  -2    2.51    0.95
 -15  10  -2    1.09    1.16
 -15  10  -2   -0.06    0.95
  15 -10   2    2.76    0.69
 -16  10  -2   -0.82    1.11
 -16  10  -2    0.54    0.97
 -16  10  -2   -0.24    1.08
  16 -10   2   -0.79    0.63
 -17  10  -2    3.58    1.23
 -17  10  -2    3.17    1.28
 -17  10  -2    5.89    1.22
  17 -10   2    2.89    0.84
 -18  10  -2    2.58    1.33
 -18  10  -2    6.76    1.56
 -18  10  -2    7.50    1.38
  18 -10   2    5.25    1.03
 -19  10  -2    1.43    1.21
 -19  10  -2    2.63    1.35
 -20  10  -2    0.10    1.20
 -20  10  -2    0.61    1.37
 -21  10  -2    0.33    1.29
 -21  10  -2    0.77    1.47
 -22  10  -2    1.78    1.55
  12   9  -2    0.83    1.69
 -12  -9   2    0.72    1.66
  11   9  -2    1.47    1.65
 -11  -9   2   -1.89    1.43
  10   9  -2    1.61    1.53
 -10  -9   2    4.27    1.63
   9   9  -2    1.46    1.46
  -9  -9   2    4.01    1.57
   8   9  -2    6.47    1.60
  -8  -9   2    5.28    1.57
   7   9  -2    2.35    1.36
  -7  -9   2    1.73    1.32
   6   9  -2    7.88    1.42
  -6  -9   2    6.79    1.43
   5   9  -2    0.09    0.98
   4   9  -2    4.09    1.19
   3   9  -2    0.07    0.96
   2   9  -2    3.31    0.97
   1   9  -2    7.73    1.08
  -1  -9   2    4.32    0.95
   0   9  -2   10.27    0.88
   0   9  -2    9.64    1.09
   0  -9   2    8.97    1.04
  -1   9  -2   26.90    1.48
  -1   9  -2   24.19    1.36
  -1   9  -2   28.36    1.49
  -1   9  -2   26.30    1.23
  -1   9  -2   24.04    1.44
   1  -9   2   24.82    1.40
  -2   9  -2    7.20    0.90
  -2   9  -2    7.50    0.82
  -2   9  -2    7.22    0.79
  -2   9  -2    6.28    0.59
   2  -9   2    6.75    0.78
   2  -9   2    7.46    0.84
  -3   9  -2   -0.02    0.54
  -3   9  -2    0.04    0.32
   3  -9   2   -0.08    0.53
   3  -9   2    0.69    0.61
   4  -9   2    0.26    0.52
   4  -9   2   -0.29    0.43
  -5   9  -2    1.17    0.95
   5  -9   2    2.71    0.45
   5  -9   2    2.27    0.58
  -6   9  -2    2.67    1.04
   6  -9   2    3.64    0.38
   6  -9   2    3.39    0.60
  -7   9  -2   39.07    2.13
   7  -9   2   34.92    1.43
  -8   9  -2    0.87    0.96
   8  -9   2    0.51    0.29
  -9   9  -2    9.29    0.95
  -9   9  -2    9.00    1.30
   9  -9   2   10.07    0.74
 -10   9  -2   12.04    1.09
 -10   9  -2   10.08    1.31
  10  -9   2   12.18    0.62
  10  -9   2   11.40    0.85
 -11   9  -2    3.98    1.06
 -11   9  -2    3.41    0.86
  11  -9   2    4.07    0.48
  11  -9   2    4.12    0.62
 -12   9  -2   13.62    1.29
 -12   9  -2   14.78    1.23
 -12   9  -2   12.87    1.48
  12  -9   2   11.96    0.80
 -13   9  -2    3.62    1.15
 -13   9  -2    1.37    0.88
 -13   9  -2    2.14    0.87
  13  -9   2    2.35    0.59
 -14   9  -2   16.33    1.64
 -14   9  -2   14.22    1.37
 -14   9  -2   13.38    1.43
  14  -9   2   14.97    1.10
 -15   9  -2   30.12    2.07
 -15   9  -2   22.83    1.76
 -15   9  -2   26.97    2.11
  15  -9   2   23.45    1.43
 -16   9  -2    7.12    1.31
 -16   9  -2    5.70    1.20
 -16   9  -2    5.25    1.29
  16  -9   2    6.02    0.93
 -17   9  -2    0.49    1.13
 -17   9  -2    1.83    1.23
 -17   9  -2    1.14    1.08
  17  -9   2    0.56    0.81
 -18   9  -2    1.16    1.22
 -18   9  -2    3.66    1.34
 -18   9  -2    4.01    1.21
  18  -9   2    2.57    0.95
 -19   9  -2   -1.82    1.15
 -19   9  -2    3.10    1.48
  19  -9   2    0.48    0.92
 -20   9  -2   -0.73    1.41
 -20   9  -2   -0.35    1.16
 -21   9  -2    1.31    1.48
 -21   9  -2    0.77    1.34
  13   8  -2    0.51    1.65
 -13  -8   2   -1.83    1.51
  12   8  -2    0.43    1.42
 -12  -8   2   -0.20    1.50
  11   8  -2    2.08    1.58
 -11  -8   2    6.05    1.72
  10   8  -2    4.71    1.49
 -10  -8   2    5.80    1.61
   9   8  -2    0.91    1.22
  -9  -8   2    0.37    1.20
   8   8  -2    5.93    1.52
  -8  -8   2    3.34    1.42
   7   8  -2    1.13    1.10
  -7  -8   2    1.48    1.09
   6   8  -2   -0.86    1.11
  -6  -8   2   -0.06    1.05
   5   8  -2    0.06    0.93
  -5  -8   2    1.60    0.92
   4   8  -2    1.34    0.99
   3   8  -2    5.05    1.08
   2   8  -2    3.19    0.95
  -2  -8   2    1.45    0.75
   1   8  -2   -0.45    0.54
   1   8  -2    0.89    0.78
  -1  -8   2   -0.49    0.68
   0   8  -2   11.94    1.09
   0   8  -2   15.49    1.16
   0   8  -2   12.40    0.96
   0   8  -2   12.05    1.03
   0  -8   2   11.96    1.10
  -1   8  -2   51.66    2.02
  -1   8  -2   54.75    2.09
  -1   8  -2   56.51    2.04
  -1   8  -2   56.15    1.82
  -1   8  -2   55.95    2.07
   1  -8   2   51.01    2.03
   1  -8   2   55.13    2.02
  -2   8  -2    2.43    0.45
  -2   8  -2    1.90    0.58
  -2   8  -2    2.83    0.71
   2  -8   2    1.89    0.64
   2  -8   2    1.23    0.56
  -3   8  -2    0.30    0.52
  -3   8  -2    0.67    0.30
   3  -8   2    1.53    0.57
   3  -8   2    0.76    0.47
   4  -8   2   10.25    0.79
   4  -8   2   11.57    0.84
   5  -8   2   40.71    1.53
   5  -8   2   38.70    1.25
  -6   8  -2    6.21    1.10
   6  -8   2    8.43    0.75
  -7   8  -2   15.98    1.41
   7  -8   2   16.03    0.65
  -8   8  -2   10.10    1.23
   8  -8   2   11.65    0.72
  -9   8  -2   23.96    1.85
  -9   8  -2   22.86    1.44
   9  -8   2   25.87    1.11
   9  -8   2   25.25    0.88
 -10   8  -2    4.67    0.84
 -10   8  -2    1.27    0.94
  10  -8   2    3.29    0.59
  10  -8   2    2.95    0.44
 -11   8  -2   27.37    1.58
 -11   8  -2   28.74    1.89
 -11   8  -2   23.34    1.43
  11  -8   2   23.23    1.29
  11  -8   2   24.35    1.11
 -12   8  -2   -0.22    0.68
 -12   8  -2   -0.07    0.90
 -12   8  -2    1.03    0.83
  12  -8   2   -0.23    0.50
 -13   8  -2   22.18    1.59
 -13   8  -2   25.02    1.90
 -13   8  -2   25.06    1.73
  13  -8   2   23.91    1.30
 -14   8  -2    1.65    0.92
 -14   8  -2   -0.01    0.96
 -14   8  -2    0.60    0.93
  14  -8   2    0.18    0.63
 -15   8  -2   17.72    1.71
 -15   8  -2   21.21    1.75
 -15   8  -2   22.13    1.71
  15  -8   2   20.10    1.41
 -16   8  -2    2.55    1.15
 -16   8  -2    4.55    1.22
 -16   8  -2    3.33    1.31
  16  -8   2    5.11    0.96
 -17   8  -2    5.87    1.47
 -17   8  -2    8.84    1.37
 -17   8  -2    5.97    1.29
  17  -8   2    6.26    1.04
 -18   8  -2   -0.43    1.25
 -18   8  -2    0.28    1.08
  18  -8   2   -0.03    0.87
 -19   8  -2    0.32    1.37
 -19   8  -2    1.45    1.18
  19  -8   2    0.73    0.98
 -20   8  -2    2.79    1.51
 -20   8  -2   -0.98    1.13
  20  -8   2    1.02    1.08
 -21   8  -2   -2.27    1.34
 -21   8  -2   -0.93    1.25
  14   7  -2   -0.14    1.49
 -14  -7   2   -1.21    1.58
  13   7  -2    1.85    1.49
 -13  -7   2    3.33    1.67
  12   7  -2    0.62    1.32
 -12  -7   2    1.52    1.49
  11   7  -2    0.17    1.25
 -11  -7   2   -0.81    1.34
  10   7  -2    3.79    1.50
 -10  -7   2    3.41    1.49
   9   7  -2    6.07    1.39
  -9  -7   2    4.48    1.44
   8   7  -2   20.40    1.88
  -8  -7   2   20.70    1.90
   7   7  -2   10.83    1.57
  -7  -7   2   10.80    1.52
   6   7  -2    2.10    1.02
  -6  -7   2    3.09    1.00
   5   7  -2    0.32    0.88
  -5  -7   2    0.46    0.80
   4   7  -2    4.17    1.01
  -4  -7   2   -0.53    0.82
   3   7  -2   12.47    1.29
  -3  -7   2   13.22    1.31
   2   7  -2   38.35    1.91
  -2  -7   2   36.09    1.83
   1   7  -2   16.00    1.10
   1   7  -2   15.52    1.18
   1   7  -2   15.05    1.20
   1   7  -2   16.75    1.27
  -1  -7   2   14.00    1.13
   0   7  -2    9.31    0.86
   0   7  -2    8.27    0.74
   0   7  -2    6.92    0.86
   0   7  -2    7.24    0.84
   0   7  -2    5.62    0.83
   0  -7   2    8.10    0.87
   0  -7   2    6.34    0.86
  -1   7  -2    5.72    0.73
  -1   7  -2    5.18    0.77
  -1   7  -2    5.67    0.74
  -1   7  -2    5.61    0.57
   1  -7   2    4.60    0.70
   1  -7   2    4.53    0.72
  -2   7  -2   48.57    1.73
  -2   7  -2   48.84    1.50
  -2   7  -2   52.06    1.79
   2  -7   2   46.98    1.70
   2  -7   2   44.84    1.74
  -3   7  -2    2.54    0.29
   3  -7   2    2.66    0.47
   3  -7   2    1.13    0.54
   4  -7   2    0.17    0.34
   4  -7   2    1.01    0.50
   5  -7   2    9.15    0.45
   5  -7   2    9.32    0.73
  -6   7  -2    2.54    0.88
   6  -7   2    2.68    0.31
  -7   7  -2    5.93    1.01
  -8   7  -2   53.89    2.08
  -8   7  -2   56.71    2.34
   8  -7   2   49.60    1.48
  -9   7  -2    7.99    1.11
  -9   7  -2    5.41    0.89
   9  -7   2    5.96    0.51
 -10   7  -2   19.85    1.62
 -10   7  -2   21.75    1.43
  10  -7   2   17.44    0.96
 -11   7  -2    0.96    0.70
 -11   7  -2    0.25    0.82
 -11   7  -2    0.54    0.76
  11  -7   2    0.38    0.48
 -12   7  -2    8.00    1.13
 -12   7  -2    7.46    1.11
 -12   7  -2    5.35    0.96
  12  -7   2    6.55    0.75
 -13   7  -2   16.77    1.52
 -13   7  -2   14.98    1.40
 -13   7  -2   17.79    1.49
  13  -7   2   16.21    1.19
 -14   7  -2    8.56    1.27
 -14   7  -2    8.48    1.24
 -14   7  -2    8.89    1.32
  14  -7   2   10.26    0.99
 -15   7  -2    2.59    1.05
 -15   7  -2    3.32    1.21
 -15   7  -2    2.03    1.05
  15  -7   2    2.70    0.84
 -16   7  -2    2.79    1.27
 -16   7  -2    2.55    1.07
 -16   7  -2    1.93    1.07
  16  -7   2    2.13    0.96
 -17   7  -2    0.79    1.01
 -17   7  -2    0.02    1.13
 -17   7  -2   -0.20    1.28
  17  -7   2    0.51    0.91
 -18   7  -2    0.14    1.30
 -18   7  -2   -0.14    1.13
  18  -7   2   -0.80    0.93
 -19   7  -2    0.67    1.31
 -19   7  -2    0.18    1.37
  19  -7   2    1.83    1.11
 -20   7  -2    2.97    1.41
 -20   7  -2    1.59    1.53
  20  -7   2    3.31    1.27
 -21   7  -2   -1.02    1.52
 -21   7  -2    1.02    1.33
  21  -7   2    1.28    1.27
  15   6  -2   -1.65    1.46
 -15  -6   2   -3.17    1.52
  14   6  -2    0.96    1.63
 -14  -6   2    1.18    1.60
  13   6  -2    1.96    1.44
 -13  -6   2    0.36    1.51
  12   6  -2    3.39    1.55
 -12  -6   2    1.94    1.50
  11   6  -2    3.98    1.48
 -11  -6   2    1.72    1.40
 -11  -6   2    0.33    1.27
  10   6  -2    0.29    1.26
 -10  -6   2   -0.46    1.20
 -10  -6   2    0.35    1.18
   9   6  -2   22.03    1.96
  -9  -6   2   19.41    1.81
  -9  -6   2   22.34    2.03
   8   6  -2    2.06    1.21
  -8  -6   2    0.86    1.07
  -8  -6   2    0.08    0.94
   7   6  -2   15.91    1.57
  -7  -6   2   18.96    1.74
  -7  -6   2   17.04    1.57
   6   6  -2   25.54    1.75
  -6  -6   2   28.69    1.80
   5   6  -2   11.64    1.33
  -5  -6   2   13.20    1.35
   4   6  -2   13.01    1.31
  -4  -6   2   12.73    1.27
   3   6  -2    3.60    0.85
  -3  -6   2    3.29    0.87
   2   6  -2    5.48    0.91
   2   6  -2    5.80    0.76
   2   6  -2    6.91    0.91
   2   6  -2    5.82    0.82
  -2  -6   2    9.31    1.03
   1   6  -2    2.74    0.69
   1   6  -2    3.30    0.69
   1   6  -2    3.04    0.59
   1   6  -2    3.28    0.72
   1   6  -2    3.79    0.79
  -1  -6   2    2.62    0.74
  -1  -6   2    1.95    0.66
   0   6  -2   29.25    1.42
   0   6  -2   32.01    1.47
   0   6  -2   30.25    1.42
   0   6  -2   28.59    1.25
   0   6  -2   29.71    1.37
   0  -6   2   29.55    1.43
   0  -6   2   30.70    1.39
  -1   6  -2    4.06    0.63
  -1   6  -2    4.36    0.49
  -1   6  -2    4.84    0.66
   1  -6   2    4.59    0.69
   1  -6   2    3.51    0.59
  -2   6  -2   -0.11    0.30
  -2   6  -2    0.52    0.45
  -2   6  -2   -0.11    0.45
   2  -6   2    0.66    0.53
   2  -6   2    1.50    0.46
  -3   6  -2   12.95    0.54
  -3   6  -2   11.64    0.73
   3  -6   2   14.23    0.73
   3  -6   2   13.36    0.95
   4  -6   2    5.73    0.35
   4  -6   2    7.10    0.66
  -6   6  -2   28.85    1.70
  -7   6  -2    4.43    0.87
   7  -6   2    4.17    0.34
  -8   6  -2    1.11    0.79
  -8   6  -2    2.70    0.74
   8  -6   2    0.90    0.38
  -9   6  -2   -0.41    0.74
  -9   6  -2   -0.20    0.68
   9  -6   2   -0.44    0.41
 -10   6  -2   14.28    1.18
 -10   6  -2   12.27    1.17
 -10   6  -2   15.39    1.26
  10  -6   2   12.17    0.94
 -11   6  -2    1.19    0.76
 -11   6  -2    1.41    0.82
 -11   6  -2    1.40    0.83
  11  -6   2    1.75    0.58
 -12   6  -2   28.37    1.80
 -12   6  -2   23.34    1.59
 -12   6  -2   27.57    1.71
  12  -6   2   29.77    1.40
 -13   6  -2    2.35    0.94
 -13   6  -2    3.08    1.01
 -13   6  -2    3.10    1.04
  13  -6   2    4.09    0.78
 -14   6  -2    1.17    1.04
 -14   6  -2    0.66    0.88
 -14   6  -2    0.48    0.93
  14  -6   2   -0.75    0.76
 -15   6  -2    9.43    1.23
 -15   6  -2    8.89    1.49
 -15   6  -2    8.58    1.35
  15  -6   2    9.08    1.15
 -16   6  -2    1.54    1.21
 -16   6  -2   -0.02    0.92
 -16   6  -2   -0.84    1.01
  16  -6   2    0.57    0.88
 -17   6  -2    2.33    1.23
 -17   6  -2    2.28    1.21
  17  -6   2    0.94    0.99
 -18   6  -2    2.79    1.48
 -18   6  -2    0.33    1.21
  18  -6   2    2.79    1.07
 -19   6  -2    2.05    1.50
 -19   6  -2    2.65    1.36
  19  -6   2    2.70    1.28
 -20   6  -2   -0.82    1.48
 -20   6  -2    0.99    1.36
  20  -6   2    1.85    1.30
 -21   6  -2    4.17    1.58
 -21   6  -2    4.12    1.73
  21  -6   2    1.30    1.37
  16   5  -2    0.74    1.74
 -16  -5   2   -2.96    1.56
  15   5  -2   -0.32    1.65
 -15  -5   2    1.30    1.63
  14   5  -2    2.80    1.68
 -14  -5   2    0.26    1.25
 -14  -5   2    4.13    1.71
  13   5  -2    1.08    1.36
 -13  -5   2    1.21    1.46
 -13  -5   2    0.81    1.35
  12   5  -2    0.87    1.44
 -12  -5   2    2.26    1.23
 -12  -5   2    0.41    1.39
  11   5  -2   -0.12    1.17
 -11  -5   2    1.23    1.29
 -11  -5   2   -0.61    1.23
  10   5  -2    1.21    1.27
 -10  -5   2    1.76    1.19
 -10  -5   2    1.39    1.26
   9   5  -2   15.51    1.74
  -9  -5   2   11.56    1.56
  -9  -5   2   15.61    1.74
   8   5  -2   21.92    1.79
  -8  -5   2   20.43    1.73
  -8  -5   2   26.45    1.85
   7   5  -2    6.15    1.17
  -7  -5   2    5.41    1.12
  -7  -5   2    6.41    1.21
   6   5  -2    2.87    1.01
  -6  -5   2    2.34    0.97
  -6  -5   2    0.00    0.84
   5   5  -2   13.24    1.29
  -5  -5   2   11.83    1.22
   4   5  -2    2.58    0.90
  -4  -5   2    3.16    0.81
  -4  -5   2    1.05    0.81
   3   5  -2   41.01    1.93
   3   5  -2   41.80    1.87
   3   5  -2   39.72    1.85
  -3  -5   2   38.89    1.87
  -3  -5   2   42.41    1.92
   2   5  -2    7.31    0.90
   2   5  -2    8.86    0.86
   2   5  -2    8.83    0.84
   2   5  -2    9.43    0.82
   2   5  -2    7.73    0.83
  -2  -5   2    8.98    0.94
  -2  -5   2   10.01    0.94
   1   5  -2   66.36    2.24
   1   5  -2   63.72    2.23
   1   5  -2   65.16    2.20
   1   5  -2   65.36    2.07
   1   5  -2   61.94    2.23
  -1  -5   2   61.36    2.21
  -1  -5   2   65.52    2.25
   0   5  -2   82.91    2.43
   0   5  -2   85.06    2.61
   0   5  -2   76.96    2.53
   0   5  -2   85.37    2.63
   0  -5   2   77.63    2.56
   0  -5   2   85.01    2.55
  -1   5  -2    4.08    0.59
  -1   5  -2    2.35    0.40
  -1   5  -2    3.40    0.55
   1  -5   2    4.63    0.54
   1  -5   2    5.10    0.62
  -2   5  -2    8.32    0.60
  -2   5  -2    8.85    0.56
  -2   5  -2    8.39    0.73
   2  -5   2    8.71    0.72
   2  -5   2   10.11    0.54
   2  -5   2    9.06    0.73
  -3   5  -2    6.08    0.49
   3  -5   2    7.49    0.68
   3  -5   2    7.62    0.43
  -6   5  -2    5.50    0.81
  -7   5  -2   44.10    1.93
  -7   5  -2   45.25    1.87
   7  -5   2   45.29    1.41
  -8   5  -2    0.59    0.69
  -8   5  -2    1.17    0.73
  -8   5  -2    0.22    0.43
   8  -5   2    0.04    0.39
  -9   5  -2   -0.53    0.69
  -9   5  -2   -0.39    0.69
  -9   5  -2   -0.43    0.48
  -9   5  -2   -0.11    0.65
   9  -5   2   -1.15    0.41
 -10   5  -2   11.68    1.20
 -10   5  -2   12.90    1.10
 -10   5  -2   10.39    1.08
 -10   5  -2   12.44    0.95
  10  -5   2   12.24    0.89
 -11   5  -2   12.30    1.21
 -11   5  -2   11.37    1.08
 -11   5  -2   10.32    0.98
 -11   5  -2   11.05    1.26
  11  -5   2   10.85    0.91
 -12   5  -2    0.03    0.79
 -12   5  -2    0.98    0.93
 -12   5  -2    0.41    0.77
  12  -5   2    0.38    0.63
 -13   5  -2    0.91    0.80
 -13   5  -2    1.30    0.91
 -13   5  -2    0.54    0.99
  13  -5   2    0.68    0.74
 -14   5  -2    0.61    0.98
 -14   5  -2   -0.47    1.05
 -14   5  -2    1.14    0.83
  14  -5   2    0.67    0.81
 -15   5  -2    2.38    1.23
 -15   5  -2    3.35    1.17
  15  -5   2    3.55    0.99
 -16   5  -2    1.44    1.31
 -16   5  -2    2.43    1.20
  16  -5   2    1.66    1.03
 -17   5  -2    1.11    1.37
 -17   5  -2    0.84    1.19
  17  -5   2    0.40    1.06
 -18   5  -2   -0.95    1.21
 -18   5  -2    0.52    1.23
  18  -5   2    0.91    1.13
 -19   5  -2    0.49    1.48
 -19   5  -2    0.79    1.36
  19  -5   2    1.68    1.31
 -20   5  -2   -0.13    1.36
 -20   5  -2    0.05    1.33
  20  -5   2   -0.18    1.32
 -21   5  -2   -0.24    1.58
 -21   5  -2    0.78    1.46
  16   4  -2    2.27    1.77
 -16  -4   2    0.92    1.51
  15   4  -2    3.94    1.55
 -15  -4   2   -1.45    1.39
 -15  -4   2    2.27    1.40
  14   4  -2    2.43    1.43
 -14  -4   2    2.04    1.48
 -14  -4   2   -0.67    1.43
  13   4  -2    1.26    1.31
 -13  -4   2    3.38    1.34
 -13  -4   2    1.52    1.43
  12   4  -2    2.83    1.28
 -12  -4   2    1.27    1.30
 -12  -4   2    1.03    1.23
  11   4  -2    2.63    1.25
 -11  -4   2    3.65    1.38
 -11  -4   2    3.18    1.17
  10   4  -2   -0.63    1.01
 -10  -4   2   -1.42    1.06
 -10  -4   2   -0.70    0.93
   9   4  -2    1.47    1.04
  -9  -4   2    2.26    1.01
  -9  -4   2    1.04    1.11
   8   4  -2   -0.75    0.81
  -8  -4   2    0.27    0.89
  -8  -4   2    0.70    0.95
   7   4  -2    1.44    0.94
  -7  -4   2   -0.79    0.74
  -7  -4   2    0.36    0.85
   6   4  -2   10.94    1.24
  -6  -4   2   12.34    1.28
  -6  -4   2   14.08    1.31
   5   4  -2   -0.04    0.77
  -5  -4   2    0.62    0.73
  -5  -4   2   -0.29    0.65
  -5  -4   2    1.22    0.80
   4   4  -2   10.99    1.07
   4   4  -2   10.71    1.03
   4   4  -2   10.87    0.98
  -4  -4   2   11.00    1.06
  -4  -4   2   10.91    1.05
   3   4  -2    0.38    0.55
   3   4  -2    0.16    0.54
   3   4  -2   -0.07    0.67
   3   4  -2    0.54    0.58
  -3  -4   2    1.40    0.70
  -3  -4   2   -0.28    0.57
   2   4  -2    5.72    0.79
   2   4  -2    5.69    0.70
   2   4  -2    6.93    0.78
   2   4  -2    7.22    0.70
   2   4  -2    6.13    0.75
  -2  -4   2    6.20    0.80
  -2  -4   2    5.81    0.72
   1   4  -2   56.82    2.00
   1   4  -2   54.55    1.83
   1   4  -2   57.40    1.98
   1   4  -2   55.69    1.96
  -1  -4   2   59.27    2.01
  -1  -4   2   56.13    1.96
   0   4  -2  190.27    5.17
   0   4  -2  186.47    5.10
   0   4  -2  190.94    5.02
   0  -4   2  188.64    5.16
   0  -4   2  189.56    5.09
  -1   4  -2   20.78    0.93
  -1   4  -2   18.91    1.04
  -1   4  -2   19.22    0.80
   1  -4   2   17.62    1.01
   1  -4   2   15.97    0.77
   1  -4   2   17.88    0.95
  -2   4  -2    7.75    0.60
  -2   4  -2    6.64    0.44
   2  -4   2    6.36    0.50
   2  -4   2    6.86    0.62
  -3   4  -2   10.75    0.46
   3  -4   2   11.64    0.66
  -5   4  -2    3.66    0.68
  -5   4  -2    4.05    0.33
  -6   4  -2    0.82    0.36
  -6   4  -2    0.59    0.62
   6  -4   2    0.59    0.33
  -7   4  -2    4.25    0.75
  -7   4  -2    2.91    0.74
  -7   4  -2    2.44    0.49
   7  -4   2    1.34    0.41
  -8   4  -2    9.41    0.79
  -8   4  -2   11.57    0.97
  -8   4  -2   11.29    1.04
  -8   4  -2    9.65    1.04
   8  -4   2   11.85    0.82
  -9   4  -2    2.10    0.75
  -9   4  -2    2.26    0.69
  -9   4  -2    1.69    0.80
  -9   4  -2    3.09    0.64
   9  -4   2    2.05    0.56
 -10   4  -2   11.61    1.23
 -10   4  -2   12.11    1.00
 -10   4  -2   12.51    1.03
 -10   4  -2   12.36    1.13
  10  -4   2   11.33    0.94
 -11   4  -2    1.27    0.92
 -11   4  -2    2.46    0.73
 -11   4  -2    2.09    0.87
  11  -4   2    3.01    0.72
 -12   4  -2    2.07    0.90
 -12   4  -2    1.85    0.98
 -12   4  -2    1.51    0.74
  12  -4   2    1.37    0.72
 -13   4  -2    4.38    0.86
 -13   4  -2    3.36    1.06
 -13   4  -2    3.58    1.06
  13  -4   2    3.63    0.91
 -14   4  -2    5.89    1.32
 -14   4  -2    2.75    1.09
  14  -4   2    4.97    1.07
 -15   4  -2   14.77    1.67
 -15   4  -2   12.76    1.64
  15  -4   2   14.44    1.44
 -16   4  -2    0.74    1.08
 -16   4  -2    2.14    1.32
  16  -4   2    1.26    1.01
 -17   4  -2    2.06    1.34
 -17   4  -2    1.37    1.31
  17  -4   2    1.48    1.10
 -18   4  -2   -2.50    1.12
 -18   4  -2    0.18    1.20
  18  -4   2    0.92    1.27
 -19   4  -2   -1.06    1.30
 -19   4  -2    0.46    1.50
  19  -4   2    1.58    1.32
 -20   4  -2    2.65    1.72
 -20   4  -2    1.60    1.46
  20  -4   2    4.15    1.58
  17   3  -2    1.88    1.81
 -17  -3   2    1.77    1.60
 -17  -3   2   -3.27    1.48
  16   3  -2    1.09    1.63
 -16  -3   2    6.26    1.75
 -16  -3   2    4.22    1.74
  15   3  -2    4.67    1.74
 -15  -3   2    4.35    1.53
 -15  -3   2    2.67    1.58
  14   3  -2    0.94    1.29
 -14  -3   2    0.46    1.19
 -14  -3   2    1.84    1.46
  13   3  -2   -0.21    1.34
 -13  -3   2    1.34    1.23
 -13  -3   2   -1.15    1.16
  12   3  -2    3.29    1.27
 -12  -3   2    4.29    1.41
 -12  -3   2    3.64    1.21
  11   3  -2    1.16    1.23
 -11  -3   2    0.30    1.08
 -11  -3   2    2.84    1.14
  10   3  -2    2.50    1.07
 -10  -3   2    2.52    1.02
 -10  -3   2    2.81    1.18
   9   3  -2   10.86    1.31
  -9  -3   2   13.19    1.38
  -9  -3   2    9.67    1.40
   8   3  -2   28.41    1.93
  -8  -3   2   22.83    1.71
  -8  -3   2   25.71    1.76
   7   3  -2   21.27    1.64
  -7  -3   2   20.50    1.55
  -7  -3   2   16.76    1.44
   6   3  -2    0.13    0.78
  -6  -3   2    0.47    0.71
  -6  -3   2    0.54    0.80
   5   3  -2    0.99    0.74
   5   3  -2    1.48    0.66
  -5  -3   2    1.68    0.76
  -5  -3   2    1.51    0.77
  -5  -3   2   -0.97    0.62
   4   3  -2    3.14    0.66
   4   3  -2    3.00    0.73
   4   3  -2    2.82    0.63
   4   3  -2    2.86    0.65
  -4  -3   2    1.62    0.67
  -4  -3   2    1.89    0.75
   3   3  -2   11.82    0.91
   3   3  -2   13.34    1.00
   3   3  -2   14.13    1.00
   3   3  -2   12.53    0.98
   3   3  -2   10.96    0.97
  -3  -3   2   13.52    1.02
  -3  -3   2   13.65    1.01
  -3  -3   2   12.73    1.00
   2   3  -2    7.26    0.75
   2   3  -2    7.62    0.69
   2   3  -2    7.56    0.75
   2   3  -2    9.60    0.81
   2   3  -2    7.19    0.75
  -2  -3   2    7.72    0.76
  -2  -3   2    8.47    0.79
   1   3  -2   10.61    0.78
   1   3  -2    8.71    0.73
   1   3  -2   10.52    0.72
  -1  -3   2   11.98    0.77
  -1  -3   2   12.78    0.84
  -1  -3   2   13.35    0.87
   0   3  -2  129.70    3.37
   0   3  -2  124.89    3.43
   0   3  -2  120.27    3.48
   0  -3   2  121.88    3.50
   0  -3   2  118.99    3.36
  -1   3  -2  154.57    4.09
  -1   3  -2  158.89    4.07
   1  -3   2  154.30    4.06
   1  -3   2  150.86    4.23
   2  -3   2   10.10    0.65
  -4   3  -2   18.52    0.75
  -5   3  -2    8.64    0.75
  -5   3  -2    8.55    0.69
  -6   3  -2   13.09    1.00
  -6   3  -2   12.88    1.05
  -6   3  -2   14.03    0.84
   6  -3   2   13.01    0.74
  -7   3  -2   -0.03    0.48
  -7   3  -2    0.38    0.69
  -7   3  -2   -0.15    0.56
   7  -3   2    0.22    0.44
  -8   3  -2   40.72    1.64
  -8   3  -2   41.26    1.70
  -8   3  -2   37.86    1.81
  -8   3  -2   42.04    1.90
   8  -3   2   38.95    1.58
  -9   3  -2    4.66    0.69
  -9   3  -2    4.37    0.92
  -9   3  -2    3.98    0.74
  -9   3  -2    3.53    0.87
   9  -3   2    2.95    0.67
 -10   3  -2   12.07    1.27
 -10   3  -2   12.07    0.93
 -10   3  -2   13.06    1.25
  10  -3   2   11.21    1.00
 -11   3  -2    4.45    0.75
 -11   3  -2    2.85    0.93
 -11   3  -2    4.55    1.09
  11  -3   2    5.67    0.87
  11  -3   2    4.22    0.57
 -12   3  -2    0.49    0.95
 -12   3  -2    2.03    0.88
  12  -3   2    1.08    0.49
  12  -3   2    2.23    0.84
 -13   3  -2    1.40    1.01
 -13   3  -2    0.59    0.97
  13  -3   2    1.18    0.89
 -14   3  -2    2.16    1.21
 -14   3  -2    1.64    1.09
  14  -3   2    2.31    1.00
 -15   3  -2   20.29    1.94
 -15   3  -2   19.09    1.95
  15  -3   2   22.32    1.79
 -16   3  -2    1.37    1.24
 -16   3  -2    0.60    1.31
  16  -3   2    1.67    1.14
 -17   3  -2    3.91    1.54
 -17   3  -2    0.62    1.28
  17  -3   2    3.43    1.32
 -18   3  -2    0.37    1.33
 -18   3  -2    0.01    1.41
  18  -3   2    0.73    1.30
 -19   3  -2    3.72    1.56
 -19   3  -2    0.89    1.46
  19  -3   2    3.48    1.44
 -20   3  -2    0.48    1.46
 -20   3  -2    1.06    1.68
  18   2  -2    0.49    1.70
 -18  -2   2    4.28    1.74
 -18  -2   2    0.31    1.53
  17   2  -2    1.76    1.68
 -17  -2   2    1.69    1.56
 -17  -2   2    3.69    1.73
  16   2  -2   -1.13    1.49
 -16  -2   2   -1.22    1.44
 -16  -2   2   -1.34    1.32
  15   2  -2   -0.69    1.41
 -15  -2   2    3.57    1.57
 -15  -2   2    2.87    1.48
  14   2  -2    7.10    1.64
 -14  -2   2    5.43    1.60
 -14  -2   2    7.00    1.43
  13   2  -2    0.05    1.28
 -13  -2   2    0.72    1.13
 -13  -2   2   -0.29    1.13
  12   2  -2    1.97    1.23
 -12  -2   2    0.87    1.16
 -12  -2   2    0.53    1.04
  11   2  -2   -0.53    1.06
 -11  -2   2    0.09    0.97
 -11  -2   2   -0.13    1.05
  10   2  -2    1.28    0.94
 -10  -2   2    1.92    1.03
 -10  -2   2    2.89    1.11
   9   2  -2    4.03    1.08
  -9  -2   2    3.97    0.97
  -9  -2   2    4.32    1.10
   8   2  -2    1.69    0.87
  -8  -2   2    1.37    0.92
  -8  -2   2    3.27    0.87
   7   2  -2    7.22    1.09
  -7  -2   2    5.97    0.93
  -7  -2   2    6.46    1.06
   6   2  -2    2.19    0.75
  -6  -2   2    1.57    0.70
  -6  -2   2    2.55    0.82
   5   2  -2   47.67    2.02
   5   2  -2   45.84    1.90
   5   2  -2   47.82    1.87
  -5  -2   2   45.82    1.94
  -5  -2   2   44.03    1.93
  -5  -2   2   43.95    1.91
   4   2  -2   -0.13    0.65
   4   2  -2    0.88    0.55
   4   2  -2    0.50    0.52
   4   2  -2    0.10    0.49
   4   2  -2    1.15    0.62
  -4  -2   2    0.86    0.65
  -4  -2   2    0.73    0.63
  -4  -2   2    0.31    0.54
   3   2  -2    8.63    0.80
   3   2  -2    7.31    0.77
   3   2  -2    8.89    0.80
   3   2  -2    7.84    0.77
   3   2  -2    9.22    0.79
  -3  -2   2    9.41    0.89
  -3  -2   2    9.99    0.87
  -3  -2   2   10.00    0.86
   2   2  -2    5.67    0.71
   2   2  -2    6.38    0.67
   2   2  -2    6.72    0.65
   2   2  -2    6.94    0.69
  -2  -2   2    7.24    0.74
  -2  -2   2    9.33    0.73
   1   2  -2   14.79    0.96
   1   2  -2   14.12    0.95
   1   2  -2   16.13    0.84
  -1  -2   2   10.90    0.80
  -1  -2   2   11.61    0.79
   0   2  -2   91.67    2.50
   0   2  -2   88.15    2.61
   0  -2   2   87.76    2.60
   0  -2   2   90.20    2.50
  -1   2  -2   15.33    0.78
   1  -2   2   14.39    0.72
  -4   2  -2    7.07    0.57
  -5   2  -2    5.67    0.80
  -5   2  -2    6.95    0.63
  -5   2  -2    7.49    0.61
  -6   2  -2    7.48    0.63
  -6   2  -2    7.91    0.86
  -6   2  -2    6.57    0.68
   6  -2   2    6.91    0.66
  -7   2  -2    7.71    0.97
  -7   2  -2    8.03    0.91
  -7   2  -2   10.09    0.70
  -7   2  -2    9.33    0.85
   7  -2   2    8.10    0.79
  -8   2  -2    6.73    0.99
  -8   2  -2    6.24    0.81
  -8   2  -2    6.00    0.64
  -8   2  -2    6.25    0.95
   8  -2   2    6.81    0.77
  -9   2  -2   36.52    1.85
  -9   2  -2   34.20    1.46
  -9   2  -2   37.39    1.75
   9  -2   2   37.16    1.71
 -10   2  -2    2.06    0.81
 -10   2  -2    1.50    0.84
  10  -2   2    1.20    0.40
  10  -2   2    1.84    0.72
 -11   2  -2    3.57    0.99
 -11   2  -2    3.18    0.96
  11  -2   2    4.06    0.88
  11  -2   2    2.82    0.45
 -12   2  -2    0.11    0.82
 -12   2  -2    1.77    0.97
  12  -2   2   -0.14    0.39
  12  -2   2    0.86    0.87
 -13   2  -2    3.19    1.06
 -13   2  -2    3.46    1.12
  13  -2   2    3.77    1.07
 -14   2  -2    4.66    1.25
 -14   2  -2    2.12    1.19
  14  -2   2    3.03    1.09
 -15   2  -2   12.57    1.77
 -15   2  -2   11.61    1.66
  15  -2   2   12.27    1.63
 -16   2  -2    3.29    1.37
 -16   2  -2    4.95    1.59
  16  -2   2    4.69    1.40
 -17   2  -2    0.79    1.19
 -17   2  -2    2.38    1.49
  17  -2   2    2.64    1.35
 -18   2  -2    0.63    1.47
 -18   2  -2    0.97    1.40
  18  -2   2    1.62    1.44
 -19   2  -2   -1.17    1.54
 -19   2  -2   -0.26    1.30
 -20   2  -2   -0.34    1.65
 -20   2  -2    1.26    1.56
  18   1  -2   -0.11    1.58
 -18  -1   2    0.63    1.65
 -18  -1   2    3.09    1.61
  17   1  -2    4.90    1.75
 -17  -1   2    1.87    1.41
 -17  -1   2    2.17    1.49
  16   1  -2    2.23    1.42
 -16  -1   2    0.75    1.34
 -16  -1   2   -1.01    1.29
  15   1  -2    1.53    1.43
 -15  -1   2    0.84    1.34
 -15  -1   2    0.03    1.23
  14   1  -2    3.65    1.48
 -14  -1   2    2.15    1.43
 -14  -1   2    4.28    1.25
  13   1  -2    3.13    1.33
 -13  -1   2    1.87    1.19
 -13  -1   2    0.94    1.26
  12   1  -2    2.08    1.10
 -12  -1   2   -0.47    1.08
 -12  -1   2    0.48    0.98
  11   1  -2    0.24    0.89
 -11  -1   2   -1.64    0.85
 -11  -1   2   -0.24    1.00
  10   1  -2    0.77    0.87
 -10  -1   2    0.99    0.84
 -10  -1   2    1.23    1.00
   9   1  -2   11.01    1.29
  -9  -1   2   11.00    1.19
  -9  -1   2   10.25    1.21
   8   1  -2   24.05    1.58
  -8  -1   2   27.07    1.66
  -8  -1   2   22.98    1.56
   7   1  -2   55.63    2.30
  -7  -1   2   50.46    2.09
  -7  -1   2   53.76    2.29
   6   1  -2    4.47    0.79
   6   1  -2    4.65    0.79
   6   1  -2    4.36    0.90
  -6  -1   2    5.03    0.84
  -6  -1   2    4.94    0.79
  -6  -1   2    4.21    0.85
   5   1  -2    4.51    0.75
   5   1  -2    5.05    0.71
   5   1  -2    4.33    0.67
   5   1  -2    5.17    0.69
  -5  -1   2    4.16    0.76
  -5  -1   2    3.98    0.73
  -5  -1   2    4.51    0.81
   4   1  -2    2.84    0.61
   4   1  -2    3.27    0.65
   4   1  -2    2.44    0.70
   4   1  -2    2.45    0.56
   4   1  -2    2.39    0.57
  -4  -1   2    3.71    0.67
  -4  -1   2    3.86    0.69
   3   1  -2   20.47    1.12
   3   1  -2   20.17    1.11
   3   1  -2   20.36    1.24
   3   1  -2   19.41    1.06
   3   1  -2   20.56    1.11
  -3  -1   2   15.16    0.98
  -3  -1   2   16.81    0.99
   2   1  -2  160.07    4.36
   2   1  -2  154.00    4.25
   2   1  -2  153.83    4.29
  -2  -1   2  155.77    4.28
  -2  -1   2  159.50    4.30
   1   1  -2   14.03    0.80
   1   1  -2   13.84    0.80
  -1  -1   2   14.51    0.83
  -1  -1   2   15.25    0.84
   0   1  -2   40.52    1.32
   0  -1   2   41.55    1.34
   1  -1   2   41.38    1.38
  -4   1  -2    9.98    0.70
  -5   1  -2   57.67    1.73
  -5   1  -2   58.48    1.93
  -5   1  -2   52.58    2.09
  -6   1  -2   69.27    2.26
  -6   1  -2   64.27    2.36
  -6   1  -2   69.04    2.31
  -6   1  -2   65.07    1.98
   6  -1   2   65.46    2.23
  -7   1  -2    3.74    0.72
  -7   1  -2    2.42    0.42
  -7   1  -2    2.75    0.79
  -7   1  -2    2.12    0.73
   7  -1   2    2.66    0.67
  -8   1  -2   15.35    1.28
  -8   1  -2   15.55    1.22
   8  -1   2   14.71    1.12
  -9   1  -2    0.29    0.80
  -9   1  -2    1.59    0.87
   9  -1   2    1.15    0.70
 -10   1  -2    5.98    1.02
 -10   1  -2    5.74    1.12
  10  -1   2    5.08    0.43
  10  -1   2    5.21    0.96
 -11   1  -2    8.39    1.28
 -11   1  -2    7.62    1.22
  11  -1   2   10.74    1.23
  11  -1   2    8.90    0.73
 -12   1  -2    6.91    1.21
 -12   1  -2    6.53    1.31
  12  -1   2    8.50    1.21
 -13   1  -2    0.70    1.00
 -13   1  -2   -0.55    1.10
  13  -1   2   -0.24    0.98
 -14   1  -2    5.81    1.47
 -14   1  -2    4.60    1.35
  14  -1   2    6.63    1.32
 -15   1  -2    0.65    1.31
 -15   1  -2    0.55    1.09
  15  -1   2    1.30    1.23
 -16   1  -2    3.40    1.42
 -16   1  -2    2.88    1.53
  16  -1   2    4.13    1.39
 -17   1  -2   -0.28    1.21
 -17   1  -2    1.06    1.47
  17  -1   2    1.51    1.38
 -18   1  -2    2.29    1.62
 -18   1  -2    1.85    1.49
 -19   1  -2    1.80    1.56
 -19   1  -2    0.43    1.43
  19   0  -2    1.37    1.70
 -19   0   2    0.50    1.52
 -19   0   2    0.46    1.67
  18   0  -2    1.99    1.68
 -18   0   2    3.66    1.51
 -18   0   2    4.26    1.77
  17   0  -2    0.52    1.48
 -17   0   2    0.51    1.41
 -17   0   2   -1.02    1.44
  16   0  -2    0.73    1.42
 -16   0   2    0.18    1.43
 -16   0   2    0.81    1.34
  15   0  -2    5.64    1.58
 -15   0   2    3.81    1.40
 -15   0   2    3.65    1.50
  14   0  -2    2.90    1.36
 -14   0   2    2.84    1.28
 -14   0   2    2.16    1.20
  13   0  -2    0.31    1.19
 -13   0   2   -0.27    1.04
 -13   0   2    1.16    0.99
  12   0  -2    1.35    1.03
 -12   0   2    2.54    1.07
 -12   0   2    0.25    0.98
  11   0  -2    3.80    1.13
 -11   0   2    2.58    0.95
 -11   0   2    3.46    1.03
  10   0  -2   27.65    1.74
 -10   0   2   25.92    1.73
 -10   0   2   31.79    1.97
   9   0  -2    8.07    1.07
  -9   0   2    9.34    1.13
  -9   0   2    9.65    1.12
   8   0  -2   11.98    1.23
   8   0  -2    9.90    1.07
  -8   0   2   11.63    1.13
  -8   0   2   11.65    1.19
   7   0  -2    8.04    0.88
   7   0  -2    7.79    1.02
   7   0  -2    7.35    0.96
   7   0  -2    7.12    0.87
  -7   0   2    5.73    0.88
  -7   0   2    8.96    1.04
   6   0  -2   30.03    1.39
   6   0  -2   28.16    1.45
   6   0  -2   28.63    1.51
  -6   0   2   27.49    1.44
  -6   0   2   28.91    1.48
  -6   0   2   29.81    1.48
   5   0  -2   80.28    2.67
   5   0  -2   86.22    2.69
   5   0  -2   78.55    2.63
   5   0  -2   86.12    2.71
   5   0  -2   81.21    2.59
  -5   0   2   80.56    2.66
  -5   0   2   86.30    2.76
  -5   0   2   80.25    2.57
   4   0  -2  185.06    5.22
   4   0  -2  189.62    5.19
   4   0  -2  187.86    5.25
   4   0  -2  186.80    5.17
   4   0  -2  188.39    5.10
  -4   0   2  188.53    5.26
  -4   0   2  189.87    5.20
  -4   0   2  195.12    5.20
   3   0  -2  126.52    3.57
   3   0  -2  128.41    3.51
   3   0  -2  129.17    3.61
   3   0  -2  125.58    3.61
  -3   0   2  126.60    3.59
  -3   0   2  125.87    3.62
   2   0  -2   90.86    2.54
   2   0  -2   86.22    2.51
  -2   0   2   85.05    2.51
  -2   0   2   85.72    2.54
   1   0  -2   38.05    1.29
  -1   0   2   41.19    1.37
  -1   0   2   39.25    1.33
   0   0  -2  109.56    3.19
   0   0   2  123.63    3.21
  -4   0  -2  184.70    5.08
  -4   0  -2  190.59    5.14
  -4   0  -2  183.42    5.21
  -5   0  -2   80.35    2.58
  -5   0  -2   79.55    2.64
  -5   0  -2   78.44    2.58
  -6   0  -2   29.64    1.47
  -6   0  -2   31.32    1.61
  -6   0  -2   30.02    1.53
   6   0   2   28.46    1.40
  -7   0  -2    6.99    0.93
  -7   0  -2    6.27    0.93
   7   0   2    7.37    0.87
  -8   0  -2   10.71    1.18
  -8   0  -2   12.39    1.27
   8   0   2   13.70    1.20
  -9   0  -2    9.66    1.18
  -9   0  -2    9.13    1.19
   9   0   2    9.89    1.11
 -10   0  -2   27.69    1.92
 -10   0  -2   27.28    1.79
  10   0   2   27.13    1.76
 -11   0  -2    3.46    1.08
 -11   0  -2    3.16    1.04
  11   0   2    3.71    1.06
 -12   0  -2    1.58    1.09
 -12   0  -2    3.07    1.21
  12   0   2    2.18    1.09
 -13   0  -2    0.24    1.00
 -13   0  -2    2.09    1.15
  13   0   2    3.46    1.18
 -14   0  -2    2.44    1.18
 -14   0  -2   -0.01    1.14
  14   0   2    2.95    1.28
 -15   0  -2    2.86    1.29
 -15   0  -2    6.60    1.60
  15   0   2    1.13    1.30
 -16   0  -2    1.22    1.34
 -16   0  -2    0.43    1.32
  16   0   2    2.56    1.43
 -17   0  -2    0.54    1.49
 -17   0  -2    0.13    1.23
 -18   0  -2   -0.02    1.49
 -18   0  -2    2.66    1.60
 -19   0  -2   -0.98    1.54
 -19   0  -2    0.51    1.57
  19  -1  -2    1.82    1.66
 -19   1   2    0.02    1.56
 -19   1   2    2.93    1.64
  18  -1  -2    1.03    1.53
 -18   1   2   -1.31    1.31
 -18   1   2    0.55    1.53
  17  -1  -2    0.56    1.46
 -17   1   2    4.41    1.50
 -17   1   2    1.24    1.49
  16  -1  -2    1.18    1.41
 -16   1   2    5.40    1.58
 -16   1   2    2.23    1.38
  15  -1  -2    0.06    1.27
 -15   1   2    0.03    1.16
 -15   1   2    1.05    1.33
  14  -1  -2    4.68    1.37
 -14   1   2    5.54    1.35
 -14   1   2    5.92    1.37
  13  -1  -2   -0.01    1.08
 -13   1   2    1.36    1.04
 -13   1   2   -0.10    0.99
  12  -1  -2    7.90    1.33
 -12   1   2    8.30    1.20
 -12   1   2    8.49    1.35
  11  -1  -2    9.17    1.27
 -11   1   2    7.95    1.21
 -11   1   2    7.94    1.17
  10  -1  -2    6.70    1.02
 -10   1   2    3.79    0.95
 -10   1   2    4.69    1.08
   9  -1  -2    2.49    0.89
  -9   1   2    0.02    0.80
  -9   1   2    0.72    0.67
   8  -1  -2   17.03    1.22
   8  -1  -2   17.17    1.26
   8  -1  -2   14.24    1.13
   8  -1  -2   14.45    1.20
  -8   1   2   17.78    1.27
  -8   1   2   15.28    1.29
   7  -1  -2    2.08    0.61
   7  -1  -2    3.51    0.78
   7  -1  -2    4.07    0.73
   7  -1  -2    2.75    0.80
  -7   1   2    2.50    0.72
  -7   1   2    2.87    0.72
   6  -1  -2   65.98    2.19
   6  -1  -2   66.53    2.37
   6  -1  -2   68.09    2.32
   6  -1  -2   66.02    2.51
   6  -1  -2   64.61    2.24
   6  -1  -2   64.50    2.18
  -6   1   2   66.12    2.22
  -6   1   2   61.49    2.24
  -6   1   2   60.62    2.31
   5  -1  -2   56.08    1.95
   5  -1  -2   52.70    2.23
   5  -1  -2   60.51    1.96
   5  -1  -2   59.24    2.04
   5  -1  -2   57.19    1.91
   5  -1  -2   54.47    1.99
  -5   1   2   55.85    2.04
  -5   1   2   57.86    1.97
  -5   1   2   58.14    1.91
  -5   1   2   53.15    2.01
   4  -1  -2   11.47    0.86
   4  -1  -2   10.02    0.75
   4  -1  -2   10.22    0.80
   4  -1  -2   11.71    0.82
   4  -1  -2   11.48    0.92
  -4   1   2   14.29    0.99
  -4   1   2   12.96    0.80
  -4   1   2   12.44    0.87
   3  -1  -2   16.45    0.90
   3  -1  -2   14.69    1.19
   3  -1  -2   17.28    0.86
   3  -1  -2   16.86    0.96
  -3   1   2   12.54    0.84
  -3   1   2   12.07    0.84
   2  -1  -2   14.38    0.78
   2  -1  -2   13.19    0.89
   2  -1  -2   13.74    0.91
  -2   1   2   17.23    0.83
  -2   1   2   15.56    0.82
   1  -1  -2   37.69    1.52
   1  -1  -2   39.33    1.32
   0  -1  -2   40.50    1.50
  -1  -1  -2   13.78    0.86
  -2  -1  -2  148.73    4.11
  -3  -1  -2   18.69    1.20
  -3  -1  -2   19.34    1.07
  -3  -1  -2   22.33    1.18
  -4  -1  -2    2.12    0.62
  -4  -1  -2    3.46    0.65
  -4  -1  -2    3.48    0.68
  -5  -1  -2    3.77    0.70
  -5  -1  -2    3.96    0.73
  -5  -1  -2    4.11    0.79
   5   1   2    3.91    0.70
  -6  -1  -2    4.89    0.84
  -6  -1  -2    4.29    0.85
  -7  -1  -2   53.62    2.33
  -7  -1  -2   53.79    2.27
   7   1   2   57.09    2.29
  -8  -1  -2   23.61    1.70
  -8  -1  -2   25.57    1.55
   8   1   2   25.32    1.66
  -9  -1  -2   11.08    1.31
  -9  -1  -2   11.20    1.33
   9   1   2   10.32    1.17
 -10  -1  -2    0.64    0.90
 -10  -1  -2    1.82    0.93
  10   1   2    0.81    0.93
 -11  -1  -2   -0.73    0.85
 -11  -1  -2   -0.18    1.04
  11   1   2    0.53    1.01
 -12  -1  -2    1.99    1.22
 -12  -1  -2    0.90    1.02
  12   1   2    1.72    1.15
 -13  -1  -2    3.18    1.39
 -13  -1  -2    3.35    1.28
  13   1   2    4.65    1.36
 -14  -1  -2    3.96    1.42
 -14  -1  -2    3.89    1.35
  14   1   2    2.03    1.15
 -15  -1  -2   -0.44    1.30
 -15  -1  -2    1.63    1.36
  15   1   2    2.53    1.37
 -16  -1  -2   -0.69    1.41
 -16  -1  -2    0.24    1.30
 -17  -1  -2    1.90    1.64
 -17  -1  -2    3.83    1.58
 -18  -1  -2    1.56    1.65
 -18  -1  -2    0.38    1.55
  20  -2  -2    0.99    1.68
 -20   2   2    0.01    1.65
 -20   2   2    0.39    1.49
  19  -2  -2    0.89    1.55
 -19   2   2    3.34    1.71
 -19   2   2    0.20    1.42
  18  -2  -2    1.90    1.47
 -18   2   2    1.49    1.35
 -18   2   2    0.74    1.36
  17  -2  -2   -1.81    1.22
 -17   2   2   -1.12    1.33
 -17   2   2   -2.75    1.19
  16  -2  -2    7.65    1.57
 -16   2   2    4.95    1.38
 -16   2   2    3.84    1.52
  15  -2  -2   12.04    1.68
 -15   2   2   11.94    1.73
 -15   2   2   14.17    1.68
  14  -2  -2    1.65    1.18
 -14   2   2    2.42    1.28
 -14   2   2    2.83    1.13
  13  -2  -2    2.56    1.13
 -13   2   2    2.85    1.07
 -13   2   2    3.88    1.25
  12  -2  -2   -0.49    0.85
 -12   2   2   -1.01    0.79
 -12   2   2   -0.27    0.96
  11  -2  -2    3.40    0.96
 -11   2   2    2.35    0.89
 -11   2   2    1.30    0.78
  10  -2  -2    1.48    0.86
 -10   2   2    1.48    0.89
 -10   2   2    2.33    0.80
   9  -2  -2   39.00    1.91
   9  -2  -2   40.06    1.76
   9  -2  -2   42.96    1.81
  -9   2   2   36.80    1.94
  -9   2   2   36.67    1.75
   8  -2  -2    7.49    0.95
   8  -2  -2    4.75    0.76
   8  -2  -2    5.50    0.85
   8  -2  -2    6.65    0.83
  -8   2   2   10.62    0.96
  -8   2   2   10.19    1.05
   7  -2  -2    7.87    0.79
   7  -2  -2    8.39    0.93
   7  -2  -2   10.03    0.99
   7  -2  -2    7.85    0.80
  -7   2   2    8.40    0.82
  -7   2   2    8.57    0.91
   6  -2  -2    6.89    0.74
   6  -2  -2    7.04    0.68
   6  -2  -2    6.73    0.68
   6  -2  -2    6.94    0.73
   6  -2  -2    6.33    0.83
  -6   2   2    5.64    0.76
  -6   2   2    6.70    0.73
  -6   2   2    6.54    0.79
  -6   2   2    6.02    0.68
   5  -2  -2    7.89    0.64
   5  -2  -2    8.59    0.66
   5  -2  -2    7.84    0.69
   5  -2  -2    7.96    0.73
   5  -2  -2    7.68    0.81
  -5   2   2    7.01    0.69
  -5   2   2    6.66    0.67
  -5   2   2    6.95    0.93
  -5   2   2    6.93    0.77
   4  -2  -2    6.81    0.54
   4  -2  -2    7.15    0.65
   4  -2  -2    6.66    0.54
   4  -2  -2    6.32    0.74
   4  -2  -2    8.00    0.63
  -4   2   2    8.66    0.92
  -4   2   2    7.10    0.59
  -4   2   2    6.91    0.66
   3  -2  -2  158.45    4.15
   3  -2  -2  158.24    4.22
   3  -2  -2  156.53    4.25
   3  -2  -2  156.21    4.62
  -3   2   2  152.73    4.15
  -3   2   2  156.04    4.63
  -3   2   2  150.85    4.25
   2  -2  -2   92.43    2.61
   2  -2  -2   90.98    2.85
  -2   2   2   85.55    2.82
  -2   2   2   87.87    2.62
   1  -2  -2   17.20    1.08
  -1   2   2   16.19    1.03
  -1   2   2   13.58    0.88
   0  -2  -2   88.74    2.69
   0   2   2   86.24    2.67
   1   2   2    9.90    0.63
  -2  -2  -2    6.69    0.72
  -2  -2  -2    7.95    0.52
  -2  -2  -2    6.94    0.72
   2   2   2    8.16    0.68
  -3  -2  -2    7.24    0.82
  -3  -2  -2    8.27    0.81
  -3  -2  -2    8.64    0.86
   3   2   2    8.68    0.62
  -4  -2  -2    0.01    0.63
  -4  -2  -2   -0.51    0.54
  -4  -2  -2    0.64    0.57
   4   2   2    0.86    0.57
   4   2   2    0.60    0.28
  -5  -2  -2   42.65    1.92
  -5  -2  -2   42.61    1.82
   5   2   2   46.11    1.92
  -6  -2  -2    1.53    0.72
  -6  -2  -2    1.36    0.74
  -7  -2  -2    5.74    0.98
  -7  -2  -2    7.52    1.07
   7   2   2    5.67    0.93
  -8  -2  -2    3.60    0.96
  -8  -2  -2    2.78    0.99
   8   2   2    1.63    0.93
  -9  -2  -2    4.45    0.99
  -9  -2  -2    2.00    1.00
   9   2   2    3.51    0.96
 -10  -2  -2    2.32    1.05
 -10  -2  -2    1.37    0.95
  10   2   2    2.55    0.98
 -11  -2  -2    0.39    1.00
 -11  -2  -2    1.26    1.10
  11   2   2    0.12    1.10
 -12  -2  -2   -0.38    1.06
 -12  -2  -2   -0.60    0.99
  12   2   2    0.08    1.12
 -13  -2  -2    1.38    1.28
 -13  -2  -2   -0.55    1.15
  13   2   2    1.93    1.29
 -14  -2  -2    3.59    1.48
 -14  -2  -2    6.73    1.64
 -15  -2  -2    3.11    1.51
 -15  -2  -2    3.23    1.50
 -16  -2  -2   -0.97    1.50
 -16  -2  -2   -0.61    1.38
 -17  -2  -2    0.56    1.66
 -17  -2  -2    1.48    1.57
 -18  -2  -2   -0.96    1.48
 -18  -2  -2    0.44    1.62
  20  -3  -2   -3.70    1.40
 -20   3   2    1.89    1.49
 -20   3   2   -0.36    1.60
  19  -3  -2    2.78    1.57
 -19   3   2    2.08    1.49
 -19   3   2    3.39    1.47
  18  -3  -2    0.57    1.38
 -18   3   2    0.08    1.27
 -18   3   2    0.92    1.53
  17  -3  -2   -1.04    1.22
 -17   3   2    1.54    1.40
 -17   3   2    2.53    1.30
  16  -3  -2    0.80    1.16
 -16   3   2    2.40    1.35
 -16   3   2   -0.26    1.09
  15  -3  -2   19.87    1.88
 -15   3   2   21.12    1.81
 -15   3   2   21.34    2.08
  14  -3  -2    0.71    1.02
 -14   3   2    0.51    0.96
 -14   3   2   -1.55    1.05
  13  -3  -2    1.87    0.89
 -13   3   2    0.13    0.87
 -13   3   2    2.26    1.11
  12  -3  -2   -0.45    0.79
 -12   3   2    1.15    0.82
 -12   3   2   -0.61    0.81
  11  -3  -2    3.95    0.94
 -11   3   2    4.92    1.04
 -11   3   2    3.36    0.85
  10  -3  -2   11.75    1.17
  10  -3  -2   13.84    1.11
 -10   3   2   12.62    1.24
 -10   3   2   11.47    1.10
   9  -3  -2    3.59    0.72
   9  -3  -2    4.07    0.72
   9  -3  -2    2.61    0.78
  -9   3   2    3.98    0.86
  -9   3   2    3.89    0.74
   8  -3  -2   41.25    1.66
   8  -3  -2   40.77    1.62
   8  -3  -2   41.84    1.81
   8  -3  -2   38.90    1.96
  -8   3   2   40.76    2.12
  -8   3   2   37.15    1.78
  -8   3   2   38.23    1.60
   7  -3  -2    0.51    0.54
   7  -3  -2    0.27    0.65
   7  -3  -2    0.89    0.47
   7  -3  -2    0.19    0.47
   7  -3  -2    0.45    0.45
  -7   3   2   -0.05    0.58
  -7   3   2    0.52    0.54
  -7   3   2    0.71    0.63
  -7   3   2   -0.16    0.78
   6  -3  -2   14.32    1.06
   6  -3  -2   12.38    0.94
   6  -3  -2   13.74    0.81
   6  -3  -2   13.37    0.79
   6  -3  -2   11.79    0.89
  -6   3   2   13.05    0.92
  -6   3   2   13.17    0.86
  -6   3   2   14.66    1.09
  -6   3   2   13.11    1.01
  -6   3   2   16.11    1.21
   5  -3  -2    7.72    0.65
   5  -3  -2    7.20    0.70
   5  -3  -2    8.46    0.68
   5  -3  -2    8.77    0.86
   5  -3  -2    8.56    0.65
  -5   3   2    8.87    0.73
  -5   3   2   10.22    0.80
  -5   3   2    8.54    0.78
  -5   3   2    9.56    0.97
   4  -3  -2   19.33    0.92
   4  -3  -2   19.76    0.82
   4  -3  -2   20.59    1.28
   4  -3  -2   21.22    0.96
   4  -3  -2   21.93    0.80
  -4   3   2   16.89    1.31
  -4   3   2   17.99    0.87
  -4   3   2   16.92    1.04
   3  -3  -2  122.18    3.84
   3  -3  -2  128.76    3.51
  -3   3   2  122.87    3.85
  -3   3   2  122.97    3.50
  -3   3   2  125.74    3.35
   2  -3  -2   16.20    1.21
  -2   3   2   10.50    0.84
  -2   3   2   10.39    0.79
   1  -3  -2  153.96    4.51
  -1   3   2  153.64    4.49
   0  -3  -2  122.27    3.62
   0  -3  -2  122.41    3.35
   0   3   2  119.40    3.60
  -1  -3  -2   10.83    0.72
  -1  -3  -2    8.66    0.72
  -1  -3  -2   10.14    0.74
   1   3   2   10.74    0.86
  -2  -3  -2    7.41    0.58
  -2  -3  -2    6.85    0.76
  -2  -3  -2    6.39    0.73
   2   3   2    6.47    0.59
  -3  -3  -2   13.72    1.06
  -3  -3  -2   13.18    1.00
  -3  -3  -2   12.31    0.97
   3   3   2   14.29    1.00
   3   3   2   14.44    1.13
   3   3   2   13.95    0.84
  -4  -3  -2    2.81    0.73
  -4  -3  -2    3.00    0.70
   4   3   2    2.42    0.69
   4   3   2    2.37    0.42
  -5  -3  -2    1.19    0.69
  -5  -3  -2    0.92    0.67
   5   3   2    0.09    0.36
   5   3   2    0.87    0.68
  -6  -3  -2    0.16    0.77
  -6  -3  -2    1.39    0.82
   6   3   2    0.19    0.33
  -7  -3  -2   22.74    1.50
  -7  -3  -2   21.25    1.54
   7   3   2   19.01    0.90
  -8  -3  -2   24.58    1.83
  -8  -3  -2   26.54    1.81
   8   3   2   26.61    0.99
   8   3   2   22.83    1.01
  -9  -3  -2   12.51    1.38
  -9  -3  -2   11.93    1.48
 -10  -3  -2    1.82    1.00
 -10  -3  -2    2.25    1.19
 -11  -3  -2    2.32    1.17
 -11  -3  -2    2.26    1.13
 -12  -3  -2    2.35    1.23
 -12  -3  -2    2.83    1.18
 -13  -3  -2    2.82    1.34
 -13  -3  -2    0.88    1.22
 -14  -3  -2    0.32    1.30
 -14  -3  -2   -0.22    1.21
 -15  -3  -2    4.19    1.56
 -15  -3  -2    5.44    1.69
 -16  -3  -2    3.65    1.76
 -16  -3  -2    3.48    1.55
 -17  -3  -2   -0.06    1.63
 -17  -3  -2    1.31    1.65
  20  -4  -2    3.74    1.56
 -20   4   2    2.00    1.66
 -20   4   2    2.06    1.52
  19  -4  -2    1.83    1.55
 -19   4   2    1.61    1.44
 -19   4   2    0.60    1.52
  18  -4  -2   -0.60    1.23
 -18   4   2   -0.95    1.32
 -18   4   2    1.00    1.23
  17  -4  -2    1.68    1.25
 -17   4   2    0.72    1.18
 -17   4   2    3.07    1.46
  16  -4  -2    2.52    1.20
 -16   4   2   -0.40    1.23
 -16   4   2    1.47    1.11
  15  -4  -2   16.35    1.66
 -15   4   2   14.90    1.58
 -15   4   2   13.40    1.75
  14  -4  -2    7.43    1.24
 -14   4   2    4.66    1.09
 -14   4   2    3.85    1.21
  13  -4  -2    3.92    1.02
 -13   4   2    3.32    0.94
 -13   4   2    2.93    1.01
  12  -4  -2    3.07    0.89
 -12   4   2   -0.38    0.75
 -12   4   2    0.45    0.90
  11  -4  -2    1.60    0.79
 -11   4   2    1.64    0.89
 -11   4   2    1.77    0.73
  10  -4  -2   13.62    1.07
  10  -4  -2   13.21    1.03
  10  -4  -2   12.68    1.14
 -10   4   2   13.49    1.08
 -10   4   2   15.31    1.43
 -10   4   2   11.23    1.16
   9  -4  -2    3.50    0.67
   9  -4  -2    2.64    0.56
   9  -4  -2    2.50    0.71
  -9   4   2    1.61    0.60
  -9   4   2    3.28    0.97
  -9   4   2    1.91    0.75
   8  -4  -2   11.00    0.92
   8  -4  -2   12.39    0.90
   8  -4  -2   12.12    0.91
  -8   4   2   12.35    0.94
  -8   4   2   11.22    1.02
  -8   4   2   10.54    0.96
  -8   4   2   10.29    1.17
   7  -4  -2    2.84    0.55
   7  -4  -2    2.51    0.49
   7  -4  -2    2.59    0.46
   7  -4  -2    2.72    0.69
   7  -4  -2    2.72    0.54
  -7   4   2    0.95    0.81
  -7   4   2    1.96    0.64
  -7   4   2    2.31    0.53
  -7   4   2    1.33    0.58
   6  -4  -2    0.48    0.43
   6  -4  -2    1.20    0.58
   6  -4  -2    0.22    0.48
   6  -4  -2   -0.18    0.33
   6  -4  -2    0.17    0.37
  -6   4   2    0.68    0.73
  -6   4   2    0.80    0.45
  -6   4   2    1.03    0.57
  -6   4   2    0.73    0.51
   5  -4  -2    2.93    0.69
   5  -4  -2    3.17    0.38
   5  -4  -2    3.87    0.56
   5  -4  -2    3.02    0.49
   5  -4  -2    2.79    0.41
  -5   4   2    5.98    0.88
  -5   4   2    5.22    0.48
  -5   4   2    4.77    0.63
   4  -4  -2  192.54    5.12
   4  -4  -2  186.45    5.60
   4  -4  -2  189.75    5.00
   4  -4  -2  184.59    4.80
  -4   4   2  186.23    5.11
  -4   4   2  188.48    4.91
  -4   4   2  196.32    5.62
   3  -4  -2   11.21    0.85
   3  -4  -2   10.27    0.92
  -3   4   2   12.54    0.89
  -3   4   2   13.40    0.99
   2  -4  -2    7.52    0.82
  -2   4   2    8.60    0.76
  -2   4   2    7.56    0.80
   1  -4  -2   20.89    1.32
   1  -4  -2   19.73    0.86
  -1   4   2   18.55    1.22
   0  -4  -2  185.47    5.41
   0  -4  -2  186.86    5.00
   0  -4  -2  188.09    5.05
   0   4   2  188.72    5.39
  -1  -4  -2   53.53    1.93
  -1  -4  -2   55.07    1.86
  -1  -4  -2   51.39    1.83
   1   4   2   51.81    1.90
   1   4   2   55.73    1.84
  -2  -4  -2    5.43    0.75
  -2  -4  -2    4.87    0.74
  -2  -4  -2    5.90    0.74
   2   4   2    5.71    0.66
   2   4   2    6.06    0.74
   2   4   2    6.10    0.71
  -3  -4  -2    0.18    0.62
  -3  -4  -2    0.04    0.64
   3   4   2    0.58    0.57
   3   4   2    0.36    0.49
   3   4   2    0.62    0.58
  -4  -4  -2    8.79    1.03
  -4  -4  -2    9.05    0.99
   4   4   2   10.56    0.89
   4   4   2   12.36    1.08
  -5  -4  -2    0.47    0.77
  -5  -4  -2   -0.55    0.66
   5   4   2   -0.04    0.41
  -6  -4  -2   12.71    1.28
  -6  -4  -2   14.98    1.34
   6   4   2   12.10    0.90
  -7  -4  -2    1.47    0.92
  -7  -4  -2    0.97    0.91
   7   4   2    0.80    0.43
  -8  -4  -2    0.01    0.88
  -8  -4  -2    0.21    0.97
   8   4   2    0.43    0.42
  -9  -4  -2    2.33    1.13
  -9  -4  -2    3.18    1.16
   9   4   2    1.52    0.42
 -10  -4  -2   -0.32    0.94
 -10  -4  -2   -0.04    1.14
  10   4   2    0.49    0.36
 -11  -4  -2    5.51    1.43
 -11  -4  -2    3.12    1.31
 -12  -4  -2    1.67    1.18
 -12  -4  -2    1.10    1.31
 -13  -4  -2    2.32    1.31
 -13  -4  -2    1.53    1.36
 -14  -4  -2    0.88    1.50
 -14  -4  -2    3.71    1.49
 -15  -4  -2   -0.58    1.46
 -15  -4  -2    1.65    1.41
 -16  -4  -2    1.93    1.70
 -16  -4  -2   -2.07    1.54
  21  -5  -2    1.74    1.53
 -21   5   2    0.84    1.41
 -21   5   2   -0.31    1.57
  20  -5  -2   -1.04    1.34
 -20   5   2    0.50    1.27
 -20   5   2    0.47    1.51
  19  -5  -2    3.58    1.39
 -19   5   2   -1.26    1.42
 -19   5   2   -0.03    1.19
  18  -5  -2   -0.96    1.17
 -18   5   2    0.14    1.17
 -18   5   2   -0.24    1.33
  17  -5  -2   -0.15    1.11
 -17   5   2   -1.96    1.16
 -17   5   2   -0.01    1.13
  16  -5  -2    2.50    1.17
 -16   5   2    3.47    1.32
 -16   5   2    1.71    1.08
  15  -5  -2    1.89    1.06
 -15   5   2    3.91    1.28
 -15   5   2    3.07    1.04
  14  -5  -2   -0.32    0.87
 -14   5   2    0.88    1.04
 -14   5   2   -0.18    0.90
  13  -5  -2    1.76    0.87
 -13   5   2   -0.20    0.76
 -13   5   2    0.61    0.93
  12  -5  -2    0.39    0.75
 -12   5   2   -0.47    0.98
 -12   5   2    0.20    0.86
 -12   5   2   -0.40    0.69
  11  -5  -2   11.16    0.96
  11  -5  -2   10.95    1.13
  11  -5  -2   12.35    1.03
 -11   5   2   10.74    1.01
 -11   5   2   12.96    1.23
 -11   5   2   11.27    1.35
  10  -5  -2   13.22    1.02
  10  -5  -2   14.89    1.00
  10  -5  -2   12.79    1.11
 -10   5   2   13.33    1.00
 -10   5   2   10.94    1.09
 -10   5   2   12.48    1.37
   9  -5  -2    1.21    0.49
   9  -5  -2    0.42    0.45
  -9   5   2   -0.03    0.62
  -9   5   2    0.75    0.57
  -9   5   2   -0.67    0.82
   8  -5  -2   -0.03    0.53
   8  -5  -2    0.54    0.41
   8  -5  -2    1.28    0.46
   8  -5  -2    0.50    0.47
  -8   5   2    1.40    0.63
  -8   5   2    0.63    0.81
  -8   5   2    0.62    0.64
  -8   5   2    0.55    0.48
   7  -5  -2   46.63    1.75
   7  -5  -2   48.43    1.53
   7  -5  -2   45.80    1.64
   7  -5  -2   44.01    1.44
  -7   5   2   44.39    2.15
  -7   5   2   43.70    1.47
  -7   5   2   42.96    1.67
  -7   5   2   42.69    1.74
   6  -5  -2    3.86    0.53
   6  -5  -2    4.86    0.65
   6  -5  -2    4.01    0.77
   6  -5  -2    5.16    0.43
   6  -5  -2    4.40    0.44
  -6   5   2    4.38    0.86
  -6   5   2    3.47    0.53
  -6   5   2    5.14    0.68
  -6   5   2    4.16    0.45
   5  -5  -2   80.95    2.15
   5  -5  -2   83.63    2.93
   5  -5  -2   80.82    2.51
   5  -5  -2   82.81    2.35
  -5   5   2   81.80    2.24
  -5   5   2   80.97    2.94
  -5   5   2   82.40    2.52
   4  -5  -2   56.53    1.88
   4  -5  -2   52.01    2.20
   4  -5  -2   55.12    1.64
  -4   5   2   58.60    2.23
  -4   5   2   56.52    1.60
  -4   5   2   59.64    1.93
   3  -5  -2    5.99    0.80
   3  -5  -2    6.17    0.43
  -3   5   2    6.76    0.70
  -3   5   2    8.81    0.90
   2  -5  -2    8.92    0.92
   2  -5  -2    9.61    0.62
  -2   5   2   10.20    0.95
   1  -5  -2    3.05    0.66
   1  -5  -2    3.77    0.52
   1  -5  -2    4.10    0.47
  -1   5   2    4.85    0.76
   0  -5  -2   77.92    2.73
   0  -5  -2   78.31    2.44
   0  -5  -2   81.81    2.45
   0   5   2   79.62    2.70
   0   5   2   82.14    2.44
  -1  -5  -2   69.09    2.21
  -1  -5  -2   67.39    2.19
   1   5   2   62.10    2.28
   1   5   2   62.63    2.16
  -2  -5  -2    8.13    0.84
  -2  -5  -2    5.70    0.77
   2   5   2    8.28    0.84
   2   5   2   10.68    0.85
   2   5   2    7.68    0.80
  -3  -5  -2   36.91    1.74
  -3  -5  -2   39.22    1.77
   3   5   2   39.39    1.66
   3   5   2   39.01    1.60
  -4  -5  -2    3.20    0.83
  -4  -5  -2    2.49    0.82
   4   5   2    2.24    0.57
  -5  -5  -2   11.49    1.19
  -5  -5  -2   11.02    1.21
   5   5   2   13.04    1.02
  -6  -5  -2    2.10    0.94
  -6  -5  -2    1.25    0.82
   6   5   2    1.02    0.53
  -7  -5  -2    5.60    1.10
  -7  -5  -2    5.64    1.08
   7   5   2    6.58    0.67
  -8  -5  -2   20.71    1.73
  -8  -5  -2   22.47    1.87
   8   5   2   21.41    1.17
  -9  -5  -2   13.64    1.67
  -9  -5  -2   11.38    1.49
   9   5   2   13.75    0.99
 -10  -5  -2    1.23    1.13
 -10  -5  -2    1.65    1.13
  10   5   2    1.71    0.50
 -11  -5  -2    1.30    1.33
 -11  -5  -2   -0.32    1.15
 -12  -5  -2    0.42    1.28
 -12  -5  -2    2.22    1.43
 -13  -5  -2   -2.26    1.30
 -13  -5  -2   -1.09    1.32
 -14  -5  -2    1.74    1.50
 -14  -5  -2    2.84    1.62
 -15  -5  -2   -0.83    1.45
 -15  -5  -2    0.67    1.60
 -16  -5  -2   -1.47    1.32
 -16  -5  -2    1.01    1.58
  21  -6  -2    1.57    1.41
 -21   6   2    3.39    1.67
 -21   6   2   -0.51    1.29
  20  -6  -2    1.98    1.42
 -20   6   2   -0.87    1.39
 -20   6   2    1.40    1.33
  19  -6  -2    2.86    1.30
 -19   6   2    1.29    1.45
 -19   6   2   -0.02    1.26
  18  -6  -2    3.47    1.31
 -18   6   2    0.34    1.31
 -18   6   2    1.84    1.16
  17  -6  -2    1.46    1.12
 -17   6   2    2.18    1.30
 -17   6   2    2.45    1.20
  16  -6  -2    0.70    0.96
 -16   6   2    0.22    0.95
 -16   6   2    1.27    1.19
  15  -6  -2    8.73    1.25
 -15   6   2    7.03    1.17
 -15   6   2    6.52    1.35
  14  -6  -2    0.41    0.85
 -14   6   2    0.45    0.99
 -14   6   2   -0.52    1.14
 -14   6   2   -0.58    0.74
  13  -6  -2    3.39    0.89
 -13   6   2    2.44    0.80
 -13   6   2    2.92    1.19
 -13   6   2    2.76    0.99
  12  -6  -2   25.81    1.68
  12  -6  -2   29.04    1.43
  12  -6  -2   27.09    1.48
 -12   6   2   28.95    1.73
 -12   6   2   28.98    2.16
 -12   6   2   27.76    1.46
  11  -6  -2    1.94    0.55
  11  -6  -2    2.39    0.78
  11  -6  -2    1.58    0.58
 -11   6   2    1.99    0.66
 -11   6   2    2.46    1.02
 -11   6   2    0.87    0.74
  10  -6  -2   13.51    0.96
  10  -6  -2   12.79    0.90
 -10   6   2   12.81    1.11
 -10   6   2   12.72    0.91
 -10   6   2   13.99    1.44
   9  -6  -2   -0.01    0.41
   9  -6  -2    0.29    0.44
   9  -6  -2    0.59    0.51
  -9   6   2   -0.34    0.62
  -9   6   2    0.76    0.64
  -9   6   2    0.19    0.88
  -9   6   2   -0.01    0.47
   8  -6  -2    2.88    0.58
   8  -6  -2    1.09    0.60
   8  -6  -2    1.90    0.46
   8  -6  -2    1.66    0.41
  -8   6   2    2.28    0.60
  -8   6   2    1.64    0.44
  -8   6   2    1.23    0.88
  -8   6   2    1.58    0.63
   7  -6  -2    5.59    0.45
   7  -6  -2    5.56    0.49
   7  -6  -2    5.18    0.70
   7  -6  -2    5.65    0.59
  -7   6   2    5.95    1.03
  -7   6   2    4.93    0.61
  -7   6   2    4.73    0.72
   6  -6  -2   30.26    1.12
   6  -6  -2   29.90    1.31
  -6   6   2   29.06    0.96
  -6   6   2   28.47    1.34
  -6   6   2   27.64    1.72
   5  -6  -2   65.69    1.83
   5  -6  -2   65.10    2.11
   5  -6  -2   68.56    2.59
  -5   6   2   63.11    2.57
  -5   6   2   62.64    1.73
  -5   6   2   61.02    2.09
   4  -6  -2    7.89    0.95
   4  -6  -2    6.76    0.42
   4  -6  -2    6.71    0.71
  -4   6   2    7.68    0.96
  -4   6   2    5.36    0.68
   3  -6  -2   11.31    1.05
   3  -6  -2   12.15    0.61
   3  -6  -2   13.68    0.56
  -3   6   2   15.00    1.17
  -3   6   2   13.15    1.01
   2  -6  -2    0.30    0.62
   2  -6  -2    0.59    0.39
   2  -6  -2    0.51    0.34
  -2   6   2    0.56    0.72
   1  -6  -2    4.07    0.50
   1  -6  -2    4.53    0.59
   1  -6  -2    4.90    0.78
  -1   6   2    5.53    0.59
  -1   6   2    4.02    0.80
   0  -6  -2   29.07    1.36
   0  -6  -2   29.75    1.29
   0   6   2   28.76    1.59
   0   6   2   32.27    1.30
  -1  -6  -2    4.01    0.71
  -1  -6  -2    2.31    0.63
   1   6   2    2.64    0.77
   1   6   2    2.86    0.62
   1   6   2    2.08    0.60
  -2  -6  -2    5.42    0.84
  -2  -6  -2    4.98    0.79
   2   6   2   10.08    0.88
   2   6   2    9.42    0.92
   2   6   2    9.57    0.93
  -3  -6  -2    3.59    0.85
  -3  -6  -2    3.35    0.79
   3   6   2    3.97    0.78
   3   6   2    4.72    0.76
  -4  -6  -2   12.51    1.25
  -4  -6  -2   13.77    1.25
   4   6   2   13.07    0.96
  -5  -6  -2   10.61    1.21
  -5  -6  -2   12.91    1.31
   5   6   2   10.54    0.88
  -6  -6  -2   24.30    1.81
  -6  -6  -2   26.16    1.70
   6   6   2   27.53    1.41
  -7  -6  -2   14.99    1.56
  -7  -6  -2   15.09    1.54
   7   6   2   16.39    1.19
  -8  -6  -2    0.27    1.08
  -8  -6  -2    0.13    1.05
   8   6   2    1.22    0.60
  -9  -6  -2   24.77    2.10
  -9  -6  -2   22.76    1.95
   9   6   2   23.69    1.27
 -10  -6  -2   -1.11    1.17
 -10  -6  -2    0.60    1.21
 -11  -6  -2    0.62    1.19
 -11  -6  -2    1.37    1.37
 -12  -6  -2    1.27    1.46
 -12  -6  -2   -1.18    1.31
 -13  -6  -2    0.96    1.50
 -13  -6  -2   -0.15    1.31
 -14  -6  -2    2.42    1.66
 -14  -6  -2    1.31    1.52
 -15  -6  -2    0.67    1.58
 -15  -6  -2    2.44    1.74
  21  -7  -2    1.27    1.35
 -21   7   2    3.09    1.62
 -21   7   2    0.39    1.30
  20  -7  -2    3.07    1.35
 -20   7   2    2.76    1.57
 -20   7   2    3.25    1.30
  19  -7  -2    2.06    1.20
 -19   7   2   -0.80    1.05
 -19   7   2    1.04    1.47
  18  -7  -2   -0.38    1.05
 -18   7   2   -0.22    1.18
 -18   7   2   -0.58    1.07
  17  -7  -2    1.57    1.10
 -17   7   2    0.76    0.99
 -17   7   2    0.56    1.14
  16  -7  -2    2.69    1.10
 -16   7   2    1.90    0.95
 -16   7   2    2.08    1.20
  15  -7  -2    5.06    1.15
 -15   7   2    2.60    1.33
 -15   7   2    3.37    0.97
 -15   7   2    3.39    1.14
  14  -7  -2    9.28    1.23
 -14   7   2    8.45    1.27
 -14   7   2    8.47    1.53
 -14   7   2    8.70    1.05
  13  -7  -2   17.25    1.16
  13  -7  -2   16.36    1.40
 -13   7   2   16.33    1.47
 -13   7   2   18.12    1.23
 -13   7   2   22.16    1.91
  12  -7  -2    7.13    0.77
  12  -7  -2    7.64    1.04
 -12   7   2    7.27    0.85
 -12   7   2    4.97    0.94
 -12   7   2    6.51    1.28
  11  -7  -2   -0.04    0.46
 -11   7   2    0.54    0.99
 -11   7   2   -0.58    0.53
 -11   7   2    0.48    0.67
  10  -7  -2   19.69    1.16
  10  -7  -2   20.36    1.04
 -10   7   2   18.69    1.02
 -10   7   2   18.70    1.30
 -10   7   2   21.18    1.69
 -10   7   2   18.87    1.24
   9  -7  -2    6.33    0.58
   9  -7  -2    6.21    0.68
  -9   7   2    7.26    0.87
  -9   7   2    6.65    1.15
  -9   7   2    5.82    0.57
  -9   7   2    5.86    0.76
   8  -7  -2   56.64    2.03
   8  -7  -2   52.97    1.63
   8  -7  -2   50.04    1.79
  -8   7   2   52.40    1.95
  -8   7   2   53.35    1.84
  -8   7   2   55.67    2.51
   7  -7  -2    7.64    0.59
   7  -7  -2    7.66    0.75
  -7   7   2    7.01    1.08
  -7   7   2    6.56    0.75
   6  -7  -2    2.34    0.37
   6  -7  -2    3.90    0.62
  -6   7   2    3.01    0.61
  -6   7   2    1.64    0.89
   5  -7  -2    8.81    0.81
   5  -7  -2    6.93    0.39
  -5   7   2    8.34    0.37
  -5   7   2    8.04    1.06
  -5   7   2    9.00    0.79
  -4   7   2    0.22    0.78
  -4   7   2    1.03    0.58
   3  -7  -2    2.88    0.42
   3  -7  -2    2.22    0.28
  -3   7   2    2.15    0.84
  -3   7   2    1.68    0.66
   2  -7  -2   44.43    2.16
   2  -7  -2   44.63    1.43
   2  -7  -2   46.11    1.54
  -2   7   2   43.81    1.55
  -2   7   2   46.90    2.07
   1  -7  -2    5.56    0.82
   1  -7  -2    5.01    0.66
   1  -7  -2    4.64    0.55
  -1   7   2    6.98    0.94
  -1   7   2    5.43    0.64
   0  -7  -2    7.21    0.74
   0  -7  -2    5.98    0.79
   0   7   2    7.33    0.79
   0   7   2    5.17    0.89
  -1  -7  -2   15.24    1.16
  -1  -7  -2   14.55    1.13
   1   7   2   16.63    1.18
   1   7   2   17.59    1.17
   1   7   2   16.79    1.22
  -2  -7  -2   35.69    1.73
  -2  -7  -2   39.60    1.79
   2   7   2   36.97    1.80
   2   7   2   39.00    1.75
  -3  -7  -2   12.33    1.14
  -3  -7  -2   10.32    1.16
   3   7   2   11.49    1.01
  -4  -7  -2    1.92    0.87
  -4  -7  -2    1.70    0.82
   4   7   2    2.15    0.70
  -5  -7  -2    0.36    0.82
  -5  -7  -2    0.89    0.90
   5   7   2   -0.09    0.64
  -6  -7  -2    2.04    1.02
  -6  -7  -2    1.44    1.03
   6   7   2    3.70    0.75
  -7  -7  -2   10.50    1.46
  -7  -7  -2    8.78    1.34
   7   7   2    9.04    0.91
  -8  -7  -2   20.10    1.91
  -8  -7  -2   16.36    1.79
   8   7   2   20.22    1.33
  -9  -7  -2    4.72    1.43
  -9  -7  -2    6.82    1.53
   9   7   2    5.34    0.81
 -10  -7  -2    4.82    1.49
 -10  -7  -2    2.09    1.41
 -11  -7  -2   -0.31    1.31
 -11  -7  -2    0.05    1.38
 -12  -7  -2    0.85    1.28
 -12  -7  -2   -0.09    1.28
 -13  -7  -2   -1.01    1.48
 -13  -7  -2   -2.74    1.33
 -14  -7  -2   -0.01    1.66
 -14  -7  -2   -4.06    1.27
  21  -8  -2    0.18    1.25
 -21   8   2   -2.14    1.32
 -21   8   2    1.47    1.29
  20  -8  -2    1.15    1.28
 -20   8   2   -0.21    1.35
 -20   8   2   -2.13    0.98
  19  -8  -2    0.41    1.13
 -19   8   2    2.57    1.34
 -19   8   2   -0.59    1.08
  18  -8  -2   -0.42    1.08
 -18   8   2    0.51    1.00
 -18   8   2   -0.80    1.16
  17  -8  -2    7.84    1.30
 -17   8   2    7.89    1.76
 -17   8   2    6.55    1.43
 -17   8   2    8.08    1.25
  16  -8  -2    5.25    1.16
 -16   8   2    3.06    1.42
 -16   8   2    5.49    1.07
 -16   8   2    4.41    1.23
  15  -8  -2   20.26    1.62
 -15   8   2   21.92    2.03
 -15   8   2   20.84    1.74
 -15   8   2   22.54    1.48
  14  -8  -2    0.19    0.87
 -14   8   2    0.42    1.21
 -14   8   2    0.14    0.88
 -14   8   2    1.10    0.71
  13  -8  -2   23.13    1.70
  13  -8  -2   22.74    1.27
 -13   8   2   24.52    1.32
 -13   8   2   22.50    1.66
 -13   8   2   23.19    1.97
  12  -8  -2    0.44    0.50
 -12   8   2    0.56    0.72
 -12   8   2    0.82    1.08
 -12   8   2    0.26    0.55
  11  -8  -2   27.93    1.20
 -11   8   2   25.28    1.43
 -11   8   2   24.71    1.15
 -11   8   2   25.13    2.04
  10  -8  -2    2.55    0.59
  10  -8  -2    2.39    0.48
 -10   8   2    2.90    1.06
 -10   8   2    2.78    0.48
 -10   8   2    1.70    0.65
 -10   8   2    1.61    0.70
   9  -8  -2   24.27    0.98
   9  -8  -2   26.10    1.22
   9  -8  -2   27.18    1.41
  -9   8   2   27.62    1.40
  -9   8   2   24.78    1.23
  -9   8   2   25.23    1.86
   8  -8  -2   11.82    0.94
   8  -8  -2   13.19    0.85
  -8   8   2   11.90    0.93
  -8   8   2   11.01    1.29
  -8   8   2   11.70    0.83
   7  -8  -2   16.67    0.81
   7  -8  -2   17.97    1.15
  -7   8   2   16.83    1.08
  -7   8   2   17.17    1.47
   6  -8  -2    5.41    0.75
  -6   8   2    8.14    0.75
  -6   8   2    9.64    1.19
  -5   8   2   36.21    1.03
  -5   8   2   35.64    2.05
  -5   8   2   36.65    1.54
  -4   8   2   12.32    1.23
  -4   8   2   10.00    0.87
   3  -8  -2    0.82    0.44
   3  -8  -2    0.66    0.29
  -3   8   2    0.09    0.84
  -3   8   2    0.09    0.40
   2  -8  -2    2.36    0.43
   2  -8  -2    2.81    0.57
  -2   8   2    1.29    0.88
  -2   8   2    1.51    0.50
   1  -8  -2   54.37    1.83
   1  -8  -2   51.68    1.89
  -1   8   2   50.41    2.32
  -1   8   2   56.20    1.92
   0  -8  -2   12.69    1.01
   0  -8  -2    9.61    0.88
   0   8   2   13.57    1.21
   0   8   2   13.07    0.98
   0   8   2   12.32    0.99
  -1  -8  -2    0.38    0.66
  -1  -8  -2    0.72    0.64
   1   8   2    1.29    0.65
   1   8   2    1.14    0.82
   1   8   2    0.13    0.56
  -2  -8  -2    0.93    0.76
  -2  -8  -2    2.01    0.74
   2   8   2    2.01    0.83
  -3  -8  -2    5.00    0.97
  -3  -8  -2    2.59    0.84
   3   8   2    3.91    0.85
  -4  -8  -2    1.50    0.85
  -4  -8  -2    0.92    0.88
   4   8   2    0.82    0.75
  -5  -8  -2    1.88    0.96
  -5  -8  -2    0.27    0.94
   5   8   2    1.68    0.77
  -6  -8  -2    1.11    1.03
  -6  -8  -2    1.12    1.02
   6   8   2    0.76    0.74
  -7  -8  -2    5.10    1.23
  -7  -8  -2    2.75    1.24
   7   8   2    3.21    0.84
  -8  -8  -2    2.20    1.26
  -8  -8  -2    2.53    1.29
   8   8   2    2.55    0.84
  -9  -8  -2    0.41    1.19
  -9  -8  -2   -0.83    1.20
 -10  -8  -2    5.00    1.56
 -10  -8  -2    5.89    1.56
 -11  -8  -2    2.00    1.52
 -11  -8  -2    0.09    1.43
 -12  -8  -2    0.86    1.47
 -12  -8  -2    1.99    1.61
 -13  -8  -2   -2.41    1.40
 -13  -8  -2    1.56    1.66
  21  -9  -2    4.05    1.38
 -21   9   2    1.17    1.56
  20  -9  -2   -0.28    1.17
 -20   9   2    0.83    1.23
 -20   9   2   -1.38    1.36
  19  -9  -2    0.35    1.15
 -19   9   2    1.25    1.06
 -19   9   2    1.39    1.32
  18  -9  -2    2.79    1.18
 -18   9   2    3.14    1.29
 -18   9   2    2.25    1.50
 -18   9   2    3.99    1.12
  17  -9  -2   -0.33    1.00
 -17   9   2    1.49    1.43
 -17   9   2    1.76    1.15
 -17   9   2    1.15    0.89
  16  -9  -2    5.54    1.15
 -16   9   2    6.31    1.61
 -16   9   2    6.14    1.04
 -16   9   2    7.65    1.37
  15  -9  -2   26.06    1.84
 -15   9   2   26.04    1.85
 -15   9   2   22.47    2.14
 -15   9   2   22.17    1.44
  14  -9  -2   17.13    1.45
  14  -9  -2   15.45    1.09
 -14   9   2   15.77    1.41
 -14   9   2   15.40    1.20
 -14   9   2   13.92    1.75
  13  -9  -2    1.28    0.56
  13  -9  -2    1.36    0.84
 -13   9   2    2.67    0.66
 -13   9   2    1.15    0.80
 -13   9   2    0.62    1.14
  12  -9  -2   12.57    0.91
 -12   9   2   11.61    0.85
 -12   9   2   11.23    1.52
 -12   9   2   13.06    1.12
  11  -9  -2    4.14    0.69
  11  -9  -2    4.48    0.54
 -11   9   2    4.80    1.21
 -11   9   2    4.00    0.53
 -11   9   2    4.64    0.82
 -11   9   2    3.10    0.70
  10  -9  -2   12.01    0.68
  10  -9  -2   12.11    0.88
 -10   9   2   11.41    0.89
 -10   9   2   12.97    1.51
 -10   9   2   13.54    1.07
   9  -9  -2    9.79    0.74
   9  -9  -2   10.18    0.90
  -9   9   2    9.50    0.89
  -9   9   2   12.59    1.42
  -9   9   2   10.47    0.74
   8  -9  -2    0.33    0.54
  -8   9   2    1.16    0.93
  -8   9   2    0.98    0.58
   7  -9  -2   37.26    1.60
  -7   9   2   34.95    2.07
  -7   9   2   37.12    1.49
  -6   9   2    3.56    0.62
  -6   9   2    3.64    1.00
  -5   9   2    2.41    0.32
  -5   9   2    2.57    0.99
  -5   9   2    2.99    0.65
  -4   9   2   -0.12    0.87
  -4   9   2   -0.09    0.38
  -4   9   2    1.02    0.41
  -4   9   2    1.12    0.67
   3  -9  -2    0.08    0.32
   3  -9  -2   -0.09    0.46
  -3   9   2    0.43    0.47
  -3   9   2   -0.38    0.83
  -3   9   2    0.41    0.45
   2  -9  -2    7.45    0.74
   2  -9  -2    6.56    0.60
  -2   9   2    6.27    0.71
  -2   9   2    6.10    0.70
  -2   9   2    5.46    1.00
   1  -9  -2   23.74    1.33
   1  -9  -2   26.22    1.21
  -1   9   2   23.71    1.76
  -1   9   2   25.07    1.31
   0  -9  -2    9.66    1.01
   0  -9  -2   10.75    0.88
   0   9   2    9.56    0.96
   0   9   2   10.85    1.18
   0   9   2   10.55    0.89
  -1  -9  -2    6.48    0.93
  -1  -9  -2    6.00    0.86
   1   9   2    5.72    1.01
  -2  -9  -2    2.91    0.83
  -2  -9  -2    3.05    0.90
   2   9   2    3.57    0.93
  -3  -9  -2    0.59    0.88
  -3  -9  -2   -0.27    0.76
   3   9   2    1.06    0.87
  -4  -9  -2    2.59    0.96
  -4  -9  -2    3.33    1.06
   4   9   2    2.96    0.89
  -5  -9  -2    0.28    0.94
  -5  -9  -2    1.16    1.09
   5   9   2    1.20    0.87
  -6  -9  -2    7.99    1.44
  -6  -9  -2    9.34    1.44
   6   9   2    6.47    1.06
  -7  -9  -2    0.81    1.23
  -7  -9  -2    1.91    1.20
   7   9   2    2.22    0.88
  -8  -9  -2    6.12    1.48
  -8  -9  -2    6.21    1.51
   8   9   2    5.21    1.00
  -9  -9  -2    4.79    1.54
  -9  -9  -2    4.25    1.50
 -10  -9  -2    2.17    1.50
 -10  -9  -2    0.60    1.44
 -11  -9  -2    2.58    1.63
 -11  -9  -2   -2.66    1.29
 -12  -9  -2   -3.38    1.46
 -12  -9  -2   -0.91    1.34
  22 -10  -2    1.44    1.32
 -22  10   2    0.75    1.43
  21 -10  -2    0.71    1.20
 -21  10   2    1.08    1.34
  20 -10  -2    1.83    1.16
 -20  10   2    1.43    1.31
  19 -10  -2    2.98    1.15
 -19  10   2    4.68    1.42
 -19  10   2    2.34    1.61
  18 -10  -2    3.48    1.16
 -18  10   2    5.91    1.70
 -18  10   2    5.55    1.12
 -18  10   2    6.57    1.40
  17 -10  -2    4.39    1.14
 -17  10   2    2.98    1.49
 -17  10   2    3.81    1.21
 -17  10   2    3.48    0.97
  16 -10  -2   -0.42    0.90
 -16  10   2    0.52    1.01
 -16  10   2    0.82    1.29
 -16  10   2   -0.68    0.77
  15 -10  -2    2.52    1.01
 -15  10   2    2.59    0.96
 -15  10   2    1.06    0.73
 -15  10   2    4.12    1.47
  14 -10  -2    0.59    0.53
  14 -10  -2    1.11    0.86
 -14  10   2   -0.02    0.80
 -14  10   2   -0.61    1.20
 -14  10   2   -0.65    0.61
  13 -10  -2    1.92    0.51
 -13  10   2    3.81    1.34
 -13  10   2    3.77    0.62
 -13  10   2    2.49    0.78
  12 -10  -2    2.49    0.46
 -12  10   2    2.63    0.72
 -12  10   2    2.33    0.49
 -12  10   2    3.46    1.26
  11 -10  -2    1.27    0.32
 -11  10   2    1.54    1.11
 -11  10   2    1.06    0.58
 -11  10   2    1.92    0.72
  10 -10  -2   26.14    1.43
 -10  10   2   30.99    1.45
 -10  10   2   29.77    1.28
 -10  10   2   29.28    2.17
   9 -10  -2    5.85    0.78
  -9  10   2    5.09    0.76
  -9  10   2    6.17    1.24
   8 -10  -2    1.04    0.62
  -8  10   2    1.36    0.56
  -8  10   2    2.71    1.04
  -7  10   2   11.02    1.36
  -7  10   2   14.29    1.04
  -6  10   2   10.49    0.89
  -6  10   2   15.16    1.47
  -5  10   2   13.67    1.40
  -5  10   2   12.69    0.70
  -5  10   2   12.65    1.01
  -4  10   2   13.78    1.09
  -4  10   2   12.27    1.36
  -4  10   2   11.19    0.82
  -4  10   2   13.72    0.85
   3 -10  -2   18.92    0.88
   3 -10  -2   20.80    1.11
  -3  10   2   19.24    1.11
  -3  10   2   18.56    1.04
  -3  10   2   16.26    1.48
   2 -10  -2    2.20    0.65
   2 -10  -2    2.65    0.52
  -2  10   2    2.65    0.65
  -2  10   2    2.66    1.03
  -2  10   2    3.05    0.63
   1 -10  -2   11.53    1.05
   1 -10  -2   11.93    0.91
  -1  10   2   11.85    1.00
  -1  10   2   12.08    1.00
  -1  10   2   11.21    1.33
   0 -10  -2   26.07    1.43
   0 -10  -2   25.09    1.46
   0  10   2   26.66    1.35
   0  10   2   27.26    1.84
  -1 -10  -2    8.93    1.00
  -1 -10  -2    8.69    1.09
   1  10   2   11.28    1.31
  -2 -10  -2   -0.77    0.74
  -2 -10  -2   -0.01    0.83
   2  10   2    0.36    0.89
  -3 -10  -2    0.55    0.90
  -3 -10  -2    1.96    1.00
   3  10   2    3.25    1.03
  -4 -10  -2    3.53    1.07
  -4 -10  -2    6.10    1.19
   4  10   2    6.08    1.10
  -5 -10  -2    4.84    1.24
  -5 -10  -2    4.56    1.18
   5  10   2    2.00    0.99
  -6 -10  -2   -1.90    1.12
  -6 -10  -2    1.75    1.16
   6  10   2   -0.34    0.91
  -7 -10  -2    0.01    1.23
  -7 -10  -2    0.07    1.20
   7  10   2   -0.53    0.91
  -8 -10  -2   -0.59    1.18
  -8 -10  -2    0.42    1.26
  -9 -10  -2   -0.21    1.37
  -9 -10  -2   -0.28    1.39
 -10 -10  -2    1.48    1.52
 -10 -10  -2    0.76    1.50
 -11 -10  -2    0.35    1.61
 -11 -10  -2    1.95    1.46
 -12 -10  -2    0.21    1.62
 -12 -10  -2   -0.66    1.63
 -22  11   2    1.44    1.54
  21 -11  -2    1.63    1.29
 -21  11   2    0.76    1.36
  20 -11  -2   -0.78    1.06
 -20  11   2    2.57    1.65
 -20  11   2    0.21    1.27
  19 -11  -2    3.05    1.19
 -19  11   2    2.92    1.64
 -19  11   2    5.84    1.35
  18 -11  -2   -0.30    1.02
 -18  11   2    0.71    1.54
 -18  11   2    0.03    1.09
  17 -11  -2    2.59    1.10
 -17  11   2    1.01    0.82
 -17  11   2    2.34    1.10
 -17  11   2    0.10    1.41
  16 -11  -2    1.23    0.97
 -16  11   2   -1.65    1.27
 -16  11   2    1.05    0.96
 -16  11   2    0.11    0.69
  15 -11  -2    3.35    1.01
 -15  11   2    4.04    0.72
 -15  11   2    2.99    1.45
 -15  11   2    3.53    0.98
 -14  11   2    1.68    0.83
 -14  11   2    1.99    0.57
 -14  11   2    1.00    1.31
  13 -11  -2   -0.21    0.37
 -13  11   2    0.32    0.68
 -13  11   2    0.67    1.19
 -12  11   2   -0.25    1.13
 -12  11   2    0.26    0.59
 -11  11   2    3.27    0.76
 -11  11   2    5.28    1.31
  10 -11  -2    7.92    0.87
 -10  11   2   10.20    0.93
 -10  11   2    9.00    1.41
   9 -11  -2    4.26    0.74
  -9  11   2    4.37    0.71
  -9  11   2    4.11    1.18
  -8  11   2    4.92    1.20
  -8  11   2    3.47    0.64
  -7  11   2    2.28    1.13
  -7  11   2    3.20    0.66
  -6  11   2   11.82    0.97
  -6  11   2   13.30    1.50
  -6  11   2   11.94    0.54
  -5  11   2    2.04    0.44
  -5  11   2    1.27    0.65
  -5  11   2    2.06    0.45
  -5  11   2    0.80    1.00
  -4  11   2    0.32    0.97
  -4  11   2    0.21    0.45
  -4  11   2    0.63    0.47
  -4  11   2   -0.28    0.65
  -3  11   2   23.15    1.85
  -3  11   2   25.64    1.30
  -3  11   2   25.66    1.28
   2 -11  -2    2.56    0.74
   2 -11  -2    3.33    0.61
  -2  11   2    4.66    1.12
  -2  11   2    4.74    0.74
  -2  11   2    4.33    0.75
   1 -11  -2    1.19    0.61
   1 -11  -2    0.79    0.75
  -1  11   2    0.81    0.97
  -1  11   2    0.98    0.64
   0 -11  -2    3.53    0.80
   0 -11  -2    2.62    0.87
   0  11   2    3.44    1.11
  -1 -11  -2    6.79    1.13
  -1 -11  -2    8.44    1.04
   1  11   2    7.88    1.26
  -2 -11  -2    3.65    0.98
  -2 -11  -2    2.83    1.09
   2  11   2    4.26    1.12
  -3 -11  -2    2.99    1.03
  -3 -11  -2   -0.02    0.96
   3  11   2    1.57    1.03
  -4 -11  -2   17.46    1.63
  -4 -11  -2   15.65    1.67
   4  11   2   14.21    1.49
  -5 -11  -2    3.42    1.25
  -5 -11  -2    1.25    1.13
   5  11   2    1.67    1.07
  -6 -11  -2    3.32    1.39
  -6 -11  -2    3.06    1.37
   6  11   2    4.45    1.14
  -7 -11  -2   -0.65    1.25
  -7 -11  -2    0.46    1.38
  -8 -11  -2    1.79    1.47
  -8 -11  -2    0.14    1.36
  -9 -11  -2   -0.15    1.41
  -9 -11  -2    1.39    1.51
 -10 -11  -2   -0.38    1.51
 -10 -11  -2   -0.97    1.54
 -11 -11  -2    5.07    1.84
 -11 -11  -2    1.09    1.63
 -21  12   2    2.79    1.38
 -21  12   2   -0.80    1.67
  20 -12  -2   -0.44    1.06
 -20  12   2    2.01    1.30
 -20  12   2    0.39    1.64
  19 -12  -2   -0.68    1.05
 -19  12   2   -0.13    1.11
 -19  12   2    1.26    1.62
  18 -12  -2   -0.27    1.05
 -18  12   2   -1.06    0.98
 -18  12   2    3.11    1.61
  17 -12  -2    1.60    1.09
 -17  12   2    1.20    1.03
 -17  12   2    2.99    1.51
  16 -12  -2    1.76    0.98
 -16  12   2    0.36    0.92
 -16  12   2    1.92    1.49
  15 -12  -2    2.28    0.92
 -15  12   2    2.78    0.92
 -15  12   2    2.35    1.43
 -14  12   2    0.77    1.32
 -14  12   2    0.94    0.73
 -13  12   2    1.78    0.68
 -13  12   2   -0.79    1.24
 -12  12   2    1.22    0.70
 -12  12   2    1.35    1.26
 -11  12   2    6.87    1.48
 -11  12   2    9.25    0.96
  10 -12  -2    0.12    0.60
 -10  12   2    0.44    0.60
 -10  12   2    1.48    1.13
  -9  12   2    0.85    0.59
  -9  12   2    2.02    1.20
  -8  12   2    1.27    0.60
  -8  12   2    0.60    1.14
  -7  12   2   -0.12    0.57
  -7  12   2    0.11    1.12
  -6  12   2   28.21    2.00
  -6  12   2   29.73    1.47
  -6  12   2   26.66    1.00
  -5  12   2    7.49    0.90
  -5  12   2    7.36    0.67
  -5  12   2    6.71    0.62
  -5  12   2    7.76    1.35
  -4  12   2    0.70    0.52
  -4  12   2    0.29    0.76
  -4  12   2    0.30    0.50
  -4  12   2    0.05    1.03
  -3  12   2   14.11    1.03
  -3  12   2   13.89    1.54
  -3  12   2   11.85    0.98
   2 -12  -2    2.08    0.64
  -2  12   2    2.62    0.73
  -2  12   2    2.97    0.71
  -2  12   2    2.34    1.09
   1 -12  -2    1.32    0.79
   1 -12  -2    0.87    0.67
  -1  12   2    0.61    1.02
   0 -12  -2    2.92    0.81
   0 -12  -2    0.97    0.92
   0  12   2    0.36    1.03
  -1 -12  -2    1.01    0.82
  -1 -12  -2    1.82    0.99
   1  12   2   -0.10    1.08
  -2 -12  -2    2.38    0.99
  -2 -12  -2    3.03    1.17
   2  12   2    3.11    1.19
  -3 -12  -2   23.96    1.93
  -3 -12  -2   21.64    1.76
   3  12   2   19.22    1.76
  -4 -12  -2    1.52    1.10
  -4 -12  -2    1.98    1.20
   4  12   2    1.02    1.12
  -5 -12  -2   -0.83    1.13
  -5 -12  -2    0.98    1.24
   5  12   2   -0.56    1.08
  -6 -12  -2    2.58    1.38
  -6 -12  -2    4.07    1.44
   6  12   2    0.67    1.11
  -7 -12  -2   -0.29    1.29
  -7 -12  -2    0.85    1.37
  -8 -12  -2    1.16    1.41
  -8 -12  -2    0.27    1.49
  -9 -12  -2    2.69    1.56
  -9 -12  -2    0.67    1.50
 -10 -12  -2    1.17    1.58
 -10 -12  -2    0.91    1.63
 -21  13   2   -1.63    1.64
 -20  13   2    2.89    1.81
  19 -13  -2    0.31    1.11
 -19  13   2    2.77    1.65
 -19  13   2    1.28    1.07
  18 -13  -2    2.28    1.09
 -18  13   2   -1.22    1.42
 -18  13   2    2.66    1.09
  17 -13  -2    2.64    1.08
 -17  13   2    1.58    0.97
 -17  13   2    4.31    1.68
  16 -13  -2    1.27    0.97
 -16  13   2    0.19    1.49
 -16  13   2    1.16    0.86
 -15  13   2    1.28    1.46
 -15  13   2    0.32    0.76
 -14  13   2    3.05    0.78
 -14  13   2    3.56    1.51
 -13  13   2    1.19    1.32
 -12  13   2    1.25    0.71
 -12  13   2    0.09    1.22
  11 -13  -2    4.79    0.82
 -11  13   2    0.98    1.28
 -11  13   2    3.17    0.74
 -10  13   2    2.80    0.69
 -10  13   2    2.46    1.32
  -9  13   2    4.14    1.29
  -9  13   2    4.43    0.71
  -8  13   2    1.70    1.23
  -8  13   2    0.28    0.59
  -7  13   2    2.59    1.26
  -7  13   2    3.71    0.72
  -6  13   2   17.88    0.90
  -6  13   2   18.97    1.81
  -6  13   2   20.06    1.31
  -5  13   2   22.03    1.15
  -5  13   2   24.33    1.99
  -5  13   2   25.00    1.20
  -5  13   2   24.45    1.53
  -4  13   2    2.38    1.25
  -4  13   2    2.05    0.62
  -4  13   2    2.13    0.60
  -3  13   2    2.95    0.73
  -3  13   2    4.18    1.25
  -3  13   2    2.19    0.68
  -2  13   2    1.39    1.18
   1 -13  -2    1.65    0.77
  -1  13   2    0.71    1.23
   0 -13  -2    1.72    1.01
   0 -13  -2    0.84    0.82
   0  13   2    1.09    1.14
  -1 -13  -2    5.25    1.20
  -1 -13  -2    7.19    1.17
   1  13   2    5.65    1.36
  -2 -13  -2   14.68    1.64
  -2 -13  -2   15.59    1.51
   2  13   2   13.24    1.63
  -3 -13  -2    0.69    1.03
  -3 -13  -2   -0.80    1.09
   3  13   2    0.11    1.18
  -4 -13  -2    2.53    1.22
  -4 -13  -2    2.53    1.28
   4  13   2    1.64    1.23
  -5 -13  -2   -0.48    1.12
  -5 -13  -2    2.18    1.34
   5  13   2    1.06    1.20
  -6 -13  -2    1.87    1.38
  -6 -13  -2    4.85    1.57
  -7 -13  -2    4.80    1.52
  -7 -13  -2    4.93    1.51
  -8 -13  -2    1.54    1.61
  -8 -13  -2    2.66    1.62
 -21  14   2    0.01    1.66
 -20  14   2    1.23    1.65
 -19  14   2    3.30    1.76
  18 -14  -2    2.59    1.08
 -18  14   2    1.21    1.64
  17 -14  -2    1.05    0.99
 -17  14   2    0.53    1.53
 -16  14   2    6.31    1.73
 -15  14   2    4.23    1.58
 -14  14   2    1.74    1.46
 -13  14   2    5.81    1.59
 -12  14   2    3.96    1.54
 -12  14   2    1.71    0.71
 -11  14   2    1.88    1.36
 -11  14   2    0.79    0.63
 -10  14   2    5.49    1.49
 -10  14   2    4.91    0.74
  -9  14   2    1.59    1.34
  -9  14   2    1.13    0.61
  -8  14   2   -0.21    0.58
  -8  14   2   -0.02    1.23
  -7  14   2    9.15    0.92
  -7  14   2   10.39    1.60
  -6  14   2    0.80    0.51
  -6  14   2    0.72    0.73
  -6  14   2    1.48    1.31
  -6  14   2    1.56    0.48
  -5  14   2   13.27    1.03
  -5  14   2   13.80    1.03
  -5  14   2   14.77    1.75
  -5  14   2   15.42    1.23
  -4  14   2    0.93    1.26
  -4  14   2    0.45    0.64
  -4  14   2   -0.27    0.58
  -3  14   2    2.25    1.34
  -2  14   2    1.49    1.32
  -1  14   2    1.89    1.29
   0 -14  -2    2.43    0.98
   0  14   2    2.68    1.33
  -1 -14  -2    0.82    0.94
   1  14   2    1.10    1.22
  -2 -14  -2    3.38    1.20
  -2 -14  -2    5.03    1.33
   2  14   2    4.59    1.40
  -3 -14  -2    3.32    1.20
  -3 -14  -2    0.67    1.31
   3  14   2    2.24    1.30
  -4 -14  -2    1.59    1.24
  -4 -14  -2    1.80    1.42
   4  14   2    0.18    1.27
  -5 -14  -2    1.48    1.29
  -5 -14  -2    1.52    1.39
  -6 -14  -2   -1.42    1.33
  -6 -14  -2    0.65    1.40
  -7 -14  -2    1.29    1.55
  -7 -14  -2    2.87    1.54
 -21  15   2   -0.95    1.76
 -20  15   2    0.75    1.78
 -19  15   2   -0.27    1.66
 -18  15   2    6.57    1.88
 -17  15   2    1.67    1.61
 -16  15   2    1.34    1.57
 -15  15   2    5.45    1.70
 -14  15   2    2.80    1.61
 -13  15   2   14.35    2.03
 -12  15   2   22.81    2.27
 -12  15   2   20.47    1.29
 -11  15   2   16.54    2.03
 -11  15   2   16.08    1.16
 -10  15   2    1.91    1.44
 -10  15   2    2.56    0.69
  -9  15   2    7.36    1.55
  -9  15   2    9.59    0.87
  -8  15   2    2.48    0.69
  -8  15   2    2.34    1.34
  -7  15   2   20.04    2.08
  -7  15   2   22.64    1.37
  -6  15   2   21.96    2.08
  -6  15   2   25.31    1.53
  -5  15   2    2.38    0.88
  -5  15   2    1.38    1.38
  -4  15   2    2.63    1.43
  -3  15   2    1.88    1.39
  -2  15   2    0.36    1.37
  -1  15   2    3.70    1.39
   0  15   2    4.77    1.52
  -1 -15  -2    5.33    1.18
   1  15   2    1.52    1.41
  -2 -15  -2   -1.11    1.01
   2  15   2    0.54    1.29
  -3 -15  -2    0.33    1.18
   3  15   2    0.76    1.32
  -4 -15  -2    0.48    1.25
   4  15   2    0.91    1.33
  -5 -15  -2    3.66    1.46
  -6 -15  -2    2.55    1.49
 -21  16   2    0.26    1.81
 -20  16   2    2.07    1.78
 -19  16   2    3.84    1.88
 -18  16   2    0.93    1.64
 -17  16   2    1.89    1.69
 -16  16   2   -0.75    1.56
 -15  16   2    4.08    1.70
 -14  16   2    7.17    1.80
 -13  16   2    0.92    1.53
 -12  16   2    0.72    1.47
 -11  16   2    0.20    1.43
 -10  16   2   -0.51    1.41
  -9  16   2    3.11    0.69
  -9  16   2    1.17    1.51
  -8  16   2    5.71    1.52
  -8  16   2    4.06    0.77
  -7  16   2    7.45    0.92
  -7  16   2    3.87    1.61
  -6  16   2    1.36    1.47
  -6  16   2   -0.30    0.73
  -5  16   2    2.34    1.52
  -5  16   2   -1.71    0.82
  -4  16   2    1.83    1.48
  -3  16   2    1.02    1.45
  -2  16   2    6.81    1.69
  -1  16   2    2.48    1.53
   0  16   2    3.57    1.43
   1  16   2    0.99    1.47
   2  16   2   -0.90    1.45
   3  16   2    2.41    1.47
 -20  17   2    2.77    1.95
 -19  17   2    2.76    1.94
 -18  17   2    3.91    1.88
 -17  17   2    2.67    1.75
 -16  17   2    3.45    1.77
 -15  17   2   -0.47    1.62
 -14  17   2    1.98    1.65
 -13  17   2    0.67    1.58
 -12  17   2    1.44    1.62
 -11  17   2   -0.37    1.55
 -10  17   2    2.10    1.59
  -9  17   2    8.73    1.83
  -8  17   2   -2.24    1.40
  -7  17   2    3.24    1.64
  -6  17   2    1.74    1.56
  -5  17   2    0.81    1.56
  -4  17   2    0.61    1.51
  -3  17   2    0.77    1.50
  -2  17   2    3.09    1.62
  -1  17   2    0.92    1.59
   0  17   2    0.22    1.48
   1  17   2   -0.56    1.52
   2  17   2   -0.56    1.53
 -20  18   2   -0.01    1.86
 -19  18   2   -2.65    1.75
 -18  18   2    0.32    1.79
 -17  18   2    0.95    1.82
 -16  18   2   -0.50    1.68
 -15  18   2   -0.75    1.63
 -14  18   2   -2.81    1.55
 -13  18   2   -0.34    1.62
 -12  18   2    2.13    1.74
 -11  18   2   -0.64    1.50
 -10  18   2   -1.01    1.54
  -9  18   2    0.80    1.65
  -8  18   2    6.13    1.86
  -7  18   2    1.13    1.65
  -6  18   2   -0.67    1.59
  -5  18   2    0.30    1.55
  -4  18   2    1.54    1.66
  -3  18   2    3.63    1.75
  -2  18   2    0.11    1.63
  -1  18   2    2.44    1.71
   0  18   2    1.76    1.72
   1  18   2    1.50    1.68
 -19  19   2   -0.44    1.90
 -18  19   2    0.84    1.93
 -17  19   2    1.15    1.91
 -16  19   2    3.16    1.93
 -15  19   2    0.67    1.81
 -14  19   2   -0.64    1.66
 -13  19   2    0.06    1.62
 -12  19   2    0.65    1.74
 -11  19   2   -1.43    1.67
 -10  19   2    2.69    1.78
  -9  19   2    0.95    1.76
  -8  19   2    1.47    1.77
  -7  19   2   -1.11    1.61
  -6  19   2   -1.98    1.60
  -5  19   2   -0.44    1.63
  -4  19   2    1.27    1.75
  -3  19   2    3.87    1.84
  -2  19   2    3.11    1.87
  -1  19   2    2.67    1.84
   0  19   2   -0.92    1.70
 -18  20   2   -2.94    1.71
 -17  20   2   -1.07    1.77
 -16  20   2    2.74    2.05
 -15  20   2   -2.50    1.78
 -14  20   2    2.24    1.91
 -13  20   2   -1.10    1.68
 -12  20   2    1.37    1.85
 -11  20   2    0.72    1.85
 -10  20   2    2.49    1.90
  -9  20   2    0.18    1.84
  -8  20   2   -0.43    1.74
  -7  20   2    1.81    1.80
  -6  20   2    1.64    1.75
  -5  20   2    1.64    1.86
  -4  20   2    4.24    1.98
  -3  20   2    0.51    1.80
 -16  21   2    1.55    2.03
 -15  21   2    1.02    1.98
 -14  21   2    1.77    2.03
 -13  21   2    2.09    1.90
 -12  21   2    2.08    2.01
 -11  21   2    0.55    1.98
 -10  21   2    1.82    1.97
  -9  21   2   -0.44    1.83
  -8  21   2   -0.43    1.86
  -7  21   2   -0.19    1.92
  -6  21   2    0.42    1.91
  -5  21   2    0.96    1.99
 -11  22   2    4.52    2.25
  -6  21  -3    7.86    2.24
  -7  21  -3    1.36    1.90
  -8  21  -3    6.86    2.20
  -9  21  -3   13.41    2.40
 -10  21  -3   -1.78    1.87
 -11  21  -3    1.70    1.93
 -12  21  -3   -0.43    1.90
 -13  21  -3    3.49    2.14
 -14  21  -3    0.63    1.96
 -15  21  -3    5.89    2.23
  -3  20  -3    2.67    2.00
  -4  20  -3    4.81    2.05
  -5  20  -3   13.60    2.41
  -6  20  -3    4.27    1.93
  -7  20  -3    3.42    1.90
  -8  20  -3    1.28    1.84
  -9  20  -3    6.00    2.00
 -10  20  -3    1.14    1.90
 -11  20  -3    7.43    2.14
 -12  20  -3    3.14    1.98
 -13  20  -3    1.41    1.97
 -14  20  -3   10.25    2.24
 -15  20  -3    2.09    2.00
 -16  20  -3    4.37    2.14
 -17  20  -3    2.91    2.12
  -1  19  -3   -0.43    1.53
  -2  19  -3    1.73    1.58
  -3  19  -3    9.83    2.02
  -4  19  -3    6.21    1.88
  -5  19  -3   -1.29    1.58
  -6  19  -3    1.69    1.78
  -7  19  -3    2.91    1.80
  -8  19  -3    2.63    1.73
  -9  19  -3   -0.49    1.58
 -10  19  -3    6.04    1.92
 -11  19  -3    0.44    1.67
 -12  19  -3   -1.47    1.78
 -13  19  -3    1.54    1.84
 -14  19  -3    2.83    1.93
 -15  19  -3   11.75    2.23
 -16  19  -3    6.02    2.16
 -17  19  -3   11.18    2.17
 -18  19  -3   -0.29    1.88
   1  18  -3   -0.13    1.51
   0  18  -3    1.98    1.61
  -1  18  -3   -0.28    1.51
  -2  18  -3   43.83    3.08
  -3  18  -3   14.61    2.08
  -4  18  -3    2.51    1.58
  -5  18  -3    9.23    1.92
  -6  18  -3   -0.33    1.52
  -7  18  -3    0.70    1.66
  -8  18  -3   -0.37    1.55
  -9  18  -3   17.79    2.29
 -10  18  -3    2.37    1.65
 -11  18  -3    3.81    1.82
 -12  18  -3    4.07    1.89
 -13  18  -3    3.52    1.86
 -14  18  -3    0.86    1.82
 -15  18  -3    0.79    1.71
 -16  18  -3    2.51    1.94
 -17  18  -3    2.62    1.96
 -18  18  -3   -1.98    1.75
 -19  18  -3    1.02    1.79
   3  17  -3    3.20    1.61
   2  17  -3    4.75    1.65
   1  17  -3    2.02    1.56
   0  17  -3   10.93    1.92
  -2  17  -3   -0.67    1.38
  -3  17  -3    1.26    1.47
  -4  17  -3    0.04    1.44
  -5  17  -3   16.15    2.08
  -6  17  -3    5.79    1.69
  -7  17  -3   37.24    2.89
   7 -17   3   33.17    1.83
  -8  17  -3   67.06    3.86
   8 -17   3   71.15    2.60
  -9  17  -3    6.26    1.84
 -10  17  -3    9.44    1.83
 -11  17  -3    1.22    1.65
 -12  17  -3   35.94    2.91
 -13  17  -3   16.40    2.21
 -14  17  -3    5.21    1.91
 -15  17  -3   18.08    2.23
 -16  17  -3   -0.34    1.69
 -17  17  -3   14.24    2.18
 -18  17  -3    2.19    1.84
 -19  17  -3    3.43    1.82
 -20  17  -3    0.50    1.78
   4  16  -3    4.56    1.69
   3  16  -3    0.01    1.48
   2  16  -3    1.12    1.48
   1  16  -3   -0.72    1.36
   0  16  -3   -0.22    1.38
  -2  16  -3    1.67    1.34
  -3  16  -3    0.33    1.38
  -4  16  -3    6.42    1.69
  -5  16  -3   -0.47    1.39
   5 -16   3    1.48    0.91
  -6  16  -3   17.76    2.11
   6 -16   3   17.13    1.42
  -7  16  -3    2.90    1.46
   7 -16   3    3.98    0.89
  -8  16  -3   21.48    2.36
   8 -16   3   27.39    1.55
  -9  16  -3    9.94    1.90
   9 -16   3   11.49    1.06
 -10  16  -3   36.52    2.79
  10 -16   3   37.07    1.67
 -11  16  -3   36.71    2.82
 -12  16  -3    0.76    1.61
 -13  16  -3    0.03    1.58
 -14  16  -3   -1.49    1.56
 -15  16  -3    7.88    1.97
 -16  16  -3    3.46    1.73
 -17  16  -3   35.32    2.92
 -18  16  -3   37.74    3.00
 -19  16  -3   14.17    2.17
 -20  16  -3    4.77    1.92
  -2  15  -3    1.18    1.40
  -3  15  -3   -0.04    1.33
  -4  15  -3    0.02    1.25
   4 -15   3   -0.06    0.95
  -5  15  -3   47.99    3.02
   5 -15   3   50.76    2.23
  -6  15  -3    2.35    1.46
   6 -15   3    1.86    0.87
  -7  15  -3    8.21    1.69
   7 -15   3    6.93    0.97
  -8  15  -3   12.68    1.86
   8 -15   3   10.47    1.04
  -9  15  -3   -0.94    1.39
   9 -15   3    0.83    0.67
 -10  15  -3    3.77    1.48
  10 -15   3    2.97    0.74
 -11  15  -3   14.36    1.96
  11 -15   3   14.51    1.10
 -12  15  -3   -1.07    1.44
 -12  15  -3    1.40    0.80
  12 -15   3    1.62    0.65
 -13  15  -3    1.62    1.55
 -13  15  -3    1.22    0.84
 -14  15  -3    1.34    0.87
 -14  15  -3    0.20    1.57
 -15  15  -3    7.46    1.15
 -15  15  -3    6.71    1.73
 -16  15  -3   13.67    1.92
 -16  15  -3   11.38    1.38
 -17  15  -3   -0.22    1.55
 -17  15  -3   -0.05    1.01
 -18  15  -3   17.69    2.20
 -19  15  -3    6.78    1.80
 -20  15  -3   12.97    2.11
   2 -14   3   52.91    2.47
   3 -14   3   11.30    1.33
   4 -14   3   53.57    2.33
  -5  14  -3    4.33    1.38
   5 -14   3    7.96    1.04
  -6  14  -3   17.81    2.00
   6 -14   3   20.79    1.44
   6 -14   3   20.21    1.25
  -7  14  -3    0.65    1.28
   7 -14   3    2.11    0.55
   7 -14   3    0.48    0.71
  -8  14  -3   41.91    2.69
   8 -14   3   39.95    1.45
   8 -14   3   43.52    1.84
  -9  14  -3   13.03    1.87
   9 -14   3   13.16    1.04
 -10  14  -3   15.38    1.86
  10 -14   3   14.79    1.15
 -11  14  -3   72.06    3.56
  11 -14   3   73.78    2.48
 -12  14  -3   12.56    1.20
 -12  14  -3    9.93    1.75
  12 -14   3   11.23    0.97
 -13  14  -3    1.58    1.52
 -13  14  -3    3.18    0.92
  13 -14   3    2.11    0.72
 -14  14  -3    0.16    1.41
 -14  14  -3    0.74    0.89
 -15  14  -3   24.19    2.30
 -15  14  -3   23.98    1.74
 -16  14  -3    1.25    1.52
 -16  14  -3   -0.58    0.98
 -16  14  -3   -0.05    0.91
 -17  14  -3    0.45    1.07
 -17  14  -3    1.60    1.03
 -17  14  -3    2.95    1.63
 -18  14  -3    2.72    1.54
 -18  14  -3    3.58    1.21
 -19  14  -3   -0.67    1.43
 -19  14  -3    0.96    1.16
 -20  14  -3   -1.19    1.22
 -20  14  -3    1.88    1.50
 -21  14  -3    6.66    1.58
   6  13  -3    4.00    1.64
   5  13  -3    1.65    1.50
   4  13  -3   16.86    1.98
   3  13  -3    2.81    1.33
   1 -13   3   -0.14    0.90
  -2  13  -3    3.63    0.67
   2 -13   3    3.77    1.01
  -3  13  -3    2.60    0.53
   3 -13   3    1.07    0.86
  -4  13  -3   72.62    2.15
   4 -13   3   75.66    2.76
  -5  13  -3    3.11    1.30
   5 -13   3    4.53    0.92
   5 -13   3    5.28    0.73
  -6  13  -3    2.20    1.21
   6 -13   3    1.11    0.71
   6 -13   3    2.45    0.58
  -7  13  -3   16.65    1.89
   7 -13   3   16.75    1.25
   7 -13   3   16.84    0.97
  -8  13  -3    5.00    1.41
   8 -13   3    4.55    0.78
  -9  13  -3    3.85    1.39
   9 -13   3    2.89    0.72
 -10  13  -3   -1.03    1.17
  10 -13   3    0.61    0.63
 -11  13  -3   73.48    3.53
  11 -13   3   73.04    2.53
 -12  13  -3   37.69    1.93
 -12  13  -3   33.41    2.53
  12 -13   3   32.82    1.62
 -13  13  -3   31.56    2.48
 -13  13  -3   30.09    1.79
 -14  13  -3   47.05    2.77
 -14  13  -3   39.58    2.19
 -15  13  -3    0.96    1.43
 -15  13  -3    2.95    1.01
 -15  13  -3    1.96    0.94
 -16  13  -3    0.60    0.91
 -16  13  -3    2.11    1.46
 -16  13  -3    0.22    1.03
 -17  13  -3   -0.44    0.93
 -17  13  -3    0.76    1.08
 -17  13  -3   -1.66    1.35
 -18  13  -3    9.05    1.54
 -18  13  -3   11.38    1.39
 -18  13  -3    5.90    1.63
 -19  13  -3    0.17    1.24
 -19  13  -3    0.61    1.48
 -20  13  -3    2.98    1.40
 -21  13  -3    9.58    1.78
   9  12  -3    0.58    1.66
   8  12  -3    6.00    1.87
   7  12  -3    4.60    1.67
   6  12  -3    8.68    1.79
   5  12  -3   32.46    2.58
   4  12  -3    0.98    1.26
   3  12  -3    3.16    1.30
   2  12  -3   10.63    1.53
   1  12  -3   35.83    2.24
   0  12  -3    0.30    1.03
   0 -12   3    0.22    0.95
   1 -12   3    4.31    1.04
  -2  12  -3    7.14    0.73
   2 -12   3    5.58    1.03
  -3  12  -3   17.86    0.95
   3 -12   3   15.77    1.33
  -4  12  -3   56.56    1.69
   4 -12   3   55.05    2.10
   4 -12   3   57.57    2.25
   5 -12   3   19.42    1.17
   5 -12   3   19.86    1.31
  -6  12  -3    2.88    1.21
   6 -12   3    5.85    0.85
   6 -12   3    5.65    0.61
  -7  12  -3   13.87    1.65
   7 -12   3   12.92    1.02
   7 -12   3   12.07    0.76
  -8  12  -3    6.69    1.38
   8 -12   3    6.65    0.83
  -9  12  -3   -1.14    1.09
   9 -12   3    1.91    0.66
 -10  12  -3   58.13    2.98
  10 -12   3   58.72    2.16
 -11  12  -3   -0.95    1.17
 -11  12  -3    1.28    0.85
 -12  12  -3    0.96    1.31
 -12  12  -3    0.37    0.79
  12 -12   3    0.38    0.39
 -13  12  -3    0.81    0.89
 -13  12  -3    0.83    1.31
 -14  12  -3   48.11    2.36
 -14  12  -3   47.19    2.84
 -15  12  -3    6.06    1.49
 -15  12  -3    5.68    1.21
 -15  12  -3    5.43    1.11
 -16  12  -3    5.99    1.53
 -16  12  -3    5.37    1.20
 -16  12  -3    6.50    1.32
 -17  12  -3   16.81    1.58
 -17  12  -3   14.91    1.91
 -17  12  -3   15.16    1.67
 -18  12  -3   -0.05    1.24
 -18  12  -3   -0.02    1.10
 -18  12  -3    0.28    1.12
 -19  12  -3   -0.16    1.12
 -19  12  -3    1.68    1.28
 -19  12  -3    2.77    1.39
 -20  12  -3    0.70    1.16
 -20  12  -3   -0.12    1.38
 -21  12  -3   14.18    1.97
  10  11  -3   -1.22    1.64
   9  11  -3   13.32    2.05
   8  11  -3    0.08    1.48
   7  11  -3    4.11    1.61
   6  11  -3    0.18    1.36
   5  11  -3   34.65    2.51
   4  11  -3   17.47    1.86
   3  11  -3   72.00    3.19
   2  11  -3   70.79    3.07
   1  11  -3    0.70    1.00
  -1 -11   3    1.32    0.98
   0  11  -3   12.77    1.36
   0 -11   3   13.31    1.35
  -1  11  -3    6.26    0.72
  -1  11  -3    5.24    1.00
   1 -11   3    5.25    0.99
  -2  11  -3   43.42    1.60
   2 -11   3   42.77    1.98
  -3  11  -3    0.73    0.42
   3 -11   3    0.42    0.70
  -4  11  -3  116.35    3.17
   4 -11   3  117.93    3.53
   4 -11   3  124.16    3.76
   5 -11   3  142.35    4.26
   5 -11   3  144.42    4.03
   6 -11   3    9.03    0.90
   6 -11   3    7.47    0.60
  -7  11  -3   25.56    2.04
   7 -11   3   21.08    1.29
  -8  11  -3    1.39    1.10
   8 -11   3    1.04    0.63
  -9  11  -3   15.99    1.69
   9 -11   3   15.50    1.11
 -10  11  -3   19.79    1.82
  10 -11   3   18.62    0.73
 -11  11  -3   11.88    1.17
 -11  11  -3   11.15    1.56
  11 -11   3   10.36    0.74
 -12  11  -3    1.96    1.28
 -12  11  -3    2.88    0.96
  12 -11   3    2.46    0.53
 -13  11  -3    4.00    1.30
 -13  11  -3    4.16    1.05
  13 -11   3    4.04    0.68
 -14  11  -3   12.73    1.41
 -14  11  -3   11.43    1.30
 -14  11  -3   12.94    1.67
 -15  11  -3    0.58    1.28
 -15  11  -3    0.24    0.95
 -15  11  -3    0.39    0.95
 -16  11  -3    1.29    1.01
 -16  11  -3    0.97    1.21
 -16  11  -3    2.37    1.16
 -17  11  -3    8.44    1.49
 -17  11  -3    6.93    1.49
 -17  11  -3    7.49    1.31
 -18  11  -3   -0.46    1.09
 -18  11  -3   -0.54    1.23
 -18  11  -3    0.43    1.25
 -19  11  -3    3.77    1.41
 -19  11  -3    3.04    1.23
 -20  11  -3   10.91    1.82
 -20  11  -3    7.94    1.54
 -21  11  -3   -1.37    1.18
 -21  11  -3    0.36    1.38
  11  10  -3    3.66    1.81
  10  10  -3   -0.59    1.57
   9  10  -3    4.99    1.73
   8  10  -3    1.75    1.50
   7  10  -3    9.93    1.72
   6  10  -3   42.42    2.68
   5  10  -3    3.82    1.39
   4  10  -3   15.17    1.70
   3  10  -3   -0.57    1.03
   2  10  -3   62.51    2.85
  -2 -10   3   63.66    2.76
   1  10  -3   19.60    1.58
  -1 -10   3   18.90    1.46
   0  10  -3  121.45    3.84
   0 -10   3  103.90    3.73
  -1  10  -3  109.05    3.20
  -1  10  -3  103.66    3.47
   1 -10   3  104.82    3.53
  -2  10  -3   22.28    1.09
  -2  10  -3   23.90    1.47
   2 -10   3   24.57    1.43
  -3  10  -3  128.08    3.82
  -3  10  -3  121.99    3.35
   3 -10   3  118.80    3.76
   3 -10   3  117.28    3.61
  -4  10  -3    0.26    0.29
   4 -10   3   -0.07    0.47
   4 -10   3    0.96    0.66
   5 -10   3   85.55    2.84
   5 -10   3   89.79    2.59
   6 -10   3   28.68    1.39
  -7  10  -3  187.23    5.95
   7 -10   3  179.57    5.16
  -8  10  -3  138.73    4.75
   8 -10   3  133.14    4.01
  -9  10  -3   21.15    1.79
   9 -10   3   21.12    0.80
 -10  10  -3  119.76    4.21
  10 -10   3  108.70    3.14
 -11  10  -3    4.12    1.21
 -11  10  -3    6.51    1.00
  11 -10   3    5.96    0.64
 -12  10  -3    5.39    1.31
 -12  10  -3    6.18    1.06
  12 -10   3    6.49    0.75
 -13  10  -3    2.50    1.01
 -13  10  -3    2.92    1.22
 -14  10  -3   49.99    2.69
 -14  10  -3   51.46    2.31
 -14  10  -3   48.12    2.43
 -15  10  -3   51.60    2.73
 -15  10  -3   51.52    2.57
 -15  10  -3   48.54    2.42
 -16  10  -3   18.41    1.79
 -16  10  -3   15.80    1.73
 -16  10  -3   18.85    1.64
 -17  10  -3   34.21    2.36
 -17  10  -3   31.96    2.07
 -17  10  -3   32.70    2.30
 -18  10  -3   -0.59    1.04
 -18  10  -3   -1.40    1.11
 -18  10  -3   -0.12    1.12
 -19  10  -3   -0.54    1.09
 -19  10  -3   -0.31    1.22
 -20  10  -3    3.24    1.55
 -20  10  -3    3.27    1.37
 -21  10  -3    2.48    1.60
 -21  10  -3    2.75    1.44
  12   9  -3   11.87    2.19
  11   9  -3    7.23    1.75
  10   9  -3   -0.17    1.53
   9   9  -3   15.28    2.06
   8   9  -3    5.62    1.60
   7   9  -3   12.22    1.78
   6   9  -3    0.04    1.06
   5   9  -3   12.49    1.52
   4   9  -3    3.53    1.19
   3   9  -3    0.08    0.95
  -3  -9   3    2.00    0.93
   2   9  -3   17.78    1.53
  -2  -9   3   17.29    1.53
   1   9  -3   20.62    1.56
  -1  -9   3   20.86    1.46
   0   9  -3    0.52    0.74
   0   9  -3    0.28    0.52
   0  -9   3    1.04    0.80
  -1   9  -3    9.73    1.02
  -1   9  -3   10.02    0.79
   1  -9   3    8.48    1.03
  -2   9  -3   11.46    1.02
  -2   9  -3   11.34    0.85
  -2   9  -3   10.59    0.98
   2  -9   3   13.95    1.00
   2  -9   3   12.26    1.08
  -3   9  -3   55.64    2.00
  -3   9  -3   55.85    1.71
  -3   9  -3   55.69    2.16
   3  -9   3   56.48    2.12
   3  -9   3   56.88    1.96
  -4   9  -3  102.41    2.75
   4  -9   3  103.47    2.98
   4  -9   3  103.85    3.23
   5  -9   3    8.18    0.84
   6  -9   3   91.24    2.92
  -7   9  -3   -1.14    0.86
   7  -9   3    0.87    0.63
  -8   9  -3   28.24    1.93
   8  -9   3   25.06    0.92
  -9   9  -3    0.69    1.02
 -10   9  -3  111.06    3.68
 -10   9  -3  107.39    3.95
 -11   9  -3   43.35    2.42
 -11   9  -3   41.83    2.11
 -12   9  -3   19.05    1.63
 -12   9  -3   13.12    1.34
 -13   9  -3   73.93    3.16
 -13   9  -3   71.78    2.95
 -13   9  -3   74.01    2.86
 -14   9  -3    8.73    1.20
 -14   9  -3   11.27    1.48
 -14   9  -3   10.26    1.34
 -15   9  -3    3.00    1.18
 -15   9  -3    3.12    1.19
 -15   9  -3    1.32    1.04
 -16   9  -3    3.08    1.21
 -16   9  -3    3.64    1.21
 -16   9  -3    1.73    1.06
 -17   9  -3   62.24    3.12
 -17   9  -3   63.83    3.01
 -17   9  -3   63.31    2.90
 -18   9  -3   15.10    1.79
 -18   9  -3   18.56    2.02
 -19   9  -3    9.13    1.53
 -19   9  -3    6.92    1.71
 -20   9  -3   10.08    1.85
 -20   9  -3   12.79    1.73
 -21   9  -3    0.36    1.44
 -21   9  -3    0.38    1.33
  13   8  -3    9.89    2.08
  12   8  -3    0.29    1.60
  11   8  -3    2.52    1.62
  10   8  -3   -2.62    1.32
   9   8  -3   62.53    3.16
   8   8  -3   26.82    2.32
   7   8  -3   11.67    1.67
   6   8  -3   43.41    2.56
   5   8  -3    1.91    1.10
   4   8  -3    6.47    1.25
  -4  -8   3    7.03    1.22
   3   8  -3    0.94    0.93
  -3  -8   3   -0.13    0.78
   2   8  -3  140.29    4.40
  -2  -8   3  133.12    4.34
   1   8  -3   27.73    1.67
  -1  -8   3   29.60    1.70
   0   8  -3   57.95    2.29
   0   8  -3   64.36    2.10
   0  -8   3   60.10    2.36
  -1   8  -3   77.95    2.69
  -1   8  -3   81.38    2.77
  -1   8  -3   80.52    2.47
   1  -8   3   81.93    2.78
   1  -8   3   79.91    2.68
  -2   8  -3   29.07    1.15
  -2   8  -3   28.49    1.45
  -2   8  -3   27.27    1.35
   2  -8   3   26.41    1.44
   2  -8   3   29.42    1.35
  -3   8  -3    7.41    0.53
  -3   8  -3    6.88    0.71
   3  -8   3    7.70    0.84
   3  -8   3    6.74    0.65
  -4   8  -3   14.09    0.83
   4  -8   3   13.56    1.02
   5  -8   3   86.07    2.77
   6  -8   3    1.25    0.25
  -7   8  -3   13.66    1.31
  -8   8  -3   58.81    2.62
  -9   8  -3   10.25    1.25
 -10   8  -3   22.72    1.63
 -10   8  -3   24.96    1.83
 -11   8  -3    0.43    0.80
 -11   8  -3    1.40    0.97
 -12   8  -3   59.77    2.67
 -12   8  -3   53.95    2.47
 -13   8  -3    5.99    1.15
 -13   8  -3    5.51    1.11
 -13   8  -3    5.79    1.14
 -14   8  -3   18.00    1.61
 -14   8  -3   20.30    1.73
 -14   8  -3   19.86    1.65
 -15   8  -3   10.54    1.34
 -15   8  -3    5.36    1.17
 -15   8  -3    4.90    1.32
 -16   8  -3   27.06    2.01
 -16   8  -3   25.13    1.92
 -16   8  -3   25.04    2.10
 -17   8  -3    5.91    1.34
 -17   8  -3    5.28    1.45
 -17   8  -3    5.64    1.24
 -18   8  -3    1.70    1.22
 -18   8  -3    1.90    1.36
 -19   8  -3    1.04    1.42
 -19   8  -3   -2.23    1.08
 -20   8  -3    3.04    1.57
 -20   8  -3    5.32    1.52
 -21   8  -3    0.08    1.42
 -21   8  -3   -1.05    1.45
  14   7  -3    3.98    1.73
  13   7  -3    4.45    1.78
  12   7  -3    3.31    1.51
 -12  -7   3    2.74    1.66
  11   7  -3    0.00    1.38
 -11  -7   3    0.81    1.34
  10   7  -3   35.24    2.62
 -10  -7   3   34.31    2.48
   9   7  -3    2.04    1.38
  -9  -7   3    2.66    1.28
   8   7  -3    4.63    1.45
   7   7  -3   -1.60    1.07
   6   7  -3   16.10    1.58
   5   7  -3   11.63    1.39
  -5  -7   3   11.56    1.33
   4   7  -3   25.38    1.82
  -4  -7   3   22.01    1.56
   3   7  -3  185.98    5.51
  -3  -7   3  175.64    5.49
   2   7  -3   -0.43    0.76
  -2  -7   3    1.38    0.74
   1   7  -3   15.72    1.13
   1   7  -3   16.84    1.33
  -1  -7   3   15.48    1.26
   0   7  -3   46.13    1.92
   0   7  -3   49.99    1.75
   0   7  -3   45.28    1.99
   0  -7   3   48.49    2.01
   0  -7   3   47.24    1.88
  -1   7  -3  298.60    7.85
  -1   7  -3  295.98    8.13
  -1   7  -3  302.27    8.04
   1  -7   3  295.07    8.00
   1  -7   3  308.82    8.16
  -2   7  -3  111.91    3.53
  -2   7  -3  116.91    3.40
  -2   7  -3  115.07    3.22
   2  -7   3  119.39    3.38
   2  -7   3  119.06    3.55
  -3   7  -3  155.33    4.13
  -3   7  -3  155.42    4.24
   3  -7   3  156.78    4.48
   3  -7   3  156.08    4.10
  -4   7  -3   89.87    2.57
   4  -7   3   95.68    2.51
   4  -7   3   95.41    2.95
   5  -7   3    2.36    0.34
  -7   7  -3   48.05    2.23
  -8   7  -3   78.48    3.01
  -9   7  -3   11.52    1.18
 -10   7  -3  127.01    4.03
 -10   7  -3  117.19    4.10
 -11   7  -3  115.86    3.90
 -11   7  -3  114.46    3.93
 -12   7  -3   19.09    1.57
 -12   7  -3   19.65    1.50
 -12   7  -3   18.00    1.46
 -13   7  -3    0.47    0.95
 -13   7  -3    0.53    0.92
 -13   7  -3    0.52    0.90
 -14   7  -3    2.54    1.01
 -14   7  -3    1.33    0.93
 -14   7  -3   -0.47    1.00
 -15   7  -3   11.55    1.29
 -15   7  -3   11.74    1.44
 -15   7  -3   13.54    1.65
 -16   7  -3    8.17    1.37
 -16   7  -3    8.76    1.24
 -16   7  -3    9.60    1.56
 -17   7  -3   11.75    1.76
 -17   7  -3    7.50    1.43
 -18   7  -3    3.52    1.48
 -18   7  -3    4.35    1.43
 -19   7  -3    0.29    1.22
 -19   7  -3    0.47    1.40
 -20   7  -3   -1.37    1.26
 -20   7  -3    1.00    1.53
 -21   7  -3    1.09    1.42
 -21   7  -3    0.96    1.59
  15   6  -3    7.39    1.93
 -15  -6   3   12.67    2.26
  14   6  -3    2.50    1.61
 -14  -6   3   -2.47    1.47
  13   6  -3    3.23    1.50
 -13  -6   3    3.68    1.55
  12   6  -3    0.26    1.48
 -12  -6   3    1.91    1.39
  11   6  -3    7.07    1.66
 -11  -6   3    6.42    1.69
  10   6  -3   14.53    1.81
 -10  -6   3   17.06    2.01
   9   6  -3    1.00    1.29
  -9  -6   3    0.74    1.22
   8   6  -3   19.21    1.87
  -8  -6   3   22.09    1.99
   7   6  -3    1.68    1.16
  -7  -6   3    1.02    1.00
   6   6  -3    4.75    1.10
   5   6  -3    7.38    1.20
  -5  -6   3    9.46    1.24
   4   6  -3   28.36    1.81
  -4  -6   3   27.04    1.75
   3   6  -3   83.31    3.00
  -3  -6   3   88.84    3.06
   2   6  -3    0.53    0.74
   2   6  -3    1.36    0.62
  -2  -6   3    1.06    0.77
   1   6  -3  107.81    3.18
   1   6  -3  102.95    3.33
   1   6  -3  102.09    3.37
  -1  -6   3  108.21    3.43
  -1  -6   3  103.40    3.30
   0   6  -3   74.87    2.55
   0   6  -3   75.83    2.63
   0   6  -3   80.79    2.43
   0  -6   3   77.74    2.66
   0  -6   3   77.84    2.53
  -1   6  -3    8.54    0.83
  -1   6  -3    9.43    0.81
  -1   6  -3   10.92    0.79
   1  -6   3    8.46    0.76
   1  -6   3    8.56    0.88
  -2   6  -3    5.51    0.63
  -2   6  -3    4.89    0.51
   2  -6   3    6.16    0.53
   2  -6   3    6.22    0.77
  -3   6  -3    2.43    0.46
  -3   6  -3    2.11    0.43
   3  -6   3    3.63    0.70
   3  -6   3    1.99    0.38
  -4   6  -3   36.80    1.16
   4  -6   3   40.20    1.24
   5  -6   3   53.87    1.71
  -7   6  -3  309.95    8.91
  -8   6  -3   30.86    1.78
  -9   6  -3   55.94    2.35
  -9   6  -3   52.95    1.74
  -9   6  -3   51.99    2.22
 -10   6  -3    0.53    0.81
 -10   6  -3   -1.07    0.75
 -10   6  -3   -0.43    0.45
 -11   6  -3  133.22    4.28
 -11   6  -3  140.11    3.97
 -11   6  -3  131.77    4.35
 -11   6  -3  135.61    4.45
 -12   6  -3    5.95    1.13
 -12   6  -3    6.23    1.08
 -12   6  -3    7.02    0.81
 -12   6  -3    6.10    0.98
 -13   6  -3   17.03    1.33
 -13   6  -3   12.89    1.42
 -13   6  -3   16.35    1.56
 -14   6  -3   40.48    2.28
 -14   6  -3   42.35    2.10
 -14   6  -3   37.35    2.18
  14  -6   3   42.42    1.91
 -15   6  -3    0.15    1.00
 -15   6  -3   -0.94    1.06
 -15   6  -3   -0.85    0.79
 -16   6  -3   35.40    2.28
 -16   6  -3   33.38    1.98
 -16   6  -3   38.25    2.54
 -17   6  -3   -0.42    1.28
 -17   6  -3    1.62    1.21
 -18   6  -3    7.21    1.55
 -18   6  -3    7.86    1.73
 -19   6  -3    1.47    1.36
 -19   6  -3    2.71    1.58
 -20   6  -3   13.27    1.97
 -20   6  -3    9.44    2.00
 -21   6  -3    4.90    1.87
 -21   6  -3    4.72    1.68
  15   5  -3   12.94    2.20
 -15  -5   3   12.15    2.21
  14   5  -3   -0.37    1.45
 -14  -5   3    0.41    1.41
  13   5  -3    9.37    1.85
 -13  -5   3    9.36    1.89
  12   5  -3   16.23    2.09
 -12  -5   3   21.23    2.29
  11   5  -3   -1.16    1.24
 -11  -5   3   -0.51    1.24
  10   5  -3   56.22    2.85
 -10  -5   3   50.34    2.89
   9   5  -3    7.94    1.49
  -9  -5   3    9.94    1.59
   8   5  -3    6.58    1.34
  -8  -5   3    5.02    1.32
   7   5  -3   19.78    1.71
  -7  -5   3   19.90    1.73
  -6  -5   3  137.25    4.51
   5   5  -3   89.95    3.24
  -5  -5   3   82.44    3.12
   4   5  -3    7.21    1.07
  -4  -5   3    9.65    1.15
  -3  -5   3   85.57    2.96
   2   5  -3    1.13    0.57
   2   5  -3    1.95    0.67
   2   5  -3    0.86    0.72
   2   5  -3    1.61    0.64
  -2  -5   3    1.49    0.76
   1   5  -3   52.94    1.98
   1   5  -3   50.74    2.03
   1   5  -3   52.43    2.05
   1   5  -3   52.50    1.84
  -1  -5   3   52.86    1.99
  -1  -5   3   51.10    2.06
   0   5  -3  153.62    4.32
   0   5  -3  150.72    4.19
   0   5  -3  154.26    4.40
   0  -5   3  151.81    4.41
   0  -5   3  147.57    4.19
  -1   5  -3   32.83    1.39
  -1   5  -3   35.13    1.30
  -1   5  -3   35.27    1.55
   1  -5   3   35.87    1.27
   1  -5   3   33.98    1.55
  -2   5  -3   14.07    0.79
  -2   5  -3   13.69    0.85
   2  -5   3   12.84    0.75
   2  -5   3   12.03    0.92
  -3   5  -3    1.93    0.38
   3  -5   3    3.88    0.45
  -4   5  -3   60.48    1.63
   4  -5   3   57.24    1.84
  -6   5  -3   10.21    0.59
  -7   5  -3  120.28    3.82
  -7   5  -3  114.62    3.17
  -8   5  -3    6.80    0.91
  -8   5  -3    7.25    0.63
  -9   5  -3   98.09    3.38
  -9   5  -3   98.83    3.35
  -9   5  -3  103.68    2.99
 -10   5  -3   83.63    3.01
 -10   5  -3   86.11    3.17
 -10   5  -3   83.90    2.97
 -10   5  -3   89.42    2.78
 -11   5  -3    7.43    1.12
 -11   5  -3    8.85    0.91
 -11   5  -3    8.91    1.00
 -11   5  -3    6.30    1.05
 -12   5  -3   11.81    1.40
 -12   5  -3   12.27    1.11
 -12   5  -3   10.72    1.28
 -13   5  -3    4.12    0.87
 -13   5  -3    3.87    1.07
 -13   5  -3    4.29    1.16
  13  -5   3    3.92    0.86
 -14   5  -3   11.81    1.12
 -14   5  -3   10.90    1.45
 -14   5  -3   10.45    1.53
  14  -5   3   10.76    1.19
 -15   5  -3    1.44    1.02
 -15   5  -3    3.20    1.30
 -15   5  -3    3.02    0.83
 -16   5  -3   34.33    2.32
 -16   5  -3   34.84    2.51
 -17   5  -3   33.99    2.41
 -17   5  -3   39.53    2.72
 -18   5  -3    2.52    1.38
 -18   5  -3    3.89    1.59
 -19   5  -3    1.56    1.57
 -19   5  -3    2.91    1.45
 -20   5  -3    1.90    1.49
 -20   5  -3   -1.49    1.29
  16   4  -3    2.44    1.70
 -16  -4   3    7.12    1.97
  15   4  -3    5.95    1.91
 -15  -4   3   10.01    2.01
  14   4  -3    4.02    1.65
 -14  -4   3    1.32    1.41
  13   4  -3    0.90    1.32
 -13  -4   3   -0.98    1.31
  12   4  -3    6.70    1.58
 -12  -4   3    6.69    1.60
  11   4  -3    2.80    1.34
 -11  -4   3    0.36    1.24
  10   4  -3   53.54    2.83
 -10  -4   3   51.05    2.81
   9   4  -3   80.95    3.34
  -9  -4   3   75.07    3.26
   8   4  -3   53.98    2.66
  -8  -4   3   57.97    2.65
   7   4  -3  123.80    4.22
  -7  -4   3  118.83    4.22
   6   4  -3    0.14    0.81
  -6  -4   3    0.04    0.86
  -6  -4   3    0.21    0.84
   5   4  -3  102.31    3.48
  -5  -4   3  102.47    3.47
   4   4  -3   14.45    1.19
  -4  -4   3   14.84    1.24
   3   4  -3   98.35    3.15
   3   4  -3   86.52    2.94
   3   4  -3  100.11    3.11
   3   4  -3   95.25    3.16
  -3  -4   3   96.43    3.17
   2   4  -3   37.01    1.72
   2   4  -3   40.10    1.73
   2   4  -3   36.66    1.56
  -2  -4   3   40.50    1.61
  -2  -4   3   38.14    1.66
   1   4  -3   61.71    2.06
   1   4  -3   62.32    2.21
   1   4  -3   61.77    2.12
  -1  -4   3   62.03    2.16
  -1  -4   3   58.63    2.03
   0   4  -3  311.52    8.22
   0   4  -3  311.59    8.33
   0   4  -3  315.23    8.15
   0  -4   3  309.13    8.15
   0  -4   3  314.09    8.34
  -1   4  -3  232.76    6.19
  -1   4  -3  236.31    6.24
   1  -4   3  235.04    6.20
   1  -4   3  240.97    6.41
  -2   4  -3   23.48    1.02
   2  -4   3   23.25    1.24
   2  -4   3   23.66    0.97
   3  -4   3   11.05    0.80
  -5   4  -3   32.89    1.11
  -6   4  -3    5.08    0.50
  -7   4  -3  151.32    4.60
  -7   4  -3  156.12    4.21
  -8   4  -3   13.67    1.03
  -8   4  -3   16.46    1.34
  -8   4  -3   15.18    1.09
  -9   4  -3    9.05    0.89
  -9   4  -3    8.64    1.12
  -9   4  -3    8.95    0.85
 -10   4  -3   27.41    1.82
 -10   4  -3   27.82    1.73
 -10   4  -3   32.55    1.56
 -10   4  -3   30.07    1.53
 -11   4  -3   24.53    1.80
 -11   4  -3   21.51    1.62
 -11   4  -3   22.55    1.38
 -12   4  -3    6.72    1.25
 -12   4  -3    6.20    1.16
 -12   4  -3    5.65    0.81
 -13   4  -3    1.97    1.14
 -13   4  -3    1.75    0.70
 -13   4  -3    0.97    0.98
 -14   4  -3   15.12    1.65
 -14   4  -3   16.28    1.80
 -15   4  -3   14.22    1.80
 -15   4  -3   11.94    1.62
 -16   4  -3   -0.33    1.27
 -16   4  -3    0.33    1.19
 -17   4  -3   14.64    2.03
 -17   4  -3   17.67    1.95
 -18   4  -3    3.85    1.57
 -18   4  -3   -1.34    1.31
 -19   4  -3    8.18    1.95
 -19   4  -3    9.99    1.86
 -20   4  -3    6.60    1.80
 -20   4  -3    5.16    1.68
  17   3  -3    3.97    1.88
 -17  -3   3    4.14    1.89
  16   3  -3   10.64    2.09
 -16  -3   3    8.41    1.86
  15   3  -3   20.83    2.37
 -15  -3   3   13.40    2.11
  14   3  -3    0.44    1.33
 -14  -3   3    0.58    1.32
  13   3  -3    1.30    1.32
 -13  -3   3    0.76    1.31
  12   3  -3    6.86    1.55
 -12  -3   3    4.20    1.36
  11   3  -3   13.37    1.72
 -11  -3   3   11.35    1.59
  10   3  -3    1.62    1.15
 -10  -3   3    3.75    1.24
   9   3  -3   17.27    1.63
  -9  -3   3   15.32    1.62
   8   3  -3    0.42    0.90
  -8  -3   3    1.57    0.99
   7   3  -3  131.57    4.32
  -7  -3   3  126.57    4.29
  -7  -3   3  128.75    4.27
   6   3  -3   55.09    2.41
  -6  -3   3   57.13    2.41
  -6  -3   3   55.22    2.45
   5   3  -3    6.46    0.96
  -5  -3   3    5.78    0.89
   4   3  -3  159.04    4.65
   4   3  -3  163.39    4.79
   4   3  -3  153.04    4.71
  -4  -3   3  163.18    4.75
   3   3  -3    3.04    0.61
   3   3  -3    3.38    0.77
   3   3  -3    3.24    0.67
   3   3  -3    2.48    0.64
  -3  -3   3    1.81    0.61
  -3  -3   3    2.05    0.67
   2   3  -3    1.31    0.54
   2   3  -3    1.39    0.62
   2   3  -3    1.96    0.58
   2   3  -3    2.22    0.68
  -2  -3   3    2.54    0.63
  -2  -3   3    3.31    0.59
   1   3  -3   10.40    0.86
   1   3  -3   11.25    0.89
   1   3  -3   12.57    0.88
  -1  -3   3   12.80    0.91
  -1  -3   3   12.40    0.96
   0   3  -3  324.26    8.78
   0   3  -3  338.69    8.67
   0  -3   3  337.58    8.67
   0  -3   3  333.07    8.81
  -1   3  -3  252.65    6.52
   1  -3   3  250.64    6.69
   1  -3   3  240.82    6.49
   2  -3   3   20.40    1.00
  -5   3  -3   13.18    0.84
  -6   3  -3    2.17    0.52
  -7   3  -3   91.55    2.95
  -7   3  -3   89.02    3.15
  -7   3  -3   95.52    2.81
  -8   3  -3   86.65    3.12
  -8   3  -3   86.40    2.75
  -8   3  -3   83.72    2.73
  -9   3  -3   86.87    3.13
  -9   3  -3   88.08    2.83
  -9   3  -3   95.81    2.96
  -9   3  -3   87.92    3.24
 -10   3  -3  175.23    4.97
 -10   3  -3  167.57    5.25
 -10   3  -3  170.55    5.39
 -11   3  -3    0.33    0.84
 -11   3  -3   -0.33    0.82
 -11   3  -3    1.18    0.57
 -12   3  -3    0.68    0.91
 -12   3  -3    2.53    1.00
 -13   3  -3    0.61    0.97
 -13   3  -3    0.06    1.03
 -14   3  -3   77.42    3.29
 -14   3  -3   73.28    3.42
 -15   3  -3    1.88    1.31
 -15   3  -3    0.60    1.18
 -16   3  -3    1.53    1.35
 -16   3  -3    0.42    1.20
 -17   3  -3    9.62    1.75
 -17   3  -3   12.25    1.97
 -18   3  -3    1.05    1.40
 -18   3  -3   -2.15    1.19
 -19   3  -3    3.97    1.77
 -19   3  -3    5.44    1.65
 -20   3  -3    3.49    1.81
 -20   3  -3    1.09    1.54
  17   2  -3    1.05    1.68
 -17  -2   3    2.09    1.68
  16   2  -3   42.18    3.04
 -16  -2   3   41.34    3.05
  15   2  -3   -0.94    1.29
 -15  -2   3   -0.18    1.39
  14   2  -3    1.71    1.44
 -14  -2   3   -1.13    1.32
  13   2  -3    1.81    1.38
 -13  -2   3    0.75    1.31
  12   2  -3   42.68    2.68
 -12  -2   3   56.61    2.90
  11   2  -3    1.21    1.21
 -11  -2   3    3.36    1.27
  10   2  -3    5.68    1.31
 -10  -2   3    5.85    1.28
   9   2  -3   44.81    2.33
  -9  -2   3   40.07    2.19
   8   2  -3   25.96    1.83
  -8  -2   3   21.27    1.59
   7   2  -3   10.27    1.21
  -7  -2   3   12.29    1.19
  -7  -2   3   11.21    1.25
   6   2  -3   26.56    1.61
  -6  -2   3   26.30    1.57
  -6  -2   3   30.96    1.69
   5   2  -3  115.34    3.65
   5   2  -3  123.20    3.63
   5   2  -3  113.38    3.69
  -5  -2   3  116.84    3.68
   4   2  -3    4.98    0.77
   4   2  -3    5.23    0.74
   4   2  -3    4.82    0.84
   4   2  -3    4.31    0.69
  -4  -2   3    5.81    0.83
  -4  -2   3    6.02    0.82
   3   2  -3   13.95    1.06
   3   2  -3   14.06    1.03
   3   2  -3   15.41    1.00
   3   2  -3   13.46    1.01
  -3  -2   3   11.61    0.91
  -3  -2   3   12.05    0.97
   2   2  -3   22.49    1.25
   2   2  -3   21.87    1.29
   2   2  -3   21.21    1.07
  -2  -2   3   23.13    1.27
  -2  -2   3   23.07    1.18
   1   2  -3   26.94    1.20
   1   2  -3   25.48    1.13
  -1  -2   3   21.32    1.10
  -1  -2   3   22.55    1.24
   0   2  -3   27.18    1.20
   0  -2   3   29.35    1.29
   0  -2   3   29.31    1.22
  -1   2  -3   44.74    1.58
   1  -2   3   43.72    1.56
   2  -2   3   26.62    1.21
  -5   2  -3    2.26    0.52
  -6   2  -3   36.26    1.44
  -6   2  -3   35.40    1.42
  -7   2  -3    2.15    0.62
  -7   2  -3    2.27    0.51
  -7   2  -3    1.90    0.77
  -8   2  -3    1.52    0.65
  -8   2  -3    1.68    0.48
  -8   2  -3    0.54    0.72
  -8   2  -3    0.92    0.75
  -9   2  -3    0.84    0.44
  -9   2  -3    0.83    0.83
  -9   2  -3    0.55    0.84
 -10   2  -3  126.52    4.33
 -10   2  -3  128.26    4.17
 -11   2  -3   17.04    1.56
 -11   2  -3   17.17    1.46
 -12   2  -3   58.41    2.84
 -12   2  -3   59.47    2.72
 -13   2  -3   69.59    3.08
 -13   2  -3   64.26    3.00
 -14   2  -3   10.51    1.65
 -14   2  -3    8.54    1.40
 -15   2  -3    0.55    1.22
 -15   2  -3    2.12    1.25
 -16   2  -3    1.42    1.20
 -16   2  -3    0.24    1.23
 -17   2  -3   17.12    2.19
 -17   2  -3   16.34    1.96
 -18   2  -3    0.38    1.33
 -18   2  -3    2.32    1.53
 -19   2  -3    8.94    1.94
 -19   2  -3   10.29    1.98
  18   1  -3    0.18    1.66
 -18  -1   3   -0.56    1.57
  17   1  -3    0.49    1.45
 -17  -1   3    5.07    1.80
  16   1  -3   35.76    2.79
 -16  -1   3   27.08    2.65
  15   1  -3    8.51    1.80
 -15  -1   3   10.76    1.87
  14   1  -3   20.91    2.16
 -14  -1   3   29.29    2.44
 -14  -1   3   23.03    2.07
  13   1  -3   43.28    2.52
 -13  -1   3   48.47    2.60
 -13  -1   3   39.78    2.65
  12   1  -3    1.11    1.23
 -12  -1   3   -0.39    1.02
 -12  -1   3   -1.11    0.96
  11   1  -3    3.09    1.22
 -11  -1   3    3.75    1.13
 -11  -1   3    2.41    1.08
  10   1  -3    5.86    1.20
 -10  -1   3    5.00    1.10
 -10  -1   3    5.68    1.11
   9   1  -3  111.23    3.89
  -9  -1   3  104.79    3.79
   8   1  -3   12.00    1.24
  -8  -1   3    9.56    1.13
  -8  -1   3    7.35    1.14
   7   1  -3   81.00    3.03
  -7  -1   3   81.80    3.06
  -7  -1   3   83.76    2.98
   6   1  -3  300.24    8.34
   6   1  -3  304.88    8.27
   6   1  -3  303.71    8.43
  -6  -1   3  319.74    8.44
  -6  -1   3  298.80    8.48
   5   1  -3    9.94    0.96
   5   1  -3   11.30    0.96
   5   1  -3   10.00    0.98
  -5  -1   3    9.13    0.98
  -5  -1   3    8.12    0.92
   4   1  -3   34.07    1.47
   4   1  -3   33.60    1.60
   4   1  -3   32.65    1.55
   4   1  -3   33.34    1.52
   4   1  -3   30.86    1.43
  -4  -1   3   33.42    1.48
  -4  -1   3   33.39    1.48
   3   1  -3  247.15    6.67
   3   1  -3  245.78    6.55
   3   1  -3  235.54    6.57
  -3  -1   3  239.60    6.56
  -3  -1   3  244.88    6.61
   2   1  -3  246.74    6.71
   2   1  -3  253.55    6.68
  -2  -1   3  248.89    6.69
  -2  -1   3  252.07    6.72
   1   1  -3   42.85    1.53
  -1  -1   3   42.70    1.54
  -1  -1   3   44.34    1.60
   0   1  -3  231.85    5.99
   0  -1   3  218.51    6.00
   1  -1   3  212.88    5.71
  -5   1  -3   63.33    2.17
  -6   1  -3   53.44    1.96
  -6   1  -3   53.34    1.66
  -6   1  -3   51.02    2.10
  -7   1  -3  105.98    3.51
  -7   1  -3  102.88    2.88
  -7   1  -3  101.33    3.24
  -7   1  -3  100.85    3.35
  -8   1  -3   15.21    1.33
  -8   1  -3   13.52    1.31
  -9   1  -3   26.07    1.74
  -9   1  -3   28.64    1.64
 -10   1  -3   18.25    1.63
 -10   1  -3   17.14    1.50
 -11   1  -3   17.46    1.62
 -11   1  -3   17.80    1.62
 -12   1  -3    2.55    1.09
 -12   1  -3    0.39    1.00
 -13   1  -3   33.08    2.24
 -13   1  -3   36.94    2.45
 -14   1  -3    0.75    1.14
 -14   1  -3    1.03    1.09
 -15   1  -3    3.16    1.31
 -15   1  -3    1.48    1.25
 -16   1  -3    9.17    1.81
 -16   1  -3    8.41    1.62
 -17   1  -3    1.19    1.37
 -17   1  -3    2.17    1.47
 -18   1  -3    5.12    1.67
 -18   1  -3    2.22    1.43
 -19   1  -3   -1.30    1.36
 -19   1  -3   -1.48    1.43
  18   0  -3   -2.03    1.56
 -18   0   3   -0.36    1.58
  17   0  -3   17.43    2.22
 -17   0   3   12.65    2.14
  16   0  -3   -0.94    1.25
 -16   0   3    0.26    1.42
  15   0  -3    3.89    1.52
 -15   0   3    3.04    1.25
 -15   0   3    3.50    1.49
  14   0  -3    2.21    1.24
 -14   0   3   -0.34    1.12
 -14   0   3   -1.36    1.07
  13   0  -3   27.74    2.10
 -13   0   3   27.07    2.07
 -13   0   3   32.96    2.23
  12   0  -3   -0.98    1.04
 -12   0   3    0.85    1.15
 -12   0   3    2.03    0.97
  11   0  -3   12.58    1.43
 -11   0   3    9.70    1.37
 -11   0   3   10.06    1.31
  10   0  -3  113.16    4.00
 -10   0   3  114.14    3.85
 -10   0   3  110.46    3.97
   9   0  -3    0.29    0.91
  -9   0   3   -0.03    0.84
   8   0  -3   66.44    2.70
  -8   0   3   65.49    2.59
  -8   0   3   63.63    2.65
   7   0  -3   46.17    2.10
   7   0  -3   51.73    2.06
  -7   0   3   49.55    2.17
  -7   0   3   48.94    2.11
   6   0  -3   82.64    2.68
   6   0  -3   79.09    2.71
   6   0  -3   79.11    2.82
  -6   0   3   78.85    2.82
  -6   0   3   76.24    2.67
  -6   0   3   78.14    2.72
   5   0  -3  150.71    4.41
   5   0  -3  152.17    4.50
   5   0  -3  152.19    4.38
   5   0  -3  155.22    4.33
  -5   0   3  146.76    4.39
  -5   0   3  148.49    4.37
   4   0  -3  301.50    8.20
   4   0  -3  310.57    8.21
   4   0  -3  323.67    8.34
  -4   0   3  310.74    8.24
  -4   0   3  295.58    8.19
   3   0  -3  327.71    8.78
   3   0  -3  329.50    8.77
  -3   0   3  337.61    8.79
  -3   0   3  338.87    8.80
   2   0  -3   29.26    1.31
   2   0  -3   27.69    1.30
  -2   0   3   27.53    1.21
  -2   0   3   27.66    1.28
   1   0  -3  239.12    6.10
  -1   0   3  221.82    6.09
  -1   0   3  221.48    6.09
   0   0  -3    0.01    0.54
   0   0   3    0.21    0.55
  -5   0  -3  145.67    4.41
  -5   0  -3  149.64    4.29
  -6   0  -3   69.60    2.53
  -6   0  -3   73.25    2.65
  -6   0  -3   78.11    2.77
  -7   0  -3   48.24    2.16
  -7   0  -3   48.08    2.19
  -8   0  -3   59.54    2.44
  -8   0  -3   62.86    2.53
  -9   0  -3    0.52    0.79
  -9   0  -3    0.46    0.87
 -10   0  -3  111.30    3.98
 -10   0  -3  105.64    3.79
 -11   0  -3   10.56    1.42
 -11   0  -3    9.83    1.44
 -12   0  -3    1.74    1.11
 -12   0  -3    0.76    1.15
 -13   0  -3   25.95    1.99
 -13   0  -3   33.10    2.22
 -14   0  -3   -0.60    1.07
 -14   0  -3    0.24    1.25
 -15   0  -3    6.37    1.56
 -15   0  -3    3.86    1.54
 -16   0  -3    1.62    1.50
 -16   0  -3    1.61    1.30
 -17   0  -3   14.76    2.07
 -17   0  -3   14.01    2.13
 -18   0  -3    1.25    1.58
 -18   0  -3    0.00    1.53
  19  -1  -3    4.71    1.84
 -19   1   3    1.86    1.76
  18  -1  -3    3.54    1.70
 -18   1   3    3.61    1.71
  17  -1  -3    0.64    1.50
 -17   1   3    1.31    1.34
  16  -1  -3    4.14    1.57
 -16   1   3    6.90    1.57
 -16   1   3    7.23    1.56
  15  -1  -3    0.76    1.33
 -15   1   3   -0.85    1.16
 -15   1   3    0.36    1.18
  14  -1  -3    1.23    1.28
 -14   1   3    1.78    1.13
 -14   1   3   -0.49    1.22
  13  -1  -3   35.30    2.37
 -13   1   3   38.57    2.25
 -13   1   3   37.27    2.28
  12  -1  -3    1.12    1.07
 -12   1   3    0.19    0.94
 -12   1   3    1.34    1.09
  11  -1  -3   18.65    1.64
 -11   1   3   19.79    1.70
 -11   1   3   18.63    1.51
  10  -1  -3   19.25    1.61
 -10   1   3   21.40    1.56
 -10   1   3   20.23    1.49
   9  -1  -3   29.78    1.82
  -9   1   3   26.02    1.64
   8  -1  -3   17.00    1.38
   8  -1  -3   12.99    1.10
  -8   1   3   14.19    1.30
  -8   1   3   13.74    1.19
   7  -1  -3  101.18    3.51
   7  -1  -3  109.14    3.30
   7  -1  -3  103.18    3.34
  -7   1   3  105.65    3.44
  -7   1   3  108.07    3.38
  -7   1   3  104.82    3.43
   6  -1  -3   52.19    1.92
   6  -1  -3   52.35    1.97
   6  -1  -3   50.03    2.25
  -6   1   3   50.72    2.02
  -6   1   3   54.47    2.02
   5  -1  -3   60.62    2.41
   5  -1  -3   60.70    2.15
   5  -1  -3   63.28    2.14
   5  -1  -3   64.28    2.14
   5  -1  -3   58.17    2.07
  -5   1   3   62.64    2.09
  -5   1   3   62.18    2.19
   4  -1  -3   10.43    0.82
   4  -1  -3   10.63    0.85
   4  -1  -3   10.75    0.99
   4  -1  -3   10.30    0.85
  -4   1   3   13.93    0.96
  -4   1   3   11.48    0.89
   3  -1  -3   24.78    1.57
   3  -1  -3   27.58    1.18
   3  -1  -3   26.62    1.27
  -3   1   3   21.64    1.14
  -3   1   3   22.67    1.14
   2  -1  -3   41.41    1.64
   2  -1  -3   44.36    1.90
  -2   1   3   43.98    1.59
  -2   1   3   42.60    1.58
   1  -1  -3  230.68    6.03
   1  -1  -3  218.11    6.43
  -1   1   3  221.00    6.02
   0  -1  -3  227.99    6.42
   0   1   3  222.49    6.11
  -1  -1  -3   40.85    1.65
  -2  -1  -3  226.82    6.32
  -3  -1  -3  228.38    6.28
  -4  -1  -3   31.85    1.52
  -4  -1  -3   32.78    1.07
  -5  -1  -3   11.52    1.10
  -5  -1  -3   10.01    0.94
  -5  -1  -3    9.65    1.00
  -6  -1  -3  299.20    8.30
  -6  -1  -3  293.28    8.14
  -7  -1  -3   76.09    2.80
  -7  -1  -3   77.43    2.87
  -8  -1  -3    9.43    1.18
  -8  -1  -3   10.78    1.22
  -9  -1  -3  101.36    3.66
  -9  -1  -3  103.17    3.70
 -10  -1  -3    3.87    1.05
 -10  -1  -3    5.20    1.19
 -11  -1  -3    3.90    1.17
 -11  -1  -3    3.64    1.23
 -12  -1  -3   -0.81    1.06
 -12  -1  -3   -0.20    1.05
 -13  -1  -3   42.69    2.61
 -13  -1  -3   41.35    2.54
 -14  -1  -3   20.20    2.18
 -14  -1  -3   21.86    2.08
 -15  -1  -3   11.29    1.74
 -15  -1  -3   10.55    1.86
 -16  -1  -3   32.11    2.81
 -16  -1  -3   31.68    2.66
 -17  -1  -3    3.10    1.63
 -17  -1  -3    2.64    1.67
 -18  -1  -3    3.28    1.69
 -18  -1  -3   -1.05    1.34
  19  -2  -3    8.10    1.77
 -19   2   3   10.77    2.11
  18  -2  -3    5.12    1.67
 -18   2   3    0.33    1.53
 -17   2   3   15.07    1.87
 -17   2   3   18.32    2.10
  16  -2  -3    1.33    1.37
 -16   2   3   -0.50    1.11
 -16   2   3   -1.11    1.11
  15  -2  -3    0.04    1.28
 -15   2   3    0.74    1.01
 -15   2   3   -1.25    1.17
  14  -2  -3   12.27    1.65
 -14   2   3   13.01    1.65
 -14   2   3   10.05    1.46
  13  -2  -3   70.79    3.17
 -13   2   3   69.34    2.97
 -13   2   3   75.92    3.26
  12  -2  -3   63.80    2.79
 -12   2   3   62.21    2.65
 -12   2   3   63.52    2.89
  11  -2  -3   16.05    1.44
 -11   2   3   17.66    1.44
 -11   2   3   19.28    1.68
  10  -2  -3  133.82    4.27
 -10   2   3  129.95    4.32
 -10   2   3  126.76    4.07
   9  -2  -3    0.72    0.67
   9  -2  -3    0.39    0.80
  -9   2   3    0.48    0.78
   8  -2  -3    0.85    0.66
   8  -2  -3    1.86    0.81
   8  -2  -3    0.56    0.60
  -8   2   3    1.63    0.78
  -8   2   3    1.19    0.76
  -8   2   3    0.19    0.70
   7  -2  -3    1.80    0.60
   7  -2  -3    2.12    0.63
  -7   2   3    2.73    0.73
  -7   2   3    2.38    0.73
  -7   2   3    2.14    0.66
   6  -2  -3   38.62    1.89
   6  -2  -3   41.02    1.69
   6  -2  -3   38.68    1.58
   6  -2  -3   37.75    1.52
  -6   2   3   40.00    1.77
  -6   2   3   39.56    1.60
   5  -2  -3    2.27    0.62
   5  -2  -3    1.76    0.49
   5  -2  -3    2.31    0.57
   5  -2  -3    2.39    0.67
   5  -2  -3    2.83    0.55
  -5   2   3    2.07    0.59
  -5   2   3    3.48    0.70
   4  -2  -3   20.55    1.13
   4  -2  -3   21.33    1.15
   4  -2  -3   23.26    1.14
   4  -2  -3   23.55    1.48
  -4   2   3   24.68    1.17
  -4   2   3   23.26    1.16
   3  -2  -3  230.58    6.99
   3  -2  -3  246.59    6.51
  -3   2   3  245.59    6.42
  -3   2   3  246.33    7.05
  -3   2   3  239.50    6.51
   2  -2  -3   25.35    1.31
   2  -2  -3   27.60    1.57
  -2   2   3   27.59    1.33
  -2   2   3   31.05    1.59
   1  -2  -3   41.82    1.80
  -1   2   3   40.27    1.60
  -1   2   3   42.32    1.79
   0  -2  -3   27.68    1.41
   0   2   3   28.34    1.42
  -1  -2  -3   24.96    1.26
   1   2   3   23.41    1.23
  -2  -2  -3   22.17    1.14
   2   2   3   24.48    1.14
  -3  -2  -3   10.87    0.95
  -3  -2  -3   13.30    0.83
  -3  -2  -3   12.73    1.04
  -4  -2  -3    5.22    0.85
  -4  -2  -3    6.68    0.93
  -4  -2  -3    4.95    0.77
  -4  -2  -3    6.87    0.42
  -5  -2  -3  115.58    3.70
  -5  -2  -3  120.62    3.85
  -6  -2  -3   26.59    1.66
  -6  -2  -3   28.12    1.62
  -7  -2  -3   10.33    1.21
  -7  -2  -3    9.68    1.17
  -8  -2  -3   23.31    1.68
  -8  -2  -3   23.15    1.62
  -9  -2  -3   40.42    2.16
  -9  -2  -3   41.78    2.15
 -10  -2  -3    6.22    1.27
 -10  -2  -3    7.04    1.36
 -11  -2  -3    3.06    1.07
 -11  -2  -3    3.60    1.20
 -12  -2  -3   45.24    2.67
 -12  -2  -3   49.96    2.70
 -13  -2  -3    2.64    1.41
 -13  -2  -3    2.52    1.33
 -14  -2  -3    1.21    1.36
 -14  -2  -3    2.30    1.43
 -15  -2  -3    0.84    1.43
 -15  -2  -3    0.63    1.36
 -16  -2  -3   37.05    2.79
 -16  -2  -3   38.45    2.73
 -17  -2  -3    0.51    1.61
 -17  -2  -3    2.19    1.66
  20  -3  -3    4.65    1.80
 -20   3   3    4.86    1.82
  19  -3  -3    3.09    1.58
 -19   3   3    5.85    1.83
  18  -3  -3   -0.58    1.36
 -18   3   3    0.17    1.47
  17  -3  -3    9.11    1.67
 -17   3   3   13.60    1.97
 -17   3   3    8.34    1.57
  16  -3  -3    0.86    1.30
 -16   3   3    2.14    1.40
 -16   3   3    1.15    1.18
  15  -3  -3    2.68    1.26
 -15   3   3    1.67    1.25
 -15   3   3    1.16    1.12
  14  -3  -3   76.91    3.30
 -14   3   3   72.45    3.09
 -14   3   3   80.16    3.42
  13  -3  -3    0.68    0.93
 -13   3   3   -0.76    1.01
 -13   3   3    0.80    0.92
  12  -3  -3    2.31    0.96
 -12   3   3    2.62    0.96
 -12   3   3    1.53    0.92
  11  -3  -3    0.76    0.86
 -11   3   3    1.02    0.93
 -11   3   3    0.59    0.76
  10  -3  -3  173.66    5.25
 -10   3   3  173.74    5.31
 -10   3   3  169.68    5.03
   9  -3  -3   89.07    2.97
   9  -3  -3   94.85    3.24
   9  -3  -3   93.25    3.03
  -9   3   3   90.55    3.18
  -9   3   3   90.49    3.15
   8  -3  -3   86.78    2.87
   8  -3  -3   93.66    2.87
  -8   3   3   89.29    3.05
  -8   3   3   86.99    3.10
  -8   3   3   92.93    2.94
   7  -3  -3   92.91    2.94
   7  -3  -3   91.85    2.85
   7  -3  -3   92.47    2.79
  -7   3   3   88.65    2.98
  -7   3   3   90.33    2.99
  -7   3   3   91.93    2.89
   6  -3  -3    3.93    0.60
   6  -3  -3    3.19    0.55
   6  -3  -3    3.20    0.61
   6  -3  -3    3.17    0.73
   6  -3  -3    3.66    0.53
  -6   3   3    2.63    0.58
  -6   3   3    2.68    0.87
  -6   3   3    2.38    0.64
   5  -3  -3   13.58    0.93
   5  -3  -3   13.34    0.86
   5  -3  -3   14.62    0.94
   5  -3  -3   13.75    0.77
   5  -3  -3   13.98    1.11
  -5   3   3   12.67    1.19
  -5   3   3   11.20    0.90
  -5   3   3   10.56    0.89
   4  -3  -3  243.29    6.47
   4  -3  -3  237.24    7.00
  -4   3   3  243.21    7.03
  -4   3   3  238.59    6.48
  -4   3   3  235.31    6.33
   3  -3  -3  335.78    8.79
   3  -3  -3  326.39    9.41
  -3   3   3  328.21    8.78
  -3   3   3  337.67    9.44
  -3   3   3  338.22    8.66
   2  -3  -3   26.66    1.36
   2  -3  -3   27.76    1.48
  -2   3   3   24.99    1.45
  -2   3   3   23.85    1.33
   1  -3  -3  236.93    6.71
  -1   3   3  227.89    6.37
  -1   3   3  236.43    6.69
   0  -3  -3  329.48    9.18
   0   3   3  330.44    9.17
  -1  -3  -3   12.15    0.85
   1   3   3   12.23    0.82
  -2  -3  -3    2.15    0.66
  -2  -3  -3    3.28    0.56
  -2  -3  -3    2.22    0.67
   2   3   3    3.48    0.54
  -3  -3  -3    3.65    0.77
  -3  -3  -3    3.08    0.74
  -3  -3  -3    2.79    0.50
   3   3   3    2.47    0.47
  -4  -3  -3  154.73    4.64
  -4  -3  -3  155.97    4.70
   4   3   3  158.22    4.39
  -5  -3  -3    6.52    0.95
  -5  -3  -3    7.17    0.96
   5   3   3    7.38    0.46
  -6  -3  -3   52.79    2.39
  -6  -3  -3   56.25    2.37
  -7  -3  -3  121.68    4.03
  -7  -3  -3  109.32    3.89
  -8  -3  -3    1.90    0.93
  -8  -3  -3    1.02    0.86
  -9  -3  -3   14.62    1.51
  -9  -3  -3   13.67    1.57
 -10  -3  -3    2.56    1.18
 -10  -3  -3    1.27    1.15
 -11  -3  -3   12.02    1.70
 -11  -3  -3    8.30    1.49
 -12  -3  -3    5.74    1.51
 -12  -3  -3    6.33    1.49
 -13  -3  -3    3.78    1.51
 -13  -3  -3    1.32    1.18
 -14  -3  -3    2.23    1.48
 -14  -3  -3    1.79    1.47
 -15  -3  -3   17.84    2.20
 -15  -3  -3   18.28    2.22
 -16  -3  -3   10.62    2.01
 -16  -3  -3    9.92    1.85
 -17  -3  -3    2.57    1.58
 -17  -3  -3    3.65    1.80
  20  -4  -3    4.24    1.69
 -20   4   3    5.36    1.84
  19  -4  -3    7.21    1.71
 -19   4   3    9.67    1.93
  18  -4  -3    0.42    1.33
 -18   4   3    2.18    1.37
 -18   4   3    2.42    1.53
  17  -4  -3   13.70    1.82
 -17   4   3   10.92    1.84
 -17   4   3   15.81    1.76
  16  -4  -3   -1.26    1.08
 -16   4   3   -0.29    1.22
 -16   4   3   -0.68    1.02
  15  -4  -3   14.38    1.66
 -15   4   3   14.88    1.75
 -15   4   3   14.39    1.54
  14  -4  -3   16.44    1.66
 -14   4   3   16.80    1.53
 -14   4   3   14.02    1.69
  13  -4  -3    5.10    1.14
 -13   4   3    2.87    0.97
 -13   4   3    1.81    1.08
  12  -4  -3    7.42    1.09
 -12   4   3    6.72    1.00
 -12   4   3    6.81    1.17
  11  -4  -3   21.95    1.60
 -11   4   3   23.55    1.67
 -11   4   3   18.37    1.31
  10  -4  -3   26.82    1.57
  10  -4  -3   27.68    1.47
  10  -4  -3   28.91    1.40
 -10   4   3   24.77    1.62
   9  -4  -3    8.54    0.84
   9  -4  -3   10.39    0.87
  -9   4   3    8.47    1.23
  -9   4   3   11.01    1.14
  -9   4   3    8.15    0.99
   8  -4  -3   14.32    0.98
   8  -4  -3   14.83    1.01
  -8   4   3   16.74    1.12
  -8   4   3   14.71    1.15
  -8   4   3   14.67    1.42
  -8   4   3   17.55    1.22
   7  -4  -3  157.31    4.53
   7  -4  -3  157.50    4.34
   7  -4  -3  158.43    4.43
  -7   4   3  159.83    4.46
  -7   4   3  164.07    4.68
  -7   4   3  156.85    5.13
   6  -4  -3    6.82    0.57
   6  -4  -3    5.95    0.59
   6  -4  -3    6.27    0.69
   6  -4  -3    6.72    0.68
  -6   4   3    5.91    0.75
  -6   4   3    6.18    0.63
  -6   4   3    4.73    0.97
   5  -4  -3   31.53    1.82
   5  -4  -3   33.86    1.42
   5  -4  -3   35.17    1.36
  -5   4   3   37.22    1.87
  -5   4   3   35.59    1.29
  -5   4   3   34.04    1.52
   4  -4  -3  316.19    8.37
   4  -4  -3  318.47    9.03
  -4   4   3  310.50    8.18
  -4   4   3  313.42    9.02
  -4   4   3  316.92    8.38
   3  -4  -3   11.39    1.03
   3  -4  -3   12.22    0.92
  -3   4   3   12.77    1.08
  -3   4   3   14.29    1.08
   2  -4  -3   26.13    1.57
  -2   4   3   23.93    1.33
  -2   4   3   25.27    1.50
   1  -4  -3  240.58    6.89
  -1   4   3  238.00    6.86
   0  -4  -3  315.51    8.72
   0   4   3  305.75    8.69
  -1  -4  -3   59.81    2.10
  -1  -4  -3   60.94    2.17
  -1  -4  -3   59.50    2.04
   1   4   3   56.83    2.10
  -2  -4  -3   38.61    1.61
  -2  -4  -3   37.60    1.65
  -2  -4  -3   35.84    1.64
   2   4   3   40.50    1.57
  -3  -4  -3   88.01    2.93
  -3  -4  -3   88.45    2.99
   3   4   3   91.71    2.78
  -4  -4  -3   12.92    1.20
  -4  -4  -3   13.14    1.18
   4   4   3   15.34    0.95
  -5  -4  -3   99.47    3.40
  -5  -4  -3  100.58    3.39
   5   4   3  100.75    2.96
  -6  -4  -3    0.51    0.86
  -6  -4  -3    0.81    0.86
   6   4   3    0.21    0.36
  -7  -4  -3  115.96    4.00
  -7  -4  -3  117.10    4.04
  -8  -4  -3   54.06    2.66
  -8  -4  -3   55.62    2.61
  -9  -4  -3   75.39    3.26
  -9  -4  -3   72.12    3.16
 -10  -4  -3   49.58    2.77
 -10  -4  -3   48.86    2.58
 -11  -4  -3    1.02    1.24
 -11  -4  -3    1.57    1.26
 -12  -4  -3    3.75    1.40
 -12  -4  -3    8.34    1.68
 -13  -4  -3   -0.98    1.16
 -13  -4  -3   -1.93    1.09
 -14  -4  -3    1.04    1.33
 -14  -4  -3   -0.40    1.49
 -15  -4  -3    7.14    1.84
 -15  -4  -3    5.70    1.63
 -16  -4  -3    4.85    1.77
 -16  -4  -3    2.37    1.73
  20  -5  -3    0.52    1.53
 -20   5   3    0.50    1.56
  19  -5  -3    3.86    1.47
 -19   5   3    6.68    1.62
  18  -5  -3    2.12    1.40
 -18   5   3    1.41    1.18
 -18   5   3    2.37    1.48
  17  -5  -3   40.22    2.52
 -17   5   3   36.91    2.36
 -17   5   3   39.03    2.67
  16  -5  -3   34.99    2.32
 -16   5   3   34.74    2.09
 -16   5   3   33.65    2.27
  15  -5  -3    1.02    1.12
 -15   5   3    3.38    1.07
 -15   5   3    2.21    1.10
  14  -5  -3    9.52    1.30
 -14   5   3   13.92    1.38
 -14   5   3   12.79    1.53
  13  -5  -3    3.36    0.99
 -13   5   3    2.61    1.03
 -13   5   3    3.09    0.96
  12  -5  -3   12.46    1.29
 -12   5   3   12.62    1.17
 -12   5   3   10.96    1.26
  11  -5  -3   10.89    0.94
  11  -5  -3    7.41    1.05
  11  -5  -3    7.95    0.89
 -11   5   3    8.61    1.11
 -11   5   3    7.77    1.36
  10  -5  -3   81.75    2.74
  10  -5  -3   90.41    2.83
 -10   5   3   87.65    3.03
 -10   5   3   88.02    3.53
 -10   5   3   87.06    3.10
   9  -5  -3  103.86    3.12
   9  -5  -3  107.80    3.22
  -9   5   3  109.93    3.93
  -9   5   3  104.22    3.38
  -9   5   3  102.59    3.46
   8  -5  -3    6.96    0.64
   8  -5  -3    6.59    0.73
   8  -5  -3    6.77    0.65
  -8   5   3    5.61    0.73
  -8   5   3    6.93    0.91
  -8   5   3    6.98    1.17
   7  -5  -3  119.67    3.58
   7  -5  -3  119.55    3.35
   7  -5  -3  114.28    3.44
   7  -5  -3  112.22    3.23
  -7   5   3  121.39    3.35
  -7   5   3  115.62    3.56
  -7   5   3  115.18    4.04
   6  -5  -3   10.46    0.76
   6  -5  -3   11.33    0.69
   6  -5  -3   13.77    1.02
  -6   5   3   11.69    1.20
  -6   5   3   10.32    0.94
  -6   5   3    8.89    0.67
   5  -5  -3  149.82    4.33
   5  -5  -3  152.20    4.79
   5  -5  -3  151.71    4.16
  -5   5   3  153.69    4.36
  -5   5   3  152.10    4.09
  -5   5   3  147.91    4.79
   4  -5  -3   59.41    2.08
   4  -5  -3   59.65    2.46
  -4   5   3   62.90    2.41
  -4   5   3   57.93    2.06
   3  -5  -3    1.92    0.72
  -3   5   3    3.16    0.78
  -3   5   3    3.05    0.71
   2  -5  -3   17.46    1.39
  -2   5   3   13.99    1.10
  -2   5   3   10.42    0.97
   1  -5  -3   33.12    1.31
   1  -5  -3   34.20    1.72
  -1   5   3   32.08    1.66
   0  -5  -3  152.38    4.61
   0  -5  -3  155.65    4.29
   0  -5  -3  152.24    4.24
   0   5   3  144.51    4.54
  -1  -5  -3   55.41    1.96
  -1  -5  -3   50.14    2.08
  -1  -5  -3   52.57    1.92
   1   5   3   50.03    1.96
  -2  -5  -3    1.30    0.71
  -2  -5  -3    2.04    0.73
  -2  -5  -3    1.84    0.60
   2   5   3    2.04    0.64
  -3  -5  -3   90.66    2.95
  -3  -5  -3   83.90    2.89
   3   5   3   83.78    2.77
  -4  -5  -3   11.05    1.16
  -4  -5  -3    7.50    0.96
   4   5   3   10.63    0.82
  -5  -5  -3   91.03    3.19
  -5  -5  -3   84.65    3.15
   5   5   3   86.45    2.73
  -6  -5  -3  139.09    4.58
  -6  -5  -3  141.94    4.62
   6   5   3  140.39    4.07
  -7  -5  -3   16.35    1.53
  -7  -5  -3   17.83    1.64
   7   5   3   20.89    1.00
  -8  -5  -3    6.08    1.30
  -8  -5  -3    5.34    1.26
   8   5   3    5.22    0.47
  -9  -5  -3    8.55    1.45
  -9  -5  -3    8.38    1.42
 -10  -5  -3   48.53    2.75
 -10  -5  -3   50.98    2.84
 -11  -5  -3   -0.74    1.22
 -11  -5  -3   -0.06    1.18
 -12  -5  -3   16.04    2.12
 -12  -5  -3   15.66    1.92
 -13  -5  -3    6.94    1.71
 -13  -5  -3    8.14    1.76
 -14  -5  -3    0.44    1.52
 -14  -5  -3    3.64    1.61
 -15  -5  -3   13.02    2.04
 -15  -5  -3   11.17    2.15
  21  -6  -3    6.45    1.69
 -21   6   3    8.99    2.01
  20  -6  -3    7.57    1.65
 -20   6   3   12.73    2.04
  19  -6  -3    2.08    1.36
 -19   6   3    1.26    1.45
  18  -6  -3    8.82    1.59
 -18   6   3    8.60    1.66
 -18   6   3    8.95    1.42
  17  -6  -3    0.43    1.12
 -17   6   3   -1.85    0.95
 -17   6   3    1.00    1.31
  16  -6  -3   43.22    2.57
 -16   6   3   41.36    2.53
 -16   6   3   43.00    2.28
  15  -6  -3    0.12    0.94
 -15   6   3    0.93    1.07
 -15   6   3   -0.56    0.83
  14  -6  -3   43.74    2.23
 -14   6   3   38.24    1.99
 -14   6   3   41.55    2.29
  13  -6  -3   16.40    1.48
 -13   6   3   13.96    1.23
 -13   6   3   18.87    1.90
 -13   6   3   14.71    1.48
  12  -6  -3    6.89    0.81
  12  -6  -3    6.61    0.83
  12  -6  -3    5.75    1.01
 -12   6   3    5.83    1.33
 -12   6   3    6.47    1.06
  11  -6  -3  140.08    4.14
  11  -6  -3  138.10    4.07
 -11   6   3  135.01    4.37
 -11   6   3  151.27    5.02
 -11   6   3  139.64    4.46
  10  -6  -3    0.28    0.47
  10  -6  -3    0.09    0.48
 -10   6   3    0.95    1.02
 -10   6   3   -0.03    0.73
 -10   6   3    0.17    0.68
   9  -6  -3   53.63    2.06
   9  -6  -3   57.32    1.94
   9  -6  -3   55.84    1.87
  -9   6   3   61.72    2.28
  -9   6   3   55.50    2.12
  -9   6   3   59.28    2.72
   8  -6  -3   29.01    1.32
   8  -6  -3   28.18    1.11
   8  -6  -3   29.36    1.19
  -8   6   3   26.74    1.22
  -8   6   3   26.55    1.47
  -8   6   3   24.88    1.89
   7  -6  -3  308.82    7.70
   7  -6  -3  306.58    8.03
   7  -6  -3  303.20    8.16
  -7   6   3  300.05    8.15
  -7   6   3  292.38    8.89
  -7   6   3  296.99    7.85
   6  -6  -3   82.86    2.60
   6  -6  -3   79.78    2.38
   6  -6  -3   75.63    2.12
  -6   6   3   78.64    2.60
  -6   6   3   75.72    2.25
  -6   6   3   77.72    3.03
   5  -6  -3   55.33    1.94
   5  -6  -3   52.21    1.64
  -5   6   3   50.31    1.59
  -5   6   3   49.28    1.92
  -5   6   3   50.21    2.33
   4  -6  -3   37.42    1.63
  -4   6   3   37.79    1.63
  -4   6   3   41.80    1.97
   3  -6  -3    2.76    0.44
   3  -6  -3    4.20    0.88
  -3   6   3    2.29    0.82
  -3   6   3    2.83    0.71
   2  -6  -3    5.81    0.58
   2  -6  -3    5.47    0.89
  -2   6   3    5.89    0.91
   1  -6  -3   11.57    1.02
   1  -6  -3   11.02    0.79
   1  -6  -3   11.36    0.88
  -1   6   3    9.80    1.01
   0  -6  -3   71.52    2.43
   0  -6  -3   80.38    2.80
   0  -6  -3   78.35    2.48
   0   6   3   74.88    2.71
  -1  -6  -3  106.73    3.46
  -1  -6  -3   97.76    3.19
  -1  -6  -3  107.00    3.27
   1   6   3  104.96    3.41
  -2  -6  -3    1.13    0.70
  -2  -6  -3    0.96    0.71
   2   6   3    0.59    0.66
  -3  -6  -3   88.77    3.12
  -3  -6  -3   87.42    3.02
   3   6   3   91.12    2.94
  -4  -6  -3   28.71    1.71
  -4  -6  -3   27.98    1.68
   4   6   3   26.34    1.41
  -5  -6  -3    7.62    1.12
  -5  -6  -3    5.93    1.03
   5   6   3    8.18    0.80
  -6  -6  -3    5.41    1.09
  -6  -6  -3    5.38    1.12
   6   6   3    4.71    0.68
  -7  -6  -3    1.01    1.02
  -7  -6  -3    0.35    1.02
   7   6   3    1.93    0.57
  -8  -6  -3   18.08    1.74
  -8  -6  -3   17.90    1.81
   8   6   3   20.99    1.10
  -9  -6  -3    3.18    1.28
  -9  -6  -3    1.18    1.27
 -10  -6  -3   15.80    1.94
 -10  -6  -3   16.54    1.95
 -11  -6  -3    9.38    1.75
 -11  -6  -3    3.69    1.42
 -12  -6  -3   -1.02    1.31
 -12  -6  -3    3.09    1.54
 -13  -6  -3    2.18    1.63
 -13  -6  -3    0.55    1.45
 -14  -6  -3   -0.42    1.33
 -14  -6  -3   -0.51    1.40
 -15  -6  -3    8.74    2.08
 -15  -6  -3    8.90    2.06
  21  -7  -3    1.04    1.35
 -21   7   3   -1.00    1.46
  20  -7  -3    0.57    1.27
 -20   7   3    3.68    1.57
  19  -7  -3    0.31    1.18
 -19   7   3    0.95    1.35
  18  -7  -3    5.42    1.41
 -18   7   3    5.24    1.47
  17  -7  -3   11.80    1.62
 -17   7   3   10.34    1.62
 -17   7   3    8.57    1.30
  16  -7  -3    8.86    1.37
 -16   7   3    7.08    1.41
 -16   7   3    7.29    1.21
  15  -7  -3   13.23    1.46
 -15   7   3   11.29    1.24
 -15   7   3   11.36    1.48
  14  -7  -3    1.11    0.91
 -14   7   3   -0.34    0.80
 -14   7   3    1.11    1.30
 -14   7   3    0.78    0.95
  13  -7  -3    1.51    0.90
  13  -7  -3    0.48    0.61
 -13   7   3    1.01    0.92
 -13   7   3    2.04    1.25
  12  -7  -3   17.45    1.13
  12  -7  -3   17.92    1.17
 -12   7   3   18.88    1.43
 -12   7   3   23.83    2.01
  11  -7  -3  122.56    3.59
  11  -7  -3  114.29    3.50
 -11   7   3  119.51    4.47
 -11   7   3  122.32    3.83
 -11   7   3  126.03    3.95
  10  -7  -3  124.50    3.61
  10  -7  -3  126.77    3.54
 -10   7   3  126.82    3.89
 -10   7   3  124.86    3.95
 -10   7   3  121.58    4.47
   9  -7  -3   12.54    0.92
   9  -7  -3   11.20    0.77
   9  -7  -3   13.07    0.86
  -9   7   3   13.22    1.42
  -9   7   3   11.74    1.07
   8  -7  -3   74.78    2.21
   8  -7  -3   81.36    2.52
  -8   7   3   82.15    3.26
  -8   7   3   76.88    2.69
  -8   7   3   83.14    2.36
   7  -7  -3   47.07    1.34
   7  -7  -3   50.81    1.91
   7  -7  -3   48.67    1.65
  -7   7   3   47.51    2.38
  -7   7   3   49.59    1.92
  -7   7   3   45.10    1.50
   6  -7  -3   98.66    3.16
   6  -7  -3  102.88    2.87
  -6   7   3  102.69    3.69
  -6   7   3  105.80    3.19
  -6   7   3   99.72    2.77
   5  -7  -3    0.31    0.62
   5  -7  -3    1.69    0.22
   5  -7  -3    2.26    0.39
  -5   7   3    3.18    0.73
  -5   7   3    1.49    0.86
   4  -7  -3   86.79    2.41
  -4   7   3   92.78    2.94
  -4   7   3   89.39    3.27
   3  -7  -3  152.15    4.11
  -3   7   3  153.93    4.57
  -3   7   3  156.89    4.90
   2  -7  -3  116.36    3.29
   2  -7  -3  113.45    3.27
  -2   7   3  119.10    3.87
   1  -7  -3  295.56    8.53
   1  -7  -3  287.95    7.74
   1  -7  -3  297.20    7.81
  -1   7   3  293.49    8.50
   0  -7  -3   47.09    2.14
   0  -7  -3   46.25    1.78
   0  -7  -3   44.93    1.76
   0   7   3   43.22    1.99
  -1  -7  -3   12.17    0.99
  -1  -7  -3   13.30    1.11
  -2  -7  -3    1.57    0.76
  -2  -7  -3    0.53    0.68
   2   7   3    1.13    0.71
  -3  -7  -3  169.70    5.21
  -3  -7  -3  175.23    5.24
   3   7   3  176.45    5.22
  -4  -7  -3   20.80    1.65
  -4  -7  -3   20.72    1.49
   4   7   3   21.94    1.37
  -5  -7  -3   11.71    1.34
  -5  -7  -3   11.30    1.36
   5   7   3   11.75    1.01
  -6  -7  -3   13.63    1.53
  -6  -7  -3   17.07    1.65
   6   7   3   15.57    1.08
  -7  -7  -3    0.01    1.04
  -7  -7  -3    2.53    1.15
   7   7   3    0.12    0.62
  -8  -7  -3    6.63    1.37
  -8  -7  -3    4.89    1.37
   8   7   3    6.22    0.75
  -9  -7  -3    2.06    1.32
  -9  -7  -3    4.35    1.32
 -10  -7  -3   34.43    2.56
 -10  -7  -3   37.94    2.68
 -11  -7  -3   -0.20    1.34
 -11  -7  -3    0.28    1.40
 -12  -7  -3   -0.87    1.39
 -12  -7  -3    3.68    1.68
 -13  -7  -3    5.20    1.81
 -13  -7  -3    2.95    1.64
 -14  -7  -3    3.90    1.79
 -14  -7  -3    3.59    1.78
  21  -8  -3    0.82    1.32
 -21   8   3   -1.22    1.39
  20  -8  -3    5.38    1.48
 -20   8   3    3.44    1.54
  19  -8  -3   -0.70    1.18
 -19   8   3   -0.56    1.20
  18  -8  -3   -0.28    1.14
 -18   8   3    3.94    1.33
  17  -8  -3    4.71    1.22
 -17   8   3    4.82    1.42
  16  -8  -3   24.47    1.87
 -16   8   3   24.39    1.95
 -16   8   3   25.82    2.41
  15  -8  -3    6.47    1.27
 -15   8   3    5.87    1.18
 -15   8   3    6.37    1.57
  14  -8  -3   20.14    1.64
  14  -8  -3   21.11    1.40
 -14   8   3   25.00    2.15
 -14   8   3   21.15    1.67
  13  -8  -3    7.47    0.82
  13  -8  -3    6.75    0.79
 -13   8   3    3.56    1.37
 -13   8   3    5.35    1.03
  12  -8  -3   59.49    2.03
  12  -8  -3   57.90    2.08
 -12   8   3   60.30    2.99
 -12   8   3   55.15    2.42
 -12   8   3   57.38    2.35
  11  -8  -3    0.59    0.47
  11  -8  -3    1.61    0.51
 -11   8   3    0.09    0.67
 -11   8   3    0.27    1.06
 -11   8   3    0.60    0.75
  10  -8  -3   23.74    1.09
  10  -8  -3   20.60    1.26
 -10   8   3   25.61    1.96
 -10   8   3   24.19    1.47
   9  -8  -3   11.13    0.83
  -9   8   3    8.92    1.33
  -9   8   3    9.34    0.99
   8  -8  -3   63.92    2.00
  -8   8   3   59.96    2.81
  -8   8   3   61.84    2.24
   7  -8  -3   14.31    1.08
   7  -8  -3   14.63    0.82
  -7   8   3   16.22    1.47
  -7   8   3   13.93    0.64
  -7   8   3   12.93    1.03
   6  -8  -3    1.04    0.34
   6  -8  -3    0.04    0.57
  -6   8   3    1.50    0.63
  -6   8   3    1.42    0.92
  -6   8   3    1.03    0.31
   5  -8  -3   89.24    2.33
   5  -8  -3   83.57    2.21
  -5   8   3   85.09    3.30
  -5   8   3   83.89    2.84
   4  -8  -3   13.07    0.70
   4  -8  -3   14.20    0.67
  -4   8   3   12.57    1.26
  -4   8   3   13.29    1.11
   3  -8  -3    7.06    0.64
   3  -8  -3    7.11    0.53
  -3   8   3    6.77    1.05
  -3   8   3    7.34    1.00
   2  -8  -3   27.61    1.14
   2  -8  -3   29.64    1.27
  -2   8   3   26.08    1.74
   1  -8  -3   78.67    2.43
   1  -8  -3   75.22    2.48
  -1   8   3   75.38    2.92
   0  -8  -3   58.79    2.18
   0  -8  -3   61.61    2.15
   0   8   3   60.09    2.47
  -1  -8  -3   26.48    1.51
  -1  -8  -3   29.61    1.51
   1   8   3   27.66    1.65
  -2  -8  -3  132.81    4.11
  -2  -8  -3  130.42    4.15
   2   8   3  130.77    4.22
  -3  -8  -3    1.27    0.84
  -3  -8  -3    2.02    0.88
   3   8   3   -0.56    0.72
  -4  -8  -3    6.51    1.10
  -4  -8  -3    7.44    1.17
   4   8   3    8.49    1.00
  -5  -8  -3    2.38    1.10
  -5  -8  -3    2.77    1.05
   5   8   3    5.25    0.87
  -6  -8  -3   40.33    2.38
  -6  -8  -3   42.25    2.37
   6   8   3   40.81    1.86
  -7  -8  -3   12.37    1.65
  -7  -8  -3    9.42    1.51
   7   8   3   12.18    1.05
  -8  -8  -3   25.60    2.20
  -8  -8  -3   26.26    2.20
  -9  -8  -3   64.26    3.32
  -9  -8  -3   69.51    3.28
 -10  -8  -3    0.23    1.39
 -10  -8  -3    0.05    1.32
 -11  -8  -3    2.78    1.43
 -11  -8  -3    2.21    1.59
 -12  -8  -3    1.21    1.59
 -12  -8  -3    3.35    1.67
 -13  -8  -3   10.96    1.96
 -13  -8  -3   13.38    2.11
  21  -9  -3   -0.29    1.30
 -21   9   3   -0.69    1.37
  20  -9  -3   11.18    1.63
 -20   9   3   10.39    1.78
  19  -9  -3    7.75    1.46
 -19   9   3    5.58    1.52
  18  -9  -3   17.52    1.78
 -18   9   3   19.68    1.90
  17  -9  -3   65.77    2.99
 -17   9   3   65.44    3.10
 -17   9   3   67.34    3.69
  16  -9  -3    2.58    1.06
 -16   9   3    4.02    1.19
 -16   9   3    3.86    1.57
  15  -9  -3    1.86    1.04
 -15   9   3    1.15    0.92
 -15   9   3    1.52    1.36
  14  -9  -3   10.58    1.31
  14  -9  -3    9.61    0.89
 -14   9   3    9.67    1.22
 -14   9   3   10.36    1.68
  13  -9  -3   77.10    2.53
 -13   9   3   78.00    2.87
 -13   9   3   77.29    3.57
  12  -9  -3   19.00    1.06
 -12   9   3   23.59    2.02
 -12   9   3   19.38    1.47
 -12   9   3   17.92    1.35
  11  -9  -3   41.75    1.51
  11  -9  -3   43.98    1.77
 -11   9   3   46.84    2.60
 -11   9   3   41.08    1.94
  10  -9  -3  102.50    3.17
 -10   9   3  104.83    3.40
 -10   9   3  109.55    4.10
   9  -9  -3    1.13    0.48
  -9   9   3    1.15    1.00
  -9   9   3    1.66    0.68
   8  -9  -3   27.52    1.10
  -8   9   3   28.99    1.48
  -8   9   3   28.99    2.07
   7  -9  -3    0.42    0.30
   7  -9  -3   -0.01    0.60
  -7   9   3   -0.91    0.87
  -7   9   3    0.28    0.58
  -6   9   3   89.91    2.91
  -6   9   3   90.51    3.43
  -6   9   3   86.86    2.39
  -5   9   3   10.40    1.28
  -5   9   3    9.56    0.97
   4  -9  -3  102.28    2.70
   4  -9  -3  102.04    2.82
  -4   9   3  103.23    3.73
  -4   9   3   95.43    3.26
   3  -9  -3   53.84    1.66
   3  -9  -3   53.79    1.79
  -3   9   3   54.61    2.45
  -3   9   3   49.84    2.16
   2  -9  -3   11.43    0.84
   2  -9  -3   11.12    0.90
  -2   9   3   10.68    1.24
   1  -9  -3   10.08    0.94
   1  -9  -3    9.39    0.81
  -1   9   3   10.20    1.18
   0  -9  -3    0.35    0.71
   0  -9  -3    0.57    0.60
   0   9   3    0.98    0.84
  -1  -9  -3   20.17    1.37
  -1  -9  -3   20.89    1.52
   1   9   3   19.98    1.58
  -2  -9  -3   18.87    1.47
  -2  -9  -3   16.77    1.35
   2   9   3   17.58    1.41
  -3  -9  -3    0.86    0.87
  -3  -9  -3    2.08    0.97
   3   9   3    1.29    0.85
  -4  -9  -3    3.94    1.08
  -4  -9  -3    1.80    1.04
   4   9   3    3.73    0.96
  -5  -9  -3    9.85    1.43
  -5  -9  -3   11.80    1.46
   5   9   3   13.51    1.21
  -6  -9  -3   -0.72    0.99
  -6  -9  -3   -0.02    1.07
   6   9   3   -0.21    0.78
  -7  -9  -3    8.85    1.55
  -7  -9  -3    9.16    1.56
   7   9   3    9.97    1.05
  -8  -9  -3    8.78    1.57
  -8  -9  -3    3.42    1.45
  -9  -9  -3   12.69    1.84
  -9  -9  -3   20.72    2.16
 -10  -9  -3   -0.47    1.42
 -10  -9  -3    0.27    1.29
 -11  -9  -3    7.10    1.68
 -11  -9  -3    9.44    1.94
 -12  -9  -3   11.61    2.12
 -12  -9  -3   14.19    2.21
  21 -10  -3    0.16    1.19
 -21  10   3   -0.30    1.34
  20 -10  -3    4.63    1.30
 -20  10   3    2.40    1.40
  19 -10  -3   -0.80    1.12
 -19  10   3    2.15    1.36
  18 -10  -3   -1.13    0.97
 -18  10   3   -0.13    1.06
 -18  10   3    0.61    1.53
  17 -10  -3   39.03    2.28
 -17  10   3   33.93    2.30
 -17  10   3   34.76    2.82
  16 -10  -3   17.58    1.60
 -16  10   3   16.21    1.58
 -16  10   3   17.50    2.09
  15 -10  -3   51.85    2.54
 -15  10   3   51.20    3.10
 -15  10   3   55.02    2.54
  14 -10  -3   54.36    1.99
 -14  10   3   52.13    2.34
 -14  10   3   55.01    3.08
  13 -10  -3    2.67    0.57
 -13  10   3    3.70    0.89
 -13  10   3    3.16    1.29
  12 -10  -3    6.14    0.61
 -12  10   3    8.02    1.09
 -12  10   3    9.51    1.57
  11 -10  -3    6.48    0.75
 -11  10   3    6.32    0.97
 -11  10   3    6.53    1.41
  10 -10  -3  119.83    3.42
 -10  10   3  119.43    4.45
 -10  10   3  113.34    3.71
   9 -10  -3   21.57    0.97
  -9  10   3   21.37    1.85
  -9  10   3   21.88    1.34
  -8  10   3  141.76    4.86
  -8  10   3  134.12    4.11
  -7  10   3  183.90    6.00
  -7  10   3  180.48    5.20
  -6  10   3   27.54    1.99
  -6  10   3   28.08    1.50
  -5  10   3   89.09    2.99
  -5  10   3   87.15    3.47
   4 -10  -3    0.26    0.46
   4 -10  -3    0.23    0.27
  -4  10   3    0.25    0.99
  -4  10   3   -0.59    0.72
   3 -10  -3  121.42    3.40
   3 -10  -3  123.38    3.54
  -3  10   3  124.14    4.33
   2 -10  -3   22.97    1.14
   2 -10  -3   24.05    1.27
  -2  10   3   22.81    1.76
   1 -10  -3  111.29    3.40
   1 -10  -3  108.68    3.27
  -1  10   3  100.79    3.78
   0 -10  -3  111.56    3.59
   0 -10  -3  113.20    3.49
   0  10   3  106.35    3.88
  -1 -10  -3   18.77    1.39
  -1 -10  -3   19.61    1.54
   1  10   3   20.01    1.63
  -2 -10  -3   64.94    2.65
  -2 -10  -3   63.48    2.59
   2  10   3   61.89    2.63
  -3 -10  -3    0.34    0.89
  -3 -10  -3    0.02    0.90
   3  10   3   -0.75    0.89
  -4 -10  -3   13.33    1.52
  -4 -10  -3   15.77    1.63
   4  10   3   14.85    1.36
  -5 -10  -3    2.99    1.14
  -5 -10  -3    2.01    1.22
   5  10   3    2.87    0.99
  -6 -10  -3   41.26    2.46
  -6 -10  -3   37.77    2.45
   6  10   3   37.10    2.02
  -7 -10  -3   10.57    1.71
  -7 -10  -3   10.41    1.63
  -8 -10  -3    1.51    1.41
  -8 -10  -3    1.01    1.29
  -9 -10  -3    5.54    1.61
  -9 -10  -3    7.05    1.70
 -10 -10  -3    2.66    1.64
 -10 -10  -3    3.94    1.65
 -11 -10  -3   -2.24    1.43
 -11 -10  -3    1.02    1.55
  21 -11  -3    0.11    1.23
 -21  11   3    1.15    1.39
  20 -11  -3    4.78    1.38
 -20  11   3   10.05    1.69
 -20  11   3    9.68    2.02
  19 -11  -3    2.66    1.25
 -19  11   3    2.05    1.25
 -19  11   3    2.48    1.68
  18 -11  -3   -0.40    1.08
 -18  11   3    0.88    1.13
 -18  11   3    0.58    1.56
  17 -11  -3    7.92    1.34
 -17  11   3    3.99    1.65
 -17  11   3    7.48    1.29
  16 -11  -3    0.11    0.93
 -16  11   3   -1.00    1.37
 -16  11   3    1.48    1.02
 -15  11   3    1.20    0.94
 -15  11   3    3.03    1.48
 -14  11   3   11.70    1.82
 -13  11   3    4.97    1.02
 -13  11   3    4.29    1.48
  12 -11  -3    2.76    0.67
 -12  11   3    1.89    0.86
 -12  11   3    3.17    1.36
  11 -11  -3   11.05    0.85
 -11  11   3   14.31    1.20
 -11  11   3   12.34    1.67
 -10  11   3   21.54    1.42
 -10  11   3   22.41    1.97
  -9  11   3   15.78    1.68
  -9  11   3   15.45    1.22
  -8  11   3    0.60    0.65
  -8  11   3    1.54    1.09
  -7  11   3   22.99    1.88
  -7  11   3   23.52    1.39
  -6  11   3    7.38    1.25
  -6  11   3    7.17    0.57
  -6  11   3    6.51    0.95
  -5  11   3  136.02    3.75
  -5  11   3  134.86    4.18
  -5  11   3  137.08    4.80
   4 -11  -3  119.33    3.44
   4 -11  -3  120.86    3.21
  -4  11   3  120.97    3.50
  -4  11   3  124.61    4.38
  -4  11   3  117.73    3.90
   3 -11  -3    1.26    0.45
   3 -11  -3    0.82    0.61
  -3  11   3    1.28    1.04
   2 -11  -3   45.48    1.85
   2 -11  -3   42.63    1.62
  -2  11   3   38.82    2.28
   1 -11  -3    5.91    0.93
   1 -11  -3    5.08    0.78
  -1  11   3    7.12    1.23
   0 -11  -3    9.84    1.02
   0 -11  -3   11.09    1.22
   0  11   3   11.47    1.35
  -1 -11  -3    2.15    0.81
  -1 -11  -3    2.48    0.99
   1  11   3    1.71    1.03
  -2 -11  -3   73.08    2.96
  -2 -11  -3   73.10    2.83
   2  11   3   68.10    2.94
  -3 -11  -3   77.08    3.28
  -3 -11  -3   87.22    3.20
   3  11   3   72.25    3.08
  -4 -11  -3   15.33    1.71
  -4 -11  -3   14.48    1.57
   4  11   3   16.07    1.49
  -5 -11  -3   39.69    2.45
  -5 -11  -3   38.87    2.44
   5  11   3   36.49    2.14
  -6 -11  -3    1.18    1.22
  -6 -11  -3    2.43    1.31
   6  11   3    0.62    0.99
  -7 -11  -3    4.63    1.54
  -7 -11  -3    5.56    1.52
  -8 -11  -3   -2.65    1.30
  -8 -11  -3   -1.25    1.33
  -9 -11  -3   10.99    1.94
  -9 -11  -3   14.77    2.10
 -10 -11  -3    1.25    1.55
 -10 -11  -3    1.46    1.60
  21 -12  -3   12.75    1.74
 -21  12   3   13.34    2.37
  20 -12  -3   -1.88    1.14
 -20  12   3    0.09    1.73
 -20  12   3   -1.76    1.13
  19 -12  -3   -0.84    1.10
 -19  12   3    3.38    1.32
 -19  12   3    2.10    1.72
  18 -12  -3    0.47    1.10
 -18  12   3    0.58    1.09
 -18  12   3    1.96    1.64
  17 -12  -3   15.99    1.66
 -17  12   3   17.30    2.20
 -17  12   3   18.47    1.64
  16 -12  -3    6.33    1.26
 -16  12   3    8.47    1.80
 -15  12   3    6.67    1.64
 -14  12   3   48.05    3.00
 -13  12   3    1.28    1.29
 -13  12   3    1.01    0.83
 -12  12   3   -0.63    1.23
 -12  12   3   -0.46    0.81
 -11  12   3    1.31    1.26
 -11  12   3    1.68    0.76
 -10  12   3   58.68    3.13
 -10  12   3   65.43    2.38
  -9  12   3    2.79    1.24
  -9  12   3    1.38    0.71
  -8  12   3    7.15    0.93
  -8  12   3    8.91    1.45
  -7  12   3   12.13    1.08
  -7  12   3   13.13    1.58
  -6  12   3    4.07    1.26
  -6  12   3    6.21    0.51
  -6  12   3    4.48    0.82
  -5  12   3   20.49    1.40
  -5  12   3   18.36    1.02
  -5  12   3   20.99    1.84
  -4  12   3   57.05    2.39
  -4  12   3   53.33    2.75
  -4  12   3   54.10    1.95
   3 -12  -3   15.17    0.99
   3 -12  -3   16.99    1.21
  -3  12   3   17.87    1.67
  -3  12   3   20.87    1.23
   2 -12  -3    6.02    0.94
   2 -12  -3    5.68    0.76
  -2  12   3    6.90    1.29
   1 -12  -3    3.72    0.91
   1 -12  -3    3.21    0.73
  -1  12   3    2.41    1.16
   0 -12  -3    0.24    0.84
   0 -12  -3    0.57    0.75
   0  12   3    0.84    1.06
  -1 -12  -3   37.33    2.12
  -1 -12  -3   39.17    2.03
   1  12   3   37.09    2.27
  -2 -12  -3    9.67    1.25
  -2 -12  -3   10.33    1.46
   2  12   3   10.84    1.41
  -3 -12  -3    0.97    1.03
  -3 -12  -3   -0.53    1.04
   3  12   3    0.59    1.06
  -4 -12  -3    0.55    1.10
  -4 -12  -3    1.18    1.20
   4  12   3   -0.69    1.01
  -5 -12  -3   36.11    2.34
  -5 -12  -3   32.00    2.38
   5  12   3   36.88    2.21
  -6 -12  -3    7.35    1.63
  -6 -12  -3    7.75    1.63
  -7 -12  -3   -0.47    1.32
  -7 -12  -3    1.66    1.39
  -8 -12  -3    6.59    1.74
  -8 -12  -3    6.21    1.74
  -9 -12  -3    2.86    1.47
  -9 -12  -3    0.28    1.50
 -21  13   3   11.69    2.19
  20 -13  -3    4.90    1.34
 -20  13   3    5.47    1.95
  19 -13  -3    1.74    1.17
 -19  13   3    2.51    1.75
  18 -13  -3    9.05    1.50
 -18  13   3   10.91    2.08
  17 -13  -3   -0.06    1.10
 -17  13   3    1.07    1.55
 -16  13   3   -1.20    1.42
 -15  13   3    3.10    1.55
 -14  13   3   46.35    2.97
 -13  13   3   30.72    2.59
 -13  13   3   31.19    1.73
 -12  13   3   37.33    2.69
 -12  13   3   38.37    1.84
 -11  13   3   79.06    3.55
 -11  13   3   69.45    2.64
 -10  13   3    0.08    0.68
 -10  13   3    0.98    1.23
  -9  13   3    2.41    0.78
  -9  13   3    5.12    1.36
  -8  13   3    4.67    0.83
  -8  13   3    3.68    1.25
  -7  13   3   15.10    1.21
  -7  13   3   16.06    1.77
  -6  13   3    2.11    0.46
  -6  13   3    1.60    0.80
  -6  13   3    0.67    1.17
  -5  13   3    5.23    0.63
  -5  13   3    6.37    1.37
  -5  13   3    3.30    0.91
  -4  13   3   74.06    2.92
  -4  13   3   78.96    2.54
  -4  13   3   71.79    3.29
   3 -13  -3    2.01    0.57
   3 -13  -3    2.00    0.79
  -3  13   3    2.09    1.22
  -3  13   3    1.51    0.67
   2 -13  -3    3.66    0.90
   2 -13  -3    4.86    0.78
  -2  13   3    5.41    1.30
   1 -13  -3    0.54    0.91
   1 -13  -3    0.68    0.72
  -1  13   3    0.58    1.16
   0 -13  -3   34.00    2.01
   0 -13  -3   31.28    1.78
   0  13   3   29.79    2.12
  -1 -13  -3    2.60    1.07
  -1 -13  -3    1.62    0.94
   1  13   3    2.16    1.16
  -2 -13  -3   -0.98    1.01
  -2 -13  -3    0.69    1.03
   2  13   3    0.43    1.12
  -3 -13  -3    1.99    1.18
  -3 -13  -3    2.07    1.12
   3  13   3    1.43    1.16
  -4 -13  -3   15.01    1.73
  -4 -13  -3   12.59    1.78
   4  13   3   14.97    1.61
  -5 -13  -3    6.07    1.49
  -5 -13  -3    5.34    1.53
  -6 -13  -3    1.62    1.38
  -6 -13  -3    1.38    1.40
  -7 -13  -3    4.43    1.64
  -7 -13  -3    0.91    1.49
  -8 -13  -3   -1.13    1.43
  -8 -13  -3    0.57    1.54
 -21  14   3    3.81    1.95
 -20  14   3    1.76    1.80
  19 -14  -3    0.91    1.12
 -19  14   3    0.30    1.72
  18 -14  -3    3.50    1.25
 -18  14   3    0.64    1.64
  17 -14  -3    1.55    1.12
 -17  14   3    1.03    1.63
 -16  14   3    1.96    1.64
 -15  14   3   25.25    2.50
 -14  14   3    1.14    1.46
 -14  14   3    1.05    0.87
 -13  14   3    1.05    1.45
 -13  14   3    2.35    0.87
 -12  14   3   11.12    1.15
 -12  14   3   10.53    1.80
 -11  14   3   71.00    2.60
 -11  14   3   78.04    3.70
 -10  14   3   18.17    2.01
 -10  14   3   16.57    1.23
  -9  14   3   10.63    1.07
  -9  14   3   14.26    1.82
  -8  14   3   41.33    2.69
  -8  14   3   42.15    1.92
  -7  14   3    1.33    0.77
  -7  14   3    0.89    0.29
  -7  14   3    0.68    1.32
  -6  14   3   18.86    1.47
  -6  14   3   21.80    1.05
  -6  14   3   21.73    2.04
  -5  14   3   10.70    0.84
  -5  14   3    8.31    1.56
  -5  14   3    9.49    1.22
  -4  14   3   50.90    2.50
  -4  14   3   54.15    2.04
  -4  14   3   50.29    2.81
  -3  14   3   12.50    1.64
   2 -14  -3   51.47    2.03
  -2  14   3   48.21    2.69
   1 -14  -3   48.49    2.10
   1 -14  -3   49.14    2.32
  -1  14   3   39.85    2.52
   0 -14  -3   -0.69    0.84
   0 -14  -3    0.35    0.99
   0  14   3    0.92    1.25
  -1 -14  -3    2.08    1.17
  -1 -14  -3    0.50    0.96
   1  14   3    0.83    1.25
  -2 -14  -3   -1.58    0.91
  -2 -14  -3   -0.24    1.19
   2  14   3    0.13    1.16
  -3 -14  -3   11.84    1.54
  -3 -14  -3   12.89    1.73
   3  14   3   10.65    1.54
  -4 -14  -3    3.63    1.42
  -4 -14  -3   -1.00    1.13
   4  14   3    3.67    1.28
  -5 -14  -3    4.99    1.60
  -5 -14  -3    1.88    1.36
  -6 -14  -3   10.79    1.90
  -6 -14  -3   10.80    1.81
  -7 -14  -3    0.87    1.50
  -7 -14  -3    1.56    1.40
 -21  15   3    8.53    2.21
 -20  15   3   12.23    2.36
 -19  15   3    7.96    2.14
 -18  15   3   17.41    2.38
 -17  15   3   -1.25    1.52
 -16  15   3   10.74    2.03
 -15  15   3    4.46    1.73
 -14  15   3    0.54    0.85
 -14  15   3    0.16    1.49
 -13  15   3    1.66    1.52
 -13  15   3    1.02    0.79
 -12  15   3    1.26    1.47
 -12  15   3    2.66    0.83
 -11  15   3   16.18    1.24
 -11  15   3   14.49    2.04
 -10  15   3    3.09    0.81
 -10  15   3    2.84    1.51
  -9  15   3    0.30    0.71
  -9  15   3    0.50    1.36
  -8  15   3   10.58    1.08
  -8  15   3   10.11    1.71
  -7  15   3    6.28    1.58
  -7  15   3    7.57    1.03
  -6  15   3    2.27    0.89
  -6  15   3    0.76    1.39
  -5  15   3   49.51    2.93
  -5  15   3   51.41    2.36
  -4  15   3    0.48    1.34
  -4  15   3    1.12    0.99
  -3  15   3    6.01    1.43
  -2  15   3    2.12    1.42
   1 -15  -3   27.64    1.71
  -1  15   3   26.56    2.19
   0 -15  -3    4.33    1.22
   0 -15  -3    3.19    1.01
   0  15   3    3.30    1.45
  -1 -15  -3    7.19    1.48
  -1 -15  -3    9.65    1.32
   1  15   3    8.73    1.52
  -2 -15  -3   18.81    1.72
  -2 -15  -3   17.82    1.94
   2  15   3   18.94    1.92
  -3 -15  -3    1.76    1.41
  -3 -15  -3    0.24    1.15
   3  15   3   -0.45    1.30
  -4 -15  -3   12.44    1.85
  -4 -15  -3   11.58    1.71
  -5 -15  -3   -0.27    1.47
  -5 -15  -3    3.23    1.43
  -6 -15  -3    6.07    1.56
  -6 -15  -3    2.53    1.57
 -20  16   3    8.02    2.20
 -19  16   3   13.99    2.38
 -18  16   3   41.18    3.35
 -17  16   3   33.43    3.03
 -16  16   3    1.49    1.66
 -15  16   3    9.48    1.99
 -14  16   3   -0.90    1.55
 -13  16   3    0.46    1.53
 -12  16   3   -0.42    0.71
 -12  16   3   -0.81    1.46
 -11  16   3   38.69    2.92
 -11  16   3   39.64    1.87
 -10  16   3   40.07    1.86
 -10  16   3   42.78    2.95
  -9  16   3    9.98    1.08
  -9  16   3   10.55    1.83
  -8  16   3   25.08    1.57
  -8  16   3   26.21    2.42
  -7  16   3    3.03    1.54
  -7  16   3    1.71    0.86
  -6  16   3   17.90    1.50
  -6  16   3   15.67    1.96
  -5  16   3   -0.35    0.88
  -5  16   3   -0.58    1.43
  -4  16   3    9.52    1.68
  -4  16   3    5.15    1.18
  -3  16   3    2.23    1.49
  -2  16   3    1.26    1.47
  -1  16   3   10.22    1.68
   0  16   3    1.34    1.46
   1  16   3    0.79    1.44
   2  16   3    1.57    1.47
 -20  17   3    2.70    2.02
 -19  17   3    2.30    1.93
 -18  17   3    1.58    1.88
 -17  17   3   17.56    2.45
 -16  17   3    0.27    1.70
 -15  17   3   14.32    2.27
 -14  17   3   14.87    2.20
 -13  17   3   14.50    2.13
 -12  17   3   41.42    3.02
 -11  17   3    0.83    1.60
 -10  17   3   10.94    1.93
  -9  17   3    6.56    1.78
  -8  17   3   61.66    3.51
  -7  17   3   36.74    1.95
  -7  17   3   36.44    2.79
  -6  17   3    7.42    1.70
  -6  17   3    5.50    1.09
  -5  17   3   17.10    1.54
  -5  17   3   17.99    2.12
  -4  17   3   -1.29    0.99
  -4  17   3    0.74    1.55
  -3  17   3    2.86    1.64
  -2  17   3    1.17    1.52
  -1  17   3   35.87    2.63
   0  17   3   14.02    1.90
   1  17   3    3.14    1.63
   2  17   3   11.18    1.79
 -19  18   3    0.82    1.94
 -18  18   3   -2.64    1.68
 -17  18   3    2.76    1.92
 -16  18   3    3.45    1.91
 -15  18   3    1.57    1.77
 -14  18   3    3.78    1.83
 -13  18   3    1.26    1.74
 -12  18   3    8.33    1.95
 -11  18   3    6.62    1.90
 -10  18   3   -0.47    1.51
  -9  18   3   21.47    2.43
  -8  18   3    2.67    1.73
  -7  18   3    2.48    1.69
  -6  18   3   -1.92    1.54
  -5  18   3    7.16    1.77
  -4  18   3    2.06    1.71
  -3  18   3   19.56    2.24
  -2  18   3   39.74    2.84
  -1  18   3    1.47    1.68
   0  18   3    0.41    1.63
   1  18   3   -0.46    1.56
 -18  19   3    0.10    1.86
 -17  19   3    5.35    2.16
 -16  19   3    3.78    1.99
 -15  19   3   12.69    2.36
 -14  19   3    6.60    1.95
 -13  19   3    4.04    1.91
 -12  19   3   -1.13    1.68
 -11  19   3    1.01    1.74
 -10  19   3    6.04    1.91
  -9  19   3   -0.14    1.69
  -8  19   3    4.52    1.74
  -7  19   3    3.57    1.87
  -6  19   3    1.62    1.71
  -5  19   3   -0.44    1.63
  -4  19   3   10.54    1.99
  -3  19   3   10.67    1.99
  -2  19   3    0.92    1.70
  -1  19   3    3.01    1.78
 -17  20   3    2.27    2.06
 -16  20   3    5.47    2.20
 -15  20   3   -0.30    1.81
 -14  20   3   11.50    2.25
 -13  20   3    0.86    1.87
 -12  20   3    3.12    1.99
 -11  20   3   10.98    2.23
 -10  20   3    4.36    1.93
  -9  20   3   12.93    2.28
  -8  20   3   -2.33    1.62
  -7  20   3    6.94    2.14
  -6  20   3    2.73    1.84
  -5  20   3   15.19    2.25
  -4  20   3    5.57    1.79
  -3  20   3    1.97    1.92
 -15  21   3    7.96    2.18
 -14  21   3   -1.80    1.79
 -13  21   3    0.27    1.88
 -12  21   3   -2.06    1.88
 -11  21   3    1.62    1.96
 -10  21   3   -0.77    1.84
  -9  21   3   14.42    2.46
  -8  21   3   12.38    2.34
  -7  21   3    2.09    1.99
  -6  21   3    9.00    2.34
  -7  21  -4    6.03    2.17
  -8  21  -4    1.93    1.96
  -9  21  -4    5.28    2.06
 -10  21  -4    4.04    1.98
 -11  21  -4    2.11    2.05
 -12  21  -4    7.63    2.24
 -13  21  -4    1.77    2.06
 -14  21  -4    2.08    2.16
  -4  20  -4   14.20    2.32
  -5  20  -4    2.29    1.81
  -6  20  -4    6.13    2.02
  -7  20  -4    4.37    2.08
  -8  20  -4   37.44    3.39
  -9  20  -4    8.85    2.17
 -10  20  -4    1.06    1.76
 -11  20  -4    0.05    1.81
 -12  20  -4    2.97    1.91
 -13  20  -4    1.31    1.93
 -14  20  -4    4.83    2.19
 -15  20  -4   37.71    3.40
 -16  20  -4   11.07    2.34
  -1  19  -4   -0.51    1.80
  -2  19  -4    5.21    1.91
  -3  19  -4    0.87    1.63
  -4  19  -4    3.59    1.73
  -5  19  -4   -0.58    1.53
  -6  19  -4    2.48    1.74
  -7  19  -4   14.19    2.26
  -8  19  -4    1.45    1.85
  -9  19  -4    0.87    1.78
 -10  19  -4   -0.05    1.63
 -11  19  -4    3.99    1.82
 -12  19  -4    0.43    1.77
 -13  19  -4    4.24    2.01
 -14  19  -4   14.47    2.34
 -15  19  -4    2.52    1.96
 -16  19  -4   -1.57    1.77
 -17  19  -4    9.68    2.36
 -18  19  -4   25.67    2.82
   0  18  -4    2.60    1.54
  -2  18  -4   -0.11    1.67
  -3  18  -4    8.78    1.88
  -4  18  -4    2.48    1.67
  -5  18  -4   20.24    2.39
  -6  18  -4   33.90    2.94
   6 -18   4   35.71    2.17
  -7  18  -4    1.38    1.60
  -8  18  -4   23.36    2.58
  -9  18  -4    1.76    1.68
 -10  18  -4    1.21    1.62
 -11  18  -4    2.28    1.68
 -12  18  -4   13.25    2.27
 -13  18  -4   15.68    2.28
 -14  18  -4   -0.78    1.77
 -15  18  -4    0.35    1.82
 -16  18  -4    2.74    1.86
 -17  18  -4   -2.98    1.68
 -18  18  -4    4.88    2.02
 -19  18  -4    1.72    1.90
   1  17  -4   -0.70    1.70
   0  17  -4   -0.61    1.64
  -3  17  -4    1.24    1.50
   4 -17   4   41.13    2.36
  -5  17  -4   10.82    1.90
   5 -17   4   14.82    1.53
  -6  17  -4   -0.64    1.40
   6 -17   4    0.24    0.98
  -7  17  -4    8.17    1.87
   7 -17   4    8.26    1.20
  -8  17  -4   15.76    2.16
   8 -17   4   16.35    1.41
  -9  17  -4   25.13    2.59
   9 -17   4   30.34    1.76
 -10  17  -4   32.49    2.87
 -11  17  -4   76.46    3.95
 -12  17  -4   21.37    2.42
 -13  17  -4    3.21    1.77
 -14  17  -4    4.14    1.86
 -15  17  -4    3.10    1.86
 -16  17  -4   -0.59    1.71
 -17  17  -4    3.64    1.91
 -18  17  -4   29.70    2.84
 -19  17  -4    7.35    2.00
   3 -16   4   12.15    1.55
  -4  16  -4    0.69    1.45
   4 -16   4    0.33    1.01
  -5  16  -4   -0.94    1.27
   5 -16   4   -0.53    0.93
  -6  16  -4    3.38    1.52
   6 -16   4    2.85    0.98
  -7  16  -4   44.93    3.12
   7 -16   4   49.34    2.25
  -8  16  -4   13.93    1.94
   8 -16   4   13.47    1.27
  -9  16  -4    5.08    1.69
   9 -16   4    6.50    1.00
 -10  16  -4    3.80    1.70
  10 -16   4    5.29    0.91
 -11  16  -4   26.53    2.49
  11 -16   4   27.46    1.58
 -12  16  -4   43.31    3.03
 -13  16  -4    4.30    1.78
 -13  16  -4    4.34    1.07
 -14  16  -4   40.70    3.08
 -15  16  -4   18.79    2.30
 -16  16  -4   23.43    2.44
 -17  16  -4   20.40    2.42
 -18  16  -4    3.27    1.86
 -19  16  -4    4.05    1.90
 -20  16  -4   10.57    2.04
   1 -15   4    5.22    1.39
   2 -15   4   56.56    2.67
   3 -15   4   23.45    1.86
   4 -15   4   32.04    2.00
  -5  15  -4    0.50    1.36
   5 -15   4    4.56    1.09
   6 -15   4   19.18    1.51
  -7  15  -4   20.22    2.19
   7 -15   4   22.84    1.55
  -8  15  -4   10.05    1.83
   8 -15   4    8.80    1.12
  -9  15  -4    4.29    1.56
   9 -15   4    6.32    0.96
 -10  15  -4   26.23    2.46
  10 -15   4   27.43    1.57
 -11  15  -4    2.50    1.51
  11 -15   4    0.60    0.73
 -12  15  -4    3.74    1.56
  12 -15   4    3.05    0.87
 -13  15  -4    8.55    1.24
 -13  15  -4    9.33    1.82
  13 -15   4   11.87    1.12
 -14  15  -4    0.29    0.95
 -14  15  -4    1.06    1.56
 -15  15  -4   -0.57    0.97
 -15  15  -4    0.58    1.57
 -16  15  -4    3.16    1.17
 -16  15  -4    1.64    1.66
 -17  15  -4   33.38    2.76
 -17  15  -4   35.96    2.35
 -18  15  -4    7.39    1.82
 -18  15  -4   10.10    1.52
 -19  15  -4    6.56    1.78
 -20  15  -4    0.67    1.63
   7  14  -4    0.86    1.68
   6  14  -4    5.23    1.83
   5  14  -4   10.92    1.99
   4  14  -4   -0.21    1.47
   3  14  -4    0.23    1.31
   2  14  -4   40.29    2.59
   0 -14   4   41.14    2.53
   1 -14   4   49.17    2.62
   2 -14   4    1.24    1.08
   3 -14   4    5.27    1.16
   4 -14   4   73.18    2.93
   5 -14   4   87.37    3.19
  -6  14  -4    1.72    1.36
   6 -14   4    0.89    0.84
   7 -14   4   56.71    2.38
  -8  14  -4   28.13    2.44
   8 -14   4   28.37    1.64
  -9  14  -4    2.35    1.36
   9 -14   4    1.16    0.76
 -10  14  -4   11.61    1.82
  10 -14   4   16.40    1.25
 -11  14  -4    1.52    1.41
  11 -14   4    0.63    0.78
 -12  14  -4   48.60    2.98
  12 -14   4   50.22    2.16
 -13  14  -4    7.66    1.22
 -13  14  -4   10.11    1.78
  13 -14   4    8.94    1.08
 -14  14  -4   34.36    2.78
 -14  14  -4   36.14    2.10
 -15  14  -4    7.23    1.29
 -15  14  -4    8.25    1.71
 -16  14  -4   -0.36    1.02
 -16  14  -4    0.74    1.50
 -17  14  -4    9.11    1.39
 -17  14  -4    8.96    1.45
 -17  14  -4    9.52    1.75
 -18  14  -4    2.76    1.27
 -18  14  -4    4.09    1.65
 -18  14  -4    1.29    1.14
 -19  14  -4    0.06    1.13
 -19  14  -4    0.49    1.39
 -20  14  -4    8.20    1.64
 -21  14  -4    2.50    1.46
   8  13  -4    1.44    1.73
   7  13  -4    3.61    1.72
   6  13  -4    4.93    1.60
   5  13  -4   17.84    2.16
   4  13  -4   -1.31    1.31
   3  13  -4    5.55    1.54
   2  13  -4   11.94    1.64
   1  13  -4    6.06    1.34
  -1 -13   4    7.57    1.42
   0  13  -4    0.31    1.13
   0 -13   4    2.69    1.13
  -1  13  -4   60.67    2.66
   1 -13   4   57.29    2.68
   2 -13   4   11.50    1.37
   3 -13   4   73.81    2.90
  -4  13  -4   12.85    0.79
   4 -13   4   10.81    1.24
   5 -13   4   42.90    2.05
   6 -13   4    3.68    0.92
   7 -13   4   40.70    1.95
  -8  13  -4   84.24    3.73
   8 -13   4   78.06    2.84
  -9  13  -4   25.22    2.19
   9 -13   4   26.91    1.57
 -10  13  -4  116.36    4.62
  10 -13   4  115.02    3.69
 -11  13  -4   56.64    3.12
  11 -13   4   59.37    2.33
 -12  13  -4    1.51    1.32
 -13  13  -4    1.21    1.00
 -13  13  -4   -0.38    1.34
 -14  13  -4   45.68    2.92
 -14  13  -4   46.11    2.39
 -15  13  -4   56.09    2.70
 -15  13  -4   51.81    3.03
 -16  13  -4    8.64    1.46
 -16  13  -4   11.41    1.43
 -16  13  -4   10.72    1.72
 -17  13  -4   34.55    2.20
 -17  13  -4   39.61    2.69
 -17  13  -4   39.28    2.48
 -18  13  -4   24.15    2.13
 -18  13  -4   22.56    1.94
 -18  13  -4   23.06    2.23
 -19  13  -4    1.84    1.45
 -19  13  -4    4.09    1.43
 -19  13  -4    3.00    1.24
 -20  13  -4    8.16    1.68
 -21  13  -4    1.98    1.49
   9  12  -4   10.86    2.13
   8  12  -4    2.70    1.73
   7  12  -4    0.09    1.53
   6  12  -4   15.34    2.04
   5  12  -4   26.34    2.34
   4  12  -4   47.68    2.81
   3  12  -4    2.56    1.29
   2  12  -4   48.76    2.62
  -2 -12   4   48.91    2.63
   1  12  -4    1.41    1.16
  -1 -12   4   -0.08    1.04
   0  12  -4    4.80    1.13
   0 -12   4    5.42    1.20
  -1  12  -4   13.91    1.40
   1 -12   4   13.21    1.41
  -2  12  -4   30.06    1.38
  -2  12  -4   31.44    1.84
   2 -12   4   31.20    1.86
  -3  12  -4    5.45    0.62
   3 -12   4    3.03    0.97
  -4  12  -4   17.78    0.88
   4 -12   4   17.01    1.40
   5 -12   4   44.13    2.04
   6 -12   4    4.34    0.89
  -7  12  -4   -2.31    1.02
   7 -12   4    0.48    0.75
  -8  12  -4   22.99    1.99
   8 -12   4   22.19    1.49
  -9  12  -4    6.60    1.45
   9 -12   4    6.83    0.94
 -10  12  -4   25.55    2.14
  10 -12   4   23.38    1.51
 -11  12  -4   62.56    3.09
  11 -12   4   55.43    1.63
  11 -12   4   55.76    1.60
 -12  12  -4    1.98    1.28
 -12  12  -4    4.73    1.12
 -13  12  -4   61.42    3.12
 -13  12  -4   56.53    2.58
 -14  12  -4   -0.08    0.99
 -14  12  -4    0.93    1.37
 -15  12  -4   25.13    2.19
 -15  12  -4   23.70    1.95
 -16  12  -4    0.70    1.05
 -16  12  -4    0.50    1.13
 -16  12  -4    0.36    1.37
 -17  12  -4   16.42    1.92
 -17  12  -4   15.34    1.66
 -17  12  -4   12.67    1.71
 -18  12  -4   32.60    2.39
 -18  12  -4   34.46    2.28
 -18  12  -4   37.12    2.65
 -19  12  -4   12.82    1.82
 -19  12  -4   13.85    1.72
 -20  12  -4   37.60    2.81
 -20  12  -4   35.10    2.48
 -21  12  -4    4.96    1.68
  10  11  -4   -0.13    1.70
   9  11  -4    3.35    1.75
   8  11  -4    5.12    1.74
   7  11  -4    0.76    1.46
   6  11  -4   73.97    3.57
   5  11  -4   23.31    2.18
   4  11  -4    1.28    1.23
   3  11  -4    1.70    1.18
  -3 -11   4    1.40    1.19
   2  11  -4   62.74    2.98
  -2 -11   4   65.45    2.94
   1  11  -4   59.01    2.63
  -1 -11   4   51.23    2.49
   0  11  -4   23.32    1.70
   0 -11   4   21.08    1.68
  -1  11  -4  235.72    6.74
  -1  11  -4  231.98    6.40
   1 -11   4  230.62    6.86
  -2  11  -4    7.57    0.73
  -2  11  -4    8.50    1.03
   2 -11   4    9.43    1.19
  -3  11  -4   13.04    1.11
  -3  11  -4   13.76    0.88
   3 -11   4   12.42    1.24
  -4  11  -4   55.12    1.74
   4 -11   4   58.53    2.36
   5 -11   4   51.64    2.16
   6 -11   4   18.85    1.39
   7 -11   4   25.21    1.47
   8 -11   4  149.20    4.50
  -9  11  -4    6.99    1.39
   9 -11   4    5.78    0.91
 -10  11  -4   20.26    1.86
  10 -11   4   17.75    0.78
  10 -11   4   18.18    0.88
 -11  11  -4   22.75    1.95
  11 -11   4   21.62    1.02
 -12  11  -4   15.50    1.50
 -12  11  -4   16.48    1.76
  12 -11   4   13.79    0.99
 -13  11  -4   12.15    1.41
 -13  11  -4   12.75    1.66
 -14  11  -4    7.00    1.24
 -14  11  -4    6.00    1.40
 -15  11  -4   31.57    2.10
 -15  11  -4   32.48    2.40
 -15  11  -4   30.82    2.06
 -16  11  -4    0.46    1.29
 -16  11  -4    1.06    1.21
 -16  11  -4   -0.35    1.02
 -17  11  -4   -0.21    1.16
 -17  11  -4   -1.59    0.97
 -17  11  -4   -0.24    1.09
 -18  11  -4    2.59    1.21
 -18  11  -4    1.09    1.27
 -18  11  -4    1.73    1.28
 -19  11  -4    0.96    1.30
 -19  11  -4    3.27    1.33
 -20  11  -4    5.60    1.66
 -20  11  -4    7.63    1.62
 -21  11  -4    3.75    1.49
 -21  11  -4    5.13    1.64
  11  10  -4    3.81    1.84
  10  10  -4    3.01    1.74
   9  10  -4   -0.05    1.36
   8  10  -4    3.58    1.59
   7  10  -4   28.83    2.46
   6  10  -4    3.71    1.45
   5  10  -4   29.93    2.35
   4  10  -4   16.23    1.74
  -4 -10   4   14.07    1.68
   3  10  -4  128.07    4.44
  -3 -10   4  121.19    4.43
   2  10  -4   24.37    1.87
  -2 -10   4   24.80    1.87
   1  10  -4   16.42    1.53
  -1 -10   4   18.99    1.59
   0  10  -4  106.93    3.55
   0 -10   4   97.56    3.54
  -1  10  -4   53.84    2.24
  -1  10  -4   56.51    2.00
   1 -10   4   52.91    2.34
  -2  10  -4   21.48    1.12
  -2  10  -4   21.21    1.47
   2 -10   4   22.01    1.53
  -3  10  -4   39.16    1.41
  -3  10  -4   37.52    1.67
   3 -10   4   36.42    1.83
  -4  10  -4  348.98    8.76
  -4  10  -4  332.87    8.95
   4 -10   4  337.46    9.26
   5 -10   4   79.88    2.78
   6 -10   4   41.27    1.85
   7 -10   4   35.98    1.73
   8 -10   4   64.80    1.79
  -9  10  -4   15.10    1.60
   9 -10   4   14.90    0.87
 -10  10  -4  103.52    3.97
 -11  10  -4  219.48    7.01
 -12  10  -4   26.12    1.82
 -12  10  -4   30.34    2.20
 -13  10  -4   75.77    3.35
 -13  10  -4   72.01    3.03
 -14  10  -4   73.20    3.19
 -14  10  -4   79.97    3.39
 -15  10  -4    2.48    1.18
 -15  10  -4    0.14    1.03
 -15  10  -4    4.04    1.27
 -16  10  -4    2.39    1.20
 -16  10  -4    1.55    1.11
 -16  10  -4    1.05    1.17
 -17  10  -4    7.08    1.52
 -17  10  -4    8.73    1.45
 -17  10  -4    5.86    1.39
 -18  10  -4   19.63    2.05
 -18  10  -4   17.38    1.83
 -19  10  -4   -0.47    1.21
 -19  10  -4    0.30    1.31
 -20  10  -4    0.63    1.30
 -20  10  -4    1.84    1.60
 -21  10  -4    1.49    1.55
 -21  10  -4    1.04    1.24
  12   9  -4    8.89    2.08
  11   9  -4    7.16    1.94
  10   9  -4   -0.98    1.44
   9   9  -4    5.47    1.67
   8   9  -4   28.80    2.48
   7   9  -4    5.16    1.53
   6   9  -4    4.41    1.29
   5   9  -4    2.85    1.28
  -5  -9   4    1.12    1.18
   4   9  -4   21.50    1.86
  -4  -9   4   24.04    1.94
   3   9  -4    6.83    1.27
  -3  -9   4    5.11    1.18
   2   9  -4    6.72    1.16
  -2  -9   4    5.35    1.14
   1   9  -4   17.47    1.48
  -1  -9   4   16.24    1.47
   0   9  -4  126.76    4.09
   0  -9   4  129.30    4.19
  -1   9  -4    2.30    0.79
  -1   9  -4    1.24    0.55
   1  -9   4    2.42    0.88
  -2   9  -4   32.36    1.61
  -2   9  -4   30.94    1.31
   2  -9   4   30.22    1.66
  -3   9  -4  161.27    4.53
  -3   9  -4  158.35    4.33
   3  -9   4  159.25    4.77
  -4   9  -4    9.17    0.76
   4  -9   4   10.30    1.03
  -5   9  -4    7.59    0.59
   5  -9   4    6.77    0.91
   5  -9   4    7.20    0.53
   6  -9   4   36.50    1.12
   6  -9   4   35.08    1.73
   7  -9   4  232.08    6.00
   8  -9   4   11.96    0.85
  -9   9  -4  121.64    4.36
 -10   9  -4   55.42    2.67
 -11   9  -4    5.66    1.11
 -11   9  -4    5.27    1.18
 -12   9  -4    4.56    1.23
 -12   9  -4    4.46    1.10
 -13   9  -4   13.05    1.51
 -13   9  -4    9.37    1.34
 -14   9  -4   93.05    3.63
 -14   9  -4   80.52    3.42
 -14   9  -4  100.71    3.69
 -15   9  -4   17.29    1.67
 -15   9  -4   16.91    1.81
 -15   9  -4   17.86    1.68
 -16   9  -4   51.04    2.62
 -16   9  -4   46.08    2.51
 -16   9  -4   47.45    2.70
 -17   9  -4   19.81    2.04
 -17   9  -4   18.62    1.70
 -17   9  -4   18.13    1.84
 -18   9  -4    1.50    1.24
 -18   9  -4    2.82    1.42
 -19   9  -4   -2.52    1.26
 -19   9  -4   -0.42    1.20
 -20   9  -4    4.59    1.45
 -20   9  -4    0.69    1.51
 -21   9  -4    8.84    1.71
 -21   9  -4    6.23    1.82
  13   8  -4    3.83    1.93
  12   8  -4   34.87    2.93
  11   8  -4    0.49    1.57
  10   8  -4   24.83    2.37
   9   8  -4   16.97    2.09
   8   8  -4    8.54    1.71
   7   8  -4    7.82    1.57
   6   8  -4   30.74    2.27
   5   8  -4   81.18    3.32
  -5  -8   4   83.96    3.42
   4   8  -4   23.61    1.85
  -4  -8   4   23.28    1.87
   3   8  -4  158.97    4.95
  -3  -8   4  145.78    4.92
   2   8  -4   67.68    2.71
  -2  -8   4   64.88    2.72
   1   8  -4   11.60    1.19
  -1  -8   4   10.80    1.24
   0   8  -4   50.40    2.14
   0   8  -4   49.02    1.92
   0  -8   4   50.21    2.24
  -1   8  -4   50.02    1.84
  -1   8  -4   52.79    2.07
   1  -8   4   51.94    2.20
  -2   8  -4  143.04    4.18
  -2   8  -4  147.20    4.02
   2  -8   4  140.99    4.37
  -3   8  -4    3.09    0.61
  -3   8  -4    3.95    0.54
   3  -8   4    4.06    0.85
   3  -8   4    3.78    0.52
  -4   8  -4   29.92    1.21
   4  -8   4   28.28    1.53
   4  -8   4   31.14    1.10
  -5   8  -4    7.06    0.50
   5  -8   4    7.60    0.91
   5  -8   4    7.55    0.53
   6  -8   4    0.56    0.39
   7  -8   4   84.92    2.55
  -9   8  -4    1.59    0.97
 -10   8  -4   24.63    1.90
 -11   8  -4   13.83    1.41
 -11   8  -4   13.54    1.44
 -12   8  -4   19.16    1.66
 -12   8  -4   20.34    1.70
 -13   8  -4   38.43    2.19
 -13   8  -4   35.72    2.20
 -14   8  -4    1.73    1.04
 -14   8  -4    1.46    1.10
 -14   8  -4    0.66    1.08
 -15   8  -4   20.73    1.84
 -15   8  -4   21.17    1.93
 -15   8  -4   23.26    1.91
 -16   8  -4   13.36    1.42
 -16   8  -4   10.53    1.58
 -16   8  -4    8.15    1.56
 -17   8  -4   30.13    2.40
 -17   8  -4   31.74    2.32
 -18   8  -4    0.59    1.29
 -18   8  -4    0.56    1.19
 -19   8  -4    5.95    1.65
 -19   8  -4    4.74    1.46
 -20   8  -4    4.75    1.51
 -20   8  -4    3.17    1.63
 -21   8  -4    0.20    1.57
 -21   8  -4    3.21    1.48
  14   7  -4    3.06    1.73
  13   7  -4    6.66    1.81
  12   7  -4   14.54    2.09
  11   7  -4    2.18    1.41
  10   7  -4    7.33    1.69
   9   7  -4   51.64    2.99
   8   7  -4   22.83    2.12
   7   7  -4   48.20    2.59
   6   7  -4   41.98    2.46
  -6  -7   4   40.86    2.38
   5   7  -4   -0.73    0.84
  -5  -7   4    0.47    1.01
   4   7  -4   28.36    1.92
  -4  -7   4   25.91    1.83
   3   7  -4   34.50    1.96
  -3  -7   4   31.19    1.82
   2   7  -4  243.61    7.01
  -2  -7   4  245.73    7.09
   1   7  -4   94.85    3.16
  -1  -7   4   89.32    3.17
   0   7  -4  562.08   15.31
   0   7  -4  603.93   15.19
   0  -7   4  599.61   15.51
  -1   7  -4  127.76    4.25
  -1   7  -4  146.96    4.19
  -1   7  -4  144.75    4.05
   1  -7   4  146.10    4.06
   1  -7   4  149.34    4.39
  -2   7  -4    7.09    0.77
  -2   7  -4    7.21    0.67
   2  -7   4    7.97    0.69
   2  -7   4    8.13    0.97
  -3   7  -4    8.16    0.69
  -3   7  -4    9.08    0.70
   3  -7   4    8.83    0.97
   3  -7   4    8.71    0.65
  -4   7  -4   92.76    2.65
   4  -7   4   92.29    3.05
   4  -7   4   95.61    2.67
  -5   7  -4  124.13    3.26
   5  -7   4  122.45    3.41
   6  -7   4    9.28    0.77
  -9   7  -4   33.05    1.92
 -10   7  -4   37.45    2.08
 -10   7  -4   36.88    1.33
 -11   7  -4   52.64    2.40
 -11   7  -4   55.84    2.47
 -11   7  -4   52.66    1.84
 -12   7  -4   43.45    2.15
 -12   7  -4   43.58    1.69
 -12   7  -4   39.49    2.25
 -13   7  -4    4.29    0.73
 -13   7  -4    6.30    1.09
 -13   7  -4    1.84    1.00
 -13   7  -4    2.91    1.13
 -14   7  -4   51.10    2.40
 -14   7  -4   46.37    2.62
 -14   7  -4   50.01    2.49
 -15   7  -4    7.89    1.38
 -15   7  -4    8.03    1.14
 -15   7  -4    8.42    1.43
 -16   7  -4    5.41    1.06
 -16   7  -4    4.13    1.30
 -16   7  -4    2.32    1.36
 -17   7  -4   27.53    2.38
 -17   7  -4   22.09    2.06
 -18   7  -4   -0.78    1.29
 -18   7  -4   -0.20    1.23
 -19   7  -4    2.24    1.51
 -19   7  -4    0.69    1.32
 -20   7  -4    3.46    1.46
 -20   7  -4    1.33    1.55
 -21   7  -4    4.78    1.65
 -21   7  -4   10.40    1.99
  14   6  -4    7.82    1.98
  13   6  -4    0.40    1.59
  12   6  -4   37.99    2.82
  11   6  -4   -1.15    1.36
  10   6  -4    5.37    1.45
   9   6  -4   20.01    2.03
   8   6  -4    2.00    1.30
   7   6  -4    5.05    1.22
  -7  -6   4    5.33    1.28
   6   6  -4    5.35    1.25
  -6  -6   4    4.03    1.06
   5   6  -4   19.30    1.60
  -5  -6   4   17.28    1.53
   4   6  -4   42.95    2.23
  -4  -6   4   43.23    2.11
   3   6  -4   33.28    1.87
  -3  -6   4   33.15    1.87
   2   6  -4    1.02    0.77
  -2  -6   4    0.12    0.70
   1   6  -4    9.92    1.00
   1   6  -4    9.48    0.88
  -1  -6   4   10.41    1.11
   0   6  -4  291.41    8.13
   0   6  -4  296.51    8.02
   0   6  -4  302.70    7.91
   0  -6   4  297.10    7.92
   0  -6   4  295.51    8.15
  -1   6  -4  266.48    7.59
  -1   6  -4  278.26    7.45
  -1   6  -4  285.61    7.37
   1  -6   4  277.89    7.37
   1  -6   4  281.05    7.69
  -2   6  -4   22.24    1.11
  -2   6  -4   22.35    1.14
   2  -6   4   20.24    1.05
   2  -6   4   22.21    1.31
  -3   6  -4  154.81    4.37
  -3   6  -4  162.88    4.46
   3  -6   4  161.29    4.74
   3  -6   4  168.66    4.42
  -4   6  -4    2.18    0.41
   4  -6   4    1.26    0.46
   5  -6   4    4.29    0.61
  -7   6  -4  137.89    3.62
  -8   6  -4  140.34    4.56
  -8   6  -4  142.02    3.79
  -9   6  -4  169.04    4.59
  -9   6  -4  169.36    5.27
 -10   6  -4  336.70    8.64
 -10   6  -4  322.96    9.31
 -10   6  -4  327.20    9.45
 -11   6  -4   48.02    2.44
 -11   6  -4   51.70    1.92
 -11   6  -4   54.02    2.32
 -12   6  -4    4.82    0.77
 -12   6  -4    6.41    1.00
 -12   6  -4    3.01    1.11
 -12   6  -4    4.24    1.07
 -13   6  -4   36.36    2.29
 -13   6  -4   40.14    2.00
 -13   6  -4   36.49    2.13
 -14   6  -4   26.67    2.13
 -14   6  -4   25.59    1.95
 -14   6  -4   28.73    1.73
 -15   6  -4    4.73    0.94
 -15   6  -4    5.22    1.40
 -15   6  -4    5.07    1.30
 -16   6  -4    6.05    1.50
 -16   6  -4    3.74    1.32
 -17   6  -4   78.17    3.60
 -17   6  -4   73.97    3.46
 -18   6  -4   12.48    1.82
 -18   6  -4   13.16    1.97
 -19   6  -4    2.19    1.60
 -19   6  -4    2.44    1.44
 -20   6  -4    7.56    1.76
 -20   6  -4    7.54    1.74
  15   5  -4    4.20    1.84
  14   5  -4    0.49    1.41
  13   5  -4   20.38    2.34
  12   5  -4   17.66    2.16
  11   5  -4    0.10    1.35
  10   5  -4    2.85    1.37
   9   5  -4   93.98    3.87
   8   5  -4   41.30    2.48
   7   5  -4   43.58    2.30
  -7  -5   4   40.10    2.28
   6   5  -4   52.82    2.51
  -6  -5   4   46.56    2.38
   5   5  -4   82.68    3.06
  -5  -5   4   77.19    3.08
   4   5  -4    8.65    1.14
  -4  -5   4    7.14    1.05
   3   5  -4    9.22    1.05
  -3  -5   4    7.95    1.07
   2   5  -4  126.53    3.95
  -2  -5   4  129.15    4.04
  -2  -5   4  123.06    3.82
   1   5  -4    3.79    0.67
   1   5  -4    4.04    0.78
   1   5  -4    3.37    0.72
  -1  -5   4    4.14    0.86
  -1  -5   4    3.93    0.72
   0   5  -4   89.96    2.80
   0   5  -4   89.24    2.91
   0   5  -4   88.82    2.97
   0  -5   4   93.69    3.05
   0  -5   4   92.41    2.81
  -1   5  -4  267.42    7.04
  -1   5  -4  264.16    7.08
   1  -5   4  259.44    7.28
   1  -5   4  269.88    7.06
  -2   5  -4   41.07    1.48
  -2   5  -4   38.22    1.47
   2  -5   4   36.01    1.73
   2  -5   4   37.33    1.43
   3  -5   4  222.26    5.93
   4  -5   4    0.26    0.50
  -7   5  -4    6.84    0.59
  -8   5  -4    3.22    0.53
  -8   5  -4    3.19    0.77
  -9   5  -4    9.53    0.79
  -9   5  -4    8.81    1.01
 -10   5  -4   77.91    2.82
 -10   5  -4   79.66    2.58
 -10   5  -4   74.47    3.03
 -11   5  -4   18.05    1.44
 -11   5  -4   18.24    1.57
 -11   5  -4   15.92    1.48
 -11   5  -4   17.96    1.23
 -12   5  -4    1.25    0.71
 -12   5  -4    0.53    0.97
 -12   5  -4   -1.39    0.92
 -13   5  -4   74.94    3.21
 -13   5  -4   73.95    3.15
 -13   5  -4   77.38    2.74
 -14   5  -4   -0.19    0.72
 -14   5  -4    2.04    1.05
 -14   5  -4    0.84    1.13
 -15   5  -4   27.68    2.27
 -15   5  -4   23.56    2.05
 -16   5  -4   20.83    2.01
 -16   5  -4   21.22    2.14
 -17   5  -4   22.53    2.26
 -17   5  -4   25.36    2.28
 -18   5  -4   13.60    1.86
 -18   5  -4   14.51    2.12
 -19   5  -4   11.76    1.89
 -19   5  -4   10.87    1.92
 -20   5  -4   35.48    2.77
 -20   5  -4   36.53    2.84
  16   4  -4   16.30    2.39
  15   4  -4    2.83    1.83
  14   4  -4    2.47    1.64
  13   4  -4   40.64    2.72
  12   4  -4    0.52    1.38
  11   4  -4   23.58    2.19
  10   4  -4   79.16    3.50
   9   4  -4   11.03    1.52
  -8  -4   4   16.27    1.58
   7   4  -4   55.45    2.65
  -7  -4   4   55.93    2.50
   6   4  -4  337.54    9.65
  -6  -4   4  353.31    9.71
   5   4  -4   10.14    1.26
  -5  -4   4   10.49    1.23
   4   4  -4   32.00    1.83
  -4  -4   4   32.05    1.78
   3   4  -4   94.73    3.19
  -3  -4   4   93.47    3.17
  -3  -4   4   93.39    3.09
   2   4  -4    3.00    0.75
   2   4  -4    0.38    0.66
   2   4  -4    1.12    0.58
  -2  -4   4    1.70    0.66
  -2  -4   4    2.13    0.79
   1   4  -4    0.44    0.58
   1   4  -4    0.06    0.61
   1   4  -4    0.40    0.50
  -1  -4   4    0.56    0.57
  -1  -4   4   -0.37    0.61
   0   4  -4  102.30    3.02
   0   4  -4  104.87    3.21
   0   4  -4  103.63    3.12
   0  -4   4   94.63    3.01
   0  -4   4  103.32    3.28
  -1   4  -4  351.95    8.87
   1  -4   4  324.83    8.83
   1  -4   4  336.62    9.07
  -2   4  -4   34.89    1.48
   2  -4   4   36.75    1.43
   3  -4   4  277.47    7.36
  -7   4  -4    8.34    0.71
  -8   4  -4   30.50    1.37
  -8   4  -4   28.21    1.56
  -9   4  -4    8.89    1.19
  -9   4  -4    8.03    0.84
  -9   4  -4    8.75    0.88
 -10   4  -4   40.86    1.85
 -10   4  -4   41.87    2.15
 -10   4  -4   43.10    1.79
 -11   4  -4   25.12    1.75
 -11   4  -4   24.24    1.39
 -11   4  -4   25.28    1.87
 -12   4  -4   21.99    1.77
 -12   4  -4   23.39    1.36
 -12   4  -4   25.07    1.82
 -13   4  -4   22.32    1.88
 -13   4  -4   22.77    1.31
 -13   4  -4   22.56    1.88
 -14   4  -4   16.70    1.84
 -14   4  -4   14.76    1.64
 -15   4  -4    0.77    1.20
 -15   4  -4    1.41    1.30
 -16   4  -4   42.29    2.65
 -16   4  -4   44.47    2.69
 -17   4  -4    0.28    1.34
 -17   4  -4    2.75    1.36
 -18   4  -4   -0.77    1.32
 -18   4  -4   -0.36    1.42
 -19   4  -4   -0.16    1.55
 -19   4  -4    2.53    1.51
 -20   4  -4    5.90    1.79
 -20   4  -4   10.22    2.09
  16   3  -4    1.92    1.82
  15   3  -4    8.06    1.84
  14   3  -4    8.37    1.87
 -14  -3   4    7.99    1.69
  13   3  -4   10.81    1.87
 -13  -3   4   11.83    1.89
  12   3  -4   23.83    2.20
 -12  -3   4   21.12    2.16
  11   3  -4    4.95    1.43
  10   3  -4   71.91    3.32
   9   3  -4    5.54    1.27
   8   3  -4   10.26    1.38
  -8  -3   4   11.99    1.34
   7   3  -4   38.83    2.08
  -7  -3   4   35.88    1.94
   6   3  -4  160.40    5.04
  -6  -3   4  164.22    5.03
   5   3  -4    3.86    0.89
  -5  -3   4    5.40    0.92
   4   3  -4    7.44    1.04
  -4  -3   4    6.20    0.90
  -4  -3   4    7.95    0.98
   3   3  -4  154.69    4.70
   3   3  -4  156.90    4.73
  -3  -3   4  162.52    4.68
  -3  -3   4  163.58    4.77
   2   3  -4  230.79    6.31
   2   3  -4  217.71    6.25
   2   3  -4  220.75    6.16
  -2  -3   4  220.33    6.28
  -2  -3   4  233.94    6.22
   1   3  -4  283.62    7.88
   1   3  -4  300.57    8.05
  -1  -3   4  303.82    7.94
  -1  -3   4  300.24    8.07
   0   3  -4   63.60    2.11
   0  -3   4   62.50    2.29
   0  -3   4   62.34    2.10
  -1   3  -4  117.72    3.50
   1  -3   4  124.37    3.52
   1  -3   4  123.54    3.70
   2  -3   4    1.57    0.59
   3  -3   4   56.72    2.01
  -7   3  -4   88.52    2.76
  -8   3  -4    8.21    1.17
  -8   3  -4    7.03    0.81
  -8   3  -4    7.07    0.75
  -9   3  -4   34.54    1.66
  -9   3  -4   35.41    1.54
  -9   3  -4   37.12    2.06
 -10   3  -4   31.86    1.90
 -10   3  -4   31.59    1.98
 -10   3  -4   32.14    1.39
 -11   3  -4  140.46    4.10
 -11   3  -4  141.98    4.80
 -11   3  -4  139.16    4.64
 -12   3  -4    6.78    0.61
 -12   3  -4    6.30    1.23
 -12   3  -4    4.65    1.17
 -13   3  -4  116.39    4.10
 -13   3  -4  105.14    4.14
 -14   3  -4    0.52    1.13
 -14   3  -4    1.92    1.18
 -15   3  -4    1.68    1.25
 -15   3  -4    3.70    1.40
 -16   3  -4    4.65    1.48
 -16   3  -4    2.19    1.46
 -17   3  -4    4.28    1.54
 -17   3  -4    3.45    1.54
 -18   3  -4    0.32    1.51
 -18   3  -4    3.56    1.42
 -19   3  -4   -1.27    1.40
 -19   3  -4   -3.27    1.42
  17   2  -4    8.16    1.98
  16   2  -4    1.32    1.50
 -16  -2   4    1.84    1.59
  15   2  -4   41.18    2.93
 -15  -2   4   38.32    2.76
  14   2  -4   -0.10    1.25
 -14  -2   4   -0.94    1.23
  13   2  -4   53.99    3.04
 -13  -2   4   53.17    3.06
  12   2  -4   -0.19    1.24
 -12  -2   4    3.06    1.26
  11   2  -4   11.85    1.62
 -11  -2   4   12.37    1.62
  10   2  -4   28.49    2.16
 -10  -2   4   28.01    2.03
   9   2  -4    4.72    1.12
  -9  -2   4    8.05    1.28
   8   2  -4   24.88    1.90
  -8  -2   4   25.21    1.66
   7   2  -4   32.27    1.94
  -7  -2   4   31.22    1.76
   6   2  -4  147.22    4.64
  -6  -2   4  150.93    4.67
   5   2  -4    7.94    1.08
  -5  -2   4    6.03    0.91
  -5  -2   4    7.76    1.00
   4   2  -4   23.67    1.39
   4   2  -4   24.26    1.63
  -4  -2   4   21.95    1.34
  -4  -2   4   22.14    1.40
   3   2  -4   39.97    1.76
   3   2  -4   43.87    1.77
  -3  -2   4   41.07    1.80
   2   2  -4   32.38    1.60
   2   2  -4   33.01    1.48
  -2  -2   4   38.32    1.57
  -2  -2   4   36.44    1.58
   1   2  -4    3.01    0.61
  -1  -2   4    1.68    0.67
  -1  -2   4    2.45    0.63
   0   2  -4  100.35    3.07
   0  -2   4  107.32    3.23
   0  -2   4  102.58    3.11
  -1   2  -4    9.68    0.84
   1  -2   4    7.83    0.77
   2  -2   4  102.57    3.14
  -6   2  -4    0.99    0.61
  -7   2  -4  121.04    3.68
  -7   2  -4  127.94    3.73
  -8   2  -4    0.96    0.80
  -8   2  -4   -0.08    0.64
  -8   2  -4    0.20    0.46
  -9   2  -4  230.72    6.16
  -9   2  -4  218.61    6.67
  -9   2  -4  217.81    6.53
 -10   2  -4   63.61    2.62
 -10   2  -4   60.95    2.68
 -11   2  -4    6.39    1.15
 -11   2  -4    4.53    1.20
 -12   2  -4   20.85    1.92
 -12   2  -4   25.18    1.98
 -13   2  -4   63.57    2.99
 -13   2  -4   61.12    2.99
 -14   2  -4   51.60    2.78
 -14   2  -4   50.73    2.78
 -15   2  -4   11.31    1.73
 -15   2  -4    8.88    1.63
 -16   2  -4   36.91    2.65
 -16   2  -4   43.59    2.87
 -17   2  -4    3.78    1.55
 -17   2  -4    4.01    1.50
 -18   2  -4    2.53    1.58
 -18   2  -4    0.33    1.48
 -19   2  -4   10.08    2.09
 -19   2  -4    5.79    1.74
  18   1  -4    0.64    1.57
  17   1  -4   29.30    2.79
 -17  -1   4   25.99    2.70
  16   1  -4   23.96    2.48
 -16  -1   4   21.35    2.47
  15   1  -4    4.02    1.60
 -15  -1   4    4.14    1.61
  14   1  -4    5.81    1.63
 -14  -1   4    7.61    1.68
  13   1  -4   49.75    2.87
 -13  -1   4   41.11    2.73
  12   1  -4   56.07    2.97
 -12  -1   4   60.63    2.95
  11   1  -4   12.19    1.54
 -11  -1   4   15.16    1.73
  10   1  -4  226.12    6.97
 -10  -1   4  229.08    7.05
   9   1  -4   62.03    2.71
  -9  -1   4   51.35    2.50
   8   1  -4    1.13    0.85
  -8  -1   4    3.03    0.89
   7   1  -4   47.51    2.23
  -7  -1   4   49.94    2.15
   6   1  -4  135.97    4.48
  -6  -1   4  148.80    4.47
  -6  -1   4  144.60    4.41
   5   1  -4  280.59    7.71
   5   1  -4  299.45    7.95
   5   1  -4  283.92    7.81
  -5  -1   4  275.99    7.82
  -5  -1   4  281.70    7.85
   4   1  -4  272.32    7.36
  -4  -1   4  272.43    7.39
  -4  -1   4  256.65    7.32
   3   1  -4  349.53    9.23
   3   1  -4  345.70    9.17
  -3  -1   4  335.07    9.22
  -3  -1   4  349.53    9.21
   2   1  -4  118.30    3.58
   2   1  -4  127.58    3.68
  -2  -1   4  122.17    3.66
  -2  -1   4  120.02    3.64
   1   1  -4   10.87    0.85
  -1  -1   4    9.34    0.86
  -1  -1   4    8.53    0.88
   0   1  -4   49.09    1.84
   0  -1   4   47.50    1.84
   1  -1   4   42.51    1.66
  -6   1  -4    3.82    0.74
  -7   1  -4   10.62    0.79
  -7   1  -4    9.25    1.18
  -8   1  -4   80.45    3.06
  -8   1  -4   81.49    2.99
  -9   1  -4    9.88    1.27
  -9   1  -4   13.94    1.45
 -10   1  -4   15.43    1.56
 -10   1  -4   14.54    1.48
 -11   1  -4   17.26    1.67
 -11   1  -4   17.47    1.62
 -12   1  -4   53.51    2.73
 -12   1  -4   55.67    2.85
 -13   1  -4    0.64    1.20
 -13   1  -4    0.05    1.13
 -14   1  -4    6.70    1.41
 -14   1  -4    4.74    1.48
 -15   1  -4    0.06    1.25
 -15   1  -4    1.91    1.43
 -16   1  -4   17.23    1.98
 -16   1  -4   15.63    2.10
 -17   1  -4    0.88    1.57
 -17   1  -4    1.74    1.49
 -18   1  -4    0.22    1.56
 -18   1  -4    1.05    1.53
 -19   1  -4   22.99    2.57
 -19   1  -4   26.54    2.80
  18   0  -4    5.01    1.87
 -18   0   4    4.73    1.83
  17   0  -4    5.45    1.79
 -17   0   4    3.23    1.56
  16   0  -4   21.03    2.20
 -16   0   4   21.35    2.38
  15   0  -4   -0.60    1.22
 -15   0   4   -2.18    1.24
 -14   0   4   44.66    2.83
  13   0  -4   -0.47    1.21
 -13   0   4    2.41    1.33
  12   0  -4    3.71    1.33
 -12   0   4    6.07    1.41
  11   0  -4   22.71    1.89
 -11   0   4   25.71    2.03
  10   0  -4   99.29    3.74
 -10   0   4  103.33    3.78
 -10   0   4  105.95    3.70
   9   0  -4  122.99    4.20
  -9   0   4  126.58    4.14
   8   0  -4   50.78    2.31
  -8   0   4   51.81    2.27
   7   0  -4  639.49   16.44
  -7   0   4  610.25   16.32
  -7   0   4  611.46   16.31
   6   0  -4  292.83    8.19
   6   0  -4  304.64    8.35
   6   0  -4  308.93    8.12
  -6   0   4  292.89    8.24
  -6   0   4  297.45    8.22
   5   0  -4   89.04    2.92
   5   0  -4   88.69    2.94
  -5   0   4   92.61    2.96
  -5   0   4   90.64    3.00
   4   0  -4  103.59    3.17
   4   0  -4  101.67    3.14
  -4   0   4  102.48    3.24
  -4   0   4   96.43    3.15
   3   0  -4   63.62    2.24
   3   0  -4   57.24    2.14
  -3   0   4   64.26    2.25
  -3   0   4   63.59    2.19
   2   0  -4  111.22    3.26
  -2   0   4  101.83    3.21
  -2   0   4  104.54    3.25
   1   0  -4   49.82    1.86
  -1   0   4   46.37    1.80
   0   0  -4  152.73    4.35
   0   0   4  142.24    4.27
   1   0   4   45.65    1.83
  -6   0  -4  290.50    8.03
  -6   0  -4  275.88    7.64
  -7   0  -4  585.36   15.19
  -7   0  -4  564.45   15.43
  -8   0  -4   44.04    2.13
  -8   0  -4   51.04    2.39
  -9   0  -4  119.94    4.06
  -9   0  -4  112.33    4.04
 -10   0  -4  100.54    3.71
 -10   0  -4   95.22    3.61
 -11   0  -4   22.91    1.95
 -11   0  -4   21.22    1.88
 -12   0  -4    2.06    1.20
 -12   0  -4    3.82    1.31
 -13   0  -4    2.16    1.21
 -13   0  -4    0.48    1.20
 -14   0  -4   36.15    2.54
 -14   0  -4   36.96    2.62
 -15   0  -4    0.48    1.26
 -15   0  -4   -1.37    1.25
 -16   0  -4   20.71    2.30
 -16   0  -4   18.55    2.20
 -17   0  -4    2.67    1.58
 -17   0  -4    2.68    1.61
 -18   0  -4    1.70    1.66
 -18   0  -4   -0.45    1.39
  19  -1  -4   23.93    2.71
 -19   1   4   25.43    2.75
  18  -1  -4    0.81    1.66
 -18   1   4   -0.59    1.53
  17  -1  -4    0.36    1.53
 -17   1   4    0.58    1.36
  16  -1  -4   19.53    2.21
 -16   1   4   16.37    2.13
  15  -1  -4    2.38    1.48
 -15   1   4    2.58    1.41
  14  -1  -4    5.62    1.40
 -14   1   4    7.55    1.60
  13  -1  -4    0.37    1.20
 -13   1   4    2.65    1.27
  12  -1  -4   57.20    2.79
 -12   1   4   58.46    2.88
  11  -1  -4   20.69    1.76
 -11   1   4   17.42    1.65
  10  -1  -4   13.55    1.48
 -10   1   4   17.09    1.50
 -10   1   4   16.07    1.53
   9  -1  -4   13.61    1.37
  -9   1   4   12.13    1.28
   8  -1  -4   93.09    3.28
  -8   1   4   90.59    3.21
  -8   1   4   90.32    3.16
   7  -1  -4   10.88    1.01
   7  -1  -4   10.41    1.02
  -7   1   4   10.02    1.07
  -7   1   4   10.57    1.14
   6  -1  -4    3.79    0.76
   6  -1  -4    2.99    0.71
  -6   1   4    4.21    0.81
  -6   1   4    3.76    0.86
   5  -1  -4    0.43    0.59
  -5   1   4    1.10    0.71
  -5   1   4    0.46    0.65
   4  -1  -4  280.98    7.69
   4  -1  -4  297.13    7.79
   4  -1  -4  268.99    8.38
  -4   1   4  293.94    7.79
  -4   1   4  291.74    7.74
   3  -1  -4    2.47    0.61
  -3   1   4    2.04    0.68
  -3   1   4    1.64    0.63
   2  -1  -4    8.29    0.87
  -2   1   4    9.75    0.88
  -2   1   4    7.88    0.82
   1  -1  -4   49.37    1.93
  -1   1   4   45.96    1.82
   0   1   4   44.58    1.89
  -1  -1  -4    7.83    0.84
  -2  -1  -4  114.91    3.57
  -3  -1  -4  326.43    9.02
  -4  -1  -4  258.81    7.16
  -5  -1  -4  282.49    7.88
  -5  -1  -4  274.96    7.56
  -6  -1  -4  133.50    4.32
  -6  -1  -4  130.43    4.17
  -7  -1  -4   43.80    2.08
  -7  -1  -4   47.43    2.18
  -8  -1  -4    1.54    0.97
  -8  -1  -4    2.10    0.96
  -9  -1  -4   55.29    2.66
  -9  -1  -4   50.57    2.41
 -10  -1  -4  219.14    6.74
 -10  -1  -4  206.17    6.56
 -11  -1  -4   15.68    1.64
 -11  -1  -4   12.59    1.69
 -12  -1  -4   61.95    2.94
 -12  -1  -4   61.75    3.03
 -13  -1  -4   51.38    2.98
 -13  -1  -4   48.91    2.83
 -14  -1  -4    6.18    1.59
 -14  -1  -4    6.43    1.51
 -15  -1  -4   -1.27    1.33
 -15  -1  -4    3.13    1.58
 -16  -1  -4   14.78    2.05
 -16  -1  -4   20.58    2.37
 -17  -1  -4   25.67    2.59
 -17  -1  -4   27.79    2.77
 -18  -1  -4   -0.16    1.59
 -18  -1  -4   -0.04    1.66
  19  -2  -4    9.73    2.06
 -19   2   4    7.88    1.96
  18  -2  -4    0.29    1.54
 -18   2   4    1.45    1.42
  17  -2  -4    3.43    1.63
 -17   2   4    4.02    1.63
 -16   2   4   44.96    2.90
  15  -2  -4    9.80    1.68
 -15   2   4   10.23    1.73
  14  -2  -4   48.18    2.76
 -14   2   4   49.11    2.81
  13  -2  -4   67.26    3.15
 -13   2   4   64.26    3.00
  12  -2  -4   21.37    1.79
 -12   2   4   25.64    2.02
  11  -2  -4    8.00    1.31
 -11   2   4    6.00    1.22
  10  -2  -4   63.10    2.72
 -10   2   4   67.30    2.66
 -10   2   4   65.38    2.74
   9  -2  -4  239.99    7.04
  -9   2   4  246.98    7.04
  -9   2   4  239.50    6.92
   8  -2  -4    0.63    0.66
  -8   2   4    0.87    0.70
  -8   2   4    0.40    0.73
   7  -2  -4  131.69    3.96
   7  -2  -4  129.58    3.88
  -7   2   4  133.05    4.10
  -7   2   4  127.88    3.97
   6  -2  -4    0.89    0.59
   6  -2  -4    0.93    0.61
  -6   2   4    2.54    0.69
  -6   2   4    1.86    0.68
   5  -2  -4  232.14    6.46
   5  -2  -4  233.63    6.37
  -5   2   4  233.92    6.47
  -5   2   4  228.97    6.36
   4  -2  -4   31.67    1.93
   4  -2  -4   32.06    1.52
  -4   2   4   34.81    1.46
  -4   2   4   37.62    1.59
   3  -2  -4  113.64    3.96
   3  -2  -4  121.64    3.61
  -3   2   4  122.32    3.54
  -3   2   4  121.07    3.61
   2  -2  -4  104.31    3.21
   2  -2  -4  101.54    3.51
  -2   2   4  104.42    3.26
   1  -2  -4    8.31    0.93
  -1   2   4    7.84    0.91
   0  -2  -4  104.97    3.42
   0   2   4  103.50    3.36
  -1  -2  -4    1.88    0.63
  -2  -2  -4   31.96    1.49
  -3  -2  -4   42.45    1.66
  -4  -2  -4   21.70    1.06
  -4  -2  -4   21.61    1.44
  -5  -2  -4    8.66    0.66
  -5  -2  -4    8.02    1.12
  -5  -2  -4    6.88    1.04
  -6  -2  -4  138.53    4.54
  -6  -2  -4  144.45    4.51
  -7  -2  -4   32.66    1.95
  -7  -2  -4   30.00    1.76
  -8  -2  -4   18.66    1.59
  -8  -2  -4   23.75    1.69
  -9  -2  -4    5.73    1.16
  -9  -2  -4    5.39    1.18
 -10  -2  -4   28.45    2.04
 -10  -2  -4   29.47    2.08
 -11  -2  -4   12.64    1.69
 -11  -2  -4    9.91    1.49
 -12  -2  -4    0.90    1.25
 -12  -2  -4    3.52    1.25
 -13  -2  -4   55.45    3.11
 -13  -2  -4   51.18    2.96
 -14  -2  -4   -0.66    1.23
 -14  -2  -4    0.22    1.22
 -15  -2  -4   29.30    2.70
 -15  -2  -4   35.36    2.56
 -16  -2  -4    0.28    1.39
 -16  -2  -4    2.54    1.58
 -17  -2  -4    9.84    2.03
 -17  -2  -4    6.82    1.82
  19  -3  -4   -1.41    1.27
 -19   3   4   -0.75    1.48
  18  -3  -4    0.87    1.52
 -18   3   4    1.68    1.56
  17  -3  -4    2.61    1.55
 -17   3   4    0.95    1.42
  16  -3  -4    4.61    1.49
 -16   3   4    3.98    1.55
  15  -3  -4    3.01    1.36
 -15   3   4    2.69    1.27
  14  -3  -4    2.24    1.26
 -14   3   4    2.22    1.26
  13  -3  -4  123.05    4.37
 -13   3   4  116.71    4.39
  12  -3  -4    7.95    1.33
 -12   3   4    6.01    1.27
  11  -3  -4  146.38    4.83
 -11   3   4  151.15    4.90
  10  -3  -4   30.79    1.81
 -10   3   4   32.63    1.75
 -10   3   4   34.16    1.96
   9  -3  -4   37.90    1.68
  -9   3   4   35.32    1.77
  -9   3   4   37.01    1.90
   8  -3  -4    8.10    0.84
   8  -3  -4    8.60    0.89
  -8   3   4    7.25    0.91
  -8   3   4    6.43    0.96
   7  -3  -4   96.92    2.94
   7  -3  -4   92.13    2.99
  -7   3   4   97.03    3.23
  -7   3   4   91.99    3.00
   6  -3  -4  160.84    4.60
   6  -3  -4  164.32    4.50
   6  -3  -4  158.05    4.68
  -6   3   4  160.30    4.61
  -6   3   4  165.51    4.81
  -5   3   4   39.43    1.78
  -5   3   4   37.73    1.60
   4  -3  -4  342.69    9.13
   4  -3  -4  335.51    9.81
  -4   3   4  347.26    9.17
  -4   3   4  355.04    9.89
  -4   3   4  328.66    8.99
   3  -3  -4   59.47    2.19
   3  -3  -4   59.72    2.49
  -3   3   4   65.64    2.31
  -3   3   4   65.46    2.55
   2  -3  -4    3.42    0.78
   2  -3  -4    2.82    0.76
  -2   3   4    1.79    0.74
  -2   3   4    1.52    0.75
   1  -3  -4  115.57    3.80
  -1   3   4  122.83    3.82
  -1   3   4  114.20    3.64
   0  -3  -4   58.17    2.27
   0   3   4   61.51    2.30
  -1  -3  -4  286.70    8.22
   1   3   4  296.55    8.23
  -2  -3  -4  223.77    6.44
   2   3   4  229.52    6.46
  -3  -3  -4  157.84    4.55
  -3  -3  -4  149.22    4.60
   3   3   4  161.30    4.57
  -4  -3  -4    7.04    0.98
  -4  -3  -4    8.33    0.62
  -4  -3  -4    8.08    1.01
  -5  -3  -4    3.01    0.94
  -5  -3  -4    4.33    0.97
  -6  -3  -4  162.45    5.05
  -6  -3  -4  162.92    5.12
  -7  -3  -4   39.73    2.03
  -7  -3  -4   39.04    2.04
  -8  -3  -4   12.40    1.40
  -8  -3  -4   12.45    1.43
  -9  -3  -4    4.61    1.22
  -9  -3  -4    2.67    1.18
 -10  -3  -4   67.01    3.05
 -10  -3  -4   72.02    3.29
 -11  -3  -4    6.76    1.40
 -11  -3  -4    4.39    1.39
 -12  -3  -4   19.91    2.06
 -12  -3  -4   25.39    2.29
 -13  -3  -4   10.41    1.69
 -13  -3  -4   10.91    1.80
 -14  -3  -4    5.77    1.68
 -14  -3  -4    7.00    1.63
 -15  -3  -4    7.56    1.80
 -15  -3  -4    7.52    1.88
 -16  -3  -4    4.83    1.84
 -16  -3  -4    2.77    1.72
  20  -4  -4   12.32    2.09
 -20   4   4   12.66    2.06
  19  -4  -4    2.86    1.58
 -19   4   4   -0.34    1.51
  18  -4  -4    0.30    1.38
 -18   4   4    1.69    1.47
  17  -4  -4    0.96    1.30
 -17   4   4    0.23    1.35
  16  -4  -4   42.87    2.55
 -16   4   4   47.80    2.84
  15  -4  -4    1.35    1.19
 -15   4   4    1.47    1.22
  14  -4  -4   13.82    1.62
 -14   4   4   13.02    1.67
  13  -4  -4   27.02    2.00
 -13   4   4   25.74    1.99
  12  -4  -4   23.34    1.69
 -12   4   4   20.44    1.71
  11  -4  -4   25.49    1.69
 -11   4   4   25.85    1.76
  10  -4  -4   43.97    1.85
 -10   4   4   42.84    1.95
 -10   4   4   40.79    2.03
   9  -4  -4    8.61    0.85
   9  -4  -4    8.95    0.87
  -9   4   4    8.90    1.11
  -9   4   4    7.83    0.93
   8  -4  -4   33.22    1.52
   8  -4  -4   30.95    1.40
  -8   4   4   34.75    1.60
  -8   4   4   32.69    1.67
   7  -4  -4    8.90    0.74
   7  -4  -4    8.79    0.79
  -7   4   4    7.55    1.22
  -7   4   4    8.60    1.01
  -7   4   4    8.56    0.82
   6  -4  -4   22.74    1.24
   6  -4  -4   23.52    1.18
  -6   4   4   20.53    1.39
  -6   4   4   20.95    1.63
  -6   4   4   22.34    1.21
   5  -4  -4  270.26    7.24
  -5   4   4  256.09    7.84
  -5   4   4  265.35    7.26
  -5   4   4  260.28    7.03
   4  -4  -4  107.62    3.28
  -4   4   4  103.85    3.07
  -4   4   4   97.00    3.25
  -4   4   4  100.81    3.57
   3  -4  -4  310.27    8.15
   3  -4  -4  296.95    8.64
  -3   4   4  288.73    8.07
  -3   4   4  295.37    8.63
   2  -4  -4   31.73    1.87
  -2   4   4   37.89    1.84
  -2   4   4   35.19    1.62
   1  -4  -4  342.68    9.62
  -1   4   4  343.72    9.60
  -1   4   4  329.62    9.16
   0  -4  -4  106.53    3.39
   0   4   4   97.72    3.31
  -1  -4  -4   -0.25    0.61
   1   4   4   -0.27    0.60
  -2  -4  -4    2.57    0.66
  -2  -4  -4    2.33    0.76
   2   4   4    1.62    0.60
  -3  -4  -4   91.66    3.14
  -3  -4  -4   95.58    2.94
  -3  -4  -4   87.94    3.10
   3   4   4   94.55    2.93
  -4  -4  -4   31.67    1.77
  -4  -4  -4   30.84    1.78
  -4  -4  -4   34.28    1.44
   4   4   4   33.32    1.39
  -5  -4  -4    8.21    1.09
  -5  -4  -4    7.62    1.10
   5   4   4    8.69    0.63
  -6  -4  -4  329.98    9.14
  -6  -4  -4  308.91    8.95
  -7  -4  -4   57.88    2.65
  -7  -4  -4   57.98    2.67
  -8  -4  -4   15.75    1.58
  -8  -4  -4   17.01    1.68
  -9  -4  -4   12.45    1.50
  -9  -4  -4   13.68    1.68
 -10  -4  -4   68.31    3.20
 -10  -4  -4   70.97    3.25
 -11  -4  -4   26.41    2.26
 -11  -4  -4   27.21    2.16
 -12  -4  -4    2.20    1.47
 -12  -4  -4    0.92    1.29
 -13  -4  -4   36.17    2.59
 -13  -4  -4   35.48    2.68
 -14  -4  -4    3.71    1.52
 -14  -4  -4    2.71    1.42
 -15  -4  -4    6.31    1.85
 -15  -4  -4    4.99    1.75
 -16  -4  -4   13.71    2.08
 -16  -4  -4    9.82    2.15
 -20   5   4   43.91    3.16
  19  -5  -4   10.39    1.87
 -19   5   4   13.12    2.06
  18  -5  -4   16.81    2.00
 -18   5   4   16.72    2.10
  17  -5  -4   27.69    2.29
 -17   5   4   25.94    2.35
  16  -5  -4   26.92    2.22
 -16   5   4   26.62    2.30
  15  -5  -4   31.54    2.16
 -15   5   4   24.73    1.99
  14  -5  -4    0.93    1.07
 -14   5   4    1.16    1.08
  13  -5  -4   83.44    3.35
 -13   5   4   83.69    3.35
  12  -5  -4    1.00    0.94
 -12   5   4    0.55    0.94
  11  -5  -4   19.03    1.27
 -11   5   4   18.43    1.50
  10  -5  -4   76.77    2.73
  10  -5  -4   79.73    2.69
 -10   5   4   88.93    2.89
 -10   5   4   83.66    3.57
 -10   5   4   87.32    3.11
   9  -5  -4   10.66    0.85
   9  -5  -4    9.04    0.84
  -9   5   4   11.56    0.97
  -9   5   4    8.47    1.36
  -9   5   4    7.95    1.04
   8  -5  -4    4.47    0.64
   8  -5  -4    3.54    0.56
  -8   5   4    3.97    0.81
  -8   5   4    3.99    1.12
  -8   5   4    3.57    0.67
   7  -5  -4    7.88    0.79
   7  -5  -4    7.17    0.64
   7  -5  -4    8.68    0.73
  -7   5   4    7.54    0.93
  -7   5   4    6.88    0.78
  -7   5   4    7.18    1.15
   6  -5  -4  284.62    7.56
  -6   5   4  279.54    7.44
  -6   5   4  269.06    8.34
  -6   5   4  287.33    7.72
   5  -5  -4   92.89    3.00
  -5   5   4   90.26    3.03
  -5   5   4   89.10    2.72
  -5   5   4   91.61    3.41
   4  -5  -4    1.35    0.63
  -4   5   4    1.40    0.69
  -4   5   4    1.28    0.79
   3  -5  -4  229.13    6.84
  -3   5   4  233.36    6.82
  -3   5   4  221.13    6.38
   2  -5  -4   43.22    2.02
  -2   5   4   36.03    1.88
  -2   5   4   34.28    1.81
   1  -5  -4  258.20    7.43
  -1   5   4  251.33    7.40
   0  -5  -4   91.31    3.11
   0   5   4   86.85    3.03
  -1  -5  -4    2.47    0.75
  -1  -5  -4    4.15    0.80
   1   5   4    4.64    0.78
  -2  -5  -4  130.60    4.01
  -2  -5  -4  128.37    3.95
  -2  -5  -4  129.49    3.97
   2   5   4  122.71    3.92
  -3  -5  -4    8.36    1.04
  -3  -5  -4    7.29    1.00
  -3  -5  -4    6.89    0.77
   3   5   4    7.90    0.78
  -4  -5  -4    8.90    1.09
  -4  -5  -4    6.42    0.98
   4   5   4    8.45    0.75
  -5  -5  -4   81.15    3.05
  -5  -5  -4   81.17    3.07
   5   5   4   77.73    2.53
  -6  -5  -4   45.67    2.33
  -6  -5  -4   51.39    2.34
   6   5   4   48.08    1.67
  -7  -5  -4   42.91    2.25
  -7  -5  -4   41.21    2.31
   7   5   4   42.51    1.38
  -8  -5  -4   40.69    2.37
  -8  -5  -4   41.26    2.43
  -9  -5  -4   88.58    3.73
  -9  -5  -4   95.33    3.86
 -10  -5  -4    3.75    1.39
 -10  -5  -4    2.25    1.31
 -11  -5  -4    0.12    1.17
 -11  -5  -4   -0.07    1.22
 -12  -5  -4   15.01    2.06
 -12  -5  -4   16.65    1.99
 -13  -5  -4   22.96    2.37
 -13  -5  -4   25.32    2.47
 -14  -5  -4   -1.04    1.29
 -14  -5  -4   -0.65    1.47
 -15  -5  -4    0.89    1.63
 -15  -5  -4    0.66    1.38
  20  -6  -4    5.88    1.70
 -20   6   4    6.78    1.83
  19  -6  -4    4.71    1.59
 -19   6   4   -0.88    1.38
  18  -6  -4    9.55    1.68
 -18   6   4   12.25    1.90
  17  -6  -4   82.75    3.65
 -17   6   4   81.85    3.70
  16  -6  -4    6.55    1.34
 -16   6   4    3.80    1.42
  15  -6  -4    5.62    1.24
 -15   6   4    5.19    1.30
  14  -6  -4   25.57    2.00
 -14   6   4   28.74    2.01
  13  -6  -4   41.06    2.28
 -13   6   4   43.50    2.27
  12  -6  -4    5.56    0.79
 -12   6   4    4.81    1.12
 -12   6   4    5.02    1.44
  11  -6  -4   54.40    2.02
  11  -6  -4   52.47    1.97
 -11   6   4   48.13    2.27
 -11   6   4   49.26    2.82
  10  -6  -4  352.19    9.42
  10  -6  -4  345.19    9.25
 -10   6   4  350.12    9.45
 -10   6   4  358.08    9.75
 -10   6   4  361.43   10.64
   9  -6  -4  164.23    4.78
   9  -6  -4  169.14    4.67
  -9   6   4  175.85    5.73
  -9   6   4  171.38    5.14
  -9   6   4  169.26    4.82
   8  -6  -4  149.48    4.17
   8  -6  -4  148.03    4.03
   8  -6  -4  146.92    4.29
  -8   6   4  143.29    4.44
  -8   6   4  144.95    4.17
  -8   6   4  149.21    5.03
   7  -6  -4  141.47    3.86
   7  -6  -4  142.86    4.12
  -7   6   4  141.11    4.01
  -7   6   4  144.08    4.87
  -7   6   4  142.86    4.29
   6  -6  -4  297.27    7.93
  -6   6   4  301.54    8.84
  -6   6   4  297.26    8.12
  -6   6   4  293.20    7.81
  -5   6   4    4.18    0.98
  -5   6   4    4.21    0.61
  -5   6   4    4.16    0.83
  -4   6   4    2.38    0.86
  -4   6   4    0.36    0.64
  -3   6   4  156.17    4.95
  -3   6   4  156.00    4.68
  -2   6   4   17.90    1.34
  -2   6   4   20.78    1.54
   1  -6  -4  281.19    7.33
   1  -6  -4  268.76    7.97
  -1   6   4  273.15    7.97
   0  -6  -4  284.09    7.72
   0  -6  -4  303.20    8.35
   0  -6  -4  289.21    7.84
   0   6   4  275.39    8.26
  -1  -6  -4   10.15    1.01
  -1  -6  -4   11.11    1.01
  -1  -6  -4    9.85    0.99
   1   6   4   10.92    1.01
  -2  -6  -4    0.89    0.70
  -2  -6  -4    0.68    0.62
  -2  -6  -4   -0.52    0.69
   2   6   4    0.04    0.63
  -3  -6  -4   32.38    1.76
  -3  -6  -4   31.87    1.75
   3   6   4   34.48    1.62
  -4  -6  -4   46.15    2.14
  -4  -6  -4   41.01    2.06
   4   6   4   40.09    1.74
  -5  -6  -4   16.10    1.47
  -5  -6  -4   20.50    1.53
   5   6   4   20.51    1.22
  -6  -6  -4    3.69    1.07
  -6  -6  -4    4.04    1.03
   6   6   4    5.09    0.63
  -7  -6  -4    2.89    1.09
  -7  -6  -4    2.58    1.17
   7   6   4    5.76    0.58
  -8  -6  -4    0.57    1.18
  -8  -6  -4   -0.71    1.10
  -9  -6  -4   17.37    1.85
  -9  -6  -4   19.99    2.02
 -10  -6  -4    1.23    1.20
 -10  -6  -4    0.50    1.22
 -11  -6  -4   -0.50    1.29
 -11  -6  -4   -0.32    1.18
 -12  -6  -4   31.98    2.51
 -12  -6  -4   38.44    2.85
 -13  -6  -4    2.09    1.50
 -13  -6  -4    1.72    1.44
 -14  -6  -4    4.24    1.78
 -14  -6  -4    4.18    1.70
  21  -7  -4    3.79    1.60
 -21   7   4    2.69    1.78
  20  -7  -4   -0.08    1.32
 -20   7   4    0.02    1.46
  19  -7  -4    0.15    1.26
 -19   7   4    1.14    1.41
  18  -7  -4    1.54    1.30
 -18   7   4    0.88    1.30
  17  -7  -4   27.44    2.21
 -17   7   4   29.56    2.32
  16  -7  -4    4.80    1.23
 -16   7   4    6.12    1.41
  15  -7  -4    9.97    1.46
 -15   7   4    8.36    1.44
  14  -7  -4   52.46    2.60
 -14   7   4   53.16    2.54
  13  -7  -4    4.40    0.76
 -13   7   4    4.33    1.45
  12  -7  -4   47.23    1.91
  12  -7  -4   46.75    1.80
 -12   7   4   47.68    2.31
 -12   7   4   42.95    2.78
  11  -7  -4   55.85    2.04
  11  -7  -4   53.15    1.94
 -11   7   4   56.57    2.42
 -11   7   4   57.92    2.96
  10  -7  -4   39.90    1.60
  10  -7  -4   39.25    1.49
 -10   7   4   37.03    2.44
 -10   7   4   39.79    1.63
 -10   7   4   38.00    1.94
   9  -7  -4   32.98    1.26
   9  -7  -4   30.26    1.54
  -9   7   4   29.04    1.69
  -9   7   4   33.49    1.38
  -9   7   4   31.12    2.21
   8  -7  -4   49.62    1.87
   8  -7  -4   51.60    1.60
  -8   7   4   51.13    2.54
  -8   7   4   49.93    2.10
  -8   7   4   47.52    1.71
   7  -7  -4  599.71   15.08
   7  -7  -4  605.87   15.59
  -7   7   4  600.74   15.72
  -7   7   4  593.56   15.36
  -7   7   4  606.49   16.96
   6  -7  -4    9.74    0.74
  -6   7   4    8.81    0.69
  -6   7   4   10.38    1.06
  -6   7   4   12.94    1.36
  -5   7   4  126.38    4.28
  -5   7   4  119.18    3.80
  -4   7   4   94.78    3.44
  -4   7   4   90.70    3.12
   3  -7  -4    8.88    0.72
  -3   7   4    8.72    1.03
  -3   7   4    8.65    1.09
   2  -7  -4    8.04    0.76
  -2   7   4    7.85    1.06
  -2   7   4    8.10    1.09
   1  -7  -4  141.39    4.00
   1  -7  -4  135.93    4.03
  -1   7   4  136.92    4.43
   0  -7  -4  584.16   14.96
   0  -7  -4  579.55   15.16
   0   7   4  572.76   16.02
  -1  -7  -4   89.01    3.20
  -1  -7  -4   84.44    2.94
  -1  -7  -4   90.41    2.98
   1   7   4   89.98    3.12
  -2  -7  -4  236.51    6.68
  -2  -7  -4  238.17    6.71
  -2  -7  -4  232.91    6.93
   2   7   4  232.24    6.86
  -3  -7  -4   32.70    1.85
  -3  -7  -4   30.88    1.78
   3   7   4   33.32    1.67
  -4  -7  -4   26.23    1.83
  -4  -7  -4   25.88    1.74
   4   7   4   22.03    1.46
  -5  -7  -4    0.13    0.95
  -5  -7  -4    1.98    1.04
   5   7   4    0.39    0.63
  -6  -7  -4   42.66    2.36
  -6  -7  -4   40.05    2.32
   6   7   4   39.69    1.72
  -7  -7  -4   50.31    2.70
  -7  -7  -4   51.01    2.71
   7   7   4   52.63    1.92
  -8  -7  -4   23.34    2.08
  -8  -7  -4   21.09    1.99
  -9  -7  -4   51.49    2.96
  -9  -7  -4   54.03    2.87
 -10  -7  -4    9.27    1.74
 -10  -7  -4    5.76    1.56
 -11  -7  -4    3.07    1.54
 -11  -7  -4    3.62    1.40
 -12  -7  -4   14.01    2.02
 -12  -7  -4    8.45    1.84
 -13  -7  -4    9.04    2.01
 -13  -7  -4   10.02    1.98
 -14  -7  -4    2.17    1.73
 -14  -7  -4    1.41    1.67
  21  -8  -4    0.02    1.33
 -21   8   4    0.37    1.57
  20  -8  -4    3.23    1.37
 -20   8   4    1.19    1.47
  19  -8  -4    4.81    1.48
 -19   8   4    5.60    1.64
  18  -8  -4   -0.12    1.12
 -18   8   4    0.90    1.34
  17  -8  -4   27.55    2.11
 -17   8   4   28.95    2.22
  16  -8  -4   11.62    1.54
 -16   8   4   12.58    1.58
  15  -8  -4   24.73    1.95
 -15   8   4   28.31    2.50
  14  -8  -4    1.79    1.05
 -14   8   4    1.68    1.41
  13  -8  -4   43.89    1.75
  13  -8  -4   41.20    1.79
 -13   8   4   40.76    2.76
 -13   8   4   40.47    2.22
  12  -8  -4   19.78    1.12
  12  -8  -4   16.57    1.10
 -12   8   4   17.45    1.52
 -12   8   4   18.44    1.91
  11  -8  -4   13.26    0.99
  11  -8  -4   12.59    0.89
 -11   8   4   14.92    1.73
 -11   8   4   13.56    1.34
  10  -8  -4   22.29    1.00
 -10   8   4   20.70    1.51
 -10   8   4   24.60    2.01
 -10   8   4   21.10    1.15
   9  -8  -4    2.51    0.59
   9  -8  -4    1.96    0.40
  -9   8   4    1.26    0.51
  -9   8   4    3.11    1.13
  -9   8   4    0.84    0.74
   8  -8  -4   50.53    1.79
   8  -8  -4   48.83    1.46
  -8   8   4   50.54    1.67
  -8   8   4   49.42    2.53
  -8   8   4   50.60    2.10
   7  -8  -4   95.53    2.72
   7  -8  -4   91.37    2.37
  -7   8   4   86.20    2.59
  -7   8   4   87.35    3.04
  -7   8   4   90.03    3.54
   6  -8  -4    0.82    0.43
  -6   8   4    0.91    0.45
  -6   8   4    1.84    0.74
  -6   8   4    0.88    0.91
   5  -8  -4    7.82    0.53
  -5   8   4    7.34    1.01
  -5   8   4    7.65    1.17
   4  -8  -4   30.85    1.17
  -4   8   4   28.37    1.68
  -4   8   4   32.41    2.02
   3  -8  -4    3.86    0.59
  -3   8   4    3.86    0.93
  -3   8   4    3.33    0.96
   2  -8  -4  141.00    4.06
   2  -8  -4  143.53    4.06
  -2   8   4  142.27    4.65
   1  -8  -4   46.22    1.82
   1  -8  -4   47.93    1.84
  -1   8   4   47.31    2.23
   0  -8  -4   45.94    1.95
   0  -8  -4   44.10    1.87
   0   8   4   50.24    2.20
  -1  -8  -4   11.39    1.12
  -1  -8  -4   10.71    1.05
   1   8   4   11.55    1.15
  -2  -8  -4   64.53    2.51
  -2  -8  -4   67.39    2.62
   2   8   4   67.09    2.60
  -3  -8  -4  142.59    4.64
  -3  -8  -4  142.50    4.59
   3   8   4  150.18    4.60
  -4  -8  -4   22.99    1.65
  -4  -8  -4   23.77    1.73
   4   8   4   21.47    1.51
  -5  -8  -4   80.17    3.31
  -5  -8  -4   89.80    3.35
   5   8   4   77.59    2.88
  -6  -8  -4   25.83    2.04
  -6  -8  -4   24.95    2.07
   6   8   4   26.53    1.54
  -7  -8  -4    6.64    1.45
  -7  -8  -4    7.68    1.51
   7   8   4    9.39    0.88
  -8  -8  -4   16.95    1.90
  -8  -8  -4   11.37    1.76
  -9  -8  -4   16.86    2.02
  -9  -8  -4   20.12    2.13
 -10  -8  -4   24.10    2.38
 -10  -8  -4   22.61    2.36
 -11  -8  -4    1.65    1.40
 -11  -8  -4    1.46    1.55
 -12  -8  -4   35.06    3.01
 -12  -8  -4   38.06    2.79
 -13  -8  -4    3.08    1.76
 -13  -8  -4    1.89    1.74
  21  -9  -4   10.69    1.77
  20  -9  -4    6.94    1.58
 -20   9   4    2.70    1.44
  19  -9  -4   -0.27    1.17
 -19   9   4   -0.83    1.31
  18  -9  -4    0.87    1.10
 -18   9   4    0.94    1.31
  17  -9  -4   19.50    1.88
  16  -9  -4   49.20    2.63
 -16   9   4   50.97    3.32
  15  -9  -4   18.33    1.73
 -15   9   4   18.96    2.19
  14  -9  -4   95.14    3.05
  14  -9  -4   96.39    3.12
 -14   9   4   94.50    4.19
  13  -9  -4   11.52    0.92
  13  -9  -4   10.77    0.91
 -13   9   4   13.86    1.46
 -13   9   4   13.00    1.79
  12  -9  -4    5.23    0.69
  12  -9  -4    4.90    0.60
 -12   9   4    4.87    1.05
 -12   9   4    5.83    1.44
  11  -9  -4    7.25    0.61
 -11   9   4    9.20    1.56
 -11   9   4    8.28    1.15
  10  -9  -4   55.72    2.03
 -10   9   4   55.02    2.87
 -10   9   4   52.29    2.26
   9  -9  -4  127.30    3.73
  -9   9   4  124.88    4.68
  -9   9   4  129.91    3.53
  -9   9   4  130.10    4.06
   8  -9  -4   12.96    0.89
  -8   9   4   10.97    1.07
  -8   9   4   11.76    1.44
  -8   9   4   11.89    0.74
   7  -9  -4  239.88    6.40
  -7   9   4  245.25    6.84
  -7   9   4  240.15    6.32
  -7   9   4  244.62    7.58
   6  -9  -4   36.60    1.26
  -6   9   4   36.24    1.78
  -6   9   4   34.07    2.19
   5  -9  -4    7.33    0.52
  -5   9   4    6.01    0.97
  -5   9   4    7.07    1.21
   4  -9  -4   10.07    0.77
   4  -9  -4    8.47    0.65
  -4   9   4    8.00    1.06
  -4   9   4   10.04    1.25
   3  -9  -4  156.60    4.39
   3  -9  -4  155.85    4.39
  -3   9   4  161.85    4.94
  -3   9   4  164.09    5.23
   2  -9  -4   31.91    1.41
   2  -9  -4   32.50    1.39
  -2   9   4   30.35    1.99
   1  -9  -4    0.16    0.58
   1  -9  -4    1.79    0.74
  -1   9   4    0.60    0.83
   0  -9  -4  122.24    3.74
   0  -9  -4  124.44    3.80
   0   9   4  112.88    4.05
  -1  -9  -4   15.77    1.26
  -1  -9  -4   13.89    1.30
   1   9   4   19.07    1.42
  -2  -9  -4    6.16    1.03
  -2  -9  -4    6.81    1.14
   2   9   4    7.85    1.06
  -3  -9  -4    6.89    1.23
  -3  -9  -4    6.75    1.11
   3   9   4    6.95    1.03
  -4  -9  -4   24.27    1.87
  -4  -9  -4   21.88    1.75
   4   9   4   21.18    1.62
  -5  -9  -4    2.65    1.13
  -5  -9  -4    0.56    1.10
   5   9   4    2.50    0.83
  -6  -9  -4    4.02    1.35
  -6  -9  -4    2.55    1.24
   6   9   4    6.23    0.93
  -7  -9  -4    3.22    1.39
  -7  -9  -4    5.09    1.41
  -8  -9  -4   33.52    2.51
  -8  -9  -4   30.67    2.51
  -9  -9  -4    4.18    1.53
  -9  -9  -4    4.56    1.55
 -10  -9  -4    0.00    1.36
 -10  -9  -4    0.74    1.34
 -11  -9  -4   10.32    1.98
 -11  -9  -4    5.69    1.79
 -12  -9  -4   11.77    2.15
 -12  -9  -4    8.76    2.05
  21 -10  -4    0.33    1.34
  20 -10  -4    2.19    1.34
  19 -10  -4    2.05    1.30
  18 -10  -4   19.97    1.93
  17 -10  -4    5.48    1.31
 -17  10   4   10.46    2.04
  16 -10  -4    2.33    1.12
 -16  10   4    4.77    1.59
 -15  10   4    5.42    1.64
 -14  10   4   78.39    3.76
 -14  10   4   76.21    3.09
 -13  10   4   69.55    2.88
 -13  10   4   75.35    3.61
 -12  10   4   30.82    2.49
 -12  10   4   27.63    1.83
  11 -10  -4  234.83    6.55
 -11  10   4  235.58    6.85
 -11  10   4  243.45    7.75
  10 -10  -4  107.08    3.24
 -10  10   4  111.72    4.35
 -10  10   4  110.28    3.64
   9 -10  -4   15.14    0.93
  -9  10   4   16.30    1.69
  -9  10   4   16.72    1.32
   8 -10  -4   63.97    2.00
  -8  10   4   68.26    1.89
  -8  10   4   71.69    2.61
  -8  10   4   66.23    3.10
   7 -10  -4   32.35    1.10
  -7  10   4   36.75    2.22
  -7  10   4   33.28    1.16
  -7  10   4   34.31    1.74
   6 -10  -4   41.80    1.26
  -6  10   4   41.30    1.92
  -6  10   4   40.96    2.40
   5 -10  -4   76.64    2.22
   5 -10  -4   76.85    2.19
  -5  10   4   75.45    2.85
  -5  10   4   84.28    3.31
   4 -10  -4  327.51    8.55
   4 -10  -4  324.87    8.59
  -4  10   4  336.74    9.85
  -4  10   4  333.46    9.15
   3 -10  -4   37.10    1.42
   3 -10  -4   36.86    1.55
  -3  10   4   37.02    2.02
  -3  10   4   39.78    2.22
   2 -10  -4   23.56    1.31
   2 -10  -4   19.34    1.13
  -2  10   4   19.99    1.66
   1 -10  -4   52.74    2.12
   1 -10  -4   49.84    2.03
  -1  10   4   59.79    2.57
   0 -10  -4  103.29    3.43
   0 -10  -4  107.87    3.54
   0  10   4  107.72    3.84
  -1 -10  -4   22.11    1.63
  -1 -10  -4   19.05    1.45
   1  10   4   19.90    1.59
  -2 -10  -4   22.75    1.72
  -2 -10  -4   26.15    1.77
   2  10   4   22.55    1.77
  -3 -10  -4  127.97    4.30
  -3 -10  -4  123.48    4.30
   3  10   4  122.62    4.23
  -4 -10  -4   17.03    1.76
  -4 -10  -4   14.33    1.57
   4  10   4   15.07    1.36
  -5 -10  -4   31.34    2.15
  -5 -10  -4   26.86    2.15
   5  10   4   27.94    1.84
  -6 -10  -4    5.53    1.47
  -6 -10  -4    5.18    1.36
   6  10   4    5.63    0.98
  -7 -10  -4   29.56    2.37
  -7 -10  -4   25.80    2.33
  -8 -10  -4    1.17    1.40
  -8 -10  -4    0.51    1.28
  -9 -10  -4   -2.27    1.29
  -9 -10  -4   -0.12    1.40
 -10 -10  -4    0.59    1.33
 -10 -10  -4    3.15    1.62
 -11 -10  -4    3.48    1.77
 -11 -10  -4    4.66    1.76
  21 -11  -4    4.67    1.42
  20 -11  -4    6.08    1.49
  19 -11  -4    0.96    1.21
 -19  11   4    5.03    1.95
  18 -11  -4    0.42    1.17
 -18  11   4    2.09    1.72
  17 -11  -4   -0.41    1.04
 -17  11   4    2.04    1.60
  16 -11  -4   -0.27    0.97
 -16  11   4   -1.67    1.44
 -15  11   4   29.59    2.61
 -14  11   4    5.18    1.62
 -14  11   4    6.32    1.22
 -13  11   4   12.22    1.81
 -13  11   4    9.24    1.24
  12 -11  -4   14.44    1.12
 -12  11   4   13.82    1.36
 -12  11   4   16.95    1.94
  11 -11  -4   23.08    1.21
 -11  11   4   27.41    1.68
 -11  11   4   23.30    2.14
  10 -11  -4   20.17    1.02
 -10  11   4   17.18    1.81
 -10  11   4   19.19    1.42
   9 -11  -4    6.31    0.51
  -9  11   4    7.70    1.03
  -9  11   4    6.66    1.36
  -8  11   4  154.82    4.66
  -8  11   4  152.31    5.39
  -7  11   4   25.10    2.08
  -7  11   4   25.60    0.97
  -7  11   4   26.40    1.61
  -6  11   4   17.21    1.40
  -6  11   4   20.93    1.83
   5 -11  -4   47.93    1.40
   5 -11  -4   48.95    1.60
  -5  11   4   52.02    2.66
  -5  11   4   50.80    2.26
   4 -11  -4   53.14    1.89
   4 -11  -4   54.00    1.73
  -4  11   4   59.07    2.78
  -4  11   4   60.40    2.54
   3 -11  -4   10.82    0.94
   3 -11  -4   13.09    0.91
  -3  11   4   13.80    1.43
  -3  11   4   12.27    1.44
   2 -11  -4    7.09    0.89
   2 -11  -4    6.67    0.78
  -2  11   4    6.41    1.19
   1 -11  -4  234.29    6.51
   1 -11  -4  226.37    6.42
  -1  11   4  227.79    7.16
   0 -11  -4   23.97    1.67
   0 -11  -4   23.21    1.46
   0  11   4   29.45    1.96
  -1 -11  -4   60.23    2.53
  -1 -11  -4   60.43    2.57
   1  11   4   59.04    2.72
  -2 -11  -4   62.45    2.71
  -2 -11  -4   70.25    2.89
   2  11   4   60.85    2.80
  -3 -11  -4   -0.08    0.97
  -3 -11  -4   -1.18    0.99
   3  11   4    1.50    1.01
  -4 -11  -4    0.09    1.00
  -4 -11  -4    1.49    1.16
   4  11   4   -0.02    0.94
  -5 -11  -4   22.91    2.02
  -5 -11  -4   24.38    2.11
   5  11   4   22.36    1.83
  -6 -11  -4   78.58    3.60
  -6 -11  -4   77.80    3.58
  -7 -11  -4    0.16    1.32
  -7 -11  -4   -1.27    1.21
  -8 -11  -4   11.66    1.90
  -8 -11  -4    5.01    1.69
  -9 -11  -4    3.80    1.61
  -9 -11  -4    3.95    1.60
 -10 -11  -4    2.66    1.68
 -10 -11  -4    2.99    1.67
  21 -12  -4    8.48    1.63
  20 -12  -4   32.21    2.32
 -20  12   4   43.69    3.48
  19 -12  -4   10.95    1.65
 -19  12   4   12.63    2.29
  18 -12  -4   35.91    2.49
 -18  12   4   39.28    3.18
  17 -12  -4   16.02    1.70
 -17  12   4   13.58    2.19
 -16  12   4   -0.77    1.49
 -15  12   4   28.76    2.59
 -14  12   4    0.24    0.93
 -14  12   4    0.46    1.40
 -13  12   4   63.40    2.71
 -13  12   4   68.13    3.49
 -12  12   4    4.00    1.47
 -12  12   4    5.16    1.05
  11 -12  -4   60.24    1.94
 -11  12   4   59.39    2.48
 -11  12   4   56.96    3.18
 -10  12   4   28.01    1.69
 -10  12   4   27.39    2.29
  -9  12   4    6.66    1.44
  -9  12   4    8.48    1.06
  -8  12   4   26.86    1.60
  -8  12   4   20.50    1.95
  -7  12   4    0.63    1.10
  -7  12   4    1.93    0.83
  -7  12   4    0.46    0.31
  -6  12   4    3.76    1.26
  -6  12   4    4.27    0.96
   5 -12  -4   43.15    1.53
  -5  12   4   38.12    2.49
  -5  12   4   42.22    2.11
   4 -12  -4   17.04    0.86
   4 -12  -4   17.66    1.09
  -4  12   4   13.49    1.59
  -4  12   4   17.67    1.55
   3 -12  -4    4.71    0.82
   3 -12  -4    5.65    0.65
  -3  12   4    4.75    1.19
   2 -12  -4   30.23    1.60
   2 -12  -4   30.13    1.44
  -2  12   4   26.64    2.07
   1 -12  -4   15.76    1.35
   1 -12  -4   14.94    1.16
  -1  12   4   15.47    1.62
   0 -12  -4    3.93    0.92
   0 -12  -4    4.24    1.00
   0  12   4    4.08    1.22
  -1 -12  -4    1.93    0.93
  -1 -12  -4   -0.28    0.98
   1  12   4    0.00    1.06
  -2 -12  -4   51.30    2.41
  -2 -12  -4   50.47    2.52
   2  12   4   49.53    2.58
  -3 -12  -4    1.58    1.14
  -3 -12  -4    4.46    1.19
   3  12   4    3.47    1.15
  -4 -12  -4   45.23    2.63
  -4 -12  -4   46.87    2.61
   4  12   4   46.87    2.46
  -5 -12  -4   29.61    2.30
  -5 -12  -4   24.94    2.24
   5  12   4   23.14    1.93
  -6 -12  -4   11.56    1.75
  -6 -12  -4   15.71    1.97
  -7 -12  -4    0.51    1.38
  -7 -12  -4    0.66    1.32
  -8 -12  -4    1.67    1.56
  -8 -12  -4    1.21    1.49
  -9 -12  -4   10.82    1.98
  -9 -12  -4   11.38    2.00
  21 -13  -4    0.14    1.27
 -21  13   4    2.49    2.02
  20 -13  -4    5.11    1.48
 -20  13   4   11.23    2.28
  19 -13  -4    0.72    1.25
 -19  13   4   -0.75    1.73
  18 -13  -4   23.37    2.01
 -18  13   4   27.75    2.84
 -17  13   4   37.50    3.09
 -16  13   4   14.26    2.18
 -15  13   4   50.81    3.34
 -15  13   4   57.67    2.59
 -14  13   4   49.09    2.39
 -14  13   4   48.62    3.14
 -13  13   4    0.43    0.88
 -13  13   4    2.30    1.50
 -12  13   4   -0.34    1.34
 -12  13   4    0.09    0.83
 -11  13   4   67.56    3.46
 -11  13   4   63.55    2.57
 -10  13   4  122.77    3.96
 -10  13   4  123.95    4.87
  -9  13   4   26.89    1.72
  -9  13   4   27.56    2.31
  -8  13   4   76.12    3.61
  -8  13   4   82.59    2.92
  -7  13   4   40.57    1.34
  -7  13   4   43.85    2.70
  -7  13   4   44.45    2.05
  -6  13   4    5.42    0.59
  -6  13   4    5.10    1.35
  -6  13   4    6.07    1.06
  -5  13   4   42.28    2.11
  -5  13   4   40.06    2.56
  -5  13   4   38.93    1.59
   4 -13  -4   12.46    0.80
   4 -13  -4   11.89    1.00
  -4  13   4   11.27    1.58
  -4  13   4   11.24    1.39
  -4  13   4   13.02    1.01
   3 -13  -4   75.57    2.42
   3 -13  -4   76.00    2.67
  -3  13   4   75.86    3.42
   2 -13  -4   11.76    0.98
   2 -13  -4   12.26    1.21
  -2  13   4   11.64    1.58
   1 -13  -4   60.70    2.35
   1 -13  -4   62.98    2.60
  -1  13   4   57.64    2.95
   0 -13  -4    1.40    1.01
   0 -13  -4    0.69    0.84
   0  13   4    2.29    1.25
  -1 -13  -4    5.85    1.10
  -1 -13  -4    8.51    1.35
   1  13   4    8.32    1.41
  -2 -13  -4   10.32    1.47
  -2 -13  -4    9.03    1.30
   2  13   4    9.02    1.43
  -3 -13  -4    6.49    1.47
  -3 -13  -4    5.11    1.24
   3  13   4    5.59    1.30
  -4 -13  -4   -0.35    1.14
  -4 -13  -4    3.35    1.36
   4  13   4    1.11    1.10
  -5 -13  -4   16.68    2.00
  -5 -13  -4   17.71    1.95
  -6 -13  -4    3.25    1.48
  -6 -13  -4    4.27    1.52
  -7 -13  -4    0.01    1.34
  -7 -13  -4    2.42    1.52
  -8 -13  -4   -1.67    1.36
  -8 -13  -4   -0.57    1.45
 -21  14   4    3.67    2.05
  20 -14  -4    5.25    1.48
 -20  14   4   11.16    2.26
  19 -14  -4   -1.58    1.15
 -19  14   4   -0.98    1.71
  18 -14  -4    3.38    1.27
 -18  14   4    1.13    1.74
 -17  14   4   11.33    2.16
 -16  14   4   -2.32    1.50
 -15  14   4    9.22    1.93
 -15  14   4    7.33    1.20
 -14  14   4   37.29    2.07
 -14  14   4   40.93    2.95
 -13  14   4    7.18    1.72
 -13  14   4    7.60    1.12
 -12  14   4   51.34    3.19
 -12  14   4   52.22    2.28
 -11  14   4    0.35    0.79
 -11  14   4    0.56    1.37
 -10  14   4   14.01    1.87
 -10  14   4   17.27    1.36
  -9  14   4    1.08    1.31
  -9  14   4    2.07    0.90
  -8  14   4   30.84    1.82
  -8  14   4   28.14    2.37
  -7  14   4   49.09    2.24
  -7  14   4   50.51    2.99
  -6  14   4    2.66    1.33
  -6  14   4    3.95    0.98
  -5  14   4   86.51    3.34
  -5  14   4   94.96    3.91
  -4  14   4   73.38    3.49
  -4  14   4   77.79    3.21
   3 -14  -4    5.04    0.97
   3 -14  -4    6.51    0.75
  -3  14   4    5.15    1.40
   2 -14  -4    0.29    0.70
   2 -14  -4    0.70    0.85
  -2  14   4    1.88    1.32
   1 -14  -4   49.32    2.16
   1 -14  -4   55.31    2.43
  -1  14   4   45.37    2.72
   0 -14  -4   45.62    2.13
   0 -14  -4   38.19    2.17
   0  14   4   37.87    2.52
  -1 -14  -4    1.67    1.18
  -1 -14  -4    2.29    1.05
   1  14   4    0.45    1.28
  -2 -14  -4   45.72    2.51
  -2 -14  -4   44.31    2.62
   2  14   4   42.43    2.62
  -3 -14  -4    2.58    1.33
  -3 -14  -4    3.22    1.26
   3  14   4    4.39    1.40
  -4 -14  -4    1.09    1.22
  -4 -14  -4   -0.73    1.27
  -5 -14  -4   16.98    2.06
  -5 -14  -4   14.03    1.89
  -6 -14  -4    8.48    1.73
  -6 -14  -4    5.88    1.81
  -7 -14  -4    8.02    1.70
  -7 -14  -4    4.01    1.74
 -20  15   4    1.10    1.88
  19 -15  -4    6.31    1.44
 -19  15   4    4.69    1.95
 -18  15   4   10.63    2.22
 -17  15   4   36.31    3.13
 -16  15   4    2.88    1.75
 -15  15   4   -0.36    0.89
 -15  15   4   -2.07    1.42
 -14  15   4    0.40    1.48
 -14  15   4    1.54    0.96
 -13  15   4   12.46    1.33
 -13  15   4   12.33    1.99
 -12  15   4    4.00    1.61
 -12  15   4    2.63    0.91
 -11  15   4    2.95    1.51
 -11  15   4    1.39    0.87
 -10  15   4   31.80    2.65
 -10  15   4   32.16    1.84
  -9  15   4    5.27    1.05
  -9  15   4    4.88    1.63
  -8  15   4   10.09    1.22
  -8  15   4    9.94    1.75
  -7  15   4   25.85    1.79
  -7  15   4   24.49    2.33
  -6  15   4   18.95    1.61
  -6  15   4   21.48    2.14
  -5  15   4    4.74    1.48
  -5  15   4    3.35    1.09
  -4  15   4   25.84    1.99
  -4  15   4   30.11    2.41
  -3  15   4   26.08    2.23
   2 -15  -4   61.01    2.64
  -2  15   4   57.47    3.14
   1 -15  -4    7.45    1.27
  -1  15   4    6.83    1.53
   0 -15  -4    0.54    1.08
   0 -15  -4    0.36    0.91
   0  15   4   -0.31    1.29
  -1 -15  -4   17.51    1.60
  -1 -15  -4   17.14    1.84
   1  15   4   18.99    1.95
  -2 -15  -4    5.35    1.28
  -2 -15  -4    2.06    1.34
   2  15   4    2.70    1.44
  -3 -15  -4    4.48    1.36
  -3 -15  -4    3.42    1.38
  -4 -15  -4    0.98    1.48
  -4 -15  -4    2.15    1.30
  -5 -15  -4   43.92    3.09
 -20  16   4   17.09    2.66
 -19  16   4    5.48    2.04
 -18  16   4    1.03    1.83
 -17  16   4   22.20    2.62
 -16  16   4   21.86    2.64
 -15  16   4   17.46    2.38
 -14  16   4   40.03    3.06
 -14  16   4   45.37    2.18
 -13  16   4    5.66    1.07
 -13  16   4    4.75    1.79
 -12  16   4   52.94    2.28
 -12  16   4   44.82    3.11
 -11  16   4   24.24    1.64
 -11  16   4   26.00    2.49
 -10  16   4    6.47    1.08
 -10  16   4    5.55    1.65
  -9  16   4    3.09    1.64
  -9  16   4    5.95    1.07
  -8  16   4   12.15    1.31
  -8  16   4   13.43    1.99
  -7  16   4   50.39    2.36
  -7  16   4   48.51    3.04
  -6  16   4    2.16    1.48
  -6  16   4    2.53    1.07
  -5  16   4    1.06    1.03
  -5  16   4    2.11    1.48
  -4  16   4   -0.87    1.42
  -4  16   4    0.39    1.07
  -3  16   4   11.79    1.80
  -2  16   4    0.41    1.46
   1 -16  -4    3.87    1.17
  -1  16   4    4.32    1.46
   0 -16  -4   23.13    1.98
   0  16   4   18.96    2.07
  -1 -16  -4    3.11    1.32
   1  16   4    2.70    1.52
  -2 -16  -4   -1.95    1.11
   2  16   4    3.11    1.52
  -3 -16  -4    3.22    1.47
  -4 -16  -4   12.90    1.99
 -19  17   4    8.04    2.21
 -18  17   4   32.70    3.10
 -17  17   4    6.21    2.07
 -16  17   4    1.05    1.77
 -15  17   4    4.77    1.90
 -14  17   4    4.70    1.75
 -13  17   4    0.07    1.58
 -12  17   4   24.45    2.58
 -11  17   4   76.48    3.99
 -10  17   4   25.90    2.58
  -9  17   4   28.50    2.63
  -9  17   4   33.27    1.91
  -8  17   4   19.21    2.22
  -8  17   4   18.99    1.54
  -7  17   4    8.79    1.25
  -7  17   4    9.08    1.80
  -6  17   4    2.28    1.52
  -6  17   4    0.59    0.98
  -5  17   4   17.56    1.61
  -5  17   4   14.60    2.03
  -4  17   4   36.13    2.78
  -4  17   4   33.96    2.32
  -3  17   4    8.39    1.76
  -2  17   4   34.23    2.67
  -1  17   4   21.77    2.28
   0  17   4    4.01    1.67
   1  17   4   -2.64    1.44
 -19  18   4    2.84    2.04
 -18  18   4    4.76    2.11
 -17  18   4    0.11    1.82
 -16  18   4    1.73    1.86
 -15  18   4    6.95    1.97
 -14  18   4   -1.41    1.65
 -13  18   4   16.80    2.38
 -12  18   4    9.22    2.03
 -11  18   4    1.45    1.68
 -10  18   4   -0.09    1.66
  -9  18   4    2.00    1.74
  -8  18   4   18.75    2.33
  -7  18   4    2.21    1.70
  -6  18   4   31.85    2.69
  -5  18   4   24.46    2.46
  -4  18   4    3.67    1.72
  -3  18   4    9.25    2.01
  -2  18   4    1.19    1.67
  -1  18   4   32.00    2.69
   0  18   4    6.67    1.73
 -18  19   4   24.76    2.96
 -17  19   4    9.30    2.38
 -16  19   4    4.59    2.00
 -15  19   4    0.32    1.85
 -14  19   4   10.28    2.24
 -13  19   4    4.33    2.04
 -12  19   4   -1.23    1.68
 -11  19   4    5.49    1.97
 -10  19   4   -0.65    1.62
  -9  19   4    1.65    1.76
  -8  19   4    2.48    1.77
  -7  19   4   13.56    2.16
  -6  19   4    1.65    1.72
  -5  19   4   -0.16    1.62
  -4  19   4    6.10    1.85
  -3  19   4    4.45    1.75
  -2  19   4    9.04    1.92
  -1  19   4   -0.20    1.63
 -16  20   4   11.64    2.48
 -15  20   4   33.80    3.32
 -14  20   4    5.14    2.10
 -13  20   4    2.59    1.92
 -12  20   4    5.45    2.14
 -11  20   4    2.30    1.91
 -10  20   4    2.26    1.93
  -9  20   4    9.68    2.16
  -8  20   4   35.86    3.15
  -7  20   4    8.40    1.97
  -6  20   4    5.74    1.91
  -5  20   4    0.92    1.83
  -4  20   4   17.39    2.35
 -14  21   4    3.91    2.10
 -13  21   4    2.81    2.02
 -12  21   4    9.19    2.26
 -11  21   4    2.88    2.01
 -10  21   4    2.74    2.04
  -9  21   4    5.90    2.19
  -8  21   4    4.33    2.02
  -7  21   4    2.03    2.00
  -9  21  -5   -0.29    1.97
 -10  21  -5   -1.80    1.81
 -11  21  -5    3.07    1.95
 -12  21  -5    0.28    1.88
  -5  20  -5   17.36    2.52
  -6  20  -5    9.39    2.18
  -7  20  -5    7.85    2.10
  -8  20  -5   -0.49    1.77
  -9  20  -5    3.14    1.97
 -10  20  -5   -0.04    1.83
 -11  20  -5    1.84    1.89
 -12  20  -5    1.69    1.88
 -13  20  -5    3.03    2.08
 -14  20  -5    9.90    2.37
 -15  20  -5   -2.15    1.87
  -2  19  -5   -1.44    1.76
  -3  19  -5    5.45    2.06
  -4  19  -5    0.42    1.77
  -5  19  -5    2.55    1.89
  -6  19  -5    0.02    1.72
  -7  19  -5    4.04    1.89
  -8  19  -5    8.48    2.01
  -9  19  -5    0.55    1.68
 -10  19  -5    0.63    1.79
 -11  19  -5   -0.74    1.67
 -12  19  -5    0.78    1.71
 -13  19  -5    2.07    1.86
 -14  19  -5    4.04    2.01
 -15  19  -5    6.48    2.05
 -16  19  -5    2.11    2.07
 -17  19  -5    3.45    2.04
  -1  18  -5   -0.84    1.74
  -2  18  -5    6.21    1.98
  -3  18  -5   -0.06    1.70
  -4  18  -5    1.96    1.74
   4 -18   5    0.04    1.20
  -5  18  -5    2.19    1.60
   5 -18   5   -1.05    1.14
  -6  18  -5    1.59    1.64
   6 -18   5    2.39    1.18
  -7  18  -5    1.41    1.66
   7 -18   5    1.54    1.06
  -8  18  -5    0.50    1.56
  -9  18  -5    6.01    1.86
 -10  18  -5    4.85    1.80
 -11  18  -5    4.37    1.93
 -12  18  -5    5.90    1.89
 -13  18  -5    0.30    1.64
 -14  18  -5    0.55    1.78
 -15  18  -5   -0.89    1.77
 -16  18  -5    0.75    1.87
 -17  18  -5    3.49    2.02
 -18  18  -5    0.18    1.89
   2 -17   5    2.03    1.30
   3 -17   5    0.38    1.13
   4 -17   5    0.27    1.17
   5 -17   5   20.96    1.84
  -6  17  -5    2.13    1.51
   6 -17   5    4.54    1.26
  -7  17  -5    6.97    1.81
   7 -17   5   12.60    1.47
  -8  17  -5   20.64    2.41
   8 -17   5   23.84    1.79
  -9  17  -5    3.89    1.69
   9 -17   5    1.94    0.97
 -10  17  -5    0.36    1.56
  10 -17   5    2.29    0.97
 -11  17  -5    2.64    1.72
 -12  17  -5   21.87    2.56
 -13  17  -5    4.86    1.77
 -14  17  -5    8.10    1.98
 -15  17  -5    3.98    1.95
 -16  17  -5    6.57    2.07
 -17  17  -5   10.57    2.07
 -18  17  -5    0.29    1.79
 -19  17  -5    1.97    1.81
   1 -16   5    7.18    1.52
   2 -16   5    4.20    1.40
   3 -16   5   -0.45    1.12
   4 -16   5    2.17    1.12
   5 -16   5   -0.77    1.01
  -6  16  -5    0.52    1.52
   6 -16   5    2.90    1.11
  -7  16  -5    0.37    1.45
   7 -16   5    0.22    0.94
  -8  16  -5   16.34    2.10
   8 -16   5   15.76    1.49
  -9  16  -5    3.94    1.71
   9 -16   5    4.82    1.08
 -10  16  -5   22.98    2.40
  10 -16   5   19.66    1.53
 -11  16  -5   22.02    2.42
  11 -16   5   20.42    1.52
 -12  16  -5   -1.52    1.52
  12 -16   5   -0.43    0.88
 -13  16  -5   -0.19    1.48
 -14  16  -5   -0.96    1.53
 -14  16  -5   -2.43    0.95
 -15  16  -5    2.01    1.19
 -15  16  -5    3.67    1.78
 -16  16  -5    4.52    1.84
 -17  16  -5   10.22    2.04
 -18  16  -5   13.47    2.13
 -19  16  -5    7.84    1.87
   5  15  -5    0.96    1.62
   4  15  -5    7.16    1.85
   3  15  -5    3.53    1.63
   2  15  -5    7.62    1.67
   1  15  -5    1.75    1.40
   0 -15   5    1.19    1.28
   1 -15   5   12.88    1.70
   2 -15   5    0.68    1.22
   3 -15   5    4.37    1.29
   4 -15   5    2.69    1.09
   5 -15   5   23.85    1.85
   6 -15   5    1.38    0.98
  -7  15  -5    4.10    1.56
   7 -15   5    4.63    1.06
  -8  15  -5    2.71    1.46
   8 -15   5    2.75    0.98
  -9  15  -5    0.39    1.46
   9 -15   5    0.85    0.85
 -10  15  -5   -0.99    1.36
  10 -15   5    0.19    0.84
 -11  15  -5   15.68    2.12
  11 -15   5   21.94    1.59
 -12  15  -5   -0.51    1.48
  12 -15   5    1.12    0.85
 -13  15  -5   -1.01    1.38
  13 -15   5    0.74    0.88
 -14  15  -5   -0.59    0.99
 -14  15  -5    2.72    1.59
  14 -15   5    1.81    0.97
 -15  15  -5    0.59    1.62
 -15  15  -5    0.88    1.07
 -16  15  -5    4.52    1.75
 -16  15  -5    4.73    1.30
 -17  15  -5    1.37    1.70
 -17  15  -5    2.55    1.21
 -18  15  -5    1.34    1.67
 -18  15  -5    2.86    1.29
 -19  15  -5    4.09    1.80
 -19  15  -5    0.96    1.31
   6  14  -5    8.73    2.02
   5  14  -5    3.39    1.69
   4  14  -5   -0.40    1.37
   3  14  -5    5.89    1.60
   2  14  -5   -1.00    1.21
   1  14  -5    0.29    1.27
  -1 -14   5    1.57    1.29
   0  14  -5    3.13    1.27
   0 -14   5    2.98    1.30
  -1  14  -5   17.77    1.73
   1 -14   5   16.41    1.78
  -2  14  -5   29.04    2.05
   2 -14   5   25.88    1.95
   3 -14   5   22.70    1.82
   4 -14   5   15.95    1.52
   5 -14   5   12.17    1.38
   6 -14   5   10.16    1.25
   7 -14   5    0.28    0.86
  -8  14  -5    3.95    1.51
   8 -14   5    4.83    0.99
  -9  14  -5    0.22    1.31
   9 -14   5    1.22    0.92
 -10  14  -5    0.11    1.37
  10 -14   5    0.97    0.89
 -11  14  -5   23.09    2.26
  11 -14   5   24.82    1.63
 -12  14  -5    1.93    1.46
  12 -14   5    2.24    0.96
 -13  14  -5   -0.21    1.36
  13 -14   5    1.99    0.97
 -14  14  -5    3.12    1.16
 -14  14  -5    6.17    1.67
 -15  14  -5   11.31    1.97
 -15  14  -5   14.94    1.66
 -16  14  -5    3.61    1.62
 -16  14  -5    1.22    1.19
 -17  14  -5   -0.65    1.52
 -17  14  -5    1.68    1.18
 -17  14  -5    0.41    1.15
 -18  14  -5    3.58    1.67
 -18  14  -5    0.53    1.17
 -18  14  -5    1.67    1.29
 -19  14  -5   -1.37    1.50
 -19  14  -5   -0.87    1.29
 -20  14  -5    9.89    1.70
   7  13  -5    4.29    1.78
   6  13  -5   -1.08    1.46
   5  13  -5    0.61    1.49
   4  13  -5    5.49    1.58
   3  13  -5    0.25    1.27
   2  13  -5    0.43    1.19
  -2 -13   5    0.74    1.23
   1  13  -5    0.46    1.22
  -1 -13   5    0.91    1.21
   0  13  -5   26.22    2.01
   0 -13   5   25.01    2.04
  -1  13  -5    7.53    1.29
   1 -13   5    6.42    1.28
  -2  13  -5   -0.80    0.90
   2 -13   5   -0.42    0.94
  -3  13  -5   13.46    1.27
   3 -13   5   13.96    1.50
   4 -13   5   77.73    3.11
   5 -13   5    5.12    1.04
   6 -13   5    1.37    0.84
   7 -13   5   28.16    1.76
  -8  13  -5    1.00    1.31
   8 -13   5    4.11    0.96
  -9  13  -5    3.43    1.37
   9 -13   5    4.96    0.98
 -10  13  -5    7.82    1.60
  10 -13   5    6.72    1.05
 -11  13  -5   22.17    2.18
  11 -13   5   21.50    1.67
 -12  13  -5   12.84    1.82
 -13  13  -5   23.52    2.21
 -14  13  -5   14.46    1.63
 -14  13  -5   17.98    2.04
 -15  13  -5    0.37    1.11
 -15  13  -5    1.42    1.46
 -16  13  -5   -0.25    1.11
 -16  13  -5   -0.41    1.41
 -17  13  -5    1.31    1.22
 -17  13  -5   -0.42    1.02
 -17  13  -5    1.37    1.43
 -18  13  -5    4.56    1.65
 -18  13  -5    2.38    1.31
 -18  13  -5    0.39    1.23
 -19  13  -5   -0.28    1.10
 -19  13  -5    2.11    1.33
 -20  13  -5    5.56    1.51
 -20  13  -5    5.52    1.57
   9  12  -5    0.29    1.76
   8  12  -5    2.67    1.75
   7  12  -5   -0.87    1.49
   6  12  -5    2.87    1.59
   5  12  -5   24.11    2.27
   4  12  -5    0.29    1.27
   3  12  -5    0.20    1.30
  -3 -12   5   -1.03    1.17
   2  12  -5    0.43    1.14
  -2 -12   5    0.20    1.20
   1  12  -5   16.54    1.66
  -1 -12   5   14.97    1.69
   0  12  -5   -0.55    1.03
   0 -12   5    2.13    1.10
  -1  12  -5    1.48    1.02
   1 -12   5    1.35    1.04
  -2  12  -5    0.32    0.94
  -2  12  -5    3.12    0.63
   2 -12   5    2.68    1.02
  -3  12  -5   10.85    0.84
  -3  12  -5   12.06    1.18
   3 -12   5   10.91    1.37
  -4  12  -5   15.48    1.20
  -4  12  -5   16.81    0.95
   4 -12   5   16.51    1.45
   5 -12   5    1.44    0.86
   6 -12   5    3.36    0.92
   7 -12   5    5.28    0.96
   8 -12   5   -0.52    0.75
  -9  12  -5    0.77    1.27
   9 -12   5    1.42    0.86
 -10  12  -5   30.82    2.41
  10 -12   5   29.97    1.78
 -11  12  -5    1.52    1.29
  11 -12   5    0.38    0.42
 -12  12  -5    0.63    1.32
  12 -12   5    1.88    0.65
 -13  12  -5    6.96    1.28
 -13  12  -5    8.85    1.58
 -14  12  -5   26.75    2.26
 -14  12  -5   25.02    2.00
 -15  12  -5    4.78    1.56
 -15  12  -5    4.74    1.25
 -16  12  -5    3.01    1.48
 -16  12  -5    2.47    1.22
 -17  12  -5   19.19    2.00
 -17  12  -5   19.86    2.02
 -17  12  -5   19.23    1.93
 -18  12  -5    1.62    1.22
 -18  12  -5    1.71    1.30
 -18  12  -5    3.38    1.37
 -19  12  -5    5.41    1.52
 -19  12  -5    5.25    1.39
 -20  12  -5   -1.34    1.30
 -20  12  -5   -0.65    1.27
 -21  12  -5    3.43    1.55
 -21  12  -5    3.14    1.37
  10  11  -5   -0.40    1.64
   9  11  -5    3.48    1.76
   8  11  -5   -1.15    1.46
   7  11  -5    5.60    1.72
   6  11  -5    2.26    1.47
   5  11  -5   24.46    2.25
   4  11  -5   21.06    2.05
  -4 -11   5   22.62    2.04
   3  11  -5   26.58    2.13
  -3 -11   5   21.34    1.97
   2  11  -5   20.57    1.84
  -2 -11   5   21.54    1.96
   1  11  -5    0.36    1.01
  -1 -11   5   -0.32    1.02
   0  11  -5   12.89    1.40
   0 -11   5   13.46    1.53
  -1  11  -5    0.44    0.90
   1 -11   5   -0.07    0.91
  -2  11  -5   17.84    1.41
  -2  11  -5   14.69    1.09
   2 -11   5   14.73    1.45
  -3  11  -5    1.24    0.76
  -3  11  -5   -0.09    0.48
   3 -11   5    0.64    0.84
  -4  11  -5   43.33    1.82
  -4  11  -5   45.32    1.61
   4 -11   5   42.48    2.09
  -5  11  -5   25.81    1.29
   5 -11   5   30.29    1.77
   6 -11   5    3.67    0.90
   7 -11   5   27.74    1.69
   8 -11   5    1.27    0.83
   8 -11   5    0.03    0.24
  -9  11  -5    5.26    1.32
   9 -11   5    6.15    1.05
   9 -11   5    6.47    0.50
 -10  11  -5    2.59    1.30
  10 -11   5    5.12    0.60
 -11  11  -5   15.28    1.74
 -12  11  -5    1.07    1.23
 -13  11  -5   -0.99    1.18
 -13  11  -5    0.57    1.11
 -14  11  -5   21.75    2.04
 -14  11  -5   21.00    1.91
 -15  11  -5    2.15    1.36
 -15  11  -5    2.23    1.27
 -16  11  -5    2.18    1.18
 -16  11  -5    0.21    1.16
 -16  11  -5    1.12    1.30
 -17  11  -5    4.06    1.35
 -17  11  -5    1.99    1.33
 -17  11  -5    3.26    1.38
 -18  11  -5    2.35    1.28
 -18  11  -5    1.02    1.29
 -19  11  -5    5.10    1.60
 -19  11  -5    3.32    1.44
 -20  11  -5    6.20    1.51
 -20  11  -5    1.06    1.52
 -21  11  -5   -0.97    1.44
 -21  11  -5    0.20    1.38
  11  10  -5    3.49    1.83
  10  10  -5   -1.18    1.58
   9  10  -5    3.40    1.67
   8  10  -5    1.79    1.56
   7  10  -5    2.94    1.51
   6  10  -5   18.37    2.04
   5  10  -5    0.02    1.26
  -5 -10   5    0.19    1.28
   4  10  -5    0.98    1.18
  -4 -10   5    0.63    1.19
   3  10  -5    6.36    1.34
  -3 -10   5    5.39    1.34
   2  10  -5   32.29    2.09
  -2 -10   5   28.34    1.93
   1  10  -5    4.11    1.09
  -1 -10   5    5.92    1.22
   0  10  -5   87.00    3.25
   0 -10   5   87.95    3.35
  -1  10  -5   76.84    2.88
   1 -10   5   78.70    3.07
  -2  10  -5    4.18    0.90
  -2  10  -5    5.39    0.69
   2 -10   5    2.94    0.96
  -3  10  -5   48.06    1.72
  -3  10  -5   44.66    1.91
   3 -10   5   46.49    2.15
  -4  10  -5    0.46    0.60
  -4  10  -5    0.16    0.48
   4 -10   5    0.15    0.73
  -5  10  -5   18.09    1.02
   5 -10   5   16.59    1.37
   5 -10   5   18.31    0.86
   6 -10   5   13.17    1.23
   6 -10   5   14.50    0.74
   7 -10   5  105.53    2.91
   7 -10   5  106.26    3.54
   8 -10   5   68.96    2.09
   9 -10   5   24.56    1.18
 -10  10  -5   85.39    3.57
 -11  10  -5    1.03    1.16
 -12  10  -5    1.85    1.17
 -13  10  -5   12.91    1.62
 -13  10  -5   13.51    1.67
 -14  10  -5   14.92    1.68
 -14  10  -5   17.72    1.80
 -15  10  -5   19.75    1.97
 -15  10  -5   26.06    2.14
 -16  10  -5    2.65    1.26
 -16  10  -5    3.73    1.21
 -16  10  -5    3.08    1.24
 -17  10  -5    8.92    1.53
 -17  10  -5   10.84    1.71
 -17  10  -5    9.71    1.48
 -18  10  -5    0.22    1.17
 -18  10  -5    1.59    1.31
 -19  10  -5    1.99    1.48
 -19  10  -5    1.19    1.29
 -20  10  -5   -0.27    1.41
 -20  10  -5   -0.85    1.23
 -21  10  -5    1.79    1.40
 -21  10  -5   -0.25    1.48
  12   9  -5    4.72    1.78
  11   9  -5    2.52    1.78
  10   9  -5   -0.83    1.35
   9   9  -5    5.69    1.76
   8   9  -5    3.16    1.59
   7   9  -5    7.22    1.65
   6   9  -5    0.97    1.27
  -6  -9   5    0.05    1.22
   5   9  -5    0.81    1.25
  -5  -9   5   -0.12    1.05
   4   9  -5    2.61    1.24
  -4  -9   5    4.65    1.27
   3   9  -5   -0.19    1.03
  -3  -9   5    2.95    1.12
   2   9  -5    8.91    1.28
  -2  -9   5    6.48    1.23
   1   9  -5   26.68    1.76
  -1  -9   5   24.98    1.82
   0   9  -5    1.54    0.85
   0  -9   5    0.15    0.81
  -1   9  -5    9.68    1.08
  -1   9  -5   11.27    0.91
   1  -9   5    9.71    1.22
  -2   9  -5   18.37    1.09
  -2   9  -5   18.76    1.31
   2  -9   5   16.03    1.34
  -3   9  -5   19.53    1.24
  -3   9  -5   22.88    1.14
   3  -9   5   22.49    1.10
   3  -9   5   21.59    1.54
  -4   9  -5   31.92    1.42
   4  -9   5   35.82    1.32
   4  -9   5   30.24    1.73
  -5   9  -5   11.11    0.83
   5  -9   5   10.51    1.13
   5  -9   5   10.92    0.77
  -6   9  -5   15.67    0.70
   6  -9   5   14.82    1.31
   6  -9   5   14.56    0.87
   7  -9   5   10.16    0.73
   8  -9   5   25.02    1.21
  -9   9  -5    1.37    1.04
 -10   9  -5   82.75    3.43
 -11   9  -5   15.88    1.57
 -12   9  -5    9.56    1.43
 -12   9  -5   12.98    1.50
 -13   9  -5   76.79    3.27
 -13   9  -5   68.77    3.15
 -14   9  -5   10.72    1.55
 -14   9  -5   13.48    1.56
 -15   9  -5    0.16    1.18
 -15   9  -5    2.69    1.13
 -15   9  -5    0.29    1.07
 -16   9  -5    0.27    1.25
 -16   9  -5    1.27    1.06
 -16   9  -5   -0.22    1.10
 -17   9  -5   21.28    2.16
 -17   9  -5   21.33    2.02
 -18   9  -5    7.11    1.56
 -18   9  -5    5.84    1.65
 -19   9  -5    2.08    1.35
 -19   9  -5    0.38    1.42
 -20   9  -5    3.86    1.60
 -20   9  -5    0.17    1.49
 -21   9  -5   -0.44    1.36
 -21   9  -5    3.65    1.66
  12   8  -5   -0.72    1.48
  11   8  -5    5.56    1.71
  10   8  -5    0.22    1.34
   9   8  -5   23.94    2.33
   8   8  -5   15.86    2.04
   7   8  -5    3.38    1.44
  -7  -8   5    3.61    1.29
   6   8  -5    4.05    1.25
  -6  -8   5    5.44    1.42
   5   8  -5    4.51    1.30
  -5  -8   5    3.64    1.22
   4   8  -5    0.36    0.91
  -4  -8   5   -0.58    0.90
   3   8  -5    0.24    0.98
  -3  -8   5    0.80    0.99
   2   8  -5   72.85    2.88
  -2  -8   5   68.79    2.92
   1   8  -5   28.10    1.83
  -1  -8   5   27.76    1.74
   0   8  -5   33.92    1.88
   0  -8   5   40.24    2.03
  -1   8  -5  102.90    3.37
  -1   8  -5  112.96    3.32
   1  -8   5  105.44    3.30
   1  -8   5  110.96    3.68
  -2   8  -5   11.97    0.87
  -2   8  -5   10.81    0.96
   2  -8   5    9.43    0.82
   2  -8   5    8.71    1.12
  -3   8  -5    0.24    0.54
  -3   8  -5    0.78    0.52
   3  -8   5    1.75    0.80
   3  -8   5    0.98    0.52
  -4   8  -5    3.87    0.60
   4  -8   5    3.41    0.85
   4  -8   5    4.20    0.58
  -5   8  -5    1.73    0.45
   5  -8   5    3.59    0.89
   5  -8   5    3.38    0.55
  -6   8  -5   32.13    1.06
   6  -8   5   31.72    1.32
   7  -8   5    2.70    0.60
 -10   8  -5    4.54    1.09
 -11   8  -5   -0.30    0.95
 -12   8  -5   20.33    1.68
 -12   8  -5   17.64    1.68
 -13   8  -5    3.43    1.14
 -13   8  -5    5.55    1.32
 -14   8  -5    7.06    1.23
 -14   8  -5    6.78    1.39
 -14   8  -5    6.02    1.31
 -15   8  -5    4.63    1.29
 -15   8  -5    5.26    1.43
 -15   8  -5    5.87    1.17
 -16   8  -5   13.78    1.70
 -16   8  -5   14.32    1.42
 -16   8  -5   11.27    1.78
 -17   8  -5    3.20    1.33
 -17   8  -5   -0.15    1.32
 -18   8  -5    2.47    1.52
 -18   8  -5    3.62    1.38
 -19   8  -5    0.54    1.31
 -19   8  -5   -0.83    1.41
 -20   8  -5    3.54    1.68
 -20   8  -5    2.11    1.45
  13   7  -5    6.36    1.85
  12   7  -5    3.39    1.74
  11   7  -5   -0.29    1.52
  10   7  -5   11.80    1.82
   9   7  -5    2.62    1.51
   8   7  -5    6.87    1.57
   7   7  -5   -0.71    1.16
  -7  -7   5    1.62    1.09
   6   7  -5   30.73    2.23
  -6  -7   5   27.69    1.97
   5   7  -5    3.46    1.20
  -5  -7   5    4.84    1.16
   4   7  -5   25.94    1.97
  -4  -7   5   27.26    1.93
   3   7  -5  114.28    3.88
  -3  -7   5  108.36    3.92
   2   7  -5   10.90    1.24
  -2  -7   5   11.12    1.26
   1   7  -5    2.65    0.86
  -1  -7   5    3.16    0.75
  -1  -7   5    1.63    0.89
   0   7  -5    2.40    0.78
   0   7  -5    3.29    0.67
   0  -7   5    2.78    0.73
   0  -7   5    2.20    0.90
  -1   7  -5  222.16    5.88
  -1   7  -5  199.12    5.92
   1  -7   5  216.51    6.24
   1  -7   5  214.27    5.88
  -2   7  -5   12.58    0.95
  -2   7  -5   12.01    0.92
   2  -7   5   11.54    0.88
   2  -7   5   12.84    1.22
  -3   7  -5   10.90    0.84
  -3   7  -5   12.78    0.91
   3  -7   5    8.72    0.78
   3  -7   5   10.85    1.14
  -4   7  -5   22.21    1.09
   4  -7   5   21.48    1.11
   4  -7   5   23.35    1.52
  -5   7  -5    1.73    0.44
   5  -7   5    2.07    0.57
   6  -7   5   44.93    1.73
  -7   7  -5    2.48    0.35
  -8   7  -5  104.61    2.81
  -9   7  -5   15.40    1.44
  -9   7  -5   18.45    0.84
 -10   7  -5   46.34    2.28
 -10   7  -5   45.32    1.58
 -11   7  -5   39.40    2.20
 -11   7  -5   41.04    2.18
 -11   7  -5   42.27    1.56
 -12   7  -5    1.64    0.56
 -12   7  -5   -0.66    0.90
 -12   7  -5   -1.20    0.99
 -13   7  -5    3.68    1.01
 -13   7  -5    3.88    1.28
 -14   7  -5    2.16    1.13
 -14   7  -5    1.19    1.19
 -14   7  -5    1.30    0.94
 -15   7  -5    3.67    1.25
 -15   7  -5    1.16    0.93
 -15   7  -5    2.07    1.28
 -16   7  -5    6.07    1.44
 -16   7  -5    3.91    1.47
 -17   7  -5    1.23    1.39
 -17   7  -5    3.32    1.37
 -18   7  -5    7.92    1.75
 -18   7  -5    7.95    1.64
 -19   7  -5    1.87    1.40
 -19   7  -5   -0.86    1.45
 -20   7  -5    2.84    1.68
 -20   7  -5    1.74    1.46
  14   6  -5    6.24    2.02
  13   6  -5   -0.12    1.46
  12   6  -5    1.47    1.60
  11   6  -5    3.30    1.61
  10   6  -5    2.47    1.46
   9   6  -5    2.02    1.38
   8   6  -5    9.43    1.60
  -8  -6   5    7.96    1.53
   7   6  -5    4.74    1.23
  -7  -6   5    2.22    1.19
   6   6  -5    3.44    1.22
  -6  -6   5    4.47    1.12
   5   6  -5    5.28    1.17
  -5  -6   5    2.88    1.02
   4   6  -5   14.04    1.43
  -4  -6   5   13.22    1.42
   3   6  -5   13.13    1.32
  -3  -6   5   14.72    1.40
   2   6  -5   29.48    1.79
  -2  -6   5   33.13    1.75
  -2  -6   5   28.65    1.58
   1   6  -5   49.46    2.10
  -1  -6   5   48.42    1.99
  -1  -6   5   46.26    2.10
   0   6  -5  102.70    3.20
   0   6  -5   98.89    3.25
   0  -6   5  103.55    3.21
   0  -6   5  104.53    3.51
  -1   6  -5   16.90    1.24
  -1   6  -5   18.47    1.16
   1  -6   5   16.98    1.30
   1  -6   5   17.84    1.17
  -2   6  -5    0.74    0.53
  -2   6  -5    0.44    0.59
   2  -6   5   -0.17    0.55
   2  -6   5    0.35    0.65
   3  -6   5    2.64    0.85
   3  -6   5    3.33    0.60
   4  -6   5   49.77    1.83
   5  -6   5    1.70    0.64
   6  -6   5   96.24    3.05
  -8   6  -5   10.50    0.79
  -9   6  -5   20.64    1.08
  -9   6  -5   17.41    1.39
 -10   6  -5   -0.22    0.79
 -10   6  -5   -1.07    0.47
 -11   6  -5   29.85    1.45
 -11   6  -5   28.53    1.86
 -11   6  -5   29.00    1.79
 -12   6  -5    2.01    0.90
 -12   6  -5    3.61    1.17
 -12   6  -5    2.55    0.72
 -13   6  -5   29.85    1.77
 -13   6  -5   25.45    1.94
 -13   6  -5   21.48    1.98
 -14   6  -5    3.46    1.24
 -14   6  -5    4.25    0.95
 -14   6  -5    3.29    1.31
 -15   6  -5   -1.20    1.10
 -15   6  -5    0.93    1.27
 -16   6  -5   20.91    2.10
 -16   6  -5   16.12    1.90
 -17   6  -5    2.60    1.47
 -17   6  -5    1.96    1.35
 -18   6  -5    2.92    1.48
 -18   6  -5    6.56    1.71
 -19   6  -5    0.97    1.35
 -19   6  -5    0.02    1.50
 -20   6  -5    7.54    1.98
 -20   6  -5    9.31    1.92
  15   5  -5   17.39    2.35
  14   5  -5   -0.15    1.48
  13   5  -5    2.64    1.70
  12   5  -5   20.57    2.30
  11   5  -5    0.73    1.28
  10   5  -5   22.10    2.16
   9   5  -5   12.73    1.68
  -9  -5   5   12.31    1.65
   8   5  -5    6.18    1.34
  -8  -5   5    5.38    1.26
   7   5  -5    0.91    1.00
  -7  -5   5    1.20    1.06
   6   5  -5   29.58    2.10
  -6  -5   5   29.96    1.96
   5   5  -5   18.01    1.63
  -5  -5   5   16.11    1.49
   4   5  -5    9.92    1.26
  -4  -5   5    8.84    1.14
   3   5  -5    2.66    0.87
  -3  -5   5    3.54    0.98
  -3  -5   5    3.24    0.83
   2   5  -5    1.75    0.79
  -2  -5   5    2.41    0.87
  -2  -5   5    1.72    0.69
   1   5  -5    1.34    0.73
  -1  -5   5    2.13    0.85
  -1  -5   5    1.59    0.68
   0   5  -5   28.27    1.54
   0   5  -5   31.60    1.43
   0  -5   5   31.01    1.70
   0  -5   5   29.43    1.40
  -1   5  -5   11.73    0.95
   1  -5   5   14.19    1.17
   1  -5   5   14.14    1.07
  -2   5  -5    1.77    0.65
   2  -5   5    3.58    0.85
   2  -5   5    3.50    0.65
   3  -5   5    3.30    0.66
   4  -5   5   40.76    1.70
   5  -5   5   30.14    1.56
  -8   5  -5    0.70    0.52
  -9   5  -5   33.73    1.78
  -9   5  -5   36.70    1.54
 -10   5  -5   20.56    1.72
 -10   5  -5   17.85    1.26
 -10   5  -5   17.55    1.30
 -11   5  -5    3.67    0.86
 -11   5  -5    2.49    1.01
 -12   5  -5    5.59    0.88
 -12   5  -5    4.50    1.23
 -12   5  -5    3.37    1.19
 -13   5  -5    4.42    1.33
 -13   5  -5    3.92    0.82
 -13   5  -5    3.97    1.27
 -14   5  -5    2.03    0.71
 -14   5  -5    2.55    1.15
 -14   5  -5    1.59    1.19
 -15   5  -5    1.43    1.20
 -15   5  -5    0.69    1.26
 -16   5  -5   19.65    2.00
 -16   5  -5   18.19    2.12
 -17   5  -5   23.44    2.16
 -17   5  -5   19.31    2.19
 -18   5  -5    0.76    1.22
 -18   5  -5    0.61    1.52
 -19   5  -5    1.55    1.50
 -19   5  -5    2.81    1.69
 -20   5  -5    3.28    1.62
 -20   5  -5    1.32    1.66
  15   4  -5    0.10    1.75
  14   4  -5    1.04    1.65
  13   4  -5    2.50    1.44
  12   4  -5    3.59    1.54
  11   4  -5    4.09    1.54
  10   4  -5   15.74    1.88
   9   4  -5   74.46    3.27
   8   4  -5   16.95    1.69
  -8  -4   5   19.04    1.80
   7   4  -5   44.61    2.37
  -7  -4   5   44.91    2.28
   6   4  -5    1.78    1.02
  -6  -4   5    1.55    0.86
   5   4  -5   30.38    1.82
  -5  -4   5   31.28    1.90
   4   4  -5    4.64    0.92
  -4  -4   5    4.12    0.94
  -4  -4   5    2.10    0.82
   3   4  -5   26.99    1.70
  -3  -4   5   24.23    1.46
  -3  -4   5   22.04    1.49
   2   4  -5   49.03    2.12
  -2  -4   5   44.20    2.04
  -2  -4   5   47.83    1.96
   1   4  -5   46.23    1.85
  -1  -4   5   44.79    1.98
  -1  -4   5   45.57    1.87
   0   4  -5  149.12    4.29
   0  -4   5  140.81    4.26
   0  -4   5  153.27    4.50
  -1   4  -5    6.18    0.78
   1  -4   5    5.82    0.89
   1  -4   5    4.97    0.72
  -2   4  -5   11.16    0.97
   2  -4   5   11.50    0.92
   3  -4   5   18.70    1.18
   4  -4   5  140.35    4.18
  -8   4  -5    4.42    0.69
  -9   4  -5   10.66    0.98
  -9   4  -5   11.62    0.97
 -10   4  -5   11.63    1.39
 -10   4  -5   14.26    1.05
 -11   4  -5   28.28    1.48
 -11   4  -5   21.76    1.91
 -12   4  -5    0.23    1.01
 -12   4  -5    1.08    0.62
 -12   4  -5   -0.66    0.92
 -13   4  -5    3.82    1.31
 -13   4  -5    3.73    0.65
 -13   4  -5    5.72    1.34
 -14   4  -5    1.85    1.17
 -14   4  -5    0.89    1.20
 -15   4  -5   19.32    2.10
 -15   4  -5   19.82    2.01
 -16   4  -5   -2.81    1.10
 -16   4  -5   -1.02    1.30
 -17   4  -5    0.94    1.38
 -17   4  -5    6.29    1.70
 -18   4  -5    0.06    1.39
 -18   4  -5   -0.85    1.42
 -19   4  -5    5.83    1.83
 -19   4  -5    8.21    1.80
  16   3  -5    3.28    1.90
  15   3  -5    1.47    1.67
  14   3  -5    0.58    1.57
  13   3  -5   -0.32    1.43
  12   3  -5    5.07    1.45
  11   3  -5   26.40    2.22
  10   3  -5   13.16    1.72
 -10  -3   5   15.27    1.75
   9   3  -5   10.53    1.55
  -9  -3   5   10.99    1.43
   8   3  -5    0.59    1.09
  -8  -3   5    0.58    0.91
   7   3  -5   51.05    2.52
  -7  -3   5   51.95    2.46
   6   3  -5   21.66    1.68
  -6  -3   5   26.55    1.75
  -6  -3   5   21.68    1.66
   5   3  -5    1.05    0.89
  -5  -3   5   -1.08    0.76
  -5  -3   5    0.41    0.72
   4   3  -5    9.78    1.12
  -4  -3   5    8.65    1.07
  -4  -3   5    9.91    1.10
   3   3  -5    3.74    0.90
  -3  -3   5    2.74    0.79
  -3  -3   5    3.82    0.83
  -2  -3   5    5.43    0.80
  -2  -3   5    4.61    0.85
   1   3  -5   18.52    1.25
  -1  -3   5   22.04    1.31
  -1  -3   5   20.03    1.33
   0   3  -5  230.54    6.44
   0  -3   5  240.42    6.66
   0  -3   5  232.82    6.46
  -1   3  -5   57.52    2.14
   1  -3   5   58.53    2.10
   2  -3   5   78.58    2.64
   3  -3   5  220.25    6.15
  -7   3  -5   21.99    1.27
  -8   3  -5    3.01    0.69
  -9   3  -5   15.02    0.99
  -9   3  -5   12.50    1.39
 -10   3  -5  107.17    4.02
 -10   3  -5  109.87    3.34
 -11   3  -5    0.41    1.01
 -11   3  -5    0.59    0.50
 -11   3  -5    1.40    0.95
 -12   3  -5    2.61    1.04
 -12   3  -5    0.86    1.05
 -13   3  -5    4.55    1.22
 -13   3  -5    8.65    1.55
 -14   3  -5   20.72    2.02
 -14   3  -5   25.07    2.23
 -15   3  -5    3.41    1.42
 -15   3  -5    0.02    1.10
 -16   3  -5    0.95    1.40
 -16   3  -5    0.72    1.25
 -17   3  -5    6.25    1.66
 -17   3  -5    4.92    1.69
 -18   3  -5    1.30    1.41
 -18   3  -5    0.10    1.45
 -19   3  -5    4.71    1.73
 -19   3  -5    5.52    1.85
  17   2  -5   -2.27    1.47
  16   2  -5   11.74    2.15
  15   2  -5    3.44    1.72
  14   2  -5    0.36    1.36
  13   2  -5    1.33    1.49
  12   2  -5   27.85    2.33
  11   2  -5   -0.65    1.09
  10   2  -5    0.77    1.23
 -10  -2   5    2.84    1.21
   9   2  -5   12.92    1.52
  -9  -2   5   13.69    1.53
   8   2  -5    3.64    1.14
  -8  -2   5    2.83    0.99
   7   2  -5   20.63    1.70
  -7  -2   5   18.80    1.55
  -7  -2   5   21.23    1.63
   6   2  -5   10.22    1.19
  -6  -2   5    9.86    1.21
  -6  -2   5   11.04    1.22
   5   2  -5   12.81    1.30
  -5  -2   5   11.40    1.22
  -5  -2   5   12.71    1.22
  -4  -2   5    0.41    0.67
  -4  -2   5    0.88    0.71
  -3  -2   5    3.39    0.86
  -3  -2   5    3.03    0.80
  -2  -2   5   14.12    1.11
  -2  -2   5   12.36    1.10
   1   2  -5   86.94    2.84
  -1  -2   5   82.60    2.97
  -1  -2   5   89.20    2.86
   0   2  -5    1.62    0.64
   0  -2   5   -0.08    0.65
   0  -2   5    1.60    0.66
  -1   2  -5    9.56    0.96
   1  -2   5   10.31    0.95
   2  -2   5    0.73    0.67
   3  -2   5   50.21    2.09
  -7   2  -5    1.89    0.67
  -8   2  -5   34.61    1.51
  -9   2  -5   10.85    1.38
  -9   2  -5   10.78    0.91
 -10   2  -5   62.29    2.77
 -10   2  -5   72.27    2.96
 -11   2  -5    9.05    1.36
 -11   2  -5    7.69    1.32
 -12   2  -5   27.24    2.02
 -12   2  -5   27.64    2.08
 -13   2  -5   20.22    1.95
 -13   2  -5   17.90    1.88
 -14   2  -5   -0.02    1.27
 -14   2  -5    0.39    1.23
 -15   2  -5    0.55    1.30
 -15   2  -5   -0.44    1.24
 -16   2  -5    1.77    1.44
 -16   2  -5    1.58    1.46
 -17   2  -5    6.64    1.79
 -17   2  -5    6.45    1.70
 -18   2  -5    3.72    1.73
 -18   2  -5    1.55    1.50
 -19   2  -5    6.32    1.95
 -19   2  -5    7.54    1.88
  17   1  -5    1.55    1.74
  16   1  -5   10.67    1.93
  15   1  -5    6.64    1.81
  14   1  -5   12.76    1.98
  13   1  -5   17.02    1.92
  12   1  -5    6.63    1.53
  11   1  -5   -0.48    1.16
  10   1  -5    1.35    1.15
 -10  -1   5   -0.68    0.96
   9   1  -5   75.17    3.31
  -9  -1   5   88.18    3.30
   8   1  -5   10.58    1.38
  -8  -1   5   11.16    1.31
  -8  -1   5   10.83    1.33
   7   1  -5  113.18    3.89
  -7  -1   5  106.13    3.72
  -7  -1   5  108.42    3.78
   6   1  -5  198.14    6.14
  -6  -1   5  212.82    6.12
  -6  -1   5  213.78    6.17
  -5  -1   5   20.50    1.51
  -5  -1   5   19.37    1.41
  -4  -1   5   13.52    1.19
  -4  -1   5   14.19    1.18
   3   1  -5    7.39    0.90
  -3  -1   5    4.93    0.83
  -3  -1   5    6.26    0.90
  -2  -1   5   58.15    2.28
  -2  -1   5   56.85    2.14
   1   1  -5   10.42    0.99
  -1  -1   5   11.90    1.11
  -1  -1   5   12.14    1.02
   0   1  -5    2.82    0.74
   0  -1   5    4.62    0.81
   1  -1   5    4.80    0.79
   2  -1   5   10.57    1.07
  -8   1  -5    1.17    0.90
  -8   1  -5    2.59    0.44
  -9   1  -5   25.25    1.70
  -9   1  -5   23.93    1.80
 -10   1  -5   23.40    1.94
 -10   1  -5   23.68    1.84
 -11   1  -5    5.47    1.23
 -11   1  -5    6.83    1.32
 -12   1  -5    1.34    1.17
 -12   1  -5    1.23    1.06
 -13   1  -5   11.83    1.73
 -13   1  -5   13.36    1.73
 -14   1  -5    0.20    1.12
 -14   1  -5    0.99    1.38
 -15   1  -5    0.34    1.24
 -15   1  -5    0.77    1.35
 -16   1  -5    0.57    1.44
 -16   1  -5    2.59    1.56
 -17   1  -5    4.09    1.49
 -17   1  -5    4.43    1.70
 -18   1  -5    4.35    1.76
 -18   1  -5    3.09    1.76
  18   0  -5   -2.97    1.57
  17   0  -5    9.50    1.97
  16   0  -5    1.71    1.60
  15   0  -5    0.30    1.30
  14   0  -5    3.09    1.50
  13   0  -5   26.42    2.31
  12   0  -5    0.51    1.09
  11   0  -5   12.28    1.53
 -11   0   5   15.68    1.66
  10   0  -5   91.61    3.63
 -10   0   5   88.69    3.45
   9   0  -5    1.69    0.96
  -9   0   5    2.00    0.91
   8   0  -5   41.21    2.26
  -8   0   5   40.21    2.07
  -8   0   5   37.14    1.98
   7   0  -5    1.37    0.86
  -7   0   5    3.77    0.96
  -7   0   5    2.64    0.89
  -6   0   5   99.74    3.32
  -6   0   5   97.34    3.43
  -5   0   5   33.90    1.75
  -5   0   5   33.71    1.82
   4   0  -5  151.23    4.50
  -4   0   5  146.69    4.50
  -4   0   5  156.81    4.60
  -3   0   5  235.97    6.58
  -3   0   5  234.24    6.60
   2   0  -5    0.59    0.60
  -2   0   5    1.19    0.65
  -2   0   5    1.45    0.68
   1   0  -5    1.98    0.65
  -1   0   5    4.85    0.79
   0   0  -5    0.21    0.64
   0   0   5    0.09    0.70
   1   0   5    4.97    0.91
  -6   0  -5   91.20    2.80
  -7   0  -5    2.55    0.40
  -7   0  -5    2.71    0.91
  -8   0  -5   37.96    2.07
  -8   0  -5   35.85    1.96
  -9   0  -5    2.29    1.06
  -9   0  -5    3.62    1.07
 -10   0  -5   79.99    3.29
 -10   0  -5   75.81    3.33
 -11   0  -5   13.04    1.60
 -11   0  -5   12.50    1.60
 -12   0  -5    0.99    1.26
 -12   0  -5    0.85    1.09
 -13   0  -5   23.73    2.25
 -13   0  -5   23.12    2.15
 -14   0  -5    2.98    1.31
 -14   0  -5    4.08    1.45
 -15   0  -5    0.73    1.37
 -15   0  -5    1.45    1.29
 -16   0  -5    2.62    1.48
 -16   0  -5    2.72    1.56
 -17   0  -5    6.52    1.85
 -17   0  -5    8.33    1.86
 -18   0  -5    0.53    1.65
 -18   0  -5   -0.54    1.52
  18  -1  -5    2.67    1.60
  17  -1  -5    5.99    1.84
  16  -1  -5    4.84    1.63
  15  -1  -5   -0.51    1.39
  14  -1  -5    1.42    1.35
  13  -1  -5   15.70    1.90
  12  -1  -5    2.75    1.24
  11  -1  -5    4.21    1.29
 -11   1   5    4.16    1.15
  10  -1  -5   25.60    1.89
 -10   1   5   25.46    1.81
   9  -1  -5   30.45    2.05
  -9   1   5   25.13    1.86
  -9   1   5   29.27    1.79
   8  -1  -5    3.07    1.05
  -8   1   5    1.65    0.91
  -8   1   5    1.59    0.85
  -7   1   5   46.43    2.03
  -7   1   5   51.58    2.28
  -6   1   5    2.81    0.80
  -6   1   5    1.56    0.77
   5  -1  -5   46.07    1.99
  -5   1   5   49.14    2.02
  -5   1   5   46.52    2.10
  -4   1   5   21.67    1.41
  -4   1   5   20.77    1.33
  -3   1   5   80.50    2.76
  -3   1   5   85.11    2.83
  -2   1   5   12.28    1.05
  -2   1   5    9.88    0.97
   1  -1  -5    2.28    0.77
  -1   1   5    3.73    0.77
   0   1   5    5.68    0.92
  -1  -1  -5   10.05    1.00
   1   1   5   10.94    1.10
  -2  -1  -5   48.07    2.07
  -3  -1  -5    4.38    0.75
  -4  -1  -5   11.99    0.91
  -5  -1  -5   17.60    1.10
  -6  -1  -5  216.40    5.76
  -6  -1  -5  197.67    6.22
  -7  -1  -5  102.41    3.64
  -7  -1  -5   99.36    3.56
  -8  -1  -5    8.32    1.29
  -8  -1  -5    9.32    1.25
  -9  -1  -5   79.51    3.32
  -9  -1  -5   77.62    3.17
 -10  -1  -5    0.22    1.03
 -10  -1  -5    0.81    0.98
 -11  -1  -5    2.07    1.14
 -11  -1  -5   -0.99    1.09
 -12  -1  -5    9.19    1.54
 -12  -1  -5    6.54    1.37
 -13  -1  -5   14.24    1.86
 -13  -1  -5   14.00    1.76
 -14  -1  -5   13.96    1.90
 -14  -1  -5   13.31    1.94
 -15  -1  -5    4.82    1.44
 -15  -1  -5    6.10    1.64
 -16  -1  -5   10.53    1.94
 -16  -1  -5    8.00    1.85
 -17  -1  -5    4.30    1.72
 -17  -1  -5    3.33    1.75
  19  -2  -5    6.39    1.99
  18  -2  -5   -0.60    1.59
  17  -2  -5    9.82    1.88
  16  -2  -5    1.67    1.33
  15  -2  -5    0.50    1.35
  14  -2  -5    1.11    1.22
  13  -2  -5   20.26    1.98
  12  -2  -5   33.79    2.34
  11  -2  -5    8.85    1.40
 -11   2   5    4.60    1.09
  10  -2  -5   67.38    2.94
 -10   2   5   71.64    2.91
 -10   2   5   75.07    2.88
  -9   2   5   10.50    1.23
  -9   2   5   12.14    1.24
  -8   2   5   33.62    1.93
  -8   2   5   33.83    1.78
   7  -2  -5    2.30    0.70
  -7   2   5    1.61    0.69
  -7   2   5    1.64    0.79
   6  -2  -5   42.46    1.92
  -6   2   5   49.29    2.13
  -6   2   5   48.18    1.99
  -5   2   5    2.85    0.77
  -5   2   5    4.17    0.80
  -4   2   5   16.36    1.24
  -4   2   5   13.61    1.20
  -3   2   5   55.22    2.19
  -3   2   5   58.91    2.18
   2  -2  -5    0.94    0.77
  -2   2   5    0.78    0.74
   1  -2  -5   11.90    1.12
  -1   2   5   11.25    1.06
   0  -2  -5    0.26    0.69
   0   2   5    0.65    0.80
  -1  -2  -5   78.75    2.84
  -2  -2  -5   10.51    0.95
  -3  -2  -5    2.94    0.67
  -4  -2  -5    0.70    0.54
  -5  -2  -5    9.78    1.26
  -5  -2  -5   11.90    0.91
  -6  -2  -5   10.29    1.26
  -6  -2  -5    9.39    1.26
  -7  -2  -5   19.72    1.63
  -7  -2  -5   14.80    1.47
  -8  -2  -5    2.36    1.09
  -8  -2  -5    3.52    1.04
  -9  -2  -5   10.22    1.42
  -9  -2  -5   15.36    1.60
 -10  -2  -5    1.32    1.16
 -10  -2  -5    0.25    1.03
 -11  -2  -5    0.08    1.08
 -11  -2  -5    0.71    1.16
 -12  -2  -5   22.67    2.19
 -12  -2  -5   22.60    2.19
 -13  -2  -5    0.15    1.35
 -13  -2  -5    0.72    1.16
 -14  -2  -5    2.49    1.34
 -14  -2  -5    1.00    1.37
 -15  -2  -5   -1.18    1.28
 -15  -2  -5    1.92    1.41
 -16  -2  -5   13.60    2.22
 -16  -2  -5   11.29    2.02
 -17  -2  -5    0.72    1.55
 -17  -2  -5   -0.58    1.64
  19  -3  -5    6.73    1.95
  18  -3  -5    0.32    1.55
  17  -3  -5    4.36    1.63
  16  -3  -5   -0.34    1.33
  15  -3  -5    2.46    1.40
  14  -3  -5   23.24    2.08
  13  -3  -5    6.00    1.30
  12  -3  -5   -0.14    0.98
  11  -3  -5    0.05    1.01
 -11   3   5    1.02    0.89
 -11   3   5    0.49    1.00
 -10   3   5  112.30    3.76
 -10   3   5  111.39    3.97
  -9   3   5   14.68    1.27
  -9   3   5   11.57    1.30
   8  -3  -5    2.86    0.69
  -8   3   5    2.95    0.89
  -8   3   5    2.67    0.79
   7  -3  -5   23.34    1.38
   7  -3  -5   21.68    1.34
  -7   3   5   20.89    1.37
  -7   3   5   23.21    1.49
   6  -3  -5    4.79    0.75
  -6   3   5    3.05    0.72
  -6   3   5    3.86    0.90
  -5   3   5    3.28    0.71
  -5   3   5    2.23    0.80
  -4   3   5    4.60    0.89
  -4   3   5    5.92    0.81
  -3   3   5  218.62    6.22
   2  -3  -5   81.55    3.06
  -2   3   5   77.65    2.80
   1  -3  -5   47.58    2.23
  -1   3   5   50.36    2.10
   0  -3  -5  221.46    6.63
   0   3   5  225.23    6.48
  -1  -3  -5   19.08    1.51
  -2  -3  -5    4.48    0.79
  -3  -3  -5    2.94    0.68
  -4  -3  -5   11.60    0.85
  -5  -3  -5    0.66    0.87
  -5  -3  -5    1.46    0.84
  -5  -3  -5    0.12    0.45
  -6  -3  -5   22.35    1.73
  -6  -3  -5   22.18    1.71
  -7  -3  -5   44.77    2.25
  -7  -3  -5   44.45    2.39
  -8  -3  -5    0.09    1.01
  -8  -3  -5    0.75    1.05
  -9  -3  -5   10.53    1.53
  -9  -3  -5    9.54    1.40
 -10  -3  -5   11.88    1.60
 -10  -3  -5   11.87    1.62
 -11  -3  -5   21.31    2.06
 -11  -3  -5   20.58    1.99
 -12  -3  -5    3.63    1.53
 -12  -3  -5    4.30    1.35
 -13  -3  -5    1.29    1.25
 -13  -3  -5    0.02    1.42
 -14  -3  -5   -1.26    1.39
 -14  -3  -5    2.05    1.58
 -15  -3  -5    1.50    1.43
 -15  -3  -5    0.17    1.52
 -16  -3  -5    6.26    1.72
 -16  -3  -5    5.84    1.91
  19  -4  -5    5.61    1.82
  18  -4  -5    2.06    1.49
  17  -4  -5    6.74    1.71
  16  -4  -5    0.81    1.34
  15  -4  -5   19.83    2.00
  14  -4  -5    0.42    1.19
  13  -4  -5    4.29    1.29
  12  -4  -5   -1.13    1.01
 -12   4   5   -0.45    0.85
 -12   4   5    0.50    1.02
 -11   4   5   29.61    1.95
 -11   4   5   28.57    1.72
 -10   4   5   14.92    1.29
 -10   4   5   14.55    1.47
   9  -4  -5   11.91    1.00
  -9   4   5   13.27    1.15
  -9   4   5   10.98    1.23
   8  -4  -5    3.44    0.71
   8  -4  -5    2.73    0.64
  -8   4   5    3.02    0.92
  -8   4   5    3.64    0.77
   7  -4  -5   12.71    0.99
   7  -4  -5   11.85    0.89
  -7   4   5    9.91    1.09
  -7   4   5    9.56    0.97
  -6   4   5    0.07    0.77
  -6   4   5   -0.13    0.60
  -5   4   5   14.19    1.19
  -5   4   5   14.75    1.11
  -5   4   5   15.60    1.49
  -4   4   5  154.78    4.45
  -4   4   5  147.89    4.58
  -4   4   5  153.65    5.05
  -3   4   5   24.57    1.83
  -3   4   5   22.08    1.45
  -2   4   5   14.22    1.28
  -2   4   5   16.25    1.32
   1  -4  -5    7.06    0.96
  -1   4   5    6.46    1.00
  -1   4   5    4.95    1.03
   0  -4  -5  146.73    4.59
   0   4   5  141.92    4.55
  -1  -4  -5   43.81    2.02
   1   4   5   45.09    2.00
  -2  -4  -5   47.07    2.02
   2   4   5   48.72    2.02
  -3  -4  -5   22.49    1.51
  -3  -4  -5   21.60    1.39
   3   4   5   22.12    1.35
  -4  -4  -5    4.45    0.66
  -4  -4  -5    2.56    0.85
  -4  -4  -5    4.81    0.99
  -5  -4  -5   34.90    2.00
  -5  -4  -5   40.87    1.49
  -5  -4  -5   32.04    1.86
  -6  -4  -5   -1.45    0.85
  -6  -4  -5   -0.32    0.80
  -7  -4  -5   43.65    2.42
  -7  -4  -5   43.08    2.34
  -8  -4  -5   14.21    1.55
  -8  -4  -5   13.68    1.61
  -9  -4  -5   68.41    3.22
  -9  -4  -5   66.06    3.12
 -10  -4  -5   15.23    1.85
 -10  -4  -5   16.73    1.82
 -11  -4  -5    5.04    1.57
 -11  -4  -5    3.37    1.33
 -12  -4  -5    4.32    1.52
 -12  -4  -5    1.13    1.44
 -13  -4  -5   -0.61    1.20
 -13  -4  -5    0.95    1.49
 -14  -4  -5    3.28    1.66
 -14  -4  -5    0.84    1.37
 -15  -4  -5    0.51    1.66
 -15  -4  -5    3.49    1.53
  20  -5  -5    2.76    1.70
  19  -5  -5    5.79    1.69
  18  -5  -5    1.67    1.43
  17  -5  -5   24.52    2.31
  16  -5  -5   25.77    2.19
  15  -5  -5    0.44    1.11
  14  -5  -5    0.73    1.14
  13  -5  -5    3.37    1.23
 -12   5   5    5.10    1.04
 -12   5   5    4.45    1.13
 -11   5   5    4.11    1.01
 -11   5   5    5.05    0.98
  10  -5  -5   18.53    1.21
 -10   5   5   21.19    1.57
 -10   5   5   19.55    1.41
   9  -5  -5   35.62    1.57
   9  -5  -5   33.86    1.61
  -9   5   5   34.72    1.69
  -9   5   5   34.69    1.95
   8  -5  -5    0.51    0.51
   8  -5  -5    0.72    0.47
  -8   5   5    0.89    0.80
  -8   5   5    0.96    0.64
  -8   5   5    0.57    1.08
  -7   5   5   11.41    1.46
  -7   5   5   10.45    1.10
  -7   5   5   12.57    0.98
  -6   5   5   20.65    1.68
  -6   5   5   19.93    1.24
  -6   5   5   23.84    1.61
  -5   5   5   30.53    1.99
  -5   5   5   32.84    1.49
  -5   5   5   31.90    1.64
  -4   5   5   45.48    2.27
  -4   5   5   42.20    1.94
  -3   5   5    2.60    0.91
  -3   5   5    3.86    0.94
  -2   5   5    3.52    0.92
  -2   5   5    2.80    0.93
  -1   5   5   12.45    1.19
  -1   5   5   11.47    1.21
   0  -5  -5   34.69    1.90
   0   5   5   29.18    1.72
  -1  -5  -5    2.49    0.78
   1   5   5    1.94    0.73
  -2  -5  -5    1.01    0.73
  -2  -5  -5    1.71    0.79
   2   5   5    1.26    0.69
  -3  -5  -5    1.88    0.87
  -3  -5  -5    3.10    0.70
  -3  -5  -5    1.42    0.85
   3   5   5    3.96    0.71
  -4  -5  -5   11.09    0.86
  -4  -5  -5   10.44    1.24
  -4  -5  -5    9.11    1.18
   4   5   5   13.46    0.96
  -5  -5  -5   16.79    1.54
  -5  -5  -5   16.47    1.48
   5   5   5   20.01    1.19
  -6  -5  -5   30.75    2.01
  -6  -5  -5   29.38    1.96
  -7  -5  -5    1.03    1.05
  -7  -5  -5   -0.39    1.01
  -8  -5  -5    4.97    1.25
  -8  -5  -5    4.40    1.32
  -9  -5  -5   12.71    1.70
  -9  -5  -5    8.85    1.47
 -10  -5  -5   22.79    2.18
 -10  -5  -5   24.69    2.27
 -11  -5  -5   -0.50    1.32
 -11  -5  -5    1.20    1.37
 -12  -5  -5   18.96    2.22
 -12  -5  -5   20.09    2.29
 -13  -5  -5    2.57    1.48
 -13  -5  -5    1.70    1.53
 -14  -5  -5   -0.35    1.50
 -14  -5  -5   -0.70    1.51
 -15  -5  -5   19.57    2.43
 -15  -5  -5   20.52    2.57
  20  -6  -5    9.65    1.90
  19  -6  -5    3.33    1.49
  18  -6  -5    3.76    1.53
  17  -6  -5    2.76    1.34
  16  -6  -5   15.42    1.79
  15  -6  -5    2.59    1.20
  14  -6  -5    5.09    1.31
  13  -6  -5   24.81    2.01
 -13   6   5   30.50    2.08
 -12   6   5    3.14    0.93
 -12   6   5    1.88    1.05
  11  -6  -5   31.07    1.53
 -11   6   5   29.07    1.66
 -11   6   5   31.42    1.95
  10  -6  -5    0.52    0.50
  10  -6  -5    0.20    0.50
 -10   6   5    1.51    0.71
 -10   6   5   -0.06    1.16
 -10   6   5   -0.26    0.76
   9  -6  -5   24.42    1.23
  -9   6   5   27.34    2.21
  -9   6   5   22.04    1.33
  -9   6   5   28.19    1.76
   8  -6  -5   10.42    0.80
  -8   6   5    9.20    0.89
  -8   6   5   11.62    1.22
  -8   6   5   10.75    1.45
   7  -6  -5  220.09    6.07
  -7   6   5  215.27    5.97
  -7   6   5  210.24    6.87
  -7   6   5  221.86    6.33
  -6   6   5  107.24    3.92
  -6   6   5   99.32    3.41
  -6   6   5  102.07    3.15
  -5   6   5    1.40    0.93
  -5   6   5    2.74    0.69
  -5   6   5    0.53    0.77
  -4   6   5   52.94    2.26
  -4   6   5   50.36    2.48
  -3   6   5    3.23    0.93
  -3   6   5    2.85    0.94
  -2   6   5    0.79    0.85
  -2   6   5   -0.78    0.84
  -1   6   5   20.01    1.58
   0  -6  -5   95.13    3.08
   0   6   5   92.16    3.28
  -1  -6  -5   47.26    2.19
  -1  -6  -5   46.08    2.09
  -1  -6  -5   44.42    1.98
   1   6   5   48.58    2.11
  -2  -6  -5   28.38    1.66
  -2  -6  -5   30.89    1.70
  -2  -6  -5   32.19    1.74
   2   6   5   29.01    1.65
  -3  -6  -5   15.23    1.10
  -3  -6  -5   13.86    1.30
  -3  -6  -5   13.70    1.31
   3   6   5   14.58    1.08
  -4  -6  -5   10.08    1.27
  -4  -6  -5   14.61    1.42
   4   6   5   13.34    1.01
  -5  -6  -5    5.06    1.04
  -5  -6  -5    4.93    1.11
   5   6   5    4.99    0.72
  -6  -6  -5    2.68    1.10
  -6  -6  -5    3.69    1.15
   6   6   5    4.41    0.64
  -7  -6  -5    2.97    1.21
  -7  -6  -5    1.94    1.08
  -8  -6  -5    6.10    1.47
  -8  -6  -5    8.26    1.53
  -9  -6  -5    0.66    1.25
  -9  -6  -5    3.14    1.38
 -10  -6  -5   -0.38    1.27
 -10  -6  -5    0.87    1.37
 -11  -6  -5    3.16    1.49
 -11  -6  -5    3.16    1.45
 -12  -6  -5    3.44    1.64
 -12  -6  -5    3.03    1.54
 -13  -6  -5    0.42    1.48
 -13  -6  -5   -0.33    1.56
 -14  -6  -5    6.12    1.92
 -14  -6  -5    8.03    2.02
  20  -7  -5    3.39    1.53
  19  -7  -5    0.38    1.35
  18  -7  -5    8.34    1.62
  17  -7  -5    1.55    1.28
  16  -7  -5    3.14    1.28
  15  -7  -5    0.84    1.12
  14  -7  -5    0.62    1.05
 -13   7   5    3.74    1.08
  12  -7  -5    0.28    0.58
 -12   7   5    0.94    1.33
 -12   7   5    1.53    1.00
 -12   7   5    1.13    0.79
  11  -7  -5   45.50    1.79
  11  -7  -5   44.13    1.85
 -11   7   5   46.00    1.99
 -11   7   5   50.55    2.92
 -11   7   5   50.10    2.37
  10  -7  -5   47.43    1.75
 -10   7   5   47.88    2.80
 -10   7   5   45.38    1.86
 -10   7   5   49.85    2.28
   9  -7  -5   20.28    1.08
  -9   7   5   20.14    1.83
  -9   7   5   18.11    1.41
  -9   7   5   20.45    1.23
   8  -7  -5  113.94    3.19
   8  -7  -5  110.30    3.45
  -8   7   5  109.39    3.35
  -8   7   5  112.65    3.69
  -8   7   5  112.95    4.26
   7  -7  -5    3.37    0.65
  -7   7   5    2.86    0.88
  -7   7   5    3.61    1.11
  -7   7   5    3.42    0.64
  -6   7   5   52.61    1.87
  -6   7   5   51.10    2.23
  -6   7   5   49.02    2.58
  -5   7   5    2.60    0.84
  -5   7   5    2.23    0.97
  -4   7   5   20.02    1.53
  -4   7   5   25.73    1.87
  -3   7   5    9.58    1.20
  -3   7   5   10.74    1.22
  -2   7   5   13.56    1.39
  -2   7   5   12.02    1.25
   1  -7  -5  213.02    5.85
  -1   7   5  204.05    6.35
   0  -7  -5    2.27    0.79
   0  -7  -5    3.88    0.85
   0   7   5    3.37    0.88
  -1  -7  -5    2.15    0.82
  -1  -7  -5    2.32    0.82
   1   7   5    2.56    0.81
  -2  -7  -5   10.17    1.17
  -2  -7  -5   12.71    1.11
  -2  -7  -5   11.42    1.18
   2   7   5    9.50    1.04
  -3  -7  -5  102.09    3.67
  -3  -7  -5  107.86    3.69
  -3  -7  -5  103.30    3.59
   3   7   5  108.33    3.53
  -4  -7  -5   25.06    1.82
  -4  -7  -5   28.26    1.88
   4   7   5   29.31    1.59
  -5  -7  -5    2.77    1.03
  -5  -7  -5    4.46    1.14
   5   7   5    4.44    0.77
  -6  -7  -5   23.60    1.95
  -6  -7  -5   27.25    2.03
   6   7   5   25.46    1.39
  -7  -7  -5    0.99    1.05
  -7  -7  -5    1.83    1.21
   7   7   5    1.42    0.55
  -8  -7  -5    5.23    1.35
  -8  -7  -5    5.18    1.45
  -9  -7  -5   -0.36    1.28
  -9  -7  -5   -0.27    1.29
 -10  -7  -5    8.68    1.79
 -10  -7  -5    8.05    1.75
 -11  -7  -5    2.40    1.52
 -11  -7  -5    0.37    1.44
 -12  -7  -5    6.72    1.87
 -12  -7  -5    4.56    1.76
 -13  -7  -5    3.97    1.82
 -13  -7  -5   10.96    2.08
  20  -8  -5    3.62    1.54
  19  -8  -5   -0.36    1.23
  18  -8  -5    4.46    1.43
  17  -8  -5   -0.03    1.17
  16  -8  -5   17.31    1.85
  15  -8  -5    3.32    1.20
 -14   8   5    8.27    1.39
 -14   8   5    7.72    1.88
  13  -8  -5    6.04    0.80
 -13   8   5    5.25    1.63
 -13   8   5    6.10    1.27
  12  -8  -5   17.82    1.21
  12  -8  -5   18.22    1.15
 -12   8   5   18.37    1.65
 -12   8   5   17.57    2.03
  11  -8  -5    0.13    0.51
 -11   8   5   -0.70    0.84
 -11   8   5    0.29    0.63
 -11   8   5    0.70    1.19
  10  -8  -5    4.03    0.60
 -10   8   5    4.28    0.73
 -10   8   5    4.92    1.29
 -10   8   5    1.70    0.93
   9  -8  -5   10.89    0.95
   9  -8  -5   12.67    0.82
  -9   8   5   10.68    1.22
  -9   8   5   11.43    1.55
  -9   8   5   11.16    0.88
   8  -8  -5   37.57    1.32
   8  -8  -5   38.70    1.63
  -8   8   5   40.04    1.97
  -8   8   5   38.91    1.53
  -8   8   5   38.11    2.40
   7  -8  -5    2.28    0.59
  -7   8   5    1.66    1.07
  -7   8   5    1.70    0.82
  -7   8   5    2.41    0.58
  -6   8   5   31.14    1.77
  -6   8   5   33.13    2.20
  -6   8   5   32.91    1.42
  -5   8   5    3.23    1.05
  -5   8   5    2.62    0.90
  -4   8   5    3.25    1.00
  -4   8   5    3.27    0.95
   3  -8  -5    0.35    0.57
  -3   8   5    0.42    0.86
  -3   8   5    1.20    0.86
   2  -8  -5    9.94    0.93
  -2   8   5    9.99    1.32
  -2   8   5    8.92    1.17
   1  -8  -5  107.74    3.38
   1  -8  -5  102.04    3.32
  -1   8   5  107.80    3.76
   0  -8  -5   41.09    1.85
   0  -8  -5   38.51    1.79
   0   8   5   35.71    1.98
  -1  -8  -5   27.16    1.62
  -1  -8  -5   29.91    1.65
   1   8   5   26.31    1.76
  -2  -8  -5   71.65    2.75
  -2  -8  -5   68.97    2.75
   2   8   5   70.95    2.74
  -3  -8  -5    0.95    0.92
  -3  -8  -5   -0.11    0.87
   3   8   5    0.91    0.74
  -4  -8  -5    0.64    1.01
  -4  -8  -5   -0.30    0.86
   4   8   5    0.85    0.73
  -5  -8  -5    5.11    1.23
  -5  -8  -5    3.31    1.24
   5   8   5    3.46    0.81
  -6  -8  -5    4.25    1.30
  -6  -8  -5    3.34    1.29
   6   8   5    5.17    0.81
  -7  -8  -5    3.46    1.35
  -7  -8  -5    0.78    1.23
  -8  -8  -5   15.24    1.91
  -8  -8  -5   18.63    2.06
  -9  -8  -5   24.33    2.33
  -9  -8  -5   22.93    2.30
 -10  -8  -5   -0.65    1.24
 -10  -8  -5   -0.84    1.33
 -11  -8  -5    4.81    1.72
 -11  -8  -5    4.69    1.75
 -12  -8  -5   -0.20    1.56
 -12  -8  -5   -0.78    1.54
  21  -9  -5   -0.65    1.32
  20  -9  -5    3.88    1.52
  19  -9  -5   -0.26    1.26
  18  -9  -5    6.38    1.55
  17  -9  -5   24.24    2.11
  16  -9  -5   -0.13    1.09
 -15   9   5    1.85    1.56
 -14   9   5   12.95    2.02
 -14   9   5   13.47    1.55
  13  -9  -5   72.95    2.62
  13  -9  -5   76.66    2.49
 -13   9   5   83.03    3.89
 -13   9   5   77.47    3.14
  12  -9  -5   11.81    0.85
 -12   9   5   13.35    1.39
 -12   9   5    9.94    1.74
  11  -9  -5   15.77    0.93
 -11   9   5   14.30    1.09
 -11   9   5   16.02    1.87
 -11   9   5   16.15    1.47
  10  -9  -5   80.33    2.34
 -10   9   5   80.58    3.66
 -10   9   5   80.59    2.54
 -10   9   5   83.53    3.08
   9  -9  -5    2.95    0.41
   9  -9  -5    2.42    0.61
  -9   9   5    1.50    0.54
  -9   9   5    2.87    0.92
  -9   9   5    0.84    1.13
   8  -9  -5   26.47    1.30
   8  -9  -5   26.66    0.94
  -8   9   5   28.51    1.22
  -8   9   5   26.78    1.71
  -8   9   5   26.30    2.17
   7  -9  -5   11.77    0.94
  -7   9   5   11.28    0.82
  -7   9   5    9.49    1.41
  -7   9   5   12.06    1.22
   6  -9  -5   14.83    0.78
  -6   9   5   16.42    1.63
  -6   9   5   12.61    1.30
   5  -9  -5    9.40    0.70
  -5   9   5    9.65    1.16
  -5   9   5   13.91    1.50
   4  -9  -5   33.02    1.35
  -4   9   5   32.88    2.18
  -4   9   5   34.62    1.92
   3  -9  -5   20.69    1.15
  -3   9   5   22.40    1.72
  -3   9   5   20.28    1.64
   2  -9  -5   17.82    1.23
   2  -9  -5   19.35    1.28
  -2   9   5   18.86    1.59
   1  -9  -5    9.29    1.01
   1  -9  -5   11.81    1.08
  -1   9   5   11.55    1.29
   0  -9  -5    3.02    0.79
   0  -9  -5    2.98    0.87
   0   9   5    2.26    0.93
  -1  -9  -5   27.01    1.66
  -1  -9  -5   27.59    1.73
   1   9   5   24.17    1.78
  -2  -9  -5    8.54    1.20
  -2  -9  -5    8.49    1.18
   2   9   5    8.30    1.12
  -3  -9  -5    0.69    0.97
  -3  -9  -5    0.60    0.88
   3   9   5    1.35    0.85
  -4  -9  -5    4.26    1.20
  -4  -9  -5    4.72    1.19
   4   9   5    4.45    0.93
  -5  -9  -5    0.11    1.10
  -5  -9  -5    1.18    1.15
   5   9   5    1.07    0.77
  -6  -9  -5    0.42    1.15
  -6  -9  -5    0.43    1.22
   6   9   5    1.51    0.75
  -7  -9  -5    4.50    1.33
  -7  -9  -5    2.91    1.42
  -8  -9  -5    1.60    1.42
  -8  -9  -5    1.75    1.38
  -9  -9  -5    6.40    1.68
  -9  -9  -5    6.26    1.73
 -10  -9  -5   -1.48    1.37
 -10  -9  -5   -0.68    1.42
 -11  -9  -5    2.07    1.74
 -11  -9  -5    3.28    1.55
 -12  -9  -5    2.42    1.70
 -12  -9  -5   -0.49    1.56
  21 -10  -5    2.19    1.42
  20 -10  -5    0.32    1.36
  19 -10  -5   -0.60    1.24
  18 -10  -5   -0.46    1.19
  17 -10  -5    9.54    1.60
  16 -10  -5    5.26    1.38
 -16  10   5    3.16    1.74
 -15  10   5   26.09    2.06
 -15  10   5   27.33    2.63
 -14  10   5   22.84    1.89
 -14  10   5   20.80    2.32
 -13  10   5   12.48    1.42
 -13  10   5   15.13    1.99
  12 -10  -5    1.04    0.47
 -12  10   5    3.06    1.06
 -12  10   5    1.29    1.38
  11 -10  -5    0.24    0.37
 -11  10   5   -0.01    1.19
 -11  10   5    0.80    0.92
 -11  10   5    0.43    0.53
  10 -10  -5   87.27    2.72
 -10  10   5   77.79    3.07
 -10  10   5   80.72    3.71
 -10  10   5   84.60    2.52
   9 -10  -5   25.90    1.28
  -9  10   5   29.14    2.23
  -9  10   5   29.48    1.75
  -9  10   5   25.31    1.13
   8 -10  -5   74.90    2.31
  -8  10   5   75.43    3.39
  -8  10   5   70.04    2.21
  -8  10   5   72.39    2.87
   7 -10  -5  109.42    3.16
  -7  10   5  109.73    4.27
  -7  10   5  110.42    3.74
  -7  10   5  111.27    3.19
   6 -10  -5   12.72    0.72
  -6  10   5   16.40    1.64
  -6  10   5   14.66    1.35
   5 -10  -5   17.38    0.97
  -5  10   5   22.66    1.83
  -5  10   5   20.91    1.60
   4 -10  -5    0.14    0.51
   4 -10  -5    0.93    0.53
  -4  10   5   -0.27    0.94
  -4  10   5    0.27    0.85
   3 -10  -5   49.13    1.80
   3 -10  -5   44.58    1.79
  -3  10   5   46.12    2.45
  -3  10   5   46.70    2.38
   2 -10  -5    3.05    0.69
   2 -10  -5    3.27    0.76
  -2  10   5    3.10    1.08
   1 -10  -5   77.13    2.70
   1 -10  -5   77.06    2.75
  -1  10   5   77.20    3.14
   0 -10  -5   81.79    3.00
   0 -10  -5   81.97    2.90
   0  10   5   83.27    3.27
  -1 -10  -5    3.96    0.95
  -1 -10  -5    7.48    1.14
   1  10   5    5.56    1.10
  -2 -10  -5   33.16    2.02
  -2 -10  -5   39.97    2.22
   2  10   5   33.86    2.10
  -3 -10  -5    5.86    1.20
  -3 -10  -5    5.53    1.25
   3  10   5    7.34    1.13
  -4 -10  -5    0.43    1.06
  -4 -10  -5    0.87    1.09
   4  10   5    0.73    0.88
  -5 -10  -5    0.67    1.18
  -5 -10  -5   -0.91    1.10
   5  10   5   -0.38    0.80
  -6 -10  -5   17.23    1.95
  -6 -10  -5   21.39    2.04
  -7 -10  -5    3.40    1.50
  -7 -10  -5    4.00    1.48
  -8 -10  -5    2.92    1.53
  -8 -10  -5    1.71    1.50
  -9 -10  -5    2.54    1.50
  -9 -10  -5   -0.51    1.40
 -10 -10  -5    0.68    1.53
 -10 -10  -5   -0.94    1.25
 -11 -10  -5   -0.30    1.36
 -11 -10  -5    1.19    1.65
  21 -11  -5    1.15    1.30
  20 -11  -5    3.81    1.42
  19 -11  -5    5.15    1.48
  18 -11  -5    2.47    1.32
 -18  11   5   -0.84    1.71
  17 -11  -5    6.40    1.47
 -17  11   5    4.38    1.90
 -16  11   5    2.65    1.71
 -15  11   5    3.53    1.23
 -15  11   5    5.42    1.71
 -14  11   5   23.99    1.87
 -14  11   5   22.54    2.39
 -13  11   5    0.47    1.02
 -13  11   5    1.50    1.45
 -12  11   5   -0.47    1.31
 -12  11   5   -0.74    0.95
  11 -11  -5   14.69    1.01
 -11  11   5   13.93    1.89
 -11  11   5   12.99    1.35
  10 -11  -5    5.36    0.66
 -10  11   5    4.63    0.51
 -10  11   5    6.29    1.47
 -10  11   5    4.72    1.03
   9 -11  -5    8.50    0.67
  -9  11   5    7.70    0.57
  -9  11   5    8.03    1.50
  -9  11   5    6.57    1.07
   8 -11  -5   -0.42    0.38
  -8  11   5    1.10    0.83
  -8  11   5    0.54    0.42
  -8  11   5   -0.72    1.10
   7 -11  -5   26.73    1.09
  -7  11   5   29.57    1.25
  -7  11   5   31.69    1.80
  -7  11   5   30.84    2.28
   6 -11  -5    3.53    0.47
   6 -11  -5    5.14    0.54
  -6  11   5    5.15    1.09
  -6  11   5    5.66    1.34
   5 -11  -5   27.08    1.20
   5 -11  -5   29.12    1.18
  -5  11   5   31.37    1.89
  -5  11   5   26.34    2.15
   4 -11  -5   42.27    1.60
   4 -11  -5   43.12    1.70
  -4  11   5   41.67    2.47
  -4  11   5   43.99    2.24
   3 -11  -5   -0.40    0.62
   3 -11  -5    0.83    0.57
  -3  11   5   -0.17    0.96
  -3  11   5    0.52    1.00
   2 -11  -5   14.23    1.08
   2 -11  -5   15.12    1.21
  -2  11   5   14.69    1.57
   1 -11  -5    1.18    0.83
   1 -11  -5    1.91    0.75
  -1  11   5    0.33    1.00
   0 -11  -5   15.54    1.43
   0 -11  -5   13.84    1.26
   0  11   5   13.28    1.47
  -1 -11  -5    0.94    0.96
  -1 -11  -5    0.80    0.92
   1  11   5    0.50    0.99
  -2 -11  -5   25.27    1.91
  -2 -11  -5   28.21    1.91
   2  11   5   23.59    1.78
  -3 -11  -5   24.87    2.02
  -3 -11  -5   23.31    1.92
   3  11   5   26.92    1.94
  -4 -11  -5   19.94    1.96
  -4 -11  -5   21.77    1.88
   4  11   5   21.22    1.78
  -5 -11  -5   22.63    2.04
  -5 -11  -5   18.14    1.97
   5  11   5   24.31    1.82
  -6 -11  -5    0.68    1.32
  -6 -11  -5    1.08    1.33
  -7 -11  -5    9.24    1.75
  -7 -11  -5    4.59    1.55
  -8 -11  -5    3.60    1.55
  -8 -11  -5    0.13    1.49
  -9 -11  -5    5.50    1.69
  -9 -11  -5    3.17    1.63
 -10 -11  -5    2.83    1.63
 -10 -11  -5   -0.50    1.57
  21 -12  -5    3.63    1.50
  20 -12  -5   -1.81    1.14
  19 -12  -5    4.82    1.40
 -19  12   5    5.55    2.05
  18 -12  -5    1.86    1.23
 -18  12   5    2.49    1.92
 -17  12   5   19.97    2.53
 -16  12   5    1.46    1.70
 -15  12   5    3.04    1.17
 -15  12   5    4.36    1.75
 -14  12   5   28.99    1.95
 -14  12   5   26.22    2.55
 -13  12   5    8.77    1.32
 -13  12   5    9.00    1.80
 -12  12   5    1.80    0.98
 -12  12   5    3.31    1.50
 -11  12   5   -1.26    1.26
 -11  12   5   -1.13    0.85
  10 -12  -5   33.60    1.29
 -10  12   5   35.13    1.91
 -10  12   5   34.79    2.62
   9 -12  -5    0.83    0.35
  -9  12   5    0.00    1.21
  -9  12   5    0.59    0.29
  -9  12   5    2.09    0.96
  -8  12   5    0.00    0.81
  -8  12   5   -0.09    0.38
  -8  12   5    0.21    1.21
  -7  12   5    6.14    1.10
  -7  12   5    5.36    1.39
   6 -12  -5    2.85    0.49
   6 -12  -5    3.11    0.35
   6 -12  -5    3.34    0.36
  -6  12   5    4.04    1.30
  -6  12   5    3.89    1.07
   5 -12  -5    0.82    0.55
   5 -12  -5    0.53    0.41
  -5  12   5    1.47    0.99
   4 -12  -5   16.40    1.13
   4 -12  -5   16.37    1.01
  -4  12   5   17.36    1.60
  -4  12   5   16.26    1.72
   3 -12  -5    8.10    0.98
   3 -12  -5   10.20    0.88
  -3  12   5   10.33    1.51
  -3  12   5   11.33    1.47
   2 -12  -5    0.60    0.79
   2 -12  -5    0.86    0.71
  -2  12   5    2.89    1.19
   1 -12  -5    0.11    0.85
   1 -12  -5    1.34    0.79
  -1  12   5   -0.46    1.01
   0 -12  -5    1.03    1.00
   0 -12  -5    0.73    0.86
   0  12   5    1.18    1.07
  -1 -12  -5   18.48    1.54
  -1 -12  -5   15.64    1.60
   1  12   5   12.65    1.49
  -2 -12  -5   -1.24    1.08
  -2 -12  -5    1.89    1.02
   2  12   5    3.80    1.14
  -3 -12  -5    1.39    1.11
  -3 -12  -5    1.85    1.21
   3  12   5    0.56    1.03
  -4 -12  -5   -0.68    1.12
  -4 -12  -5   -0.62    1.16
   4  12   5   -0.89    0.97
  -5 -12  -5   19.78    2.08
  -5 -12  -5   23.79    2.10
  -6 -12  -5    6.40    1.70
  -6 -12  -5    4.18    1.49
  -7 -12  -5    1.18    1.43
  -7 -12  -5    1.53    1.44
  -8 -12  -5   -1.18    1.47
  -8 -12  -5    1.69    1.53
  -9 -12  -5    1.23    1.52
  -9 -12  -5    1.30    1.66
  20 -13  -5    6.79    1.51
 -20  13   5    8.87    2.35
  19 -13  -5    0.54    1.32
 -19  13   5   -2.09    1.76
  18 -13  -5    2.52    1.26
 -18  13   5    3.30    1.89
 -17  13   5    2.15    1.73
 -16  13   5   -0.58    1.59
 -16  13   5   -0.08    1.11
 -15  13   5   -0.28    1.52
 -15  13   5   -0.61    1.02
 -14  13   5   16.22    1.57
 -14  13   5   17.40    2.19
 -13  13   5   25.10    2.44
 -13  13   5   24.88    1.89
 -12  13   5   16.91    2.09
 -12  13   5   17.82    1.60
 -11  13   5   28.08    1.82
 -11  13   5   20.55    2.20
 -10  13   5    6.48    1.14
 -10  13   5    6.32    1.60
  -9  13   5    4.03    1.44
  -9  13   5    4.27    1.05
  -8  13   5    3.83    1.43
  -8  13   5    3.31    0.43
  -8  13   5    3.40    0.98
  -7  13   5   31.16    1.94
  -7  13   5   29.44    2.33
  -6  13   5    3.04    1.32
  -6  13   5    3.01    1.08
   5 -13  -5    6.83    0.76
   5 -13  -5    5.11    0.47
  -5  13   5    6.59    1.43
  -5  13   5    6.04    1.22
   4 -13  -5   76.51    2.55
   4 -13  -5   74.58    2.33
  -4  13   5   71.72    3.11
  -4  13   5   75.90    3.45
   3 -13  -5   12.84    0.97
   3 -13  -5   14.81    1.22
  -3  13   5   11.61    1.60
  -3  13   5   11.51    1.56
   2 -13  -5    1.56    0.73
   2 -13  -5    0.68    0.85
  -2  13   5    0.01    1.11
   1 -13  -5    6.64    0.99
   1 -13  -5    7.09    1.18
  -1  13   5    8.31    1.45
   0 -13  -5   24.50    1.84
   0 -13  -5   27.09    1.77
   0  13   5   25.20    2.04
  -1 -13  -5   -0.47    1.04
  -1 -13  -5    3.01    1.02
   1  13   5   -0.74    1.07
  -2 -13  -5   -0.21    0.96
  -2 -13  -5    0.69    1.18
   2  13   5    0.34    1.13
  -3 -13  -5   -0.12    1.06
  -3 -13  -5    0.36    1.26
   3  13   5    1.98    1.13
  -4 -13  -5    6.26    1.42
  -4 -13  -5    5.70    1.56
  -5 -13  -5    2.15    1.33
  -5 -13  -5    0.32    1.32
  -6 -13  -5    0.95    1.43
  -6 -13  -5    0.30    1.36
  -7 -13  -5    3.81    1.62
  -7 -13  -5    5.52    1.59
  20 -14  -5    9.70    1.64
 -20  14   5    8.76    2.37
  19 -14  -5    0.13    1.25
 -19  14   5    1.63    1.90
 -18  14   5    0.08    1.79
 -17  14   5    2.55    1.84
 -16  14   5    3.22    1.20
 -16  14   5    2.77    1.76
 -15  14   5   13.94    2.12
 -15  14   5   13.05    1.55
 -14  14   5    4.82    1.75
 -14  14   5    3.91    1.10
 -13  14   5   -0.48    0.86
 -13  14   5    1.46    1.59
 -12  14   5    2.34    1.50
 -12  14   5    2.38    0.99
 -11  14   5   26.54    1.84
 -11  14   5   26.36    2.46
 -10  14   5    0.54    0.93
 -10  14   5    0.35    1.37
  -9  14   5    2.68    1.01
  -9  14   5    1.96    1.36
  -8  14   5    3.18    1.47
  -8  14   5    6.01    1.14
  -7  14   5    2.01    1.41
  -7  14   5    0.66    0.89
  -6  14   5    8.96    1.63
  -6  14   5    8.91    1.34
   5 -14  -5   13.10    1.00
  -5  14   5   10.65    1.72
  -5  14   5   13.61    1.54
   4 -14  -5   17.94    1.37
  -4  14   5   17.38    1.89
  -4  14   5   17.76    1.75
   3 -14  -5   21.17    1.29
   3 -14  -5   24.16    1.53
  -3  14   5   23.97    2.03
  -3  14   5   24.74    2.16
   2 -14  -5   26.94    1.56
   2 -14  -5   26.15    1.76
  -2  14   5   30.59    2.32
   1 -14  -5   15.62    1.34
   1 -14  -5   14.76    1.47
  -1  14   5   16.09    1.81
   0 -14  -5    4.17    1.05
   0 -14  -5    6.49    1.27
   0  14   5    4.92    1.36
  -1 -14  -5    0.58    1.10
  -1 -14  -5    1.93    1.02
   1  14   5    0.07    1.17
  -2 -14  -5    0.52    1.08
  -2 -14  -5   -0.60    1.08
   2  14   5    1.06    1.19
  -3 -14  -5    6.50    1.35
  -3 -14  -5    6.36    1.48
   3  14   5    6.99    1.39
  -4 -14  -5    1.21    1.30
  -4 -14  -5    0.82    1.21
  -5 -14  -5    6.17    1.61
  -5 -14  -5    4.80    1.46
  -6 -14  -5    9.54    1.84
  -6 -14  -5    4.32    1.60
 -20  15   5   17.30    2.73
  19 -15  -5    2.21    1.37
 -19  15   5    2.03    1.97
 -18  15   5    2.17    1.88
 -17  15   5    0.83    1.79
 -16  15   5    5.50    1.29
 -16  15   5    1.81    1.77
 -15  15   5    3.33    1.79
 -15  15   5    0.67    1.02
 -14  15   5    1.36    1.64
 -14  15   5    2.06    1.03
 -13  15   5    0.73    1.53
 -13  15   5   -0.70    0.90
 -12  15   5   -0.88    0.88
 -12  15   5    0.65    1.49
 -11  15   5   19.15    2.22
 -11  15   5   22.50    1.73
 -10  15   5    0.28    0.88
 -10  15   5   -1.28    1.38
  -9  15   5    2.05    0.95
  -9  15   5    0.99    1.46
  -8  15   5    4.10    1.05
  -8  15   5    3.28    1.52
  -7  15   5    6.32    1.59
  -7  15   5    5.95    1.19
  -6  15   5    1.70    1.40
  -6  15   5    1.33    1.05
  -5  15   5   23.05    1.86
  -5  15   5   20.27    2.12
   4 -15  -5    4.82    0.91
  -4  15   5    3.28    1.52
  -4  15   5    0.85    1.20
   3 -15  -5    6.47    1.10
  -3  15   5    4.04    1.41
  -3  15   5    3.18    1.45
   2 -15  -5   -0.09    0.95
  -2  15   5   -2.26    1.23
   1 -15  -5    8.93    1.36
  -1  15   5   13.69    1.79
   0 -15  -5    1.12    1.10
   0  15   5   -0.45    1.24
  -1 -15  -5    2.44    1.16
   1  15   5    3.70    1.37
  -2 -15  -5    7.69    1.53
   2  15   5    6.53    1.48
  -3 -15  -5   -1.54    1.19
  -4 -15  -5    9.16    1.85
  -5 -15  -5    2.09    1.45
 -19  16   5    7.48    2.28
 -18  16   5   16.86    2.54
 -17  16   5   10.71    2.26
 -16  16   5    2.89    1.12
 -16  16   5    2.14    1.82
 -15  16   5    2.28    1.04
 -15  16   5   -0.17    1.62
 -14  16   5    1.32    1.04
 -14  16   5    1.46    1.75
 -13  16   5    0.26    0.96
 -13  16   5    1.59    1.63
 -12  16   5    0.26    1.52
 -12  16   5   -0.02    0.91
 -11  16   5   25.45    1.85
 -11  16   5   25.51    2.60
 -10  16   5   21.83    1.71
 -10  16   5   23.19    2.42
  -9  16   5    6.43    1.17
  -9  16   5    5.48    1.72
  -8  16   5   14.83    2.05
  -8  16   5   14.64    1.51
  -7  16   5   -0.71    0.93
  -7  16   5    0.34    1.40
  -6  16   5    4.37    1.61
  -6  16   5    5.06    1.24
  -5  16   5    1.76    1.11
  -5  16   5    0.44    1.45
  -4  16   5    2.60    1.54
  -4  16   5   -0.22    1.14
  -3  16   5    0.46    1.41
  -3  16   5   -0.46    1.20
   2 -16  -5    1.70    1.07
  -2  16   5    1.67    1.50
   1 -16  -5    8.07    1.33
  -1  16   5    3.76    1.50
   0 -16  -5    2.13    1.25
   0  16   5    4.12    1.46
  -1 -16  -5    2.73    1.37
   1  16   5    5.75    1.52
  -2 -16  -5   -3.30    1.17
  -3 -16  -5    6.12    1.62
 -19  17   5    0.58    1.94
 -18  17   5    2.42    1.97
 -17  17   5    9.31    2.27
 -16  17   5    2.80    1.91
 -15  17   5    6.40    2.05
 -14  17   5    2.84    1.82
 -13  17   5    5.38    1.79
 -12  17   5   21.30    2.49
 -11  17   5    3.06    1.74
 -11  17   5    1.75    0.96
 -10  17   5    1.21    1.00
 -10  17   5    3.06    1.75
  -9  17   5    2.09    1.03
  -9  17   5    0.70    1.58
  -8  17   5   25.13    1.91
  -8  17   5   31.03    2.68
  -7  17   5    9.87    1.42
  -7  17   5   10.74    1.95
  -6  17   5    5.53    1.68
  -6  17   5    3.85    1.21
  -5  17   5   18.84    1.80
  -5  17   5   24.30    2.41
  -4  17   5   -2.25    1.40
  -4  17   5    0.86    1.20
  -3  17   5   -0.61    1.24
  -3  17   5    0.91    1.52
  -2  17   5    1.95    1.53
  -1  17   5   15.01    1.99
   0  17   5   10.01    1.79
 -18  18   5   -2.13    1.83
 -17  18   5    4.16    2.08
 -16  18   5    3.13    1.98
 -15  18   5    1.23    1.84
 -14  18   5    2.12    1.78
 -13  18   5   -0.87    1.66
 -12  18   5    6.23    1.95
 -11  18   5    6.69    1.96
 -10  18   5    2.37    1.76
  -9  18   5    9.41    1.99
  -8  18   5    0.75    1.61
  -7  18   5    2.86    1.72
  -6  18   5    4.30    1.82
  -5  18   5    2.92    1.70
  -4  18   5   -0.03    1.59
  -4  18   5    0.90    1.23
  -3  18   5    1.46    1.35
  -3  18   5   -1.24    1.54
  -2  18   5   13.11    2.10
  -1  18   5   -0.40    1.58
   0  18   5   -0.36    1.54
 -17  19   5   10.76    2.42
 -16  19   5    3.79    2.09
 -15  19   5    4.32    2.00
 -14  19   5    4.52    1.98
 -13  19   5    4.40    1.95
 -12  19   5    1.16    1.84
 -11  19   5   -1.41    1.68
 -10  19   5    2.13    1.85
  -9  19   5    0.49    1.70
  -8  19   5    5.46    1.86
  -7  19   5    4.98    1.84
  -6  19   5   -2.45    1.60
  -5  19   5   -0.92    1.63
  -4  19   5    2.47    1.77
  -3  19   5    8.27    1.92
  -2  19   5    1.42    1.66
 -15  20   5   -0.36    1.83
 -14  20   5    8.38    2.24
 -13  20   5    2.50    1.90
 -12  20   5   -0.28    1.91
 -11  20   5    3.14    2.03
 -10  20   5   -0.81    1.78
  -9  20   5    6.21    1.98
  -8  20   5    0.14    1.82
  -7  20   5    7.58    2.03
  -6  20   5    7.92    2.03
  -5  20   5   18.09    2.44
 -12  21   5   -1.27    1.83
 -11  21   5    1.67    2.03
 -10  21   5   -1.43    1.85
  -6  20  -6    2.87    2.04
  -7  20  -6    0.46    1.88
  -8  20  -6   -0.63    1.80
  -9  20  -6    3.40    1.96
 -10  20  -6    1.81    1.88
 -11  20  -6   -0.41    1.85
 -12  20  -6    2.33    1.97
 -13  20  -6    0.50    1.90
 -14  20  -6    3.28    2.11
  -3  19  -6    1.97    2.00
  -4  19  -6   -1.75    1.80
   4 -19   6    2.43    1.42
  -5  19  -6    1.47    1.78
  -6  19  -6    0.19    1.78
  -7  19  -6    2.51    1.85
  -8  19  -6   -0.53    1.77
  -9  19  -6    2.43    1.79
 -10  19  -6    3.71    1.90
 -11  19  -6    2.93    1.84
 -12  19  -6   -1.29    1.81
 -13  19  -6   -0.39    1.76
 -14  19  -6    0.93    1.84
 -15  19  -6    3.25    2.06
 -16  19  -6   -0.80    1.95
   2 -18   6    2.53    1.46
   3 -18   6    2.89    1.34
   4 -18   6    0.85    1.22
  -5  18  -6    0.83    1.73
   5 -18   6    4.11    1.35
  -6  18  -6    4.69    1.92
   6 -18   6    8.58    1.53
  -7  18  -6    3.65    1.70
   7 -18   6    5.09    1.36
  -8  18  -6   -0.58    1.59
  -9  18  -6    0.55    1.70
 -10  18  -6    1.30    1.67
 -11  18  -6    0.84    1.74
 -12  18  -6   -2.61    1.58
 -13  18  -6    2.45    1.78
 -14  18  -6    1.04    1.71
 -15  18  -6   -1.29    1.73
 -16  18  -6    0.12    1.84
 -17  18  -6    1.62    1.95
   1 -17   6   -0.76    1.31
   2 -17   6   -0.61    1.33
   3 -17   6    2.49    1.32
   4 -17   6    4.77    1.35
   5 -17   6    3.68    1.29
   6 -17   6    1.36    1.18
  -7  17  -6    1.79    1.63
   7 -17   6    1.55    1.18
  -8  17  -6   -0.14    1.47
   8 -17   6    4.96    1.24
  -9  17  -6    0.12    1.56
   9 -17   6    0.13    1.00
 -10  17  -6    1.05    1.62
  10 -17   6    0.39    0.96
 -11  17  -6   -0.24    1.59
 -12  17  -6    5.78    1.93
 -13  17  -6    3.83    1.80
 -14  17  -6    2.06    1.67
 -15  17  -6    0.33    1.67
 -16  17  -6    4.14    1.96
 -17  17  -6    0.13    1.78
 -18  17  -6    2.35    1.83
   3  16  -6   -1.27    1.39
   2  16  -6    0.06    1.42
   1  16  -6    5.15    1.51
   0 -16   6   -0.42    1.33
   1 -16   6   -1.05    1.21
   2 -16   6   -0.33    1.20
   3 -16   6    1.40    1.28
   4 -16   6    2.56    1.27
   5 -16   6    1.09    1.07
   6 -16   6    1.70    1.09
   7 -16   6    0.56    1.06
  -8  16  -6    0.27    1.58
   8 -16   6    2.43    1.07
  -9  16  -6    1.47    1.52
   9 -16   6    0.66    0.99
 -10  16  -6   -0.41    1.54
  10 -16   6    1.83    1.05
 -11  16  -6   -0.62    1.52
  11 -16   6    2.12    1.01
 -12  16  -6    1.53    1.56
  12 -16   6    0.60    1.00
 -13  16  -6    0.96    1.61
 -14  16  -6    2.35    1.63
 -15  16  -6    0.49    1.66
 -15  16  -6    0.80    1.16
 -16  16  -6    2.48    1.29
 -16  16  -6   -2.45    1.63
 -17  16  -6    2.46    1.78
 -18  16  -6    1.36    1.80
 -19  16  -6   -0.79    1.61
   4  15  -6    0.13    1.55
   3  15  -6    1.84    1.53
   2  15  -6    0.57    1.40
  -2 -15   6    3.26    1.55
   1  15  -6    0.85    1.37
  -1 -15   6   -0.20    1.39
   0  15  -6    1.71    1.32
   0 -15   6    5.50    1.53
  -1  15  -6    0.05    1.12
   1 -15   6    3.72    1.37
  -2  15  -6    1.45    1.09
   2 -15   6    0.40    1.21
   3 -15   6    1.91    1.28
   4 -15   6    5.31    1.33
   5 -15   6    2.34    1.12
   6 -15   6    4.22    1.25
   7 -15   6    6.13    1.19
   8 -15   6    1.59    1.01
  -9  15  -6    1.16    1.55
   9 -15   6    0.35    0.95
 -10  15  -6   -0.25    1.45
  10 -15   6    1.44    0.96
 -11  15  -6    6.17    1.70
  11 -15   6    5.82    1.15
 -12  15  -6    4.15    1.61
  12 -15   6    4.85    1.09
 -13  15  -6    3.38    1.65
  13 -15   6    6.46    1.22
 -14  15  -6    0.24    1.47
  14 -15   6    1.63    1.06
 -15  15  -6    2.11    1.66
 -15  15  -6    3.15    1.29
 -16  15  -6   -2.59    1.07
 -16  15  -6   -0.20    1.59
 -17  15  -6   -1.58    1.11
 -17  15  -6   -2.33    1.61
 -18  15  -6    1.42    1.31
 -18  15  -6   -0.17    1.64
 -19  15  -6    3.10    1.41
   6  14  -6    0.91    1.60
   5  14  -6   -3.18    1.52
   4  14  -6    0.99    1.51
   3  14  -6   -0.80    1.32
  -3 -14   6    0.33    1.43
   2  14  -6    5.26    1.55
  -2 -14   6    7.88    1.72
   1  14  -6   -1.84    1.08
  -1 -14   6   -1.28    1.22
   0  14  -6    1.41    1.13
   0 -14   6    1.13    1.29
  -1  14  -6    0.23    1.10
   1 -14   6   -1.69    1.09
  -2  14  -6    0.04    1.02
   2 -14   6    0.56    1.12
  -3  14  -6    2.94    1.03
   3 -14   6    1.79    1.17
  -4  14  -6    0.63    0.86
   4 -14   6    1.76    1.10
   5 -14   6   -0.10    1.04
   6 -14   6   -1.11    0.88
   7 -14   6    6.99    1.17
   8 -14   6    1.01    0.98
  -9  14  -6    0.28    1.42
   9 -14   6    0.56    0.93
 -10  14  -6    0.19    1.40
  10 -14   6    1.45    0.99
 -11  14  -6    1.43    1.45
  11 -14   6    1.39    1.00
 -12  14  -6    1.06    1.44
  12 -14   6    0.69    1.01
 -13  14  -6    2.52    1.49
  13 -14   6    3.06    1.11
 -14  14  -6    0.87    1.43
 -15  14  -6    0.19    1.19
 -15  14  -6    1.94    1.57
 -16  14  -6    0.26    1.56
 -16  14  -6    2.38    1.23
 -17  14  -6    0.42    1.56
 -17  14  -6    2.29    1.40
 -18  14  -6   -3.40    1.40
 -18  14  -6   -1.35    1.09
 -18  14  -6    0.71    1.24
 -19  14  -6    5.03    1.54
 -19  14  -6    3.50    1.40
 -20  14  -6    0.83    1.33
   7  13  -6    5.16    1.81
   6  13  -6   -0.61    1.52
   5  13  -6   -1.96    1.37
   4  13  -6    1.51    1.43
  -4 -13   6    2.60    1.52
   3  13  -6   -0.29    1.24
  -3 -13   6    0.91    1.36
   2  13  -6    5.62    1.52
  -2 -13   6    4.79    1.46
   1  13  -6    3.30    1.26
  -1 -13   6    2.18    1.32
   0  13  -6   -0.01    1.09
   0 -13   6    0.12    1.16
  -1  13  -6    1.52    1.06
   1 -13   6    0.51    1.14
  -2  13  -6    4.30    1.10
   2 -13   6    2.85    1.18
  -3  13  -6    2.14    0.94
   3 -13   6    0.47    1.04
  -4  13  -6   -0.30    0.82
   4 -13   6    1.09    1.01
  -5  13  -6    1.18    0.75
   5 -13   6    2.19    1.03
   6 -13   6    6.12    1.20
   7 -13   6    5.11    1.09
   8 -13   6    6.06    1.13
   9 -13   6    6.96    1.18
 -10  13  -6    1.19    1.32
  10 -13   6    2.46    1.05
 -11  13  -6    0.61    1.35
  11 -13   6    1.27    0.98
 -12  13  -6    3.86    1.46
 -13  13  -6    0.33    1.36
 -14  13  -6   -0.13    1.17
 -14  13  -6    0.41    1.30
 -15  13  -6   -1.15    1.06
 -15  13  -6    1.60    1.41
 -16  13  -6    0.17    1.21
 -16  13  -6    0.89    1.46
 -17  13  -6    3.38    1.37
 -17  13  -6    2.72    1.60
 -18  13  -6    2.94    1.36
 -18  13  -6    3.06    1.59
 -18  13  -6    4.66    1.45
 -19  13  -6    0.29    1.33
 -19  13  -6   -0.03    1.30
 -20  13  -6   -0.42    1.44
 -20  13  -6   -0.79    1.28
   8  12  -6   -0.59    1.59
   7  12  -6   -0.80    1.46
   6  12  -6   -1.95    1.35
   5  12  -6    7.25    1.68
  -5 -12   6    6.19    1.69
   4  12  -6    0.03    1.34
  -4 -12   6    1.79    1.44
   3  12  -6    2.64    1.34
  -3 -12   6    2.59    1.28
   2  12  -6    0.01    1.14
  -2 -12   6   -0.27    1.21
   1  12  -6    2.89    1.20
  -1 -12   6    4.27    1.24
   0  12  -6    5.13    1.28
   0 -12   6    4.09    1.27
  -1  12  -6    8.62    1.32
   1 -12   6    8.80    1.40
  -2  12  -6    3.83    1.08
   2 -12   6    2.37    1.11
  -3  12  -6    8.14    1.10
   3 -12   6    8.82    1.33
  -4  12  -6    0.34    0.74
   4 -12   6   -0.46    0.90
  -5  12  -6    0.97    0.66
   5 -12   6   -0.07    0.89
   6 -12   6    1.81    0.96
   7 -12   6    1.12    0.95
   8 -12   6    1.37    0.96
   8 -12   6    1.52    0.33
   9 -12   6    8.86    0.59
   9 -12   6    8.37    1.19
 -10  12  -6    3.45    1.40
  10 -12   6    5.58    0.55
  10 -12   6    8.67    1.25
 -11  12  -6   -0.36    1.33
  11 -12   6    1.48    0.56
 -12  12  -6    7.06    1.51
  12 -12   6    4.68    0.78
 -13  12  -6   -0.70    1.24
 -14  12  -6    2.18    1.38
 -14  12  -6    0.95    1.16
 -15  12  -6    2.87    1.28
 -15  12  -6    1.19    1.41
 -16  12  -6    1.60    1.28
 -16  12  -6    1.53    1.43
 -17  12  -6    2.38    1.34
 -17  12  -6    4.91    1.61
 -17  12  -6    0.69    1.31
 -18  12  -6    6.67    1.74
 -18  12  -6   11.93    1.73
 -19  12  -6    0.48    1.28
 -19  12  -6    0.26    1.36
 -20  12  -6   -2.27    1.22
 -20  12  -6   -0.24    1.32
   9  11  -6    1.24    1.69
   8  11  -6   -0.11    1.56
   7  11  -6    0.17    1.50
   6  11  -6    1.72    1.46
  -6 -11   6    0.12    1.29
   5  11  -6    1.46    1.42
  -5 -11   6    2.36    1.47
   4  11  -6    6.24    1.48
  -4 -11   6    6.04    1.60
   3  11  -6    0.91    1.28
  -3 -11   6   -1.24    1.20
   2  11  -6    0.85    1.11
  -2 -11   6   -0.29    1.16
   1  11  -6    0.61    1.14
  -1 -11   6    2.12    1.12
   0  11  -6    0.52    1.03
   0 -11   6   -0.05    1.06
  -1  11  -6   31.47    1.97
   1 -11   6   31.96    2.10
  -2  11  -6    9.26    1.13
   2 -11   6    7.73    1.28
  -3  11  -6    1.83    0.84
  -3  11  -6    1.75    0.59
   3 -11   6    2.57    1.04
  -4  11  -6    0.10    0.58
  -4  11  -6    0.85    0.71
   4 -11   6    0.62    0.90
  -5  11  -6    1.22    0.63
   5 -11   6    2.07    0.93
   5 -11   6    1.83    0.52
  -6  11  -6    0.35    0.48
   6 -11   6   -0.13    0.82
   6 -11   6    0.14    0.44
   7 -11   6   -0.01    0.41
   7 -11   6    0.17    0.88
   8 -11   6    0.41    0.44
   8 -11   6    0.08    0.84
   9 -11   6    2.49    0.54
 -10  11  -6    6.00    1.45
  10 -11   6    7.92    0.80
 -11  11  -6   -0.94    1.18
  11 -11   6    1.00    0.73
 -12  11  -6   12.44    1.69
 -13  11  -6    3.80    1.41
 -14  11  -6    1.47    1.24
 -14  11  -6    1.40    1.30
 -15  11  -6    3.56    1.35
 -15  11  -6    2.94    1.43
 -16  11  -6    1.49    1.35
 -16  11  -6    0.09    1.24
 -17  11  -6    2.55    1.26
 -17  11  -6    1.43    1.34
 -17  11  -6    2.45    1.39
 -18  11  -6    5.11    1.45
 -18  11  -6    2.28    1.47
 -19  11  -6   -2.36    1.30
 -19  11  -6    0.03    1.35
 -20  11  -6    0.69    1.42
 -20  11  -6    0.31    1.45
  10  10  -6    0.46    1.69
   9  10  -6   -0.48    1.57
   8  10  -6    3.08    1.65
   7  10  -6   -0.91    1.38
   6  10  -6   -0.77    1.34
  -6 -10   6   -0.11    1.24
   5  10  -6   -0.84    1.24
  -5 -10   6    0.89    1.21
   4  10  -6   -0.02    1.19
  -4 -10   6    2.55    1.33
   3  10  -6    0.29    1.16
  -3 -10   6    1.89    1.27
   2  10  -6    7.53    1.32
  -2 -10   6    6.33    1.29
   1  10  -6    5.48    1.16
  -1 -10   6    8.12    1.39
   0  10  -6   31.92    1.97
   0 -10   6   27.77    1.90
  -1  10  -6    0.50    0.87
   1 -10   6   -0.02    0.95
  -2  10  -6    3.64    0.88
   2 -10   6    1.83    1.01
  -3  10  -6   -0.67    0.52
  -3  10  -6   -0.94    0.68
   3 -10   6    0.78    0.88
   3 -10   6    0.39    0.60
  -4  10  -6    1.41    0.66
   4 -10   6    2.71    0.96
   4 -10   6    1.91    0.59
  -5  10  -6    1.54    0.56
   5 -10   6    0.86    0.86
   5 -10   6    0.99    0.51
  -6  10  -6    3.68    0.52
   6 -10   6    3.73    0.59
   6 -10   6    1.52    0.90
   7 -10   6    0.77    0.92
   7 -10   6    1.17    0.52
   8 -10   6    1.34    0.56
   9 -10   6    8.34    0.86
  10 -10   6   34.45    1.71
 -11  10  -6   31.17    2.27
 -12  10  -6    3.34    1.28
 -13  10  -6    0.56    1.17
 -14  10  -6    3.22    1.32
 -14  10  -6    1.74    1.25
 -15  10  -6    2.54    1.30
 -15  10  -6    3.29    1.37
 -16  10  -6   -0.54    1.24
 -16  10  -6    1.44    1.22
 -16  10  -6   -0.78    1.19
 -17  10  -6    0.94    1.34
 -17  10  -6    0.23    1.34
 -18  10  -6    2.31    1.40
 -18  10  -6    2.56    1.45
 -19  10  -6   -1.62    1.23
 -19  10  -6    0.45    1.44
 -20  10  -6   -0.75    1.31
 -20  10  -6    0.34    1.53
  11   9  -6    0.63    1.72
  10   9  -6    0.59    1.63
   9   9  -6    0.37    1.53
   8   9  -6    0.06    1.50
   7   9  -6    0.65    1.26
  -7  -9   6   -0.50    1.34
   6   9  -6    0.50    1.30
  -6  -9   6    0.28    1.17
   5   9  -6    1.94    1.26
  -5  -9   6    2.68    1.32
   4   9  -6    7.50    1.42
  -4  -9   6    5.88    1.42
   3   9  -6    5.87    1.28
  -3  -9   6    8.02    1.49
   2   9  -6    1.44    1.05
  -2  -9   6    2.77    1.07
   1   9  -6    7.26    1.20
  -1  -9   6    5.65    1.24
   0   9  -6   14.62    1.37
   0  -9   6   15.67    1.50
  -1   9  -6    0.59    0.80
   1  -9   6    0.73    0.68
   1  -9   6    1.08    0.96
  -2   9  -6    1.90    0.62
  -2   9  -6    0.96    0.72
   2  -9   6    1.44    0.83
   2  -9   6    0.88    0.64
  -3   9  -6    2.89    0.69
  -3   9  -6    3.67    0.76
   3  -9   6    2.78    0.68
   3  -9   6    3.90    0.98
  -4   9  -6    1.27    0.61
   4  -9   6    1.08    0.57
   4  -9   6    1.27    0.85
  -5   9  -6   -0.30    0.48
   5  -9   6   -0.34    0.78
   5  -9   6    0.54    0.52
  -6   9  -6   10.17    0.68
   6  -9   6   10.62    1.28
   6  -9   6   10.69    0.84
  -7   9  -6    0.64    0.30
   7  -9   6    0.60    0.56
   8  -9   6    1.13    0.64
   9  -9   6   18.42    1.32
 -10   9  -6    0.27    1.05
 -11   9  -6    6.44    1.29
 -12   9  -6   10.31    1.49
 -13   9  -6   -0.21    1.13
 -13   9  -6    2.15    1.17
 -14   9  -6    0.33    1.13
 -14   9  -6    0.50    1.22
 -15   9  -6    2.25    1.29
 -15   9  -6    2.61    1.22
 -16   9  -6    0.24    1.19
 -16   9  -6    2.16    1.38
 -17   9  -6    4.82    1.53
 -17   9  -6    2.13    1.40
 -18   9  -6    1.81    1.44
 -18   9  -6   -0.18    1.22
 -19   9  -6    0.10    1.33
 -19   9  -6   -0.87    1.48
 -20   9  -6   -0.04    1.45
 -20   9  -6   -4.07    1.15
  12   8  -6   -0.75    1.66
  11   8  -6   -1.09    1.56
  10   8  -6    1.98    1.63
   9   8  -6    3.84    1.63
   8   8  -6    1.68    1.46
  -8  -8   6    1.21    1.34
   7   8  -6    1.30    1.37
  -7  -8   6    1.99    1.25
   6   8  -6    0.49    1.24
  -6  -8   6    1.66    1.15
   5   8  -6    3.54    1.34
  -5  -8   6    4.00    1.23
   4   8  -6    0.35    1.12
  -4  -8   6    0.92    1.01
   3   8  -6    1.21    1.04
  -3  -8   6    0.01    0.97
   2   8  -6    1.38    0.95
  -2  -8   6    0.46    0.99
   1   8  -6    1.27    0.88
  -1  -8   6    1.60    1.00
   0   8  -6   18.20    1.42
   0  -8   6   14.29    1.41
   0  -8   6   18.49    1.30
  -1   8  -6    2.44    0.84
   1  -8   6    2.07    0.96
   1  -8   6    3.09    0.74
  -2   8  -6   10.50    1.03
  -2   8  -6   10.55    0.93
   2  -8   6   12.18    1.32
   2  -8   6   11.21    0.99
  -3   8  -6   12.45    0.98
  -3   8  -6   11.82    0.99
   3  -8   6   12.27    1.28
   3  -8   6   11.70    0.94
  -4   8  -6   10.54    0.84
   4  -8   6    8.54    1.18
   4  -8   6    9.33    0.84
  -5   8  -6   16.81    1.00
   5  -8   6   18.64    1.11
   5  -8   6   16.28    1.44
  -6   8  -6    6.02    0.56
   6  -8   6    5.54    0.74
  -7   8  -6    1.58    0.39
   7  -8   6    1.79    0.71
  -8   8  -6   15.49    0.70
   8  -8   6   17.37    1.33
  -9   8  -6    1.48    0.34
 -10   8  -6    4.16    0.45
 -10   8  -6    2.06    1.07
 -11   8  -6    2.27    1.10
 -11   8  -6    1.47    0.45
 -12   8  -6   -0.01    1.06
 -13   8  -6    1.41    1.23
 -13   8  -6    1.30    1.10
 -14   8  -6   -0.97    1.01
 -14   8  -6    1.30    1.24
 -15   8  -6    4.20    1.38
 -15   8  -6    5.02    1.46
 -15   8  -6    5.65    1.18
 -16   8  -6    2.15    1.30
 -16   8  -6    4.52    1.49
 -17   8  -6    0.70    1.27
 -17   8  -6    0.11    1.40
 -18   8  -6    0.19    1.32
 -18   8  -6    0.95    1.44
 -19   8  -6    1.89    1.41
 -19   8  -6   -0.35    1.48
 -20   8  -6    2.25    1.62
 -20   8  -6    2.04    1.56
  13   7  -6   -0.46    1.53
  12   7  -6    0.10    1.65
  11   7  -6    3.23    1.77
  10   7  -6    1.14    1.50
   9   7  -6    0.27    1.42
  -9  -7   6    1.53    1.26
   8   7  -6    6.78    1.52
  -8  -7   6    3.58    1.34
   7   7  -6   11.27    1.68
  -7  -7   6    6.24    1.51
   6   7  -6    5.33    1.42
  -6  -7   6    7.31    1.34
   5   7  -6   -1.24    1.06
  -5  -7   6    0.99    1.04
   4   7  -6   -1.02    0.85
  -4  -7   6   -0.75    0.90
   3   7  -6    0.14    0.95
  -3  -7   6    0.27    0.88
   2   7  -6    0.00    0.86
  -2  -7   6    0.39    0.94
  -2  -7   6   -0.31    0.72
   1   7  -6    1.30    0.81
  -1  -7   6    0.73    0.89
  -1  -7   6    1.99    0.80
   0   7  -6    9.99    1.08
   0  -7   6   10.47    1.27
   0  -7   6    9.19    0.99
  -1   7  -6   29.26    1.59
   1  -7   6   28.66    1.50
   1  -7   6   31.74    1.87
  -2   7  -6    3.92    0.81
  -2   7  -6    4.30    0.71
   2  -7   6    3.90    0.89
   2  -7   6    4.09    0.74
  -3   7  -6    0.63    0.60
  -3   7  -6    1.42    0.67
   3  -7   6    0.66    0.61
   3  -7   6    0.53    0.75
  -4   7  -6    3.65    0.65
   4  -7   6    3.32    0.69
   4  -7   6    4.01    0.99
   5  -7   6   65.03    2.29
   6  -7   6    3.12    0.74
   7  -7   6   10.06    1.03
  -8   7  -6    1.56    0.45
  -9   7  -6    0.72    0.44
 -10   7  -6    0.22    0.47
 -10   7  -6   -1.34    0.87
 -11   7  -6    0.42    0.89
 -11   7  -6   -0.27    0.48
 -12   7  -6    0.66    0.95
 -12   7  -6    1.09    1.17
 -13   7  -6    6.23    1.44
 -13   7  -6    5.13    1.14
 -14   7  -6    7.41    1.51
 -14   7  -6    8.74    1.19
 -14   7  -6    7.57    1.47
 -15   7  -6    1.02    1.31
 -15   7  -6   -0.94    1.11
 -16   7  -6   -0.88    1.24
 -16   7  -6   -0.62    1.26
 -17   7  -6   -0.27    1.27
 -17   7  -6    0.56    1.41
 -18   7  -6    0.04    1.40
 -18   7  -6    0.10    1.35
 -19   7  -6   -0.16    1.48
 -19   7  -6    1.79    1.46
 -20   7  -6    0.73    1.48
 -20   7  -6    2.98    1.71
  14   6  -6    0.06    1.74
  13   6  -6    2.62    1.80
  12   6  -6   10.53    2.05
  11   6  -6   -0.32    1.47
  10   6  -6    0.16    1.26
   9   6  -6    3.29    1.55
  -9  -6   6    2.54    1.28
   8   6  -6    0.80    1.29
  -8  -6   6    0.60    1.14
   7   6  -6    2.50    1.22
  -7  -6   6    6.84    1.42
   6   6  -6    3.23    1.13
  -6  -6   6    2.73    1.19
   5   6  -6   -0.06    1.04
  -5  -6   6    0.66    1.03
   4   6  -6    4.87    1.15
  -4  -6   6    3.30    1.05
   3   6  -6   10.55    1.31
  -3  -6   6    9.61    1.17
  -3  -6   6   10.63    1.28
   2   6  -6    3.83    0.97
  -2  -6   6    4.83    1.02
  -2  -6   6    6.02    0.97
   1   6  -6    3.28    0.94
  -1  -6   6    5.01    1.05
  -1  -6   6    2.74    0.82
   0   6  -6    0.38    0.78
   0  -6   6    0.34    0.78
   0  -6   6    0.15    0.62
  -1   6  -6    7.36    0.94
   1  -6   6   11.75    1.26
   1  -6   6    8.90    0.94
  -2   6  -6   -0.74    0.60
   2  -6   6    1.35    0.65
   2  -6   6    1.84    0.81
   3  -6   6    7.41    0.84
   3  -6   6    8.37    1.13
   4  -6   6    6.10    0.81
   5  -6   6   30.37    1.54
   6  -6   6    0.76    0.73
  -8   6  -6    9.50    0.76
  -9   6  -6    3.13    0.59
 -10   6  -6    1.35    0.60
 -10   6  -6    0.46    0.88
 -11   6  -6    0.71    0.89
 -11   6  -6    1.81    0.63
 -12   6  -6    2.50    0.96
 -12   6  -6    1.22    1.14
 -13   6  -6    5.81    1.02
 -13   6  -6    6.55    1.48
 -14   6  -6    0.11    1.16
 -14   6  -6    1.50    1.30
 -14   6  -6    3.07    0.89
 -15   6  -6    1.85    1.24
 -15   6  -6   -0.54    1.17
 -16   6  -6    0.40    1.30
 -16   6  -6    0.63    1.35
 -17   6  -6    0.66    1.44
 -17   6  -6    1.81    1.40
 -18   6  -6    0.77    1.41
 -18   6  -6   -0.92    1.42
 -19   6  -6   -1.30    1.39
 -19   6  -6    0.94    1.46
 -20   6  -6    2.58    1.53
 -20   6  -6    0.85    1.62
  14   5  -6    6.01    1.93
  13   5  -6    3.91    1.61
  12   5  -6    2.88    1.65
  11   5  -6    1.51    1.51
  10   5  -6    2.39    1.48
 -10  -5   6    4.72    1.38
   9   5  -6    1.64    1.36
  -9  -5   6   -1.06    1.18
   8   5  -6    2.86    1.27
  -8  -5   6    1.36    1.11
   7   5  -6    0.59    1.18
  -7  -5   6   -0.51    0.94
   6   5  -6    0.95    1.15
  -6  -5   6    0.57    0.97
   5   5  -6    0.70    0.91
  -5  -5   6   -0.51    0.85
   4   5  -6    0.48    0.93
  -4  -5   6    1.35    0.89
  -4  -5   6    0.52    0.84
   3   5  -6   19.77    1.52
  -3  -5   6   15.13    1.36
  -3  -5   6   16.80    1.47
   2   5  -6   65.23    2.62
  -2  -5   6   65.42    2.52
  -2  -5   6   66.59    2.74
   1   5  -6   30.70    1.70
  -1  -5   6   34.92    1.86
  -1  -5   6   32.14    1.64
   0  -5   6   19.97    1.29
   0  -5   6   21.18    1.50
   1  -5   6   22.22    1.39
   1  -5   6   21.54    1.60
  -2   5  -6    0.74    0.69
   2  -5   6   -0.82    0.61
   2  -5   6   -0.29    0.73
   3  -5   6    3.08    0.71
   4  -5   6   13.34    1.13
   5  -5   6   19.10    1.39
  -8   5  -6   11.12    0.88
  -9   5  -6   -0.34    0.55
 -10   5  -6    0.40    0.61
 -10   5  -6    1.32    0.80
 -11   5  -6    0.95    0.80
 -11   5  -6    0.13    0.98
 -12   5  -6    0.67    0.81
 -12   5  -6    0.89    1.19
 -13   5  -6    8.19    1.53
 -13   5  -6    7.09    1.43
 -13   5  -6    6.46    0.91
 -14   5  -6   -1.17    1.20
 -14   5  -6   -0.04    1.19
 -15   5  -6    1.37    1.25
 -15   5  -6   -0.40    1.21
 -16   5  -6    3.72    1.43
 -16   5  -6    1.94    1.45
 -17   5  -6    3.30    1.45
 -17   5  -6    3.40    1.39
 -18   5  -6    2.62    1.63
 -18   5  -6    0.52    1.42
 -19   5  -6    1.10    1.59
 -19   5  -6   -0.34    1.29
  15   4  -6    3.97    1.84
  14   4  -6   -0.74    1.57
  13   4  -6    0.19    1.54
  12   4  -6   -0.06    1.31
  11   4  -6   -0.46    1.37
  10   4  -6    2.16    1.35
 -10  -4   6    1.35    1.26
   9   4  -6    1.48    1.31
  -9  -4   6    1.01    1.13
   8   4  -6   -0.71    1.04
  -8  -4   6   -0.45    0.97
   7   4  -6    1.51    1.16
  -7  -4   6    0.16    0.92
   6   4  -6    0.90    1.03
  -6  -4   6    0.57    0.97
  -6  -4   6    1.64    1.01
   5   4  -6    0.39    0.98
  -5  -4   6    0.10    0.89
  -5  -4   6    1.09    0.81
   4   4  -6   11.19    1.33
  -4  -4   6   11.61    1.26
  -4  -4   6    9.64    1.18
   3   4  -6    3.74    1.00
  -3  -4   6    3.57    0.98
  -3  -4   6    3.11    0.87
   2   4  -6    6.93    1.05
  -2  -4   6    4.66    0.90
  -2  -4   6    6.11    1.05
  -1  -4   6   15.14    1.31
  -1  -4   6   14.38    1.19
   0  -4   6   16.39    1.40
   0  -4   6   15.65    1.23
   1  -4   6    6.10    0.85
   1  -4   6    5.50    0.95
   2  -4   6   10.87    1.04
   3  -4   6    0.51    0.67
   4  -4   6   13.69    1.15
   5  -4   6   23.34    1.63
  -8   4  -6    9.46    0.90
 -10   4  -6    2.81    0.77
 -11   4  -6   -0.55    0.68
 -11   4  -6    0.08    1.09
 -12   4  -6    2.18    1.14
 -12   4  -6    1.65    0.69
 -12   4  -6    0.77    1.14
 -13   4  -6    5.02    1.46
 -13   4  -6    6.79    1.47
 -14   4  -6    1.08    1.25
 -14   4  -6    1.10    1.37
 -15   4  -6    2.30    1.47
 -15   4  -6    6.12    1.48
 -16   4  -6    0.93    1.23
 -16   4  -6   -0.43    1.40
 -17   4  -6    0.97    1.50
 -17   4  -6   -0.57    1.34
 -18   4  -6   -0.42    1.38
 -18   4  -6    2.48    1.41
 -19   4  -6    3.04    1.64
 -19   4  -6   -1.91    1.26
  16   3  -6   -1.68    1.70
  15   3  -6   -2.59    1.54
  14   3  -6    3.28    1.71
  13   3  -6    0.06    1.46
  12   3  -6   -1.19    1.32
  11   3  -6    2.56    1.43
 -11  -3   6    2.57    1.25
  10   3  -6    3.11    1.38
 -10  -3   6    2.52    1.30
   9   3  -6    6.44    1.50
  -9  -3   6   10.68    1.54
   8   3  -6    2.06    1.19
  -8  -3   6    2.98    1.05
   7   3  -6    0.11    1.03
  -7  -3   6   -0.01    0.90
  -7  -3   6    0.06    0.96
   6   3  -6    2.05    1.04
  -6  -3   6    2.54    1.00
  -6  -3   6    3.54    1.00
   5   3  -6   14.32    1.39
  -5  -3   6   11.26    1.28
  -5  -3   6   13.56    1.36
   4   3  -6   -1.02    0.82
  -4  -3   6    0.78    0.87
  -4  -3   6    0.04    0.79
  -3  -3   6    8.52    1.15
  -3  -3   6    6.05    0.93
  -2  -3   6    2.54    0.82
  -2  -3   6    3.54    0.77
  -1  -3   6    1.48    0.73
  -1  -3   6    1.03    0.75
   0  -3   6   20.77    1.44
   0  -3   6   23.24    1.41
   1  -3   6   34.74    1.68
   2  -3   6    0.41    0.69
   3  -3   6   22.32    1.46
   4  -3   6    6.21    1.01
 -10   3  -6    0.15    0.61
 -10   3  -6   -0.83    0.91
 -11   3  -6   -0.10    0.54
 -11   3  -6    0.08    0.99
 -11   3  -6   -0.99    0.94
 -12   3  -6    6.55    1.33
 -12   3  -6    6.45    1.35
 -13   3  -6    1.53    1.23
 -13   3  -6    0.51    1.15
 -14   3  -6    1.12    1.37
 -14   3  -6    0.84    1.15
 -15   3  -6    0.18    1.25
 -15   3  -6    2.15    1.34
 -16   3  -6    0.91    1.33
 -16   3  -6   -1.12    1.20
 -17   3  -6    0.29    1.41
 -17   3  -6    1.67    1.55
 -18   3  -6    1.05    1.69
 -18   3  -6    1.10    1.49
 -19   3  -6   -0.95    1.57
 -19   3  -6    2.40    1.64
  16   2  -6   -0.03    1.65
  15   2  -6    1.29    1.52
  14   2  -6    0.68    1.41
  13   2  -6    1.24    1.38
  12   2  -6    0.86    1.39
  11   2  -6    4.61    1.39
 -11  -2   6    2.09    1.28
  10   2  -6    4.39    1.29
 -10  -2   6    1.85    1.09
   9   2  -6    6.27    1.42
  -9  -2   6    8.43    1.39
   8   2  -6    4.58    1.28
  -8  -2   6    4.20    1.17
  -8  -2   6    2.28    1.08
   7   2  -6    1.72    1.08
  -7  -2   6   -0.12    0.82
  -7  -2   6   -0.12    0.95
   6   2  -6   11.68    1.39
  -6  -2   6   10.87    1.25
  -6  -2   6    9.55    1.19
   5   2  -6    3.44    1.03
  -5  -2   6    3.77    1.00
  -5  -2   6    4.01    0.99
  -4  -2   6    0.14    0.74
  -4  -2   6    0.03    0.79
  -3  -2   6   -0.97    0.77
  -3  -2   6   -0.61    0.67
  -2  -2   6    9.37    1.06
  -2  -2   6    8.05    1.02
  -1  -2   6    0.11    0.77
  -1  -2   6   -0.62    0.69
   0  -2   6    0.99    0.75
   0  -2   6    0.61    0.75
   1  -2   6    3.15    0.77
   2  -2   6    2.44    0.83
   3  -2   6   29.30    1.62
  -9   2  -6    0.50    0.53
  -9   2  -6    0.03    0.94
 -10   2  -6    0.96    0.47
 -10   2  -6    1.58    1.14
 -11   2  -6    2.03    1.16
 -11   2  -6    3.66    1.18
 -12   2  -6    8.05    1.53
 -12   2  -6    3.66    1.30
 -13   2  -6    1.40    1.14
 -13   2  -6   -0.29    1.21
 -14   2  -6    1.41    1.21
 -14   2  -6    1.51    1.36
 -15   2  -6    6.74    1.59
 -15   2  -6    6.14    1.63
 -16   2  -6    5.61    1.70
 -16   2  -6    4.69    1.49
 -17   2  -6    0.13    1.44
 -17   2  -6    0.79    1.55
 -18   2  -6   -0.46    1.54
 -18   2  -6   -1.08    1.41
  17   1  -6   -0.13    1.73
  16   1  -6   -0.75    1.69
  15   1  -6   -0.91    1.57
  14   1  -6    0.40    1.50
  13   1  -6    0.65    1.42
  12   1  -6    0.39    1.35
 -12  -1   6    0.34    1.25
  11   1  -6   10.16    1.65
 -11  -1   6    9.20    1.46
  10   1  -6   30.59    2.34
 -10  -1   6   32.04    2.18
   9   1  -6    0.06    1.01
  -9  -1   6    0.21    0.94
  -9  -1   6    1.23    1.08
   8   1  -6    1.04    1.09
  -8  -1   6    0.82    0.99
  -8  -1   6    1.01    0.99
   7   1  -6    2.34    1.06
  -7  -1   6    3.66    0.96
  -7  -1   6    2.46    1.00
  -6  -1   6   30.30    1.75
  -6  -1   6   30.97    1.88
  -5  -1   6    8.48    1.08
  -5  -1   6    8.39    1.06
  -4  -1   6   22.41    1.59
  -4  -1   6   20.76    1.44
  -3  -1   6    6.25    0.98
  -3  -1   6    4.59    0.97
  -2  -1   6   33.29    1.80
  -2  -1   6   35.97    1.88
  -1  -1   6    2.12    0.81
  -1  -1   6    4.41    0.94
   0  -1   6    1.21    0.78
   1  -1   6    1.82    0.83
   2  -1   6    4.43    0.96
   3  -1   6   -0.11    0.75
  -9   1  -6    0.84    1.05
  -9   1  -6    1.22    0.39
 -10   1  -6    6.18    1.27
 -10   1  -6    5.30    1.21
 -11   1  -6    5.52    1.36
 -11   1  -6    6.74    1.36
 -12   1  -6   -0.47    1.06
 -12   1  -6   -1.79    1.11
 -13   1  -6    2.85    1.38
 -13   1  -6    2.46    1.33
 -14   1  -6    1.73    1.27
 -14   1  -6    2.25    1.35
 -15   1  -6   -0.55    1.26
 -15   1  -6    0.15    1.42
 -16   1  -6    2.53    1.42
 -16   1  -6    0.46    1.35
 -17   1  -6    2.26    1.59
 -17   1  -6    1.50    1.60
 -18   1  -6    1.19    1.64
 -18   1  -6    1.03    1.58
  17   0  -6   -0.67    1.45
  16   0  -6   -0.29    1.62
  15   0  -6    5.40    1.61
  14   0  -6    0.49    1.42
  13   0  -6    0.03    1.27
  12   0  -6    3.79    1.44
 -12   0   6    3.87    1.31
  11   0  -6   -0.38    1.20
 -11   0   6   -0.10    1.10
  10   0  -6   32.59    2.30
 -10   0   6   31.83    1.99
   9   0  -6   14.55    1.58
  -9   0   6   14.16    1.48
  -9   0   6   15.01    1.59
   8   0  -6   17.17    1.64
  -8   0   6   15.90    1.46
  -8   0   6   18.31    1.57
  -7   0   6    8.83    1.18
  -7   0   6    9.49    1.23
  -6   0   6   -0.68    0.75
  -6   0   6    0.50    0.76
  -5   0   6   20.70    1.46
  -5   0   6   20.36    1.39
  -4   0   6   14.54    1.25
  -4   0   6   16.87    1.38
  -3   0   6   25.90    1.64
  -3   0   6   25.21    1.54
  -2   0   6    0.58    0.78
  -2   0   6    1.69    0.81
  -1   0   6    0.83    0.71
   0   0   6   49.07    2.18
   1   0   6    1.72    0.86
   2   0   6    2.45    0.92
  -6   0  -6    0.59    0.57
  -7   0  -6    8.92    0.71
  -8   0  -6   13.48    1.52
  -9   0  -6   12.28    1.51
  -9   0  -6   12.70    1.53
 -10   0  -6   26.26    1.93
 -10   0  -6   27.88    2.05
 -11   0  -6    1.57    1.15
 -11   0  -6    0.06    1.15
 -12   0  -6    3.80    1.26
 -12   0  -6    3.51    1.29
 -13   0  -6    1.95    1.33
 -13   0  -6    0.15    1.34
 -14   0  -6   -1.74    1.07
 -14   0  -6    1.60    1.43
 -15   0  -6    0.84    1.30
 -15   0  -6    3.60    1.62
 -16   0  -6   -0.56    1.38
 -16   0  -6    1.46    1.63
 -17   0  -6   -1.08    1.49
 -17   0  -6    1.85    1.62
  18  -1  -6    1.51    1.80
  17  -1  -6    1.97    1.74
  16  -1  -6   -1.07    1.50
  15  -1  -6    2.10    1.52
  14  -1  -6    3.29    1.46
  13  -1  -6    0.92    1.18
  12  -1  -6    0.68    1.22
 -12   1   6    0.20    1.11
  11  -1  -6   10.23    1.61
 -11   1   6    9.22    1.40
  10  -1  -6    7.39    1.35
 -10   1   6    9.00    1.30
 -10   1   6    8.73    1.39
   9  -1  -6    1.19    1.10
  -9   1   6    0.20    0.89
  -9   1   6    0.75    0.94
  -8   1   6    1.38    0.90
  -8   1   6    2.06    0.93
  -7   1   6    3.45    0.93
  -7   1   6    3.59    1.02
  -6   1   6   35.44    1.86
  -6   1   6   32.79    1.90
  -5   1   6   14.64    1.28
  -5   1   6   15.11    1.35
  -4   1   6   -0.53    0.76
  -4   1   6    0.28    0.70
  -3   1   6   -0.22    0.69
  -3   1   6    0.09    0.67
  -2   1   6    4.69    0.94
  -1   1   6    1.81    0.84
   0   1   6    2.13    0.91
  -1  -1  -6    3.84    0.89
   1   1   6    4.17    0.95
  -2  -1  -6   31.37    1.82
  -3  -1  -6    4.72    0.81
  -4  -1  -6   18.44    1.37
  -5  -1  -6    8.88    0.84
  -6  -1  -6   25.18    1.29
  -7  -1  -6    2.36    0.45
  -7  -1  -6    3.28    1.10
  -8  -1  -6    1.25    0.98
  -8  -1  -6    2.41    1.15
  -9  -1  -6    1.07    1.13
  -9  -1  -6    1.45    0.98
 -10  -1  -6   32.85    2.24
 -10  -1  -6   28.72    2.10
 -11  -1  -6    8.06    1.48
 -11  -1  -6    5.81    1.41
 -12  -1  -6   -0.13    1.19
 -12  -1  -6   -0.28    1.22
 -13  -1  -6    0.26    1.32
 -13  -1  -6   -2.10    1.18
 -14  -1  -6    3.82    1.53
 -14  -1  -6    3.60    1.44
 -15  -1  -6    0.21    1.41
 -15  -1  -6   -0.36    1.36
 -16  -1  -6   -1.79    1.50
 -16  -1  -6    0.27    1.48
 -17  -1  -6    1.50    1.54
 -17  -1  -6    0.34    1.66
  18  -2  -6   -2.24    1.58
  17  -2  -6    1.20    1.64
  16  -2  -6    6.17    1.75
  15  -2  -6    6.03    1.71
  14  -2  -6   -1.20    1.29
  13  -2  -6   -2.11    1.04
  12  -2  -6    4.50    1.31
 -12   2   6    5.26    1.23
  11  -2  -6    3.95    1.23
 -11   2   6    4.28    1.27
 -11   2   6    3.12    1.10
  10  -2  -6   -0.55    1.04
 -10   2   6   -0.06    0.89
 -10   2   6    0.57    0.91
  -9   2   6   -0.38    0.90
  -9   2   6    0.42    0.78
  -8   2   6    4.13    0.98
  -8   2   6    5.37    1.03
  -7   2   6   65.52    2.78
  -7   2   6   69.89    2.66
  -6   2   6    5.73    0.94
  -6   2   6    5.32    0.95
  -5   2   6    3.47    0.87
  -5   2   6    2.47    0.82
  -4   2   6    9.77    1.08
  -4   2   6   12.15    1.23
  -3   2   6   37.60    1.96
  -3   2   6   36.68    1.81
  -2   2   6    0.80    0.76
  -1   2   6    3.87    0.97
   0   2   6    1.58    0.88
  -1  -2  -6    0.79    0.75
   1   2   6    0.14    0.80
  -2  -2  -6   10.53    1.05
  -3  -2  -6   -0.31    0.63
  -4  -2  -6    1.34    0.66
  -5  -2  -6    4.37    0.68
  -6  -2  -6   12.02    0.93
  -6  -2  -6    9.35    1.34
  -7  -2  -6   -0.15    1.00
  -7  -2  -6    2.47    1.02
  -8  -2  -6    3.64    1.09
  -8  -2  -6    3.35    1.15
  -9  -2  -6    7.61    1.45
  -9  -2  -6    7.10    1.38
 -10  -2  -6    1.51    1.12
 -10  -2  -6    5.75    1.41
 -11  -2  -6    3.30    1.40
 -11  -2  -6    1.92    1.17
 -12  -2  -6    0.29    1.30
 -12  -2  -6   -1.73    1.05
 -13  -2  -6   -0.01    1.20
 -13  -2  -6    0.34    1.22
 -14  -2  -6   -0.39    1.35
 -14  -2  -6   -0.13    1.48
 -15  -2  -6    0.98    1.51
 -15  -2  -6   -0.79    1.53
 -16  -2  -6    0.33    1.63
 -16  -2  -6    1.89    1.62
  19  -3  -6    2.37    1.79
  18  -3  -6    0.13    1.46
  17  -3  -6    1.78    1.62
  16  -3  -6   -2.55    1.37
  15  -3  -6    4.16    1.53
  14  -3  -6    2.07    1.26
  13  -3  -6    0.92    1.34
 -13   3   6    0.86    1.08
  12  -3  -6    9.03    1.57
 -12   3   6    9.18    1.35
 -12   3   6    9.79    1.45
  11  -3  -6    0.07    1.03
 -11   3   6   -1.19    0.87
 -11   3   6    0.24    0.99
 -10   3   6    0.21    0.86
 -10   3   6   -0.01    0.89
  -9   3   6   11.44    1.41
  -9   3   6   12.83    1.27
  -8   3   6   17.89    1.41
  -8   3   6   17.78    1.55
  -7   3   6    5.82    0.94
  -7   3   6    3.31    0.98
  -6   3   6    6.30    1.05
  -6   3   6    8.12    0.98
  -5   3   6    0.74    0.69
  -5   3   6   -0.96    0.78
  -4   3   6    6.38    0.91
  -4   3   6    5.31    1.02
  -3   3   6   20.13    1.45
  -2   3   6   -0.37    0.71
  -1   3   6   32.28    1.91
   0   3   6   21.19    1.61
  -1  -3  -6    0.59    0.72
  -2  -3  -6    2.70    0.77
  -3  -3  -6    8.18    0.93
  -4  -3  -6    0.58    0.60
  -5  -3  -6    9.48    1.24
  -5  -3  -6   12.57    1.44
  -5  -3  -6   12.71    0.91
  -6  -3  -6    3.43    0.51
  -6  -3  -6    4.48    1.05
  -6  -3  -6    2.18    0.96
  -7  -3  -6   -1.68    0.92
  -7  -3  -6    0.26    1.02
  -8  -3  -6    1.65    1.15
  -8  -3  -6    1.67    1.11
  -9  -3  -6    7.59    1.38
  -9  -3  -6    8.94    1.51
 -10  -3  -6    1.81    1.16
 -10  -3  -6    0.64    1.23
 -11  -3  -6    1.49    1.30
 -11  -3  -6    1.27    1.35
 -12  -3  -6    0.98    1.42
 -12  -3  -6    1.90    1.26
 -13  -3  -6   -2.35    1.29
 -13  -3  -6    1.14    1.41
 -14  -3  -6    0.59    1.55
 -14  -3  -6    1.50    1.50
 -15  -3  -6    1.23    1.46
 -15  -3  -6    1.83    1.55
 -16  -3  -6   -0.71    1.63
 -16  -3  -6   -0.61    1.52
  19  -4  -6    2.68    1.70
  18  -4  -6    0.10    1.57
  17  -4  -6    1.92    1.59
  16  -4  -6    2.37    1.47
  15  -4  -6    6.21    1.61
  14  -4  -6    2.84    1.41
  13  -4  -6    5.55    1.46
 -13   4   6    7.08    1.32
  12  -4  -6    3.25    1.31
 -12   4   6    1.91    0.97
 -12   4   6    3.39    1.23
 -11   4   6    0.58    0.87
 -11   4   6    0.09    1.04
 -10   4   6    3.03    0.94
 -10   4   6    4.55    1.15
  -9   4   6    1.05    0.96
  -9   4   6    0.97    0.77
   8  -4  -6   10.71    0.97
  -8   4   6    8.56    1.16
  -8   4   6    9.77    1.05
  -7   4   6    0.60    0.71
  -7   4   6   -0.84    0.70
  -6   4   6    0.30    0.73
  -6   4   6    0.03    0.70
  -5   4   6   22.48    1.40
  -5   4   6   19.63    1.47
  -4   4   6   14.80    1.16
  -4   4   6   15.05    1.37
  -3   4   6    0.89    0.86
  -2   4   6    9.45    1.17
  -1   4   6    6.00    1.09
   0   4   6   15.49    1.49
  -1  -4  -6   15.54    1.27
  -2  -4  -6    7.50    0.97
  -3  -4  -6    3.61    0.80
  -4  -4  -6    8.93    0.90
  -4  -4  -6    7.95    1.20
  -4  -4  -6   11.34    1.33
  -5  -4  -6    1.65    0.99
  -5  -4  -6    0.99    0.55
  -5  -4  -6    0.43    0.95
  -6  -4  -6    0.80    0.94
  -6  -4  -6    1.43    1.05
  -7  -4  -6    0.28    1.06
  -7  -4  -6    0.02    0.92
  -8  -4  -6    1.93    1.07
  -8  -4  -6    0.10    1.00
  -9  -4  -6    2.31    1.24
  -9  -4  -6    1.12    1.20
 -10  -4  -6    0.72    1.29
 -10  -4  -6    1.29    1.19
 -11  -4  -6    3.74    1.47
 -11  -4  -6    2.84    1.50
 -12  -4  -6   -0.07    1.37
 -12  -4  -6    1.21    1.45
 -13  -4  -6    3.01    1.65
 -13  -4  -6    3.04    1.55
 -14  -4  -6   -0.08    1.33
 -14  -4  -6   -1.10    1.52
 -15  -4  -6    2.71    1.73
 -15  -4  -6    0.68    1.71
  19  -5  -6    1.13    1.56
  18  -5  -6    0.25    1.48
  17  -5  -6    5.21    1.61
  16  -5  -6    2.02    1.40
  15  -5  -6    0.74    1.29
  14  -5  -6   -2.01    1.18
  13  -5  -6    5.18    1.40
 -13   5   6    5.20    1.14
 -13   5   6    7.62    1.40
 -12   5   6   -0.94    1.04
 -12   5   6    1.65    0.99
 -11   5   6    0.25    1.01
 -11   5   6    0.53    0.80
 -10   5   6   -1.14    0.85
 -10   5   6    1.97    0.86
   9  -5  -6    0.50    0.55
  -9   5   6    1.39    0.80
  -9   5   6    0.28    0.83
   8  -5  -6   13.87    1.05
  -8   5   6   11.18    1.32
  -8   5   6   12.82    1.14
  -7   5   6    3.23    0.80
  -7   5   6    3.40    0.98
  -6   5   6    7.84    0.93
  -6   5   6    9.79    1.20
  -5   5   6   21.43    1.52
  -5   5   6   19.56    1.29
  -5   5   6   19.37    1.71
  -4   5   6   16.99    1.59
  -4   5   6   15.65    1.42
  -3   5   6    2.01    0.99
  -3   5   6    3.62    0.92
  -2   5   6    0.22    0.85
  -2   5   6    0.35    0.87
  -1   5   6   22.37    1.74
  -1   5   6   21.55    1.61
   0   5   6   20.44    1.64
   1   5   6   33.63    1.90
   2   5   6   67.22    2.61
  -3  -5  -6   15.32    1.40
  -3  -5  -6   16.44    1.18
  -3  -5  -6   15.31    1.45
  -4  -5  -6   -1.38    0.82
  -4  -5  -6    0.60    0.67
  -4  -5  -6   -0.68    0.86
  -5  -5  -6    0.83    0.91
  -5  -5  -6    1.17    0.58
  -5  -5  -6    1.56    0.97
  -6  -5  -6    1.43    1.06
  -6  -5  -6    2.16    1.00
  -7  -5  -6    0.48    1.12
  -7  -5  -6    0.51    0.96
  -8  -5  -6    2.14    1.12
  -8  -5  -6    2.04    1.27
  -9  -5  -6    1.88    1.28
  -9  -5  -6    2.60    1.39
 -10  -5  -6    2.59    1.40
 -10  -5  -6    1.99    1.39
 -11  -5  -6    1.60    1.41
 -11  -5  -6   -1.74    1.29
 -12  -5  -6    2.19    1.41
 -12  -5  -6    0.88    1.37
 -13  -5  -6    2.63    1.63
 -13  -5  -6    3.45    1.67
 -14  -5  -6    3.88    1.76
 -14  -5  -6    3.67    1.79
  20  -6  -6    0.09    1.54
  19  -6  -6   -0.14    1.48
  18  -6  -6    0.74    1.38
  17  -6  -6    1.45    1.32
  16  -6  -6    2.36    1.33
  15  -6  -6    0.34    1.21
  14  -6  -6    1.73    1.27
 -14   6   6    1.53    1.12
 -13   6   6    5.22    1.29
 -13   6   6    6.37    1.17
 -12   6   6    2.32    0.91
 -12   6   6    4.16    1.24
 -11   6   6    1.21    0.85
 -11   6   6    1.11    1.05
  10  -6  -6    1.97    0.62
 -10   6   6    1.87    0.82
 -10   6   6    2.98    0.98
   9  -6  -6    4.31    0.67
  -9   6   6    3.32    1.04
  -9   6   6    2.75    0.81
  -8   6   6   10.00    1.26
  -8   6   6   11.45    1.56
  -8   6   6   10.22    1.02
  -7   6   6   32.15    1.58
  -7   6   6   29.44    1.76
  -7   6   6   29.44    2.18
  -6   6   6   -0.31    0.96
  -6   6   6    0.93    0.69
  -6   6   6    1.21    0.90
  -5   6   6   31.12    1.54
  -5   6   6   29.76    1.76
  -5   6   6   33.68    2.25
  -4   6   6    4.80    0.99
  -4   6   6    6.99    1.19
  -3   6   6    6.85    1.09
  -3   6   6    5.89    1.09
  -2   6   6    1.02    0.89
  -2   6   6    1.02    0.85
  -1   6   6    8.85    1.13
  -1   6   6   11.23    1.31
   0   6   6    0.48    0.80
  -1  -6  -6    2.32    0.92
   1   6   6    3.72    0.90
  -2  -6  -6    5.16    0.93
  -2  -6  -6    4.01    1.04
  -2  -6  -6    6.49    1.07
   2   6   6    6.19    0.95
  -3  -6  -6   10.76    1.32
  -3  -6  -6    7.82    1.20
  -3  -6  -6    9.77    1.02
   3   6   6   10.88    1.10
  -4  -6  -6    5.59    1.14
  -4  -6  -6    3.46    0.75
  -4  -6  -6    2.33    1.01
   4   6   6    3.80    0.80
  -5  -6  -6    0.48    1.00
  -5  -6  -6    0.52    1.01
  -6  -6  -6    2.41    1.19
  -6  -6  -6    2.74    1.20
  -7  -6  -6    3.78    1.19
  -7  -6  -6    5.96    1.39
  -8  -6  -6   -0.05    1.08
  -8  -6  -6    1.09    1.14
  -9  -6  -6    4.63    1.49
  -9  -6  -6    1.08    1.36
 -10  -6  -6   -0.02    1.21
 -10  -6  -6   -0.49    1.28
 -11  -6  -6    1.43    1.48
 -11  -6  -6    0.52    1.43
 -12  -6  -6    9.84    1.95
 -12  -6  -6    7.08    1.85
 -13  -6  -6    1.60    1.60
 -13  -6  -6    0.95    1.64
 -14  -6  -6    3.14    1.79
 -14  -6  -6    0.10    1.43
  20  -7  -6    2.13    1.65
  19  -7  -6   -0.52    1.45
  18  -7  -6    2.46    1.39
  17  -7  -6   -0.32    1.20
  16  -7  -6    0.55    1.23
  15  -7  -6    0.91    1.11
 -14   7   6    6.08    1.28
 -13   7   6    5.95    1.34
 -13   7   6    4.89    1.03
  12  -7  -6    0.72    0.63
 -12   7   6    1.22    0.85
 -12   7   6    0.39    1.05
  11  -7  -6   -0.51    0.57
 -11   7   6   -0.39    0.97
 -11   7   6   -0.78    0.72
  10  -7  -6    0.61    0.53
 -10   7   6   -1.01    0.91
 -10   7   6    0.11    0.68
 -10   7   6    0.54    1.27
   9  -7  -6    0.75    0.54
  -9   7   6    1.10    1.17
  -9   7   6    0.86    0.67
  -9   7   6    0.65    0.91
  -8   7   6    2.42    1.20
  -8   7   6    3.85    0.95
  -8   7   6    2.22    0.68
  -7   7   6    9.81    0.96
  -7   7   6    9.31    1.22
  -7   7   6    9.80    1.47
  -6   7   6    3.31    0.78
  -6   7   6    4.01    1.20
  -6   7   6    4.15    1.03
  -5   7   6   64.72    3.03
  -5   7   6   69.37    2.77
  -4   7   6    2.34    1.05
  -4   7   6    3.70    1.02
  -3   7   6    0.83    0.94
  -3   7   6    0.89    0.92
  -2   7   6    5.12    1.14
  -2   7   6    2.77    0.95
  -1   7   6   27.76    1.87
  -1   7   6   30.86    1.96
   0  -7  -6    8.26    1.04
   0   7   6   10.74    1.18
  -1  -7  -6    1.30    0.81
  -1  -7  -6    3.19    0.87
   1   7   6    1.51    0.85
  -2  -7  -6    2.04    0.95
  -2  -7  -6   -0.61    0.83
   2   7   6    0.50    0.78
  -3  -7  -6    0.55    0.91
  -3  -7  -6    0.47    0.90
   3   7   6    0.64    0.77
  -4  -7  -6    1.06    0.98
  -4  -7  -6    0.62    0.92
   4   7   6    0.26    0.71
  -5  -7  -6    1.03    1.12
  -5  -7  -6    1.56    1.06
   5   7   6    0.97    0.73
  -6  -7  -6    6.96    1.43
  -6  -7  -6    3.93    1.27
  -7  -7  -6    8.51    1.54
  -7  -7  -6    9.76    1.59
  -8  -7  -6    6.96    1.56
  -8  -7  -6    5.52    1.51
  -9  -7  -6    2.32    1.42
  -9  -7  -6    0.29    1.32
 -10  -7  -6    0.48    1.47
 -10  -7  -6    2.71    1.39
 -11  -7  -6    1.19    1.56
 -11  -7  -6    3.35    1.47
 -12  -7  -6    0.51    1.49
 -12  -7  -6   -2.75    1.43
 -13  -7  -6   -1.22    1.54
 -13  -7  -6    1.03    1.51
  20  -8  -6    0.28    1.56
  19  -8  -6    1.73    1.47
  18  -8  -6    1.38    1.38
  17  -8  -6    0.00    1.24
  16  -8  -6    1.88    1.28
 -15   8   6    5.93    1.44
 -14   8   6   -1.14    1.07
  13  -8  -6    2.41    0.68
 -13   8   6    2.29    0.87
 -13   8   6    1.60    1.13
  12  -8  -6    0.40    0.60
 -12   8   6    0.39    1.39
 -12   8   6    0.07    1.01
 -12   8   6    0.56    0.78
  11  -8  -6    2.26    0.62
 -11   8   6    3.29    1.44
 -11   8   6    2.61    1.04
 -11   8   6    2.11    0.78
  10  -8  -6    3.78    0.65
 -10   8   6    4.33    0.81
 -10   8   6    3.87    1.06
 -10   8   6    2.59    1.38
   9  -8  -6    1.75    0.55
  -9   8   6    0.90    1.20
  -9   8   6    1.17    0.93
  -9   8   6    0.94    0.65
  -8   8   6   16.52    1.49
  -8   8   6   16.76    1.77
  -8   8   6   16.73    1.19
  -7   8   6    1.99    1.14
  -7   8   6    1.82    0.67
  -7   8   6    2.03    0.95
  -6   8   6    6.10    1.13
  -6   8   6    4.28    1.22
  -6   8   6    5.14    0.82
  -5   8   6   16.29    1.49
  -5   8   6   17.84    1.71
  -4   8   6    9.37    1.32
  -4   8   6    8.99    1.20
  -3   8   6    9.42    1.23
  -3   8   6    9.68    1.31
   2  -8  -6   11.47    1.04
  -2   8   6   12.68    1.36
  -2   8   6   10.18    1.36
   1  -8  -6    2.54    0.82
  -1   8   6    3.56    0.99
   0  -8  -6   16.47    1.35
   0  -8  -6   16.00    1.35
   0   8   6   17.89    1.49
  -1  -8  -6    1.79    0.85
  -1  -8  -6    1.81    0.88
   1   8   6    1.15    0.87
  -2  -8  -6   -0.04    0.93
  -2  -8  -6   -1.11    0.83
   2   8   6    1.56    0.84
  -3  -8  -6    0.07    0.91
  -3  -8  -6   -0.66    0.93
   3   8   6   -0.71    0.76
  -4  -8  -6    3.77    1.13
  -4  -8  -6    1.13    1.13
   4   8   6    1.02    0.79
  -5  -8  -6    5.37    1.36
  -5  -8  -6    4.44    1.24
   5   8   6    5.50    0.89
  -6  -8  -6    2.27    1.23
  -6  -8  -6    1.02    1.22
   6   8   6    1.35    0.74
  -7  -8  -6    1.72    1.29
  -7  -8  -6    0.03    1.22
  -8  -8  -6    1.18    1.37
  -8  -8  -6    2.22    1.38
  -9  -8  -6    4.21    1.57
  -9  -8  -6    1.45    1.46
 -10  -8  -6   -0.94    1.46
 -10  -8  -6    5.09    1.65
 -11  -8  -6   -1.70    1.44
 -11  -8  -6    1.78    1.59
 -12  -8  -6    0.26    1.61
 -12  -8  -6   -3.11    1.39
  20  -9  -6   -1.10    1.30
  19  -9  -6   -0.89    1.33
  18  -9  -6    0.48    1.30
  17  -9  -6    2.08    1.31
  16  -9  -6    0.40    1.19
 -15   9   6    3.17    1.28
 -14   9   6    0.25    1.10
 -14   9   6    1.66    1.60
 -13   9   6    2.34    1.57
 -13   9   6   -0.28    1.04
  12  -9  -6    9.27    0.84
 -12   9   6    8.59    1.36
 -12   9   6    9.69    1.02
 -12   9   6   10.30    1.85
  11  -9  -6    8.03    0.77
 -11   9   6    6.64    1.25
 -11   9   6    8.12    1.70
 -11   9   6    8.84    0.95
  10  -9  -6    0.22    0.49
 -10   9   6    1.55    1.28
 -10   9   6    0.45    0.61
 -10   9   6    0.62    0.93
   9  -9  -6   14.09    0.90
  -9   9   6   15.06    1.83
  -9   9   6   15.31    1.49
  -9   9   6   14.64    1.13
   8  -9  -6    1.15    0.62
  -8   9   6    1.08    1.22
  -8   9   6    2.04    0.97
  -8   9   6    1.90    0.64
  -7   9   6    0.47    1.05
  -7   9   6    0.17    0.62
  -7   9   6    0.37    0.90
  -6   9   6    8.33    1.40
  -6   9   6   12.13    1.30
  -5   9   6   -0.26    0.98
  -5   9   6    0.27    0.90
   4  -9  -6    1.51    0.65
  -4   9   6    0.71    0.97
  -4   9   6    2.35    1.09
   3  -9  -6    3.71    0.76
  -3   9   6    2.50    1.06
  -3   9   6    3.21    1.09
   2  -9  -6    0.70    0.72
  -2   9   6    1.11    1.05
  -2   9   6    0.05    0.93
   1  -9  -6    1.22    0.82
   1  -9  -6    1.43    0.81
  -1   9   6    2.17    1.00
   0  -9  -6   14.34    1.31
   0  -9  -6   14.91    1.31
   0   9   6   14.46    1.43
  -1  -9  -6    6.37    1.11
  -1  -9  -6    6.67    1.12
   1   9   6   10.55    1.23
  -2  -9  -6    2.83    1.05
  -2  -9  -6    4.18    1.07
   2   9   6    3.26    0.97
  -3  -9  -6    8.66    1.36
  -3  -9  -6    8.28    1.32
   3   9   6   10.37    1.20
  -4  -9  -6    7.80    1.40
  -4  -9  -6    6.73    1.35
   4   9   6    7.35    1.06
  -5  -9  -6    0.70    1.20
  -5  -9  -6   -0.25    1.17
   5   9   6    1.58    0.81
  -6  -9  -6   -0.81    1.17
  -6  -9  -6    0.10    1.21
  -7  -9  -6    1.60    1.34
  -7  -9  -6   -1.34    1.24
  -8  -9  -6    1.25    1.41
  -8  -9  -6    1.50    1.48
  -9  -9  -6   -1.77    1.35
  -9  -9  -6   -1.38    1.40
 -10  -9  -6   -0.54    1.43
 -10  -9  -6    0.69    1.53
 -11  -9  -6   -0.85    1.64
 -11  -9  -6    1.89    1.47
  20 -10  -6    2.86    1.51
  19 -10  -6    0.07    1.27
  18 -10  -6    1.48    1.34
  17 -10  -6    2.47    1.32
 -16  10   6    1.21    1.22
 -15  10   6    3.46    1.28
 -15  10   6    0.14    1.68
 -14  10   6    2.14    1.67
 -14  10   6    1.15    1.13
 -13  10   6    0.26    1.50
 -13  10   6    1.31    1.11
 -12  10   6    2.76    0.73
 -12  10   6    3.26    1.12
 -12  10   6    2.52    1.54
  11 -10  -6   28.63    1.20
 -11  10   6   33.80    1.51
 -11  10   6   31.73    2.53
 -11  10   6   30.71    2.00
  10 -10  -6   30.06    1.13
 -10  10   6   32.46    2.01
 -10  10   6   31.21    1.43
 -10  10   6   32.14    2.52
   9 -10  -6    8.20    0.55
   9 -10  -6    7.30    0.83
  -9  10   6    8.94    0.82
  -9  10   6   10.10    1.27
  -9  10   6    7.21    1.54
   8 -10  -6    0.99    0.59
  -8  10   6    1.46    1.23
  -8  10   6   -0.08    0.54
  -8  10   6    2.61    0.99
   7 -10  -6    0.30    0.45
  -7  10   6    1.18    0.95
  -7  10   6    0.13    0.60
  -7  10   6    0.72    1.18
   6 -10  -6    3.85    0.60
  -6  10   6    4.79    1.30
  -6  10   6    4.54    1.09
   5 -10  -6    1.22    0.57
  -5  10   6    2.11    0.98
  -5  10   6    1.59    1.12
   4 -10  -6    1.56    0.65
  -4  10   6    1.29    1.10
  -4  10   6    1.72    1.05
   3 -10  -6    0.98    0.70
   3 -10  -6    1.10    0.68
  -3  10   6    0.79    1.05
  -3  10   6    0.64    1.00
   2 -10  -6    5.90    0.91
   2 -10  -6    4.95    0.88
  -2  10   6    1.65    1.15
  -2  10   6    5.03    1.17
   1 -10  -6   -0.59    0.77
   1 -10  -6    2.29    0.86
  -1  10   6    0.22    0.99
   0 -10  -6   31.86    1.85
   0 -10  -6   30.36    1.76
   0  10   6   27.47    2.05
  -1 -10  -6    7.16    1.25
  -1 -10  -6    8.08    1.17
   1  10   6    5.82    1.21
  -2 -10  -6    8.00    1.31
  -2 -10  -6    5.37    1.19
   2  10   6    7.35    1.21
  -3 -10  -6    0.41    1.06
  -3 -10  -6    1.78    1.03
   3  10   6    2.52    0.99
  -4 -10  -6    0.72    1.13
  -4 -10  -6    1.03    1.19
   4  10   6    1.82    0.94
  -5 -10  -6   -0.33    1.18
  -5 -10  -6   -0.57    1.21
   5  10   6   -0.67    0.80
  -6 -10  -6   -0.27    1.29
  -6 -10  -6    2.11    1.32
  -7 -10  -6   -0.48    1.33
  -7 -10  -6   -0.90    1.26
  -8 -10  -6    0.00    1.44
  -8 -10  -6   -0.17    1.37
  -9 -10  -6   -1.65    1.40
  -9 -10  -6   -1.16    1.54
 -10 -10  -6    2.86    1.47
 -10 -10  -6   -0.59    1.49
  20 -11  -6    0.12    1.36
  19 -11  -6    1.25    1.33
  18 -11  -6    3.45    1.40
 -16  11   6   -0.28    1.64
 -16  11   6    0.37    1.17
 -15  11   6    4.24    1.29
 -15  11   6    0.01    1.68
 -14  11   6    1.26    1.16
 -14  11   6    0.11    1.56
 -13  11   6    5.34    1.68
 -13  11   6    4.83    1.19
 -12  11   6   10.82    1.44
 -12  11   6   12.39    1.95
 -12  11   6    9.84    0.88
 -11  11   6    1.17    1.36
 -11  11   6    0.53    0.58
 -11  11   6    0.08    1.02
  10 -11  -6    8.81    0.85
 -10  11   6    6.75    1.62
 -10  11   6    6.91    0.73
 -10  11   6    9.28    1.31
   9 -11  -6    3.08    0.65
  -9  11   6    2.23    1.32
  -9  11   6    1.89    1.10
  -9  11   6    2.65    0.59
   8 -11  -6   -0.19    0.51
   8 -11  -6    0.51    0.24
  -8  11   6   -0.36    0.52
  -8  11   6   -1.57    0.89
  -8  11   6    0.17    1.21
   7 -11  -6   -0.27    0.52
   7 -11  -6    0.33    0.39
  -7  11   6   -0.38    0.57
  -7  11   6   -0.50    1.12
  -7  11   6   -1.86    0.88
   6 -11  -6    0.00    0.49
  -6  11   6   -0.22    1.13
  -6  11   6    1.15    1.00
   5 -11  -6    1.60    0.59
  -5  11   6    1.15    1.16
  -5  11   6    1.03    1.03
   4 -11  -6    0.46    0.66
   4 -11  -6   -0.75    0.61
  -4  11   6    0.63    0.99
  -4  11   6    0.39    1.11
   3 -11  -6    0.79    0.71
   3 -11  -6    2.42    0.78
  -3  11   6    2.97    1.21
  -3  11   6    2.97    1.20
   2 -11  -6    8.45    1.08
   2 -11  -6    8.09    1.01
  -2  11   6    8.86    1.37
  -2  11   6   11.30    1.58
   1 -11  -6   33.55    1.85
   1 -11  -6   30.64    1.77
  -1  11   6   32.27    2.21
   0 -11  -6    1.83    0.89
   0 -11  -6    0.95    0.96
   0  11   6    0.69    1.00
  -1 -11  -6    0.38    0.93
  -1 -11  -6    1.40    0.99
   1  11   6    2.61    1.07
  -2 -11  -6    0.71    1.05
  -2 -11  -6    1.07    1.06
   2  11   6    0.27    0.99
  -3 -11  -6    0.95    1.16
  -3 -11  -6    3.32    1.21
   3  11   6    0.97    0.99
  -4 -11  -6    6.87    1.47
  -4 -11  -6    5.81    1.34
   4  11   6    8.35    1.24
  -5 -11  -6    5.41    1.40
  -5 -11  -6    2.82    1.39
  -6 -11  -6   -0.19    1.33
  -6 -11  -6    0.21    1.31
  -7 -11  -6    0.25    1.27
  -7 -11  -6   -2.05    1.25
  -8 -11  -6   -1.01    1.43
  -8 -11  -6   -1.04    1.42
  -9 -11  -6    2.16    1.59
  -9 -11  -6    3.30    1.67
  20 -12  -6   -2.18    1.18
  19 -12  -6   -0.10    1.27
  18 -12  -6   11.00    1.72
 -18  12   6   13.08    2.44
 -17  12   6    4.29    1.99
 -16  12   6    2.28    1.79
 -16  12   6    1.92    1.25
 -15  12   6    1.40    1.11
 -15  12   6    1.07    1.67
 -14  12   6    0.58    1.56
 -14  12   6   -0.84    0.99
 -13  12   6    0.21    1.50
 -13  12   6   -0.05    1.06
 -12  12   6    4.08    1.15
 -12  12   6    5.92    1.64
 -11  12   6    2.66    1.03
 -11  12   6    0.66    0.49
 -11  12   6    0.94    1.37
 -10  12   6    7.04    1.30
 -10  12   6    6.07    1.60
 -10  12   6    6.26    0.63
  -9  12   6   10.52    0.76
  -9  12   6   10.88    1.38
  -9  12   6    9.55    1.72
   8 -12  -6    1.93    0.52
  -8  12   6    1.25    0.97
  -8  12   6    2.31    1.35
  -8  12   6    2.34    0.60
   7 -12  -6    0.87    0.48
   7 -12  -6    0.82    0.38
  -7  12   6   -0.86    0.91
  -7  12   6   -0.08    1.20
   6 -12  -6    3.51    0.61
   6 -12  -6    1.87    0.54
  -6  12   6    2.60    1.09
  -6  12   6    1.26    1.28
   5 -12  -6   -0.56    0.55
   5 -12  -6    1.21    0.62
  -5  12   6   -0.36    1.14
  -5  12   6    0.98    1.11
   4 -12  -6   -0.03    0.71
   4 -12  -6   -0.48    0.61
  -4  12   6    0.63    1.05
  -4  12   6   -0.44    1.11
   3 -12  -6   10.95    1.02
   3 -12  -6   10.02    1.07
  -3  12   6    8.93    1.50
  -3  12   6   10.07    1.57
   2 -12  -6    2.67    0.92
   2 -12  -6    3.67    0.86
  -2  12   6    2.92    1.30
  -2  12   6    2.96    1.25
   1 -12  -6   13.43    1.34
   1 -12  -6   10.67    1.16
  -1  12   6   10.55    1.50
   0 -12  -6    7.51    1.15
   0 -12  -6    6.00    1.23
   0  12   6    4.61    1.24
  -1 -12  -6    3.06    1.15
  -1 -12  -6    3.07    1.13
   1  12   6    5.54    1.26
  -2 -12  -6   -0.02    1.06
  -2 -12  -6    2.21    1.22
   2  12   6   -0.01    1.02
  -3 -12  -6    3.64    1.27
  -3 -12  -6    1.34    1.23
   3  12   6    2.24    1.10
  -4 -12  -6    2.16    1.24
  -4 -12  -6    2.40    1.33
  -5 -12  -6    5.97    1.57
  -5 -12  -6    5.29    1.56
  -6 -12  -6    0.98    1.28
  -6 -12  -6    1.01    1.43
  -7 -12  -6    0.38    1.47
  -7 -12  -6    1.40    1.53
  -8 -12  -6    3.49    1.68
  -8 -12  -6    2.75    1.63
  20 -13  -6    1.11    1.39
  19 -13  -6    3.32    1.51
 -19  13   6    3.82    2.07
 -18  13   6    6.50    2.16
 -17  13   6    0.04    1.85
 -17  13   6    3.48    1.37
 -16  13   6   -0.44    1.13
 -16  13   6    0.06    1.70
 -15  13   6    0.87    1.16
 -15  13   6   -1.68    1.56
 -14  13   6    1.12    1.14
 -14  13   6   -1.40    1.51
 -13  13   6   -2.02    1.00
 -13  13   6    0.93    1.53
 -12  13   6    4.37    1.16
 -12  13   6    3.67    1.56
 -11  13   6    0.77    1.03
 -11  13   6   -0.42    1.41
 -10  13   6    0.99    0.97
 -10  13   6    2.59    1.43
  -9  13   6    4.69    1.55
  -9  13   6    8.83    1.35
  -8  13   6    5.03    0.67
  -8  13   6    5.98    1.62
  -8  13   6    7.71    1.29
   7 -13  -6    6.73    0.47
   7 -13  -6    4.61    0.47
  -7  13   6    6.18    1.22
  -7  13   6    7.31    1.58
   6 -13  -6    4.72    0.55
   6 -13  -6    5.59    0.66
  -6  13   6    5.23    1.25
  -6  13   6    5.09    1.46
   5 -13  -6    2.53    0.57
   5 -13  -6    1.58    0.69
  -5  13   6    1.24    1.31
  -5  13   6    1.38    1.10
   4 -13  -6   -0.22    0.74
   4 -13  -6    1.04    0.61
  -4  13   6    1.57    1.19
  -4  13   6    0.27    1.25
   3 -13  -6    2.49    0.72
   3 -13  -6    2.20    0.86
  -3  13   6    2.85    1.32
  -3  13   6    1.78    1.19
   2 -13  -6    2.91    0.85
   2 -13  -6    3.89    1.03
  -2  13   6    5.71    1.39
  -2  13   6    3.04    1.39
   1 -13  -6    0.78    0.99
   1 -13  -6   -0.94    0.78
  -1  13   6   -0.69    1.12
   0 -13  -6    1.15    1.05
   0 -13  -6   -0.50    0.90
   0  13   6    2.75    1.23
  -1 -13  -6    2.59    1.16
  -1 -13  -6    3.85    1.07
   1  13   6    2.92    1.23
  -2 -13  -6    5.28    1.23
  -2 -13  -6    7.09    1.49
   2  13   6    6.33    1.35
  -3 -13  -6    0.45    1.17
  -3 -13  -6    0.62    1.17
   3  13   6    0.33    1.09
  -4 -13  -6   -0.51    1.24
  -4 -13  -6    0.11    1.19
  -5 -13  -6   -0.60    1.34
  -5 -13  -6    1.67    1.33
  -6 -13  -6   -0.94    1.37
  -6 -13  -6    2.05    1.43
  -7 -13  -6    1.69    1.54
  -7 -13  -6    0.75    1.47
  20 -14  -6    0.94    1.35
 -20  14   6    1.62    2.06
  19 -14  -6    5.33    1.57
 -19  14   6    2.71    2.13
 -18  14   6   -0.93    1.83
 -17  14   6    2.22    1.96
 -17  14   6    1.15    1.33
 -16  14   6    1.34    1.79
 -16  14   6    0.01    1.13
 -15  14   6    2.52    1.78
 -15  14   6    2.03    1.16
 -14  14   6    1.66    1.64
 -14  14   6   -0.78    1.06
 -13  14   6    4.07    1.72
 -13  14   6    4.60    1.17
 -12  14   6   -0.64    1.48
 -12  14   6    1.22    1.10
 -11  14   6    1.57    1.08
 -11  14   6   -0.32    1.45
 -10  14   6    1.85    1.00
 -10  14   6   -0.39    1.41
  -9  14   6    1.85    1.07
  -9  14   6   -0.75    1.37
  -8  14   6    1.72    1.45
  -8  14   6    1.57    1.02
  -7  14   6    9.75    1.40
  -7  14   6    8.96    1.68
  -6  14   6    0.67    1.01
  -6  14   6    0.45    1.33
   5 -14  -6    0.51    0.71
  -5  14   6    1.75    1.34
  -5  14   6    0.24    1.12
   4 -14  -6    1.63    0.84
  -4  14   6    1.50    1.16
  -4  14   6    2.19    1.39
   3 -14  -6    3.20    0.91
  -3  14   6    1.54    1.30
  -3  14   6    2.09    1.33
   2 -14  -6   -0.15    0.77
   2 -14  -6    1.33    0.96
  -2  14   6   -0.71    1.19
  -2  14   6    1.15    1.34
   1 -14  -6    0.48    1.03
   1 -14  -6   -0.61    0.84
  -1  14   6    1.53    1.24
   0 -14  -6    1.61    1.16
   0 -14  -6    1.02    0.94
   0  14   6    0.63    1.24
  -1 -14  -6   -0.33    1.10
  -1 -14  -6   -0.19    1.02
   1  14   6    0.14    1.21
  -2 -14  -6    4.75    1.31
  -2 -14  -6    4.87    1.41
   2  14   6    5.17    1.38
  -3 -14  -6   -0.16    1.12
  -3 -14  -6    0.81    1.32
  -4 -14  -6    0.95    1.26
  -4 -14  -6   -0.27    1.30
  -5 -14  -6   -2.38    1.19
  -5 -14  -6    0.17    1.49
  -6 -14  -6    1.29    1.43
  -6 -14  -6    0.23    1.38
 -19  15   6    4.38    2.15
 -18  15   6    4.90    2.08
 -17  15   6   -1.06    1.74
 -17  15   6    0.65    1.26
 -16  15   6   -2.38    0.97
 -16  15   6    1.61    1.84
 -15  15   6    2.91    1.84
 -15  15   6    2.28    1.19
 -14  15   6   -0.02    1.11
 -14  15   6    0.28    1.64
 -13  15   6    6.15    1.29
 -13  15   6    4.82    1.81
 -12  15   6    1.39    1.10
 -12  15   6    2.66    1.67
 -11  15   6    5.59    1.73
 -11  15   6    5.88    1.23
 -10  15   6   -1.18    0.97
 -10  15   6   -0.21    1.52
  -9  15   6    1.27    1.04
  -9  15   6    4.07    1.54
  -8  15   6    0.56    1.05
  -8  15   6   -0.56    1.35
  -7  15   6    4.55    1.58
  -7  15   6    4.98    1.19
  -6  15   6    2.37    1.47
  -6  15   6    2.60    1.16
  -5  15   6    5.43    1.59
  -5  15   6    3.00    1.28
  -4  15   6    2.13    1.43
  -4  15   6    2.53    1.21
   3 -15  -6    1.58    0.96
  -3  15   6   -0.01    1.31
  -3  15   6    1.80    1.41
   2 -15  -6    0.30    0.98
  -2  15   6    0.57    1.28
  -2  15   6    1.87    1.33
   1 -15  -6    3.02    1.14
  -1  15   6    1.05    1.34
   0 -15  -6    3.07    1.27
   0  15   6    1.56    1.37
  -1 -15  -6    1.16    1.21
   1  15   6    1.39    1.34
  -2 -15  -6    1.31    1.23
  -3 -15  -6    1.70    1.41
  -4 -15  -6    0.96    1.47
 -19  16   6    0.24    1.93
 -18  16   6    0.28    1.91
 -17  16   6    1.02    1.87
 -17  16   6    1.46    1.22
 -16  16   6    1.04    1.18
 -16  16   6    1.48    1.83
 -15  16   6    3.20    1.85
 -15  16   6    1.93    1.19
 -14  16   6    6.95    1.34
 -14  16   6    4.02    1.85
 -13  16   6    0.77    1.05
 -13  16   6    3.13    1.73
 -12  16   6    2.85    1.71
 -12  16   6    1.24    1.06
 -11  16   6    3.08    1.12
 -11  16   6    6.20    1.79
 -10  16   6   -0.48    1.00
 -10  16   6    0.89    1.57
  -9  16   6    0.19    0.99
  -9  16   6   -0.54    1.50
  -8  16   6    1.63    1.55
  -8  16   6    1.91    1.09
  -7  16   6   -0.03    1.46
  -7  16   6   -1.33    1.03
  -6  16   6   -1.60    1.02
  -6  16   6   -1.22    1.37
  -5  16   6    1.84    1.46
  -5  16   6    0.90    1.13
  -4  16   6    1.25    1.15
  -4  16   6   -0.30    1.38
  -3  16   6   -1.14    1.33
  -3  16   6   -0.21    1.22
  -2  16   6    0.71    1.41
  -2  16   6    2.84    1.49
  -1  16   6    0.63    1.43
   0 -16  -6    1.89    1.18
   0  16   6   -1.00    1.31
  -1 -16  -6    2.50    1.34
   1  16   6    3.87    1.52
  -2 -16  -6   -0.99    1.21
  -3 -16  -6   -0.26    1.20
 -18  17   6   -0.27    1.95
 -17  17   6   -2.50    1.77
 -16  17   6    4.93    2.04
 -15  17   6    0.44    1.82
 -14  17   6    0.12    1.64
 -13  17   6    1.85    1.78
 -13  17   6    0.44    0.98
 -12  17   6    7.38    1.36
 -12  17   6    7.40    2.02
 -11  17   6    1.70    1.14
 -11  17   6    4.81    1.84
 -10  17   6    1.12    1.01
 -10  17   6   -1.71    1.54
  -9  17   6    1.03    1.04
  -9  17   6    2.28    1.65
  -8  17   6    3.37    1.71
  -8  17   6    3.11    1.16
  -7  17   6    0.60    1.12
  -7  17   6    2.06    1.65
  -6  17   6    2.38    1.24
  -6  17   6    0.01    1.58
  -5  17   6    0.32    1.59
  -5  17   6    2.56    1.28
  -4  17   6    4.05    1.35
  -4  17   6    4.31    1.64
  -3  17   6    1.39    1.56
  -3  17   6    1.68    1.43
  -2  17   6   -1.63    1.41
  -2  17   6   -1.93    1.41
  -1  17   6   -1.11    1.42
   0  17   6   -2.46    1.32
 -17  18   6    0.20    1.93
 -16  18   6    0.56    1.88
 -15  18   6    1.11    1.88
 -14  18   6   -0.37    1.73
 -13  18   6    2.60    1.88
 -12  18   6    1.58    1.86
 -11  18   6    1.23    1.69
 -10  18   6    2.51    1.75
  -9  18   6   -0.93    1.62
  -8  18   6    3.17    1.83
  -7  18   6    1.93    1.19
  -7  18   6    3.68    1.74
  -6  18   6   12.36    2.10
  -6  18   6   11.00    1.63
  -5  18   6    7.33    1.47
  -5  18   6    3.20    1.76
  -4  18   6    0.57    1.67
  -4  18   6   -0.37    1.23
  -3  18   6    0.65    1.43
  -3  18   6    2.88    1.72
  -2  18   6    0.40    1.58
  -2  18   6    1.90    1.55
  -1  18   6    2.84    1.57
 -16  19   6    1.68    2.08
 -15  19   6    0.65    1.89
 -14  19   6    1.21    1.89
 -13  19   6    0.98    1.84
 -12  19   6    0.74    1.82
 -11  19   6    3.19    1.95
 -10  19   6    1.76    1.82
  -9  19   6    0.38    1.74
  -8  19   6    0.20    1.74
  -7  19   6    2.76    1.83
  -6  19   6    3.33    1.85
  -5  19   6    3.47    1.88
  -4  19   6    3.16    1.83
  -3  19   6   -0.35    1.62
 -14  20   6    3.41    2.07
 -13  20   6    2.87    2.05
 -12  20   6    3.63    2.00
 -11  20   6   -1.01    1.80
 -10  20   6   -0.30    1.88
  -9  20   6    1.73    1.94
  -8  20   6    0.40    1.85
  -7  20   6    0.89    1.82
  -6  20   6   -0.66    1.78
  -5  19  -7   -0.67    1.85
  -6  19  -7    2.57    1.97
  -7  19  -7    0.21    1.74
  -8  19  -7    3.95    1.83
  -9  19  -7   -0.86    1.68
 -10  19  -7    6.22    2.09
 -11  19  -7    2.45    1.88
 -12  19  -7    1.67    1.88
 -13  19  -7   -3.49    1.67
 -14  19  -7    9.58    2.21
   2 -18   7   11.63    1.97
   3 -18   7    4.70    1.56
   4 -18   7   18.74    2.11
   5 -18   7   20.00    2.09
   6 -18   7    1.38    1.28
  -7  18  -7    0.44    1.74
   7 -18   7    2.17    1.28
  -8  18  -7    1.63    1.78
   8 -18   7    2.43    1.35
 -10  18  -7    0.38    1.69
 -11  18  -7    3.37    1.81
 -12  18  -7   12.00    2.25
 -13  18  -7    0.98    1.81
 -14  18  -7    1.42    1.80
 -15  18  -7   -1.04    1.63
 -16  18  -7    4.79    2.07
   0 -17   7    1.31    1.58
   1 -17   7   18.03    2.22
   2 -17   7    0.59    1.41
   3 -17   7    2.97    1.47
   4 -17   7   -1.77    1.28
   5 -17   7   35.59    2.39
   6 -17   7   25.38    2.10
   7 -17   7   23.06    2.01
   8 -17   7   33.27    2.33
  -9  17  -7   -0.26    1.61
   9 -17   7    2.05    1.16
 -10  17  -7    7.22    1.96
  10 -17   7   11.39    1.51
 -11  17  -7    0.40    1.62
 -12  17  -7   18.80    2.39
 -13  17  -7    8.52    2.10
 -14  17  -7   19.86    2.47
 -15  17  -7   26.95    2.73
 -16  17  -7    0.17    1.78
 -17  17  -7    4.95    1.97
   2  16  -7    5.02    1.69
  -2 -16   7    3.58    1.83
   1  16  -7    2.17    1.41
  -1 -16   7    2.18    1.59
   0  16  -7    6.43    1.60
   0 -16   7   12.19    1.94
  -1  16  -7    0.52    1.25
   1 -16   7   -0.66    1.43
   2 -16   7    1.86    1.38
   3 -16   7    2.63    1.40
   4 -16   7   10.17    1.65
   5 -16   7    3.36    1.30
   6 -16   7    2.78    1.25
   7 -16   7    1.09    1.17
   8 -16   7   15.59    1.71
  -9  16  -7   -1.56    1.51
   9 -16   7    0.02    1.09
 -10  16  -7    8.42    1.84
  10 -16   7   11.90    1.50
 -11  16  -7   36.93    2.98
  11 -16   7   36.06    2.25
 -12  16  -7    3.62    1.70
  12 -16   7    4.66    1.23
 -13  16  -7    6.11    1.81
  13 -16   7    4.94    1.31
 -14  16  -7   -0.96    1.51
 -15  16  -7   18.52    2.33
 -16  16  -7    4.49    1.43
 -16  16  -7    8.87    2.13
 -17  16  -7   17.96    1.97
 -17  16  -7   18.01    2.43
 -18  16  -7   10.17    2.05
   3  15  -7   -1.64    1.48
  -3 -15   7    3.44    1.67
   2  15  -7   26.21    2.36
  -2 -15   7   30.26    2.67
   1  15  -7   19.59    2.05
  -1 -15   7   22.49    2.35
   0  15  -7    2.61    1.34
   0 -15   7    2.66    1.50
  -1  15  -7    8.37    1.46
   1 -15   7   10.17    1.74
  -2  15  -7   -1.29    1.05
   2 -15   7    4.55    1.44
  -3  15  -7    2.62    1.11
   3 -15   7    1.32    1.22
   4 -15   7    1.33    1.18
   5 -15   7   13.93    1.79
   6 -15   7    4.74    1.33
   7 -15   7    3.26    1.23
   8 -15   7   23.81    1.93
   9 -15   7    1.07    1.08
 -10  15  -7    0.69    1.60
  10 -15   7    3.00    1.15
 -11  15  -7    1.37    1.53
  11 -15   7    5.53    1.23
 -12  15  -7   -0.95    1.41
  12 -15   7    0.06    1.04
 -13  15  -7    7.46    1.80
  13 -15   7    8.47    1.42
 -14  15  -7   10.50    1.99
  14 -15   7   10.94    1.60
 -15  15  -7    0.68    1.57
 -15  15  -7    1.03    1.33
 -16  15  -7    0.98    1.28
 -16  15  -7    2.32    1.72
 -17  15  -7   -1.47    1.70
 -17  15  -7    2.09    1.37
 -18  15  -7    5.52    1.74
 -18  15  -7    8.04    1.68
   5  14  -7    4.12    1.81
   4  14  -7    2.95    1.65
  -4 -14   7    2.07    1.67
   3  14  -7   24.62    2.33
  -3 -14   7   23.37    2.45
   2  14  -7   -0.57    1.36
  -2 -14   7    1.21    1.47
   1  14  -7    9.87    1.66
  -1 -14   7   12.42    1.91
   0  14  -7    0.57    1.22
   0 -14   7   -0.18    1.29
  -1  14  -7   12.90    1.60
   1 -14   7   11.74    1.78
  -2  14  -7   17.94    1.60
   2 -14   7   14.27    1.78
  -3  14  -7    4.99    1.13
   3 -14   7    4.38    1.34
  -4  14  -7   21.30    1.60
   4 -14   7   18.60    1.84
   5 -14   7   -1.46    1.01
   6 -14   7   -0.24    1.11
   7 -14   7    1.44    1.14
   8 -14   7   28.59    2.10
   9 -14   7   16.89    1.67
 -10  14  -7   -0.53    1.41
  10 -14   7    0.66    1.03
 -11  14  -7    8.56    1.70
  11 -14   7    7.95    1.37
 -12  14  -7    6.87    1.72
  12 -14   7    7.05    1.36
 -13  14  -7    1.79    1.43
  13 -14   7    2.27    1.18
 -14  14  -7    1.74    1.56
 -15  14  -7    6.68    1.59
 -15  14  -7    8.41    1.77
 -16  14  -7    1.19    1.57
 -16  14  -7   -0.26    1.28
 -17  14  -7    2.51    1.63
 -17  14  -7    2.80    1.34
 -18  14  -7   16.94    2.09
 -19  14  -7   -0.77    1.29
 -19  14  -7   -0.22    1.25
   6  13  -7   -0.13    1.57
   5  13  -7    1.77    1.55
  -5 -13   7   -1.52    1.35
   4  13  -7    9.24    1.80
  -4 -13   7    7.29    1.70
   3  13  -7    5.08    1.54
  -3 -13   7    7.55    1.78
   2  13  -7    8.65    1.55
  -2 -13   7    7.17    1.66
   1  13  -7    1.21    1.21
  -1 -13   7    1.43    1.30
   0  13  -7    3.18    1.30
   0 -13   7    3.13    1.37
  -1  13  -7   -0.64    1.02
   1 -13   7   -0.55    1.03
  -2  13  -7    1.90    1.08
   2 -13   7    0.62    1.18
  -3  13  -7   -0.76    0.89
   3 -13   7    1.01    1.15
  -4  13  -7   19.32    1.43
   4 -13   7   18.52    1.81
  -5  13  -7    2.45    0.79
   5 -13   7    1.35    1.06
   6 -13   7   18.04    1.69
   7 -13   7   63.23    2.84
   8 -13   7    9.89    1.39
   9 -13   7    0.50    0.98
  10 -13   7   -0.64    1.04
  11 -13   7   29.91    2.12
 -12  13  -7    1.57    1.43
 -13  13  -7    3.88    1.55
 -14  13  -7    5.56    1.63
 -15  13  -7    0.00    1.37
 -15  13  -7    0.25    1.27
 -16  13  -7   -1.55    1.16
 -16  13  -7    0.27    1.54
 -17  13  -7    0.34    1.49
 -17  13  -7    1.34    1.39
 -18  13  -7   16.86    2.07
 -18  13  -7   17.19    2.14
 -19  13  -7    6.92    1.69
 -19  13  -7    4.96    1.59
   7  12  -7    1.32    1.80
   6  12  -7   10.46    1.96
  -6 -12   7    8.79    1.98
   5  12  -7   18.11    2.16
  -5 -12   7   18.29    2.27
   4  12  -7    4.24    1.53
  -4 -12   7    3.76    1.45
   3  12  -7   -1.32    1.21
  -3 -12   7    0.71    1.25
   2  12  -7    6.69    1.44
  -2 -12   7    6.24    1.58
   1  12  -7    0.04    1.12
  -1 -12   7    0.53    1.14
   0  12  -7    2.42    1.17
   0 -12   7    0.75    1.23
  -1  12  -7    1.59    1.07
   1 -12   7    1.88    1.21
  -2  12  -7    9.91    1.32
   2 -12   7   12.95    1.58
  -3  12  -7    7.15    1.11
   3 -12   7    7.03    1.33
  -4  12  -7   -0.48    0.75
   4 -12   7   -0.04    1.02
  -5  12  -7   12.67    1.09
   5 -12   7   15.69    1.57
  -6  12  -7    7.08    0.79
   6 -12   7    8.05    0.75
   6 -12   7   10.38    1.39
   7 -12   7   11.42    1.39
   7 -12   7   10.03    0.77
   8 -12   7   11.90    0.87
   8 -12   7   10.60    1.40
   9 -12   7    2.27    0.57
   9 -12   7    2.07    1.05
  10 -12   7    9.15    0.80
  10 -12   7    8.54    1.35
 -11  12  -7    5.77    1.52
  11 -12   7   10.37    0.91
 -12  12  -7    1.35    1.32
 -13  12  -7   -1.82    1.22
 -14  12  -7   15.95    1.91
 -15  12  -7    2.76    1.46
 -15  12  -7    2.48    1.35
 -16  12  -7    5.32    1.53
 -16  12  -7    7.98    1.67
 -17  12  -7   37.09    2.82
 -18  12  -7    0.61    1.34
 -18  12  -7    0.47    1.38
 -19  12  -7   -0.86    1.51
 -19  12  -7   -0.01    1.28
   8  11  -7   -0.31    1.64
   7  11  -7    6.66    1.81
  -7 -11   7    2.75    1.59
   6  11  -7   -1.80    1.38
  -6 -11   7    0.53    1.48
   5  11  -7   42.07    2.79
  -5 -11   7   35.33    2.60
   4  11  -7    4.32    1.51
  -4 -11   7    5.13    1.46
   3  11  -7    9.14    1.62
  -3 -11   7   12.96    1.87
   2  11  -7   31.43    2.23
  -2 -11   7   33.47    2.44
   1  11  -7   11.09    1.52
  -1 -11   7   11.06    1.67
   0  11  -7   43.38    2.36
   0 -11   7   41.67    2.51
  -1  11  -7    3.48    1.10
   1 -11   7    3.27    1.23
  -2  11  -7   61.69    2.57
   2 -11   7   56.46    2.79
  -3  11  -7    3.34    0.94
   3 -11   7    3.96    1.16
  -4  11  -7   38.72    1.79
   4 -11   7   39.06    1.68
   4 -11   7   40.48    2.26
  -5  11  -7   10.78    0.95
   5 -11   7    9.82    0.90
   5 -11   7   12.04    1.47
  -6  11  -7   -0.13    0.56
   6 -11   7   -0.48    0.90
   6 -11   7    0.36    0.57
  -7  11  -7    4.07    0.52
   7 -11   7    5.16    0.69
   7 -11   7    5.84    1.21
   8 -11   7    6.17    0.75
   8 -11   7    2.51    1.10
   9 -11   7    0.82    1.01
   9 -11   7    0.94    0.63
  10 -11   7    2.84    0.73
  11 -11   7   41.68    1.91
 -12  11  -7    0.04    1.27
  12 -11   7    2.86    0.94
 -13  11  -7   -0.48    1.24
 -14  11  -7    5.80    1.49
 -15  11  -7   -0.71    1.24
 -15  11  -7    1.59    1.35
 -16  11  -7    1.19    1.38
 -16  11  -7    0.71    1.36
 -17  11  -7   20.93    2.26
 -17  11  -7   21.21    2.19
 -18  11  -7    2.72    1.61
 -18  11  -7    4.38    1.50
 -19  11  -7    2.74    1.67
 -19  11  -7    2.04    1.49
  10  10  -7    1.42    1.76
   9  10  -7    8.11    2.00
   8  10  -7    1.46    1.59
   7  10  -7    9.43    1.90
  -7 -10   7   10.11    1.97
   6  10  -7   10.42    1.86
  -6 -10   7   12.31    1.96
   5  10  -7    4.19    1.42
  -5 -10   7    4.06    1.55
   4  10  -7    3.07    1.35
  -4 -10   7    1.35    1.34
   3  10  -7    0.21    1.15
  -3 -10   7    2.78    1.36
   2  10  -7    6.78    1.34
  -2 -10   7    9.99    1.62
   1  10  -7    1.56    1.12
  -1 -10   7    3.52    1.28
   0 -10   7  125.53    4.52
  -1  10  -7  188.43    5.84
   1 -10   7  200.21    6.22
  -2  10  -7    5.03    1.01
   2 -10   7    2.70    1.11
   2 -10   7    4.14    0.85
  -3  10  -7   24.98    1.58
   3 -10   7   23.16    1.88
   3 -10   7   26.51    1.43
  -4  10  -7    2.27    0.75
   4 -10   7   -0.10    0.63
   4 -10   7    2.78    1.07
  -5  10  -7   16.32    1.16
   5 -10   7   16.59    1.57
   5 -10   7   14.82    1.12
  -6  10  -7    9.38    0.78
   6 -10   7    9.74    0.89
   6 -10   7    9.23    1.32
  -7  10  -7   75.46    2.25
   7 -10   7   73.87    3.15
   7 -10   7   79.75    2.57
   8 -10   7  131.50    3.94
   9 -10   7   57.45    2.20
  10 -10   7  118.91    3.78
 -11  10  -7    0.12    1.25
  11 -10   7    3.73    1.01
 -12  10  -7    8.28    1.50
 -13  10  -7   -0.19    1.22
 -14  10  -7   22.39    1.97
 -14  10  -7   19.34    2.08
 -15  10  -7   15.76    1.77
 -15  10  -7   11.52    1.78
 -16  10  -7   -0.02    1.33
 -17  10  -7   21.21    2.19
 -17  10  -7   23.68    2.38
 -18  10  -7    1.09    1.45
 -18  10  -7    1.97    1.55
 -19  10  -7   -1.10    1.42
 -19  10  -7    0.60    1.50
 -20  10  -7    0.64    1.56
 -20  10  -7   -0.58    1.36
  10   9  -7   -0.80    1.58
   9   9  -7   15.40    2.28
   8   9  -7    3.51    1.62
  -8  -9   7    3.26    1.64
   7   9  -7    1.08    1.45
  -7  -9   7   -0.88    1.20
   6   9  -7    0.04    1.31
  -6  -9   7    2.41    1.48
   5   9  -7   18.94    1.98
  -5  -9   7   18.22    2.03
   4   9  -7   -0.78    1.18
  -4  -9   7   -0.71    1.21
   3   9  -7    3.25    1.23
  -3  -9   7   -0.26    1.22
   2   9  -7    1.56    1.06
  -2  -9   7    2.41    1.11
   1   9  -7   62.33    2.80
  -1  -9   7   61.81    2.95
   0   9  -7    6.02    1.16
   0  -9   7    5.73    1.27
   0  -9   7    6.36    1.04
  -1   9  -7   39.85    2.08
   1  -9   7   40.88    1.90
   1  -9   7   42.17    2.32
  -2   9  -7   14.45    1.29
   2  -9   7   11.81    1.45
   2  -9   7   14.72    1.17
  -3   9  -7    5.97    0.92
   3  -9   7    6.70    0.87
   3  -9   7    6.69    1.20
  -4   9  -7    7.04    0.88
   4  -9   7    6.63    0.86
   4  -9   7    5.76    1.15
  -5   9  -7   -0.19    0.57
   5  -9   7   -1.10    0.87
   5  -9   7    1.00    0.65
  -6   9  -7   22.36    1.16
   6  -9   7   23.53    1.74
   6  -9   7   22.73    1.38
  -7   9  -7    3.56    0.53
   7  -9   7    2.60    0.74
  -8   9  -7    9.24    0.70
   8  -9   7    9.36    1.02
  -9   9  -7    4.91    0.37
   9  -9   7    5.69    0.98
  10  -9   7  201.43    5.96
 -12   9  -7    7.53    1.37
 -13   9  -7   21.82    1.91
 -14   9  -7   -0.64    1.12
 -14   9  -7   -2.42    1.16
 -15   9  -7    4.69    1.51
 -15   9  -7    4.95    1.31
 -16   9  -7    3.43    1.46
 -16   9  -7    0.58    1.32
 -17   9  -7   22.66    2.28
 -17   9  -7   24.96    2.44
 -18   9  -7   14.16    2.11
 -18   9  -7   11.87    1.89
 -19   9  -7    7.57    1.83
 -19   9  -7    9.35    1.93
  11   8  -7    2.23    1.65
  10   8  -7    1.25    1.63
   9   8  -7   31.40    2.71
  -9  -8   7   29.93    2.73
   8   8  -7   14.48    2.00
  -8  -8   7   17.40    2.15
   7   8  -7   18.04    2.00
  -7  -8   7   22.20    2.17
   6   8  -7   32.89    2.45
  -6  -8   7   24.80    2.26
   5   8  -7    7.89    1.51
  -5  -8   7   10.84    1.56
   4   8  -7    8.50    1.47
  -4  -8   7    7.06    1.47
   3   8  -7    3.37    1.18
  -3  -8   7    5.61    1.26
   2   8  -7  143.40    4.60
  -2  -8   7  130.29    4.74
  -2  -8   7  131.58    4.39
   1   8  -7   11.26    1.38
  -1  -8   7    8.96    1.36
  -1  -8   7   10.00    1.16
   0   8  -7   12.44    1.31
   0  -8   7    9.91    1.37
   0  -8   7   11.13    1.18
  -1   8  -7  156.87    4.91
   1  -8   7  165.98    5.31
   1  -8   7  165.63    4.88
  -2   8  -7   -1.28    0.69
   2  -8   7   -0.14    0.67
   2  -8   7   -0.91    0.80
  -3   8  -7   -0.25    0.66
   3  -8   7    0.70    0.65
   3  -8   7   -0.27    0.81
  -4   8  -7   -0.03    0.64
   4  -8   7   -0.49    0.63
   4  -8   7   -1.03    0.88
  -5   8  -7   63.47    2.14
   5  -8   7   61.23    2.29
   5  -8   7   57.82    2.60
   6  -8   7   21.92    1.38
   7  -8   7   12.82    1.14
   8  -8   7    9.86    1.13
  -9   8  -7   38.91    1.44
   9  -8   7   45.88    2.09
 -10   8  -7    3.78    0.54
 -11   8  -7    4.44    1.22
 -12   8  -7    0.34    1.03
 -13   8  -7    0.45    1.22
 -13   8  -7    2.36    1.14
 -14   8  -7    1.09    1.14
 -14   8  -7   -0.67    1.26
 -15   8  -7    2.90    1.30
 -16   8  -7   11.40    1.77
 -16   8  -7   14.44    1.94
 -17   8  -7    0.92    1.34
 -17   8  -7    2.85    1.55
 -18   8  -7   -0.81    1.28
 -18   8  -7    0.71    1.32
 -19   8  -7   -1.79    1.45
 -19   8  -7   -1.54    1.37
  12   7  -7   -2.74    1.60
  11   7  -7    2.28    1.73
  10   7  -7   25.69    2.55
   9   7  -7    2.32    1.56
  -9  -7   7    1.38    1.47
   8   7  -7    3.72    1.55
  -8  -7   7    2.42    1.44
   7   7  -7   -0.75    1.23
  -7  -7   7    1.68    1.34
   6   7  -7   57.08    3.02
  -6  -7   7   58.67    2.95
   5   7  -7    7.18    1.45
  -5  -7   7   10.19    1.57
   4   7  -7    5.83    1.33
  -4  -7   7    6.46    1.33
   3   7  -7   82.83    3.29
  -3  -7   7   81.85    3.12
  -3  -7   7   75.05    3.25
   2   7  -7    3.85    1.08
  -2  -7   7    1.72    0.91
  -2  -7   7    2.77    1.15
   1   7  -7   10.45    1.28
  -1  -7   7   11.96    1.21
  -1  -7   7   14.94    1.57
   0   7  -7   17.97    1.47
   0  -7   7   17.92    1.61
   0  -7   7   15.95    1.33
  -1   7  -7  100.59    3.48
   1  -7   7  105.98    3.80
   1  -7   7  108.28    3.45
  -2   7  -7   49.50    2.10
   2  -7   7   51.45    2.35
   2  -7   7   50.88    2.08
   3  -7   7   43.41    2.19
   3  -7   7   42.65    1.91
   4  -7   7   82.37    3.16
   4  -7   7   81.86    2.80
   5  -7   7    1.22    0.70
   6  -7   7    3.52    0.83
   7  -7   7   13.66    1.23
   8  -7   7  152.80    4.77
  -9   7  -7   13.56    0.98
 -10   7  -7   24.48    1.25
 -11   7  -7   40.92    2.33
 -12   7  -7   16.15    1.53
 -13   7  -7   14.58    1.46
 -13   7  -7   15.25    1.86
 -14   7  -7    0.47    1.01
 -14   7  -7    0.44    1.33
 -15   7  -7   18.81    2.02
 -15   7  -7   20.19    2.18
 -16   7  -7   -0.73    1.26
 -16   7  -7    1.61    1.44
 -17   7  -7    8.59    1.83
 -17   7  -7   11.35    1.87
 -18   7  -7    7.82    1.75
 -18   7  -7    7.81    1.87
 -19   7  -7   -0.21    1.42
 -19   7  -7    3.78    1.75
  13   6  -7    1.97    1.84
  12   6  -7    1.73    1.67
  11   6  -7   23.66    2.50
  10   6  -7    2.42    1.54
 -10  -6   7    0.97    1.44
   9   6  -7    3.36    1.57
  -9  -6   7    5.06    1.42
   8   6  -7    0.61    1.39
  -8  -6   7    2.53    1.24
   7   6  -7   14.90    1.85
  -7  -6   7   16.28    1.89
   6   6  -7    9.18    1.59
  -6  -6   7    5.93    1.44
   5   6  -7    0.66    1.02
  -5  -6   7    0.79    1.12
   4   6  -7    9.04    1.39
  -4  -6   7    6.49    1.21
  -4  -6   7    9.16    1.48
   3   6  -7   23.08    1.82
  -3  -6   7   23.80    1.70
  -3  -6   7   24.83    1.79
   2   6  -7   25.16    1.79
  -2  -6   7   21.39    1.68
  -2  -6   7   22.42    1.80
   1   6  -7    4.46    1.05
  -1  -6   7    3.87    1.03
  -1  -6   7    4.65    0.94
   0   6  -7   38.98    1.96
   0  -6   7   45.74    1.99
   0  -6   7   44.11    2.17
   1  -6   7    0.84    0.83
   1  -6   7    1.11    0.73
   2  -6   7    2.79    1.02
   2  -6   7    1.14    0.71
   3  -6   7    1.68    0.85
   3  -6   7    0.01    0.64
   4  -6   7  119.01    3.77
   5  -6   7   17.59    1.35
   6  -6   7   39.80    1.95
   7  -6   7  103.25    3.58
  -9   6  -7    6.89    0.78
 -10   6  -7    0.36    0.56
 -11   6  -7   11.01    1.24
 -12   6  -7    6.87    1.52
 -12   6  -7    7.50    1.20
 -13   6  -7   56.77    3.12
 -13   6  -7   58.84    2.60
 -14   6  -7   23.14    2.25
 -14   6  -7   23.58    2.14
 -15   6  -7   -0.59    1.33
 -15   6  -7    0.06    1.25
 -16   6  -7   12.76    1.91
 -16   6  -7   12.00    1.96
 -17   6  -7    0.20    1.46
 -17   6  -7   -0.51    1.34
 -18   6  -7    9.37    1.85
 -18   6  -7    7.41    1.88
 -19   6  -7    2.33    1.62
 -19   6  -7    0.11    1.62
  14   5  -7    1.48    1.80
  13   5  -7   19.15    2.44
  12   5  -7   35.86    2.98
  11   5  -7    1.54    1.62
 -11  -5   7    3.00    1.42
  10   5  -7   16.91    2.02
 -10  -5   7   15.65    1.99
   9   5  -7   -0.04    1.35
  -9  -5   7   -1.08    1.24
   8   5  -7    1.54    1.22
  -8  -5   7   -0.18    1.10
   7   5  -7   17.55    1.85
  -7  -5   7   15.16    1.80
   6   5  -7   10.04    1.52
  -6  -5   7    8.64    1.49
   5   5  -7   18.24    1.73
  -5  -5   7   16.69    1.64
  -5  -5   7   15.93    1.54
   4   5  -7    1.81    1.03
  -4  -5   7    0.05    0.90
  -4  -5   7    0.00    0.90
   3   5  -7   61.25    2.77
  -3  -5   7   65.62    2.86
  -3  -5   7   62.40    2.61
   2   5  -7    0.49    0.89
  -2  -5   7    0.05    0.85
  -2  -5   7    0.63    0.85
  -1  -5   7   18.93    1.64
  -1  -5   7   18.52    1.42
   0  -5   7    0.48    0.82
   0  -5   7   -0.37    0.68
   1  -5   7   39.64    2.03
   1  -5   7   36.54    1.79
   2  -5   7    1.61    0.94
   2  -5   7    1.37    0.72
   3  -5   7   27.39    1.52
   4  -5   7   57.21    2.30
   5  -5   7   -0.23    0.74
   6  -5   7    1.13    0.87
  -9   5  -7    6.21    0.82
 -11   5  -7    0.94    0.85
 -12   5  -7   10.41    1.10
 -12   5  -7   10.24    1.65
 -13   5  -7    8.90    1.65
 -14   5  -7   14.48    1.88
 -14   5  -7   17.86    1.91
 -15   5  -7    1.53    1.44
 -15   5  -7    1.62    1.26
 -16   5  -7   34.87    2.74
 -16   5  -7   38.80    2.73
 -17   5  -7   13.27    2.01
 -17   5  -7   15.34    2.07
 -18   5  -7   -0.92    1.49
 -18   5  -7   -1.16    1.36
 -19   5  -7    7.68    1.94
 -19   5  -7   10.82    2.03
  14   4  -7   12.23    2.19
  13   4  -7   -0.20    1.60
  12   4  -7    8.82    1.74
  11   4  -7    4.02    1.59
 -11  -4   7    0.00    1.34
  10   4  -7   25.39    2.36
 -10  -4   7   23.65    2.22
   9   4  -7   20.51    2.17
  -9  -4   7   22.24    2.09
   8   4  -7   -0.61    1.08
  -8  -4   7   -0.24    1.15
   7   4  -7   38.52    2.35
  -7  -4   7   44.39    2.49
   6   4  -7    1.01    1.14
  -6  -4   7   -0.14    1.05
  -6  -4   7    1.22    1.05
   5   4  -7    7.84    1.34
  -5  -4   7    3.67    1.08
  -5  -4   7    6.90    1.20
   4   4  -7   -0.62    0.96
  -4  -4   7    1.27    0.91
  -4  -4   7   -0.46    0.75
   3   4  -7   85.04    3.31
  -3  -4   7   85.70    3.19
  -3  -4   7   90.43    3.38
  -2  -4   7  141.90    4.64
  -2  -4   7  135.94    4.40
  -1  -4   7   60.98    2.60
  -1  -4   7   58.92    2.43
   0  -4   7   93.98    3.28
   0  -4   7   99.00    3.54
   1  -4   7    2.86    0.81
   1  -4   7    3.45    1.02
   2  -4   7    2.45    0.82
   3  -4   7   39.06    1.89
   4  -4   7   82.16    2.97
   5  -4   7   37.14    1.94
 -11   4  -7    6.68    0.93
 -11   4  -7    4.92    1.43
 -12   4  -7   11.95    1.72
 -12   4  -7   12.13    1.03
 -13   4  -7    1.14    1.20
 -13   4  -7   -0.16    1.05
 -14   4  -7    2.01    1.23
 -14   4  -7    0.85    1.39
 -15   4  -7    5.24    1.56
 -15   4  -7    3.31    1.41
 -16   4  -7    2.87    1.54
 -16   4  -7    2.05    1.55
 -17   4  -7    8.48    1.83
 -17   4  -7    4.90    1.74
 -18   4  -7    0.21    1.45
 -18   4  -7    2.10    1.67
  15   3  -7    4.75    1.96
  14   3  -7    2.38    1.71
  13   3  -7    1.25    1.53
  12   3  -7    4.13    1.62
 -12  -3   7    2.52    1.49
  11   3  -7    4.14    1.57
 -11  -3   7    3.70    1.46
  10   3  -7   -0.07    1.35
 -10  -3   7    0.02    1.22
   9   3  -7    8.46    1.58
  -9  -3   7    9.44    1.51
   8   3  -7    4.32    1.38
  -8  -3   7    4.82    1.22
  -8  -3   7    4.87    1.25
   7   3  -7   27.56    2.12
  -7  -3   7   25.77    2.00
  -7  -3   7   26.50    2.03
   6   3  -7    5.23    1.27
  -6  -3   7    7.19    1.29
  -6  -3   7    7.43    1.20
   5   3  -7   -0.85    0.93
  -5  -3   7   -0.58    0.82
  -5  -3   7    1.71    0.89
  -4  -3   7   48.95    2.23
  -4  -3   7   43.31    2.22
  -3  -3   7   -0.78    0.75
  -3  -3   7    0.63    0.75
  -2  -3   7   29.01    1.77
  -2  -3   7   31.48    1.80
  -1  -3   7   45.38    2.01
  -1  -3   7   46.69    2.21
   0  -3   7  263.51    7.46
   0  -3   7  248.11    7.24
   1  -3   7   63.04    2.52
   2  -3   7   22.29    1.53
   3  -3   7  241.73    6.94
   4  -3   7    2.00    0.92
   5  -3   7    1.70    0.92
 -10   3  -7   81.06    2.85
 -11   3  -7    5.11    0.74
 -11   3  -7    3.83    1.25
 -12   3  -7    2.20    1.29
 -12   3  -7    4.12    1.40
 -13   3  -7    1.96    1.33
 -13   3  -7    2.30    1.34
 -14   3  -7    7.63    1.58
 -14   3  -7    8.42    1.57
 -15   3  -7   -1.36    1.09
 -15   3  -7    1.26    1.50
 -16   3  -7    9.57    1.83
 -16   3  -7    4.83    1.55
 -17   3  -7   18.84    2.28
 -17   3  -7   23.88    2.56
 -18   3  -7   -0.79    1.40
 -18   3  -7    1.57    1.42
  16   2  -7   10.67    2.28
  15   2  -7    1.52    1.79
  14   2  -7    1.17    1.64
  13   2  -7   -1.02    1.25
  12   2  -7   15.91    2.10
 -12  -2   7   16.05    1.98
  11   2  -7    1.21    1.39
 -11  -2   7    1.05    1.31
  10   2  -7    8.22    1.64
 -10  -2   7   11.60    1.67
   9   2  -7   61.01    3.10
  -9  -2   7   61.54    3.00
   8   2  -7    4.21    1.33
  -8  -2   7    4.62    1.19
  -8  -2   7    2.72    1.19
   7   2  -7   15.13    1.67
  -7  -2   7   12.78    1.54
  -7  -2   7   15.17    1.52
   6   2  -7    1.24    1.10
  -6  -2   7   -1.02    0.78
  -6  -2   7   -0.69    0.81
  -5  -2   7   49.94    2.36
  -5  -2   7   54.28    2.43
  -4  -2   7    1.60    0.88
  -4  -2   7    2.28    0.94
  -3  -2   7    2.71    0.89
  -3  -2   7    1.92    0.87
  -2  -2   7    1.26    0.89
  -2  -2   7    1.56    0.78
  -1  -2   7   24.30    1.77
  -1  -2   7   24.43    1.54
   0  -2   7   44.06    2.12
   0  -2   7   45.19    2.10
   1  -2   7    2.21    0.90
   2  -2   7   46.72    2.10
   3  -2   7   61.69    2.57
   4  -2   7    2.20    0.96
 -10   2  -7  125.24    4.76
 -10   2  -7  132.96    3.91
 -11   2  -7    1.06    1.21
 -11   2  -7    1.53    1.18
 -12   2  -7    8.98    1.62
 -12   2  -7    7.15    1.55
 -13   2  -7   32.01    2.27
 -13   2  -7   24.13    2.28
 -14   2  -7    6.21    1.51
 -14   2  -7    5.16    1.45
 -15   2  -7    6.20    1.71
 -15   2  -7    6.31    1.69
 -16   2  -7   -0.78    1.46
 -16   2  -7    0.03    1.44
 -17   2  -7   19.84    2.36
 -17   2  -7   24.00    2.51
 -18   2  -7    3.69    1.69
 -18   2  -7    4.38    1.70
  16   1  -7   20.41    2.57
  15   1  -7    1.61    1.57
  14   1  -7    8.25    1.89
  13   1  -7    5.98    1.81
  12   1  -7    0.78    1.40
 -12  -1   7   -0.41    1.13
  11   1  -7    0.01    1.22
 -11  -1   7    0.89    1.14
  10   1  -7    4.99    1.37
 -10  -1   7    4.57    1.31
   9   1  -7  202.69    6.47
  -9  -1   7  208.19    6.37
  -9  -1   7  183.42    6.23
   8   1  -7   40.14    2.37
  -8  -1   7   41.71    2.24
  -8  -1   7   42.90    2.30
   7   1  -7  167.92    5.43
  -7  -1   7  168.18    5.39
  -7  -1   7  162.75    5.34
  -6  -1   7  112.74    3.95
  -6  -1   7  106.80    3.90
  -5  -1   7    0.26    0.88
  -5  -1   7    1.57    0.93
  -4  -1   7   38.93    2.01
  -4  -1   7   40.83    2.02
  -3  -1   7    4.60    1.02
  -3  -1   7    1.20    0.82
  -2  -1   7   64.84    2.66
  -2  -1   7   65.39    2.65
  -1  -1   7    2.87    0.86
  -1  -1   7    3.57    0.92
   0  -1   7  228.06    6.65
   1  -1   7  230.03    6.71
   2  -1   7    4.08    1.00
   3  -1   7   26.93    1.86
  -9   1  -7    8.25    1.41
  -9   1  -7    8.80    0.73
 -10   1  -7   47.80    2.62
 -10   1  -7   53.84    2.76
 -11   1  -7    1.30    1.23
 -11   1  -7    1.86    1.32
 -12   1  -7    7.85    1.63
 -12   1  -7    9.25    1.54
 -13   1  -7    1.51    1.27
 -13   1  -7    0.75    1.33
 -14   1  -7    0.20    1.40
 -14   1  -7    2.62    1.45
 -15   1  -7   10.64    1.93
 -15   1  -7    6.47    1.59
 -16   1  -7   19.05    2.29
 -16   1  -7   14.56    2.10
 -17   1  -7    2.38    1.68
 -17   1  -7    1.27    1.59
  17   0  -7    3.94    1.96
  16   0  -7    4.79    1.78
  15   0  -7   -0.35    1.61
  14   0  -7    0.18    1.55
  13   0  -7    3.06    1.41
 -13   0   7    3.06    1.39
  12   0  -7    0.27    1.36
 -12   0   7    1.34    1.22
  11   0  -7   45.34    2.68
 -11   0   7   47.89    2.64
  10   0  -7  120.44    4.56
 -10   0   7  122.14    4.46
 -10   0   7  125.66    4.47
   9   0  -7    5.75    1.40
  -9   0   7    5.99    1.25
  -9   0   7    3.65    1.08
  -8   0   7    9.51    1.35
  -8   0   7   10.51    1.38
  -7   0   7   18.16    1.59
  -7   0   7   17.50    1.59
  -6   0   7   46.63    2.29
  -6   0   7   44.85    2.32
  -5   0   7   -0.09    0.85
  -5   0   7   -0.38    0.75
  -4   0   7   94.74    3.44
  -4   0   7   94.61    3.36
  -3   0   7  272.11    7.82
  -3   0   7  275.10    7.85
  -2   0   7   44.36    2.10
  -2   0   7   45.60    2.23
  -1   0   7  221.19    6.47
   0   0   7   -0.78    0.72
   1   0   7  212.64    6.29
   2   0   7   43.49    2.16
   3   0   7  273.45    7.95
  -6   0  -7   41.40    1.91
  -7   0  -7   14.46    1.22
  -8   0  -7    9.79    0.76
  -9   0  -7    2.17    1.28
  -9   0  -7    5.22    1.26
 -10   0  -7  104.81    4.15
 -10   0  -7  110.30    4.34
 -11   0  -7   36.67    2.38
 -11   0  -7   43.79    2.59
 -12   0  -7   -0.50    1.26
 -12   0  -7    1.39    1.18
 -13   0  -7    1.01    1.36
 -13   0  -7    3.85    1.42
 -14   0  -7    0.76    1.32
 -14   0  -7   -0.78    1.30
 -15   0  -7    0.20    1.52
 -15   0  -7    0.36    1.46
 -16   0  -7    5.09    1.72
 -16   0  -7    2.80    1.56
 -17   0  -7    1.02    1.61
 -17   0  -7    3.67    1.89
  17  -1  -7    0.07    1.66
  16  -1  -7   18.66    2.29
  15  -1  -7   14.58    2.19
  14  -1  -7   -0.05    1.46
  13  -1  -7    0.06    1.40
 -13   1   7    0.79    1.21
  12  -1  -7   10.53    1.67
 -12   1   7   12.69    1.59
  11  -1  -7    3.32    1.39
 -11   1   7    4.99    1.29
 -11   1   7    3.58    1.33
  10  -1  -7   59.13    2.95
 -10   1   7   59.61    2.82
 -10   1   7   63.95    3.00
  -9   1   7    9.79    1.28
  -9   1   7   11.57    1.45
  -8   1   7   11.54    1.46
  -8   1   7   13.78    1.46
  -7   1   7    5.56    1.10
  -7   1   7    3.43    1.05
  -6   1   7   20.99    1.57
  -6   1   7   22.10    1.54
  -5   1   7   58.05    2.48
  -5   1   7   64.62    2.68
  -4   1   7   44.69    2.12
  -4   1   7   48.68    2.31
  -3   1   7   23.86    1.73
  -3   1   7   23.60    1.59
  -2   1   7    2.91    0.89
  -2   1   7    1.92    0.91
  -1   1   7  225.04    6.66
   0   1   7  231.88    6.81
   1   1   7    3.18    1.01
   2   1   7   66.32    2.77
  -3  -1  -7    2.97    0.83
  -4  -1  -7   37.25    1.92
  -5  -1  -7    0.15    0.64
  -6  -1  -7   98.01    3.21
  -7  -1  -7  152.53    4.49
  -8  -1  -7   35.47    2.19
  -8  -1  -7   40.41    2.45
  -9  -1  -7  169.47    5.72
  -9  -1  -7  172.23    5.80
 -10  -1  -7    2.54    1.18
 -10  -1  -7    2.98    1.36
 -11  -1  -7    1.62    1.17
 -11  -1  -7    2.38    1.23
 -12  -1  -7   -0.76    1.17
 -12  -1  -7   -1.20    1.04
 -13  -1  -7    7.25    1.62
 -13  -1  -7   10.33    1.70
 -14  -1  -7    8.17    1.73
 -14  -1  -7    7.40    1.66
 -15  -1  -7   -0.62    1.46
 -15  -1  -7    0.65    1.38
 -16  -1  -7   14.42    2.19
 -16  -1  -7   17.91    2.35
  18  -2  -7    1.88    1.68
  17  -2  -7   26.71    2.66
  16  -2  -7    0.39    1.64
  15  -2  -7    6.34    1.64
  14  -2  -7    8.02    1.64
  13  -2  -7   38.21    2.67
 -13   2   7   30.91    2.26
  12  -2  -7    7.52    1.54
 -12   2   7    8.54    1.44
 -12   2   7    7.14    1.51
  11  -2  -7    0.94    1.30
 -11   2   7    2.01    1.08
 -11   2   7    1.72    1.13
 -10   2   7  139.62    4.79
 -10   2   7  130.08    4.55
  -9   2   7    2.21    1.06
  -9   2   7    2.80    1.00
  -8   2   7   23.99    1.71
  -8   2   7   21.72    1.78
  -7   2   7   -0.19    0.81
  -7   2   7   -0.11    0.84
  -6   2   7  137.17    4.43
  -6   2   7  139.03    4.55
  -5   2   7   27.79    1.63
  -5   2   7   27.49    1.73
  -4   2   7    1.98    0.89
  -4   2   7    1.84    0.90
  -3   2   7   70.40    2.66
  -3   2   7   63.84    2.69
  -2   2   7   45.32    2.17
  -1   2   7    3.53    0.94
   0   2   7   40.27    2.06
   1   2   7   24.16    1.84
  -3  -2  -7    0.84    0.73
  -4  -2  -7    0.95    0.70
  -5  -2  -7   49.26    2.06
  -6  -2  -7    0.94    0.59
  -7  -2  -7   12.44    0.98
  -7  -2  -7   10.66    1.47
  -7  -2  -7   13.36    1.60
  -8  -2  -7    2.88    1.21
  -8  -2  -7    4.41    1.26
  -9  -2  -7   54.25    2.90
  -9  -2  -7   49.82    2.74
 -10  -2  -7    9.99    1.64
 -10  -2  -7    8.27    1.60
 -11  -2  -7    0.88    1.29
 -11  -2  -7    0.17    1.31
 -12  -2  -7   14.26    2.00
 -12  -2  -7   14.60    1.88
 -13  -2  -7   -0.97    1.32
 -13  -2  -7   -0.32    1.46
 -14  -2  -7   -0.80    1.44
 -14  -2  -7    2.15    1.37
 -15  -2  -7    0.19    1.52
 -15  -2  -7   -0.13    1.57
 -16  -2  -7   13.67    2.31
 -16  -2  -7    8.64    1.95
  18  -3  -7   -0.01    1.76
  17  -3  -7   23.25    2.61
  16  -3  -7    6.40    1.80
  15  -3  -7    0.26    1.31
  14  -3  -7    7.43    1.70
 -14   3   7    6.47    1.46
  13  -3  -7    0.84    1.33
 -13   3   7    0.24    1.06
 -13   3   7   -0.34    1.21
  12  -3  -7    1.83    1.36
 -12   3   7    0.20    1.05
 -12   3   7    2.87    1.29
 -11   3   7    6.95    1.41
 -11   3   7    6.56    1.23
 -10   3   7   84.76    3.25
 -10   3   7   82.50    3.47
  -9   3   7   23.76    1.94
  -9   3   7   24.49    1.74
  -8   3   7   65.23    2.70
  -8   3   7   67.09    2.90
  -7   3   7   84.80    3.29
  -7   3   7   89.24    3.18
  -6   3   7    0.05    0.79
  -6   3   7   -0.66    0.85
  -5   3   7    1.04    0.82
  -5   3   7   -0.26    0.83
  -4   3   7    2.32    0.88
  -4   3   7    1.95    0.86
  -3   3   7  253.37    7.40
  -2   3   7   21.04    1.58
  -1   3   7   64.04    2.79
   0   3   7  235.83    6.99
   1   3   7   46.52    2.45
  -3  -3  -7    0.19    0.70
  -4  -3  -7   43.89    2.02
  -5  -3  -7    0.28    0.62
  -6  -3  -7    4.13    1.22
  -6  -3  -7    6.50    1.34
  -6  -3  -7    7.37    0.77
  -7  -3  -7   21.58    1.87
  -7  -3  -7   25.72    1.16
  -7  -3  -7   23.60    2.04
  -8  -3  -7    3.56    1.31
  -8  -3  -7    6.05    1.28
  -9  -3  -7    7.81    1.52
  -9  -3  -7    7.02    1.54
 -10  -3  -7    1.19    1.34
 -10  -3  -7    0.32    1.26
 -11  -3  -7    4.65    1.43
 -11  -3  -7    5.53    1.58
 -12  -3  -7    0.03    1.39
 -12  -3  -7    0.78    1.24
 -13  -3  -7    2.90    1.50
 -13  -3  -7   -0.11    1.30
 -14  -3  -7    5.60    1.63
 -14  -3  -7    5.06    1.77
 -15  -3  -7    4.50    1.87
 -15  -3  -7    3.55    1.60
  18  -4  -7    4.12    1.82
  17  -4  -7    7.53    1.89
  16  -4  -7    4.40    1.54
  15  -4  -7    4.07    1.59
  14  -4  -7    0.93    1.28
 -14   4   7    2.04    1.16
  13  -4  -7    1.99    1.29
 -13   4   7    0.69    1.25
 -13   4   7    1.47    1.09
 -12   4   7   11.03    1.42
 -12   4   7   12.09    1.64
 -11   4   7    6.40    1.32
 -11   4   7    4.72    1.13
 -10   4   7    9.97    1.26
 -10   4   7    9.59    1.46
  -9   4   7    1.54    0.89
  -9   4   7    0.60    0.92
  -8   4   7    1.25    0.98
  -8   4   7    0.35    0.77
  -7   4   7   46.02    2.35
  -7   4   7   47.42    2.13
  -6   4   7    2.32    0.85
  -6   4   7    2.53    0.98
  -5   4   7   45.58    2.05
  -5   4   7   38.40    2.17
  -4   4   7   91.00    3.43
  -4   4   7   94.02    3.26
  -3   4   7   45.61    2.32
  -2   4   7    2.32    0.99
  -1   4   7    3.28    0.96
   0   4   7   93.10    3.58
   1   4   7   61.94    2.78
  -3  -4  -7   86.11    3.12
  -4  -4  -7   -0.50    0.65
  -5  -4  -7    5.67    1.22
  -5  -4  -7    5.32    1.25
  -5  -4  -7    7.04    0.83
  -6  -4  -7    0.41    1.08
  -6  -4  -7    0.81    0.55
  -6  -4  -7    1.29    1.13
  -7  -4  -7   35.49    2.32
  -7  -4  -7   35.70    2.35
  -8  -4  -7   -0.71    1.19
  -8  -4  -7   -1.31    1.10
  -9  -4  -7   19.38    2.02
  -9  -4  -7   16.35    1.84
 -10  -4  -7   23.19    2.28
 -10  -4  -7   22.88    2.22
 -11  -4  -7    0.28    1.37
 -11  -4  -7    2.67    1.47
 -12  -4  -7    5.84    1.65
 -12  -4  -7    7.73    1.80
 -13  -4  -7   -3.42    1.38
 -13  -4  -7    0.61    1.35
 -14  -4  -7   15.76    2.23
 -14  -4  -7   14.98    2.18
  19  -5  -7   11.67    2.18
  18  -5  -7   -1.36    1.47
  17  -5  -7   17.03    2.24
  16  -5  -7   40.50    2.90
  15  -5  -7    1.91    1.45
  14  -5  -7   19.34    2.08
 -14   5   7   18.93    1.78
 -14   5   7   18.79    1.97
 -13   5   7    9.81    1.35
 -13   5   7    8.30    1.58
 -12   5   7    8.66    1.53
 -12   5   7    8.93    1.27
 -11   5   7    0.97    0.92
 -11   5   7   -1.23    1.04
 -10   5   7   19.14    1.51
 -10   5   7   14.74    1.58
  -9   5   7    5.16    1.15
  -9   5   7    5.38    1.05
  -8   5   7    0.69    0.97
  -8   5   7    0.44    0.75
  -7   5   7   55.98    2.31
  -7   5   7   55.94    2.62
  -6   5   7   -0.38    0.81
  -6   5   7    1.08    0.80
  -5   5   7   -0.25    0.79
  -5   5   7   -0.86    0.74
  -4   5   7   54.47    2.46
  -3   5   7   27.74    1.90
  -2   5   7    0.59    0.88
  -1   5   7   36.99    2.20
   0   5   7    0.06    0.90
  -3  -5  -7   60.27    2.50
  -4  -5  -7    0.49    0.73
  -4  -5  -7   -0.23    0.84
  -4  -5  -7    0.33    0.98
  -5  -5  -7   15.06    1.61
  -5  -5  -7   13.50    1.03
  -5  -5  -7   14.31    1.64
  -6  -5  -7    8.66    1.49
  -6  -5  -7    9.59    1.39
  -7  -5  -7   12.74    1.74
  -7  -5  -7   17.01    1.81
  -8  -5  -7   -0.12    1.21
  -8  -5  -7   -1.67    1.04
  -9  -5  -7    1.67    1.39
  -9  -5  -7    1.00    1.18
 -10  -5  -7   16.04    2.04
 -10  -5  -7   12.46    1.89
 -11  -5  -7    0.02    1.40
 -11  -5  -7    1.48    1.46
 -12  -5  -7   31.02    2.79
 -12  -5  -7   37.79    2.90
 -13  -5  -7   18.43    2.40
 -13  -5  -7   18.64    2.32
 -14  -5  -7    0.33    1.59
 -14  -5  -7   -0.49    1.60
  19  -6  -7    2.40    1.64
  18  -6  -7    9.69    1.89
  17  -6  -7    3.08    1.56
  16  -6  -7   13.04    1.85
  15  -6  -7   -1.04    1.25
 -14   6   7   24.94    1.90
 -14   6   7   30.88    2.35
 -13   6   7   68.35    2.86
 -13   6   7   58.04    2.94
 -12   6   7    7.83    1.41
 -12   6   7    9.37    1.22
 -11   6   7    9.40    1.21
 -11   6   7   10.14    1.53
 -10   6   7    0.58    0.83
 -10   6   7    0.42    0.96
   9  -6  -7    6.61    0.85
  -9   6   7    9.22    1.36
  -9   6   7    7.65    1.05
  -8   6   7   -0.53    0.77
  -8   6   7    0.91    0.99
  -7   6   7  115.34    4.01
  -7   6   7  110.90    3.68
  -6   6   7   42.81    2.01
  -6   6   7   44.99    2.30
  -5   6   7   22.75    1.49
  -5   6   7   18.34    1.65
  -4   6   7  133.21    4.50
  -4   6   7  135.90    4.84
  -3   6   7   -0.97    0.96
  -3   6   7    0.26    0.86
  -2   6   7    1.98    1.03
  -2   6   7    0.67    1.02
  -1   6   7    2.38    0.98
  -1   6   7    1.20    0.96
   0   6   7   46.09    2.54
   0   6   7   43.80    2.33
  -2  -6  -7   23.09    1.72
  -3  -6  -7   22.65    1.77
  -3  -6  -7   21.17    1.77
  -4  -6  -7    7.89    0.95
  -4  -6  -7    9.08    1.41
  -4  -6  -7    8.52    1.32
  -5  -6  -7   -0.05    1.08
  -5  -6  -7   -1.12    0.97
  -6  -6  -7    7.29    1.43
  -6  -6  -7    7.17    1.48
  -7  -6  -7   16.47    1.87
  -7  -6  -7   18.47    1.93
  -8  -6  -7    1.03    1.18
  -8  -6  -7   -0.02    1.25
  -9  -6  -7    0.96    1.39
  -9  -6  -7    4.56    1.52
 -10  -6  -7    0.46    1.26
 -10  -6  -7    0.19    1.39
 -11  -6  -7   24.65    2.49
 -11  -6  -7   18.67    2.32
 -12  -6  -7   -0.44    1.51
 -12  -6  -7   -0.09    1.37
 -13  -6  -7    5.39    1.87
 -13  -6  -7    6.37    1.87
  19  -7  -7    2.68    1.59
  18  -7  -7    4.64    1.64
  17  -7  -7    9.17    1.80
  16  -7  -7    1.07    1.35
  15  -7  -7   23.12    2.24
 -15   7   7   25.79    2.28
 -14   7   7    0.61    1.02
 -14   7   7    0.81    1.24
 -13   7   7   18.52    1.88
 -13   7   7   17.91    1.56
 -12   7   7   17.39    1.47
 -12   7   7   15.45    1.74
  11  -7  -7   39.67    1.81
 -11   7   7   41.06    2.02
 -11   7   7   42.63    2.41
  10  -7  -7   26.74    1.45
 -10   7   7   23.90    1.84
 -10   7   7   29.68    1.68
   9  -7  -7   12.64    1.01
  -9   7   7   12.27    1.43
  -9   7   7   14.73    1.24
  -8   7   7  171.13    5.08
  -8   7   7  174.73    6.11
  -8   7   7  166.74    5.43
  -7   7   7   15.89    1.84
  -7   7   7   20.13    1.42
  -7   7   7   17.22    1.62
  -6   7   7    5.83    1.17
  -6   7   7    4.19    0.91
  -6   7   7    2.97    1.23
  -5   7   7    0.21    1.05
  -5   7   7    0.92    0.95
  -4   7   7   85.73    3.57
  -4   7   7   81.35    3.23
  -3   7   7   46.36    2.59
  -3   7   7   48.84    2.51
  -2   7   7   49.01    2.55
  -2   7   7   49.81    2.47
  -1   7   7  112.78    4.22
  -1   7   7  111.91    4.12
   0   7   7   19.11    1.62
  -1  -7  -7   13.04    1.35
   1   7   7   13.72    1.36
  -2  -7  -7    2.71    1.07
  -2  -7  -7    1.45    1.00
   2   7   7    2.84    0.96
  -3  -7  -7   79.64    3.19
  -3  -7  -7   78.28    3.19
   3   7   7   74.01    2.99
  -4  -7  -7    5.48    1.26
  -4  -7  -7    5.07    1.29
  -5  -7  -7    9.61    1.49
  -5  -7  -7    8.56    1.41
  -6  -7  -7   63.71    3.10
  -6  -7  -7   61.33    3.12
  -7  -7  -7   -0.63    1.20
  -7  -7  -7    2.69    1.32
  -8  -7  -7    3.32    1.42
  -8  -7  -7    4.23    1.48
  -9  -7  -7    0.28    1.34
  -9  -7  -7    1.22    1.43
 -10  -7  -7   22.09    2.31
 -10  -7  -7   21.54    2.36
 -11  -7  -7    2.80    1.65
 -11  -7  -7    4.08    1.67
 -12  -7  -7   -1.23    1.54
 -12  -7  -7    0.02    1.56
  19  -8  -7   -0.89    1.39
  18  -8  -7   -0.75    1.31
  17  -8  -7    2.17    1.48
  16  -8  -7   12.05    1.80
 -16   8   7   16.05    1.89
 -15   8   7    1.94    1.21
 -14   8   7    0.15    0.88
 -14   8   7   -1.50    1.00
 -13   8   7    2.93    0.98
 -13   8   7    0.05    1.17
 -12   8   7    1.01    1.18
 -12   8   7    0.90    0.83
  11  -8  -7    3.80    0.74
 -11   8   7    3.78    0.96
 -11   8   7    7.27    1.36
  10  -8  -7    4.71    0.73
 -10   8   7    4.72    1.55
 -10   8   7    4.75    0.94
 -10   8   7    3.67    1.21
   9  -8  -7   40.88    1.70
  -9   8   7   40.71    2.35
  -9   8   7   43.37    2.84
  -9   8   7   43.57    1.92
  -8   8   7   10.78    1.69
  -8   8   7   13.16    1.16
  -8   8   7   10.12    1.42
  -7   8   7   15.25    1.22
  -7   8   7   13.65    1.50
  -7   8   7   11.68    1.71
  -6   8   7   21.10    1.45
  -6   8   7   24.43    2.06
  -6   8   7   23.05    1.72
  -5   8   7   64.00    3.10
  -5   8   7   61.77    2.84
  -4   8   7    1.20    1.08
  -4   8   7    0.08    0.90
  -3   8   7    0.85    1.03
  -3   8   7    0.71    1.01
  -2   8   7    0.21    1.08
  -2   8   7    0.19    0.94
   1  -8  -7  154.30    4.79
  -1   8   7  159.72    5.35
  -1   8   7  153.13    5.20
   0  -8  -7    9.76    1.26
   0   8   7   12.79    1.41
  -1  -8  -7    8.18    1.26
  -1  -8  -7    8.86    1.32
   1   8   7    9.95    1.27
  -2  -8  -7  127.67    4.50
  -2  -8  -7  131.47    4.48
   2   8   7  132.15    4.45
  -3  -8  -7    5.43    1.23
  -3  -8  -7    3.65    1.13
   3   8   7    5.74    1.09
  -4  -8  -7   10.58    1.53
  -4  -8  -7   10.55    1.48
   4   8   7   12.50    1.26
  -5  -8  -7    9.83    1.54
  -5  -8  -7   10.60    1.55
  -6  -8  -7   26.47    2.25
  -6  -8  -7   27.68    2.28
  -7  -8  -7   17.17    1.96
  -7  -8  -7   20.12    2.10
  -8  -8  -7   14.00    1.96
  -8  -8  -7   16.11    2.04
  -9  -8  -7   26.63    2.44
  -9  -8  -7   30.85    2.65
 -10  -8  -7   -0.17    1.51
 -10  -8  -7    3.94    1.65
 -11  -8  -7    3.89    1.71
 -11  -8  -7    3.15    1.68
  19  -9  -7    8.88    1.82
  18  -9  -7   14.53    2.03
  17  -9  -7   28.28    2.48
 -16   9   7    1.82    1.38
 -15   9   7    3.34    1.39
 -14   9   7   -0.31    1.19
 -14   9   7   -0.04    0.83
 -13   9   7   18.11    1.89
 -13   9   7   19.49    1.54
 -12   9   7   10.10    1.96
 -12   9   7    8.50    1.07
 -12   9   7    8.41    1.42
  11  -9  -7   60.22    2.16
 -11   9   7   63.21    2.91
 -11   9   7   59.22    3.51
 -11   9   7   64.24    2.41
  10  -9  -7  208.46    5.63
 -10   9   7  207.83    5.89
 -10   9   7  210.58    7.22
 -10   9   7  195.82    6.36
   9  -9  -7    4.03    0.67
  -9   9   7    6.51    1.55
  -9   9   7    6.30    1.27
  -9   9   7    5.49    0.86
  -8   9   7   10.20    1.68
  -8   9   7    9.96    1.31
  -8   9   7    8.84    1.00
  -7   9   7    2.08    0.81
  -7   9   7    1.84    1.06
  -7   9   7    2.65    1.30
  -6   9   7   26.60    2.19
  -6   9   7   26.98    1.87
  -5   9   7    0.42    1.08
  -5   9   7   -0.72    0.84
  -4   9   7    4.90    1.29
  -4   9   7    5.32    1.32
   3  -9  -7    5.68    0.93
  -3   9   7    7.71    1.34
  -3   9   7    7.35    1.33
   2  -9  -7   13.42    1.29
  -2   9   7   13.28    1.66
  -2   9   7   12.84    1.55
   1  -9  -7   37.29    1.99
  -1   9   7   39.34    2.36
  -1   9   7   37.87    2.35
   0  -9  -7    4.03    1.05
   0  -9  -7    5.43    1.09
   0   9   7    4.71    1.17
  -1  -9  -7   58.96    2.65
  -1  -9  -7   58.37    2.60
   1   9   7   56.90    2.69
  -2  -9  -7    1.96    1.13
  -2  -9  -7    2.23    1.12
   2   9   7    1.73    0.99
  -3  -9  -7    1.98    1.09
  -3  -9  -7    3.92    1.21
   3   9   7    3.09    1.04
  -4  -9  -7    1.34    1.20
  -4  -9  -7    0.06    1.11
   4   9   7    2.46    0.94
  -5  -9  -7   17.56    1.89
  -5  -9  -7   20.39    2.02
  -6  -9  -7    0.41    1.23
  -6  -9  -7    1.67    1.30
  -7  -9  -7    0.16    1.32
  -7  -9  -7   -0.17    1.38
  -8  -9  -7    1.38    1.48
  -8  -9  -7    2.79    1.49
  -9  -9  -7   13.26    2.07
  -9  -9  -7   11.26    1.99
 -10  -9  -7    1.19    1.60
 -10  -9  -7    0.53    1.53
  20 -10  -7    1.95    1.52
  19 -10  -7   -1.78    1.29
  18 -10  -7    0.29    1.38
  17 -10  -7   23.65    2.27
 -16  10   7    3.21    1.35
 -15  10   7   18.70    1.94
 -14  10   7   22.74    2.64
 -14  10   7   25.80    2.18
 -13  10   7    0.02    0.75
 -13  10   7    1.45    1.59
 -13  10   7    1.27    1.16
 -12  10   7    9.08    1.46
 -12  10   7   10.17    1.06
 -12  10   7   15.66    2.15
 -11  10   7    5.24    1.63
 -11  10   7    4.53    0.85
 -11  10   7    3.47    1.22
  10 -10  -7  132.02    3.66
 -10  10   7  127.71    3.93
 -10  10   7  131.20    4.56
 -10  10   7  125.73    5.13
   9 -10  -7   58.46    1.98
  -9  10   7   60.60    2.75
  -9  10   7   65.44    2.32
  -9  10   7   60.35    3.29
  -8  10   7  135.53    5.23
  -8  10   7  133.37    4.66
  -8  10   7  137.21    4.11
  -7  10   7   75.43    2.69
  -7  10   7   70.14    3.06
  -7  10   7   80.62    3.65
  -6  10   7    8.93    1.40
  -6  10   7   10.52    1.64
   5 -10  -7   16.51    1.18
  -5  10   7   14.56    1.74
  -5  10   7   17.00    1.68
   4 -10  -7    0.30    0.68
  -4  10   7    0.71    1.08
  -4  10   7    0.96    1.16
   3 -10  -7   26.14    1.59
  -3  10   7   23.41    2.01
  -3  10   7   30.59    2.22
   2 -10  -7    5.49    1.02
   2 -10  -7    3.00    0.92
  -2  10   7    3.75    1.19
  -2  10   7    3.42    1.33
   1 -10  -7  193.93    5.98
   1 -10  -7  198.75    5.92
  -1  10   7  201.99    6.53
  -1  10   7  200.88    6.47
   0 -10  -7  126.32    4.22
   0 -10  -7  123.72    4.22
   0  10   7  124.82    4.50
  -1 -10  -7    2.78    1.06
  -1 -10  -7    3.37    1.09
   1  10   7    2.35    1.09
  -2 -10  -7    9.30    1.39
  -2 -10  -7    9.14    1.38
   2  10   7   10.04    1.34
  -3 -10  -7    1.57    1.12
  -3 -10  -7    0.41    1.13
   3  10   7    0.51    0.97
  -4 -10  -7    0.96    1.19
  -4 -10  -7    0.16    1.19
   4  10   7    2.42    1.00
  -5 -10  -7    2.63    1.35
  -5 -10  -7    0.15    1.32
  -6 -10  -7   10.28    1.77
  -6 -10  -7    8.27    1.71
  -7 -10  -7    8.80    1.77
  -7 -10  -7    8.49    1.81
  -8 -10  -7    1.99    1.52
  -8 -10  -7   -0.95    1.44
  -9 -10  -7   11.87    1.95
  -9 -10  -7   10.16    2.06
 -10 -10  -7   -0.11    1.61
 -10 -10  -7   -2.10    1.58
  19 -11  -7    2.16    1.48
  18 -11  -7    2.80    1.48
 -17  11   7   28.83    2.42
 -16  11   7    3.42    1.36
 -15  11   7    1.21    1.23
 -15  11   7   -1.10    1.70
 -14  11   7    6.10    1.93
 -14  11   7    5.12    1.45
 -13  11   7    0.62    1.13
 -13  11   7   -1.35    1.52
 -12  11   7    3.31    0.79
 -12  11   7    3.41    1.64
 -12  11   7    0.43    1.13
 -11  11   7   48.09    1.94
 -11  11   7   50.56    2.61
 -11  11   7   47.55    3.18
 -10  11   7    5.30    1.60
 -10  11   7    4.12    0.77
 -10  11   7    2.28    1.11
  -9  11   7    1.68    0.69
  -9  11   7   -0.10    1.04
  -9  11   7    0.04    1.35
   8 -11  -7    4.97    0.62
  -8  11   7    6.95    1.57
  -8  11   7    7.30    0.89
  -8  11   7    5.55    1.22
   7 -11  -7    4.86    0.66
  -7  11   7    5.25    1.27
  -7  11   7    4.80    0.87
  -7  11   7    5.67    1.52
   6 -11  -7    0.59    0.62
  -6  11   7    0.56    1.27
  -6  11   7    0.78    1.05
   5 -11  -7   12.84    1.04
  -5  11   7   11.58    1.57
  -5  11   7   12.43    1.68
   4 -11  -7   38.95    1.82
  -4  11   7   38.61    2.41
  -4  11   7   42.92    2.61
   3 -11  -7    4.26    0.96
   3 -11  -7    6.03    0.97
  -3  11   7    5.97    1.30
  -3  11   7    7.08    1.43
   2 -11  -7   56.86    2.44
   2 -11  -7   61.12    2.49
  -2  11   7   59.44    3.00
  -2  11   7   56.98    3.02
   1 -11  -7    3.32    1.02
   1 -11  -7    3.53    1.03
  -1  11   7    5.83    1.48
  -1  11   7    5.74    1.32
   0 -11  -7   45.07    2.24
   0 -11  -7   40.72    2.17
   0  11   7   41.41    2.47
  -1 -11  -7   10.16    1.37
  -1 -11  -7   11.36    1.50
   1  11   7   13.05    1.54
  -2 -11  -7   32.61    2.18
  -2 -11  -7   37.19    2.26
   2  11   7   32.63    2.23
  -3 -11  -7   10.78    1.57
  -3 -11  -7    7.93    1.42
   3  11   7    7.71    1.29
  -4 -11  -7    6.18    1.45
  -4 -11  -7    3.94    1.42
  -5 -11  -7   35.86    2.66
  -5 -11  -7   38.55    2.78
  -6 -11  -7    0.88    1.31
  -6 -11  -7   -0.73    1.38
  -7 -11  -7    3.74    1.64
  -7 -11  -7    7.43    1.80
  -8 -11  -7   -0.80    1.41
  -8 -11  -7    0.02    1.49
  19 -12  -7    1.09    1.37
 -17  12   7   36.53    2.57
 -16  12   7    7.35    2.16
 -16  12   7    8.18    1.60
 -15  12   7    2.56    1.85
 -15  12   7    0.91    1.25
 -14  12   7   16.77    1.83
 -14  12   7   14.52    2.27
 -13  12   7   -0.40    1.52
 -13  12   7    0.53    1.08
 -12  12   7    0.29    1.53
 -12  12   7    0.95    1.17
 -11  12   7   11.06    1.93
 -11  12   7   11.10    1.49
 -10  12   7    9.38    1.45
 -10  12   7    5.88    1.69
 -10  12   7   10.76    0.90
  -9  12   7    2.84    1.15
  -9  12   7    1.54    0.68
  -9  12   7    2.57    1.46
   8 -12  -7   11.11    0.71
  -8  12   7   11.98    1.54
  -8  12   7   10.44    0.99
  -8  12   7   11.68    1.86
   7 -12  -7    9.19    0.74
  -7  12   7   10.28    1.46
  -7  12   7    9.22    1.67
   6 -12  -7    8.43    0.84
  -6  12   7    8.00    1.61
  -6  12   7    8.86    1.46
   5 -12  -7   16.25    1.16
   5 -12  -7   15.83    1.18
  -5  12   7   12.85    1.66
  -5  12   7   17.20    1.95
   4 -12  -7    1.13    0.73
   4 -12  -7    0.19    0.75
  -4  12   7    0.62    1.16
  -4  12   7   -0.25    1.20
   3 -12  -7   10.30    1.12
   3 -12  -7    7.52    1.04
  -3  12   7    6.99    1.44
  -3  12   7    8.33    1.53
   2 -12  -7    9.63    1.15
   2 -12  -7   10.17    1.25
  -2  12   7    9.50    1.65
  -2  12   7    8.68    1.56
   1 -12  -7    3.65    1.02
   1 -12  -7    3.25    1.05
  -1  12   7    3.04    1.26
   0 -12  -7    0.28    0.99
   0 -12  -7    1.39    1.06
   0  12   7    2.83    1.23
  -1 -12  -7    0.18    1.07
  -1 -12  -7    1.85    1.16
   1  12   7    1.67    1.15
  -2 -12  -7    8.09    1.40
  -2 -12  -7    7.53    1.45
   2  12   7    6.70    1.32
  -3 -12  -7   -1.48    1.12
  -3 -12  -7    1.36    1.31
   3  12   7    0.73    1.08
  -4 -12  -7    1.20    1.32
  -4 -12  -7    3.65    1.30
  -5 -12  -7   17.04    2.00
  -5 -12  -7   22.73    2.23
  -6 -12  -7    9.06    1.86
  -6 -12  -7    6.40    1.70
  -7 -12  -7    1.74    1.47
  -7 -12  -7    3.02    1.56
  19 -13  -7    7.78    1.72
 -18  13   7   19.77    2.82
 -17  13   7    0.57    1.88
 -17  13   7    1.09    1.32
 -16  13   7    1.38    1.86
 -16  13   7    0.74    1.21
 -15  13   7    2.26    1.23
 -15  13   7    1.68    1.77
 -14  13   7    9.63    1.54
 -14  13   7    9.60    2.10
 -13  13   7    5.41    1.84
 -13  13   7    3.78    1.31
 -12  13   7    0.89    1.55
 -12  13   7    0.70    1.15
 -11  13   7   32.35    2.19
 -11  13   7   32.86    2.82
 -10  13   7    0.54    1.08
 -10  13   7   -0.55    1.43
  -9  13   7   -0.11    1.05
  -9  13   7    1.60    1.44
  -8  13   7   13.08    1.58
  -8  13   7   10.20    0.97
  -8  13   7   11.07    1.91
  -7  13   7   62.21    2.95
  -7  13   7   64.59    3.44
   6 -13  -7   17.45    1.18
   6 -13  -7   17.26    1.15
  -6  13   7   17.10    2.00
  -6  13   7   14.30    1.71
   5 -13  -7    2.18    0.72
   5 -13  -7    3.24    0.79
  -5  13   7   -0.17    1.14
  -5  13   7   -0.12    1.31
   4 -13  -7   22.88    1.48
   4 -13  -7   21.49    1.43
  -4  13   7   14.47    1.74
  -4  13   7   19.69    2.03
   3 -13  -7    1.20    0.82
   3 -13  -7    0.24    0.85
  -3  13   7    1.55    1.27
  -3  13   7    1.15    1.27
   2 -13  -7    0.35    0.86
   2 -13  -7    2.35    1.02
  -2  13   7   -0.15    1.22
  -2  13   7    2.89    1.38
   1 -13  -7   -0.62    0.88
   1 -13  -7   -0.59    1.00
  -1  13   7   -0.10    1.16
   0 -13  -7    2.73    1.17
   0 -13  -7    4.41    1.12
   0  13   7    3.51    1.35
  -1 -13  -7    2.03    1.22
  -1 -13  -7    3.20    1.12
   1  13   7    1.18    1.22
  -2 -13  -7    9.46    1.51
  -2 -13  -7    6.20    1.48
   2  13   7    7.26    1.43
  -3 -13  -7    6.99    1.54
  -3 -13  -7    6.37    1.47
  -4 -13  -7    8.89    1.75
  -4 -13  -7    8.94    1.66
  -5 -13  -7   -0.69    1.40
  -5 -13  -7    0.56    1.34
  -6 -13  -7    2.64    1.56
  -6 -13  -7   -2.06    1.28
 -19  14   7    2.17    2.12
 -18  14   7   16.86    2.01
 -18  14   7   17.28    2.78
 -17  14   7    4.95    2.14
 -17  14   7    4.65    1.50
 -16  14   7    2.37    1.28
 -16  14   7    1.65    1.83
 -15  14   7    6.98    2.10
 -15  14   7   10.45    1.58
 -14  14   7   -1.55    1.14
 -14  14   7    0.12    1.66
 -13  14   7    3.55    1.19
 -13  14   7    2.30    1.68
 -12  14   7    7.91    1.43
 -12  14   7    7.25    1.91
 -11  14   7    8.51    1.42
 -11  14   7    8.88    1.93
 -10  14   7   -0.94    1.48
 -10  14   7    1.99    1.16
  -9  14   7   21.61    1.94
  -9  14   7   22.38    2.36
  -8  14   7   27.54    2.50
  -8  14   7   30.72    2.16
  -7  14   7    0.37    1.41
  -7  14   7    0.35    1.10
  -6  14   7   -1.20    1.36
  -6  14   7    2.60    1.21
  -5  14   7    0.95    1.14
  -5  14   7    0.73    1.36
   4 -14  -7   22.38    1.55
  -4  14   7   21.92    2.05
  -4  14   7   24.22    2.27
   3 -14  -7    5.49    1.08
  -3  14   7    5.33    1.51
  -3  14   7    4.77    1.52
   2 -14  -7   17.79    1.58
  -2  14   7   14.34    1.97
  -2  14   7   16.73    1.90
   1 -14  -7    8.67    1.41
  -1  14   7    8.86    1.63
   0 -14  -7   -0.65    1.08
   0  14   7    0.23    1.22
  -1 -14  -7   10.61    1.62
   1  14   7   12.10    1.67
  -2 -14  -7   -0.73    1.27
  -3 -14  -7   24.27    2.28
  -4 -14  -7    1.52    1.37
  -5 -14  -7   11.53    1.90
 -18  15   7    4.15    2.24
 -18  15   7    7.02    1.61
 -17  15   7    3.80    1.46
 -17  15   7    3.91    2.09
 -16  15   7    2.77    1.28
 -16  15   7    0.70    1.86
 -15  15   7    0.35    1.13
 -15  15   7   -2.17    1.63
 -14  15   7   12.11    1.60
 -14  15   7   10.94    2.18
 -13  15   7    6.08    1.37
 -13  15   7    6.84    1.96
 -12  15   7    1.24    1.67
 -12  15   7   -0.66    1.02
 -11  15   7    4.11    1.27
 -11  15   7    4.94    1.77
 -10  15   7    1.80    1.64
 -10  15   7    1.50    1.21
  -9  15   7   -0.75    1.47
  -9  15   7    0.72    1.06
  -8  15   7   22.05    2.36
  -8  15   7   17.35    1.78
  -7  15   7    4.09    1.66
  -7  15   7    2.43    1.19
  -6  15   7    3.51    1.55
  -6  15   7    4.80    1.34
  -5  15   7   15.74    1.88
  -5  15   7   13.56    1.97
  -4  15   7    0.59    1.20
  -4  15   7   -0.19    1.41
  -3  15   7    1.47    1.38
  -3  15   7   -0.01    1.40
  -2  15   7    1.28    1.42
  -2  15   7    1.13    1.37
   1 -15  -7   10.39    1.41
  -1  15   7    7.95    1.69
   0 -15  -7   -0.34    1.07
   0  15   7    2.93    1.39
  -1 -15  -7   21.12    1.98
   1  15   7   20.86    2.07
  -2 -15  -7   29.07    2.27
  -3 -15  -7    2.69    1.43
 -18  16   7   12.03    2.53
 -17  16   7   17.70    2.70
 -17  16   7   21.34    2.11
 -16  16   7    7.74    1.57
 -16  16   7   12.13    2.38
 -15  16   7   18.62    1.96
 -15  16   7   22.27    2.74
 -14  16   7    1.61    1.75
 -14  16   7   -0.21    1.08
 -13  16   7    7.39    1.42
 -13  16   7    5.50    1.97
 -12  16   7    3.91    1.90
 -12  16   7    4.72    1.28
 -11  16   7   39.44    2.44
 -11  16   7   35.11    3.06
 -10  16   7    7.91    1.97
 -10  16   7   12.03    1.58
  -9  16   7    1.50    1.60
  -9  16   7    0.50    1.15
  -8  16   7   10.34    1.60
  -8  16   7   13.61    2.11
  -7  16   7    1.35    1.20
  -7  16   7   -0.07    1.53
  -6  16   7   -2.51    1.11
  -6  16   7    2.21    1.59
  -5  16   7    2.81    1.60
  -5  16   7    2.24    1.35
  -4  16   7    5.95    1.71
  -4  16   7    6.54    1.49
  -3  16   7    0.40    1.30
  -3  16   7    0.38    1.45
  -2  16   7    1.91    1.47
  -2  16   7    1.54    1.55
  -1  16   7   -0.54    1.45
  -1  16   7   -0.06    1.41
   0  16   7   10.73    1.81
 -17  17   7    4.42    2.19
 -16  17   7    2.03    1.98
 -15  17   7   28.45    3.02
 -14  17   7   20.65    1.97
 -14  17   7   23.10    2.77
 -13  17   7    9.94    2.23
 -13  17   7   10.08    1.57
 -12  17   7   17.19    2.50
 -12  17   7   17.45    1.81
 -11  17   7    0.10    1.71
 -11  17   7   -1.60    1.04
 -10  17   7   10.84    2.19
 -10  17   7   13.01    1.64
  -9  17   7    0.86    1.20
  -9  17   7    1.87    1.66
  -8  17   7   30.05    2.28
  -8  17   7   25.28    2.70
  -7  17   7   23.73    2.13
  -7  17   7   20.36    2.41
  -6  17   7   30.56    2.76
  -6  17   7   24.20    2.19
  -5  17   7   32.67    2.42
  -5  17   7   32.44    2.78
  -4  17   7    0.98    1.31
  -4  17   7    0.38    1.58
  -3  17   7    3.61    1.68
  -3  17   7    4.06    1.55
  -2  17   7    2.48    1.66
  -2  17   7    1.62    1.55
  -1  17   7   23.29    2.36
  -1  17   7   21.61    2.52
 -16  18   7    2.92    2.01
 -15  18   7    3.46    2.04
 -14  18   7    1.06    1.94
 -13  18   7   -0.30    1.73
 -12  18   7    5.20    2.07
 -11  18   7    5.49    2.07
 -10  18   7    0.78    1.73
  -9  18   7   17.89    1.86
  -9  18   7   14.01    2.33
  -8  18   7    1.72    1.75
  -8  18   7    1.77    1.24
  -7  18   7    1.95    1.28
  -7  18   7    2.88    1.87
  -6  18   7   -0.18    1.18
  -6  18   7    0.21    1.64
  -5  18   7   21.92    2.20
  -5  18   7   21.15    2.42
  -4  18   7   15.41    1.94
  -4  18   7   18.25    2.35
  -3  18   7    5.16    1.80
  -3  18   7    6.30    1.68
  -2  18   7   10.50    1.95
  -2  18   7   10.65    2.03
 -14  19   7   10.87    2.43
 -13  19   7   -1.98    1.75
 -12  19   7    3.38    1.97
 -11  19   7    0.07    1.79
 -10  19   7   10.62    2.30
  -9  19   7   -1.44    1.73
  -8  19   7    2.37    1.81
  -7  19   7    0.51    1.81
  -6  19   7    6.62    2.03
  -5  19   7    0.51    1.76
  -8  19  -8   -0.52    1.82
  -9  19  -8   -0.41    1.72
 -10  19  -8    4.41    2.07
 -11  19  -8   14.89    2.51
   4 -18   8   -0.13    1.33
   5 -18   8    7.59    1.63
   6 -18   8   18.47    2.02
   7 -18   8    4.23    1.46
   8 -18   8    9.85    1.68
  -9  18  -8   -2.90    1.62
 -10  18  -8   -0.86    1.56
 -11  18  -8    1.35    1.85
 -12  18  -8    2.76    1.86
 -13  18  -8    2.26    1.86
 -14  18  -8   -2.54    1.72
   1 -17   8    3.32    1.62
   2 -17   8   16.04    2.10
   3 -17   8   12.73    1.91
   4 -17   8   39.48    2.81
   5 -17   8   15.92    1.94
   6 -17   8   -0.83    1.16
   7 -17   8    2.32    1.37
   8 -17   8   14.00    1.75
   9 -17   8   14.44    1.76
 -10  17  -8    3.57    1.83
  10 -17   8    9.94    1.58
 -11  17  -8   37.65    3.16
  11 -17   8   45.63    2.62
 -12  17  -8   10.40    2.12
 -13  17  -8    1.19    1.68
 -14  17  -8    3.70    1.88
 -15  17  -8    9.43    2.07
 -16  17  -8    6.01    2.05
  -1 -16   8    3.39    1.73
   0 -16   8    6.97    1.79
   1 -16   8    4.36    1.62
   2 -16   8   -2.02    1.28
   3 -16   8    5.01    1.60
   4 -16   8    7.13    1.67
   5 -16   8   18.26    2.00
   6 -16   8    3.06    1.40
   7 -16   8   26.25    2.25
   8 -16   8    2.56    1.32
   9 -16   8    2.16    1.30
 -10  16  -8    5.05    1.85
  10 -16   8   10.12    1.60
 -11  16  -8    2.58    1.64
  11 -16   8    6.97    1.43
 -12  16  -8    5.43    1.85
  12 -16   8    6.66    1.43
 -13  16  -8    6.53    1.88
  13 -16   8    7.70    1.49
 -14  16  -8   38.35    3.13
 -15  16  -8    7.55    1.99
 -16  16  -8    7.85    1.97
 -16  16  -8    3.68    1.40
 -17  16  -8    1.15    1.78
 -17  16  -8    5.22    1.54
   2  15  -8   10.10    1.83
  -2 -15   8    9.13    1.99
   1  15  -8    8.12    1.61
  -1 -15   8    8.11    1.85
   0  15  -8    0.13    1.29
   0 -15   8    1.41    1.54
  -1  15  -8    0.64    1.20
   1 -15   8    0.22    1.36
   2 -15   8   15.01    1.91
   3 -15   8   -0.38    1.29
   4 -15   8    1.96    1.34
   5 -15   8    7.08    1.53
   6 -15   8    1.45    1.22
   7 -15   8    2.34    1.22
   8 -15   8    1.66    1.17
   9 -15   8   13.69    1.66
  10 -15   8    4.23    1.33
 -11  15  -8    0.19    1.58
  11 -15   8    0.22    1.16
 -12  15  -8    0.30    1.52
  12 -15   8    2.37    1.25
 -13  15  -8    4.68    1.74
  13 -15   8    5.22    1.44
 -14  15  -8    6.34    1.86
  14 -15   8    8.19    1.60
 -15  15  -8   -2.20    1.55
  15 -15   8    3.81    1.40
 -16  15  -8    2.41    1.49
 -16  15  -8    3.94    1.77
 -17  15  -8   14.08    2.21
 -17  15  -8   14.38    2.02
   4  14  -8   -0.57    1.56
  -4 -14   8   -0.75    1.59
   3  14  -8    6.51    1.79
  -3 -14   8    5.70    1.87
   2  14  -8   44.99    2.81
  -2 -14   8   41.40    2.99
   1  14  -8   12.02    1.78
  -1 -14   8   12.76    1.98
   0  14  -8    9.57    1.60
   0 -14   8   11.77    1.90
  -1  14  -8   10.86    1.54
   1 -14   8   12.51    1.91
  -2  14  -8    3.37    1.14
   2 -14   8    4.90    1.47
  -3  14  -8    0.42    1.01
   3 -14   8   -1.08    1.20
   4 -14   8    7.84    1.51
   5 -14   8   52.27    2.80
   6 -14   8   11.08    1.59
   7 -14   8   51.93    2.74
   8 -14   8   33.19    2.35
   9 -14   8    7.01    1.37
  10 -14   8   -0.31    1.12
 -11  14  -8    2.44    1.57
  11 -14   8    7.72    1.48
 -12  14  -8   12.24    1.93
  12 -14   8   11.32    1.63
 -13  14  -8    0.24    1.47
  13 -14   8    1.26    1.26
 -14  14  -8    9.86    1.88
 -15  14  -8    0.04    1.45
 -16  14  -8    0.52    1.55
 -16  14  -8   -0.36    1.29
 -17  14  -8   11.29    1.96
 -17  14  -8   10.33    1.86
 -18  14  -8    1.52    1.43
   5  13  -8    0.50    1.52
  -5 -13   8    0.76    1.49
   4  13  -8    2.81    1.58
  -4 -13   8    1.73    1.68
   3  13  -8    8.21    1.72
  -3 -13   8    5.32    1.77
   2  13  -8    5.81    1.53
  -2 -13   8    3.61    1.61
   1  13  -8    0.66    1.21
  -1 -13   8    0.49    1.37
   0  13  -8    1.71    1.24
   0 -13   8    2.58    1.41
  -1  13  -8   19.53    1.79
   1 -13   8   23.87    2.18
  -2  13  -8    0.29    1.05
   2 -13   8    3.20    1.37
  -3  13  -8   14.77    1.47
   3 -13   8   12.66    1.74
  -4  13  -8   12.78    1.26
   4 -13   8   14.27    1.75
   5 -13   8    3.75    1.26
   6 -13   8    2.93    1.25
   7 -13   8    6.71    1.36
   8 -13   8   77.91    3.33
   9 -13   8   12.64    1.58
  10 -13   8   33.17    2.25
  11 -13   8    3.22    1.23
 -12  13  -8    1.92    1.41
 -13  13  -8    3.10    1.48
 -14  13  -8   10.22    1.79
 -15  13  -8   13.93    1.98
 -16  13  -8    5.52    1.57
 -16  13  -8    2.72    1.57
 -17  13  -8   30.77    2.67
 -18  13  -8    6.80    1.73
   7  12  -8   -0.84    1.57
  -7 -12   8   -0.81    1.65
   6  12  -8    4.46    1.83
  -6 -12   8    3.82    1.82
   5  12  -8   12.04    1.98
  -5 -12   8    9.12    1.98
   4  12  -8    6.94    1.70
  -4 -12   8    6.15    1.76
   3  12  -8   -0.97    1.25
  -3 -12   8    0.04    1.40
   2  12  -8    9.15    1.60
  -2 -12   8   12.29    1.89
   1  12  -8    2.48    1.28
  -1 -12   8    2.36    1.43
   0  12  -8   -1.52    1.08
   0 -12   8    0.65    1.30
  -1  12  -8    9.66    1.37
   1 -12   8   11.53    1.73
  -2  12  -8    8.75    1.31
   2 -12   8    9.55    1.59
  -3  12  -8    2.26    0.99
   3 -12   8    0.65    1.07
  -4  12  -8   -0.17    0.83
   4 -12   8   -0.40    0.71
   4 -12   8    0.66    1.12
  -5  12  -8   10.58    1.07
   5 -12   8   12.39    1.03
   5 -12   8   11.90    1.57
   6 -12   8   11.55    1.57
   6 -12   8   12.55    1.02
   7 -12   8   15.58    1.70
   7 -12   8   15.74    1.13
   8 -12   8    6.14    0.81
   8 -12   8    6.64    1.36
   9 -12   8    1.30    1.11
  10 -12   8    7.03    1.48
 -12  12  -8    0.13    1.32
 -13  12  -8   19.55    2.04
 -14  12  -8    2.79    1.48
 -15  12  -8   -1.32    1.36
 -15  12  -8   -0.18    1.34
 -16  12  -8    5.81    1.62
 -16  12  -8   10.93    1.81
 -17  12  -8   11.37    1.92
 -18  12  -8   19.11    2.28
 -18  12  -8   18.29    2.21
 -19  12  -8    6.70    1.83
 -19  12  -8    3.79    1.67
   8  11  -8   19.16    2.46
   7  11  -8    5.45    1.81
  -7 -11   8    3.00    1.60
   6  11  -8   47.76    3.15
  -6 -11   8   46.07    3.19
   5  11  -8    6.83    1.76
  -5 -11   8    5.48    1.62
   4  11  -8   -0.53    1.28
  -4 -11   8    1.08    1.45
   3  11  -8    5.35    1.54
  -3 -11   8    6.78    1.67
   2  11  -8    5.66    1.48
  -2 -11   8    3.92    1.50
   1  11  -8    9.31    1.43
  -1 -11   8    8.79    1.61
   0  11  -8   12.90    1.57
   0 -11   8   17.07    1.92
  -1  11  -8   99.09    3.73
   1 -11   8  105.56    4.14
  -2  11  -8   16.74    1.49
   2 -11   8   15.59    1.36
   2 -11   8   18.98    1.88
  -3  11  -8    3.36    1.00
   3 -11   8    5.13    1.30
   3 -11   8    3.70    0.92
  -4  11  -8    1.49    0.88
   4 -11   8    3.05    1.23
   4 -11   8    0.50    0.75
  -5  11  -8   46.93    2.03
   5 -11   8   47.84    1.98
   5 -11   8   47.29    2.58
  -6  11  -8   21.56    1.28
   6 -11   8   18.17    1.77
   6 -11   8   18.88    1.28
  -7  11  -8    2.05    0.58
   7 -11   8    4.23    1.22
   7 -11   8    2.58    0.76
   8 -11   8   34.09    1.62
   8 -11   8   35.43    2.26
   9 -11   8    5.14    0.87
   9 -11   8    4.41    1.31
  10 -11   8   16.47    1.29
  11 -11   8   14.32    1.32
 -12  11  -8    6.88    1.55
  12 -11   8   13.21    1.31
 -13  11  -8    0.87    1.29
  13 -11   8    2.66    1.12
 -14  11  -8    0.05    1.29
 -15  11  -8    0.36    1.34
 -15  11  -8    1.37    1.36
 -16  11  -8   13.62    1.99
 -17  11  -8    1.23    1.45
 -18  11  -8    0.97    1.56
 -18  11  -8    1.31    1.44
 -19  11  -8    0.64    1.39
 -19  11  -8   -2.65    1.40
   9  10  -8    3.20    1.86
   8  10  -8    1.40    1.67
  -8 -10   8   -1.30    1.41
   7  10  -8   11.45    2.00
  -7 -10   8   10.51    2.01
   6  10  -8   11.47    1.90
  -6 -10   8   14.74    2.13
   5  10  -8    5.14    1.59
  -5 -10   8    7.56    1.75
   4  10  -8   -3.09    1.19
  -4 -10   8    0.68    1.40
   3  10  -8   34.40    2.39
  -3 -10   8   27.23    2.40
   2  10  -8   10.22    1.61
  -2 -10   8    9.97    1.70
   1  10  -8   14.16    1.62
  -1 -10   8   17.29    1.93
   0  10  -8   24.21    1.88
   0 -10   8   23.62    2.09
  -1  10  -8   39.11    2.17
   1 -10   8   41.04    2.07
   1 -10   8   41.14    2.49
  -2  10  -8   33.72    1.99
   2 -10   8   33.94    2.17
   2 -10   8   35.54    1.87
  -3  10  -8   38.99    1.94
   3 -10   8   33.21    1.79
   3 -10   8   31.72    2.23
  -4  10  -8  113.93    3.68
   4 -10   8  114.57    3.62
   4 -10   8  110.52    4.20
  -5  10  -8   28.99    1.63
   5 -10   8   29.76    2.11
   5 -10   8   30.83    1.65
  -6  10  -8   26.28    1.37
   6 -10   8   26.07    1.48
   6 -10   8   24.96    1.98
  -7  10  -8   47.36    1.74
   7 -10   8   47.95    2.03
   7 -10   8   48.18    2.59
  -8  10  -8    0.88    0.48
   8 -10   8    1.10    0.77
   9 -10   8    0.83    0.77
  10 -10   8   24.76    1.68
  11 -10   8  106.78    3.71
 -12  10  -8    4.87    1.40
  12 -10   8    6.86    1.27
 -13  10  -8   14.41    1.72
 -14  10  -8    7.67    1.53
 -15  10  -8    6.52    1.52
 -15  10  -8    6.24    1.63
 -16  10  -8    1.99    1.50
 -17  10  -8    2.00    1.50
 -17  10  -8    1.73    1.47
 -18  10  -8    4.14    1.74
 -18  10  -8    8.16    1.78
 -19  10  -8   -0.93    1.40
 -19  10  -8    1.93    1.50
  10   9  -8   -0.82    1.70
   9   9  -8    0.93    1.68
  -9  -9   8    0.94    1.68
   8   9  -8   11.23    2.01
  -8  -9   8    9.36    2.00
   7   9  -8    2.48    1.52
  -7  -9   8    3.28    1.64
   6   9  -8   11.86    1.86
  -6  -9   8   10.67    1.85
   5   9  -8    5.08    1.52
  -5  -9   8    6.38    1.64
   4   9  -8   14.40    1.76
  -4  -9   8   14.55    1.81
   3   9  -8    1.45    1.21
  -3  -9   8    0.89    1.28
   2   9  -8    5.72    1.34
  -2  -9   8    2.37    1.23
   1   9  -8    0.38    1.07
  -1  -9   8   -0.49    0.82
  -1  -9   8    0.55    1.08
   0   9  -8   78.71    3.21
   0  -9   8   80.39    3.04
   0  -9   8   76.05    3.41
  -1   9  -8    0.20    0.93
   1  -9   8    1.94    0.89
   1  -9   8    1.88    1.17
  -2   9  -8    0.54    0.82
   2  -9   8    0.19    0.96
   2  -9   8    0.51    0.80
  -3   9  -8   11.47    1.21
   3  -9   8   12.51    1.14
   3  -9   8   13.86    1.53
  -4   9  -8   -0.51    0.75
   4  -9   8    0.30    0.92
   4  -9   8    0.85    0.71
  -5   9  -8    0.86    0.71
   5  -9   8    1.61    1.09
   5  -9   8    1.92    0.75
  -6   9  -8    0.21    0.63
   6  -9   8   -0.55    1.02
   6  -9   8    0.05    0.75
  -7   9  -8   78.02    2.52
   7  -9   8   82.61    2.90
   8  -9   8   13.06    1.24
   9  -9   8   71.98    2.82
  10  -9   8   42.60    2.18
  11  -9   8   17.72    1.63
 -12   9  -8   -0.75    1.10
 -13   9  -8   11.68    1.56
 -14   9  -8   39.96    2.68
 -14   9  -8   43.29    2.60
 -15   9  -8    4.50    1.58
 -16   9  -8   23.27    2.31
 -17   9  -8   11.62    1.90
 -17   9  -8   11.92    2.05
 -18   9  -8    1.11    1.53
 -18   9  -8    1.62    1.45
 -19   9  -8   -0.98    1.46
 -19   9  -8    2.86    1.68
  11   8  -8    1.21    1.74
  10   8  -8   10.08    2.08
 -10  -8   8   10.52    2.07
   9   8  -8   13.57    2.09
  -9  -8   8   17.06    2.27
   8   8  -8    1.09    1.52
  -8  -8   8    1.50    1.57
   7   8  -8   -0.20    1.43
  -7  -8   8   -1.13    1.21
   6   8  -8   30.48    2.48
  -6  -8   8   33.54    2.43
   5   8  -8   78.23    3.55
  -5  -8   8   77.17    3.65
   4   8  -8    5.65    1.47
  -4  -8   8    8.16    1.60
   3   8  -8   33.19    2.41
  -3  -8   8   34.33    2.30
   2   8  -8    1.75    1.19
  -2  -8   8    0.08    1.03
  -2  -8   8    1.33    0.98
   1   8  -8   16.88    1.56
  -1  -8   8   16.21    1.45
  -1  -8   8   15.32    1.68
   0   8  -8   26.47    1.89
   0  -8   8   24.82    1.89
   0  -8   8   26.10    1.66
  -1   8  -8    4.82    1.07
   1  -8   8    6.20    0.98
   1  -8   8    5.61    1.22
  -2   8  -8   44.04    2.09
   2  -8   8   42.66    2.02
   2  -8   8   44.13    2.44
  -3   8  -8   11.99    1.18
   3  -8   8   12.72    1.47
   3  -8   8   13.38    1.23
  -4   8  -8   39.76    1.90
   4  -8   8   43.34    2.35
   4  -8   8   35.08    1.84
   5  -8   8   -0.02    1.05
   5  -8   8    1.59    0.83
   6  -8   8   26.06    1.60
   7  -8   8    1.54    0.82
   8  -8   8   27.04    1.75
   9  -8   8    0.79    0.94
  10  -8   8   38.99    2.23
 -12   8  -8    1.64    1.12
 -13   8  -8    2.44    1.19
 -14   8  -8    6.99    1.70
 -14   8  -8   10.93    1.45
 -15   8  -8    5.01    1.49
 -16   8  -8    1.83    1.43
 -16   8  -8    4.86    1.62
 -17   8  -8    7.27    1.76
 -17   8  -8    9.92    1.94
 -18   8  -8    1.94    1.45
 -18   8  -8    0.07    1.46
 -19   8  -8   15.77    2.34
 -19   8  -8   13.75    2.12
  12   7  -8    7.96    2.08
  11   7  -8    0.68    1.65
  10   7  -8   -0.18    1.60
 -10  -7   8   -0.02    1.54
  -9  -7   8   23.89    2.44
   8   7  -8    3.93    1.46
  -8  -7   8    4.59    1.50
   7   7  -8   54.03    3.11
  -7  -7   8   54.55    3.02
   6   7  -8    6.37    1.59
  -6  -7   8    9.33    1.70
   5   7  -8   17.42    1.91
  -5  -7   8   17.27    1.96
   4   7  -8    3.95    1.33
  -4  -7   8    1.71    1.10
  -4  -7   8    3.14    1.34
   3   7  -8   49.53    2.61
  -3  -7   8   54.31    2.80
  -3  -7   8   51.86    2.52
   2   7  -8   88.09    3.39
  -2  -7   8   85.14    3.24
  -2  -7   8   81.61    3.53
   1   7  -8    0.90    0.97
  -1  -7   8    1.82    1.04
  -1  -7   8    1.87    0.95
   0   7  -8  133.71    4.38
   0  -7   8  127.30    4.22
   0  -7   8  132.89    4.61
  -1   7  -8   82.27    3.02
   1  -7   8   81.30    2.98
   1  -7   8   81.33    3.30
   2  -7   8    3.29    1.05
   2  -7   8    3.71    0.94
   3  -7   8    5.62    0.97
   3  -7   8    5.68    1.18
   4  -7   8   58.40    2.38
   4  -7   8   56.19    2.71
   5  -7   8   95.65    3.32
   6  -7   8   32.24    1.82
   7  -7   8  131.62    4.29
   8  -7   8    6.21    1.17
   9  -7   8    1.06    1.06
 -12   7  -8   10.67    1.40
 -13   7  -8    4.20    1.19
 -13   7  -8    1.93    1.44
 -14   7  -8   45.86    2.98
 -15   7  -8    0.17    1.43
 -16   7  -8    1.46    1.47
 -16   7  -8    1.29    1.51
 -17   7  -8    7.30    1.77
 -17   7  -8    8.98    1.93
 -18   7  -8    4.03    1.74
 -18   7  -8    2.33    1.61
 -19   7  -8    0.94    1.58
 -19   7  -8   -1.14    1.33
  12   6  -8   14.83    2.21
  11   6  -8    1.79    1.68
 -11  -6   8   -0.26    1.53
  10   6  -8    4.46    1.68
 -10  -6   8    1.45    1.53
   9   6  -8    2.82    1.44
  -9  -6   8    1.08    1.44
   8   6  -8   10.40    1.84
  -8  -6   8   11.54    1.81
   7   6  -8    3.64    1.48
  -7  -6   8    6.06    1.43
   6   6  -8   11.01    1.73
  -6  -6   8   12.17    1.68
   5   6  -8   20.48    1.92
  -5  -6   8   16.94    1.76
  -5  -6   8   18.17    1.83
   4   6  -8   24.91    2.02
  -4  -6   8   27.47    2.17
  -4  -6   8   23.66    1.89
   3   6  -8    0.50    1.03
  -3  -6   8    1.84    1.16
  -3  -6   8    2.55    1.09
   2   6  -8   27.91    1.96
  -2  -6   8   22.40    1.90
  -2  -6   8   28.18    1.81
   1   6  -8   35.71    2.08
  -1  -6   8   36.28    2.26
  -1  -6   8   35.04    1.94
   0  -6   8    7.88    1.12
   0  -6   8    6.47    1.26
   1  -6   8   33.98    1.83
   1  -6   8   35.63    2.04
   2  -6   8   16.44    1.38
   2  -6   8   13.78    1.48
   3  -6   8  144.66    4.85
   3  -6   8  140.63    4.45
   4  -6   8   34.42    1.83
   5  -6   8    2.35    0.90
   6  -6   8    7.21    1.11
   7  -6   8   76.26    3.04
   8  -6   8   47.74    2.45
 -12   6  -8    7.86    1.22
 -13   6  -8    8.55    1.65
 -13   6  -8    9.32    1.23
 -14   6  -8   28.53    2.54
 -15   6  -8   11.52    1.85
 -15   6  -8   12.87    1.97
 -16   6  -8    8.94    1.79
 -16   6  -8    8.64    1.85
 -17   6  -8   39.87    3.02
 -17   6  -8   39.47    2.90
 -18   6  -8    1.36    1.56
 -18   6  -8    2.72    1.65
  13   5  -8    7.47    1.94
  12   5  -8   16.62    2.34
  11   5  -8   16.61    2.25
 -11  -5   8   18.42    2.24
  10   5  -8    6.56    1.63
 -10  -5   8    8.76    1.70
   9   5  -8   57.78    3.20
  -9  -5   8   47.66    2.87
   8   5  -8    1.80    1.46
  -8  -5   8    2.19    1.37
   7   5  -8   12.27    1.69
  -7  -5   8   13.47    1.72
   6   5  -8   49.93    2.79
  -6  -5   8   42.58    2.54
  -6  -5   8   52.87    2.68
   5   5  -8   28.99    2.09
  -5  -5   8   29.08    2.07
  -5  -5   8   31.05    2.22
   4   5  -8    1.89    1.12
  -4  -5   8    1.73    1.03
  -4  -5   8    1.80    1.20
   3   5  -8    1.26    1.08
  -3  -5   8    0.74    0.98
  -3  -5   8    1.21    1.07
   2   5  -8  110.11    3.87
  -2  -5   8  104.48    3.90
  -2  -5   8  104.85    3.75
  -1  -5   8    4.44    1.17
  -1  -5   8    3.21    0.96
   0  -5   8    3.75    1.12
   0  -5   8    2.82    0.92
   1  -5   8    3.19    0.97
   1  -5   8    3.57    1.12
   2  -5   8   35.68    2.08
   2  -5   8   36.67    1.91
   3  -5   8    9.30    1.17
   4  -5   8    1.02    0.81
   5  -5   8    2.23    0.96
   6  -5   8   33.08    2.01
   7  -5   8    3.41    1.15
 -12   5  -8   16.98    2.04
 -12   5  -8   20.51    1.72
 -13   5  -8   69.79    3.53
 -14   5  -8    5.24    1.53
 -14   5  -8    3.70    1.38
 -15   5  -8    5.03    1.63
 -15   5  -8    4.47    1.64
 -16   5  -8    5.85    1.76
 -16   5  -8    5.30    1.66
 -17   5  -8    6.91    1.80
 -17   5  -8   11.04    1.85
 -18   5  -8    3.81    1.69
 -18   5  -8    1.73    1.62
  14   4  -8    1.53    1.80
  12   4  -8    6.25    1.87
 -12  -4   8    5.08    1.74
  11   4  -8   -0.13    1.54
 -11  -4   8    3.83    1.58
  10   4  -8   10.03    1.87
 -10  -4   8    7.50    1.68
   9   4  -8   11.67    1.76
  -9  -4   8   11.12    1.67
   8   4  -8   -1.25    1.26
  -8  -4   8    1.58    1.19
   7   4  -8    3.08    1.24
  -7  -4   8    0.06    1.01
  -7  -4   8   -0.58    1.05
   6   4  -8  128.26    4.64
  -6  -4   8  118.03    4.41
  -6  -4   8  124.11    4.59
   5   4  -8    1.20    1.19
  -5  -4   8    0.49    1.04
  -5  -4   8    0.77    1.02
   4   4  -8   41.41    2.41
  -4  -4   8   42.95    2.26
  -4  -4   8   37.50    2.24
  -3  -4   8   56.80    2.61
  -3  -4   8   60.92    2.73
  -2  -4   8   36.03    2.03
  -2  -4   8   37.87    2.22
  -1  -4   8    1.09    0.89
  -1  -4   8    2.13    0.94
   0  -4   8   54.66    2.46
   0  -4   8   61.13    2.75
   1  -4   8  161.12    5.27
   1  -4   8  162.18    5.03
   2  -4   8    3.68    0.95
   3  -4   8   81.00    3.05
   4  -4   8   50.83    2.42
   5  -4   8    3.96    1.03
   6  -4   8   16.36    1.56
 -11   4  -8    2.29    0.86
 -12   4  -8    4.65    1.52
 -13   4  -8   13.31    1.85
 -14   4  -8    0.10    1.29
 -14   4  -8   -0.92    1.34
 -15   4  -8    0.27    1.29
 -15   4  -8   -0.22    1.32
 -16   4  -8    3.31    1.66
 -16   4  -8    6.15    1.75
 -17   4  -8    3.90    1.61
 -17   4  -8    4.12    1.72
 -18   4  -8   -0.04    1.52
 -18   4  -8   -0.85    1.59
  14   3  -8   14.19    2.28
  13   3  -8    1.50    1.69
  12   3  -8   -0.88    1.56
 -12  -3   8   -0.69    1.25
  11   3  -8    0.86    1.52
 -11  -3   8   -0.35    1.22
  10   3  -8   12.17    1.92
 -10  -3   8   14.68    1.91
   9   3  -8    3.30    1.48
  -9  -3   8    2.36    1.26
   8   3  -8    3.22    1.32
  -8  -3   8    4.55    1.28
  -8  -3   8    4.50    1.39
   7   3  -8   37.02    2.32
  -7  -3   8   35.96    2.35
  -7  -3   8   31.69    2.25
   6   3  -8   13.27    1.67
  -6  -3   8   13.13    1.50
  -6  -3   8   11.76    1.50
   5   3  -8   15.46    1.61
  -5  -3   8   12.48    1.49
  -5  -3   8   11.97    1.48
  -4  -3   8    5.58    1.15
  -4  -3   8    6.40    1.14
  -3  -3   8  149.53    4.84
  -3  -3   8  150.67    4.99
  -2  -3   8   11.95    1.45
  -2  -3   8   11.17    1.29
  -1  -3   8   94.33    3.45
  -1  -3   8   94.29    3.58
   0  -3   8   38.02    1.95
   0  -3   8   37.71    2.07
   1  -3   8   25.50    1.72
   1  -3   8   24.59    1.75
   2  -3   8   12.59    1.32
   3  -3   8   39.51    2.14
   4  -3   8  153.63    4.93
   5  -3   8   38.87    2.21
 -11   3  -8   25.44    2.32
 -11   3  -8   33.06    1.73
 -12   3  -8   -0.17    1.19
 -13   3  -8   25.87    2.44
 -13   3  -8   25.87    2.34
 -14   3  -8    7.02    1.74
 -14   3  -8    6.57    1.60
 -15   3  -8   -0.09    1.42
 -15   3  -8   -0.50    1.38
 -16   3  -8    7.65    1.75
 -16   3  -8    4.01    1.60
 -17   3  -8    4.71    1.70
 -17   3  -8    5.43    1.74
  15   2  -8   14.63    2.25
  14   2  -8   -0.86    1.53
  13   2  -8   10.14    2.04
 -13  -2   8   13.55    1.93
  12   2  -8    6.53    1.79
 -12  -2   8    6.01    1.47
  11   2  -8    0.73    1.44
 -11  -2   8    0.58    1.33
  10   2  -8    8.33    1.69
 -10  -2   8    8.85    1.55
   9   2  -8   18.15    2.04
  -9  -2   8   18.21    1.91
  -9  -2   8   17.84    1.93
   8   2  -8   38.96    2.61
  -8  -2   8   35.67    2.37
  -8  -2   8   33.50    2.33
   7   2  -8    0.16    1.21
  -7  -2   8   -0.71    0.95
  -7  -2   8   -0.57    1.06
  -6  -2   8   44.02    2.35
  -6  -2   8   48.36    2.44
  -5  -2   8    4.39    1.12
  -5  -2   8    5.89    1.22
  -4  -2   8   15.81    1.55
  -4  -2   8   14.22    1.45
  -3  -2   8   39.92    2.11
  -3  -2   8   35.47    2.07
  -2  -2   8    2.37    0.97
  -2  -2   8    3.60    1.10
  -1  -2   8   12.35    1.43
  -1  -2   8   13.98    1.40
   0  -2   8   60.82    2.52
   1  -2   8   22.89    1.72
   2  -2   8   56.42    2.45
   3  -2   8   23.02    1.75
   4  -2   8    4.76    1.15
   5  -2   8    9.28    1.38
 -11   2  -8    3.85    1.46
 -12   2  -8    4.96    1.45
 -12   2  -8    7.56    1.61
 -13   2  -8    7.24    1.58
 -13   2  -8    4.27    1.48
 -14   2  -8    5.55    1.63
 -14   2  -8   11.15    1.82
 -15   2  -8    6.49    1.69
 -15   2  -8    5.78    1.73
 -16   2  -8   37.35    2.89
 -16   2  -8   37.73    2.98
 -17   2  -8    7.02    1.74
 -17   2  -8    6.78    1.99
  16   1  -8    3.01    1.90
  15   1  -8    4.61    1.95
  14   1  -8    1.74    1.56
  13   1  -8   13.17    1.98
 -13  -1   8   10.89    1.86
  12   1  -8   21.17    2.28
 -12  -1   8   19.32    2.11
  11   1  -8   10.70    1.89
 -11  -1   8   12.28    1.79
  10   1  -8  104.30    4.18
 -10  -1   8  100.73    4.04
 -10  -1   8   94.48    3.93
   9   1  -8   43.68    2.79
  -9  -1   8   42.15    2.59
  -9  -1   8   43.15    2.56
   8   1  -8    0.90    1.25
  -8  -1   8    1.38    1.05
  -8  -1   8    1.71    1.20
  -7  -1   8    6.35    1.34
  -7  -1   8    3.79    1.21
  -6  -1   8   82.09    3.34
  -6  -1   8   82.95    3.36
  -5  -1   8   37.45    2.23
  -5  -1   8   39.45    2.22
  -4  -1   8    3.98    1.12
  -4  -1   8    4.55    1.10
  -3  -1   8  154.09    5.10
  -3  -1   8  170.15    5.29
  -2  -1   8   24.04    1.83
  -2  -1   8   25.24    1.81
  -1  -1   8   22.72    1.79
  -1  -1   8   22.02    1.71
   0  -1   8  126.01    4.21
   1  -1   8  123.98    4.23
   2  -1   8   21.01    1.69
   3  -1   8   12.20    1.36
   4  -1   8   85.84    3.36
  -8   1  -8   -0.14    0.66
 -10   1  -8    2.23    1.33
 -11   1  -8   15.61    1.79
 -11   1  -8   14.51    1.93
 -12   1  -8    4.97    1.52
 -12   1  -8    5.18    1.59
 -13   1  -8    2.25    1.43
 -13   1  -8    3.34    1.50
 -14   1  -8    1.23    1.50
 -14   1  -8   -0.08    1.35
 -15   1  -8   10.84    2.00
 -15   1  -8    6.07    1.75
 -16   1  -8    7.02    1.88
 -16   1  -8    7.97    1.89
 -17   1  -8    3.20    1.77
 -17   1  -8    3.47    1.77
  16   0  -8    6.15    2.01
  15   0  -8    2.21    1.63
  14   0  -8   10.83    1.94
 -14   0   8   11.46    1.88
  13   0  -8    2.61    1.59
 -13   0   8    0.70    1.32
  12   0  -8   -0.86    1.38
 -12   0   8    0.56    1.27
  11   0  -8   13.66    1.92
 -11   0   8   14.19    1.74
 -11   0   8   14.17    1.88
  10   0  -8   24.66    2.29
 -10   0   8   27.72    2.16
 -10   0   8   27.39    2.25
   9   0  -8   84.88    3.71
  -9   0   8   80.48    3.45
  -9   0   8   82.31    3.46
  -8   0   8   26.59    2.01
  -8   0   8   22.23    1.91
  -7   0   8  127.03    4.49
  -7   0   8  135.53    4.66
  -6   0   8    5.85    1.22
  -6   0   8    7.85    1.23
  -5   0   8    5.81    1.17
  -5   0   8    4.19    1.07
  -4   0   8   56.97    2.63
  -4   0   8   58.25    2.68
  -3   0   8   37.50    2.04
  -3   0   8   39.46    2.17
  -2   0   8   65.91    2.80
  -2   0   8   63.27    2.70
  -1   0   8  126.26    4.27
   0   0   8 1000.00   26.04
   1   0   8  122.99    4.29
   2   0   8   62.04    2.80
   3   0   8   42.99    2.43
  -6   0  -8    7.71    0.98
  -7   0  -8  127.76    4.09
  -9   0  -8   67.27    3.21
 -10   0  -8   19.71    2.02
 -10   0  -8   20.36    1.98
 -11   0  -8    9.87    1.75
 -11   0  -8    9.25    1.67
 -12   0  -8   -0.35    1.20
 -12   0  -8    1.96    1.37
 -13   0  -8    0.28    1.45
 -13   0  -8    1.15    1.25
 -14   0  -8    8.13    1.79
 -14   0  -8    5.45    1.65
 -15   0  -8    2.31    1.55
 -15   0  -8    0.14    1.47
 -16   0  -8    2.46    1.66
 -16   0  -8    4.74    1.93
  17  -1  -8    3.42    1.92
  16  -1  -8    5.92    2.03
  15  -1  -8   13.34    2.17
  14  -1  -8    0.89    1.54
 -14   1   8   -1.35    1.28
  13  -1  -8    4.28    1.68
 -13   1   8    3.12    1.40
  12  -1  -8    7.06    1.75
 -12   1   8    7.06    1.50
 -12   1   8    8.50    1.57
  11  -1  -8   15.57    2.01
 -11   1   8   13.61    1.81
 -11   1   8   16.06    1.77
  10  -1  -8   -0.12    1.17
 -10   1   8   -2.64    1.00
 -10   1   8   -1.31    1.12
  -9   1   8   16.32    1.78
  -9   1   8   16.46    1.67
  -8   1   8    2.25    1.09
  -8   1   8    2.16    1.08
  -7   1   8   38.80    2.30
  -7   1   8   34.41    2.02
  -6   1   8    2.65    1.10
  -6   1   8    2.73    1.03
  -5   1   8    1.38    0.98
  -5   1   8   -0.45    0.83
  -4   1   8   94.13    3.55
  -4   1   8   97.82    3.56
  -3   1   8   12.64    1.43
  -3   1   8   13.10    1.39
  -2   1   8   20.81    1.63
  -2   1   8   21.02    1.60
  -1   1   8  122.85    4.21
   0   1   8  127.09    4.39
   1   1   8   26.85    1.96
   2   1   8   25.61    1.90
   3   1   8  162.19    5.33
  -5  -1  -8   34.47    1.89
  -6  -1  -8   76.97    2.84
  -7  -1  -8    6.96    0.84
  -8  -1  -8    1.13    1.15
  -9  -1  -8   31.84    2.45
  -9  -1  -8   35.64    2.28
 -10  -1  -8   89.64    3.97
 -10  -1  -8   88.03    3.88
 -11  -1  -8    8.61    1.57
 -11  -1  -8   10.40    1.80
 -12  -1  -8   15.03    2.09
 -12  -1  -8   18.76    2.15
 -13  -1  -8    7.30    1.75
 -13  -1  -8    8.21    1.77
 -14  -1  -8   -1.01    1.39
 -14  -1  -8    2.18    1.51
 -15  -1  -8    5.67    1.85
 -15  -1  -8    3.09    1.59
 -16  -1  -8    2.81    1.77
 -16  -1  -8    2.19    1.71
  17  -2  -8    8.66    2.18
  16  -2  -8   43.79    3.25
  15  -2  -8    5.58    1.86
  14  -2  -8    8.75    1.92
 -14   2   8    9.99    1.71
  13  -2  -8    4.83    1.51
 -13   2   8    6.63    1.47
 -13   2   8    3.91    1.41
  12  -2  -8    8.37    1.64
 -12   2   8    9.72    1.68
 -12   2   8    9.13    1.53
  11  -2  -8    6.96    1.63
 -11   2   8    3.27    1.27
 -11   2   8    3.17    1.24
 -10   2   8    1.33    1.11
 -10   2   8    0.98    1.08
  -9   2   8   89.22    3.51
  -9   2   8   86.95    3.57
  -8   2   8   26.83    1.96
  -8   2   8   29.01    1.97
  -7   2   8  102.74    3.84
  -7   2   8  102.91    3.68
  -6   2   8   36.28    2.08
  -6   2   8   35.19    2.06
  -5   2   8   14.21    1.52
  -5   2   8   11.48    1.35
  -4   2   8    3.17    1.04
  -4   2   8    4.21    1.04
  -3   2   8   22.80    1.73
  -3   2   8   26.45    1.71
  -2   2   8   63.32    2.80
  -1   2   8   22.99    1.70
   0   2   8   61.35    2.72
   1   2   8   14.45    1.55
   2   2   8    4.66    1.25
  -5  -2  -8    4.34    0.85
  -6  -2  -8   40.40    1.92
  -8  -2  -8   27.44    2.10
  -8  -2  -8   31.51    2.26
  -9  -2  -8   13.22    1.83
  -9  -2  -8   14.11    1.80
 -10  -2  -8    9.17    1.71
 -10  -2  -8    6.72    1.62
 -11  -2  -8    0.04    1.34
 -11  -2  -8   -1.08    1.28
 -12  -2  -8    6.55    1.66
 -12  -2  -8    1.57    1.52
 -13  -2  -8   11.81    2.05
 -13  -2  -8    8.88    1.80
 -14  -2  -8    0.50    1.49
 -14  -2  -8   -0.55    1.45
 -15  -2  -8   17.29    2.32
 -15  -2  -8   11.15    2.06
  17  -3  -8    5.49    2.00
  16  -3  -8    8.16    1.81
  15  -3  -8    1.66    1.66
  14  -3  -8    8.10    1.82
 -14   3   8    9.80    1.59
  13  -3  -8   35.93    2.73
 -13   3   8   36.60    2.46
 -13   3   8   36.80    2.58
  12  -3  -8   -1.97    1.30
 -12   3   8    1.01    1.11
 -12   3   8   -0.82    1.20
 -11   3   8   35.25    2.39
 -11   3   8   31.48    2.14
 -10   3   8   49.68    2.63
 -10   3   8   47.43    2.44
  -9   3   8    0.10    0.97
  -9   3   8    1.16    1.12
  -8   3   8    0.68    0.93
  -8   3   8    1.12    0.96
  -7   3   8   61.77    2.77
  -7   3   8   58.35    2.62
  -6   3   8  155.17    5.16
  -6   3   8  156.64    4.99
  -5   3   8   37.41    2.07
  -5   3   8   37.76    2.22
  -4   3   8  155.56    5.06
  -4   3   8  153.63    4.89
  -3   3   8   36.01    2.08
  -2   3   8   10.54    1.31
  -1   3   8   25.95    1.85
   0   3   8   35.07    2.19
   1   3   8   99.76    3.87
   2   3   8   13.01    1.61
  -5  -3  -8   12.53    1.11
  -6  -3  -8   13.21    1.07
  -7  -3  -8   34.46    2.34
  -7  -3  -8   34.50    2.40
  -8  -3  -8    4.71    1.30
  -8  -3  -8    4.80    1.43
  -9  -3  -8    1.50    1.35
  -9  -3  -8    1.38    1.34
 -10  -3  -8   14.14    1.96
 -10  -3  -8   11.65    1.86
 -11  -3  -8   -0.04    1.27
 -11  -3  -8   -1.50    1.16
 -12  -3  -8    3.51    1.59
 -12  -3  -8   -1.20    1.38
 -13  -3  -8    5.69    1.77
 -13  -3  -8    1.77    1.45
 -14  -3  -8    9.23    1.97
 -14  -3  -8    9.68    1.95
  18  -4  -8   -0.67    1.69
  17  -4  -8    3.54    1.65
  16  -4  -8    5.75    1.87
  15  -4  -8   -0.45    1.35
 -15   4   8   -1.19    1.13
  14  -4  -8    1.66    1.39
 -14   4   8    0.32    1.13
 -14   4   8   -0.02    1.35
  13  -4  -8   16.04    2.06
 -13   4   8   15.91    1.72
 -13   4   8   15.90    1.97
 -12   4   8    5.67    1.40
 -12   4   8    5.76    1.28
 -11   4   8    2.29    1.18
 -11   4   8    2.45    1.10
 -10   4   8   30.82    2.27
 -10   4   8   29.33    1.97
  -9   4   8    1.22    1.13
  -9   4   8   -0.50    0.92
  -8   4   8   38.98    2.10
  -8   4   8   41.14    2.29
  -7   4   8    5.17    1.15
  -7   4   8    7.30    1.16
  -6   4   8   16.98    1.46
  -6   4   8   15.41    1.61
  -5   4   8    3.56    1.15
  -5   4   8    2.80    0.99
  -4   4   8   56.09    2.51
  -3   4   8   89.51    3.45
  -2   4   8    2.35    1.06
  -1   4   8  149.45    4.99
   0   4   8   49.00    2.46
   1   4   8    0.32    1.10
  -6  -4  -8  100.94    3.98
  -6  -4  -8  102.86    4.09
  -7  -4  -8    1.99    1.32
  -7  -4  -8   -1.14    1.10
  -8  -4  -8   -2.16    1.13
  -8  -4  -8    1.67    1.33
  -9  -4  -8   10.04    1.63
  -9  -4  -8    9.04    1.74
 -10  -4  -8    6.20    1.66
 -10  -4  -8    7.19    1.63
 -11  -4  -8    3.44    1.61
 -11  -4  -8    2.87    1.50
 -12  -4  -8    3.70    1.62
 -12  -4  -8    6.28    1.80
 -13  -4  -8   31.13    2.90
 -13  -4  -8   33.92    2.97
 -14  -4  -8    0.99    1.59
 -14  -4  -8   -0.17    1.59
  18  -5  -8    1.77    1.77
  17  -5  -8   14.72    2.23
  16  -5  -8    5.81    1.84
  15  -5  -8    3.00    1.69
 -15   5   8    4.69    1.50
 -15   5   8    4.84    1.42
  14  -5  -8    4.77    1.69
 -14   5   8    3.50    1.32
 -14   5   8    4.72    1.53
 -13   5   8   80.91    3.57
 -13   5   8   76.99    3.27
 -12   5   8   16.17    1.61
 -12   5   8   20.16    1.97
 -11   5   8   19.30    1.70
 -11   5   8   19.95    1.92
 -10   5   8   28.17    1.96
 -10   5   8   29.03    2.24
  -9   5   8    1.31    0.90
  -9   5   8    1.06    1.13
  -8   5   8   12.72    1.39
  -8   5   8   14.22    1.57
  -7   5   8    4.27    1.07
  -7   5   8    3.10    1.09
  -6   5   8   41.20    2.08
  -6   5   8   39.09    2.33
  -5   5   8    2.86    1.02
  -5   5   8    3.60    0.98
  -4   5   8    1.38    0.96
  -3   5   8   12.45    1.48
  -2   5   8   34.77    2.11
  -1   5   8    3.04    1.03
   0   5   8    2.51    1.19
   1   5   8    2.58    1.15
  -5  -5  -8   28.31    2.09
  -5  -5  -8   21.80    2.00
  -6  -5  -8   46.41    2.73
  -6  -5  -8   48.29    2.67
  -7  -5  -8   12.20    1.73
  -7  -5  -8   10.96    1.70
  -8  -5  -8    3.18    1.37
  -8  -5  -8    2.16    1.39
  -9  -5  -8   43.40    2.81
  -9  -5  -8   45.07    2.90
 -10  -5  -8    5.89    1.67
 -10  -5  -8    7.38    1.74
 -11  -5  -8   17.68    2.25
 -11  -5  -8   13.01    2.00
 -12  -5  -8   11.65    2.11
 -12  -5  -8   14.19    2.04
 -13  -5  -8    7.80    1.92
 -13  -5  -8    9.40    2.03
  18  -6  -8    5.03    1.82
  17  -6  -8   47.28    3.23
  16  -6  -8   11.12    2.03
  15  -6  -8   11.00    1.99
 -15   6   8   14.31    1.68
 -15   6   8   12.60    1.85
 -14   6   8   35.62    2.43
 -14   6   8   30.96    2.23
 -13   6   8    9.66    1.70
 -13   6   8   12.81    1.51
 -12   6   8   12.54    1.69
 -12   6   8   14.30    1.50
 -11   6   8   49.97    2.37
 -11   6   8   51.25    2.67
 -10   6   8  116.27    4.28
 -10   6   8  114.20    3.92
  -9   6   8   15.60    1.71
  -9   6   8   13.56    1.39
  -8   6   8   45.50    2.21
  -8   6   8   43.33    2.49
  -7   6   8   92.94    3.63
  -7   6   8   83.72    3.17
  -6   6   8    6.56    1.26
  -6   6   8    8.72    1.17
  -5   6   8    3.97    1.09
  -5   6   8    3.65    1.01
  -4   6   8   38.87    2.33
  -3   6   8  150.20    5.11
  -2   6   8   11.78    1.56
  -1   6   8   31.63    2.25
   0   6   8    7.36    1.39
   1   6   8   35.74    2.46
  -3  -6  -8    0.07    1.02
  -4  -6  -8   25.17    2.08
  -4  -6  -8   27.58    2.11
  -5  -6  -8   16.97    1.86
  -5  -6  -8   19.26    1.86
  -6  -6  -8    9.01    1.52
  -6  -6  -8    9.76    1.61
  -7  -6  -8    3.83    1.45
  -7  -6  -8    2.69    1.39
  -8  -6  -8   10.67    1.77
  -8  -6  -8    9.96    1.77
  -9  -6  -8    1.73    1.48
  -9  -6  -8    0.99    1.25
 -10  -6  -8    4.76    1.69
 -10  -6  -8    4.42    1.50
 -11  -6  -8   -0.26    1.30
 -11  -6  -8   -0.51    1.46
 -12  -6  -8   18.84    2.44
 -12  -6  -8   22.96    2.59
  19  -7  -8    4.87    1.86
  18  -7  -8    2.85    1.72
  17  -7  -8   14.96    2.20
  16  -7  -8    1.25    1.38
 -16   7   8    0.22    1.41
 -15   7   8    0.22    1.36
 -15   7   8    2.01    1.20
 -14   7   8   54.19    2.66
 -14   7   8   52.02    2.98
 -13   7   8    4.23    1.14
 -13   7   8    4.66    1.36
 -12   7   8   10.73    1.36
 -12   7   8   11.87    1.71
 -11   7   8    2.05    1.11
 -11   7   8    2.24    0.97
 -10   7   8   34.48    1.96
 -10   7   8   36.94    2.39
  -9   7   8    0.01    0.83
  -9   7   8    1.08    1.09
  -8   7   8    5.02    1.24
  -8   7   8    5.58    1.04
  -7   7   8  132.94    4.71
  -7   7   8  133.51    4.31
  -6   7   8   40.04    2.04
  -6   7   8   33.18    2.15
  -5   7   8  106.47    4.04
  -4   7   8   59.35    2.88
  -3   7   8    5.74    1.24
  -2   7   8    3.99    1.25
  -1   7   8   89.92    3.78
   0   7   8  136.62    4.93
  -2  -7  -8   78.97    3.21
  -3  -7  -8   44.92    2.44
  -3  -7  -8   44.51    2.48
  -4  -7  -8    3.86    1.25
  -4  -7  -8    2.59    1.22
  -5  -7  -8   15.31    1.82
  -5  -7  -8   18.86    1.90
  -6  -7  -8   10.49    1.73
  -6  -7  -8    9.03    1.63
  -7  -7  -8   48.38    2.93
  -7  -7  -8   45.09    2.70
  -8  -7  -8    2.93    1.46
  -8  -7  -8    3.50    1.52
  -9  -7  -8   22.52    2.40
  -9  -7  -8   21.76    2.26
 -10  -7  -8    2.22    1.53
 -10  -7  -8   -0.02    1.48
 -11  -7  -8    3.00    1.49
 -11  -7  -8    1.70    1.64
 -12  -7  -8    7.00    1.90
 -12  -7  -8    4.50    1.79
  19  -8  -8   22.02    2.52
  18  -8  -8   -0.74    1.42
  17  -8  -8    9.18    1.85
 -16   8   8    3.21    1.54
 -15   8   8    6.35    1.59
 -15   8   8    4.12    1.19
 -14   8   8   14.52    1.55
 -14   8   8   12.12    1.80
 -13   8   8    0.88    0.94
 -13   8   8    1.38    1.33
 -12   8   8    0.55    1.18
 -12   8   8    1.20    0.90
 -11   8   8    4.45    1.34
 -11   8   8    3.90    0.99
  10  -8  -8   38.97    1.74
 -10   8   8   37.10    2.00
 -10   8   8   40.11    2.48
  -9   8   8    1.70    0.87
  -9   8   8    1.05    1.16
  -8   8   8   29.36    1.74
  -8   8   8   26.72    1.99
  -7   8   8    0.48    1.29
  -7   8   8   -0.11    0.82
  -7   8   8    0.66    1.12
  -6   8   8   26.41    1.96
  -6   8   8   30.15    2.42
  -6   8   8   29.05    1.82
  -5   8   8    0.88    1.09
  -5   8   8    0.21    1.18
  -4   8   8   41.32    2.46
  -4   8   8   40.28    2.60
  -3   8   8   12.20    1.69
  -3   8   8   12.49    1.61
  -2   8   8   40.96    2.53
  -2   8   8   44.70    2.62
  -1   8   8    7.23    1.37
  -1   8   8    7.95    1.56
   0  -8  -8   25.90    1.85
   0   8   8   22.28    2.14
   0   8   8   24.67    1.95
  -1  -8  -8   15.38    1.60
   1   8   8   18.90    1.67
  -2  -8  -8   -1.01    1.08
  -2  -8  -8    1.70    1.16
  -3  -8  -8   36.22    2.28
  -3  -8  -8   33.48    2.24
  -4  -8  -8    7.56    1.52
  -4  -8  -8    6.63    1.46
  -5  -8  -8   76.93    3.46
  -5  -8  -8   74.52    3.45
  -6  -8  -8   27.78    2.36
  -6  -8  -8   27.02    2.40
  -7  -8  -8    1.53    1.38
  -7  -8  -8    1.88    1.42
  -8  -8  -8    1.24    1.43
  -8  -8  -8    2.42    1.52
  -9  -8  -8   12.51    2.00
  -9  -8  -8   10.91    1.95
 -10  -8  -8    8.32    1.83
 -10  -8  -8    8.04    1.92
 -11  -8  -8    3.07    1.71
 -11  -8  -8   -1.83    1.42
  19  -9  -8    2.27    1.65
  18  -9  -8    1.14    1.50
  17  -9  -8   11.89    1.98
 -17   9   8   16.06    2.14
 -16   9   8   26.78    2.43
 -15   9   8    1.50    1.37
 -15   9   8    2.16    1.07
 -14   9   8   49.63    2.93
 -14   9   8   52.65    2.42
 -13   9   8   12.44    1.79
 -13   9   8   12.82    1.37
 -12   9   8    0.59    1.22
 -12   9   8    2.31    0.89
 -11   9   8   17.08    1.44
 -11   9   8   17.18    1.86
 -10   9   8   42.15    3.11
 -10   9   8   49.52    2.66
 -10   9   8   41.38    2.03
  -9   9   8   79.58    4.00
  -9   9   8   85.13    2.96
  -9   9   8   79.51    3.47
  -8   9   8   18.48    1.42
  -8   9   8   19.82    1.90
  -8   9   8   15.28    2.02
  -7   9   8   86.62    3.98
  -7   9   8   85.88    3.12
  -7   9   8   90.38    3.65
  -6   9   8    0.48    1.25
  -6   9   8   -0.45    0.96
  -5   9   8    1.08    1.08
  -5   9   8    3.50    1.40
  -4   9   8    2.20    1.27
  -4   9   8   -0.05    1.14
  -3   9   8   12.30    1.69
  -3   9   8   11.65    1.59
   2  -9  -8    1.07    0.92
  -2   9   8    1.92    1.24
  -2   9   8    2.49    1.16
   1  -9  -8    1.44    0.93
  -1   9   8   -0.16    1.26
  -1   9   8   -0.41    1.10
   0  -9  -8   77.21    3.15
   0  -9  -8   77.78    3.24
   0   9   8   84.67    3.74
   0   9   8   78.98    3.44
  -1  -9  -8   -0.02    1.04
  -1  -9  -8    2.09    1.04
   1   9   8   -0.16    1.08
  -2  -9  -8    6.52    1.35
  -2  -9  -8    2.74    1.17
   2   9   8    4.94    1.22
  -3  -9  -8   -0.48    1.01
  -3  -9  -8    1.81    1.19
   3   9   8   -0.35    1.00
  -4  -9  -8   14.07    1.73
  -4  -9  -8   16.26    1.85
  -5  -9  -8    4.70    1.49
  -5  -9  -8    3.04    1.41
  -6  -9  -8   10.53    1.78
  -6  -9  -8   12.10    1.87
  -7  -9  -8    2.27    1.53
  -7  -9  -8    2.45    1.46
  -8  -9  -8   10.76    1.91
  -8  -9  -8   10.16    1.81
  -9  -9  -8   -1.35    1.41
  -9  -9  -8    0.76    1.63
 -10  -9  -8    3.58    1.83
 -10  -9  -8    2.31    1.63
  19 -10  -8    1.87    1.63
  18 -10  -8    8.51    1.87
 -17  10   8    1.23    1.45
 -16  10   8    3.87    1.58
 -15  10   8    7.80    1.64
 -14  10   8    7.83    1.63
 -13  10   8   15.11    1.84
 -13  10   8   15.85    1.35
 -12  10   8   11.88    2.09
 -12  10   8    7.17    1.40
 -12  10   8    7.91    1.09
 -11  10   8  105.72    4.13
 -11  10   8  104.78    3.50
 -11  10   8  102.78    4.75
 -10  10   8   24.92    1.59
 -10  10   8   24.28    2.10
 -10  10   8   27.74    2.58
  -9  10   8    1.10    0.81
  -9  10   8    2.51    1.22
  -9  10   8    0.89    1.43
  -8  10   8    1.85    1.50
  -8  10   8    0.39    1.14
  -8  10   8    0.67    0.82
  -7  10   8   51.65    3.13
  -7  10   8   50.85    2.76
  -7  10   8   56.10    2.34
  -6  10   8   25.56    2.10
  -6  10   8   28.60    2.42
  -5  10   8   27.22    2.19
  -5  10   8   31.61    2.50
   4 -10  -8  111.66    3.72
  -4  10   8  117.35    4.38
  -4  10   8  117.91    4.57
   3 -10  -8   37.93    1.98
  -3  10   8   39.05    2.51
  -3  10   8   33.16    2.46
   2 -10  -8   33.57    1.93
  -2  10   8   35.53    2.35
  -2  10   8   33.38    2.45
   1 -10  -8   42.45    2.21
   1 -10  -8   37.95    2.16
  -1  10   8   45.26    2.83
  -1  10   8   40.69    2.55
   0 -10  -8   23.87    1.87
   0 -10  -8   25.77    1.96
   0  10   8   27.27    2.43
   0  10   8   22.85    1.98
  -1 -10  -8   15.33    1.63
  -1 -10  -8   13.83    1.62
   1  10   8   16.78    1.68
  -2 -10  -8   10.57    1.53
  -2 -10  -8    9.13    1.53
   2  10   8   10.98    1.49
  -3 -10  -8   35.77    2.45
  -3 -10  -8   27.53    2.19
   3  10   8   35.08    2.28
  -4 -10  -8    2.06    1.26
  -4 -10  -8    0.24    1.21
  -5 -10  -8    6.16    1.55
  -5 -10  -8    3.57    1.53
  -6 -10  -8   10.66    1.86
  -6 -10  -8   10.70    1.86
  -7 -10  -8   12.58    1.93
  -7 -10  -8   11.68    1.95
  -8 -10  -8   -0.25    1.49
  -8 -10  -8    2.21    1.56
  -9 -10  -8    2.63    1.76
  -9 -10  -8   11.06    2.03
  19 -11  -8   -0.55    1.45
 -17  11   8    0.37    1.39
 -16  11   8   18.13    2.11
 -15  11   8    3.99    1.45
 -14  11   8    1.22    1.27
 -13  11   8    2.20    1.28
 -13  11   8    0.03    1.67
 -12  11   8   11.13    2.13
 -12  11   8   12.14    1.66
 -11  11   8   15.02    1.77
 -11  11   8   15.19    2.22
 -11  11   8   16.29    1.27
 -10  11   8   16.67    1.26
 -10  11   8   14.78    2.18
 -10  11   8   16.97    1.79
  -9  11   8    5.97    0.95
  -9  11   8    6.27    1.40
  -9  11   8    3.34    1.61
  -8  11   8   34.92    2.81
  -8  11   8   37.13    1.83
  -8  11   8   36.15    2.38
  -7  11   8    2.83    0.94
  -7  11   8    3.03    1.48
  -7  11   8    2.98    1.23
   6 -11  -8   20.68    1.34
  -6  11   8   16.85    2.03
  -6  11   8   18.99    1.89
   5 -11  -8   50.21    2.07
  -5  11   8   47.98    2.72
  -5  11   8   47.19    2.95
   4 -11  -8    2.73    0.90
  -4  11   8    0.48    1.29
  -4  11   8    3.08    1.27
   3 -11  -8    2.61    0.93
  -3  11   8    4.88    1.36
  -3  11   8    3.43    1.37
   2 -11  -8   16.49    1.54
   2 -11  -8   18.76    1.56
  -2  11   8   16.97    1.85
  -2  11   8   17.29    1.99
   1 -11  -8  104.71    3.72
   1 -11  -8  102.82    3.71
  -1  11   8   98.34    4.30
  -1  11   8  103.71    4.16
   0 -11  -8   13.79    1.50
   0 -11  -8   13.51    1.55
   0  11   8   15.70    1.72
  -1 -11  -8    7.54    1.35
  -1 -11  -8    7.80    1.42
   1  11   8    9.75    1.47
  -2 -11  -8    3.71    1.30
  -2 -11  -8    5.67    1.36
   2  11   8    4.51    1.27
  -3 -11  -8    7.12    1.50
  -3 -11  -8   10.56    1.60
   3  11   8    8.24    1.38
  -4 -11  -8   -1.24    1.21
  -4 -11  -8    0.55    1.29
  -5 -11  -8    7.56    1.68
  -5 -11  -8    5.58    1.60
  -6 -11  -8   44.24    3.02
  -6 -11  -8   49.75    3.14
  -7 -11  -8    6.61    1.70
  -7 -11  -8    1.77    1.56
  -8 -11  -8   23.51    2.55
  -8 -11  -8   21.12    2.53
  19 -12  -8    5.90    1.77
 -18  12   8   24.55    2.45
 -17  12   8   12.09    1.90
 -16  12   8    6.16    1.61
 -15  12   8    0.93    1.32
 -15  12   8    0.77    1.83
 -14  12   8    3.17    1.97
 -14  12   8    4.71    1.53
 -13  12   8   19.82    2.04
 -13  12   8   28.28    2.86
 -12  12   8    1.05    1.24
 -12  12   8    0.52    1.64
 -11  12   8    9.01    1.52
 -11  12   8    8.52    1.95
 -10  12   8   10.46    1.94
 -10  12   8    7.87    1.49
  -9  12   8    1.39    1.53
  -9  12   8    0.80    0.74
  -9  12   8   -0.33    1.17
  -8  12   8    6.75    1.74
  -8  12   8    3.32    1.31
  -8  12   8    5.37    0.95
   7 -12  -8   17.94    1.20
  -7  12   8   21.17    2.25
  -7  12   8   19.73    1.95
   6 -12  -8    9.89    1.00
  -6  12   8   10.14    1.58
  -6  12   8   11.26    1.90
   5 -12  -8   13.72    1.18
  -5  12   8   10.91    1.81
  -5  12   8   11.51    1.67
   4 -12  -8   -0.17    0.84
   4 -12  -8    0.88    0.83
  -4  12   8   -0.15    1.31
  -4  12   8   -1.71    1.15
   3 -12  -8    2.00    0.96
   3 -12  -8    1.61    0.93
  -3  12   8    1.53    1.35
  -3  12   8    1.92    1.34
   2 -12  -8    8.62    1.22
   2 -12  -8    8.60    1.22
  -2  12   8    6.83    1.64
  -2  12   8   10.34    1.65
   1 -12  -8   12.64    1.41
   1 -12  -8   11.65    1.45
  -1  12   8    9.16    1.80
  -1  12   8   10.94    1.65
   0 -12  -8    1.30    1.05
   0 -12  -8    2.02    1.14
   0  12   8    1.14    1.22
  -1 -12  -8    6.17    1.32
  -1 -12  -8    6.87    1.44
   1  12   8    4.28    1.35
  -2 -12  -8   11.27    1.62
  -2 -12  -8   12.18    1.62
   2  12   8   13.03    1.60
  -3 -12  -8   -0.90    1.17
  -3 -12  -8   -0.80    1.20
  -4 -12  -8    7.16    1.62
  -4 -12  -8    8.51    1.76
  -5 -12  -8   13.62    1.87
  -5 -12  -8   14.62    1.99
  -6 -12  -8    6.76    1.72
  -6 -12  -8    4.73    1.66
  -7 -12  -8    2.20    1.60
  -7 -12  -8    0.01    1.47
 -18  13   8    8.75    1.83
 -17  13   8   37.97    2.72
 -16  13   8    5.38    1.54
 -16  13   8    2.83    2.04
 -15  13   8   14.19    1.90
 -15  13   8   14.78    2.52
 -14  13   8   13.21    2.34
 -14  13   8   15.21    1.83
 -13  13   8    4.17    1.43
 -13  13   8    4.91    1.86
 -12  13   8    3.93    1.41
 -12  13   8    3.71    1.81
 -11  13   8    7.00    1.91
 -11  13   8    3.91    1.34
 -10  13   8   32.23    2.80
 -10  13   8   28.43    2.27
  -9  13   8   13.47    1.72
  -9  13   8   13.08    2.12
  -8  13   8   78.52    4.01
  -8  13   8   80.51    3.52
  -7  13   8    8.06    1.83
  -7  13   8    9.40    1.56
  -6  13   8    4.21    1.38
  -6  13   8    4.40    1.64
   5 -13  -8    2.45    0.81
  -5  13   8    1.05    1.41
  -5  13   8    2.01    1.26
   4 -13  -8   11.59    1.22
   4 -13  -8   12.25    1.25
  -4  13   8   12.56    1.76
  -4  13   8   14.24    1.93
   3 -13  -8   16.01    1.38
   3 -13  -8   14.78    1.42
  -3  13   8    9.57    1.72
  -3  13   8   13.95    1.89
   2 -13  -8    0.17    0.95
   2 -13  -8   -0.54    0.87
  -2  13   8    2.04    1.33
  -2  13   8    1.54    1.37
   1 -13  -8   23.33    1.84
  -1  13   8   23.44    2.36
  -1  13   8   23.25    2.12
   0 -13  -8    2.28    1.19
   0 -13  -8    1.87    1.14
   0  13   8    2.37    1.37
  -1 -13  -8    2.39    1.31
  -1 -13  -8   -0.31    1.05
   1  13   8    0.43    1.29
  -2 -13  -8    6.51    1.55
  -2 -13  -8    7.11    1.47
  -3 -13  -8   10.08    1.69
  -3 -13  -8    9.73    1.70
  -4 -13  -8    2.27    1.44
  -4 -13  -8    4.84    1.63
  -5 -13  -8   -1.18    1.32
  -5 -13  -8    1.17    1.41
 -18  14   8    1.71    1.43
 -17  14   8   11.52    2.55
 -17  14   8   11.79    1.92
 -16  14   8    0.76    1.96
 -16  14   8    0.72    1.39
 -15  14   8    3.43    2.02
 -15  14   8   -1.07    1.19
 -14  14   8   10.92    1.66
 -14  14   8   10.01    2.24
 -13  14   8    2.89    1.77
 -13  14   8    1.88    1.31
 -12  14   8   11.06    2.13
 -12  14   8   12.80    1.69
 -11  14   8    6.36    1.46
 -11  14   8   10.26    2.13
 -10  14   8    0.29    1.17
 -10  14   8    3.13    1.66
  -9  14   8    6.42    1.82
  -9  14   8    2.96    1.30
  -8  14   8   32.51    2.75
  -8  14   8   32.95    2.34
  -7  14   8   52.26    3.30
  -7  14   8   50.17    2.91
  -6  14   8   10.73    1.68
  -6  14   8    9.13    1.86
  -5  14   8   44.07    2.77
  -5  14   8   49.59    3.10
  -4  14   8    7.82    1.72
  -4  14   8    5.87    1.55
  -3  14   8   -1.08    1.27
  -3  14   8   -0.24    1.31
   2 -14  -8    5.61    1.22
  -2  14   8    5.36    1.57
  -2  14   8    4.72    1.66
   1 -14  -8   11.27    1.47
  -1  14   8    8.84    1.68
  -1  14   8   10.60    1.92
   0 -14  -8    7.66    1.48
   0  14   8   10.79    1.76
  -1 -14  -8   10.23    1.64
   1  14   8   11.33    1.74
  -2 -14  -8   49.40    2.93
  -3 -14  -8    8.02    1.62
  -4 -14  -8    1.52    1.42
 -17  15   8   11.22    2.59
 -17  15   8   17.23    2.05
 -16  15   8    4.02    2.14
 -16  15   8    2.64    1.49
 -15  15   8    3.21    1.49
 -15  15   8    3.30    1.98
 -14  15   8    7.36    2.16
 -14  15   8   11.87    1.81
 -13  15   8    3.98    1.94
 -13  15   8    4.27    1.37
 -12  15   8   -1.00    1.20
 -12  15   8    0.66    1.70
 -11  15   8   -1.39    1.58
 -11  15   8   -1.56    1.08
 -10  15   8    3.88    1.39
 -10  15   8    7.44    1.94
  -9  15   8    8.18    1.55
  -9  15   8   12.50    2.14
  -8  15   8    0.09    1.57
  -8  15   8    1.59    1.22
  -7  15   8    5.49    1.74
  -7  15   8    4.29    1.43
  -6  15   8    1.30    1.23
  -6  15   8    4.11    1.69
  -5  15   8    9.02    1.84
  -5  15   8    7.83    1.62
  -4  15   8    0.60    1.33
  -4  15   8    1.19    1.56
  -3  15   8    2.28    1.51
  -3  15   8    1.66    1.40
  -2  15   8   12.33    1.98
  -2  15   8   11.37    1.89
  -1  15   8    0.90    1.38
  -1  15   8   -1.07    1.48
   0  15   8    2.81    1.46
  -2 -15  -8   11.50    1.71
 -17  16   8    2.36    1.43
 -17  16   8   -0.86    2.04
 -16  16   8    5.59    2.19
 -16  16   8    3.42    1.48
 -15  16   8    6.36    1.54
 -15  16   8    8.65    2.23
 -14  16   8   46.85    3.59
 -14  16   8   44.93    2.83
 -13  16   8    6.90    1.54
 -13  16   8    7.15    2.14
 -12  16   8    7.52    1.59
 -12  16   8    5.01    2.04
 -11  16   8    7.81    1.54
 -11  16   8    5.00    1.94
 -10  16   8    7.26    2.00
 -10  16   8    9.07    1.60
  -9  16   8    4.50    1.81
  -9  16   8    4.78    1.42
  -8  16   8    3.06    1.29
  -8  16   8    3.54    1.75
  -7  16   8   24.48    2.59
  -7  16   8   25.69    2.26
  -6  16   8    2.28    1.28
  -6  16   8    3.37    1.69
  -5  16   8   12.59    1.91
  -5  16   8   15.07    2.15
  -4  16   8    8.31    1.67
  -4  16   8    7.47    1.81
  -3  16   8    1.39    1.46
  -3  16   8    4.84    1.67
  -2  16   8   -2.91    1.30
  -2  16   8   -0.15    1.46
  -1  16   8    4.15    1.59
  -1  16   8    4.26    1.76
   0  16   8    3.92    1.79
 -16  17   8    5.45    2.23
 -15  17   8    7.59    2.27
 -15  17   8    8.87    1.65
 -14  17   8    5.67    1.49
 -14  17   8    7.88    2.24
 -13  17   8    6.77    2.15
 -13  17   8    1.63    1.33
 -12  17   8   10.67    1.72
 -12  17   8   10.24    2.25
 -11  17   8   51.79    2.92
 -10  17   8   11.88    1.64
 -10  17   8   11.42    2.22
  -9  17   8   13.78    1.84
  -9  17   8   11.69    2.22
  -8  17   8   13.12    1.84
  -8  17   8   11.37    2.19
  -7  17   8    1.42    1.74
  -7  17   8    0.55    1.31
  -6  17   8   -0.03    1.64
  -6  17   8    0.11    1.26
  -5  17   8   12.08    2.13
  -5  17   8   12.02    1.91
  -4  17   8   37.51    2.82
  -4  17   8   35.39    3.00
  -3  17   8   10.40    1.93
  -3  17   8    7.09    1.86
  -2  17   8   18.05    2.34
  -2  17   8   15.23    2.18
  -1  17   8    4.04    1.76
 -14  18   8    2.96    2.03
 -13  18   8    4.00    2.06
 -12  18   8    3.61    2.03
 -11  18   8    4.08    2.01
 -10  18   8    0.44    1.24
 -10  18   8    1.33    1.85
  -9  18   8    3.49    1.88
  -9  18   8   -0.11    1.24
  -8  18   8    8.46    1.66
  -8  18   8   14.54    2.32
  -7  18   8    2.66    1.39
  -7  18   8    4.06    1.89
  -6  18   8   16.37    1.94
  -6  18   8   15.43    2.35
  -5  18   8    6.01    1.67
  -5  18   8    7.93    2.02
  -4  18   8    1.74    1.49
  -4  18   8   -0.17    1.68
 -11  19   8   15.05    2.56
 -10  19   8    6.06    2.20
  -9  19   8    3.45    1.99
  -8  19   8   -2.60    1.72
   6 -18   9   -1.95    1.34
   7 -18   9    2.93    1.44
   8 -18   9    1.49    1.47
 -10  18  -9   -1.88    1.78
 -11  18  -9   -0.27    1.76
   3 -17   9   -1.23    1.51
   4 -17   9    0.12    1.42
   5 -17   9    5.57    1.69
   6 -17   9    3.49    1.49
   7 -17   9    8.07    1.65
   8 -17   9    0.58    1.37
   9 -17   9   -0.25    1.28
  10 -17   9    3.22    1.40
 -11  17  -9    0.25    1.71
  11 -17   9    1.27    1.34
 -12  17  -9   -0.19    1.75
 -13  17  -9   -1.75    1.64
 -14  17  -9    6.85    2.08
   1 -16   9    1.18    1.54
   2 -16   9    6.88    1.80
   3 -16   9    5.69    1.74
   4 -16   9   10.21    1.88
   5 -16   9    0.93    1.46
   6 -16   9    2.20    1.43
   7 -16   9    0.59    1.37
   8 -16   9   -1.06    1.17
   9 -16   9   -0.19    1.22
  10 -16   9    7.28    1.53
 -11  16  -9    3.39    1.88
  11 -16   9   10.85    1.69
 -12  16  -9    1.66    1.69
  12 -16   9    6.32    1.50
 -13  16  -9    6.34    1.95
  13 -16   9    8.70    1.64
 -14  16  -9   -0.43    1.65
 -15  16  -9    4.62    1.88
  -1 -15   9    2.36    1.67
   0 -15   9    0.04    1.55
   1 -15   9    0.07    1.43
   2 -15   9    0.72    1.50
   3 -15   9   -0.71    1.35
   4 -15   9    3.52    1.49
   5 -15   9   -0.13    1.31
   6 -15   9   -0.38    1.26
   7 -15   9   -2.09    1.15
   8 -15   9   -0.34    1.19
   9 -15   9    5.09    1.47
  10 -15   9   -0.51    1.18
  11 -15   9   -0.41    1.16
 -12  15  -9   -3.01    1.48
  12 -15   9    2.60    1.29
 -13  15  -9    3.71    1.79
  13 -15   9    8.23    1.67
 -14  15  -9    0.75    1.57
  14 -15   9    1.59    1.41
 -15  15  -9    1.29    1.69
  15 -15   9   -1.72    1.29
 -16  15  -9    2.45    1.69
   3  14  -9    7.93    1.86
  -3 -14   9    5.40    1.88
   2  14  -9    0.60    1.46
  -2 -14   9   -0.49    1.52
   1  14  -9    3.57    1.49
  -1 -14   9    1.27    1.53
   0  14  -9    2.58    1.37
   0 -14   9    3.82    1.59
  -1  14  -9   11.68    1.67
   1 -14   9   15.12    2.06
   2 -14   9    2.51    1.49
   3 -14   9    0.26    1.35
   4 -14   9   12.15    1.84
   5 -14   9    3.72    1.52
   6 -14   9    2.31    1.35
   7 -14   9    0.95    1.24
   8 -14   9   19.60    2.04
   9 -14   9    5.36    1.43
  10 -14   9    4.95    1.40
  11 -14   9    2.94    1.34
 -12  14  -9   -1.72    1.55
  12 -14   9    0.02    1.30
 -13  14  -9    1.13    1.57
  13 -14   9    1.36    1.34
 -14  14  -9    3.80    1.64
 -15  14  -9   -1.44    1.54
 -16  14  -9    5.15    1.61
 -16  14  -9    6.35    1.77
 -17  14  -9    0.97    1.51
   4  13  -9    0.37    1.63
  -4 -13   9   -1.52    1.54
   3  13  -9   10.16    1.92
  -3 -13   9    7.94    1.91
   2  13  -9    8.13    1.72
  -2 -13   9    9.58    1.96
   1  13  -9    2.06    1.41
  -1 -13   9    0.50    1.48
   0  13  -9    3.81    1.41
   0 -13   9    6.78    1.57
  -1  13  -9    1.35    1.24
   1 -13   9   -0.78    1.31
  -2  13  -9    1.90    1.10
   2 -13   9   -1.46    1.21
  -3  13  -9    1.87    1.06
   3 -13   9    2.46    1.39
   4 -13   9    2.26    1.32
   5 -13   9    7.26    1.56
   6 -13   9    8.88    1.61
   7 -13   9   25.85    2.18
   8 -13   9    0.65    1.19
   9 -13   9   -0.91    1.16
  10 -13   9    2.80    1.37
  11 -13   9   11.57    1.71
 -12  13  -9   -0.01    1.47
  12 -13   9    1.83    1.40
 -13  13  -9    6.41    1.72
 -14  13  -9   11.52    1.89
 -15  13  -9    0.92    1.54
 -16  13  -9    8.24    1.79
 -16  13  -9    7.80    1.77
 -17  13  -9    1.37    1.50
   6  12  -9    0.09    1.66
  -6 -12   9    0.88    1.57
   5  12  -9    2.10    1.67
  -5 -12   9    0.12    1.62
   4  12  -9    5.78    1.69
  -4 -12   9    5.70    1.69
   3  12  -9   -0.55    1.32
  -3 -12   9    0.61    1.38
   2  12  -9   -0.36    1.32
  -2 -12   9   -0.17    1.43
   1  12  -9    1.64    1.31
  -1 -12   9    2.40    1.38
   0  12  -9    0.48    1.20
   0 -12   9    1.52    1.32
  -1  12  -9    2.64    1.22
   1 -12   9    3.71    1.47
  -2  12  -9    5.25    1.23
   2 -12   9    7.39    1.55
  -3  12  -9    0.92    0.99
   3 -12   9    1.10    0.92
   3 -12   9    0.86    1.28
  -4  12  -9   -0.88    0.85
   4 -12   9   -0.67    0.80
   4 -12   9   -0.55    1.20
   5 -12   9    1.21    0.78
   5 -12   9   -0.21    1.17
   6 -12   9    2.85    0.83
   6 -12   9   -0.66    1.17
   7 -12   9   12.92    1.70
   8 -12   9    1.85    1.27
   9 -12   9    3.53    1.39
  10 -12   9    2.11    1.38
 -13  12  -9    1.35    1.40
 -14  12  -9    1.84    1.40
 -15  12  -9   -0.65    1.39
 -16  12  -9   11.60    1.95
 -17  12  -9    7.09    1.85
 -18  12  -9   -0.15    1.43
   7  11  -9   -3.34    1.52
  -7 -11   9   -1.36    1.65
   6  11  -9    2.57    1.66
  -6 -11   9    2.18    1.69
   5  11  -9    5.34    1.68
  -5 -11   9    7.66    1.79
   4  11  -9    2.27    1.47
  -4 -11   9    0.44    1.37
   3  11  -9    3.96    1.54
  -3 -11   9    1.66    1.53
   2  11  -9   15.22    1.83
  -2 -11   9   15.07    2.04
   1  11  -9    1.06    1.24
  -1 -11   9    0.98    1.38
   0  11  -9    4.41    1.31
   0 -11   9    3.90    1.47
  -1  11  -9    0.60    1.02
   1 -11   9    0.79    0.92
   1 -11   9    0.79    1.29
  -2  11  -9   13.33    1.40
   2 -11   9   12.05    1.35
   2 -11   9   12.44    1.76
  -3  11  -9    2.45    1.01
   3 -11   9    4.92    1.38
   3 -11   9    2.61    0.91
  -4  11  -9   12.62    1.28
   4 -11   9   13.16    1.73
   4 -11   9   13.42    1.28
  -5  11  -9   16.57    1.31
   5 -11   9   17.19    1.36
   5 -11   9   17.76    1.90
   6 -11   9    2.02    1.24
   6 -11   9    2.04    0.82
   7 -11   9    3.31    0.90
   7 -11   9    3.59    1.33
   8 -11   9    0.20    0.80
   8 -11   9    1.23    1.19
   9 -11   9    0.37    1.18
   9 -11   9    1.02    0.85
  10 -11   9    0.16    0.87
  11 -11   9    4.37    1.03
  12 -11   9    2.72    1.09
 -13  11  -9   -1.42    1.22
 -14  11  -9   -1.60    1.32
 -15  11  -9    4.99    1.58
 -16  11  -9   -0.16    1.43
 -17  11  -9    2.96    1.62
 -18  11  -9   -2.20    1.37
 -18  11  -9   -0.41    1.46
   8  10  -9    3.30    1.76
  -8 -10   9    1.06    1.77
   7  10  -9    0.35    1.59
  -7 -10   9    2.73    1.77
   6  10  -9    4.83    1.70
  -6 -10   9    8.71    1.93
   5  10  -9    0.95    1.55
  -5 -10   9    0.98    1.57
   4  10  -9    8.40    1.66
  -4 -10   9    6.48    1.71
   3  10  -9    7.35    1.57
  -3 -10   9    4.77    1.61
   2  10  -9    3.33    1.37
  -2 -10   9    0.04    1.35
   1  10  -9   -1.05    1.11
  -1 -10   9   -0.55    1.28
   0  10  -9    8.48    1.43
   0 -10   9    8.59    1.53
   0 -10   9    8.29    1.30
  -1  10  -9   11.08    1.46
   1 -10   9   10.43    1.31
   1 -10   9   11.89    1.73
  -2  10  -9    0.47    1.00
   2 -10   9    0.60    0.96
   2 -10   9    0.54    1.25
  -3  10  -9    2.36    0.96
   3 -10   9    3.47    1.00
   3 -10   9    3.57    1.34
  -4  10  -9   -1.67    0.76
   4 -10   9   -0.52    1.03
   4 -10   9   -0.13    0.82
  -5  10  -9   12.86    1.17
   5 -10   9   12.07    1.25
   5 -10   9   12.72    1.67
  -6  10  -9    0.11    0.71
   6 -10   9    0.35    1.01
   6 -10   9    1.64    0.86
  -7  10  -9    5.76    0.81
   7 -10   9    4.90    1.37
   7 -10   9    7.67    1.06
   8 -10   9    3.98    0.96
   8 -10   9    5.88    1.40
   9 -10   9    9.85    1.21
  10 -10   9    7.44    1.22
  11 -10   9    0.51    0.97
  12 -10   9    6.92    1.33
 -13  10  -9    2.44    1.36
  13 -10   9    2.68    1.28
 -14  10  -9   13.91    1.80
 -15  10  -9    2.97    1.60
 -16  10  -9   -1.19    1.41
 -17  10  -9    5.07    1.76
 -18  10  -9    1.23    1.51
 -18  10  -9    0.44    1.54
   9   9  -9    1.92    1.73
  -9  -9   9    0.24    1.69
   8   9  -9   -0.18    1.61
  -8  -9   9    2.29    1.54
   7   9  -9    1.48    1.62
  -7  -9   9   -2.01    1.47
   6   9  -9    4.82    1.67
  -6  -9   9    5.28    1.76
   5   9  -9    8.00    1.71
  -5  -9   9    9.12    1.83
   4   9  -9   -0.42    1.28
  -4  -9   9    1.84    1.46
   3   9  -9    6.43    1.49
  -3  -9   9    7.18    1.64
   2   9  -9    2.11    1.24
  -2  -9   9   -0.58    1.07
  -2  -9   9    1.03    1.28
   1   9  -9    5.35    1.41
  -1  -9   9    7.28    1.26
  -1  -9   9    6.77    1.52
   0   9  -9   -0.73    1.06
   0  -9   9    2.06    1.29
   0  -9   9    1.14    1.00
  -1   9  -9    3.87    1.15
   1  -9   9    3.19    1.24
   1  -9   9    4.36    1.09
  -2   9  -9    2.65    1.03
   2  -9   9    3.90    1.02
   2  -9   9    4.35    1.37
  -3   9  -9    6.89    1.15
   3  -9   9   10.68    1.60
   3  -9   9    8.32    1.14
  -4   9  -9    4.34    0.96
   4  -9   9    5.71    1.38
   4  -9   9    6.47    1.03
  -5   9  -9    0.55    0.76
   5  -9   9    0.28    1.17
   5  -9   9    0.80    0.88
  -6   9  -9   26.64    1.55
   6  -9   9   23.21    2.02
   6  -9   9   22.42    1.69
   7  -9   9    4.15    1.04
   8  -9   9    5.49    1.12
   9  -9   9    0.84    0.96
  10  -9   9   11.27    1.36
  11  -9   9   12.85    1.57
  12  -9   9   -0.12    1.14
 -13   9  -9    0.91    1.26
 -14   9  -9    4.15    1.40
 -15   9  -9    2.54    1.57
 -16   9  -9   -1.82    1.39
 -17   9  -9    3.15    1.67
 -17   9  -9    1.38    1.56
 -18   9  -9    1.41    1.59
 -18   9  -9    0.99    1.52
  10   8  -9    3.37    1.83
 -10  -8   9   -0.44    1.61
   9   8  -9    1.10    1.71
  -9  -8   9    2.88    1.71
   8   8  -9    4.06    1.74
  -8  -8   9    5.78    1.80
   7   8  -9   -0.09    1.47
  -7  -8   9   -0.24    1.34
   6   8  -9   18.07    2.13
  -6  -8   9   18.31    2.13
   5   8  -9    2.32    1.39
  -5  -8   9   -1.91    1.30
   4   8  -9    1.97    1.35
  -4  -8   9    3.97    1.37
   3   8  -9    1.67    1.32
  -3  -8   9    1.55    1.08
  -3  -8   9   -0.61    1.25
   2   8  -9    3.68    1.22
  -2  -8   9    3.67    1.20
  -2  -8   9    5.06    1.40
   1   8  -9    3.98    1.21
  -1  -8   9    3.65    1.12
  -1  -8   9    2.54    1.21
   0   8  -9    3.24    1.17
   0  -8   9    2.60    1.02
   0  -8   9    4.33    1.37
  -1   8  -9   -0.77    0.95
   1  -8   9   -1.00    1.15
   1  -8   9   -1.88    0.86
  -2   8  -9   -2.64    0.86
   2  -8   9    1.74    1.25
   2  -8   9    1.12    0.85
  -3   8  -9    0.74    0.86
   3  -8   9    1.26    1.07
   3  -8   9    0.79    0.89
   4  -8   9    2.78    1.22
   4  -8   9    2.38    0.91
   5  -8   9   37.64    2.01
   5  -8   9   38.56    2.43
   6  -8   9    0.06    0.86
   7  -8   9    0.91    0.93
   8  -8   9    3.67    1.12
   9  -8   9    4.29    1.10
  10  -8   9    2.50    1.21
  11  -8   9    4.48    1.31
 -13   8  -9    6.58    1.39
 -14   8  -9    1.76    1.52
 -15   8  -9    0.33    1.45
 -16   8  -9    0.47    1.55
 -17   8  -9    1.63    1.57
 -17   8  -9   -0.39    1.50
 -18   8  -9    1.43    1.57
 -18   8  -9    3.34    1.66
  11   7  -9    1.94    1.76
 -11  -7   9    1.16    1.70
  10   7  -9    7.79    2.00
 -10  -7   9    5.51    1.73
   9   7  -9    2.15    1.63
  -9  -7   9   -0.54    1.46
   8   7  -9    0.43    1.50
  -8  -7   9   -0.49    1.27
   7   7  -9   -0.71    1.39
  -7  -7   9    0.42    1.25
   6   7  -9   27.82    2.45
  -6  -7   9   27.40    2.48
   5   7  -9   13.70    1.86
  -5  -7   9   13.20    1.86
  -5  -7   9   16.60    1.83
   4   7  -9    5.70    1.41
  -4  -7   9    3.26    1.25
  -4  -7   9    4.09    1.43
   3   7  -9    6.05    1.44
  -3  -7   9    5.82    1.29
  -3  -7   9    5.32    1.51
   2   7  -9    5.30    1.31
  -2  -7   9    6.56    1.42
  -2  -7   9    4.82    1.19
   1   7  -9    0.24    1.05
  -1  -7   9    1.79    1.21
  -1  -7   9    1.76    1.01
   0   7  -9    1.12    1.04
   0  -7   9   -0.67    1.00
   0  -7   9    1.80    0.95
  -1   7  -9    9.68    1.25
   1  -7   9   10.59    1.61
   1  -7   9    7.19    1.17
   2  -7   9   26.95    1.96
   2  -7   9   26.16    1.73
   3  -7   9   56.07    2.48
   3  -7   9   50.50    2.66
   4  -7   9   54.52    2.47
   4  -7   9   55.54    2.84
   5  -7   9    0.31    0.91
   6  -7   9    2.04    0.99
   7  -7   9   -0.08    1.01
   8  -7   9    0.63    1.00
   9  -7   9    3.44    1.24
  10  -7   9    4.83    1.36
 -14   7  -9   -1.22    1.19
 -15   7  -9    0.34    1.40
 -16   7  -9    0.97    1.33
 -16   7  -9    2.15    1.59
 -17   7  -9    1.73    1.56
 -17   7  -9    2.05    1.65
 -18   7  -9    1.28    1.61
 -18   7  -9    0.58    1.58
  12   6  -9    0.91    1.80
 -12  -6   9    0.96    1.75
  11   6  -9    5.17    1.86
 -11  -6   9    5.21    1.81
  10   6  -9    1.82    1.52
 -10  -6   9    3.45    1.70
   9   6  -9    2.34    1.60
  -9  -6   9   -0.42    1.46
   8   6  -9    2.43    1.59
  -8  -6   9    2.84    1.50
   7   6  -9    7.76    1.78
  -7  -6   9   10.19    1.69
   6   6  -9    1.77    1.39
  -6  -6   9    2.51    1.29
  -6  -6   9    3.02    1.23
   5   6  -9    3.01    1.40
  -5  -6   9    1.47    1.21
  -5  -6   9    2.79    1.37
   4   6  -9    0.98    1.22
  -4  -6   9   -0.40    1.06
  -4  -6   9    2.94    1.31
   3   6  -9   22.28    1.96
  -3  -6   9   25.47    1.91
  -3  -6   9   21.60    1.99
   2   6  -9    1.57    1.13
  -2  -6   9    1.15    1.09
  -2  -6   9    1.01    1.05
   1   6  -9    1.08    1.09
  -1  -6   9    2.66    1.05
  -1  -6   9    1.50    1.22
   0  -6   9   25.45    1.80
   0  -6   9   24.08    2.01
   1  -6   9    9.96    1.29
   1  -6   9    9.76    1.52
   2  -6   9   12.14    1.52
   2  -6   9   10.22    1.26
   3  -6   9    0.75    1.06
   3  -6   9   -0.67    0.88
   4  -6   9   29.23    1.94
   5  -6   9    3.49    1.10
   6  -6   9   26.30    1.96
   7  -6   9    9.52    1.33
   8  -6   9   -1.33    0.96
   9  -6   9    8.04    1.47
 -12   6  -9    0.11    1.03
 -13   6  -9   20.61    2.35
 -14   6  -9   12.36    1.88
 -15   6  -9    3.67    1.49
 -15   6  -9    4.49    1.66
 -16   6  -9    5.24    1.75
 -16   6  -9    5.63    1.68
 -17   6  -9    2.77    1.67
 -17   6  -9    1.09    1.52
 -18   6  -9   -1.43    1.50
 -18   6  -9   -0.14    1.60
  12   5  -9    7.55    1.97
 -12  -5   9    7.80    1.86
  11   5  -9   -0.34    1.61
 -11  -5   9   -1.08    1.48
  10   5  -9   -0.81    1.52
 -10  -5   9    2.26    1.42
   9   5  -9    3.52    1.52
  -9  -5   9    2.89    1.54
   8   5  -9    8.15    1.75
  -8  -5   9    5.74    1.52
   7   5  -9   -0.13    1.32
  -7  -5   9    0.24    1.24
  -7  -5   9   -0.68    1.15
   6   5  -9   15.88    1.95
  -6  -5   9   17.70    1.80
  -6  -5   9   15.91    1.94
   5   5  -9   14.00    1.80
  -5  -5   9   13.43    1.77
  -5  -5   9   11.60    1.62
   4   5  -9    1.78    1.24
  -4  -5   9    1.39    1.20
  -4  -5   9    0.76    0.98
   3   5  -9   36.04    2.37
  -3  -5   9   37.46    2.43
  -3  -5   9   38.96    2.29
  -2  -5   9   -0.87    1.07
  -2  -5   9    1.33    0.98
  -1  -5   9    5.32    1.12
  -1  -5   9    4.56    1.27
   0  -5   9    2.12    0.97
   0  -5   9    1.41    1.02
   1  -5   9    8.89    1.35
   1  -5   9    9.91    1.26
   2  -5   9   -1.34    1.05
   2  -5   9   -0.27    0.85
   3  -5   9    8.61    1.26
   4  -5   9   -0.26    0.89
   5  -5   9    1.18    1.01
   6  -5   9   10.05    1.33
   7  -5   9   32.10    2.22
   8  -5   9    2.75    1.16
 -13   5  -9    0.33    1.38
 -14   5  -9    2.12    1.55
 -15   5  -9    0.75    1.31
 -15   5  -9   -1.65    1.21
 -16   5  -9    5.91    1.71
 -16   5  -9    5.85    1.69
 -17   5  -9   -0.39    1.53
 -17   5  -9    0.88    1.35
  13   4  -9   -0.49    1.73
 -13  -4   9   -0.17    1.61
  12   4  -9    6.67    1.93
 -12  -4   9   14.23    2.14
  11   4  -9    3.33    1.84
 -11  -4   9    5.04    1.69
  10   4  -9   14.26    2.11
 -10  -4   9   12.56    1.98
   9   4  -9    2.19    1.36
  -9  -4   9    2.06    1.45
   8   4  -9   -1.37    1.21
  -8  -4   9   -0.22    1.27
  -8  -4   9    0.02    1.27
   7   4  -9   11.78    1.70
  -7  -4   9   12.96    1.72
  -7  -4   9   13.47    1.80
   6   4  -9    2.81    1.38
  -6  -4   9    0.43    1.06
  -6  -4   9    2.43    1.29
   5   4  -9    4.91    1.40
  -5  -4   9    4.65    1.28
  -5  -4   9    5.64    1.31
   4   4  -9    1.12    1.18
  -4  -4   9    1.90    1.13
  -4  -4   9    1.47    1.16
  -3  -4   9   59.61    2.78
  -3  -4   9   62.29    2.97
  -2  -4   9   28.64    1.98
  -2  -4   9   28.76    1.98
  -1  -4   9   -0.80    0.86
  -1  -4   9   -0.05    0.92
   0  -4   9   25.33    1.70
   0  -4   9   24.97    1.91
   1  -4   9    0.28    0.91
   1  -4   9    1.43    1.00
   2  -4   9   20.33    1.79
   2  -4   9   15.00    1.49
   3  -4   9    2.84    1.01
   4  -4   9   23.61    1.84
   5  -4   9   11.48    1.42
   6  -4   9   11.02    1.48
   7  -4   9   53.54    2.74
 -12   4  -9    3.61    1.44
 -13   4  -9   -0.11    1.36
 -14   4  -9    3.79    1.53
 -14   4  -9    3.66    1.46
 -15   4  -9    0.13    1.47
 -15   4  -9    2.07    1.56
 -16   4  -9    2.15    1.49
 -16   4  -9    2.34    1.63
 -17   4  -9   -0.50    1.50
 -17   4  -9   -1.59    1.50
  14   3  -9    0.94    1.69
  13   3  -9    7.46    1.90
 -13  -3   9    7.21    1.95
  12   3  -9    1.47    1.68
 -12  -3   9    1.96    1.55
  11   3  -9    0.18    1.55
 -11  -3   9   -0.21    1.43
  10   3  -9    3.30    1.59
 -10  -3   9    1.53    1.36
   9   3  -9    3.16    1.55
  -9  -3   9   -0.42    1.28
  -9  -3   9    0.17    1.22
   8   3  -9    0.94    1.34
  -8  -3   9    3.63    1.38
  -8  -3   9    2.44    1.28
   7   3  -9    4.93    1.38
  -7  -3   9    5.00    1.38
  -7  -3   9    2.85    1.24
   6   3  -9   10.08    1.68
  -6  -3   9    7.68    1.46
  -6  -3   9    7.73    1.42
  -5  -3   9    0.58    1.09
  -5  -3   9    2.78    1.24
  -4  -3   9   54.27    2.72
  -4  -3   9   58.59    2.78
  -3  -3   9    1.66    1.12
  -3  -3   9    1.48    1.06
  -2  -3   9   11.04    1.40
  -2  -3   9    7.84    1.34
  -1  -3   9    3.78    1.19
  -1  -3   9    3.48    1.00
   0  -3   9   28.46    1.94
   0  -3   9   29.19    1.95
   1  -3   9   15.15    1.46
   1  -3   9   11.47    1.54
   2  -3   9    1.28    0.88
   3  -3   9   28.53    1.92
   4  -3   9    1.15    0.99
   5  -3   9   -0.03    0.95
   6  -3   9    0.90    1.12
 -12   3  -9    4.11    1.55
 -13   3  -9    3.58    1.58
 -13   3  -9    4.60    1.65
 -14   3  -9    2.73    1.57
 -14   3  -9    2.98    1.47
 -15   3  -9   -1.24    1.40
 -15   3  -9   -0.31    1.27
 -16   3  -9    4.27    1.72
 -16   3  -9    6.55    1.68
 -17   3  -9    6.06    1.81
 -17   3  -9    3.54    1.81
  14   2  -9    3.35    1.87
 -14  -2   9    4.78    1.80
  13   2  -9    3.05    1.77
 -13  -2   9   -0.38    1.49
  12   2  -9    0.92    1.44
 -12  -2   9    0.10    1.46
  11   2  -9    0.16    1.38
 -11  -2   9    1.91    1.42
  10   2  -9    7.10    1.76
 -10  -2   9    7.03    1.56
 -10  -2   9    8.00    1.64
   9   2  -9   13.66    1.84
  -9  -2   9   11.09    1.66
  -9  -2   9   14.34    1.85
   8   2  -9    1.95    1.45
  -8  -2   9    1.94    1.32
  -8  -2   9    0.79    1.25
   7   2  -9    3.48    1.32
  -7  -2   9    4.89    1.38
  -7  -2   9    4.08    1.35
  -6  -2   9   -1.97    1.04
  -6  -2   9    0.57    1.06
  -5  -2   9   27.52    1.95
  -5  -2   9   29.14    2.18
  -4  -2   9   13.20    1.58
  -4  -2   9   10.22    1.52
  -3  -2   9    1.05    0.99
  -3  -2   9    0.32    0.89
  -2  -2   9   17.32    1.72
  -2  -2   9   20.19    1.69
  -1  -2   9    2.07    1.02
  -1  -2   9    1.40    1.00
   0  -2   9   14.19    1.60
   0  -2   9   17.84    1.64
   1  -2   9    1.36    1.00
   2  -2   9   14.66    1.52
   3  -2   9   14.46    1.57
   4  -2   9   17.87    1.70
   5  -2   9   12.23    1.61
   6  -2   9   27.85    2.18
 -11   2  -9   -1.24    1.13
 -12   2  -9    3.75    1.55
 -12   2  -9    5.33    1.56
 -13   2  -9    8.66    1.75
 -13   2  -9    9.00    1.76
 -14   2  -9    1.05    1.45
 -14   2  -9   -0.12    1.43
 -15   2  -9    5.65    1.78
 -15   2  -9    7.00    1.73
 -16   2  -9   -1.12    1.29
 -16   2  -9    0.93    1.44
  15   1  -9    3.91    1.75
  14   1  -9   -0.53    1.74
 -14  -1   9   -1.64    1.40
  13   1  -9    9.99    2.03
 -13  -1   9    9.01    1.86
  12   1  -9    0.70    1.53
 -12  -1   9    1.87    1.34
  11   1  -9    2.85    1.59
 -11  -1   9    6.27    1.64
 -11  -1   9    2.95    1.36
  10   1  -9   -0.25    1.44
 -10  -1   9   -1.38    1.21
 -10  -1   9    0.39    1.19
   9   1  -9   14.26    1.91
  -9  -1   9   11.74    1.67
  -9  -1   9   11.78    1.67
   8   1  -9    7.44    1.64
  -8  -1   9    2.90    1.22
  -8  -1   9    4.40    1.37
  -7  -1   9    1.22    1.19
  -7  -1   9    0.82    1.07
  -6  -1   9    9.82    1.50
  -6  -1   9    8.40    1.44
  -5  -1   9    9.00    1.38
  -5  -1   9    8.93    1.45
  -4  -1   9    8.32    1.31
  -4  -1   9    8.47    1.29
  -3  -1   9    1.38    1.11
  -3  -1   9    2.42    0.99
  -2  -1   9   13.69    1.53
  -2  -1   9   12.57    1.48
  -1  -1   9    1.43    1.07
  -1  -1   9    1.31    1.04
   0  -1   9   74.20    3.12
   1  -1   9   77.83    3.14
   2  -1   9    1.81    1.01
   3  -1   9    4.36    1.09
   4  -1   9    3.18    1.22
   5  -1   9   -0.96    1.06
 -10   1  -9    3.60    1.42
 -11   1  -9    1.78    1.26
 -11   1  -9    0.45    1.33
 -12   1  -9    0.64    1.39
 -12   1  -9    0.94    1.44
 -13   1  -9    1.11    1.49
 -13   1  -9    2.19    1.35
 -14   1  -9    1.90    1.65
 -14   1  -9    4.09    1.67
 -15   1  -9    2.82    1.64
 -15   1  -9   -0.08    1.40
 -16   1  -9    1.89    1.76
 -16   1  -9    0.22    1.54
  15   0  -9    0.57    1.77
  14   0  -9    1.98    1.69
 -14   0   9    2.40    1.57
  13   0  -9    5.47    1.65
 -13   0   9    4.51    1.49
  12   0  -9   -1.96    1.43
 -12   0   9    2.65    1.52
 -12   0   9    0.42    1.17
  11   0  -9    3.83    1.59
 -11   0   9    3.86    1.42
 -11   0   9    6.22    1.51
  10   0  -9    9.32    1.78
 -10   0   9   11.21    1.65
 -10   0   9    7.61    1.48
  -9   0   9    0.45    1.25
  -9   0   9   -0.05    1.05
  -8   0   9    3.33    1.25
  -8   0   9    0.97    1.10
  -7   0   9    0.84    1.16
  -7   0   9    0.30    1.02
  -6   0   9   31.41    2.18
  -6   0   9   27.97    2.12
  -5   0   9    1.17    1.10
  -5   0   9    1.23    1.11
  -4   0   9   23.61    1.82
  -4   0   9   25.97    1.84
  -3   0   9   29.27    1.96
  -3   0   9   32.38    2.00
  -2   0   9   11.52    1.47
  -2   0   9   16.54    1.60
  -1   0   9   80.36    3.31
   0   0   9   -0.08    0.94
   1   0   9   74.79    3.17
   2   0   9   17.36    1.72
   3   0   9   30.43    2.02
   4   0   9   24.12    1.99
 -10   0  -9    6.30    1.61
 -11   0  -9    3.45    1.48
 -11   0  -9    2.82    1.55
 -12   0  -9   -0.23    1.31
 -12   0  -9    1.08    1.32
 -13   0  -9    4.12    1.72
 -13   0  -9    6.19    1.69
 -14   0  -9    1.19    1.57
 -14   0  -9    2.28    1.60
 -15   0  -9    0.35    1.58
 -15   0  -9   -0.46    1.30
  16  -1  -9    4.74    2.01
  15  -1  -9    5.09    1.74
 -15   1   9    5.63    1.72
  14  -1  -9    6.65    1.89
 -14   1   9    3.28    1.55
  13  -1  -9    0.51    1.56
 -13   1   9    1.61    1.41
  12  -1  -9    1.22    1.54
 -12   1   9   -1.10    1.09
 -12   1   9    2.01    1.42
  11  -1  -9   -0.18    1.40
 -11   1   9    0.35    1.33
 -11   1   9    0.53    1.23
 -10   1   9    8.07    1.56
 -10   1   9    4.76    1.37
  -9   1   9    3.93    1.20
  -9   1   9    3.13    1.35
  -8   1   9    0.27    1.17
  -8   1   9    1.16    1.13
  -7   1   9    2.79    1.16
  -7   1   9    2.25    1.16
  -6   1   9    4.20    1.26
  -6   1   9    5.16    1.21
  -5   1   9   -0.75    0.97
  -5   1   9    0.02    1.05
  -4   1   9    2.77    1.14
  -4   1   9    4.00    1.11
  -3   1   9    3.32    1.16
  -3   1   9    2.03    1.07
  -2   1   9    0.41    0.93
  -2   1   9    0.28    0.92
  -1   1   9   64.97    2.88
   0   1   9   78.90    3.30
   1   1   9    3.39    1.20
   2   1   9   12.38    1.52
   3   1   9    1.90    1.18
   4   1   9    8.64    1.56
  -9  -1  -9    9.89    1.76
 -10  -1  -9    0.33    1.19
 -10  -1  -9    2.75    1.48
 -11  -1  -9    3.57    1.49
 -11  -1  -9    2.53    1.54
 -12  -1  -9    0.94    1.29
 -12  -1  -9    2.76    1.55
 -13  -1  -9    9.24    1.77
 -13  -1  -9    8.64    1.78
 -14  -1  -9    2.87    1.60
 -14  -1  -9   -1.00    1.38
 -15  -1  -9    2.68    1.67
 -15  -1  -9   -1.03    1.66
  16  -2  -9   -1.25    1.46
  15  -2  -9    9.27    2.03
 -15   2   9    7.46    1.75
  14  -2  -9   -0.82    1.56
 -14   2   9    0.97    1.33
  13  -2  -9   13.07    2.03
 -13   2   9   12.45    1.96
 -13   2   9   13.30    1.83
  12  -2  -9    3.39    1.61
 -12   2   9    1.35    1.26
 -12   2   9    3.72    1.35
 -11   2   9    1.52    1.31
 -11   2   9    0.42    1.13
 -10   2   9    3.93    1.28
 -10   2   9    2.88    1.25
  -9   2   9    5.55    1.29
  -9   2   9    6.29    1.49
  -8   2   9   -0.28    1.00
  -8   2   9    1.63    1.10
  -7   2   9   -0.08    1.00
  -7   2   9   -1.74    0.97
  -6   2   9   28.10    2.12
  -6   2   9   28.99    2.04
  -5   2   9    8.88    1.34
  -5   2   9    7.88    1.22
  -4   2   9   18.78    1.65
  -4   2   9   13.83    1.54
  -3   2   9   13.78    1.48
  -3   2   9   12.74    1.50
  -2   2   9   15.65    1.64
  -1   2   9    1.93    1.03
   0   2   9   15.06    1.65
   1   2   9    2.45    1.14
   2   2   9   17.36    1.75
   3   2   9   -1.99    1.05
  -8  -2  -9    0.95    1.20
  -9  -2  -9    9.48    1.71
  -9  -2  -9    7.43    1.70
 -10  -2  -9    5.09    1.43
 -10  -2  -9    5.36    1.62
 -11  -2  -9   -0.33    1.32
 -11  -2  -9    1.04    1.49
 -12  -2  -9    2.69    1.48
 -12  -2  -9   -0.08    1.25
 -13  -2  -9    0.46    1.56
 -13  -2  -9    0.57    1.47
 -14  -2  -9    2.02    1.54
 -14  -2  -9    6.01    1.81
  17  -3  -9    8.93    2.17
  16  -3  -9    8.29    1.92
  15  -3  -9   -2.84    1.51
 -15   3   9   -0.90    1.29
  14  -3  -9    1.93    1.72
 -14   3   9    1.33    1.53
 -14   3   9    4.53    1.46
  13  -3  -9    7.70    1.81
 -13   3   9    6.26    1.64
 -13   3   9    4.20    1.41
 -12   3   9    2.90    1.46
 -12   3   9    3.56    1.33
 -11   3   9    1.20    1.31
 -11   3   9    0.83    1.11
 -10   3   9    5.14    1.47
 -10   3   9    8.81    1.46
  -9   3   9   24.21    1.95
  -9   3   9   24.18    2.15
  -8   3   9   40.02    2.30
  -8   3   9   39.78    2.38
  -7   3   9   63.62    3.04
  -7   3   9   63.31    2.86
  -6   3   9    0.82    0.92
  -6   3   9    0.15    1.08
  -5   3   9   -0.46    0.91
  -5   3   9   -0.15    0.97
  -4   3   9    1.81    0.96
  -4   3   9    0.91    0.98
  -3   3   9   31.32    2.07
  -3   3   9   28.78    2.01
  -2   3   9    2.62    1.05
  -1   3   9   11.34    1.48
   0   3   9   32.99    2.28
   1   3   9    4.25    1.19
   2   3   9   11.94    1.67
   3   3   9    0.04    1.08
  -7  -3  -9    1.46    1.34
  -7  -3  -9    1.01    1.18
  -8  -3  -9    3.46    1.45
  -8  -3  -9    2.03    1.32
  -9  -3  -9    0.17    1.30
  -9  -3  -9    1.50    1.39
 -10  -3  -9    2.28    1.37
 -10  -3  -9    2.84    1.41
 -11  -3  -9   -0.32    1.38
 -11  -3  -9    0.70    1.42
 -12  -3  -9    0.85    1.44
 -12  -3  -9    1.43    1.43
 -13  -3  -9    9.96    2.02
 -13  -3  -9    1.77    1.67
 -14  -3  -9    2.37    1.69
 -14  -3  -9    0.43    1.50
  17  -4  -9    3.81    1.74
  16  -4  -9    2.91    1.81
  15  -4  -9    0.57    1.67
 -15   4   9   -0.43    1.25
  14  -4  -9    8.62    1.94
 -14   4   9    4.57    1.49
 -14   4   9    3.67    1.49
 -13   4   9   -0.85    1.30
 -13   4   9   -2.06    1.06
 -12   4   9    3.73    1.31
 -12   4   9    1.31    1.26
 -11   4   9    4.66    1.38
 -11   4   9    4.13    1.22
 -10   4   9    1.82    1.11
 -10   4   9    1.05    1.25
  -9   4   9   -0.83    0.92
  -9   4   9   -1.42    1.10
  -8   4   9    1.30    1.22
  -8   4   9    2.21    1.04
  -7   4   9   60.30    2.84
  -7   4   9   52.80    2.60
  -6   4   9   12.66    1.64
  -6   4   9   11.40    1.41
  -5   4   9    9.21    1.40
  -5   4   9    9.42    1.35
  -4   4   9   25.60    1.78
  -4   4   9   27.62    1.98
  -3   4   9    2.50    1.08
  -2   4   9   21.62    1.92
  -1   4   9    1.95    1.11
   0   4   9   24.23    2.02
   1   4   9   -0.36    1.13
   2   4   9   28.70    2.15
  -6  -4  -9    1.83    1.29
  -6  -4  -9   -1.03    1.13
  -7  -4  -9    8.12    1.61
  -7  -4  -9    9.10    1.71
  -8  -4  -9   -1.60    1.16
  -8  -4  -9    0.79    1.37
  -9  -4  -9    1.59    1.41
  -9  -4  -9    4.00    1.52
 -10  -4  -9   10.27    1.78
 -10  -4  -9   10.52    1.86
 -11  -4  -9    1.99    1.62
 -11  -4  -9    5.43    1.59
 -12  -4  -9   12.17    2.03
 -12  -4  -9   13.18    2.13
 -13  -4  -9   -1.83    1.54
 -13  -4  -9    2.10    1.46
  17  -5  -9    0.19    1.72
  16  -5  -9    7.43    2.03
 -16   5   9    8.02    1.71
  15  -5  -9    1.25    1.65
 -15   5   9    0.45    1.23
 -15   5   9   -0.07    1.47
  14  -5  -9    6.88    1.82
 -14   5   9    4.97    1.59
 -14   5   9    6.04    1.40
 -13   5   9   -1.46    1.10
 -13   5   9   -0.41    1.19
 -12   5   9   12.69    1.77
 -12   5   9   14.77    1.67
 -11   5   9    1.36    1.06
 -11   5   9    2.12    1.26
 -10   5   9   11.29    1.64
 -10   5   9   14.04    1.53
  -9   5   9    5.13    1.17
  -9   5   9    4.76    1.43
  -8   5   9    1.51    1.05
  -8   5   9    1.59    0.99
  -7   5   9   28.97    1.93
  -7   5   9   26.78    2.15
  -6   5   9    8.53    1.41
  -6   5   9   10.48    1.36
  -5   5   9    0.40    0.96
  -5   5   9    0.82    1.12
  -4   5   9    1.98    1.07
  -3   5   9   10.03    1.51
  -2   5   9   -0.08    0.98
  -1   5   9    8.51    1.46
   0   5   9   -0.22    1.15
   1   5   9    3.42    1.37
   2   5   9    0.99    1.29
  -5  -5  -9    9.85    1.61
  -5  -5  -9   12.20    1.73
  -6  -5  -9   15.25    1.87
  -6  -5  -9   14.01    1.87
  -7  -5  -9    1.52    1.31
  -7  -5  -9   -0.61    1.30
  -8  -5  -9    8.30    1.65
  -8  -5  -9    6.01    1.63
  -9  -5  -9    1.97    1.47
  -9  -5  -9    1.57    1.47
 -10  -5  -9    0.59    1.43
 -10  -5  -9    0.68    1.34
 -11  -5  -9   -2.51    1.40
 -11  -5  -9    1.43    1.37
 -12  -5  -9    7.66    1.92
 -12  -5  -9    6.42    1.85
  18  -6  -9    1.72    1.84
  17  -6  -9    2.43    1.85
  16  -6  -9    6.38    1.92
 -16   6   9    7.32    1.76
 -16   6   9    7.16    1.57
  15  -6  -9    1.81    1.69
 -15   6   9    3.57    1.62
 -15   6   9    3.95    1.42
 -14   6   9   15.53    1.99
 -14   6   9   18.93    1.89
 -13   6   9   29.11    2.17
 -13   6   9   27.68    2.48
 -12   6   9    1.85    1.40
 -12   6   9    2.54    1.15
 -11   6   9   16.34    1.84
 -11   6   9   14.57    1.61
 -10   6   9   -0.49    1.19
 -10   6   9   -0.58    1.00
  -9   6   9    9.11    1.27
  -9   6   9    7.97    1.47
  -8   6   9    0.80    0.97
  -8   6   9   -0.29    1.15
  -7   6   9    8.76    1.26
  -7   6   9    8.79    1.56
  -6   6   9   27.83    1.87
  -6   6   9   29.53    2.22
  -5   6   9    4.32    1.22
  -5   6   9    5.00    1.16
  -4   6   9   29.62    2.22
  -3   6   9   -0.82    1.07
  -2   6   9   12.85    1.67
  -1   6   9    8.77    1.52
   0   6   9   24.02    2.17
   1   6   9    1.30    1.22
   2   6   9    0.31    1.21
  -4  -6  -9   -0.79    1.18
  -4  -6  -9    3.56    1.22
  -5  -6  -9    1.02    1.26
  -5  -6  -9    3.22    1.36
  -6  -6  -9    0.46    1.34
  -6  -6  -9    1.51    1.31
  -7  -6  -9    7.08    1.64
  -7  -6  -9   10.44    1.67
  -8  -6  -9    2.50    1.42
  -8  -6  -9   -0.67    1.29
  -9  -6  -9    0.50    1.50
  -9  -6  -9   -0.44    1.39
 -10  -6  -9    5.03    1.71
 -10  -6  -9   -0.22    1.41
 -11  -6  -9    1.25    1.68
 -11  -6  -9    3.78    1.67
 -12  -6  -9   -1.42    1.33
 -12  -6  -9   -1.13    1.56
  18  -7  -9    0.99    1.57
  17  -7  -9    4.05    1.75
  16  -7  -9   -0.69    1.58
 -16   7   9   -0.22    1.24
 -16   7   9    1.26    1.41
 -15   7   9    0.00    1.05
 -15   7   9    1.01    1.49
 -14   7   9    1.29    1.42
 -14   7   9   -0.62    1.10
 -13   7   9   10.31    1.84
 -13   7   9    7.41    1.38
 -12   7   9   -0.09    0.94
 -12   7   9    0.79    1.31
 -11   7   9   11.76    1.77
 -11   7   9   10.83    1.43
 -10   7   9    4.38    1.33
 -10   7   9    1.65    1.01
  -9   7   9    4.85    1.11
  -9   7   9    2.89    1.22
  -8   7   9    0.14    0.92
  -8   7   9    0.73    1.19
  -7   7   9   -0.51    0.94
  -7   7   9    1.37    1.18
  -6   7   9    1.59    1.01
  -6   7   9    3.07    1.27
  -5   7   9    0.72    1.17
  -4   7   9   59.51    3.01
  -3   7   9   54.03    2.87
  -2   7   9   27.18    2.26
  -1   7   9    9.66    1.53
   0   7   9    0.40    1.31
   1   7   9   -0.84    1.12
  -2  -7  -9    6.73    1.39
  -3  -7  -9    5.27    1.37
  -3  -7  -9    5.59    1.39
  -4  -7  -9    1.81    1.29
  -4  -7  -9    3.62    1.32
  -5  -7  -9    8.79    1.66
  -5  -7  -9   13.05    1.81
  -6  -7  -9   24.47    2.31
  -6  -7  -9   24.61    2.26
  -7  -7  -9   -1.55    1.28
  -7  -7  -9    0.72    1.34
  -8  -7  -9   -1.62    1.29
  -8  -7  -9    1.11    1.46
  -9  -7  -9   -2.80    1.29
  -9  -7  -9   -1.30    1.35
 -10  -7  -9    8.67    1.97
 -10  -7  -9    5.97    1.80
 -11  -7  -9    1.69    1.62
 -11  -7  -9    0.69    1.56
  18  -8  -9    3.46    1.86
  17  -8  -9   -1.19    1.56
 -17   8   9    0.12    1.56
 -16   8   9    3.55    1.31
 -16   8   9    2.00    1.43
 -15   8   9    1.50    1.45
 -15   8   9   -0.97    1.05
 -14   8   9    2.56    1.50
 -14   8   9    1.66    1.11
 -13   8   9    9.89    1.37
 -13   8   9    8.14    1.72
 -12   8   9    1.76    1.32
 -12   8   9   -1.30    0.90
 -11   8   9    1.96    1.03
 -11   8   9    6.65    1.54
 -10   8   9    0.99    1.30
 -10   8   9    1.23    0.98
  -9   8   9    3.61    1.07
  -9   8   9    5.67    1.47
  -8   8   9    5.11    1.13
  -8   8   9    3.03    1.26
  -7   8   9   -1.05    0.85
  -7   8   9    0.17    1.17
  -6   8   9    1.13    1.03
  -6   8   9    0.39    1.19
  -5   8   9   34.24    2.41
  -4   8   9    1.09    1.25
  -3   8   9    0.99    1.28
  -2   8   9    2.46    1.19
  -1   8   9   -0.27    1.22
   0   8   9    4.03    1.51
  -1  -8  -9    5.28    1.26
   1   8   9    4.33    1.62
  -2  -8  -9    2.88    1.29
  -2  -8  -9    1.51    1.15
  -3  -8  -9    0.53    1.23
  -3  -8  -9   -0.60    1.17
  -4  -8  -9    5.10    1.41
  -4  -8  -9    4.87    1.42
  -5  -8  -9    0.66    1.27
  -5  -8  -9    1.01    1.33
  -6  -8  -9   15.86    2.00
  -6  -8  -9   20.03    2.13
  -7  -8  -9    0.45    1.37
  -7  -8  -9   -1.70    1.24
  -8  -8  -9    2.65    1.55
  -8  -8  -9    1.26    1.47
  -9  -8  -9    2.32    1.56
  -9  -8  -9    2.24    1.55
 -10  -8  -9    1.17    1.57
 -10  -8  -9    2.96    1.65
  18  -9  -9    0.25    1.58
 -17   9   9    1.11    1.54
 -16   9   9   -0.48    1.44
 -15   9   9   -0.35    1.37
 -14   9   9    5.74    1.29
 -14   9   9    5.15    1.62
 -13   9   9    4.85    1.54
 -13   9   9    2.09    1.02
 -12   9   9   -0.39    0.86
 -12   9   9   -0.98    1.24
 -11   9   9   13.37    1.83
 -11   9   9   11.13    1.30
 -10   9   9   13.14    1.34
 -10   9   9   12.89    1.75
  -9   9   9   -0.74    1.14
  -9   9   9    0.28    0.93
  -8   9   9    6.90    1.12
  -8   9   9    4.75    1.41
  -7   9   9    6.81    1.56
  -7   9   9    5.48    1.17
  -6   9   9   25.06    2.18
  -6   9   9   24.20    1.84
  -5   9   9    2.16    1.42
  -5   9   9    0.58    1.22
  -4   9   9    1.55    1.19
  -4   9   9    4.86    1.51
  -3   9   9   10.92    1.73
  -3   9   9    7.15    1.57
  -2   9   9    3.15    1.42
  -2   9   9    3.49    1.42
   1  -9  -9    3.31    1.11
  -1   9   9    2.66    1.52
   0  -9  -9   -2.33    1.00
   0   9   9    0.46    1.41
  -1  -9  -9    7.00    1.41
  -1  -9  -9    6.41    1.40
   1   9   9    8.87    1.74
  -2  -9  -9    0.20    1.13
  -2  -9  -9    2.55    1.22
  -3  -9  -9    5.02    1.36
  -3  -9  -9    4.53    1.34
  -4  -9  -9    0.40    1.33
  -4  -9  -9    0.90    1.26
  -5  -9  -9    2.50    1.45
  -5  -9  -9    5.33    1.50
  -6  -9  -9    3.16    1.51
  -6  -9  -9    2.94    1.54
  -7  -9  -9    1.51    1.46
  -7  -9  -9    1.79    1.48
  -8  -9  -9   -0.23    1.43
  -8  -9  -9    0.90    1.55
  -9  -9  -9    0.07    1.61
  -9  -9  -9   -0.04    1.54
  18 -10  -9    1.35    1.60
 -18  10   9    0.64    1.57
 -17  10   9    7.07    1.79
 -16  10   9    0.92    1.47
 -15  10   9    0.34    1.40
 -14  10   9   15.07    1.92
 -13  10   9    5.50    1.53
 -12  10   9    6.46    1.55
 -12  10   9    6.00    1.11
 -11  10   9    1.15    1.30
 -11  10   9    0.66    0.87
 -10  10   9    7.06    1.13
 -10  10   9   12.46    1.77
  -9  10   9    6.15    1.82
  -9  10   9    4.92    1.06
  -9  10   9    7.96    1.59
  -8  10   9    4.29    1.32
  -8  10   9    2.78    1.63
  -8  10   9    3.69    1.01
  -7  10   9    6.28    1.17
  -7  10   9    7.32    1.77
  -7  10   9    7.35    1.52
  -6  10   9    1.50    1.24
  -6  10   9    1.31    1.49
  -5  10   9   14.21    1.74
  -5  10   9   12.99    1.91
  -4  10   9   -0.18    1.21
  -4  10   9   -0.22    1.32
   3 -10  -9    2.66    1.03
  -3  10   9    3.91    1.44
  -3  10   9    4.78    1.49
   2 -10  -9    0.40    1.00
  -2  10   9    2.81    1.34
  -2  10   9    2.48    1.31
   1 -10  -9   10.95    1.38
  -1  10   9   10.46    1.68
  -1  10   9   12.34    1.91
   0 -10  -9   11.16    1.53
   0 -10  -9   10.50    1.48
   0  10   9    9.44    1.60
   0  10   9   11.05    1.81
  -1 -10  -9   -0.38    1.03
  -1 -10  -9    1.51    1.18
   1  10   9   -1.52    1.38
  -2 -10  -9    2.34    1.25
  -2 -10  -9    1.89    1.21
  -3 -10  -9    2.13    1.31
  -3 -10  -9    6.23    1.46
  -4 -10  -9    2.10    1.33
  -4 -10  -9    4.52    1.44
  -5 -10  -9    1.02    1.38
  -5 -10  -9    2.36    1.39
  -6 -10  -9    5.18    1.71
  -6 -10  -9    6.44    1.69
  -7 -10  -9    4.08    1.60
  -7 -10  -9    3.93    1.64
  -8 -10  -9    2.48    1.69
  -8 -10  -9    2.37    1.57
 -18  11   9   -0.72    1.48
 -17  11   9    5.39    1.75
 -16  11   9   -1.06    1.34
 -15  11   9    4.77    1.60
 -14  11   9   -0.37    1.30
 -13  11   9   -1.42    1.22
 -12  11   9    3.14    1.40
 -11  11   9    3.09    1.78
 -11  11   9    4.03    1.41
 -11  11   9    3.69    0.95
 -10  11   9    1.11    0.83
 -10  11   9   -0.66    1.20
 -10  11   9   -0.12    1.61
  -9  11   9    1.32    0.86
  -9  11   9    1.46    1.61
  -9  11   9   -1.93    1.11
  -8  11   9    0.88    1.53
  -8  11   9    0.16    1.20
  -8  11   9   -0.73    0.84
  -7  11   9    5.06    1.71
  -7  11   9    5.01    1.42
  -7  11   9    2.75    0.96
  -6  11   9    1.02    1.31
  -6  11   9    2.61    1.59
   5 -11  -9   14.78    1.34
  -5  11   9   16.45    2.13
  -5  11   9   14.52    1.87
   4 -11  -9   12.40    1.36
  -4  11   9    7.38    1.62
  -4  11   9   13.04    1.90
   3 -11  -9    4.02    1.05
  -3  11   9    2.86    1.42
  -3  11   9    2.05    1.44
   2 -11  -9   14.57    1.54
   2 -11  -9   10.70    1.40
  -2  11   9   11.40    1.80
  -2  11   9   10.31    1.70
   1 -11  -9   -0.36    1.02
   1 -11  -9   -0.77    1.02
  -1  11   9   -0.33    1.42
  -1  11   9    0.21    1.28
   0 -11  -9    2.79    1.19
   0 -11  -9    4.49    1.27
   0  11   9    2.88    1.61
   0  11   9    3.72    1.40
  -1 -11  -9   -0.21    1.15
  -1 -11  -9    0.80    1.24
   1  11   9    1.36    1.25
  -2 -11  -9   14.37    1.74
  -2 -11  -9   15.09    1.81
   2  11   9   11.05    1.62
  -3 -11  -9    2.62    1.26
  -3 -11  -9    3.74    1.39
  -4 -11  -9    2.81    1.39
  -4 -11  -9    1.56    1.37
  -5 -11  -9    5.13    1.60
  -5 -11  -9    6.78    1.69
  -6 -11  -9    0.92    1.48
  -6 -11  -9    3.08    1.48
  -7 -11  -9    0.74    1.57
  -7 -11  -9    0.58    1.55
 -18  12   9   -1.90    1.42
 -17  12   9    7.55    1.81
 -16  12   9   12.38    1.99
 -15  12   9    1.42    1.43
 -14  12   9    3.94    1.44
 -13  12   9    0.62    1.31
 -12  12   9   -0.45    1.24
 -12  12   9    3.71    1.91
 -11  12   9    0.87    1.71
 -11  12   9    0.79    1.30
 -10  12   9    3.10    1.36
 -10  12   9    3.03    1.74
  -9  12   9    2.69    1.37
  -9  12   9    2.94    1.69
  -8  12   9    2.83    1.35
  -8  12   9    3.95    0.99
  -8  12   9    3.18    1.66
  -7  12   9   17.31    2.22
  -7  12   9   13.33    1.82
  -7  12   9   15.17    1.43
   6 -12  -9    0.32    0.83
  -6  12   9    1.87    1.33
  -6  12   9    1.15    1.54
   5 -12  -9    0.40    0.86
  -5  12   9    0.89    1.43
  -5  12   9    0.07    1.25
   4 -12  -9   -0.43    0.88
  -4  12   9    0.47    1.30
  -4  12   9    1.82    1.44
   3 -12  -9   -0.11    0.95
   3 -12  -9    2.36    1.04
  -3  12   9    0.62    1.37
  -3  12   9    1.51    1.41
   2 -12  -9    4.21    1.20
   2 -12  -9    7.56    1.31
  -2  12   9    5.99    1.53
  -2  12   9    4.46    1.54
   1 -12  -9    1.88    1.12
   1 -12  -9    1.20    1.10
  -1  12   9    4.30    1.67
  -1  12   9    3.53    1.43
   0 -12  -9    1.80    1.19
   0 -12  -9    2.00    1.20
   0  12   9    1.32    1.56
   0  12   9    1.56    1.33
  -1 -12  -9    2.05    1.23
  -1 -12  -9   -0.23    1.17
   1  12   9    3.41    1.39
  -2 -12  -9    1.44    1.25
  -2 -12  -9    1.03    1.27
  -3 -12  -9    1.06    1.30
  -3 -12  -9    0.05    1.32
  -4 -12  -9    2.81    1.44
  -4 -12  -9    2.19    1.42
  -5 -12  -9    1.36    1.47
  -5 -12  -9   -0.20    1.35
  -6 -12  -9   -0.09    1.44
  -6 -12  -9   -0.61    1.43
 -17  13   9    0.21    1.44
 -16  13   9    7.79    1.73
 -15  13   9   -0.27    1.36
 -14  13   9   11.03    1.82
 -14  13   9   11.02    2.35
 -13  13   9    6.10    1.57
 -13  13   9    7.85    2.20
 -12  13   9    3.25    1.91
 -12  13   9    2.74    1.41
 -11  13   9   10.11    2.16
 -11  13   9   15.51    1.94
 -10  13   9    6.25    1.55
 -10  13   9    6.81    1.93
  -9  13   9   -1.47    1.17
  -9  13   9    0.20    1.61
  -8  13   9   -1.18    1.17
  -8  13   9   -1.18    1.55
  -7  13   9   22.75    2.22
  -7  13   9   26.37    2.58
  -6  13   9    8.07    1.81
  -6  13   9    9.80    1.70
  -5  13   9    8.61    1.64
  -5  13   9    7.11    1.77
  -4  13   9    0.81    1.50
  -4  13   9    3.74    1.49
   3 -13  -9    3.82    1.08
  -3  13   9    2.57    1.51
  -3  13   9    4.64    1.53
   2 -13  -9    0.07    0.98
  -2  13   9    0.00    1.33
  -2  13   9   -1.12    1.30
   1 -13  -9    0.10    1.06
  -1  13   9    1.16    1.39
  -1  13   9   -0.13    1.32
   0 -13  -9    5.08    1.32
   0 -13  -9    6.67    1.41
   0  13   9    7.82    1.64
   0  13   9    5.56    1.82
  -1 -13  -9    3.08    1.25
  -1 -13  -9    3.83    1.37
   1  13   9    1.34    1.38
  -2 -13  -9    8.03    1.58
  -2 -13  -9    7.87    1.61
  -3 -13  -9   10.40    1.78
  -4 -13  -9   -1.64    1.28
 -17  14   9    1.51    1.45
 -16  14   9    7.43    1.75
 -15  14   9   -0.74    1.95
 -15  14   9   -2.02    1.28
 -14  14   9    3.59    1.50
 -14  14   9    4.12    2.02
 -13  14   9    6.20    1.64
 -13  14   9    4.50    2.04
 -12  14   9    1.64    1.33
 -12  14   9    1.56    1.89
 -11  14   9    2.58    1.36
 -11  14   9    5.32    1.99
 -10  14   9    6.99    2.00
 -10  14   9    5.52    1.53
  -9  14   9    5.76    1.59
  -9  14   9    6.59    1.96
  -8  14   9   19.71    2.07
  -8  14   9   20.50    2.45
  -7  14   9    0.37    1.24
  -7  14   9   -0.09    1.59
  -6  14   9    0.21    1.33
  -6  14   9    2.82    1.70
  -5  14   9    5.31    1.76
  -5  14   9    2.47    1.40
  -4  14   9   13.52    2.04
  -4  14   9   12.66    1.89
  -3  14   9   -1.73    1.27
  -3  14   9    2.44    1.54
  -2  14   9    2.67    1.56
  -2  14   9    0.16    1.47
  -1  14   9   11.74    1.88
  -1  14   9   11.66    2.07
   0 -14  -9    2.07    1.29
   0  14   9    4.97    1.89
   0  14   9    5.47    1.58
  -1 -14  -9    1.56    1.30
   1  14   9    0.03    1.68
  -2 -14  -9    0.42    1.33
  -3 -14  -9    8.99    1.77
 -16  15   9    0.98    1.46
 -16  15   9   -0.19    2.08
 -15  15   9    0.38    1.42
 -15  15   9   -0.80    1.97
 -14  15   9    4.17    1.48
 -14  15   9    3.44    2.08
 -13  15   9    6.27    2.19
 -13  15   9   10.81    1.77
 -12  15   9   -1.46    1.22
 -12  15   9    1.58    1.92
 -11  15   9    0.94    1.78
 -11  15   9   -2.94    1.23
 -10  15   9    1.15    1.31
 -10  15   9    0.61    1.74
  -9  15   9    4.69    1.53
  -9  15   9    7.35    1.97
  -8  15   9    0.24    1.24
  -8  15   9   -0.39    1.68
  -7  15   9   -0.06    1.31
  -7  15   9   -0.03    1.61
  -6  15   9    1.45    1.66
  -6  15   9    0.14    1.32
  -5  15   9    0.71    1.36
  -5  15   9   -0.77    1.50
  -4  15   9    4.95    1.59
  -4  15   9    6.05    1.76
  -3  15   9    1.40    1.58
  -3  15   9   -0.76    1.33
  -2  15   9    0.45    1.51
  -2  15   9    2.08    1.55
  -1  15   9   -0.10    1.47
  -1  15   9    0.82    1.60
   0  15   9    2.63    1.74
   1  15   9    2.33    1.88
 -15  16   9    2.16    1.51
 -15  16   9    1.84    2.05
 -14  16   9   -0.31    1.26
 -14  16   9   -0.58    1.99
 -13  16   9    9.09    1.76
 -13  16   9    9.69    2.33
 -12  16   9    1.21    1.98
 -12  16   9    5.72    1.54
 -11  16   9    6.00    2.05
 -11  16   9    7.45    1.62
 -10  16   9    4.82    2.06
 -10  16   9    8.33    1.72
  -9  16   9   -0.02    1.75
  -9  16   9    1.89    1.42
  -8  16   9    2.80    1.80
  -8  16   9    3.74    1.52
  -7  16   9   -2.72    1.21
  -7  16   9    2.00    1.78
  -6  16   9    2.57    1.46
  -6  16   9    2.59    1.75
  -5  16   9    0.51    1.38
  -5  16   9    0.97    1.67
  -4  16   9   13.76    2.12
  -4  16   9    7.84    1.89
  -3  16   9   10.61    2.03
  -3  16   9    6.78    1.87
  -2  16   9    7.70    1.92
  -2  16   9    5.04    1.76
  -1  16   9    3.11    1.72
 -14  17   9   10.54    2.45
 -14  17   9    5.12    1.55
 -13  17   9    0.62    1.98
 -13  17   9   -0.07    1.30
 -12  17   9   -2.32    1.80
 -12  17   9   -0.69    1.22
 -11  17   9    1.31    1.98
 -11  17   9    0.93    1.29
 -10  17   9    1.49    1.32
 -10  17   9    2.78    1.97
  -9  17   9   -0.45    1.20
  -9  17   9    0.74    1.84
  -8  17   9    2.20    1.37
  -8  17   9   -0.70    1.73
  -7  17   9   10.93    2.23
  -7  17   9    8.77    1.69
  -6  17   9    3.11    1.58
  -6  17   9    4.98    1.98
  -5  17   9    7.49    1.78
  -5  17   9    9.65    2.11
  -4  17   9   -1.63    1.59
  -4  17   9    0.43    1.43
  -3  17   9    3.08    1.65
  -3  17   9    0.06    1.63
 -12  18   9   -0.88    1.95
 -11  18   9    1.64    1.39
 -11  18   9   -1.68    1.82
 -10  18   9    4.48    1.53
 -10  18   9    3.54    2.03
  -9  18   9    0.25    1.26
  -9  18   9    1.56    1.92
  -8  18   9    2.90    1.47
  -8  18   9   -0.30    1.79
  -7  18   9    1.36    1.31
  -7  18   9   -1.39    1.76
  -6  18   9    2.08    1.50
  -6  18   9    1.48    1.87
   6 -17  10   -1.33    1.46
   7 -17  10    0.16    1.42
   8 -17  10    0.87    1.38
   9 -17  10    7.49    1.72
  10 -17  10    7.54    1.74
  11 -17  10    7.01    1.64
   3 -16  10    2.25    1.56
   4 -16  10    0.35    1.51
   5 -16  10   -0.11    1.50
   6 -16  10    3.51    1.64
   7 -16  10    0.67    1.50
   8 -16  10    2.18    1.42
   9 -16  10    1.11    1.37
  10 -16  10   -0.42    1.34
  11 -16  10    5.11    1.63
 -12  16 -10    2.59    1.82
  12 -16  10    2.00    1.39
 -13  16 -10   -1.30    1.70
  13 -16  10    1.71    1.48
   0 -15  10    4.17    1.77
   1 -15  10   -0.64    1.55
   2 -15  10    4.34    1.69
   3 -15  10    6.88    1.80
   4 -15  10    3.83    1.62
   5 -15  10    0.63    1.44
   6 -15  10    4.10    1.51
   7 -15  10   -1.34    1.25
   8 -15  10    2.51    1.44
   9 -15  10    0.92    1.42
  10 -15  10    1.35    1.35
  11 -15  10    2.15    1.52
 -12  15 -10   -0.33    1.68
  12 -15  10    7.97    1.74
 -13  15 -10   -1.14    1.57
  13 -15  10   -1.60    1.27
 -14  15 -10    1.35    1.62
  14 -15  10    1.27    1.53
  15 -15  10    0.22    1.45
  -1 -14  10   -1.00    1.38
   0 -14  10    3.72    1.72
   1 -14  10    5.01    1.72
   2 -14  10   -0.79    1.39
   3 -14  10    2.68    1.56
   4 -14  10    1.40    1.43
   5 -14  10   10.71    1.84
   6 -14  10    0.03    1.35
   7 -14  10   -0.43    1.31
   8 -14  10    1.71    1.40
   9 -14  10   -0.18    1.30
  10 -14  10    0.87    1.30
  11 -14  10   -0.15    1.31
  12 -14  10    6.57    1.68
 -13  14 -10   -2.14    1.44
  13 -14  10    2.10    1.49
 -14  14 -10    0.85    1.60
 -15  14 -10   -0.94    1.55
   3  13 -10    0.87    1.50
  -3 -13  10    2.07    1.77
   2  13 -10   -0.30    1.39
  -2 -13  10    0.57    1.65
   1  13 -10    0.85    1.42
  -1 -13  10   -0.49    1.38
   0  13 -10    0.57    1.28
   0 -13  10    2.49    1.57
  -1  13 -10   -0.13    1.16
   1 -13  10   -0.70    1.41
   2 -13  10    1.32    1.42
   3 -13  10    0.04    1.37
   4 -13  10    0.11    1.37
   5 -13  10   19.35    2.13
   6 -13  10    1.29    1.37
   7 -13  10   -0.31    1.31
   8 -13  10    2.67    1.36
   9 -13  10   -0.74    1.33
  10 -13  10    0.36    1.30
  11 -13  10    4.07    1.54
  12 -13  10    2.23    1.44
 -13  13 -10   -0.22    1.45
 -14  13 -10    2.11    1.59
 -15  13 -10    4.03    1.66
   4  12 -10    4.10    1.74
  -4 -12  10    3.27    1.79
   3  12 -10    7.53    1.79
  -3 -12  10    6.93    1.94
   2  12 -10    6.22    1.60
  -2 -12  10    2.00    1.49
   1  12 -10    0.71    1.34
  -1 -12  10    1.53    1.57
   0  12 -10    2.08    1.30
   0 -12  10    0.52    1.33
  -1  12 -10   -1.97    1.14
   1 -12  10    0.83    1.31
  -2  12 -10    0.20    1.09
   2 -12  10    0.17    1.03
   2 -12  10   -0.52    1.35
   3 -12  10    0.83    0.98
   3 -12  10    1.85    1.37
   4 -12  10    0.53    0.93
   4 -12  10   -0.38    1.28
   5 -12  10   14.83    1.83
   6 -12  10    5.20    1.53
   7 -12  10    0.41    1.29
   8 -12  10    5.81    1.60
   9 -12  10   -0.08    1.26
  10 -12  10    1.28    1.35
  11 -12  10    5.54    1.59
 -13  12 -10    2.72    1.59
 -14  12 -10   -1.05    1.39
 -16  12 -10   -0.97    1.43
   6  11 -10    6.83    1.96
  -6 -11  10    6.91    1.94
   5  11 -10    4.58    1.72
  -5 -11  10    2.29    1.76
   4  11 -10    1.05    1.64
  -4 -11  10    0.53    1.62
   3  11 -10    4.96    1.64
  -3 -11  10   -1.77    1.31
   2  11 -10    3.84    1.39
  -2 -11  10    4.68    1.63
   1  11 -10    3.90    1.38
  -1 -11  10    4.71    1.63
   0  11 -10    1.47    1.24
   0 -11  10    2.06    1.36
   0 -11  10    0.34    1.11
  -1  11 -10    1.22    1.12
   1 -11  10    4.08    1.18
   1 -11  10    2.48    1.47
  -2  11 -10   -0.17    1.09
   2 -11  10   -0.87    1.30
   2 -11  10   -0.70    0.87
  -3  11 -10    1.41    1.05
   3 -11  10    0.64    0.88
   3 -11  10    1.67    1.28
  -4  11 -10    0.14    0.91
   4 -11  10   -0.49    1.25
   4 -11  10   -0.65    0.88
   5 -11  10    4.34    1.03
   5 -11  10    2.05    1.34
   6 -11  10   12.83    1.32
   6 -11  10   13.18    1.83
   7 -11  10    5.40    1.05
   7 -11  10    4.41    1.48
   8 -11  10   10.71    1.27
   8 -11  10   11.59    1.80
   9 -11  10    1.43    0.94
   9 -11  10    1.34    1.37
 -13  11 -10   -0.31    1.38
 -14  11 -10    1.79    1.46
 -16  11 -10   -2.84    1.38
 -17  11 -10    2.50    1.65
   7  10 -10    8.51    2.02
  -7 -10  10    8.66    1.99
   6  10 -10    3.37    1.69
  -6 -10  10   -0.02    1.43
   5  10 -10   -1.43    1.46
  -5 -10  10    0.56    1.60
   4  10 -10   -0.60    1.33
  -4 -10  10   -1.62    1.46
   3  10 -10    1.91    1.36
  -3 -10  10   -0.31    1.46
   2  10 -10   -1.31    1.23
  -2 -10  10    1.46    1.47
   1  10 -10    0.58    1.13
  -1 -10  10    0.18    1.13
  -1 -10  10   -0.83    1.34
   0  10 -10   -0.43    1.14
   0 -10  10    1.05    1.09
   0 -10  10    1.36    1.26
  -1  10 -10    4.73    1.26
   1 -10  10    5.49    1.20
   1 -10  10    5.17    1.44
  -2  10 -10   -0.09    0.99
   2 -10  10    0.40    1.28
   2 -10  10    0.63    0.97
  -3  10 -10    1.65    1.04
   3 -10  10    2.95    1.00
   3 -10  10    2.75    1.42
  -4  10 -10    4.60    1.05
   4 -10  10    6.01    1.16
   4 -10  10    6.01    1.53
  -5  10 -10    7.15    1.10
   5 -10  10    6.67    1.55
   5 -10  10    6.74    1.14
   6 -10  10    1.74    1.21
   6 -10  10   -0.36    0.90
   7 -10  10    0.43    1.26
   7 -10  10    0.07    0.88
   8 -10  10    1.57    0.94
   8 -10  10    2.90    1.31
   9 -10  10    1.35    1.00
  10 -10  10   -0.64    0.98
  11 -10  10    5.42    1.31
  12 -10  10   -0.99    1.00
 -13  10 -10    0.81    1.37
  13 -10  10    1.55    1.23
  14 -10  10    3.54    1.49
 -16  10 -10    2.83    1.72
 -17  10 -10   -0.34    1.46
   8   9 -10    5.14    1.92
  -8  -9  10    9.20    2.02
   7   9 -10   -3.00    1.46
  -7  -9  10    0.63    1.51
   6   9 -10    1.70    1.54
  -6  -9  10    2.24    1.71
   5   9 -10    1.44    1.48
  -5  -9  10    0.81    1.44
   4   9 -10   -1.17    1.31
  -4  -9  10   -1.45    1.28
   3   9 -10    0.47    1.43
  -3  -9  10    0.30    1.42
  -3  -9  10    0.12    1.17
   2   9 -10    3.76    1.36
  -2  -9  10    2.91    1.38
  -2  -9  10    2.51    1.23
   1   9 -10   -0.25    1.22
  -1  -9  10    1.76    1.16
  -1  -9  10    2.74    1.34
   0   9 -10    1.06    1.14
   0  -9  10    0.06    1.29
   0  -9  10    1.43    1.12
  -1   9 -10    3.42    1.17
   1  -9  10    0.70    1.27
   1  -9  10    0.97    1.05
  -2   9 -10    1.14    1.04
   2  -9  10    2.42    1.08
   2  -9  10    2.09    1.32
  -3   9 -10    6.26    1.21
   3  -9  10    4.28    1.14
   3  -9  10    4.23    1.44
  -4   9 -10    5.50    1.12
   4  -9  10    4.01    1.44
   4  -9  10    4.39    1.07
  -5   9 -10   -1.12    0.83
   5  -9  10    1.06    1.21
   5  -9  10    0.51    0.94
   6  -9  10    0.58    0.94
   6  -9  10    0.67    1.27
   7  -9  10    7.24    1.21
   7  -9  10    6.69    1.47
   8  -9  10   -0.58    0.92
   9  -9  10   -0.59    0.98
  10  -9  10    5.00    1.34
  11  -9  10   -0.20    1.09
  12  -9  10    0.79    1.26
 -13   9 -10    1.61    1.34
  13  -9  10    1.43    1.38
 -15   9 -10    4.74    1.82
 -16   9 -10    3.46    1.69
 -17   9 -10    2.62    1.72
   9   8 -10   -2.28    1.64
  -9  -8  10   -0.61    1.55
   8   8 -10   -0.64    1.53
  -8  -8  10    1.46    1.65
   7   8 -10   -1.35    1.51
  -7  -8  10    1.99    1.69
   6   8 -10    1.78    1.56
  -6  -8  10    3.16    1.66
   5   8 -10    3.70    1.68
  -5  -8  10    5.24    1.71
   4   8 -10    4.20    1.58
  -4  -8  10    3.53    1.51
  -4  -8  10    3.50    1.35
   3   8 -10   14.41    1.80
  -3  -8  10   14.64    1.75
  -3  -8  10   14.78    1.96
   2   8 -10    2.30    1.26
  -2  -8  10    3.33    1.28
  -2  -8  10    3.09    1.47
   1   8 -10    0.20    1.18
  -1  -8  10   -0.94    1.09
  -1  -8  10    0.95    1.29
   0   8 -10    0.52    1.15
   0  -8  10    1.05    1.02
   0  -8  10   -0.95    1.25
  -1   8 -10    9.24    1.44
   1  -8  10   12.31    1.79
   1  -8  10   11.10    1.40
  -2   8 -10    5.47    1.20
   2  -8  10    7.26    1.46
   2  -8  10    7.10    1.25
   3  -8  10    3.25    1.23
   3  -8  10    1.23    1.00
   4  -8  10    2.79    1.37
   4  -8  10    2.70    1.08
   5  -8  10    1.52    0.99
   5  -8  10    1.31    1.32
   6  -8  10    0.45    1.14
   6  -8  10    1.47    0.99
   7  -8  10    8.90    1.35
   8  -8  10   -0.92    0.94
   9  -8  10    0.65    1.13
  10  -8  10   -0.16    1.12
  11  -8  10    2.19    1.30
  12  -8  10   -0.62    1.24
 -15   8 -10   -0.76    1.51
 -16   8 -10    2.18    1.63
 -17   8 -10    0.77    1.46
 -17   8 -10    4.83    1.75
  10   7 -10   -0.37    1.49
 -10  -7  10    4.24    1.74
   9   7 -10    1.35    1.72
  -9  -7  10    0.34    1.60
   8   7 -10   -0.19    1.54
  -8  -7  10    0.94    1.57
   7   7 -10   -0.14    1.49
  -7  -7  10    2.10    1.59
   6   7 -10    2.20    1.56
  -6  -7  10    0.36    1.31
   5   7 -10   -1.23    1.26
  -5  -7  10    0.65    1.39
  -5  -7  10    0.65    1.27
   4   7 -10    4.34    1.47
  -4  -7  10    6.60    1.62
  -4  -7  10    5.26    1.42
   3   7 -10    1.42    1.27
  -3  -7  10    2.07    1.17
  -3  -7  10    1.45    1.25
   2   7 -10    8.60    1.51
  -2  -7  10    4.51    1.50
  -2  -7  10    8.36    1.41
   1   7 -10    8.70    1.47
  -1  -7  10    7.66    1.61
  -1  -7  10    8.36    1.40
   0   7 -10   20.73    1.90
   0  -7  10   23.14    2.11
   0  -7  10   23.97    1.84
   1  -7  10    0.62    1.31
   1  -7  10   -0.48    0.98
   2  -7  10    0.07    1.20
   2  -7  10    0.46    1.02
   3  -7  10   -0.17    1.08
   3  -7  10    0.60    0.94
   4  -7  10   -1.06    1.23
   4  -7  10   -0.69    0.93
   5  -7  10    1.76    1.03
   5  -7  10    1.34    1.27
   6  -7  10    1.43    1.05
   7  -7  10   22.44    1.86
   8  -7  10   12.79    1.53
   9  -7  10    3.00    1.24
  10  -7  10    2.08    1.32
  11  -7  10    1.83    1.31
 -14   7 -10    0.85    1.41
 -15   7 -10    1.70    1.62
 -16   7 -10   -0.40    1.52
 -16   7 -10    0.00    1.41
 -17   7 -10    6.20    1.85
 -17   7 -10    7.45    1.88
  11   6 -10    1.36    1.79
 -11  -6  10   -0.50    1.65
  10   6 -10    5.27    1.72
 -10  -6  10    0.63    1.66
   9   6 -10    1.64    1.71
  -9  -6  10    5.06    1.62
   8   6 -10    0.79    1.56
  -8  -6  10    1.14    1.40
   7   6 -10    0.82    1.49
  -7  -6  10   -0.70    1.43
   6   6 -10    5.91    1.68
  -6  -6  10    6.53    1.58
  -6  -6  10    4.83    1.60
   5   6 -10   11.47    1.79
  -5  -6  10   14.94    1.97
  -5  -6  10   14.26    1.79
   4   6 -10    0.24    1.26
  -4  -6  10    0.84    1.20
  -4  -6  10    0.53    1.25
   3   6 -10    0.18    1.17
  -3  -6  10    0.05    1.15
  -3  -6  10    1.33    1.20
   2   6 -10   -0.49    1.13
  -2  -6  10   -0.03    1.02
  -2  -6  10    0.32    1.26
  -1  -6  10   -0.01    0.98
  -1  -6  10    2.75    1.25
   0  -6  10   19.14    1.74
   0  -6  10   21.82    2.09
   1  -6  10    2.22    1.06
   1  -6  10    1.90    1.26
   2  -6  10   -0.44    1.02
   2  -6  10   -0.44    1.13
   3  -6  10    0.05    1.16
   3  -6  10   -0.15    0.91
   4  -6  10   -0.07    1.22
   4  -6  10   -1.02    0.87
   5  -6  10    2.94    1.16
   6  -6  10   15.97    1.65
   7  -6  10    0.01    1.12
   8  -6  10    8.28    1.46
   9  -6  10    3.72    1.33
  10  -6  10    7.23    1.53
 -14   6 -10    1.50    1.40
 -15   6 -10    2.43    1.62
 -16   6 -10    0.92    1.61
 -16   6 -10   -1.83    1.28
 -17   6 -10    4.92    1.67
 -17   6 -10    7.09    1.96
  11   5 -10    0.19    1.74
 -11  -5  10   -0.95    1.58
  10   5 -10    0.51    1.69
 -10  -5  10    3.77    1.57
   9   5 -10    6.54    1.76
  -9  -5  10   10.09    1.82
   8   5 -10   13.60    2.05
  -8  -5  10   17.81    2.19
   7   5 -10   12.27    1.91
  -7  -5  10   14.24    2.02
  -7  -5  10    9.19    1.72
   6   5 -10    2.74    1.54
  -6  -5  10    4.46    1.43
  -6  -5  10    5.04    1.55
   5   5 -10    9.67    1.72
  -5  -5  10    8.37    1.65
  -5  -5  10    3.60    1.36
   4   5 -10   -0.50    1.24
  -4  -5  10   -0.99    1.19
  -4  -5  10    0.74    1.17
   3   5 -10    3.30    1.34
  -3  -5  10    1.71    1.20
  -3  -5  10   -0.02    1.07
  -2  -5  10    1.27    1.19
  -2  -5  10    1.68    1.09
  -1  -5  10    1.05    1.10
  -1  -5  10    0.53    1.09
   0  -5  10    6.72    1.30
   0  -5  10    7.72    1.54
   1  -5  10    3.02    1.22
   1  -5  10    4.71    1.16
   2  -5  10   -0.26    1.10
   2  -5  10   -0.23    1.02
   3  -5  10    0.30    1.00
   3  -5  10   -0.59    1.12
   4  -5  10    1.66    1.04
   5  -5  10    6.66    1.30
   6  -5  10    3.97    1.29
   7  -5  10    1.81    1.16
   8  -5  10    3.28    1.31
   9  -5  10    7.17    1.55
 -13   5 -10    3.88    1.64
 -14   5 -10    2.06    1.45
 -15   5 -10   -0.60    1.55
 -15   5 -10    0.16    1.50
 -16   5 -10    2.97    1.73
 -16   5 -10    2.95    1.66
  12   4 -10   -2.43    1.66
 -12  -4  10   -1.55    1.52
  11   4 -10    4.87    1.93
 -11  -4  10   -1.64    1.54
  10   4 -10    1.56    1.72
 -10  -4  10    3.99    1.68
   9   4 -10    0.34    1.42
  -9  -4  10    3.74    1.45
   8   4 -10    2.43    1.55
  -8  -4  10    1.58    1.39
  -8  -4  10   -1.18    1.17
   7   4 -10    1.00    1.48
  -7  -4  10   -0.79    1.27
  -7  -4  10    1.53    1.45
   6   4 -10    7.24    1.70
  -6  -4  10    4.66    1.52
  -6  -4  10    6.92    1.55
   5   4 -10    4.93    1.52
  -5  -4  10    8.41    1.53
  -5  -4  10    5.40    1.55
  -4  -4  10    2.46    1.12
  -4  -4  10    3.61    1.38
  -3  -4  10    0.60    1.13
  -3  -4  10    1.62    1.28
  -2  -4  10    0.70    1.09
  -2  -4  10    0.45    1.07
  -1  -4  10    1.99    1.26
  -1  -4  10    2.28    1.13
   0  -4  10    0.95    1.20
   0  -4  10    0.55    1.03
   1  -4  10   10.80    1.46
   1  -4  10   11.73    1.55
   2  -4  10    0.12    1.18
   2  -4  10    3.17    1.15
   3  -4  10    7.26    1.29
   4  -4  10    0.08    1.00
   5  -4  10    4.40    1.27
   6  -4  10   -0.05    1.07
   7  -4  10    1.13    1.18
   8  -4  10    1.88    1.27
 -13   4 -10    2.69    1.43
 -14   4 -10   -0.68    1.47
 -14   4 -10    1.41    1.53
 -15   4 -10    0.97    1.51
 -15   4 -10    1.71    1.60
 -16   4 -10    2.72    1.63
 -16   4 -10    0.00    1.64
  13   3 -10   -1.78    1.77
 -13  -3  10    1.49    1.68
  12   3 -10    5.36    1.96
 -12  -3  10    3.35    1.76
  11   3 -10    2.09    1.71
 -11  -3  10    2.38    1.64
  10   3 -10    0.35    1.41
 -10  -3  10    2.72    1.41
   9   3 -10    2.46    1.45
  -9  -3  10    2.93    1.42
  -9  -3  10    1.29    1.48
   8   3 -10    2.56    1.56
  -8  -3  10    0.02    1.27
  -8  -3  10    0.71    1.22
   7   3 -10    1.42    1.46
  -7  -3  10    4.22    1.31
  -7  -3  10    2.94    1.43
   6   3 -10    3.11    1.55
  -6  -3  10    4.83    1.42
  -6  -3  10    5.25    1.43
  -5  -3  10    1.92    1.20
  -5  -3  10    1.77    1.29
  -4  -3  10   -0.19    1.07
  -4  -3  10    0.30    1.13
  -3  -3  10   -1.07    1.01
  -3  -3  10    2.12    1.19
  -2  -3  10   -0.51    0.99
  -2  -3  10   -0.47    1.02
  -1  -3  10    6.88    1.27
  -1  -3  10    8.05    1.41
   0  -3  10    4.03    1.19
   0  -3  10    2.61    1.19
   1  -3  10    3.39    1.15
   1  -3  10    2.47    1.13
   2  -3  10    0.72    1.03
   3  -3  10    3.72    1.12
   4  -3  10   10.33    1.55
   5  -3  10   -1.20    1.02
   6  -3  10   -0.16    1.16
   7  -3  10    1.22    1.26
   8  -3  10    0.02    1.31
 -12   3 -10   -0.58    1.38
 -13   3 -10    0.02    1.49
 -14   3 -10    2.44    1.62
 -14   3 -10    0.09    1.31
 -15   3 -10    5.49    1.74
 -15   3 -10    4.20    1.75
 -16   3 -10    2.27    1.55
 -16   3 -10    1.94    1.73
  13   2 -10    4.90    1.94
 -13  -2  10    7.08    1.89
  12   2 -10    0.51    1.64
 -12  -2  10    1.22    1.47
  11   2 -10   -0.03    1.61
 -11  -2  10    3.89    1.64
  10   2 -10    1.92    1.59
 -10  -2  10   -1.91    1.32
 -10  -2  10   -1.26    1.36
   9   2 -10   -0.65    1.47
  -9  -2  10   -1.49    1.19
  -9  -2  10    0.00    1.22
   8   2 -10    2.39    1.51
  -8  -2  10    0.61    1.27
  -8  -2  10    2.17    1.27
   7   2 -10    3.11    1.49
  -7  -2  10   -0.21    1.25
  -7  -2  10    2.65    1.40
  -6  -2  10    4.77    1.42
  -6  -2  10    8.70    1.63
  -5  -2  10   -0.68    1.06
  -5  -2  10   -1.03    1.08
  -4  -2  10    0.68    1.16
  -4  -2  10   -0.28    1.09
  -3  -2  10    0.24    1.10
  -3  -2  10   -0.35    1.17
  -2  -2  10    0.10    1.08
  -2  -2  10    1.40    1.11
  -1  -2  10    0.30    1.16
  -1  -2  10    1.54    1.12
   0  -2  10   13.35    1.64
   0  -2  10   14.00    1.62
   1  -2  10    1.92    1.04
   2  -2  10   12.87    1.59
   3  -2  10   -0.36    1.08
   4  -2  10    2.07    1.20
   5  -2  10    1.80    1.21
   6  -2  10    1.81    1.31
   7  -2  10    2.41    1.38
 -11   2 -10    2.89    1.41
 -12   2 -10    1.08    1.39
 -13   2 -10    2.33    1.60
 -13   2 -10    3.04    1.46
 -14   2 -10    3.28    1.66
 -14   2 -10    4.68    1.73
 -15   2 -10    1.19    1.49
 -15   2 -10    3.91    1.59
  14   1 -10   -0.07    1.59
 -14  -1  10   -1.34    1.52
  13   1 -10    3.42    1.69
 -13  -1  10    3.99    1.70
  12   1 -10    1.24    1.57
 -12  -1  10    0.77    1.48
  11   1 -10   -1.27    1.53
 -11  -1  10    0.00    1.42
 -11  -1  10    0.71    1.34
  10   1 -10    3.42    1.68
 -10  -1  10    2.90    1.55
 -10  -1  10    2.29    1.46
   9   1 -10    5.81    1.72
  -9  -1  10    4.39    1.55
  -9  -1  10    7.09    1.50
  -8  -1  10    1.71    1.38
  -8  -1  10    1.27    1.30
  -7  -1  10   10.58    1.70
  -7  -1  10   12.43    1.76
  -6  -1  10    1.87    1.29
  -6  -1  10    0.12    1.24
  -5  -1  10    5.55    1.42
  -5  -1  10    2.28    1.25
  -4  -1  10    5.14    1.32
  -4  -1  10    4.82    1.27
  -3  -1  10   10.44    1.52
  -3  -1  10    9.38    1.44
  -2  -1  10    2.74    1.16
  -2  -1  10    1.80    1.14
  -1  -1  10    2.30    1.13
  -1  -1  10    2.80    1.18
   0  -1  10    0.44    1.08
   1  -1  10    0.52    1.13
   2  -1  10   -0.78    1.07
   3  -1  10    0.44    1.05
   4  -1  10    3.54    1.34
   5  -1  10    2.53    1.35
   6  -1  10    2.38    1.28
 -11   1 -10    0.64    1.42
 -12   1 -10    3.91    1.60
 -12   1 -10    4.88    1.60
 -13   1 -10    3.42    1.65
 -13   1 -10    0.86    1.46
 -14   1 -10    2.18    1.60
 -14   1 -10    0.33    1.46
 -15   1 -10   -1.09    1.47
 -15   1 -10   -1.06    1.52
  15   0 -10    2.36    1.95
 -15   0  10    0.79    1.42
  14   0 -10    4.15    1.72
 -14   0  10    1.48    1.59
  13   0 -10    0.68    1.72
 -13   0  10   -0.26    1.42
  12   0 -10   -1.70    1.50
 -12   0  10   -0.94    1.48
 -12   0  10    0.11    1.40
  11   0 -10   -0.12    1.57
 -11   0  10    2.09    1.32
 -11   0  10    1.21    1.49
  10   0 -10   -0.17    1.31
 -10   0  10    1.74    1.33
 -10   0  10    0.53    1.28
  -9   0  10   -0.31    1.31
  -9   0  10    1.89    1.30
  -8   0  10    0.37    1.11
  -8   0  10   -0.35    1.12
  -7   0  10   20.42    2.03
  -7   0  10   25.62    2.23
  -6   0  10   20.71    2.04
  -6   0  10   19.67    1.91
  -5   0  10    5.00    1.40
  -5   0  10    6.24    1.34
  -4   0  10    0.21    1.14
  -4   0  10    0.98    1.08
  -3   0  10    5.57    1.38
  -3   0  10    5.50    1.35
  -2   0  10   14.46    1.69
  -2   0  10   10.56    1.48
  -1   0  10    0.25    1.04
  -1   0  10    0.13    1.11
   0   0  10    9.58    1.42
   1   0  10    1.12    1.03
   2   0  10   14.57    1.74
   3   0  10    6.02    1.30
   4   0  10    2.38    1.21
   5   0  10    7.90    1.53
 -10   0 -10   -0.17    1.27
 -11   0 -10    0.81    1.40
 -11   0 -10    1.47    1.39
 -12   0 -10   -1.01    1.33
 -12   0 -10   -1.00    1.40
 -13   0 -10   -0.11    1.46
 -13   0 -10   -0.25    1.41
 -14   0 -10    1.03    1.56
 -14   0 -10    4.68    1.77
 -15   0 -10    0.48    1.38
 -15   0 -10   -2.62    1.48
  15  -1 -10   -1.41    1.72
 -15   1  10    0.85    1.51
  14  -1 -10    2.08    1.79
 -14   1  10    2.01    1.55
  13  -1 -10    6.14    1.89
 -13   1  10    0.96    1.42
 -13   1  10    1.13    1.47
  12  -1 -10    6.35    1.88
 -12   1  10    2.50    1.49
 -12   1  10    5.99    1.58
  11  -1 -10   -1.13    1.31
 -11   1  10   -0.53    1.30
 -11   1  10   -0.16    1.37
 -10   1  10    0.62    1.39
 -10   1  10    2.30    1.32
  -9   1  10    1.04    1.24
  -9   1  10    0.52    1.18
  -8   1  10    8.19    1.66
  -8   1  10   10.70    1.64
  -7   1  10    0.51    1.09
  -7   1  10    1.72    1.15
  -6   1  10    1.92    1.11
  -6   1  10    1.19    1.23
  -5   1  10    1.69    1.20
  -5   1  10    0.68    1.17
  -4   1  10    6.67    1.38
  -4   1  10    6.84    1.33
  -3   1  10   -0.67    0.99
  -3   1  10    0.23    1.03
  -2   1  10    1.57    1.06
  -2   1  10    2.74    1.20
  -1   1  10    0.75    1.04
   0   1  10   -0.80    1.09
   1   1  10    2.17    1.14
   2   1  10   -0.36    1.03
   3   1  10   12.48    1.64
   4   1  10    2.94    1.34
   5   1  10    3.61    1.38
  -9  -1 -10    6.01    1.56
 -10  -1 -10    4.58    1.53
 -10  -1 -10    0.70    1.30
 -11  -1 -10   -0.23    1.35
 -11  -1 -10    1.85    1.57
 -12  -1 -10   -0.15    1.27
 -12  -1 -10    1.61    1.60
 -13  -1 -10    1.52    1.54
 -13  -1 -10    4.01    1.59
 -14  -1 -10    0.32    1.52
 -14  -1 -10   -2.41    1.46
  15  -2 -10   -2.63    1.62
 -15   2  10   -0.92    1.44
  14  -2 -10    5.57    1.94
 -14   2  10    5.85    1.70
 -14   2  10    4.90    1.69
  13  -2 -10    4.38    1.83
 -13   2  10    5.15    1.61
 -13   2  10    4.05    1.52
  12  -2 -10   -2.64    1.26
 -12   2  10   -0.63    1.27
 -12   2  10    0.86    1.49
 -11   2  10    0.36    1.25
 -11   2  10    4.79    1.60
 -10   2  10    2.92    1.45
 -10   2  10    2.15    1.34
  -9   2  10    7.19    1.56
  -9   2  10    6.81    1.47
  -8   2  10    1.00    1.27
  -8   2  10    0.35    1.06
  -7   2  10   -0.47    1.18
  -7   2  10    1.06    1.16
  -6   2  10   -0.01    1.06
  -6   2  10    0.47    1.10
  -5   2  10   -0.65    0.98
  -5   2  10   -0.79    1.09
  -4   2  10    2.72    1.23
  -4   2  10    1.90    1.06
  -3   2  10    0.16    1.13
  -3   2  10    3.08    1.28
  -2   2  10   14.20    1.73
  -1   2  10    1.78    1.12
   0   2  10   12.83    1.69
   1   2  10    1.70    1.23
   2   2  10    2.89    1.29
   3   2  10   -0.70    1.23
   4   2  10   -1.45    1.12
  -9  -2 -10    1.03    1.46
  -9  -2 -10    0.14    1.34
 -10  -2 -10   -2.07    1.26
 -10  -2 -10    0.76    1.50
 -11  -2 -10   -0.42    1.21
 -11  -2 -10    4.12    1.68
 -12  -2 -10   -1.93    1.40
 -12  -2 -10    1.38    1.58
 -13  -2 -10    5.20    1.59
 -13  -2 -10    5.84    1.86
  16  -3 -10    2.84    1.95
 -16   3  10    1.01    1.56
  15  -3 -10    7.32    1.91
 -15   3  10    6.16    1.69
  14  -3 -10    0.91    1.67
 -14   3  10   -0.85    1.29
 -14   3  10    1.46    1.58
  13  -3 -10    0.89    1.62
 -13   3  10   -0.31    1.32
 -13   3  10    0.42    1.28
 -12   3  10   -1.44    1.34
 -12   3  10   -2.37    1.13
 -11   3  10   11.07    1.66
 -11   3  10   12.17    1.88
 -10   3  10    1.34    1.24
 -10   3  10    1.57    1.42
  -9   3  10    3.75    1.28
  -9   3  10    1.29    1.21
  -8   3  10    1.85    1.31
  -8   3  10    0.04    1.11
  -7   3  10    0.33    1.13
  -7   3  10    0.22    1.07
  -6   3  10    0.77    1.10
  -6   3  10   -1.89    0.95
  -5   3  10   -2.12    0.99
  -5   3  10    0.47    1.06
  -4   3  10    9.54    1.41
  -4   3  10   11.64    1.66
  -3   3  10    5.31    1.35
  -3   3  10    6.95    1.45
  -2   3  10    0.71    1.04
  -1   3  10   -0.96    0.97
   0   3  10    5.58    1.36
   1   3  10    7.82    1.52
   2   3  10   -0.31    1.21
   3   3  10   -0.19    1.20
   4   3  10    3.43    1.44
  -8  -3 -10   -0.14    1.14
  -8  -3 -10    0.54    1.27
  -9  -3 -10    0.32    1.46
  -9  -3 -10   -0.69    1.31
 -10  -3 -10    1.38    1.44
 -10  -3 -10   -1.49    1.22
 -11  -3 -10    2.68    1.65
 -11  -3 -10    1.50    1.33
 -12  -3 -10    0.49    1.54
 -12  -3 -10    6.36    1.72
 -13  -3 -10    1.14    1.64
 -13  -3 -10    1.51    1.57
  16  -4 -10   -0.12    1.65
 -16   4  10    3.62    1.56
  15  -4 -10   -0.14    1.71
 -15   4  10    0.42    1.46
 -15   4  10   -0.58    1.33
  14  -4 -10    0.45    1.59
 -14   4  10    1.88    1.46
 -14   4  10    0.69    1.34
 -13   4  10   -0.78    1.28
 -13   4  10   -0.37    1.45
 -12   4  10    4.63    1.45
 -12   4  10    3.48    1.59
 -11   4  10    3.35    1.43
 -11   4  10    5.45    1.43
 -10   4  10   -0.27    1.16
 -10   4  10    0.21    1.15
  -9   4  10    0.47    1.25
  -9   4  10   -0.35    1.09
  -8   4  10    2.35    1.15
  -8   4  10    1.39    1.26
  -7   4  10    0.09    1.21
  -7   4  10    1.41    1.15
  -6   4  10   -0.35    1.06
  -6   4  10    0.11    1.18
  -5   4  10    4.25    1.38
  -5   4  10    6.88    1.33
  -4   4  10    1.18    1.10
  -4   4  10    2.44    1.15
  -3   4  10    6.34    1.46
  -2   4  10    0.72    1.23
  -1   4  10   10.16    1.63
   0   4  10    1.54    1.29
   1   4  10    2.22    1.22
   2   4  10   -0.32    1.17
   3   4  10    1.10    1.40
  -7  -4 -10   -1.53    1.27
  -7  -4 -10    1.36    1.37
  -8  -4 -10    0.91    1.44
  -8  -4 -10   -0.73    1.29
  -9  -4 -10   -0.50    1.28
  -9  -4 -10   -0.48    1.32
 -10  -4 -10    5.24    1.74
 -10  -4 -10    0.98    1.47
 -11  -4 -10    2.47    1.52
 -11  -4 -10   -1.54    1.41
 -12  -4 -10   -2.79    1.40
 -12  -4 -10    0.39    1.51
  16  -5 -10    4.48    1.83
 -16   5  10    3.47    1.51
 -16   5  10    2.93    1.76
  15  -5 -10   -2.88    1.61
 -15   5  10   -0.93    1.51
 -15   5  10    2.18    1.35
 -14   5  10   -1.57    1.29
 -14   5  10    2.24    1.33
 -13   5  10    2.57    1.42
 -13   5  10    3.44    1.34
 -12   5  10    0.50    1.28
 -12   5  10   -0.85    1.11
 -11   5  10   11.83    1.77
 -11   5  10   14.89    1.75
 -10   5  10    6.07    1.35
 -10   5  10    5.00    1.52
  -9   5  10    4.96    1.41
  -9   5  10    5.73    1.29
  -8   5  10    1.95    1.35
  -8   5  10    1.29    1.11
  -7   5  10    0.90    1.06
  -7   5  10   -0.50    1.08
  -6   5  10    3.87    1.30
  -6   5  10    3.31    1.17
  -5   5  10    7.82    1.36
  -5   5  10    5.75    1.38
  -4   5  10    2.42    1.16
  -4   5  10    2.06    1.30
  -3   5  10    0.67    1.21
  -2   5  10    0.23    1.06
  -1   5  10    4.89    1.44
   0   5  10    7.44    1.58
   1   5  10    2.47    1.24
   2   5  10   -0.63    1.16
   3   5  10    0.87    1.42
  -6  -5 -10    0.16    1.33
  -6  -5 -10    1.53    1.34
  -7  -5 -10   11.95    1.84
  -7  -5 -10    8.69    1.76
  -8  -5 -10   15.64    2.08
  -8  -5 -10   15.26    2.10
  -9  -5 -10    7.19    1.83
  -9  -5 -10    6.12    1.70
 -10  -5 -10   -1.01    1.47
 -10  -5 -10   -0.36    1.45
 -11  -5 -10    2.86    1.69
 -11  -5 -10   -0.46    1.47
  17  -6 -10    6.49    1.98
  16  -6 -10    0.67    1.77
 -16   6  10    1.13    1.46
 -16   6  10    0.42    1.24
 -15   6  10    0.51    1.26
 -15   6  10    1.97    1.63
 -14   6  10    5.49    1.39
 -14   6  10    3.37    1.55
 -13   6  10    0.26    1.23
 -13   6  10   -1.11    1.24
 -12   6  10    6.14    1.71
 -12   6  10    4.89    1.31
 -11   6  10    3.44    1.30
 -11   6  10    4.07    1.55
 -10   6  10    7.54    1.41
 -10   6  10    4.87    1.46
  -9   6  10    5.40    1.27
  -9   6  10    4.10    1.35
  -8   6  10    8.81    1.40
  -8   6  10    5.35    1.51
  -7   6  10   -0.17    0.98
  -7   6  10    2.06    1.24
  -6   6  10   17.66    1.74
  -6   6  10   19.60    1.97
  -5   6  10    1.23    1.10
  -5   6  10    3.48    1.29
  -4   6  10    0.42    1.15
  -3   6  10   -1.91    1.14
  -2   6  10   -0.74    1.08
  -1   6  10    4.07    1.36
   0   6  10   19.90    2.01
   1   6  10    0.13    1.22
   2   6  10    1.66    1.43
   3   6  10   -0.02    1.35
  -4  -6 -10    2.52    1.29
  -5  -6 -10   10.27    1.74
  -5  -6 -10   11.66    1.76
  -6  -6 -10    4.85    1.57
  -6  -6 -10    4.16    1.49
  -7  -6 -10   -1.05    1.18
  -7  -6 -10    1.53    1.43
  -8  -6 -10   -0.14    1.35
  -8  -6 -10    2.35    1.54
  -9  -6 -10    5.53    1.57
  -9  -6 -10    5.32    1.71
 -10  -6 -10    2.32    1.66
 -10  -6 -10    1.09    1.58
 -11  -6 -10    2.72    1.65
 -11  -6 -10   -2.12    1.51
  17  -7 -10    7.70    2.18
 -17   7  10    7.31    1.96
  16  -7 -10    1.53    1.80
 -16   7  10    0.85    1.20
 -16   7  10   -0.02    1.54
 -15   7  10    0.98    1.58
 -15   7  10   -0.28    1.23
 -14   7  10   -0.40    1.16
 -14   7  10    0.49    1.54
 -13   7  10    2.39    1.52
 -13   7  10    0.07    1.12
 -12   7  10   14.27    1.63
 -12   7  10   13.34    1.93
 -11   7  10   -0.09    1.02
 -11   7  10   -0.10    1.30
 -10   7  10    2.06    1.07
 -10   7  10    3.12    1.46
  -9   7  10    3.33    1.43
  -9   7  10    0.71    1.09
  -8   7  10   10.37    1.40
  -8   7  10   11.11    1.65
  -7   7  10   23.00    2.20
  -7   7  10   19.67    1.75
  -6   7  10    1.44    1.12
  -6   7  10   -0.43    1.21
  -5   7  10    2.08    1.20
  -5   7  10    1.19    1.09
  -4   7  10   -1.18    1.16
  -3   7  10   -2.16    1.01
  -2   7  10   -1.02    1.12
  -1   7  10    3.09    1.31
   0   7  10   19.72    2.15
   1   7  10   10.97    1.93
   2   7  10    5.68    1.61
  -3  -7 -10    0.97    1.20
  -4  -7 -10    3.25    1.39
  -4  -7 -10    0.93    1.30
  -5  -7 -10    1.08    1.40
  -5  -7 -10    0.22    1.23
  -6  -7 -10    0.44    1.34
  -6  -7 -10    0.00    1.34
  -7  -7 -10   -0.75    1.36
  -7  -7 -10   -0.74    1.30
  -8  -7 -10    0.55    1.40
  -8  -7 -10    0.08    1.42
  -9  -7 -10    1.23    1.54
  -9  -7 -10    2.73    1.46
 -10  -7 -10    0.93    1.55
 -10  -7 -10    1.92    1.63
  17  -8 -10    2.19    1.91
 -17   8  10    8.64    1.97
 -16   8  10   -0.93    1.40
 -15   8  10   -0.47    1.13
 -15   8  10   -0.03    1.51
 -14   8  10    0.77    1.17
 -14   8  10    1.90    1.54
 -13   8  10   17.93    1.78
 -13   8  10   14.15    1.99
 -12   8  10    0.77    1.31
 -12   8  10    0.91    1.09
 -11   8  10   -1.51    0.95
 -11   8  10    0.60    1.39
 -10   8  10    1.47    1.35
 -10   8  10    2.46    1.02
  -9   8  10    2.28    1.10
  -9   8  10    0.98    1.38
  -8   8  10    0.12    1.04
  -8   8  10   -0.28    1.25
  -7   8  10   12.70    1.81
  -7   8  10    9.82    1.44
  -6   8  10    0.59    1.16
  -6   8  10    0.39    1.07
  -5   8  10    1.05    1.32
  -4   8  10    4.44    1.44
  -3   8  10    2.84    1.36
  -2   8  10    8.43    1.63
  -1   8  10   11.01    1.80
   0   8  10    0.82    1.41
  -1  -8 -10   -1.93    1.12
   1   8  10    1.47    1.52
  -2  -8 -10    2.16    1.23
   2   8  10    1.79    1.43
  -3  -8 -10   10.01    1.63
  -3  -8 -10   11.65    1.73
  -4  -8 -10    2.97    1.41
  -4  -8 -10    2.91    1.39
  -5  -8 -10    3.83    1.57
  -5  -8 -10    4.10    1.47
  -6  -8 -10    2.13    1.47
  -6  -8 -10    1.75    1.43
  -7  -8 -10    0.35    1.39
  -7  -8 -10    0.16    1.40
  -8  -8 -10   -1.83    1.46
  -8  -8 -10    2.38    1.55
  -9  -8 -10    0.64    1.48
  -9  -8 -10    1.52    1.59
 -17   9  10   -0.66    1.39
 -16   9  10    3.09    1.71
 -15   9  10    4.71    1.75
 -14   9  10    9.99    1.95
 -13   9  10   -0.69    1.07
 -13   9  10    3.15    1.53
 -12   9  10    2.51    1.16
 -12   9  10    3.44    1.52
 -11   9  10    0.84    1.39
 -11   9  10    0.40    1.04
 -10   9  10    4.76    1.16
 -10   9  10    3.77    1.49
  -9   9  10    0.85    1.00
  -9   9  10    1.67    1.33
  -8   9  10   -0.49    0.93
  -8   9  10   -0.23    1.12
  -7   9  10    8.11    1.65
  -7   9  10    5.11    1.23
  -6   9  10    3.25    1.22
  -6   9  10    0.55    1.20
  -5   9  10    2.89    1.31
  -4   9  10    4.91    1.43
  -3   9  10    5.12    1.56
  -2   9  10   -0.26    1.32
  -1   9  10    2.88    1.46
   0  -9 -10   -1.06    1.07
   0   9  10    1.57    1.51
  -1  -9 -10    1.76    1.28
   1   9  10    0.53    1.49
  -2  -9 -10    1.85    1.24
  -2  -9 -10    3.10    1.40
   2   9  10    2.31    1.46
  -3  -9 -10   -1.49    1.28
  -3  -9 -10   -2.23    1.11
  -4  -9 -10   -2.23    1.17
  -4  -9 -10   -0.97    1.23
  -5  -9 -10   -0.23    1.30
  -5  -9 -10   -0.31    1.31
  -6  -9 -10    0.19    1.37
  -6  -9 -10    1.94    1.49
  -7  -9 -10    1.28    1.49
  -7  -9 -10   -1.09    1.51
  -8  -9 -10    6.81    1.84
  -8  -9 -10    6.16    1.77
 -17  10  10    0.62    1.48
 -16  10  10   -0.62    1.49
 -15  10  10    0.89    1.54
 -14  10  10    2.51    1.44
 -13  10  10    1.76    1.53
 -12  10  10    0.20    1.23
 -11  10  10    6.09    1.22
 -11  10  10    1.41    1.45
 -10  10  10   -0.49    0.91
 -10  10  10    0.95    1.39
  -9  10  10    0.28    1.36
  -9  10  10    0.62    0.99
  -8  10  10    2.84    1.07
  -8  10  10    4.25    1.50
  -7  10  10    0.12    1.21
  -7  10  10    1.29    1.00
  -6  10  10    2.31    1.42
  -5  10  10    6.60    1.48
  -4  10  10    7.09    1.64
  -3  10  10    0.01    1.44
   2 -10 -10    0.87    1.08
  -2  10  10    0.11    1.36
   1 -10 -10    4.43    1.29
  -1  10  10    6.65    1.75
   0 -10 -10   -0.41    1.16
   0 -10 -10    1.48    1.16
   0  10  10   -0.61    1.34
  -1 -10 -10    0.48    1.21
  -1 -10 -10    0.27    1.14
   1  10  10    1.53    1.52
  -2 -10 -10    1.08    1.22
  -2 -10 -10    0.12    1.16
   2  10  10    0.90    1.47
  -3 -10 -10    2.19    1.38
  -3 -10 -10    0.13    1.24
  -4 -10 -10    0.64    1.33
  -4 -10 -10    0.95    1.32
  -5 -10 -10    0.68    1.37
  -5 -10 -10   -2.81    1.26
  -6 -10 -10    0.88    1.53
  -6 -10 -10    0.46    1.47
  -7 -10 -10    6.88    1.78
  -7 -10 -10    7.62    1.89
 -17  11  10   -2.03    1.52
 -16  11  10   -1.87    1.46
 -15  11  10   -0.17    1.53
 -14  11  10    2.62    1.40
 -13  11  10    0.08    1.29
 -12  11  10    1.12    1.43
 -11  11  10    1.58    1.36
 -10  11  10    0.64    1.35
  -9  11  10    0.86    1.40
  -9  11  10    2.53    1.05
  -8  11  10   12.13    1.85
  -8  11  10   10.26    1.34
  -7  11  10    4.67    1.23
  -7  11  10    1.80    1.42
  -6  11  10   10.39    1.82
  -6  11  10   15.25    2.20
  -5  11  10    3.88    1.53
  -5  11  10    5.61    1.75
   4 -11 -10    1.93    1.03
  -4  11  10   -0.77    1.30
  -4  11  10    2.41    1.57
   3 -11 -10   -0.94    1.04
  -3  11  10    0.44    1.40
   2 -11 -10    0.43    1.09
  -2  11  10   -0.84    1.34
   1 -11 -10    4.97    1.30
   1 -11 -10    3.33    1.26
  -1  11  10   -1.65    1.45
   0 -11 -10    1.66    1.27
   0 -11 -10    4.87    1.31
   0  11  10    3.96    1.69
  -1 -11 -10    4.16    1.34
  -1 -11 -10    5.79    1.37
   1  11  10    1.96    1.78
  -2 -11 -10    2.33    1.39
  -2 -11 -10    3.08    1.31
   2  11  10    5.77    1.89
  -3 -11 -10    3.84    1.49
  -3 -11 -10    0.53    1.31
  -4 -11 -10    1.90    1.43
  -4 -11 -10    2.34    1.51
  -5 -11 -10    5.32    1.61
  -5 -11 -10    4.85    1.61
  -6 -11 -10    6.44    1.72
  -6 -11 -10    9.12    1.93
 -16  12  10    0.42    1.49
 -15  12  10    4.94    1.73
 -14  12  10   -0.09    1.46
 -13  12  10    2.66    1.44
 -12  12  10   -1.50    1.14
 -11  12  10    4.10    1.56
 -10  12  10   -1.03    1.28
  -9  12  10   -0.18    1.32
  -9  12  10   -1.91    1.66
  -8  12  10    1.47    1.72
  -8  12  10    3.55    1.49
  -7  12  10   -0.73    1.63
  -7  12  10    0.29    1.30
  -7  12  10   -0.53    1.00
  -6  12  10    7.42    1.65
  -6  12  10    7.58    1.91
  -5  12  10   10.62    1.97
  -5  12  10    9.15    1.81
   4 -12 -10    0.73    1.02
  -4  12  10   -0.39    1.36
  -4  12  10    0.59    1.55
   3 -12 -10    0.51    1.05
   3 -12 -10    1.82    1.08
  -3  12  10    0.56    1.50
  -3  12  10    1.47    1.46
   2 -12 -10   -2.56    0.95
   2 -12 -10   -0.14    1.02
  -2  12  10    0.22    1.45
  -2  12  10    0.72    1.46
   1 -12 -10    0.02    1.14
   1 -12 -10    0.70    1.12
  -1  12  10   -0.94    1.36
  -1  12  10   -1.27    1.21
   0 -12 -10    0.32    1.15
   0 -12 -10    0.19    1.17
   0  12  10    1.68    1.65
  -1 -12 -10    0.96    1.23
  -1 -12 -10    0.56    1.17
   1  12  10    4.06    1.82
  -2 -12 -10    4.87    1.53
  -2 -12 -10    5.45    1.54
   2  12  10    4.17    1.91
  -3 -12 -10    7.31    1.63
  -3 -12 -10    4.74    1.56
  -4 -12 -10    1.42    1.49
  -4 -12 -10    0.81    1.38
 -16  13  10    1.27    1.58
 -15  13  10    5.67    1.75
 -14  13  10    3.74    1.62
 -13  13  10   -0.41    1.36
 -12  13  10    1.51    1.50
 -11  13  10    5.50    1.60
 -11  13  10    3.95    2.01
 -10  13  10   -0.65    1.34
 -10  13  10   -0.79    1.73
  -9  13  10    0.25    1.69
  -9  13  10    0.08    1.33
  -8  13  10    3.18    1.47
  -8  13  10    3.06    1.83
  -7  13  10   -2.05    1.22
  -7  13  10   -1.70    1.60
  -6  13  10    0.79    1.63
  -6  13  10    2.13    1.45
  -5  13  10   18.22    2.35
  -5  13  10   16.16    2.11
  -4  13  10    2.19    1.63
  -4  13  10    1.07    1.45
  -3  13  10    3.08    1.40
  -3  13  10    4.96    1.73
  -2  13  10    1.97    1.55
  -2  13  10    1.47    1.55
   1 -13 -10    1.03    1.10
  -1  13  10    1.81    1.63
  -1  13  10   -1.37    1.42
   0 -13 -10   -1.30    1.13
   0  13  10    2.06    1.73
   0  13  10   -0.16    1.40
  -1 -13 -10   -1.23    1.14
   1  13  10   -0.18    1.70
  -2 -13 -10   -0.97    1.15
   2  13  10    0.01    1.79
  -3 -13 -10   -1.45    1.29
 -15  14  10    0.53    1.43
 -14  14  10    4.28    1.59
 -13  14  10   -1.20    1.86
 -13  14  10   -0.05    1.40
 -12  14  10    8.82    2.32
 -12  14  10    5.57    1.70
 -11  14  10    0.19    1.88
 -11  14  10   -0.01    1.38
 -10  14  10    0.53    1.82
 -10  14  10    2.06    1.55
  -9  14  10   -0.37    1.70
  -9  14  10    0.25    1.39
  -8  14  10    3.72    1.61
  -8  14  10    4.95    1.97
  -7  14  10   -0.57    1.31
  -7  14  10   -2.12    1.64
  -6  14  10    0.56    1.36
  -6  14  10    1.73    1.73
  -5  14  10    9.72    1.83
  -5  14  10   10.60    2.10
  -4  14  10    2.29    1.72
  -4  14  10    1.61    1.54
  -3  14  10    2.21    1.62
  -3  14  10    1.72    1.50
  -2  14  10   -1.32    1.46
  -2  14  10   -1.28    1.47
  -1  14  10    1.16    1.57
  -1  14  10    1.71    1.66
   0  14  10    0.17    1.69
   1  14  10    2.66    1.69
 -15  15  10    2.50    1.59
 -14  15  10   -3.36    1.84
 -14  15  10   -1.67    1.28
 -13  15  10    2.38    2.11
 -13  15  10    1.34    1.49
 -12  15  10    6.19    2.23
 -12  15  10    6.07    1.69
 -11  15  10    2.95    1.51
 -11  15  10    0.62    1.91
 -10  15  10   -0.76    1.80
 -10  15  10    1.48    1.57
  -9  15  10   -0.80    1.74
  -9  15  10    0.38    1.41
  -8  15  10   -0.09    1.78
  -8  15  10    0.49    1.36
  -7  15  10    1.12    1.46
  -7  15  10   -1.19    1.72
  -6  15  10    5.83    1.98
  -6  15  10    7.64    1.68
  -5  15  10   -1.46    1.31
  -5  15  10    2.03    1.72
  -4  15  10    2.90    1.58
  -4  15  10    1.67    1.68
  -3  15  10    5.38    1.74
  -3  15  10    5.04    1.81
  -2  15  10    3.49    1.74
  -2  15  10    5.75    1.85
  -1  15  10    1.00    1.65
   0  15  10    3.22    1.87
 -13  16  10    0.12    1.42
 -13  16  10    0.53    2.11
 -12  16  10    3.71    1.56
 -12  16  10    2.63    2.08
 -11  16  10    4.40    2.13
 -11  16  10    4.21    1.65
 -10  16  10    2.31    1.94
 -10  16  10    0.59    1.39
  -9  16  10    2.23    1.90
  -9  16  10    1.48    1.50
  -8  16  10    2.99    1.48
  -8  16  10    1.03    1.86
  -7  16  10    6.94    1.68
  -7  16  10    1.63    1.92
  -6  16  10    3.48    1.88
  -6  16  10    1.62    1.55
  -5  16  10    0.09    1.41
  -5  16  10   -0.98    1.65
  -4  16  10    0.25    1.53
  -4  16  10    0.26    1.68
  -3  16  10    1.80    1.72
  -3  16  10    2.76    1.66
 -11  17  10    8.40    2.35
 -11  17  10    8.32    1.77
 -10  17  10    8.41    2.39
 -10  17  10    6.30    1.77
  -9  17  10    3.18    2.05
  -9  17  10    5.45    1.65
  -8  17  10    0.75    1.89
  -8  17  10    0.33    1.39
  -7  17  10   -0.45    1.38
  -7  17  10    0.71    1.92
  -6  17  10    0.87    1.43
  -6  17  10    2.47    1.82
   7 -16  11   -0.36    1.53
   8 -16  11    7.48    1.81
   9 -16  11    4.72    1.73
   3 -15  11    6.42    1.86
   4 -15  11    2.13    1.62
   5 -15  11   17.39    2.23
   6 -15  11    4.06    1.62
   7 -15  11   -0.92    1.39
   8 -15  11    0.81    1.50
   9 -15  11    1.49    1.45
  10 -15  11    2.07    1.54
  11 -15  11    6.82    1.81
  12 -15  11    0.47    1.45
   1 -14  11   16.57    2.26
   2 -14  11   14.30    2.22
   3 -14  11    5.93    1.82
   4 -14  11   15.67    2.16
   5 -14  11    1.25    1.48
   6 -14  11    3.79    1.64
   7 -14  11    0.60    1.49
   8 -14  11   14.96    2.04
   9 -14  11    4.03    1.58
  10 -14  11    3.12    1.61
  11 -14  11   19.50    2.34
  12 -14  11   -0.33    1.44
 -13  14 -11   -1.19    1.63
  13 -14  11    1.47    1.51
  -1 -13  11   -1.30    1.57
   0 -13  11   14.44    2.28
   1 -13  11   -1.31    1.50
   2 -13  11    3.58    1.62
   3 -13  11   -0.41    1.40
   4 -13  11   25.52    2.48
   5 -13  11    4.09    1.65
   6 -13  11   -1.13    1.34
   7 -13  11   10.68    1.89
   8 -13  11   -0.99    1.31
   9 -13  11    0.05    1.42
  10 -13  11   -2.57    1.33
  11 -13  11   17.69    2.22
  12 -13  11   12.52    2.02
 -13  13 -11    4.82    1.84
 -14  13 -11   12.36    2.05
   3  12 -11    0.46    1.41
  -3 -12  11    0.55    1.68
   2  12 -11    4.52    1.60
  -2 -12  11    0.75    1.66
   1  12 -11    9.65    1.79
  -1 -12  11   11.87    2.11
   0  12 -11   -1.58    1.24
   0 -12  11    0.52    1.58
   1 -12  11    4.40    1.71
   2 -12  11    2.72    1.47
   3 -12  11    0.48    1.29
   4 -12  11   12.53    1.97
   5 -12  11    3.71    1.51
   6 -12  11    3.54    1.57
   7 -12  11    3.25    1.52
   8 -12  11   -0.27    1.38
   9 -12  11    1.85    1.49
  10 -12  11   12.29    2.00
  11 -12  11   -0.60    1.40
 -14  12 -11   17.92    2.15
   4  11 -11    7.20    1.82
  -4 -11  11    3.58    1.87
   3  11 -11   25.65    2.44
  -3 -11  11   25.10    2.72
   2  11 -11   24.47    2.26
  -2 -11  11   23.38    2.60
   1  11 -11    0.26    1.23
  -1 -11  11   -0.32    1.53
   0  11 -11    4.61    1.41
   0 -11  11    2.66    1.25
   0 -11  11    3.28    1.61
  -1  11 -11    0.69    1.23
   1 -11  11    2.08    1.52
   1 -11  11    1.50    1.17
  -2  11 -11   15.09    1.66
   2 -11  11   14.11    1.62
   2 -11  11   12.11    2.00
   3 -11  11   -0.22    1.39
   3 -11  11   -0.20    1.01
   4 -11  11   32.07    2.00
   4 -11  11   34.11    2.50
   5 -11  11   48.10    3.04
   5 -11  11   46.28    2.41
   6 -11  11   -0.40    0.99
   6 -11  11    2.28    1.45
   7 -11  11    7.37    1.70
   8 -11  11   -0.93    1.34
   9 -11  11    6.86    1.61
  10 -11  11   -0.30    1.38
   5  10 -11    0.29    1.52
  -5 -10  11    1.37    1.71
   4  10 -11    5.54    1.75
  -4 -10  11    4.84    1.73
   3  10 -11    1.29    1.41
  -3 -10  11   -2.33    1.43
   2  10 -11   14.02    1.91
  -2 -10  11   13.54    1.82
  -2 -10  11   14.05    2.17
   1  10 -11    2.56    1.41
  -1 -10  11    0.81    1.17
  -1 -10  11    3.02    1.65
   0  10 -11   19.77    1.95
   0 -10  11   20.19    1.90
   0 -10  11   17.75    2.26
  -1  10 -11   15.68    1.73
   1 -10  11   12.40    1.96
   1 -10  11   17.22    1.71
  -2  10 -11    1.01    1.10
   2 -10  11    3.28    1.19
   2 -10  11   -0.62    1.34
  -3  10 -11   19.50    1.73
   3 -10  11   16.31    2.11
   3 -10  11   17.65    1.71
  -4  10 -11    0.24    1.07
   4 -10  11   -0.98    1.17
   4 -10  11   -0.52    1.05
   5 -10  11   25.23    1.88
   5 -10  11   27.68    2.48
   6 -10  11    5.78    1.64
   6 -10  11    7.45    1.33
   7 -10  11   52.86    3.11
   7 -10  11   51.27    2.54
   8 -10  11   39.33    2.32
   8 -10  11   35.19    2.71
   9 -10  11    2.18    1.17
  10 -10  11   19.10    1.79
  11 -10  11   -0.46    1.08
   7   9 -11    6.04    1.86
  -7  -9  11    5.29    2.01
   6   9 -11    1.73    1.62
  -6  -9  11    1.65    1.71
   5   9 -11    4.44    1.74
  -5  -9  11    6.67    1.85
   4   9 -11    1.18    1.47
  -4  -9  11    2.62    1.52
   3   9 -11    0.77    1.39
  -3  -9  11    0.36    1.28
  -3  -9  11   -0.19    1.38
   2   9 -11    8.70    1.73
  -2  -9  11    8.24    1.91
  -2  -9  11   10.44    1.70
   1   9 -11    2.02    1.29
  -1  -9  11    1.02    1.52
  -1  -9  11    3.23    1.30
   0   9 -11    0.89    1.23
   0  -9  11    1.65    1.47
   0  -9  11    0.12    1.08
  -1   9 -11    2.95    1.26
   1  -9  11    0.31    1.41
   1  -9  11    0.31    1.16
  -2   9 -11    2.52    1.21
   2  -9  11    1.65    1.44
   2  -9  11    1.52    1.15
  -3   9 -11   11.41    1.51
   3  -9  11   10.17    1.81
   3  -9  11   10.50    1.47
  -4   9 -11   26.39    1.97
   4  -9  11   25.17    1.93
   4  -9  11   19.94    2.18
   5  -9  11    1.20    1.30
   5  -9  11    1.81    1.12
   6  -9  11   20.02    2.18
   6  -9  11   24.43    1.92
   7  -9  11    0.28    1.02
   7  -9  11   -1.21    1.18
   8  -9  11    6.15    1.36
   9  -9  11    0.87    1.14
  10  -9  11   14.47    1.71
  11  -9  11   11.89    1.70
  12  -9  11    0.92    1.28
  13  -9  11   27.52    2.39
  14  -9  11    2.60    1.58
  15  -9  11    1.66    1.60
 -16   9 -11   -1.28    1.35
   8   8 -11    6.49    2.01
  -8  -8  11    5.74    1.86
   7   8 -11    3.35    1.78
  -7  -8  11    0.40    1.68
   6   8 -11   12.52    2.07
  -6  -8  11   13.46    2.15
   5   8 -11   -2.17    1.43
  -5  -8  11    0.24    1.38
   4   8 -11   -0.44    1.39
  -4  -8  11   -1.15    1.34
  -4  -8  11   -1.78    1.18
   3   8 -11   -0.73    1.37
  -3  -8  11    0.36    1.32
  -3  -8  11    1.89    1.55
   2   8 -11   38.68    2.63
  -2  -8  11   42.56    2.74
  -2  -8  11   38.51    2.57
   1   8 -11    6.83    1.48
  -1  -8  11    7.50    1.45
  -1  -8  11    4.78    1.53
   0   8 -11   15.26    1.72
   0  -8  11   14.38    1.69
   0  -8  11   12.09    1.89
  -1   8 -11   17.91    1.78
   1  -8  11   17.12    2.05
   1  -8  11   14.24    1.71
  -2   8 -11    1.08    1.11
   2  -8  11    2.72    1.20
   2  -8  11    1.71    1.27
   3  -8  11    5.16    1.44
   3  -8  11    2.11    1.08
   4  -8  11    0.15    1.32
   4  -8  11    0.37    1.10
   5  -8  11   15.45    1.98
   5  -8  11   17.71    1.68
   6  -8  11    1.67    1.15
   6  -8  11    0.46    1.23
   7  -8  11    0.65    1.09
   8  -8  11   15.26    1.71
   9  -8  11    2.38    1.26
  10  -8  11   -0.49    1.23
  11  -8  11    1.87    1.35
  12  -8  11   14.00    1.88
  13  -8  11   -1.89    1.41
  14  -8  11    3.27    1.63
 -15   8 -11    1.93    1.66
 -16   8 -11    7.81    2.03
   9   7 -11    0.75    1.77
  -9  -7  11    2.32    1.64
   8   7 -11    1.74    1.75
  -8  -7  11    1.11    1.68
   7   7 -11   -0.98    1.55
  -7  -7  11    0.71    1.42
   6   7 -11   10.48    1.94
  -6  -7  11    7.84    1.82
  -6  -7  11   12.60    1.96
   5   7 -11    3.34    1.56
  -5  -7  11    3.69    1.52
  -5  -7  11    4.31    1.68
   4   7 -11   11.66    1.85
  -4  -7  11   11.25    1.76
  -4  -7  11   14.34    1.99
   3   7 -11   53.40    3.00
  -3  -7  11   52.22    2.89
  -3  -7  11   54.05    3.11
   2   7 -11   -2.39    1.19
  -2  -7  11    1.24    1.31
  -2  -7  11   -0.19    1.12
   1   7 -11    2.00    1.26
  -1  -7  11   -1.20    1.30
  -1  -7  11    1.81    1.14
   0   7 -11    1.41    1.19
   0  -7  11    2.67    1.37
   0  -7  11    4.85    1.29
   1  -7  11   51.90    3.07
   1  -7  11   51.38    2.73
   2  -7  11   30.98    2.54
   2  -7  11   29.30    2.08
   3  -7  11   24.97    2.02
   3  -7  11   23.58    2.22
   4  -7  11   26.81    2.08
   4  -7  11   24.64    2.32
   5  -7  11    0.29    1.32
   5  -7  11   -0.13    1.10
   6  -7  11   20.59    1.88
   7  -7  11    3.30    1.33
   8  -7  11   16.73    1.84
   9  -7  11    1.67    1.35
  10  -7  11   21.09    2.09
  11  -7  11   35.97    2.59
  12  -7  11    2.75    1.55
  13  -7  11   -0.09    1.42
 -15   7 -11    1.70    1.69
 -16   7 -11    4.18    1.89
   9   6 -11    5.88    2.00
  -9  -6  11    0.33    1.52
   8   6 -11    3.39    1.80
  -8  -6  11    4.45    1.76
   7   6 -11   -0.87    1.46
  -7  -6  11   -1.26    1.37
  -7  -6  11    0.37    1.33
   6   6 -11    3.85    1.65
  -6  -6  11    5.64    1.60
  -6  -6  11    5.71    1.75
   5   6 -11    3.27    1.59
  -5  -6  11   -0.37    1.28
  -5  -6  11    0.63    1.20
   4   6 -11    7.68    1.70
  -4  -6  11    8.68    1.65
  -4  -6  11    8.15    1.68
   3   6 -11   25.77    2.27
  -3  -6  11   24.58    2.36
  -3  -6  11   23.19    2.15
   2   6 -11    0.27    1.32
  -2  -6  11    2.17    1.28
  -2  -6  11    2.14    1.23
  -1  -6  11   22.12    2.18
  -1  -6  11   23.95    2.02
   0  -6  11   30.52    2.15
   0  -6  11   23.72    2.23
   1  -6  11   -0.22    1.17
   1  -6  11    1.61    1.11
   2  -6  11    0.93    1.12
   2  -6  11    1.76    1.26
   3  -6  11    1.70    1.11
   3  -6  11    0.41    1.28
   4  -6  11    9.20    1.44
   4  -6  11    9.23    1.73
   5  -6  11    3.48    1.27
   6  -6  11   27.66    2.19
   7  -6  11   42.83    2.63
   8  -6  11    4.75    1.46
   9  -6  11   11.02    1.68
  10  -6  11    0.66    1.29
  11  -6  11   52.45    3.05
  12  -6  11    3.56    1.72
 -14   6 -11    9.76    1.96
 -15   6 -11   -0.42    1.60
  10   5 -11   21.82    2.68
 -10  -5  11   20.97    2.45
   9   5 -11    0.65    1.55
  -9  -5  11    3.24    1.60
   8   5 -11    0.64    1.60
  -8  -5  11    4.09    1.60
  -8  -5  11    2.30    1.58
   7   5 -11    5.48    1.81
  -7  -5  11    1.25    1.46
  -7  -5  11    4.44    1.67
   6   5 -11   48.21    3.17
  -6  -5  11   53.00    3.03
  -6  -5  11   58.07    3.35
   5   5 -11   29.78    2.54
  -5  -5  11   27.66    2.40
  -5  -5  11   29.03    2.55
   4   5 -11    1.29    1.41
  -4  -5  11    0.97    1.39
  -4  -5  11    3.15    1.34
  -3  -5  11   20.05    2.07
  -3  -5  11   20.55    2.03
  -2  -5  11   -1.17    1.21
  -2  -5  11   -1.04    1.09
  -1  -5  11    1.22    1.36
  -1  -5  11    2.37    1.25
   0  -5  11   15.78    1.87
   0  -5  11   17.68    1.80
   1  -5  11   -1.55    1.03
   1  -5  11    1.41    1.16
   2  -5  11   -0.12    1.27
   2  -5  11    4.14    1.32
   3  -5  11   -0.11    1.30
   3  -5  11   -1.49    1.04
   4  -5  11   14.27    1.67
   5  -5  11   16.85    1.81
   6  -5  11    0.82    1.29
   7  -5  11   26.26    2.25
   8  -5  11    2.44    1.43
   9  -5  11   24.89    2.32
  10  -5  11   31.41    2.61
  11  -5  11    3.21    1.68
 -14   5 -11    2.01    1.53
 -15   5 -11    1.82    1.64
 -15   5 -11    5.08    1.86
  11   4 -11   -0.14    1.76
 -11  -4  11   -0.33    1.63
  10   4 -11   15.85    2.37
 -10  -4  11   17.71    2.35
   9   4 -11   23.34    2.54
  -9  -4  11   20.24    2.44
  -9  -4  11   24.88    2.50
   8   4 -11   13.46    2.17
  -8  -4  11   13.83    2.06
  -8  -4  11   17.55    2.26
   7   4 -11   35.70    2.87
  -7  -4  11   37.68    2.84
  -7  -4  11   37.43    2.69
   6   4 -11    0.41    1.50
  -6  -4  11   -1.24    1.27
  -6  -4  11   -1.12    1.20
   5   4 -11   24.27    2.35
  -5  -4  11   21.84    2.28
  -5  -4  11   20.37    2.11
  -4  -4  11    1.53    1.29
  -4  -4  11    0.42    1.32
  -3  -4  11   26.04    2.30
  -3  -4  11   28.87    2.22
  -2  -4  11   10.29    1.75
  -2  -4  11    9.84    1.57
  -1  -4  11   13.38    1.67
  -1  -4  11   11.46    1.66
   0  -4  11   66.43    3.17
   0  -4  11   59.79    3.03
   1  -4  11    9.99    1.66
   1  -4  11    8.60    1.48
   2  -4  11    2.51    1.38
   2  -4  11    2.96    1.25
   3  -4  11   -1.03    1.06
   4  -4  11   61.75    3.00
   5  -4  11   -0.05    1.14
   6  -4  11    1.09    1.23
   7  -4  11   26.84    2.25
   8  -4  11    0.73    1.36
   9  -4  11    2.60    1.49
  10  -4  11    9.14    1.92
 -13   4 -11   -0.42    1.35
 -14   4 -11    3.27    1.71
 -15   4 -11    5.16    1.91
 -15   4 -11    3.70    1.67
  12   3 -11    3.38    1.96
 -12  -3  11    4.17    1.86
  11   3 -11    0.99    1.59
 -11  -3  11    4.48    1.83
  10   3 -11    2.61    1.79
 -10  -3  11   -1.09    1.48
 -10  -3  11    0.75    1.39
   9   3 -11    2.25    1.73
  -9  -3  11   -0.58    1.29
  -9  -3  11    1.75    1.56
   8   3 -11   -0.51    1.53
  -8  -3  11    0.42    1.47
  -8  -3  11   -0.08    1.39
   7   3 -11   22.77    2.35
  -7  -3  11   18.79    2.09
  -7  -3  11   18.64    2.18
   6   3 -11   13.48    1.96
  -6  -3  11    9.20    1.71
  -6  -3  11    9.77    1.75
  -5  -3  11    2.88    1.44
  -5  -3  11    3.73    1.40
  -4  -3  11   33.60    2.38
  -4  -3  11   25.87    2.29
  -3  -3  11   -0.68    1.22
  -3  -3  11    0.39    1.22
  -2  -3  11    0.00    1.26
  -2  -3  11    1.01    1.08
  -1  -3  11    0.06    1.13
  -1  -3  11    0.28    1.27
   0  -3  11   50.16    2.92
   0  -3  11   51.04    2.65
   1  -3  11   48.26    2.84
   1  -3  11   47.22    2.68
   2  -3  11   13.99    1.72
   3  -3  11   47.71    2.70
   4  -3  11   10.94    1.60
   5  -3  11    1.93    1.30
   6  -3  11    0.95    1.24
   7  -3  11   30.20    2.46
   8  -3  11   21.44    2.22
   9  -3  11   26.71    2.49
 -12   3 -11   -1.39    1.39
 -13   3 -11   -1.74    1.31
 -14   3 -11   23.91    2.54
 -14   3 -11   19.58    2.45
 -15   3 -11    3.72    1.67
 -15   3 -11    1.42    1.61
  12   2 -11   18.45    2.43
 -12  -2  11   20.09    2.36
  11   2 -11    2.25    1.79
 -11  -2  11    2.69    1.72
 -11  -2  11    4.73    1.75
  10   2 -11    3.82    1.65
 -10  -2  11    3.52    1.67
 -10  -2  11    2.17    1.47
   9   2 -11   14.19    2.16
  -9  -2  11   14.02    2.08
  -9  -2  11   12.94    2.03
   8   2 -11    0.51    1.38
  -8  -2  11    2.25    1.41
  -8  -2  11    3.05    1.41
  -7  -2  11    2.78    1.37
  -7  -2  11    1.33    1.33
  -6  -2  11    0.04    1.28
  -6  -2  11    1.60    1.43
  -5  -2  11   29.06    2.21
  -5  -2  11   30.70    2.30
  -4  -2  11   -0.12    1.20
  -4  -2  11    0.51    1.17
  -3  -2  11    2.38    1.20
  -3  -2  11    1.87    1.39
  -2  -2  11    2.28    1.24
  -2  -2  11    2.81    1.24
  -1  -2  11   15.55    1.82
  -1  -2  11   12.74    1.74
   0  -2  11    3.03    1.37
   0  -2  11    2.20    1.25
   1  -2  11    2.99    1.30
   2  -2  11    0.72    1.23
   3  -2  11   42.81    2.60
   4  -2  11    1.47    1.31
   5  -2  11   -0.11    1.23
   6  -2  11   13.72    1.86
   7  -2  11   -1.16    1.32
   8  -2  11    2.16    1.45
 -12   2 -11   10.85    1.94
 -13   2 -11   20.86    2.49
 -13   2 -11   17.62    2.31
 -14   2 -11    0.11    1.49
 -14   2 -11    1.73    1.54
  13   1 -11   17.45    2.58
 -13  -1  11   20.92    2.40
  12   1 -11   -0.97    1.69
 -12  -1  11   -0.42    1.40
 -12  -1  11    1.69    1.60
  11   1 -11   -2.03    1.59
 -11  -1  11    0.82    1.54
 -11  -1  11    2.40    1.59
  10   1 -11    1.71    1.71
 -10  -1  11   -0.24    1.43
 -10  -1  11    1.77    1.60
   9   1 -11   14.32    2.07
  -9  -1  11   15.26    1.98
  -9  -1  11   14.12    2.01
  -8  -1  11    4.80    1.56
  -8  -1  11    1.55    1.43
  -7  -1  11   17.46    1.99
  -7  -1  11   16.41    2.01
  -6  -1  11   52.08    2.94
  -6  -1  11   46.35    2.83
  -5  -1  11   -2.10    1.16
  -5  -1  11   -0.22    1.20
  -4  -1  11   -0.55    1.26
  -4  -1  11    1.83    1.26
  -3  -1  11   12.97    1.77
  -3  -1  11   11.65    1.67
  -2  -1  11   50.08    2.81
  -2  -1  11   47.73    2.71
  -1  -1  11    2.49    1.36
  -1  -1  11    2.57    1.28
   0  -1  11   31.96    2.32
   0  -1  11   30.82    2.25
   1  -1  11   29.31    2.28
   2  -1  11    2.68    1.28
   3  -1  11   16.01    1.92
   4  -1  11    0.32    1.25
   5  -1  11   15.69    1.94
   6  -1  11    2.28    1.50
   7  -1  11   23.36    2.36
 -11   1 -11    2.53    1.61
 -12   1 -11    0.86    1.36
 -12   1 -11    1.72    1.66
 -13   1 -11   11.14    2.05
 -13   1 -11    9.58    2.01
 -14   1 -11    0.98    1.66
 -14   1 -11   -0.44    1.55
  13   0 -11   12.01    2.31
 -13   0  11    8.38    1.94
 -13   0  11   11.05    1.90
  12   0 -11   -0.90    1.62
 -12   0  11    1.84    1.53
 -12   0  11    0.25    1.66
  11   0 -11    2.67    1.78
 -11   0  11    2.05    1.65
 -11   0  11    3.00    1.43
  10   0 -11   20.93    2.43
 -10   0  11   22.12    2.27
 -10   0  11   21.32    2.26
  -9   0  11    1.85    1.37
  -9   0  11   -2.73    1.09
  -8   0  11   19.10    2.10
  -8   0  11   14.63    1.98
  -7   0  11    2.53    1.32
  -7   0  11    0.24    1.29
  -6   0  11   26.81    2.26
  -6   0  11   27.99    2.40
  -5   0  11   18.38    1.99
  -5   0  11   19.53    1.97
  -4   0  11   63.61    3.23
  -4   0  11   66.16    3.15
  -3   0  11   51.10    2.74
  -3   0  11   47.61    2.69
  -2   0  11    1.49    1.26
  -2   0  11    1.67    1.24
  -1   0  11   28.02    2.31
  -1   0  11   27.12    2.11
   0   0  11    1.22    1.23
   1   0  11   29.80    2.34
   2   0  11    1.02    1.28
   3   0  11   52.17    2.97
   4   0  11   59.15    3.04
   5   0  11   17.82    2.09
   6   0  11   31.02    2.63
   7   0  11    4.03    1.53
 -10   0 -11   17.17    2.21
 -11   0 -11    3.71    1.76
 -11   0 -11    3.36    1.49
 -12   0 -11   -1.74    1.52
 -12   0 -11    0.34    1.47
 -13   0 -11    4.11    1.75
 -13   0 -11    7.33    1.99
  14  -1 -11   -0.40    1.79
 -14   1  11   -2.10    1.43
  13  -1 -11   13.21    2.27
 -13   1  11   11.56    2.04
 -13   1  11    8.69    1.85
  12  -1 -11    0.21    1.67
 -12   1  11   -0.36    1.43
 -12   1  11    2.22    1.43
  11  -1 -11    3.50    1.78
 -11   1  11    1.77    1.45
 -11   1  11    0.97    1.57
 -10   1  11    0.52    1.35
 -10   1  11    0.40    1.22
  -9   1  11    8.63    1.77
  -9   1  11    7.74    1.66
  -8   1  11    1.11    1.31
  -8   1  11    0.60    1.25
  -7   1  11   23.34    2.18
  -7   1  11   21.87    2.13
  -6   1  11    3.14    1.42
  -6   1  11    3.21    1.41
  -5   1  11   12.74    1.80
  -5   1  11   15.13    1.85
  -4   1  11    0.37    1.15
  -4   1  11    2.28    1.26
  -3   1  11   14.73    1.85
  -3   1  11   12.92    1.82
  -2   1  11    2.16    1.19
  -2   1  11    2.53    1.26
  -1   1  11   29.98    2.35
   0   1  11   31.61    2.27
   1   1  11    0.75    1.16
   2   1  11   48.84    2.90
   3   1  11   10.62    1.75
   4   1  11    1.60    1.41
   5   1  11    0.53    1.49
   6   1  11   51.88    3.05
 -10  -1 -11   -0.05    1.45
 -10  -1 -11    0.74    1.54
 -11  -1 -11    1.54    1.55
 -11  -1 -11    2.70    1.56
 -12  -1 -11   -1.24    1.25
 -12  -1 -11   -1.38    1.48
 -13  -1 -11   13.18    2.20
 -13  -1 -11   11.26    2.18
  14  -2 -11   -0.05    1.80
 -14   2  11    5.40    1.89
 -14   2  11    0.99    1.49
  13  -2 -11   25.78    2.73
 -13   2  11   26.15    2.59
 -13   2  11   23.89    2.43
  12  -2 -11   11.69    2.15
 -12   2  11   15.02    2.17
 -12   2  11   14.71    1.99
 -11   2  11   10.19    1.77
 -11   2  11   11.20    1.90
 -10   2  11   42.43    2.62
 -10   2  11   39.29    2.70
  -9   2  11   -0.69    1.28
  -9   2  11   -1.32    1.29
  -8   2  11    0.23    1.15
  -8   2  11    3.20    1.44
  -7   2  11   -1.37    1.26
  -7   2  11    0.56    1.25
  -6   2  11    9.73    1.69
  -6   2  11    9.44    1.60
  -5   2  11   -0.91    1.18
  -5   2  11    1.16    1.30
  -4   2  11    1.42    1.31
  -4   2  11    1.81    1.30
  -3   2  11   47.46    2.60
  -3   2  11   42.31    2.56
  -2   2  11    2.69    1.35
  -2   2  11    2.93    1.35
  -1   2  11    3.00    1.27
   0   2  11    1.69    1.26
   1   2  11   11.95    1.79
   2   2  11   -0.82    1.30
   3   2  11    3.34    1.50
   4   2  11    0.06    1.25
   5   2  11   37.88    2.83
   6   2  11    2.86    1.67
  -9  -2 -11    9.69    1.93
  -9  -2 -11   11.07    1.95
 -10  -2 -11    1.49    1.61
 -10  -2 -11    2.42    1.59
 -11  -2 -11    1.00    1.64
 -11  -2 -11   -0.24    1.42
 -12  -2 -11   17.58    2.40
 -12  -2 -11   18.50    2.37
  15  -3 -11    1.32    1.74
 -15   3  11    1.82    1.50
 -15   3  11   -0.69    1.56
  14  -3 -11   24.19    2.64
 -14   3  11   26.70    2.70
 -14   3  11   27.25    2.61
  13  -3 -11   -0.92    1.66
 -13   3  11    0.63    1.52
 -13   3  11    1.63    1.43
 -12   3  11    0.12    1.51
 -12   3  11    0.72    1.34
 -11   3  11   -1.53    1.28
 -11   3  11    0.57    1.30
 -10   3  11   52.22    2.92
 -10   3  11   51.00    3.12
  -9   3  11   23.04    2.22
  -9   3  11   21.66    2.10
  -8   3  11   20.49    2.03
  -8   3  11   16.37    1.94
  -7   3  11   24.99    2.32
  -7   3  11   27.77    2.29
  -6   3  11    0.46    1.22
  -6   3  11   -0.53    1.22
  -5   3  11    4.44    1.38
  -5   3  11    5.25    1.50
  -4   3  11    8.85    1.62
  -4   3  11    7.06    1.49
  -3   3  11   51.00    2.82
  -3   3  11   44.72    2.80
  -2   3  11   11.64    1.78
  -1   3  11   44.60    2.81
   0   3  11   46.58    2.71
   1   3  11   -1.14    1.12
   2   3  11    1.46    1.40
   3   3  11   -0.35    1.20
   4   3  11   29.70    2.56
   5   3  11    4.63    1.74
  -8  -3 -11    0.98    1.50
  -8  -3 -11    1.21    1.31
  -9  -3 -11    1.07    1.39
  -9  -3 -11    0.97    1.43
 -10  -3 -11   -2.63    1.28
 -10  -3 -11    0.51    1.50
 -11  -3 -11    5.95    1.87
 -11  -3 -11    3.30    1.67
 -12  -3 -11    2.18    1.72
 -12  -3 -11    2.88    1.52
  15  -4 -11    7.96    2.03
 -15   4  11    8.46    1.90
 -15   4  11    7.37    1.83
  14  -4 -11    0.83    1.86
 -14   4  11    1.88    1.45
 -14   4  11    8.58    1.87
 -13   4  11    1.12    1.59
 -13   4  11    2.33    1.40
 -12   4  11    0.69    1.30
 -12   4  11    1.30    1.42
 -11   4  11   10.90    1.72
 -11   4  11   15.55    2.02
 -10   4  11    7.38    1.59
 -10   4  11   12.89    1.95
  -9   4  11    1.50    1.27
  -9   4  11    0.41    1.37
  -8   4  11    1.60    1.38
  -8   4  11    1.90    1.24
  -7   4  11   28.68    2.23
  -7   4  11   32.70    2.48
  -6   4  11   -0.24    1.13
  -6   4  11   -0.91    1.10
  -5   4  11   -0.25    1.23
  -5   4  11    0.31    1.17
  -4   4  11   57.67    3.20
  -4   4  11   70.24    3.19
  -3   4  11    1.10    1.29
  -2   4  11    1.93    1.35
  -1   4  11   11.73    1.68
   0   4  11   62.19    3.22
   1   4  11   10.96    1.82
   2   4  11   11.93    1.89
   3   4  11   27.24    2.56
   4   4  11    0.47    1.55
   5   4  11   22.27    2.39
  -7  -4 -11   22.50    2.36
  -7  -4 -11   23.96    2.35
  -8  -4 -11   16.48    2.17
  -8  -4 -11   12.30    1.95
  -9  -4 -11   16.82    2.17
  -9  -4 -11   17.24    2.19
 -10  -4 -11   16.01    2.22
 -10  -4 -11   15.55    2.28
 -11  -4 -11   -1.52    1.38
 -11  -4 -11    2.91    1.68
  15  -5 -11    0.91    1.68
 -15   5  11    0.60    1.35
 -15   5  11    0.96    1.65
 -14   5  11    3.93    1.64
 -14   5  11    9.02    1.76
 -13   5  11   -1.50    1.49
 -13   5  11   -0.54    1.19
 -12   5  11    5.50    1.54
 -12   5  11    5.35    1.76
 -11   5  11    0.96    1.49
 -11   5  11    0.09    1.32
 -10   5  11   33.53    2.64
 -10   5  11   33.60    2.36
  -9   5  11   21.83    2.03
  -9   5  11   21.62    2.29
  -8   5  11    1.97    1.43
  -8   5  11    4.05    1.42
  -7   5  11   26.59    2.37
  -7   5  11   29.86    2.21
  -6   5  11    0.42    1.27
  -6   5  11   -0.52    1.08
  -5   5  11   18.13    1.89
  -5   5  11   19.08    2.10
  -4   5  11   14.67    1.84
  -4   5  11   15.40    1.80
  -3   5  11   -0.38    1.14
  -2   5  11    2.60    1.39
  -1   5  11    0.64    1.16
   0   5  11   16.55    2.08
   1   5  11    3.59    1.50
   2   5  11    1.18    1.44
   3   5  11   20.23    2.28
   4   5  11    1.26    1.60
  -6  -5 -11   47.80    3.03
  -6  -5 -11   38.01    2.76
  -7  -5 -11    3.62    1.63
  -7  -5 -11    2.50    1.51
  -8  -5 -11    3.08    1.67
  -8  -5 -11    1.54    1.33
  -9  -5 -11    0.43    1.55
  -9  -5 -11    2.22    1.53
 -10  -5 -11   13.94    2.23
 -10  -5 -11   11.78    2.05
 -15   6  11   -0.37    1.31
 -15   6  11    0.90    1.72
 -14   6  11   11.33    2.11
 -14   6  11   14.27    1.90
 -13   6  11   10.62    1.98
 -13   6  11   11.70    1.74
 -12   6  11    5.07    1.45
 -12   6  11    3.89    1.67
 -11   6  11   50.21    3.13
 -11   6  11   46.65    2.69
 -10   6  11   -1.31    1.19
 -10   6  11    1.58    1.47
  -9   6  11   13.38    1.91
  -9   6  11   11.50    1.62
  -8   6  11    0.78    1.35
  -8   6  11    4.36    1.28
  -7   6  11   47.98    2.64
  -7   6  11   49.98    2.88
  -6   6  11   30.96    2.53
  -6   6  11   29.03    2.22
  -5   6  11    4.27    1.37
  -5   6  11    2.29    1.45
  -4   6  11   10.32    1.80
  -3   6  11    2.37    1.31
  -2   6  11    1.07    1.22
  -1   6  11    0.39    1.40
   0   6  11   24.50    2.35
   1   6  11   17.51    2.08
   2   6  11    0.84    1.38
   3   6  11   27.08    2.64
   4   6  11    8.35    1.97
  -5  -6 -11    2.44    1.47
  -5  -6 -11    2.07    1.32
  -6  -6 -11    3.93    1.55
  -6  -6 -11    2.37    1.53
  -7  -6 -11   -1.03    1.39
  -7  -6 -11    0.17    1.41
  -8  -6 -11    1.60    1.57
  -8  -6 -11    5.11    1.67
  -9  -6 -11    0.88    1.44
  -9  -6 -11    0.23    1.55
 -16   7  11    3.80    1.89
 -15   7  11    0.64    1.68
 -15   7  11    1.10    1.35
 -14   7  11    0.23    1.17
 -14   7  11   -0.14    1.54
 -13   7  11    0.13    1.52
 -13   7  11    1.22    1.21
 -12   7  11    3.55    1.50
 -12   7  11    4.37    1.43
 -11   7  11   39.41    2.54
 -11   7  11   40.08    2.86
 -10   7  11   21.11    2.33
 -10   7  11   20.77    1.94
  -9   7  11    3.19    1.51
  -9   7  11    3.34    1.21
  -8   7  11   17.73    1.79
  -8   7  11   17.36    2.11
  -7   7  11    1.73    1.27
  -7   7  11    2.75    1.22
  -6   7  11   20.67    2.00
  -6   7  11   23.27    2.33
  -5   7  11   -1.87    1.10
  -5   7  11   -1.23    1.11
  -4   7  11   26.96    2.42
  -3   7  11   27.14    2.39
  -2   7  11   29.79    2.57
  -1   7  11   47.27    3.01
   0   7  11    3.31    1.55
   1   7  11    2.98    1.56
   2   7  11    0.60    1.57
  -3  -7 -11   44.30    2.78
   3   7  11   56.33    3.43
  -4  -7 -11   12.20    1.81
  -4  -7 -11   11.29    1.78
   4   7  11   11.66    2.08
  -5  -7 -11    6.53    1.58
  -5  -7 -11    5.08    1.62
  -6  -7 -11   10.92    1.99
  -6  -7 -11    9.44    1.83
  -7  -7 -11    1.42    1.43
  -7  -7 -11    1.98    1.55
  -8  -7 -11   -1.57    1.56
  -8  -7 -11    1.73    1.50
  -9  -7 -11   -1.77    1.41
  -9  -7 -11    0.45    1.59
 -16   8  11   12.19    2.16
 -15   8  11    1.60    1.68
 -14   8  11    4.69    1.40
 -14   8  11    4.05    1.74
 -13   8  11    2.72    1.26
 -13   8  11    1.73    1.45
 -12   8  11   17.47    2.27
 -12   8  11   13.38    1.66
 -11   8  11    0.08    1.34
 -11   8  11   -0.37    1.05
 -10   8  11    2.04    1.42
 -10   8  11    0.50    1.15
  -9   8  11    2.16    1.45
  -9   8  11    1.34    1.20
  -8   8  11   16.25    1.70
  -8   8  11    9.35    1.84
  -7   8  11    0.90    1.27
  -7   8  11    0.22    1.11
  -6   8  11    1.81    1.46
  -6   8  11   -0.38    1.10
  -5   8  11   20.70    2.16
  -5   8  11   19.48    1.96
  -4   8  11    4.43    1.54
  -3   8  11    3.58    1.45
  -2   8  11    3.87    1.59
  -1   8  11   20.13    2.19
   0   8  11   13.31    1.95
   1   8  11    7.30    1.87
  -2  -8 -11   36.71    2.50
   2   8  11   45.58    3.03
  -3  -8 -11    0.55    1.28
  -3  -8 -11   -1.84    1.29
   3   8  11    0.28    1.55
  -4  -8 -11   -0.08    1.39
  -4  -8 -11   -0.82    1.27
  -5  -8 -11   -0.14    1.33
  -5  -8 -11   -0.78    1.30
  -6  -8 -11   12.60    2.05
  -6  -8 -11   13.40    1.95
  -7  -8 -11   -1.07    1.33
  -7  -8 -11    2.84    1.56
  -8  -8 -11    5.55    1.75
  -8  -8 -11    5.21    1.74
 -16   9  11   -0.86    1.63
 -15   9  11    3.18    1.73
 -14   9  11    3.50    1.73
 -13   9  11   22.31    2.43
 -12   9  11    3.75    1.35
 -12   9  11    3.30    1.50
 -11   9  11   17.68    1.76
 -11   9  11   12.61    1.91
 -10   9  11   17.33    2.08
 -10   9  11   18.23    1.77
  -9   9  11    0.53    1.05
  -9   9  11    1.71    1.44
  -8   9  11    6.74    1.32
  -8   9  11    8.42    1.77
  -7   9  11    0.57    1.06
  -7   9  11    0.47    1.25
  -6   9  11   23.10    2.03
  -6   9  11   22.52    2.34
  -5   9  11    1.25    1.46
  -4   9  11   18.94    2.14
  -3   9  11   13.39    2.00
  -2   9  11    1.31    1.53
  -1   9  11    4.71    1.71
   0  -9 -11    0.26    1.16
   0   9  11    0.42    1.49
  -1  -9 -11    2.60    1.30
   1   9  11   -1.20    1.41
  -2  -9 -11    8.78    1.58
  -2  -9 -11    9.17    1.71
   2   9  11   11.83    2.14
  -3  -9 -11   -0.71    1.26
  -3  -9 -11    1.09    1.41
   3   9  11   -0.19    1.73
  -4  -9 -11    5.36    1.57
  -4  -9 -11    2.54    1.52
  -5  -9 -11    4.19    1.68
  -5  -9 -11    6.38    1.65
  -6  -9 -11    0.05    1.36
  -6  -9 -11    0.01    1.42
  -7  -9 -11    6.93    1.88
  -7  -9 -11    3.04    1.56
 -15  10  11   19.12    2.42
 -14  10  11   17.62    2.34
 -13  10  11   -1.15    1.29
 -12  10  11    2.28    1.65
 -11  10  11    2.43    1.60
 -10  10  11   17.93    2.26
 -10  10  11   19.99    1.79
  -9  10  11    3.29    1.59
  -9  10  11    0.72    1.18
  -8  10  11   42.58    2.43
  -8  10  11   41.48    2.91
  -7  10  11   55.71    2.80
  -7  10  11   49.54    3.00
  -6  10  11    6.07    1.43
  -6  10  11    7.33    1.61
  -5  10  11   24.99    2.38
  -4  10  11    0.47    1.45
  -3  10  11   14.50    2.04
  -2  10  11   -0.08    1.46
   1 -10 -11   12.28    1.64
  -1  10  11   16.95    2.23
   0 -10 -11   17.34    1.82
   0  10  11   18.91    2.35
  -1 -10 -11    0.72    1.33
  -1 -10 -11    2.70    1.41
   1  10  11    2.79    1.64
  -2 -10 -11    8.81    1.70
  -2 -10 -11   12.09    1.76
   2  10  11   14.96    2.39
  -3 -10 -11   -0.18    1.22
  -3 -10 -11   -2.11    1.15
   3  10  11   -0.84    1.72
  -4 -10 -11    4.85    1.58
  -4 -10 -11    6.25    1.68
  -5 -10 -11    1.09    1.51
  -5 -10 -11    2.43    1.51
 -15  11  11    1.95    1.62
 -14  11  11    5.36    1.77
 -13  11  11    1.08    1.40
 -12  11  11    4.72    1.71
 -11  11  11    2.34    1.56
 -10  11  11    3.37    1.60
  -9  11  11   11.27    1.96
  -8  11  11   -1.69    0.97
  -8  11  11   -0.58    1.38
  -7  11  11   11.72    1.97
  -7  11  11   11.97    1.58
  -6  11  11   -0.59    1.42
  -5  11  11   46.19    3.07
  -4  11  11   28.73    2.66
   3 -11 -11   -0.62    1.09
  -3  11  11   -1.08    1.45
   2 -11 -11   13.55    1.67
  -2  11  11   13.93    2.18
   1 -11 -11   -0.10    1.17
   1 -11 -11    3.58    1.31
  -1  11  11    2.71    1.56
   0 -11 -11    2.56    1.39
   0 -11 -11   -1.06    1.19
   0  11  11    3.40    1.74
  -1 -11 -11    0.00    1.25
  -1 -11 -11   -0.49    1.26
   1  11  11    1.93    1.79
  -2 -11 -11   22.40    2.16
  -2 -11 -11   21.29    2.12
   2  11  11   28.74    2.95
  -3 -11 -11   21.41    2.29
  -3 -11 -11   19.04    2.18
   3  11  11   26.52    2.95
  -4 -11 -11    6.73    1.75
  -4 -11 -11    9.80    1.87
 -15  12  11    3.70    1.72
 -14  12  11   20.11    2.43
 -13  12  11    1.66    1.61
 -12  12  11   -1.74    1.25
 -11  12  11    2.31    1.53
 -10  12  11   12.97    2.02
  -9  12  11    2.37    1.55
  -8  12  11    0.07    1.40
  -7  12  11    4.65    1.67
  -6  12  11    5.74    1.71
  -5  12  11    4.78    1.55
  -4  12  11   12.76    2.05
  -3  12  11    2.56    1.56
  -2  12  11    2.97    1.67
   1 -12 -11    2.59    1.28
   1 -12 -11    2.66    1.25
  -1  12  11    1.56    1.69
   0 -12 -11   -0.62    1.17
   0 -12 -11    2.09    1.25
   0  12  11   -1.76    1.54
  -1 -12 -11   11.70    1.76
  -1 -12 -11   10.67    1.69
   1  12  11    8.92    2.05
  -2 -12 -11    2.54    1.35
  -2 -12 -11   -2.88    1.12
   2  12  11    4.37    1.98
  -3 -12 -11   -0.77    1.33
   3  12  11    0.18    1.89
 -14  13  11   18.91    2.35
 -13  13  11   10.83    2.03
 -12  13  11    9.75    1.95
 -11  13  11   28.53    2.66
 -10  13  11   -0.64    1.45
  -9  13  11    2.14    1.54
  -8  13  11   -0.33    1.43
  -7  13  11    9.00    1.90
  -6  13  11    0.30    1.47
  -5  13  11    3.72    1.68
  -4  13  11   25.44    2.54
  -3  13  11    1.42    1.62
  -2  13  11    2.02    1.64
  -1  13  11    0.80    1.59
   0  13  11   13.21    2.14
   1  13  11    0.52    1.61
 -13  14  11    0.57    1.65
 -12  14  11    0.94    1.55
 -11  14  11   21.79    2.43
 -10  14  11    5.97    1.77
  -9  14  11    4.92    1.71
  -8  14  11   11.97    2.02
  -8  14  11   10.22    2.31
  -7  14  11    0.37    1.46
  -7  14  11   -0.15    1.86
  -6  14  11    4.07    1.98
  -6  14  11    2.02    1.56
  -5  14  11    1.25    1.58
  -5  14  11    1.98    1.85
  -4  14  11   15.87    2.37
  -4  14  11   15.25    2.19
  -3  14  11    7.85    2.01
  -2  14  11   20.47    2.53
  -1  14  11   14.96    2.32
 -12  15  11    1.44    1.52
 -11  15  11    6.56    2.32
 -11  15  11    9.00    1.95
 -10  15  11    1.26    1.56
 -10  15  11    0.62    1.99
  -9  15  11   -0.39    1.55
  -9  15  11   -1.59    1.85
  -8  15  11    3.64    2.03
  -8  15  11    2.99    1.61
  -7  15  11    2.36    1.93
  -7  15  11    0.30    1.51
  -6  15  11    3.89    1.66
  -6  15  11    0.31    1.85
  -5  15  11   16.37    2.46
  -5  15  11   16.58    2.28
  -4  15  11   -1.99    1.62
  -4  15  11   -0.29    1.54
  -3  15  11    4.89    1.91
  -3  15  11   -0.52    1.60
  -9  16  11    4.01    2.16
  -9  16  11    5.44    1.76
  -8  16  11    8.06    2.35
  -8  16  11    6.01    1.77
  -7  16  11    0.68    2.01
  -7  16  11    2.66    1.64
   4 -14  12   14.85    2.26
   5 -14  12   23.16    2.50
   6 -14  12   -1.98    1.42
   7 -14  12    3.80    1.75
   8 -14  12   -0.05    1.48
   9 -14  12   -3.34    1.32
  10 -14  12    0.51    1.58
   1 -13  12   13.06    2.14
   2 -13  12    2.59    1.54
   3 -13  12   11.77    2.03
   4 -13  12    2.02    1.66
   5 -13  12    5.44    1.80
   6 -13  12   -2.32    1.43
   7 -13  12    3.33    1.70
   8 -13  12    6.08    1.77
   9 -13  12    3.78    1.69
  10 -13  12   22.38    2.56
  11 -13  12   11.28    2.10
  12 -13  12    1.69    1.65
  -1 -12  12   -1.42    1.65
   0 -12  12   -0.45    1.61
   1 -12  12   -0.80    1.57
   2 -12  12    3.51    1.71
   3 -12  12    2.33    1.61
   4 -12  12    1.39    1.65
   5 -12  12    5.42    1.73
   6 -12  12    0.08    1.51
   7 -12  12    1.38    1.54
   8 -12  12    0.29    1.53
   9 -12  12   -0.34    1.37
  10 -12  12    7.10    1.91
  11 -12  12    7.84    1.95
  12 -12  12    3.54    1.72
   2  11 -12   11.46    1.99
  -2 -11  12   13.60    2.31
   1  11 -12    9.88    1.79
  -1 -11  12    9.26    1.70
  -1 -11  12    7.43    1.89
   0  11 -12    0.91    1.38
   0 -11  12    2.47    1.32
   0 -11  12    4.33    1.78
   1 -11  12   31.98    2.30
   1 -11  12   28.71    2.67
   2 -11  12    3.08    1.29
   2 -11  12    1.81    1.63
   3 -11  12    9.02    1.98
   3 -11  12    9.29    1.52
   4 -11  12   16.89    2.20
   5 -11  12    3.94    1.71
   6 -11  12    1.58    1.40
   7 -11  12    0.39    1.44
   8 -11  12   14.89    2.18
   9 -11  12   -1.50    1.45
  10 -11  12    2.82    1.66
   4  10 -12    1.16    1.65
  -4 -10  12    4.96    1.92
   3  10 -12   29.62    2.68
  -3 -10  12   31.00    2.96
   2  10 -12    6.69    1.69
  -2 -10  12    7.56    1.83
  -2 -10  12    6.71    1.69
   1  10 -12    1.86    1.43
  -1 -10  12    3.40    1.75
  -1 -10  12    2.52    1.42
   0  10 -12    8.62    1.65
   0 -10  12    7.47    1.91
   0 -10  12    9.60    1.56
  -1  10 -12    6.77    1.51
   1 -10  12    5.99    1.78
   1 -10  12    3.81    1.32
  -2  10 -12    0.21    1.14
   2 -10  12   -1.29    1.11
   2 -10  12   -0.57    1.47
   3 -10  12    5.19    1.74
   3 -10  12    6.11    1.45
   4 -10  12   66.45    3.62
   4 -10  12   62.91    3.00
   5 -10  12   11.12    1.54
   5 -10  12   11.97    1.90
   6 -10  12   10.75    1.98
   6 -10  12   13.14    1.66
   7 -10  12   11.27    1.59
   7 -10  12    6.31    1.76
   8 -10  12    8.45    1.42
   8 -10  12    8.59    1.89
   9 -10  12    1.10    1.36
   9 -10  12    0.80    1.17
   5   9 -12   -0.48    1.64
  -5  -9  12   -1.71    1.64
   4   9 -12    1.78    1.61
  -4  -9  12    2.42    1.48
  -4  -9  12    0.97    1.57
   3   9 -12    2.54    1.66
  -3  -9  12    4.44    1.82
  -3  -9  12    2.50    1.54
   2   9 -12    2.19    1.43
  -2  -9  12    1.84    1.68
  -2  -9  12   -0.34    1.32
   1   9 -12    0.89    1.31
  -1  -9  12   -0.99    1.48
  -1  -9  12    2.78    1.32
   0   9 -12    9.00    1.61
   0  -9  12    6.79    1.80
   0  -9  12    6.26    1.51
  -1   9 -12    0.38    1.22
   1  -9  12    0.99    1.44
   1  -9  12    2.51    1.24
  -2   9 -12    3.92    1.28
   2  -9  12    1.94    1.27
   2  -9  12    1.14    1.35
  -3   9 -12   10.34    1.47
   3  -9  12   14.78    1.67
   3  -9  12    9.82    1.93
  -4   9 -12   11.92    1.53
   4  -9  12   14.14    2.05
   4  -9  12    8.92    1.52
   5  -9  12    2.74    1.23
   5  -9  12    2.85    1.60
   6  -9  12    9.30    1.51
   6  -9  12    7.78    1.79
   7  -9  12   44.02    2.59
   7  -9  12   44.52    3.05
   8  -9  12    2.42    1.27
   8  -9  12    2.08    1.46
   9  -9  12    4.55    1.41
  10  -9  12    7.79    1.56
  11  -9  12    3.04    1.45
  12  -9  12    0.30    1.39
   6   8 -12    3.76    1.83
  -6  -8  12    3.95    1.87
   5   8 -12   11.00    2.06
  -5  -8  12   15.08    2.09
  -5  -8  12   12.29    2.12
   4   8 -12    1.71    1.50
  -4  -8  12    3.73    1.78
  -4  -8  12    1.30    1.49
   3   8 -12   13.27    1.94
  -3  -8  12   13.38    1.92
  -3  -8  12   10.45    2.04
   2   8 -12    9.41    1.84
  -2  -8  12    9.43    1.69
  -2  -8  12    6.58    1.73
   1   8 -12    2.96    1.38
  -1  -8  12    1.83    1.59
  -1  -8  12    2.86    1.31
   0   8 -12    1.75    1.26
   0  -8  12   -0.07    1.15
   0  -8  12    0.75    1.39
  -1   8 -12   15.71    1.83
   1  -8  12   16.25    1.80
   1  -8  12   15.02    2.17
  -2   8 -12   17.85    1.80
   2  -8  12   13.84    1.98
   2  -8  12   18.79    1.89
   3  -8  12    0.93    1.49
   3  -8  12    0.41    1.10
   4  -8  12   11.18    1.61
   4  -8  12   10.66    1.89
   5  -8  12    0.64    1.13
   5  -8  12    2.77    1.44
   6  -8  12    1.22    1.46
   6  -8  12    1.85    1.26
   7  -8  12   15.54    1.77
   8  -8  12    0.36    1.16
   9  -8  12   -0.75    1.24
  10  -8  12    1.26    1.30
  11  -8  12   11.04    1.76
  12  -8  12    2.51    1.48
  13  -8  12    6.90    1.76
  14  -8  12    0.69    1.66
   7   7 -12   -1.27    1.66
  -7  -7  12    1.09    1.79
   6   7 -12    3.33    1.81
  -6  -7  12    3.75    1.72
  -6  -7  12    2.57    1.73
   5   7 -12    0.95    1.52
  -5  -7  12    0.72    1.59
  -5  -7  12    1.93    1.46
   4   7 -12    0.32    1.47
  -4  -7  12   -2.07    1.42
  -4  -7  12    2.83    1.43
   3   7 -12   11.65    1.88
  -3  -7  12   10.45    1.79
  -3  -7  12    9.79    1.84
   2   7 -12   49.01    2.95
  -2  -7  12   47.91    2.86
  -2  -7  12   46.83    3.15
   1   7 -12   16.42    1.98
  -1  -7  12   14.20    1.82
  -1  -7  12   17.79    2.21
   0   7 -12   55.36    3.06
   0  -7  12   57.68    2.93
   0  -7  12   53.10    3.15
   1  -7  12   11.93    1.67
   1  -7  12   14.11    1.99
   2  -7  12    0.43    1.14
   2  -7  12    2.25    1.51
   3  -7  12    0.48    1.19
   3  -7  12    3.02    1.58
   4  -7  12   18.26    2.11
   4  -7  12   13.12    1.75
   5  -7  12   13.85    1.74
   5  -7  12   14.86    1.98
   6  -7  12    3.56    1.31
   7  -7  12   56.62    2.94
   8  -7  12   14.68    1.88
   9  -7  12    4.19    1.46
  10  -7  12    9.84    1.71
  11  -7  12   18.02    2.08
  12  -7  12    7.35    1.74
  13  -7  12    1.33    1.55
  14  -7  12    1.46    1.62
   8   6 -12    1.02    1.74
  -8  -6  12    2.15    1.73
   7   6 -12    1.09    1.67
  -7  -6  12    0.72    1.50
  -7  -6  12   -0.82    1.49
   6   6 -12    1.36    1.63
  -6  -6  12   -0.64    1.58
  -6  -6  12   -0.21    1.47
   5   6 -12   -0.07    1.49
  -5  -6  12    1.21    1.55
  -5  -6  12    0.80    1.45
   4   6 -12    8.58    1.84
  -4  -6  12   10.04    1.78
  -4  -6  12   11.16    2.00
   3   6 -12   10.61    1.88
  -3  -6  12    9.77    1.84
  -3  -6  12    6.95    1.61
   2   6 -12   -0.60    1.38
  -2  -6  12    1.28    1.31
  -2  -6  12    0.84    1.34
  -1  -6  12    4.38    1.39
  -1  -6  12    3.74    1.47
   0  -6  12   15.03    2.07
   0  -6  12   15.34    1.85
   1  -6  12   33.38    2.43
   1  -6  12   27.15    2.54
   2  -6  12    2.46    1.48
   2  -6  12    1.16    1.21
   3  -6  12   20.47    2.24
   3  -6  12   21.83    2.02
   4  -6  12    1.03    1.30
   4  -6  12   -0.10    1.23
   5  -6  12   -0.27    1.24
   6  -6  12   17.69    1.96
   7  -6  12   12.35    1.71
   8  -6  12   20.58    2.16
   9  -6  12   12.70    1.93
  10  -6  12   66.66    3.50
  11  -6  12    0.96    1.57
  12  -6  12   -0.91    1.47
  13  -6  12    3.56    1.77
 -14   6 -12    2.63    1.76
   9   5 -12   22.46    2.54
  -9  -5  12   26.43    2.81
   8   5 -12    4.05    1.71
  -8  -5  12    7.94    2.04
  -8  -5  12    3.29    1.69
   7   5 -12    2.04    1.72
  -7  -5  12    3.43    1.54
  -7  -5  12    6.57    1.87
   6   5 -12    3.12    1.69
  -6  -5  12    5.23    1.64
  -6  -5  12    2.54    1.61
   5   5 -12   15.04    2.14
  -5  -5  12   13.45    1.99
  -5  -5  12   10.87    1.88
   4   5 -12    4.41    1.64
  -4  -5  12    2.12    1.45
  -4  -5  12    3.10    1.49
  -3  -5  12    0.75    1.31
  -3  -5  12    0.89    1.47
  -2  -5  12   12.70    2.01
  -2  -5  12   11.58    1.74
  -1  -5  12   -0.15    1.26
  -1  -5  12    0.23    1.24
   0  -5  12    0.97    1.23
   0  -5  12    1.13    1.45
   1  -5  12   16.37    1.88
   1  -5  12   17.21    2.01
   2  -5  12   -0.83    1.20
   2  -5  12    2.12    1.23
   3  -5  12    3.29    1.46
   3  -5  12    5.17    1.45
   4  -5  12    1.89    1.30
   5  -5  12    2.54    1.32
   6  -5  12   32.98    2.40
   7  -5  12    3.54    1.44
   8  -5  12    1.28    1.38
   9  -5  12   13.37    1.95
  10  -5  12   13.74    2.12
  11  -5  12    2.24    1.60
  12  -5  12    1.01    1.60
 -14   5 -12   -0.66    1.44
  10   4 -12   11.49    2.29
 -10  -4  12   12.58    2.28
   9   4 -12    2.12    1.81
  -9  -4  12    3.27    1.77
  -9  -4  12    4.47    1.83
   8   4 -12    3.10    1.77
  -8  -4  12    5.11    1.73
  -8  -4  12    2.54    1.54
   7   4 -12   17.42    2.37
  -7  -4  12   20.51    2.22
  -7  -4  12   15.84    2.27
   6   4 -12   71.09    3.70
  -6  -4  12   66.44    3.63
  -6  -4  12   54.50    3.32
   5   4 -12   13.34    1.95
  -5  -4  12   10.49    1.83
  -5  -4  12   15.73    2.15
  -4  -4  12   11.73    1.86
  -4  -4  12   12.12    1.85
  -3  -4  12   18.45    2.24
  -3  -4  12   15.44    1.93
  -2  -4  12   -0.50    1.21
  -2  -4  12    2.91    1.35
  -1  -4  12    1.74    1.29
  -1  -4  12    2.01    1.30
   0  -4  12    1.64    1.42
   0  -4  12    1.62    1.27
   1  -4  12   35.29    2.49
   1  -4  12   38.66    2.61
   2  -4  12    9.29    1.63
   2  -4  12    7.41    1.76
   3  -4  12   25.54    2.26
   3  -4  12   30.09    2.56
   4  -4  12   -1.09    1.16
   5  -4  12   16.75    1.97
   6  -4  12    3.62    1.47
   7  -4  12    2.72    1.44
   8  -4  12   12.11    1.91
   9  -4  12    4.63    1.63
  10  -4  12   12.83    2.07
  11  -4  12    3.40    1.72
 -13   4 -12    0.85    1.64
 -14   4 -12   -0.13    1.62
  10   3 -12   17.81    2.50
 -10  -3  12   15.65    2.29
 -10  -3  12   12.60    2.11
   9   3 -12   -0.02    1.69
  -9  -3  12    0.45    1.44
  -9  -3  12    2.08    1.71
   8   3 -12   11.55    2.11
  -8  -3  12    9.36    2.00
  -8  -3  12   10.24    1.98
   7   3 -12    7.07    1.89
  -7  -3  12    5.55    1.61
  -7  -3  12    6.78    1.78
  -6  -3  12   14.36    2.06
  -6  -3  12   14.10    2.03
  -5  -3  12   -0.30    1.25
  -5  -3  12    1.44    1.29
  -4  -3  12    2.15    1.51
  -4  -3  12    2.30    1.38
  -3  -3  12   24.07    2.28
  -3  -3  12   24.56    2.41
  -2  -3  12    6.23    1.51
  -2  -3  12    6.01    1.63
  -1  -3  12   23.51    2.31
  -1  -3  12   25.67    2.24
   0  -3  12   27.15    2.29
   0  -3  12   32.20    2.60
   1  -3  12    0.04    1.36
   1  -3  12    1.43    1.25
   2  -3  12   -0.82    1.30
   2  -3  12    0.00    1.22
   3  -3  12   29.22    2.40
   4  -3  12   36.28    2.58
   5  -3  12   -2.12    1.22
   6  -3  12   19.36    2.15
   7  -3  12   19.40    2.12
   8  -3  12   -1.52    1.38
   9  -3  12   12.86    2.09
  10  -3  12   11.23    2.04
 -13   3 -12   24.56    2.64
  11   2 -12    3.71    1.90
 -11  -2  12   -0.80    1.50
 -11  -2  12    2.13    1.74
  10   2 -12    4.12    1.89
 -10  -2  12    3.78    1.86
 -10  -2  12    5.76    1.75
   9   2 -12    2.00    1.75
  -9  -2  12    1.25    1.58
  -9  -2  12    3.01    1.67
   8   2 -12    0.77    1.60
  -8  -2  12   -0.54    1.30
  -8  -2  12    0.12    1.49
  -7  -2  12    2.03    1.59
  -7  -2  12    3.95    1.67
  -6  -2  12   18.29    2.14
  -6  -2  12   14.69    2.05
  -5  -2  12    3.64    1.40
  -5  -2  12    1.19    1.42
  -4  -2  12    2.52    1.33
  -4  -2  12    0.24    1.44
  -3  -2  12   -0.74    1.22
  -3  -2  12    1.25    1.39
  -2  -2  12   11.53    1.72
  -2  -2  12    9.53    1.65
  -1  -2  12   -0.46    1.24
  -1  -2  12    0.11    1.31
   0  -2  12   14.49    1.96
   0  -2  12   13.15    1.83
   1  -2  12   -0.56    1.33
   1  -2  12   -2.07    1.18
   2  -2  12   13.82    1.83
   3  -2  12    0.13    1.26
   4  -2  12   11.45    1.68
   5  -2  12    5.08    1.58
   6  -2  12    1.08    1.35
   7  -2  12   15.38    2.05
   8  -2  12   -0.11    1.52
   9  -2  12   49.67    3.26
  10  -2  12    8.94    2.01
 -12   2 -12    5.97    1.77
 -13   2 -12    8.71    1.96
 -13   2 -12    8.34    1.94
  12   1 -12    8.94    2.26
 -12  -1  12   16.00    2.32
 -12  -1  12   12.05    2.33
  11   1 -12    2.12    1.83
 -11  -1  12    3.53    1.68
 -11  -1  12    4.09    1.71
  10   1 -12   30.07    2.82
 -10  -1  12   29.43    2.72
 -10  -1  12   28.04    2.72
   9   1 -12    9.15    2.07
  -9  -1  12    5.16    1.68
  -9  -1  12    7.15    1.86
  -8  -1  12    1.26    1.57
  -8  -1  12   -2.68    1.18
  -7  -1  12   13.32    1.99
  -7  -1  12   15.71    2.02
  -6  -1  12   15.60    1.95
  -6  -1  12   14.19    1.90
  -5  -1  12   29.50    2.51
  -5  -1  12   32.04    2.69
  -4  -1  12   18.21    2.03
  -4  -1  12   15.80    1.89
  -3  -1  12   36.54    2.67
  -3  -1  12   37.62    2.64
  -2  -1  12    0.75    1.38
  -2  -1  12    2.34    1.25
  -1  -1  12    0.85    1.31
  -1  -1  12    0.98    1.26
   0  -1  12   10.69    1.76
   0  -1  12   14.85    1.89
   1  -1  12   11.92    1.73
   2  -1  12    1.84    1.37
   3  -1  12   -0.33    1.19
   4  -1  12   25.66    2.38
   5  -1  12   -0.59    1.22
   6  -1  12    0.57    1.41
   7  -1  12    1.48    1.46
   8  -1  12   20.84    2.41
   9  -1  12    2.35    1.71
 -11   1 -12    5.06    1.85
 -12   1 -12    8.16    2.00
 -12   1 -12    6.52    1.95
 -13   1 -12    2.03    1.68
 -13   1 -12   -0.85    1.53
  12   0 -12    4.28    1.99
 -12   0  12    2.92    1.73
 -12   0  12    2.98    1.65
  11   0 -12    1.83    1.80
 -11   0  12    0.78    1.59
 -11   0  12    0.13    1.64
  10   0 -12    7.60    1.91
 -10   0  12   11.47    2.05
 -10   0  12    9.58    1.91
  -9   0  12    7.15    1.69
  -9   0  12    7.72    1.88
  -8   0  12    0.74    1.33
  -8   0  12    1.66    1.41
  -7   0  12   57.88    3.31
  -7   0  12   60.63    3.35
  -6   0  12   15.00    1.95
  -6   0  12   18.20    2.03
  -5   0  12    2.82    1.33
  -5   0  12    5.61    1.57
  -4   0  12   -0.07    1.32
  -4   0  12    1.73    1.43
  -3   0  12   29.56    2.48
  -3   0  12   28.00    2.44
  -2   0  12   15.47    1.95
  -2   0  12   13.59    1.92
  -1   0  12   11.93    1.85
  -1   0  12   11.87    1.89
   0   0  12   72.79    3.54
   1   0  12    9.87    1.75
   2   0  12   12.99    1.89
   3   0  12   34.85    2.65
   4   0  12    1.52    1.43
   5   0  12    3.02    1.52
   6   0  12   19.87    2.24
   7   0  12   59.14    3.53
   8   0  12    1.91    1.55
 -11   0 -12    2.68    1.75
 -12   0 -12    2.55    1.77
 -12   0 -12    2.31    1.71
  13  -1 -12    0.91    1.86
 -13   1  12    1.16    1.60
 -13   1  12   -3.91    1.53
  12  -1 -12   10.31    2.07
 -12   1  12   12.87    2.03
 -12   1  12    7.56    1.91
  11  -1 -12    2.03    1.76
 -11   1  12    1.34    1.54
 -11   1  12    3.93    1.62
 -10   1  12    0.52    1.64
 -10   1  12   -0.08    1.48
  -9   1  12    2.87    1.65
  -9   1  12    4.03    1.57
  -8   1  12   17.25    2.06
  -8   1  12   17.79    2.26
  -7   1  12    2.14    1.47
  -7   1  12    1.04    1.47
  -6   1  12    0.79    1.39
  -6   1  12    1.41    1.38
  -5   1  12    2.41    1.32
  -5   1  12    2.46    1.48
  -4   1  12   30.49    2.49
  -4   1  12   25.29    2.36
  -3   1  12    1.53    1.36
  -3   1  12   -0.46    1.31
  -2   1  12    0.63    1.36
  -2   1  12    0.26    1.20
  -1   1  12   11.03    1.83
  -1   1  12   11.14    1.79
   0   1  12    9.97    1.79
   1   1  12   -1.14    1.30
   2   1  12    0.33    1.37
   3   1  12   37.48    2.78
   4   1  12   18.72    2.11
   5   1  12   29.61    2.65
   6   1  12   14.24    2.07
   7   1  12   14.24    2.13
   8   1  12   -0.57    1.49
 -10  -1 -12   22.83    2.56
 -11  -1 -12    0.61    1.68
 -11  -1 -12    1.77    1.49
 -12  -1 -12   10.66    2.19
 -12  -1 -12   10.11    2.08
  13  -2 -12    8.87    2.10
 -13   2  12   11.21    2.23
 -13   2  12    8.55    1.87
  12  -2 -12    4.00    1.77
 -12   2  12    9.14    1.88
 -12   2  12    8.40    1.91
 -11   2  12    0.49    1.62
 -11   2  12    0.87    1.43
 -10   2  12    9.54    1.78
 -10   2  12    7.18    1.79
  -9   2  12   51.77    3.08
  -9   2  12   44.91    2.94
  -8   2  12    0.48    1.29
  -8   2  12    2.52    1.45
  -7   2  12   11.59    1.95
  -7   2  12   15.50    1.87
  -6   2  12    3.59    1.52
  -6   2  12   -0.53    1.25
  -5   2  12    6.68    1.61
  -5   2  12    5.18    1.46
  -4   2  12    7.01    1.56
  -4   2  12    7.00    1.62
  -3   2  12    0.61    1.35
  -3   2  12   -1.17    1.26
  -2   2  12   11.01    1.76
  -2   2  12   11.93    1.86
  -1   2  12   -0.23    1.23
   0   2  12   10.48    1.72
   1   2  12    1.42    1.40
   2   2  12    8.58    1.81
   3   2  12    1.16    1.46
   4   2  12    2.83    1.58
   5   2  12    3.82    1.57
   6   2  12   16.44    2.33
   7   2  12    4.40    1.85
  -9  -2 -12   -0.59    1.49
 -10  -2 -12    3.74    1.55
 -10  -2 -12    3.37    1.81
 -11  -2 -12    0.10    1.52
 -11  -2 -12    3.73    1.59
  13  -3 -12   28.54    2.96
 -13   3  12   28.62    2.83
 -13   3  12   29.68    2.72
 -12   3  12    1.16    1.46
 -12   3  12    4.93    1.80
 -11   3  12   18.68    2.38
 -11   3  12   16.78    2.12
 -10   3  12   13.72    1.91
 -10   3  12    7.42    1.75
  -9   3  12    9.14    1.76
  -9   3  12    8.09    1.71
  -8   3  12    0.02    1.44
  -8   3  12    2.32    1.43
  -7   3  12   22.05    2.30
  -7   3  12   18.82    2.09
  -6   3  12   20.24    2.26
  -6   3  12   26.05    2.31
  -5   3  12   -1.03    1.25
  -5   3  12    0.79    1.42
  -4   3  12   38.38    2.48
  -4   3  12   30.25    2.64
  -3   3  12   28.24    2.44
  -3   3  12   28.53    2.44
  -2   3  12   -0.35    1.20
  -1   3  12    1.47    1.28
   0   3  12   32.96    2.57
   1   3  12   30.57    2.63
   2   3  12    5.88    1.57
   3   3  12   27.57    2.55
   4   3  12    4.61    1.66
   5   3  12   -0.52    1.47
   6   3  12   11.29    2.14
   7   3  12   10.70    2.21
  -8  -3 -12    6.20    1.88
  -9  -3 -12    0.30    1.52
  -9  -3 -12   -0.84    1.51
 -10  -3 -12   15.85    2.36
 -10  -3 -12   10.96    1.91
  14  -4 -12    4.60    2.08
 -14   4  12    2.55    1.57
 -14   4  12    4.35    1.80
 -13   4  12    3.25    1.66
 -13   4  12    1.74    1.45
 -12   4  12    2.07    1.70
 -12   4  12    1.91    1.46
 -11   4  12    1.09    1.40
 -11   4  12    0.72    1.42
 -10   4  12   12.66    1.88
 -10   4  12   12.99    2.08
  -9   4  12    6.33    1.54
  -9   4  12    3.74    1.54
  -8   4  12   13.44    2.00
  -8   4  12   13.52    1.85
  -7   4  12    2.49    1.45
  -7   4  12    3.57    1.39
  -6   4  12    2.07    1.45
  -6   4  12    1.89    1.33
  -5   4  12   19.27    2.08
  -5   4  12   21.53    2.28
  -4   4  12    1.60    1.21
  -4   4  12   -0.14    1.37
  -3   4  12   30.62    2.40
  -3   4  12   27.86    2.56
  -2   4  12    7.29    1.71
  -1   4  12   35.45    2.56
   0   4  12    0.83    1.30
   1   4  12   -0.16    1.46
   2   4  12    0.59    1.48
   3   4  12   13.12    1.96
   4   4  12   12.39    2.16
   5   4  12   14.57    2.26
   6   4  12   69.73    3.96
  -7  -4 -12   14.24    2.09
  -7  -4 -12   18.12    2.23
  -8  -4 -12    4.47    1.76
  -8  -4 -12    2.24    1.58
  -9  -4 -12    5.46    1.58
  -9  -4 -12    0.94    1.62
 -10  -4 -12   11.19    2.16
 -10  -4 -12   11.21    2.08
 -14   5  12   -1.68    1.28
 -14   5  12    4.09    1.85
 -13   5  12   12.07    1.94
 -13   5  12    9.08    2.09
 -12   5  12    1.91    1.44
 -12   5  12   -1.54    1.54
 -11   5  12   -0.36    1.34
 -11   5  12    0.19    1.27
 -10   5  12   12.38    1.95
 -10   5  12   17.32    2.03
  -9   5  12   14.85    2.12
  -9   5  12   13.76    1.82
  -8   5  12   -1.51    1.22
  -8   5  12    1.72    1.35
  -7   5  12    3.52    1.40
  -7   5  12    2.84    1.42
  -6   5  12   28.74    2.37
  -6   5  12   23.55    2.32
  -5   5  12    0.71    1.27
  -5   5  12    1.00    1.33
  -4   5  12    1.91    1.38
  -4   5  12    2.40    1.36
  -3   5  12    6.15    1.65
  -2   5  12    0.27    1.26
  -1   5  12   20.22    2.27
   0   5  12    3.12    1.48
   1   5  12    2.53    1.45
   2   5  12   12.33    2.05
   3   5  12    0.35    1.58
   4   5  12    2.41    1.73
   5   5  12   13.70    2.32
  -6  -5 -12    4.63    1.70
  -6  -5 -12    3.76    1.63
   6   5  12    3.84    1.92
  -7  -5 -12    3.13    1.67
  -7  -5 -12    3.04    1.54
  -8  -5 -12    4.98    1.80
  -8  -5 -12    5.72    1.74
  -9  -5 -12   18.58    2.46
  -9  -5 -12   21.70    2.49
 -14   6  12    1.76    1.46
 -14   6  12    1.63    1.65
 -13   6  12    5.42    1.92
 -13   6  12    3.79    1.45
 -12   6  12    0.54    1.39
 -12   6  12   -0.53    1.41
 -11   6  12    3.05    1.48
 -11   6  12    2.54    1.51
 -10   6  12   73.37    3.47
 -10   6  12   70.43    3.70
  -9   6  12    9.95    1.77
  -9   6  12   13.41    2.07
  -8   6  12   15.40    2.11
  -8   6  12   17.73    1.95
  -7   6  12   12.00    1.91
  -7   6  12   14.73    1.80
  -6   6  12   19.44    2.15
  -6   6  12   15.75    1.89
  -5   6  12    1.63    1.46
  -5   6  12    1.31    1.28
  -4   6  12    0.10    1.26
  -4   6  12   -1.00    1.34
  -3   6  12   24.76    2.38
  -2   6  12    1.26    1.34
  -1   6  12   27.54    2.48
   0   6  12   14.05    2.02
   1   6  12    2.88    1.62
   2   6  12    1.61    1.60
   3   6  12   10.60    1.97
   4   6  12   10.97    2.17
  -5  -6 -12    2.53    1.50
   5   6  12    1.38    1.81
  -6  -6 -12    0.84    1.45
  -6  -6 -12    0.39    1.45
  -7  -6 -12    0.84    1.56
  -7  -6 -12   -0.31    1.38
  -8  -6 -12    0.89    1.47
  -8  -6 -12    1.82    1.56
 -14   7  12    3.43    1.45
 -14   7  12    1.48    1.80
 -13   7  12    2.59    1.71
 -13   7  12   -1.10    1.27
 -12   7  12    5.72    1.86
 -12   7  12    6.11    1.57
 -11   7  12   21.08    2.44
 -11   7  12   19.95    2.02
 -10   7  12    8.11    1.64
 -10   7  12    6.80    1.86
  -9   7  12    1.87    1.31
  -9   7  12    3.38    1.54
  -8   7  12   20.15    1.99
  -8   7  12   13.16    2.08
  -7   7  12   60.18    3.41
  -7   7  12   56.90    2.99
  -6   7  12    1.64    1.28
  -6   7  12    2.31    1.50
  -5   7  12   11.44    1.73
  -5   7  12   12.91    1.91
  -4   7  12   21.08    2.32
  -3   7  12    2.67    1.55
  -2   7  12    3.93    1.64
  -1   7  12    8.23    1.89
   0   7  12   63.16    3.59
   1   7  12   17.82    2.28
   2   7  12   47.56    3.10
   3   7  12    8.87    1.95
  -4  -7 -12    1.18    1.45
  -4  -7 -12    3.17    1.48
   4   7  12    0.87    1.57
  -5  -7 -12   -0.78    1.33
  -5  -7 -12    1.18    1.50
   5   7  12    2.01    1.89
  -6  -7 -12    3.00    1.59
  -6  -7 -12    3.55    1.65
  -7  -7 -12    0.74    1.53
  -7  -7 -12   -1.16    1.41
 -14   8  12   -0.07    1.50
 -13   8  12    5.80    1.88
 -12   8  12    2.81    1.28
 -12   8  12    5.02    1.76
 -11   8  12   10.81    1.63
 -11   8  12   10.77    2.08
 -10   8  12    0.06    1.51
 -10   8  12    0.88    1.25
  -9   8  12   -0.68    1.46
  -9   8  12    0.37    1.16
  -8   8  12    1.01    1.38
  -8   8  12    0.94    1.25
  -7   8  12   16.46    1.87
  -7   8  12   13.25    2.13
  -6   8  12    0.42    1.31
  -6   8  12   -0.49    1.28
  -5   8  12   -3.01    1.20
  -5   8  12   -0.23    1.40
  -4   8  12   10.18    1.89
  -3   8  12    0.41    1.49
  -2   8  12   17.86    2.17
  -1   8  12   17.19    2.34
   0   8  12    1.73    1.47
   1   8  12    3.66    1.58
  -2  -8 -12    8.57    1.75
   2   8  12   12.52    2.05
  -3  -8 -12   14.48    2.00
  -3  -8 -12   12.64    1.87
   3   8  12   14.02    2.40
  -4  -8 -12    1.42    1.40
  -4  -8 -12    2.86    1.50
   4   8  12   -1.23    1.57
  -5  -8 -12    8.01    1.90
  -5  -8 -12    6.18    1.71
   5   8  12   12.50    2.26
  -6  -8 -12    0.50    1.40
  -6  -8 -12   -0.20    1.45
 -14   9  12   18.61    2.57
 -13   9  12    2.36    1.61
 -12   9  12   -0.58    1.32
 -11   9  12    4.12    1.59
 -11   9  12    3.96    1.38
 -10   9  12    5.79    1.76
 -10   9  12    6.08    1.45
  -9   9  12    5.81    1.40
  -9   9  12    4.86    1.70
  -8   9  12   -0.64    1.44
  -8   9  12    2.67    1.29
  -7   9  12   52.82    2.91
  -7   9  12   44.79    3.15
  -6   9  12    7.50    1.62
  -6   9  12   11.45    1.90
  -5   9  12    1.22    1.55
  -5   9  12    3.37    1.36
  -4   9  12   11.49    2.00
  -3   9  12   10.52    2.00
  -2   9  12    1.91    1.55
  -1   9  12    2.36    1.61
   0   9  12    5.02    1.68
  -1  -9 -12    0.34    1.20
   1   9  12    3.49    1.77
  -2  -9 -12   -3.95    1.25
  -2  -9 -12   -0.28    1.27
   2   9  12   -1.44    1.42
  -3  -9 -12    2.38    1.43
  -3  -9 -12    3.72    1.53
   3   9  12    4.20    1.78
  -4  -9 -12    2.46    1.51
  -4  -9 -12    5.00    1.57
   4   9  12    3.67    1.94
  -5  -9 -12   -0.46    1.40
  -5  -9 -12    1.73    1.53
   5   9  12    2.55    1.97
 -14  10  12   11.38    2.21
 -13  10  12   18.53    2.43
 -12  10  12    4.30    1.78
 -11  10  12   29.70    2.81
 -10  10  12    6.85    1.85
  -9  10  12   -0.77    1.34
  -9  10  12    0.22    1.13
  -8  10  12    7.61    1.86
  -8  10  12    8.71    1.54
  -7  10  12    6.60    1.82
  -7  10  12   12.20    1.63
  -6  10  12   10.25    1.60
  -6  10  12   11.89    2.01
  -5  10  12   16.49    2.28
  -4  10  12   65.74    3.56
  -3  10  12    6.08    1.86
  -2  10  12   -1.28    1.40
   1 -10 -12    4.74    1.43
  -1  10  12    7.56    1.83
   0 -10 -12    8.86    1.65
   0  10  12    9.21    2.08
  -1 -10 -12    1.33    1.36
  -1 -10 -12    0.93    1.39
   1  10  12    2.32    1.78
  -2 -10 -12    6.64    1.66
  -2 -10 -12    4.29    1.53
   2  10  12    7.48    2.13
  -3 -10 -12   23.92    2.36
  -3 -10 -12   21.62    2.22
   3  10  12   26.60    2.91
  -4 -10 -12    2.02    1.55
  -4 -10 -12    4.08    1.69
   4  10  12    5.37    2.02
 -13  11  12    2.27    1.70
 -12  11  12    0.29    1.57
 -11  11  12    3.32    1.57
 -10  11  12    4.28    1.75
  -9  11  12   -1.09    1.53
  -8  11  12   15.37    2.23
  -7  11  12   -1.68    1.12
  -7  11  12    4.25    1.75
  -6  11  12   -0.51    1.50
  -6  11  12    0.64    1.25
  -5  11  12    1.86    1.61
  -4  11  12   16.72    2.33
  -3  11  12    8.98    1.98
   2 -11 -12    1.98    1.29
  -2  11  12    2.60    1.75
   1 -11 -12   29.89    2.30
  -1  11  12   32.64    2.99
   0 -11 -12    4.15    1.42
   0 -11 -12    4.03    1.50
   0  11  12    5.37    1.90
  -1 -11 -12    8.29    1.67
  -1 -11 -12    9.84    1.76
   1  11  12    9.34    2.17
  -2 -11 -12   11.74    1.90
  -2 -11 -12   11.08    1.77
   2  11  12   14.15    2.50
 -13  12  12   14.63    2.29
 -12  12  12    2.00    1.71
 -11  12  12   11.05    2.08
 -10  12  12    8.03    1.87
  -9  12  12    2.86    1.71
  -8  12  12    1.84    1.64
  -7  12  12   -0.97    1.51
  -6  12  12   -0.64    1.37
  -5  12  12    2.31    1.68
  -4  12  12   -0.94    1.52
  -3  12  12    1.79    1.67
  -2  12  12    5.40    1.91
  -1  12  12    2.17    1.77
   0  12  12    1.21    1.79
   1  12  12    2.45    1.85
 -12  13  12    2.19    1.64
 -11  13  12   14.61    2.25
 -10  13  12   27.18    2.71
  -9  13  12    2.70    1.71
  -8  13  12   14.85    2.25
  -7  13  12    2.01    1.72
  -6  13  12    0.46    1.60
  -5  13  12    3.55    1.75
  -4  13  12    3.08    1.78
  -3  13  12   12.14    2.14
  -2  13  12    2.61    1.79
  -1  13  12   14.45    2.36
 -10  14  12    5.17    1.79
  -9  14  12    1.56    1.62
  -8  14  12    1.96    1.67
  -7  14  12    3.44    1.79
  -6  14  12    2.38    1.69
  -5  14  12   24.09    2.67
  -4  14  12   11.53    2.15
   2 -12  13    0.37    1.71
   3 -12  13   -1.57    1.57
   4 -12  13    1.75    1.67
   5 -12  13    1.41    1.55
   6 -12  13    0.05    1.60
   7 -12  13    0.18    1.58
   8 -12  13    0.51    1.63
   9 -12  13   -0.35    1.65
  10 -12  13    4.91    1.89
   0 -11  13    1.70    1.73
   1 -11  13    0.25    1.62
   2 -11  13   -0.32    1.57
   3 -11  13    1.20    1.71
   4 -11  13    1.82    1.53
   5 -11  13    2.95    1.61
   6 -11  13    2.82    1.66
   7 -11  13    2.47    1.71
   8 -11  13    2.75    1.74
   9 -11  13    1.87    1.70
  10 -11  13   -1.50    1.56
  11 -11  13    0.33    1.62
   2  10 -13   10.46    1.88
  -2 -10  13    5.44    1.94
  -2 -10  13    7.27    1.70
   1  10 -13    1.68    1.55
  -1 -10  13    2.30    1.48
  -1 -10  13    0.98    1.58
   0  10 -13    1.85    1.43
   0 -10  13    2.78    1.75
   0 -10  13    1.80    1.41
   1 -10  13    1.49    1.75
   1 -10  13    4.24    1.49
   2 -10  13   -0.04    1.49
   2 -10  13    1.47    1.33
   3 -10  13    7.75    1.58
   3 -10  13    5.99    1.89
   4 -10  13   -0.53    1.52
   4 -10  13   -1.17    1.16
   5 -10  13    0.39    1.54
   5 -10  13    0.77    1.25
   6 -10  13    2.09    1.63
   7 -10  13    7.74    2.01
   8 -10  13    1.28    1.49
   9 -10  13    1.20    1.52
   3   9 -13    1.25    1.53
  -3  -9  13    4.97    1.92
  -3  -9  13    2.31    1.50
   2   9 -13    3.26    1.56
  -2  -9  13   -0.45    1.62
  -2  -9  13    0.50    1.46
   1   9 -13    1.91    1.50
  -1  -9  13    0.86    1.67
  -1  -9  13    2.59    1.52
   0   9 -13    1.51    1.45
   0  -9  13    0.60    1.30
   0  -9  13   -0.15    1.39
  -1   9 -13    2.04    1.41
   1  -9  13   -0.73    1.18
   1  -9  13   -0.16    1.60
  -2   9 -13    3.45    1.38
   2  -9  13    3.00    1.37
   2  -9  13    0.47    1.56
   3  -9  13    5.42    1.51
   3  -9  13    6.94    1.87
   4  -9  13    3.17    1.64
   4  -9  13    1.86    1.31
   5  -9  13   -1.52    1.44
   5  -9  13    0.64    1.26
   6  -9  13    0.33    1.60
   6  -9  13    2.09    1.36
   7  -9  13    0.98    1.29
   7  -9  13    3.90    1.75
   8  -9  13    1.99    1.37
   8  -9  13    2.05    1.70
   9  -9  13    1.47    1.38
  10  -9  13    5.41    1.58
   4   8 -13    0.19    1.54
  -4  -8  13   -0.55    1.59
  -4  -8  13   -1.16    1.65
   3   8 -13    1.35    1.55
  -3  -8  13    0.34    1.38
  -3  -8  13   -0.14    1.45
   2   8 -13    0.59    1.54
  -2  -8  13   -0.50    1.45
  -2  -8  13   -0.72    1.33
   1   8 -13    3.22    1.49
  -1  -8  13    0.19    1.32
  -1  -8  13    3.18    1.73
   0   8 -13    3.01    1.57
   0  -8  13    3.87    1.41
   0  -8  13    3.05    1.76
  -1   8 -13    0.67    1.40
   1  -8  13    4.95    1.52
   1  -8  13   -0.46    1.56
  -2   8 -13    6.43    1.51
   2  -8  13    2.76    1.35
   2  -8  13    3.43    1.73
   3  -8  13    1.03    1.40
   3  -8  13   -0.77    1.17
   4  -8  13    2.70    1.40
   4  -8  13    3.17    1.66
   5  -8  13    2.32    1.39
   5  -8  13   -0.35    1.37
   6  -8  13    6.62    1.85
   6  -8  13    4.91    1.49
   7  -8  13    1.98    1.27
   7  -8  13   -0.91    1.33
   8  -8  13    3.90    1.50
   9  -8  13    0.89    1.39
  10  -8  13   -1.16    1.34
  11  -8  13    0.92    1.55
  12  -8  13   -0.91    1.53
   5   7 -13    1.87    1.65
  -5  -7  13    0.55    1.54
  -5  -7  13    0.86    1.56
   4   7 -13    2.17    1.66
  -4  -7  13    4.58    1.75
  -4  -7  13    1.83    1.58
   3   7 -13    8.93    2.02
  -3  -7  13    6.14    1.70
  -3  -7  13    2.42    1.60
   2   7 -13    2.48    1.68
  -2  -7  13    3.63    1.54
  -2  -7  13    4.12    1.66
   1   7 -13   -0.75    1.40
  -1  -7  13   -0.33    1.40
  -1  -7  13   -0.05    1.33
   0   7 -13    1.99    1.36
   0  -7  13    0.49    1.58
   0  -7  13    1.24    1.35
   1  -7  13   14.54    2.18
   1  -7  13   15.88    1.93
   2  -7  13   -1.56    1.22
   2  -7  13   -2.48    1.44
   3  -7  13   -0.46    1.20
   3  -7  13   -0.03    1.52
   4  -7  13    3.32    1.36
   4  -7  13    2.00    1.53
   5  -7  13    0.33    1.54
   5  -7  13    1.79    1.39
   6  -7  13    1.99    1.47
   6  -7  13    5.16    1.75
   7  -7  13    1.76    1.31
   8  -7  13    4.30    1.47
   9  -7  13    0.61    1.44
  10  -7  13    7.12    1.84
  11  -7  13    3.25    1.54
  12  -7  13    1.74    1.64
   6   6 -13   -0.72    1.61
  -6  -6  13    0.02    1.65
  -6  -6  13   -0.05    1.73
   5   6 -13    2.19    1.73
  -5  -6  13    0.30    1.64
  -5  -6  13    0.84    1.50
   4   6 -13    0.16    1.55
  -4  -6  13   -1.03    1.38
  -4  -6  13    2.37    1.64
   3   6 -13    1.10    1.50
  -3  -6  13    2.69    1.55
  -3  -6  13    4.04    1.71
   2   6 -13    5.71    1.65
  -2  -6  13    4.03    1.58
  -2  -6  13    4.34    1.65
  -1  -6  13    3.74    1.50
  -1  -6  13    6.64    1.83
   0  -6  13    6.05    1.66
   0  -6  13    6.90    1.62
   1  -6  13    2.79    1.66
   1  -6  13    3.44    1.49
   2  -6  13    1.56    1.30
   2  -6  13    0.82    1.55
   3  -6  13    2.52    1.34
   3  -6  13    2.92    1.72
   4  -6  13    2.45    1.39
   4  -6  13    1.57    1.60
   5  -6  13   -0.96    1.26
   5  -6  13    2.57    1.60
   6  -6  13    6.23    1.67
   7  -6  13   17.16    2.10
   8  -6  13    3.02    1.55
   9  -6  13    5.80    1.78
  10  -6  13    1.61    1.60
  11  -6  13    1.36    1.55
  12  -6  13   -1.06    1.46
   7   5 -13   -1.89    1.57
  -7  -5  13    3.45    1.71
  -7  -5  13    3.53    1.75
   6   5 -13    1.80    1.71
  -6  -5  13    1.28    1.53
  -6  -5  13    3.40    1.68
   5   5 -13    2.72    1.69
  -5  -5  13    0.24    1.67
  -5  -5  13   -0.42    1.46
   4   5 -13    0.39    1.54
  -4  -5  13    0.66    1.56
  -4  -5  13    0.64    1.42
  -3  -5  13   -1.01    1.38
  -3  -5  13    1.74    1.59
  -2  -5  13   -0.38    1.34
  -2  -5  13    0.35    1.35
  -1  -5  13   -0.61    1.46
  -1  -5  13    0.47    1.37
   0  -5  13    2.23    1.40
   0  -5  13    1.80    1.55
   1  -5  13   -1.56    1.19
   1  -5  13    1.25    1.40
   2  -5  13   -1.46    1.19
   2  -5  13   -3.86    1.28
   3  -5  13    1.46    1.56
   3  -5  13    1.85    1.33
   4  -5  13    0.05    1.28
   4  -5  13    2.10    1.54
   5  -5  13    2.35    1.43
   6  -5  13    1.28    1.50
   7  -5  13   -0.18    1.34
   8  -5  13    3.61    1.63
   9  -5  13    1.53    1.59
  10  -5  13    1.80    1.51
  11  -5  13   -0.78    1.50
  12  -5  13   -0.02    1.66
   8   4 -13    2.70    1.93
  -8  -4  13    1.48    1.64
  -8  -4  13    0.87    1.53
   7   4 -13    0.94    1.59
  -7  -4  13    2.06    1.59
  -7  -4  13    4.00    1.80
   6   4 -13    1.12    1.64
  -6  -4  13    3.07    1.64
  -6  -4  13    0.73    1.65
   5   4 -13    3.69    1.72
  -5  -4  13    3.07    1.56
  -5  -4  13    4.35    1.74
  -4  -4  13    4.08    1.55
  -4  -4  13    2.01    1.52
  -3  -4  13    2.08    1.52
  -3  -4  13    3.68    1.56
  -2  -4  13    3.45    1.38
  -2  -4  13    5.19    1.55
  -1  -4  13   -1.48    1.24
  -1  -4  13    2.03    1.41
   0  -4  13    7.76    1.78
   0  -4  13   10.03    1.72
   1  -4  13    1.36    1.53
   1  -4  13   -1.31    1.25
   2  -4  13    1.71    1.40
   2  -4  13   -1.36    1.25
   3  -4  13    1.21    1.40
   3  -4  13    2.01    1.42
   4  -4  13    7.24    1.67
   5  -4  13    1.70    1.48
   6  -4  13    1.56    1.38
   7  -4  13    3.02    1.58
   8  -4  13    1.59    1.56
   9  -4  13    0.21    1.45
  10  -4  13    1.88    1.57
  11  -4  13    3.56    1.82
  12  -4  13    1.56    1.81
   9   3 -13   -1.17    1.70
  -9  -3  13    3.78    1.86
  -9  -3  13   -0.16    1.67
   8   3 -13    0.16    1.65
  -8  -3  13    1.15    1.66
  -8  -3  13   -0.48    1.44
   7   3 -13    3.80    1.72
  -7  -3  13    8.47    1.94
  -7  -3  13    5.96    1.88
  -6  -3  13    6.43    1.68
  -6  -3  13    6.68    1.85
  -5  -3  13    2.16    1.54
  -5  -3  13    0.01    1.49
  -4  -3  13    1.65    1.47
  -4  -3  13    1.67    1.57
  -3  -3  13   -0.02    1.47
  -3  -3  13    0.90    1.26
  -2  -3  13   -0.04    1.32
  -2  -3  13   -0.06    1.34
  -1  -3  13   -0.64    1.27
  -1  -3  13   -0.05    1.29
   0  -3  13    6.25    1.63
   0  -3  13    4.06    1.50
   1  -3  13    1.47    1.26
   1  -3  13    7.05    1.62
   2  -3  13    6.82    1.65
   2  -3  13    5.79    1.77
   3  -3  13    4.43    1.55
   4  -3  13    1.30    1.43
   5  -3  13    0.57    1.37
   6  -3  13   -0.17    1.46
   7  -3  13    0.95    1.52
   8  -3  13   -1.86    1.36
   9  -3  13    3.36    1.69
  10  -3  13    5.84    1.93
  11  -3  13   -0.77    1.69
  12  -3  13    0.13    1.94
  10   2 -13    3.25    1.92
 -10  -2  13    3.93    1.88
 -10  -2  13    2.63    1.77
   9   2 -13    0.04    1.76
  -9  -2  13    2.55    1.56
  -9  -2  13    0.00    1.61
   8   2 -13    5.27    1.92
  -8  -2  13    3.70    1.77
  -8  -2  13   -1.10    1.49
  -7  -2  13    2.81    1.66
  -7  -2  13    0.43    1.57
  -6  -2  13    1.22    1.46
  -6  -2  13    6.72    1.78
  -5  -2  13    1.28    1.48
  -5  -2  13   -1.81    1.37
  -4  -2  13   -1.09    1.48
  -4  -2  13    0.74    1.43
  -3  -2  13    2.10    1.41
  -3  -2  13    1.23    1.45
  -2  -2  13    1.97    1.54
  -2  -2  13   -1.00    1.35
  -1  -2  13    8.94    1.76
  -1  -2  13   10.61    1.82
   0  -2  13   -0.45    1.24
   0  -2  13    0.00    1.24
   1  -2  13    0.69    1.34
   1  -2  13   -1.06    1.30
   2  -2  13   -0.96    1.31
   3  -2  13    3.13    1.53
   4  -2  13    0.84    1.46
   5  -2  13   -0.49    1.43
   6  -2  13    7.58    1.81
   7  -2  13    1.09    1.51
   8  -2  13    6.97    1.84
   9  -2  13    2.85    1.78
  10  -2  13    0.42    1.54
  11  -2  13   -0.50    1.73
 -12   2 -13    4.83    1.93
  12  -2  13    5.72    2.13
  10   1 -13   -0.01    1.77
 -10  -1  13   -0.79    1.60
 -10  -1  13   -0.36    1.61
   9   1 -13    6.33    2.06
  -9  -1  13    5.45    1.90
  -9  -1  13    4.02    1.79
  -8  -1  13   -0.30    1.54
  -8  -1  13    0.77    1.58
  -7  -1  13    1.94    1.47
  -7  -1  13    0.75    1.53
  -6  -1  13   17.87    2.27
  -6  -1  13   16.92    2.12
  -5  -1  13    3.41    1.62
  -5  -1  13    2.33    1.47
  -4  -1  13   -0.79    1.39
  -4  -1  13    0.74    1.37
  -3  -1  13   -0.48    1.39
  -3  -1  13    0.77    1.32
  -2  -1  13    2.05    1.51
  -2  -1  13    5.38    1.62
  -1  -1  13    1.30    1.47
  -1  -1  13    1.42    1.34
   0  -1  13    0.95    1.35
   0  -1  13   -0.66    1.19
   1  -1  13   -1.02    1.23
   1  -1  13   -1.62    1.36
   2  -1  13    0.44    1.40
   3  -1  13    8.00    1.75
   4  -1  13    1.80    1.35
   5  -1  13    3.42    1.64
   6  -1  13    0.61    1.39
   7  -1  13    6.30    1.87
   8  -1  13    1.77    1.68
   9  -1  13   -0.86    1.66
  10  -1  13   -1.32    1.69
  11  -1  13    2.84    1.77
  11   0 -13    1.00    1.85
 -11   0  13    1.25    1.77
 -11   0  13   -0.07    1.57
  10   0 -13    1.45    1.88
 -10   0  13    5.85    1.92
 -10   0  13    6.20    1.99
  -9   0  13    0.78    1.52
  -9   0  13   -0.73    1.59
  -8   0  13    1.92    1.44
  -8   0  13    2.77    1.65
  -7   0  13    2.79    1.64
  -7   0  13    1.54    1.39
  -6   0  13    4.90    1.60
  -6   0  13   10.60    1.94
  -5   0  13    0.80    1.35
  -5   0  13    6.62    1.72
  -4   0  13    6.72    1.75
  -4   0  13   10.64    1.83
  -3   0  13    6.60    1.70
  -3   0  13    7.40    1.71
  -2   0  13   -0.06    1.40
  -2   0  13    0.65    1.41
  -1   0  13   -1.04    1.41
  -1   0  13    1.46    1.32
   0   0  13   -1.46    1.31
   0   0  13    0.45    1.37
   1   0  13   -0.51    1.36
   2   0  13   -0.94    1.36
   3   0  13    6.23    1.60
   4   0  13    8.84    1.92
   5   0  13    5.33    1.77
   6   0  13    8.14    1.88
   7   0  13    4.12    1.78
   8   0  13    3.65    1.70
   9   0  13   -0.01    1.74
  10   0  13    3.16    1.98
 -11   0 -13   -2.80    1.38
  11  -1 -13    1.57    1.88
 -11   1  13   -1.44    1.51
 -11   1  13   -1.11    1.50
 -10   1  13    1.76    1.60
 -10   1  13    1.74    1.66
  -9   1  13    0.87    1.45
  -9   1  13    2.88    1.77
  -8   1  13    0.42    1.54
  -8   1  13    0.19    1.49
  -7   1  13    5.34    1.62
  -7   1  13    6.31    1.81
  -6   1  13    0.79    1.53
  -6   1  13    2.04    1.57
  -5   1  13    3.46    1.59
  -5   1  13    0.85    1.34
  -4   1  13    0.41    1.42
  -4   1  13   -0.31    1.42
  -3   1  13    6.45    1.61
  -3   1  13    7.90    1.68
  -2   1  13    1.87    1.46
  -2   1  13    1.01    1.30
  -1   1  13    1.36    1.47
  -1   1  13   -0.04    1.40
   0   1  13   -1.12    1.21
   1   1  13   -1.77    1.16
   2   1  13    3.37    1.59
   3   1  13    1.58    1.55
   4   1  13    1.72    1.55
   5   1  13    2.90    1.64
   6   1  13   18.05    2.36
   7   1  13    2.43    1.81
   8   1  13   -0.23    1.54
   9   1  13    3.37    1.95
 -10  -1 -13   -1.19    1.62
  10   1  13   -0.86    1.65
  12  -2 -13    6.84    2.19
 -12   2  13    6.01    1.80
 -12   2  13    5.21    1.85
 -11   2  13    2.59    1.65
 -11   2  13    0.18    1.59
 -10   2  13   -0.22    1.50
 -10   2  13    0.70    1.51
  -9   2  13    4.08    1.67
  -9   2  13    1.15    1.65
  -8   2  13    6.85    1.80
  -8   2  13    8.92    1.90
  -7   2  13   -0.24    1.41
  -7   2  13   -1.16    1.30
  -6   2  13    5.06    1.71
  -6   2  13    5.56    1.66
  -5   2  13   -1.13    1.20
  -5   2  13    0.34    1.43
  -4   2  13    1.38    1.36
  -4   2  13    1.67    1.41
  -3   2  13    1.01    1.34
  -3   2  13    4.68    1.62
  -2   2  13   -0.76    1.40
  -2   2  13   -2.17    1.35
  -1   2  13   -0.20    1.31
  -1   2  13    2.34    1.40
   0   2  13    1.97    1.55
   1   2  13    6.38    1.78
   2   2  13   -1.22    1.46
   3   2  13   -1.11    1.31
   4   2  13    0.44    1.41
   5   2  13   -0.25    1.58
   6   2  13    4.26    1.71
   7   2  13    1.97    1.84
   8   2  13    2.19    1.76
  -9  -2 -13    2.11    1.61
   9   2  13    0.74    1.88
 -10  -2 -13   -2.20    1.55
 -10  -2 -13    0.34    1.39
 -12   3  13    0.96    1.78
 -12   3  13   -0.04    1.52
 -11   3  13   -0.15    1.53
 -11   3  13    2.31    1.75
 -10   3  13    4.00    1.63
 -10   3  13    7.19    1.90
  -9   3  13    3.06    1.68
  -9   3  13   -0.66    1.37
  -8   3  13    0.10    1.41
  -8   3  13   -0.78    1.45
  -7   3  13    4.57    1.64
  -7   3  13    0.51    1.47
  -6   3  13    2.70    1.60
  -6   3  13    0.29    1.44
  -5   3  13   -0.60    1.44
  -5   3  13    0.91    1.43
  -4   3  13    1.80    1.39
  -4   3  13   -1.49    1.32
  -3   3  13    6.64    1.74
  -3   3  13    5.36    1.62
  -2   3  13    7.64    1.62
  -2   3  13    7.08    1.78
  -1   3  13    3.64    1.64
   0   3  13    5.86    1.65
   1   3  13   -0.14    1.29
   2   3  13    1.28    1.61
   3   3  13    3.40    1.69
   4   3  13   -0.90    1.55
   5   3  13    1.10    1.52
   6   3  13    4.19    1.96
   7   3  13    4.46    2.02
  -8  -3 -13    0.07    1.60
   8   3  13    2.25    1.97
  -9  -3 -13    2.74    1.77
  -9  -3 -13    0.46    1.50
 -12   4  13    0.42    1.41
 -12   4  13   -0.99    1.65
 -11   4  13    2.45    1.55
 -11   4  13    5.09    1.89
 -10   4  13   -0.19    1.58
 -10   4  13    0.10    1.44
  -9   4  13   -1.03    1.34
  -9   4  13    0.86    1.48
  -8   4  13    1.67    1.58
  -8   4  13    2.81    1.65
  -7   4  13   -0.50    1.35
  -7   4  13    1.95    1.44
  -6   4  13    1.32    1.44
  -6   4  13   -1.08    1.27
  -5   4  13    0.98    1.39
  -5   4  13   -0.90    1.24
  -4   4  13    7.67    1.80
  -4   4  13    8.08    1.79
  -3   4  13    2.42    1.48
  -3   4  13   -0.36    1.47
  -2   4  13    0.15    1.48
  -1   4  13    2.11    1.46
   0   4  13    8.42    1.76
   1   4  13    0.77    1.43
   2   4  13    1.69    1.52
   3   4  13    0.97    1.50
   4   4  13    2.66    1.60
   5   4  13    1.60    1.81
   6   4  13    0.56    1.64
   7   4  13    2.59    1.79
  -8  -4 -13    1.24    1.64
  -8  -4 -13    2.27    1.60
   8   4  13   -0.88    1.84
 -12   5  13   -0.61    1.70
 -12   5  13    3.44    1.51
 -11   5  13    0.45    1.40
 -11   5  13    0.82    1.66
 -10   5  13    0.26    1.37
 -10   5  13    1.00    1.64
  -9   5  13    3.53    1.60
  -9   5  13    1.73    1.47
  -8   5  13    1.48    1.51
  -8   5  13    0.86    1.38
  -7   5  13   -1.42    1.28
  -7   5  13    0.12    1.39
  -6   5  13    3.00    1.53
  -6   5  13    2.54    1.43
  -5   5  13    2.74    1.55
  -5   5  13    4.39    1.57
  -4   5  13   -0.42    1.37
  -4   5  13    0.99    1.37
  -3   5  13    1.52    1.41
  -3   5  13    0.27    1.37
  -2   5  13   -0.01    1.46
  -1   5  13   -0.18    1.34
   0   5  13    3.78    1.71
   1   5  13    0.48    1.53
   2   5  13    0.60    1.48
   3   5  13    2.84    1.59
   4   5  13   -1.54    1.61
   5   5  13    0.77    1.86
  -6  -5 -13    1.40    1.52
   6   5  13    1.99    1.75
  -7  -5 -13   -1.97    1.33
  -7  -5 -13    1.31    1.59
   7   5  13    5.66    2.12
 -12   6  13   -1.03    1.29
 -12   6  13    1.17    1.57
 -11   6  13    4.78    1.82
 -11   6  13    2.95    1.57
 -10   6  13    0.33    1.42
 -10   6  13    2.43    1.37
  -9   6  13    4.95    1.79
  -9   6  13    4.69    1.62
  -8   6  13    4.55    1.54
  -8   6  13    8.01    1.92
  -7   6  13   14.97    2.02
  -7   6  13   16.56    2.28
  -6   6  13   10.07    1.99
  -6   6  13    6.92    1.66
  -5   6  13    0.47    1.45
  -5   6  13   -0.21    1.50
  -4   6  13    5.31    1.72
  -4   6  13    7.19    1.68
  -3   6  13    1.54    1.44
  -2   6  13   -0.33    1.44
  -1   6  13    2.61    1.50
   0   6  13    4.58    1.76
   1   6  13    6.80    1.90
   2   6  13    8.69    1.87
   3   6  13    2.48    1.77
   4   6  13    0.33    1.58
  -5  -6 -13    2.91    1.56
   5   6  13    0.88    1.87
  -6  -6 -13    0.42    1.50
  -6  -6 -13    0.23    1.43
   6   6  13    0.56    1.87
 -12   7  13   -0.58    1.30
 -12   7  13    1.00    1.58
 -11   7  13    2.03    1.73
 -11   7  13    3.33    1.53
 -10   7  13    4.58    1.73
 -10   7  13    6.99    1.68
  -9   7  13    2.13    1.52
  -9   7  13    0.87    1.40
  -8   7  13    4.84    1.47
  -8   7  13    1.96    1.63
  -7   7  13    2.11    1.39
  -7   7  13   -0.85    1.48
  -6   7  13    4.94    1.83
  -6   7  13    7.52    1.66
  -5   7  13   -2.34    1.38
  -5   7  13    0.83    1.33
  -4   7  13    1.57    1.43
  -4   7  13   -0.58    1.31
  -3   7  13    3.41    1.67
  -2   7  13   -0.19    1.52
  -1   7  13   14.20    2.18
   0   7  13   -0.42    1.46
   1   7  13    1.26    1.68
   2   7  13    3.66    1.78
   3   7  13    4.89    1.92
  -4  -7 -13    1.51    1.49
   4   7  13    2.82    1.94
  -5  -7 -13    1.93    1.58
  -5  -7 -13    1.44    1.69
   5   7  13   -0.12    1.88
 -12   8  13    2.32    1.77
 -11   8  13    0.55    1.63
 -11   8  13   -2.43    1.24
 -10   8  13    1.45    1.48
 -10   8  13    0.64    1.26
  -9   8  13    1.65    1.64
  -9   8  13   -0.50    1.29
  -8   8  13   -0.30    1.25
  -8   8  13    1.03    1.59
  -7   8  13    2.33    1.41
  -7   8  13   -0.45    1.47
  -6   8  13    4.90    1.68
  -6   8  13    5.55    1.52
  -5   8  13    0.33    1.55
  -5   8  13    2.81    1.46
  -4   8  13    0.20    1.42
  -3   8  13    1.73    1.48
  -2   8  13    4.71    1.83
  -1   8  13    2.81    1.73
   0   8  13    1.29    1.73
   1   8  13    1.39    1.79
  -2  -8 -13    0.70    1.36
   2   8  13    0.15    1.53
  -3  -8 -13    1.54    1.40
   3   8  13    0.75    1.65
  -4  -8 -13   -0.45    1.51
  -4  -8 -13    0.49    1.42
   4   8  13    1.16    1.91
 -12   9  13    1.69    1.52
 -11   9  13   -2.03    1.55
 -10   9  13    4.02    1.79
 -10   9  13    2.09    1.33
  -9   9  13   -0.81    1.38
  -9   9  13   -1.67    1.10
  -8   9  13    0.48    1.28
  -8   9  13    0.87    1.64
  -7   9  13   -0.35    1.28
  -7   9  13    1.42    1.65
  -6   9  13   -0.52    1.55
  -6   9  13   -0.34    1.25
  -5   9  13   -1.35    1.23
  -5   9  13    0.22    1.41
  -4   9  13    2.11    1.66
  -3   9  13    2.83    1.63
  -2   9  13    1.44    1.64
  -1   9  13   -0.34    1.45
   0   9  13    1.21    1.71
  -1  -9 -13   -0.33    1.34
   1   9  13    0.04    1.48
  -2  -9 -13   -1.51    1.33
  -2  -9 -13   -0.62    1.24
   2   9  13    1.64    1.80
  -3  -9 -13   -1.53    1.27
  -3  -9 -13    1.91    1.50
   3   9  13    4.48    1.83
 -12  10  13    2.46    1.67
 -11  10  13   -0.72    1.68
 -10  10  13    3.07    1.62
  -9  10  13   -0.02    1.58
  -8  10  13   -0.35    1.22
  -8  10  13   -0.95    1.58
  -7  10  13    3.71    1.79
  -7  10  13    6.82    1.59
  -6  10  13   -0.96    1.27
  -6  10  13    0.17    1.47
  -5  10  13    3.23    1.63
  -5  10  13    1.64    1.41
  -4  10  13    0.67    1.45
  -3  10  13    9.65    2.11
  -2  10  13    0.41    1.64
   1 -10 -13    3.94    1.47
  -1  10  13    4.01    1.94
   0 -10 -13    1.96    1.40
   0  10  13    5.28    1.98
  -1 -10 -13   -0.26    1.41
  -1 -10 -13    0.79    1.25
   1  10  13   -0.60    1.54
  -2 -10 -13    2.71    1.60
  -2 -10 -13    6.16    1.64
   2  10  13    4.45    1.89
 -11  11  13    2.30    1.71
 -10  11  13    1.69    1.70
  -9  11  13   -1.90    1.39
  -8  11  13    3.32    1.78
  -7  11  13    4.12    1.81
  -6  11  13    2.32    1.69
  -5  11  13    2.55    1.70
  -4  11  13    2.76    1.62
  -3  11  13    2.36    1.74
  -2  11  13   -1.76    1.60
  -1  11  13    1.66    1.69
   0  11  13   -0.02    1.76
 -10  12  13    6.88    1.96
  -9  12  13    2.89    1.78
  -8  12  13    0.50    1.64
  -7  12  13    2.55    1.62
  -6  12  13    1.65    1.69
  -5  12  13   -2.00    1.54
  -4  12  13   -2.53    1.59
  -3  12  13    0.24    1.70
  -2  12  13    2.97    1.85
   2 -10  14   -1.22    1.48
   3 -10  14   -1.03    1.68
   4 -10  14   -0.14    1.70
   5 -10  14    0.80    1.52
   6 -10  14    1.16    1.71
   7 -10  14    2.31    1.87
   8 -10  14    1.95    1.78
   0  -9  14    3.25    1.57
   0  -9  14    2.80    1.80
   1  -9  14    0.54    1.74
   1  -9  14    0.46    1.32
   2  -9  14    1.33    1.76
   2  -9  14    1.07    1.45
   3  -9  14   -1.05    1.34
   3  -9  14   -1.43    1.61
   4  -9  14   -0.01    1.34
   4  -9  14   -0.88    1.66
   5  -9  14    2.04    1.58
   5  -9  14    2.81    1.36
   6  -9  14    1.66    1.77
   6  -9  14    2.32    1.51
   7  -9  14    1.49    1.80
   7  -9  14    2.57    1.50
   8  -9  14    1.37    1.76
   9  -9  14    5.03    1.96
   2   8 -14    2.27    1.68
  -2  -8  14   -1.19    1.48
  -2  -8  14    2.64    1.68
   1   8 -14    0.32    1.46
  -1  -8  14   -1.94    1.42
  -1  -8  14   -1.14    1.58
   0   8 -14    2.36    1.60
   0  -8  14    5.14    1.97
   0  -8  14    2.13    1.46
  -1   8 -14    0.80    1.40
   1  -8  14   -1.24    1.37
   1  -8  14    1.69    1.62
   2  -8  14    3.87    1.60
   2  -8  14    3.54    1.82
   3  -8  14   -0.29    1.38
   3  -8  14    1.75    1.75
   4  -8  14    7.21    1.67
   4  -8  14    7.18    1.97
   5  -8  14    2.15    1.57
   5  -8  14    1.88    1.48
   6  -8  14    2.56    1.44
   6  -8  14    3.33    1.81
   7  -8  14   -1.74    1.38
   7  -8  14   -0.45    1.67
   8  -8  14    1.43    1.48
   8  -8  14    5.00    1.88
   9  -8  14    0.54    1.43
  10  -8  14   -2.24    1.39
   3   7 -14    0.17    1.56
  -3  -7  14    0.45    1.49
  -3  -7  14   -2.35    1.43
   2   7 -14    1.67    1.58
  -2  -7  14    3.13    1.81
  -2  -7  14    2.64    1.57
   1   7 -14   -1.59    1.48
  -1  -7  14    2.87    1.62
  -1  -7  14    0.03    1.49
   0   7 -14    2.59    1.59
   0  -7  14    3.77    1.59
   0  -7  14    6.20    1.93
   1  -7  14    6.20    1.92
   1  -7  14    7.47    1.75
   2  -7  14    0.97    1.41
   2  -7  14    1.27    1.65
   3  -7  14    1.27    1.39
   3  -7  14    0.43    1.45
   4  -7  14    3.23    1.59
   4  -7  14    6.29    1.82
   5  -7  14   14.84    2.07
   5  -7  14   14.89    2.29
   6  -7  14    1.50    1.59
   6  -7  14    2.76    1.62
   7  -7  14    6.67    1.92
   7  -7  14    3.14    1.54
   8  -7  14    2.19    1.46
   9  -7  14    1.39    1.46
  10  -7  14    0.36    1.44
   4   6 -14   -2.89    1.49
  -4  -6  14    1.66    1.74
  -4  -6  14    2.67    1.67
   3   6 -14    1.57    1.66
  -3  -6  14    2.54    1.76
  -3  -6  14    2.51    1.61
   2   6 -14    3.14    1.71
  -2  -6  14    3.37    1.75
  -2  -6  14    4.07    1.75
  -1  -6  14    4.43    1.60
  -1  -6  14    2.97    1.69
   0  -6  14    2.87    1.67
   0  -6  14    1.85    1.50
   1  -6  14   -0.50    1.56
   1  -6  14   -0.02    1.40
   2  -6  14   -0.78    1.41
   2  -6  14   -0.01    1.37
   3  -6  14   -0.63    1.59
   3  -6  14   -0.63    1.36
   4  -6  14   -0.60    1.37
   4  -6  14    3.28    1.75
   5  -6  14    6.35    1.79
   5  -6  14    3.98    1.60
   6  -6  14    0.97    1.55
   6  -6  14    0.54    1.69
   7  -6  14    5.62    1.67
   8  -6  14    2.33    1.64
   9  -6  14    1.20    1.53
  10  -6  14    0.58    1.71
   5   5 -14    1.14    1.84
  -5  -5  14    1.18    1.66
  -5  -5  14   -0.34    1.66
   4   5 -14   -0.60    1.63
  -4  -5  14    0.75    1.59
  -4  -5  14    0.43    1.65
  -3  -5  14    0.09    1.67
  -3  -5  14    4.18    1.69
  -2  -5  14   16.61    2.37
  -2  -5  14   11.76    1.96
  -1  -5  14    1.50    1.61
  -1  -5  14    3.19    1.59
   0  -5  14   -0.83    1.38
   0  -5  14   -0.83    1.47
   1  -5  14    2.48    1.50
   1  -5  14    1.52    1.66
   2  -5  14   -1.56    1.32
   2  -5  14    2.80    1.65
   3  -5  14   -0.26    1.48
   3  -5  14   -0.95    1.34
   4  -5  14   -1.57    1.36
   4  -5  14    0.69    1.65
   5  -5  14    0.91    1.63
   5  -5  14    0.93    1.47
   6  -5  14    0.73    1.44
   7  -5  14   -0.73    1.39
   8  -5  14    2.30    1.63
   9  -5  14    1.22    1.62
  10  -5  14    0.07    1.61
   6   4 -14    1.83    1.80
  -6  -4  14    1.68    1.52
  -6  -4  14    1.07    1.79
   5   4 -14    0.22    1.72
  -5  -4  14   -0.44    1.39
  -5  -4  14   -0.48    1.64
  -4  -4  14    3.42    1.84
  -4  -4  14    7.85    1.90
  -3  -4  14    3.00    1.66
  -3  -4  14    6.26    1.76
  -2  -4  14    0.60    1.44
  -2  -4  14    0.40    1.52
  -1  -4  14    0.81    1.65
  -1  -4  14   -0.65    1.41
   0  -4  14    0.71    1.58
   0  -4  14    0.73    1.41
   1  -4  14    3.18    1.55
   1  -4  14    3.09    1.69
   2  -4  14   -2.72    1.16
   2  -4  14    1.58    1.47
   3  -4  14   -1.00    1.34
   3  -4  14   -0.55    1.55
   4  -4  14   -0.88    1.38
   4  -4  14    1.63    1.61
   5  -4  14    1.90    1.54
   6  -4  14    0.20    1.51
   7  -4  14    1.26    1.65
   8  -4  14    6.73    1.89
   9  -4  14   -0.75    1.65
  10  -4  14    2.16    1.70
   7   3 -14    2.17    1.68
  -7  -3  14   -0.94    1.61
  -7  -3  14    2.45    1.75
  -6  -3  14   -2.17    1.56
  -6  -3  14   -0.96    1.57
  -5  -3  14    2.17    1.58
  -5  -3  14    3.76    1.69
  -4  -3  14   -0.15    1.41
  -4  -3  14    1.13    1.66
  -3  -3  14    1.31    1.53
  -3  -3  14    1.10    1.54
  -2  -3  14    0.15    1.45
  -2  -3  14    1.18    1.67
  -1  -3  14    2.70    1.54
  -1  -3  14    0.78    1.33
   0  -3  14   -1.24    1.31
   0  -3  14   -0.27    1.28
   1  -3  14    2.06    1.64
   1  -3  14    4.16    1.63
   2  -3  14   -3.06    1.31
   2  -3  14    1.17    1.48
   3  -3  14    0.60    1.46
   3  -3  14    0.24    1.50
   4  -3  14    3.40    1.62
   5  -3  14    0.30    1.49
   6  -3  14    1.01    1.52
   7  -3  14    5.18    1.85
   8  -3  14    3.39    1.76
   9  -3  14    1.21    1.65
  10  -3  14    2.39    1.82
   8   2 -14    0.23    1.93
  -8  -2  14    1.52    1.74
  -8  -2  14    0.59    1.70
  -7  -2  14    0.83    1.50
  -7  -2  14   -1.81    1.53
  -6  -2  14    2.93    1.78
  -6  -2  14    5.47    1.69
  -5  -2  14    1.45    1.62
  -5  -2  14    0.62    1.62
  -4  -2  14    2.89    1.68
  -4  -2  14   -0.29    1.48
  -3  -2  14    1.46    1.57
  -3  -2  14    0.14    1.41
  -2  -2  14    0.95    1.49
  -2  -2  14    0.64    1.55
  -1  -2  14    0.93    1.55
  -1  -2  14    0.01    1.46
   0  -2  14   -1.08    1.48
   0  -2  14    0.27    1.42
   1  -2  14    0.65    1.54
   1  -2  14    2.76    1.50
   2  -2  14   -0.17    1.55
   2  -2  14    3.51    1.58
   3  -2  14    2.62    1.55
   4  -2  14   -1.06    1.39
   5  -2  14    0.06    1.47
   6  -2  14    2.20    1.65
   7  -2  14   16.36    2.34
   8  -2  14    3.54    1.80
   9  -2  14    4.25    1.88
  10  -2  14   -0.07    1.75
  -8  -1  14   -3.58    1.46
  -8  -1  14   -0.56    1.65
  -7  -1  14    2.90    1.61
  -7  -1  14    0.50    1.63
  -6  -1  14    7.99    1.83
  -6  -1  14    5.07    1.85
  -5  -1  14   -0.63    1.35
  -5  -1  14    1.29    1.50
  -4  -1  14    1.88    1.63
  -4  -1  14    0.18    1.40
  -3  -1  14    1.39    1.55
  -3  -1  14    4.06    1.59
  -2  -1  14    1.42    1.60
  -2  -1  14    3.08    1.52
  -1  -1  14    4.78    1.75
  -1  -1  14    0.51    1.52
   0  -1  14    5.20    1.63
   0  -1  14    4.44    1.71
   1  -1  14    6.33    1.77
   1  -1  14    4.38    1.71
   2  -1  14    2.95    1.65
   3  -1  14    0.42    1.51
   4  -1  14   -0.77    1.35
   5  -1  14   -0.65    1.48
   6  -1  14    3.77    1.77
   7  -1  14    2.41    1.74
   8  -1  14    0.38    1.60
   9  -1  14    0.54    1.74
  -9   0  14    5.79    1.94
  -9   0  14    4.21    1.75
  -8   0  14    2.22    1.62
  -8   0  14    1.23    1.69
  -7   0  14    5.18    1.83
  -7   0  14    4.13    1.82
  -6   0  14    0.22    1.42
  -6   0  14    1.46    1.68
  -5   0  14    0.57    1.60
  -5   0  14    0.18    1.39
  -4   0  14    0.18    1.48
  -4   0  14   -1.47    1.52
  -3   0  14   -1.44    1.46
  -3   0  14    1.74    1.60
  -2   0  14    2.17    1.62
  -2   0  14    2.46    1.57
  -1   0  14    8.39    1.90
  -1   0  14    7.57    1.84
   0   0  14   40.10    2.90
   0   0  14   51.25    3.21
   1   0  14    9.44    1.95
   2   0  14   -0.58    1.50
   3   0  14   -1.77    1.50
   4   0  14   -1.31    1.53
   5   0  14   -0.13    1.61
   6   0  14    0.18    1.68
   7   0  14    0.57    1.70
   8   0  14    4.41    1.91
   9   0  14    1.86    1.93
  -9   1  14    1.78    1.74
  -9   1  14    1.27    1.76
  -8   1  14    0.16    1.65
  -8   1  14   -0.55    1.39
  -7   1  14    0.72    1.63
  -7   1  14    3.02    1.76
  -6   1  14    2.86    1.61
  -6   1  14    4.32    1.76
  -5   1  14    3.93    1.74
  -5   1  14    2.25    1.59
  -4   1  14    1.70    1.60
  -4   1  14    0.85    1.54
  -3   1  14    1.68    1.47
  -3   1  14   -2.38    1.41
  -2   1  14    4.37    1.75
  -2   1  14    1.81    1.62
  -1   1  14    7.85    1.88
  -1   1  14    5.06    1.64
   0   1  14    7.93    1.93
   0   1  14    8.80    1.91
   1   1  14    0.95    1.60
   2   1  14   -0.62    1.56
   3   1  14    4.22    1.78
   4   1  14    0.18    1.69
   5   1  14    1.43    1.69
   6   1  14    3.91    1.70
   7   1  14    2.69    1.71
   8   1  14    2.28    1.95
 -10   2  14    0.86    1.84
 -10   2  14    0.37    1.55
  -9   2  14    3.62    1.79
  -9   2  14    2.57    1.83
  -8   2  14    2.89    1.74
  -8   2  14    4.92    1.76
  -7   2  14   12.14    2.05
  -7   2  14   12.84    2.20
  -6   2  14   -3.49    1.42
  -6   2  14    0.59    1.59
  -5   2  14   -1.58    1.49
  -5   2  14   -1.17    1.44
  -4   2  14   -0.72    1.28
  -4   2  14   -1.40    1.51
  -3   2  14    2.25    1.52
  -3   2  14    1.44    1.66
  -2   2  14    0.56    1.47
  -2   2  14    2.65    1.64
  -1   2  14    3.77    1.67
  -1   2  14    4.47    1.72
   0   2  14    0.07    1.55
   1   2  14   -0.32    1.56
   2   2  14   -2.29    1.35
   3   2  14   -0.62    1.59
   4   2  14   -0.61    1.47
   5   2  14    3.07    1.80
   6   2  14    3.61    1.75
   7   2  14    1.36    1.82
   8   2  14   -1.90    1.79
 -10   3  14    0.46    1.74
 -10   3  14    3.31    1.71
  -9   3  14    1.08    1.70
  -9   3  14    0.93    1.54
  -8   3  14    1.83    1.63
  -8   3  14    0.58    1.57
  -7   3  14    2.87    1.66
  -7   3  14    5.97    1.91
  -6   3  14    2.77    1.54
  -6   3  14    3.57    1.60
  -5   3  14    1.47    1.53
  -5   3  14    1.20    1.58
  -4   3  14    1.55    1.43
  -4   3  14    2.99    1.54
  -3   3  14   -2.10    1.43
  -3   3  14    1.34    1.57
  -2   3  14   -0.05    1.52
  -2   3  14   -1.36    1.49
  -1   3  14    0.76    1.62
   0   3  14   -0.77    1.54
   1   3  14   -2.49    1.31
   2   3  14   -0.61    1.41
   3   3  14    2.18    1.84
   4   3  14    1.35    1.80
   5   3  14    5.59    1.95
   6   3  14    0.05    1.74
   7   3  14   -0.35    1.89
 -10   4  14    0.64    1.51
 -10   4  14   -0.18    1.53
  -9   4  14    2.86    1.54
  -9   4  14    1.34    1.56
  -8   4  14    4.97    1.88
  -8   4  14    6.63    1.86
  -7   4  14   -2.27    1.53
  -7   4  14   -0.86    1.45
  -6   4  14   -1.32    1.47
  -6   4  14    2.37    1.57
  -5   4  14    1.02    1.53
  -5   4  14    2.81    1.72
  -4   4  14   -1.40    1.43
  -4   4  14   -0.60    1.38
  -3   4  14   -1.01    1.42
  -3   4  14    0.40    1.44
  -2   4  14   -2.17    1.40
  -2   4  14   -0.37    1.53
  -1   4  14    1.29    1.48
   0   4  14   -0.45    1.56
   1   4  14   -1.11    1.54
   2   4  14   -2.43    1.36
   3   4  14    4.83    1.95
   4   4  14    5.77    2.06
   5   4  14    2.92    1.92
   6   4  14    4.02    1.78
 -10   5  14    1.72    1.50
 -10   5  14   -2.35    1.62
  -9   5  14   -0.77    1.49
  -9   5  14    0.49    1.68
  -8   5  14    1.35    1.51
  -8   5  14    3.67    1.66
  -7   5  14    0.83    1.64
  -7   5  14   -1.46    1.38
  -6   5  14    0.69    1.44
  -6   5  14    0.39    1.67
  -5   5  14    1.22    1.51
  -5   5  14   -0.55    1.39
  -4   5  14   -0.07    1.43
  -4   5  14   -2.48    1.43
  -3   5  14    0.82    1.51
  -3   5  14    3.45    1.76
  -2   5  14   -0.25    1.40
  -1   5  14    3.22    1.71
   0   5  14    1.90    1.74
   1   5  14    0.14    1.75
   2   5  14    9.69    2.23
   3   5  14   -1.08    1.76
   4   5  14   -1.04    1.72
   5   5  14   -2.03    1.50
 -10   6  14    5.95    1.68
 -10   6  14    0.36    1.59
  -9   6  14   -0.94    1.41
  -9   6  14   -1.74    1.45
  -8   6  14    5.41    1.75
  -8   6  14    2.56    1.78
  -7   6  14    4.59    1.84
  -7   6  14    4.63    1.67
  -6   6  14    2.43    1.51
  -6   6  14    0.97    1.52
  -5   6  14    4.65    1.76
  -5   6  14    5.31    1.63
  -4   6  14    0.20    1.49
  -4   6  14    1.09    1.47
  -3   6  14    2.16    1.54
  -3   6  14    0.46    1.55
  -2   6  14   -0.34    1.53
  -1   6  14   -0.59    1.51
   0   6  14    2.53    1.75
   1   6  14    1.57    1.59
   2   6  14    1.46    1.82
   3   6  14    2.09    1.75
   4   6  14   -1.96    1.67
 -10   7  14    0.36    1.70
 -10   7  14   -1.90    1.20
  -9   7  14    0.86    1.48
  -9   7  14    1.10    1.56
  -8   7  14    1.05    1.49
  -8   7  14   -1.79    1.38
  -7   7  14    4.03    1.56
  -7   7  14    3.07    1.81
  -6   7  14   -0.53    1.61
  -6   7  14    3.42    1.63
  -5   7  14   15.07    2.10
  -5   7  14   10.70    2.15
  -4   7  14    4.66    1.84
  -4   7  14    2.65    1.66
  -3   7  14   -1.20    1.38
  -2   7  14    2.31    1.77
  -1   7  14    6.69    1.85
   0   7  14    4.23    1.90
   1   7  14   -0.78    1.77
   2   7  14    5.47    1.86
   3   7  14    0.86    1.65
 -10   8  14   -1.01    1.67
 -10   8  14   -1.00    1.35
  -9   8  14    0.66    1.69
  -9   8  14   -0.01    1.31
  -8   8  14    0.01    1.69
  -8   8  14    4.95    1.62
  -7   8  14    3.23    1.79
  -7   8  14   -0.23    1.31
  -6   8  14    2.92    1.78
  -6   8  14    1.67    1.44
  -5   8  14    2.69    1.64
  -5   8  14    2.35    1.73
  -4   8  14    5.62    1.68
  -4   8  14    4.77    1.75
  -3   8  14    3.41    1.80
  -2   8  14    2.73    1.81
  -1   8  14    1.27    1.59
   0   8  14    2.75    1.71
   1   8  14    0.33    1.81
   2   8  14   -0.12    1.74
  -9   9  14    1.13    1.81
  -8   9  14    0.67    1.50
  -8   9  14   -0.51    1.69
  -7   9  14    2.72    1.54
  -7   9  14    2.08    1.80
  -6   9  14    3.38    1.69
  -6   9  14    3.01    1.59
  -5   9  14   -0.52    1.61
  -5   9  14   -0.03    1.45
  -4   9  14    0.02    1.45
  -4   9  14    1.19    1.49
  -3   9  14   -1.50    1.58
  -2   9  14   -1.93    1.58
  -1   9  14   -0.39    1.52
   0   9  14    3.15    1.80
  -8  10  14    2.24    1.74
  -7  10  14   -1.13    1.63
  -6  10  14   -1.63    1.25
  -6  10  14   -0.23    1.63
  -5  10  14    0.88    1.36
  -5  10  14    1.86    1.79
  -4  10  14    0.36    1.75
  -3  10  14   -0.38    1.73
  -2  10  14   -0.74    1.68
   1  -7  15   16.55    2.54
   1  -7  15   13.59    2.14
   2  -7  15    4.14    1.77
   2  -7  15   10.00    2.21
   3  -7  15    9.79    2.15
   3  -7  15    8.45    1.87
   4  -7  15   23.09    2.42
   4  -7  15   22.05    2.78
   5  -7  15    0.62    1.78
   5  -7  15   -0.32    1.50
   6  -7  15   -0.41    1.51
   6  -7  15   -0.06    1.78
  -1  -6  15    0.02    1.53
  -1  -6  15   -1.09    1.45
   0  -6  15   10.06    2.05
   0  -6  15    9.46    2.16
   1  -6  15   -0.23    1.43
   1  -6  15    0.24    1.76
   2  -6  15   -1.87    1.66
   2  -6  15    0.31    1.52
   3  -6  15   -1.81    1.43
   3  -6  15   -0.03    1.49
   4  -6  15   21.96    2.40
   4  -6  15   19.60    2.61
   5  -6  15    5.01    1.75
   5  -6  15    4.32    1.98
   6  -6  15    9.60    2.01
   6  -6  15    7.29    2.14
   7  -6  15   10.08    2.10
  -2  -5  15    0.73    1.62
  -2  -5  15   -1.53    1.70
  -1  -5  15    4.38    1.74
  -1  -5  15    4.90    1.86
   0  -5  15    0.01    1.48
   0  -5  15   -1.34    1.64
   1  -5  15    1.01    1.69
   1  -5  15    0.20    1.54
   2  -5  15    1.17    1.54
   2  -5  15    1.59    1.73
   3  -5  15    0.78    1.69
   3  -5  15    0.08    1.59
   4  -5  15    1.78    1.64
   4  -5  15    3.97    1.80
   5  -5  15   -0.05    1.54
   5  -5  15   -1.00    1.50
   6  -5  15   -0.54    1.51
   7  -5  15   10.06    1.96
  -3  -4  15   21.94    2.53
  -3  -4  15   17.13    2.41
  -2  -4  15   22.88    2.51
  -2  -4  15   19.32    2.57
  -1  -4  15    5.51    1.76
  -1  -4  15    5.23    1.97
   0  -4  15   10.84    2.04
   0  -4  15    3.79    1.73
   1  -4  15   -0.32    1.46
   1  -4  15   -0.82    1.51
   2  -4  15   -0.05    1.62
   2  -4  15   -0.35    1.55
   3  -4  15    0.96    1.54
   3  -4  15   -0.52    1.54
   4  -4  15   10.55    2.19
   4  -4  15    7.84    1.92
   5  -4  15    4.02    1.72
   6  -4  15   -0.64    1.49
   7  -4  15    9.86    2.06
  -4  -3  15    8.80    2.10
  -4  -3  15    9.76    2.09
  -3  -3  15   -1.18    1.65
  -3  -3  15    0.37    1.59
  -2  -3  15    3.21    1.74
  -2  -3  15    2.82    1.79
  -1  -3  15    2.23    1.78
  -1  -3  15   -0.80    1.54
   0  -3  15   12.64    2.19
   0  -3  15    9.12    1.99
   1  -3  15    3.76    1.72
   1  -3  15    4.27    1.92
   2  -3  15    2.38    1.70
   2  -3  15    2.97    1.79
   3  -3  15   16.23    2.26
   3  -3  15   16.64    2.31
   4  -3  15   -0.94    1.53
   5  -3  15   -1.25    1.53
   6  -3  15    0.84    1.71
   7  -3  15   18.97    2.44
  -5  -2  15    6.16    1.90
  -5  -2  15    7.30    1.98
  -4  -2  15   -1.26    1.60
  -4  -2  15    0.50    1.66
  -3  -2  15    1.03    1.76
  -3  -2  15   -0.62    1.51
  -2  -2  15   -0.68    1.51
  -2  -2  15   -1.59    1.62
  -1  -2  15    5.87    1.92
  -1  -2  15    0.67    1.41
   0  -2  15    5.01    1.75
   0  -2  15    2.83    1.69
   1  -2  15   -0.96    1.35
   1  -2  15   -2.26    1.53
   2  -2  15    5.26    1.94
   2  -2  15    5.27    1.83
   3  -2  15    3.46    1.80
   3  -2  15    2.24    1.65
   4  -2  15    0.95    1.65
   5  -2  15   -0.69    1.63
   6  -2  15   17.02    2.44
   7  -2  15    1.08    1.75
  -6  -1  15   12.58    2.29
  -6  -1  15   14.32    2.32
  -5  -1  15    2.76    1.64
  -5  -1  15   -0.36    1.53
  -4  -1  15    2.17    1.81
  -4  -1  15    0.01    1.51
  -3  -1  15   -0.37    1.63
  -3  -1  15    1.46    1.48
  -2  -1  15    3.71    1.68
  -2  -1  15    2.95    1.58
  -1  -1  15    1.10    1.68
  -1  -1  15    1.11    1.52
   0  -1  15   24.81    2.71
   0  -1  15   22.66    2.52
   1  -1  15   28.34    2.77
   1  -1  15   23.31    2.63
   2  -1  15    0.66    1.54
   2  -1  15   -0.53    1.56
   3  -1  15   -1.04    1.57
   4  -1  15    1.03    1.67
   5  -1  15    3.96    1.87
   6  -1  15    4.81    1.88
   7  -1  15    0.05    1.76
  -6   0  15   13.54    2.34
  -6   0  15    8.75    2.09
  -5   0  15   -0.24    1.48
  -5   0  15    0.51    1.71
  -4   0  15   10.02    2.11
  -4   0  15    8.33    2.07
  -3   0  15   13.32    2.13
  -3   0  15   16.06    2.30
  -2   0  15    4.71    1.82
  -2   0  15    3.79    1.81
  -1   0  15   22.12    2.55
  -1   0  15   17.31    2.45
   0   0  15    2.28    1.54
   0   0  15   -0.22    1.57
   1   0  15   24.61    2.62
   1   0  15   24.80    2.76
   2   0  15    4.59    1.68
   3   0  15   16.87    2.27
   4   0  15    8.49    2.08
   5   0  15    0.49    1.76
   6   0  15    8.13    2.19
  -7   1  15    0.52    1.54
  -7   1  15   -1.21    1.42
  -6   1  15    2.85    1.70
  -6   1  15    4.14    1.86
  -5   1  15    3.90    1.82
  -5   1  15    5.98    1.92
  -4   1  15    1.09    1.71
  -4   1  15    0.47    1.65
  -3   1  15    2.15    1.61
  -3   1  15    0.58    1.70
  -2   1  15   -1.26    1.57
  -2   1  15    0.39    1.61
  -1   1  15   21.60    2.58
  -1   1  15   21.98    2.61
   0   1  15   19.47    2.39
   0   1  15   18.52    2.37
   1   1  15    1.44    1.70
   2   1  15    5.47    1.87
   3   1  15    0.63    1.64
   4   1  15    0.46    1.59
   5   1  15    1.95    1.86
   6   1  15   13.29    2.41
  -7   2  15   -0.66    1.64
  -7   2  15    1.38    1.79
  -6   2  15   18.57    2.60
  -6   2  15   20.43    2.52
  -5   2  15    2.79    1.74
  -5   2  15    1.46    1.80
  -4   2  15    0.75    1.68
  -4   2  15    0.84    1.50
  -3   2  15    4.20    1.84
  -3   2  15    4.23    1.79
  -2   2  15    5.04    1.88
  -2   2  15    1.36    1.57
  -1   2  15    0.27    1.68
  -1   2  15   -1.40    1.59
   0   2  15    4.06    1.69
   0   2  15    5.55    1.79
   1   2  15    1.88    1.64
   2   2  15    1.69    1.78
   3   2  15   -1.66    1.61
   4   2  15    0.45    1.78
   5   2  15    6.30    1.92
  -7   3  15   19.82    2.57
  -7   3  15   20.96    2.50
  -6   3  15    1.15    1.57
  -6   3  15   -1.66    1.54
  -5   3  15    2.60    1.79
  -5   3  15   -0.92    1.60
  -4   3  15    3.18    1.82
  -4   3  15   -0.75    1.56
  -3   3  15   12.00    2.17
  -3   3  15   13.51    2.30
  -2   3  15    1.08    1.69
  -2   3  15    0.71    1.72
  -1   3  15    3.46    1.67
  -1   3  15    5.15    1.79
   0   3  15   16.34    2.44
   1   3  15    0.11    1.55
   2   3  15    2.96    1.87
   3   3  15    0.29    1.74
   4   3  15   13.37    2.43
  -7   4  15    9.45    1.99
  -7   4  15   10.39    2.10
  -6   4  15    2.63    1.82
  -6   4  15    1.23    1.61
  -5   4  15    3.85    1.81
  -5   4  15    1.14    1.83
  -4   4  15   11.28    2.10
  -4   4  15   11.48    2.13
  -3   4  15   -0.29    1.66
  -3   4  15    2.88    1.70
  -2   4  15   -1.44    1.37
  -2   4  15   -0.55    1.53
  -1   4  15    0.38    1.53
  -1   4  15   -1.33    1.37
   0   4  15   11.62    2.12
   1   4  15    5.34    2.01
   2   4  15   17.53    2.56
   3   4  15   18.55    2.52
  -7   5  15    3.51    1.71
  -7   5  15    1.33    1.80
  -6   5  15    0.64    1.58
  -6   5  15   -1.19    1.52
  -5   5  15   -2.06    1.44
  -5   5  15   -1.18    1.63
  -4   5  15    5.71    1.87
  -4   5  15    4.01    1.83
  -3   5  15    3.41    1.75
  -3   5  15    1.65    1.85
  -2   5  15   -2.15    1.46
  -2   5  15    0.91    1.72
  -1   5  15    1.78    1.87
   0   5  15   -1.32    1.49
   1   5  15    5.16    1.87
   2   5  15   -0.17    1.72
  -7   6  15   12.10    2.31
  -7   6  15   13.07    2.09
  -6   6  15   13.81    2.13
  -6   6  15   11.35    2.29
  -5   6  15    5.11    1.77
  -5   6  15    4.17    1.90
  -4   6  15   15.76    2.30
  -4   6  15   23.91    2.72
  -3   6  15   -1.00    1.50
  -3   6  15   -0.36    1.63
  -2   6  15    1.08    1.82
  -1   6  15    2.23    1.84
   0   6  15    8.29    2.25
   1   6  15   -0.91    1.73
  -6   7  15   -1.62    1.44
  -6   7  15    2.15    1.60
  -5   7  15   -1.81    1.64
  -5   7  15   -6.25    1.32
  -4   7  15   24.50    2.53
  -4   7  15   19.16    2.61
  -3   7  15   12.55    2.11
  -3   7  15    9.12    2.26
  -2   7  15    5.69    2.04
  -1   7  15   13.26    2.47
   0   0   0    0.00    0.00
;
_shelx_hkl_checksum              83626
loop_
_space_group_symop_operation_xyz
'x, y, z'
'-y, x-y, z'
'-x+y, -x, z'
'-x, -y, z+1/2'
'y, -x+y, z+1/2'
'x-y, x, z+1/2'
loop_
_atom_site_label
_atom_site_type_symbol
_atom_site_fract_x
_atom_site_fract_y
_atom_site_fract_z
_atom_site_U_iso_or_equiv
_atom_site_adp_type
_atom_site_occupancy
_atom_site_site_symmetry_order
_atom_site_calc_flag
_atom_site_refinement_flags_posn
_atom_site_refinement_flags_adp
_atom_site_refinement_flags_occupancy
Cu1 Cu 0.86345(13) 0.44591(13) -1.150(2) 0.0328(7) Uani 1 1 d . . .
Cu2 Cu 0.86440(13) 0.44325(13) -1.409(2) 0.0337(7) Uani 1 1 d . . .
Ca1 Ca 0.666667 0.333333 -1.279(2) 0.0175(6) Uani 1 3 d S T P
N1 N 0.7658(7) 0.3237(7) -1.415(2) 0.020(3) Uani 1 1 d . U .
N2 N 0.7593(7) 0.3239(8) -1.144(2) 0.030(3) Uani 1 1 d . U .
O1 O 0.9796(8) 0.5574(10) -1.132(2) 0.056(5) Uani 1 1 d . U .
O2 O 0.9807(7) 0.5505(7) -1.425(2) 0.033(3) Uani 1 1 d . U .
O3 O 0.9004(10) 0.4084(10) -1.031(3) 0.068(5) Uani 1 1 d D U .
O4 O 0.9054(8) 0.4012(8) -1.519(2) 0.044(3) Uani 1 1 d . U .
O5 O 0.7970(11) 0.5039(13) -1.504(3) 0.081(6) Uani 1 1 d . . .
O6 O 0.7988(8) 0.5073(9) -1.052(2) 0.048(4) Uani 1 1 d . . .
O1HH O 0.8239(4) 0.4652(4) -1.282(2) 0.0304(15) Uani 1 1 d . . .
C1 C 1.0198(12) 0.5422(14) -1.060(3) 0.042(5) Uani 1 1 d . U .
C2 C 1.0221(12) 0.5427(11) -1.501(3) 0.031(4) Uani 1 1 d . U .
C3 C 0.8453(14) 0.3152(14) -1.006(3) 0.059(6) Uani 1 1 d D U .
C4 C 0.7701(11) 0.2803(13) -1.063(3) 0.040(4) Uani 1 1 d . U .
C5 C 0.7645(12) 0.2766(11) -1.481(3) 0.039(4) Uani 1 1 d . U .
C6 C 0.8481(12) 0.3143(12) -1.559(3) 0.063(6) Uani 1 1 d D U .
H6A H 0.832359 0.314674 -1.631133 0.075 Uiso 1 1 calc R U .
C2H C 0.8883(13) 0.2559(12) -1.541(3) 0.102(9) Uani 1 1 d D U .
H2HA H 0.847597 0.198643 -1.565136 0.122 Uiso 1 1 calc R U .
H2HB H 0.939195 0.277402 -1.583543 0.122 Uiso 1 1 calc R U .
O2H' O 0.912(2) 0.249(3) -1.436(3) 0.217(15) Uiso 1 1 d D U .
C2S C 0.755(3) 0.264(3) -0.845(5) 0.237(17) Uiso 1 1 d D U .
H2SA H 0.751255 0.247621 -0.773129 0.285 Uiso 1 1 calc R U .
H2SB H 0.706460 0.220755 -0.883156 0.285 Uiso 1 1 calc R U .
C1S C 0.842(3) 0.284(3) -0.894(3) 0.237(17) Uiso 1 1 d D U .
H1SA H 0.846881 0.232984 -0.893684 0.285 Uiso 1 1 calc R U .
H1SB H 0.888999 0.328368 -0.854360 0.285 Uiso 1 1 calc R U .
C3S C 0.702(8) 0.353(6) -0.744(8) 0.43(8) Uiso 1 1 d D . .
S1 S 0.769(2) 0.373(2) -0.861(4) 0.430(18) Uiso 1 1 d D . .
Hg1 Hg 0.855(2) 0.510(2) -0.721(4) 0.69(2) Uiso 0.3333 1 d D . P
Cl1 Cl 0.932(3) 0.634(3) -0.644(4) 0.244(16) Uiso 0.3333 1 d D . P
Cl2 Cl 0.969(3) 0.580(3) -0.821(4) 0.244(16) Uiso 0.3333 1 d D . P
O1W O 1.026(4) 0.692(2) -0.261(5) 0.34(3) Uani 1 1 d . U .
O2W O 0.824(2) 0.640(2) -0.260(4) 0.214(13) Uiso 1 1 d . . .
S1L S 1.002(5) 0.760(5) -0.470(5) 0.430(18) Uiso 0.3333 1 d D . P
C7L C 0.873(5) 0.819(5) -0.4365(19) 0.35(4) Uiso 0.3333 1 d DG . P
C9L C 0.931(5) 0.793(5) -0.407(2) 0.35(4) Uiso 0.3333 1 d DG . P
C10L C 0.941(6) 0.780(6) -0.303(3) 0.35(4) Uiso 0.3333 1 d DG . P
C11L C 0.894(7) 0.795(7) -0.2287(17) 0.35(4) Uiso 0.3333 1 d G . P
C12L C 0.836(7) 0.821(7) -0.258(3) 0.35(4) Uiso 0.3333 1 d G . P
C8L C 0.826(6) 0.834(7) -0.362(4) 0.35(4) Uiso 0.3333 1 d G . P
C5L C 0.946(6) 0.814(7) -0.7963(18) 0.35(4) Uiso 0.3333 1 d G . P
C6L C 1.002(5) 0.784(6) -0.771(4) 0.35(4) Uiso 0.3333 1 d G . P
C3L C 1.014(5) 0.770(5) -0.669(5) 0.35(4) Uiso 0.3333 1 d G . P
C1L C 0.970(4) 0.786(4) -0.591(3) 0.35(4) Uiso 0.3333 1 d DG . P
C2L C 0.915(4) 0.816(5) -0.6159(16) 0.35(4) Uiso 0.3333 1 d DG . P
C4L C 0.903(5) 0.830(7) -0.719(2) 0.35(4) Uiso 0.3333 1 d G . P
N4' N 0.871(9) 0.838(11) -0.542(3) 0.35(4) Uiso 0.3333 1 d D . P
loop_
_atom_site_aniso_label
_atom_site_aniso_U_11
_atom_site_aniso_U_22
_atom_site_aniso_U_33
_atom_site_aniso_U_23
_atom_site_aniso_U_13
_atom_site_aniso_U_12
Cu1 0.0230(11) 0.0336(12) 0.0344(17) 0.0005(12) -0.0065(12) 0.0085(9)
Cu2 0.0231(10) 0.0329(12) 0.0375(18) -0.0015(12) 0.0105(12) 0.0082(9)
Ca1 0.0155(8) 0.0155(8) 0.0214(15) 0.000 0.000 0.0077(4)
N1 0.015(5) 0.021(6) 0.016(6) 0.003(5) 0.007(5) 0.003(5)
N2 0.016(6) 0.017(6) 0.054(10) 0.009(7) -0.015(7) 0.006(5)
O1 0.028(6) 0.063(8) 0.074(13) 0.008(8) -0.023(7) 0.020(6)
O2 0.031(6) 0.026(5) 0.033(7) -0.004(5) 0.006(5) 0.007(5)
O3 0.043(8) 0.054(8) 0.093(13) 0.009(9) -0.013(8) 0.015(7)
O4 0.031(6) 0.041(6) 0.051(8) 0.001(6) 0.018(6) 0.013(5)
O5 0.066(11) 0.115(15) 0.084(15) 0.056(12) 0.035(10) 0.063(11)
O6 0.023(6) 0.058(8) 0.065(11) -0.026(8) -0.001(6) 0.022(6)
O1HH 0.027(3) 0.036(4) 0.029(4) -0.006(7) -0.010(7) 0.017(3)
C1 0.026(9) 0.057(13) 0.042(14) -0.001(10) -0.009(9) 0.019(9)
C2 0.029(9) 0.024(9) 0.039(12) 0.003(8) 0.004(8) 0.012(7)
C3 0.051(11) 0.055(11) 0.057(13) 0.030(10) -0.005(8) 0.017(9)
C4 0.033(8) 0.048(10) 0.039(10) 0.018(8) 0.007(7) 0.021(7)
C5 0.036(8) 0.025(8) 0.039(10) 0.011(6) 0.025(7) 0.002(6)
C6 0.040(10) 0.039(9) 0.079(16) -0.011(9) 0.042(10) -0.003(7)
C2H 0.063(12) 0.049(11) 0.18(3) -0.016(13) 0.057(15) 0.019(9)
O1W 0.51(8) 0.19(3) 0.27(5) 0.15(4) 0.16(6) 0.13(4)
loop_
_atom_type_symbol
_atom_type_description
_atom_type_scat_dispersion_real
_atom_type_scat_dispersion_imag
_atom_type_scat_source
C C 0.0033 0.0016 'International Tables Vol C Tables 4.2.6.8 and 6.1.1.4'
H H 0.0000 0.0000 'International Tables Vol C Tables 4.2.6.8 and 6.1.1.4'
N N 0.0061 0.0033 'International Tables Vol C Tables 4.2.6.8 and 6.1.1.4'
O O 0.0106 0.0060 'International Tables Vol C Tables 4.2.6.8 and 6.1.1.4'
S S 0.1246 0.1234 'International Tables Vol C Tables 4.2.6.8 and 6.1.1.4'
Ca Ca 0.2262 0.3064 'International Tables Vol C Tables 4.2.6.8 and 6.1.1.4'
Cu Cu 0.3201 1.2651 'International Tables Vol C Tables 4.2.6.8 and 6.1.1.4'
Hg Hg -2.3894 9.2266 'International Tables Vol C Tables 4.2.6.8 and 6.1.1.4'
Cl Cl 0.1484 0.1585 'International Tables Vol C Tables 4.2.6.8 and 6.1.1.4'
loop_
_geom_angle_atom_site_label_1
_geom_angle_atom_site_label_2
_geom_angle_atom_site_label_3
_geom_angle
_geom_angle_site_symmetry_1
_geom_angle_site_symmetry_3
O3 Cu1 O1HH 169.8(6) . .
O3 Cu1 N2 83.3(6) . .
O1HH Cu1 N2 90.4(5) . .
O3 Cu1 O1 83.5(6) . .
O1HH Cu1 O1 102.3(5) . .
N2 Cu1 O1 166.6(6) . .
O3 Cu1 O6 93.9(8) . .
O1HH Cu1 O6 94.6(5) . .
N2 Cu1 O6 94.5(6) . .
O1 Cu1 O6 88.8(6) . .
O3 Cu1 Ca1 127.3(5) . .
O1HH Cu1 Ca1 47.9(2) . .
N2 Cu1 Ca1 44.3(4) . .
O1 Cu1 Ca1 149.1(4) . .
O6 Cu1 Ca1 86.3(3) . .
O1HH Cu2 O4 167.1(6) . .
O1HH Cu2 N1 91.6(5) . .
O4 Cu2 N1 81.8(6) . .
O1HH Cu2 O2 101.9(4) . .
O4 Cu2 O2 83.4(5) . .
N1 Cu2 O2 164.5(5) . .
O1HH Cu2 O5 91.0(6) . .
O4 Cu2 O5 100.7(7) . .
N1 Cu2 O5 95.5(6) . .
O2 Cu2 O5 91.9(6) . .
O1HH Cu2 Ca1 47.5(2) . .
O4 Cu2 Ca1 127.7(4) . .
N1 Cu2 Ca1 46.0(4) . .
O2 Cu2 Ca1 148.8(4) . .
O5 Cu2 Ca1 84.2(4) . .
N2 Ca1 N2 75.4(6) . 3_665
N2 Ca1 N2 75.4(6) . 2_655
N2 Ca1 N2 75.4(6) 3_665 2_655
N2 Ca1 N1 88.1(3) . .
N2 Ca1 N1 138.0(4) 3_665 .
N2 Ca1 N1 137.7(5) 2_655 .
N2 Ca1 N1 137.7(5) . 3_665
N2 Ca1 N1 88.1(3) 3_665 3_665
N2 Ca1 N1 138.0(4) 2_655 3_665
N1 Ca1 N1 78.5(5) . 3_665
N2 Ca1 N1 138.0(4) . 2_655
N2 Ca1 N1 137.7(4) 3_665 2_655
N2 Ca1 N1 88.1(3) 2_655 2_655
N1 Ca1 N1 78.5(5) . 2_655
N1 Ca1 N1 78.5(5) 3_665 2_655
N2 Ca1 O1HH 72.4(4) . 3_665
N2 Ca1 O1HH 67.4(4) 3_665 3_665
N2 Ca1 O1HH 135.5(6) 2_655 3_665
N1 Ca1 O1HH 70.9(4) . 3_665
N1 Ca1 O1HH 65.3(4) 3_665 3_665
N1 Ca1 O1HH 136.1(6) 2_655 3_665
N2 Ca1 O1HH 67.4(4) . .
N2 Ca1 O1HH 135.5(6) 3_665 .
N2 Ca1 O1HH 72.4(4) 2_655 .
N1 Ca1 O1HH 65.3(4) . .
N1 Ca1 O1HH 136.1(6) 3_665 .
N1 Ca1 O1HH 70.9(4) 2_655 .
O1HH Ca1 O1HH 119.99(2) 3_665 .
N2 Ca1 O1HH 135.5(6) . 2_655
N2 Ca1 O1HH 72.4(4) 3_665 2_655
N2 Ca1 O1HH 67.4(4) 2_655 2_655
N1 Ca1 O1HH 136.1(6) . 2_655
N1 Ca1 O1HH 70.9(4) 3_665 2_655
N1 Ca1 O1HH 65.3(4) 2_655 2_655
O1HH Ca1 O1HH 119.99(3) 3_665 2_655
O1HH Ca1 O1HH 119.98(2) . 2_655
N2 Ca1 Cu1 35.2(3) . .
N2 Ca1 Cu1 104.0(5) 3_665 .
N2 Ca1 Cu1 63.8(3) 2_655 .
N1 Ca1 Cu1 80.3(3) . .
N1 Ca1 Cu1 158.0(3) 3_665 .
N1 Ca1 Cu1 102.8(3) 2_655 .
O1HH Ca1 Cu1 102.1(2) 3_665 .
O1HH Ca1 Cu1 33.3(3) . .
O1HH Ca1 Cu1 130.1(3) 2_655 .
N2 Ca1 Cu1 63.8(3) . 3_665
N2 Ca1 Cu1 35.2(3) 3_665 3_665
N2 Ca1 Cu1 104.0(5) 2_655 3_665
N1 Ca1 Cu1 102.8(3) . 3_665
N1 Ca1 Cu1 80.3(3) 3_665 3_665
N1 Ca1 Cu1 158.0(3) 2_655 3_665
O1HH Ca1 Cu1 33.3(3) 3_665 3_665
O1HH Ca1 Cu1 130.1(3) . 3_665
O1HH Ca1 Cu1 102.1(2) 2_655 3_665
Cu1 Ca1 Cu1 99.02(16) . 3_665
N2 Ca1 Cu1 104.0(5) . 2_655
N2 Ca1 Cu1 63.8(3) 3_665 2_655
N2 Ca1 Cu1 35.2(3) 2_655 2_655
N1 Ca1 Cu1 158.0(3) . 2_655
N1 Ca1 Cu1 102.8(3) 3_665 2_655
N1 Ca1 Cu1 80.3(3) 2_655 2_655
O1HH Ca1 Cu1 130.1(3) 3_665 2_655
O1HH Ca1 Cu1 102.1(2) . 2_655
O1HH Ca1 Cu1 33.3(3) 2_655 2_655
Cu1 Ca1 Cu1 99.02(16) . 2_655
Cu1 Ca1 Cu1 99.02(16) 3_665 2_655
C5 N1 Cu2 118.8(11) . .
C5 N1 Ca1 140.2(10) . .
Cu2 N1 Ca1 100.1(5) . .
C4 N2 Cu1 109.0(11) . .
C4 N2 Ca1 150.0(10) . .
Cu1 N2 Ca1 100.5(5) . .
C1 O1 Cu1 106.4(13) . .
C2 O2 Cu2 110.5(10) . .
C2 O3 C3 126.2(17) 4_765 .
C2 O3 Cu1 116.5(14) 4_765 .
C3 O3 Cu1 114.3(13) . .
C1 O4 C6 125.1(16) 4_764 .
C1 O4 Cu2 116.0(13) 4_764 .
C6 O4 Cu2 118.4(11) . .
C5 O5 Cu2 120.4(14) 2_655 .
C4 O6 Cu1 124.8(12) 2_655 .
Cu2 O1HH Cu1 120.5(3) . .
Cu2 O1HH Ca1 99.9(4) . .
Cu1 O1HH Ca1 98.8(5) . .
O4 C1 O1 126.2(19) 4_765 .
O4 C1 C2 111.5(14) 4_765 4_765
O1 C1 C2 121.7(13) . 4_765
O2 C2 O3 130.2(18) . 4_764
O2 C2 C1 118.1(11) . 4_764
O3 C2 C1 111.1(13) 4_764 4_764
C4 C3 O3 110.1(16) . .
C4 C3 C1S 119(2) . .
O3 C3 C1S 119(2) . .
O6 C4 C3 122.9(17) 3_665 .
O6 C4 N2 114.6(16) 3_665 .
C3 C4 N2 122.1(16) . .
N1 C5 O5 129.5(17) . 3_665
N1 C5 C6 117.1(15) . .
O5 C5 C6 113.3(17) 3_665 .
O4 C6 C2H 110.4(17) . .
O4 C6 C5 103.4(15) . .
C2H C6 C5 105.4(16) . .
O2H' C2H C6 117(2) . .
C1S C2S S1 97(2) . .
C1S C2S Hg1 131(2) . 3_665
S1 C2S Hg1 128(2) . 3_665
C2S C1S C3 109(3) . .
C3S C3S C3S 59.997(15) 3_665 2_655
C3S C3S S1 113(6) 3_665 .
C3S C3S S1 124(5) 2_655 .
C3S C3S S1 87(6) 3_665 2_655
C3S C3S S1 46(4) 2_655 2_655
S1 C3S S1 81(4) . 2_655
C3S C3S Hg1 173(6) 3_665 .
C3S C3S Hg1 123(10) 2_655 .
S1 C3S Hg1 71(4) . .
S1 C3S Hg1 100(4) 2_655 .
C2S S1 C3S 89.0(14) . .
C2S S1 C3S 74(4) . 3_665
C3S S1 C3S 22(5) . 3_665
C2S S1 Hg1 125(3) . .
C3S S1 Hg1 70(4) . .
C3S S1 Hg1 91.6(13) 3_665 .
Cl1 Hg1 Cl2 75.4(15) . .
Cl1 Hg1 C2S 119(3) . 2_655
Cl2 Hg1 C2S 101(2) . 2_655
Cl1 Hg1 C3S 151(2) . .
Cl2 Hg1 C3S 133(2) . .
C2S Hg1 C3S 58(3) 2_655 .
Cl1 Hg1 S1 167(2) . .
Cl2 Hg1 S1 94(2) . .
C2S Hg1 S1 54.9(18) 2_655 .
C3S Hg1 S1 38.6(9) . .
C1L S1L C9L 87.0(11) . .
C9L C7L C8L 120.0 . .
C9L C7L N4' 118(2) . .
C8L C7L N4' 121.8(19) . .
C10L C9L C7L 120.0 . .
C10L C9L S1L 102.1(16) . .
C7L C9L S1L 137.8(16) . .
C11L C10L C9L 120.0 . .
C10L C11L C12L 120.0 . .
C10L C11L C6L 117.3(16) . 5_565
C12L C11L C6L 23(4) . 5_565
C10L C11L C3L 146(4) . 5_565
C12L C11L C3L 51(4) . 5_565
C6L C11L C3L 40(4) 5_565 5_565
C6L C12L C5L 83(9) 5_565 5_565
C6L C12L C8L 76(5) 5_565 .
C5L C12L C8L 51.3(18) 5_565 .
C6L C12L C11L 117(10) 5_565 .
C5L C12L C11L 156(8) 5_565 .
C8L C12L C11L 120.0 . .
C6L C12L C3L 57(8) 5_565 5_565
C5L C12L C3L 114(6) 5_565 5_565
C8L C12L C3L 134(6) . 5_565
C11L C12L C3L 87(6) . 5_565
C6L C12L C4L 106(10) 5_565 5_565
C5L C12L C4L 42(5) 5_565 5_565
C8L C12L C4L 91(3) . 5_565
C11L C12L C4L 131(4) . 5_565
C3L C12L C4L 97(5) 5_565 5_565
C5L C8L C12L 55(8) 5_565 .
C5L C8L C7L 157(9) 5_565 .
C12L C8L C7L 120.0 . .
C5L C8L C6L 64(9) 5_565 5_565
C12L C8L C6L 35(6) . 5_565
C7L C8L C6L 128(6) . 5_565
C12L C5L C8L 73(9) 6_654 6_654
C12L C5L C6L 38(10) 6_654 .
C8L C5L C6L 69(9) 6_654 .
C12L C5L C4L 103(6) 6_654 .
C8L C5L C4L 160(10) 6_654 .
C6L C5L C4L 120.0 . .
C12L C6L C3L 92(3) 6_654 .
C12L C6L C5L 59(8) 6_654 .
C3L C6L C5L 120.0 . .
C12L C6L C8L 68(10) 6_654 6_654
C3L C6L C8L 160(9) . 6_654
C5L C6L C8L 47(7) . 6_654
C12L C6L C11L 39(6) 6_654 6_654
C3L C6L C11L 76.7(18) . 6_654
C5L C6L C11L 98(5) . 6_654
C8L C6L C11L 89(8) 6_654 6_654
C1L C3L C6L 120.0 . .
C1L C3L C12L 100(5) . 6_654
C6L C3L C12L 31(6) . 6_654
C1L C3L C11L 104(5) . 6_654
C6L C3L C11L 63(3) . 6_654
C12L C3L C11L 41(3) 6_654 6_654
C2L C1L C3L 120.0 . .
C2L C1L S1L 133(2) . .
C3L C1L S1L 107(2) . .
C1L C2L C4L 120.0 . .
C1L C2L N4' 124(2) . .
C4L C2L N4' 115.9(18) . .
C2L C4L C5L 120.0 . .
C2L C4L C12L 90.7(14) . 6_654
C5L C4L C12L 35(3) . 6_654
C7L N4' C2L 119.6(12) . .
loop_
_geom_bond_atom_site_label_1
_geom_bond_atom_site_label_2
_geom_bond_distance
_geom_bond_site_symmetry_2
Cu1 O3 1.936(18) .
Cu1 O1HH 1.944(15) .
Cu1 N2 2.052(12) .
Cu1 O1 2.061(14) .
Cu1 O6 2.335(13) .
Cu1 Ca1 3.499(4) .
Cu2 O1HH 1.920(15) .
Cu2 O4 1.920(13) .
Cu2 N1 1.989(11) .
Cu2 O2 2.022(10) .
Cu2 O5 2.340(18) .
Cu2 Ca1 3.511(5) .
Ca1 N2 2.484(15) .
Ca1 N2 2.484(15) 3_665
Ca1 N2 2.484(15) 2_655
Ca1 N1 2.566(14) .
Ca1 N1 2.566(14) 3_665
Ca1 N1 2.566(14) 2_655
Ca1 O1HH 2.628(7) 3_665
Ca1 O1HH 2.628(7) .
Ca1 O1HH 2.628(7) 2_655
N1 C5 1.20(2) .
N2 C4 1.38(2) .
O1 C1 1.28(2) .
O2 C2 1.29(2) .
O3 C2 1.28(2) 4_765
O3 C3 1.49(2) .
O4 C1 1.33(2) 4_764
O4 C6 1.47(2) .
O5 C5 1.24(2) 2_655
O6 C4 1.30(2) 2_655
C1 C2 1.529(16) 4_765
C3 C4 1.39(3) .
C3 C1S 1.541(14) .
C5 C6 1.65(2) .
C6 C2H 1.559(13) .
C2H O2H' 1.45(2) .
C2S C1S 1.542(14) .
C2S S1 1.852(14) .
C2S Hg1 2.56(5) 3_665
C3S C3S 0.9(2) 3_665
C3S C3S 0.9(2) 2_655
C3S S1 1.853(14) .
C3S S1 2.38(12) 2_655
C3S Hg1 2.79(13) .
S1 Hg1 2.81(2) .
Hg1 Cl1 2.20(2) .
Hg1 Cl2 2.21(2) .
S1L C1L 1.806(14) .
S1L C9L 1.837(14) .
C7L C9L 1.3900 .
C7L C8L 1.3900 .
C7L N4' 1.409(13) .
C9L C10L 1.3900 .
C10L C11L 1.3900 .
C11L C12L 1.3900 .
C11L C6L 1.94(16) 5_565
C11L C3L 2.11(18) 5_565
C12L C6L 0.86(16) 5_565
C12L C5L 1.20(17) 5_565
C12L C8L 1.3900 .
C12L C3L 1.65(14) 5_565
C12L C4L 2.03(17) 5_565
C8L C5L 1.13(6) 5_565
C8L C6L 1.45(10) 5_565
C5L C6L 1.3900 .
C5L C4L 1.3900 .
C6L C3L 1.3900 .
C3L C1L 1.3900 .
C1L C2L 1.3900 .
C2L C4L 1.3900 .
C2L N4' 1.426(13) .
