#------------------------------------------------------------------------------
#$Date: 2019-11-03 10:53:58 +0200 (Sun, 03 Nov 2019) $
#$Revision: 221195 $
#$URL: file:///home/coder/svn-repositories/cod/cif/4/12/80/4128064.cif $
#------------------------------------------------------------------------------
#
# This file is available in the Crystallography Open Database (COD),
# http://www.crystallography.net/
#
# All data on this site have been placed in the public domain by the
# contributors.
#
data_4128064
loop_
_publ_author_name
'Castillo-Blas, Celia'
'L\'opez-Salas, Nieves'
'Guti\'errez, Mar\'ia C'
'Puente-Orench, In\'es'
'Guti\'errez-Puebla, Enrique'
'Ferrer, M. Luisa'
'Monge, M \'Angeles'
'G\'andara, Felipe'
_publ_section_title
;
 Encoding Metal-Cation Arrangements in Metal-Organic Frameworks for
 Programming the Composition of Electrocatalytically Active Multimetal
 Oxides.
;
_journal_issue                   4
_journal_name_full               'Journal of the American Chemical Society'
_journal_page_first              1766
_journal_page_last               1774
_journal_paper_doi               10.1021/jacs.8b12860
_journal_volume                  141
_journal_year                    2019
_chemical_formula_moiety         'C17 H8 Co0.37 F6 Mn0.5 O4 Zn0.13, 0.25(O)'
_chemical_formula_sum            'C17 H0.08 Co0.44 F6 Mn0.43 O4 Zn0.13'
_chemical_formula_weight         440.30
_space_group_crystal_system      hexagonal
_space_group_IT_number           179
_space_group_name_Hall           'P 65 2 (0 0 1)'
_space_group_name_H-M_alt        'P 65 2 2'
_symmetry_space_group_name_Hall  'P 65 2 (0 0 1)'
_symmetry_space_group_name_H-M   'P 65 2 2'
_atom_sites_solution_hydrogens   geom
_atom_sites_solution_primary     dual
_audit_creation_date             2018-05-25
_audit_creation_method
;
Olex2 1.2
(compiled 2018.04.26 svn.r3504 for OlexSys, GUI svn.r5492)
;
_cell_angle_alpha                90
_cell_angle_beta                 90
_cell_angle_gamma                120
_cell_formula_units_Z            12
_cell_length_a                   21.2819(9)
_cell_length_b                   21.2819(9)
_cell_length_c                   15.1237(8)
_cell_measurement_reflns_used    7206
_cell_measurement_temperature    250
_cell_measurement_theta_max      64.954
_cell_measurement_theta_min      2.397
_cell_volume                     5932.1(5)
_computing_cell_refinement       'SAINT v8.37A (Bruker, 2015)'
_computing_data_reduction        'SAINT v8.37A (Bruker, 2015)'
_computing_molecular_graphics    'Olex2 (Dolomanov et al., 2009)'
_computing_publication_material  'Olex2 (Dolomanov et al., 2009)'
_computing_structure_refinement  'XL (Sheldrick, 2008)'
_computing_structure_solution    'XT (Sheldrick, 2015)'
_diffrn_ambient_temperature      250
_diffrn_measured_fraction_theta_full 0.997
_diffrn_measured_fraction_theta_max 0.997
_diffrn_measurement_device_type  'Vantec 500'
_diffrn_measurement_method       '\f and \w scans'
_diffrn_radiation_type           CuK\a
_diffrn_radiation_wavelength     1.54178
_diffrn_reflns_av_R_equivalents  0.0999
_diffrn_reflns_av_unetI/netI     0.0515
_diffrn_reflns_Laue_measured_fraction_full 0.997
_diffrn_reflns_Laue_measured_fraction_max 0.997
_diffrn_reflns_limit_h_max       24
_diffrn_reflns_limit_h_min       -25
_diffrn_reflns_limit_k_max       24
_diffrn_reflns_limit_k_min       -25
_diffrn_reflns_limit_l_max       17
_diffrn_reflns_limit_l_min       -17
_diffrn_reflns_number            34454
_diffrn_reflns_point_group_measured_fraction_full 0.995
_diffrn_reflns_point_group_measured_fraction_max 0.995
_diffrn_reflns_theta_full        65.391
_diffrn_reflns_theta_max         65.391
_diffrn_reflns_theta_min         2.397
_diffrn_standards_number         0
_exptl_absorpt_coefficient_mu    6.275
_exptl_absorpt_correction_type   none
_exptl_crystal_colour            blue
_exptl_crystal_colour_primary    blue
_exptl_crystal_density_diffrn    1.479
_exptl_crystal_description       needle
_exptl_crystal_F_000             2575
_exptl_crystal_size_max          0.08
_exptl_crystal_size_mid          0.02
_exptl_crystal_size_min          0.02
_refine_diff_density_max         0.675
_refine_diff_density_min         -0.538
_refine_diff_density_rms         0.105
_refine_ls_abs_structure_details
;
 Flack x determined using 1027 quotients [(I+)-(I-)]/[(I+)+(I-)]
 (Parsons, Flack and Wagner, Acta Cryst. B69 (2013) 249-259).
;
_refine_ls_abs_structure_Flack   0.002(6)
_refine_ls_extinction_method     none
_refine_ls_goodness_of_fit_ref   1.056
_refine_ls_hydrogen_treatment    constr
_refine_ls_matrix_type           full
_refine_ls_number_parameters     260
_refine_ls_number_reflns         3396
_refine_ls_number_restraints     0
_refine_ls_restrained_S_all      1.056
_refine_ls_R_factor_all          0.0647
_refine_ls_R_factor_gt           0.0535
_refine_ls_shift/su_max          0.000
_refine_ls_shift/su_mean         0.000
_refine_ls_structure_factor_coef Fsqd
_refine_ls_weighting_details
'w=1/[\s^2^(Fo^2^)+(0.1000P)^2^] where P=(Fo^2^+2Fc^2^)/3'
_refine_ls_weighting_scheme      calc
_refine_ls_wR_factor_gt          0.1399
_refine_ls_wR_factor_ref         0.1488
_reflns_Friedel_coverage         0.696
_reflns_Friedel_fraction_full    0.993
_reflns_Friedel_fraction_max     0.993
_reflns_number_gt                2868
_reflns_number_total             3396
_reflns_threshold_expression     'I > 2\s(I)'
_iucr_refine_instructions_details
;

    1126.res created by SHELXL-2014/7

TITL 1126_a.res in P6(5)22
REM Old TITL 1126 in P6(5)22
REM SHELXT solution in P6(5)22
REM R1 0.196, Rweak 0.037, Alpha 0.007, Orientation as input
REM Flack x = 0.211 ( 0.056 ) from Parsons' quotients
REM Formula found by SHELXT: C34 O6 F14 Mn Co
CELL 1.54178 21.2819 21.2819 15.1237 90 90 120
ZERR 12 0.0009 0.0009 0.0008 0 0 0
LATT -1
SYMM -Y,+X-Y,0.667+Z
SYMM +Y-X,-X,0.333+Z
SYMM -X,-Y,0.5+Z
SYMM +Y,-X+Y,0.167+Z
SYMM -Y+X,+X,0.833+Z
SYMM +Y,+X,0.667-Z
SYMM -Y+X,-Y,-Z
SYMM -X,-X+Y,0.333-Z
SYMM -Y,-X,0.167-Z
SYMM +Y-X,+Y,0.5-Z
SYMM +X,+X-Y,0.833-Z
SFAC C Co F Mn O Zn H
UNIT 204 5.33 72 5.14 48 1.53 1
EADP Co01 Zn01
 
L.S. 20
PLAN  20
SIZE 0.02 0.02 0.08
TEMP -23.15
list 4
fmap 2
acta
REM <olex2.extras>
REM <HklSrc "%.\\prueba2.hkl">
REM </olex2.extras>
 
WGHT    0.100000
FVAR       0.06489   0.74182
PART 1
CO01  2    0.283464    0.716536    0.083333    20.50000    0.02671    0.02671 =
         0.02405    0.00319    0.00319    0.01403
MN02  4    0.324672    0.649343    0.250000    10.50000    0.02389    0.02556 =
         0.02348    0.00000   -0.00099    0.01278
PART 0
O003  5   -0.256248    0.374747    0.519684    11.00000    0.03001    0.02228 =
         0.02981    0.00382    0.00534    0.00934
O004  5   -0.266983    0.424421    0.645190    11.00000    0.04198    0.02932 =
         0.02719    0.00545    0.00787    0.01500
O005  5    0.230471    0.655068    0.276260    11.00000    0.02801    0.04847 =
         0.04193   -0.00038    0.00460    0.02224
F006  3   -0.094289    0.703134    0.314805    11.00000    0.04638    0.07590 =
         0.08515    0.02652    0.00695    0.03742
O007  5    0.204342    0.701095    0.158195    11.00000    0.03926    0.06388 =
         0.03262    0.00889    0.01551    0.03000
F008  3    0.047514    0.738522    0.571571    11.00000    0.04943    0.07516 =
         0.06821   -0.02655   -0.00349    0.01236
F009  3    0.083045    0.825215    0.477830    11.00000    0.05547    0.04023 =
         0.11466   -0.01794    0.03990   -0.01251
F00A  3   -0.012278    0.794278    0.555013    11.00000    0.07785    0.04255 =
         0.11784   -0.02012    0.04891    0.01589
F00B  3   -0.015660    0.811520    0.355255    11.00000    0.07605    0.04957 =
         0.13432    0.03963    0.05154    0.04028
F00C  3   -0.111043    0.747425    0.432708    11.00000    0.06172    0.07646 =
         0.12547    0.03329    0.04667    0.05182
C00D  1   -0.186857    0.503646    0.536128    11.00000    0.02495    0.03606 =
         0.03239   -0.00469   -0.00058    0.01475
C00E  1   -0.240544    0.430652    0.570312    11.00000    0.01985    0.02635 =
         0.03052   -0.00363   -0.00321    0.00890
C00F  1   -0.165080    0.564606    0.587449    11.00000    0.03836    0.03261 =
         0.03744   -0.00074    0.01542    0.01428
AFIX  43
H00F  7   -0.186779    0.560246    0.642951    11.00000   -1.20000
AFIX   0
C00G  1   -0.079767    0.639743    0.475487    11.00000    0.02190    0.02943 =
         0.04881    0.00158    0.00971    0.00953
C00H  1    0.194822    0.679227    0.238392    11.00000    0.02447    0.03456 =
         0.04622   -0.00621    0.00356    0.01347
C00I  1    0.136387    0.683984    0.287411    11.00000    0.02449    0.03458 =
         0.04079    0.00302    0.00799    0.01401
C00J  1   -0.103690    0.578653    0.423338    11.00000    0.02959    0.03456 =
         0.03407    0.00190    0.01276    0.00953
AFIX  43
H00J  7   -0.083107    0.583053    0.367078    11.00000   -1.20000
AFIX   0
C00K  1    0.034062    0.702139    0.381285    11.00000    0.02642    0.03104 =
         0.04872    0.00219    0.01025    0.01156
C00L  1   -0.157386    0.510993    0.452142    11.00000    0.03071    0.02605 =
         0.03338   -0.00417    0.00325    0.01021
AFIX  43
H00L  7   -0.173770    0.470310    0.415072    11.00000   -1.20000
AFIX   0
C00M  1    0.052062    0.727807    0.296254    11.00000    0.03797    0.04836 =
         0.05615    0.01634    0.01211    0.02708
AFIX  43
H00M  7    0.029696    0.751608    0.269861    11.00000   -1.20000
AFIX   0
C00N  1    0.102942    0.718883    0.249084    11.00000    0.03501    0.04943 =
         0.04337    0.01633    0.01369    0.02333
AFIX  43
H00N  7    0.114798    0.736550    0.190934    11.00000   -1.20000
AFIX   0
C00O  1    0.067230    0.667076    0.419372    11.00000    0.03588    0.04212 =
         0.03992    0.00720    0.01191    0.01949
AFIX  43
H00O  7    0.054224    0.648304    0.476939    11.00000   -1.20000
AFIX   0
C00P  1   -0.111893    0.631951    0.558562    11.00000    0.03667    0.03123 =
         0.04448   -0.00804    0.01283    0.00962
AFIX  43
H00P  7   -0.097147    0.672826    0.594862    11.00000   -1.20000
AFIX   0
C00Q  1    0.119207    0.659300    0.373896    11.00000    0.02985    0.03861 =
         0.05175    0.00800    0.00403    0.01981
AFIX  43
H00Q  7    0.142932    0.637321    0.401454    11.00000   -1.20000
AFIX   0
C00R  1    0.023949    0.767993    0.511653    11.00000    0.04831    0.03816 =
         0.08965   -0.00782    0.02831    0.00751
C00S  1   -0.020126    0.713472    0.438069    11.00000    0.02985    0.02922 =
         0.06445   -0.00077    0.01735    0.01211
C00T  1   -0.060300    0.744509    0.384638    11.00000    0.04688    0.04520 =
         0.09737    0.02084    0.03412    0.03060
PART 2
ZN01  6    0.283203    0.716797    0.083333   -20.50000    0.02671    0.02671 =
         0.02405    0.00319    0.00319    0.01403
 
PART 0
O1    5   -0.016979    0.505738    0.634449    10.25000    0.20900
HKLF 4
 
REM  1126_a.res in P6(5)22
REM R1 =  0.0535 for    2868 Fo > 4sig(Fo)  and  0.0647 for all    3396 data
REM    260 parameters refined using      0 restraints
 
END  
     
WGHT      0.1100      0.0000 

REM Highest difference peak  0.675,  deepest hole -0.538,  1-sigma level  0.105
Q1    1  -0.0298  0.4666  0.5820  11.00000  0.05    0.68
Q2    1   0.0457  0.5428  0.6216  11.00000  0.05    0.56
Q3    1   0.0000  0.5618  0.6667  10.50000  0.05    0.54
Q4    1   0.2580  0.6636  0.0843  11.00000  0.05    0.44
Q5    1   0.3714  0.6668  0.2471  11.00000  0.05    0.44
Q6    1   0.0076  1.0039  0.3017  11.00000  0.05    0.39
Q7    1   0.2742  0.6263  0.2499  11.00000  0.05    0.39
Q8    1   0.2292  0.7139  0.0808  11.00000  0.05    0.38
Q9    1  -0.0084  0.5489  0.5215  11.00000  0.05    0.35
Q10   1  -0.0442  0.4890  0.4990  11.00000  0.05    0.31
Q11   1  -0.3001  0.3735  0.6344  11.00000  0.05    0.26
Q12   1   0.1976  0.6476  0.1585  11.00000  0.05    0.25
Q13   1  -0.0730  0.9270  0.3333  10.50000  0.05    0.25
Q14   1   0.0000  0.6528  0.6667  10.50000  0.05    0.25
Q15   1   0.2547  0.6762  0.2081  11.00000  0.05    0.24
Q16   1   0.2807  0.7305  0.1778  11.00000  0.05    0.23
Q17   1   0.0783  0.6776  0.5013  11.00000  0.05    0.23
Q18   1   0.3344  0.6968  0.2528  11.00000  0.05    0.23
Q19   1  -0.1120  0.5279  0.4598  11.00000  0.05    0.23
Q20   1   0.2003  0.5611  0.2881  11.00000  0.05    0.22

  REM The information below was added by Olex2.
  REM
  REM R1 = 0.0535 for 2868 Fo > 4sig(Fo) and 0.0647 for all 34485 data
  REM n/a parameters refined using n/a restraints
  REM Highest difference peak 0.68, deepest hole -0.54
  REM Mean Shift 0, Max Shift 0.000.

  REM +++ Tabular Listing of Refinement Information +++
  REM R1_all = 0.0647
  REM R1_gt = 0.0535
  REM wR_ref = 0.1488
  REM GOOF = 1.056
  REM Shift_max = 0.000
  REM Shift_mean = 0
  REM Reflections_all = 34485
  REM Reflections_gt = 2868
  REM Parameters = n/a
  REM Hole = -0.54
  REM Peak = 0.68
  REM Flack = 0.002(6)

  
;
_cod_data_source_file            Zn0.17Mn0.45Co0.38(hfipbb).cif
_cod_data_source_block           1126
_cod_original_cell_volume        5932.1(6)
_cod_database_code               4128064
_shelx_shelxl_version_number     2014/7
_shelx_space_group_comment
;
The symmetry employed for this shelxl refinement is uniquely defined
by the following loop, which should always be used as a source of
symmetry information in preference to the above space-group names.
They are only intended as comments.
;
_shelx_estimated_absorpt_t_max   0.885
_shelx_estimated_absorpt_t_min   0.634
_olex2_refinement_description
;
1. Fixed Uiso
 At 1.2 times of:
  All C(H) groups
2. Uiso/Uaniso restraints and constraints
Uanis(Co01) = Uanis(Zn01)
3. Others
 Sof(Zn01)=0.5*(1-FVAR(2))
 Sof(Co01)=0.5*FVAR(2)
 Fixed Sof: O1(0.25)
4.a Aromatic/amide H refined with riding coordinates:
 C00F(H00F), C00J(H00J), C00L(H00L), C00M(H00M), C00N(H00N), C00O(H00O),
 C00P(H00P), C00Q(H00Q)
;
_olex2_submission_special_instructions 'No special instructions were received'
loop_
_space_group_symop_operation_xyz
'x, y, z'
'-y, x-y, z+2/3'
'-x+y, -x, z+1/3'
'-x, -y, z+1/2'
'y, -x+y, z+1/6'
'x-y, x, z+5/6'
'y, x, -z+2/3'
'x-y, -y, -z'
'-x, -x+y, -z+1/3'
'-y, -x, -z+1/6'
'-x+y, y, -z+1/2'
'x, x-y, -z+5/6'
loop_
_atom_site_label
_atom_site_type_symbol
_atom_site_fract_x
_atom_site_fract_y
_atom_site_fract_z
_atom_site_U_iso_or_equiv
_atom_site_adp_type
_atom_site_occupancy
_atom_site_site_symmetry_order
_atom_site_calc_flag
_atom_site_refinement_flags_posn
_atom_site_refinement_flags_adp
_atom_site_refinement_flags_occupancy
_atom_site_disorder_assembly
_atom_site_disorder_group
Co01 Co 0.2835(2) 0.7165(2) 0.0833 0.0255(4) Uani 0.742(17) 2 d S T P A 1
Mn02 Mn 0.32467(4) 0.64934(7) 0.2500 0.0241(4) Uani 1 2 d S T P B 1
O003 O -0.2562(2) 0.3747(2) 0.5197(3) 0.0290(10) Uani 1 1 d . . . . .
O004 O -0.2670(3) 0.4244(2) 0.6452(3) 0.0341(11) Uani 1 1 d . . . . .
O005 O 0.2305(3) 0.6551(3) 0.2763(3) 0.0381(12) Uani 1 1 d . . . . .
F006 F -0.0943(3) 0.7031(3) 0.3148(4) 0.0661(16) Uani 1 1 d . . . . .
O007 O 0.2043(3) 0.7011(3) 0.1582(3) 0.0434(13) Uani 1 1 d . . . . .
F008 F 0.0475(3) 0.7385(3) 0.5716(4) 0.0726(17) Uani 1 1 d . . . . .
F009 F 0.0830(3) 0.8252(3) 0.4778(5) 0.086(2) Uani 1 1 d . . . . .
F00A F -0.0123(4) 0.7943(3) 0.5550(5) 0.086(2) Uani 1 1 d . . . . .
F00B F -0.0157(3) 0.8115(3) 0.3553(5) 0.083(2) Uani 1 1 d . . . . .
F00C F -0.1110(3) 0.7474(3) 0.4327(5) 0.080(2) Uani 1 1 d . . . . .
C00D C -0.1869(3) 0.5036(4) 0.5361(5) 0.0314(15) Uani 1 1 d . . . . .
C00E C -0.2405(3) 0.4307(3) 0.5703(4) 0.0267(13) Uani 1 1 d . . . . .
C00F C -0.1651(4) 0.5646(4) 0.5874(5) 0.0377(16) Uani 1 1 d . . . . .
H00F H -0.1868 0.5602 0.6430 0.045 Uiso 1 1 calc R . . . .
C00G C -0.0798(4) 0.6397(4) 0.4755(5) 0.0348(16) Uani 1 1 d . . . . .
C00H C 0.1948(3) 0.6792(4) 0.2384(5) 0.0357(16) Uani 1 1 d . . . . .
C00I C 0.1364(4) 0.6840(4) 0.2874(5) 0.0336(15) Uani 1 1 d . . . . .
C00J C -0.1037(4) 0.5787(4) 0.4233(5) 0.0356(16) Uani 1 1 d . . . . .
H00J H -0.0831 0.5831 0.3671 0.043 Uiso 1 1 calc R . . . .
C00K C 0.0341(4) 0.7021(4) 0.3813(5) 0.0366(17) Uani 1 1 d . . . . .
C00L C -0.1574(4) 0.5110(4) 0.4521(5) 0.0318(15) Uani 1 1 d . . . . .
H00L H -0.1738 0.4703 0.4151 0.038 Uiso 1 1 calc R . . . .
C00M C 0.0521(4) 0.7278(5) 0.2963(6) 0.0450(19) Uani 1 1 d . . . . .
H00M H 0.0297 0.7516 0.2699 0.054 Uiso 1 1 calc R . . . .
C00N C 0.1029(4) 0.7189(4) 0.2491(6) 0.0416(17) Uani 1 1 d . . . . .
H00N H 0.1148 0.7366 0.1909 0.050 Uiso 1 1 calc R . . . .
C00O C 0.0672(4) 0.6671(4) 0.4194(6) 0.0393(17) Uani 1 1 d . . . . .
H00O H 0.0542 0.6483 0.4769 0.047 Uiso 1 1 calc R . . . .
C00P C -0.1119(4) 0.6320(4) 0.5586(5) 0.0407(18) Uani 1 1 d . . . . .
H00P H -0.0971 0.6728 0.5949 0.049 Uiso 1 1 calc R . . . .
C00Q C 0.1192(4) 0.6593(4) 0.3739(5) 0.0389(17) Uani 1 1 d . . . . .
H00Q H 0.1429 0.6373 0.4015 0.047 Uiso 1 1 calc R . . . .
C00R C 0.0239(5) 0.7680(5) 0.5117(8) 0.065(3) Uani 1 1 d . . . . .
C00S C -0.0201(4) 0.7135(4) 0.4381(6) 0.042(2) Uani 1 1 d . . . . .
C00T C -0.0603(5) 0.7445(5) 0.3846(8) 0.060(3) Uani 1 1 d . . . . .
Zn01 Zn 0.2832(5) 0.7168(5) 0.0833 0.0255(4) Uani 0.258(17) 2 d S T P A 2
O1 O -0.017(5) 0.506(4) 0.634(5) 0.21(3) Uiso 0.25 1 d . . . . .
loop_
_atom_site_aniso_label
_atom_site_aniso_U_11
_atom_site_aniso_U_22
_atom_site_aniso_U_33
_atom_site_aniso_U_23
_atom_site_aniso_U_13
_atom_site_aniso_U_12
Co01 0.0267(6) 0.0267(6) 0.0241(7) 0.0032(5) 0.0032(5) 0.0140(6)
Mn02 0.0239(5) 0.0256(7) 0.0235(7) 0.000 -0.0010(5) 0.0128(3)
O003 0.030(2) 0.022(2) 0.030(2) 0.0038(18) 0.0053(18) 0.0093(19)
O004 0.042(3) 0.029(2) 0.027(3) 0.0054(19) 0.008(2) 0.015(2)
O005 0.028(2) 0.048(3) 0.042(3) 0.000(2) 0.005(2) 0.022(2)
F006 0.046(3) 0.076(4) 0.085(4) 0.027(3) 0.007(3) 0.037(3)
O007 0.039(3) 0.064(4) 0.033(3) 0.009(2) 0.016(2) 0.030(3)
F008 0.049(3) 0.075(4) 0.068(4) -0.027(3) -0.003(3) 0.012(3)
F009 0.055(3) 0.040(3) 0.115(5) -0.018(3) 0.040(3) -0.013(3)
F00A 0.078(4) 0.043(3) 0.118(5) -0.020(3) 0.049(4) 0.016(3)
F00B 0.076(4) 0.050(3) 0.134(6) 0.040(4) 0.052(4) 0.040(3)
F00C 0.062(3) 0.076(4) 0.125(6) 0.033(4) 0.047(4) 0.052(3)
C00D 0.025(3) 0.036(4) 0.032(4) -0.005(3) -0.001(3) 0.015(3)
C00E 0.020(3) 0.026(3) 0.031(4) -0.004(3) -0.003(3) 0.009(3)
C00F 0.038(4) 0.033(4) 0.037(4) -0.001(3) 0.015(3) 0.014(3)
C00G 0.022(3) 0.029(4) 0.049(5) 0.002(3) 0.010(3) 0.010(3)
C00H 0.024(3) 0.035(4) 0.046(5) -0.006(3) 0.004(3) 0.013(3)
C00I 0.024(3) 0.035(4) 0.041(4) 0.003(3) 0.008(3) 0.014(3)
C00J 0.030(3) 0.035(4) 0.034(4) 0.002(3) 0.013(3) 0.010(3)
C00K 0.026(3) 0.031(4) 0.049(4) 0.002(3) 0.010(3) 0.012(3)
C00L 0.031(3) 0.026(3) 0.033(4) -0.004(3) 0.003(3) 0.010(3)
C00M 0.038(4) 0.048(5) 0.056(5) 0.016(4) 0.012(4) 0.027(4)
C00N 0.035(4) 0.049(4) 0.043(4) 0.016(4) 0.014(4) 0.023(3)
C00O 0.036(4) 0.042(4) 0.040(4) 0.007(3) 0.012(3) 0.019(3)
C00P 0.037(4) 0.031(4) 0.044(5) -0.008(3) 0.013(3) 0.010(3)
C00Q 0.030(4) 0.039(4) 0.052(5) 0.008(3) 0.004(3) 0.020(3)
C00R 0.048(5) 0.038(5) 0.090(8) -0.008(5) 0.028(5) 0.008(4)
C00S 0.030(4) 0.029(4) 0.064(6) -0.001(3) 0.017(3) 0.012(3)
C00T 0.047(5) 0.045(5) 0.097(8) 0.021(5) 0.034(5) 0.031(4)
Zn01 0.0267(6) 0.0267(6) 0.0241(7) 0.0032(5) 0.0032(5) 0.0140(6)
loop_
_atom_type_symbol
_atom_type_description
_atom_type_scat_dispersion_real
_atom_type_scat_dispersion_imag
_atom_type_scat_source
C C 0.0181 0.0091 'International Tables Vol C Tables 4.2.6.8 and 6.1.1.4'
Co Co -2.3653 3.6143 'International Tables Vol C Tables 4.2.6.8 and 6.1.1.4'
F F 0.0727 0.0534 'International Tables Vol C Tables 4.2.6.8 and 6.1.1.4'
Mn Mn -0.5299 2.8052 'International Tables Vol C Tables 4.2.6.8 and 6.1.1.4'
O O 0.0492 0.0322 'International Tables Vol C Tables 4.2.6.8 and 6.1.1.4'
Zn Zn -1.5491 0.6778 'International Tables Vol C Tables 4.2.6.8 and 6.1.1.4'
H H 0.0000 0.0000 'International Tables Vol C Tables 4.2.6.8 and 6.1.1.4'
loop_
_geom_angle_atom_site_label_1
_geom_angle_atom_site_label_2
_geom_angle_atom_site_label_3
_geom_angle
_geom_angle_site_symmetry_1
_geom_angle_site_symmetry_3
O003 Co01 O003 106.7(4) 4_564 7_565
O007 Co01 O003 108.6(2) 10_665 7_565
O007 Co01 O003 114.4(2) 10_665 4_564
O007 Co01 O003 108.6(2) . 4_564
O007 Co01 O003 114.4(2) . 7_565
O007 Co01 O007 104.5(5) 10_665 .
O003 Mn02 O003 83.7(2) 7_565 6_664
O004 Mn02 O003 89.12(16) 8_666 6_664
O004 Mn02 O003 164.59(17) 8_666 7_565
O004 Mn02 O003 89.12(16) 4_564 7_565
O004 Mn02 O003 164.59(17) 4_564 6_664
O004 Mn02 O004 100.9(3) 8_666 4_564
O005 Mn02 O003 79.12(18) 11 7_565
O005 Mn02 O003 96.55(18) . 7_565
O005 Mn02 O003 96.55(18) 11 6_664
O005 Mn02 O003 79.12(18) . 6_664
O005 Mn02 O004 95.5(2) 11 4_564
O005 Mn02 O004 88.19(19) . 4_564
O005 Mn02 O004 95.5(2) . 8_666
O005 Mn02 O004 88.19(19) 11 8_666
O005 Mn02 O005 174.3(3) 11 .
Co01 O003 Mn02 96.54(18) 4_565 5_455
C00E O003 Co01 115.1(4) . 4_565
C00E O003 Mn02 125.1(4) . 5_455
C00E O003 Zn01 115.2(4) . 4_565
C00E O004 Mn02 145.0(4) . 4_565
C00H O005 Mn02 136.8(5) . .
C00H O007 Co01 126.1(5) . .
C00H O007 Zn01 126.3(6) . .
C00F C00D C00E 120.6(6) . .
C00F C00D C00L 119.2(7) . .
C00L C00D C00E 120.2(6) . .
O003 C00E C00D 117.4(6) . .
O004 C00E O003 122.7(6) . .
O004 C00E C00D 119.9(6) . .
C00P C00F C00D 121.0(7) . .
C00J C00G C00P 118.2(6) . .
C00J C00G C00S 118.3(6) . .
C00P C00G C00S 123.5(7) . .
O005 C00H O007 124.5(6) . .
O005 C00H C00I 119.9(7) . .
O007 C00H C00I 115.6(6) . .
C00N C00I C00H 119.8(7) . .
C00Q C00I C00H 120.8(7) . .
C00Q C00I C00N 119.2(7) . .
C00G C00J C00L 121.5(7) . .
C00M C00K C00S 122.5(7) . .
C00O C00K C00M 119.2(7) . .
C00O C00K C00S 118.2(7) . .
C00J C00L C00D 119.7(6) . .
C00K C00M C00N 120.6(8) . .
C00I C00N C00M 120.2(8) . .
C00K C00O C00Q 120.8(7) . .
C00F C00P C00G 120.4(7) . .
C00I C00Q C00O 119.9(7) . .
F008 C00R F009 106.5(9) . .
F008 C00R F00A 107.2(9) . .
F008 C00R C00S 111.5(7) . .
F009 C00R C00S 110.5(8) . .
F00A C00R F009 106.5(7) . .
F00A C00R C00S 114.2(9) . .
C00G C00S C00R 112.4(7) . .
C00K C00S C00G 109.9(6) . .
C00K C00S C00R 107.3(6) . .
C00K C00S C00T 113.0(7) . .
C00T C00S C00G 106.0(6) . .
C00T C00S C00R 108.3(8) . .
F006 C00T F00B 107.7(9) . .
F006 C00T F00C 106.2(8) . .
F006 C00T C00S 111.4(7) . .
F00B C00T C00S 112.4(8) . .
F00C C00T F00B 107.1(7) . .
F00C C00T C00S 111.7(8) . .
O003 Zn01 O003 106.2(9) 4_564 7_565
O007 Zn01 O003 108.6(2) 10_665 7_565
O007 Zn01 O003 114.4(2) 10_665 4_564
O007 Zn01 O003 114.4(2) . 7_565
O007 Zn01 O003 108.6(2) . 4_564
O007 Zn01 O007 104.9(9) 10_665 .
loop_
_geom_bond_atom_site_label_1
_geom_bond_atom_site_label_2
_geom_bond_distance
_geom_bond_site_symmetry_2
Co01 O003 1.978(6) 7_565
Co01 O003 1.978(6) 4_564
Co01 O007 1.916(7) 10_665
Co01 O007 1.916(7) .
Mn02 O003 2.336(4) 7_565
Mn02 O003 2.336(4) 6_664
Mn02 O004 2.135(4) 8_666
Mn02 O004 2.135(4) 4_564
Mn02 O005 2.106(5) 11
Mn02 O005 2.106(5) .
O003 Co01 1.978(6) 4_565
O003 Mn02 2.336(4) 5_455
O003 C00E 1.310(8) .
O003 Zn01 1.983(12) 4_565
O004 Mn02 2.135(4) 4_565
O004 C00E 1.242(8) .
O005 C00H 1.248(9) .
F006 C00T 1.333(12) .
O007 C00H 1.278(9) .
O007 Zn01 1.910(12) .
F008 C00R 1.334(13) .
F009 C00R 1.340(10) .
F00A C00R 1.330(11) .
F00B C00T 1.334(10) .
F00C C00T 1.329(10) .
C00D C00E 1.487(9) .
C00D C00F 1.378(10) .
C00D C00L 1.390(10) .
C00F C00P 1.380(10) .
C00G C00J 1.382(10) .
C00G C00P 1.400(10) .
C00G C00S 1.550(10) .
C00H C00I 1.494(9) .
C00I C00N 1.387(11) .
C00I C00Q 1.389(11) .
C00J C00L 1.387(10) .
C00K C00M 1.375(11) .
C00K C00O 1.383(11) .
C00K C00S 1.550(10) .
C00M C00N 1.387(11) .
C00O C00Q 1.381(10) .
C00R C00S 1.542(13) .
C00S C00T 1.544(13) .
Zn01 O003 1.983(12) 7_565
Zn01 O003 1.983(12) 4_564
Zn01 O007 1.910(12) 10_665
O1 O1 1.16(13) 9_556
loop_
_refln_index_h
_refln_index_k
_refln_index_l
_refln_F_squared_meas
_refln_F_squared_sigma
1 0 0 92.31 6.77
1 0 0 103.94 6.75
1 -1 0 103.18 6.77
1 -1 0 97.78 6.76
1 -1 0 96.28 6.78
1 0 0 104.64 6.76
0 1 0 107.18 6.77
-1 0 0 109.97 6.76
-1 0 0 98.43 6.77
-1 0 0 105.1 6.75
-1 1 0 107.55 6.77
-1 1 0 107.3 6.76
-1 1 0 111.49 6.78
0 -1 0 104.16 6.76
0 -1 0 105.83 6.77
0 -1 0 104.8 6.79
0 1 0 111.16 6.77
0 1 0 109.12 6.8
2 -1 0 104.63 6.66
1 1 0 101.08 6.7
1 1 0 101.31 6.71
2 -1 0 94.49 6.69
2 -1 0 93.55 6.69
1 -2 0 98.32 6.69
1 -2 0 107.46 6.75
2 -1 0 102.15 6.65
-2 1 0 105.43 6.69
-2 1 0 107.36 6.69
-1 -1 0 107.17 6.68
-1 -1 0 114.76 6.71
-1 -1 0 104.74 6.7
-1 2 0 107.47 6.69
-1 2 0 92.29 6.74
-2 2 0 924.63 57.38
-2 2 0 1000 57.41
0 -2 0 892.5 57.39
0 -2 0 921.75 57.39
0 -2 0 965.36 57.45
0 2 0 892.98 57.4
0 2 0 786.69 57.43
2 -2 0 862.71 57.4
-2 2 0 880.56 57.39
2 -2 0 878.39 57.41
2 0 0 882.39 57.39
2 0 0 761.41 57.39
2 0 0 896.32 57.37
-2 0 0 881.23 57.36
-2 0 0 926.37 57.4
-2 0 0 925.22 57.39
2 -2 0 845.09 57.38
-2 -1 0 176.51 10.66
1 2 0 162.35 10.67
-1 3 0 172.88 10.64
-1 3 0 139.41 10.72
1 -3 0 149 10.64
-3 1 0 181.97 10.65
3 -2 0 175.36 10.62
-2 -1 0 172.74 10.65
-2 3 0 176.14 10.65
-2 3 0 151.03 10.71
-1 -2 0 160.84 10.63
-1 -2 0 183.08 10.67
-2 -1 0 165.52 10.63
2 1 0 161.67 10.63
1 2 0 158.6 10.71
2 -3 0 144.26 10.65
2 -3 0 158.9 10.62
2 -3 0 177.66 10.74
3 -1 0 144.84 10.64
3 -1 0 147.34 10.65
3 -1 0 158.26 10.58
-3 2 0 173.04 10.66
-3 1 0 175.63 10.66
-3 1 0 175.87 10.58
3 -2 0 152.81 10.65
3 -2 0 145.8 10.64
1 -3 0 174 10.64
-3 2 0 163.55 10.64
-1 -2 0 175.98 10.7
1 -3 0 186.76 10.75
-3 2 0 166.49 10.61
2 1 0 142.87 10.65
2 1 0 150.21 10.66
3 0 0 414.61 27.37
-3 0 0 411.69 27.4
0 3 0 469.71 27.39
0 -3 0 444.95 27.4
0 -3 0 405.95 27.46
-3 0 0 445.54 27.35
-3 3 0 431.19 27.39
-3 3 0 449.14 27.38
3 -3 0 366.82 27.37
3 -3 0 384.47 27.42
-3 0 0 440.54 27.38
-3 3 0 416.4 27.41
4 -2 0 7.71 0.68
4 -2 0 6.14 0.61
-2 -2 0 8.19 0.88
2 -4 0 7.46 1.14
-4 2 0 7.89 0.81
2 -4 0 8.36 0.75
-2 -2 0 7.64 0.75
-2 -2 0 8.2 0.89
-2 4 0 8.62 0.8
-4 2 0 8.2 0.83
1 -4 0 4.57 0.67
-4 3 0 4.74 0.65
4 -1 0 5.17 0.6
-4 3 0 4.22 0.69
4 -3 0 4.15 0.68
-1 -3 0 5.4 0.74
-1 -3 0 5.8 0.88
-4 1 0 6.21 0.74
-4 1 0 4.48 0.5
-3 -1 0 4.8 0.63
-3 -1 0 5.99 0.74
-3 4 0 4.7 0.66
1 -4 0 6.36 0.94
-3 4 0 4.78 0.6
3 -4 0 4.2 0.89
-4 3 0 7.09 0.79
-4 1 0 5.27 0.72
-1 4 0 6.44 0.69
-3 -1 0 5.69 0.67
-4 0 0 224.01 14.51
-4 4 0 215.72 14.48
0 4 0 232.5 14.48
-4 0 0 224.27 14.47
0 -4 0 224.22 14.49
0 -4 0 233.94 14.6
4 -4 0 204.4 14.53
-4 4 0 220.71 14.45
-4 0 0 222.61 14.42
-5 2 0 2.94 0.65
-2 -3 0 2.05 0.57
-3 5 0 2.5 0.62
-5 3 0 2.33 0.6
-3 -2 0 2.43 0.56
-5 3 0 2.54 0.56
5 -3 0 1.88 0.5
-5 2 0 2.68 0.64
3 -5 0 2.1 0.84
-3 -2 0 2.27 0.57
-2 5 0 2.48 0.61
2 -5 0 1.55 0.51
2 -5 0 2.18 0.84
5 -2 0 1.9 0.4
-2 -3 0 2.52 0.66
-3 -2 0 2.89 0.66
-2 -3 0 3.32 0.6
-5 1 0 228.43 13.99
-4 -1 0 211.94 13.96
-5 1 0 197.67 13.88
-1 5 0 215.22 13.98
-4 -1 0 216.04 13.95
-4 5 0 206.41 13.98
4 -5 0 220.44 14.11
5 -4 0 194.35 13.99
1 -5 0 226 14.14
-5 1 0 217.96 14.01
-5 4 0 209.53 13.99
-1 -4 0 217.98 14.08
1 -5 0 217.38 13.98
-1 -4 0 217.18 14.01
-4 5 0 223.74 13.96
-5 4 0 208.39 13.96
-4 -1 0 217.7 14.02
-5 5 0 270.85 17.71
0 -5 0 276.38 17.71
-5 0 0 262.57 17.68
0 -5 0 270.09 17.83
5 -5 0 252.05 17.75
-5 0 0 263.4 17.62
-5 5 0 276.43 17.67
-5 0 0 287.69 17.75
0 5 0 287.31 17.69
3 -6 0 128.75 8.85
-3 6 0 128.05 8.86
-3 -3 0 138.54 8.91
-3 -3 0 134.19 8.91
6 -3 0 132.57 8.77
3 -6 0 135.02 9.05
-3 -3 0 137.93 8.85
-6 3 0 134.7 8.88
-6 3 0 141.65 8.89
-6 2 0 68.39 4.52
6 -4 0 59.11 4.44
-6 2 0 67.84 4.5
-4 -2 0 63.06 4.45
-4 6 0 64.43 4.48
-4 -2 0 69.31 4.56
-2 -4 0 69.25 4.61
-6 4 0 62.95 4.47
4 -6 0 68.36 4.71
-2 6 0 66.27 4.48
2 -6 0 64.8 4.7
2 -6 0 65.88 4.47
-2 -4 0 68.45 4.53
-6 4 0 66.83 4.52
-4 -2 0 67.06 4.48
-1 6 0 13.09 1.22
-6 1 0 12.35 1.01
-6 5 0 11.95 1.14
-1 -5 0 14.15 1.46
-6 1 0 13.36 1.25
-5 -1 0 13.78 1.2
-5 -1 0 11.57 1.2
1 -6 0 12.91 1.21
5 -6 0 12.52 1.57
-5 6 0 12.1 1.16
-5 6 0 13.53 1.24
6 -5 0 12.67 1.38
-6 1 0 13.32 1.3
-6 5 0 13.19 1.23
-5 -1 0 13.43 1.32
-1 -5 0 13.4 1.3
1 -6 0 14.08 1.54
-6 0 0 40.39 2.76
0 -6 0 39.57 2.89
-6 0 0 43.37 2.96
-6 0 0 39.26 2.86
-6 6 0 36.15 2.79
0 -6 0 43.29 3.14
0 6 0 39.82 2.86
-6 6 0 39.99 2.88
6 -6 0 39.81 3.01
-7 4 0 14.18 1.4
-7 3 0 15.91 1.41
3 -7 0 14.19 1.35
-3 7 0 14.24 1.32
-3 -4 0 14.62 1.31
7 -4 0 11.79 1.19
3 -7 0 16.04 1.7
4 -7 0 13.9 1.61
-7 3 0 14.77 1.39
-4 7 0 12.86 1.33
-4 -3 0 16.06 1.46
-3 -4 0 15.27 1.43
-4 -3 0 16.74 1.42
-3 -4 0 14.1 1.48
4 -7 0 14.29 1.28
-4 -3 0 14.08 1.2
7 -3 0 12.84 1.08
-7 4 0 12.79 1.31
2 -7 0 0.96 0.88
-7 2 0 0.42 0.71
-7 5 0 1.02 0.61
-5 -2 0 0.88 0.63
-2 -5 0 1.78 0.75
-2 -5 0 0.56 0.77
-5 7 0 0.71 0.65
-2 7 0 0.38 0.65
-7 2 0 1.16 0.73
5 -7 0 0.37 0.94
-5 -2 0 0.45 0.75
-5 -2 0 1.03 0.54
2 -7 0 1.43 0.78
-7 2 0 -0.22 0.48
-5 7 0 -0.05 0.52
7 -5 0 0.27 0.6
-7 5 0 0.97 0.75
-1 -6 0 14.23 1.38
-1 -6 0 14.01 1.63
1 -7 0 15.51 1.58
7 -6 0 12.72 1.45
1 -7 0 14.48 1.39
-7 6 0 13.68 1.32
6 -7 0 13.21 1.65
-6 7 0 13.01 1.31
-6 -1 0 13.69 1.27
-6 -1 0 13.16 1.24
-6 -1 0 14.84 1.47
-7 1 0 11.99 1.04
-7 1 0 13.73 1.34
-7 6 0 11.62 1.18
-1 7 0 12.99 1.28
-7 1 0 12.21 1.4
-7 7 0 26.63 2.04
-7 7 0 23.25 2.1
7 -7 0 23.42 2.16
-7 7 0 25.7 1.97
-7 0 0 23.49 1.84
0 -7 0 26.17 2.06
0 -7 0 28.75 2.38
0 7 0 22.61 2.12
-7 0 0 28.05 2.03
-7 0 0 25.99 2.13
-4 -4 0 73.52 4.86
-8 4 0 68.53 4.8
-4 -4 0 73.05 4.86
-4 -4 0 74.4 4.77
-8 4 0 69.78 4.84
-4 8 0 67.15 4.73
-8 4 0 57.71 4.81
4 -8 0 68.49 4.76
4 -8 0 73.42 5.06
-5 -3 0 16.11 1.49
-3 8 0 12.48 1.23
-3 -5 0 13.36 1.57
3 -8 0 13.48 1.79
5 -8 0 14.35 1.71
-3 -5 0 13.49 1.45
-8 5 0 15.18 1.49
-8 3 0 13.21 1.54
-8 3 0 11.15 1.48
-8 5 0 12.55 1.34
-5 -3 0 14.31 1.34
-5 -3 0 14.55 1.53
3 -8 0 13.5 1.36
-3 -5 0 12.64 1.33
-5 8 0 11.78 1.35
5 -8 0 13.29 1.36
-8 3 0 14.76 1.45
-6 8 0 1.03 0.75
2 -8 0 1.17 1.01
-6 8 0 0.69 0.7
-8 6 0 1.35 0.65
-2 -6 0 0.79 0.89
-6 -2 0 1.32 0.84
-6 -2 0 0.62 0.62
-8 2 0 0.35 0.82
8 -6 0 -0.54 0.58
-8 2 0 0.95 0.85
2 -8 0 0.56 0.79
-8 6 0 1.41 0.76
2 6 0 0.97 0.73
-8 2 0 1.6 0.79
-2 8 0 0.34 0.69
-2 -6 0 1.23 0.81
-6 -2 0 0.84 0.7
6 -8 0 -0.27 0.87
-2 8 0 0.3 0.74
1 7 0 15.44 1.81
7 -8 0 11.81 1.66
-7 8 0 15.58 1.72
-7 -1 0 14.89 1.47
-7 -1 0 13.87 1.35
-8 7 0 13.53 1.56
-8 1 0 13.13 1.75
-1 -7 0 16.97 1.6
-7 8 0 15.13 1.36
-8 1 0 16 1.51
-1 -7 0 14 1.88
-1 8 0 12.57 1.6
-8 7 0 16.72 1.52
-8 1 0 14.12 1.59
-7 -1 0 17.94 1.67
-8 7 0 13.54 1.32
-1 8 0 14.54 1.44
1 -8 0 16.8 1.6
1 -8 0 16.51 1.96
-8 0 0 74.96 4.97
-8 8 0 70.28 5.05
-8 0 0 79.81 5.06
0 8 0 67.83 5
-8 8 0 66.39 4.86
0 -8 0 69.45 5
-8 8 0 73.56 4.97
-8 0 0 68.57 5.06
-4 9 0 -0.59 0.44
-4 9 0 -0.22 0.77
-4 -5 0 -0.08 0.84
4 -9 0 0.62 0.86
-9 4 0 0.62 0.93
-9 4 0 -0.69 0.9
-5 -4 0 0.52 0.94
-5 9 0 0.83 0.81
-4 -5 0 0.89 0.78
-5 -4 0 0.21 0.77
5 -9 0 -0.86 1.1
-9 5 0 0.33 0.88
-5 9 0 -0.19 0.7
4 -9 0 -0.19 1.04
-5 9 0 0.72 0.71
5 -9 0 -0.2 0.73
-4 9 0 0.12 0.77
-9 5 0 0.07 0.88
-9 5 0 1 0.92
-4 -5 0 0.09 0.9
-9 4 0 0.51 0.95
-5 -4 0 0.26 0.85
3 -9 0 6.03 1.09
-6 -3 0 7.75 1.14
-6 -3 0 4.41 0.88
-3 9 0 7 1.12
3 6 0 5.53 1.14
-9 6 0 5.32 1.02
-6 9 0 5.53 1.06
-9 6 0 6.84 1.03
-9 3 0 5.71 1.15
3 -9 0 5.97 1.4
-3 -6 0 6.53 1.05
-3 -6 0 6.01 1.18
-6 9 0 6.48 1.08
6 -9 0 6.25 1.38
-9 6 0 4.45 0.99
-9 3 0 6.11 1.13
-6 -3 0 7.53 1.07
-9 3 0 6.64 1.2
6 -9 0 5.22 0.96
-3 9 0 5.35 1
-3 -6 0 7.14 1.19
-7 -2 0 1.13 0.64
-2 9 0 1.54 0.85
-9 2 0 1.85 0.9
-7 9 0 1.81 0.88
7 -9 0 0.88 1.02
-9 7 0 1.21 0.75
-2 -7 0 1.34 0.91
2 -9 0 1.59 0.94
-9 7 0 1.63 0.76
-7 9 0 1.45 0.86
-7 -2 0 1.5 1.04
-2 -7 0 1.32 1.2
-9 2 0 1.05 0.93
2 -9 0 1.51 1.15
-9 7 0 -0.01 0.61
-9 7 0 1.39 0.86
-2 9 0 1.12 0.78
-7 -2 0 1.24 0.79
-9 2 0 1.54 1.01
2 7 0 1.35 0.92
-1 9 0 0.78 0.95
-9 1 0 1.12 1.02
-9 8 0 0.6 0.86
1 -9 0 -0.93 1.22
-8 -1 0 0.02 0.44
-1 -8 0 0.2 1.18
-9 1 0 0.14 0.89
-8 -1 0 0.39 0.79
-8 -1 0 -0.2 0.84
8 -9 0 -1.72 0.84
-9 1 0 -0.08 1
-8 9 0 -0.06 0.82
1 -9 0 0.5 0.87
-1 -8 0 1.03 0.94
-8 -1 0 0.73 0.83
-9 8 0 0.98 0.77
-9 8 0 0.45 0.67
1 8 0 1.09 0.9
-8 9 0 0.97 0.77
-1 9 0 0.13 0.77
-9 9 0 -0.07 0.51
-9 0 0 0.72 1.1
0 9 0 1.39 0.94
-9 0 0 1.55 0.94
-9 9 0 1.71 0.81
0 -9 0 2.57 1.04
0 -9 0 1.8 1.36
-9 9 0 1.47 0.9
-9 0 0 1.4 0.95
-10 5 0 143.04 9.89
-5 -5 0 146.99 9.96
-10 5 0 153.43 9.97
-5 10 0 139.63 9.86
-5 10 0 149.86 9.93
5 -10 0 123 9.82
5 -10 0 165.2 10.23
-5 -5 0 156.66 9.88
-10 5 0 156.18 9.93
-5 -5 0 155.13 9.97
-5 10 0 134.67 9.79
-10 6 0 16.58 1.79
-4 10 0 15.35 1.66
-4 -6 0 15.71 1.78
-10 4 0 15.7 1.9
-4 -6 0 15.96 1.66
4 -10 0 13.95 2.17
-10 6 0 15.51 1.62
-4 -6 0 16.82 2.07
-10 4 0 15.31 1.75
-6 -4 0 16.02 1.63
-10 6 0 15.81 1.71
-10 4 0 15.32 1.59
-4 10 0 15.01 1.51
4 -10 0 14.01 1.7
-6 10 0 16.88 1.84
-6 10 0 15.1 1.66
-6 -4 0 13.77 1.64
4 6 0 15.43 1.84
-6 -4 0 17.38 1.87
6 -10 0 16.48 2.11
7 -10 0 0.84 1.16
3 7 0 2.48 1.09
-10 3 0 1.84 1.06
7 -10 0 0.22 0.74
-3 -7 0 2.36 1.07
-3 10 0 2.72 0.9
-10 7 0 1.8 0.97
-10 7 0 2.75 0.99
-3 -7 0 2.99 0.96
-10 7 0 1.92 0.82
-3 -7 0 2.67 1.15
-7 10 0 2.38 0.85
-7 -3 0 2.51 0.96
-10 7 0 1.99 0.85
-3 10 0 1.79 0.96
-7 -3 0 3.9 1.22
-10 3 0 2.12 1.03
-10 3 0 1.47 1.02
-7 10 0 1.98 0.78
3 -10 0 1.63 0.92
3 -10 0 1.7 1.3
-2 10 0 4.42 1.01
-8 10 0 5.24 0.96
-10 2 0 5.44 1.27
-2 -8 0 4.06 1.04
2 8 0 5.19 1.25
2 -10 0 3.12 1.49
-8 10 0 5.31 1.02
-8 -2 0 3.66 1.07
-2 -8 0 5.07 1.36
-10 8 0 3.46 0.89
2 -10 0 2.15 0.93
-10 8 0 4.42 0.98
-10 8 0 3.02 1.04
-2 10 0 4.21 1.02
-2 -8 0 4.31 1.25
-10 2 0 4.25 1.11
-8 -2 0 3.55 1.03
-10 2 0 3.8 1.14
-8 -2 0 5.43 1.31
-1 10 0 19.27 2.06
-1 -9 0 24.45 2.57
-9 -1 0 24.59 2.28
-9 -1 0 19.16 1.93
-10 1 0 20.89 2.01
1 9 0 19.55 2.12
-10 9 0 20.12 2.01
-9 10 0 20.89 2.04
-10 9 0 22.69 2.14
-9 -1 0 20.83 2.19
1 -10 0 20.95 2.65
-10 1 0 22.29 2.23
-9 10 0 19.5 1.83
-1 -9 0 17.79 1.97
-10 1 0 21.31 2.11
-10 0 0 13.35 1.85
-10 10 0 12.21 1.58
-10 10 0 11.74 1.59
0 10 0 13.43 1.88
0 -10 0 12.54 2.01
-10 0 0 10.94 1.68
5 6 0 2.27 1.03
-6 11 0 0.83 0.87
-6 11 0 0.58 0.72
-5 11 0 0.32 0.99
-11 5 0 0.42 1.04
-11 6 0 0.14 0.84
-6 11 0 0.45 0.81
-6 -5 0 0.36 0.87
-5 -6 0 0.99 0.89
-5 -6 0 0.4 0.92
-11 6 0 1.3 1.1
6 -11 0 0.2 1.07
-6 -5 0 -0.45 0.73
-11 5 0 0.84 0.97
5 -11 0 -1.18 1.14
-5 11 0 1 0.81
-11 5 0 0.8 0.95
-5 -6 0 0.9 1.1
-11 6 0 0.35 0.88
-6 -5 0 1.57 1.19
-5 11 0 1.17 0.83
4 7 0 51.62 3.91
-11 4 0 52.31 3.86
-4 -7 0 48.47 3.94
-7 11 0 45.94 3.74
4 -11 0 50.89 4.25
-4 11 0 52.03 3.74
-7 11 0 51.37 3.81
-4 -7 0 48.39 3.84
-7 -4 0 43.11 3.73
-7 -4 0 53.5 3.95
-4 -7 0 46.46 3.7
-11 7 0 53.19 3.83
-11 7 0 49.38 3.75
-4 11 0 51.18 3.78
-11 7 0 52.17 3.85
-11 4 0 56.93 3.98
-11 4 0 47.67 3.88
-11 8 0 8.78 1.58
3 8 0 9.23 1.47
-8 -3 0 8.45 1.57
-11 3 0 6.35 1.47
-3 11 0 7.39 1.25
-3 11 0 7.81 1.21
-3 -8 0 5.87 1.37
-11 3 0 8.41 1.51
-11 8 0 7.21 1.29
-8 11 0 8.35 1.36
3 -11 0 4.83 1.67
-8 11 0 10 1.56
-11 3 0 6.24 1.31
-3 -8 0 7.71 1.62
-11 8 0 8.26 1.47
-9 11 0 18.87 1.86
2 9 0 20.73 2.16
-11 2 0 15.59 1.88
-9 11 0 16.49 1.77
-11 9 0 18.08 1.95
-9 -2 0 17.4 1.83
-2 11 0 16.77 1.81
2 -11 0 11.93 2.15
-2 11 0 10.97 1.64
-11 9 0 15.5 1.75
-9 -2 0 17.71 2.08
-11 9 0 13.66 1.69
-2 -9 0 11.15 1.92
-11 0 0 14.9 2.14
0 11 0 17.38 1.97
-11 11 0 17.95 2.06
6 6 0 43.12 3.46
-12 7 0 6.53 1.22
-12 5 0 11.59 1.66
-5 12 0 9.99 1.47
5 7 0 9.39 1.5
-5 12 0 10.53 1.46
-7 12 0 11.09 1.5
3 9 0 7.58 1.46
-9 -3 0 3.99 1.16
-12 9 0 4.28 1.15
-12 9 0 5.22 1.23
-9 12 0 7.8 1.31
-12 3 0 7.96 1.47
-3 12 0 6.57 1.16
2 10 0 2.35 1.17
-10 12 0 2.51 1.05
-12 10 0 1.97 0.95
-10 -2 0 1.1 1.21
-2 12 0 1.45 0.92
-12 2 0 1.71 1.14
-12 10 0 1.41 0.84
-12 11 0 2.6 1.01
-11 -1 0 1.98 1.28
-12 1 0 2.92 1.25
-1 12 0 3.86 1.09
-11 12 0 3.46 1.06
1 11 0 4.35 1.26
-12 12 0 28.95 2.69
0 12 0 24.84 2.49
-12 0 0 24.42 2.74
-13 6 0 48.14 3.66
-13 7 0 46.99 3.57
-7 13 0 46.26 3.62
6 7 0 41.19 3.66
-6 13 0 42.82 3.4
-6 13 0 38.28 3.44
-7 13 0 45.77 3.49
-13 5 0 107.69 6.83
-13 8 0 103.55 6.78
5 8 0 90.27 6.75
-8 13 0 81.17 6.51
-13 8 0 92.39 6.68
-5 13 0 96.91 6.67
-5 13 0 83.37 6.65
-8 13 0 105.28 6.78
-13 4 0 7.72 1.51
4 9 0 6.6 1.43
-4 13 0 6.34 1.24
-9 13 0 8.92 1.53
-13 9 0 7.05 1.33
-13 9 0 7.28 1.37
-13 10 0 30.13 3.01
-10 13 0 39.47 3.14
-13 3 0 39.89 3.37
3 10 0 41.33 3.36
-3 13 0 37.48 3.16
-13 10 0 39.11 3.22
-10 -3 0 32.56 3.1
-13 11 0 10.2 1.86
-13 2 0 10.6 1.79
-11 -2 0 8.34 1.63
-11 13 0 11.7 1.9
-2 13 0 11.15 1.7
2 11 0 13.13 2.03
-12 -1 0 3.69 1.5
-12 13 0 4.73 1.19
-13 12 0 3.99 1.23
1 12 0 4.35 1.29
-13 1 0 2.69 1.39
-1 13 0 4.93 1.28
0 13 0 85.73 6.42
-13 13 0 94.68 6.5
-13 0 0 86.26 6.61
-7 14 0 10.72 1.89
-7 14 0 12.55 1.94
-14 7 0 15.31 1.9
6 8 0 26.68 2.82
-14 8 0 29.57 2.68
-14 6 0 29.63 2.76
-8 14 0 23.58 2.44
-6 14 0 26.23 2.62
-8 14 0 29.5 2.58
-6 14 0 21.55 2.55
-9 14 0 4.8 1.21
-5 14 0 4.91 1.25
-14 5 0 6.2 1.43
-14 9 0 2.54 1.12
5 9 0 3.68 1.23
-14 9 0 3.56 1.28
-14 4 0 45.94 3.68
-10 14 0 43.96 3.52
-4 14 0 40.59 3.43
-14 10 0 38.95 3.55
-14 11 0 0.01 1.03
-11 14 0 0.34 0.96
3 11 0 1.14 1.21
-14 11 0 0.13 1.04
-14 3 0 -0.1 1.34
-11 -3 0 0.05 1.15
-3 14 0 0.1 0.98
-12 14 0 13.88 1.89
-14 12 0 11.07 1.8
-2 14 0 12.77 1.8
-14 2 0 12.29 2.27
2 12 0 10.89 1.73
-14 1 0 0.98 1.52
-13 14 0 0.32 1.04
-14 13 0 0.09 1.18
-1 14 0 -0.06 1.09
1 13 0 0.83 1.23
-13 -1 0 0.3 1.39
14 -14 0 -0.16 0.73
-14 0 0 0.88 1.45
-14 14 0 0.77 1.09
0 14 0 0.85 1.23
-8 15 0 16.21 2.19
-15 8 0 20.45 2.21
-15 7 0 19.93 2.23
-7 15 0 14.18 2.18
-7 15 0 18.54 2.25
-8 15 0 16.52 2.13
-15 9 0 58.71 4.52
-9 15 0 55.9 4.49
-6 15 0 56.16 4.44
6 9 0 50.75 4.54
-15 6 0 61.15 4.63
5 10 0 3.37 1.28
-15 5 0 6.44 1.54
-15 10 0 5.38 1.43
-15 10 0 4.15 1.33
-10 15 0 5.75 1.28
-5 15 0 6.87 1.44
-11 15 0 9.64 1.59
-15 4 0 10.15 1.86
4 11 0 6.73 1.53
-15 11 0 5.17 1.34
-15 11 0 6.49 1.47
-4 15 0 7.34 1.39
12 -15 0 -0.16 0.96
-12 15 0 1.41 1.14
-3 15 0 0.42 1.17
-15 12 0 0.24 1.15
-15 3 0 0.71 1.46
12 3 0 -0.13 0.84
3 12 0 0.33 1.25
-12 -3 0 -0.15 1.12
-15 12 0 -0.48 0.95
2 13 0 13.42 1.89
-2 15 0 11.26 1.67
-13 -2 0 8.95 1.83
-15 2 0 14.54 2.31
-15 13 0 12.87 2.23
-13 15 0 13.69 2.25
13 -15 0 11.54 1.52
-13 15 0 7.72 1.42
15 -14 0 3.45 1.09
-15 1 0 4.16 1.82
-1 15 0 2.82 1.25
14 -15 0 3.35 1.02
14 1 0 1.62 0.86
-15 14 0 3.92 1.42
-14 15 0 4.42 1.1
1 14 0 4.47 1.48
-14 15 0 3.13 1.27
-14 -1 0 3.57 1.62
-15 15 0 1.22 0.95
0 15 0 1.03 1.31
15 -15 0 1.26 0.99
-15 15 0 0.81 1.24
15 0 0 0.45 0.98
-15 0 0 0.29 1.45
-8 16 0 38.37 3.19
-8 16 0 32.12 3.14
9 7 0 -0.13 0.77
-7 -9 0 -0.11 0.6
-9 -7 0 0.22 0.63
-9 16 0 0.42 0.92
7 9 0 1.47 1.23
-7 16 0 6.09 1.43
-9 16 0 5.24 1.38
-7 16 0 2.25 1.12
-16 6 0 0.82 1.4
6 10 0 0.51 1.34
-16 10 0 -0.46 0.85
-16 10 0 1.38 1.32
10 -16 0 0.06 0.63
-6 -10 0 -0.7 0.52
-10 16 0 1.46 1.24
10 6 0 0.03 0.65
-10 -6 0 0.06 0.58
-6 16 0 0.96 1.24
11 5 0 11.21 1.52
5 11 0 15.02 2.37
11 -16 0 11.39 1.51
-16 11 0 11.53 1.94
-16 5 0 17.19 2.46
-11 16 0 15.94 2.26
-16 5 0 10.89 1.56
-5 16 0 13.69 2.21
-16 11 0 14.33 2.19
-16 4 0 0.95 1.54
-16 12 0 -0.8 1.13
-12 16 0 -0.22 0.81
4 12 0 0.77 1.38
-12 16 0 0.52 1.18
-12 -4 0 -0.37 0.62
12 -16 0 0.25 0.98
12 4 0 0.86 0.93
-16 12 0 1.4 1.21
16 -12 0 0.2 0.86
-16 4 0 -0.43 0.78
-4 -12 0 -0.53 0.6
-4 16 0 0.07 1.16
3 13 0 8.59 1.68
13 -16 0 7.03 1.26
-16 3 0 7.44 1.19
-3 16 0 7.66 1.5
-16 3 0 8.33 1.93
-13 16 0 9.45 1.52
-16 13 0 8.72 1.73
16 -13 0 9.07 1.32
-13 16 0 8.91 1.69
13 3 0 8.03 1.24
16 -14 0 7.26 1.24
-14 16 0 7.33 1.18
-16 2 0 7.5 1.97
-16 2 0 3.82 1.06
14 2 0 8.03 1.26
2 14 0 7.2 1.7
14 -16 0 7.29 1.19
-2 16 0 6.54 1.48
-16 14 0 6.57 1.65
-14 16 0 6.86 1.63
15 -16 0 6.97 1.29
-16 1 0 4.18 1.09
-1 16 0 6.83 1.58
-15 -1 0 4.41 1.64
-16 15 0 6 1.16
15 1 0 5.73 1.19
16 -1 0 5.52 1.22
-15 16 0 5.13 1.56
16 -15 0 7.83 1.29
-16 15 0 7.17 1.7
1 15 0 7.2 1.66
-15 16 0 7.25 1.19
-16 1 0 5.27 1.8
-16 16 0 6.6 1.19
-16 0 0 8.46 2.01
16 0 0 10.59 1.38
16 -16 0 7.12 1.27
-16 16 0 8.46 1.84
0 16 0 6.95 1.62
9 8 0 1.05 0.89
-17 8 0 1.82 0.88
17 -8 0 -0.31 0.99
8 9 0 1.03 0.75
8 -17 0 1.43 0.87
-9 17 0 0.56 1.16
17 -9 0 -0.42 0.67
-17 8 0 2.53 1.44
-8 17 0 -0.3 1.12
-9 -8 0 1.37 0.87
9 -17 0 1.16 0.93
-8 -9 0 2.5 0.94
-8 17 0 1.93 1.25
-17 9 0 3.29 1.55
-9 17 0 0.15 0.92
-17 9 0 -0.45 0.69
-17 7 0 1.26 1.44
7 10 0 -0.05 1.2
10 -17 0 0.4 0.92
-7 17 0 1.58 1.33
-10 17 0 -0.28 1.12
-17 10 0 1.34 1.37
-17 10 0 -1.29 0.52
-10 -7 0 0.28 0.86
7 10 0 -0.19 0.58
-17 7 0 0.33 0.85
10 7 0 0.31 0.92
17 -10 0 0.03 0.87
7 -17 0 0.63 0.79
-7 -10 0 0.71 0.85
11 -17 0 12.89 1.46
6 -17 0 6.92 1.1
17 -11 0 8.62 1.26
-17 6 0 10.77 1.5
6 11 0 8.06 1.67
-17 6 0 13.66 2.37
-11 17 0 6.3 1.12
-6 17 0 10.43 1.77
-17 11 0 6.87 1.61
-6 -11 0 10.73 1.5
11 6 0 10.82 1.57
-11 -6 0 9.11 1.21
-11 17 0 8.43 1.66
5 12 0 19.56 2.69
-17 5 0 25.39 2.99
-17 5 0 18.86 1.97
-12 17 0 19.88 2.63
-12 -5 0 19.1 1.98
-12 17 0 21.27 2.02
-5 -12 0 20.25 1.97
-17 12 0 13.51 2.36
12 5 0 20.47 2.05
12 -17 0 21.34 2.12
17 -12 0 18.82 2.09
-5 17 0 20.93 2.57
-13 17 0 2.99 1.41
-4 17 0 2.13 1.39
-17 13 0 1.85 1.28
4 13 0 2.59 1.46
-17 4 0 2.18 0.92
17 -13 0 1.57 1.08
-13 -4 0 1.13 0.93
13 4 0 2.12 1
4 -17 0 1.69 0.81
-4 -13 0 3.06 1.02
-13 17 0 2.76 1
-17 4 0 3.09 1.68
13 -17 0 3.47 1.16
-14 17 0 0.13 1.22
-17 14 0 0.29 1.29
14 -17 0 1.92 1.08
-14 17 0 1.52 0.96
17 -14 0 1.02 1.05
-17 14 0 -0.61 0.87
3 -17 0 0.59 0.78
-17 3 0 0.54 1.66
-17 3 0 0.57 0.91
-14 -3 0 0.58 0.93
3 14 0 0.41 1.24
14 3 0 0.48 1.02
17 -3 0 0.13 0.79
-3 17 0 0.47 1.21
-3 -14 0 -0.27 0.94
-17 2 0 15.17 1.91
-17 15 0 15.15 1.99
15 2 0 19.29 2.08
-15 -2 0 16.26 1.86
-17 2 0 19.68 2.83
-17 15 0 16.77 2.69
2 -17 0 11.89 1.67
17 -2 0 15.9 1.97
17 -15 0 15.71 1.98
-2 -15 0 13.74 1.79
-2 17 0 18.13 2.4
2 15 0 19.1 2.58
15 -17 0 17.44 2.04
-15 17 0 18.91 2.75
-15 17 0 17.44 2.01
1 16 0 0.1 1.26
-1 -16 0 0 0.86
16 1 0 -0.01 1.05
-1 -16 0 -0.45 0.81
-17 16 0 0.32 1.29
17 -16 0 -0.04 0.98
-17 16 0 0.59 0.99
17 -1 0 0.92 1.09
-16 17 0 1.47 0.97
-17 1 0 0.32 1.6
-1 17 0 0.48 1.34
-16 -1 0 0.47 0.82
16 -17 0 -0.32 0.98
-16 17 0 1.13 1.49
-17 1 0 -0.1 0.91
1 -17 0 -0.11 0.8
-17 17 0 17.71 2.75
-17 0 0 14.32 1.89
-17 17 0 15.94 1.99
0 17 0 18.13 2.52
17 0 0 19.47 2.08
-17 0 0 12.94 1.66
17 -17 0 17.35 1.89
-18 9 0 10.67 2.04
-18 9 0 6.49 1.12
9 -18 0 7.28 1.27
-9 -9 0 9.74 1.23
9 9 0 8.03 1.17
18 -9 0 9.03 1.42
10 8 0 14.27 1.84
-18 10 0 13.82 1.7
-18 10 0 17.02 2.6
8 -18 0 13.52 1.9
10 -18 0 15.02 1.87
-8 -10 0 14.68 1.73
-8 18 0 13.31 2.22
18 -10 0 14.71 1.87
18 -8 0 15.12 1.81
-18 8 0 16.05 1.77
-18 8 0 18.05 2.61
-10 -8 0 13.31 1.68
8 10 0 13.18 1.74
7 -18 0 0.66 1.01
-7 -11 0 2.25 0.94
-11 -7 0 1.01 0.85
11 7 0 2.22 0.99
-11 18 0 1.06 0.88
-7 18 0 1.72 1.36
-18 7 0 2.61 1.66
7 11 0 0.79 0.81
18 -7 0 0.39 0.91
-11 18 0 1.2 1.25
-18 11 0 1.8 1.39
11 -18 0 1.09 0.99
-18 11 0 -0.74 0.74
18 -11 0 0.72 1.01
-18 7 0 0.9 0.86
12 -18 0 0.4 1.05
-6 18 0 0.76 1.24
18 -6 0 -0.15 0.76
-12 18 0 -0.07 0.84
-18 12 0 -1.14 0.57
6 12 0 -0.35 1.3
-12 18 0 0.25 1.29
18 -12 0 -0.21 0.93
-18 6 0 0.39 0.89
6 12 0 0.42 0.76
-18 12 0 0.68 1.26
12 6 0 0.02 0.94
-6 -12 0 1.13 0.88
6 -18 0 0.94 1.03
-12 -6 0 0.3 0.91
-18 6 0 0.5 1.5
-13 18 0 1.53 0.95
5 13 0 0.52 1.24
-5 -13 0 0.03 0.94
18 -5 0 0.12 0.66
13 5 0 0.72 0.93
5 -18 0 1.9 1.03
-13 18 0 0.81 1.27
5 13 0 -0.03 0.49
-13 -5 0 2.88 0.99
-5 18 0 1.83 1.27
18 -13 0 1.25 1
13 -18 0 1.78 1.14
-18 5 0 1.54 1.58
-18 5 0 1.04 0.92
-14 18 0 1.74 1.36
14 -18 0 1.2 1.04
-18 4 0 2.08 1.71
14 4 0 1.81 1.03
-14 18 0 2.55 0.97
-18 14 0 -0.76 1.02
4 14 0 0.94 1.29
-4 -14 0 1.45 0.98
18 -4 0 0.81 0.79
-4 18 0 1.91 1.34
-14 -4 0 2.61 1.01
18 -14 0 0.52 1.01
-18 14 0 -0.23 0.8
-18 4 0 1.54 0.9
18 -4 0 0.05 0.68
4 -18 0 1.51 0.99
3 15 0 0.75 1.4
-15 18 0 0.75 0.97
18 -15 0 -0.13 0.95
-15 18 0 0.37 1.35
15 -18 0 0.12 1.02
18 -3 0 0.03 0.64
-15 -3 0 1.47 0.94
-18 15 0 0.86 0.92
-18 3 0 0.09 0.87
-18 3 0 1.49 1.58
-3 18 0 0.71 1.18
-18 15 0 -1.37 1.12
3 -18 0 1.12 0.98
18 -3 0 0.76 1.01
-3 -15 0 0.29 0.89
15 3 0 1.08 1
-16 -2 0 1.45 0.9
16 2 0 0.89 0.94
16 -18 0 1.69 1.11
2 -18 0 0.91 0.93
-18 2 0 0.88 0.95
-16 18 0 2.71 1.05
-18 2 0 1.23 1.55
-2 18 0 1.42 1.28
18 -16 0 1.72 1.04
18 -2 0 1.23 1.04
-18 16 0 0.47 1.22
2 16 0 1.94 1.4
-2 -16 0 -0.43 0.86
-18 16 0 1.54 0.97
18 -2 0 0.07 0.68
-16 18 0 2.05 1.38
-2 -16 0 1.13 0.94
-17 -1 0 1.68 0.87
1 -18 0 1.62 0.95
-1 -17 0 0.45 0.92
-17 -1 0 -1.41 0.85
-1 18 0 2.26 1.28
1 -18 0 -0.15 0.68
17 -18 0 1.6 0.99
-18 1 0 0.28 0.93
17 1 0 1.59 0.97
18 -17 0 0.69 1
-18 17 0 -0.65 1.29
-1 -17 0 -0.21 0.66
-17 18 0 1.67 0.98
1 17 0 0.57 1.3
18 -1 0 1.29 1.07
-17 18 0 0.71 1.34
-18 17 0 0.94 0.93
-18 1 0 -0.17 0.57
-18 18 0 2.24 0.97
18 0 0 2.28 0.95
-18 0 0 1.95 0.79
0 18 0 0.35 1.12
-18 0 0 1.44 1.01
0 -18 0 1.49 0.82
0 -18 0 0.14 0.64
-18 18 0 -0.58 1.1
18 -18 0 3.5 1.06
10 -19 0 0.31 1
-10 19 0 -0.62 1.68
-19 9 0 1.09 1.57
-9 -10 0 0.71 0.81
19 -10 0 -0.39 1.04
-10 -9 0 0.58 0.83
19 -9 0 0.19 1.01
-19 9 0 0.98 0.86
9 -19 0 0.06 1.03
10 9 0 0.4 0.86
9 10 0 0.3 0.86
-19 10 0 1.14 1.49
-19 10 0 0.69 0.92
-11 19 0 1.02 1.2
-19 8 0 3.86 0.93
19 -11 0 1.36 1.05
-19 11 0 3.74 0.98
-19 8 0 6.05 1.83
19 -8 0 2.51 1.15
11 8 0 3.02 0.89
-11 -8 0 3.46 0.91
-8 -11 0 4.11 0.96
8 -19 0 3.27 1.06
8 11 0 2.22 0.87
-11 19 0 1.91 0.92
11 -19 0 3.87 1.11
-19 11 0 3.49 1.53
-19 7 0 9.47 1.49
-12 19 0 8.75 1.27
-12 -7 0 8.54 1.18
12 7 0 7.44 1.19
-7 -12 0 7.93 1.16
-19 7 0 8.16 1.86
7 -19 0 8.14 1.32
19 -12 0 5.31 1.15
-19 12 0 5.07 1.04
7 12 0 8.65 1.17
19 -7 0 5.8 1.29
12 -19 0 8.74 1.33
-12 19 0 4.58 1.49
19 -6 0 1.96 1.03
13 -19 0 4.65 1.17
13 6 0 2.65 1
-19 6 0 4.31 1.77
-6 -13 0 2.35 0.93
-13 -6 0 2.82 0.93
-6 19 0 2.62 1.39
6 -19 0 2.09 0.99
19 -13 0 2.41 1.03
-13 19 0 1.73 1.47
6 13 0 3.25 0.88
-19 6 0 2.05 0.9
-13 19 0 2.77 1
-14 -5 0 1.51 0.89
14 -19 0 0.46 1.02
-14 19 0 1.71 0.98
-5 -14 0 0.94 0.94
-19 5 0 1.24 1.62
-5 19 0 0.68 1.28
14 5 0 0.38 1.01
5 14 0 0.12 0.76
-14 19 0 -0.09 1.25
5 -19 0 0.47 0.92
-19 5 0 0.82 0.82
19 -5 0 -0.1 0.71
19 -5 0 0.39 0.92
19 -14 0 0.54 0.94
-15 19 0 11.77 1.41
-4 -15 0 10.8 1.28
-15 19 0 7.89 1.77
19 -15 0 11.41 1.42
-19 4 0 6.21 1.84
19 -4 0 7.99 1.28
15 4 0 11.2 1.32
4 -19 0 8.65 1.34
15 -19 0 10.86 1.42
-19 4 0 9.36 1.3
-15 -4 0 8.85 1.29
-4 19 0 6.72 1.61
-3 19 0 2.05 1.26
19 -16 0 1.64 0.97
16 -19 0 2.6 1.09
-19 3 0 -0.16 1.35
-16 19 0 3.41 1.01
-3 -16 0 2.45 0.97
3 -19 0 2.28 1.01
16 3 0 3.35 1.02
19 -3 0 1.05 0.97
-19 16 0 2.96 1.01
-16 19 0 1.98 1.46
-19 3 0 1.75 0.92
-16 -3 0 2.7 0.92
3 16 0 -0.21 1.3
-19 2 0 0.14 0.96
-2 19 0 0.16 1.12
19 -2 0 0.03 0.88
19 -2 0 0.79 0.9
-17 -2 0 0.12 0.82
-17 19 0 -0.97 1.17
19 -17 0 0.97 1.03
2 -19 0 0.29 0.91
17 -19 0 0.65 0.92
-19 17 0 0.8 0.92
-17 19 0 1.12 0.92
-2 -17 0 0.49 0.89
-2 -17 0 -0.24 0.71
17 2 0 0.98 0.9
-19 1 0 8.94 1.34
19 -1 0 11.42 1.6
19 -18 0 12.71 1.73
-18 19 0 13.97 1.7
-19 18 0 13.14 1.63
18 -19 0 12.67 1.66
18 1 0 9.88 1.28
-1 -18 0 10.11 1.4
1 -19 0 6.93 1.18
-18 -1 0 10.19 1.38
-19 0 0 -0.62 0.5
19 -19 0 0.75 0.91
-19 19 0 1.29 0.85
19 0 0 -0.41 0.8
-19 0 0 -0.04 0.83
0 -19 0 -0.37 0.48
0 -19 0 0.37 0.62
10 10 0 16.97 1.92
-20 10 0 20.16 2.7
-10 -10 0 19.26 1.86
10 -20 0 19.27 2.09
20 -10 0 20.33 2.09
-20 10 0 19.75 1.99
11 9 0 8.46 1.14
-11 20 0 4.92 1.05
-20 11 0 8.87 1.22
-9 -11 0 6.4 1.04
-11 -9 0 7.58 1.06
20 -9 0 6.07 1.25
20 -11 0 4.38 1.15
11 -20 0 7.83 1.24
9 11 0 5.71 1.05
-20 9 0 5.4 1.67
9 -20 0 8.51 1.27
-20 9 0 9.88 1.23
-20 8 0 1.2 0.89
20 -12 0 -0.21 0.99
-20 12 0 0.82 0.82
8 12 0 0.68 0.81
-8 -12 0 0.41 0.82
-12 20 0 0.7 0.87
-12 -8 0 1.29 0.83
12 8 0 0.68 0.83
12 -20 0 1.29 1.05
8 -20 0 0.14 0.99
-20 8 0 1.46 1.43
20 -8 0 0.6 1.04
13 -20 0 1.19 1.05
20 -13 0 -0.3 0.94
-13 20 0 0.55 0.93
-20 7 0 0.86 0.8
-13 -7 0 1.51 0.84
-20 7 0 1.76 1.6
20 -7 0 0.66 1.08
-13 20 0 -0.54 1.11
7 13 0 0.71 0.8
-20 13 0 -0.24 0.79
13 7 0 0.44 0.85
-7 -13 0 0.67 0.86
7 -20 0 1.12 0.98
14 -20 0 1.4 0.99
-6 -14 0 1.04 0.9
-14 20 0 1.63 0.93
20 -6 0 0.71 0.96
20 -14 0 1.85 0.98
-14 -6 0 2.19 0.87
14 6 0 2.32 0.94
6 14 0 1.26 0.91
-20 6 0 2.95 1.54
6 -20 0 1.45 0.92
-20 6 0 1.7 0.88
-14 20 0 -0.4 1.09
-20 5 0 4.7 0.99
5 15 0 1.62 0.7
-15 -5 0 4.98 1
15 5 0 5.93 1.08
-20 5 0 0.39 1.29
-15 20 0 4.03 0.99
15 -20 0 7.14 1.21
20 -5 0 3.17 0.94
20 -5 0 3.12 0.88
-5 -15 0 3 0.94
5 -20 0 2.92 0.98
20 -15 0 4.53 1.08
16 -20 0 0.42 0.99
-16 -4 0 0.75 0.86
-4 -16 0 -0.11 0.86
-16 20 0 0.77 0.87
20 -16 0 0.28 0.92
-20 16 0 -0.88 0.77
16 4 0 -0.39 0.87
-20 4 0 0.88 0.84
4 -20 0 0.53 0.85
-16 20 0 -0.43 1.62
20 -4 0 0.27 0.67
20 -4 0 0.56 0.85
-20 17 0 2.47 0.9
17 3 0 2.66 0.95
-17 20 0 2.59 0.94
-20 3 0 2.07 0.94
3 -20 0 1.99 0.87
20 -3 0 2.44 0.89
20 -17 0 2.27 0.93
-3 -17 0 1.78 0.91
17 -20 0 2.92 0.96
-17 -3 0 2.14 0.81
-18 20 0 0.76 0.81
20 -2 0 0.08 0.79
20 -18 0 0.41 0.85
18 -20 0 0.77 0.89
-20 18 0 0.02 0.77
-2 -18 0 -0.34 0.73
-18 -2 0 -0.18 0.66
2 -20 0 0.67 0.73
18 2 0 0.49 0.86
-20 2 0 -0.47 0.88
20 -1 0 5.67 0.97
19 1 0 7.22 1.04
-20 1 0 6.1 1.05
-19 -1 0 4.38 0.79
-20 19 0 8.15 1.13
-19 20 0 8.06 1.28
20 -19 0 8.26 1.13
-20 20 0 5.83 1.01
20 0 0 5.9 0.96
20 -20 0 6.94 1.07
10 11 0 0.2 0.78
11 -21 0 0.19 0.94
-11 -10 0 0.46 0.74
11 10 0 0.3 0.75
-21 10 0 0.73 0.82
21 -11 0 0.02 0.93
21 -10 0 0.28 0.95
-21 11 0 0.76 0.82
-10 -11 0 -0.09 0.77
10 -21 0 0.27 0.91
-9 -12 0 0.52 0.8
12 -21 0 0.41 0.94
12 9 0 -0.28 0.78
-21 12 0 -0.54 0.75
9 -21 0 0.93 0.95
21 -9 0 0.25 0.97
-21 9 0 1 0.79
9 12 0 -0.58 0.68
21 -12 0 0.06 0.86
-12 -9 0 0.37 0.75
-12 21 0 -0.06 0.77
-21 8 0 1.07 0.78
-21 13 0 0.39 0.79
13 -21 0 1.35 0.97
8 13 0 0.81 0.8
-13 -8 0 0.6 0.74
-13 21 0 0.38 0.8
-21 8 0 -0.47 2.28
8 -21 0 0.51 0.9
-8 -13 0 0.25 0.8
13 8 0 0.58 0.82
21 -8 0 0.67 1.01
21 -13 0 0.58 0.89
7 -21 0 7.18 1.17
14 -21 0 8.67 1.24
7 14 0 5.69 1.1
21 -14 0 7.9 1.25
-7 -14 0 8.56 1.15
-14 21 0 9.56 1.56
-14 -7 0 9.97 1.16
-21 7 0 10.56 1.25
21 -7 0 6.6 1.2
14 7 0 8.5 1.16
-15 21 0 1.23 0.87
-21 6 0 0.44 0.78
6 -21 0 0.26 0.83
21 -6 0 0.31 0.78
-6 -15 0 0.54 0.81
-15 -6 0 0.34 0.76
6 15 0 -0.02 0.77
21 -15 0 0.38 0.9
15 -21 0 0.72 0.89
15 6 0 0.3 0.79
5 -21 0 4.78 1.02
16 -21 0 6.84 1.17
-16 21 0 6.08 1.05
16 5 0 8.47 1.15
21 -16 0 6.79 1.14
-16 -5 0 4.28 0.91
-21 5 0 5.81 1.02
-5 -16 0 7.06 1.01
-21 17 0 0.43 0.75
17 -21 0 1.88 0.86
21 -17 0 1.15 0.83
-21 4 0 0.99 0.84
-17 -4 0 1 0.69
-17 21 0 1.66 0.79
21 -4 0 1.3 0.72
-4 -17 0 0.74 0.8
17 4 0 1.3 0.76
4 -21 0 0.57 0.78
21 -3 0 2.66 0.78
-21 18 0 3.23 0.87
21 -18 0 5.95 1.03
18 -21 0 6.72 1.08
-18 -3 0 3.72 0.74
-21 3 0 4.55 0.96
-18 21 0 4.72 0.89
18 3 0 4.99 0.87
3 -21 0 2.91 0.75
-3 -18 0 3.02 0.8
21 -19 0 2.78 0.85
-19 -2 0 1.55 0.58
19 -21 0 3.93 0.94
21 -2 0 2.08 0.75
-21 2 0 2.18 0.8
19 2 0 2.21 0.76
-19 21 0 2.42 0.84
-21 19 0 2.78 0.8
-20 21 0 0.1 0.69
-21 1 0 -0.45 0.6
20 1 0 0.14 0.69
21 -1 0 0.69 0.65
20 -21 0 0.32 0.78
-21 20 0 -0.12 0.65
21 -20 0 0.55 0.79
-21 21 0 5.19 0.86
21 -21 0 8.54 1.24
21 0 0 4.42 0.83
11 -22 0 7.09 1.16
-22 11 0 8.71 1.14
-11 -11 0 7.19 1.02
22 -11 0 6.52 1.14
11 11 0 7.26 1.01
10 -22 0 0 0.88
10 12 0 0.44 0.71
12 -22 0 0.09 0.84
-10 -12 0 0.36 0.7
12 10 0 0.54 0.74
-12 -10 0 0.3 0.7
-12 22 0 -0.37 0.65
-22 10 0 1.1 0.81
-22 12 0 0.93 0.82
22 -10 0 0.59 0.86
22 -12 0 0.28 0.86
-22 9 0 2.2 0.82
-9 -13 0 2.19 0.81
22 -9 0 1.61 0.9
22 -13 0 1.28 0.84
13 -22 0 2.18 0.87
-22 13 0 1.34 0.79
9 -22 0 1.55 0.9
13 9 0 2.24 0.77
-13 -9 0 2.75 0.78
-13 22 0 1.21 0.76
9 13 0 1.84 0.78
14 -22 0 -0.08 0.79
-8 -14 0 0.06 0.73
8 14 0 0.4 0.82
14 8 0 -0.38 0.7
-22 8 0 0.02 0.71
-14 -8 0 0.27 0.68
22 -14 0 0.07 0.75
-14 22 0 -0.02 0.73
-22 14 0 -1.51 0.68
22 -8 0 -0.92 0.8
8 -22 0 0.88 0.78
22 -7 0 0.5 0.62
22 -15 0 0.92 0.77
-7 -15 0 1.34 0.72
-22 7 0 1.65 0.76
15 7 0 0.28 0.71
-15 22 0 1.05 0.77
7 15 0 0.34 0.69
7 -22 0 0.67 0.79
15 -22 0 1.22 0.85
-15 -7 0 1.59 0.73
-22 6 0 2.18 0.81
22 -16 0 3.33 0.92
6 -22 0 2.17 0.8
16 6 0 3.4 0.81
-6 -16 0 2.7 0.78
-16 -6 0 3.15 0.8
-16 22 0 3.01 0.81
16 -22 0 3.24 0.94
-5 -17 0 -0.46 0.67
17 -22 0 0.03 0.77
-22 5 0 0.69 0.74
17 5 0 0.22 0.69
22 -17 0 0.27 0.77
5 -22 0 -0.39 0.66
-17 22 0 0.23 0.64
-17 -5 0 0.37 0.67
18 -22 0 1.92 0.81
-18 -4 0 1.15 0.61
-4 -18 0 0.43 0.65
4 -22 0 0.17 0.89
22 -18 0 1.24 0.78
18 4 0 1.59 0.75
-22 4 0 1.46 0.76
-18 22 0 1.39 0.79
22 -3 0 0.02 0.54
-3 -19 0 -0.43 0.52
19 3 0 -0.51 0.64
-22 19 0 -0.24 0.59
-19 22 0 -0.29 0.66
-22 3 0 -0.1 0.67
19 -22 0 -0.28 0.76
22 -19 0 0.42 0.74
-19 -3 0 -0.32 0.41
22 -20 0 3.37 0.85
20 2 0 2.68 0.75
-20 22 0 2.93 0.74
20 -22 0 4.79 0.88
-22 20 0 2.55 0.68
-22 2 0 1.05 0.55
-21 22 0 2.72 0.74
22 -21 0 4.51 0.91
21 1 0 2.23 0.71
21 -22 0 3.67 0.86
-22 21 0 2.38 0.68
-11 -12 0 2.68 0.74
11 -23 0 2.76 0.88
11 12 0 1.55 0.68
12 -23 0 1.69 0.84
-12 -11 0 3.31 0.73
-23 11 0 2.44 0.78
23 -11 0 1.77 0.81
12 11 0 0.52 0.62
-23 12 0 2.47 0.81
23 -12 0 2.24 0.81
23 -10 0 0.6 0.72
10 13 0 0.4 0.7
23 -13 0 0.56 0.77
13 10 0 0.22 0.6
10 -23 0 0.29 0.8
13 -23 0 0.29 0.73
-23 13 0 -0.57 0.68
-13 -10 0 -0.04 0.65
-10 -13 0 0.18 0.65
-23 10 0 1 0.72
14 9 0 0.31 0.64
-23 14 0 -0.93 0.64
23 -14 0 -0.02 0.74
-14 23 0 -0.13 0.67
9 -23 0 0.57 0.68
-9 -14 0 -0.09 0.63
14 -23 0 0.15 0.72
9 14 0 0.29 0.72
-23 9 0 0.95 0.72
23 -9 0 -0.31 0.54
-14 -9 0 0.36 0.68
-15 -8 0 0.81 0.66
8 15 0 0.39 0.54
15 8 0 0.32 0.66
15 -23 0 1 0.76
-23 8 0 0.68 0.69
-15 23 0 -0.17 0.69
23 -15 0 1.15 0.73
8 -23 0 0.19 0.71
-8 -15 0 0.09 0.61
-16 -7 0 1.19 0.67
16 -23 0 2.18 0.78
16 7 0 0.95 0.64
23 -16 0 1.43 0.72
-23 7 0 1.4 0.71
7 -23 0 0.65 0.69
-7 -16 0 0.72 0.6
-16 23 0 0.96 0.72
23 -17 0 0.4 0.66
6 -23 0 -0.08 0.47
17 6 0 0.27 0.64
-17 23 0 0 0.67
-17 -6 0 0.41 0.63
17 -23 0 0.44 0.7
-6 -17 0 -0.04 0.6
-23 6 0 0.01 0.65
23 -18 0 1.25 0.72
18 -23 0 2.41 0.82
-18 -5 0 1.21 0.6
-18 23 0 1.89 0.72
18 5 0 1.69 0.66
-5 -18 0 1.31 0.56
-23 5 0 0.99 0.65
19 -23 0 0.86 0.81
-19 23 0 0.61 0.66
23 -19 0 0.03 0.67
19 4 0 0.2 0.64
-23 4 0 0.16 0.61
-20 23 0 2.43 0.75
20 3 0 1.75 0.71
20 -23 0 2.97 0.8
23 -20 0 1.61 0.8
-24 12 0 1.06 0.73
12 -24 0 0.65 0.68
-12 -12 0 1.12 0.61
12 12 0 0.65 0.63
24 -12 0 0.65 0.49
13 -24 0 0.25 0.66
13 11 0 -0.13 0.58
24 -13 0 0.4 0.63
11 -24 0 0.58 0.7
-24 11 0 0.19 0.71
11 13 0 0.43 0.63
-11 -13 0 0.54 0.6
-13 -11 0 -0.13 0.62
-24 13 0 -0.32 0.68
10 -24 0 0.01 0.69
-14 -10 0 -0.09 0.61
24 -14 0 0.58 0.63
14 -24 0 0.36 0.72
-24 14 0 -1.07 0.43
10 14 0 0.08 0.5
14 10 0 -0.04 0.53
-10 -14 0 0.42 0.55
-24 10 0 0.38 0.65
15 9 0 0.39 0.58
15 -24 0 0.26 0.7
-24 9 0 0.38 0.65
-9 -15 0 0.38 0.54
-15 -9 0 0.49 0.63
9 -24 0 0.4 0.63
24 -15 0 0.53 0.65
-15 24 0 -0.59 0.46
-16 -8 0 0.76 0.67
16 -24 0 0.31 0.68
-16 24 0 -0.18 0.59
-8 -16 0 -0.01 0.56
24 -16 0 -0.39 0.63
16 8 0 -0.33 0.53
-24 8 0 0.24 0.6
-17 24 0 -0.46 0.61
-17 -7 0 0.16 0.63
-7 -17 0 0.02 0.51
24 -17 0 0.33 0.65
17 7 0 0.14 0.61
17 -24 0 0.63 0.73
-24 7 0 -0.03 0.59
-24 6 0 0.83 0.64
18 6 0 0.45 0.63
-18 24 0 1.18 0.68
18 -24 0 0.87 0.84
24 -18 0 1.61 0.71
13 -25 0 0.34 0.68
12 13 0 0.02 0.36
12 -25 0 -0.17 0.39
13 12 0 0.67 0.6
-25 12 0 0.58 0.68
-25 13 0 -0.82 0.43
-25 11 0 2.67 0.74
14 11 0 0.92 0.64
0 0 -1 0.1 0.09
0 0 1 0.09 0.15
0 0 -1 0 0.13
0 0 -1 -0.11 0.15
-1 1 1 1.51 0.29
-1 0 1 1.58 0.28
1 -1 1 1.38 0.21
1 -1 -1 1.17 0.33
0 -1 -1 1.3 0.2
-1 1 -1 0.98 0.2
0 -1 1 1.19 0.17
1 -1 1 1.27 0.23
-1 1 -1 1.2 0.15
-1 1 1 1.3 0.2
1 0 1 1.27 0.25
1 0 -1 1.15 0.24
-1 0 -1 1.68 0.21
1 0 -1 0.86 0.27
0 -1 -1 1.44 0.33
-1 1 -1 1.44 0.22
1 0 -1 0.92 0.14
0 -1 1 1.46 0.25
0 -1 -1 1.21 0.27
-1 0 1 1.27 0.15
-1 0 -1 1.48 0.25
0 1 1 1.34 0.36
1 -1 -1 1.15 0.25
-1 0 -1 1.52 0.24
0 1 -1 1.1 0.2
0 -1 1 1.31 0.2
-1 0 1 1.62 0.23
1 -1 -1 1.39 0.21
0 1 -1 0.95 0.25
0 1 -1 1.37 0.17
1 0 1 1.31 0.26
-1 2 -1 60.84 3.9
-2 1 -1 59.78 3.86
2 -1 1 56.52 3.92
1 -2 -1 58.74 3.91
1 -2 1 56.72 3.91
-1 2 -1 60.67 3.94
-1 2 1 63.79 4.02
-2 1 1 58.93 3.9
-1 -1 -1 63.24 3.94
1 -2 -1 60.9 3.99
1 -2 1 60.76 3.86
-2 1 -1 59.72 3.89
1 1 1 57.3 3.94
-1 -1 1 64.57 3.93
-1 -1 -1 60.84 3.91
2 -1 1 54.52 3.89
-2 1 1 62.33 3.94
1 1 -1 59.01 3.94
-2 1 -1 61.72 3.92
-1 -1 1 61.79 3.93
-1 -1 1 57.85 3.87
-1 2 -1 55.08 3.85
1 1 -1 57.14 3.91
1 1 1 59.86 3.98
1 -2 1 63.71 3.94
1 -2 -1 57 3.93
2 -1 -1 55.06 3.9
-1 2 1 62.36 3.9
2 -1 -1 54.92 3.93
-1 -1 -1 61.93 3.98
2 -1 -1 57.06 3.91
0 2 1 1.78 0.37
-2 2 -1 2.16 0.26
0 2 1 2.79 0.41
-2 2 -1 2.1 0.4
0 2 -1 1.77 0.35
-2 0 -1 1.92 0.38
2 0 -1 1.01 0.4
-2 2 1 2.54 0.43
-2 2 -1 1.81 0.32
0 -2 1 1.89 0.31
0 2 -1 1.43 0.44
2 -2 1 1.83 0.26
2 0 1 1.74 0.34
-2 0 -1 3.07 0.46
-2 2 1 1.9 0.48
2 -2 1 2.01 0.42
-2 2 1 1.79 0.35
0 2 -1 2.07 0.3
0 -2 -1 2.7 0.44
-2 0 1 1.76 0.29
-2 0 1 2.22 0.44
0 2 1 1.82 0.58
2 0 -1 1.66 0.36
-2 0 1 1.71 0.32
2 -2 -1 1.46 0.45
2 0 1 1.75 0.34
2 0 -1 1.47 0.29
0 -2 -1 1.63 0.41
2 0 1 1.46 0.39
2 -2 -1 1.74 0.42
0 -2 1 2.34 0.43
2 -2 -1 1.09 0.36
0 -2 1 1.56 0.31
-2 0 -1 2.91 0.41
2 -2 1 1.87 0.29
0 -2 -1 2.26 0.6
-2 -1 -1 48.28 3.06
-2 3 1 49.04 2.99
1 -3 -1 49.37 3.16
-2 -1 -1 48.79 3.02
-1 3 -1 39.2 3.02
1 -3 -1 38.85 2.96
-2 3 1 41.76 3.1
1 -3 -1 46.14 3
-1 -2 1 45.41 2.97
-1 3 -1 43.21 2.94
-2 -1 -1 44.14 2.97
-3 2 -1 46.42 2.93
2 -3 1 46.02 2.9
3 -2 -1 39.03 2.98
-2 3 1 47.19 2.96
-3 2 -1 45.52 2.99
3 -1 1 39.48 2.97
-3 2 -1 43.69 2.91
-1 -2 1 46.09 3.02
2 -3 1 49.63 3.03
-1 3 -1 40.55 2.92
-3 1 1 44.32 3.01
1 2 1 39.73 3.12
2 -3 1 41.44 3
2 1 -1 42.15 3
-1 -2 1 43.63 2.94
3 -2 -1 46.14 3
2 -3 1 42.97 2.89
-3 1 1 48.63 2.97
-3 1 1 46.48 2.96
1 2 1 35.78 3
-2 -1 1 49.48 3.09
-2 -1 1 48.6 3.04
2 -3 -1 37.68 3.08
3 -1 -1 40.39 3.04
-2 3 -1 41.41 3.11
3 -2 1 45.48 2.99
-1 -2 -1 52.12 3.12
-3 1 -1 51.25 3.1
1 -3 1 43.17 3.06
-3 2 1 49.79 3.08
-3 1 -1 52.1 3.08
1 -3 1 47.87 3.03
1 2 -1 42.28 3.08
-2 -1 1 46.67 3.1
2 1 1 38.53 3.1
-1 3 1 50.14 3.09
3 -2 1 42.54 3.04
-2 3 -1 50.82 3.07
-1 3 1 39.06 3.21
-3 1 -1 48.98 2.97
3 -1 -1 43.22 3.06
-3 2 1 50.33 3.1
2 -3 -1 38.76 3.08
2 -3 -1 51.67 3.24
-1 -2 -1 50.81 3.29
-3 1 -1 44.88 2.98
2 1 1 42.04 3.18
3 -2 1 39.66 3.07
1 -3 1 51.03 3.16
-3 0 1 3.06 0.47
0 3 -1 2.75 0.44
-3 0 1 2.86 0.43
-3 0 -1 2.32 0.4
-3 0 1 3.41 0.59
3 0 1 2.23 0.49
-3 3 -1 3.62 0.61
-3 3 1 1.76 0.57
0 -3 -1 3.35 0.59
0 -3 1 3.92 0.63
-3 0 -1 3.71 0.58
0 -3 1 1.83 0.42
-3 0 -1 3.83 0.49
-3 3 -1 2.49 0.51
3 0 -1 1.86 0.49
-3 3 -1 2.85 0.38
0 3 1 3.74 0.49
3 -3 1 1.95 0.39
3 -3 -1 3.51 0.59
0 3 -1 2.06 0.46
-3 3 1 3.93 0.5
0 -3 -1 3.03 0.84
-3 3 1 3.18 0.52
0 -3 1 3.45 0.5
3 0 1 1.12 0.45
3 -3 1 3.05 0.48
3 0 -1 1.59 0.43
4 -2 -1 38.9 2.64
-3 4 1 11.91 1
4 -3 -1 12.65 1.1
-4 1 1 12.18 1.04
-3 4 1 13.34 1.1
3 -4 1 12.64 1.23
4 -1 1 12.56 0.86
1 -4 -1 12.97 1.1
-3 -1 -1 12.85 1.07
1 -4 -1 12.02 1.54
-4 3 -1 12.32 1.01
-4 3 -1 11.58 1.12
-4 1 1 11.91 1.15
-3 -1 -1 13.88 1.07
-4 1 1 12.57 1.02
-1 -3 1 13.18 1.12
-3 -1 -1 11.99 1
-1 -3 1 12.6 1.12
3 -4 1 10.88 0.96
-1 4 -1 11.77 1.02
-4 3 -1 12.45 0.99
4 -3 1 14.04 1.03
-3 -1 1 13.68 1.13
1 -4 1 13.45 1.08
-4 3 1 13.37 1.15
-4 1 -1 14.56 0.93
-1 -3 -1 13.47 1.18
-1 4 1 14.61 1.16
-3 -1 1 12.79 1.09
-4 1 -1 14.11 1.1
3 -4 -1 13.93 1.47
-4 1 -1 12.87 1.14
1 -4 1 13.8 1.33
-3 -1 1 13.29 1.18
-1 -3 -1 13.27 1.46
-3 4 -1 13.14 1.13
-4 3 1 13.5 1.14
-4 0 1 28.29 1.98
-4 0 1 28.06 1.97
-4 4 1 29.49 2.01
0 4 -1 29.17 1.96
-4 4 -1 25.14 2.02
0 -4 1 27.08 2.14
0 -4 -1 26.91 2.34
0 -4 -1 26.91 2.03
-4 0 1 27.19 2
-4 0 -1 29.62 2.05
4 -4 -1 26.9 2.14
0 4 1 29.12 2.02
-4 4 -1 27.63 1.91
-4 0 -1 26.8 1.91
-4 4 1 27.05 1.96
0 -4 1 27.08 1.98
-4 0 -1 27.49 2
4 -4 1 26.69 2.01
3 -5 1 16.9 1.62
-2 -3 1 18.35 1.57
2 -5 -1 18.28 1.77
-2 -3 1 18.1 1.5
-5 2 1 19.65 1.54
-3 -2 -1 18.91 1.57
-5 3 -1 18.99 1.45
-3 -2 -1 18.1 1.46
5 -3 -1 18.47 1.53
2 -5 -1 17.96 1.5
-5 2 1 17.81 1.46
-3 5 1 17.26 1.47
-2 5 -1 18.31 1.44
-2 -3 1 19.19 1.4
3 -5 1 17.79 1.37
-5 3 -1 19.74 1.46
-3 -2 -1 20.99 1.59
-2 -3 -1 27.06 1.96
-3 -2 1 25.77 1.99
-2 -3 -1 27.8 2.03
2 -5 1 26.55 1.91
2 -5 1 26.22 2.12
-5 3 1 24.79 1.97
-3 -2 1 27.16 1.97
-2 5 1 26.76 1.91
-2 -3 -1 28.38 2.14
-3 5 -1 24.66 1.94
-5 2 -1 27.66 2
-3 -2 1 26.44 1.88
-5 2 -1 28.1 1.97
3 -5 -1 25.62 2.25
-5 3 1 24.98 1.99
-1 5 -1 20.13 1.5
-5 4 -1 18.85 1.45
-4 5 1 20.12 1.55
-4 -1 -1 17.13 1.52
-5 1 1 19.44 1.45
4 -5 1 19.07 1.69
-5 1 1 19.73 1.61
5 -4 -1 20.15 1.64
1 -5 -1 18.74 1.99
-5 4 -1 19.33 1.51
-4 -1 -1 21.07 1.51
-1 -4 1 19.9 1.7
5 -1 1 17.14 1.34
1 -5 -1 19.1 1.56
-5 1 1 20.26 1.51
-4 -1 -1 20.81 1.62
-1 -4 1 20.08 1.58
-4 5 1 19.77 1.55
1 -5 1 18.24 1.42
-1 -4 -1 17.84 1.48
-1 -4 -1 19.78 1.8
1 -5 1 18.08 1.66
-5 1 -1 19.42 1.48
-5 4 1 18.3 1.44
-5 1 -1 16.4 1.21
-4 -1 1 18.47 1.52
-4 5 -1 17.2 1.44
-5 1 -1 17.33 1.46
-5 4 1 17.59 1.45
-4 -1 1 17.31 1.38
-4 -1 1 18.71 1.45
5 -4 1 18.57 1.39
4 -5 -1 17.37 1.77
-1 5 1 16.94 1.43
-5 0 -1 30.81 2.14
-5 5 1 29.7 2.23
-5 5 -1 29.95 2.14
-5 0 1 32.02 2.21
0 -5 1 31.27 2.27
0 -5 1 32.41 2.43
-5 0 -1 33.61 2.32
-5 0 1 29.92 2.19
-5 5 1 30.1 2.25
0 -5 -1 33.06 2.63
0 -5 -1 29.63 2.29
0 5 -1 30.3 2.21
5 -5 1 27.3 2.31
5 -5 -1 29.99 2.42
0 5 1 33.1 2.27
-5 0 1 30.79 2.26
-5 0 -1 31.24 2.25
-5 5 -1 30.66 2.26
-3 -3 -1 12.95 1.31
3 -6 -1 13.39 1.33
-6 3 -1 11.54 1.14
3 -6 1 11.1 1.44
-6 3 1 12.29 1.25
-6 3 1 12.76 1.2
-3 -3 -1 13.19 1.18
3 -6 1 13.18 1.11
-3 6 -1 12.52 1.08
-3 6 1 12.11 1.09
6 -3 -1 13.16 1.21
-3 -3 1 11.85 1.26
-6 3 -1 12.69 1.13
-3 -3 1 13.27 1.33
-3 -3 -1 12.09 1.3
3 -6 -1 12.57 1.7
-3 -3 1 12.74 1.14
2 -6 -1 11.52 1.16
-2 -4 1 11.87 1.27
-6 4 -1 10.43 1.06
2 -6 -1 11.58 1.64
-6 2 1 12.06 1.23
-4 -2 -1 9.29 1.08
-2 6 -1 10.97 1.06
4 -6 1 10.84 1.01
-4 -2 -1 11.04 1.23
-6 2 1 10.97 1.1
4 -6 1 9.39 1.3
6 -4 -1 11.47 1.21
-6 4 -1 11.89 1.19
-4 6 1 10.75 1.12
-2 -4 1 10.81 1.15
-4 -2 -1 12.51 1.19
2 -6 1 17.73 1.72
-4 -2 1 18.09 1.43
6 -4 1 15.99 1.18
-6 4 1 17.32 1.48
2 -6 1 17.64 1.4
-4 6 -1 17.58 1.46
-2 6 1 17.58 1.4
-6 2 -1 17.72 1.47
-4 -2 1 17.85 1.52
-4 -2 1 17.43 1.54
4 -6 -1 16.43 1.85
-2 -4 -1 17.17 1.68
-2 -4 -1 17.64 1.53
-6 4 1 16.93 1.47
-6 2 -1 17.93 1.52
5 -6 1 2.73 0.84
-1 -5 1 5.55 0.95
1 -6 -1 4.74 0.85
-6 1 1 6.24 0.95
-6 5 -1 4.14 0.64
-5 -1 -1 4.57 0.81
-1 6 -1 4.32 0.72
-6 1 1 3.93 0.74
-5 -1 -1 5.27 0.81
-1 -5 1 4.28 0.83
-5 -1 -1 6.22 0.95
-6 1 1 3.08 0.56
-5 6 1 4.72 0.78
-6 5 -1 5.71 0.91
-5 6 1 4.34 0.8
6 -5 -1 3.75 0.89
1 -6 -1 4.64 1.2
-5 -1 1 6.35 0.89
-6 5 1 7.53 0.93
-1 6 1 6.5 0.77
-5 -1 1 7.6 1.02
-6 1 -1 7.72 0.95
-6 1 -1 5.17 0.53
6 -5 1 5.58 0.93
1 -6 1 6.23 0.9
1 -6 1 6.8 1.13
5 -6 -1 6.91 1.14
-5 -1 1 6.37 0.88
-5 6 -1 6.23 0.89
-1 -5 -1 6.85 0.97
-6 1 -1 6.7 0.95
-1 -5 -1 7.83 1.23
-6 5 1 6.11 0.87
6 -6 -1 3.7 1.04
0 -6 1 5.96 0.92
-6 0 -1 4.48 0.66
0 6 -1 4.45 0.75
-6 0 -1 5.62 0.94
-6 6 -1 3.74 0.63
6 -6 1 3.57 0.85
-6 0 1 5.9 0.87
0 -6 -1 5.97 1.23
-6 0 1 3.58 0.64
-6 0 -1 5.37 0.84
-6 0 1 5 0.77
0 -6 1 6.51 1.09
-6 6 -1 4.66 0.84
-6 6 1 4.97 0.84
0 -6 -1 4.57 0.87
-6 6 1 5.86 0.79
-7 3 1 28.64 2.34
-7 4 -1 30.78 2.35
-3 -4 1 28.8 2.21
-3 -4 1 32.9 2.38
-3 -4 1 31.47 2.34
4 -7 1 27.78 2.49
-7 4 -1 29.07 2.26
-4 -3 -1 30.11 2.27
-4 -3 -1 32.08 2.38
3 -7 -1 31.6 2.33
-4 7 1 27.77 2.27
-3 7 -1 28.47 2.25
-7 3 1 31.24 2.3
-4 -3 -1 31.09 2.39
7 -4 -1 30.42 2.28
3 -7 -1 31.21 2.73
4 -7 1 31.07 2.19
-3 -4 -1 45.74 3.31
-4 -3 1 43.34 3.07
-4 7 -1 43.41 3.12
-3 7 1 42.16 3.12
4 -7 -1 45.3 3.5
3 -7 1 39.04 3.34
-4 -3 1 44.03 3.18
-3 -4 -1 47.15 3.22
7 -3 -1 44.24 3.1
-7 4 1 43.53 3.16
-4 -3 1 46.16 3.2
-7 3 -1 40.68 3.11
-3 -4 -1 46.15 3.14
3 -7 1 45.3 3.08
-7 4 1 43.21 3.16
4 -7 -1 44.73 3.17
-7 3 -1 43.15 3.18
-7 5 -1 22.53 1.8
-5 -2 -1 24.45 1.89
5 -7 1 20.14 2.14
2 -7 -1 24.01 1.94
-7 2 1 25.05 1.93
-2 7 -1 23.1 1.84
-2 -5 1 25.1 2.07
-7 2 1 22.93 1.98
-5 -2 -1 23.41 1.8
2 -7 -1 24.88 2.4
-5 7 1 21.75 1.88
7 -5 -1 21.19 1.97
-5 -2 -1 25.94 2.01
-2 -5 1 22.2 1.9
-7 5 -1 26.26 1.9
5 -7 1 23.27 1.79
-2 -5 -1 23.06 1.92
-7 5 1 21.86 1.83
-7 5 1 21.43 1.82
-7 2 -1 22.95 1.86
-5 7 -1 22.69 1.84
5 -7 -1 22.67 2.36
-2 7 1 21.19 1.84
-7 2 -1 23.78 1.9
-5 -2 1 23 1.83
-2 -5 -1 24.59 2.1
-5 -2 1 24.77 1.96
2 -7 1 22.82 2.14
2 -7 1 22.88 1.8
-5 -2 1 22.58 1.85
1 -7 -1 6.37 1.02
-7 6 -1 5.1 0.93
6 -7 1 2.79 0.96
-6 -1 -1 6.44 1.07
-6 7 1 3.31 0.85
-7 1 1 3.47 0.97
-6 7 1 6.32 0.95
-6 7 1 5.27 0.83
1 -7 -1 6.36 1.32
-7 6 -1 5.35 0.79
-7 1 1 4.41 0.71
-6 -1 -1 5.83 0.9
7 -6 -1 3.73 0.97
-1 7 -1 5.31 0.82
-7 1 1 7.05 0.93
-7 1 1 6.35 1.09
-1 -6 1 6.52 1.02
-6 -1 -1 5.85 0.87
-1 -6 1 7.01 1.12
-6 -1 1 7.48 0.98
-6 -1 1 8.61 1.16
-7 6 1 7.36 1
-6 7 -1 6.36 1.13
-1 -6 -1 7.86 1.27
6 -7 -1 6.26 1.31
7 -6 1 5.09 0.87
-1 7 1 6.93 0.98
-7 6 1 7.26 0.94
-7 1 -1 6.84 1.05
-6 7 -1 7.12 1.01
1 -7 1 7.31 1.29
1 -7 1 6.72 0.96
-6 -1 1 6.6 0.96
-7 1 -1 7.53 1.03
-1 7 1 5.08 0.92
-1 -6 -1 6.97 1.05
-7 0 -1 12.95 1.28
-7 7 1 13.2 1.33
0 -7 1 12.71 1.28
-7 7 -1 11.43 1.49
0 -7 -1 13.36 1.35
-7 0 1 13.48 1.27
-7 7 1 11.57 1.27
-7 7 1 10.52 1.42
7 -7 1 7.98 1.41
0 7 -1 10.85 1.4
0 7 -1 12.48 1.21
7 -7 -1 10.46 1.66
-7 7 -1 12.49 1.11
-7 0 1 13.33 1.43
-7 0 -1 13.02 1.4
-7 0 1 13.18 1.16
-7 0 -1 9.27 0.98
0 -7 -1 13.11 1.77
-7 7 -1 13.02 1.28
0 -7 1 12.93 1.67
-7 0 1 11 1.5
0 7 1 11.1 1.55
-8 4 1 9.37 1.22
-4 -4 1 9.66 1.24
4 -8 1 7.87 1.03
-4 -4 -1 9.07 1.08
-4 -4 1 9.01 1.11
-4 8 -1 7.94 1.11
8 -4 -1 8.77 1.04
-4 -4 -1 8.46 1.28
-4 -4 -1 8.28 1.16
-8 4 -1 7.99 1.28
4 -8 1 6.5 1.3
-4 8 1 8.49 0.96
4 -8 -1 9.44 1.2
-8 4 -1 8.01 1.21
-4 -4 1 8.94 1.21
4 -8 -1 9.18 1.52
-8 4 1 8.82 1.18
-8 4 -1 8.57 1.21
5 -8 1 3.01 0.7
3 -8 -1 4.09 1.26
-3 -5 1 3.99 1.01
-5 -3 -1 3.16 0.82
-8 3 1 3.77 0.97
8 -5 -1 3.26 0.77
-3 8 -1 3.98 0.85
-8 5 -1 5.78 1.03
-8 5 -1 3.14 0.92
3 -8 -1 4.81 0.96
-8 3 1 2.81 1.03
-5 -3 -1 4.03 0.88
-3 -5 1 4.69 0.96
-5 -3 -1 3.89 0.84
-5 8 1 3.44 0.87
5 -8 1 3.07 1.13
-8 5 -1 3.17 0.84
-5 8 1 1.47 0.85
-3 -5 1 4.5 0.87
-8 3 1 4.75 0.92
-8 3 -1 7.74 1.11
-3 -5 -1 6.25 1.09
8 -3 -1 5.78 0.96
-8 3 -1 6.29 1.15
-5 8 -1 5.92 0.85
-3 -5 -1 7.1 1.04
3 -8 1 5.41 0.88
5 -8 -1 5.4 1.33
-8 3 -1 7.3 1.05
-5 -3 1 7.52 1.15
-5 -3 1 7.43 0.96
-8 5 1 6.68 1.03
-5 -3 1 7.4 1.18
-8 5 1 6 1
-3 -5 -1 5.8 1.08
3 -8 1 6.22 1.26
-3 8 1 6.71 1.03
-3 8 1 4.41 0.88
-6 -2 -1 6.85 0.9
-6 8 1 4.86 0.99
-8 2 1 6.88 1.19
-6 -2 -1 7.04 1.05
-2 8 -1 7.16 1.01
-8 6 -1 6.43 0.92
-2 -6 1 6.74 1.07
-6 8 1 7.74 1.07
-2 -6 1 6.7 1.2
6 -8 1 4.99 1.12
2 -8 -1 8.17 1.23
6 -8 1 6.11 0.87
-2 8 -1 4.75 0.98
-6 -2 -1 10.78 1.33
-8 6 -1 7.27 0.99
8 -6 -1 4.46 0.99
2 -8 -1 7.14 1.47
-8 2 1 7.19 1.05
-8 2 1 6.11 1.16
-2 8 1 11.79 1.43
-2 -6 -1 13.35 1.45
-2 8 1 12.74 1.35
-8 2 -1 12.37 1.39
6 -8 -1 12.48 1.93
-6 -2 1 12.24 1.34
-6 8 -1 12.44 1.58
-8 6 1 11.6 1.36
-6 -2 1 13.75 1.34
-8 2 -1 12.66 1.41
-2 -6 -1 15.15 1.71
-6 -2 1 12.44 1.26
2 6 -1 11.27 1.41
-8 6 1 12.43 1.2
2 -8 1 10.81 1.77
-8 2 -1 10.93 1.5
-6 8 -1 12.49 1.34
2 -8 1 10.88 1.22
-8 1 1 4.12 1.01
-8 1 1 3.1 1.02
1 -8 -1 3.44 0.93
-7 8 1 2.51 0.87
-1 -7 1 3.93 1.02
-1 8 -1 2.98 0.88
-8 1 1 2.08 0.51
-8 1 1 4.21 1.06
-7 -1 -1 1.81 0.55
-8 7 -1 4.13 0.9
1 7 1 2.97 0.93
1 -8 -1 3.37 1.24
-7 -1 -1 4.19 1.05
7 -8 1 2.02 0.97
-8 7 -1 3.62 0.68
-8 7 -1 2.82 0.86
-7 8 1 3.09 0.89
8 -7 -1 1.96 0.95
-7 -1 -1 3.31 0.86
-1 8 -1 3.54 0.79
-1 -7 1 4.35 1
-1 -7 -1 6.97 1.12
-8 1 -1 6.74 1.14
-1 -7 -1 7.23 1.38
-7 8 -1 5.2 0.97
-1 8 1 6.29 1.01
-7 -1 1 6.1 0.98
-7 -1 1 4.75 1.08
-7 8 -1 6.48 1.05
-8 7 1 5.28 1
-8 1 -1 5.11 1.03
1 -8 1 5.77 0.99
-7 -1 1 6.52 1.22
-8 7 1 5.75 0.93
-8 1 -1 4.68 1.08
-1 8 1 6.22 1.02
7 -8 -1 4.46 1.28
1 7 -1 4.81 1
-8 7 1 6.6 0.93
1 -8 1 5.89 1.32
-7 -1 1 6.26 0.96
0 -8 -1 2.4 1.25
-8 0 1 1.52 0.53
-8 8 -1 3.78 0.87
-8 0 1 2.09 0.99
-8 8 -1 1.43 0.59
0 -8 -1 3.45 0.97
-8 0 1 3 0.96
0 -8 1 2.99 1.18
-8 8 -1 2.97 0.89
0 -8 1 2.46 0.88
-8 8 1 3.64 0.88
-8 0 -1 1.83 0.98
0 8 1 3.26 0.95
-8 0 -1 3.27 0.92
-8 0 -1 2.32 1
-8 0 1 2.66 0.91
-8 8 1 3.04 0.9
0 8 -1 2.51 0.89
8 -8 -1 0.72 1.06
-8 8 1 2.95 0.98
-9 4 1 12.18 1.7
-4 -5 1 13.77 1.57
5 -9 1 11.77 1.86
-9 5 -1 12.92 1.47
-5 9 1 12.25 1.44
4 -9 -1 14.96 1.64
-4 -5 1 14.71 1.6
5 -9 1 10.51 1.27
-4 -5 1 15.01 1.47
-9 5 -1 15.01 1.63
4 -9 -1 11.16 1.85
-9 4 1 13.29 1.54
-5 -4 -1 14.56 1.59
-4 9 -1 11.63 1.41
-5 9 1 9.52 1.34
-9 5 -1 13.26 1.56
-4 9 -1 14.37 1.41
-9 4 1 13.93 1.49
-5 9 1 11.46 1.69
-5 -4 -1 15.84 1.49
-5 -4 -1 15.26 1.63
-9 4 -1 24.58 1.99
-4 9 1 23.72 1.99
5 -9 -1 23.68 2.54
-4 -5 -1 23.39 2.15
4 -9 1 20.88 2.38
-5 9 -1 22.69 1.98
-4 -5 -1 21.27 2.05
-5 9 -1 21.64 2.03
-5 -4 1 25.97 2.11
-9 4 -1 23.96 2.09
-4 9 1 21.6 1.94
-9 5 1 24.31 1.91
-9 5 1 22.63 2.1
5 -9 -1 24.23 2.09
-9 5 1 20.43 2.14
-5 -4 1 24.02 1.98
-9 4 -1 22.86 2.1
4 -9 1 17.96 1.82
-4 -5 -1 24.78 2.01
-5 -4 1 22.18 2.09
3 6 1 8.45 1.37
3 -9 -1 11.32 1.43
-6 9 1 10.51 1.62
-6 -3 -1 11.61 1.32
-9 6 -1 10.89 1.55
-3 9 -1 10.36 1.3
-6 9 1 11.22 1.37
-6 -3 -1 9.41 1.33
-3 9 -1 8.16 1.27
6 -9 1 7.61 1.45
-3 -6 1 11.8 1.76
-9 3 1 9.43 1.62
-6 -3 -1 11.44 1.39
-9 3 1 11.66 1.49
-3 -6 1 10.6 1.24
-9 6 -1 9.8 1.16
-3 -6 1 12.18 1.58
3 -9 -1 13.29 1.9
-9 3 1 10.2 1.38
-9 6 -1 12.21 1.51
-6 -3 1 6.03 1.16
-6 -3 1 4.9 1
-3 9 1 5.41 0.96
-9 3 -1 5.04 1.13
-3 -6 -1 5.53 1.18
-9 6 1 4.24 1.04
-9 3 -1 4.94 1.04
3 6 -1 5.37 1.06
3 -9 1 3.14 0.85
-6 9 -1 3.78 0.92
-6 -3 1 4.22 0.87
-3 -6 -1 5.78 1.05
3 -9 1 3.8 1.34
-3 9 1 5.54 1.03
-9 6 1 6.38 1.1
-9 3 -1 5.47 1.13
6 -9 -1 6.58 1.51
-3 -6 -1 5.19 1.1
-9 6 1 5.22 1
-6 9 -1 4.68 1.01
2 -9 -1 32.59 2.87
-7 -2 -1 31.74 2.51
-9 7 -1 28.58 2.36
-2 9 -1 24.77 2.39
7 -9 1 21.96 2.52
-2 -7 1 28.36 2.44
-9 7 -1 25.84 2.15
-9 7 -1 26.54 2.4
-2 -7 1 30.86 2.64
-7 9 1 28.15 2.43
-2 9 -1 29.93 2.2
-9 2 1 31.03 2.35
-7 9 1 28.16 2.32
2 7 1 30.39 2.59
-9 2 1 24.75 2.45
2 -9 -1 29.19 2.38
-9 7 -1 30.78 2.37
-7 -2 -1 28.4 2.33
-9 2 1 29.56 2.49
-9 2 -1 27.15 2.43
-7 -2 1 31.12 2.48
7 -9 -1 30.28 2.82
-2 -7 -1 31.16 2.66
-9 7 1 26.83 2.22
-7 9 -1 27.85 2.36
-9 7 1 28.19 2.29
-9 2 -1 30.34 2.37
-9 2 -1 27.74 2.37
2 -9 1 24.55 2.25
-2 9 1 29.84 2.3
-7 9 -1 26.01 2.29
-7 -2 1 30.08 2.24
2 7 -1 28.66 2.52
-9 7 1 26.64 2.46
-2 -7 -1 27.45 2.39
-7 -2 1 26.27 2.23
-7 -2 1 23.81 2.26
2 -9 1 28.3 2.78
-2 9 1 27.66 2.34
-1 9 -1 8.4 1.19
-9 8 -1 8.71 1.38
1 -9 -1 10.85 1.55
-8 9 1 8.6 1.6
-9 8 -1 9.12 1.31
-9 1 1 7.68 1.23
-1 -8 1 7.67 1.27
-8 -1 -1 7.85 1.45
1 8 1 9.49 1.39
-8 -1 -1 7.67 1.08
1 -9 -1 9.45 1.58
-8 9 1 8.43 1.1
-1 9 -1 9.19 1.49
-9 1 1 8 1.49
-8 -1 -1 8.91 1.46
-1 -8 1 8.93 1.58
-9 1 1 9.66 1.51
-8 -1 1 7.72 1.23
1 -9 1 5.99 1.16
-8 9 -1 8.72 1.37
-1 9 1 9.14 1.21
1 8 -1 8.04 1.28
-8 9 -1 7.85 1.21
-1 -8 -1 7.95 1.55
-9 8 1 7.42 1.11
1 -9 1 6.6 1.56
-9 8 1 7.65 1.26
-9 1 -1 7.79 1.42
-9 8 1 7.05 1.2
-1 -8 -1 6.46 1.24
-9 1 -1 9.23 1.47
-9 1 -1 8.31 1.26
-8 -1 1 7.37 1.35
-8 -1 1 9.39 1.46
-9 0 -1 0.9 1.1
-9 9 1 0.6 0.7
-9 0 1 -1.23 1.02
-9 0 -1 0.2 0.9
-9 0 -1 1.29 0.92
-9 9 -1 0.8 0.82
-9 9 1 -0.09 0.87
0 -9 1 -1.37 1.13
0 9 1 0.79 0.97
0 -9 1 0.18 0.82
-9 9 1 0.54 0.83
0 -9 -1 0.57 1.27
0 -9 -1 -0.43 0.95
-9 9 -1 0.22 0.9
-9 0 1 0.33 0.87
0 9 -1 -0.09 0.87
-9 0 1 0.57 1.07
-5 -5 1 68.95 4.94
-10 5 1 68.19 4.87
-10 5 -1 71.19 4.95
5 -10 -1 67.44 5.19
-5 -5 -1 70.25 4.92
-10 5 1 66.01 4.9
-5 10 1 64.76 4.82
-5 -5 1 73.93 4.96
-5 10 -1 62.67 4.84
5 -10 -1 70.17 4.91
-10 5 -1 68.69 4.85
-5 10 1 63.35 4.76
-10 5 -1 69.17 4.91
-5 10 -1 63.48 4.8
-5 -5 -1 70.92 4.96
-5 10 1 68.84 4.98
5 -10 1 67.76 5.19
-10 5 1 70.55 4.91
-5 -5 -1 70.44 4.86
-5 -5 1 72.67 4.84
-5 10 -1 67.01 4.76
-4 -6 1 5.29 1.15
-6 -4 -1 5.68 1.3
-10 4 1 6.72 1.34
-4 10 -1 5.53 1.13
-6 -4 -1 3.84 1.01
-10 6 -1 7.17 1.31
-4 10 -1 5.82 1.12
4 6 1 5.03 1.04
-10 6 -1 7.01 1.36
6 -10 1 4.76 1.48
-6 -4 -1 7.08 1.2
-6 10 1 4.61 1.05
-4 -6 1 6.87 1.28
4 -10 -1 3.08 1.43
-4 10 -1 6.59 1.15
-10 4 1 6.39 1.26
-10 4 1 6.16 1.2
-6 10 1 6.02 1.12
4 -10 -1 5.29 1.2
-4 -6 1 5.85 1.02
-10 6 -1 3.99 0.94
-6 10 1 3.63 0.84
-10 4 -1 6.49 1.25
-6 -4 1 3.71 0.93
-10 6 1 5.85 1.23
-6 10 -1 5.55 1
6 -10 -1 4.84 1.15
-4 -6 -1 4.85 1.11
6 -10 -1 2.96 1.39
-10 6 1 5.4 1.09
-10 6 1 4.94 1.08
-4 10 1 5.24 1.1
-10 4 -1 5.17 1.22
4 6 -1 4.43 1.14
-4 -6 -1 5 1.21
-6 10 -1 4.69 1.11
4 -10 1 4.29 1.43
-6 -4 1 6.02 1.3
-4 10 1 5.92 1.06
-10 4 -1 4.09 1.09
-6 -4 1 4.5 1.08
-4 -6 -1 5.88 1.24
-10 7 -1 39.75 3.11
-7 -3 -1 37.84 3.02
-3 10 -1 37.69 3.03
3 7 1 39.97 3.15
-7 10 1 40.8 3.12
-3 -7 1 37.41 2.93
-7 10 1 36.32 3.01
-7 -3 -1 44 3.23
-3 10 -1 38.97 2.91
3 -10 -1 43.2 3.56
3 -10 -1 38.33 3.1
-10 3 1 38.06 3.04
-3 -7 1 39.66 3.26
-10 7 -1 38.89 2.99
-10 7 -1 36.53 2.99
-10 3 1 39.38 3.22
-10 3 1 36.49 3.13
-3 -7 1 36.03 3.06
-7 10 -1 47.83 3.57
-3 -7 -1 47.29 3.74
-10 7 1 45.74 3.45
-7 -3 1 45.93 3.38
-3 10 1 45.82 3.45
-3 -7 -1 45.7 3.53
-10 3 -1 46.08 3.52
7 -10 -1 48.86 3.82
-10 7 1 47.54 3.59
-10 3 -1 44.78 3.49
3 7 -1 46.4 3.61
-3 10 1 43.84 3.42
3 -10 1 47.2 3.92
-10 7 1 41.57 3.43
-7 -3 1 38.03 3.36
-10 7 1 45.13 3.44
-7 10 -1 46.07 3.36
-7 -3 1 51.53 3.65
-3 -7 -1 49 3.5
-10 3 -1 47.33 3.57
-8 10 1 23.85 2.27
-2 -8 1 22.16 2.05
-10 2 1 23.26 2.15
-10 8 -1 26.25 2.32
-2 10 -1 22.76 2.23
-8 -2 -1 22.8 2.14
-2 -8 1 21.44 2.17
-10 2 1 26.43 2.39
2 -10 -1 22.48 2.31
-10 8 -1 23.43 2.23
2 -10 -1 27.09 2.84
2 8 1 27.01 2.49
-2 10 -1 23.38 2.1
-8 -2 -1 30.61 2.46
-8 10 1 22.69 2.14
-2 -8 1 26.1 2.59
-10 2 1 24.44 2.34
-10 8 -1 24.9 2.21
-8 10 -1 31.7 2.58
-2 10 1 28.87 2.49
-8 10 -1 28.49 2.48
-10 2 -1 29.56 2.61
2 8 -1 29.13 2.59
-2 10 1 30.11 2.49
-8 -2 1 27.79 2.46
-10 2 -1 30.3 2.56
2 -10 1 31.06 3.04
-10 8 1 30.6 2.58
-2 -8 -1 31.24 2.54
-2 -8 -1 32.17 2.62
-10 2 -1 29.85 2.59
-10 8 1 29.01 2.47
-10 8 1 27.22 2.42
-8 -2 1 31.1 2.71
-8 -2 1 27.74 2.52
-2 -8 -1 33.76 3.16
-9 10 1 6.95 1.18
-9 -1 -1 4.54 1.12
1 9 1 6.95 1.21
-10 1 1 3.06 1.05
-10 1 1 7.24 1.45
-1 10 -1 6.4 1.16
-1 -9 1 5.97 1.54
-10 9 -1 6.04 1.15
-10 9 -1 5.64 1.19
-9 -1 -1 5.13 1.26
-9 -1 -1 5.15 1.34
1 -10 -1 3.87 1.54
-9 10 1 6.03 1.2
1 -10 -1 4.53 1.11
-10 1 1 5.73 1.29
-10 1 -1 2.56 1.02
-1 -9 -1 1.68 1.08
-10 1 -1 3.11 1.16
-9 10 -1 3.41 0.89
-9 -1 1 3.75 1.24
-10 9 1 2.62 0.94
1 -10 1 1.57 1.43
-10 1 -1 3.27 1.19
-9 10 -1 2.97 0.93
-9 -1 1 -0.12 0.82
1 9 -1 2.98 1.05
-1 10 1 3.25 0.96
-1 -9 -1 1.17 1.31
-10 9 1 2.91 1.03
-9 -1 1 2.11 1.25
-10 10 -1 24.25 2.27
0 10 -1 27.05 2.38
-10 10 -1 24.05 2.29
-10 10 1 24.14 2.33
0 -10 1 27.83 2.89
-10 0 -1 26.45 2.48
0 -10 -1 25.23 2.91
0 10 1 30.09 2.5
-10 0 -1 18.82 2.17
-10 10 1 22.98 2.22
-10 0 1 30.17 2.58
-10 0 -1 24.65 2.42
-10 0 1 25.57 2.53
-11 5 1 11.96 1.62
-11 5 1 13.06 1.69
-5 11 -1 13.15 1.57
-6 11 1 11.48 1.58
5 -11 -1 8.93 1.8
-11 5 1 11.69 1.68
-5 11 -1 12.34 1.58
-5 -6 1 9.42 1.56
-5 -6 1 13.38 1.68
-5 11 -1 10.73 1.55
-6 11 1 12.23 1.61
-11 6 -1 12.59 1.52
-11 6 -1 13.96 1.67
-6 -5 -1 11.42 1.71
-6 11 1 12.96 1.83
-6 -5 -1 11.31 1.56
-11 5 -1 10.2 1.53
5 6 -1 5.99 1.3
-11 5 -1 9.73 1.55
-6 11 -1 9.71 1.44
-5 -6 -1 8.84 1.48
-6 11 -1 9.59 1.42
-5 -6 -1 7.52 1.32
-5 11 1 8.31 1.41
-5 11 1 8.15 1.39
5 -11 1 5.42 1.55
-5 11 1 8.91 1.36
6 -11 -1 5.84 1.52
-6 11 -1 7.84 1.32
-11 6 1 9.92 1.48
-11 6 1 6.67 1.28
-6 -5 1 8.67 1.49
-11 6 1 9.07 1.37
-7 -4 -1 12.89 1.64
-11 4 1 12.34 1.6
-11 7 -1 14.95 1.71
-4 -7 1 12.97 1.8
-4 11 -1 13.75 1.84
-4 11 -1 10.46 1.61
-4 11 -1 14.37 1.44
-4 -7 1 13.29 1.71
-7 11 1 12.59 1.63
-11 7 -1 13.25 1.67
-11 4 1 12.73 1.74
-7 -4 -1 14.68 1.85
-7 11 1 15.93 1.92
4 -11 -1 9.68 1.92
4 7 1 15.42 1.88
-11 7 -1 13.77 1.81
-11 4 1 15.51 1.82
-7 11 1 13.32 1.53
-7 11 -1 13.28 1.63
-11 7 1 12.8 1.56
-7 11 -1 15.24 1.78
4 -11 1 8.17 1.79
-4 -7 -1 13.58 1.71
-11 4 -1 12.48 1.74
-11 7 1 12.18 1.59
-11 4 -1 13.87 1.71
-4 -7 -1 8.27 1.54
-7 -4 1 13.99 1.82
-11 7 1 12.73 1.63
-4 -7 -1 14.68 1.64
-4 11 1 11.31 1.53
-4 11 1 12.39 1.56
4 7 -1 13.95 1.95
-3 11 -1 9.65 1.54
-11 8 -1 11.06 1.65
-11 8 -1 8.53 1.47
3 -11 -1 6.39 1.7
-11 3 1 11.12 1.68
-11 8 -1 11.2 1.47
-8 11 1 11.96 1.6
-3 11 -1 6.25 1.24
3 8 1 14.31 1.76
-11 3 1 9.01 1.56
-3 -8 1 8.9 1.55
-8 -3 -1 13.61 1.77
-8 11 1 9.76 1.45
-8 -3 -1 7.93 1.32
-11 8 1 13.4 1.72
-11 3 -1 11.81 1.67
-3 -8 -1 12.82 1.7
-8 11 -1 16.46 1.74
-3 11 1 13.14 1.61
-11 8 1 13.91 1.58
-3 -8 -1 13.65 1.63
-11 8 1 13.89 1.7
-8 11 -1 13.68 1.63
-3 11 1 11.51 1.59
3 -11 1 9.81 1.88
-3 -8 -1 9.49 1.74
-8 -3 1 12.79 1.74
3 8 -1 14.73 1.99
-8 -3 1 15.65 1.91
-11 3 -1 13.96 1.87
-11 9 -1 58.62 4.29
-2 -9 1 51.44 4.52
-9 11 1 55.01 4.18
-9 -2 -1 55.6 4.45
2 -11 -1 54.76 4.75
-11 9 -1 60.84 4.35
-9 11 1 65.72 4.4
-9 -2 -1 58.3 4.33
-2 11 -1 53.23 4.27
-11 2 1 63.35 4.53
-11 9 -1 59.51 4.32
-11 2 -1 50.53 4.05
-2 11 1 55.54 3.99
-11 9 1 52.8 4.05
2 9 -1 52.54 4
-9 11 -1 59.66 4.01
-9 -2 1 50.39 4.11
-9 11 -1 49.17 3.82
2 -11 1 42.51 4.28
-9 -2 1 54.96 4.06
-11 10 -1 36.99 3.17
1 10 1 43.77 3.36
-1 11 -1 40.15 3.2
-10 -1 -1 36.78 3.19
-10 11 1 44.1 3.28
-11 1 1 37.52 3.38
-11 11 1 9.54 1.63
-11 11 -1 9.38 1.72
-11 0 -1 8.08 1.49
0 11 -1 11.98 1.56
-11 0 1 8.58 1.64
0 11 1 11.73 1.59
-6 12 1 5.59 1.19
-6 -6 -1 2.71 1.14
-12 7 -1 14.26 1.83
-5 12 -1 10.05 1.67
-12 5 1 13.84 1.93
-5 12 -1 12.22 1.62
5 7 1 9.36 1.55
-7 12 1 13.3 1.9
-7 12 1 10.62 1.62
-7 12 -1 8.84 1.41
-5 12 1 10.07 1.63
-12 5 -1 13.15 1.81
-7 12 -1 13.09 1.75
5 7 -1 11.5 1.63
-12 7 1 9.37 1.73
-12 7 1 11.96 1.75
-5 12 1 8.77 1.61
-4 12 -1 5.93 1.09
-8 12 1 5.95 1
-4 12 -1 10.48 1.48
-8 12 -1 9 1.49
-12 4 -1 8.4 1.56
-4 12 1 7.11 1.19
4 8 -1 8.57 1.4
-12 8 1 6.43 1.3
-12 8 1 7.82 1.35
-9 12 1 16.59 1.95
3 9 1 18.35 2.26
-3 12 -1 14.94 2
-12 9 -1 15.98 1.98
-12 3 1 17.69 2.25
-12 9 -1 16.42 1.98
-12 9 1 14.01 1.96
-12 9 1 10.89 1.58
-12 3 -1 15.6 2.04
-9 12 -1 15.76 1.79
-3 12 1 15.82 1.89
3 9 -1 15.39 1.92
-9 -3 1 13.83 1.9
-10 12 1 9.69 1.61
-2 12 -1 11.78 1.57
-10 -2 -1 7.81 1.5
-12 10 -1 6.26 1.29
2 10 1 7.96 1.39
-12 10 -1 7.88 1.51
-12 2 1 10.08 1.66
-2 12 1 14.73 1.95
-12 2 -1 14.44 2.06
-12 10 1 14.07 2
-10 -2 1 13.16 2.02
2 10 -1 13.73 2.08
-10 12 -1 16.84 1.98
1 11 1 25.54 2.54
-12 1 1 22.28 2.48
-11 12 1 24.34 2.48
-11 -1 -1 21.46 2.45
-1 12 -1 22.8 2.44
-12 11 -1 22.69 2.29
-12 1 -1 13.4 2.06
1 11 -1 13.26 1.88
-12 11 1 14.98 1.88
-11 -1 1 13.13 2.08
-1 12 1 14.28 1.84
-11 12 -1 14.55 1.98
0 12 1 45.79 3.72
-12 0 -1 43.98 3.82
0 12 -1 43.82 3.74
-12 12 1 45.48 3.69
-12 0 1 45.73 3.86
-12 12 -1 47.08 3.75
-6 13 -1 0.71 1.01
-13 6 1 2.09 1.25
7 6 -1 0.5 1.12
-7 13 1 0.83 0.96
-7 13 1 1.19 1.08
-6 13 -1 0.8 0.93
6 7 1 -0.25 1.1
-13 7 -1 1.51 1.02
6 7 -1 0.94 1.13
-7 13 -1 1.04 0.89
-13 7 1 1.57 1.16
-13 7 1 -0.38 0.73
-6 13 1 -0.11 0.99
-13 6 -1 1.31 1.13
-6 13 1 0.24 0.87
-7 13 -1 0.34 0.9
-8 13 1 21.6 2.16
-5 13 -1 23.89 2.24
-13 8 -1 25.63 2.38
-5 13 -1 17.51 2.18
5 8 1 21.57 2.43
-8 13 1 25.81 2.36
-13 8 -1 21.55 2.26
-13 5 1 25.58 2.46
-13 8 1 22.95 2.45
-13 8 1 23.07 2.35
5 8 -1 24.61 2.63
-8 13 -1 27.97 2.49
-13 5 -1 25.32 2.42
-5 13 1 22.5 2.39
-9 13 1 4.31 1.22
-13 9 -1 5.18 1.29
-4 13 -1 3.4 1.14
-13 4 1 5.51 1.49
4 9 1 4.51 1.33
-13 9 -1 4.24 1.07
-13 4 -1 5.28 1.44
-13 9 1 2.89 1.05
-9 13 -1 4.1 1.06
-4 13 1 2.77 1.11
-13 9 1 2.61 1.13
-9 -4 1 1.65 1.01
4 9 -1 2.97 1.19
-3 13 -1 11.73 1.78
-13 10 -1 10.21 1.73
-10 13 1 14.71 1.85
3 10 1 14.52 2
-13 10 -1 13.15 1.93
-13 3 1 13.28 2
-3 13 1 11.57 1.72
-10 13 -1 13.99 1.92
-13 3 -1 12.86 1.88
-10 -3 1 11.97 2
3 10 -1 14.03 1.84
-13 10 1 12.66 1.99
-13 10 1 8.16 1.63
2 11 1 27.57 2.7
-13 2 1 27.95 2.87
-2 13 -1 23.35 2.54
-11 -2 -1 21.43 2.53
-13 11 -1 20.29 2.3
-11 13 1 26.21 2.6
-13 11 -1 25.34 2.44
2 11 -1 20.97 2.33
-11 -2 1 19.67 2.47
-13 11 1 20.42 2.41
-11 13 -1 21.52 2.27
-13 2 -1 21.26 2.36
-2 13 1 22.02 2.34
-12 13 1 7.12 1.4
-13 1 1 9.32 1.89
-1 13 -1 7.25 1.45
1 12 1 6.14 1.37
-13 12 -1 6.24 1.44
-12 -1 -1 6.7 1.62
-13 12 1 9.24 1.58
-12 -1 1 8.33 1.72
-1 13 1 9.13 1.48
1 12 -1 8.84 1.5
-13 1 -1 7.24 1.67
-12 13 -1 9.47 1.51
-13 0 1 1.67 1.4
-13 13 1 0.98 1.13
0 13 -1 1.05 1.12
-13 13 -1 1.44 1.06
-13 0 -1 -0.24 1.27
0 13 1 0.94 1.05
-14 7 -1 2.54 1.25
-7 14 -1 1.24 1.02
-7 14 -1 1.37 1
-7 14 1 0.9 0.97
-14 7 1 1.64 1.19
7 7 -1 1.61 1.24
-7 14 1 1.12 1.01
-6 14 -1 17.48 2.21
-14 6 1 23.72 2.48
-8 14 1 25.09 2.6
-14 8 -1 26.9 2.52
-6 14 -1 25.15 2.44
-8 14 1 22.24 2.29
6 8 1 18.9 2.62
-6 14 1 16.26 2.22
-14 6 -1 19.58 2.19
6 8 -1 15.72 2.34
-6 14 1 18.25 2.04
-8 14 -1 21.56 2.12
-14 8 1 21.95 2.35
-8 14 -1 15.75 1.99
-9 14 1 2.05 0.89
-14 5 1 5.27 1.58
-14 9 -1 3.04 1.1
-5 14 -1 3.5 1.21
-14 9 -1 3.19 1.14
-5 14 -1 1.02 0.94
-9 14 1 3.83 1.24
5 9 1 3.52 1.39
-14 9 1 3.45 1.19
-14 9 1 3.33 1.24
5 9 -1 3.72 1.25
-14 5 -1 5.2 1.43
-9 14 -1 4.93 1.24
-5 14 1 3.06 1.11
-14 4 1 66.77 4.82
4 10 1 63.94 4.74
-10 14 1 62.83 4.65
-4 14 -1 54.95 4.42
-14 10 -1 55.68 4.44
-14 10 -1 50.91 4.43
-14 10 1 52.47 4.38
-4 14 1 55.23 4.29
-10 14 -1 59.06 4.38
4 10 -1 54.63 4.47
-14 4 -1 53.71 4.34
-3 14 -1 6.63 1.35
-11 14 1 10.23 1.64
-14 11 -1 7.44 1.51
-14 3 1 12.57 2.1
-14 11 -1 6.12 1.38
3 11 1 8.38 1.66
-11 14 -1 10.53 1.94
-14 3 -1 13.64 2.01
-11 -3 1 7.8 1.59
-14 11 1 5.71 1.35
-3 14 1 10.41 1.53
3 11 -1 8.15 1.54
-14 11 1 9.57 1.66
-14 12 -1 4.91 1.38
-2 14 -1 6.91 1.45
-12 14 1 5.75 1.39
-14 2 1 7.04 1.77
-12 -2 -1 3.79 1.43
2 12 1 5.88 1.43
-2 14 1 8.98 1.55
-14 12 1 5.27 1.33
-14 2 -1 9.16 1.85
2 12 -1 5.73 1.35
-12 -2 1 4.96 1.52
-1 14 -1 7.68 1.54
-14 1 1 4.47 1.66
-13 -1 -1 4.62 1.54
-14 13 -1 6.58 1.49
1 13 1 6.32 1.56
-13 14 1 6.98 1.48
-13 -1 1 4.51 1.69
-14 13 1 4.6 1.33
-14 1 -1 4.66 1.62
1 13 -1 7.22 1.49
-13 14 -1 4.71 1.29
-1 14 1 6.16 1.45
-14 14 -1 1.81 1.27
14 -14 -1 -0.61 0.6
0 14 1 1.58 1.26
14 -14 1 0.12 0.78
0 14 -1 1.39 1.1
-14 0 -1 1.22 1.57
-14 14 1 1.26 1.2
-14 0 1 -0.12 1.51
14 0 -1 0.16 0.56
-7 15 -1 2.58 1.13
7 8 1 -0.4 1.69
-8 15 1 4.07 1.23
-15 8 -1 5.89 1.44
-8 15 1 5.7 1.28
-7 15 -1 4.95 1.25
-15 7 1 10.09 1.79
-8 15 -1 4.5 1.27
-15 8 1 6.41 1.59
-7 15 1 3.17 1.21
-8 15 -1 3.38 1.19
-15 7 -1 6.49 1.43
7 8 -1 2.53 1.36
-7 15 1 4.9 1.27
-15 9 -1 -0.49 0.76
-6 15 -1 0.57 1.14
6 9 1 0.72 1.28
-15 9 -1 0.28 1.2
-6 15 -1 -0.74 0.92
-9 15 1 0.95 0.98
-9 15 1 1.57 1.19
-15 6 1 1.46 1.32
-9 15 -1 1.21 1.12
-15 6 -1 0.81 1.26
-6 15 1 -0.01 1.1
-15 9 1 -1.04 0.97
6 9 -1 1.06 1.29
-15 9 1 1.44 1.3
-6 15 1 -1.2 1.04
5 10 1 4.6 1.45
-15 10 -1 3.99 1.25
-15 10 -1 6.15 1.41
-15 5 1 9.66 1.84
-10 15 1 6.87 1.46
-5 15 -1 5.28 1.34
-15 10 1 5.16 1.45
-15 10 1 4.13 1.37
5 10 -1 6.24 1.58
-5 15 1 6.14 1.4
-10 15 -1 5.39 1.33
-15 5 -1 7.86 1.7
4 11 1 6.58 1.49
-15 11 -1 5.81 1.46
-15 4 1 10.21 1.95
-15 11 -1 5.75 1.37
-11 15 1 8.74 1.48
-4 15 -1 9.32 1.6
-11 15 -1 10.3 1.65
-15 11 1 7.33 1.53
-15 4 -1 12.68 2.03
4 11 -1 7.97 1.59
-4 15 1 9.03 1.5
-15 12 -1 8.68 1.61
-15 12 -1 4.82 1.38
-12 15 1 10.43 1.84
-3 15 -1 7.68 1.48
-12 -3 1 9.5 1.75
-15 12 1 8.67 1.64
-3 15 1 12.45 1.78
-15 3 -1 9.59 1.8
-12 15 -1 10.12 1.93
3 12 -1 11.52 1.83
13 -15 1 28.65 2.62
-15 13 -1 38.34 3.4
-2 15 -1 41.29 3.33
13 2 -1 31.25 2.61
-13 15 1 28.89 2.65
-13 15 1 41.03 3.41
-13 -2 -1 30.92 3.21
2 13 1 41.38 3.42
-13 -2 1 35.53 3.42
-2 15 1 39.11 3.25
-15 13 1 37.8 3.49
13 -15 -1 32.15 2.8
2 13 -1 43.24 3.47
15 -13 1 32.73 2.76
-15 2 -1 36.93 3.41
-13 15 -1 42.56 3.53
-13 15 -1 28.26 2.76
-14 15 1 1.54 1.19
-1 15 -1 2.07 1.28
-14 15 1 2.39 0.97
-15 1 1 2.15 1.6
14 1 -1 1.56 0.9
15 -14 -1 1.41 0.94
-15 14 -1 -0.41 0.82
1 14 1 2.29 1.36
-15 14 -1 1.43 1.19
-14 -1 -1 1.16 1.52
14 -15 1 2.42 1.02
15 -1 -1 1.69 0.74
14 -15 -1 2.13 1.02
15 -14 1 2.71 1.02
-14 15 -1 2.08 0.93
-15 1 -1 3.68 1.7
1 14 -1 3.94 1.31
14 1 1 0.1 0.77
-15 14 1 0.56 0.85
-14 15 -1 3.76 1.46
-14 -1 1 2.77 1.57
-15 14 1 2.62 1.39
-1 15 1 2.66 1.25
-15 15 -1 22.1 2.14
-15 15 1 20.41 2.12
-15 15 1 21.5 2.62
-15 0 -1 23.34 3.01
0 15 1 23.9 2.8
-15 15 -1 20.72 2.8
15 0 1 16.5 1.94
15 0 -1 22.1 2.08
-15 0 1 24.47 3
0 15 -1 25.53 2.76
15 -15 -1 21.18 2.09
15 -15 1 19.48 2.2
-8 -8 -1 -0.76 0.56
-8 16 -1 -0.99 1.01
8 -16 -1 0.4 0.67
-8 16 -1 0.11 1.16
-8 16 1 -0.2 1.09
8 8 1 0.03 0.53
-8 -8 1 -0.64 0.57
-16 8 1 0.79 1.36
-8 16 1 0.21 1.12
-16 8 -1 1.32 1.28
-16 7 1 14.12 2.29
-9 16 1 7.23 1.36
-16 9 -1 12.36 2.09
-7 16 -1 8.35 1.52
-7 16 -1 7.85 1.54
7 9 -1 7.72 1.59
-7 16 1 5.14 1.34
-10 -6 -1 2.11 0.8
6 -16 -1 0.2 0.73
-16 6 1 7.29 1.82
-16 10 -1 3.27 1.36
6 10 1 3.46 1.5
-6 -10 1 2.59 0.82
-10 16 1 2.92 1.27
-6 16 -1 4.36 1.31
-16 6 -1 2.69 0.84
10 6 1 3.39 0.87
-16 6 -1 6.51 1.53
-10 16 -1 4.72 1.4
6 10 -1 3.94 1.33
-6 16 1 3.25 1.25
10 -16 -1 3.47 0.94
-16 10 1 4.7 1.41
-16 11 -1 17.11 2.34
11 5 -1 17.16 1.87
-16 5 1 22.26 2.63
-16 11 -1 16.97 2.34
-5 -11 1 17.3 1.77
5 11 1 18.42 2.58
-16 5 1 18.44 1.88
-11 16 1 23.07 2.43
-5 16 -1 20.85 2.48
11 5 1 16.17 1.82
-16 11 1 19.54 2.46
-5 16 1 19.35 2.39
11 -16 -1 17.88 1.84
-16 5 -1 14.66 1.74
16 -11 1 14.15 1.83
-11 16 -1 21.35 2.34
-16 11 1 16.42 2.24
-16 5 -1 18.84 2.5
-16 12 -1 46.92 3.95
-4 16 -1 49.69 3.94
-12 16 1 55.41 4.13
-16 12 -1 36.32 3.73
-4 -12 1 46.79 3.39
-12 16 1 38.88 3.39
-16 4 1 53.98 4.19
12 -16 1 43.46 3.39
-16 4 1 47.7 3.47
4 12 1 45.76 4.05
12 4 -1 42.11 3.43
12 -16 -1 47.83 3.66
12 4 1 43.8 3.59
-16 4 -1 53.93 4.31
-4 16 1 52.68 4.1
-16 4 -1 47.06 3.59
-12 16 -1 45.47 3.59
16 -12 1 44.98 3.62
-12 16 -1 54.03 4.15
-16 12 1 47.83 4.16
4 12 -1 53.38 4.25
13 -16 1 1.01 1.03
13 3 -1 0.65 0.91
-3 16 -1 1.05 1.22
3 13 1 0.88 1.28
-16 3 1 0.42 0.87
-3 -13 1 0.11 0.89
-16 13 -1 -0.03 1.17
3 -16 -1 0.2 0.68
-16 3 1 1.66 1.66
-13 16 1 1.19 1.27
-13 16 1 1.56 0.88
-16 13 -1 -0.49 1.22
16 -13 -1 0.38 0.89
13 3 1 1.15 0.98
-13 -3 1 0.28 1.15
-16 13 1 1.29 1.36
-13 16 -1 1.43 0.91
-16 3 -1 1.84 1.51
-13 16 -1 0.93 1.26
16 -3 -1 -0.21 0.59
16 -13 1 0.14 1.02
3 13 -1 0.42 1.16
13 -16 -1 0.06 0.99
-16 3 -1 0.4 0.83
-3 16 1 0.86 1.19
-16 14 -1 17.38 2.49
-14 16 1 19.33 2.42
2 -16 -1 12.87 1.66
14 -16 1 16.7 1.92
-2 16 -1 19.45 2.48
14 2 -1 15.63 1.83
-16 2 1 15.09 1.87
-16 2 1 18.88 2.79
16 -14 -1 14.81 1.85
-2 -14 1 14.41 1.77
2 14 1 19.64 2.68
-14 16 1 16.95 1.9
-16 14 -1 12.11 1.75
-16 2 -1 6.03 1.16
-16 14 1 7.13 1.65
-16 2 -1 13.47 2.33
-14 -2 1 7.83 1.79
-14 16 -1 9.65 1.79
14 -16 -1 11.47 1.47
16 -14 1 11.71 1.41
14 2 1 11.15 1.44
16 -2 -1 7.63 1.17
-16 14 1 9.53 1.37
-14 16 -1 12.15 1.64
-2 16 1 13.11 1.9
16 -15 -1 9.2 1.36
-16 15 -1 10.63 1.79
1 -16 -1 6.84 1.22
-16 1 1 10.55 1.45
-1 16 -1 9.98 1.7
-15 16 1 13.47 2.4
-1 -15 1 10.41 1.3
15 -16 1 14.33 1.58
-15 16 1 12.45 1.77
16 -1 1 9.43 1.32
-16 1 1 10.72 2.15
15 1 -1 12.81 1.46
-16 15 -1 10.53 1.9
1 15 1 11.3 1.83
1 15 -1 18.85 2.56
-16 1 -1 18.25 2.88
-1 16 1 18.45 2.52
-15 16 -1 16.72 2.61
-16 1 -1 12.69 1.76
15 -16 -1 15.52 1.99
-15 -1 1 16.58 2.58
16 -1 -1 15.4 1.87
-15 16 -1 17.96 1.91
-16 15 1 16.04 2.03
15 1 1 18.2 2.11
16 -15 1 17.41 1.93
-16 15 1 19.35 2.69
16 -16 -1 9.86 1.42
16 0 -1 8.23 1.31
-16 16 1 6.36 1.67
-16 0 -1 5.18 1.71
0 -16 -1 5.13 1.09
0 -16 1 6 1.13
-16 16 -1 9.33 1.32
-16 16 1 9.18 1.3
-16 16 -1 6.17 1.66
-16 0 1 8.36 2.04
16 -16 1 7.64 1.23
0 16 1 6.43 1.62
0 16 -1 8.15 1.69
16 0 1 10.07 1.42
-16 0 1 4.49 1.12
-17 9 -1 4.48 0.92
-17 9 -1 6.75 1.64
-9 -8 -1 7.5 1.12
-8 17 -1 4.98 1.42
-17 8 1 5.24 1.03
17 -8 1 5.92 1.21
9 8 -1 4.32 0.97
-9 17 1 3.03 1.22
-8 -9 1 5.3 1
-17 8 1 5.95 1.62
8 9 1 5.2 0.99
-8 17 -1 3.09 1.27
-9 17 1 3.67 1.29
8 -17 -1 7.34 1.23
-9 17 -1 5.19 1.45
9 -17 -1 5.71 1.18
-17 8 -1 5.4 1.01
-8 17 1 3.89 1.31
-9 -8 1 5.97 1.07
-17 9 1 8.74 1.89
-17 8 -1 8.71 1.81
17 -9 1 6.32 1.2
-8 -9 -1 8.3 1.16
9 8 1 4.94 0.99
7 -17 -1 5.86 1.2
17 -7 1 3.85 1
-7 17 -1 4.73 1.43
-10 17 1 3.72 1.44
-17 7 1 6.09 1.66
10 -17 1 4.73 1.01
-17 7 1 4.92 1.07
-10 -7 -1 3.27 0.93
7 10 1 4.4 0.98
-17 10 -1 4.82 1.58
-7 -10 1 4.11 0.98
10 7 -1 3.47 0.95
-17 7 -1 5.44 1.61
17 -10 1 2.94 1.07
-10 -7 1 4.16 0.98
-10 17 -1 4.75 1.47
10 7 1 5.88 1.14
-17 7 -1 6.4 1.05
10 -17 -1 6.46 1.25
-17 10 1 5.91 1.63
-7 -10 -1 6.4 1.1
-7 17 1 5.55 1.47
17 -11 -1 -0.09 0.65
-11 -6 -1 1.31 0.92
11 -17 1 1.14 0.98
6 -17 -1 2.46 1.07
17 -6 1 1.32 0.87
-11 17 1 0.1 0.75
-17 6 1 3.23 1.7
-11 17 1 1.68 1.32
6 11 1 0.59 0.8
11 6 -1 2.66 0.95
-17 11 -1 1.29 1.33
-6 -11 1 1.04 0.84
-17 6 1 1.95 0.89
-6 17 -1 3.72 1.42
6 11 1 0.3 1.41
11 -17 -1 2.06 1.1
6 11 -1 1.14 1.3
-11 -6 1 1.08 0.83
11 6 1 1.46 0.97
-17 6 -1 1.79 1.52
-17 11 1 1.69 1.4
17 -11 1 0.68 0.98
-11 17 -1 1.3 1.33
-6 17 1 1.61 1.22
-6 -11 -1 0.9 0.84
-17 6 -1 0.98 0.8
-11 17 -1 0.43 0.85
-17 5 1 1.93 1
-12 17 1 2.13 0.95
-5 -12 1 2.25 1.01
17 -12 -1 1.26 1.01
-12 17 1 1.64 1.37
-17 5 1 2.23 1.59
12 -17 1 2.45 1.06
12 5 -1 2.69 1.03
5 12 1 1.25 0.6
5 -17 -1 2.62 1.04
-17 12 -1 0.91 1.29
17 -5 1 1.84 0.92
5 12 1 2.31 1.38
-5 17 -1 1.2 1.28
-12 -5 -1 1.63 0.89
5 12 -1 1.34 1.31
-5 -12 -1 0.76 0.82
-12 -5 1 1.24 0.91
12 5 1 1.29 0.95
-12 17 -1 1.89 0.91
17 -12 1 1.5 0.98
12 -17 -1 2.37 1.14
-5 17 1 2.48 1.34
-17 5 -1 1.62 1.57
-17 12 1 0 1.17
-17 5 -1 0.76 0.84
-17 12 1 0 1.19
-12 17 -1 0.6 1.25
-4 17 -1 1.42 1.36
-13 17 1 1.34 1.37
-13 -4 -1 0.65 0.97
-17 13 -1 -0.73 1.19
-4 -13 1 0.39 0.93
13 -17 1 0.6 1.02
13 4 -1 0.83 0.96
4 -17 -1 0.26 0.98
17 -13 -1 0.16 1.03
4 13 1 -0.17 0.53
-17 4 1 1.89 1.62
4 13 1 0.55 1.36
17 -4 1 -0.21 0.91
-17 13 -1 0.9 1.26
-13 17 1 1.09 0.91
-17 4 1 0.85 0.95
17 -13 1 0.51 1.01
17 -4 -1 0.47 0.7
13 4 1 1.13 1.01
-17 4 -1 1.1 0.86
-4 17 1 -0.24 1.2
-13 -4 1 0.37 0.86
13 -17 -1 -0.05 1.11
-13 17 -1 1.55 0.92
-17 13 1 0.84 1.29
-17 4 -1 0.44 1.47
-4 -13 -1 0.15 0.8
4 13 -1 0.73 1.25
-13 17 -1 1.73 1.37
3 -17 -1 0.86 1.05
-17 14 -1 0.2 1.25
17 -3 1 0.6 0.87
14 3 -1 1.17 1.04
17 -14 -1 -0.41 0.97
-14 17 1 -0.13 1.29
3 14 1 0.7 1.38
-17 3 1 -1.06 0.87
-14 17 1 1.08 0.94
-3 17 -1 0.1 1.2
-3 -14 1 0.85 0.96
-17 3 1 1.17 1.68
14 -17 1 0.5 0.99
-17 14 -1 -0.99 0.8
-17 3 -1 0.37 0.88
3 14 -1 2.22 1.43
-14 -3 1 1.32 0.84
-3 17 1 2.87 1.35
17 -3 -1 2.14 0.99
-3 -14 -1 1.66 0.87
17 -14 1 2.39 1.1
-14 17 -1 4.16 1.07
-17 14 1 1.95 0.98
-17 3 -1 3.09 1.79
14 3 1 2.38 1.09
14 -17 -1 2.81 1.13
-17 14 1 2.03 1.34
-14 17 -1 3.44 1.53
17 -2 1 0.59 0.88
-15 17 1 3 1.08
15 2 -1 2.41 1.14
-17 15 -1 1.54 0.97
2 -17 -1 1.73 1.02
-17 15 -1 0.72 1.42
17 -2 1 2.22 0.97
-2 17 -1 2.13 1.28
-17 2 1 3.77 1.83
-17 2 1 1.29 0.99
17 -15 -1 0.95 0.98
2 15 1 2.76 1.5
-2 -15 1 1.49 0.99
-15 17 1 1.13 1.29
15 -17 1 2.38 1.11
15 2 1 -0.03 0.65
-17 15 1 1.22 1.33
-15 -2 1 0.12 0.68
-17 15 1 0.33 0.98
-17 2 -1 0.13 0.9
15 -17 -1 0.23 1
17 -2 -1 0.31 0.93
-15 17 -1 1.23 1.01
-17 2 -1 1.38 1.73
15 2 1 1.04 1.07
-2 -15 -1 -0.64 0.57
-2 17 1 1.18 1.28
2 15 -1 1.54 1.39
-15 17 -1 0.31 1.39
17 -15 1 0.42 0.99
-17 16 -1 15.99 1.91
-16 17 1 16.21 2.69
-17 16 -1 13.91 2.58
16 -17 1 16.09 1.9
17 -1 1 12.54 1.81
-1 17 -1 18.22 2.59
-17 1 1 13.22 1.92
1 -17 -1 13.88 1.8
-16 17 1 15.16 1.89
17 -1 1 13.36 1.96
-17 1 1 16.38 2.74
-1 -16 1 14.31 1.83
17 -16 -1 13.89 1.87
1 16 1 15.66 2.5
16 1 -1 15.71 1.97
-17 16 1 19.57 2.11
17 -16 1 24.16 2.14
-17 16 1 21.73 2.87
-16 17 -1 22.02 2.13
-17 1 -1 20.09 2.06
1 -17 1 17.89 1.82
-17 1 -1 18.67 2.84
16 -17 -1 19.87 2.13
-1 17 1 22.56 2.8
-16 17 -1 24.16 2.99
1 16 -1 19.58 2.66
16 1 1 16.63 1.93
-1 -16 -1 18.92 1.99
-16 -1 1 14.37 2.1
17 -1 -1 21.84 2.22
16 1 1 22.58 2.21
17 0 1 5.53 1.19
-17 17 -1 7.23 1.2
0 -17 -1 6.21 1.14
-17 17 -1 3.94 1.57
0 -17 1 6.45 1.18
-17 0 1 5.54 1.24
0 17 1 6.81 1.63
17 -17 -1 3.96 1.06
-17 0 -1 3.94 1.05
-17 17 1 7.95 1.25
17 0 -1 7.72 1.25
17 0 1 6.6 1.22
17 -17 1 8.59 1.29
-17 17 1 4.76 1.52
0 17 -1 7.26 1.66
-18 9 -1 5.42 1.04
9 9 -1 4.9 1.06
-18 9 1 4.39 1.04
-18 9 -1 3.85 1.51
18 -9 1 3.29 1.16
-9 -9 1 2.93 0.89
9 -18 -1 3.56 1.12
-9 -9 -1 3.87 0.99
-9 18 -1 1.32 1.15
9 9 1 3.83 0.96
-18 9 1 4.59 1.67
9 -18 1 3.17 1.04
-10 18 1 2.59 1.32
-18 10 -1 6.1 1.76
18 -10 -1 2.65 0.94
-8 -10 1 6.63 1.09
18 -8 1 4.38 1.12
10 8 -1 6.27 1.16
-18 8 1 5.57 1.71
10 -18 1 6.34 1.18
-18 8 1 6.02 1.08
-10 -8 -1 5.73 1.07
8 -18 -1 4.88 1.15
8 10 1 5.1 1.04
-18 10 -1 3.5 0.96
-18 10 1 6.93 1.78
8 10 -1 4.48 0.99
-18 8 -1 5.3 1.63
-8 18 1 6.27 1.49
8 -18 1 4.65 1.08
-18 10 1 6.11 1.07
-8 -10 -1 7.51 1.14
18 -10 1 6.08 1.25
-10 -8 1 8.05 1.16
-18 8 -1 9.01 1.2
10 8 1 8.35 1.17
10 -18 -1 8.77 1.37
-10 18 -1 4.54 1.52
-11 18 1 7.76 1.62
18 -7 1 8.99 1.4
-18 7 1 9.72 1.96
18 -11 -1 10.3 1.38
-11 -7 -1 8.8 1.19
11 -18 1 11.44 1.42
-11 18 1 9.02 1.29
-18 11 -1 6.25 1.12
-18 7 1 10.78 1.57
11 7 -1 7.59 1.19
-7 18 -1 6.78 1.59
7 11 1 9.84 1.28
-18 11 -1 9.43 1.96
-7 -11 1 13.16 1.35
7 -18 -1 7.79 1.28
-18 11 1 6.41 1.69
-18 7 -1 10.78 1.55
-18 7 -1 13.86 2.22
-11 18 -1 6.69 1.21
-11 18 -1 10.17 1.87
-7 -11 -1 10.25 1.5
7 -18 1 8.05 1.21
-7 18 1 10.11 1.76
18 -11 1 10.87 1.44
11 7 1 9.38 1.3
-11 -7 1 11.67 1.31
11 -18 -1 9.61 1.35
-6 18 -1 2.14 1.3
-18 12 -1 3.1 1.5
-18 6 1 2.05 0.92
18 -6 1 2.4 1.12
12 -18 1 2.52 1.11
-12 18 1 1.71 1.25
6 -18 -1 3.92 1.15
-12 -6 -1 1.83 0.9
6 12 1 2.13 0.82
12 6 -1 2.31 0.98
-18 6 1 5.19 1.85
-6 -12 1 2.78 1.01
18 -12 -1 2.33 1.04
-12 18 1 3.61 1.06
12 6 1 1.71 0.98
6 -18 1 1.32 0.77
-12 -6 1 0.95 0.87
-18 12 1 -0.02 1.28
-12 18 -1 1.44 0.98
6 12 -1 0.72 1.2
-12 18 -1 1.01 1.27
-18 6 -1 0.98 1.39
-6 18 1 1.6 1.24
6 12 -1 0.01 0.64
-6 -12 -1 1.87 0.93
12 -18 -1 3.04 1.13
18 -12 1 1.65 1.08
-18 6 -1 1.92 0.93
-5 -13 1 11.28 1.35
-13 18 1 8.08 1.29
-13 18 1 11.36 1.94
-18 5 1 12.02 1.42
-18 5 1 10.83 2.13
5 13 1 8.84 1.18
5 -18 -1 8.99 1.34
18 -5 1 7.56 1.34
13 5 -1 9.08 1.27
-5 18 -1 7.8 1.65
18 -13 -1 10.91 1.41
-13 -5 -1 11.6 1.67
13 -18 1 10.75 1.45
-5 -13 -1 9.13 1.26
-5 18 1 8.3 1.65
-13 18 -1 11.48 1.75
-18 5 -1 9.34 1.52
18 -13 1 9.89 1.36
-13 -5 1 11.16 1.3
13 5 1 12.05 1.4
-18 5 -1 7.93 1.87
-13 18 -1 11.32 1.98
5 13 -1 7.02 1.64
18 -5 -1 7.38 1.11
-18 4 1 0.89 1.68
-18 14 -1 -0.53 1.05
4 14 1 0.52 1.24
-14 18 1 1.71 0.97
14 4 -1 0.73 0.98
-18 4 1 -0.27 0.88
18 -4 1 1.39 0.99
18 -14 -1 -0.41 0.99
-4 18 -1 0.9 1.4
-14 -4 -1 0.45 0.97
4 14 1 1.07 0.82
-4 -14 1 0.64 0.95
4 -18 -1 0.83 1.07
-14 18 1 0.93 1.37
14 -18 1 0.5 1.01
14 -18 -1 2.65 1.16
18 -4 -1 0.92 0.91
18 -14 1 1.83 1.05
-4 -14 -1 2.38 1
-18 4 -1 2.78 1.8
4 14 -1 1.71 1.44
-4 18 1 1.86 1.33
-18 4 -1 0.24 0.83
14 4 1 -0.05 0.65
4 -18 1 0.69 0.78
-14 18 -1 2.79 1.46
-14 -4 1 1.59 0.92
-14 18 -1 3.84 1.07
-18 14 1 0.7 0.92
14 4 1 2.47 1.04
-18 3 1 10.81 1.74
-15 18 1 15.94 1.88
15 -18 1 16.05 1.86
-15 18 1 14.8 2.65
-3 18 -1 12.36 1.99
-15 -3 -1 15.04 1.78
18 -15 -1 11.73 1.54
-18 15 -1 12.72 1.8
15 3 -1 13.84 1.8
3 15 1 10 1.83
18 -3 1 12.26 1.77
-3 -15 1 11.44 1.75
-18 3 1 14.46 2.68
3 -18 -1 14.42 1.86
-15 18 -1 18.65 2.77
-15 -3 1 15.49 1.87
-18 3 -1 17.34 1.94
18 -3 -1 19.64 2.01
18 -15 1 18.03 2.02
15 -18 -1 18.61 2.02
-18 15 1 13.68 2.49
-18 3 -1 18.97 2.82
15 3 1 19.98 2.14
-3 -15 -1 17.41 1.93
3 15 -1 19.02 2.64
-15 18 -1 20.97 2.02
-18 15 1 16.19 1.96
-3 18 1 18.1 2.41
-18 2 1 4.59 1.78
18 -2 1 2.23 1.03
-18 16 -1 0.58 1.2
18 -16 -1 2.46 1.05
-16 18 1 3.02 1.42
16 -18 1 6.66 1.26
-16 18 1 6.52 1.2
-18 16 -1 4.75 1.15
2 -18 -1 3.75 1.01
-2 18 -1 4.99 1.58
-16 -2 -1 4.51 1.03
18 -2 1 3.21 1.06
2 16 1 2.78 1.43
16 2 -1 5.74 1.17
-2 -16 1 3.78 1.04
-18 2 1 2.76 1.07
-16 18 -1 1.5 1.39
18 -16 1 3.42 1.08
16 -18 -1 3.4 1.09
18 -2 -1 3.92 1.14
-16 18 -1 5.84 1.15
-18 2 -1 2.06 1.45
16 2 1 4.05 1.12
-2 -16 -1 3.07 0.87
16 2 1 2.6 0.85
-18 16 1 0.93 1.21
-2 -16 -1 3.64 1
-18 2 -1 2.1 0.96
-18 16 1 3.86 1.08
2 16 -1 2.6 1.46
-2 18 1 3.28 1.36
-16 -2 1 2.12 0.91
17 -18 1 4.13 1.14
-18 1 1 3.28 1.13
18 -1 1 3.04 1.14
18 -1 1 2.93 1.02
-18 17 -1 3.43 1.07
-17 18 1 4.72 1.11
-1 18 -1 1.67 1.29
-17 -1 -1 2.36 0.9
1 17 1 3.94 1.41
1 -18 -1 1.96 0.96
17 1 -1 3.7 1.1
-1 -17 1 4.34 1.07
18 -17 -1 3.79 1.09
-17 18 1 2.28 1.4
-1 -17 -1 -0.39 0.52
-17 -1 1 -0.35 0.61
-1 -17 -1 1.18 0.91
-17 -1 1 1.03 0.94
1 17 -1 1.29 1.33
18 -17 1 3.33 1.15
-1 18 1 2.17 1.35
17 1 1 2.33 1.03
1 -18 1 1.45 0.84
17 -18 -1 1.56 0.98
17 1 1 1.14 0.88
-18 17 1 1.65 0.94
-17 18 -1 1.64 1.39
-17 18 -1 2.45 1.03
-18 1 -1 1.67 0.97
18 -1 -1 1.65 1.06
-18 17 1 0.42 1.23
18 0 1 19.58 2.03
-18 0 1 17.29 2.05
-18 18 1 19.24 2.01
18 -18 1 21.21 2.11
18 -18 -1 20.04 2.03
-18 0 -1 17.11 1.82
18 0 -1 21.22 2.07
0 -18 1 18.57 1.82
-18 18 -1 20.58 2.13
18 0 1 17.17 1.94
-18 0 -1 16.58 2.01
0 -18 -1 16.48 1.91
10 9 -1 2.51 0.94
9 10 1 1.95 0.88
9 -19 -1 3.28 1.13
-9 -10 1 1.37 0.86
19 -9 1 1.05 0.98
-19 9 1 2.81 1.53
-10 -9 -1 2.23 0.91
-19 10 -1 3.31 0.96
10 -19 1 3.61 1.1
-19 9 1 2.79 0.98
-19 10 -1 1.39 1.47
19 -10 -1 1.44 1.08
-19 10 1 4.32 1
19 -9 -1 2.59 0.97
-19 9 -1 5.17 1.75
-19 10 1 4.54 1.73
-9 -10 -1 2.64 0.85
9 -19 1 3.94 1.13
19 -10 1 3.48 1.13
9 10 -1 3.9 1
-10 -9 1 4.64 1.01
-19 9 -1 2.82 0.91
10 9 1 4.39 1
10 -19 -1 5.1 1.15
8 -19 -1 14.35 1.57
-19 8 1 12.89 1.64
-8 -11 1 12.24 1.58
-19 8 1 9.74 1.98
8 11 1 10.99 1.65
11 -19 1 12.54 1.81
-19 11 -1 12.61 1.67
-11 -8 -1 13.84 1.6
19 -11 -1 12.61 1.56
-19 11 -1 13.19 2.21
-11 19 1 8.76 1.34
11 8 -1 13.71 1.5
19 -8 1 12.38 1.55
-19 8 -1 11.57 1.53
-8 -11 -1 6.29 1.09
8 11 -1 10.77 1.55
8 -19 1 7.87 1.29
-11 -8 1 11.54 1.51
11 -19 -1 12.04 1.42
-11 19 -1 8.76 1.24
-19 11 1 7.08 1.14
11 8 1 8.76 1.2
-19 8 -1 13.05 2.17
-19 11 1 8.06 1.79
19 -11 1 8.54 1.37
-19 12 -1 4.38 1.59
12 -19 1 12.26 1.45
-12 19 1 7.94 1.23
-7 -12 1 10.14 1.31
19 -7 1 10.26 1.41
19 -12 -1 10.01 1.37
-12 -7 -1 10.54 1.49
-19 7 1 11.57 1.6
7 12 1 7.69 1.12
-12 19 1 7.74 1.74
-19 12 -1 6.94 1.13
12 7 -1 9.4 1.27
7 -19 -1 7.97 1.26
-19 7 1 9.23 1.91
7 -19 1 7.45 1.22
-7 19 1 5.58 1.42
-7 -12 -1 6.03 1.07
-12 19 -1 9 1.25
7 12 -1 7.58 1.11
-19 7 -1 10.32 1.27
19 -12 1 5.49 1.19
12 7 1 7.5 1.15
-12 19 -1 5.19 1.51
-12 -7 1 8.55 1.19
-19 7 -1 5.29 1.7
12 -19 -1 9.83 1.39
-13 -6 -1 2.86 0.96
13 6 -1 3.17 0.93
6 13 1 2.6 0.92
19 -13 -1 3.13 1.09
-6 19 -1 2.08 1.24
6 -19 -1 2.58 1.05
-19 6 1 3.19 1.73
-13 19 1 2.49 0.98
13 -19 1 2.14 1.09
-19 6 1 1.8 0.9
-6 -13 1 2.46 0.97
-13 19 1 1.44 1.32
19 -6 1 3.14 1.1
13 6 1 1.41 0.86
19 -6 -1 0.67 0.71
-13 19 -1 1.64 0.93
-6 -13 -1 0.95 0.88
13 6 1 -0.03 0.61
6 -19 1 1.08 0.89
-6 19 1 2.61 1.34
6 13 -1 -0.05 0.49
19 -13 1 0.29 0.94
-19 6 -1 1.62 0.84
-19 6 -1 1.59 1.51
-13 19 -1 0.83 1.36
13 -19 -1 1.62 1.11
-13 -6 1 0.59 0.87
-14 -5 -1 2.54 1
14 5 -1 1.61 0.92
14 -19 1 2.05 1.03
5 14 1 1.96 0.92
-14 19 1 1.15 0.92
-14 19 1 1.97 1.46
-5 19 -1 1.9 1.28
5 -19 -1 0.38 1.04
-5 -14 1 1.55 0.94
19 -14 -1 1.12 0.95
19 -5 1 0.43 1
-19 5 1 2.46 1.72
-19 5 1 1.54 0.92
19 -5 -1 1.24 0.87
5 14 -1 -0.32 1.42
5 -19 1 0.51 0.86
14 5 1 0.32 0.94
-14 -5 1 0.91 0.91
19 -14 1 0.21 0.89
-14 19 -1 1 1.36
-5 19 1 0.15 1.24
14 5 1 0.11 0.6
14 -19 -1 0.76 1.07
-5 -14 -1 1.1 0.93
-14 19 -1 1.7 0.93
-19 5 -1 2.2 1.54
-19 5 -1 0.73 0.82
19 -4 1 0.05 0.75
-19 4 1 1.83 1.6
-15 19 1 1.6 0.95
19 -4 1 1.28 1.05
4 -19 -1 0.76 1.03
-15 19 1 1.58 1.43
-4 19 -1 1.05 1.24
19 -15 -1 1.47 0.99
-4 -15 1 0.62 0.89
15 -19 1 2.1 1.08
-19 15 -1 0.33 0.87
-15 -4 -1 2.24 0.96
4 15 1 1.37 0.84
15 4 -1 2.59 1
-19 4 1 1.73 0.9
-19 4 -1 0.84 0.84
-15 -4 1 -0.19 0.81
-4 -15 -1 -0.31 0.91
-15 19 -1 1.52 0.91
-19 4 -1 0.33 1.55
15 4 1 0.08 0.59
4 -19 1 0.76 0.77
-4 19 1 1.4 1.23
15 -19 -1 0.83 1.03
-15 19 -1 1.14 1.42
19 -15 1 0.67 0.91
15 4 1 0.63 0.96
-19 15 1 0.16 0.89
19 -4 -1 2.22 0.97
4 15 -1 -0.37 1.17
16 3 -1 12.97 1.7
3 -19 -1 11.56 1.77
19 -3 1 10.15 1.36
-16 19 1 9.7 1.9
-19 16 -1 12.46 1.7
19 -16 -1 12.31 1.81
-19 3 1 12.17 1.8
16 -19 1 13.73 1.78
-3 -16 1 12.46 1.68
-16 19 1 13.78 1.74
-16 -3 -1 14.19 1.76
19 -3 1 12.43 1.79
-3 19 -1 7.41 1.64
16 -19 -1 19.72 1.96
-3 19 1 14.79 2.41
19 -16 1 18.45 1.9
-19 3 -1 15.69 1.84
16 3 1 18.15 2.02
-16 19 -1 17.67 2.02
-3 -16 -1 12.96 1.75
-19 16 1 15.8 1.79
19 -3 -1 16.71 1.89
-3 -16 -1 14.61 1.75
-16 -3 1 14.43 1.73
-17 -2 -1 5.1 1.04
-19 2 1 4.61 1.16
19 -2 1 3.36 1.01
2 -19 -1 3.54 1.07
19 -17 -1 5.19 1.18
-2 -17 1 4.5 1.06
-19 17 -1 5.54 1.09
19 -2 1 5.93 1.21
17 2 -1 5.98 1.05
-17 19 1 5.69 1.08
17 -19 1 5.87 1.13
-19 17 1 2.38 0.89
17 -19 -1 4.76 1.12
2 17 -1 -0.22 1.61
-17 19 -1 -0.22 1.12
-17 19 -1 4.57 1.09
17 2 1 2.05 0.8
-2 19 1 0.49 1.1
-17 -2 1 2.15 0.8
-2 -17 -1 2.29 0.9
-2 -17 -1 1.95 0.84
19 -2 -1 4.99 1.11
19 -17 1 3.15 1.01
17 2 1 4.97 1.09
-19 2 -1 1.54 0.91
18 1 -1 0.31 0.84
1 -19 -1 0.76 0.89
-18 -1 -1 -1.23 0.62
-18 19 1 0.82 0.84
-19 1 1 -0.25 0.91
19 -18 -1 0.26 0.95
-1 -18 1 0.85 0.8
19 -1 1 0.65 0.95
18 -19 1 0.38 0.96
19 -1 1 0.86 0.84
-18 -1 -1 0.47 0.79
-19 18 -1 0.12 0.89
19 -1 -1 -0.17 0.88
1 -19 1 0.18 0.71
-1 -18 -1 -0.36 0.69
19 -18 1 -0.42 0.93
-18 19 -1 0.6 0.9
18 1 1 0.53 0.72
-18 -1 1 -0.56 0.51
-19 1 -1 -0.01 0.89
-19 1 -1 0.33 0.7
-18 -1 1 -0.5 0.83
-19 18 1 0.34 0.89
18 1 1 -0.05 0.92
-1 -18 -1 0.55 0.84
18 -19 -1 1.08 0.96
0 -19 1 1.27 0.78
-19 19 -1 2.22 0.92
-19 0 1 2.05 0.91
-19 0 -1 0.1 0.82
0 -19 -1 1.58 0.9
19 0 1 2.02 0.85
19 0 1 0.36 0.64
-19 19 1 2.33 0.95
-19 0 -1 1.59 0.76
19 -19 -1 2.71 1.02
19 -19 1 2.71 1.04
19 0 -1 1.36 0.85
-10 -10 -1 3.13 0.88
10 -20 -1 3.95 1.08
-20 10 1 2.86 1.52
-20 10 -1 3.82 0.96
-20 10 1 3.28 0.96
10 10 1 3.14 0.91
-20 10 -1 3.9 1.63
20 -10 1 2.3 1.03
-10 -10 1 4.83 0.99
20 -10 -1 2.74 1.06
10 -20 1 2.32 1.05
10 10 -1 2.06 0.89
-11 -9 -1 2.04 0.87
-20 11 -1 1.64 0.94
-9 -11 1 1.25 0.87
-20 9 1 2.82 0.94
-11 20 1 0.33 0.81
-20 11 -1 0.23 1.29
-20 9 1 1.64 1.5
20 -9 1 1.14 1.02
9 -20 -1 2.04 1.07
9 11 1 1.65 0.87
11 9 -1 0.85 0.83
20 -11 -1 1.25 0.99
11 -20 1 2.33 1.07
-20 9 -1 1.59 1.48
-20 11 1 0.44 0.83
20 -9 -1 -0.31 0.99
11 -20 -1 0.38 0.94
9 11 -1 0.11 0.83
20 -11 1 1.36 0.95
11 9 1 1.33 0.84
-11 20 -1 0.49 0.79
-20 11 1 -0.34 1.95
-9 -11 -1 0.55 0.79
9 -20 1 1.01 0.95
-11 -9 1 0.75 0.83
-20 9 -1 1.06 0.87
-20 8 1 5.74 1.09
-20 8 1 3.47 1.59
-12 -8 -1 5.51 1.01
20 -8 1 3.89 1.17
20 -12 -1 4.84 1.2
8 -20 -1 3.96 1.1
8 12 1 4.06 0.91
12 8 -1 3.46 0.92
-20 12 -1 3.01 0.96
-12 20 1 2.65 0.94
12 -20 1 5.52 1.15
-8 -12 1 5.61 1.06
12 8 1 5.27 0.99
-20 8 -1 5.27 1.72
12 -20 -1 5.53 1.17
-20 8 -1 5.16 0.99
-12 -8 1 6.22 1.02
-20 12 1 3.55 0.95
20 -12 1 3.99 1.09
8 12 -1 3.35 0.96
-12 20 -1 3.58 0.94
8 -20 1 3.46 1.01
20 -8 -1 1.63 0.84
-8 -12 -1 4.15 0.95
-20 13 -1 1.67 0.87
13 7 -1 3.1 0.98
-7 -13 1 4.87 1.03
7 -20 -1 3.88 1.08
13 -20 1 4.35 1.12
-13 -7 -1 3.72 0.93
-13 20 1 -0.68 1.87
7 13 1 3.14 0.95
-20 7 1 4.53 1.01
20 -7 1 3.05 1.15
-20 7 1 4.19 1.72
-13 20 1 3.09 0.96
20 -13 -1 4.66 1.13
-20 7 -1 4.54 0.94
-13 20 -1 2.8 0.94
7 13 -1 2.57 0.83
-13 -7 1 2.47 0.85
20 -13 1 3.2 1.05
-20 7 -1 2.57 1.49
7 -20 1 2.46 0.99
13 7 1 2.73 0.93
-7 -13 -1 3.38 0.96
13 -20 -1 5.61 1.2
20 -6 1 4.5 1.14
14 -20 1 5.62 1.15
6 -20 -1 6.65 1.15
14 6 -1 5.54 1.07
-14 -6 -1 6.46 1.05
6 14 1 3.82 1.01
-14 20 1 5.96 1.11
-6 -14 1 6.31 1.09
-20 6 1 8.29 1.2
20 -14 -1 3.73 1.04
-20 6 1 5.13 1.63
-6 -14 -1 3.22 0.96
-14 20 -1 4.41 1.06
-20 6 -1 3.05 0.88
-14 -6 1 2.36 0.86
14 -20 -1 3.84 1.1
-20 6 -1 2.05 1.44
20 -6 -1 2.86 0.91
20 -14 1 3.91 1.03
14 6 1 4.7 1.04
-6 20 1 0 1.41
6 -20 1 1.84 0.93
20 -15 -1 17.4 1.93
20 -5 1 14.92 1.93
15 -20 1 20.2 2.02
-5 -15 1 16.78 1.83
15 5 -1 16.96 1.99
-20 5 1 19.18 1.93
-15 20 1 20.81 1.97
-15 -5 -1 19.28 1.87
5 -20 -1 15.63 1.96
5 15 1 17.31 1.85
15 5 1 19.88 1.99
-15 20 -1 23.12 2.13
20 -15 1 21.79 2.03
20 -5 -1 15.35 1.9
-15 -5 1 19.8 1.88
-5 -15 -1 19.09 1.99
-20 5 -1 20.53 1.94
15 -20 -1 21.8 2.1
5 -20 1 15.12 1.91
4 -20 -1 7.41 1.19
-16 -4 -1 5.87 1.05
16 -20 1 9.53 1.28
20 -16 -1 6.79 1.14
16 4 -1 9.26 1.18
-4 -16 1 5.63 1.09
20 -4 1 6.38 1.2
-16 20 1 8.03 1.16
-20 4 1 7.54 1.18
-20 4 -1 2.56 0.88
-4 -16 -1 4.42 0.93
-16 -4 1 3.24 0.83
16 -20 -1 5.8 1.13
4 -20 1 2.28 0.77
-20 16 1 4.01 0.98
20 -4 -1 3.65 0.99
-4 -16 -1 2.11 0.81
16 4 1 5.11 0.99
20 -16 1 5.16 1.03
-17 -3 -1 1.43 0.88
-20 17 -1 0.04 0.86
3 -20 -1 1.52 0.9
17 3 -1 0.93 0.8
17 -20 1 1.21 0.91
-3 -17 1 0.24 0.87
20 -3 1 0.41 1.01
-20 3 1 1.45 0.94
20 -3 1 0.8 0.73
-17 20 1 0.91 0.81
20 -17 -1 0.9 0.88
17 -20 -1 0.95 0.92
-20 3 -1 0.68 0.82
-3 -17 -1 0.44 0.78
-17 -3 1 0.95 0.71
17 3 1 0.55 0.8
-20 17 1 0.66 0.85
-17 20 -1 1.76 0.89
17 3 1 -0.05 0.56
20 -3 -1 1.33 0.89
-3 -17 -1 0.06 0.79
20 -17 1 1.17 0.93
-18 20 1 14.17 1.68
-18 -2 -1 11.32 1.47
20 -2 1 12.53 1.64
20 -18 -1 13.82 1.67
-20 2 1 13.91 1.74
20 -2 1 12.53 1.73
-2 -18 1 13.06 1.54
2 -20 -1 10.77 1.65
-20 18 -1 13.14 1.58
18 2 -1 13.59 1.64
18 -20 1 14.56 1.77
-20 18 1 10.8 1.43
-20 2 -1 9.54 1.51
-2 -18 -1 7.57 1.08
-18 -2 1 6.15 0.9
20 -2 -1 10.94 1.48
-20 19 -1 5.21 0.97
-1 -19 1 3.32 0.83
1 -20 -1 4.7 0.96
20 -1 1 3.54 0.88
-19 20 1 6.36 1.05
-20 1 1 4.6 0.98
19 1 -1 4.15 0.88
-19 -1 -1 3.96 0.79
20 -19 -1 5.38 1.04
19 -20 1 6.76 1.13
20 -19 1 4.52 0.96
20 -1 -1 2.79 0.88
-20 19 1 3.34 0.9
-20 1 -1 2.22 0.89
19 -20 -1 4.63 1.04
-1 -19 -1 2.3 0.84
-19 20 -1 3.76 0.92
19 1 1 2.96 0.83
0 -20 -1 0.26 0.68
20 -20 -1 0.16 0.79
20 0 1 0.16 0.67
-20 20 -1 0.21 0.71
-20 0 1 -0.22 0.72
-20 20 1 0.18 0.76
0 -20 1 -0.22 0.46
-20 0 -1 -0.17 0.5
20 0 -1 0.23 0.79
20 -20 1 0.9 0.82
21 -11 -1 1.24 0.94
-10 -11 1 2.24 0.85
10 -21 -1 1.37 0.95
11 10 -1 1.42 0.81
21 -10 1 1.88 0.99
-21 10 1 2.03 0.9
-11 -10 -1 1.15 0.76
-21 11 -1 1.22 0.82
11 -21 1 2.3 1.02
10 11 1 1.48 0.77
10 -21 1 1.82 0.94
10 11 -1 1.41 0.8
-11 -10 1 1.54 0.83
-21 11 1 2.31 0.93
-21 10 -1 2.68 0.9
21 -11 1 2.51 0.95
-10 -11 -1 1.73 0.8
-11 21 -1 0.28 0.77
11 10 1 2.84 0.87
21 -10 -1 1.85 0.96
11 -21 -1 2.88 1
12 -21 1 9.25 1.32
21 -9 1 10.55 1.37
-21 9 1 11.92 1.63
9 -21 -1 12.2 1.37
-9 -12 1 9.93 1.23
-12 -9 -1 10.36 1.37
12 9 -1 10.12 1.48
-21 12 -1 10.93 1.55
9 12 1 10.18 1.45
21 -12 -1 7.95 1.23
12 9 1 7.23 1.08
9 -21 1 7.62 1.15
21 -12 1 6.83 1.14
-12 21 -1 6.98 1.11
12 -21 -1 10.85 1.32
21 -9 -1 7.25 1.14
9 12 -1 5.24 1.02
-9 -12 -1 6.04 1
-12 -9 1 10.33 1.16
-21 12 1 7.26 1.1
8 -21 -1 2.99 1.02
21 -13 -1 2.38 0.94
-21 13 -1 2.82 0.87
-8 -13 1 4.84 0.97
-21 8 1 3.45 0.9
-13 -8 -1 3.96 0.83
-13 21 1 1.87 0.83
8 13 1 2.94 0.95
13 -21 1 3.14 0.95
13 8 -1 3.19 0.9
21 -8 1 2.18 1.03
13 8 1 4.99 0.95
-21 13 1 1.4 0.86
-8 -13 -1 4.02 0.9
-21 8 -1 4.71 0.94
21 -13 1 2.76 0.93
-13 -8 1 3.66 0.86
8 -21 1 2.58 0.92
8 13 -1 2.38 0.8
-13 21 -1 3.11 0.93
13 -21 -1 5.14 1.1
7 14 1 3.09 0.95
-7 -14 1 3.9 0.94
14 -21 1 3.44 1.01
21 -7 1 3.15 1.02
-21 7 1 6.34 1.07
7 -21 -1 5.55 1.09
14 7 -1 5.5 1.02
-14 21 1 3.92 0.96
21 -14 -1 3.87 1.07
-14 -7 -1 4.28 0.9
-14 -7 1 1.78 0.81
7 14 -1 1.81 0.72
7 -21 1 2.07 0.89
-7 -14 -1 2.45 0.87
14 7 1 3.26 0.89
-14 21 -1 2.26 0.95
14 -21 -1 2.44 0.93
21 -7 -1 0.01 0.6
-21 7 -1 2.02 0.8
21 -14 1 2.81 1
6 -21 -1 1.24 0.9
15 -21 1 2.69 1.02
-15 21 1 1.61 0.82
-15 -6 -1 1.67 0.82
6 15 1 0.91 0.8
21 -15 -1 1.3 0.88
21 -6 1 1.45 0.87
15 6 -1 0.84 0.8
-21 6 1 2.05 0.9
-6 -15 1 1.36 0.81
21 -15 1 4.11 1.02
6 -21 1 1.78 0.84
-15 21 -1 4 0.97
-15 -6 1 2.61 0.86
-21 6 -1 2.87 0.84
15 6 1 4.16 0.94
-6 -15 -1 2.85 0.87
21 -6 -1 3.16 0.83
15 -21 -1 5.64 1.07
5 -21 -1 -0.06 0.83
-21 5 1 1.24 0.9
16 -21 1 1.55 0.87
5 16 1 0.46 0.73
21 -16 -1 1.29 0.84
21 -5 1 0.32 0.89
-5 -16 1 0.87 0.79
-16 -5 -1 1.28 0.78
-16 21 1 1.4 0.77
16 5 -1 1.37 0.83
16 -21 -1 1.16 0.92
21 -16 1 0.92 0.89
-16 21 -1 0.86 0.82
-5 -16 -1 -0.2 0.54
21 -5 -1 0.33 0.8
16 5 1 1.12 0.82
5 -21 1 0.51 0.64
-21 5 -1 1.26 0.8
-5 -16 -1 -0.12 0.76
-16 -5 1 0.67 0.71
-21 4 1 7.85 1.11
-4 -17 1 6.74 1.01
-21 17 -1 5.38 1.01
21 -4 1 6.52 1.18
17 -21 1 9.5 1.21
-17 21 1 6.87 1.09
-17 -4 -1 6.05 0.99
17 4 -1 9.87 1.13
21 -17 -1 6.34 1.08
4 -21 -1 4.71 0.96
21 -4 -1 3.86 0.92
-21 17 1 4.94 0.97
-21 4 -1 6.12 0.94
-17 -4 1 4.36 0.84
17 -21 -1 7.09 1.07
21 -17 1 6.57 1.09
17 4 1 4.54 0.96
-4 -17 -1 4.14 0.87
-18 -3 -1 2.79 0.77
18 -21 1 3.01 0.98
-3 -18 1 2.64 0.79
-18 21 1 4.47 0.97
3 -21 -1 2.64 0.83
18 3 -1 2 0.83
-21 18 -1 3.03 0.89
21 -18 -1 2.34 0.87
-21 3 1 2.34 0.86
-18 -3 1 3.01 0.7
21 -3 -1 3.94 0.84
-21 3 -1 4.26 0.96
21 -18 1 3.19 0.91
18 3 1 3.74 0.89
18 -21 -1 4.85 0.98
-18 21 -1 6.12 1
-21 18 1 3.86 0.88
21 -19 -1 0.64 0.8
-2 -19 1 -0.1 0.66
-19 -2 -1 0.26 0.61
-21 19 -1 0.35 0.78
19 -21 1 0.06 0.83
19 2 -1 0.15 0.71
21 -2 1 0.43 0.57
-19 21 1 0.08 0.74
2 -21 -1 0.43 0.67
-21 2 1 0.78 0.77
-21 19 1 0.26 0.73
-21 2 -1 0.3 0.77
19 2 1 -0.13 0.71
19 -21 -1 0.2 0.85
-19 21 -1 -0.13 0.69
21 -2 -1 -0.14 0.67
21 -19 1 0.06 0.75
-21 20 -1 2.19 0.78
20 -21 1 3.63 0.86
20 1 -1 2.27 0.77
1 -21 -1 0.49 0.71
21 -1 1 1.84 0.61
-21 1 1 2.11 0.73
21 -20 -1 2.98 0.82
-20 21 1 2.63 0.77
-20 21 -1 3.4 0.82
20 -21 -1 2.11 0.83
21 -1 -1 3.76 0.81
21 -20 1 2.9 0.85
20 1 1 2.46 0.73
-21 20 1 2.49 0.77
21 -21 -1 4.1 0.85
-21 21 -1 3.73 0.76
-21 21 1 3.19 0.75
21 0 1 1.7 0.58
21 0 -1 3.26 0.71
21 -21 1 3.44 0.84
-22 11 -1 5.1 0.92
11 11 1 4.28 0.83
22 -11 -1 5.22 1.01
-11 -11 1 7.79 1.02
11 11 -1 3.72 0.88
11 -22 -1 7.72 1.11
11 -22 1 6.5 1.04
22 -11 1 5.46 1.06
-22 10 1 1.37 0.81
22 -10 1 1.29 0.88
10 -22 -1 1.81 0.88
10 12 1 0.89 0.73
-22 12 -1 1.68 0.81
12 -22 1 1.27 0.87
22 -12 -1 0.78 0.86
12 10 -1 0.93 0.75
-12 -10 -1 1.86 0.72
-10 -12 1 1.35 0.77
12 10 1 1 0.73
-10 -12 -1 0.18 0.72
22 -12 1 0.93 0.85
12 -22 -1 0.98 0.88
-12 22 -1 -0.37 0.69
10 -22 1 0.14 0.82
10 12 -1 0.3 0.66
-22 12 1 -0.42 0.73
-22 10 -1 0.71 0.74
22 -10 -1 0.34 0.71
-12 -10 1 0.69 0.74
-13 -9 -1 10.7 1.12
22 -13 -1 7.53 1.11
9 13 1 7.42 1.06
-13 22 1 4.7 0.97
13 9 -1 6.16 0.98
-9 -13 1 10.01 1.1
-22 9 1 8.99 1.43
22 -9 1 7.47 1.15
13 -22 1 9.54 1.42
9 -22 -1 7.5 1.11
-22 13 1 3.55 0.9
13 9 1 3.36 0.69
-13 22 -1 3.96 0.89
9 13 -1 6.21 0.9
22 -13 1 5.4 0.96
9 -22 1 4.58 0.95
22 -8 1 0.32 0.84
22 -14 -1 0.86 0.78
14 8 -1 0.65 0.74
-22 8 1 1.13 0.78
8 14 1 1.85 0.86
-14 -8 -1 0.29 0.66
-14 22 1 -0.59 0.73
-22 14 -1 -0.63 0.69
8 -22 -1 -0.14 0.82
-8 -14 1 0.73 0.72
14 -22 1 0.92 0.82
-8 -14 -1 1.11 0.75
-14 -8 1 1.44 0.74
14 8 1 0.8 0.72
8 -22 1 -0.08 0.77
-22 8 -1 1.1 0.7
14 -22 -1 0.48 0.8
22 -14 1 0.74 0.8
-14 22 -1 0.45 0.78
8 14 -1 0.72 0.69
22 -7 1 2.96 0.84
15 7 -1 4.19 0.91
-15 22 1 2.96 0.9
-15 -7 -1 3.03 0.74
-7 -15 1 3.24 0.8
15 -22 1 3.74 0.98
7 15 1 3.12 0.84
-22 7 1 4.96 0.94
22 -15 -1 3.11 0.88
7 -22 -1 2.95 0.88
-7 -15 -1 2.45 0.76
7 -22 1 1.86 0.79
15 -22 -1 3.02 0.9
15 7 1 2.67 0.82
-15 22 -1 3.66 0.9
22 -15 1 4.45 0.92
-15 -7 1 2.78 0.8
-22 7 -1 3.81 0.86
-16 -6 -1 5.14 0.86
-22 6 1 5.19 0.93
6 16 1 3.66 0.82
16 6 -1 6.63 0.96
-6 -16 1 4.75 0.85
-16 22 1 5.97 1.03
22 -16 -1 3.71 0.95
22 -6 1 3.49 0.93
16 -22 1 4.06 0.91
6 -22 -1 3.49 0.92
16 6 1 7.55 1.03
-16 -6 1 5.01 0.89
16 -22 -1 7.72 1.08
-6 -16 -1 3.72 0.87
-22 6 -1 6.05 0.93
-16 22 -1 5.73 0.97
22 -16 1 6.22 1.06
-17 22 1 3.06 0.86
-5 -17 1 1.37 0.74
-17 -5 -1 1.68 0.69
17 -22 1 1.95 0.84
22 -17 -1 1.97 0.83
5 -22 -1 1.09 0.71
-22 5 1 2.1 0.8
22 -5 1 2.26 0.81
17 5 -1 2.61 0.78
17 5 1 2.27 0.76
17 -22 -1 2.62 0.82
22 -5 -1 2.15 0.67
-22 5 -1 2.49 0.78
22 -17 1 2.4 0.87
-17 22 -1 3.95 0.86
-17 -5 1 2.14 0.69
-5 -17 -1 2.26 0.75
18 4 -1 3.19 0.78
-18 22 1 1.84 0.76
-22 4 1 1.6 0.75
18 -22 1 3.28 0.88
-4 -18 1 1.98 0.68
-18 -4 -1 1.69 0.69
4 -22 -1 1.5 0.73
22 -18 -1 2.17 0.84
-22 4 -1 2.33 0.77
18 4 1 2.05 0.74
-4 -18 -1 -0.06 0.49
22 -4 -1 1.21 0.63
-18 22 -1 1.94 0.72
18 -22 -1 2.62 0.83
22 -18 1 2.66 0.82
-18 -4 1 1.27 0.57
-19 22 1 3.16 0.79
-19 -3 -1 2.42 0.62
22 -19 -1 2.95 0.8
-3 -19 1 2.03 0.68
3 -22 -1 1.53 0.57
19 3 -1 3.53 0.79
-22 3 1 2.98 0.77
-22 19 -1 1.49 0.63
19 -22 1 3.2 0.85
-19 22 -1 2.67 0.76
-22 3 -1 2.03 0.7
-22 19 1 1.18 0.69
22 -19 1 1.58 0.79
19 -22 -1 1.67 0.82
19 3 1 1.78 0.7
22 -3 -1 1.96 0.65
22 -20 -1 1.37 0.75
20 -22 1 1.64 0.75
-22 20 -1 0.95 0.61
-20 22 1 1.46 0.67
20 2 -1 1.2 0.72
-22 2 1 0.81 0.63
22 -2 -1 1.36 0.64
22 -20 1 3.16 0.85
-22 20 1 1.22 0.68
20 2 1 1.67 0.69
20 -22 -1 2.42 0.82
-20 22 -1 1.99 0.75
21 -22 1 1.85 0.81
-21 22 1 1.36 0.74
-22 21 -1 0.6 0.57
22 -21 -1 1.75 0.85
21 1 -1 1.57 0.71
-21 22 -1 1.29 0.65
21 -22 -1 1.06 0.76
21 1 1 0.06 0.42
22 -21 1 1.36 0.84
22 -1 -1 0.81 0.58
-22 21 1 0.85 0.66
-23 12 -1 4.67 0.89
-12 -11 -1 4.13 0.77
23 -12 -1 1.89 0.66
11 -23 -1 4.44 0.92
-23 11 1 4.37 0.92
23 -11 1 2.48 0.86
-11 -12 1 4.22 0.78
12 -23 1 3.04 0.8
12 11 -1 2.79 0.73
11 12 1 3.48 0.82
-12 -11 1 4.67 0.82
-23 12 1 3.77 0.87
23 -12 1 3.44 0.87
11 12 -1 3.27 0.73
12 11 1 4.86 0.78
12 -23 -1 4.69 0.93
-23 11 -1 3.27 0.81
11 -23 1 1.93 0.73
-11 -12 -1 5.21 0.81
10 -23 -1 9.53 1.29
-13 -10 -1 7.73 1.13
13 -23 1 7.27 1.06
23 -13 -1 5.88 0.99
-10 -13 1 9.51 1.03
-23 10 1 10.33 1.17
23 -10 1 8.09 1.1
10 13 1 8.44 1.06
13 10 -1 8.27 1.22
13 -23 -1 8.12 1.06
-13 -10 1 9.1 1
13 10 1 5.12 0.83
-10 -13 -1 6.03 0.88
-23 10 -1 8.44 1.03
23 -13 1 5.66 0.96
10 13 -1 6.81 0.98
10 -23 1 4.38 0.92
-23 13 1 6.05 1.02
-9 -14 1 2.84 0.7
-23 14 -1 2.18 0.74
9 14 1 1.8 0.76
14 9 -1 1.4 0.67
-23 9 1 2.6 0.76
9 -23 -1 1.55 0.81
23 -14 -1 1.63 0.74
23 -9 1 1.28 0.74
-14 23 1 0.6 0.66
14 -23 1 2.19 0.83
-14 -9 -1 1.92 0.69
14 9 1 1.38 0.63
-14 -9 1 1.95 0.7
14 -23 -1 1.53 0.75
23 -14 1 1.24 0.77
9 -23 1 0.85 0.71
-9 -14 -1 0.93 0.65
9 14 -1 0.49 0.53
-23 9 -1 0.63 0.65
14 9 1 0.13 0.63
-14 23 -1 0.6 0.65
-23 8 1 5.67 0.88
-15 -8 -1 6.15 0.85
23 -15 -1 3.01 0.81
-8 -15 1 5.35 0.82
15 -23 1 5.53 0.94
15 8 -1 5.61 0.84
8 15 1 4.02 0.81
23 -8 1 3.19 0.79
8 -23 -1 5.26 0.92
-23 8 -1 7.08 0.89
-8 -15 -1 4.33 0.78
-15 23 -1 5.81 0.93
15 8 1 4.7 0.84
23 -15 1 7.62 1.01
-15 -8 1 7.89 0.95
15 8 1 4.5 0.75
7 16 1 0.79 0.49
23 -16 -1 0.91 0.68
-7 -16 1 1.06 0.64
-16 -7 -1 1.44 0.64
-23 7 1 1.8 0.73
23 -7 1 0.65 0.58
16 -23 1 1.36 0.74
7 -23 -1 1.24 0.76
-16 23 1 0.36 0.67
16 7 -1 1.61 0.67
23 -16 1 0.82 0.73
-16 -7 1 1.04 0.66
-23 7 -1 0.88 0.67
16 7 1 0.66 0.6
16 7 1 0.42 0.64
16 -23 -1 1.88 0.79
-16 23 -1 0.42 0.66
-7 -16 -1 0.76 0.63
-17 23 1 5.52 0.89
17 -23 1 5.54 0.93
-6 -17 1 5.6 0.83
-23 6 1 6.06 0.88
17 6 -1 6.5 0.88
-17 -6 -1 7.84 0.92
23 -17 -1 4.86 0.86
6 -23 -1 4.32 0.86
-17 23 -1 3.04 0.73
23 -17 1 4.11 0.82
-17 -6 1 3.02 0.68
17 6 1 2.95 0.69
-6 -17 -1 4.04 0.73
-23 6 -1 4.88 0.82
17 6 1 4.93 0.79
17 -23 -1 5.43 0.88
5 -23 -1 1.32 0.57
18 5 -1 2.21 0.71
-18 -5 -1 2.8 0.67
23 -18 -1 1.7 0.71
18 -23 1 3.52 0.86
-5 -18 1 1.63 0.62
-18 23 1 1.94 0.7
-23 5 1 2.56 0.7
23 -18 1 0.74 0.71
-18 23 -1 1.09 0.71
18 5 1 1.19 0.66
-23 5 -1 1.16 0.65
18 -23 -1 1.11 0.72
-18 -5 1 -0.28 0.38
23 -19 -1 1.96 0.71
-19 23 1 2.74 0.76
19 4 -1 1.67 0.71
-19 -4 -1 2.21 0.58
-23 4 1 2.02 0.65
19 -23 1 2.57 0.82
-23 4 -1 1.53 0.63
23 -19 1 2.85 0.76
19 4 1 2.97 0.74
-19 23 -1 2.26 0.71
19 -23 -1 2.95 0.83
20 3 -1 1.75 0.75
-20 23 1 2.05 0.76
20 3 1 1.28 0.63
-20 23 -1 1.46 0.68
-24 12 1 8.92 1.28
12 12 1 8.2 1.1
-24 12 -1 8.49 1.2
24 -12 1 7.57 1.13
12 12 -1 8.4 1.08
-12 -12 1 6.39 0.88
-12 -12 -1 7.38 1.07
12 -24 1 5.77 0.94
12 -24 -1 9.29 1.21
24 -11 1 0.22 0.62
11 -24 -1 0.2 0.69
-11 -13 1 0.14 0.56
-24 11 1 0.86 0.7
-13 -11 -1 0.51 0.59
-24 13 -1 0.21 0.69
11 13 1 0.25 0.62
13 11 -1 0.33 0.54
13 -24 1 0.34 0.71
11 13 -1 -0.06 0.5
11 -24 1 0.07 0.57
24 -13 1 0.42 0.65
-24 13 1 -0.19 0.64
13 -24 -1 0.24 0.68
-24 11 -1 1 0.67
13 11 1 -0.03 0.62
-13 -11 1 0.44 0.61
-11 -13 -1 0.27 0.59
-10 -14 1 2.54 0.65
-14 -10 -1 2.59 0.68
10 14 1 1.89 0.63
24 -10 1 1.68 0.56
-24 10 1 1.92 0.68
10 -24 -1 2.97 0.8
-24 14 -1 0.46 0.56
14 10 -1 1.94 0.57
14 -24 1 1.84 0.73
14 -24 -1 2.9 0.75
-24 10 -1 2.37 0.68
14 10 1 2.2 0.66
-14 -10 1 2.41 0.68
-10 -14 -1 1.56 0.61
24 -14 1 3 0.75
15 9 -1 3.92 0.7
9 15 1 3.43 0.62
15 -24 1 3.86 0.81
-15 -9 -1 4.93 0.8
-24 9 1 3.89 0.76
9 -24 -1 3.9 0.82
-9 -15 1 3.66 0.69
-9 -15 -1 4.94 0.76
24 -15 1 4.22 0.81
15 9 1 4.71 0.75
15 -24 -1 5.71 0.91
-24 9 -1 5.86 0.85
-15 -9 1 5.23 0.83
24 -16 -1 -0.04 0.46
-8 -16 1 0.52 0.59
-16 24 1 0.43 0.6
-16 -8 -1 1.29 0.65
8 -24 -1 0.65 0.7
16 -24 1 0.58 0.72
16 8 -1 0.84 0.61
-24 8 1 0.99 0.64
24 -16 1 0.38 0.66
-16 -8 1 0.42 0.65
-16 24 -1 0.21 0.61
16 8 1 0.29 0.56
-24 8 -1 0.88 0.61
-8 -16 -1 0.14 0.53
16 -24 -1 0.61 0.62
17 -24 1 5.23 0.89
-7 -17 1 3.8 0.7
-24 7 1 3.88 0.76
17 7 -1 5.36 0.81
-17 -7 -1 5.03 0.83
-17 24 1 3.43 0.77
17 7 1 3.69 0.71
-17 24 -1 3.48 0.75
17 -24 -1 5.95 0.85
-17 -7 1 4.01 0.7
-24 7 -1 5.82 0.79
24 -17 1 5.65 0.9
-18 24 1 0.64 0.7
-24 6 1 0.4 0.66
18 -24 1 0.62 0.77
18 6 -1 0.16 0.66
-18 24 -1 0.05 0.63
24 -18 1 1.42 0.86
-24 6 -1 0.26 0.62
18 6 1 0.54 0.61
18 -24 -1 0.18 0.75
12 13 1 1.92 0.62
13 12 -1 0.07 0.59
-25 12 1 0.14 0.55
-25 13 -1 -0.75 0.46
-25 12 -1 0.73 0.67
13 12 1 0.95 0.66
-25 11 1 2.02 0.73
-25 11 -1 2.62 0.66
0 0 2 0.31 0.3
0 0 -2 0.05 0.18
0 0 -2 -0.17 0.31
0 0 -2 -0.22 0.31
0 1 -2 90.48 5.63
1 -1 2 89.19 5.7
0 -1 2 89.41 5.63
-1 1 -2 90.65 5.67
-1 1 2 97.76 5.72
-1 1 -2 83.24 5.7
1 -1 -2 86.55 5.66
-1 0 -2 84.29 5.68
1 0 -2 74.02 5.71
-1 1 2 93.31 5.66
0 1 -2 80.86 5.67
-1 1 -2 86.47 5.66
1 0 2 85.08 5.68
1 -1 -2 84.8 5.73
0 -1 -2 83.46 5.67
1 -1 2 90.57 5.67
0 1 -2 74.72 5.71
0 -1 2 89.03 5.72
0 -1 2 91.6 5.67
-1 0 2 93.25 5.71
1 0 -2 89.85 5.62
0 -1 -2 90.68 5.77
-1 0 -2 92.35 5.68
0 -1 -2 75.45 5.7
1 0 -2 82.99 5.71
-1 0 2 90.87 5.73
-2 1 -2 207.3 12.13
2 -1 2 180.07 12.13
1 1 2 182.57 12.22
1 1 -2 162.77 12.15
-1 -1 -2 201.15 12.22
-1 -1 -2 181.63 12.15
-1 -1 2 198.66 12.19
-1 -1 -2 180.49 12.16
2 -1 2 171.2 12.15
1 -2 2 185.36 12.09
-1 2 -2 191.97 12.13
-1 2 -2 184.2 12.09
1 -2 -2 194.16 12.24
-2 1 -2 202.92 12.16
-1 -1 2 193.99 12.17
1 -2 -2 191.42 12.15
2 -1 -2 185.72 12.13
-1 2 2 204.12 12.15
-2 1 2 195.63 12.19
1 -2 2 193.58 12.18
-2 1 -2 181.68 12.14
-1 2 -2 157.6 12.16
-1 -1 2 191.65 12.08
-2 1 2 195.85 12.12
1 -2 2 165.12 12.12
-2 2 2 74.59 4.75
0 -2 -2 67.97 4.73
0 2 -2 64.39 4.66
0 -2 2 71 4.66
-2 2 -2 67.78 4.69
-2 0 -2 72.59 4.73
0 -2 2 74.17 4.69
2 -2 -2 69.69 4.8
-2 0 2 75.26 4.75
2 0 2 64.56 4.7
-2 0 -2 75.06 4.71
0 -2 2 72.91 4.74
2 -2 -2 63.24 4.68
-2 0 2 73.07 4.64
0 -2 -2 75.67 4.82
-2 2 -2 73.08 4.7
2 0 -2 68.86 4.63
0 2 -2 72.6 4.64
-2 2 2 75.54 4.68
2 -2 2 73.13 4.69
2 -2 2 61.66 4.69
-2 0 2 79.83 4.74
-2 2 -2 69.89 4.61
-2 0 -2 74.17 4.71
-1 -2 2 99.38 6.31
-2 3 2 94.88 6.29
3 -2 -2 97.42 6.38
-2 3 2 100.36 6.33
-1 3 -2 93.34 6.26
1 -3 -2 105.64 6.44
-3 2 -2 93.26 6.23
-3 2 -2 88.13 6.24
-2 -1 -2 94.27 6.29
-3 2 -2 100.75 6.31
-1 -2 2 102.83 6.35
-2 -1 -2 95.13 6.32
-1 3 -2 84.83 6.22
-3 1 2 95.96 6.26
-3 1 2 99.66 6.34
-2 -1 -2 96.28 6.38
2 -3 2 98.95 6.31
-1 -2 2 85.26 6.22
-2 -1 2 77.45 5.01
3 -2 2 70.58 4.92
-3 2 2 75.71 5.02
-3 1 -2 66.83 4.91
-3 1 -2 70.23 4.95
-1 -2 -2 78.82 5.13
-2 -1 2 79.4 5.02
1 -3 2 79.08 5.02
-3 2 2 76.76 4.96
-1 3 2 79.76 4.97
-2 -1 2 74.19 4.9
-2 3 -2 77.08 4.97
2 -3 -2 79.64 5.09
1 -3 2 75.99 4.91
-1 -2 -2 74.68 5.01
-3 1 -2 79.57 4.96
1 -3 2 66.03 4.96
3 -2 2 70 4.92
-3 1 -2 78.84 5
3 -3 -2 204.21 13.14
0 -3 -2 213.58 13.23
3 -3 2 191.32 12.96
0 3 -2 204.36 13.01
-3 0 -2 227.39 13.09
-3 0 2 211.97 13.09
-3 3 -2 192.8 12.96
3 0 2 166.91 13.04
-3 0 2 197.86 13.1
0 -3 2 197.17 13.04
-3 0 -2 205.47 13.08
-3 3 -2 198.35 13.07
-3 0 -2 205.51 13.07
-3 3 2 216.52 13.11
0 -3 -2 199.96 13.09
3 0 -2 181.59 13
-3 0 2 193.58 13
0 -3 2 203.17 13.11
-3 3 2 207.2 13.06
3 -3 2 198.46 13.03
-2 4 2 118.76 7.77
-4 2 -2 102.25 7.67
2 -4 2 124.43 7.83
-4 2 -2 123.31 7.8
-2 4 -2 124.82 7.76
-4 2 2 120.05 7.83
2 -4 -2 125.74 7.96
2 -4 2 108.89 7.66
-4 2 -2 112.43 7.72
-2 -2 -2 111.66 7.77
-2 -2 2 125.47 7.82
-2 -2 -2 121.25 7.81
-2 -2 2 117.24 7.7
-4 2 -2 112.01 7.69
-2 -2 -2 119.89 7.93
-4 2 2 121.84 7.75
-2 -2 2 123.69 7.8
-3 -1 -2 112.61 6.85
1 -4 -2 101.4 6.84
4 -3 -2 107.77 6.88
-1 4 -2 99.86 6.75
-4 1 2 105.96 6.86
-3 4 2 106.92 6.79
-4 3 -2 103.77 6.82
-4 3 -2 98 6.71
-1 -3 2 104.13 6.85
-4 1 2 97.75 6.75
3 -4 2 108.73 6.81
-3 -1 -2 97.98 6.78
-3 4 2 104.18 6.84
-1 -3 2 102.3 6.79
-4 1 2 105.89 6.81
1 -4 -2 101.97 7.02
-3 -1 -2 92.69 6.85
1 -4 2 99.46 6.37
-4 3 2 101.38 6.3
-3 -1 2 96.25 6.24
1 -4 2 89.37 6.23
-1 4 2 103.97 6.31
-3 4 -2 96.62 6.3
-3 -1 2 95.99 6.33
3 -4 -2 93.76 6.43
-4 1 -2 99.06 6.32
-4 1 -2 89.59 6.24
4 -3 2 90.71 6.22
-4 3 2 99.73 6.35
-4 1 -2 100.34 6.3
-3 -1 2 97.57 6.35
-1 -3 -2 92.14 6.33
-4 1 -2 81.9 6.2
-1 -3 -2 94.83 6.51
0 -4 2 16.14 1.34
4 -4 -2 17.75 1.55
0 4 -2 17.12 1.32
4 -4 2 17.12 1.36
0 -4 -2 18.06 1.39
-4 0 2 16.54 1.5
-4 0 2 17.1 1.32
-4 0 2 16.86 1.41
-4 0 -2 19.18 1.44
-4 0 -2 18 1.36
0 -4 -2 16.04 1.87
-4 4 2 18.33 1.38
-4 4 2 18.31 1.4
-4 4 -2 16.96 1.2
-4 4 -2 17.31 1.46
0 -4 2 17.27 1.52
-3 -2 -2 115.95 7.79
3 -5 2 106.1 7.55
-5 2 2 114.33 7.67
-2 -3 2 111.54 7.61
-3 5 2 116.14 7.68
-3 -2 -2 110.59 7.68
-5 3 -2 113.98 7.62
2 -5 -2 125.17 7.77
-2 -3 2 120.9 7.72
2 -5 -2 112.69 7.92
5 -3 -2 121.75 7.76
-5 2 2 113.62 7.74
-3 -2 -2 123.12 7.74
-5 3 -2 118.67 7.71
3 -5 2 126.11 7.77
-2 -3 2 115.57 7.73
-2 5 -2 113.78 7.65
-2 -3 -2 104.81 6.9
-5 3 2 98.71 6.89
3 -5 -2 106.22 7.07
-3 -2 2 105.77 6.88
-5 2 -2 106.53 6.86
-3 -2 2 101.18 6.88
-3 5 -2 107.72 6.85
-2 5 2 107.01 6.87
2 -5 2 91.09 6.74
-3 -2 2 102.47 6.78
-5 2 -2 98.74 6.81
2 -5 2 109.14 6.95
-2 -3 -2 102.32 7.03
-5 3 2 107.11 6.85
-2 -3 -2 103.53 6.86
-4 -1 -2 75.07 4.81
-1 -4 2 72.68 4.84
1 -5 -2 71.95 5.03
5 -4 -2 77.33 4.87
-5 4 -2 64.8 4.64
-1 -4 2 67.26 4.74
-1 5 -2 67.89 4.69
-4 -1 -2 68.35 4.75
-5 4 -2 70.38 4.78
-5 1 2 72 4.75
4 -5 2 68.18 4.59
-4 -1 -2 65.25 4.77
4 -5 2 75.49 4.8
-4 5 2 71.98 4.76
-4 5 2 75.18 4.77
-5 1 2 68.84 4.82
-5 1 2 67.16 4.69
1 -5 -2 70.43 4.8
-5 4 2 54.16 3.73
5 -4 2 52.26 3.62
-1 5 2 58.85 3.73
4 -5 -2 55.62 3.95
-5 1 -2 55.67 3.73
-4 -1 2 57 3.76
-5 4 2 54.19 3.76
-1 -4 -2 54.26 4.04
-4 5 -2 56.01 3.74
1 -5 2 50.16 3.65
1 -5 2 54.31 3.86
-5 1 -2 56.99 3.76
-4 -1 2 51.81 3.66
-4 -1 2 55.85 3.8
-1 -4 -2 52.42 3.75
-5 0 2 241.92 15.31
5 -5 -2 237.62 15.36
-5 5 -2 233.76 15.26
-5 5 2 242.88 15.25
-5 5 2 237.16 15.27
-5 0 -2 252.54 15.28
0 -5 2 222.24 15.2
0 5 -2 236.85 15.19
-5 5 -2 227.01 15.12
-5 0 2 220.49 15.18
5 -5 2 235.4 15.21
0 -5 -2 230.31 15.28
0 -5 2 231.03 15.33
-5 0 -2 230.61 15.24
-5 0 2 236.43 15.24
-5 0 -2 218.71 15.16
0 -5 -2 235.79 15.5
3 -6 -2 28.83 2.57
-3 -3 2 28.82 2
-6 3 2 28.42 2.2
-6 3 -2 29.15 2.11
3 -6 2 27.45 2.29
-3 -3 2 26.59 2.16
-3 -3 -2 29.73 2.2
3 -6 2 25.74 1.96
-3 -3 -2 29.56 2.31
-3 6 2 28.4 2.13
-3 -3 2 28.48 2.16
-6 3 2 29.24 2.1
-6 3 -2 28.88 2.06
-3 -3 -2 26.26 2.12
6 -3 -2 30.39 2.25
-3 6 -2 27.36 2.09
-6 2 2 96.2 6.62
-4 6 2 95.74 6.65
-4 -2 -2 96.67 6.65
2 -6 -2 100.47 6.96
-6 4 -2 101.05 6.7
4 -6 2 97.15 6.51
6 -4 -2 100.36 6.71
-6 4 -2 95.25 6.58
-4 -2 -2 101.5 6.71
4 -6 2 102.11 6.74
-2 -4 2 94.09 6.65
-4 -2 -2 108.53 6.73
-2 -4 2 103.44 6.73
2 -6 -2 108.79 6.74
-2 -4 2 102.09 6.59
-2 6 -2 93.79 6.6
-6 2 2 99.37 6.73
-2 -4 -2 84.77 5.88
-4 6 -2 91.05 5.83
-2 -4 -2 93.94 6.11
2 -6 2 85.29 5.97
-2 6 2 85.2 5.84
-2 -4 -2 91.75 5.84
4 -6 -2 83.31 6.08
2 -6 2 80.37 5.73
-6 4 2 90.67 5.83
-6 2 -2 85.97 5.81
-4 -2 2 88.28 5.86
-6 2 -2 89.6 5.87
-4 -2 2 82.69 5.75
-4 -2 2 87.2 5.88
-6 4 2 84.67 5.86
-6 1 2 65.29 4.64
-5 -1 -2 64.27 4.55
-6 1 2 63.27 4.51
-5 -1 -2 70.94 4.62
5 -6 2 75.68 4.64
-6 5 -2 67.06 4.6
-6 1 2 66.04 4.51
-6 5 -2 60.93 4.41
-5 -1 -2 67.2 4.51
-1 -5 2 68.85 4.67
-1 -5 2 61.68 4.52
1 -6 -2 70.37 4.95
-1 6 -2 63.77 4.49
-5 6 2 64.28 4.56
6 -5 -2 67.49 4.66
-5 6 2 70.47 4.57
1 -6 -2 67.7 4.61
-6 1 -2 51.38 3.69
1 -6 2 56.12 4.06
-6 5 2 56.59 3.9
-6 1 -2 58.69 3.92
5 -6 -2 60.14 4.16
-5 -1 2 56.17 3.82
-1 -5 -2 53.36 3.94
-5 6 -2 56.44 3.9
-1 -5 -2 59.65 4.31
-6 1 -2 58.34 3.92
-5 -1 2 58.06 3.98
6 -5 2 54.9 3.76
-5 -1 2 56.93 3.9
-1 6 2 59.06 3.92
-6 5 2 57.63 3.92
1 -6 2 52.06 3.83
6 -6 2 6.59 0.97
-6 0 2 7.22 0.95
0 -6 -2 7.47 1.39
-6 6 2 7.06 0.98
-6 6 -2 6.2 0.71
0 -6 -2 7.61 1.11
-6 0 -2 7.84 1.07
-6 6 2 7.01 1.01
6 -6 -2 6.32 1.15
0 -6 2 8.07 1.16
0 6 -2 6.2 0.9
-6 0 2 8.4 1.17
-6 6 -2 7.62 0.99
-6 0 2 6.1 1
-6 0 -2 7.45 0.79
-6 0 -2 6.48 0.82
0 -6 2 6.9 0.94
-4 7 2 64.17 4.44
-3 7 -2 65.29 4.44
-3 -4 2 64.1 4.53
-4 -3 -2 69.63 4.56
-3 -4 2 65.66 4.51
4 -7 2 57.87 4.3
7 -4 -2 64.9 4.54
-7 4 -2 63.72 4.41
-4 -3 -2 67.97 4.56
-4 -3 -2 66.19 4.48
-7 3 2 64.28 4.55
3 -7 -2 66 4.57
-3 -4 2 66.32 4.4
3 -7 -2 63.71 4.86
-7 4 -2 68.83 4.54
-7 3 2 63.18 4.45
4 -7 2 62.87 4.62
-3 -4 -2 73.24 4.66
-7 3 -2 72.9 4.68
7 -3 -2 63.44 4.7
-4 -3 2 69.55 4.72
3 -7 2 64.36 4.82
-7 3 -2 66.57 4.63
4 -7 -2 69.23 5.01
-3 -4 -2 68.22 4.82
-4 7 -2 66.89 4.64
-4 -3 2 70.43 4.72
-3 -4 -2 69.14 4.73
-4 -3 2 69.6 4.59
-7 4 2 66.81 4.71
-7 4 2 64.42 4.63
-3 7 2 70.52 4.65
3 -7 2 62.12 4.53
-7 5 -2 127.31 9.22
-5 -2 -2 141.59 9.32
7 -5 -2 149.78 9.41
-5 -2 -2 152.08 9.39
-2 -5 2 136.94 9.4
-7 2 2 142.79 9.4
-2 7 -2 137.64 9.27
2 -7 -2 144.53 9.68
5 -7 2 119.04 9.15
-7 5 -2 146.72 9.38
-7 2 2 143.13 9.3
-5 -2 -2 146.09 9.32
-2 -5 2 139.17 9.32
5 -7 2 140.51 9.42
-5 7 2 140.37 9.33
2 -7 -2 144.74 9.39
-5 -2 2 122.94 8.24
-7 5 2 116.13 8.19
-2 7 2 109.94 8.18
-5 7 -2 121.56 8.15
-5 -2 2 121.96 8.12
-7 2 -2 128.75 8.22
-2 7 2 127.53 8.18
-7 2 -2 116.2 8.16
2 -7 2 118.28 8.34
5 -7 -2 127.75 8.52
-7 5 2 117.73 8.16
-2 -5 -2 134.3 8.23
-2 -5 -2 122.57 8.23
-2 -5 -2 133.31 8.44
-5 -2 2 125.87 8.2
-7 6 -2 3.8 0.93
-7 1 2 3.19 0.72
-7 1 2 2.6 1.02
-7 1 2 2.52 0.95
1 -7 -2 3.78 0.92
-6 7 2 2.38 0.86
-1 7 -2 2.51 0.64
-6 -1 -2 3.65 0.93
-7 6 -2 1.93 0.48
6 -7 2 1.26 0.83
-1 -6 2 4.38 0.89
-7 1 2 2.77 0.63
-1 7 -2 2.27 0.7
-6 7 2 3.92 0.79
-6 7 2 3.56 0.84
-7 6 -2 1.06 0.65
1 6 2 0.86 0.59
1 -7 -2 1.31 1.18
7 -6 -2 3.15 1.01
-6 -1 -2 2.95 0.62
-1 -6 2 3.41 0.92
-6 -1 -2 2.87 0.79
-6 -1 2 0.74 0.65
-6 -1 2 0.23 0.72
-6 -1 2 0.86 0.84
-7 6 2 0.54 0.67
-6 7 -2 0.75 0.67
6 -7 -2 0.89 1.03
1 -7 2 1.43 0.92
-7 1 -2 0.89 0.72
-6 -1 2 0.46 0.54
1 -7 2 0.6 0.62
-7 6 2 1.03 0.69
-1 -6 -2 0.72 0.76
-7 6 2 0.31 0.73
-1 7 2 1.64 0.72
-7 1 -2 0.1 0.65
-6 7 -2 0.91 0.66
-1 7 2 0.45 0.78
-7 1 -2 0.9 0.72
1 6 -2 0.6 0.63
7 -6 2 -0.04 0.36
-1 -6 -2 0.24 1.05
0 7 -2 9.13 1.37
0 7 2 9.49 1.49
-7 0 2 9.36 1.07
0 -7 -2 9.33 1.29
-7 7 -2 6.61 1.3
-7 7 2 9.61 1.17
-7 0 2 9.43 1.51
-7 0 -2 10.96 1.06
-7 0 2 8.72 1.12
0 7 -2 9.72 1.04
-7 0 -2 10.61 1.32
0 -7 2 7.53 1.14
0 -7 -2 12.07 1.74
-7 0 2 10.82 1.41
-7 7 2 8.12 1.24
-7 7 -2 9.21 1.18
7 -7 2 6.18 1.1
7 -7 -2 11.81 1.8
0 -7 2 10.5 1.56
-7 7 2 11.19 1.22
4 -8 -2 66.89 4.27
-8 4 2 49.79 4.25
-4 8 -2 63.01 4.14
-4 -4 2 54.6 4.02
-8 4 -2 57.3 4.09
-8 4 2 58.03 4.21
-4 -4 2 59.64 4.22
4 -8 -2 61.75 4.6
-4 8 2 55.44 4.11
-4 -4 -2 63.26 4.26
-4 -4 -2 63.7 4.18
-4 8 2 61.25 4.16
-4 -4 -2 60.44 4.21
8 -4 -2 50.47 4.13
4 -8 2 54.07 4.35
-8 4 -2 64.63 4.24
-8 4 2 57.44 4.11
-8 4 -2 58.28 4.29
-4 -4 2 63.27 4.22
5 -8 2 18.29 2.14
-3 8 -2 20.75 1.67
-5 -3 -2 21.66 1.85
8 -5 -2 16.69 1.76
-5 -3 -2 20.63 1.76
-8 3 2 17.6 1.9
-3 -5 2 20.2 1.77
-8 5 -2 20.86 1.86
-5 -3 -2 20.45 1.8
-3 -5 2 18.19 1.56
3 -8 -2 21.65 1.89
-8 5 -2 17.54 1.92
-8 5 -2 18.69 1.6
3 -8 -2 18.94 2.35
-8 3 2 18.77 1.69
-8 3 2 18.36 1.86
-3 -5 2 19.76 1.86
-5 8 2 20.23 1.64
-5 -3 2 22.59 1.92
3 -8 2 22.57 2.34
-5 -3 2 25.01 2.11
8 -3 -2 20.4 2.02
-8 5 2 26.18 2
-3 8 2 25.1 2.16
-8 3 -2 27.24 2.1
-5 8 -2 25.43 2.02
-3 -5 -2 25.14 2.1
-8 3 -2 24.21 2.26
5 -8 -2 24.92 2.57
-8 3 -2 26.31 2.03
-3 -5 -2 27.09 2.08
-3 8 2 24.34 1.94
-3 -5 -2 24.22 2.27
3 5 -2 22.04 2
-5 -3 2 23.93 2.09
-8 5 2 23.66 2.04
-8 2 2 7.4 1.25
-8 6 -2 6.12 0.79
-2 -6 2 6.3 1.07
-8 2 2 5.86 1.26
-6 -2 -2 8.14 1.11
-2 8 -2 7.38 1
-2 -6 2 6.62 1.15
-6 -2 -2 8.09 1.22
6 -8 2 5.09 1.15
2 6 2 3.99 0.95
-6 8 2 6.99 1.1
-6 8 2 4.1 1.08
-8 6 -2 6.51 1.18
2 -8 -2 7.62 1.61
-2 8 -2 5.17 0.97
-8 6 -2 8.64 1.12
8 -6 -2 4.83 1.08
-6 -2 -2 7 1.12
-8 2 2 7.07 1.02
2 -8 -2 9.08 1.3
-6 8 -2 8.31 1.1
-6 -2 2 8 1.25
2 -8 2 6.08 1.32
6 -8 -2 6.36 1.44
-6 -2 2 4.81 1.05
-2 -6 -2 8.96 1.22
-8 6 2 7.56 1.09
-2 8 2 7.86 1.11
-8 2 -2 8.55 1.24
-2 -6 -2 6.88 1.29
-8 2 -2 8.08 1.25
2 -8 2 5.49 0.9
-2 -6 -2 8.93 1.22
-8 2 -2 8.33 1.16
-6 8 -2 5.73 1.02
-6 -2 2 6.46 0.95
2 6 -2 7.9 1.16
-8 6 2 5.16 1.04
-8 6 2 7.7 1.06
-6 -2 2 8.24 1.23
-2 8 2 7.59 1.23
7 -8 2 26.54 2.48
-8 1 2 30.09 2.6
-7 -1 -2 33.63 2.57
-1 8 -2 30.77 2.46
-1 -7 2 33.61 2.68
1 7 2 31.21 2.51
-1 -7 2 30.33 2.39
-7 -1 -2 32.36 2.42
1 -8 -2 34.52 2.57
-8 1 2 28.67 2.3
-7 8 2 31.89 2.34
-8 7 -2 25.15 2.43
1 -8 -2 35.98 3.08
8 -7 -2 26.18 2.67
-8 1 2 30.97 2.35
-1 8 -2 29.79 2.3
-7 8 2 29.03 2.58
-8 7 -2 33.56 2.46
-8 1 2 30.05 2.58
-8 7 -2 28.45 2.58
1 -8 2 27.94 2.56
-8 1 -2 25.85 2.31
-7 -1 2 26.47 2.33
7 -8 -2 27.74 2.75
-8 1 -2 29.4 2.34
-7 -1 2 25.34 2.09
-8 7 2 25.13 2.18
-8 1 -2 26.76 2.25
-1 -7 -2 28.99 2.3
-7 -1 2 28.86 2.22
-1 -7 -2 31.85 2.76
-1 8 2 27.03 2.29
-8 7 2 24.07 2.44
-8 7 2 27.82 2.2
1 7 -2 27.33 2.24
-7 -1 2 26.08 2.36
-7 8 -2 25.46 2.2
-8 0 2 -0.55 0.92
0 8 -2 1.2 0.83
-8 0 2 -0.1 0.81
0 -8 -2 0.27 0.9
-8 8 -2 0.06 0.59
0 -8 2 0.33 1.03
-8 8 -2 0.17 0.78
-8 0 2 -0.59 0.99
-8 0 2 0.01 0.6
8 -8 -2 -1.44 1.07
0 -8 2 0.32 0.8
0 8 2 -0.53 0.81
-8 0 -2 0.65 0.94
-8 0 -2 -0.46 0.77
-8 0 -2 -0.29 0.91
-8 8 2 -0.3 0.62
-8 8 -2 0.47 0.84
-8 8 2 -0.19 0.75
-8 8 2 -0.34 0.89
0 -8 -2 -0.95 1.24
-9 4 2 5.46 1.05
-9 4 2 5.9 1.32
-9 5 -2 6.22 1.26
-5 9 2 4.88 0.93
-4 -5 2 5.78 1.07
5 -9 2 3.21 1.24
4 -9 -2 7.2 1.39
-5 -4 -2 6.36 1.2
-9 5 -2 5.39 0.97
-4 9 -2 4.42 0.99
-4 -5 2 6.76 1.18
4 -9 -2 4.99 1.51
-5 -4 -2 7.13 1.01
-5 -4 -2 5.68 1.09
-9 4 2 5.61 1.22
-4 9 -2 6.12 1.03
-9 5 -2 6.89 1.11
-5 9 2 3.42 1.15
-4 -5 2 5 0.91
-5 9 2 6.69 1
-4 -5 -2 5.28 0.96
-4 -5 -2 5.76 1.13
-4 9 2 4.38 0.93
4 5 -2 3.96 0.84
-9 4 -2 4.25 1.09
-9 5 2 5.51 1.13
5 -9 -2 4.26 1.48
-9 4 -2 5.11 0.99
-4 -5 -2 5.12 1.2
4 -9 2 3.13 1.27
5 -9 -2 5.82 1.16
-9 5 2 6.08 0.99
-5 -4 2 4.55 1.11
-5 -4 2 4.83 0.91
-9 5 2 4.38 1.18
-9 4 -2 5.34 1.17
-5 -4 2 4.54 0.96
-5 9 -2 5.97 1.05
-4 9 2 5.72 1.09
-5 9 -2 3.45 0.95
-9 3 2 37.31 2.82
-9 3 2 37.91 2.99
-3 -6 2 32.1 2.71
-6 9 2 36.78 2.77
-6 9 2 34.54 3.04
-9 6 -2 36.81 2.96
-9 3 2 38.05 3.04
-3 9 -2 34.99 2.87
6 -9 2 30.34 3.12
-3 -6 2 39.8 3.02
-3 9 -2 38.04 2.82
-6 -3 -2 36.48 2.84
-9 6 -2 41.58 3.01
-6 -3 -2 38.68 2.97
-6 -3 -2 39.29 2.89
3 -9 -2 40.63 3.46
3 -9 -2 38.75 3
-3 -6 2 38.28 2.9
-6 -3 2 35.26 3.03
-9 6 2 42.29 3.13
-6 9 -2 46.46 3.18
-9 6 2 40.58 3.17
6 -9 -2 47.25 3.72
-6 9 -2 34.42 3.2
-6 -3 2 45.55 3.2
-3 -6 -2 45.37 3.47
-9 6 2 34.75 3.22
-9 3 -2 43.01 3.29
-9 3 -2 43.16 3.14
3 6 -2 39.3 3.15
-9 6 2 41.26 3.26
-6 -3 2 45.02 3.3
3 -9 2 42.27 3.52
-3 9 2 43.26 3.18
-9 3 -2 44.79 3.24
-3 -6 -2 47.88 3.25
-3 -6 -2 43.77 3.26
-3 9 2 44.86 3.27
-2 -7 2 96.68 7.61
-7 -2 -2 114.21 7.75
-2 9 -2 107.58 7.67
-9 7 -2 124.31 7.82
2 -9 -2 124.64 7.88
-7 -2 -2 126.64 7.88
-9 7 -2 105.83 7.76
-9 2 2 104.6 7.69
-2 9 -2 107.54 7.74
2 -9 -2 130.67 8.24
-2 -7 2 111.18 7.76
-9 2 2 114.74 7.86
2 7 2 109.64 7.79
-2 -7 2 120.66 7.92
-7 9 2 114.97 7.76
-9 2 2 118.3 7.93
-9 7 -2 117.94 7.84
-7 9 2 114.26 7.88
2 7 -2 106.51 7.3
-7 -2 2 90.56 7.21
-2 -7 -2 119.71 7.66
-7 -2 2 100.65 7.36
-2 -7 -2 107.49 7.39
-9 2 -2 111.1 7.36
-9 2 -2 108.99 7.36
7 -9 -2 114.37 7.75
-7 -2 2 108.87 7.3
2 -9 2 111.92 7.62
-2 9 2 106.92 7.32
-9 7 2 105.88 7.33
-7 -2 2 106.77 7.43
-7 9 -2 90.2 7.34
-9 7 2 109.35 7.28
-9 2 -2 107.25 7.4
-9 7 2 107.98 7.46
-2 9 2 109.37 7.32
-2 -7 -2 120.25 7.39
-7 9 -2 114.82 7.33
-1 -8 2 17.4 2
1 8 2 23.81 2.18
-9 8 -2 23.87 2.08
-8 9 2 23.88 2.05
-9 1 2 23.69 2.26
1 -9 -2 24.33 2.75
-8 -1 -2 23.35 2.06
1 -9 -2 23.96 2.17
-1 9 -2 22.47 1.91
-8 -1 -2 27 2.35
-8 9 2 22.33 2.21
-9 8 -2 22.82 2.16
-9 1 2 19.54 1.9
-1 -8 2 24.83 2.38
-1 9 -2 21.57 2.11
-8 -1 -2 19.1 2.06
-9 8 -2 22.62 2.08
-9 1 2 25.31 2.29
-9 1 -2 27.17 2.3
-9 1 -2 27.14 2.25
-9 8 2 24.7 2.16
-1 -8 -2 27.6 2.33
8 -9 -2 21.48 2.68
-8 9 -2 27.06 2.34
-1 -8 -2 29.06 2.75
-8 -1 2 20.25 2.01
-9 8 2 24.44 2.07
1 8 -2 25.86 2.28
-8 -1 2 27.93 2.43
-1 9 2 26.59 2.38
-8 9 -2 26.88 2.24
-9 8 2 24.15 2.35
-9 1 -2 25.08 2.33
1 -9 2 27.61 2.67
-8 -1 2 25.96 2.46
0 9 -2 11.01 1.38
-9 9 2 8.86 1.56
-9 0 -2 8.6 1.43
-9 0 2 9.81 1.61
-9 9 2 9.17 1.25
0 -9 -2 10.86 1.54
0 9 2 12.19 1.73
-9 9 2 8.67 1.36
-9 9 -2 8.34 1.34
-9 9 -2 10.41 1.54
-9 0 -2 9.69 1.65
0 -9 2 9.05 1.69
-9 0 2 9.87 1.6
-9 0 -2 10.18 1.42
0 -9 -2 9.71 1.82
-5 -5 -2 24.42 2.43
-10 5 -2 29.67 2.58
-5 10 -2 29.15 2.37
5 5 -2 26.5 2.4
-10 5 2 28.49 2.62
5 -10 -2 29.53 2.53
-5 10 2 28.1 2.43
-10 5 -2 31.41 2.56
-5 -5 2 27.02 2.47
-10 5 2 27.08 2.32
5 -10 -2 30.34 3.04
-5 -5 -2 30.61 2.37
5 -10 2 23.59 2.88
-5 -5 2 27.42 2.44
-5 -5 -2 31.84 2.47
-10 5 2 28.39 2.49
-5 10 2 29.51 2.73
-5 10 2 30.65 2.45
-5 10 -2 25.65 2.3
-5 10 -2 25.36 2.4
4 -10 -2 4.54 1.23
-4 -6 2 1.76 0.8
-6 -4 -2 4.77 1.16
-4 -6 2 3.26 1.08
-6 -4 -2 4.74 1.18
-10 6 -2 4.81 1.25
-4 10 -2 3.13 0.89
-4 -6 2 3.83 1.26
-4 10 -2 4.27 1.1
-6 10 2 5.63 1.14
-10 4 2 4.45 1.25
6 -10 2 2.01 1.19
-10 4 2 5.48 1.36
4 -10 -2 2.85 1.54
-10 4 2 4.6 1.06
-10 6 -2 6.12 1.26
-4 10 -2 4.39 1.04
-6 10 2 4.29 0.96
-6 10 2 4.23 1.21
-4 -6 -2 6.72 1.35
-6 -4 2 5.09 1.05
6 -10 -2 5.61 1.3
-10 6 2 7.13 1.24
-10 4 -2 6.84 1.34
-10 4 -2 6.06 1.16
-10 6 2 6.67 1.11
-6 -4 2 5.52 1.29
-10 6 2 7.4 1.38
-6 10 -2 7.22 1.22
-4 -6 -2 6.7 1.3
-4 10 2 6.98 1.24
-6 10 -2 8.35 1.43
-4 10 2 6.86 1.09
-10 6 2 4.17 1.08
4 -10 2 4.33 1.46
-4 -6 -2 7.23 1.29
6 -10 -2 4.94 1.64
-10 4 -2 8.84 1.4
4 6 -2 6.9 1.08
3 -10 -2 21.26 2.67
-7 10 2 16.6 1.79
3 7 2 20.11 2.08
3 -10 -2 23.57 2.28
-7 -3 -2 20.76 1.82
-3 10 -2 17.8 2.11
-7 -3 -2 23.3 1.96
-3 -7 2 19.72 2.11
-10 3 2 17.16 1.8
-10 7 -2 20.97 2.11
-3 10 -2 19.94 1.93
-10 7 -2 19.99 2.03
-10 3 2 20.45 2.11
-7 10 2 18.33 1.9
-7 10 2 19.86 2.27
-10 3 2 20.11 2.26
-3 -7 2 18.13 1.91
-10 7 -2 22.12 2.1
-3 -7 -2 25.02 2.6
-3 -7 -2 23.85 2.16
-10 7 2 23.28 2.01
-7 -3 2 20 2.06
-7 10 -2 25.11 2.34
-3 10 2 21.5 2.06
-3 -7 -2 24.84 2.22
-10 3 -2 22.47 2.16
-10 7 2 21.95 2.21
-7 -3 2 23.59 2.18
3 -10 2 21.79 2.55
-3 10 2 23.74 2.21
-10 3 -2 22.94 2.3
-7 -3 2 25.36 2.31
-10 3 -2 22.39 2.04
-7 10 -2 24.09 1.96
-10 7 2 19.39 2.15
-10 7 2 20.31 2.03
7 -10 -2 20.87 2.57
3 7 -2 21.83 2.12
-10 2 2 27.43 2.53
-8 -2 -2 28.98 2.54
-10 8 -2 28.23 2.27
2 8 2 27 2.47
-8 -2 -2 26.6 2.35
-2 10 -2 23.75 2.17
-2 10 -2 23.62 2.47
-10 8 -2 27.96 2.49
-10 8 -2 28.37 2.48
2 -10 -2 26.93 2.9
-2 -8 2 27.11 2.61
2 -10 -2 25.08 2.43
-10 2 2 26.8 2.64
-8 10 2 25.72 2.21
-8 10 2 27.53 2.51
-2 -8 -2 32.83 2.61
-2 -8 -2 27.06 2.61
-10 8 2 28.31 2.45
2 8 -2 30.59 2.58
-2 -8 -2 31.8 2.99
-10 2 -2 28.11 2.5
2 -10 2 30.62 3.01
-8 -2 2 30.9 2.71
-8 10 -2 31.36 2.42
-10 2 -2 30.89 2.73
-10 2 -2 28.89 2.57
-10 8 2 29.08 2.52
-2 10 2 29.35 2.61
-8 10 -2 32.06 2.62
-8 -2 2 29.15 2.71
-10 8 2 30 2.66
-2 10 2 28.7 2.53
-9 -1 -2 11.39 1.7
-9 10 2 13.48 1.77
-9 -1 -2 14.92 1.63
1 -10 -2 11.48 1.68
-1 -9 2 13.72 2.24
-10 9 -2 13.63 1.68
-10 9 -2 13.84 1.64
-10 9 -2 13.79 1.74
1 9 2 14.88 1.78
-10 1 2 14.69 1.91
-1 10 -2 12.21 1.69
-9 10 2 12.22 1.55
-9 -1 -2 12.99 1.78
-10 1 2 13.43 1.94
1 -10 -2 11.76 2.03
-10 9 2 11.31 1.72
-9 10 -2 16.21 1.91
-9 10 -2 14.43 1.62
1 -10 2 13.23 2.18
-1 -9 -2 13.34 1.73
-1 -9 -2 13.15 2.15
-9 -1 2 13.52 1.9
-10 1 -2 11.73 1.76
-1 10 2 13.7 1.69
-10 1 -2 12.34 1.65
1 9 -2 13.79 1.78
-10 9 2 12.74 1.58
-10 1 -2 15.62 1.9
-9 -1 2 14.41 1.92
-10 10 2 2.38 0.97
-10 10 -2 1.82 0.89
0 -10 2 -0.35 1.22
-10 0 2 0.12 1.1
-10 0 -2 1.07 0.97
-10 0 -2 0.03 0.96
-10 0 2 1.87 1.29
0 -10 -2 -0.04 1.03
0 10 2 3.03 1.09
0 10 -2 1.45 0.94
-10 10 -2 0.74 1.01
-10 10 2 0.05 0.91
0 -10 -2 -1.63 1.32
-10 10 -2 0.69 0.78
-10 0 -2 2.1 1.12
-5 11 -2 18.58 1.9
-11 6 -2 18.9 1.94
-11 5 2 17.84 1.96
-6 -5 -2 20.08 1.77
-11 5 2 19.45 2.17
-11 6 -2 19.63 2.06
-5 -6 2 13.96 1.94
5 -11 -2 14.58 2.42
-5 11 -2 14.88 1.76
-6 11 2 20.59 2.13
-5 11 -2 18.54 2.03
-6 -5 -2 18.62 1.99
-6 11 2 18.35 1.92
-6 11 2 17.53 1.89
6 5 -2 14.15 1.87
-5 -6 2 13.98 1.82
-5 11 2 18.08 1.94
-5 11 2 18.77 1.85
-6 11 -2 18.55 1.85
-11 6 2 18.91 2.14
-5 11 2 17.87 2.13
-11 5 -2 20.71 2.03
-5 -6 -2 17.65 1.97
-11 6 2 14.57 1.82
5 6 -2 19.53 2.08
-11 5 -2 20.06 2.1
-6 11 -2 20.4 1.96
-5 -6 -2 19.81 1.8
-11 6 2 16.91 2.04
-6 -5 2 17.15 1.99
-4 11 -2 23.19 2.27
-11 7 -2 29.8 2.56
-7 11 2 28.18 2.69
4 -11 -2 24.52 2.98
-11 4 2 27.46 2.55
-11 7 -2 29.88 2.56
-4 -7 2 22.95 2.47
-7 11 2 27.62 2.33
-4 11 -2 26.34 2.5
-7 11 2 25.55 2.37
-7 -4 -2 27.86 2.52
-11 7 -2 25.44 2.29
-11 4 2 27.85 2.5
-7 -4 -2 28.18 2.4
4 7 2 24.77 2.47
-7 11 -2 29.24 2.54
-4 11 2 31.23 2.58
-7 -4 2 28.33 2.56
-4 11 2 26.52 2.47
-11 7 2 30.38 2.72
-11 4 -2 32.1 2.7
-4 -7 -2 31.2 2.63
-4 -7 -2 27.53 2.62
4 7 -2 30.67 2.6
-11 7 2 28.73 2.72
-7 11 -2 32.39 2.63
-11 4 -2 32.33 2.65
-7 -4 2 29.26 2.65
-11 8 -2 3.54 1.04
-11 8 -2 2.17 1.09
-11 8 -2 2.89 1.11
-8 -3 -2 0.93 1.01
3 -11 -2 0.01 1.4
-3 11 -2 2.46 0.97
3 8 2 2.95 1.2
-8 -3 -2 2.55 1.25
3 -11 -2 -0.26 1.18
-3 -8 2 1.01 1.06
-8 11 2 1.69 0.79
-11 3 2 2.93 1.26
-8 11 2 3.06 1.14
-11 3 2 4.5 1.28
-8 11 2 1.13 0.66
-11 3 -2 4.03 1.15
-8 -3 2 3.34 1.29
-8 11 -2 6.44 1.21
-3 11 2 4.41 1.12
-8 -3 2 4.68 1.27
3 8 -2 4.23 1.08
-11 8 2 4.23 1.16
-3 -8 -2 2.42 1.08
-11 8 2 3.52 1.17
3 -11 2 -0.02 1.27
-11 3 -2 4.12 1.23
-8 11 -2 2.36 1.03
-3 11 2 4.33 1.02
-3 -8 -2 2.62 1.13
-2 11 -2 20.77 2.36
-9 11 2 29.01 2.54
2 9 2 29.66 2.53
-9 -2 -2 21.99 2.33
-11 9 -2 27.6 2.51
-11 2 2 27.08 2.71
-11 9 -2 29.21 2.53
-9 -2 2 7.06 1.43
-11 2 -2 3.53 1.1
-11 10 -2 19.43 2.13
-11 10 -2 18.08 2.12
1 10 2 25.5 2.4
-10 11 2 24.09 2.28
-1 11 -2 19.98 2.19
-10 -1 -2 21.12 2.23
-11 1 2 21.7 2.31
-10 11 -2 25.23 2.43
-10 -1 2 20.42 2.41
-11 1 -2 21.68 2.37
1 10 -2 22.27 2.27
-11 10 2 20.4 2.27
-1 11 2 25.57 2.37
-11 11 -2 -0.05 0.87
-11 11 -2 -0.22 0.85
0 11 -2 0.19 0.95
-11 0 2 0.62 1.15
-11 11 2 0.44 1.01
0 11 2 -0.39 0.92
-11 0 -2 -0.71 1.1
-6 -6 -2 0.07 1.04
-6 12 2 -0.48 0.78
-6 12 -2 0.4 0.93
-12 6 2 0.01 1.12
-12 6 2 -0.28 0.77
-12 6 -2 0.38 1.12
-12 6 -2 -0.03 0.94
6 6 -2 0.39 0.99
-6 12 2 -0.44 1.09
-6 12 2 -0.01 0.96
-6 12 -2 0.36 0.88
-12 5 2 20.31 2.24
-12 7 -2 20.06 2.09
-5 12 -2 17.45 1.89
5 7 2 13.63 2.09
-5 12 -2 13.6 1.87
-7 12 2 16.12 1.89
-7 12 2 16.47 2.07
-12 7 2 14.15 1.94
5 7 -2 12.73 1.82
-5 12 2 10 1.79
-12 5 -2 13.66 1.79
-12 7 2 12.75 1.89
-7 12 -2 15.14 1.74
-5 12 2 11.62 1.6
-12 8 -2 7.37 1.35
-4 12 -2 4.26 1.01
-8 12 2 4.58 0.97
-12 8 -2 5.51 1.16
-12 4 2 8.65 1.57
-8 12 2 8.06 1.46
-4 12 -2 6.01 1.3
4 8 2 6.87 1.42
-4 12 2 6.16 1.21
-12 4 -2 11.52 1.65
-8 12 -2 8.21 1.51
-12 8 2 7.8 1.45
-12 8 2 7.58 1.44
4 8 -2 6.39 1.26
-8 -4 2 4.26 1.22
-12 9 -2 13.1 1.71
3 9 2 15.36 2.13
-3 12 -2 11.48 1.74
-12 9 -2 14.12 1.94
-9 12 2 13.35 1.86
-12 3 2 14.94 2.02
-3 12 2 16.39 1.84
-9 -3 2 14.36 1.99
3 9 -2 16.28 2.09
-12 3 -2 14.63 1.87
-12 9 2 15.31 2.09
-12 9 2 11.44 1.73
-9 12 -2 16.77 2.05
-2 12 -2 6.14 1.37
-12 10 -2 6.04 1.2
-12 2 2 7.97 1.6
-10 12 2 7.38 1.43
2 10 2 5.47 1.37
-12 10 -2 6.01 1.35
-10 -2 -2 5.09 1.28
-12 10 2 1.89 1.03
2 10 -2 3.27 1.11
-2 12 2 3.5 1.07
-10 -2 2 3.43 1.37
-10 12 -2 3.38 1.07
-12 2 -2 2.46 1.11
1 11 2 23.48 2.28
-11 -1 -2 19.09 2.28
-11 12 2 22.1 2.29
-1 12 -2 19.9 2.34
-12 11 -2 22.03 2.35
-12 11 -2 16.84 2.17
-12 1 2 20.55 2.5
1 11 -2 17.43 2.29
-11 12 -2 22.88 2.24
-12 11 2 19.3 2.38
-12 1 -2 19.05 2.35
-1 12 2 19.76 2.16
-11 -1 2 19.36 2.43
-12 12 2 3.68 1.29
-12 0 2 2.16 1.39
0 12 -2 3.53 1.25
-12 12 -2 3.52 1.22
0 12 2 3.37 1.16
-12 0 -2 2.54 1.37
-7 13 2 -0.56 0.87
7 6 -2 -1.14 0.97
-6 13 -2 0.93 0.94
-13 7 -2 -0.14 1.06
-6 13 -2 0.24 0.93
6 7 2 -0.35 1.05
-13 6 2 0.82 1.14
-7 13 2 0.82 1.17
6 7 -2 0.39 0.98
-6 13 2 1.27 0.91
-13 7 2 1.53 1.2
-13 7 2 -0.43 0.84
-13 6 -2 1.75 1.06
-7 13 -2 1.32 0.94
-6 13 2 -0.06 1.1
-7 13 -2 0.9 1
-13 8 -2 7.75 1.48
-13 8 -2 4.2 1.09
-5 13 -2 3.95 1.05
-8 13 2 5.9 1.28
-5 13 -2 6.52 1.24
-8 13 2 5.09 1.04
5 8 2 4.85 1.38
-5 13 2 8.28 1.37
-5 13 2 4.01 1.36
5 8 -2 6.23 1.43
-8 13 -2 6.62 1.24
-13 5 -2 8.71 1.48
-13 8 2 5.91 1.3
-13 8 2 6.2 1.4
-4 13 -2 31.32 2.99
-13 9 -2 32.33 2.91
-13 4 2 35.17 3.13
-13 9 -2 32.94 2.89
-9 13 2 34.43 3.02
-4 13 2 37.82 3.16
-9 13 -2 42.11 3.28
4 9 -2 39.03 3.31
-13 4 -2 40.27 3.31
-13 9 2 30.45 3.09
-9 -4 2 34.3 3.2
-13 9 2 38.47 3.36
-10 13 2 11.23 2.03
-3 13 -2 10.72 1.76
3 10 2 15.57 2.26
-13 3 2 11.67 2.02
-13 10 -2 11.86 1.84
-13 10 -2 10.45 1.69
3 10 -2 14.56 2.17
-13 10 2 14.29 2.14
-3 13 2 15.68 1.87
-10 13 -2 17.54 1.99
-10 -3 2 14.33 2.12
-13 10 2 10.77 1.9
-13 3 -2 16.57 2.01
-11 13 2 1.57 1.15
-13 11 -2 0.55 0.98
-13 2 2 1.2 1.37
-13 11 -2 1.07 1.13
-2 13 -2 0.72 1.05
2 11 2 1.72 1.24
-11 -2 -2 -0.17 1.11
-13 11 2 0.95 1.07
-2 13 2 0.66 0.95
-13 2 -2 0.74 1.1
-11 -2 2 0.21 1.14
2 11 -2 0.93 1.07
-11 13 -2 1.57 1.02
-12 13 2 7.49 1.53
-12 -1 -2 4.37 1.36
-13 12 -2 3.34 1.22
-13 12 -2 6.25 1.4
-1 13 -2 6.31 1.38
-13 1 2 6.38 1.59
1 12 2 5.32 1.34
-13 12 2 2.67 1.28
1 12 -2 3.08 1.27
-12 13 -2 2.42 1.12
-1 13 2 2.96 1.15
-12 -1 2 2.37 1.43
-13 1 -2 1.83 1.37
0 13 -2 0.25 1.04
0 13 2 0.37 1.08
-13 0 2 0.16 1.29
-13 13 2 0.55 1.16
-13 13 -2 -0.21 1.08
-13 0 -2 0 1.35
-7 14 -2 0.55 1.02
7 7 -2 0.14 1
-7 14 -2 0.41 1
-14 7 2 1.23 1.26
-14 7 -2 1.45 1.2
-7 14 2 0.09 1.13
-7 14 2 1.12 1.05
-14 8 -2 13.46 1.96
-6 14 -2 8.37 1.54
-8 14 2 11.11 1.92
-14 6 2 10.38 1.91
-6 14 -2 11.22 1.61
-8 14 2 8.54 1.41
-14 6 -2 11.11 1.71
6 8 -2 7.35 1.45
-6 14 2 10.98 1.55
-8 14 -2 10.66 1.81
-14 8 2 6.6 1.4
-14 8 2 11.83 1.98
-6 14 2 5.67 1.45
-14 5 2 10.61 1.92
-14 9 -2 3.1 1.15
5 9 2 5.34 1.54
-9 14 2 6.21 1.47
-14 9 -2 6.71 1.43
-5 14 -2 7.25 1.41
-9 14 2 4.05 1.07
-5 14 2 7.72 1.41
-9 14 -2 6.99 1.42
5 9 -2 6.6 1.55
-14 5 -2 7.67 1.51
-14 9 2 6.3 1.43
-14 9 2 5.17 1.43
-14 10 -2 6.19 1.5
-4 14 -2 4.94 1.33
-14 4 2 9.24 1.74
4 10 2 3.77 1.36
-14 10 -2 4.93 1.26
-10 14 2 7.13 1.44
-14 10 2 5.37 1.42
4 10 -2 6.56 1.47
-4 14 2 6.15 1.28
-14 10 2 5.22 1.34
-10 -4 2 4.02 1.31
-14 4 -2 9.32 1.69
-10 14 -2 7.42 1.45
-14 3 2 27.8 2.81
-14 11 -2 21.45 2.51
-14 11 -2 23.05 2.63
-3 14 -2 25.13 2.69
-11 14 2 26.96 2.79
3 11 2 30.08 2.97
-11 -3 2 20.34 2.49
-14 11 2 18.56 2.54
-14 3 -2 20.52 2.36
-11 14 -2 22.54 2.47
-3 14 2 21.01 2.37
3 11 -2 21.46 2.56
2 12 2 4.09 1.43
-14 2 2 7.7 1.91
-12 14 2 5.72 1.47
-14 12 -2 3.78 1.33
-2 14 -2 4.25 1.25
-14 12 -2 5.07 1.42
-12 -2 -2 2.25 1.25
-14 12 2 4.4 1.44
-12 -2 2 2.56 1.4
-14 2 -2 5.62 1.48
-2 14 2 5.04 1.27
2 12 -2 4.69 1.47
-12 14 -2 7.75 1.54
-14 1 2 1.28 1.56
-13 -1 -2 -0.51 1.26
-14 13 -2 -0.22 1.62
-13 14 2 1.32 1.16
1 13 2 0.98 1.24
-14 13 -2 0.53 1.09
-1 14 -2 0.57 1.14
13 1 -2 -0.01 0.57
-13 -1 2 1.17 1.49
-1 14 2 0.65 1.1
-14 13 2 1.42 1.28
-13 14 -2 0.41 1.21
1 13 -2 -0.19 1.07
-14 1 -2 0.73 1.43
0 14 2 3.48 1.27
-14 14 -2 2.99 1.26
-14 14 2 -0.19 0.83
0 14 -2 4.18 1.35
14 -14 2 1.65 0.83
-14 0 2 4.58 1.74
14 0 -2 1.85 0.77
-14 0 -2 3.78 1.67
14 -14 -2 -0.38 0.97
-14 14 2 4.35 1.5
-15 8 -2 23.37 2.42
-7 15 -2 20.56 2.35
-8 15 2 17.63 2.11
-8 15 2 17.44 2.43
-15 7 2 23.57 2.65
-7 15 -2 15.3 2.24
-7 15 2 19.51 2.27
-15 7 -2 23.77 2.55
-8 15 -2 23.61 2.36
7 8 -2 18.31 2.52
-7 15 2 18.32 2.55
-15 8 2 25.81 2.68
-9 15 2 5.91 1.28
6 9 2 1.82 1.4
-15 9 -2 9.51 1.69
-6 15 -2 5.32 1.3
-15 6 2 9.34 1.86
-9 15 2 7.03 1.59
-9 15 -2 7.61 1.49
-6 15 2 8.75 1.51
-15 9 2 9.12 1.71
6 9 -2 5.34 1.37
-15 9 2 5.08 1.36
-15 6 -2 9.17 1.61
-15 10 -2 31.66 2.87
-10 15 2 32.47 3.11
-5 15 -2 31.11 2.96
5 10 2 26.69 3.16
-15 5 2 34.78 3.29
-15 10 -2 23.69 2.76
5 10 -2 34.22 3.38
-15 10 2 28.95 3.09
-5 15 2 35.92 3.18
-10 15 -2 36.86 3.18
-15 5 -2 38.35 3.22
-11 15 2 14.84 2.29
-4 15 -2 13.72 2.19
-15 11 -2 12.34 2.03
-15 11 -2 12.73 2.13
-15 4 2 16.87 2.55
-11 15 -2 22.72 2.5
4 11 -2 23.2 2.56
-4 15 2 25.11 2.57
-15 4 -2 23.52 2.67
-11 -4 2 19.31 2.47
-15 11 2 22.15 2.7
-15 12 -2 10.28 1.91
3 12 2 10.24 1.82
-15 12 -2 10.84 2.02
-15 3 -2 15.55 2.19
-12 -3 2 13.43 2.26
-3 15 2 14.93 2.24
-12 15 -2 15.85 2.36
-15 12 2 14.37 2.38
3 12 -2 13.08 2.17
-2 15 -2 8.07 1.58
-15 2 2 8.02 1.8
-15 2 2 2.99 0.98
-2 -13 2 3.68 0.82
-13 15 2 6.24 1.07
13 -15 2 2.98 0.83
-15 13 -2 5.79 1.38
2 13 2 6.58 1.47
2 -15 -2 1.26 0.67
15 -13 2 10.53 1.34
-15 2 -2 7.44 1.73
-13 -2 2 9.66 1.88
-13 15 -2 8.89 1.5
13 -15 -2 8.16 1.22
-13 15 -2 12.4 2.05
2 13 -2 9.85 1.72
-2 15 2 11.01 1.63
-15 13 2 9.53 1.76
1 14 2 10.9 1.86
14 -15 2 10.71 1.41
-14 15 2 8.35 1.65
14 1 -2 9.96 1.26
-15 1 2 14.06 2.48
-15 14 -2 9.4 1.76
-14 15 2 10.15 1.37
-1 -14 2 6.57 1.11
-15 14 -2 6.7 1.18
-1 15 -2 11.15 1.81
-14 -1 -2 7.09 1.81
15 -14 2 8.09 1.29
14 -15 -2 7.47 1.23
-14 15 -2 9.93 1.78
-1 15 2 8.06 1.53
1 14 -2 9.17 1.74
15 -1 -2 8.3 1.15
-15 14 2 8.94 1.8
-15 14 2 4.78 1.11
-15 1 -2 10.34 2.05
-14 -1 2 7.59 1.9
-14 15 -2 6.41 1.17
0 15 2 6.42 1.56
0 15 -2 6.55 1.53
-15 15 2 7.03 1.21
-15 15 -2 6.93 1.17
-15 0 -2 5.54 1.8
-15 0 2 4.33 1.66
-15 15 -2 5.13 1.6
15 -15 -2 4.51 1.1
15 0 -2 5.66 1.08
-15 15 2 3.49 1.4
0 -15 2 4.78 1.06
15 0 2 3.78 0.96
-15 0 2 3.65 1.11
15 -15 2 6.35 1.18
-8 16 -2 0.89 1.11
8 -16 -2 2.71 0.94
-8 16 2 1.76 1.21
-16 8 2 3.03 1.45
16 -8 2 0.09 0.71
-8 16 -2 1.25 1.07
-8 16 2 2.16 1.27
-16 8 -2 3.13 1.34
8 8 2 1.96 0.71
8 8 -2 0.59 1.22
-9 -7 -2 15.47 1.66
-16 7 2 24.05 2.74
-9 16 2 18.11 2.22
7 -16 -2 18.86 1.82
-7 16 -2 14.09 2.19
-9 16 2 17.03 2.43
-7 16 -2 18.53 2.36
-16 9 -2 20.05 2.29
-16 7 -2 28.77 2.62
9 7 2 23.37 2.02
-7 16 2 25.74 2.51
-16 7 -2 19.81 1.99
-7 16 2 20.33 2.64
9 -16 -2 27.8 2.19
16 -9 2 18.22 2.07
-9 16 -2 30.64 2.82
7 9 -2 24.18 2.75
-6 16 -2 7.31 1.51
6 -16 -2 6.87 1.05
-10 16 2 10.48 1.74
-6 -10 2 5.86 0.95
-16 6 2 3.81 0.91
6 10 2 2.23 1.41
10 6 2 7.11 1.11
6 10 -2 4.8 1.38
-16 6 -2 5.6 0.98
-6 16 2 5.11 1.36
16 -10 2 6.63 1.16
-16 10 2 7.87 1.64
10 -16 -2 8.44 1.27
-16 6 -2 9.12 1.77
-10 16 -2 6.22 1.47
5 -16 -2 4.75 1.01
-16 11 -2 2.74 1.27
-5 -11 2 6.17 1.1
-16 11 -2 5.76 1.57
-16 5 2 5.37 1.05
11 5 -2 4.86 0.92
-5 16 -2 4.8 1.45
16 -5 2 3.1 0.88
5 11 2 3.65 1.48
-16 5 2 7.75 1.9
-11 16 2 7.48 1.6
-16 11 2 6.97 1.59
11 5 2 6.6 1.1
-5 16 2 6.4 1.47
-16 5 -2 7.1 1.08
16 -11 2 6.28 1.14
-16 5 -2 9.49 1.77
11 -16 -2 8.89 1.2
-11 16 -2 11.36 1.8
5 11 -2 8.92 1.73
-16 11 2 5.88 1.5
4 -16 -2 19.52 1.87
4 12 2 19.05 2.68
-12 16 2 22.41 2.48
12 4 -2 18.23 1.83
16 -4 2 17.34 1.81
-16 4 2 18.7 1.98
-4 16 -2 18.03 2.53
-16 12 -2 16.36 2.4
-12 16 2 18.59 1.96
-4 -12 2 18.21 1.96
-16 12 -2 14.83 2.26
4 12 -2 24.66 2.76
12 -16 -2 23.66 2.23
-4 16 2 25.44 2.6
16 -12 2 22.99 2.29
-12 16 -2 30.15 2.99
12 4 2 24.08 2.24
-12 16 -2 23.97 2.26
-16 4 -2 24.69 2.83
-16 12 2 23.25 2.84
-16 4 -2 22.8 2.12
-3 -13 2 7.22 1.2
-13 16 2 8.6 1.26
-3 16 -2 5.36 1.43
-16 13 -2 6.41 1.6
13 3 -2 6.51 1.1
-13 16 2 9.08 1.7
13 -16 2 8.49 1.26
3 -16 -2 5.75 1.09
-16 3 2 8.42 2
-16 3 2 8.04 1.3
3 13 2 9.34 1.84
16 -3 2 7.09 1.21
-13 -3 2 5.04 1.61
-13 16 -2 8.61 1.26
-13 16 -2 6.79 1.54
-16 3 -2 4.16 0.99
16 -13 2 6.62 1.23
-16 3 -2 5.66 1.7
-3 16 2 8.2 1.63
16 -3 -2 4.56 0.96
13 -16 -2 7.9 1.3
3 13 -2 4.45 1.46
13 3 2 5.05 1.1
-16 13 2 7.34 1.67
2 14 2 7.58 1.75
16 -14 -2 4.69 1.09
-16 2 2 9.69 2.16
14 -16 2 8.59 1.34
-2 16 -2 5.28 1.42
16 -2 2 8.49 1.24
-16 14 -2 5.85 1.62
-16 14 -2 6.13 1.12
-16 2 2 6.27 1.18
2 -16 -2 6.25 1.11
-2 -14 2 5.09 1.13
14 2 -2 10.28 1.28
-14 16 2 8.6 1.64
-14 -2 2 9.42 1.99
14 -16 -2 11.84 1.46
-16 2 -2 9.85 1.32
-16 2 -2 8.9 1.94
16 -14 2 12.09 1.47
-16 14 2 6.86 1.59
2 14 -2 7.74 1.57
-14 16 -2 13.13 1.66
-14 16 -2 10.06 1.8
14 2 2 9.28 1.25
-2 16 2 10.76 1.76
14 2 2 7.6 1.3
16 -2 -2 11.84 1.58
-16 14 2 10.61 1.43
-15 16 2 3.23 1.03
-16 1 2 1.49 1.03
16 -1 2 -0.06 0.81
-16 1 2 4.32 1.86
-16 15 -2 3.46 1.55
16 -1 2 2.31 0.98
-1 16 -2 3 1.45
15 -16 2 4.34 1.17
16 -15 -2 1.69 1.03
-16 15 -2 2.43 0.97
-1 -15 2 2 1.01
1 -16 -2 4.06 1.01
15 1 -2 3.06 1.01
1 15 2 3.99 1.48
-15 16 2 4.44 1.57
-16 15 2 1.8 1.3
15 -16 -2 1.93 1
-1 16 2 1.11 1.37
15 1 2 1.51 1
-16 15 2 2.66 1.06
-15 16 -2 1.74 1.32
-16 1 -2 3.13 1.76
15 1 2 2.73 1.14
1 -16 2 1.27 0.93
-15 16 -2 3.62 1.1
1 15 -2 2.07 1.39
16 -15 2 2.54 1.03
-15 -1 2 2.54 1.7
16 -1 -2 2.05 1.02
16 0 2 -0.16 1.02
-16 16 -2 1.23 0.94
-16 0 2 0.45 1.57
-16 16 -2 0.64 1.42
0 -16 -2 1.1 0.97
0 16 2 -0.31 1.25
16 -16 -2 -0.73 0.99
-16 16 2 0.89 1.38
-16 0 -2 -0.66 1.42
-16 0 2 -0.37 1.02
0 16 -2 0.6 1.24
0 -16 2 0.84 1.02
-16 16 2 0.47 0.95
16 0 2 0.82 0.94
16 -16 2 0.7 1.02
16 0 -2 0.87 0.97
-8 17 -2 17.55 2.58
-17 8 2 23.68 2.15
-9 17 2 23.78 2.62
-17 9 -2 28.95 2.9
-17 8 2 31.18 3.06
-8 -9 2 24.41 2.17
-17 9 -2 24.55 2.15
8 9 2 24.6 2.18
8 -17 -2 25.18 2.36
-9 -8 -2 24.41 2.2
17 -8 2 22.1 2.31
-9 17 2 20.65 2.76
-17 8 -2 20.36 2.54
-9 -8 2 19.68 1.81
-9 17 -2 13.13 2.29
-17 9 2 18.4 2.6
9 8 2 17.45 1.87
-17 8 -2 17.63 1.84
-8 17 2 19.87 2.47
-8 -9 -2 16.86 1.92
9 -17 -2 18.99 2.04
17 -9 2 18.21 1.99
-7 -10 2 5.05 1.05
-17 10 -2 2.67 1.41
17 -7 2 2.75 1.01
7 -17 -2 5.92 1.24
-7 17 -2 4.45 1.46
7 10 2 3.87 0.95
-10 17 2 3.87 1.42
-17 7 2 5.72 1.71
10 7 -2 4.65 0.98
-10 -7 -2 5.56 1.01
-17 7 2 4.78 1.09
-17 10 -2 4.39 0.97
-17 7 -2 10.27 1.21
-10 -7 2 6.18 1.05
-7 17 2 9.89 1.62
-7 -10 -2 7.98 1.12
17 -10 2 5.88 1.17
7 10 -2 5.79 1.5
-17 7 -2 9.02 1.72
-17 10 2 9.03 1.76
-10 17 -2 6.5 1.53
10 7 2 7.88 1.13
10 -17 -2 9.42 1.33
-11 17 2 31.98 3.26
-17 6 2 36.84 3.43
6 -17 -2 29.78 2.6
17 -6 2 28.17 2.58
-6 17 -2 30.22 3.05
-17 6 2 30.98 2.53
11 6 -2 25.1 2.49
11 -17 2 22.85 2.36
6 11 2 28.2 2.45
-6 -11 2 31.16 2.54
-11 -6 -2 29.32 2.47
-17 11 -2 28.36 3.06
-11 17 -2 34.25 3.33
-11 -6 2 30.59 2.54
-17 6 -2 36.39 3.31
11 -17 -2 32.75 2.73
-11 17 -2 29.95 2.63
-17 11 2 26.66 3.01
-6 -11 -2 30.45 2.56
11 6 2 32.56 2.71
-6 17 2 32.02 3.15
-17 6 -2 30.37 2.55
17 -11 2 33.86 2.73
-5 17 -2 13.22 1.97
12 -17 2 12.95 1.81
17 -5 2 13.32 1.77
-12 17 2 13.57 1.76
5 12 2 10.45 1.54
12 5 -2 12.32 1.81
5 12 2 7.91 1.88
-17 5 2 14.56 2.59
-17 5 2 12.77 1.74
5 -17 -2 12.77 1.84
-5 -12 2 14.23 1.81
-12 17 2 14 2.44
12 -17 -2 8.99 1.3
17 -12 2 9.87 1.33
-12 -5 2 7.81 1.12
-5 -12 -2 7.61 1.05
5 12 -2 7.75 1.65
12 5 2 8.84 1.28
-17 5 -2 12.2 2.05
-17 12 2 5.12 1.43
-12 17 -2 7.85 1.6
-12 17 -2 10.69 1.57
-17 5 -2 10 1.5
17 -5 -2 8.18 1.08
-5 17 2 6.7 1.5
13 4 -2 8.91 1.27
-17 4 2 9.47 2.13
-13 17 2 8.71 1.75
4 13 2 3.5 1.54
-4 17 -2 6.91 1.64
-13 17 2 6.89 1.17
17 -13 -2 6.19 1.18
4 -17 -2 7.77 1.26
13 -17 2 6.34 1.21
-17 4 2 6.5 1.19
-4 -13 2 9.89 1.32
17 -4 2 6.41 1.25
-17 13 -2 5.32 1.5
4 13 2 6.18 1.08
13 4 2 8.99 1.35
-17 13 2 6.38 1.64
-13 17 -2 8.08 1.71
-17 4 -2 6.19 1.72
-4 17 2 6.38 1.49
-13 17 -2 8.35 1.21
17 -4 -2 6.66 1.09
-17 4 -2 7.79 1.21
4 13 -2 6.52 1.6
13 4 2 4.86 1.04
17 -13 2 7.8 1.28
13 -17 -2 8.65 1.36
-17 3 2 7.98 1.98
-3 17 -2 10.67 1.85
17 -3 2 10.76 1.37
-17 3 2 10.08 1.41
14 -17 2 9.18 1.41
3 -17 -2 10.04 1.32
17 -14 -2 8.97 1.32
-17 14 -2 6.49 1.66
-14 17 2 8.44 1.29
-14 17 2 11.04 1.91
3 14 2 6.92 1.72
-3 -14 2 10.27 1.31
14 3 -2 8.91 1.23
3 14 2 8.76 1.21
-17 3 -2 8.32 1.22
-14 17 -2 11.06 1.73
-17 14 2 5.24 1.52
17 -14 2 8.51 1.35
17 -3 -2 7.15 1.19
-17 14 2 7.14 1.27
-14 17 -2 8.88 1.82
14 3 2 10.43 1.42
3 14 -2 8.57 1.77
14 -17 -2 10.62 1.47
14 3 2 8.27 1.21
-3 17 2 9.04 1.69
-17 3 -2 7.18 1.85
2 15 2 3.07 1.54
2 15 2 2.09 0.8
-17 15 -2 2.06 1
2 -17 -2 2.58 1
-17 2 2 0.65 0.99
15 2 -2 2.26 1
-15 17 2 1.83 1.45
17 -15 -2 1.49 0.99
17 -2 2 1.51 0.93
-2 17 -2 3.61 1.5
-17 2 2 2.02 1.75
-2 -15 2 2.37 1.01
-17 15 -2 1.39 1.44
15 -17 2 2.24 1.15
-15 17 2 2.78 0.99
15 2 2 3.66 1.17
15 -17 -2 1.29 1.01
-15 17 -2 3.17 1.04
15 2 2 3.06 1.04
-17 2 -2 1.81 0.98
-15 17 -2 2.75 1.56
17 -2 -2 3.16 1.03
-17 2 -2 2.43 1.66
17 -15 2 2.79 1.1
-2 17 2 1.74 1.36
-17 15 2 2.75 1.45
2 15 -2 1.97 1.33
2 -17 2 0.82 0.83
-15 -2 2 0.1 1.38
-17 15 2 2.77 1.05
-17 1 2 5.31 1.89
-1 17 -2 2.91 1.38
17 -16 -2 3.6 1.08
-17 16 -2 3.78 1.54
1 -17 -2 4.64 1.08
17 -1 2 3.42 1.04
16 1 -2 5.91 1.2
1 16 2 4.81 1.52
17 -1 2 3.3 1.05
-16 17 2 4.25 1.48
-1 -16 2 4.12 1.12
-16 17 2 3.56 1.06
16 -17 2 5.82 1.18
-17 1 2 2.61 1.11
-17 16 -2 4.62 1.13
-17 1 -2 -0.17 1.39
-16 -1 2 1.41 1
-16 -1 2 -0.01 1.36
17 -16 2 3.41 1.14
-17 1 -2 1.25 0.92
-1 17 2 3.88 1.33
-16 17 -2 3.72 1.08
-16 17 -2 4.01 1.62
-17 16 2 3.08 1.03
16 1 2 3.51 1.07
1 -17 2 1.62 0.89
-1 -16 -2 4.17 1.07
16 -17 -2 3.84 1.1
-17 16 2 1.56 1.32
16 1 2 2.18 1.06
17 -1 -2 3.69 1.07
1 16 -2 3.48 1.41
-17 17 -2 1.62 0.98
17 -17 2 1.53 1.05
0 -17 -2 1.01 0.97
17 0 2 0.75 1.04
0 17 2 0.74 1.27
-17 0 2 0.51 0.99
0 17 -2 2.06 1.34
-17 0 -2 -1.39 0.79
17 0 -2 0.73 0.98
17 0 2 1.22 0.98
-17 17 2 1.39 1.35
-17 0 2 -0.14 1.41
-17 17 -2 0.38 1.43
0 -17 2 0.86 0.88
17 -17 -2 0.57 0.95
-17 17 2 0.56 0.89
-9 -9 2 2.67 0.92
9 9 2 2.38 0.95
-18 9 2 4.39 1.67
-9 18 -2 0.19 1.09
-18 9 2 2.26 0.92
-9 18 2 2.09 1.2
18 -9 2 1.57 1.01
-9 -9 -2 2.33 0.97
-9 18 2 -0.43 1.16
-18 9 -2 2.85 0.9
9 -18 2 2.28 0.81
9 9 -2 1.95 0.94
9 -18 -2 3.84 1.17
-18 9 -2 2.52 1.49
10 8 -2 17.54 1.94
8 10 2 17.71 1.92
-18 8 2 21.18 2.76
-10 18 2 15.18 2.47
-18 8 2 19.37 1.98
18 -8 2 17.48 1.96
-18 10 -2 16.63 1.88
-18 10 -2 18.56 2.58
-8 -10 2 19.1 1.83
-10 -8 -2 18.21 1.93
8 -18 -2 18.67 1.98
10 -18 2 14.44 1.84
10 8 2 21.03 2.04
-18 8 -2 23.27 2.72
-8 -10 -2 21.34 1.98
-18 8 -2 20.28 1.93
10 -18 -2 21.37 2.21
-18 10 2 16.48 1.89
-10 -8 2 22.64 2
18 -10 2 22.1 2.26
-10 18 -2 15.27 2.57
-8 18 2 19.24 2.58
7 -18 -2 7.82 1.32
-18 7 2 8.06 1.96
18 -7 2 4.02 1.15
-11 18 2 3.16 1.39
7 11 2 6.06 1.05
-18 7 2 4.92 1.06
-11 -7 -2 6.64 1.09
-11 18 2 4.05 1.04
-18 11 -2 4.36 1.6
-7 18 -2 3.24 1.3
11 7 -2 4.86 1.07
-7 -11 2 5.82 1.08
11 -18 2 3.78 1.13
-18 11 -2 4.75 1.02
-7 18 2 3.89 1.38
11 -18 -2 7.5 1.29
-18 7 -2 5.83 1.72
11 7 2 5.42 1.04
-7 -11 -2 5.87 1.09
-11 18 -2 3.67 1.06
-11 18 -2 6.28 1.62
-11 -7 2 5.11 1.05
-18 7 -2 5.76 1.02
11 7 2 6.77 1.16
-18 11 2 3.84 1.47
18 -11 2 4.42 1.17
-18 6 2 5.14 1.76
18 -6 2 2.79 1.12
-6 -12 2 3.49 1.02
-18 12 -2 2.3 0.87
-12 18 2 3.43 1.41
-12 -6 -2 6.03 1.09
6 12 2 2.67 0.85
-18 12 -2 3.02 1.51
12 -18 2 4.33 1.17
12 6 -2 5.67 1.07
-18 6 2 5.81 1.16
-6 18 -2 3.57 1.45
6 -18 -2 5.05 1.16
-12 18 2 5.38 1.12
18 -12 -2 2.15 0.9
-12 18 -2 5.67 1.15
-18 6 -2 6.25 1.79
12 6 2 5.92 1.16
18 -12 2 6.23 1.24
6 12 -2 2.09 1.26
-6 18 2 5.67 1.52
-12 -6 2 4.1 0.99
12 6 2 3.76 1
-12 18 -2 3.52 1.42
12 -18 -2 6.45 1.21
-18 6 -2 3.7 0.92
18 -6 -2 4.5 0.94
-6 -12 -2 5.48 1.07
5 -18 -2 2.33 1.12
5 13 2 1.69 0.94
-13 18 2 2.02 0.98
-5 -13 2 4.35 1.1
-18 5 2 3.84 1.82
-18 13 -2 -0.58 1.15
18 -13 -2 0.75 0.94
-13 18 2 1.59 1.38
13 -18 2 1.85 1.03
13 5 -2 2.92 1.03
-5 18 -2 2.5 1.43
-18 5 2 2.35 0.95
18 -5 2 2.57 1.12
-13 -5 -2 3.16 0.97
-18 5 -2 2.67 0.91
-13 18 -2 3.31 1.49
13 5 2 3.51 1.08
-18 5 -2 4.73 1.75
-5 18 2 3.29 1.38
18 -5 -2 2.68 0.9
18 -13 2 4.95 1.14
5 13 -2 2.74 1.33
-5 -13 -2 3.33 0.96
-13 18 -2 4.2 1.09
13 5 2 3.6 0.99
-13 -5 2 1.99 0.9
13 -18 -2 4.18 1.18
18 -4 2 2.51 1.03
18 -14 -2 4.9 1.19
-18 4 2 6.08 1.91
-14 18 2 5.59 1.14
4 14 2 2.47 1
4 -18 -2 5.09 1.16
4 14 2 0.82 1.32
-4 -14 2 3.55 1.01
14 4 -2 3.58 1.06
-18 4 2 4.1 1.04
14 -18 2 3.89 1.17
-14 -4 -2 5.84 1.11
-14 18 2 2.79 1.39
-4 18 -2 3.81 1.42
-14 18 -2 5.28 1.15
14 -18 -2 3.35 1.15
-14 18 -2 1.97 1.39
18 -14 2 4.32 1.14
18 -4 -2 3.01 1
4 14 -2 2.78 1.4
-18 14 2 2.3 1.01
-4 18 2 2.88 1.39
14 4 2 2.77 0.96
-14 -4 2 1.79 0.83
-18 4 -2 3.48 1
-18 4 -2 3.36 1.58
-4 -14 -2 2 0.95
14 4 2 3.02 1.12
15 3 -2 5.42 1.16
-18 3 2 4.32 1.72
-18 3 2 4.74 1.17
3 15 2 5.66 1.05
-15 18 2 3.85 1.4
3 -18 -2 6.39 1.16
-18 15 -2 5.37 1.12
-3 18 -2 3.16 1.39
18 -15 -2 4.33 1.18
-15 18 2 8.17 1.24
3 15 2 3.57 1.45
18 -3 2 4.94 1.1
-3 -15 2 4.24 1.09
15 -18 2 4.81 1.2
-18 3 -2 3.41 0.98
3 -18 2 1.16 0.81
-18 3 -2 3.48 1.65
-3 18 2 3.72 1.41
18 -3 -2 2.89 1.03
15 3 2 3.66 1.01
18 -15 2 5.02 1.17
-15 18 -2 3.5 1.04
-15 -3 2 1.15 0.78
-15 18 -2 4.43 1.66
15 -18 -2 3.41 1.08
-18 15 2 1.2 1.22
-18 15 2 2.4 1.04
15 3 2 4.34 1.13
3 15 -2 2.7 1.45
-2 -16 2 6.79 1.19
-18 16 -2 5.26 1.11
-16 18 2 5.97 1.69
-18 2 2 4.67 1.17
-2 18 -2 4.77 1.51
2 16 2 4.36 0.94
-18 2 2 6.06 1.86
18 -2 2 6.23 1.17
2 -18 -2 7.81 1.23
16 -18 2 5.98 1.16
-16 18 2 5.8 1.11
18 -16 -2 5.97 1.21
16 2 -2 8.77 1.3
2 16 2 4.7 1.47
-16 18 -2 4.7 1.12
16 2 2 4.55 1.19
-18 16 2 2.76 1.31
-18 16 2 3.49 1.03
18 -16 2 3.3 1.07
-18 2 -2 2.99 1
-18 2 -2 -0.47 1.5
-2 18 2 4.09 1.45
-2 -16 -2 4.13 1.03
-16 18 -2 3.29 1.58
-16 -2 2 1.12 0.9
18 -2 -2 4.09 1.07
16 -18 -2 3.53 1.06
2 16 -2 3.66 1.43
2 -18 2 2.94 0.91
16 2 2 3.32 1.04
-17 18 2 1.06 1.3
-1 -17 2 1.11 0.87
-18 1 2 1.44 1
18 -17 -2 0.99 0.96
17 -18 2 2.22 1.02
-18 17 -2 1.77 0.96
-1 18 -2 1.35 1.3
1 17 2 -0.07 0.51
-18 17 -2 -0.54 1.06
1 17 2 0.34 1.1
-18 1 2 0.1 2.29
-17 18 2 1.93 0.84
18 -1 2 0.91 0.95
1 -18 -2 1.67 1
17 1 -2 2.22 1.05
18 -1 2 0.71 1.07
17 1 2 0.9 0.96
17 -18 -2 0.53 0.99
18 -1 -2 1.03 1.02
-18 17 2 1.59 0.98
-1 18 2 0.26 1.14
1 17 -2 0.43 1.17
17 1 2 1.45 0.95
-1 -17 -2 0.45 0.9
-18 17 2 -0.22 1.1
-17 18 -2 1.15 0.92
18 -17 2 0.86 0.98
-17 18 -2 -0.39 1.33
1 -18 2 0.43 0.86
-17 -1 2 -0.3 0.92
-18 1 -2 0.39 0.89
0 18 2 -0.11 1.14
18 0 2 2.82 0.97
0 -18 2 3.57 0.92
-18 18 -2 3.59 0.99
-18 0 2 1.97 0.98
-18 18 2 3.41 1.03
0 -18 -2 3.06 0.99
18 -18 -2 3.28 1.02
18 0 2 1.99 0.97
18 0 -2 3.99 1.07
18 -18 2 3.66 1.08
-18 18 2 -0.28 1.51
-19 9 2 4.72 1.08
-19 10 -2 4.74 1.04
9 10 2 5.07 1.02
10 -19 2 3.02 1.02
-9 -10 2 4.89 1.05
9 -19 -2 4.66 1.14
-10 -9 -2 3.76 0.94
19 -9 2 3.15 1.08
-19 9 2 3.03 1.61
10 9 -2 4.59 1.04
-19 10 -2 3.94 1.58
10 -19 -2 2.23 1.09
-10 19 -2 0.71 0.81
-9 -10 -2 2.14 0.84
-19 10 2 1.52 0.92
-19 10 2 3.92 1.66
9 -19 2 1.62 0.91
9 10 -2 2.85 0.93
-10 -9 2 2.89 0.93
19 -10 2 1.87 0.98
-19 9 -2 3.45 0.94
10 9 2 3.75 0.95
-19 9 -2 2.8 1.44
-10 19 -2 -0.48 1.15
-19 8 2 6.57 1.91
11 -19 2 4.17 1.1
-11 19 2 3.32 0.96
-8 -11 2 4.22 1.02
19 -8 2 4.11 1.13
8 11 2 3.3 0.85
11 8 -2 5.95 1.11
-19 8 2 3.47 1.01
-19 11 -2 3.29 1.56
8 -19 -2 3.97 1.08
-19 11 -2 4.62 1.01
-11 -8 -2 4.94 0.99
-19 11 2 2.84 0.93
19 -11 2 4.43 1.16
-11 19 -2 0.89 1.2
-11 19 -2 2.82 0.98
8 11 -2 3.52 0.87
-19 8 -2 2.78 1.47
-19 11 2 -0.11 1.3
-11 -8 2 6.04 1.05
-8 -11 -2 3 0.88
11 -19 -2 6.89 1.25
8 -19 2 3.45 0.95
-8 19 2 2.97 1.24
7 12 2 5.12 1
12 -19 2 5.85 1.2
-12 19 2 3.86 1.42
19 -12 -2 4.65 1.08
19 -7 2 5.32 1.2
-19 7 2 5.33 1.05
12 7 -2 3.73 0.98
-19 12 -2 5.22 1.03
-19 12 -2 2.7 1.45
-7 -12 2 7.84 1.2
7 -19 -2 7.3 1.22
-19 7 2 7.36 1.95
-12 19 2 3.54 1.02
-12 -7 -2 5.79 1.08
-19 7 -2 3.56 0.9
19 -12 2 2.77 1.02
-7 -12 -2 2.8 0.92
-19 7 -2 3.68 1.63
-7 19 2 2.39 1.21
-12 -7 2 3.62 0.97
19 -7 -2 2.75 0.82
-12 19 -2 0.67 1.32
12 -19 -2 4.09 1.12
-12 19 -2 4.27 1.1
12 7 2 4.28 1.02
19 -6 2 0.06 1.02
-6 -13 2 0.88 0.94
-13 -6 -2 0.57 0.84
-19 6 2 1.58 0.97
6 -19 -2 0.46 0.97
13 6 -2 -0.08 0.84
-6 19 -2 0.56 1.09
6 13 2 0.29 0.89
19 -13 -2 0.85 0.98
-13 19 2 1.01 1.33
-13 19 2 0.7 0.89
-19 13 -2 -0.56 0.77
-19 6 2 1.97 1.58
13 -19 2 1.46 1
-13 -6 2 1.3 0.86
-6 19 2 1.21 1.26
13 -19 -2 0.96 1.1
13 6 2 0.73 0.87
-13 19 -2 1.08 0.95
-13 19 -2 0.04 1.4
-19 6 -2 1.18 1.51
-19 6 -2 1.14 0.79
19 -6 -2 1.32 0.85
13 6 2 0.56 0.93
19 -13 2 1.18 1
-6 -13 -2 -0.05 0.85
-14 19 2 2.42 0.98
-5 19 -2 0.72 1.16
5 14 2 0.65 0.92
5 -19 -2 1.12 1
-19 5 2 2.92 1.64
-5 -14 2 0.5 0.88
-14 -5 -2 1.56 0.93
-19 5 2 1.86 1.01
14 5 -2 1.82 0.92
19 -14 -2 0.56 0.93
-14 19 2 0.59 1.23
19 -5 2 0.12 0.98
14 -19 2 1.12 1.02
-14 19 -2 1.27 0.95
19 -5 -2 1.87 0.88
-19 5 -2 0.8 0.79
14 5 2 1.8 0.97
-5 -14 -2 1.05 0.91
19 -14 2 0.29 0.95
-14 -5 2 0.94 0.82
-5 19 2 0.85 1.26
-14 19 -2 -0.28 1.35
-19 5 -2 2.01 1.59
14 5 2 0.86 0.9
5 14 -2 -0.28 1.15
14 -19 -2 1.37 1.13
-19 14 2 -0.64 0.73
-4 19 -2 1.36 1.32
19 -15 -2 1.81 1
15 4 -2 2.29 0.92
-19 4 2 3.86 1.09
19 -4 2 1.86 0.96
-15 -4 -2 2.61 0.98
-4 -15 2 3.22 1
4 15 2 2.1 0.93
-19 4 2 2.95 1.63
4 -19 -2 2.42 1.08
-19 15 -2 1.26 0.93
15 -19 2 2.47 1.08
-15 19 2 3.55 0.97
-15 19 2 1.66 1.31
15 4 2 1.96 0.92
4 -19 2 -0.1 0.49
19 -4 -2 0.27 0.93
-19 4 -2 0.45 0.82
-19 15 2 1.53 0.92
-15 -4 2 0.55 0.78
-4 19 2 1.6 1.26
15 4 2 1.79 0.98
15 -19 -2 0.91 1.02
-15 19 -2 2.72 1.01
-15 19 -2 0.18 1.3
-19 4 -2 0.93 1.43
-4 -15 -2 0.43 0.9
4 15 -2 -0.45 1.07
19 -15 2 0.95 0.95
-19 16 -2 7.97 1.25
-3 -16 2 7.9 1.19
19 -16 -2 7.8 1.31
-19 3 2 7.35 1.27
3 -19 -2 6.58 1.21
3 16 2 7.35 1.09
16 -19 2 8.09 1.22
16 3 -2 9.75 1.24
-16 -3 -2 8.19 1.2
-16 19 2 4.3 1.42
-16 19 2 8.58 1.4
19 -3 2 7.92 1.3
-16 -3 2 3.27 0.85
-19 3 -2 7.43 1.1
-16 19 -2 4.71 1.61
-3 -16 -2 3.04 0.82
-19 16 2 4.52 1.04
3 -19 2 5.4 0.93
-3 19 2 4.99 1.33
16 3 2 5.3 1.07
16 3 2 8.52 1.15
-3 -16 -2 6.28 1.06
-17 19 2 1.23 0.94
17 -19 2 1.39 0.98
-17 19 2 -0.36 1.02
-19 2 2 0.12 0.93
2 17 2 0.2 0.68
19 -2 2 1.15 0.87
19 -2 2 0.84 1.03
-2 -17 2 0.44 0.89
-17 -2 -2 1.45 0.91
-2 19 -2 -0.38 1.1
2 -19 -2 0.59 0.95
19 -17 -2 1.07 0.95
-19 17 -2 0.92 0.94
17 2 -2 1.3 0.93
-17 19 -2 -0.68 1.1
19 -2 -2 1.32 0.98
-17 -2 2 0.14 0.81
17 2 2 1.47 0.94
17 2 2 1.48 0.91
19 -17 2 0.5 0.9
-2 -17 -2 0.69 0.84
-2 19 2 -0.09 1.09
-19 2 -2 0.44 0.84
2 -19 2 0.84 0.82
17 -19 -2 1.76 1.03
-17 19 -2 1.27 0.88
-17 -2 2 -0.2 0.6
-19 17 2 1.19 0.88
-18 19 2 2.06 0.91
19 -1 2 1.46 0.86
1 -19 -2 1.08 0.94
-1 -18 2 0.79 0.84
-19 18 -2 1.02 0.94
19 -18 -2 0.86 0.96
18 1 -2 2.08 0.92
-18 -1 -2 1.81 0.89
-19 1 2 0.93 0.94
18 -19 2 2.74 1.04
19 -1 2 1.12 1.05
1 -19 2 0.86 0.79
-18 19 -2 1.3 0.93
18 1 2 0.66 0.88
-19 1 -2 0.1 0.83
18 1 2 0.13 0.8
-19 18 2 0.28 0.86
19 -18 2 1.18 0.9
-18 -1 2 0.04 0.89
19 -1 -2 0.79 0.95
18 -19 -2 0.87 0.93
-1 -18 -2 -0.02 0.78
-19 19 2 0.87 0.86
19 -19 2 0.36 0.9
-19 19 -2 -0.24 0.83
0 -19 -2 0.12 0.82
-19 0 -2 0.52 0.74
-19 0 2 -0.31 0.85
19 -19 -2 -0.62 0.92
19 0 2 -0.06 0.84
19 0 2 0.41 0.79
0 -19 2 0.14 0.75
19 0 -2 1.03 0.84
10 -20 -2 12.97 1.71
-20 10 2 13.79 1.72
10 -20 2 9.63 1.37
20 -10 2 13 1.49
-20 10 -2 7.23 1.79
-10 -10 -2 10.35 1.52
10 10 2 11.98 1.61
-20 10 -2 15.04 1.6
-10 -10 2 12.66 1.66
10 10 -2 11.93 1.64
-11 -9 -2 9.41 1.39
11 9 -2 10.45 1.27
-11 20 2 6.3 1.12
9 -20 -2 11.38 1.36
20 -9 2 11.44 1.43
-9 -11 2 11.57 1.57
-20 9 2 7.9 1.82
11 -20 2 6.9 1.22
-20 9 2 12.5 1.61
9 11 2 8.38 1.11
-20 11 -2 6.33 1.7
-20 11 -2 11.29 1.55
-20 9 -2 7.14 1.74
-20 11 2 6.52 1.1
-20 9 -2 9.23 1.15
-11 20 -2 5.79 1.1
11 -20 -2 12.13 1.4
11 9 2 10.35 1.23
9 -20 2 6.38 1.16
-11 -9 2 8.23 1.12
-9 -11 -2 8.94 1.12
20 -11 2 8.11 1.23
9 11 -2 8.48 1.16
8 12 2 6.92 1.07
12 8 -2 7.75 1.17
-8 -12 2 11.07 1.27
20 -12 -2 6.09 1.22
-20 12 -2 7.54 1.14
8 -20 -2 8.61 1.21
20 -8 2 6.79 1.21
12 -20 2 6.64 1.2
-20 8 2 6.36 1.1
-12 -8 -2 9.86 1.17
-20 8 2 7.89 1.89
8 -20 2 9.14 1.26
-20 8 -2 12.64 1.5
-20 12 2 8.46 1.21
8 12 -2 11.39 1.45
-12 20 -2 10.59 1.57
12 8 2 12.9 1.59
-20 8 -2 7.26 1.7
12 -20 -2 11.33 1.41
-12 -8 2 11.96 1.49
-8 -12 -2 9.31 1.41
20 -12 2 11.24 1.67
13 7 -2 8.82 1.18
-20 7 2 7.78 1.18
7 -20 -2 5.55 1.09
-20 7 2 5.67 1.77
-7 -13 2 9.02 1.19
-13 -7 -2 9.47 1.16
-13 20 2 5.63 1.05
-20 13 -2 3.62 0.96
13 -20 2 6.03 1.17
20 -13 -2 5.6 1.12
7 13 2 7.22 1.14
20 -7 2 5.53 1.19
-13 -7 2 5.05 1
13 -20 -2 9.8 1.36
20 -7 -2 5.52 1.01
-13 20 -2 6.91 1.15
-20 7 -2 6.44 1.77
20 -13 2 7.08 1.22
13 7 2 8.47 1.19
-20 7 -2 5.63 1
-7 -13 -2 4.25 0.98
-14 20 2 0.61 0.79
6 14 2 1.2 0.96
-20 14 -2 -0.34 0.76
14 6 -2 -0.35 0.8
6 -20 -2 0.81 0.91
20 -14 -2 0.18 0.88
-6 -14 2 1.21 0.88
20 -6 2 -0.06 0.92
14 -20 2 0.85 0.99
-20 6 2 1.5 0.95
-20 6 2 0.8 1.37
-14 -6 -2 0.87 0.83
-20 6 -2 0.23 0.77
14 -20 -2 -0.38 0.98
-6 20 2 0.24 1.43
14 6 2 0.39 0.83
-6 -14 -2 0.11 0.85
-14 20 -2 1.19 0.89
-20 6 -2 0.61 1.35
-14 20 -2 -0.84 1.07
20 -6 -2 0.8 0.8
-14 -6 2 0.66 0.78
20 -14 2 0.55 0.98
-15 -5 -2 8.97 1.18
20 -15 -2 8.1 1.25
-5 -15 2 9.37 1.24
5 -20 -2 7.09 1.22
15 -20 2 11.17 1.39
20 -5 2 6.03 1.17
-15 20 2 9.97 1.52
5 15 2 7.89 1.16
15 5 -2 12.65 1.35
-20 15 2 9.46 1.48
15 5 2 11.32 1.68
15 -20 -2 13.57 1.76
20 -5 -2 10.47 1.53
20 -15 2 13.87 1.66
15 5 2 10.92 1.52
-15 20 -2 11.46 1.66
-5 -15 -2 8.98 1.26
-15 -5 2 11.27 1.43
-20 5 -2 12.08 1.53
16 -20 2 0.1 0.9
-20 4 2 0.01 0.91
-20 16 -2 -0.69 0.79
20 -16 -2 0.26 0.85
20 -4 2 0.62 0.94
4 16 2 0.47 0.82
-4 -16 2 1.22 0.89
4 -20 -2 1 0.94
16 4 -2 1.25 0.84
-16 20 2 1.23 0.9
-16 -4 -2 0.95 0.89
-16 -4 2 -0.2 0.7
16 -20 -2 0.89 0.95
16 4 2 0.01 0.86
-4 -16 -2 0.47 0.82
-16 20 -2 1.12 0.84
-20 16 2 -0.25 0.8
4 -20 2 -0.02 0.48
-4 -16 -2 -0.4 0.78
16 4 2 0.39 0.85
20 -16 2 0.47 0.85
-20 4 -2 0.41 0.77
20 -4 -2 0.45 0.88
-20 17 -2 3.06 0.95
17 -20 2 4.24 1.03
3 -20 -2 3.38 1.05
-3 -17 2 4.07 0.96
17 3 -2 3.26 0.91
-17 -3 -2 3.13 0.93
20 -3 2 3.05 1.09
-20 3 2 3.63 0.99
3 17 2 2.65 0.81
20 -17 -2 1.97 0.91
-17 20 2 4.07 0.99
20 -3 -2 4.97 1.06
-3 -17 -2 3.58 0.91
17 3 2 4.61 1.03
17 3 2 2.67 0.93
-20 17 2 4.34 1.01
-20 3 -2 4.02 0.94
17 -20 -2 4.3 1.1
-17 20 -2 5.21 1.04
20 -17 2 6.13 1.1
-18 20 2 1.1 0.85
20 -2 2 0.49 0.97
2 -20 -2 0.5 0.91
-20 2 2 0.49 0.84
20 -18 -2 0.89 0.85
-20 18 -2 0.11 0.85
18 2 -2 0.19 0.78
-2 -18 2 1.47 0.8
18 -20 2 0.51 0.92
20 -2 2 -0.08 0.55
-18 -2 -2 1.78 0.84
18 2 2 0.23 0.81
18 -20 -2 0.04 0.85
18 2 2 0.57 0.85
-20 2 -2 0.53 0.65
-20 2 -2 0.59 0.8
-2 -18 -2 0.43 0.75
20 -18 2 0.02 0.86
-18 20 -2 0.47 0.85
-18 -2 2 -0.46 0.53
2 -20 2 -0.87 0.66
20 -2 -2 0.16 0.84
-20 18 2 -0.06 0.79
-19 20 2 0.54 0.79
20 -1 2 1.4 0.86
-20 1 2 -0.22 0.83
20 -19 -2 0.24 0.84
-19 -1 -2 1.39 0.71
-1 -19 2 0.7 0.74
19 -20 2 0.52 0.87
1 -20 -2 0.44 0.77
-20 19 -2 1.51 0.84
19 1 -2 0.45 0.75
20 -1 2 1.05 0.69
-19 -1 2 -0.62 0.74
19 1 2 0.53 0.79
-20 19 2 0.74 0.78
-19 20 -2 1.36 0.82
20 -19 2 0.37 0.8
19 -20 -2 0.38 0.88
-20 1 -2 0.87 0.65
-20 1 -2 -1.24 0.78
19 1 2 0.75 0.74
20 -1 -2 0.31 0.8
-1 -19 -2 0.86 0.77
1 -20 2 -0.22 0.68
0 -20 -2 1.36 0.77
20 0 -2 2.14 0.78
20 -20 2 2.57 0.85
-20 20 2 2.15 0.79
-20 0 2 1.22 0.78
-20 0 -2 0.94 0.65
0 -20 2 1.36 0.66
20 -20 -2 2.17 0.87
-20 20 -2 2.01 0.79
20 0 2 0.77 0.66
20 0 2 1.72 0.73
11 -21 2 1.72 0.9
-21 11 -2 2.35 0.88
10 -21 -2 2.99 0.97
-10 -11 2 2.79 0.89
-11 -10 -2 1.56 0.75
10 11 2 2.54 0.78
11 10 -2 1.58 0.83
21 -10 2 1.69 0.95
21 -11 -2 -0.14 0.6
-21 10 2 1.88 0.93
10 11 -2 2.24 0.81
21 -11 2 1.99 0.98
-21 11 2 1.97 0.88
-10 -11 -2 1.88 0.79
10 -21 2 0.92 0.88
-21 10 -2 2.51 0.84
11 10 2 2.4 0.77
-11 -10 2 2.94 0.88
11 -21 -2 2.02 0.96
-11 21 -2 0.18 0.76
-9 -12 2 5.78 1.01
12 -21 2 3.07 0.93
-21 12 -2 5.32 1.02
21 -12 -2 3.73 0.89
21 -9 2 4.05 1.04
-12 -9 -2 5.23 0.95
-21 9 2 5.88 1.06
9 12 2 5.21 0.98
9 -21 -2 3.72 0.96
12 9 -2 3.88 0.93
-12 21 2 3.14 0.91
12 9 2 2.56 0.79
9 -21 2 1.78 0.9
12 9 2 3.56 0.88
-21 9 -2 3.66 0.86
-9 -12 -2 2.53 0.82
21 -12 2 2.44 0.93
-21 12 2 1.27 0.84
9 12 -2 1.2 0.78
-12 21 -2 1.56 0.8
12 -21 -2 4.88 1.07
-12 -9 2 3.68 0.91
-21 13 -2 3 0.89
13 8 -2 4.15 0.96
-13 -8 -2 3.42 0.83
8 13 2 4.61 0.98
-21 8 2 4.43 1.04
21 -13 -2 2.88 0.93
-13 21 2 2.15 0.88
13 -21 2 3.43 0.96
8 -21 -2 4.65 1.02
21 -8 2 3.71 1.04
-8 -13 2 5.87 0.99
-13 -8 2 1.6 0.84
-21 13 2 -0.51 0.74
-21 8 -2 3.15 0.86
-8 -13 -2 1 0.82
13 8 2 2.38 0.85
-13 21 -2 1.3 0.82
8 13 -2 0.31 0.5
13 -21 -2 4.03 1.06
21 -13 2 4.21 1
21 -8 -2 1.9 0.7
8 -21 2 1.19 0.79
21 -7 2 3.4 0.97
7 -21 -2 3.06 0.94
21 -14 -2 2.63 0.97
-14 21 2 2.47 0.91
-14 -7 -2 3.8 0.9
14 7 -2 3.23 0.92
-7 -14 2 2.72 0.86
-21 7 2 3.42 1.02
7 14 2 2.82 0.94
14 -21 2 2.23 1.01
-21 14 -2 1.92 0.84
-14 -7 2 1.04 0.8
-14 21 -2 1.83 0.9
-21 7 -2 1.38 0.76
21 -14 2 0.77 0.85
7 -21 2 -0.05 0.61
14 7 2 1.33 0.78
-7 -14 -2 0.85 0.81
21 -7 -2 0.34 0.76
14 -21 -2 2.14 1
-15 -6 -2 1.63 0.81
6 15 2 1.38 0.84
6 -21 -2 1.12 0.86
21 -6 2 1.25 0.87
-6 -15 2 2.91 0.89
-15 21 2 2.21 0.87
-21 6 2 2.37 0.91
15 -21 2 2.21 0.93
15 6 -2 0.88 0.82
21 -15 -2 1.74 0.88
21 -15 2 2.81 0.95
21 -6 -2 2.15 0.84
-21 6 -2 2.51 0.78
-15 21 -2 2.79 0.93
15 6 2 2.34 0.86
15 -21 -2 3.79 0.99
-15 -6 2 1.76 0.78
-6 -15 -2 1.55 0.83
-5 -16 2 5.22 0.99
5 16 2 3.94 0.92
21 -16 -2 3.16 0.92
5 -21 -2 6.32 1.03
16 5 -2 5.76 1
16 -21 2 6.14 1.06
-21 5 2 6.12 1.05
21 -5 2 3.48 0.98
-16 -5 -2 7.86 1.02
-16 21 2 5.42 1
-21 5 -2 3.46 0.84
21 -16 2 4.6 1.02
-16 -5 2 2.26 0.76
-5 -16 -2 2.27 0.8
-5 -16 -2 2.55 0.81
16 -21 -2 5.18 1.02
-21 16 2 1.19 0.74
21 -5 -2 4.12 0.91
16 5 2 3.44 0.89
-16 21 -2 3.57 0.93
-17 -4 -2 5.83 0.91
4 17 2 4.16 0.87
-21 17 -2 2.57 0.87
4 -21 -2 6.21 1.01
17 4 -2 5.54 0.99
17 -21 2 4.67 1.01
21 -17 -2 3.47 0.94
-4 -17 2 4.76 0.97
21 -4 2 4.52 1.06
-17 21 2 3.91 0.92
-21 4 2 5.72 0.99
17 -21 -2 5.5 1.02
-17 -4 2 2.69 0.73
-21 4 -2 3.83 0.87
17 4 2 4.32 0.95
21 -4 -2 4.56 0.97
-17 21 -2 6.21 1.05
-4 -17 -2 3.32 0.82
21 -17 2 4.65 0.98
-21 17 2 3.67 0.93
-3 -18 2 2.8 0.82
21 -3 2 3.13 1
3 -21 -2 2.59 0.88
-18 -3 -2 5.2 0.91
18 -21 2 3.27 0.97
18 3 -2 4.2 0.94
-21 3 2 3.67 0.87
-18 21 2 5.42 0.96
-21 18 -2 3.03 0.92
21 -18 -2 3.44 0.9
-3 -18 -2 3.84 0.81
-21 18 2 3.5 0.9
21 -18 2 3.75 0.93
-18 21 -2 5.45 0.95
18 3 2 3.12 0.88
-21 3 -2 3.02 0.87
18 3 2 1.83 0.73
21 -3 -2 3.45 0.91
18 -21 -2 5.14 1.02
-2 -19 2 4.61 0.87
-21 2 2 7.41 1.03
19 -21 2 7.81 1.08
19 2 -2 6.72 1.03
2 -21 -2 6.09 0.95
21 -19 -2 6.05 1
-19 -2 -2 9.02 1.18
-19 21 2 7.57 1.27
21 -2 2 5.32 0.92
-21 19 -2 5.98 0.96
21 -19 2 7.76 1.04
-2 -19 -2 3.92 0.84
19 2 2 3.87 0.82
19 -21 -2 5.24 1
21 -2 -2 5.18 0.89
-19 21 -2 7.61 1.23
-21 19 2 5.86 0.97
-21 2 -2 4.75 0.89
1 -21 -2 0.23 0.66
-21 1 2 0.54 0.72
21 -20 -2 0.47 0.74
-1 -20 2 -0.09 0.58
20 -21 2 0.35 0.74
20 1 -2 0.42 0.72
-21 20 -2 0.36 0.63
-20 21 2 0.36 0.7
-20 -1 -2 0.05 0.53
-20 21 -2 0.57 0.67
20 -21 -2 1.14 0.78
21 -1 -2 0.1 0.68
-1 -20 -2 0.39 0.65
-21 20 2 0.34 0.74
20 1 2 -0.12 0.58
21 -20 2 0.32 0.77
21 -21 -2 4.86 0.88
-21 21 2 3 0.79
-21 21 -2 3.31 0.77
21 0 -2 3.87 0.82
21 -21 2 4.8 0.88
-11 -11 2 7.39 1.09
-11 -11 -2 8.91 1.08
-22 11 2 8.03 1.21
11 11 2 11.24 1.2
-22 11 -2 8.98 1.37
11 11 -2 7.21 1.07
11 -22 -2 11.48 1.26
22 -11 2 9.4 1.23
10 -22 -2 0.32 0.8
10 12 2 0.36 0.78
-10 -12 2 0.42 0.73
12 10 -2 0.09 0.7
-22 10 2 0.53 0.88
22 -10 2 0.38 0.82
22 -12 -2 -0.07 0.6
12 -22 2 0.09 0.78
-12 -10 -2 0.52 0.67
-22 12 -2 0.06 0.75
-22 12 2 0.49 0.82
-10 -12 -2 0.66 0.7
12 10 2 0.73 0.66
10 -22 2 1.18 0.79
-22 10 -2 2 0.76
12 10 2 0.11 0.42
-12 22 -2 -0.01 0.71
22 -12 2 1.49 0.88
12 -22 -2 1.44 0.87
-12 -10 2 1.47 0.77
10 12 -2 0.57 0.67
9 13 2 1.82 0.83
-22 9 2 3.44 0.91
13 -22 2 2.18 0.84
9 -22 -2 2.78 0.89
-13 -9 -2 2.96 0.76
13 9 -2 2.87 0.78
-9 -13 2 2.33 0.75
22 -9 2 1.6 0.84
-22 13 -2 2.99 0.84
22 -13 -2 1.18 0.63
-13 22 2 2.59 0.77
13 9 2 1.12 0.7
13 9 2 2.47 0.74
-22 9 -2 2.52 0.77
22 -13 2 1.8 0.9
-22 13 2 0.28 0.78
9 -22 2 0.61 0.72
9 13 -2 1.4 0.57
13 -22 -2 1.37 0.86
-13 22 -2 1.08 0.78
-13 -9 2 2.36 0.8
-9 -13 -2 1.12 0.72
-22 14 -2 0.88 0.74
8 -22 -2 3.01 0.84
-8 -14 2 2.88 0.81
8 14 2 2.03 0.8
-22 8 2 2.22 0.86
14 -22 2 3.1 0.92
-14 22 2 1.63 0.74
-14 -8 -2 2.13 0.71
22 -8 2 1.25 0.86
22 -14 -2 1.51 0.77
14 8 -2 2.79 0.77
-14 -8 2 3.53 0.84
-22 8 -2 2.92 0.75
14 8 2 1.56 0.75
-8 -14 -2 3.05 0.84
14 -22 -2 3.73 0.88
-14 22 -2 2.53 0.9
14 8 2 3.01 0.8
22 -14 2 2.83 0.87
15 7 -2 0.54 0.73
7 15 2 1.11 0.77
15 -22 2 0.08 0.78
-15 22 2 0.36 0.76
-15 -7 -2 0.41 0.65
22 -15 -2 0.7 0.73
-7 -15 2 0.53 0.71
7 -22 -2 0.47 0.81
22 -7 2 -0.06 0.73
-22 7 2 0.37 0.78
22 -7 -2 1.39 0.7
22 -15 2 0.65 0.75
15 7 2 0.16 0.65
-22 7 -2 0.71 0.68
-15 22 -2 0.73 0.77
15 7 2 1.17 0.71
-7 -15 -2 0.66 0.71
15 -22 -2 1.49 0.82
-15 -7 2 0.6 0.68
-22 6 2 1.07 0.76
6 -22 -2 -0.46 0.73
22 -16 -2 0.52 0.78
6 16 2 0.74 0.71
-16 22 2 0.55 0.72
16 6 -2 0.99 0.74
-6 -16 2 0.51 0.73
16 -22 2 0.4 0.78
22 -6 2 0.14 0.76
-16 -6 -2 0.48 0.68
-16 -6 2 0.68 0.66
-6 -16 -2 0.66 0.68
-22 6 -2 1.23 0.7
16 6 2 0.34 0.7
22 -6 -2 1.17 0.74
-6 -16 -2 0.72 0.6
16 -22 -2 1.82 0.85
-16 22 -2 1.73 0.78
22 -16 2 1.65 0.8
22 -17 -2 0.15 0.74
5 -22 -2 0.38 0.75
17 -22 2 0.11 0.79
-17 22 2 0.75 0.74
-17 -5 -2 0.28 0.68
5 17 2 1.21 0.64
-22 5 2 0.07 0.72
17 5 -2 0.63 0.68
22 -5 2 -0.73 0.81
-5 -17 2 -0.18 0.64
22 -17 2 1.22 0.78
-22 5 -2 0.3 0.65
-5 -17 -2 -0.54 0.56
22 -5 -2 0.89 0.71
-5 -17 -2 -0.2 0.47
-17 22 -2 0.95 0.74
17 5 2 0.06 0.7
-17 -5 2 0.16 0.57
17 -22 -2 0.76 0.74
-18 22 2 0.96 0.71
-22 4 2 0.79 0.71
22 -4 2 0.36 0.71
18 -22 2 1.44 0.84
-4 -18 2 0.9 0.66
-18 -4 -2 1.61 0.69
22 -18 -2 0.34 0.73
18 4 -2 1.18 0.68
4 -22 -2 0.62 0.73
-4 -18 -2 0.03 0.49
-18 22 -2 0.77 0.68
18 -22 -2 0.56 0.74
18 4 2 0.57 0.69
22 -18 2 0.27 0.76
-22 18 2 -0.61 0.55
-22 4 -2 -0.43 0.66
22 -4 -2 0.42 0.64
22 -19 -2 4.19 0.8
19 -22 2 5.65 0.92
-19 22 2 5.61 0.88
-3 -19 2 4.01 0.76
-22 3 2 3.18 0.79
19 3 -2 6.14 0.86
-19 -3 -2 4.08 0.77
3 -22 -2 4.75 0.86
22 -3 -2 2.78 0.73
-22 3 -2 2.75 0.76
-19 22 -2 3.59 0.72
19 3 2 2.23 0.73
19 -22 -2 3.78 0.9
-22 19 2 2.6 0.73
22 -19 2 3.97 0.87
-20 -2 -2 0.4 0.5
-2 -20 2 -0.26 0.44
2 -22 -2 0.3 0.52
-22 2 2 0.55 0.63
22 -20 -2 0.65 0.67
20 -22 2 0.71 0.76
-22 20 -2 -0.83 0.47
20 2 -2 0.07 0.66
-20 22 2 0.41 0.71
-20 22 -2 -0.59 0.56
22 -20 2 -0.27 0.75
22 -2 -2 0.23 0.72
20 2 2 0.07 0.53
-22 20 2 0.3 0.62
20 -22 -2 -0.07 0.71
22 -21 -2 4.04 0.74
21 1 -2 3.99 0.84
21 -22 2 5.36 0.93
-21 22 2 4.5 0.85
22 -21 2 5.6 0.95
-21 22 -2 4.15 0.75
21 -22 -2 2.83 0.8
-22 21 2 3.22 0.76
22 -1 -2 5.23 0.83
11 -23 -2 1.51 0.79
-12 -11 -2 1.62 0.66
-23 12 -2 2.92 0.78
12 11 -2 2.42 0.67
-11 -12 2 1.62 0.69
-23 11 2 2.85 0.83
11 12 2 2.42 0.77
23 -11 2 2.34 0.81
12 -23 2 1.37 0.74
-23 12 2 2.07 0.77
12 -23 -2 3.28 0.86
-12 -11 2 4.32 0.79
-11 -12 -2 2.24 0.7
-23 11 -2 2.5 0.73
11 -23 2 1.21 0.7
23 -12 2 2.03 0.79
11 12 -2 1.99 0.65
12 11 2 3.09 0.77
-10 -13 2 5.72 0.84
-13 -10 -2 6.49 0.85
13 -23 2 4.03 0.9
23 -10 2 3.74 0.86
-23 10 2 5.96 0.95
13 10 -2 3.62 0.79
10 13 2 4.81 0.87
-23 13 -2 5.27 0.9
10 -23 -2 6.52 0.96
-13 -10 2 3 0.76
13 10 2 2.94 0.71
-10 -13 -2 3.56 0.73
-23 13 2 2.1 0.76
23 -13 2 3.18 0.82
13 -23 -2 3.76 0.82
-23 10 -2 4.44 0.8
9 -23 -2 2.99 0.81
-9 -14 2 4.21 0.77
14 9 -2 1.46 0.68
23 -9 2 2.19 0.76
9 14 2 2.27 0.74
-23 9 2 3.81 0.82
14 -23 2 2.27 0.75
-14 -9 -2 3.03 0.7
-23 14 -2 1.27 0.7
-14 23 2 2.21 0.69
-14 -9 2 1.29 0.73
14 -23 -2 1.59 0.71
-14 23 -2 0.55 0.67
-23 9 -2 1.39 0.65
-9 -14 -2 1.33 0.66
23 -14 2 1.93 0.79
14 9 2 1.57 0.62
14 9 2 0.54 0.47
-15 -8 -2 0.63 0.66
-8 -15 2 1.85 0.67
23 -8 2 0.25 0.67
8 15 2 0.6 0.65
8 -23 -2 1.08 0.74
23 -15 -2 -0.07 0.76
15 -23 2 0.43 0.71
15 8 -2 0.16 0.63
-15 23 2 -0.25 0.59
-23 8 2 0.37 0.7
-15 -8 2 0.53 0.68
15 8 2 0.17 0.58
15 -23 -2 -0.02 0.69
-23 8 -2 0.62 0.66
15 8 2 0.05 0.56
-15 23 -2 0.3 0.72
-8 -15 -2 0.52 0.62
23 -15 2 0.76 0.75
23 -7 2 1.22 0.68
16 -23 2 2.76 0.85
7 16 2 1.45 0.63
7 -23 -2 1.82 0.76
-23 7 2 2.19 0.72
16 7 -2 2.3 0.75
-16 -7 -2 2.8 0.71
-16 23 2 0.81 0.7
-7 -16 2 1.98 0.69
16 7 2 2.46 0.65
16 7 2 1.36 0.63
16 -23 -2 1.92 0.79
-16 23 -2 0.95 0.69
-16 -7 2 1.57 0.65
23 -16 2 2 0.75
-23 7 -2 2.21 0.67
-7 -16 -2 1.64 0.63
6 -23 -2 0.14 0.68
23 -6 2 0.25 0.71
-6 -17 2 0.4 0.56
-17 -6 -2 0.14 0.61
-23 6 2 0.36 0.66
17 -23 2 -0.07 0.76
-17 23 2 0.11 0.65
17 6 -2 0.43 0.64
6 17 2 0.07 0.45
23 -17 -2 0.04 0.42
23 -17 2 1.19 0.71
-23 6 -2 0.46 0.62
17 6 2 0.36 0.59
17 -23 -2 0.94 0.68
-17 -6 2 -0.44 0.4
-6 -17 -2 -0.19 0.66
-17 23 -2 0.53 0.65
17 6 2 0.38 0.61
18 5 -2 4.52 0.79
-18 -5 -2 5.53 0.83
18 -23 2 4.94 0.89
-23 5 2 4.73 0.81
-5 -18 2 3.91 0.72
5 -23 -2 4 0.8
-18 23 2 4.03 0.83
18 -23 -2 5.71 0.9
18 5 2 4.42 0.81
-23 5 -2 2.93 0.73
-18 23 -2 5.39 0.83
18 5 2 2.98 0.71
-4 -19 2 0.19 0.55
-19 -4 -2 0.84 0.6
23 -19 -2 -0.17 0.53
19 -23 2 -0.18 0.72
4 -23 -2 0.39 0.51
19 4 -2 0.16 0.65
-23 4 2 0.52 0.65
-19 23 2 0.51 0.73
23 -4 -2 -0.04 0.63
-23 4 -2 -0.47 0.49
19 4 2 -0.11 0.61
19 -23 -2 0.24 0.73
19 4 2 -0.14 0.6
-19 23 -2 0.49 0.65
23 -19 2 0.36 0.74
-24 12 2 1.47 0.69
-12 -12 2 1.78 0.65
-24 12 -2 1.62 0.68
24 -12 2 2.17 0.68
12 12 -2 0.37 0.38
12 12 2 2.03 0.69
12 -24 -2 2.76 0.75
-12 -12 -2 1.24 0.59
24 -11 2 2.93 0.72
11 -24 -2 2.18 0.72
11 13 2 3.3 0.69
-24 13 -2 1.98 0.72
-24 11 2 3.04 0.73
-11 -13 2 2.03 0.65
13 11 -2 1.74 0.56
-13 -11 -2 2.68 0.67
13 11 2 2.5 0.7
-13 -11 2 2.69 0.7
24 -13 2 2.46 0.74
-11 -13 -2 2.4 0.65
-24 11 -2 2.89 0.72
13 -24 -2 2.36 0.71
10 14 2 0.94 0.61
-24 10 2 0.26 0.71
14 10 -2 0.83 0.53
24 -10 2 0.79 0.56
-10 -14 2 0.34 0.57
-24 14 -2 -0.16 0.57
10 -24 -2 0.36 0.68
-14 -10 -2 0.42 0.59
14 -24 2 -0.41 0.48
-14 -10 2 1.28 0.67
24 -14 2 0.44 0.72
-24 10 -2 0.68 0.63
14 10 2 0.59 0.62
14 -24 -2 0.18 0.65
-10 -14 -2 0.2 0.54
15 9 -2 0.72 0.6
9 -24 -2 0.69 0.7
24 -9 2 0.19 0.55
-24 9 2 1.38 0.68
-9 -15 2 0.23 0.59
-15 -9 -2 0.41 0.59
15 -24 2 0.38 0.62
9 15 2 0.71 0.58
-15 -9 2 0.02 0.61
24 -15 2 -0.26 0.66
-24 9 -2 -0.13 0.59
15 -24 -2 -0.13 0.67
15 9 2 0.79 0.62
-15 24 -2 -0.57 0.52
-9 -15 -2 0.38 0.51
8 16 2 -0.05 0.38
8 -24 -2 1.3 0.73
16 -24 2 1.34 0.71
24 -8 2 0.09 0.48
16 8 -2 0.98 0.62
-24 8 2 1.33 0.67
-16 -8 -2 1.7 0.65
-16 24 2 0.47 0.56
-8 -16 2 1.23 0.6
-16 -8 2 1.34 0.58
24 -16 2 2.9 0.8
-16 24 -2 1.24 0.66
16 -24 -2 1.88 0.69
-24 8 -2 1.8 0.65
16 8 2 1.67 0.68
-17 24 2 1.81 0.7
17 7 -2 1.02 0.66
-7 -17 2 1.06 0.62
17 -24 2 1.52 0.75
-17 -7 -2 2.5 0.69
7 -24 -2 2.25 0.78
-24 7 2 2.66 0.72
-24 7 -2 1.61 0.66
-17 24 -2 3.17 0.74
17 7 2 2.81 0.7
24 -17 2 2.93 0.81
17 -24 -2 3.32 0.82
0 0 3 0.07 0.34
0 0 -3 0.19 0.29
0 0 -3 0.09 0.31
1 -1 -3 -0.01 0.31
0 -1 -3 0.23 0.27
0 -1 3 0.42 0.2
0 1 -3 -0.44 0.38
1 -1 3 0.26 0.33
1 -1 -3 -0.03 0.28
-1 1 -3 -0.02 0.35
1 0 -3 0.27 0.18
0 -1 3 0.67 0.45
-1 0 -3 0.06 0.27
0 -1 -3 0.51 0.34
0 -1 3 0.2 0.35
-1 1 3 0.51 0.45
1 0 -3 -0.1 0.16
-1 1 -3 -0.02 0.24
-1 0 -3 0.04 0.29
-1 0 3 0.5 0.48
-1 0 -3 0.42 0.4
-1 1 -3 -0.07 0.32
-1 0 3 0.47 0.42
0 -1 -3 0.27 0.6
1 -1 3 0.27 0.41
0 -1 -3 0 0.29
-1 0 -3 0.24 0.37
0 1 -3 -0.02 0.22
1 0 -3 0.06 0.3
1 -2 3 2.83 0.56
-2 1 -3 3.25 0.5
1 -2 3 2.87 0.38
2 -1 -3 2.16 0.38
-1 2 -3 2.77 0.44
-1 -1 -3 2.89 0.47
-1 -1 3 3.68 0.56
-2 1 -3 3.63 0.53
-2 1 3 3.12 0.38
-1 -1 -3 3.53 0.69
-1 -1 -3 3.19 0.56
1 -2 -3 3.55 0.77
-2 1 3 3.33 0.62
1 -2 3 1.98 0.39
-1 -1 3 3.66 0.62
-2 2 -3 12.87 0.96
2 -2 -3 12.89 1.38
-2 0 -3 13.57 1.18
0 -2 3 11.36 0.92
-2 2 -3 13.28 0.97
-2 0 -3 14.27 1.07
0 2 -3 12.86 0.92
-2 0 3 13.97 1.19
-2 0 -3 13.29 1.06
-2 0 3 13.98 1.23
0 -2 -3 12.56 1.17
2 -2 3 13.58 1.13
0 -2 3 12.49 1.06
0 -2 3 14.16 1.18
-2 2 -3 12.67 1.06
-2 2 3 13.64 1.03
0 -2 -3 12.72 1.29
-2 2 3 13.97 1.18
2 0 -3 13.23 0.87
-3 2 -3 12.03 1.04
2 -3 3 12.06 1.07
-1 -2 3 12.07 1.15
-1 -2 3 11.19 0.82
-3 2 -3 11.54 0.93
-2 -1 -3 12.47 1.21
-1 3 -3 12.8 0.94
-1 -2 3 12.01 1.12
-2 -1 -3 11.88 1.06
-3 1 3 11.78 0.91
-2 -1 -3 11.18 1.02
-3 1 3 13.05 1.14
-1 -2 3 11.22 0.81
1 -3 -3 11.71 1.31
-2 3 3 12.91 1.01
2 -3 -3 11.71 1.38
1 -3 3 13.3 1.25
-3 2 3 13.55 1.19
-1 -2 -3 13.58 1.4
-1 3 3 13.33 1.1
-3 1 -3 13.54 1.12
-3 1 -3 12.44 1.07
-1 -2 -3 12.57 1.16
-2 -1 3 14.07 1.24
-2 3 -3 13.82 1.11
-3 1 -3 14.1 1.24
-3 2 3 13.92 1.04
-2 -1 3 13.37 1.25
-1 -2 -3 12.36 1.1
1 -3 3 11.84 0.98
-3 0 -3 54.32 3.8
3 -3 -3 52.71 3.95
-3 3 3 58.56 3.77
-3 3 3 57.04 3.85
-3 0 3 61 3.85
3 -3 3 53.5 3.78
-3 0 3 56.86 3.68
-3 3 -3 56.42 3.8
0 3 -3 52.88 3.68
-3 0 -3 57.32 3.85
0 -3 -3 55.43 3.98
-3 0 3 56.85 3.88
0 -3 3 54.2 3.86
0 -3 -3 51.55 3.84
-3 0 -3 58.63 3.8
0 -3 3 59.9 3.78
-4 2 -3 8.24 0.85
-2 -2 3 9.39 1.07
-2 -2 -3 9.07 1.06
-2 4 3 10.07 0.94
-2 -2 3 8.86 0.73
-2 -2 -3 9.84 0.98
2 -4 3 10.26 1.05
-2 4 -3 10.12 0.93
-2 -2 3 11.49 1.14
-4 2 3 10.53 0.91
-2 -2 -3 11.16 1.35
-4 2 -3 10.28 1
-4 2 3 9.87 1.09
2 -4 -3 9.78 1.28
-3 -1 -3 51.25 3.63
4 -3 -3 52.71 3.68
3 -4 3 48.97 3.51
1 -4 -3 51.38 3.6
-1 -3 3 49.73 3.58
-3 -1 -3 51.39 3.51
-3 -1 -3 54.48 3.55
-4 1 3 50.98 3.44
-4 3 -3 52.49 3.52
-4 1 3 52.16 3.61
-3 4 3 53.9 3.5
-1 4 -3 50.8 3.43
-4 3 -3 47.23 3.38
-3 4 3 52.68 3.56
-1 -3 3 51.09 3.52
1 -4 -3 51.02 3.74
-4 1 -3 62.14 4.35
-3 -1 3 57.83 4.22
-1 -3 -3 65.15 4.58
1 -4 3 65.66 4.28
-4 3 3 63.95 4.32
1 -4 3 66.82 4.43
-1 4 3 66.26 4.36
-3 -1 3 66.98 4.42
-1 -3 -3 65.6 4.35
-4 3 3 65.43 4.39
-3 -1 3 67.28 4.46
-1 -3 -3 61.86 4.4
-4 1 -3 65.24 4.33
-3 4 -3 66.27 4.35
-4 1 -3 65.77 4.37
4 -3 3 60.38 4.29
3 -4 -3 65.59 4.52
-4 0 -3 31.88 2.38
-4 0 3 32.51 2.43
0 -4 -3 30.89 2.38
0 -4 3 34.59 2.3
0 4 -3 29.87 2.2
-4 4 3 31.89 2.3
-4 0 -3 33.82 2.33
0 -4 3 33.93 2.42
-4 0 3 32.66 2.38
-4 0 -3 30.86 2.34
-4 0 3 31.21 2.21
0 -4 -3 33.09 2.69
4 -4 3 30.31 2.26
4 -4 -3 32.49 2.51
-4 4 -3 31.99 2.33
-4 4 3 32.69 2.39
2 -5 -3 12.62 1.61
-5 3 -3 11.1 0.98
-3 -2 -3 11.81 1.39
-3 -2 -3 12.73 1.24
-5 3 -3 12.97 1.23
-3 -2 -3 12.6 1.16
-3 5 3 12.86 1.19
-2 -3 3 11.74 1.26
-5 2 3 12.82 1.3
3 -5 3 13.54 1.23
5 -3 -3 12.58 1.42
-2 -3 3 11.38 0.95
-5 2 3 12.17 1.1
-2 -3 3 11.59 1.27
-2 5 -3 12.71 1.1
2 -5 3 3.66 0.8
-2 -3 -3 3.46 0.74
-5 2 -3 3.72 0.76
-3 -2 3 2.53 0.42
-3 5 -3 2.96 0.67
-2 -3 -3 3.88 1.05
-2 5 3 3.4 0.7
3 -5 -3 3.21 0.92
-5 3 3 3.33 0.62
-5 2 -3 2.83 0.58
2 -5 3 2.74 0.41
-3 -2 3 3.48 0.71
-5 2 -3 2.43 0.51
-5 3 3 4.08 0.8
-3 -2 3 3.37 0.79
-2 -3 -3 3.11 0.71
-4 5 3 12.08 1.14
1 -5 -3 10.86 1.66
-5 4 -3 11.3 0.88
4 -5 3 13.3 1.14
-5 1 3 11.76 1.3
-4 -1 -3 8.42 1.3
-5 1 3 10.66 1.07
1 -5 -3 12.56 1.3
-1 5 -3 10.8 1
-1 -4 3 12.03 1.27
-4 -1 -3 11.33 1.16
-5 4 -3 11.18 1.2
-4 5 3 11.68 1.22
-5 1 3 12.07 1.2
5 -4 -3 12.96 1.4
-4 -1 -3 14.2 1.23
-1 -4 3 11.26 1.17
-5 4 3 15.06 1.32
5 -4 3 12.59 1.09
-5 1 -3 13.4 1.21
1 -5 3 14.95 1.31
-5 1 -3 11.52 1.21
-4 -1 3 14.2 1.4
-1 -4 -3 12.8 1.33
-1 5 3 14.69 1.17
1 -5 3 13.05 1.16
-5 4 3 13.97 1.22
-4 5 -3 13.31 1.21
-4 -1 3 15.04 1.34
-4 -1 3 12.48 1.05
-1 -4 -3 10.53 1.72
-5 1 -3 12.81 1.25
4 -5 -3 14.53 1.52
-5 0 -3 136.73 8.53
-5 5 3 127.93 8.54
-5 0 -3 131.91 8.49
-5 5 3 128.04 8.49
-5 0 3 132.1 8.53
-5 0 3 132.62 8.56
5 -5 -3 130.75 8.64
-5 5 -3 123.21 8.5
0 -5 3 127.54 8.46
0 -5 -3 118.89 8.77
0 -5 -3 124.05 8.55
0 5 -3 129.03 8.4
5 -5 3 123.61 8.44
0 -5 3 136.31 8.59
-5 0 3 120.82 8.39
-3 6 3 1.43 0.68
-3 -3 3 1.31 0.73
-6 3 -3 0.98 0.71
-3 -3 3 1.24 0.66
-6 3 3 1.58 0.76
-6 3 3 1.3 0.62
-3 -3 -3 1.45 0.6
-3 -3 -3 1.15 0.69
3 -6 -3 2.01 1.01
-3 6 -3 2.15 0.66
-6 3 -3 2.3 0.52
-6 3 -3 0.37 0.58
-3 -3 3 1.14 0.46
3 -6 3 1.44 0.79
-3 -3 -3 1.44 0.85
-6 3 -3 0.78 0.27
6 -3 -3 1.96 0.8
-3 6 3 0.04 0.49
-4 -2 -3 161.82 11.7
-6 4 -3 177.95 11.66
-2 -4 3 174.61 11.52
-2 6 -3 178.64 11.57
6 -4 -3 180.5 11.74
-2 -4 3 189.4 11.72
-4 6 3 188.81 11.64
-4 -2 -3 171.3 11.67
-6 2 3 166.04 11.56
-4 -2 -3 179.34 11.62
-6 2 3 180.75 11.7
2 -6 -3 185.5 11.73
4 -6 3 185.31 11.69
-6 4 -3 162.21 11.51
-2 -4 3 177.34 11.65
2 -6 -3 170.19 11.9
2 -6 3 191.8 12.84
-4 -2 3 187.38 12.84
4 -6 -3 213.07 13.19
2 -6 3 206.84 13.08
-6 4 3 195.79 13
-2 -4 -3 210.35 12.97
-4 -2 3 202.26 13
-2 6 3 200.36 12.97
-4 -2 3 193.24 13.01
-2 -4 -3 181.33 13.15
-4 6 -3 199.97 12.94
-6 2 -3 185.77 12.9
-6 4 3 203.6 12.94
-6 2 -3 203.37 12.98
-2 -4 -3 187.08 12.99
-5 6 3 47.24 3.93
1 -6 -3 54.33 4.23
-6 1 3 48.31 3.91
-1 -5 3 56.83 3.92
-1 6 -3 54.24 3.72
-6 1 3 46.24 3.71
-5 6 3 57.52 3.82
-5 -1 -3 60.37 3.88
-6 1 3 57.28 3.94
-5 6 3 60.06 3.84
-5 -1 -3 48.42 3.8
-6 1 3 55.16 3.82
-6 5 -3 53.73 3.84
6 -5 -3 60.93 4
-5 -1 -3 55.19 3.79
1 -6 -3 58.56 3.92
-1 -5 3 56.44 3.82
5 -6 3 55.1 3.83
1 -6 3 62.22 4.3
1 5 -3 56.35 4.31
6 -5 3 59.39 4.23
-6 5 3 68.92 4.44
-5 -1 3 60.18 4.24
1 -6 3 67.63 4.53
-6 5 3 70.09 4.39
-5 -1 3 68.43 4.49
-5 6 -3 66.75 4.38
-1 -5 -3 60.23 4.72
-6 1 -3 64.95 4.36
-6 1 -3 65.35 4.4
-1 6 3 57.31 4.41
-5 -1 3 65.52 4.43
-1 -5 -3 66.15 4.46
-5 6 -3 56.25 4.39
5 -6 -3 68.83 4.64
-6 0 3 31.2 2.49
-6 0 3 29.39 2.56
0 6 -3 30.69 2.21
-6 6 3 33.25 2.36
0 -6 3 25.07 2.25
-6 6 -3 31.3 2.29
0 6 3 27.98 2.39
-6 6 -3 30.06 2.42
6 -6 3 28.3 2.24
-6 0 3 25.6 2.19
0 -6 3 32.76 2.54
-6 0 3 32.9 2.36
6 -6 -3 35.25 2.72
0 6 -3 29.36 2.3
-6 6 3 32.92 2.39
-6 0 -3 35.06 2.39
0 -6 -3 28.63 2.83
0 -6 -3 34.8 2.47
-6 6 3 29.72 2.55
-6 0 -3 32.53 2.35
-7 4 -3 31.25 2.73
-4 7 3 35.34 2.54
-7 3 3 29.18 2.69
3 -7 -3 34.65 2.67
7 -4 -3 36.59 2.73
-7 4 -3 31.39 2.57
3 -7 -3 32.8 3
-7 3 3 35.71 2.62
-3 -4 3 33.24 2.55
-4 -3 -3 33.12 2.65
-3 -4 3 32.81 2.58
-3 7 -3 34.5 2.45
-4 -3 -3 33.96 2.52
4 -7 3 36.62 2.68
-4 7 3 32.02 2.51
-4 -3 -3 35.51 2.59
-3 -4 3 28.02 2.32
-7 3 3 33.52 2.45
-7 4 -3 31.53 2.37
3 -7 3 45.86 3.3
-3 7 3 41.99 3.09
-4 7 -3 39.25 3.05
7 -3 -3 43.27 3.15
-4 -3 3 41.2 3.1
3 4 -3 35.77 2.94
-7 3 -3 37.96 3.21
-3 7 3 41.86 3.04
-7 3 -3 41.89 3.08
-3 -4 -3 45.51 3.08
-7 4 3 44.67 3.03
-3 -4 -3 43.4 3.32
-4 7 -3 43.14 3.01
-7 3 -3 42.9 2.96
-7 4 3 44.01 3.06
-4 -3 3 45.02 3.11
4 -7 -3 43.81 3.47
-4 -3 3 34.55 2.86
-3 -4 -3 41.75 3.1
-5 7 3 32.72 2.77
-5 -2 -3 32.89 2.6
-7 5 -3 37.63 2.64
-2 -5 3 34.43 2.64
2 -7 -3 32.68 3.04
5 -7 3 39.25 2.72
-7 2 3 28.1 2.41
-5 -2 -3 36.6 2.62
-7 2 3 35.63 2.69
-7 2 3 30.34 2.71
-5 7 3 35.5 2.57
7 -5 -3 37.37 2.79
-2 -5 3 32.16 2.54
-7 5 -3 32.95 2.76
-2 -5 3 26.8 2.35
2 -7 -3 37.5 2.72
-5 -2 -3 34.12 2.56
-2 7 -3 34.07 2.47
5 -7 -3 33.78 2.9
-2 -5 -3 31.77 2.99
-2 -5 -3 34.49 2.53
-7 5 3 27.8 2.56
2 -7 3 33.99 2.69
-7 2 -3 35.24 2.53
-7 5 3 34.21 2.45
-2 -5 -3 33.33 2.54
-5 -2 3 27.08 2.27
-5 7 -3 36.39 2.47
-5 -2 3 32.38 2.58
-5 -2 3 33.93 2.54
-2 7 3 33.96 2.42
-7 2 -3 30.23 2.59
-2 7 3 31.66 2.56
2 5 -3 31.08 2.46
-5 7 -3 33.89 2.62
-7 2 -3 33.13 2.41
-7 5 3 30.46 2.5
-7 1 3 171.36 10.77
-1 -6 3 165.81 10.77
1 6 3 138.94 10.64
-6 -1 -3 178.04 10.71
-6 7 3 171.03 10.66
-6 7 3 174.64 10.68
-6 -1 -3 139.12 10.55
-1 -6 3 139.43 10.61
1 -7 -3 181.35 10.78
-7 6 -3 162.68 10.68
-6 -1 -3 173.12 10.67
-7 1 3 159.25 10.77
-6 7 3 161.46 10.81
6 -7 3 152.59 10.64
-7 6 -3 154.76 10.74
-1 7 -3 152.86 10.55
-1 7 -3 163.1 10.62
-7 6 -3 149.37 10.68
1 -7 -3 169.5 11.05
-6 7 -3 161.71 11.12
-6 -1 3 159.54 11.12
-7 1 -3 166.07 11.05
-7 6 3 180.86 11.07
-1 -6 -3 170.24 11.39
-6 -1 3 167.12 11.14
-7 6 3 157.24 11.16
1 -7 3 170.73 11.21
-7 6 3 165.14 11.07
-7 1 -3 152.9 11.13
-6 7 -3 174.61 11.05
-7 1 -3 177.23 11.07
-1 -6 -3 165.24 11.11
-1 7 3 163.2 11.08
6 -7 -3 178.24 11.32
-6 -1 3 175.13 11.08
1 6 -3 155.02 10.99
-7 0 3 31.05 2.69
7 -7 -3 32.9 2.78
0 -7 -3 30.64 3.01
-7 7 -3 31.75 2.41
0 -7 -3 34.07 2.59
0 7 -3 30.02 2.4
0 -7 3 24.89 2.32
-7 0 -3 28.79 2.41
-7 7 3 31.36 2.67
-7 7 3 31.16 2.44
0 -7 3 32.32 2.64
-7 7 -3 29.49 2.56
-7 7 3 33.86 2.44
-7 0 3 31.49 2.45
-7 7 -3 25.89 2.45
-7 0 3 32.09 2.59
-7 0 -3 33.59 2.49
0 7 3 30.03 2.52
-4 -4 3 12.26 1.58
-4 -4 3 10.58 1.18
-8 4 -3 12.47 1.25
4 -8 -3 13.63 1.65
-4 -4 -3 14.3 1.32
-8 4 -3 11.81 1.59
-8 4 3 12.15 1.29
-8 4 3 10.88 1.63
-4 8 -3 13.57 1.63
-4 8 3 12.12 1.48
-4 -4 3 12.99 1.51
-8 4 -3 14.97 1.56
-4 -4 -3 12.85 1.5
-4 8 -3 14.87 1.37
4 -8 -3 13.15 1.94
-4 8 3 11.17 1.6
8 -4 -3 12.07 1.6
-8 4 3 12.59 1.5
-4 8 3 14.82 1.48
-4 -4 -3 15.93 1.8
4 -8 3 12.91 1.83
4 4 -3 12.58 1.3
-5 8 3 41.34 2.89
3 -8 -3 40.52 3.43
-3 -5 3 30.56 2.63
-8 3 3 37.32 3.04
8 -5 -3 37.01 2.99
-8 3 3 38.87 2.98
-5 -3 -3 39.05 2.92
-5 8 3 35.66 3.07
-8 5 -3 40.53 3.08
5 -8 3 41.39 3.05
-3 -5 3 39.34 2.96
-3 -5 3 37.77 2.87
-5 -3 -3 41.09 2.88
-3 8 -3 34.69 2.77
-5 -3 -3 37.88 2.92
-3 8 -3 38 2.75
-5 8 3 38.05 2.9
3 -8 -3 42.92 3.06
-8 3 3 30.75 2.7
-3 8 -3 31.26 2.78
-8 5 -3 41.36 2.97
-5 -3 3 20.92 1.9
-5 -3 3 17.05 1.86
-5 8 -3 19.34 1.91
3 -8 3 19.43 2.04
-3 -5 -3 19.54 1.87
-3 8 3 19.89 1.8
-3 8 3 20.58 1.89
3 5 -3 18.78 1.71
-8 5 3 20.13 1.85
-5 8 -3 18.95 1.74
5 -8 -3 20.21 2.42
-8 5 3 20.56 1.72
-3 -5 -3 21.69 2.2
-8 3 -3 19.45 1.69
-8 3 -3 18.36 1.94
8 -3 -3 15.88 1.8
-5 -3 3 21.79 1.87
-8 3 -3 20.5 1.86
-8 5 3 19.38 2
-3 -5 -3 23.12 1.86
-2 8 -3 60.63 4.14
-6 -2 -3 66.94 4.33
-8 6 -3 68.67 4.36
-2 -6 3 59.21 4.27
-8 2 3 68.45 4.41
2 6 3 53.84 4.25
-8 2 3 62.58 4.49
-8 6 -3 51.94 4.26
-6 8 3 51.32 4.14
-6 8 3 57.9 4.43
6 -8 3 57.77 4.35
-8 2 3 48.67 4.12
8 -6 -3 60.26 4.44
2 -8 -3 66.69 4.82
-6 8 3 66.15 4.28
-2 8 -3 58.82 4.21
-6 -2 -3 64.81 4.27
2 -8 -3 69.93 4.44
-2 -6 3 64.61 4.38
-6 -2 -3 49.17 4.15
-8 6 -3 57.74 4.35
-2 -6 -3 83.42 5.58
-6 -2 3 85.7 5.68
-8 6 3 79.58 5.68
-2 8 3 79.91 5.56
-8 2 -3 79.87 5.69
-2 -6 -3 89.75 5.62
-6 8 -3 79.94 5.52
-8 6 3 81.06 5.52
2 -8 3 77.03 5.74
-6 -2 3 81.78 5.58
-6 -2 3 77.59 5.65
-8 2 -3 75.84 5.49
2 6 -3 79.11 5.49
6 -8 -3 80.96 5.93
-8 6 3 77.41 5.56
-2 -6 -3 85.91 5.93
-6 8 -3 75.24 5.67
-2 8 3 78.27 5.58
-8 2 -3 81.04 5.57
1 -8 -3 64.09 5.09
8 -7 -3 64.42 4.85
-1 -7 3 63.1 4.73
-7 -1 -3 64.98 4.56
-8 1 3 67.03 4.79
-8 7 -3 67.65 4.6
1 7 3 60.52 4.62
-7 -1 -3 74.6 4.73
-8 1 3 67.02 4.64
-1 8 -3 63.97 4.53
-7 8 3 67.65 4.59
1 -8 -3 68.44 4.71
-1 8 -3 61.96 4.44
-8 7 -3 56.46 4.67
-8 7 -3 61.85 4.66
-7 8 3 60.76 4.72
-8 1 -3 49.6 3.55
-7 -1 3 49.26 3.62
1 -8 3 48.9 3.82
-8 7 3 53 3.61
7 -8 -3 51.63 4.04
-1 8 3 48.34 3.65
-8 7 3 49.92 3.61
-7 -1 3 49.75 3.74
1 7 -3 48.91 3.56
-8 7 3 48.41 3.85
-1 -7 -3 47.63 3.68
-7 8 -3 50.56 3.57
-7 8 -3 43.54 3.69
-8 1 -3 48.65 3.59
-1 -7 -3 52.29 4.12
-7 -1 3 48.29 3.71
-8 1 -3 48.93 3.77
-8 0 -3 95.35 6.81
-8 8 3 101.43 6.83
-8 8 -3 100.58 6.95
8 -8 -3 96.87 7.1
-8 0 3 100.56 6.96
-8 0 3 84.6 6.74
0 -8 3 99.08 7.02
-8 8 -3 98.3 6.82
0 -8 -3 103.23 6.94
-8 0 3 101.32 6.96
-8 8 3 96.37 6.97
-8 8 3 105.25 6.84
-8 0 -3 108.68 6.9
0 8 -3 97.45 6.78
0 8 3 103.39 6.91
0 -8 -3 109.07 7.33
-8 0 -3 96.66 6.87
5 -9 3 150.8 10.81
-9 4 3 160.21 10.72
-4 9 -3 164.52 10.6
-4 -5 3 163.97 10.72
-9 4 3 158.44 10.8
-5 9 3 163.84 10.63
-5 9 3 153.42 10.8
-5 -4 -3 144.18 10.65
-4 -5 3 155.15 10.67
4 -9 -3 162.73 11.07
-4 9 -3 137.18 10.62
-5 -4 -3 165.43 10.7
5 4 -3 154.13 10.54
-5 9 3 166.95 10.67
-5 -4 -3 175.77 10.7
-9 5 -3 160.08 10.73
-9 5 -3 165.76 10.72
-4 9 -3 147.24 10.58
4 -9 -3 182.98 10.83
-4 -5 -3 179.27 11.76
-9 4 -3 178.84 11.77
-9 5 3 166.73 11.63
-5 -4 3 175.48 11.75
-4 -5 -3 167.86 11.8
-5 9 -3 154.32 11.7
-9 4 -3 190.34 11.74
-9 5 3 159.18 11.72
-4 9 3 176.29 11.7
-5 -4 3 184.58 11.76
5 -9 -3 183.78 12.11
-5 9 -3 190.4 11.68
-4 9 3 182.69 11.89
-9 5 3 159.02 11.8
4 5 -3 175.67 11.62
-9 5 3 173.76 11.74
4 -9 3 159.76 11.85
5 -9 -3 190.68 11.85
-4 -5 -3 188.17 11.74
-4 9 3 181.23 11.69
-3 9 -3 66.01 4.55
-3 9 -3 55.14 4.46
-6 9 3 59.07 4.69
-6 -3 -3 67.45 4.59
-9 3 3 62.29 4.67
-6 -3 -3 67.06 4.48
3 6 3 52.52 4.5
3 -9 -3 62.4 5.03
-6 9 3 60.44 4.44
-3 -6 3 64.83 4.62
-3 -6 3 58.93 4.51
3 -9 -3 67.41 4.69
-3 9 -3 65.38 4.46
-9 6 -3 69.81 4.63
-9 3 3 64.09 4.56
-9 6 -3 65.95 4.65
-6 9 3 67.12 4.55
-9 6 3 54.92 3.99
-9 6 3 56.43 4.03
-6 9 -3 55.97 3.98
-6 -3 3 51.61 4.03
-6 9 -3 52.1 4.14
-9 6 3 48.34 4.12
-6 -3 3 57.74 4.12
-3 -6 -3 53.51 4.06
-3 -6 -3 58.51 4.35
-3 9 3 57.48 3.96
-3 9 3 57.67 4.04
-9 3 -3 51.28 3.91
3 -9 3 46.1 4.21
-3 -6 -3 61.31 4.08
6 -9 -3 56.22 4.51
3 6 -3 55.71 3.93
-9 3 -3 59.8 4.07
-9 6 3 53.58 4.11
-6 -3 3 58.28 4.07
-9 3 -3 57.62 4.17
2 7 3 147.47 10.4
-9 2 3 159.37 10.51
-2 9 -3 153.8 10.34
-9 7 -3 165.09 10.45
-7 -2 -3 158.38 10.37
2 -9 -3 166.09 10.54
-7 -2 -3 162.07 10.46
-2 -7 3 155.48 10.51
-9 2 3 155.13 10.55
2 -9 -3 157.59 10.82
-7 9 3 146.94 10.52
-7 9 3 154.46 10.36
-7 9 3 135.64 10.27
-9 7 -3 156.13 10.48
-7 9 -3 170.83 11.68
2 7 -3 181.53 11.66
-9 7 3 175.66 11.83
-9 2 -3 168.32 11.69
-2 -7 -3 177.57 12.04
-2 9 3 181.54 11.72
-7 -2 3 185.23 11.76
-9 7 3 168.83 11.71
-9 2 -3 170.44 11.77
-7 -2 3 173.72 11.81
7 -9 -3 181.4 12.14
-2 9 3 182.35 11.72
-2 -7 -3 181.47 11.76
-9 2 -3 176.49 11.74
2 -9 3 164.03 11.93
-2 -7 -3 175.21 11.78
-9 7 3 170.26 11.68
-7 -2 3 179.23 11.81
1 8 3 38.24 3.14
1 -9 -3 37.75 3.59
-9 8 -3 38.33 3.12
-9 1 3 38.52 3.01
-9 1 3 36.59 3.21
1 -9 -3 42.45 3.17
-9 8 -3 37.76 2.87
-9 8 -3 29.94 3.07
-8 -1 -3 35.11 2.99
-8 -1 -3 37.72 2.97
-8 -1 -3 40.67 3.07
-8 9 3 37.61 2.96
-8 9 3 36.62 3.14
-1 -8 3 37.72 3.21
-1 9 -3 38.43 3.03
1 -9 3 36.53 3.2
-8 -1 3 36.81 3.06
1 8 -3 36.95 2.86
-9 1 -3 36.31 2.86
-9 8 3 38.66 2.86
-9 1 -3 36.2 2.96
-1 9 3 39.29 3.02
-8 -1 3 36.24 3
8 -9 -3 32.38 3.37
-8 9 -3 28.54 2.92
-8 9 -3 35.56 2.84
-9 1 -3 36.24 2.89
-9 8 3 35.44 3.06
-1 -8 -3 38.34 3
-1 -8 -3 38.2 3.45
-9 8 3 36.95 2.86
-9 9 -3 14.05 1.88
-9 9 3 15.23 1.68
0 -9 -3 18.57 1.97
0 -9 -3 18.11 2.58
0 9 -3 17.89 1.84
0 9 3 19.88 2.06
-9 0 -3 18.46 1.83
-9 0 -3 17.77 2.03
-9 0 -3 16.92 1.84
-9 9 3 14.82 1.7
0 -9 3 16.97 2.17
-9 0 3 16.65 1.96
-9 9 3 15.6 1.99
-9 9 -3 18.31 2.01
-9 9 -3 17.88 1.78
-9 0 3 16.68 2.03
-10 5 -3 0.68 0.85
-10 5 3 0.42 1.02
5 -10 -3 1.81 1.19
-5 10 -3 -0.1 0.85
-5 10 3 -0.34 1.18
5 -10 -3 0.29 1.46
-5 10 -3 0.67 0.82
-10 5 3 0.07 0.64
5 5 -3 0.53 0.79
-5 10 3 0.28 0.79
-5 -5 -3 0.91 1.04
-5 -5 3 0.37 0.99
-5 -5 -3 1.13 1.01
-5 -5 3 0.05 0.67
-5 -5 3 0.51 0.86
-10 5 -3 0.81 1.04
-5 10 -3 1.05 0.88
-5 -5 -3 -0.91 0.85
-10 5 3 0.5 1.06
-10 5 3 -0.45 0.67
-5 10 3 0.7 0.93
5 -10 3 -1.56 1.1
-10 4 3 3.63 1.23
6 4 -3 2.08 0.73
4 -10 -3 3.41 1.22
-6 -4 -3 4.73 1.02
-10 4 3 0.18 0.72
-10 6 -3 1.27 0.65
-4 10 -3 2.21 0.87
-4 10 -3 0.9 0.81
-10 6 -3 2.72 0.96
6 -10 3 -0.49 1.05
-4 -6 3 1.95 1.06
-4 -6 3 2.46 1.01
-10 4 3 3.32 1.17
4 6 3 0.21 0.8
-6 -4 -3 2.86 1.09
-6 10 3 2.39 1.12
4 -10 -3 2.23 1.52
-6 10 3 2.52 0.86
-6 10 3 2.22 1.09
-10 6 -3 3.24 1.08
-4 10 -3 1.58 0.89
-4 10 3 3.04 1.21
4 -10 3 1.74 1.21
-10 4 -3 5.83 1.22
-6 10 -3 3.72 1.03
-4 10 3 5.66 1.12
-10 6 3 3.48 1.02
-4 -6 -3 6.06 1.26
-4 -6 -3 5.53 1.25
6 -10 -3 2.75 1.53
-6 -4 3 3.69 1.01
-4 -6 -3 2.38 1.15
-10 6 3 4.05 1.14
-10 6 3 4.17 1.31
6 -10 -3 4.28 1.25
-6 -4 3 4.12 1.05
-6 10 -3 4.53 1.06
-10 6 3 1.99 0.9
-10 4 -3 4.89 1.26
-6 -4 3 5.47 1.24
4 6 -3 4.78 0.93
-4 10 3 4.75 1.12
-10 7 -3 30.87 2.54
-3 -7 3 24.32 2.5
3 7 3 26.55 2.6
-7 10 3 27.89 2.35
3 -10 -3 24.45 3.04
-7 10 3 25.98 2.62
-7 -3 -3 28.81 2.5
-10 7 -3 23.78 2.44
-3 10 -3 26.92 2.51
-10 7 -3 29.59 2.6
-10 3 3 29.61 2.6
-7 -3 -3 27.44 2.42
-7 10 3 26.8 2.4
3 -10 -3 28.96 2.74
-10 3 3 27.15 2.56
-10 3 -3 20.77 2
-10 7 3 19.42 2.06
7 -10 -3 14.5 2.44
-7 -3 3 20.49 2.1
-7 10 -3 16.11 2.15
-3 -7 -3 22.3 2.02
3 7 -3 20.08 1.9
3 -10 3 14.27 2.2
-3 -7 -3 20.62 2.02
-3 10 3 21.84 1.81
-10 7 3 17.88 2.08
-3 -7 -3 17.05 2.23
-7 -3 3 19.52 1.99
-3 10 3 17.76 1.91
-10 3 -3 17.87 1.99
-10 7 3 20.52 1.92
-7 10 -3 19 1.86
2 -10 -3 5.09 1.41
-2 -8 3 3.05 1.28
-8 10 3 3.88 1.18
-10 2 3 6.69 1.42
-8 -2 -3 3.5 1.12
2 8 3 4.27 1.22
2 -10 -3 1.92 1.63
-8 -2 -3 5.22 1.31
-2 10 -3 3.86 1.01
-10 8 -3 4.6 1.11
-8 10 3 4 0.91
-10 8 -3 3.85 1.12
-10 2 3 3.91 1.32
-10 8 -3 6.4 1.35
-8 10 3 2.62 0.76
-2 -8 -3 3.14 1.47
-8 -2 3 7.67 1.38
-8 10 -3 5.03 1.14
-10 8 3 4.51 1.12
-10 2 -3 6.77 1.26
-2 10 3 7.64 1.22
2 -10 3 3.96 1.31
2 8 -3 7.4 1.15
-10 2 -3 6.46 1.29
-8 10 -3 6.63 1.3
-10 8 3 5.66 1.23
-8 -2 3 5.78 1.46
-2 -8 -3 6.52 1.33
-2 -8 -3 7.57 1.38
-10 9 -3 36.1 3.09
-9 -1 -3 37.89 2.92
-9 -1 -3 38.93 3.13
-1 -9 3 34.46 3.27
-1 10 -3 36.07 3.02
-10 1 3 34.36 3.18
-10 9 -3 42.79 3.24
1 9 3 38.73 3.13
-10 1 3 40.78 3.32
-9 10 3 44.32 3.37
-10 9 -3 30.62 2.94
1 -10 -3 33.5 3.64
-10 9 3 26.47 2.63
-1 -9 -3 22.56 2.37
-9 -1 3 26.69 2.46
-10 1 -3 27.15 2.43
-9 -1 3 25.72 2.52
1 9 -3 29.71 2.5
-10 1 -3 24.11 2.32
-9 10 -3 20.61 2.26
-1 10 3 29.64 2.43
-9 10 -3 28.25 2.49
-10 0 -3 72.58 5.11
0 10 -3 72.56 5.03
-10 10 -3 66.75 5.12
-10 10 3 74.82 5.26
-10 10 -3 62.64 5.04
-10 0 3 62.99 5.09
0 10 3 71.09 5.04
-6 11 3 18.19 2.24
-6 11 3 13.48 1.81
-6 11 3 17.92 1.8
-11 6 -3 17.77 2.06
-6 -5 -3 14.82 1.9
-11 5 3 19.56 2.25
6 5 -3 16.69 1.84
-5 11 -3 16.3 1.99
-5 11 -3 16.09 2
-6 -5 -3 18.04 1.96
-11 6 -3 18.44 2.06
-11 6 3 14.31 1.9
-6 11 -3 15.23 1.99
-6 -5 3 14.74 1.72
-5 -6 -3 15.2 1.6
-5 -6 -3 13.66 1.83
-11 6 3 15.98 2.04
-5 11 3 12.4 1.69
-5 11 3 13.8 2.28
-11 5 -3 19.44 2.02
-11 5 -3 17.41 1.94
-5 11 3 13.05 1.66
-11 6 3 10.69 1.67
5 6 -3 17.02 1.83
-7 11 3 2.69 1.1
4 -11 -3 3.68 1.62
4 7 3 6.52 1.29
7 4 -3 4.81 0.93
-7 -4 -3 7.38 1.33
-11 4 3 6.5 1.41
-4 11 -3 8.49 1.27
-4 11 -3 5.88 1.14
-7 -4 -3 4.79 1.26
-11 7 -3 9.54 1.5
-11 7 -3 9.67 1.55
-7 11 3 9.9 1.46
-11 7 -3 8.52 1.29
4 7 -3 8.84 1.26
-4 11 3 7.23 1.32
-11 7 3 11.24 1.81
-4 -7 -3 8.05 1.45
-4 11 3 8.98 1.27
-7 11 -3 9.91 1.48
-11 4 -3 9.73 1.55
-4 11 3 6.26 1.39
-11 4 -3 7.36 1.43
-4 -7 -3 7.13 1.41
-11 7 3 9.83 1.51
-7 -4 3 10.43 1.66
-11 3 3 10.54 1.82
-8 11 3 9.65 1.35
-3 11 -3 7.16 1.41
3 8 3 12.6 1.69
-11 8 -3 11.51 1.73
-3 11 -3 9.01 1.44
-8 11 3 10.57 1.81
-11 8 -3 12.95 1.79
-3 11 3 10.71 1.57
-8 11 -3 10.62 1.67
-11 8 3 6.99 1.4
-11 8 3 8.06 1.44
3 8 -3 10.41 1.56
-8 -3 3 9.81 1.61
-11 3 -3 9.93 1.71
-11 9 -3 14.52 1.9
-11 9 -3 12.52 1.85
2 9 3 11.65 1.88
-11 2 3 14 1.97
-2 11 -3 9.58 1.49
-9 11 3 14.5 2.09
-11 2 -3 12.08 1.73
-11 9 3 11.75 1.82
-9 11 -3 12.74 1.83
-2 11 3 14.18 1.85
2 9 -3 12.52 1.73
-9 -2 3 11.21 1.93
-11 10 -3 9.75 1.59
-10 -1 -3 9.23 1.64
-11 10 -3 10.55 1.85
-1 11 -3 9.56 1.44
-10 11 3 10.23 1.81
1 10 3 10.37 1.56
-10 -1 3 8.07 1.57
-10 11 -3 10.54 1.7
-11 10 3 9.3 1.56
1 10 -3 10.56 1.51
-1 11 3 12.07 1.59
-11 1 -3 10.96 1.7
-11 11 -3 5.49 1.24
-11 11 -3 5.22 1.31
-11 0 -3 4.75 1.37
-11 0 3 5.68 1.46
0 11 3 5.93 1.27
-11 11 3 8.36 1.58
0 11 -3 5.25 1.21
-12 6 -3 2.75 1.09
-12 6 3 0.6 0.85
-12 6 3 2.18 1.31
6 6 -3 0.38 0.92
-6 12 3 1.5 0.95
-6 12 -3 1.24 1.01
-6 12 3 0.43 1.29
-6 12 -3 1.56 0.94
-5 12 -3 1.65 0.98
-5 12 -3 1.03 0.87
-7 12 3 0.72 0.83
-12 5 3 1.31 1.3
-12 7 -3 1.69 1.12
5 7 3 -0.59 0.88
-12 7 -3 -0.39 0.74
7 5 -3 0.46 0.88
-7 12 3 1.96 1.29
-7 12 -3 1.81 1.02
-5 12 3 0.64 1.08
-5 12 3 1.7 0.98
-12 7 3 2.01 1.27
-12 7 3 0.84 1.03
5 7 -3 0.13 0.98
-7 -5 3 1.93 1.14
-12 5 -3 1.88 1.06
-8 12 3 17.93 2.14
-4 12 -3 13.59 2.03
-12 8 -3 16.08 2.04
-8 12 3 13.98 1.66
-12 4 3 18.37 2.24
4 8 3 12.71 2.12
-4 12 -3 10.62 1.8
-12 8 -3 15.55 1.88
-12 8 3 10.53 1.88
-8 12 -3 15.08 1.87
-12 8 3 12.77 2.05
4 8 -3 12.61 1.78
-12 4 -3 15.27 1.98
-4 12 3 12.89 1.71
-8 -4 3 12.05 1.89
-9 12 3 4.75 1.26
-12 9 -3 3.68 1.13
-9 12 3 2.7 0.83
3 9 3 4.66 1.36
-12 3 3 5.71 1.62
-12 9 -3 4.84 1.25
-3 12 -3 4.19 1.25
-12 9 3 3.12 1.22
-9 -3 3 2.09 1.23
-12 3 -3 4.13 1.32
-9 12 -3 5.29 1.19
3 9 -3 3.65 1.19
-12 9 3 2.8 1.16
-3 12 3 3.75 1.14
-12 2 3 7.19 1.74
2 10 3 4.18 1.26
-2 12 -3 3.91 1.19
-10 12 3 8.19 1.54
-12 10 -3 4.33 1.16
-12 10 -3 4.37 1.25
-2 12 3 5.77 1.24
-10 -2 3 5.75 1.51
-10 12 -3 6.58 1.32
2 10 -3 5.57 1.24
-12 10 3 5.04 1.33
-12 2 -3 5.93 1.46
-11 12 3 40.2 3.43
-11 -1 -3 36.84 3.33
1 11 3 42.72 3.38
-1 12 -3 37.6 3.3
-12 11 -3 41.06 3.36
-12 11 -3 32.35 3.27
-12 1 3 44.5 3.64
-12 1 -3 42.18 3.52
-11 12 -3 46 3.69
-12 11 3 42.6 3.63
-1 12 3 43.43 3.57
1 11 -3 39.87 3.47
-11 -1 3 40.89 3.59
-12 0 -3 23.82 2.6
-12 12 3 24.82 2.77
0 12 3 26.12 2.55
0 12 -3 22.04 2.61
-12 0 3 24.3 2.81
-12 12 -3 24.88 2.56
7 6 -3 1.13 0.98
-6 13 -3 2.19 1.13
-13 6 3 3.28 1.31
-13 7 -3 3.33 1.18
-7 13 3 2.65 1.38
-7 13 3 1.7 0.94
-6 13 -3 1.99 1.01
-13 7 3 1.06 1.08
-13 7 3 3.5 1.38
6 7 -3 1.26 1.1
-13 6 -3 3.06 1.25
-7 13 -3 0.94 0.87
-7 -6 3 0.16 0.94
-7 13 -3 1.74 0.98
-6 13 3 0.39 1.11
-6 13 3 1.9 0.95
-5 13 -3 2.41 0.98
-5 13 -3 2.08 1.14
-13 8 -3 2.79 1.16
-13 8 -3 1.4 0.96
-13 5 3 4.5 1.38
-8 13 3 2.98 1.01
8 5 -3 0.49 0.97
-8 13 3 3.12 1.25
5 8 3 0.92 1.15
-8 13 -3 3.67 1.1
-13 5 -3 4.77 1.39
-8 -5 3 3.39 1.31
-13 8 3 2.15 1.18
5 8 -3 2.71 1.19
-5 13 3 3.8 1.14
-13 8 3 3.12 1.29
-5 13 3 0.62 1.18
-4 13 -3 10.7 1.65
-4 13 -3 7.88 1.58
-13 9 -3 13.21 1.81
4 9 3 10.55 1.77
-9 13 3 14.41 2.22
-13 9 -3 12.91 1.96
-9 13 3 10.97 1.65
-13 4 3 13.39 2.03
-13 4 -3 13.06 1.85
-9 -4 3 11.41 2
-13 9 3 8.36 1.6
-9 13 -3 12.61 1.85
-13 9 3 10.26 1.88
-4 13 3 14.32 1.93
4 9 -3 13.58 1.78
-13 3 3 9.76 1.84
-10 13 3 8.14 1.54
-13 10 -3 7.8 1.4
-3 13 -3 7.37 1.41
3 10 3 9.06 1.7
-13 10 -3 8.39 1.53
3 10 -3 7.29 1.38
-13 10 3 6.42 1.37
-13 3 -3 10.86 1.71
-10 -3 3 5.93 1.46
-3 13 3 9.97 1.45
-13 11 -3 8.08 1.48
2 11 3 8.08 1.63
-11 13 3 13.11 1.89
-2 13 -3 11.19 1.72
-13 2 3 10.73 1.9
-13 11 -3 8.92 1.67
-11 13 -3 14.37 2.15
-13 11 3 11.46 2.01
2 11 -3 14.26 1.89
-13 2 -3 11.58 2
-11 -2 3 12.18 2.22
-2 13 3 13.33 1.87
-1 13 -3 6.4 1.47
-12 13 3 7.48 1.56
-13 12 -3 4.69 1.3
-13 12 -3 3.27 1.28
-13 1 3 8.07 1.89
1 12 3 6.25 1.49
-12 -1 -3 4.47 1.45
-12 -1 3 6.71 1.75
-1 13 3 8.52 1.54
-13 1 -3 6.21 1.65
-12 13 -3 8.38 1.63
1 12 -3 6.17 1.4
-13 12 3 6.19 1.53
-13 13 -3 21.9 2.48
-13 13 3 20.86 2.49
0 13 -3 18.63 2.35
-13 0 3 21.3 2.74
0 13 3 22.16 2.58
-13 0 -3 18.33 2.49
-7 14 3 7.45 1.32
-14 7 3 12.45 1.9
-14 7 -3 10.45 1.9
-7 14 -3 9.58 1.54
-7 14 3 7.9 1.69
7 7 -3 5.79 1.4
-7 14 -3 8.12 1.42
-6 14 -3 3.15 1.06
-8 14 3 2.7 1.06
6 8 3 -0.21 1.18
-8 14 3 2.87 1.42
-6 14 -3 3 1.16
-14 6 3 5.2 1.65
8 6 -3 1.25 1.09
-14 8 -3 5.33 1.31
-8 14 -3 4.04 1.18
-6 14 3 4.41 1.21
-14 8 3 6.25 1.55
-14 8 3 3.88 1.28
-14 6 -3 6.6 1.42
6 8 -3 2.74 1.14
-6 14 3 3.49 1.34
-9 14 3 10.95 1.99
-9 14 3 10.89 1.68
-14 9 -3 7.52 1.39
-5 14 -3 10.48 1.65
-5 14 -3 7.64 1.41
5 9 3 7.32 1.54
-14 5 3 14.4 2.28
-14 9 3 9.29 1.65
-5 14 3 11.19 1.71
-9 14 -3 12.78 2
5 9 -3 8.45 1.55
-14 5 -3 11.78 1.9
-14 9 3 7.66 1.53
-9 -5 3 7.01 1.54
4 10 3 9.9 1.78
-14 4 3 13.07 2.17
-14 10 -3 11.29 1.88
-14 10 -3 12.82 2.07
-4 14 -3 9.53 1.59
-10 14 3 15.09 2.13
-14 10 3 12.07 2.14
-14 4 -3 14.03 2.08
-14 10 3 9.6 1.72
4 10 -3 11.21 1.78
-10 14 -3 14.17 1.99
-10 -4 3 11.31 2.08
-4 14 3 12.63 1.99
-11 14 3 4.41 1.44
-3 14 -3 4.18 1.41
3 11 3 2.97 1.4
-14 11 -3 2.24 1.19
-14 3 3 5.3 1.76
-14 11 -3 2.45 1.2
-11 -3 3 2.6 1.42
-11 14 -3 3.74 1.34
3 11 -3 1.15 1.15
-14 3 -3 2.28 1.25
-14 11 3 1.92 1.25
-3 14 3 2.7 1.2
-14 2 3 23.33 2.76
-14 12 -3 23.39 2.49
-14 12 -3 19.32 2.48
-12 14 3 24 2.58
-2 14 -3 21.49 2.49
2 12 3 21.09 2.6
2 12 -3 23.4 2.73
-12 14 -3 26.05 2.81
-14 12 3 22.42 2.78
-14 2 -3 22.79 2.7
-2 14 3 24.84 2.68
13 1 -3 12.19 1.22
-13 14 3 7.98 1.12
-14 13 -3 5.22 1.35
14 -1 -3 11.68 1.32
14 0 3 6.27 1.05
0 14 3 12.9 1.92
0 -14 3 9.31 1.17
14 0 -3 9.42 1.37
-14 0 -3 11.18 1.96
-14 14 -3 9.33 1.3
-14 0 3 12.47 2.12
-14 14 3 13 2.09
0 14 -3 9.45 1.65
14 -14 3 5.97 1.1
-14 14 3 10.78 1.39
-14 14 -3 8.42 1.6
8 7 -3 8.66 1.7
-15 7 3 18.72 2.45
-15 8 -3 15.27 1.99
-8 15 3 13.96 1.98
-7 15 -3 13.52 2.04
-7 15 -3 10.45 2.04
-8 15 3 13.46 2.38
7 8 -3 10.66 1.8
-8 15 -3 15.07 2.22
-7 15 3 14.26 2.05
-15 8 3 15.43 2.17
-15 7 -3 14.56 2.14
-7 15 3 12.79 2.26
-15 9 -3 1.82 1.29
6 9 3 -0.22 1.29
-9 15 3 2.41 1.37
-6 15 -3 0.76 1.02
-9 15 3 1.15 1.09
-15 6 3 3.61 1.55
-6 15 -3 0.85 1.13
-15 9 3 1.33 1.19
-15 6 -3 2.43 1.22
-9 15 -3 2.44 1.12
-6 15 3 -0.58 1.07
-6 15 3 1.54 1.05
6 9 -3 1.28 1.28
-15 9 3 1.51 1.29
-5 15 -3 2.43 1.33
-15 10 -3 4.07 1.48
-10 15 3 2.88 1.42
-15 5 3 5.3 1.75
-15 10 -3 1.13 1.1
5 10 3 2.16 1.51
5 -15 -3 -0.44 0.74
-10 15 3 1.68 0.97
5 10 -3 0.94 1.18
-15 10 3 3.27 1.36
-15 5 -3 2.93 1.26
-15 10 3 1.9 1.2
-5 15 3 3.17 1.13
-10 15 -3 2.47 1.27
-10 -5 3 0.54 1.11
-4 15 -3 0.15 1.21
-15 11 -3 -0.76 1.02
15 -4 3 0 0.55
-11 15 3 0.75 1.27
-15 4 3 1.15 1.42
-4 -11 3 -1.34 0.64
-15 11 -3 0.13 1.26
4 -15 -3 0.08 0.6
4 11 3 1.04 1.42
4 11 -3 0.62 1.18
15 -11 3 -0.72 0.62
-11 15 -3 1.32 1.19
-15 11 3 0 1.03
-11 -4 3 1.14 1.35
-4 15 3 1.6 1.14
-15 4 -3 1.11 1.34
-15 11 3 0.46 1.13
-3 -12 3 0.3 0.87
3 12 3 1.75 1.36
-15 12 -3 0.37 1.18
3 12 3 0.11 0.72
-15 12 -3 0.54 1.2
12 3 -3 0.73 0.71
-15 3 3 -0.64 0.84
-12 15 3 -0.69 0.82
-3 15 -3 0.16 1.13
15 -3 3 1.07 0.75
-12 15 3 1.78 1.19
3 -15 -3 1.39 0.77
-15 3 3 2.07 1.61
12 3 3 0.03 0.61
15 -3 -3 1.47 0.66
-15 3 -3 1.92 1.36
-15 12 3 1.13 1.24
15 -12 3 0.74 0.8
-12 15 -3 2.54 1.36
-3 15 3 2.86 1.2
3 12 -3 1.56 1.24
-12 -3 3 1.35 1.41
12 -15 -3 -0.02 0.78
-12 15 -3 1.19 0.86
-13 15 3 2.45 1.22
13 2 -3 1.47 0.8
-15 2 3 0.88 1
2 13 3 -0.02 0.64
15 -2 3 1.21 0.88
-15 13 -3 0.72 1.2
2 -15 -3 2.09 0.84
-13 15 3 1.28 0.98
-15 2 3 3.05 1.54
-2 15 -3 1.84 1.21
2 13 3 2.11 1.43
-2 -13 3 1.78 0.9
13 -15 3 -0.34 0.67
-15 13 -3 1.8 1.22
-13 15 -3 4.56 1.47
-13 -2 3 3.16 1.56
15 -2 -3 3.41 0.9
15 -13 3 3.06 1.12
-15 13 3 3.8 1.35
13 2 3 2.89 0.9
-13 15 -3 3.67 1.05
-2 15 3 5.28 1.41
2 13 -3 4.37 1.5
-15 2 -3 5.86 1.73
-15 14 -3 11.39 1.97
14 -15 3 14.41 1.78
-14 15 3 17.43 2.51
-1 -14 3 13.64 1.72
-1 15 -3 16.81 2.4
1 14 3 16.61 2.37
-15 1 3 18.48 2.77
14 1 -3 13.96 1.71
-15 1 3 12.46 1.98
-14 15 3 13.96 1.89
-15 14 -3 13.94 1.74
-15 1 -3 16.94 2.63
-14 15 -3 17.41 2.62
-15 14 3 15.24 1.87
15 -1 -3 14.36 1.75
14 -15 -3 14.27 1.77
-15 14 3 15.93 2.47
15 -14 3 18.57 1.92
1 -15 3 14.24 1.81
-1 15 3 18.04 2.44
1 14 -3 17.56 2.35
-14 -1 3 16.31 2.67
-14 15 -3 15.55 1.95
14 1 3 15.51 1.82
0 -15 3 1.49 1.03
15 0 -3 3.25 0.98
-15 0 -3 0.63 1.37
0 15 3 2.78 1.45
0 15 -3 2.49 1.27
15 -15 -3 2.77 0.98
-15 15 -3 3.43 1.11
-15 15 3 3.72 1.1
-15 15 -3 1.98 1.29
-15 15 3 1.68 1.23
-15 0 3 0.81 1.03
15 0 3 2.15 0.97
15 -15 3 2.21 1.01
-15 0 3 4.04 1.79
16 -8 3 3.39 1.03
-16 8 -3 4.68 0.92
-8 16 3 3.27 1.33
-8 16 -3 3.23 1.25
8 -16 -3 5.71 1.18
8 8 -3 3.4 1.35
-16 8 -3 4.31 1.37
-16 8 3 7.3 1.76
-8 16 3 5.35 1.38
8 8 3 3.11 0.87
-7 16 -3 0.3 1.11
-16 9 -3 0.65 1.15
16 -7 3 0.92 0.83
-7 16 -3 0.03 1.04
7 -16 -3 1 0.97
-16 9 -3 -0.95 0.65
7 9 3 -0.17 0.72
-16 7 3 1.44 1.5
-7 -9 3 0.27 0.75
-9 16 3 1.43 1.17
-9 16 3 0.41 1.18
-16 9 3 1.89 1.41
16 -9 3 0.96 0.95
9 7 3 0.92 0.78
-9 -7 3 -0.25 0.68
-7 16 3 -0.19 1.11
-16 7 -3 0.38 0.74
-9 16 -3 1.08 1.23
7 9 -3 1.27 1.29
-16 7 -3 2.84 1.41
9 7 3 0.43 0.65
-7 16 3 1.31 1.08
9 -16 -3 1.08 0.98
-10 16 3 5.07 1.22
6 10 3 4.89 0.94
-10 16 3 6.65 1.56
6 -16 -3 6.41 1.15
-6 -10 3 7.1 1.13
-16 6 3 7.97 1.84
-6 16 -3 4.35 1.34
16 -6 3 4.55 1
-16 10 -3 8.18 1.73
-16 6 3 3.7 1.01
10 6 3 2.44 0.8
10 -16 -3 6.87 1.21
-10 16 -3 5.96 1.5
-16 6 -3 6.39 1.03
-16 10 3 4.42 1.35
-6 16 3 5.62 1.32
10 6 3 4.54 0.95
6 10 -3 4.54 1.44
-16 6 -3 6.64 1.52
-16 10 3 3.83 1.4
16 -10 3 3.48 1.06
-5 16 -3 5.58 1.5
-16 5 3 3.05 1
-11 16 3 4.27 1.36
-16 5 3 10.78 2.14
-5 -11 3 7.04 1.15
-16 11 -3 6.05 1.61
5 -16 -3 6.34 1.12
16 -5 3 4.86 1.05
5 11 3 3.45 1.65
11 5 -3 4.98 0.94
-11 16 3 2.29 0.94
5 11 3 4.95 0.9
-16 11 3 4.93 1.46
-16 5 -3 5.88 1.04
-16 11 3 2.61 1.25
11 -16 -3 5.83 1.19
11 5 3 5.6 0.98
5 11 -3 4.7 1.57
-16 5 -3 5.62 1.53
-11 16 -3 8.23 1.67
11 5 3 4.96 0.95
16 -11 3 4.31 1.06
-5 16 3 5.8 1.42
-11 16 -3 4.38 1.03
-16 12 -3 -0.35 1.15
4 -16 -3 1.08 0.9
-16 12 -3 1.38 1.31
12 4 -3 1.42 0.89
-12 16 3 1.07 0.94
-4 -12 3 0.75 0.96
16 -4 3 0.56 0.94
12 -16 3 -0.06 0.63
4 12 3 1.56 1.53
-16 4 3 0.97 1.55
-16 4 3 1.41 0.97
4 12 3 1.05 0.88
-4 16 -3 1.06 1.23
-12 16 3 1.24 1.32
-12 16 -3 2.61 1.07
-12 -4 3 1.05 1.26
-16 4 -3 3.34 1.55
12 4 3 2.42 0.97
12 -16 -3 3.1 1.08
-12 16 -3 4.01 1.42
12 4 3 2.4 0.9
4 12 -3 0.76 1.25
16 -4 -3 3.2 0.9
-16 12 3 1.79 1.32
16 -12 3 1.63 0.99
-16 4 -3 2.21 0.85
-4 16 3 2.9 1.26
-16 3 3 26.82 2.4
-3 -13 3 28.04 2.29
3 13 3 25.19 2.28
13 -16 3 22.74 2.26
16 -3 3 25.29 2.41
-3 16 -3 27.07 2.97
-13 16 3 25.68 2.35
3 -16 -3 26.12 2.27
-16 13 -3 22.56 2.72
-16 13 -3 26.04 2.95
13 3 -3 23.77 2.21
13 3 3 23.75 2.27
-16 3 -3 24.89 2.89
-13 16 -3 24.95 2.22
16 -13 3 24.14 2.29
-16 3 -3 18.64 2.09
-3 16 3 25.12 2.76
13 -16 -3 22.44 2.3
-16 13 3 23.27 2.88
13 3 3 22.35 2.15
-13 -3 3 20.41 2.87
-13 16 -3 28.73 2.98
16 -3 -3 21.8 2.13
-16 2 3 2.18 1.14
-16 14 -3 2.48 0.97
-14 16 3 2.75 1.04
14 -16 3 2.22 1.13
2 14 3 2.3 1.42
-14 16 3 2.44 1.3
-2 16 -3 2.6 1.42
-2 -14 3 2.97 1.02
14 2 -3 2.8 0.96
-16 14 -3 0.43 1.29
-16 2 3 2.28 1.78
16 -14 -3 0.3 0.75
16 -2 3 2.48 1.02
2 -16 -3 1.63 0.91
2 14 3 1.82 0.88
-14 16 -3 1.06 0.98
2 14 -3 1.75 1.39
-16 14 3 1.32 1.26
-16 2 -3 -0.77 0.75
-14 -2 3 1.09 1.47
16 -2 -3 0.56 0.86
-16 2 -3 0.39 1.49
-16 14 3 0.28 0.95
-14 -2 3 -1.24 0.61
2 -16 3 0.61 0.87
-14 16 -3 0.72 1.35
14 2 3 0.65 1
14 -16 -3 0.3 1.06
16 -14 3 0.72 1.02
-2 16 3 1.52 1.23
14 2 3 1.16 1
1 -16 -3 3.28 1
-16 15 -3 2.73 1.06
-15 16 3 2.84 0.97
-16 1 3 2.43 1.13
-1 -15 3 2.25 1.07
16 -15 -3 2.1 1.04
-16 1 3 1.98 1.62
16 -1 3 1.68 0.96
-1 16 -3 2.51 1.29
15 -16 3 3.15 1.06
-16 15 -3 1.3 1.35
-15 16 3 3.4 1.48
1 15 3 1.76 1.46
1 15 3 2.64 0.86
15 1 -3 4.27 1.04
15 1 3 1.93 1.05
-15 16 -3 2.52 1.51
1 -16 3 1.26 0.94
-15 -1 3 0.28 0.94
15 -16 -3 2.46 1.03
-16 15 3 2.72 1.05
-16 1 -3 1.91 1.56
-1 16 3 2.87 1.42
-15 -1 3 0.86 1.53
16 -15 3 2.09 1.09
15 1 3 0.86 0.96
-1 16 3 -0.05 0.6
-16 15 3 1.59 1.27
16 -1 -3 2.39 0.94
1 15 -3 1.12 1.27
-15 16 -3 1.92 1.01
16 -16 -3 9.13 1.32
0 -16 -3 7.83 1.2
0 16 -3 8.71 1.73
0 -16 3 8.45 1.18
16 -16 3 10.2 1.41
16 0 3 8.37 1.23
-16 0 3 6.19 1.87
-16 16 -3 6.09 1.64
0 16 3 7.19 1.62
-16 16 -3 11.66 1.42
-16 16 3 6.68 1.21
-16 0 3 8.48 1.33
16 0 -3 7.91 1.22
-16 16 3 7.37 1.72
0 16 3 6.98 1.07
8 9 3 1.64 0.91
-9 17 3 0.87 1.24
-17 9 -3 1.82 0.92
-17 9 -3 2.88 1.38
-17 8 3 1.07 0.87
-17 8 3 2.91 1.61
-9 17 3 0.99 1.15
-9 -8 -3 1.79 0.92
17 -8 3 0.91 0.92
-8 17 -3 -0.05 1.04
-8 -9 3 1.7 0.87
8 -17 -3 2.79 1.1
9 8 -3 -0.06 0.76
17 -9 3 1.33 1.1
-9 -8 3 1.31 0.83
-17 8 -3 1.3 0.88
-17 9 3 3.86 1.64
-8 17 3 1.4 1.23
-17 8 -3 1.4 1.29
8 9 -3 0.08 1.25
9 8 3 0.98 0.93
-9 17 -3 -0.13 1.07
-8 -9 -3 0.74 0.86
-8 17 3 -0.35 1.05
9 -17 -3 0.66 1.04
-7 17 -3 3.7 1.34
17 -7 3 3.49 1.05
-10 -7 -3 4.91 1
7 -17 -3 8.39 1.31
-17 7 3 5.52 1.11
-10 17 3 4.77 1.48
-17 10 -3 6.12 1.06
-7 -10 3 6.34 1.15
10 7 -3 5.61 0.98
-17 10 -3 5.86 1.61
7 10 3 6.41 1.05
-17 7 3 9.57 2.03
17 -10 3 7.32 1.27
7 10 -3 3.61 1.42
-7 17 3 4.82 1.32
10 7 3 7.18 1.14
-17 10 3 6.57 1.69
-10 17 -3 4.39 1.41
-10 17 -3 6.48 1.14
-17 7 -3 8.59 1.76
-17 7 -3 5.96 1.04
10 7 3 6.42 1.1
-7 -10 -3 6.44 1.07
10 -17 -3 6.52 1.26
-10 -7 3 5.96 1.04
11 6 -3 12.48 1.79
17 -6 3 14.23 1.85
-17 11 -3 11.51 1.65
-17 6 3 19.62 2.76
-6 -11 3 14.57 1.77
-17 11 -3 12.33 2.27
-6 17 -3 14.77 2.35
6 -17 -3 14.44 1.82
-17 6 3 12.08 1.76
-11 17 3 11.35 1.72
6 11 3 13.83 1.6
-17 6 -3 10.86 1.48
-11 17 -3 10.27 1.7
11 6 3 8.57 1.26
11 6 3 10.66 1.58
17 -6 -3 11.06 1.52
11 -17 -3 10.41 1.41
-11 17 -3 12.14 1.96
-17 6 -3 13.16 2.19
6 11 -3 6.17 1.6
17 -11 3 11.74 1.45
-6 17 3 9.48 1.63
17 -5 3 7.22 1.22
-17 12 -3 5.85 1.61
12 -17 3 4.91 1.04
-5 -12 3 11.61 1.37
-17 5 3 11.01 2.15
5 12 3 8.17 1.21
12 5 -3 7.81 1.15
-17 5 3 9.95 1.31
-12 17 3 8.66 1.32
-12 17 3 7 1.53
5 -17 -3 8.03 1.21
-5 17 -3 5.95 1.53
-17 12 3 3.96 1.4
17 -5 -3 6.48 1.14
-17 5 -3 5.66 1.04
-17 5 -3 6.34 1.68
-5 17 3 4.81 1.35
12 -17 -3 6.06 1.24
17 -12 3 6.73 1.3
-12 17 -3 6.22 1.63
12 5 3 5.48 1.16
5 12 -3 6.35 1.7
12 5 3 5.78 1.13
-12 17 -3 5.66 1.14
13 -17 3 0.77 1.04
17 -13 -3 -0.35 0.79
-17 4 3 -0.25 0.93
-13 17 3 1.34 0.91
13 4 -3 0.22 0.9
-4 -13 3 0.88 0.95
4 13 3 2.11 1.4
4 -17 -3 1.22 0.98
-13 17 3 1.82 1.4
4 13 3 0.07 0.89
-4 17 -3 0.15 1.37
-17 4 3 1.69 1.71
-17 13 -3 -1.69 1.05
17 -4 3 1.3 1.03
-17 13 -3 0.31 1.19
13 -17 -3 0.74 1.11
-17 4 -3 1.48 1.41
17 -13 3 0.1 0.95
17 -4 -3 0.24 0.88
-17 13 3 0.86 1.29
-17 13 3 -1.18 0.77
-4 17 3 0.22 1.11
-13 17 -3 0.77 1.37
-17 4 -3 0.95 0.87
-13 17 -3 1.4 1.03
4 -17 3 -0.08 0.73
13 4 3 0.7 0.94
13 4 3 1.21 0.94
4 13 -3 0.43 1.3
14 -17 3 11.13 1.54
-3 -14 3 13.76 1.76
17 -14 -3 10.43 1.63
3 14 3 14.04 1.78
-14 17 3 14.43 1.79
-17 3 3 12.27 1.55
-14 17 3 15.85 2.5
-17 3 3 15.95 2.77
-3 17 -3 9.15 1.78
3 14 3 12.51 2.11
14 3 -3 14.64 1.54
-17 14 -3 11.18 1.68
-17 14 -3 9.47 1.89
3 -17 -3 12.96 1.71
17 -3 3 14.23 1.58
-17 3 -3 9.74 1.59
3 -17 3 10.13 1.51
17 -3 -3 11.68 1.59
-3 17 3 13.14 1.92
14 3 3 10.21 1.37
14 3 3 10.83 1.47
-14 17 -3 10.44 1.93
-17 3 -3 10.99 2.11
14 -17 -3 10.55 1.47
-17 14 3 10 1.65
3 14 -3 8.88 1.75
-14 17 -3 12.51 1.77
17 -14 3 11.04 1.42
-17 14 3 8.58 1.72
-17 2 3 3.11 1.71
-15 17 3 2.91 1.01
15 2 -3 2.42 1.02
-17 15 -3 -0.2 1.29
17 -15 -3 1.17 0.95
2 -17 -3 2.04 0.94
-17 2 3 1.96 1.1
-2 17 -3 2.19 1.42
17 -2 3 1.57 0.89
-15 17 3 2.2 1.44
-17 15 -3 2.72 1.01
15 -17 3 1.93 0.98
2 15 3 4.25 1.63
2 15 3 1.86 0.92
-2 -15 3 2.3 1.03
15 2 3 1.24 0.99
15 -17 -3 1.82 1.02
17 -15 3 1.59 1.02
-2 17 3 2.83 1.41
15 2 3 0.94 1.04
2 15 -3 1.32 1.39
-17 15 3 0.39 0.9
-15 -2 3 0.17 1.29
-15 -2 3 -0.01 0.91
-17 15 3 1.89 1.37
-17 2 -3 1.65 1.46
-17 2 -3 2.35 0.94
17 -2 -3 1.64 0.96
-15 17 -3 1.57 0.98
2 -17 3 1.71 0.95
-15 17 -3 1.23 1.43
-17 1 3 0.1 0.97
-1 17 -3 0.63 1.28
16 -17 3 0.79 1.01
17 -1 3 -0.08 0.97
-1 -16 3 0.94 0.97
1 -17 -3 1.35 0.95
17 -1 3 0.56 0.89
-17 1 3 0.27 1.59
-17 16 -3 0.7 1.32
1 16 3 0.79 1.31
-17 16 -3 1.2 0.98
-16 17 3 1.67 1
17 -16 -3 1.29 0.94
16 1 -3 -0.2 0.92
1 16 3 0.55 0.84
-16 17 3 0 1.17
-17 16 3 2.85 1.4
1 -17 3 2.92 0.96
-17 1 -3 1.11 0.87
-16 17 -3 1.7 0.96
17 -16 3 2.55 1.09
-16 17 -3 2.81 1.6
-16 -1 3 1.14 0.98
-17 16 3 1.2 0.91
16 1 3 2.62 1.05
16 -17 -3 3.29 1.05
1 16 -3 1.62 1.28
16 1 3 1.78 0.99
17 -1 -3 2.38 0.99
-16 -1 3 0.86 1.5
-1 17 3 3.31 1.36
-1 17 3 -0.11 0.55
0 -17 3 1.62 0.92
-17 17 3 1.55 0.97
0 17 3 1.48 0.83
-17 0 3 1.62 1.03
17 0 -3 1.91 1
-17 17 3 1.52 1.27
17 -17 3 1.74 1.07
-17 17 -3 1.86 0.98
17 0 3 1.7 1.04
17 0 3 1.6 1.01
17 -17 -3 1.78 0.99
-17 0 3 0.1 1.38
0 -17 -3 3.3 0.98
-17 17 -3 0.66 1.34
0 17 -3 2.31 1.34
0 17 3 1.08 1.36
-18 9 3 1.05 0.87
-9 -9 -3 1.34 0.92
9 9 -3 0.65 0.68
18 -9 -3 -0.28 0.57
18 -9 3 0.51 0.94
-9 -9 3 0.15 0.91
9 -18 -3 1.1 1.1
-18 9 -3 0.81 1.36
9 9 3 0.95 0.86
-9 18 -3 -1.13 1.04
-18 9 3 1.96 1.61
-9 18 3 1.01 1.15
-18 9 -3 1.53 0.84
18 -8 3 5.55 1.19
-18 10 -3 3.78 1.54
-18 8 3 5.96 1.73
-18 10 -3 6.61 1.12
10 8 -3 4.54 1.01
8 10 3 5.4 1.02
8 -18 -3 7.11 1.23
-10 -8 -3 6.44 1.1
-18 8 3 5.47 1.13
-8 -10 3 5.49 1.17
-10 -8 3 2.32 0.91
10 8 3 2.66 0.95
-18 8 -3 1.31 1.33
-10 18 -3 1.59 1.36
-8 -10 -3 2.23 0.94
18 -8 -3 1.06 0.74
18 -10 3 2.03 1.05
10 -18 -3 1.99 1.1
-18 8 -3 2.69 0.91
-18 10 3 2.87 1.52
-10 18 -3 -0.1 0.88
-18 10 3 0.57 0.78
-8 18 3 1.97 1.33
-11 -7 -3 1.3 0.88
-18 11 -3 1.3 0.93
11 7 -3 1.07 0.87
-18 11 -3 2.6 1.54
-11 18 3 0.94 1.27
-11 18 3 0.37 0.82
7 -18 -3 1.89 1.09
-7 -11 3 0.75 0.95
11 -18 3 0.47 0.81
-18 7 3 0.97 0.92
-7 18 -3 -0.32 1.15
-18 7 3 2.1 1.62
18 -7 3 0.52 0.98
7 11 3 1.63 0.79
7 11 -3 0.53 1.2
-18 7 -3 2.24 0.86
18 -7 -3 2.13 0.88
11 7 3 3.49 1
11 7 3 4.25 1.05
-11 18 -3 1.45 1.37
-11 18 -3 2.43 1.02
-7 18 3 2.93 1.35
-18 7 -3 2.23 1.51
-11 -7 3 3.19 0.96
-7 -11 -3 1.31 0.88
18 -11 3 2.62 1.15
-18 11 3 0.1 1.22
11 -18 -3 1.6 1.09
-18 12 -3 0.24 1.36
6 12 3 0.57 0.91
-12 -6 -3 0.36 0.81
-6 18 -3 0.65 1.25
18 -6 3 0.64 0.97
-12 18 3 0.48 0.88
-18 6 3 0.53 0.96
6 -18 -3 0.09 0.98
12 6 -3 0.03 0.92
12 -18 3 -0.08 0.88
-18 6 3 1.84 1.54
-12 18 3 1.31 1.28
-18 12 -3 0.44 0.87
-6 -12 3 0 0.98
-6 -12 -3 -0.05 0.83
-12 18 -3 0.66 0.94
18 -6 -3 0.71 0.93
12 -18 -3 -0.11 1.07
12 6 3 -0.48 0.9
-6 18 3 0.19 1.15
12 6 3 0.14 0.89
-18 6 -3 -0.04 0.78
-12 -6 3 0.39 0.79
6 -18 3 -0.02 0.65
18 -12 3 -0.58 0.97
6 12 -3 0.2 1.19
-18 6 -3 0.06 1.33
-12 18 -3 0.4 1.38
-5 -13 3 6.01 1.12
-18 5 3 7.42 1.99
5 13 3 6.67 1.11
-18 5 3 5.32 1.17
13 5 -3 6.44 1.18
-13 18 3 5.26 1.05
-13 18 3 6.14 1.58
13 -18 3 4.29 1.17
18 -5 3 5.75 1.2
-5 18 -3 5.97 1.61
5 -18 -3 8.64 1.27
-5 -13 -3 3.11 0.9
-18 5 -3 6.86 1.84
-18 5 -3 4.57 0.98
-13 -5 3 3.31 0.89
-5 18 3 5.06 1.41
13 -18 -3 8.05 1.35
18 -5 -3 4.99 1.04
13 5 3 6.37 1.13
13 5 3 5.66 1.13
18 -13 3 7.98 1.28
-13 18 -3 6.02 1.65
5 13 -3 6.17 1.63
5 -18 3 3.79 0.88
-13 18 -3 6.64 1.14
4 14 3 1.23 0.92
18 -14 -3 1.19 0.95
-18 4 3 2.43 1.11
-14 18 3 1.39 1.29
-4 18 -3 0.98 1.26
-14 18 3 2.57 1.01
18 -4 3 0.43 0.92
-18 4 3 2.04 1.67
14 4 -3 1.48 0.99
4 -18 -3 1.71 0.96
14 -18 3 1.97 1.13
-4 -14 3 0.96 0.94
18 -14 3 0.38 0.99
-14 18 -3 -0.65 1.36
-4 18 3 0.34 1.16
14 4 3 0.33 0.88
18 -4 -3 0.43 0.91
4 14 -3 1.4 1.36
14 -18 -3 1.5 1.07
-18 4 -3 0.52 0.84
-18 4 -3 0.43 1.43
-18 14 3 -0.08 1.08
14 4 3 0.1 0.99
-18 14 3 -0.16 0.92
4 -18 3 0.59 0.83
-14 18 -3 0.89 0.96
-4 -14 -3 -0.38 0.58
-14 -4 3 -1.07 0.6
-18 3 3 0.96 1.66
-15 18 3 0.34 1.19
-18 3 3 -0.33 0.97
-3 -15 3 0.91 0.93
15 -18 3 -0.14 0.94
-3 18 -3 -0.23 1.25
3 -18 -3 1.17 0.94
-15 18 3 1.2 0.97
3 15 3 0.01 1.3
3 15 3 0.43 0.88
18 -3 3 0.36 0.87
18 -15 -3 0.65 1
15 3 -3 0.32 0.92
-18 15 -3 0.14 0.98
-18 3 -3 0.17 1.33
-18 15 3 0.16 0.91
18 -3 -3 1.19 0.92
15 -18 -3 0.39 0.93
18 -15 3 1.26 0.99
-3 18 3 0.1 1.2
3 -18 3 0.06 0.85
-18 3 -3 0.01 0.88
-15 -3 3 -0.49 0.6
-18 15 3 0.31 1.12
3 15 -3 0.04 1.26
15 3 3 1.21 0.93
-15 18 -3 -0.16 1.39
-15 18 -3 0.35 0.93
15 3 3 0.91 1.07
-16 18 3 0.93 0.94
18 -2 3 0.31 0.87
2 16 3 0.42 0.83
-16 18 3 0.64 1.19
-18 2 3 1.04 1.49
-18 16 -3 1.28 1.01
-18 2 3 0.49 0.98
2 16 3 0.03 1.17
-2 -16 3 1.95 1.01
16 -18 3 1.12 1.01
16 2 -3 0.76 1.02
18 -16 -3 0.74 0.99
-2 18 -3 0.13 1.25
2 -18 -3 1.18 0.91
2 16 -3 1.01 1.39
-18 16 3 -0.12 1.06
18 -2 -3 0.7 0.93
16 2 3 0.67 0.97
-16 18 -3 0.8 1.4
16 2 3 0.41 0.91
-16 -2 3 -0.59 0.91
-18 16 3 0.84 0.91
18 -16 3 1.17 0.95
-18 2 -3 0.2 0.84
16 -18 -3 0.62 0.96
-16 18 -3 1.27 0.93
-2 18 3 0.82 1.18
2 -18 3 1.55 0.91
-17 18 3 1.21 1.17
18 -1 3 1.1 1.01
1 17 3 0.07 1.38
-18 17 -3 1.21 0.97
18 -17 -3 0.7 0.94
-17 18 3 0.3 0.88
18 -1 3 0.2 0.74
-18 1 3 -0.23 0.95
17 1 -3 0.76 0.96
-1 18 -3 0.2 1.17
17 -18 3 0.81 1.02
1 -18 -3 0.21 0.87
1 17 3 0.42 0.83
-1 -17 3 0.79 0.87
17 -18 -3 0.4 0.98
17 1 3 1.03 0.91
-17 18 -3 0.5 0.96
-1 18 3 -0.16 0.49
-1 -17 -3 0.26 0.88
-18 17 3 0.23 0.87
1 17 -3 0.93 1.17
17 1 3 0.12 0.95
18 -17 3 0.68 0.99
18 -1 -3 0.59 0.93
-18 1 -3 -0.7 0.82
-17 18 -3 -1.37 1.12
-18 17 3 -0.28 1.09
-17 -1 3 0.79 0.97
1 -18 3 0.24 0.88
-1 18 3 0.41 1.17
0 -18 3 3.43 0.98
0 18 -3 -0.28 1.18
0 18 3 2.71 0.73
18 0 -3 4.14 1.07
-18 18 3 4.75 1.06
-18 0 3 3.69 1.06
-18 18 -3 3.28 0.99
18 0 3 3.14 0.97
18 -18 3 3 1.05
18 -18 -3 2.61 0.97
18 0 3 3.03 0.97
0 -18 -3 4.13 0.99
-19 10 -3 0.77 0.81
9 10 3 0.17 0.53
10 -19 3 -0.15 0.75
-10 -9 -3 0.32 0.83
-19 10 -3 0.06 1.32
9 -19 -3 0.79 0.95
-9 -10 3 0.01 0.89
-19 9 3 0.72 1.44
9 10 3 1.02 0.78
19 -10 -3 -0.18 0.62
-19 9 3 0.22 0.92
10 9 -3 0.38 0.89
19 -9 3 -0.31 0.89
-10 -9 3 1.11 0.92
-19 10 3 -0.12 0.86
19 -10 3 1.02 0.92
9 10 -3 0.86 0.83
10 9 3 1.18 0.88
10 -19 -3 1.47 1.01
-19 10 3 1.27 1.35
10 9 3 0.5 0.77
-10 19 -3 -0.4 0.81
-19 9 -3 0.78 1.38
19 -9 -3 1.36 0.8
-9 -10 -3 1.23 0.85
-19 9 -3 1.38 0.82
-19 11 -3 0.59 1.42
8 -19 -3 1.66 0.94
-19 8 3 2.67 1.61
11 8 -3 0.96 0.89
19 -8 3 0.42 0.96
8 11 3 0.82 0.79
-19 11 -3 1.24 0.87
-11 19 3 0.45 0.85
-8 -11 3 1.28 0.96
11 -19 3 0.69 0.88
-11 -8 -3 0.46 0.8
-19 8 3 1.41 0.94
-11 19 -3 0.15 0.87
19 -8 -3 0.5 0.85
-19 8 -3 1.42 1.31
-11 19 -3 -2.01 1.09
-19 8 -3 1.91 0.88
11 8 3 1.46 0.86
8 11 -3 0.04 0.6
-8 -11 -3 0.5 0.85
19 -11 3 0.76 0.95
-11 -8 3 0.83 0.87
-8 19 3 0.87 1.1
-19 11 3 -0.1 0.81
11 -19 -3 0.83 1.01
-12 19 3 2.12 0.93
19 -7 3 3.1 1.01
-19 7 3 4.43 1.07
-7 -12 3 4.91 1.1
7 -19 -3 5.81 1.16
12 -19 3 2.13 0.94
-12 19 3 1.13 1.2
-19 7 3 4.57 1.72
-19 12 -3 2.73 1.4
-19 12 -3 3.58 0.98
12 7 -3 3.75 0.97
-12 -7 -3 4.57 0.99
7 12 3 4.47 1.03
-19 7 -3 3.28 1.58
-12 19 -3 2.24 1.45
-7 -12 -3 2.42 0.9
-19 7 -3 3.66 0.91
-7 19 3 3.64 1.33
19 -7 -3 4.02 0.98
12 7 3 3.24 0.97
12 -19 -3 3.43 1.05
-12 19 -3 2.57 1.01
19 -12 3 2.53 1.08
-12 -7 3 2.8 0.94
-6 -13 3 11.72 1.63
13 6 -3 10.89 1.28
19 -6 3 9.26 1.37
-13 19 3 10.75 1.73
13 -19 3 10.44 1.36
-19 6 3 10.54 1.38
-19 6 3 12.61 2.23
-19 13 -3 6.73 1.11
-13 19 3 8.21 1.69
-13 -6 -3 10.71 1.26
6 13 3 8.12 1.22
6 -19 -3 10.51 1.35
19 -6 -3 9.97 1.44
13 6 3 9.62 1.44
13 -19 -3 9.37 1.37
-19 6 -3 10.55 1.98
-19 6 -3 6.58 1.08
-13 -6 3 6.86 1.09
-6 -13 -3 9.1 1.18
-6 19 3 5.85 1.44
-13 19 -3 11.27 1.68
13 6 3 11.49 1.59
-13 19 -3 6.81 1.72
-19 14 -3 -0.04 0.73
19 -5 3 1.32 0.96
5 -19 -3 1.72 0.94
-19 5 3 1.99 1.07
19 -14 -3 1.51 0.89
5 14 3 1.79 0.9
14 -19 3 1.58 1.03
-14 -5 -3 1.69 0.9
-19 5 3 2.59 1.63
-5 19 -3 -0.29 1.05
-14 19 3 1.78 0.94
-14 19 3 1.37 1.21
14 5 -3 2.46 0.95
-5 -14 3 2.87 0.99
5 14 -3 -0.46 1.07
-5 -14 -3 1.56 0.88
-14 -5 3 2.01 0.82
-14 19 -3 1.71 1.4
14 5 3 2.15 0.91
-19 5 -3 2.27 1.41
5 -19 3 1.89 0.82
19 -14 3 4.34 1.11
-5 19 3 1.2 1.18
-19 14 3 0.63 0.89
14 -19 -3 1.63 1.09
-19 5 -3 1.79 0.82
-14 19 -3 2.27 0.96
14 5 3 3.05 1.02
19 -5 -3 2.94 0.99
-15 19 3 4.75 1.06
-4 -15 3 8.23 1.2
-19 4 3 8.5 1.32
-15 19 3 4.91 1.47
-19 4 3 5.11 1.69
15 -19 3 7.22 1.19
4 -19 -3 7.23 1.21
19 -15 -3 5.98 1.11
15 4 -3 8.25 1.18
-15 -4 -3 8.44 1.16
4 15 3 7.39 1.14
-19 15 -3 4.35 1.07
19 -4 3 3.72 0.98
4 -19 3 2.1 0.83
-19 4 -3 -0.51 1.3
19 -4 -3 2.92 0.94
-15 19 -3 1.59 1.45
15 -19 -3 3.27 1.08
19 -15 3 5.07 1.13
-15 19 -3 4.41 1.05
15 4 3 4.29 1.06
-19 15 3 2.32 0.94
-4 19 3 2.99 1.28
-15 -4 3 0.64 0.68
-19 4 -3 2.13 0.88
4 15 -3 -0.48 1.17
15 4 3 3.2 0.96
3 16 3 0.93 0.84
-16 19 3 1.49 0.9
-19 3 3 0.66 0.97
-3 19 -3 -0.35 1.15
19 -16 -3 0.06 0.93
16 -19 3 0.45 0.97
-19 3 3 0.1 1.33
-3 -16 3 0.64 0.94
3 -19 -3 0.89 0.9
-16 19 3 0.69 1.14
-19 16 -3 1.95 0.94
16 3 -3 2.11 1
19 -3 3 1.03 0.91
-16 -3 -3 1.05 0.85
19 -3 -3 1.56 0.95
-16 -3 3 -0.28 0.57
16 3 3 1.8 0.94
3 -19 3 1.52 0.86
-3 19 3 1.5 1.15
-19 3 -3 0.56 0.81
-19 16 3 1.62 0.92
-16 19 -3 2.03 0.93
16 3 3 0.87 0.97
19 -16 3 1.26 0.95
3 16 -3 -0.42 1.56
16 -19 -3 1.65 0.96
2 -19 -3 0.15 0.83
17 -19 3 -0.17 0.96
2 17 3 0.91 0.85
19 -17 -3 0.03 0.92
-17 19 3 0.74 0.86
-2 -17 3 0.01 0.83
17 2 -3 -0.17 0.91
19 -2 3 -0.08 0.98
-19 17 -3 0.4 0.89
-19 2 3 0.07 0.93
-17 -2 -3 1.18 0.89
17 -19 -3 -0.17 0.96
17 2 3 0.54 0.9
17 2 3 0.3 0.84
-17 19 -3 0.45 0.88
-2 -17 -3 0.49 0.86
-19 2 -3 -0.21 0.79
19 -2 -3 -0.52 0.87
2 -19 3 0.08 0.78
-17 -2 3 -0.62 0.84
19 -17 3 -0.25 0.88
-19 17 3 -0.01 0.85
-19 18 -3 2.76 0.97
18 1 -3 5.3 1.06
-18 -1 -3 4.43 0.95
-18 19 3 4.87 1.05
1 18 3 3.4 0.84
1 -19 -3 2.86 0.9
18 -19 3 5.92 1.15
19 -18 -3 3.07 1.03
19 -1 3 3.96 1.08
-19 1 3 2.74 1
-1 -18 3 2.68 0.91
18 -19 -3 1.81 0.93
-18 19 -3 3.52 0.95
19 -1 -3 2.9 1.01
-1 -18 -3 2.62 0.92
-18 -1 3 1.83 0.94
18 1 3 3.17 0.94
18 1 3 1.87 0.91
1 -19 3 2.46 0.83
-19 18 3 1.05 0.88
19 -18 3 2.75 0.95
-19 1 -3 0.87 0.8
19 0 3 2.63 0.88
19 -19 -3 1.65 0.96
-19 19 3 2.7 0.89
0 -19 -3 1.78 0.85
19 0 -3 1.06 0.91
-19 0 3 2.36 0.92
-19 19 -3 2.82 0.91
0 -19 3 1.36 0.82
-19 0 -3 2.57 0.82
19 0 3 2.33 0.79
19 -19 3 3.49 0.95
20 -10 3 1.37 0.95
-20 10 -3 0.26 1.33
-10 -10 -3 0.79 0.76
10 10 3 0.53 0.65
-10 20 -3 -0.56 0.79
10 -20 3 0.15 0.75
10 10 -3 0.14 0.81
10 -20 -3 0.34 0.97
10 10 3 0.5 0.71
-10 -10 3 0.97 0.89
-20 10 -3 1.47 0.81
-20 10 3 1.12 0.96
20 -10 -3 0.51 0.69
-20 11 -3 1.39 0.88
11 9 -3 0.59 0.86
9 11 3 1.39 0.81
9 -20 -3 1.44 0.98
-11 20 3 0.02 0.78
-9 -11 3 2.37 0.93
11 -20 3 0.52 0.83
-20 9 3 1.85 0.98
-20 11 -3 -0.46 1.21
20 -9 3 1.47 0.96
-11 -9 -3 1.89 0.83
-20 9 3 0.21 1.32
9 11 -3 1.6 0.74
20 -9 -3 2.76 0.92
-9 -11 -3 0.74 0.77
11 9 3 2.48 0.88
-11 -9 3 2.73 0.91
-20 11 3 0.52 0.89
11 -20 -3 2.34 1.02
-11 20 -3 1.55 0.85
20 -11 3 1.6 0.94
-20 9 -3 1.67 1.39
9 -20 3 -0.18 0.77
-20 9 -3 2.09 0.82
11 9 3 1.37 0.81
12 8 -3 2.47 0.95
8 12 3 2.73 0.93
-20 8 3 4.04 1.08
12 -20 3 1.43 0.92
20 -8 3 1.29 0.94
-20 8 3 0.74 1.26
-20 12 -3 2.27 0.94
-12 -8 -3 1.58 0.86
-12 20 3 1.01 0.82
-8 -12 3 2.09 0.92
8 -20 -3 2.12 0.94
-12 -8 3 2.3 0.91
-20 8 -3 0.93 1.26
20 -8 -3 1.1 0.86
20 -12 3 3.71 1
-8 -12 -3 1.68 0.83
12 8 3 1.14 0.81
-20 8 -3 3.3 0.89
-12 20 -3 1.74 0.91
12 -20 -3 1.83 1
12 8 3 2.84 0.9
-20 12 3 0.45 0.88
7 -20 -3 6.75 1.11
-20 13 -3 5.88 1.04
-13 20 3 6.27 1.12
7 13 3 8.48 1.19
-7 -13 3 8.18 1.14
13 -20 3 5.71 1.12
-13 -7 -3 9.8 1.18
-20 7 3 3.22 1.46
20 -7 3 6.89 1.18
13 7 -3 6.16 1.14
20 -7 -3 6.75 1.1
-20 7 -3 9.04 1.4
20 -13 3 8.48 1.22
13 -20 -3 11.78 1.42
-7 -13 -3 7.39 1.11
13 7 3 8.81 1.18
-13 20 -3 6.69 1.16
-13 -7 3 7.3 1.11
-14 20 3 8.87 1.19
20 -6 3 5.66 1.09
6 14 3 6.56 1.09
20 -14 -3 4.95 0.98
14 6 -3 6.44 1.08
-20 6 3 8.53 1.21
6 -20 -3 8.02 1.18
-20 14 -3 5.74 1.01
14 -20 3 5.97 1.16
-14 -6 -3 9.23 1.14
20 -6 -3 6.48 1.08
-20 6 -3 7.84 1.09
14 -20 -3 8.62 1.31
20 -14 3 10.69 1.35
-14 20 -3 7.91 1.2
-14 -6 3 5.93 1.03
14 6 3 7.15 1.13
-6 -14 -3 6.92 1.1
-15 20 3 0.9 0.85
5 15 3 0.4 0.83
-20 15 -3 -1.58 0.68
15 -20 3 0.51 0.88
-15 -5 -3 0.12 0.81
5 -20 -3 0.55 0.88
20 -15 -3 0.57 0.84
-20 5 3 -0.01 1.79
-5 -15 3 0.59 0.88
15 5 -3 0.1 0.8
-20 5 3 -0.04 0.9
20 -5 3 -0.4 0.76
5 -20 3 -0.11 0.66
20 -5 -3 0.6 0.89
-20 5 -3 0.45 0.76
-20 15 3 0.13 0.85
15 5 3 0.57 0.85
-15 -5 3 0.17 0.73
15 5 3 0.48 0.88
-5 -15 -3 0.46 0.8
15 -20 -3 0.7 0.92
-15 20 -3 1.06 0.91
20 -15 3 0.68 0.91
-20 4 3 2.82 0.98
20 -16 -3 1.26 0.87
-16 -4 -3 2.8 0.89
16 -20 3 3.01 1.02
4 -20 -3 2.56 0.96
16 4 -3 2.2 0.87
-20 16 -3 0.59 0.85
20 -4 3 2.47 0.93
4 16 3 2.34 0.85
-4 -16 3 2.66 0.93
-16 20 3 2.22 0.88
20 -16 3 2.51 0.98
16 4 3 2.13 0.9
16 4 3 3.21 0.99
-20 4 -3 2.58 0.87
4 -20 3 2.09 0.77
-20 16 3 1.89 0.94
20 -4 -3 2.39 0.95
-16 20 -3 4.13 0.97
16 -20 -3 2.51 1
-20 17 -3 -0.2 0.86
3 -20 -3 0.17 0.83
-17 20 3 1.24 0.85
-3 -17 3 1.15 0.82
17 3 -3 0.28 0.78
-17 -3 -3 1.51 0.84
-20 3 3 0.87 0.89
20 -3 3 0.85 0.96
3 17 3 -0.29 0.8
17 -20 3 0.36 0.95
20 -17 -3 0.37 0.81
-20 17 3 -0.11 0.85
-20 3 -3 0.35 0.76
-17 -3 3 -0.37 0.65
-17 20 -3 -0.01 0.78
-3 -17 -3 1.33 0.83
17 3 3 0.49 0.83
17 3 3 -0.27 0.78
20 -17 3 0.27 0.83
20 -3 -3 0.26 0.85
17 -20 -3 -0.57 0.9
3 -20 3 -0.07 0.72
-2 -18 3 -0.35 0.78
20 -18 -3 0.49 0.8
-20 18 -3 1.09 0.85
2 -20 -3 0.49 0.85
-18 -2 -3 0.74 0.79
-18 20 3 1.33 0.83
-20 2 3 -0.23 0.84
18 2 -3 0.93 0.77
18 -20 3 0.81 0.91
20 -2 3 0.52 0.94
2 18 3 0.14 0.72
18 2 3 0.89 0.82
2 -20 3 -0.19 0.67
20 -2 -3 0.05 0.89
18 -20 -3 0.02 0.84
-20 2 -3 -0.28 0.75
-18 20 -3 1.1 0.83
-2 -18 -3 0.57 0.8
-20 18 3 0.39 0.84
-18 -2 3 0.04 0.72
18 2 3 -0.12 0.76
20 -18 3 0.39 0.82
-19 20 3 0.09 0.76
20 -19 -3 0.18 0.81
-20 19 -3 0.13 0.75
-1 -19 3 -0.11 0.71
19 1 -3 -0.51 0.71
1 -20 -3 -0.36 0.76
-20 1 3 -0.71 0.79
19 -20 3 0.26 0.8
20 -1 3 0.31 0.8
-19 -1 -3 -0.09 0.69
1 -20 3 0.13 0.71
-20 19 3 0.4 0.82
-20 1 -3 -1.19 0.5
-19 -1 3 -0.14 0.79
20 -1 -3 -0.37 0.8
-1 -19 -3 0.5 0.75
-20 1 -3 0.52 0.61
19 1 3 0.12 0.71
20 -19 3 0.08 0.79
19 1 3 0.41 0.79
-19 20 -3 0.86 0.8
19 -20 -3 0.72 0.88
-20 0 -3 4.18 0.78
0 -20 3 3.28 0.78
-20 0 3 3.49 0.9
20 -20 3 6.93 1.01
-20 20 -3 4.13 0.84
20 0 3 4.33 0.9
20 -20 -3 3.44 0.9
-20 20 3 5.25 0.97
0 -20 -3 4.57 0.94
20 0 -3 4.71 0.88
-11 21 3 -1.1 0.53
21 -10 3 0.47 0.9
10 -21 -3 1 0.83
-21 11 -3 0.11 0.76
-11 -10 -3 -0.65 0.65
11 10 -3 0.1 0.78
-10 -11 3 -0.03 0.81
10 11 3 0.77 0.78
11 -21 3 0.08 0.73
-21 10 3 0.51 0.92
11 -21 -3 0.67 0.91
10 -21 3 -0.24 0.59
-21 10 -3 0.35 0.72
-21 11 3 0.35 0.84
21 -10 -3 -0.05 0.54
21 -11 3 0.47 0.88
-10 -11 -3 0.52 0.71
10 11 -3 -0.35 0.72
11 10 3 0.46 0.74
11 10 3 0.51 0.65
-11 21 -3 -0.72 0.72
-11 -10 3 0.5 0.83
12 -21 3 0.55 0.82
-9 -12 3 1.63 0.85
21 -9 3 1.65 0.9
-21 12 -3 1.11 0.8
-12 -9 -3 0.68 0.72
-12 21 3 0.78 0.77
9 12 3 1.1 0.82
-21 9 3 2.68 0.94
12 9 -3 0.2 0.8
9 -21 -3 0.88 0.88
21 -9 -3 1.04 0.72
12 9 3 0.5 0.73
12 -21 -3 0.32 0.93
-21 9 -3 1.19 0.75
21 -12 3 1.33 0.87
-12 21 -3 -0.07 0.76
9 12 -3 -0.12 0.48
-9 -12 -3 0.45 0.73
-21 12 3 0.09 0.82
-12 -9 3 1.5 0.85
12 9 3 0.12 0.72
13 8 -3 11.77 1.52
13 -21 3 10.06 1.56
-21 8 3 14.03 1.72
-13 21 3 8.95 1.45
21 -8 3 12.08 1.6
-13 -8 -3 11.59 1.42
8 13 3 11.43 1.61
-8 -13 3 11.35 1.49
8 -21 -3 10.02 1.57
-21 13 -3 11.9 1.48
21 -13 3 13.43 1.61
-13 -8 3 12.31 1.53
21 -8 -3 10.1 1.44
-13 21 -3 11.54 1.54
-8 -13 -3 10.2 1.41
13 -21 -3 13.32 1.76
13 8 3 10.31 1.48
13 8 3 11.49 1.55
-21 8 -3 10.79 1.45
-14 21 3 3.23 0.93
7 -21 -3 3.13 0.9
-7 -14 3 4.74 0.95
-21 14 -3 1.6 0.79
-14 -7 -3 4 0.87
7 14 3 3.46 0.91
14 -21 3 2.21 0.89
-21 7 3 4.17 1
14 7 -3 3.04 0.92
21 -7 3 2.71 0.94
14 -21 -3 3.78 1.01
-21 7 -3 3.76 0.89
-14 -7 3 2.39 0.81
14 7 3 1.6 0.78
21 -14 3 3.27 0.93
-7 -14 -3 1.8 0.84
-14 21 -3 2.8 0.88
21 -7 -3 2.59 0.85
14 7 3 3.8 0.93
15 6 -3 3.4 0.94
-15 21 3 2.59 0.87
-21 15 -3 0.28 0.71
-21 6 3 3.19 0.92
21 -15 -3 0.63 0.69
21 -6 3 2.27 0.85
-6 -15 3 2.94 0.88
15 -21 3 2.45 0.86
6 15 3 1.92 0.83
-15 -6 -3 2.98 0.85
6 -21 -3 2.03 0.83
-15 21 -3 0.91 0.78
21 -6 -3 1.45 0.81
21 -15 3 1.86 0.86
-6 -15 -3 1.25 0.79
15 6 3 1.11 0.84
15 -21 -3 1.19 0.87
-21 6 -3 1.38 0.73
-15 -6 3 0.27 0.71
21 -16 -3 2.5 0.84
-16 21 3 4.11 0.94
5 -21 -3 4.68 0.96
5 16 3 1.45 0.79
21 -5 3 2.95 0.92
16 5 -3 5.71 1.01
16 -21 3 2.67 0.95
-16 -5 -3 5.71 0.96
-21 5 3 4.57 0.98
-5 -16 3 3.45 0.9
21 -5 -3 4.56 0.96
-16 -5 3 1.93 0.72
16 5 3 4.19 0.93
-21 16 3 2.71 0.84
21 -16 3 7.23 1.1
-21 5 -3 5.12 0.87
16 -21 -3 4.18 0.98
-5 -16 -3 3.58 0.85
-16 21 -3 5.41 0.96
-4 -17 3 2.69 0.8
21 -4 3 2.16 0.95
4 -21 -3 3.42 0.9
17 4 -3 4.43 0.91
21 -17 -3 1.84 0.81
17 -21 3 3.74 1.01
-17 21 3 4.93 0.93
4 17 3 3.43 0.86
-21 4 3 3.82 0.93
-17 -4 -3 3.43 0.87
17 4 3 3.1 0.9
-4 -17 -3 2.1 0.79
21 -17 3 4.91 0.96
21 -4 -3 3.53 0.93
17 -21 -3 2.24 0.91
-17 21 -3 3.97 0.89
-21 4 -3 2.91 0.8
-21 17 3 2.98 0.87
21 -3 3 0.16 0.81
18 3 -3 0.17 0.69
21 -18 -3 0.66 0.74
-18 21 3 0.67 0.73
18 -21 3 0.16 0.84
-3 -18 3 0.52 0.72
-18 -3 -3 0.98 0.75
3 -21 -3 0.17 0.78
-21 3 3 0.47 0.8
3 18 3 0.59 0.65
-21 18 -3 0.15 0.72
21 -3 -3 0.58 0.81
21 -18 3 0.95 0.8
18 3 3 0.95 0.7
3 -21 3 0.39 0.59
-3 -18 -3 0.04 0.68
-21 18 3 0.04 0.77
-21 3 -3 0.28 0.7
18 -21 -3 0.3 0.78
-18 21 -3 0.82 0.74
18 3 3 -0.33 0.74
-21 3 -3 0.46 0.58
2 -21 -3 1.68 0.82
-19 21 3 2.68 0.84
19 2 -3 2.47 0.76
21 -19 -3 2.18 0.79
-2 -19 3 2.19 0.72
-19 -2 -3 2.39 0.77
-21 19 -3 1.57 0.74
19 -21 3 2.69 0.83
21 -2 3 2.19 0.82
-21 2 3 2.71 0.82
21 -2 -3 1.03 0.74
19 2 3 0.33 0.65
2 -21 3 1.25 0.6
21 -19 3 1.7 0.84
-19 21 -3 1.31 0.7
19 2 3 1.24 0.74
19 -21 -3 0.99 0.83
-2 -19 -3 1.06 0.7
-21 19 3 0.73 0.75
-21 2 -3 1.29 0.57
-20 21 3 1.06 0.73
-21 1 3 0.68 0.72
-1 -20 3 0.02 0.6
-21 20 -3 0.76 0.67
21 -1 3 0.24 0.64
21 -20 -3 0.65 0.7
20 -21 3 0.71 0.75
1 -21 -3 0.22 0.74
-20 -1 -3 0.98 0.64
20 1 -3 0.39 0.69
21 -20 3 0.51 0.77
-21 20 3 0.87 0.71
21 -1 -3 0.27 0.69
20 1 3 0.15 0.59
20 1 3 0.92 0.67
-20 21 -3 0.5 0.64
1 -21 3 0.43 0.43
-21 1 -3 0.29 0.53
-1 -20 -3 0.66 0.74
20 -21 -3 0.63 0.74
21 -21 3 0.32 0.76
21 -21 -3 0.17 0.57
21 0 3 0.76 0.7
-21 21 -3 0.38 0.61
21 0 -3 0.34 0.76
-21 21 3 0.77 0.7
-21 0 -3 -0.27 0.38
0 -21 -3 0.63 0.58
-22 11 3 1.58 0.83
11 11 -3 0.76 0.68
11 -22 -3 1.93 0.83
-11 -11 3 2.4 0.81
22 -11 3 1.6 0.83
-22 11 -3 1.93 0.77
11 11 3 2.02 0.81
-11 -11 -3 2.15 0.74
-12 -10 -3 2.72 0.74
10 12 3 3.82 0.87
-22 10 3 4.91 0.98
10 -22 -3 3.28 0.88
12 10 -3 1.62 0.76
12 -22 3 2.18 0.81
22 -10 3 3.72 0.88
-10 -12 3 4.06 0.83
-22 12 -3 4.35 0.87
-12 22 -3 1.86 0.77
22 -12 3 5.1 0.97
-12 -10 3 3.23 0.82
-22 12 3 1.54 0.83
-10 -12 -3 2.39 0.75
12 10 3 2.07 0.61
12 -22 -3 5.38 0.98
-9 -13 3 -0.35 0.71
9 13 3 0.49 0.76
-13 -9 -3 0.51 0.64
-22 13 -3 0.46 0.78
13 -22 3 -0.23 0.76
-22 9 3 0.44 0.81
22 -9 3 0 0.72
-13 22 3 0.07 0.72
9 -22 -3 -0.05 0.72
13 9 -3 -0.08 0.69
13 9 3 -0.04 0.62
-22 13 3 -1.11 0.62
22 -9 -3 0.83 0.62
-13 22 -3 -0.12 0.71
22 -13 3 -0.05 0.79
-13 -9 3 1.49 0.79
-9 -13 -3 -0.04 0.69
-22 9 -3 -0.01 0.66
13 -22 -3 -0.1 0.82
13 9 3 0.26 0.64
22 -8 3 4.63 0.91
-8 -14 3 6.28 0.89
-14 -8 -3 8.85 0.99
8 14 3 6.61 0.96
14 8 -3 6.44 0.94
14 -22 3 4.71 0.92
-22 8 3 6.51 1
-14 22 3 3.84 0.87
14 -22 -3 6.92 1.08
-14 -8 3 3.62 0.83
-8 -14 -3 4.95 0.87
22 -8 -3 4.5 0.87
-22 8 -3 6.78 0.9
14 8 3 4.65 0.83
-14 22 -3 3.88 0.92
14 8 3 5.87 0.91
22 -14 3 7.42 1.04
-7 -15 3 4.19 0.85
-22 7 3 4.69 0.89
7 -22 -3 2.53 0.83
-15 -7 -3 4.11 0.77
15 -22 3 2.74 0.82
15 7 -3 4.44 0.9
7 15 3 2.85 0.82
22 -7 3 2.87 0.81
-15 22 3 3.33 0.85
-7 -15 -3 3.28 0.78
22 -15 3 5.1 0.93
15 7 3 3.41 0.8
15 7 3 4.41 0.81
-15 22 -3 5.31 0.95
15 -22 -3 4.04 0.89
22 -7 -3 3.57 0.82
-15 -7 3 2.91 0.76
-22 7 -3 4.41 0.79
-16 -6 -3 1.29 0.71
16 -22 3 1.14 0.76
-22 6 3 1.22 0.77
22 -6 3 1.01 0.72
6 -22 -3 1.1 0.77
-16 22 3 0.94 0.78
6 16 3 1 0.69
-6 -16 3 1.1 0.69
16 6 -3 0.85 0.68
-16 22 -3 3.07 0.84
16 6 3 2.56 0.76
-6 -16 -3 1.48 0.68
16 -22 -3 0.95 0.82
22 -6 -3 2.15 0.77
-16 -6 3 0.82 0.63
-22 6 -3 1.95 0.71
16 6 3 1.43 0.68
22 -16 3 2.73 0.81
-17 22 3 1.13 0.76
5 17 3 -0.06 0.67
17 -22 3 0.12 0.81
22 -17 -3 -0.3 0.53
5 -22 -3 0.37 0.72
22 -5 3 0.93 0.83
-17 -5 -3 0.71 0.7
17 5 -3 0.19 0.69
-22 5 3 1.09 0.75
-5 -17 3 1.53 0.7
17 -22 -3 0.68 0.76
-22 5 -3 0.97 0.67
17 5 3 0.57 0.64
-17 22 -3 0.33 0.71
17 5 3 1.08 0.65
22 -17 3 0.21 0.73
-5 -17 -3 0.08 0.63
22 -5 -3 1.46 0.76
18 -22 3 3.64 0.86
22 -4 3 3.55 0.82
-18 -4 -3 5.63 0.85
4 -22 -3 4.32 0.86
-18 22 3 4.81 0.88
-22 4 3 4.7 0.87
18 4 -3 4.31 0.86
-4 -18 3 3.09 0.75
-4 -18 -3 3.06 0.75
22 -18 3 3.83 0.82
18 4 3 3.03 0.74
-22 4 -3 2.07 0.7
18 -22 -3 2.13 0.76
18 4 3 3.68 0.81
22 -4 -3 3.37 0.85
-18 22 -3 4.81 0.82
-19 22 3 1.51 0.74
19 -22 3 1.05 0.76
22 -3 3 0.72 0.65
3 -22 -3 1.55 0.73
-3 -19 3 0.62 0.6
19 3 -3 1.13 0.68
-22 3 3 2 0.73
-19 -3 -3 1.83 0.68
22 -19 -3 -0.16 0.49
22 -19 3 1.66 0.74
22 -3 -3 1.6 0.71
-3 -19 -3 0.67 0.65
19 3 3 0.37 0.57
-19 22 -3 1.06 0.67
-22 19 3 0.82 0.63
19 -22 -3 2.17 0.8
19 3 3 1.07 0.67
-20 -2 -3 0.06 0.59
-22 2 3 0.51 0.66
20 2 -3 0.15 0.71
-22 20 -3 -1.44 0.67
20 -22 3 0.68 0.76
-2 -20 3 0.31 0.53
22 -2 3 0.88 0.7
22 -2 3 -0.01 0.64
-20 22 3 0.36 0.69
2 -22 -3 0.91 0.69
20 -22 -3 0.09 0.7
20 2 3 -0.15 0.66
-22 20 3 0.45 0.61
-2 -20 -3 0.23 0.47
-20 22 -3 0.22 0.62
22 -2 -3 0.05 0.67
22 -20 3 -0.22 0.69
11 -23 -3 0.36 0.7
23 -11 3 0.49 0.67
-12 -11 -3 0.62 0.61
12 11 -3 0.58 0.58
-11 -12 3 1 0.68
-23 12 -3 0.24 0.68
11 12 3 0.65 0.72
-23 11 3 0.3 0.76
12 -23 -3 0.47 0.73
-23 11 -3 0.84 0.68
23 -12 3 0.48 0.7
-12 -11 3 1.25 0.66
12 11 3 0.78 0.7
-11 -12 -3 0.37 0.62
-23 12 3 0.09 0.7
-13 -10 -3 0.34 0.57
-23 10 3 1.02 0.76
23 -10 3 0.55 0.67
10 -23 -3 1.13 0.72
13 10 -3 0.74 0.64
10 13 3 1.77 0.72
-23 13 -3 0.77 0.73
-10 -13 3 2.01 0.7
13 -23 3 -0.24 0.63
13 -23 -3 1.15 0.76
-13 23 -3 -0.42 0.58
23 -13 3 1.35 0.74
-23 10 -3 1.07 0.62
-10 -13 -3 0.65 0.63
-13 -10 3 0.79 0.66
13 10 3 1.54 0.72
-14 23 3 0.31 0.59
14 9 -3 0.22 0.62
-23 9 3 1.02 0.73
-14 -9 -3 1.3 0.63
9 -23 -3 0.91 0.72
-9 -14 3 1.6 0.67
9 14 3 1.3 0.7
14 -23 3 -0.15 0.55
-23 14 -3 0.95 0.67
23 -9 3 0.94 0.65
-9 -14 -3 0.43 0.62
14 -23 -3 0.45 0.67
14 9 3 0.16 0.69
-23 9 -3 0.86 0.62
14 9 3 0.38 0.53
23 -14 3 1.45 0.76
-14 -9 3 0.26 0.64
-14 23 -3 0.58 0.65
15 -23 3 0.51 0.66
-8 -15 3 0.46 0.66
8 15 3 0.49 0.63
15 8 -3 0.44 0.63
23 -8 3 0.12 0.62
-15 23 3 0.58 0.67
-15 -8 -3 0.47 0.6
-23 8 3 0.12 0.69
8 -23 -3 0.46 0.69
15 -23 -3 0.89 0.69
-8 -15 -3 -0.04 0.55
-8 -15 -3 0.31 0.55
-15 -8 3 0.75 0.63
23 -15 3 1.85 0.77
-23 8 -3 0.68 0.59
15 8 3 1.16 0.67
15 8 3 0.84 0.6
-15 23 -3 0.83 0.69
-16 -7 -3 0.41 0.59
-7 -16 3 0.27 0.6
16 -23 3 0.24 0.71
7 -23 -3 0.19 0.67
7 16 3 0.36 0.61
23 -7 3 -0.09 0.65
-23 7 3 0.24 0.67
-16 23 3 0.05 0.71
16 7 -3 -0.03 0.63
-16 23 -3 -0.17 0.63
23 -7 -3 0.32 0.5
-16 -7 3 -0.52 0.43
16 7 3 0.23 0.57
16 7 3 0.3 0.61
16 -23 -3 0.32 0.69
23 -16 3 -0.05 0.68
-7 -16 -3 -0.16 0.52
-23 7 -3 0.58 0.57
17 -23 3 1.21 0.72
-17 23 3 1.04 0.71
17 6 -3 1.48 0.7
6 -23 -3 1.78 0.73
-6 -17 3 1.63 0.65
23 -6 3 1.02 0.71
6 17 3 1.49 0.59
-17 -6 -3 1.95 0.68
-23 6 3 1.54 0.67
17 6 3 0.94 0.57
-17 23 -3 1.28 0.68
-6 -17 -3 -0.12 0.43
-23 6 -3 0.17 0.57
17 6 3 1.3 0.67
17 -23 -3 1.19 0.68
23 -6 -3 1.35 0.57
23 -17 3 2.19 0.76
23 -5 3 0.1 0.58
18 -23 3 0.42 0.68
-5 -18 3 -0.14 0.58
-18 23 3 0.67 0.7
5 -23 -3 0.68 0.67
-18 -5 -3 0.69 0.63
-23 5 3 0.95 0.68
18 5 -3 1.26 0.69
18 5 3 0.45 0.65
-18 23 -3 0.4 0.61
18 -23 -3 -0.02 0.7
-23 5 -3 0.65 0.62
23 -18 3 1.36 0.77
23 -5 -3 0.92 0.55
18 5 3 0.6 0.61
-19 -4 -3 2.96 0.71
-4 -19 3 2.68 0.72
19 -23 3 3.35 0.77
4 -23 -3 2.36 0.78
19 4 -3 2.39 0.79
-23 4 3 2.91 0.76
-19 23 3 2.98 0.8
19 -23 -3 2.31 0.79
23 -19 3 3.57 0.84
19 4 3 2.31 0.69
-19 23 -3 2.04 0.66
23 -4 -3 2.11 0.57
-12 -12 -3 1.58 0.58
12 12 3 2.3 0.69
12 -24 -3 2.33 0.75
-24 12 -3 1.76 0.69
-24 12 3 0.99 0.64
-12 -12 3 1.74 0.67
24 -12 3 1.84 0.68
11 13 3 0.47 0.63
11 -24 -3 0.59 0.7
24 -11 3 0.64 0.64
-11 -13 3 1.04 0.64
-24 13 -3 1.1 0.68
-24 11 3 0.28 0.73
-13 -11 -3 0.36 0.58
13 11 3 0.92 0.69
13 -24 -3 1.21 0.64
-11 -13 -3 0.07 0.59
-13 -11 3 1.2 0.67
24 -13 3 0.88 0.67
-24 11 -3 0.91 0.63
-10 -14 3 1.48 0.67
-24 14 -3 0.15 0.58
24 -10 3 1.45 0.59
-14 -10 -3 1.34 0.62
10 14 3 1.04 0.63
14 10 -3 0.26 0.42
-24 10 3 1.49 0.7
10 -24 -3 1.37 0.71
14 10 3 0.74 0.67
14 -24 -3 1.4 0.66
-14 -10 3 1.42 0.68
-24 10 -3 1.24 0.63
24 -14 3 1.35 0.7
-10 -14 -3 1.13 0.54
9 15 3 -0.01 0.56
9 -24 -3 0.13 0.69
-15 -9 -3 -0.21 0.58
15 9 -3 -0.16 0.49
-24 9 3 0.25 0.7
24 -9 3 -0.1 0.57
-9 -15 3 0.29 0.6
-24 9 -3 0.12 0.58
-9 -15 -3 -0.25 0.37
15 -24 -3 0.39 0.69
-15 -9 3 -0.4 0.49
24 -15 3 0.6 0.7
15 9 3 0.24 0.69
-15 24 -3 -1 0.43
-16 -8 -3 0.79 0.61
16 8 -3 0.54 0.57
24 -8 3 0.93 0.66
-24 8 3 0.89 0.67
-8 -16 3 1.59 0.67
8 -24 -3 0.61 0.71
-16 24 3 -0.52 0.4
8 16 3 0.51 0.56
-24 8 -3 0.29 0.59
24 -16 3 1.03 0.75
16 -24 -3 -0.12 0.67
16 8 3 0.09 0.63
-16 24 -3 -0.03 0.62
16 8 3 0.21 0.39
-24 7 3 2.05 0.71
17 7 -3 1.8 0.67
-17 24 3 1.06 0.62
17 7 3 2.61 0.79
-24 7 -3 2.97 0.67
-17 24 -3 2.39 0.68
0 0 -4 -0.03 0.21
0 0 -4 -0.09 0.38
-1 0 4 4.66 0.68
0 -1 4 4.5 0.6
-1 1 4 4.62 0.71
0 1 -4 3.76 0.46
0 -1 4 4.1 0.72
0 -1 -4 3.4 0.52
1 0 -4 3.56 0.41
0 -1 -4 4.83 0.89
-1 1 -4 3.89 0.52
-1 0 -4 4.29 0.59
-1 0 -4 4.42 0.6
1 -1 -4 3.6 0.48
-1 -1 -4 0.26 0.46
-1 2 -4 -0.51 0.35
1 -2 4 0.58 0.52
1 -2 -4 0.95 0.76
2 -1 -4 -0.01 0.21
-1 -1 4 0.84 0.58
-2 1 -4 0.1 0.43
-2 1 4 0.23 0.52
-1 -1 -4 0.63 0.46
-2 1 -4 1.13 0.45
-1 -1 -4 0.85 0.66
-1 -1 4 0.72 0.47
2 -2 -4 0.77 0.77
0 -2 -4 0.76 0.46
-2 2 -4 -0.39 0.41
0 2 -4 0.95 0.19
-2 0 -4 0.72 0.43
-2 0 -4 0.15 0.5
2 -2 4 0.28 0.47
-2 2 -4 0.75 0.38
-2 0 -4 -0.04 0.58
0 -2 -4 0.37 0.69
-2 0 4 0.73 0.59
0 -2 4 0.2 0.14
0 -2 -4 0.69 0.65
0 -2 4 0.62 0.41
0 -2 4 0.35 0.53
-2 2 4 0.54 0.56
-1 -2 4 127.06 8.28
-2 -1 -4 120.15 8.36
-2 -1 -4 123.41 8.25
-3 1 4 136.26 8.34
1 -3 -4 117.75 8.41
-2 3 4 129.83 8.24
-2 -1 -4 125.22 8.28
-1 -2 4 128.73 8.35
-3 2 -4 122.51 8.19
-3 2 -4 126.58 8.25
-1 3 -4 127.58 8.18
-3 1 4 116.19 8.14
2 -3 4 130.48 8.31
-3 1 -4 105.84 7.94
-3 1 -4 116.58 7.87
-3 1 -4 124.41 7.9
-2 -1 4 124.81 7.96
-3 2 4 125.46 7.95
-3 2 4 123.58 7.83
-2 3 -4 106.43 7.77
-1 -2 -4 116.93 7.94
-1 -2 -4 119.58 8.05
1 -3 4 122.6 7.97
-2 -1 4 129.06 8
-2 3 -4 122.34 7.86
-1 -2 -4 121.69 7.9
1 -3 4 111.53 7.8
2 -3 -4 129.08 8.09
0 3 -4 10.65 0.83
0 -3 4 12.33 1.04
-3 0 -4 11.09 1.08
-3 0 -4 11.23 1.3
-3 0 -4 11.81 1.08
0 -3 -4 12.16 1.37
-3 3 -4 9.57 0.82
0 -3 -4 11.92 1.19
-3 0 4 12.63 1.21
-3 0 4 12.32 1.26
-3 3 4 11.64 1.2
-3 3 -4 11.64 1.07
3 -3 4 11.21 1.12
-3 3 4 11.52 1
3 -3 -4 12.39 1.46
0 -3 4 11.97 1.21
-2 -2 4 116.56 7.64
2 -4 4 118.45 7.64
-4 2 4 114.52 7.49
-2 4 -4 109.3 7.52
-2 4 4 117.37 7.57
-2 -2 4 119.45 7.68
-2 -2 -4 112.77 7.58
-2 -2 -4 106.68 7.6
-2 -2 -4 118.21 7.75
-4 2 -4 103.99 7.5
-4 2 -4 115.66 7.58
2 -4 -4 118.39 7.77
-4 2 4 117.86 7.65
-1 -3 4 9.34 1.13
-4 1 4 9.7 1.11
-1 -3 4 7.13 0.59
3 -4 4 9.33 1.1
-3 -1 -4 7.96 0.97
4 -3 -4 10.24 1.41
-1 4 -4 8.99 0.78
-1 -3 4 9.72 1.08
-4 1 4 9.37 0.75
-3 4 4 9.28 0.9
-3 -1 -4 10.72 1.24
1 -4 -4 8.03 1.33
-4 3 -4 6.94 0.7
-3 -1 -4 9.43 1
-4 3 -4 9.86 0.96
1 -4 -4 8.55 1.16
-1 -3 -4 15.47 1.36
1 -4 4 14.95 1.21
-4 3 4 16.71 1.49
-3 4 -4 17.25 1.37
-4 1 -4 15 1.35
-4 1 -4 17.11 1.52
-4 1 -4 16.49 1.38
-4 3 4 16.66 1.3
-1 -3 -4 16.09 1.8
-3 -1 4 17.65 1.52
-1 -3 -4 15.8 1.46
1 -4 4 17.5 1.52
-3 -1 4 15.71 1.52
3 -4 -4 16.16 1.69
0 -4 4 41.44 2.98
-4 0 4 43.05 2.96
4 -4 4 35.93 2.82
-4 4 4 41.31 2.84
-4 4 -4 40.21 2.84
0 4 -4 35.88 2.68
0 -4 -4 40.56 3.15
-4 0 4 35.25 2.65
-4 4 4 42.18 2.94
-4 0 -4 41.9 2.88
-4 0 -4 40.19 2.86
0 -4 4 43.08 2.86
-4 0 -4 39.87 2.95
4 -4 -4 42.25 3.12
-4 0 4 41.77 2.99
0 -4 -4 40.97 2.97
-2 -3 4 122.79 7.68
-5 2 4 117.64 7.52
-5 3 -4 112.63 7.61
-2 5 -4 108.66 7.51
-5 2 4 118.25 7.69
5 -3 -4 121.86 7.8
-2 -3 4 111.42 7.67
-3 -2 -4 110.64 7.76
3 -5 4 112.05 7.64
-3 -2 -4 109.84 7.63
-3 -2 -4 112.71 7.6
-3 5 4 111.33 7.58
2 -5 -4 115.46 7.81
-2 -3 -4 118.68 8.26
-5 3 4 116.12 8.15
-5 2 -4 130.62 8.24
-5 2 -4 109.47 8.12
-2 -3 -4 123.95 8.43
-3 -2 4 134.85 8.32
-5 2 -4 120.13 8.2
-5 3 4 130.28 8.3
-3 -2 4 132.08 8.32
2 -5 4 123.56 8.3
3 -5 -4 122.34 8.42
-3 5 -4 123.41 8.16
-2 -3 -4 121.38 8.22
-2 5 4 128.82 8.22
4 -5 4 3.92 0.76
-1 5 -4 3.68 0.58
-1 -4 4 3.99 0.86
-4 -1 -4 3.61 0.92
-4 -1 -4 4.05 0.83
1 -5 -4 5.76 1.03
-1 -4 4 4.67 0.91
1 -5 -4 5.97 1.09
-4 -1 -4 5.37 0.86
5 -4 -4 4.38 1.06
-5 1 4 4.22 0.98
-4 5 4 4.83 0.89
-5 1 4 2.71 0.85
-5 4 -4 4.57 0.83
-5 1 4 5.01 0.7
-5 4 4 8.16 1.09
-4 -1 4 5.84 1.1
1 -5 4 9.13 1.2
1 4 -4 6.43 0.94
-5 1 -4 8.58 1.03
-1 -4 -4 7.84 1.34
5 -4 4 6.79 0.89
-4 -1 4 9.45 1.21
-5 1 -4 7.35 0.95
-5 4 4 8.5 1
-1 -4 -4 7.98 1.04
-1 -4 -4 7.57 1.13
-4 5 -4 6.88 1.1
-4 5 -4 8.89 1.01
4 -5 -4 8.32 1.24
-4 -1 4 8.07 1.14
1 -5 4 7.62 0.86
-5 1 -4 7.34 1.06
-5 5 4 25.85 1.99
0 -5 -4 23.73 2.4
-5 0 4 24.52 2.01
0 5 -4 23.45 1.86
-5 0 4 20.67 2.03
0 -5 4 24.89 2.05
5 -5 4 20.24 1.83
-5 5 -4 23.95 2
0 -5 -4 23.93 2.02
-5 5 -4 24.98 1.92
-5 0 -4 25.74 1.96
-5 0 -4 21.09 1.99
0 -5 4 26.55 1.93
-5 5 4 22.66 2.08
-5 0 4 25.41 2.1
0 5 -4 21.54 1.68
-5 5 4 26.65 1.89
-5 0 -4 22.44 1.9
5 -5 -4 24.96 2.21
3 -6 4 3.19 0.84
-6 3 4 3.13 0.9
-3 6 4 3.19 0.77
-6 3 -4 2.08 0.56
-3 6 -4 3.08 0.7
6 -3 -4 3.18 0.98
-3 6 4 2.87 0.79
-3 -3 -4 3.18 0.86
-6 3 4 3.13 0.71
-3 6 -4 2.45 0.65
3 3 -4 2.64 0.66
-3 -3 4 3.81 0.94
-3 -3 4 2.75 0.8
-6 3 -4 2.17 0.53
3 -6 -4 3.96 1.17
-3 -3 -4 2.74 1.1
-3 -3 -4 2.93 0.78
-6 3 -4 3.23 0.71
-3 -3 4 2.1 0.73
-4 -2 -4 5.35 0.95
-2 6 -4 4.26 0.71
-6 2 4 4.31 1.12
-4 -2 -4 4.29 0.89
6 -4 -4 5.17 1.1
2 -6 -4 4.68 1.07
-4 6 4 2.84 0.86
-4 6 4 5.24 0.89
-2 -4 4 5.1 0.93
-6 2 4 3.63 0.7
-6 4 -4 5.93 0.97
4 2 -4 3.17 0.63
-2 -4 4 4.85 1.04
2 -6 -4 4.58 1.24
-4 -2 -4 3.69 1.04
-6 2 4 6.02 1.08
4 -6 4 5.19 0.94
-6 4 4 0.66 0.76
2 -6 4 0.7 0.75
-2 -4 -4 1.99 1.06
-2 -4 -4 1.51 0.83
2 4 -4 0.87 0.58
-6 2 -4 1.16 0.56
-4 6 -4 0.9 0.64
-6 4 4 1.35 0.67
-6 2 -4 0.43 0.44
-4 -2 4 0.11 0.39
-2 -4 -4 0.69 0.68
-6 2 -4 1.5 0.76
4 -6 -4 1.41 0.93
-2 6 4 1.31 0.76
-2 6 4 1.46 0.7
-4 -2 4 0.34 0.83
-4 -2 4 1.09 0.76
-6 4 4 0.59 0.77
-4 -2 4 0.37 0.75
-4 6 -4 0.48 0.6
-1 6 -4 14.52 1.41
-5 6 4 16.35 1.73
1 -6 -4 16.12 1.63
-5 6 4 17.95 1.5
-6 5 -4 17.12 1.52
-6 1 4 12.32 1.24
1 -6 -4 15.53 2.07
-1 6 -4 14.07 1.25
-6 1 4 16.39 1.67
-1 -5 4 16.26 1.63
-1 -5 4 14.64 1.51
-6 5 -4 14.46 1.5
-5 -1 -4 16.6 1.5
6 -5 -4 17.49 1.78
5 -6 4 13.71 1.45
-6 1 4 15.2 1.82
-5 -1 -4 10.92 1.53
-5 -1 -4 16.41 1.52
-6 1 -4 20.1 1.8
-6 1 -4 20.45 1.69
-5 -1 4 22.43 1.89
5 -6 -4 23.99 2.16
-1 -5 -4 21.13 1.73
-6 5 4 22.4 1.83
-6 5 4 20.73 2.08
-1 -5 -4 20.14 1.89
1 5 -4 21.27 1.76
-1 -5 -4 17.83 2.32
-6 5 4 21.17 1.86
-1 6 4 18.69 1.91
-5 6 -4 21.22 1.74
-5 6 -4 23.1 1.88
-5 -1 4 22.08 1.98
-5 -1 4 19.3 1.94
-6 1 -4 19.21 2.01
1 -6 4 22.49 1.99
6 -6 -4 43.79 3.41
-6 0 -4 40.49 3.13
0 6 4 42.58 3.29
0 6 -4 42.61 3.14
-6 6 -4 41.63 3.16
-6 0 4 43.76 3.2
-6 6 4 45.1 3.2
0 -6 -4 43.41 3.27
0 -6 4 41.46 3.28
-6 0 -4 43.18 3.12
-6 6 -4 46 3.25
-6 6 4 42.41 3.19
-6 6 4 42.39 3.39
0 -6 -4 39.89 3.63
-6 0 4 40.9 3.28
-6 0 4 42.98 3.29
-4 -3 -4 17.2 1.65
-4 7 4 17.4 1.68
-4 7 4 18.12 1.63
-3 7 -4 17.01 1.5
-7 3 4 13.43 1.45
7 -4 -4 19.67 2.04
-7 4 -4 16.25 1.82
-3 -4 4 16.28 1.74
-7 3 4 16.65 2.01
4 3 -4 15.61 1.48
-3 7 -4 16.82 1.59
-7 4 -4 18.11 1.55
-3 -4 4 12.51 1.62
-4 -3 -4 16.61 1.67
-3 -4 4 17.38 1.71
-7 3 4 17.61 1.73
-4 7 4 16.69 1.93
3 -7 -4 20.02 1.86
3 -7 -4 18.9 2.18
-4 -3 -4 15.28 1.84
4 -7 4 17.73 1.87
7 -3 -4 22 2.1
-3 7 4 23.59 1.85
-7 4 4 18.25 1.76
-7 3 -4 20.11 1.63
-4 -3 4 20.83 1.97
3 -7 4 21.93 2.04
-3 -4 -4 22.19 2.38
-7 4 4 18.87 1.91
-7 3 -4 20.55 2.04
-3 -4 -4 22.73 1.87
-7 4 4 22.24 1.92
-4 7 -4 22.26 1.75
-4 -3 4 21.5 1.96
-3 7 4 22.33 1.95
3 4 -4 20.43 1.76
-3 -4 -4 19.37 1.89
4 -7 -4 20.48 2.35
-4 7 -4 22.79 1.88
-7 4 4 16.46 1.99
-4 -3 4 19 1.97
-7 3 -4 23.1 1.92
5 -7 4 19.92 1.92
-7 5 -4 20.72 1.91
2 -7 -4 21.96 2.46
5 2 -4 18.72 1.69
-5 -2 -4 20.29 1.83
7 -5 -4 21.95 2.06
-2 7 -4 18.99 1.71
-5 7 4 22.85 1.86
-2 7 -4 18.96 1.61
-5 -2 -4 18.09 1.94
2 -7 -4 23.02 2.06
-7 2 4 22.22 1.85
-5 7 4 19.85 2.05
-7 2 4 19.42 2.05
-7 5 -4 21.8 1.87
-5 -2 -4 23.05 1.9
-2 -5 4 19.33 1.94
-2 7 -4 17.03 1.7
-2 -5 4 18.17 1.89
-5 -2 4 27.92 2.49
-7 2 -4 29.14 2.29
-5 7 -4 32.75 2.48
-7 5 4 31.11 2.46
-2 -5 -4 32.29 2.36
-5 -2 4 30.26 2.55
-2 -5 -4 28.99 2.46
-7 5 4 26.49 2.31
-7 5 4 27.21 2.52
-2 7 4 30.16 2.5
-7 2 -4 32.02 2.46
-2 -5 -4 29.32 2.87
2 5 -4 31.83 2.35
2 -7 4 30.11 2.61
-5 7 -4 33.86 2.41
5 -7 -4 31.6 2.85
-7 2 -4 28.73 2.64
-5 -2 4 32.3 2.52
-1 -6 4 14.2 1.7
-6 -1 -4 18.2 1.6
-1 -6 4 18.96 1.9
-7 1 4 19.9 1.94
1 -7 -4 18.61 2.43
-1 7 -4 18.74 1.68
-6 -1 -4 18.18 1.76
-6 7 4 17.69 1.73
-6 7 4 15.44 2.08
7 -6 -4 19.73 2.04
-7 6 -4 20.14 1.92
-7 6 -4 17.54 1.76
1 6 4 17.44 1.92
1 -7 -4 19.88 1.93
-7 1 4 17.67 2.07
-6 -1 4 18.98 1.94
-1 -6 -4 18.54 1.88
-6 7 -4 18.42 1.67
-1 -6 -4 16.72 2.57
-1 -6 -4 17.37 1.79
-6 -1 4 17.79 1.8
1 6 -4 19.02 1.71
-7 6 4 16.99 1.78
1 -7 4 19.03 1.98
6 -7 -4 20.43 2.19
-7 1 -4 17.74 2.03
-6 -1 4 18.02 1.9
-7 1 -4 17.66 1.75
-7 1 -4 20.25 1.67
-1 7 4 18.52 1.88
-6 7 -4 19.88 1.86
-7 6 4 17.93 1.96
-7 6 4 19 1.82
7 -7 -4 69.21 5.19
-7 0 -4 69.62 4.9
-7 7 4 66.05 4.91
-7 7 -4 71.08 4.98
-7 0 4 72.04 4.93
0 7 -4 71.75 4.87
-7 7 4 67.04 5.11
-7 0 -4 67.53 4.88
-7 0 4 73.58 5.05
-7 7 -4 68.83 4.87
-7 0 -4 68.37 5.02
0 -7 -4 73.81 5.03
-7 0 4 70.32 5.09
-7 7 4 72.8 4.92
0 -7 4 65.87 5.04
0 7 4 68.4 4.95
0 -7 -4 67.81 5.38
-4 8 -4 54.48 3.86
-8 4 4 50.24 3.98
4 -8 4 52.88 3.99
-4 -4 4 52.84 3.93
-4 -4 4 49.58 3.86
-4 -4 -4 47.59 3.82
-4 -4 4 56.15 3.92
-8 4 4 51.68 3.89
-8 4 4 55.1 3.88
4 -8 -4 47.35 4.24
-4 8 4 53.76 3.8
-4 8 4 53.06 3.83
-4 -4 -4 50 3.98
-4 8 4 51.22 3.95
4 -8 -4 53.92 3.9
-4 -4 -4 55.25 3.83
4 4 -4 50.2 3.68
8 -4 -4 50.72 3.93
-8 4 -4 49.13 3.9
-4 8 -4 52.34 3.69
-8 4 -4 53.95 3.78
-3 8 -4 4.18 0.85
-8 3 4 5.96 1.21
-8 3 4 4.1 1.24
-5 8 4 5.35 1.1
-8 5 -4 5.29 1.14
-8 5 -4 2.87 0.85
-5 8 4 3.51 1.1
-8 5 -4 5.62 1.27
5 -8 4 3.14 1.09
3 -8 -4 4.88 1.55
-5 8 4 4.53 0.96
-3 -5 4 2.84 0.88
-3 -5 4 4.55 1.05
-5 -3 -4 2.76 1.02
3 -8 -4 4.9 1.28
-3 -5 4 3.93 1.03
-5 -3 -4 5.9 1.11
5 3 -4 3.88 0.78
-3 8 -4 3.96 0.79
-3 8 -4 5.39 1
-5 -3 -4 4.76 1.12
8 -5 -4 4.42 1.13
-5 8 -4 4.42 1.01
8 -3 -4 2.55 1.02
-5 8 -4 4.78 1.03
-5 -3 4 4.18 1.14
-8 3 -4 5.3 1.25
-8 5 4 2.36 1.2
3 5 -4 3.93 0.84
-3 -5 -4 3.31 1.03
-3 8 4 4.63 1
-5 -3 4 4.26 1.17
-5 -3 4 4.03 1.1
-3 8 4 3.98 0.98
-8 3 -4 4.59 1.11
3 -8 4 3.61 1.11
5 -8 -4 3.43 1.44
-8 5 4 3.56 0.98
-3 -5 -4 4.24 1.32
-3 -5 -4 4.5 1.07
-8 5 4 4.31 1.03
-8 5 4 3.29 0.96
-6 -2 -4 10.75 1.39
-6 8 4 8.45 1.41
-2 -6 4 5.85 1.25
2 -8 -4 8.9 1.54
2 6 4 7.84 1.28
-6 8 4 11.03 1.44
2 -8 -4 9.15 1.81
-8 6 -4 11.09 1.48
-8 6 -4 9.47 1.41
-6 -2 -4 11.59 1.47
-2 8 -4 9.76 1.43
-2 8 -4 7.98 1.32
-8 2 4 8.6 1.62
-2 -6 4 9.18 1.5
6 2 -4 7.83 1.09
8 -6 -4 10.37 1.61
-8 6 -4 9.67 1.57
-8 2 4 10.62 1.54
-6 -2 4 8.94 1.46
-6 8 -4 9.3 1.49
-2 -6 -4 6.56 1.63
6 -8 -4 7.52 1.61
-8 2 -4 8.98 1.33
-6 8 -4 9.79 1.35
2 -8 4 6.39 1.34
-8 2 -4 7.95 1.07
-8 6 4 8.18 1.34
-2 -6 -4 9.37 1.36
2 6 -4 10.21 1.38
-8 6 4 6.2 1.09
-8 2 -4 8.2 1.47
-2 8 4 10.61 1.37
-2 -6 -4 10.17 1.41
-6 -2 4 7.64 1.25
-8 6 4 8.59 1.31
-6 -2 4 10.17 1.59
-8 7 -4 14.2 1.87
-7 -1 -4 17.2 1.67
-8 1 4 14.24 1.88
1 -8 -4 16.05 1.92
-7 8 4 12.77 1.92
-7 -1 -4 15.85 1.69
-1 -7 4 14.4 1.86
-8 1 4 16.26 2.05
1 -8 -4 16.82 2.48
-1 8 -4 16.88 1.74
-8 7 -4 17.34 1.7
-7 8 4 17.9 1.81
8 -7 -4 17.41 2.18
1 7 4 13.29 1.77
-8 7 -4 13.41 1.79
-7 -1 4 14.15 1.74
-1 8 4 13.74 1.81
-7 -1 4 12.4 1.66
-8 7 4 10.95 1.46
-8 1 -4 13.06 1.52
-7 -1 4 12.35 1.67
-1 -7 -4 14.8 1.64
-8 1 -4 13.32 1.67
1 -8 4 11.97 1.81
-1 -7 -4 10.37 1.96
-8 1 -4 12.63 1.55
-7 8 -4 13.83 1.87
1 7 -4 13.96 1.46
-8 7 4 11.49 1.54
-7 8 -4 13.08 1.42
-1 -7 -4 13.15 1.65
-8 7 4 9.81 1.72
7 -8 -4 10.9 1.84
-8 8 4 11.43 1.48
-8 0 -4 12.51 1.61
-8 8 -4 14.22 1.94
0 -8 -4 10.8 2.02
-8 0 4 8.47 1.58
0 8 -4 11.57 1.46
8 -8 -4 9.65 1.78
-8 8 -4 12.17 1.72
0 -8 -4 13.37 1.76
-8 0 -4 12.93 1.74
-8 0 4 11.09 1.85
-8 8 4 10.33 1.46
-8 8 4 10.01 1.73
-8 8 -4 11.58 1.42
0 -8 4 10.77 1.78
-8 0 -4 11.94 1.49
0 8 4 11.55 1.67
5 -9 4 60.63 5.01
4 -9 -4 75.6 5.06
-4 9 -4 70.91 4.84
-9 5 -4 75.28 4.93
4 -9 -4 62.34 5.3
-5 9 4 66.75 4.79
-9 5 -4 69.81 4.97
-9 4 4 62.11 4.81
-9 4 4 68.14 4.91
-5 9 4 74.17 5.14
-5 -4 -4 71.53 4.79
-4 -5 4 61.56 4.77
-4 -5 4 67.45 4.91
-9 4 4 66.84 5.01
-4 9 -4 65.2 4.75
-4 -5 4 59.81 4.81
5 4 -4 69.07 4.72
-5 -4 -4 68.57 4.88
-5 9 4 66.37 4.83
-4 9 4 64.69 4.57
-4 -5 -4 58.62 4.78
-4 -5 -4 61.61 4.56
4 5 -4 67.12 4.45
4 -9 4 57.07 4.69
-9 5 4 62.64 4.62
-4 9 4 62.63 4.46
-5 -4 4 64.65 4.61
-5 -4 4 62.52 4.54
-9 5 4 58.3 4.74
-5 9 -4 68.62 4.64
-5 9 -4 54.01 4.41
-9 4 -4 61.81 4.56
-5 -4 4 62.2 4.63
-4 9 4 67.14 4.79
-4 -5 -4 65.87 4.56
5 -9 -4 62.4 5.04
5 -9 -4 64.37 4.71
-9 5 4 63.28 4.51
-9 4 -4 60.56 4.58
3 6 4 15.1 1.73
-3 9 -4 17.54 1.73
-6 9 4 16.39 1.73
6 3 -4 15.32 1.57
-6 -3 -4 15.99 1.85
-9 3 4 15.52 1.92
-9 6 -4 15.88 2.03
-6 9 4 17.41 2.27
3 -9 -4 16.57 2.54
-3 9 -4 17.68 1.91
-6 9 4 18.73 1.86
-6 -3 -4 18.18 1.82
-9 6 -4 18.54 1.92
3 -9 -4 18.13 2.06
-3 -6 4 16.97 1.94
-9 6 -4 14.74 1.8
-9 3 4 15.25 2.03
-6 9 -4 23.59 2.14
-6 -3 4 25.63 2.28
-9 6 4 22.88 2.29
-9 6 4 23.43 2.46
-9 6 4 23.35 2.19
-6 -3 4 23 2.35
-3 9 4 25.65 2.34
3 -9 4 20.77 2.41
-6 9 -4 26.51 2.32
3 6 -4 25.17 2.08
-3 -6 -4 21.96 2.58
-9 3 -4 23.11 2.37
-3 -6 -4 28.09 2.28
-3 9 4 24.9 2.2
6 -9 -4 23.18 2.82
-3 -6 -4 24.46 2.25
-9 3 -4 23.66 2.08
-6 -3 4 23.69 2.43
-9 7 -4 14.48 1.9
2 -9 -4 14.08 1.93
-7 -2 -4 13.2 1.65
2 -9 -4 12.62 2.14
7 2 -4 10.86 1.38
-2 9 -4 10.27 1.54
-9 7 -4 11.35 1.71
-9 2 4 14.46 1.79
-7 9 4 14.05 1.63
-7 -2 -4 13.62 1.61
-7 9 4 11.52 1.9
-9 7 -4 13.89 1.73
-2 9 -4 14.98 1.71
2 7 4 12.73 1.72
-2 -7 4 14.31 1.83
-9 2 4 14.9 2.05
-9 2 -4 15.3 1.83
-2 -7 -4 15.97 1.83
-9 2 -4 17.86 1.82
-7 -2 4 14.67 1.69
-7 9 -4 14.75 1.69
-9 7 4 12.24 1.85
-2 -7 -4 17.37 1.83
2 7 -4 17.98 1.67
-7 -2 4 16.2 1.89
7 -9 -4 15.74 2.35
-7 -2 4 14.84 1.96
-7 9 -4 17.57 2.07
-9 7 4 16.52 1.75
-2 9 4 17.16 1.85
2 -9 4 13.29 2.02
-2 -7 -4 14.68 2.27
-9 8 -4 4.31 1.08
1 8 4 2.99 1.09
1 -9 -4 2.35 1.62
-9 1 4 5.71 1.35
-8 -1 -4 2.15 1.13
-1 -8 4 4.27 1.25
-8 -1 -4 4.04 1.12
-1 9 -4 5.53 1.09
-9 8 -4 4.49 1.1
-8 9 4 4.6 1.23
1 -9 -4 5.58 1.46
-8 -1 -4 3.84 1.14
-9 1 4 4.77 1.15
-9 8 -4 4.99 1.26
-9 1 -4 7.92 1.33
-9 1 -4 9.76 1.5
-9 8 4 6.11 1.28
-1 -8 -4 7.76 1.39
-1 -8 -4 7.33 1.41
-8 9 -4 8.14 1.31
-1 -8 -4 5.56 1.67
1 -9 4 5.03 1.34
-8 9 -4 8.52 1.57
1 8 -4 8.66 1.34
-1 9 4 8.84 1.37
-8 -1 4 6.61 1.41
-8 -1 4 6.52 1.34
-9 8 4 7.23 1.26
-8 9 -4 4.01 1.04
-9 9 -4 8.29 1.36
-9 0 4 6.97 1.44
-9 0 -4 10.88 1.7
-9 0 -4 6.76 1.3
0 -9 4 5.51 1.37
0 -9 -4 4.23 1.7
-9 0 4 10.87 1.65
0 -9 -4 6.38 1.45
-9 9 -4 11.55 1.86
0 9 4 10.99 1.61
-5 10 -4 53.3 3.97
-5 -5 -4 51.88 3.88
5 -10 -4 47.96 4.37
-5 -5 4 52.91 3.9
-5 -5 -4 46.89 3.85
-5 10 -4 42.23 3.69
-10 5 -4 52.1 3.88
-5 10 4 54.64 4.11
5 -10 -4 53.25 4.02
-5 -5 4 47.97 3.87
-10 5 4 54.53 3.9
-10 5 -4 51.36 3.89
-10 5 4 49.58 3.87
-10 5 4 53.65 4.04
5 5 -4 54.72 3.73
-5 10 4 46.85 3.74
-5 10 4 43.21 3.76
-6 -4 -4 17.33 1.9
-4 10 -4 17 1.81
-10 6 -4 17.14 1.88
-4 -6 4 15.55 1.89
4 -10 -4 15.77 2.05
4 -10 -4 16.58 2.57
-6 -4 -4 15.23 1.82
-10 6 -4 12.81 1.79
-4 10 -4 17.49 2.02
-6 10 4 17.4 1.9
-6 10 4 17.18 2.36
-6 10 4 12.77 1.75
-10 4 4 17.21 2.25
-10 6 -4 16.9 1.94
-10 4 4 17.44 1.91
6 4 -4 16.53 1.64
-10 4 -4 12.56 1.46
-10 6 4 10.25 1.81
-4 10 4 11.52 1.53
-10 6 4 11.84 1.84
-6 -4 4 11.93 1.64
-4 10 4 9.71 1.76
-4 10 4 11.15 1.57
-4 -6 -4 12.8 1.66
-10 4 -4 11.97 1.76
6 -10 -4 8.66 1.55
-6 10 -4 11.94 1.74
4 6 -4 13.88 1.48
-4 -6 -4 14.3 1.71
-10 6 4 12.16 1.63
-10 7 -4 8.42 1.5
-7 10 4 6.15 1.07
-10 7 -4 6.16 1.21
-3 -7 4 4.9 1.25
3 -10 -4 4.27 1.88
-10 7 -4 6.43 1.37
-3 10 -4 7.15 1.17
3 7 4 5.65 1.19
-10 3 4 8.46 1.59
7 3 -4 4.65 0.9
-7 -3 -4 8.34 1.39
3 -10 -4 6.04 1.47
-7 10 4 7.13 1.52
-7 -3 -4 3.09 1.16
-10 3 4 6.82 1.47
-3 10 -4 7.01 1.23
-3 -7 -4 4.03 1.26
-10 3 -4 4.56 1.05
-3 -7 -4 4.06 1.25
3 7 -4 6.44 1.03
-3 10 4 6.37 1.17
-7 10 -4 6.65 1.29
-10 7 4 4.61 1.22
-7 -3 4 7.46 1.43
-10 7 4 3.99 1.11
-10 7 4 4.53 1.36
-10 3 -4 5.91 1.24
8 2 -4 2.57 0.72
-10 8 -4 0.18 0.95
-8 -2 -4 4.53 1.14
-2 10 -4 2 0.82
2 -10 -4 1.03 1.5
-8 -2 -4 -0.15 1.15
-2 -8 4 2.25 1.07
-10 8 -4 3.91 1.05
2 -10 -4 0.85 1.22
-10 2 4 4.45 1.33
-10 8 4 7.36 1.36
2 8 -4 11.24 1.61
-8 10 -4 10.56 1.7
-8 -2 4 10.87 1.62
-8 10 -4 9.19 1.49
-2 -8 -4 6.97 1.38
-2 -8 -4 6.81 1.42
-10 2 -4 9.16 1.7
-10 2 -4 5.24 1.29
-2 10 4 11.57 1.76
-10 1 4 7.25 1.49
1 -10 -4 -0.38 1.81
-9 10 4 6.05 1.34
-1 10 -4 5.88 1.22
-10 9 -4 4.64 1.23
-9 -1 -4 5.26 1.3
1 9 4 6.9 1.39
-10 9 -4 4.75 1.45
-9 -1 4 3.66 1.23
-10 1 -4 0.17 1.07
-1 -9 -4 -0.12 1.19
-9 10 -4 3.48 1.18
-1 10 4 4.65 1.13
-1 -9 -4 0.03 1.16
-9 10 -4 3.16 1.09
-10 9 4 3.96 1.26
-10 1 -4 3.67 1.25
1 9 -4 4.37 1.04
0 10 -4 0.98 0.93
0 10 4 1.11 0.99
-10 0 -4 0.85 1.15
-10 10 -4 0.49 0.95
-10 10 4 0.51 1.12
-10 10 -4 0.55 1.11
-10 0 4 0.57 1.25
-6 -5 -4 0.07 0.86
-11 6 -4 4.96 1.22
-11 5 4 3.06 0.99
-5 11 -4 2.36 1.02
-5 -6 4 4.02 1.13
-6 11 4 2.96 1.28
-11 5 4 4.07 1.37
-5 11 -4 3.27 1.12
-6 11 4 3.15 1.03
6 5 -4 3.14 0.87
-11 5 4 0.04 1.23
-6 11 -4 3.13 1.14
5 6 -4 3.2 0.88
-5 11 4 4.26 1.08
-5 -6 -4 -0.17 1.14
-11 6 4 3.4 1.05
-5 -6 -4 -0.06 1.11
-11 6 4 3.6 1.4
-11 5 -4 5.43 1.26
-5 11 4 1.45 1.25
-6 -5 4 3.39 1.2
-4 11 -4 19.91 2.08
7 4 -4 16.41 1.79
-11 4 4 22.43 2.36
-11 7 -4 22.41 2.17
4 7 4 15.84 2.15
-4 11 -4 17.51 2.17
-7 11 4 21.56 2.41
-7 11 4 22.22 2.09
-11 7 -4 18.61 1.99
-11 4 -4 19.35 2.14
-4 11 4 18.86 1.97
-4 11 4 16.26 2.13
-11 7 4 19.81 2.25
-7 11 -4 15.03 2.15
-7 -4 4 17.96 2.02
-11 7 4 14.32 2.04
4 7 -4 20.66 1.99
8 3 -4 3.87 0.94
3 8 4 6.07 1.38
-3 11 -4 5.54 1.18
-11 3 4 8.09 1.61
-11 8 -4 5.78 1.24
-8 11 4 7.73 1.56
-11 8 -4 8.28 1.45
-3 11 4 6.47 1.21
-11 8 4 3.48 1.2
-11 3 -4 7.01 1.46
-11 8 4 3.92 1.16
-8 11 -4 5.9 1.33
-8 -3 4 4.14 1.25
3 8 -4 6.56 1.22
-2 11 -4 8.76 1.42
-11 9 -4 7.18 1.35
-11 2 4 11.46 1.87
2 9 4 7.8 1.59
-9 11 4 11.02 1.75
-11 9 -4 9.81 1.67
-9 11 -4 5.36 1.27
-2 11 4 7.87 1.34
2 9 -4 8.93 1.39
-11 2 -4 7.85 1.52
-9 -2 4 8.07 1.61
-9 11 -4 7.08 1.44
-11 10 -4 2.06 1.28
-1 11 -4 1.77 1.02
-10 -1 -4 1.83 1.2
-10 11 4 1.38 1.09
-11 10 -4 2.65 1.08
1 10 4 2.37 1.13
-11 1 4 2.75 1.31
-1 11 4 3.52 1.11
-11 1 -4 3.43 1.33
-11 10 4 3.11 1.18
-10 -1 4 2.45 1.22
-10 11 -4 3.42 1.14
1 10 -4 3.66 1.1
-10 11 -4 3.01 1.26
-11 11 4 12.13 2.01
-11 0 4 13.54 2.03
0 11 4 12.98 2.1
-11 0 -4 13.17 2.02
-11 11 -4 15.33 2.17
0 11 -4 13.29 2.06
-11 11 -4 9.77 1.88
6 6 -4 0.47 0.84
-12 6 4 0.64 0.97
-6 -6 4 0.52 1.05
-6 12 -4 1.06 1.01
-6 12 4 -0.68 1.09
-12 6 4 0.47 1.19
-6 12 -4 -0.06 0.98
-6 12 4 0.51 0.94
-12 6 -4 0.58 1.01
7 5 -4 8.74 1.23
-5 12 -4 5.97 1.23
-12 7 -4 6.22 1.13
-7 12 4 9.47 1.5
-12 7 4 10.87 1.76
-12 7 4 12.28 1.96
5 7 -4 11.34 1.58
-5 12 4 7.3 1.59
-7 -5 4 10.26 1.85
-5 12 4 9.69 1.58
-12 5 -4 11.46 1.7
-7 12 -4 9.71 1.73
8 4 -4 3.61 0.89
-4 12 -4 3.37 0.98
-4 12 -4 5.75 1.23
-8 12 4 6.92 1.46
-8 12 4 6.11 1.14
4 8 4 5.46 1.36
-12 8 -4 4.85 1.16
-4 12 4 14.42 1.73
-12 4 -4 11.95 1.9
-12 8 4 9.58 1.76
-8 -4 4 11.65 2.02
-12 8 4 8.59 1.59
-8 12 -4 11.73 1.71
4 8 -4 13.53 1.64
-3 12 -4 -0.32 0.95
-12 9 -4 0.64 1.14
3 9 4 1.01 1.09
-12 3 4 -0.09 1.19
9 3 -4 -0.53 0.65
-3 12 -4 1.08 0.82
-9 12 4 1.05 1.16
-12 9 -4 0.12 0.92
-12 9 4 0.65 1.03
-9 -3 4 1.1 1.15
-12 3 -4 1.37 1.09
-12 9 4 -0.39 1.09
-9 12 -4 0.43 0.96
3 9 -4 0.84 0.94
-3 12 4 1.3 0.98
-2 12 -4 4.41 1.23
2 10 4 4.86 1.37
-12 10 -4 7.2 1.59
-12 10 -4 6.13 1.41
-10 12 4 5.48 1.38
-12 2 4 8.78 1.82
2 10 -4 3.64 1.1
-12 2 -4 2.99 1.35
-10 -2 4 1.93 1.3
-12 10 4 3.14 1.28
-10 12 -4 2.77 1.15
-2 12 4 4.04 1.22
-12 11 -4 25.7 2.73
-11 -1 -4 23.12 2.52
1 11 4 27.62 2.81
-12 11 -4 21.22 2.55
-1 12 -4 22.84 2.48
-11 12 4 24.65 2.78
-12 1 4 27.41 2.87
-1 12 4 27.15 2.72
-11 12 -4 28.78 2.83
-12 1 -4 26.02 2.71
-11 -1 4 26.53 2.74
1 11 -4 26.62 2.6
-11 12 -4 21.11 2.62
-12 11 4 27.83 2.9
0 12 4 2.69 1.3
-12 12 -4 1.59 1.1
-12 12 -4 1.3 1.23
0 12 -4 1.15 1.2
-12 12 4 2.13 1.18
-12 0 -4 0.82 1.28
-12 0 4 2.31 1.42
-7 13 4 1.73 1.32
-13 6 4 3.46 1.48
-13 7 -4 3.23 1.2
-13 6 4 0.14 0.78
-7 13 4 2.01 0.99
7 6 -4 1.55 1.03
-6 13 -4 1.96 1.03
-6 13 -4 1.81 1.14
-7 -6 4 0.22 1.18
-6 13 4 0.48 0.91
-7 13 -4 0.1 1.06
-6 13 4 -0.58 1.23
-13 6 -4 0.98 1.15
-13 7 4 0.97 1.07
6 7 -4 0.96 1.02
-13 7 4 1.4 1.42
-7 13 -4 0.01 0.79
5 8 4 3.81 1.28
-5 13 -4 5.94 1.26
-5 13 -4 5.02 1.23
-8 13 4 7.22 1.29
-13 8 -4 4.31 1.13
-8 13 4 6.7 1.53
8 5 -4 4.43 1.12
-13 5 -4 11.15 1.73
-13 8 4 7.63 1.66
-5 13 4 8.81 1.45
5 8 -4 5.92 1.26
-5 13 4 4.5 1.45
-8 13 -4 9.35 1.59
-8 -5 4 8.61 1.68
-13 8 4 5.57 1.46
-13 9 -4 12.16 1.93
-13 9 -4 14.81 2.07
-4 13 -4 8.68 1.71
-13 4 4 15.16 2.35
4 9 4 8.07 1.64
-9 13 4 14.89 2.34
-4 13 -4 10.64 1.68
-13 9 4 7.83 1.59
-9 -4 4 9.69 1.82
-9 13 -4 9.92 1.62
-13 4 -4 10.35 1.65
4 9 -4 8.9 1.54
-4 13 4 12.36 1.66
-13 9 4 8.43 1.67
3 10 4 22.29 2.89
-13 10 -4 27.03 2.79
-3 13 -4 22.98 2.62
-13 10 -4 26.43 2.77
-13 3 4 29.1 2.89
-10 13 4 31.96 3.03
3 10 -4 28.24 2.87
-3 13 4 31.24 2.84
-13 3 -4 31.68 2.94
-10 13 -4 35.51 3.17
-10 -3 4 31.33 3.16
-13 10 4 31.52 3.17
2 11 4 0.48 1.2
-2 13 -4 1.07 1.12
-13 11 -4 1.17 1.07
-13 2 4 2.66 1.41
-13 11 -4 1.51 1.26
-11 13 4 1.91 1.19
-11 -2 -4 -0.31 0.88
-11 13 -4 4.82 1.38
-2 13 4 3.98 1.19
-11 -2 4 1.93 1.33
-13 11 4 2.25 1.18
2 11 -4 2.69 1.27
-13 2 -4 2.23 1.31
-13 1 4 15.07 2.28
1 12 4 15.48 2.07
-1 13 -4 12.65 2.06
-13 12 -4 13.84 2.11
-12 13 4 12.52 2.26
-13 12 -4 10.51 1.89
-13 12 4 16.53 2.42
1 12 -4 14.96 2.31
-1 13 4 16.51 2.3
-13 1 -4 14.4 2.22
-12 -1 4 14.73 2.29
-12 13 -4 17.38 2.45
-13 13 4 1.92 1.16
-13 0 4 2.43 1.63
0 13 4 2.87 1.35
-13 13 -4 1.88 1.32
-13 0 -4 0.09 1.31
13 0 4 0.25 0.59
-13 13 -4 0.99 1.18
0 -13 4 -0.4 0.58
0 13 -4 0.99 1.25
13 0 -4 0.01 0.52
-7 14 4 -1.16 1.26
-7 14 -4 -0.42 0.94
-14 7 -4 0.21 1.21
7 7 -4 -1.24 1.05
-14 7 4 0.07 0.87
-7 14 4 0.12 1.04
-14 7 4 1.48 1.43
-7 14 -4 -0.44 1.06
-8 14 4 16.97 2.18
-6 14 -4 16.44 2.31
-6 14 -4 13.98 2.21
-14 6 4 19.94 2.57
-8 14 4 19.26 2.67
-14 8 -4 19.75 2.33
-8 14 -4 12.69 2.04
-14 8 4 14.14 2.13
-6 14 4 12.34 2.35
-14 6 -4 15.56 1.98
6 8 -4 12.59 1.98
-6 14 4 14.54 1.91
-14 8 4 15.36 2.27
-14 9 -4 11.19 1.93
-14 5 4 15.86 2.46
-5 14 -4 13.52 1.9
-14 9 -4 15.55 2.2
-5 14 -4 9.36 1.85
-9 14 4 17.64 2.51
5 9 4 10.59 1.86
-14 5 -4 24.9 2.56
-5 14 4 23.28 2.43
5 9 -4 18.71 2.51
-14 9 4 17.11 2.41
-9 14 -4 23.96 2.61
-14 9 4 22.86 2.54
-9 -5 4 20.99 2.58
4 10 4 11.4 2
-10 14 4 18.09 2.54
-14 10 -4 17.03 2.18
-14 10 -4 16.86 2.22
-14 4 4 17.24 2.53
-4 14 -4 13.9 2.31
-14 10 4 18.2 2.5
-14 4 -4 18.74 2.38
-10 14 -4 19.64 2.32
-10 -4 4 19.19 2.49
-4 14 4 16.25 2.13
4 10 -4 15.93 2.26
-3 14 -4 24.11 2.67
-14 11 -4 25.34 2.77
-11 14 4 28.15 3.02
3 11 4 22.71 2.97
-14 11 -4 25.47 2.7
-14 3 4 30.46 3.16
-14 3 -4 28.05 2.91
-11 -3 4 29.97 3.06
-11 14 -4 30.98 3.07
3 11 -4 23.53 2.86
-14 11 4 27.44 3.05
-3 14 4 27.91 2.73
-14 12 -4 1.38 1.26
-14 12 -4 2.13 1.4
2 12 4 1.81 1.42
-12 14 4 1.15 1.14
-2 14 -4 1.46 1.25
12 2 -4 -0.12 0.64
-14 2 4 3.81 1.71
-2 -12 4 0.16 0.72
2 12 4 0.11 0.78
14 -2 4 0.94 0.74
2 12 -4 0.9 1.16
-12 -2 4 0.6 1.39
12 2 4 0.35 0.61
-14 2 -4 1.26 1.33
-12 14 -4 -0.91 0.7
14 -2 -4 0.65 0.59
-14 12 4 0.78 1.16
-2 14 4 2.67 1.26
-12 14 -4 2.16 1.32
-1 14 -4 8.49 1.66
-1 -13 4 9.1 1.22
14 -1 4 10.05 1.27
1 13 4 9.42 1.71
-13 14 4 8.11 1.29
-13 14 4 11.21 2.02
-14 1 4 12.16 2.26
13 1 -4 8.88 1.32
-14 13 -4 7.31 1.67
-14 13 -4 8.86 1.71
-13 14 -4 8.05 1.59
-14 13 4 7.73 1.7
-14 1 -4 7.95 1.8
14 -1 -4 6.2 1.05
1 -14 4 4.53 0.95
-1 14 4 6.64 1.47
1 13 -4 7.47 1.62
-13 14 -4 8.17 1.22
13 1 4 7.77 1.15
-13 -1 4 9.85 2.05
14 0 4 3.35 0.99
14 0 -4 4.78 1.02
-14 14 -4 3.38 1.01
0 14 -4 4.38 1.49
-14 0 4 4.28 1.72
-14 14 -4 5.12 1.54
0 14 4 3.69 1.34
-14 14 4 2.93 1
-14 0 4 1.21 0.97
-14 0 -4 3.48 1.57
0 -14 4 4.14 1.1
-14 14 4 4.68 1.51
-7 15 -4 2.74 1.15
-8 15 4 4.49 1.29
-7 15 -4 2.97 1.23
-8 15 4 2.52 1.28
8 7 -4 1.68 1.21
-15 7 4 6.58 1.75
15 -8 4 -0.19 0.59
-15 7 -4 1.91 1.26
-7 15 4 2.14 1.2
-7 15 4 -0.19 1.23
-15 8 4 2.22 1.47
-8 15 -4 1.09 1.23
7 8 -4 -0.47 1.12
-15 8 4 0.17 0.98
8 7 4 0.04 0.69
8 7 4 0 0.53
-15 9 -4 3.24 1.44
-9 15 4 1.07 1.25
-6 15 -4 1.38 1.25
6 9 4 0.61 0.57
9 6 -4 -1.34 1.01
-6 15 -4 0.5 1.03
-15 6 4 3.28 1.53
15 -6 4 0.65 0.67
6 -15 -4 -0.21 0.67
-15 9 4 2.78 1.31
-9 -6 4 0.33 1.15
-9 15 -4 2.75 1.19
-15 6 -4 4.54 1.44
-6 15 4 3.37 1.21
-15 9 4 3.78 1.41
6 9 -4 1.83 1.32
5 10 4 6.29 0.93
-5 15 -4 5 1.39
5 10 4 5.18 1.63
-15 10 -4 8.2 1.6
-10 15 4 10.68 1.87
-15 10 -4 4.15 1.22
15 -5 4 6.39 1
-15 5 4 9.89 1.82
5 -15 -4 6.38 1.03
10 5 4 5.18 0.97
-15 10 4 7.59 1.6
-15 10 4 10.22 1.79
5 10 -4 10.39 1.72
-15 4 4 3.26 0.99
4 11 4 3.43 1.53
-15 4 4 10.89 2.11
4 11 4 5.8 0.99
-4 -11 4 6.19 1.06
-15 11 -4 6.84 1.64
-15 11 -4 3.86 1.27
15 -4 4 3.75 0.95
4 -15 -4 7.1 1.06
-11 15 4 7.99 1.7
-4 15 -4 5.8 1.48
11 4 4 4.71 0.98
-11 -4 4 6 1.71
-15 11 4 5.76 1.55
15 -4 -4 4.09 0.89
-11 15 -4 6.06 1.08
4 11 -4 5.7 1.54
-4 15 4 5.38 1.28
-15 4 -4 5.39 1.5
-11 15 -4 8.28 1.63
12 3 -4 4.78 0.91
3 -15 -4 5.28 1.01
3 12 4 3.93 1.58
-3 -12 4 5.28 1.05
-12 15 4 4.53 1.39
-12 15 4 5.44 1.16
-3 15 -4 3.46 1.47
3 12 4 4.24 0.98
15 -3 4 5.56 1.15
-15 3 4 5.51 1.79
-15 12 -4 4.67 1.54
-15 12 -4 3.39 1.27
-15 3 4 4.2 1.19
-12 15 -4 3.22 1.35
12 3 4 2.14 0.93
-15 3 -4 2.21 1.29
3 12 -4 2.96 1.47
15 -12 4 2.33 0.97
3 -15 4 0.88 0.69
-12 15 -4 3.98 1.05
15 -3 -4 2.01 0.82
-15 12 4 3.39 1.48
-12 -3 4 4.67 1.64
-3 15 4 2.44 1.17
-2 -13 4 8.08 1.22
-2 15 -4 9.55 1.87
2 -15 -4 11.22 1.3
-15 13 -4 7.13 1.67
-15 2 4 10.3 1.45
2 13 4 11.1 1.98
-13 15 4 12.85 1.99
-13 15 4 11.06 1.44
-15 13 -4 9.32 1.83
15 -2 4 8.66 1.26
13 2 -4 7.08 1.15
-15 2 4 9.89 2.04
2 13 4 8.14 1.18
15 -2 -4 8.91 1.21
-15 13 4 8.86 1.82
15 -13 4 7.85 1.34
13 2 4 10.48 1.37
-15 2 -4 10.22 1.92
-13 -2 4 8.48 2
-13 15 -4 8.47 1.73
2 13 -4 7.85 1.65
-15 13 4 6.25 1.22
2 -15 4 10.16 1.27
-2 15 4 11.6 1.81
-13 15 -4 11.64 1.41
-1 -14 4 1.87 1.04
15 -1 4 1.62 0.97
-15 14 -4 1.69 0.98
-14 15 4 1.93 1.01
-15 1 4 0.96 0.98
-15 1 4 2.24 1.69
-1 15 -4 0.92 1.24
-15 14 -4 1.24 1.39
1 14 4 2.58 1.46
-14 15 4 1.93 1.3
1 14 4 1.82 0.91
14 1 -4 2.2 0.92
14 -15 4 0.4 0.87
-15 14 4 1.39 0.96
-15 1 -4 0.38 1.4
15 -14 4 1.54 1.06
14 -15 -4 -0.33 0.67
-14 -1 4 0.61 1.61
-1 15 4 1.95 1.37
15 -1 -4 1.02 0.88
14 1 4 1.68 0.95
1 -15 4 1.24 0.93
-15 14 4 1.94 1.33
-1 15 4 1.13 0.73
-14 -1 4 -0.6 0.94
-14 15 -4 2.12 1.06
1 14 -4 0.55 1.23
-14 15 -4 1.98 1.26
15 0 4 1.22 0.88
0 15 4 1.41 0.85
15 -15 4 1.65 1.12
-15 15 -4 3.25 1.1
-15 15 4 0.56 0.92
-15 15 4 1.79 1.32
-15 0 4 0.4 1
0 15 -4 2.02 1.36
0 -15 4 2.08 0.96
0 15 4 1.84 1.32
-15 15 -4 1.67 1.39
-15 0 -4 -0.66 1.4
15 -15 -4 -0.36 0.63
-15 0 4 1.23 1.69
15 0 -4 1.46 0.93
-8 16 4 1.25 1.26
16 -8 -4 -0.09 0.54
-8 -8 -4 -0.08 0.57
-8 16 4 0.78 1.25
16 -8 4 0.88 0.89
8 8 4 1.53 0.92
-8 -8 4 -0.65 0.6
-16 8 4 2.18 1.52
8 -16 -4 0.68 1.02
-16 8 -4 1.55 1.33
8 8 4 1.8 0.87
-16 8 4 -1.35 0.92
-8 16 -4 0.06 1.17
8 8 -4 -0.43 1.19
-7 -9 4 17.88 1.87
-7 16 -4 15.52 2.39
7 -16 -4 21.05 2.11
-9 16 4 18.03 2.62
16 -7 4 19.54 1.98
-16 9 -4 21.31 2.56
-16 7 4 23.77 2.76
7 9 4 18.51 1.85
-7 16 4 20.43 2.36
-16 9 4 18.39 2.52
9 7 4 19.73 1.99
7 9 -4 14.18 2.49
-16 7 -4 20.05 1.92
9 7 4 20.25 1.97
-16 7 -4 22.4 2.41
16 -9 4 19.74 2.13
-9 16 -4 25.14 2.78
9 -16 -4 22.03 2.13
-10 16 4 4.14 1.46
6 -16 -4 6.44 1.16
-16 6 4 8.49 1.92
-16 10 -4 4.33 1.44
-16 6 4 6.36 1.13
16 -6 4 6.62 1.15
-6 -10 4 3.79 1.03
-6 16 -4 3.42 1.3
6 10 4 4.75 0.93
16 -6 -4 4.09 0.92
-16 10 4 3.57 1.41
-16 6 -4 5.6 1.49
-16 6 -4 6.72 1.04
10 -16 -4 4.3 1.1
-16 10 4 2.83 1.32
-10 16 -4 5.82 1.07
-10 16 -4 4.68 1.38
16 -10 4 2.88 1.05
-6 16 4 2.95 1.22
10 6 4 6.15 1.07
6 10 -4 3.44 1.38
10 6 4 6.23 1.09
-16 11 -4 27.1 2.98
16 -5 4 25.8 2.35
-5 -11 4 28.2 2.44
11 5 -4 20.45 2.1
5 11 4 26.71 2.32
-16 5 4 31.89 3.24
-11 16 4 24.42 2.4
-16 5 4 27.44 2.49
5 -16 -4 26.14 2.34
-11 16 4 28.74 3.08
-5 16 -4 27.64 2.95
-11 16 -4 29.09 2.91
-16 11 4 24.77 2.94
-16 5 -4 24.5 2.68
11 -16 -4 26.84 2.43
-11 16 -4 26.83 2.34
-16 5 -4 24.25 2.23
5 11 -4 23.57 2.95
16 -11 4 21.84 2.43
11 5 4 26.58 2.39
16 -5 -4 24.44 2.29
11 5 4 26.52 2.29
-5 16 4 27.22 2.82
-12 16 4 24.84 2.37
-4 16 -4 23.48 2.83
16 -4 4 25.05 2.36
-16 4 4 31.13 3.27
-16 12 -4 21.55 2.71
-16 12 -4 22.64 2.82
-16 4 4 25.27 2.49
12 4 -4 22.86 2.15
4 12 4 23.55 2.3
4 -16 -4 26.45 2.25
-4 -12 4 24.67 2.26
4 12 4 21.17 3.06
12 4 4 20.74 2.07
-12 16 -4 23.42 2.19
12 4 4 19.81 2.15
4 12 -4 18.87 2.75
-16 4 -4 19.39 2.04
-12 16 -4 25.52 2.86
16 -12 4 21 2.2
-16 4 -4 23.98 2.75
12 -16 -4 19.94 2.22
-16 12 4 24.2 2.86
-12 -4 4 20.07 2.73
-4 16 4 23.02 2.63
16 -4 -4 20.45 2.05
4 -16 4 20.64 1.96
3 13 4 2.76 0.98
-13 16 4 4.14 1.47
3 -16 -4 3.93 1
-16 3 4 3.86 1.19
16 -3 4 2.69 1.02
-3 16 -4 2.99 1.46
-16 13 -4 1.89 1.36
3 13 4 2.43 1.52
-13 16 4 3.52 1.02
-16 13 -4 2.02 1.41
-3 -13 4 3.49 1.03
-16 3 4 2.63 1.67
13 3 -4 3.45 0.99
-16 3 -4 3.78 0.96
-16 13 4 4.16 1.45
3 13 -4 3.74 1.46
13 -16 -4 5.15 1.17
3 -16 4 4.79 1.02
16 -3 -4 5.57 1.09
-3 16 4 6.12 1.48
-16 13 4 4.67 1.13
13 3 4 2.83 0.95
16 -13 4 4.59 1.16
-13 16 -4 5.81 1.5
-13 16 -4 8.09 1.28
13 3 4 4.66 1.08
-16 3 -4 6.08 1.78
-13 -3 4 4.28 1.73
-2 16 -4 17.68 2.61
-2 -14 4 17.51 1.94
2 -16 -4 15.92 1.75
-16 14 -4 13.56 2.5
-16 14 -4 14.17 1.82
16 -2 4 15.01 1.76
-14 16 4 13.68 1.91
2 14 4 18.14 2.86
14 2 -4 15.79 1.83
2 14 4 14.72 1.87
-16 2 4 15.29 2.05
-14 16 4 18.81 2.61
14 -16 4 13.57 1.82
-16 2 4 18.54 2.89
16 -14 4 13.9 1.9
14 2 4 11.94 1.81
14 -16 -4 13.12 1.82
2 14 -4 15.14 2.16
-16 14 4 13.32 2.5
-2 16 4 10.43 1.43
16 -2 -4 12.47 1.7
2 -16 4 11.22 1.69
-2 16 4 15.74 2.39
-16 2 -4 13.4 2.39
-14 16 -4 14.14 1.8
-14 -2 4 8.63 1.37
-16 2 -4 11 1.57
-14 -2 4 11.09 2.2
-14 16 -4 14.95 2.32
16 -1 4 0.19 0.93
-15 16 4 0.25 0.89
-16 1 4 1.21 1.64
15 1 -4 0.18 0.94
1 -16 -4 0.31 0.88
-16 1 4 -1.16 0.94
-1 -15 4 -0.02 0.99
-16 15 -4 0.67 1
-16 15 -4 -0.78 1.29
1 15 4 1.24 1.44
15 -16 4 0.39 1.09
-1 16 -4 0.02 1.31
1 15 4 1.02 0.86
16 -15 -4 -0.55 0.74
-15 16 4 0.16 1.26
-15 -1 4 -0.54 0.97
-15 16 -4 0.13 1.36
15 1 4 0.73 0.98
15 -16 -4 0.81 0.93
1 -16 4 1.51 0.96
-16 1 -4 -0.93 1.29
-15 -1 4 0.2 1.61
-1 16 4 2.15 1.43
16 -1 -4 0.39 0.9
15 1 4 0.18 0.87
-16 15 4 1.93 1.35
-16 15 4 0.91 0.92
-1 16 4 0.55 0.85
16 -15 4 0.49 1.11
1 15 -4 0.46 1.27
-15 16 -4 0.68 0.94
-16 16 4 0.68 0.88
0 16 4 1.37 1.29
-16 16 4 1.42 1.41
-16 0 4 0.26 0.98
-16 16 -4 0.96 0.99
0 16 4 0.76 0.89
16 0 4 0.97 0.99
0 -16 -4 1.94 0.97
16 -16 4 1.4 1.1
0 16 -4 0.53 1.26
0 -16 4 1.74 0.95
-16 16 -4 -0.31 1.26
16 -16 -4 1.47 0.98
16 0 -4 1.51 0.96
-16 0 4 1.47 1.66
17 -8 4 4.14 1.11
-9 -8 -4 2.29 0.9
-17 8 4 1.94 0.94
-17 8 4 4.56 1.67
8 -17 -4 4.26 1.19
-17 9 -4 3.75 0.96
8 9 4 3.33 0.9
-9 17 4 1.76 1.27
-8 -9 4 2.69 1
-17 9 -4 3.21 1.48
-8 17 -4 1.38 1.25
17 -9 -4 2.48 0.77
17 -9 4 1.83 1.04
8 9 -4 1.1 1.32
9 8 4 2.73 0.91
-9 -8 4 2.16 0.96
9 -17 -4 2.45 1.07
-9 17 -4 0.85 1.26
-17 9 4 1.98 1.41
-17 8 -4 4.25 0.96
-17 8 -4 3.07 1.39
-8 -9 -4 3.08 0.89
17 -8 -4 2.41 0.83
-8 17 4 2.32 1.28
9 8 4 3.1 0.82
7 10 4 0.39 0.75
-17 7 4 2.84 1.55
-10 17 4 0.15 1.23
-17 7 4 1.05 1.02
7 -17 -4 0.8 1
-7 17 -4 -0.34 1.09
17 -7 4 0.9 0.96
10 7 -4 0.34 0.64
-7 -10 4 1.9 0.97
-17 10 -4 1.91 0.9
-17 10 -4 1.43 1.3
-7 17 -4 -0.45 1.01
17 -7 4 -0.08 0.61
17 -10 -4 -0.09 0.55
7 10 -4 1.26 1.33
-17 7 -4 1.83 0.84
-17 7 -4 1.73 1.41
-10 17 -4 0.93 0.94
-17 10 4 1.68 1.3
10 7 4 1.02 0.87
-10 -7 4 0.03 0.76
-7 -10 -4 1.66 0.81
7 -17 4 0.09 0.6
-7 17 4 1.35 1.23
10 7 4 1.54 0.93
17 -10 4 1.44 1.06
17 -7 -4 1.25 0.84
-10 17 -4 1.49 1.38
10 -17 -4 0.68 1.08
-17 11 -4 4.75 1.61
-11 17 4 4.2 1.48
-17 11 -4 3.67 0.98
11 6 -4 4.23 1.03
-17 6 4 4.26 1.12
6 -17 -4 2.91 1.05
-17 6 4 6.75 1.89
-11 17 4 3.19 1.05
17 -6 4 3.53 1.07
-6 -11 4 4.07 1.09
-6 17 -4 2.49 1.26
6 11 4 4.01 1.03
-11 17 -4 6.83 1.61
11 6 4 10.57 1.3
-17 6 -4 7.51 1.71
6 -17 4 5.73 1.01
11 6 4 8.92 1.24
-11 17 -4 10.35 1.37
17 -6 -4 7.95 1.17
-17 6 -4 9.17 1.44
6 11 -4 7.27 1.75
-6 17 4 6.42 1.47
11 -17 -4 11.69 1.49
17 -11 4 6.85 1.32
12 5 -4 3.22 1.03
-5 17 -4 1.36 1.26
-17 5 4 2.75 1.12
17 -5 4 1.67 1.07
-17 5 4 2.49 1.61
-17 12 -4 2.18 1.51
5 12 4 2.1 0.98
-5 -12 4 3.61 1.05
12 -17 4 -0.07 0.77
5 -17 -4 2.55 1.04
-17 12 -4 1.99 0.89
-12 17 4 2.55 1.41
-12 17 4 2.04 0.96
17 -5 -4 4.63 1.06
12 -17 -4 4.31 1.17
17 -12 4 4.44 1.17
-12 17 -4 6.6 1.19
12 5 4 3.56 1.06
-17 5 -4 5.36 1.65
-5 17 4 3.36 1.31
-17 5 -4 4.53 0.98
5 -17 4 2.76 0.9
12 5 4 5.01 1.11
-12 17 -4 3.51 1.45
5 12 -4 3.77 1.52
-17 12 4 3.57 1.36
4 13 4 5.03 1.07
-4 -13 4 6.43 1.2
-17 13 -4 2.57 1.37
-13 17 4 5.17 1.49
4 -17 -4 5.52 1.07
-17 4 4 7.73 2.06
13 -17 4 4.4 1.1
13 4 -4 7.4 1.18
17 -4 4 5.42 1.1
-17 4 4 4.88 1.2
-4 17 -4 4.6 1.56
-13 17 4 7.33 1.22
-17 4 -4 3.34 0.96
4 -17 4 2.62 0.95
-13 17 -4 4.61 1.13
13 4 4 3.58 1.01
17 -13 4 2.34 1.14
4 13 -4 1.91 1.38
13 4 4 3.56 1.09
-4 17 4 3.13 1.23
-17 13 4 2.45 1.34
17 -4 -4 2.49 0.99
-17 13 4 2.37 1.03
13 -17 -4 3.06 1.18
-17 4 -4 2.31 1.46
-13 17 -4 3.17 1.51
3 -17 -4 4.39 1.01
-17 14 -4 2.56 0.96
3 14 4 1.15 1.42
-3 -14 4 3.41 1.06
-17 3 4 3.98 1.87
14 3 -4 3.08 0.96
-14 17 4 3.16 0.99
-14 17 4 3.51 1.47
-3 17 -4 3.43 1.48
17 -3 4 4.15 0.99
3 14 4 2.53 0.95
-17 3 4 3.17 1.08
-17 14 -4 0.39 1.16
14 -17 4 2.58 1.01
-17 3 -4 2.14 1.48
14 3 4 1.37 1
14 3 4 2.77 0.98
17 -14 4 1.67 1.1
-14 -3 4 0.14 1.38
3 -17 4 2.31 0.92
-17 14 4 1.65 1.32
-3 17 4 2.59 1.38
-14 17 -4 1.93 1.42
3 14 -4 1.88 1.42
-17 14 4 1.4 1.03
-17 3 -4 2.76 0.98
17 -3 -4 3.46 1.02
-14 17 -4 3.71 1.05
14 -17 -4 1.05 1.09
-14 -3 4 1.35 0.83
-15 17 4 4.01 1.02
2 -17 -4 4.45 1.05
-15 17 4 3.33 1.48
-17 15 -4 -0.15 1.21
-2 -15 4 2.87 1.08
2 15 4 2.79 0.95
-17 2 4 2.77 1.04
2 15 4 1.48 1.35
15 2 -4 2.48 0.94
15 -17 4 2.43 1.06
-17 15 -4 3.67 1.06
-2 17 -4 2.58 1.53
17 -2 4 3.15 0.97
-17 2 4 3.48 1.86
17 -15 -4 1.79 0.83
-17 15 4 0.96 0.92
-17 2 -4 -0.73 1.33
-2 17 4 3.19 1.42
-15 -2 4 0.31 1.41
15 2 4 3.03 0.97
-17 15 4 2.2 1.45
-15 17 -4 2.46 1.5
15 -17 -4 2.3 1
2 15 -4 3.06 1.5
-17 2 -4 1.44 0.92
-2 17 4 2.33 0.86
15 2 4 2.03 1.05
2 -17 4 1.21 0.9
17 -2 -4 3.05 1
17 -15 4 1.96 1.05
-15 17 -4 2.96 1.03
-15 -2 4 1.78 1.04
-1 -16 4 0.45 0.89
-17 16 -4 -1.53 1.19
17 -1 4 0.32 0.88
-17 16 -4 0.54 0.96
-17 1 4 0.83 1.66
-1 17 -4 -0.23 1.24
1 16 4 1.69 0.92
-16 17 4 1.05 0.94
1 16 4 1.03 1.27
-17 1 4 0.18 0.99
16 1 -4 0.44 0.96
-16 17 4 0.92 1.26
16 -17 4 0.03 1.08
1 -17 -4 0.99 0.89
17 -16 -4 0.25 0.85
-16 -1 4 -0.19 0.99
-17 1 -4 -0.98 0.79
16 1 4 1.06 0.96
-17 16 4 0.57 0.88
17 -16 4 0.47 0.98
-1 17 4 0.47 0.86
1 -17 4 0.67 0.9
16 1 4 1.09 0.92
-16 17 -4 0.95 0.92
-16 17 -4 0.51 1.37
17 -1 -4 1.61 0.98
-16 -1 4 0.64 1.39
-17 16 4 0.84 1.37
-1 17 4 0.86 1.27
16 -17 -4 0.39 0.97
1 16 -4 -0.14 1.31
0 17 4 -0.59 0.84
17 0 -4 -0.3 0.92
-17 0 4 0.16 1.01
-17 0 4 0.31 1.7
-17 17 -4 0.33 0.9
-17 17 4 0.1 0.89
0 17 -4 0.35 1.24
17 0 4 0.01 0.91
0 -17 4 1.02 0.91
17 0 4 0.06 0.86
-17 0 -4 -1.1 0.58
0 -17 -4 -0.09 0.84
17 -17 4 0.43 1.01
-17 17 4 0.65 1.27
17 -17 -4 -0.05 0.92
0 17 4 0.11 1.21
-17 17 -4 -1.82 1.13
-9 -9 4 7.76 1.21
-9 -9 -4 5.48 1.06
9 9 4 5.22 0.99
18 -9 4 8.28 1.27
9 9 4 5.83 0.98
-18 9 4 8.61 1.27
18 -9 -4 5.35 1.01
9 -18 -4 5.26 1.18
-18 9 4 5.17 1.61
-18 9 -4 6.48 1.67
18 -10 -4 10.35 1.47
8 -18 -4 12.27 1.81
18 -8 4 12.63 1.78
8 10 4 13.59 1.59
-18 10 -4 13.84 2.26
-18 10 -4 14.73 1.68
-18 8 4 12.82 1.97
-8 -10 4 14.07 1.8
-10 -8 -4 9.21 1.29
-18 8 4 14.73 2.53
10 8 -4 10.58 1.51
-18 8 -4 12.6 1.57
18 -8 -4 12.25 1.67
18 -10 4 9.32 1.36
10 8 4 10.54 1.56
-10 18 -4 6.28 1.59
-18 8 -4 12.75 2.29
-10 -8 4 9.87 1.3
10 8 4 11.69 1.64
-8 18 4 8.05 1.64
-10 18 -4 9.67 1.64
10 -18 -4 14.36 1.61
-8 -10 -4 11.54 1.64
-18 7 4 4.34 1.67
7 -18 -4 4.43 1.12
-18 11 -4 5.52 1.72
-11 18 4 2.33 1.3
-7 -11 4 5.1 1.09
-11 -7 -4 5.26 1.02
-18 7 4 7.02 1.26
-18 11 -4 4.54 1.02
7 11 4 5.73 1.1
11 7 -4 5.27 1.03
-11 18 4 2.51 0.98
18 -7 4 3.76 1.08
18 -11 4 7.07 1.27
-7 18 4 5.79 1.49
11 7 4 7.56 1.18
18 -7 -4 8.62 1.16
-11 18 -4 6.42 1.19
-18 7 -4 8.07 1.84
11 7 4 8.38 1.22
-7 -11 -4 7.65 1.17
-18 7 -4 7.66 1.11
-11 -7 4 6.45 1.14
-11 18 -4 7.39 1.73
11 -18 -4 8.6 1.31
7 -18 4 5.57 1.01
-18 12 -4 6.34 1.14
-12 18 4 4.69 1.1
-18 6 4 5.97 1.8
6 -18 -4 6.58 1.22
-12 18 4 4.33 1.55
12 6 -4 6.82 1.2
-18 12 -4 6.34 1.75
-18 6 4 9.31 1.33
6 12 4 6.39 1.17
-6 -12 4 7.99 1.23
18 -6 4 6.13 1.21
-12 18 -4 7.44 1.21
-12 18 -4 3.98 1.48
6 -18 4 4.23 1
12 6 4 6.19 1.1
12 6 4 4.67 1.1
-6 18 4 5.38 1.52
-18 6 -4 4.25 0.93
18 -6 -4 6.48 1.13
-6 -12 -4 3.69 0.9
18 -12 4 8.71 1.35
6 12 -4 3.05 1.4
12 -18 -4 7.28 1.26
-18 6 -4 7.81 1.76
-12 -6 4 4.7 0.95
5 13 4 8.33 1.26
-18 5 4 9.92 2.1
-13 18 4 6.73 1.23
-18 13 -4 9.94 1.29
5 -18 -4 10.08 1.33
18 -5 4 11.12 1.4
13 -18 4 7.91 1.32
13 5 -4 10.85 1.38
-18 5 4 11.94 1.5
-13 18 4 9.48 1.84
-5 -13 4 14.01 1.45
-5 18 4 13.12 1.92
13 5 4 13.78 1.84
13 5 4 8.92 1.26
-13 18 -4 10.4 1.94
5 -18 4 6.91 1.19
-13 18 -4 13.99 1.74
18 -5 -4 10.27 1.3
-18 5 -4 9.67 1.87
-18 13 4 10.82 1.41
-18 5 -4 8.97 1.46
13 -18 -4 13.74 1.54
18 -13 4 11.52 1.48
5 13 -4 9.83 1.95
-18 4 4 6.8 1.27
-4 18 -4 4.83 1.46
-14 18 4 3.32 1.35
14 -18 4 2.76 1.03
-4 -14 4 8.51 1.24
4 14 4 5.39 1.08
-18 14 -4 2.6 0.91
4 -18 -4 4.66 1.03
14 4 -4 5.24 1.11
-14 18 4 6.99 1.19
-18 4 4 4.64 1.77
18 -4 4 5.99 1.12
-4 18 4 4.19 1.35
-14 18 -4 8.26 1.26
-18 4 -4 4.71 1.03
18 -14 4 5.2 1.17
14 4 4 5.87 1.14
14 4 4 6.24 1.23
-18 14 4 6.47 1.24
18 -4 -4 7.07 1.11
-18 4 -4 5.12 1.73
4 -18 4 6.07 1.09
4 14 -4 4.66 1.56
14 -18 -4 6.86 1.31
-14 18 -4 4.52 1.64
3 15 4 3.52 0.98
15 -18 4 3.2 1.05
3 -18 -4 2.66 0.94
-18 3 4 3.65 1.15
-3 -15 4 3.28 1.07
-18 15 -4 3.81 1.02
-15 18 4 2.6 1.37
-3 18 -4 3.04 1.35
-18 3 4 2.96 1.66
-15 18 4 4.66 1.06
18 -3 4 2.32 0.93
15 3 -4 3.93 1.09
-3 18 4 4.45 1.45
-18 15 4 5.27 1.14
18 -3 -4 7.15 1.15
-15 18 -4 6.21 1.73
18 -15 4 7.98 1.33
15 3 4 6.12 1.19
-15 -3 4 5.46 1.1
-15 18 -4 6.43 1.12
15 3 4 6.42 1.11
3 -18 4 6.57 1.08
-18 3 -4 3.75 0.99
3 15 -4 5.31 1.55
15 -18 -4 4.03 1.08
-16 18 4 0.92 1.19
-16 18 4 1.18 0.92
2 -18 -4 1.01 0.86
-18 16 -4 0.55 0.9
16 -18 4 0.06 1.02
2 16 4 0.67 0.85
-2 18 -4 0.36 1.25
18 -2 4 1.33 0.86
-18 2 4 -0.14 1.46
-2 -16 4 1.34 0.94
16 2 -4 2.29 1.03
18 -16 -4 0.42 0.93
-18 2 4 0.49 1
-18 16 4 -0.11 1.23
-18 16 4 0.68 0.93
-16 -2 4 0.44 0.96
-2 18 4 0.69 1.19
16 2 4 0.77 0.88
-18 2 -4 0.33 0.89
2 -18 4 1.45 0.91
16 2 4 -0.24 0.97
18 -2 -4 0.18 0.95
-16 18 -4 -1.12 1.31
18 -16 4 1.43 1
2 16 -4 -0.16 1.19
16 -18 -4 1.23 0.96
-16 18 -4 0.93 0.9
17 1 -4 3.54 1.1
1 17 4 1.32 0.89
-18 17 -4 2.3 0.95
-1 -17 4 3.27 0.99
17 -18 4 4.07 1.14
18 -17 -4 2.75 0.97
-17 18 4 3.6 0.99
1 -18 -4 3.47 0.93
-18 1 4 3.31 1.1
18 -1 4 3.04 1.07
17 1 4 3.33 0.98
-1 18 4 2.79 0.89
17 -18 -4 3.62 1.07
17 1 4 2.32 0.93
1 17 -4 -0.43 1.12
-18 1 -4 2.44 0.9
-17 18 -4 4.23 1.05
-1 18 4 0.36 1.13
-18 17 4 4.2 1.03
-1 -17 -4 3.44 0.95
18 -17 4 2.1 1
18 -1 -4 4.19 1.05
-17 -1 4 3.52 1.04
1 -18 4 2.56 0.92
-17 18 -4 -0.63 1.44
0 -18 -4 0.08 0.82
0 18 4 0.43 0.81
18 0 4 0.18 1
-18 18 4 0.5 0.91
18 -18 4 -0.04 0.9
18 0 4 -0.17 0.84
18 0 -4 -0.42 0.94
18 -18 -4 -0.39 0.85
0 -18 4 0.75 0.84
-18 0 4 -0.01 0.94
-18 18 -4 0.51 0.91
9 10 4 5.86 1.01
-19 10 -4 2.48 1.43
9 -19 -4 4.65 1.1
10 9 -4 3.65 0.93
-10 -9 -4 2.35 0.89
-9 -10 4 5.28 1.09
-19 9 4 1.91 1.36
19 -10 -4 4.42 0.97
9 10 4 2.96 0.83
19 -9 -4 3.27 0.93
10 -19 -4 5.2 1.13
-10 -9 4 5.58 1.07
-19 10 4 4.94 1.04
-19 9 -4 4.7 1.51
10 9 4 4.16 0.93
-9 -10 -4 4.84 0.99
19 -10 4 6.22 1.14
10 9 4 4.95 0.93
-10 19 -4 4.47 1
8 -19 -4 14.34 1.55
19 -8 4 12.82 1.8
-19 11 -4 15.76 1.77
-19 8 4 13.03 1.9
11 8 -4 12.06 1.71
-8 -11 4 14.74 1.79
-11 -8 -4 10.42 1.57
-19 8 4 13.56 2.46
19 -11 -4 11.05 1.54
8 11 4 13.74 1.79
-19 11 -4 13.85 2.37
11 8 4 14.31 1.69
-19 11 4 10.53 1.68
19 -8 -4 15.18 1.76
11 8 4 12.34 1.68
-19 8 -4 15.25 2.31
11 -19 -4 12.46 1.82
8 -19 4 10.73 1.49
-19 8 -4 15.88 1.65
-11 19 -4 15.54 1.78
-8 -11 -4 13.83 1.66
19 -11 4 16.36 1.84
-11 -8 4 13.68 1.65
-19 7 4 8.04 1.25
12 7 -4 4.92 1.06
-12 -7 -4 6.13 1.03
-19 12 -4 2.76 1.36
-19 7 4 6.68 1.77
7 -19 -4 5.27 1.11
-12 19 4 4.84 1.04
19 -7 4 7.72 1.25
-19 12 -4 6.53 1.11
7 12 4 6.32 1.09
-7 -12 4 6.86 1.1
12 7 4 6.08 1.05
-12 -7 4 4.44 1
7 -19 4 5.2 0.99
12 7 4 7.3 1.17
19 -7 -4 9.49 1.23
19 -12 4 7.64 1.25
-7 19 4 4.84 1.38
-12 19 -4 3.3 1.53
-7 -12 -4 5.32 1
-19 7 -4 4.03 1.5
12 -19 -4 6.22 1.22
-12 19 -4 6.32 1.13
-19 7 -4 8.96 1.1
-19 13 -4 1.64 0.87
6 -19 -4 3.01 1.03
13 -19 4 1.34 0.91
-13 19 4 2.34 0.92
-6 -13 4 2.71 0.97
-13 -6 -4 3.87 0.94
-19 6 4 3.25 1.05
-19 6 4 3.28 1.67
-13 19 4 0.31 1.12
19 -6 4 2.66 1
13 6 -4 0.95 0.89
6 13 4 1.32 0.9
-19 6 -4 1.62 0.85
6 -19 4 1.13 0.83
-13 19 -4 -0.66 1.23
-6 19 4 1.39 1.26
13 6 4 1.12 0.83
-19 6 -4 1.13 1.31
13 6 4 1.48 0.94
-13 19 -4 1.74 0.93
13 -19 -4 1.99 1.08
19 -6 -4 2.47 0.95
19 -13 4 1.33 1.04
-13 -6 4 1.2 0.83
-6 -13 -4 0.65 0.81
-19 5 4 1.84 1.54
-14 -5 -4 0.86 0.83
-14 19 4 2.78 0.93
-5 -14 4 2.13 0.98
-19 5 4 1.41 1.01
-19 14 -4 0.65 0.77
5 14 4 1.59 0.92
14 -19 4 0.5 0.89
-14 19 4 -0.07 1.1
19 -5 4 2.04 0.93
5 -19 -4 1.98 0.96
14 5 -4 1.42 0.94
-19 14 4 0.06 0.93
-19 5 -4 -1.21 1.18
-5 -14 -4 -0.47 0.52
-14 -5 4 -0.61 0.6
-5 19 4 1.08 1.21
5 14 -4 -0.41 2.04
14 -19 -4 2.64 1.12
19 -14 4 1.89 1.02
-19 5 -4 0.96 0.78
5 -19 4 0.4 0.81
19 -5 -4 1.39 0.89
-14 19 -4 -1.45 1.26
-14 19 -4 1.52 0.89
14 5 4 0.32 0.93
14 5 4 0.55 0.85
15 -19 4 8.35 1.29
-4 -15 4 11.08 1.33
4 -19 -4 10.17 1.29
-19 4 4 12.02 1.87
4 15 4 9.93 1.24
19 -4 4 10.98 1.44
-19 15 -4 7.48 1.23
-15 19 4 10.12 1.62
15 4 -4 10.27 1.34
-19 15 4 5.91 1.17
15 4 4 5.69 1.16
19 -4 -4 9.61 1.2
-4 19 4 4.66 1.26
4 -19 4 5.27 1
-19 4 -4 9.07 1.37
15 4 4 9.1 1.16
15 -19 -4 6.2 1.15
-19 16 -4 3.49 1.02
16 -19 4 2.81 1.04
3 -19 -4 6.04 1.08
19 -16 -4 3.02 0.89
3 16 4 4.1 0.96
19 -3 4 4.71 1.03
-19 3 4 4.11 1.11
16 3 -4 4.06 1.09
-16 19 4 4.12 0.99
-3 -16 4 6.45 1.09
-16 -3 4 3.84 0.98
16 -19 -4 5.55 1.12
-19 16 4 5 1.1
-19 3 -4 4.11 0.94
16 3 4 3.34 1.01
3 -19 4 3.95 0.9
19 -3 -4 6.74 1.1
-3 19 4 0.4 1.22
19 -16 4 4.5 1.05
16 3 4 5.29 1.03
2 -19 -4 3.54 0.91
17 2 -4 3.99 1.06
-19 17 -4 3.41 0.99
19 -2 4 3.38 1.02
-19 2 4 2.88 1.05
2 17 4 2.21 0.89
-17 19 4 3.75 0.99
-2 -17 4 2.72 0.94
19 -17 -4 1.84 0.92
17 -19 4 2.47 1.04
19 -17 4 1.79 0.95
17 2 4 1.23 0.88
17 -19 -4 1.18 0.96
19 -2 -4 -0.18 0.88
-17 19 -4 2.24 0.92
-17 -2 4 -0.09 0.9
-19 17 4 1.41 0.93
17 2 4 0.54 0.89
-2 -17 -4 0.56 0.85
-19 2 -4 0.86 0.85
2 -19 4 0.36 0.86
18 -19 4 1.08 0.91
-19 1 4 -0.43 0.89
1 18 4 0.08 0.75
-19 18 -4 0.07 0.79
1 -19 -4 0.16 0.75
-18 19 4 0.92 0.88
19 -18 -4 -0.83 0.82
18 1 -4 -0.86 0.88
-1 -18 4 -0.12 0.83
19 -1 4 -0.93 0.77
-18 19 -4 1.35 0.84
-18 -1 4 0.78 0.9
-19 18 4 0.86 0.92
19 -1 -4 1.28 0.93
18 -19 -4 0.86 0.86
1 -19 4 0.65 0.83
18 1 4 0.51 0.73
-1 -18 -4 0.11 0.82
18 1 4 0.82 0.8
19 -18 4 0.49 0.9
-19 19 -4 1.49 0.79
0 -19 -4 1.45 0.8
19 -19 -4 1.82 0.9
-19 19 4 2.38 0.88
19 0 -4 2.11 0.93
19 -19 4 1.72 0.9
-19 0 4 1.02 0.89
19 0 4 0.53 0.79
0 -19 4 0.87 0.77
-10 -10 4 14.59 1.71
20 -10 4 13.35 1.84
20 -10 -4 11.36 1.63
-10 20 -4 9.48 1.54
-20 10 4 12.7 1.71
10 10 4 15.03 1.66
10 10 4 12.19 1.52
10 10 -4 11.2 1.39
10 -20 -4 14.26 1.75
-10 -10 -4 12.84 1.56
-20 10 -4 14.75 1.56
11 9 -4 16.65 1.79
20 -11 -4 13.08 1.69
-11 -9 -4 15.05 1.65
-20 11 -4 17.09 1.77
9 -20 -4 15.75 1.86
-20 9 4 17.89 1.99
9 11 4 17.76 1.86
20 -9 4 17.88 1.9
-9 -11 4 17.25 1.81
11 9 4 14.07 1.69
20 -11 4 16.23 1.88
-11 -9 4 17.67 1.88
11 -20 -4 16.85 1.92
-11 20 -4 13.32 1.74
-20 9 -4 18.96 1.76
-20 11 4 13.32 1.8
-9 -11 -4 17.08 1.67
11 9 4 17.06 1.69
20 -9 -4 15.02 1.81
-8 -12 4 11.29 1.54
-20 12 -4 12.17 1.53
8 12 4 14.24 1.43
8 -20 -4 10.3 1.61
-12 -8 -4 8.41 1.21
20 -8 4 11.91 1.72
-20 8 4 12.23 1.73
12 8 -4 11.16 1.65
12 8 4 9.3 1.18
20 -8 -4 10.22 1.27
-12 20 -4 10.81 1.61
-8 -12 -4 7.88 1.12
12 8 4 10.64 1.24
12 -20 -4 8.87 1.31
-20 8 -4 9.11 1.17
-12 -8 4 8.11 1.18
20 -12 4 11.62 1.36
-20 7 4 0.19 2
-20 13 -4 3.02 0.86
20 -7 4 2.82 0.91
13 -20 4 1.61 0.86
-7 -13 4 4.84 1.03
7 -20 -4 5.9 1.05
-13 -7 -4 4.04 0.94
-13 20 4 3.09 0.92
7 13 4 5.86 1.03
13 7 -4 2.07 0.91
-20 7 -4 3.37 0.85
13 -20 -4 3.87 1.12
13 7 4 3.48 0.92
7 -20 4 1.86 0.79
-13 -7 4 2.77 0.85
20 -7 -4 2.8 0.89
13 7 4 2.46 0.87
-13 20 -4 3.68 0.98
-7 -13 -4 2.03 0.85
20 -13 4 3.29 0.98
-14 20 4 3.86 0.99
14 6 -4 2.43 0.89
6 -20 -4 4.56 1.02
-14 -6 -4 6.44 1.01
-6 -14 4 4.43 1
20 -6 4 3.43 0.98
6 14 4 4.36 0.98
14 -20 4 1.85 0.9
-20 14 -4 2.09 0.81
-20 6 4 6.32 1.12
-14 -6 4 4.19 0.9
20 -14 4 8.47 1.2
-6 -14 -4 4.29 0.9
-20 6 -4 4.96 0.93
20 -6 -4 6.21 1.04
-14 20 -4 5.88 1.04
14 -20 -4 6.73 1.24
14 6 4 5.04 1.02
6 -20 4 5.15 0.96
14 6 4 6.27 1.02
15 5 -4 2.72 0.9
15 -20 4 1.23 0.91
-5 -15 4 2.64 0.91
-15 20 4 1.12 0.86
20 -5 4 2.46 0.85
-15 -5 -4 2.58 0.93
5 15 4 2.72 0.89
5 -20 -4 2.71 0.94
-20 5 4 3.26 0.99
5 -20 4 0.43 0.72
15 5 4 0.65 0.8
-15 -5 4 -0.19 0.55
15 5 4 1.19 0.84
-20 5 -4 1.45 0.8
15 -20 -4 0.32 0.9
15 5 4 1 0.93
-15 20 -4 1.56 0.87
-20 15 4 0.74 0.86
20 -15 4 2.15 1.01
20 -5 -4 1.27 0.87
16 4 -4 1.42 0.85
4 -20 -4 1.67 0.87
-4 -16 4 2.24 0.87
20 -16 -4 -0.27 0.52
4 16 4 1.14 0.81
-20 16 -4 0.12 0.78
-16 -4 -4 2.76 0.91
20 -4 4 1.47 0.85
-16 20 4 2.25 0.85
-20 4 4 2.49 0.96
16 -20 4 0.84 0.9
16 -20 -4 2.95 0.95
-16 20 -4 3.3 0.9
-20 16 4 1.95 0.92
20 -4 -4 2.83 0.93
20 -16 4 2.84 0.98
16 4 4 2.35 0.85
4 -20 4 1.5 0.77
-20 4 -4 2.45 0.82
16 4 4 1.58 0.9
17 -20 4 1.92 0.88
-20 3 4 2.38 0.96
20 -17 -4 0.45 0.64
-20 17 -4 0.89 0.83
-3 -17 4 1.67 0.85
3 -20 -4 0.95 0.81
-17 -3 -4 1.97 0.86
17 3 -4 1.32 0.86
-17 20 4 2.23 0.88
3 17 4 1.53 0.81
20 -3 4 0.76 0.9
-20 17 4 0.78 0.84
-17 20 -4 1.76 0.81
3 -20 4 1.71 0.78
17 -20 -4 0.6 0.89
-17 -3 4 -0.2 0.53
-3 -17 -4 1.32 0.8
-20 3 -4 1.22 0.76
20 -17 4 1.67 0.92
20 -3 -4 0.27 0.85
17 3 4 1.08 0.84
17 3 4 0.65 0.79
-18 -2 -4 2.98 0.86
-20 2 4 2.86 0.92
-18 20 4 4.16 0.95
-2 -18 4 3 0.87
2 -20 -4 2.66 0.89
18 -20 4 2.04 0.88
2 18 4 2.03 0.77
20 -18 -4 1.51 0.78
18 2 -4 3.26 0.91
-20 18 -4 2.57 0.86
20 -2 4 2.32 0.84
18 -20 -4 1.76 0.84
20 -2 -4 2.51 0.9
18 2 4 2.11 0.8
20 -18 4 1.92 0.93
-20 2 -4 0.75 0.72
2 -20 4 1.29 0.74
-18 -2 4 1.39 0.82
-18 20 -4 2.51 0.8
-20 18 4 1.75 0.85
-2 -18 -4 1.07 0.78
18 2 4 1.17 0.79
19 -20 4 0.36 0.83
1 -20 -4 1.13 0.79
-1 -19 4 1.52 0.76
20 -1 4 0.88 0.76
19 1 -4 1.67 0.81
-20 19 -4 0.75 0.78
20 -19 -4 0.38 0.71
-19 -1 -4 2.53 0.79
-19 20 4 1.65 0.81
-20 1 4 1.12 0.84
-19 20 -4 1.61 0.76
19 1 4 0.72 0.75
19 1 4 2.45 0.81
20 -1 -4 1.83 0.82
-20 1 -4 1.47 0.74
20 -19 4 1.2 0.83
-19 -1 4 1.9 0.83
19 -20 -4 0.74 0.83
1 -20 4 0.81 0.7
-1 -19 -4 1.5 0.79
-20 19 4 1.36 0.79
-20 20 -4 0.76 0.66
0 -20 4 0.3 0.61
20 0 4 1.64 0.76
-20 0 4 0.91 0.77
20 -20 -4 0.59 0.68
-20 0 -4 0.69 0.67
-20 20 4 0.94 0.73
20 -20 4 0.26 0.77
0 -20 -4 -0.05 0.73
20 0 4 0.15 0.7
20 0 -4 0.28 0.67
-11 -10 -4 6.44 0.97
21 -10 4 8.95 1.22
21 -11 -4 5.2 0.98
-21 11 -4 5.82 0.97
10 11 4 8.41 1.12
10 -21 -4 7.46 1.1
-21 10 4 6.38 1.1
-10 -11 4 6.88 1.07
-10 -11 -4 5.12 0.89
-21 10 -4 7.34 0.99
11 -21 -4 8.42 1.14
-11 -10 4 6.34 1
11 10 4 4.86 0.89
-21 11 4 5.72 1.02
-11 21 -4 4.63 1.01
21 -10 -4 6.94 1.02
12 9 -4 4.17 0.94
9 -21 -4 4.99 1
9 12 4 5.78 1
-12 -9 -4 3.73 0.85
-12 21 4 2.69 0.92
21 -9 4 6.74 1.08
-21 9 4 5.08 1.04
-21 12 -4 4.77 0.92
-9 -12 4 5.56 0.99
-9 -12 -4 3.69 0.84
21 -9 -4 4.25 0.83
21 -12 4 4.52 1
12 9 4 5.44 0.91
-21 9 -4 4.4 0.85
12 9 4 7.43 1.05
-12 21 -4 3.06 0.92
12 -21 -4 7.52 1.13
-21 12 4 3.85 0.92
-12 -9 4 5.58 0.96
-21 8 4 11.85 1.68
8 -21 -4 11.46 1.27
-13 21 4 7.22 1.19
-8 -13 4 9.97 1.44
13 8 -4 10.03 1.48
-13 -8 -4 9.78 1.43
-21 13 -4 10.35 1.46
8 13 4 13.7 1.33
21 -8 4 9.89 1.47
21 -13 4 11.07 1.53
13 8 4 9.61 1.42
-13 21 -4 10.42 1.53
-13 -8 4 7.55 1.11
13 8 4 10.4 1.37
13 -21 -4 12.51 1.68
-21 8 -4 9.66 1.3
-8 -13 -4 9.62 1.13
21 -8 -4 7.29 1.08
14 -21 4 2.56 0.85
21 -7 4 4.19 0.91
-21 7 4 4.52 0.97
14 7 -4 3.13 0.92
-14 21 4 3.57 0.95
-21 14 -4 2.93 0.83
7 -21 -4 3.56 0.88
-14 -7 -4 5.77 0.94
7 14 4 4.74 0.97
-7 -14 4 3.81 0.88
14 7 4 2.99 0.81
-14 21 -4 5.54 1.05
-21 7 -4 5.24 0.9
14 7 4 4.38 0.93
14 -21 -4 5.13 1.09
-14 -7 4 4 0.88
21 -14 4 6.41 1.08
-7 -14 -4 2.93 0.83
21 -7 -4 5.18 0.94
21 -6 4 0.5 0.71
-15 21 4 1.77 0.85
15 6 -4 2.08 0.93
-6 -15 4 1.41 0.76
-15 -6 -4 0.94 0.75
6 -21 -4 1.15 0.78
-21 6 4 1.88 0.87
15 -21 4 0.53 0.84
-21 15 -4 -0.03 0.66
6 15 4 0.32 0.76
21 -6 -4 1.66 0.85
-6 -15 -4 -0.28 0.51
15 6 4 0.64 0.73
15 6 4 0.05 0.75
-15 21 -4 1.23 0.8
6 -21 4 0.87 0.67
-21 6 -4 1.05 0.73
15 -21 -4 -0.14 0.81
21 -15 4 0.33 0.79
-15 -6 4 -0.26 0.57
-16 -5 -4 7.98 1.01
16 -21 4 4.21 0.98
-21 5 4 8.53 1.13
-16 21 4 5.12 0.99
5 -21 -4 4.5 0.91
-5 -16 4 5.61 0.91
16 5 -4 6.99 0.98
21 -5 4 3.42 0.88
5 16 4 6.14 0.97
-16 21 -4 8.23 1.27
16 5 4 7.25 0.98
16 -21 -4 6.77 1.1
-21 16 4 4.97 0.98
5 -21 4 6.39 0.95
21 -5 -4 10.04 1.39
16 5 4 7.43 1.07
21 -16 4 10.82 1.2
-21 5 -4 7.82 1.01
-5 -16 -4 9.06 1.08
-17 21 4 9.8 1.45
4 -21 -4 7.34 1.07
17 4 -4 11.66 1.24
-17 -4 -4 9.86 1.4
-4 -17 4 11.59 1.19
-21 4 4 9.91 1.22
17 -21 4 7.08 1.13
4 17 4 7.59 1.06
21 -4 4 7.25 1.12
-21 4 -4 7.45 1.02
-4 -17 -4 8.69 1.27
-17 21 -4 9.38 1.27
17 -21 -4 7.78 1.15
21 -4 -4 10.76 1.16
17 4 4 8.33 1.05
21 -17 4 10.87 1.4
-21 17 4 8.12 1.34
17 4 4 5.91 0.98
4 -21 4 5.01 0.91
-21 18 -4 -0.48 0.65
-21 3 4 1.49 0.77
21 -3 4 0.19 0.71
-18 21 4 0.75 0.73
3 18 4 0.42 0.67
-18 -3 -4 1.58 0.77
18 3 -4 1.25 0.75
-3 -18 4 0.28 0.68
18 -21 4 0.7 0.69
3 -21 -4 0.08 0.72
18 -21 -4 0.28 0.78
-18 21 -4 0.77 0.72
-3 -18 -4 1.13 0.72
21 -3 -4 0.78 0.81
-21 3 -4 0.97 0.69
18 3 4 1.26 0.66
3 -21 4 0.84 0.65
18 3 4 0.36 0.71
21 -18 4 1.28 0.8
-21 18 4 1.26 0.77
18 3 4 0.91 0.72
2 -21 -4 4.87 0.93
-19 -2 -4 4.79 0.82
-19 21 4 5.57 0.91
-21 19 -4 3.56 0.8
19 -21 4 5.56 0.96
21 -2 4 6.31 0.93
19 2 -4 4.64 0.85
-2 -19 4 3.05 0.76
-21 2 4 5.29 0.92
21 -2 4 4.15 0.8
19 2 4 4.23 0.85
-2 -19 -4 4.45 0.83
2 -21 4 3.14 0.72
-21 19 4 4.6 0.84
19 2 4 6.3 0.9
-21 2 -4 4.24 0.73
19 -21 -4 4.39 0.91
21 -19 4 4.93 0.9
21 -2 -4 7.15 1.03
-19 21 -4 4.86 0.84
-21 1 4 0.94 0.68
-1 -20 4 0 0.59
20 1 -4 1.1 0.72
21 -1 4 0.04 0.7
-21 20 -4 0.68 0.62
1 -21 -4 0.57 0.72
-20 21 4 1.18 0.74
21 -1 4 1.02 0.73
20 -21 4 1.07 0.83
-20 -1 -4 0.94 0.66
20 1 4 1.05 0.73
-1 -20 -4 0.68 0.77
20 -21 -4 -0.12 0.49
1 -21 4 0.58 0.58
-21 1 -4 0.84 0.6
21 -20 4 1.1 0.73
21 -1 -4 1.09 0.74
-21 20 4 0.84 0.64
-20 21 -4 0.5 0.6
20 1 4 0 0.66
-21 21 -4 7.48 1.1
-21 21 4 7.95 1.16
21 0 -4 9.29 1.32
21 0 4 9.94 1.37
21 -21 4 9.89 1.3
-21 0 -4 7.45 1.01
0 -21 -4 8.69 1.11
-22 11 4 3.79 0.9
11 11 4 3.88 0.89
-11 -11 4 4.46 0.88
-11 -11 -4 4.07 0.78
11 -22 -4 5 0.95
22 -11 4 3.84 0.91
-22 11 -4 5.46 0.89
-22 12 -4 0.67 0.72
22 -10 4 -0.11 0.69
-10 -12 4 0.95 0.71
-12 -10 -4 0.3 0.59
10 -22 -4 0.2 0.76
-22 10 4 0.34 0.81
10 12 4 -0.14 0.69
12 10 -4 0.44 0.63
-22 12 4 0.25 0.73
12 -22 -4 0.17 0.78
-22 10 -4 -0.02 0.66
-12 22 -4 -0.41 0.61
12 10 4 -0.26 0.61
12 10 4 -0.19 0.75
-12 -10 4 0.73 0.7
22 -12 4 1.35 0.78
22 -10 -4 0.35 0.64
-10 -12 -4 -0.34 0.63
9 13 4 4.49 0.88
-22 13 -4 3.03 0.81
-13 -9 -4 3.24 0.73
13 9 -4 2.68 0.78
22 -9 4 4.28 0.84
-22 9 4 4.58 0.94
-9 -13 4 5.17 0.86
9 -22 -4 4.86 0.89
-13 22 4 3.03 0.81
22 -9 -4 4.18 0.81
-13 22 -4 4.31 0.84
-13 -9 4 5.25 0.82
-9 -13 -4 5.72 0.87
13 9 4 3.14 0.77
22 -13 4 6.58 0.98
13 -22 -4 7.31 1.06
13 9 4 7.02 1.02
-22 14 -4 2.7 0.75
-22 8 4 4.84 0.93
-14 22 4 2.42 0.79
-14 -8 -4 4.14 0.79
8 -22 -4 4.3 0.87
14 8 -4 3.15 0.8
8 14 4 4.21 0.84
-8 -14 4 4.22 0.85
22 -8 4 4.45 0.85
14 8 4 6.44 0.94
-14 -8 4 3.21 0.76
-14 22 -4 5.42 0.9
14 8 4 3.91 0.82
22 -14 4 4.67 0.9
-8 -14 -4 4.2 0.8
22 -8 -4 3.6 0.82
14 -22 -4 5.09 0.99
-22 8 -4 4.91 0.82
7 -22 -4 1.49 0.74
-22 15 -4 0.39 0.65
-7 -15 4 1.53 0.68
15 -22 4 -0.06 0.64
-15 -7 -4 1.08 0.67
-15 22 4 1.27 0.79
22 -7 4 0.91 0.68
-22 7 4 2.16 0.8
15 7 -4 0.61 0.7
7 15 4 1.07 0.7
15 7 4 2.61 0.82
-15 22 -4 1.41 0.73
22 -15 4 3.66 0.88
15 7 4 1.56 0.7
15 -22 -4 3.03 0.84
22 -7 -4 2.29 0.75
-22 7 -4 2.46 0.7
-16 -6 -4 4.77 0.82
-22 6 4 6.81 0.94
16 6 -4 5.06 0.86
6 16 4 4.58 0.86
16 -22 4 3.05 0.83
-6 -16 4 4.46 0.82
6 -22 -4 3.04 0.81
-16 22 4 4.38 0.88
22 -6 4 3.27 0.82
16 6 4 4.82 0.86
22 -6 -4 8 0.98
-16 22 -4 6.39 0.93
-6 -16 -4 4.88 0.88
16 -22 -4 5.17 0.92
-22 6 -4 3.61 0.75
22 -16 4 5.55 0.95
16 6 4 3.68 0.77
-17 22 4 4.1 0.86
17 -22 4 2.86 0.75
22 -5 4 2.77 0.82
5 -22 -4 2.53 0.77
5 17 4 2.74 0.75
-17 -5 -4 5.8 0.87
17 5 -4 5.3 0.9
-5 -17 4 3.84 0.77
-22 5 4 4.22 0.84
-17 22 -4 3.84 0.8
-5 -17 -4 3.02 0.77
22 -5 -4 4.13 0.87
17 -22 -4 3.27 0.83
17 5 4 2.55 0.76
-22 5 -4 2.15 0.69
22 -17 4 4.72 0.87
17 5 4 2.69 0.71
-18 -4 -4 1.22 0.68
18 -22 4 0.66 0.67
4 18 4 0.59 0.57
-18 22 4 0.79 0.71
22 -4 4 0.16 0.46
22 -4 4 0.18 0.66
-22 4 4 1.22 0.72
-4 -18 4 0.52 0.61
18 4 -4 0.15 0.7
4 -22 -4 0.41 0.67
18 4 4 1.02 0.63
-4 -18 -4 1.29 0.69
-18 22 -4 2.04 0.72
18 -22 -4 1.05 0.74
-22 4 -4 0.96 0.62
18 4 4 1.06 0.66
22 -4 -4 1.5 0.79
-22 4 -4 -0.03 0.43
22 -18 4 2.63 0.78
-3 -19 4 4.38 0.78
19 3 -4 4.69 0.86
-22 3 4 4.74 0.84
22 -3 4 3.26 0.75
-19 -3 -4 5.87 0.86
3 -22 -4 3.79 0.82
19 -22 4 4.08 0.78
22 -3 4 3.86 0.67
-19 22 4 6.51 0.9
22 -3 -4 5.75 0.85
22 -19 4 6.01 0.94
-22 19 4 3.7 0.67
-19 22 -4 3.65 0.73
19 3 4 3.9 0.77
-3 -19 -4 4.49 0.81
19 -22 -4 4.48 0.82
20 -22 4 -0.01 0.42
2 -22 -4 0.39 0.72
20 2 -4 1.8 0.81
-20 -2 -4 1.3 0.66
22 -2 4 0.72 0.53
22 -2 4 0.56 0.53
-22 2 4 1.17 0.63
-20 22 4 1.62 0.73
22 -2 -4 1.67 0.69
20 2 4 2.55 0.74
-2 -20 -4 1.12 0.74
-20 22 -4 0.68 0.63
-22 20 4 0.15 0.5
22 -20 4 1.76 0.84
-11 -12 4 2.61 0.73
-12 -11 -4 2.43 0.66
23 -11 4 1.78 0.7
-23 11 4 3.03 0.78
-23 12 -4 2.99 0.78
11 -23 -4 1.94 0.75
11 12 4 3.56 0.77
12 -23 -4 3.65 0.84
23 -12 4 4.08 0.84
-23 11 -4 2.69 0.72
-11 -12 -4 2.61 0.68
-23 12 4 1.86 0.7
-12 -11 4 4.54 0.81
12 11 4 3.94 0.78
-10 -13 4 2.62 0.74
23 -10 4 1.49 0.64
-23 13 -4 2.2 0.73
-13 -10 -4 1.96 0.63
10 -23 -4 3.03 0.79
10 13 4 2.73 0.75
-23 10 4 2.66 0.81
-23 10 -4 2.53 0.7
23 -13 4 2.57 0.77
13 10 4 2.94 0.79
-10 -13 -4 1.2 0.62
13 -23 -4 3.49 0.8
-13 -10 4 2.97 0.73
-9 -14 4 1.65 0.67
9 -23 -4 1.1 0.68
23 -9 4 0.65 0.58
-14 -9 -4 0.88 0.59
9 14 4 0.95 0.64
14 9 -4 0.93 0.61
-23 14 -4 0.92 0.67
-23 9 4 1.19 0.74
14 9 4 0.51 0.57
-14 -9 4 0.44 0.6
-23 9 -4 1.74 0.67
14 -23 -4 1.43 0.69
23 -14 4 1.69 0.73
-14 23 -4 0.66 0.66
14 9 4 2.08 0.75
-9 -14 -4 0.37 0.56
23 -9 -4 0.22 0.49
-8 -15 4 1.52 0.64
8 15 4 2.41 0.67
15 8 -4 1.33 0.66
-15 23 4 1.62 0.65
-23 8 4 2.28 0.72
23 -8 4 1.97 0.71
-15 -8 -4 1.44 0.6
8 -23 -4 1.61 0.72
23 -8 -4 2.4 0.66
15 -23 -4 1.18 0.68
-8 -15 -4 2.13 0.65
15 8 4 3.36 0.81
23 -15 4 3.49 0.79
15 8 4 1.87 0.66
-15 23 -4 2.75 0.75
-23 8 -4 3 0.64
-23 7 4 2.5 0.74
16 7 -4 0.62 0.63
7 -23 -4 1.56 0.7
-7 -16 4 1.16 0.66
-16 23 4 1.95 0.71
23 -7 4 2.11 0.75
7 16 4 1.33 0.64
-16 -7 -4 1.57 0.62
-7 -16 -4 0.99 0.64
16 -23 -4 0.99 0.71
16 7 4 0.95 0.73
23 -16 4 1.27 0.76
16 7 4 0.82 0.58
-23 7 -4 0.78 0.62
23 -7 -4 1.48 0.68
-16 23 -4 1.09 0.66
-17 23 4 0.32 0.66
17 6 -4 -0.15 0.64
-6 -17 4 0.7 0.62
23 -6 4 0.06 0.69
-17 -6 -4 0.73 0.61
-23 6 4 0.2 0.68
6 -23 -4 0.42 0.73
6 17 4 0.02 0.57
-6 -17 -4 -0.17 0.62
23 -17 4 0.34 0.76
17 6 4 0.63 0.58
-23 6 -4 0.02 0.56
17 -23 -4 -0.26 0.63
23 -6 -4 0.19 0.7
17 6 4 0.81 0.74
-17 23 -4 0.16 0.62
-18 23 4 2.2 0.75
23 -5 4 2.16 0.73
18 5 -4 1.89 0.72
-18 -5 -4 2.96 0.7
-5 -18 4 2.25 0.67
5 -23 -4 2.91 0.79
-23 5 4 1.63 0.72
18 5 4 0.13 0.44
18 -23 -4 0.94 0.68
-18 23 -4 0.44 0.62
18 5 4 1.47 0.64
-5 -18 -4 0.93 0.6
-23 5 -4 0.27 0.49
23 -18 4 2.13 0.81
23 -5 -4 1.58 0.74
-12 -12 -4 0.32 0.55
-12 -12 4 1 0.69
-24 12 -4 0.59 0.64
12 12 4 -0.05 0.64
12 -24 -4 0.7 0.68
24 -12 4 0.15 0.65
24 -11 4 2.02 0.64
-24 13 -4 2.82 0.68
-11 -13 4 1.62 0.7
-24 11 4 1.77 0.64
-13 -11 -4 1.94 0.62
11 13 4 2.24 0.66
11 -24 -4 2.43 0.75
24 -13 4 2.1 0.73
-13 -11 4 0.9 0.64
13 -24 -4 0.89 0.66
13 11 4 1.75 0.72
-11 -13 -4 0.53 0.47
-24 11 -4 1.21 0.61
-10 -14 4 0.02 0.6
-24 10 4 -0.19 0.67
10 -24 -4 0.08 0.69
10 14 4 0.79 0.61
24 -10 4 0.28 0.64
-24 14 -4 0.18 0.56
-14 -10 -4 -0.42 0.57
-24 10 -4 0.68 0.6
24 -14 4 1.13 0.73
14 -24 -4 0.87 0.66
14 10 4 0.84 0.71
-14 -10 4 -0.51 0.54
24 -9 4 1.52 0.69
-9 -15 4 2.84 0.76
9 -24 -4 1.61 0.75
-15 -9 -4 2.11 0.65
-24 9 4 2.6 0.77
9 15 4 1.96 0.66
24 -15 4 3.59 0.86
15 -24 -4 2.49 0.75
15 9 4 2.86 0.78
-24 9 -4 2.06 0.66
-24 8 4 1.43 0.71
-24 8 -4 1.05 0.6
0 0 -5 0.14 0.37
-1 0 -5 2.05 0.58
0 -1 -5 1.37 0.87
-1 0 5 2.34 0.67
0 1 -5 1.62 0.35
0 -1 -5 2.16 0.54
1 -1 -5 1.84 0.44
1 0 -5 1.5 0.28
-1 0 -5 2.07 0.54
-1 0 -5 1.22 0.8
-1 1 -5 2.02 0.47
-1 -1 5 22.12 1.71
-1 -1 -5 20.03 1.7
1 -2 -5 22.39 1.63
-1 -1 -5 22.25 1.68
-2 1 -5 22.09 1.67
-2 1 5 22.53 1.75
-1 -1 5 23.18 1.87
2 -1 -5 21.07 1.51
1 -2 5 22.19 1.83
-1 -1 -5 21.57 2.05
-2 1 -5 21.03 1.65
1 -2 -5 23.81 2.07
-1 2 -5 20.25 1.56
2 -2 5 -0.16 0.48
0 -2 5 0.14 0.58
0 -2 5 1.06 0.48
2 -2 -5 1.86 0.94
-2 0 -5 1.27 0.73
-2 0 -5 0.63 0.58
0 -2 -5 1.64 0.86
-2 0 5 -0.03 0.45
0 -2 5 2.22 0.72
-2 0 5 1.22 0.62
-2 0 -5 1.02 0.53
-2 2 5 1.69 0.64
-2 2 -5 0.46 0.48
0 -2 -5 0.98 0.69
-2 2 -5 1.26 0.49
2 0 -5 0.38 0.39
0 -2 -5 1.27 0.54
-2 2 5 0.09 0.47
-2 -1 -5 12.62 1.12
-2 -1 -5 11.3 1.22
1 -3 -5 11.57 1.5
3 -2 -5 13.38 1.65
-2 -1 -5 11.09 1.38
2 1 -5 10.06 1.14
2 -3 5 9.72 1.35
-3 2 -5 10.7 1
-1 -2 5 9.98 1.3
-3 2 -5 11.55 1.13
-1 -2 5 11.55 1.33
-1 -2 5 11.13 1.12
-3 1 5 12.53 1.25
2 -3 5 12.07 1.25
-1 3 -5 13.83 0.94
1 -3 5 8.9 1.25
-3 1 -5 8.45 1.2
-2 -1 5 8.2 1.27
-1 -2 -5 11.04 1.06
-2 -1 5 11.46 1.18
-1 -2 -5 10.39 1.48
1 -3 5 11.52 1.21
-2 3 -5 9.76 0.95
1 2 -5 7.14 0.92
-3 2 5 9.8 1.2
-2 3 -5 9.19 0.81
3 -1 -5 7.18 0.94
-2 -1 5 10.95 1.28
-3 1 -5 9.75 1.06
-3 2 5 11.5 1.17
-3 1 -5 10.38 1.02
2 -3 -5 10.61 1.49
-1 -2 -5 9.78 1.09
-3 0 -5 4.14 0.75
3 0 -5 2.64 0.6
-3 0 5 4.56 0.88
0 -3 -5 4.41 0.89
0 -3 -5 3.75 0.65
-3 0 -5 4.26 0.94
-3 3 5 3.22 0.86
0 -3 -5 4.09 0.98
3 -3 -5 5.24 1.07
-3 3 -5 3 0.63
-3 3 -5 2.14 0.58
0 -3 5 3.35 0.6
0 -3 5 3.16 1
-3 0 -5 3.97 0.77
-3 0 5 2.65 0.81
-3 3 5 3.44 0.81
0 -3 5 4.47 0.85
-4 2 -5 24.41 1.86
2 2 -5 22.74 1.83
2 -4 5 23.6 2.08
-2 -2 -5 23.65 1.85
-2 4 -5 26.43 1.76
-2 4 -5 21.99 1.9
-2 -2 5 21.7 2.01
-4 2 -5 22.6 2.02
-2 -2 -5 24.14 2.1
-2 -2 -5 23.6 1.97
-2 -2 5 25.18 2.03
-4 2 5 21.58 2.03
-2 -2 5 26.12 1.99
-4 2 -5 22.15 1.74
-4 2 5 24.36 1.99
2 -4 5 24.85 1.98
2 -4 -5 23.58 2.19
-3 4 5 1.85 0.59
4 -3 -5 3.12 0.9
-1 -3 5 2.38 0.71
-4 3 -5 2.02 0.62
-3 -1 -5 1.82 0.82
3 1 -5 1.64 0.62
-3 -1 -5 2.06 0.71
1 -4 -5 2.72 0.94
-4 1 5 2.66 0.83
-4 1 5 0.61 0.58
-1 4 -5 1.37 0.55
-3 -1 -5 3.35 0.72
-4 3 -5 1.14 0.5
-1 -3 5 2.86 0.83
-3 4 5 1.72 0.81
1 -4 -5 2.52 0.85
-1 -3 5 2.18 0.94
-4 1 5 2.1 0.81
3 -4 5 2.01 0.72
1 -4 5 3.1 0.84
-1 -3 -5 3.35 0.69
-4 3 5 2.45 0.82
-4 3 5 2.95 0.84
-3 4 -5 3.57 0.66
1 -4 5 2.36 0.94
1 3 -5 3.29 0.68
-1 -3 -5 2.89 0.97
-3 -1 5 3.63 0.85
-4 1 -5 2.99 0.85
-3 -1 5 3.88 0.9
-3 -1 5 3.23 0.96
-4 1 -5 2.36 0.66
3 -4 -5 2.79 0.98
-3 4 -5 2.95 0.64
-4 3 5 2.62 0.55
-1 -3 -5 2.83 0.82
-4 1 -5 2.43 0.72
4 -1 -5 2.46 0.6
4 -4 5 45.43 3.33
-4 0 -5 49.57 3.33
-4 4 5 46.37 3.48
4 0 -5 45.63 3.28
-4 4 -5 48.06 3.29
4 -4 -5 50.03 3.66
0 4 -5 48.25 3.28
-4 4 -5 47.66 3.35
-4 4 5 48.33 3.39
0 -4 -5 45.02 3.6
-4 0 5 42.28 3.43
0 -4 -5 46.92 3.38
0 -4 5 50.01 3.47
-4 0 -5 50.17 3.47
-4 0 -5 47.31 3.29
0 -4 5 46.32 3.46
-4 4 5 39.12 3.21
-4 0 5 50.18 3.46
0 -4 -5 46.84 3.29
0 -4 5 41.32 3.2
2 -5 -5 88.03 6.05
-5 2 5 85.71 5.99
-2 5 -5 82.24 5.87
3 2 -5 83.97 5.84
-2 5 -5 75.47 5.74
5 -3 -5 96.77 6.22
-3 5 5 85.5 5.86
-3 -2 -5 84.76 5.92
3 -5 5 94.48 6
-5 3 -5 92.52 5.91
-3 -2 -5 89.17 6.09
-5 2 5 97.19 6.02
-3 5 5 85.22 6.03
-5 2 5 80.94 5.99
-2 -3 5 81.98 5.96
-2 -3 5 94.41 6.04
-2 -3 5 83.96 6.01
2 -5 -5 87.88 6.17
-3 -2 -5 86.36 5.89
-5 3 5 88.85 6.02
-2 -3 -5 89.38 6.18
-5 2 -5 78.02 5.8
-5 2 -5 78.51 5.96
-5 3 5 84.64 6.04
-2 -3 -5 86.12 5.98
2 3 -5 88.3 5.88
3 -5 -5 88.83 6.19
-2 -3 -5 91.84 5.94
2 -5 5 87.95 6.06
-3 -2 5 95.84 6.09
-5 2 -5 90.92 5.94
5 -2 -5 79.65 5.85
2 -5 5 92.08 6.08
-3 -2 5 93.69 6.07
-3 5 -5 90.79 5.86
-3 5 -5 89.82 5.95
-3 -2 5 82.51 6.05
-4 5 5 41.22 3.24
-1 5 -5 38.37 2.96
4 1 -5 39.17 2.94
5 -4 -5 46.48 3.39
-1 -4 5 35.89 3
-1 -4 5 43.4 3.17
1 -5 -5 39.24 3.35
-5 1 5 46.41 3.19
1 -5 -5 38.85 3.15
-5 4 -5 45.18 3.06
-5 4 -5 41.08 3.01
-1 -4 5 40.66 3.19
-4 -1 -5 43.77 3.03
-1 5 -5 42.85 3
-5 1 5 39 3.17
4 -5 5 41.37 3.07
-4 5 5 38.43 2.96
-4 -1 -5 42.77 3.23
-4 -1 -5 43.36 3.03
-5 1 -5 45.66 3.33
1 -5 5 50.24 3.45
5 -1 -5 42.31 3.18
-5 4 5 44.76 3.43
-1 -4 -5 46.22 3.38
-5 1 -5 49.18 3.3
-4 5 -5 47.32 3.29
-4 -1 5 44.52 3.41
-5 1 -5 42.66 3.21
4 -5 -5 45.6 3.59
-5 4 5 39.97 3.17
-1 -4 -5 44.13 3.25
-4 -1 5 49.56 3.46
-4 -1 5 44.85 3.41
-5 4 5 47.03 3.37
1 4 -5 45.96 3.28
-1 -4 -5 44.25 3.63
-4 5 -5 46.17 3.22
1 -5 5 45.1 3.4
-5 0 -5 16.12 1.53
-5 5 5 14.43 1.73
0 -5 5 15.49 1.69
5 -5 -5 16.22 1.92
5 0 -5 15.28 1.43
-5 5 -5 18.52 1.57
0 -5 -5 14.97 1.51
-5 0 5 17.34 1.9
5 -5 5 12.89 1.43
0 -5 -5 16.04 1.71
-5 0 -5 16.6 1.48
-5 5 5 17.47 1.64
-5 0 5 15.77 1.75
-5 5 5 15.52 1.5
0 5 -5 16.14 1.51
0 -5 -5 14.83 2.09
-5 5 -5 19.31 1.6
0 -5 5 15.63 1.74
-5 0 -5 16.41 1.69
0 5 5 16.43 1.68
3 -6 5 1.08 0.84
-6 3 -5 0.85 0.79
-3 -3 5 0.1 0.66
-3 6 -5 0.19 0.56
-3 6 -5 0.63 0.62
-6 3 5 0.76 1.05
-6 3 5 -0.09 0.49
6 -3 -5 0.45 1.03
-3 6 5 0.13 0.68
-6 3 -5 0.02 0.55
-3 -3 -5 1.34 0.99
3 3 -5 0.61 0.68
-6 3 -5 -0.09 0.38
6 -3 -5 0.57 0.64
-3 -3 -5 0.59 0.75
-6 3 5 -0.22 0.83
-3 6 5 0.37 0.74
-6 3 5 0.64 0.79
-3 -3 5 -0.3 0.84
-3 -3 5 0.18 0.91
3 -6 -5 -0.53 1.01
-3 -3 -5 0.58 0.75
-6 2 5 9.36 1.51
-2 6 -5 8.71 1.16
-4 6 5 9.63 1.47
4 2 -5 10.5 1.28
-6 4 -5 10.63 1.3
-2 -4 5 10.55 1.47
-6 4 -5 9.47 1.24
2 -6 -5 10.5 1.3
4 -6 5 9.68 1.46
-2 6 -5 10.84 1.23
-4 -2 -5 9.64 1.27
-4 -2 -5 9.71 1.27
-6 2 5 10.01 1.72
-4 -2 -5 9.4 1.47
-2 -4 5 7.89 1.33
2 -6 -5 10.34 1.69
-6 2 5 9.92 1.42
-2 -4 5 9.41 1.37
-4 6 5 10.59 1.19
6 -4 -5 11.04 1.64
-4 -2 5 8.59 1.34
4 -6 -5 9.13 1.5
-6 4 5 7.46 1.23
-4 6 -5 8.76 1.22
-4 6 -5 9.59 1.1
-6 4 5 8.8 1.57
2 4 -5 8.13 1.14
2 -6 5 7.07 1.3
2 -6 5 8.79 1.42
-2 -4 -5 7.51 1.58
6 -2 -5 7.44 1.11
-4 -2 5 10.49 1.52
-2 6 5 10.27 1.38
-2 -4 -5 8.33 1.17
-6 2 -5 10.71 1.36
-6 2 -5 5.69 0.88
-4 -2 5 7.36 1.37
-2 -4 -5 8.36 1.28
5 1 -5 58.13 4.06
1 -6 -5 62.09 4.34
-6 1 5 58.39 4.34
-5 6 5 57.01 4.16
-1 -5 5 62.78 4.33
-6 5 -5 59.22 4.16
-1 6 -5 61.57 4.15
-5 6 5 61.74 4.39
-5 -1 -5 58.71 4.17
-6 5 -5 66.66 4.23
-5 -1 -5 59.08 4.17
-1 6 -5 57.41 4.1
-5 -1 -5 49.08 4.25
1 5 5 56.04 4.22
-1 -5 5 58.18 4.23
1 -6 -5 57.97 4.59
6 -5 -5 62.09 4.46
5 -6 5 48.47 4.11
-6 1 5 60.63 4.3
-6 5 5 60.58 4.36
-6 1 -5 60.46 4.3
1 -6 5 62.74 4.47
-6 5 5 49.49 4.2
1 -6 5 62.22 4.44
6 -1 -5 59.73 4.2
-1 -5 -5 61.16 4.82
-5 6 -5 62.95 4.3
-5 -1 5 66.29 4.54
-6 5 5 60.49 4.43
-1 -5 -5 59.69 4.28
-6 1 -5 56.92 4.2
-1 -5 -5 61.91 4.4
-5 6 -5 56.98 4.2
1 5 -5 64.88 4.27
-5 -1 5 57.47 4.39
5 -6 -5 62.24 4.62
-1 6 5 65.78 4.43
-5 -1 5 62.78 4.41
-6 0 -5 2.65 0.89
-6 6 5 0.88 0.87
6 -6 -5 1.64 1.1
0 -6 5 2.41 0.98
-6 6 -5 2.04 0.78
-6 6 -5 1.84 0.79
-6 6 5 1.74 0.77
-6 6 5 1.91 0.94
-6 0 -5 1.87 1.09
0 6 5 1.57 0.89
6 0 -5 1.91 0.65
-6 0 5 1.91 1.1
0 -6 -5 2.2 1.12
0 -6 -5 2.24 1.37
0 6 -5 2.26 0.83
0 -6 5 1.96 1.1
-6 0 -5 2.33 0.91
-6 0 5 2.14 1.04
-3 7 -5 22.26 2.02
-7 3 5 25.78 2.31
-7 4 -5 23.71 2.09
4 -7 5 29.33 2.47
-7 4 -5 27.55 2.27
-4 7 5 26.96 2.5
3 -7 -5 29.64 2.48
-7 3 5 25.83 2.46
-4 7 5 25.73 2.16
7 -4 -5 24.73 2.03
7 -4 -5 30.24 2.6
-7 3 5 27.15 2.39
-3 -4 5 24.53 2.37
-4 -3 -5 25.37 2.23
-3 7 -5 27.53 2.18
-3 -4 5 24.74 2.26
-3 -4 5 28.74 2.39
-4 -3 -5 24.38 2.21
-4 -3 -5 21.58 2.54
3 -7 -5 25.32 2.73
4 3 -5 25.91 2.1
3 -7 5 38.55 2.97
3 4 -5 36.1 2.7
-7 4 5 35.81 2.82
-3 7 5 36.86 2.83
-3 7 5 32.44 2.88
-4 -3 5 36.17 2.9
7 -3 -5 37.05 3.08
-4 -3 5 28.99 2.78
-4 -3 5 35.84 2.89
-3 -4 -5 32.76 2.74
-3 -4 -5 34.59 2.79
-4 7 -5 38.08 2.75
-3 -4 -5 34.99 3.28
-7 4 5 34.88 2.86
-7 4 5 36.91 3.07
4 -7 -5 34.01 3.18
7 -3 -5 31.52 2.58
-7 3 -5 36.96 2.78
-5 7 5 3.05 1.04
5 -7 5 1.49 0.85
2 -7 -5 2.68 1.32
-2 -5 5 0.12 0.94
2 -7 -5 3.18 1.19
-7 5 -5 2.48 0.8
-7 2 5 3.5 1.15
-2 7 -5 3.5 0.84
5 2 -5 2.76 0.79
-2 -5 5 2.85 1.07
2 5 5 3.08 0.89
-7 2 5 3.25 1.28
-2 -5 5 3.27 1.03
7 -5 -5 3.87 1.22
-7 5 -5 3.61 0.98
-2 7 -5 2.06 0.75
-5 7 5 3.08 0.91
-7 2 5 1.96 0.77
-5 -2 -5 3.86 1
-5 -2 -5 3.1 1.01
5 -7 -5 2.94 1.28
-2 7 5 0.06 0.52
-7 2 -5 0.02 0.54
-2 7 5 0.32 0.87
-7 5 5 -0.12 0.71
7 -2 -5 1.31 0.62
-5 7 -5 0.83 0.67
-7 5 5 0.22 0.8
-7 5 5 1.55 0.91
-2 -5 -5 1.51 0.72
-5 -2 5 1.62 1.12
-7 2 -5 0.9 1.11
-5 -2 5 1.14 0.91
2 -7 5 0.27 0.92
-7 5 5 1.4 0.93
-2 -5 -5 1.54 0.97
2 5 -5 2.36 0.75
-5 7 -5 1.89 0.85
2 -7 5 1 0.99
-7 2 -5 2.28 0.96
-2 -5 -5 2.82 1.51
-5 -2 5 1.16 0.97
6 1 -5 81.94 5.69
-6 7 5 88.23 6
7 -6 -5 85.41 6.09
1 -7 -5 89.6 5.99
-7 6 -5 80.92 5.78
-7 6 -5 91.2 5.83
-6 -1 -5 84.2 5.8
-1 -6 5 84.95 5.96
1 -7 -5 77.71 6.25
-1 7 -5 83.77 5.72
-7 1 5 79.94 5.93
1 6 5 83.83 5.87
-1 -6 5 82.03 5.86
-7 1 5 88.49 6.04
-6 -1 -5 82.19 5.8
-1 7 -5 81.04 5.72
-6 7 5 74.71 5.77
-6 7 -5 99.34 6.11
-7 6 5 86.29 6.16
-6 -1 5 91.55 6.14
-1 7 5 92.41 6.13
-7 1 -5 83.72 6.16
-7 1 -5 88.31 6.05
1 6 -5 87.24 5.95
-1 -6 -5 90.92 6.15
1 -7 5 87.04 6.2
-6 -1 5 88.88 6.19
1 -7 5 81.21 6.06
-6 7 -5 79.62 5.93
7 -1 -5 80.09 5.86
-7 6 5 87.09 6.08
-1 -6 -5 78.35 6.45
-6 -1 5 88.2 6.18
-1 -6 -5 88.4 6.04
6 -7 -5 90.18 6.36
0 -7 -5 21.32 2.14
0 -7 5 19.57 2.15
-7 0 5 19.09 2.11
-7 0 -5 18.92 2.13
0 7 -5 20.36 1.85
-7 0 5 19.17 2.12
-7 7 5 19.55 1.91
-7 0 -5 19.05 1.9
0 7 5 21.73 2.17
0 -7 5 18.64 1.96
-7 7 5 20.45 2.29
7 0 -5 19.94 1.79
0 -7 -5 18.25 2.55
7 -7 -5 20.62 2.36
-7 7 -5 21.15 1.99
-7 7 -5 18.52 1.78
-4 8 5 79.09 5.54
8 -4 -5 74.5 5.53
4 -8 -5 73.16 5.52
-4 8 5 73.07 5.31
-4 8 5 75.04 5.36
4 4 -5 80.66 5.26
-4 -4 -5 69.45 5.35
-4 -4 5 76.82 5.46
-8 4 5 75.3 5.43
-4 -4 -5 77.14 5.3
-8 4 -5 71.14 5.43
-4 -4 5 74.41 5.42
-8 4 5 77.17 5.36
-8 4 -5 77.13 5.38
4 -8 5 74.04 5.55
4 -8 -5 73.41 5.77
-8 4 5 75.58 5.53
-4 8 -5 83.62 5.37
-8 5 -5 12.58 1.51
-8 5 -5 12.48 1.61
-5 -3 -5 11.06 1.55
-5 -3 -5 11.7 1.56
-8 3 5 14.21 1.71
-8 5 -5 12.64 1.75
-3 8 -5 13.1 1.52
-3 -5 5 11.78 1.7
5 3 -5 13.37 1.49
-5 8 5 12.66 1.61
8 -5 -5 9.39 1.21
8 -5 -5 12.43 1.82
-8 3 5 11.95 1.85
-3 -5 5 11.22 1.7
-3 8 -5 14.21 1.51
3 -8 -5 13.06 1.86
-5 8 5 11.3 2
3 -8 -5 12.84 2.02
-8 3 5 11.99 1.65
-8 5 5 14.15 2.03
-3 -5 -5 9.43 1.79
-8 5 5 12.45 1.84
-3 8 5 12.95 1.66
5 -8 -5 13.78 2.21
8 -3 -5 10.79 1.82
-5 -3 5 14.32 1.78
-5 -3 5 12.15 1.69
-8 5 5 13.18 1.66
-3 -5 -5 13.97 1.63
-5 8 -5 16.85 1.78
-8 3 -5 11.76 1.88
3 5 -5 14.05 1.49
-3 -5 -5 12.78 1.65
-5 -3 5 13.43 1.9
-3 8 5 12.81 1.68
3 -8 5 13.56 1.83
-8 3 -5 14.84 1.63
-2 -6 5 67.14 5.21
8 -6 -5 62.35 5.38
-8 6 -5 79.66 5.31
-8 2 5 71.21 5.34
-2 -6 5 73.16 5.38
2 -8 -5 83.89 5.49
2 6 5 74.5 5.29
-6 -2 -5 70.02 5.22
-6 8 5 77.73 5.45
-2 8 -5 78.23 5.19
-2 8 -5 75.98 5.17
2 -8 -5 66.34 5.73
-6 -2 -5 75.56 5.26
-8 2 5 80.49 5.46
-8 6 -5 74.56 5.26
6 2 -5 72.73 5.09
2 6 -5 74.22 4.94
-6 -2 5 69.99 5.11
6 -8 -5 71.96 5.45
-2 8 5 76.72 5.09
-8 6 5 69.98 5.14
-8 6 5 71.1 5.07
2 -8 5 69.63 5.23
-8 2 -5 63.94 5.09
-6 -2 5 68.45 5.15
-6 8 -5 78.85 5.07
-2 -6 -5 71.41 4.99
-6 -2 5 68.51 5.15
-2 -6 -5 64.12 5.45
-2 -6 -5 67.1 5.09
-8 2 -5 71.59 5.04
1 -8 -5 19.2 2.77
-1 8 -5 22.6 2.07
-8 1 5 22.59 2.32
-8 7 -5 24.69 2.3
-8 1 5 23.2 2.27
-7 8 5 23.58 2.36
-1 8 -5 17.79 1.93
1 -8 -5 24.3 2.38
1 7 5 23.4 2.15
-1 -7 5 19.65 2
7 1 -5 23.32 1.97
-7 -1 -5 23.56 2.09
-1 -7 5 20.54 2.24
-1 -7 -5 19.81 2.79
1 -8 5 21.7 2.35
-1 -7 -5 24.9 2.27
-8 7 5 19.5 2.25
-8 1 -5 24.11 2.35
8 -1 -5 19.13 1.86
-7 -1 5 21.52 2.34
-8 1 -5 25.29 2.18
-1 8 5 25.8 2.24
7 -8 -5 21.01 2.78
-8 7 5 22.77 2.15
-7 -1 5 23.17 2.25
1 7 -5 23.42 2.03
-1 -7 -5 22.82 2.14
-7 8 -5 25.7 2.32
-7 -1 5 21.96 2.29
0 8 -5 3.89 0.88
8 -8 -5 0.27 1.36
-8 8 5 3.26 1.15
-8 0 5 2.72 1.21
8 0 -5 2.54 0.76
-8 0 -5 2.81 1.01
-8 8 -5 4.08 1.12
0 -8 -5 2.56 1.36
0 8 5 2.28 1.03
-8 0 5 3.74 1.34
-8 0 -5 3.32 1.23
0 -8 5 2.37 1.22
0 -8 -5 1.63 1.57
0 -8 -5 3.19 0.93
5 4 -5 52.52 3.76
4 -9 -5 48.92 4.47
-4 -5 5 51.08 3.98
-9 4 5 51.5 3.98
-5 -4 -5 47.16 3.92
-5 9 5 56.61 4.17
-9 4 5 48.74 3.97
4 -9 -5 57.25 4.18
-9 4 5 56.38 4.27
-4 -5 5 52.69 4.02
-4 9 -5 57.47 3.93
-5 -4 -5 51.56 3.94
-9 5 -5 48.4 3.89
-4 9 -5 47.99 3.75
-9 5 -5 52.93 3.97
-9 5 -5 53.6 4.03
5 -9 -5 61.56 4.86
-9 5 5 63.36 4.73
-4 9 5 69.22 4.87
-4 9 5 62.96 4.72
-4 -5 -5 63.17 4.69
-4 -5 -5 60.81 4.7
4 5 -5 67.88 4.56
-5 -4 5 63.81 4.77
5 -9 -5 60.41 5.16
-5 9 -5 75.81 4.78
-9 4 -5 65.84 4.72
-9 5 5 61.02 4.72
-9 5 5 70.34 5.03
-5 -4 5 63.38 4.77
-9 4 -5 55.11 4.69
-6 9 5 49.45 3.89
-6 -3 -5 44.33 3.51
-3 9 -5 43.48 3.37
3 -9 -5 47.61 3.77
-3 -6 5 45.56 3.55
6 3 -5 49.33 3.39
-9 3 5 41.65 3.46
-3 -6 5 44.49 3.63
3 -9 -5 39.14 4.01
-3 9 -5 51 3.49
-9 3 5 48.77 3.77
-9 3 5 45.21 3.6
-9 6 -5 44.87 3.63
3 6 5 37.09 3.39
-9 6 -5 47.34 3.53
-3 9 5 40.68 3.51
-3 9 5 51.16 3.51
3 6 -5 51.94 3.35
6 -9 -5 39.51 4.04
-9 3 -5 41.09 3.55
-9 6 5 42.21 3.59
-9 6 5 40.14 3.58
-3 -6 -5 48.36 3.5
-9 6 5 46.45 3.5
-6 -3 5 42.28 3.49
-3 -6 -5 45.44 3.5
-9 3 -5 42.37 3.43
-9 7 -5 17.45 2
-7 -2 -5 12.16 1.68
-9 7 -5 15.94 2.02
2 -9 -5 12.29 2.22
-9 2 5 12.75 1.86
-2 -7 5 14.42 1.77
2 7 5 16.79 2.03
-2 9 -5 15.08 1.78
7 2 -5 17.04 1.58
2 -9 -5 17.28 2.14
-2 -7 5 15.63 1.96
-9 2 5 17.01 2.23
-7 9 5 17.53 2.12
-2 9 -5 14.64 1.78
-7 -2 5 12.5 1.79
-9 7 5 14.19 1.74
-9 2 -5 11.55 1.66
-9 2 -5 13.92 1.78
-2 -7 -5 14.2 1.84
2 7 -5 17.64 1.64
-2 -7 -5 14 1.7
-2 9 5 16.68 1.98
-9 7 5 13.05 1.99
-1 9 -5 9.05 1.29
1 -9 -5 4.3 1.42
-1 -8 -5 3.93 1.19
-9 8 5 1.33 0.95
-8 -1 5 0.05 1.37
-9 0 5 84.49 6.1
-9 9 5 83.42 6.12
-9 9 -5 73.37 5.97
-9 9 -5 89.32 6.12
0 9 -5 88.29 5.91
0 9 5 83.53 6.02
-9 0 -5 82.22 6
-10 5 5 14.26 1.95
-5 10 5 14.22 2.09
-10 5 5 12.81 2.01
-5 10 -5 15.42 1.97
5 5 -5 13.52 1.55
-5 10 5 11.27 1.81
-5 10 -5 10.92 1.65
-5 -5 5 13.39 1.91
-10 5 -5 14.89 1.95
6 4 -5 9.11 1.45
-4 10 -5 7.67 1.25
-10 4 5 9.42 1.8
-6 10 5 8.94 1.59
-4 -6 5 9.03 1.52
-10 6 -5 5.87 1.25
-10 4 5 7.38 1.31
-10 6 -5 13.04 1.77
-4 10 -5 9.69 1.44
-4 10 5 4.37 1.27
-4 10 5 7.59 1.35
-10 6 5 6.37 1.6
-6 -4 5 6.55 1.38
-6 10 -5 6.11 1.22
4 6 -5 6.42 1.09
-10 4 -5 7.16 1.43
-10 6 5 4.86 1.18
-10 3 5 18.16 2.19
-10 7 -5 18.35 2.03
-10 7 -5 13.31 2.02
7 3 -5 18.9 1.81
-3 -7 5 16.4 1.95
3 7 5 16.16 2.04
-3 10 -5 17.24 1.84
-3 10 -5 17.22 1.88
-7 10 5 16.27 2.21
-7 -3 5 15.49 2.09
-3 10 5 16.49 1.89
-7 10 -5 16.72 2.13
3 7 -5 18.34 1.73
-10 7 5 15.27 2.07
-10 3 -5 14.48 2.01
-10 7 5 12.05 2.1
-10 8 -5 44.05 3.83
-8 10 5 53.51 4.08
-10 8 -5 57.63 4.07
8 2 -5 41.84 3.57
-10 2 5 55.25 4.14
2 8 5 51.79 3.96
-2 10 -5 51.03 3.78
-2 10 -5 41 3.7
-8 10 -5 39.72 3.38
-10 8 5 37.62 3.5
-2 10 5 42.71 3.41
-8 -2 5 37.15 3.36
-10 2 -5 42.28 3.42
2 8 -5 44.46 3.19
-10 1 5 13.56 2.01
-9 -1 -5 13.26 1.86
1 9 5 15.3 1.93
-1 10 -5 12.48 1.7
-9 10 5 12.32 2.01
-10 9 -5 14.94 1.97
-10 9 -5 10.71 1.99
1 9 -5 15.04 1.85
-9 10 -5 12.43 1.87
-1 10 5 13.35 1.85
-9 -1 5 11.51 1.92
-10 9 5 12.63 2.15
-9 10 -5 14.37 2.13
-10 1 -5 12.79 1.99
-10 10 5 26.6 2.82
-10 0 -5 24.57 2.57
0 10 -5 26.86 2.54
-10 10 -5 27.23 2.72
0 10 5 24.59 2.51
-10 0 5 26.67 2.66
-10 10 -5 20.18 2.47
-11 6 -5 32.94 2.89
-11 5 5 29.98 3.11
-5 -6 5 33.21 2.89
-5 11 -5 29.92 2.89
-5 11 -5 27.88 2.71
-11 5 5 29.35 2.79
-6 11 5 29.15 2.68
6 5 -5 31.07 2.55
-6 11 5 35.79 3.32
-5 11 5 32.89 2.89
-6 11 -5 34.63 3.13
-5 11 5 32.14 3.31
-11 5 -5 35.37 3.08
-11 6 5 32.81 3.28
-6 -5 5 36.26 3.11
5 6 -5 36.14 2.85
-11 6 5 33.32 3.07
-4 11 -5 24.27 2.35
-11 7 -5 18.18 2.31
-7 11 5 23.92 2.8
-11 4 5 24.37 2.56
-4 11 -5 21.81 2.29
-11 7 -5 25.38 2.47
-4 -7 5 23.61 2.32
4 7 5 18.48 2.25
7 4 -5 25.3 2.17
-7 -4 5 37.63 3.09
-11 4 -5 31.7 2.83
-7 11 -5 29.31 2.87
-4 11 5 34.51 2.92
4 7 -5 34.66 2.69
-11 7 5 26.7 2.99
-4 11 5 29.08 2.99
-11 7 5 33.94 3.08
8 3 -5 21.73 2.15
-11 8 -5 20.87 2.36
-11 8 -5 28.65 2.62
-8 11 5 25.79 2.85
-3 11 -5 20.19 2.36
-11 3 5 26.61 2.64
-3 11 -5 26.31 2.48
3 8 5 22.55 2.52
-8 11 -5 26.74 2.82
-3 11 5 32.68 2.78
3 8 -5 31.43 2.54
-11 8 5 28.75 2.79
-11 3 -5 29 2.76
-8 -3 5 29.92 2.88
-11 8 5 23.83 2.77
-11 9 -5 31.59 2.93
-9 11 5 29.02 3.09
-11 9 -5 24.73 2.73
2 9 5 28.88 2.81
-2 11 -5 30.54 2.67
-11 2 5 33.8 3.1
-9 -2 5 30.3 2.88
-11 9 5 26.24 2.74
-9 11 -5 25.58 2.76
-2 11 5 28.71 2.61
2 9 -5 29.22 2.51
-9 11 -5 24.2 2.74
-11 2 -5 26.36 2.6
1 10 5 -0.34 1.06
-11 10 -5 0.22 1.27
-10 11 5 1.16 1.09
-11 10 -5 0.14 1.11
-1 11 -5 1.01 1.13
-10 -1 -5 0.36 1.18
-11 1 5 -0.21 1.18
-1 11 5 2.86 1.14
-10 11 -5 1.73 1.2
-11 1 -5 3.2 1.31
-10 -1 5 2.23 1.3
-11 10 5 3.08 1.33
-10 11 -5 2.62 1.11
1 10 -5 2.54 1.2
-11 11 -5 2.36 1.14
-11 0 -5 1.94 1.22
-11 0 5 2.44 1.36
-11 11 -5 3.94 1.43
0 11 5 3.14 1.3
-11 11 5 2.32 1.36
0 11 -5 2.81 1.13
-6 12 5 1.97 1.37
-6 12 5 2.57 1.12
-6 -6 5 2.25 1.32
-6 12 -5 1.87 1.17
-12 6 5 2.15 1.16
-6 12 -5 0.99 1.01
-12 6 -5 2.75 1.24
6 6 -5 2.76 1.02
-12 6 5 2.65 1.48
-12 5 5 13.36 2.08
-5 -7 5 9.33 1.6
-5 12 -5 5.39 1.31
-12 7 -5 10.66 1.67
-7 12 5 10.07 1.86
7 5 -5 8.01 1.28
-5 12 -5 7.79 1.41
-12 7 5 6.8 1.49
-12 5 -5 10.4 1.67
-7 12 -5 6.59 1.48
-12 7 5 6.01 1.63
5 7 -5 7.36 1.23
-5 12 5 5.04 1.56
-7 -5 5 7.06 1.56
-5 12 5 7.44 1.35
-12 8 -5 18.43 2.12
-4 12 -5 16.83 2.23
8 4 -5 13.86 1.81
-12 4 5 17.06 2.44
4 8 5 15.57 2.23
-8 12 5 16.91 2.38
-12 8 -5 16.79 2.18
-4 12 5 12.11 1.73
4 8 -5 11.64 1.67
-8 12 -5 8.67 1.6
-12 4 -5 11.43 1.77
-8 -4 5 10.43 1.87
-12 8 5 9.35 1.75
-12 8 5 10.16 1.72
-9 12 5 6.1 1.59
-3 12 -5 3.71 1.26
-12 9 -5 2.9 1.13
-12 3 5 6.98 1.72
-12 9 -5 6.98 1.62
9 3 -5 2.44 0.93
-3 12 -5 2.19 1.04
3 9 5 3.53 1.36
-12 9 5 0.21 1.09
-9 12 -5 2.23 1.2
-12 3 -5 1.48 1.18
-12 9 5 2.54 1.32
-3 12 5 2.46 1.07
-9 12 -5 0.54 1.09
3 9 -5 2.14 1.04
-9 -3 5 2.7 1.45
-12 10 -5 13.34 2.19
-10 12 5 16.72 2.22
-12 10 -5 10.5 1.95
-12 2 5 12.64 2.12
-2 12 -5 12.75 1.83
2 10 5 9.3 1.71
-2 12 5 12.12 1.64
2 10 -5 11.48 1.61
-10 12 -5 12.24 1.83
-12 10 5 10.56 1.75
-12 2 -5 8.83 1.64
-10 12 -5 6.61 1.59
-10 -2 5 10.24 1.9
-1 12 -5 25.72 2.68
-12 11 -5 29.41 2.79
-11 -1 -5 21.61 2.59
-12 11 -5 27.02 2.89
-11 12 5 27.48 2.86
-12 1 5 27.54 3.05
1 11 5 26.81 2.93
1 11 -5 27.61 2.59
-11 12 -5 22.84 2.68
-1 12 5 24.85 2.63
-11 12 -5 26.24 2.76
-11 -1 5 27.88 3.01
-12 11 5 28.36 3
-12 1 -5 24.33 2.75
-12 0 -5 0.32 1.25
0 12 5 0.46 1.19
0 12 -5 -0.48 1.19
-12 12 5 -0.08 1.14
-12 0 5 -0.08 1.3
-12 12 -5 0.19 1.31
-12 12 -5 0.51 1.17
-7 13 5 7.03 1.72
-6 -7 5 4.9 1.38
-13 6 5 8.99 1.86
7 6 -5 3.77 1.05
-6 13 -5 4.82 1.37
-13 6 5 3.39 1.16
-6 13 -5 5.34 1.31
-13 7 5 10.11 1.88
-6 13 5 6.99 1.78
-7 -6 5 7.76 1.65
-7 13 -5 6.9 1.42
-13 7 5 8 1.58
6 7 -5 9.14 1.46
-6 13 5 8.96 1.46
-8 13 5 14.23 2.54
-5 13 -5 12.71 1.78
-13 8 -5 14.89 2.11
-13 5 5 13.6 2.14
-13 8 -5 10.83 1.85
8 5 -5 10.55 1.5
-5 13 -5 8.9 1.6
-13 8 5 15.01 2.34
5 8 -5 16.81 2.15
-13 5 -5 17 2.24
-13 8 5 17.13 2.22
-5 13 5 19.42 2.27
-5 13 5 12.51 2.35
-8 13 -5 16.97 2.2
-8 -5 5 18.83 2.44
-13 9 -5 12.14 2.03
-13 9 -5 11.84 1.95
4 9 5 10.95 1.78
-13 4 5 13.98 2.17
-4 13 -5 12.34 1.8
9 4 -5 7.87 1.4
-9 13 5 12.79 2.22
-4 13 5 19.78 2.33
-13 9 5 13.95 2.36
-13 4 -5 19.76 2.25
-9 -4 5 18.63 2.49
-13 9 5 21.96 2.64
-9 13 -5 18.49 2.47
4 9 -5 20.29 2.19
-10 13 5 18.56 2.46
-13 10 -5 19.52 2.48
-13 3 5 19.54 2.48
3 10 5 14.39 2.18
-3 13 -5 15.22 2.18
-13 10 -5 17.99 2.36
-10 13 -5 21.85 2.5
-10 -3 5 20.94 2.66
-3 13 5 20.6 2.31
3 10 -5 20.9 2.48
-13 10 5 22.31 2.75
-13 3 -5 19.64 2.49
-13 2 5 1.68 1.57
2 11 5 1.89 1.45
-13 11 -5 2.31 1.32
-2 13 -5 1.14 1.21
-13 11 -5 2.44 1.47
-11 13 5 1.88 1.23
-13 2 -5 0.84 1.3
2 11 -5 0.5 1.21
-2 13 5 1.38 1.15
-13 11 5 -0.02 1.23
-11 13 -5 -0.3 1.1
-11 13 -5 0.24 1.06
-11 -2 5 0.98 1.51
-1 13 -5 5.56 1.36
-12 13 5 6.6 1.52
1 12 5 3.23 1.37
-12 -1 -5 0.16 1.09
-13 1 5 6.59 1.89
-13 12 -5 5.77 1.62
-1 -12 5 0.63 0.72
-13 12 -5 5.58 1.49
13 -1 5 1.29 0.67
-12 -1 5 10.49 2.05
1 12 -5 7.28 1.62
-13 1 -5 7.3 1.67
-12 13 -5 4.86 1.54
-13 12 5 8.47 1.76
-1 13 5 9.04 1.66
-12 13 -5 10.9 1.82
0 -13 5 3.85 0.92
-13 0 5 2.87 0.97
-13 13 5 5.87 1.5
-13 13 5 5.16 1.12
13 0 5 5.48 1
-13 0 -5 3.39 1.44
13 0 -5 4.56 0.92
0 13 5 6.38 1.62
0 13 -5 4.28 1.39
-13 13 -5 4.26 1.36
-13 13 -5 5.73 1.56
-13 0 5 5.2 1.67
0 13 5 2.39 0.76
-7 14 5 0.96 1.03
-14 7 -5 0.72 1.24
-7 14 -5 0.07 0.92
7 7 -5 0.04 1.01
-7 14 -5 0.4 1.13
-7 14 5 -0.26 1.35
-7 -7 5 0.46 1.13
-14 7 5 -0.18 1.03
-14 7 5 0.88 1.36
8 6 -5 -1 1.01
-14 8 -5 -0.18 1.24
-14 6 5 0.14 1.39
-6 14 -5 0.57 1.1
-6 14 -5 0.76 1.11
-8 14 5 0.14 1.38
-8 -6 5 1.12 1.44
-14 8 5 0.47 1.29
-6 14 5 0.73 1.35
-6 14 5 -0.44 1.12
-14 8 5 -0.31 1.19
-14 6 -5 0.97 1.14
-8 14 -5 0.29 1.18
6 8 -5 0.93 1.19
-14 9 -5 0.55 1.01
-9 14 5 1.9 1.33
9 5 -5 0.73 1.03
5 9 5 0.12 1.15
-14 5 5 4.02 1.62
-5 14 -5 2.39 1.33
-14 9 -5 3.77 1.49
5 9 5 -0.02 0.62
-5 14 -5 1.21 1.07
-14 5 -5 4.94 1.48
5 9 -5 2.99 1.34
-14 9 5 2.62 1.34
-9 -5 5 3.17 1.58
-14 9 5 2.57 1.27
-5 14 5 4.5 1.37
-9 14 -5 4.02 1.43
-14 10 -5 -0.34 1.11
4 10 5 0.42 1.32
4 10 5 -0.05 0.55
-4 14 -5 -0.35 0.89
-10 14 5 0.28 1.36
-14 4 5 -1.65 0.66
-4 14 -5 0.08 1.27
14 -4 5 -0.16 0.59
-14 10 -5 -0.19 1.31
-14 4 5 -0.28 1.4
-14 10 5 -0.04 1.09
-14 4 -5 0.65 1.28
-10 -4 5 1.11 1.49
4 10 -5 -0.13 1.11
-10 14 -5 0.72 1.14
10 4 5 0.36 0.64
14 -4 -5 -0.04 0.53
-10 14 -5 -0.97 0.59
-14 10 5 1 1.25
-4 14 5 -0.28 1.01
-14 11 -5 10.17 1.75
14 -3 5 7.04 1.12
-3 14 -5 8.2 1.57
3 11 5 8.14 1.12
-14 3 5 10.67 2.04
-14 11 -5 11.01 1.92
-14 3 5 7.51 1.22
3 11 5 9.82 1.9
-14 3 -5 13.58 2.26
14 -3 -5 10.1 1.52
-3 14 5 13.94 2.18
-11 -3 5 16.34 2.39
3 11 -5 14.95 2.01
-14 11 5 14.82 2.43
-11 14 -5 10.79 1.76
11 3 5 12.99 1.6
-11 14 -5 16.33 2.42
-14 2 5 2.18 1.03
-2 14 -5 1.32 1.22
-12 14 5 1.94 1.26
-14 12 -5 1.89 1.23
-14 12 -5 2.33 1.48
-2 -12 5 0.94 0.87
12 2 -5 0.99 0.6
2 12 5 2.81 1.57
-14 2 5 2 1.52
14 -2 5 2.3 0.95
2 12 5 1.42 0.87
-12 14 5 1.45 0.99
-12 -2 5 0.62 1.56
-12 14 -5 2.08 1.37
-14 12 5 0.84 1.2
-2 14 5 0.12 0.58
-14 2 -5 0.91 1.27
-14 12 5 -0.72 0.78
-12 14 -5 0.86 0.93
-2 14 5 0.76 1.14
2 12 -5 0.78 1.16
2 -14 5 1.34 0.86
12 2 5 1.36 0.92
14 -2 -5 1.54 0.85
14 -1 5 4.36 1.05
1 13 5 5.06 1.01
-14 1 5 3.37 1.61
-13 14 5 4.22 1.42
-13 14 5 4.34 1.14
-1 14 -5 4.65 1.58
-14 1 5 4.89 1.18
-14 13 -5 4.05 1.53
1 13 5 3.84 1.45
-14 13 -5 3.43 0.98
-14 13 -5 4.46 1.5
-1 -13 5 6.78 1.18
13 1 -5 4.07 0.93
13 1 5 8.41 1.21
1 13 -5 6.06 1.53
-1 14 5 7.84 1.65
-13 14 -5 9.03 1.32
-13 -1 5 7.88 1.96
-1 14 5 7.21 1.11
1 -14 5 5.17 1.06
-14 13 5 8.14 1.77
14 -1 -5 6.84 1.13
-14 1 -5 7.09 1.75
-13 -1 5 4.52 1.08
-14 13 5 4.05 1.11
-13 14 -5 6.42 1.58
0 14 -5 0.34 1.32
-14 14 -5 0.82 0.94
-14 14 5 0.71 0.94
14 -14 5 -0.36 0.9
-14 0 5 -1.41 0.93
-14 14 5 1.62 1.32
14 0 5 0.23 0.91
0 14 5 0.92 1.33
-14 0 -5 -0.56 1.16
-14 14 -5 0.5 1.34
0 14 5 0.66 0.89
14 0 -5 0.7 0.85
0 -14 5 1.47 0.91
-14 0 5 0.79 1.67
7 8 5 1.4 0.64
-7 15 -5 0.75 1.07
-8 15 5 1.86 1.5
8 7 -5 0.44 1.2
15 -8 -5 -0.14 0.53
-15 7 5 2.94 1.58
15 -7 5 1.7 0.78
7 -15 -5 0.28 0.75
-7 15 -5 -0.05 0.94
-15 8 -5 4.2 1.5
-15 7 -5 1.85 1.25
15 -7 -5 1.06 0.61
-15 8 5 1.7 1.37
-15 8 5 0.07 1.03
8 7 5 0.79 0.64
8 7 5 -0.16 0.56
-7 15 5 1.06 1.15
-7 15 5 2.25 1.44
7 8 -5 0.26 1.17
-8 15 -5 1.54 1.26
8 7 5 1.96 0.84
15 -8 5 0.78 0.74
-6 15 -5 -0.28 1.2
6 -15 -5 0 0.77
-9 15 5 1.7 1.45
15 -6 5 -0.01 0.84
15 -9 -5 -0.01 0.57
-15 9 -5 1.12 1.38
15 -6 5 -0.01 0.59
-6 -9 5 -0.23 0.61
-15 6 5 0.84 1.4
-6 15 -5 -0.31 1.04
9 6 -5 -2.5 1.07
6 9 5 -0.03 0.66
-15 9 5 0.61 1.28
-15 6 -5 -0.3 1.24
9 6 5 0.19 0.56
9 6 5 0.76 0.88
-9 -6 5 0.04 1.26
-9 15 -5 -0.52 1.17
-6 15 5 -0.18 1.13
15 -6 -5 -0.17 0.75
-15 9 5 1.1 1.34
6 -15 5 0.17 0.6
15 -9 5 0.15 0.75
6 9 -5 -1.37 1.22
-5 15 -5 2.42 1.35
-15 10 -5 2.83 1.38
-15 5 5 2.84 1.49
15 -5 5 2.11 0.85
5 10 5 1.44 0.82
-5 15 -5 -0.26 0.93
-10 15 5 4.17 1.64
15 -5 5 3.58 0.98
-15 5 5 2.18 1.05
5 -15 -5 4.28 1.02
-5 -10 5 1.59 0.78
5 10 5 0.49 1.44
5 10 -5 2.63 1.42
10 5 5 6.44 1.13
-5 15 5 4.09 1.29
-15 10 5 4.9 1.57
-15 5 -5 5.55 1.5
-10 15 -5 5.64 1.07
15 -5 -5 4.57 0.95
-10 15 -5 4.37 1.4
-10 -5 5 4.8 1.65
-15 4 5 9 1.38
-4 -11 5 7.51 1.2
4 11 5 7.48 1.79
-11 15 5 11.97 2.04
-15 11 -5 9.78 1.88
15 -4 5 10.35 1.31
-15 4 5 8.25 1.89
-15 11 -5 7.49 1.65
4 11 5 10.74 1.28
-4 15 -5 9.19 1.79
4 -15 -5 10.27 1.5
15 -4 5 9.33 1.29
-11 -4 5 8.55 1.94
4 11 -5 9.64 1.82
-11 15 -5 10.93 1.79
-15 4 -5 11.62 1.95
15 -4 -5 10.93 1.34
-4 15 5 12.48 1.86
4 -15 5 6.68 1.15
11 4 5 13.46 1.46
-11 15 -5 10.81 1.66
-15 11 5 9.98 1.93
3 12 5 13.05 1.37
-12 15 5 13.24 2.07
3 12 5 8.53 1.96
-15 12 -5 7.42 1.61
-3 -12 5 8.85 1.25
3 -15 -5 11.99 1.61
-3 15 -5 8.94 1.7
-15 3 5 8.58 1.31
15 -3 5 10.59 1.33
-12 15 5 9.68 1.34
-15 12 -5 9.05 1.83
12 3 -5 8.23 1.15
-12 15 -5 10.56 1.67
-15 3 -5 10.32 1.89
15 -3 -5 11.79 1.31
3 -15 5 9.09 1.21
-12 15 -5 9.01 1.76
-15 12 5 6.74 1.25
-12 -3 5 7.83 1.98
-3 15 5 7.71 1.09
-15 12 5 6.6 1.64
3 12 -5 8.24 1.73
15 -12 5 6.67 1.24
-3 15 5 10.44 1.76
12 3 5 11.96 1.39
13 2 -5 5.77 1.09
-13 15 5 4.76 1.11
2 13 5 4.06 1.58
-13 15 5 6 1.61
15 -2 5 5.11 1.08
2 13 5 7.12 1.17
-15 13 -5 3.16 1.44
-2 -13 5 6.25 1.16
-2 15 -5 3.63 1.41
2 -15 -5 5.64 1.08
-15 2 5 3.92 1.11
-15 13 -5 5.15 1.61
-15 2 5 8.73 2.13
-13 -2 5 6.11 1.16
13 2 5 6.85 1.19
-15 2 -5 9.59 1.94
15 -2 -5 9.06 1.26
-15 13 5 7.56 1.27
-2 15 5 6.88 1.14
2 13 -5 8.73 1.83
-13 15 -5 6.06 1.56
15 -13 5 6.14 1.21
-15 13 5 5.87 1.59
-13 -2 5 8.47 2.05
-2 15 5 6.66 1.58
2 -15 5 7.97 1.16
14 1 -5 7.45 1.19
-15 1 5 5.09 1.21
-15 14 -5 6.2 1.18
-15 1 5 9.29 2.17
1 14 5 6.5 1.16
-14 15 5 4.98 1.13
1 14 5 6.25 1.81
-1 -14 5 7.98 1.22
-14 15 5 6.61 1.67
-1 15 -5 6.81 1.72
15 -1 5 7.28 1.23
-15 14 -5 5.76 1.69
-15 1 -5 4.13 1.66
-1 15 5 5.5 1.55
-14 15 -5 6.89 1.68
-14 -1 5 5.52 1.88
14 1 5 7.75 1.24
15 -1 -5 6.51 1.15
15 -14 5 5.78 1.24
-15 14 5 5.53 1.17
-14 -1 5 5.19 1.23
-15 14 5 5.75 1.64
1 -15 5 6.53 1.14
-14 15 -5 5.89 1.16
-1 15 5 7.12 1.16
1 14 -5 5.54 1.67
-15 15 5 10.54 1.74
-15 15 -5 8.77 1.77
0 15 -5 13.73 2.11
0 -15 5 11.08 1.64
15 0 -5 12.8 1.69
-15 15 5 14.65 2.52
-15 0 5 11.41 2.29
0 15 5 13.19 2.08
-15 0 5 11.42 1.54
-15 15 -5 13.21 1.71
0 15 5 12.77 1.7
15 0 5 11.39 1.75
-8 16 5 4.08 1.56
8 8 -5 0.62 1.3
-16 8 5 4.33 1.58
8 -16 5 0.96 0.69
16 -8 5 2.61 0.99
16 -8 -5 4.46 0.93
16 -8 5 2.68 0.77
8 8 5 3.33 0.83
-16 8 -5 3.83 1.44
8 -16 -5 4.9 1.19
8 8 5 2.52 0.8
-8 16 -5 2.49 1.26
7 -16 -5 1.11 1.07
-16 9 -5 0.64 1.34
7 9 5 1.55 0.82
-9 16 5 1.18 1.37
9 7 -5 -1.93 1.15
-16 7 5 0.2 0.95
-7 16 -5 0.59 1.2
7 9 5 0.21 0.52
-7 -9 5 0.49 0.88
16 -7 5 1.58 1.07
9 -16 5 0.05 0.61
-16 7 5 2.65 1.51
16 -7 5 0.88 0.81
16 -9 -5 1.34 0.79
16 -9 5 0.49 0.98
9 -16 -5 0.4 0.99
-9 16 -5 0.03 1.35
9 7 5 0.18 0.78
-16 9 5 0.89 1.26
7 9 -5 -1.03 1.24
16 -7 -5 0.71 0.89
16 -9 5 -0.02 0.57
9 7 5 0.29 0.79
-9 16 -5 0.3 0.85
-16 7 -5 0.73 1.33
9 7 5 1.04 0.89
7 -16 5 0.33 0.8
16 -6 5 1.75 0.96
-10 16 5 2.59 1.46
-6 16 -5 1.5 1.19
-16 10 -5 1.96 1.43
6 10 5 2.88 0.98
-6 16 -5 -0.71 0.95
-16 6 5 3.54 1.7
-6 -10 5 1.98 0.94
16 -6 5 2.56 1.02
16 -10 -5 1.62 0.72
-16 6 5 1.81 0.97
6 -16 -5 2.91 1.07
6 10 -5 0.61 1.2
16 -6 -5 1.01 0.85
-6 16 5 1.07 1.22
-10 16 -5 1.31 1.23
-16 6 -5 2.37 0.84
-16 10 5 1.22 1.33
10 6 5 1.13 0.86
-10 16 -5 2.64 1.06
10 6 5 1.94 0.99
-16 10 5 0.16 1.21
-16 6 -5 2.08 1.33
16 -10 5 -0.04 0.65
6 -16 5 1.56 0.89
10 -16 -5 1.53 1.06
16 -10 5 1.07 1.13
-11 16 5 4.69 1.61
5 -16 -5 3.9 1.09
-16 5 5 5.66 1.87
-5 16 -5 2 1.31
-11 16 5 3.65 1.06
-5 -11 5 3.36 1.03
11 5 -5 1.87 0.75
16 -5 5 4.05 1.08
5 11 5 4.53 1.06
16 -11 -5 1.92 0.69
-16 5 5 2.47 1.03
16 -5 5 2.38 0.97
-16 11 -5 4.37 1.57
11 5 5 5.52 1.12
-16 11 5 4.48 1.55
5 -16 5 3.47 0.93
16 -5 -5 5.75 1.11
-16 5 -5 6.24 1.68
-11 16 -5 6.66 1.19
11 -16 -5 4.41 1.13
11 5 5 3.38 0.96
16 -11 5 4.08 1.15
-11 16 -5 3.55 1.37
-11 -5 5 0.93 1.35
-16 5 -5 3.51 0.9
-5 16 5 4.81 1.4
5 11 -5 3.07 1.46
4 12 5 4.97 1.07
16 -4 5 4.21 1.12
-4 16 -5 3.25 1.5
4 12 5 0.35 1.54
-12 16 5 4.37 1.09
-12 16 5 5.88 1.66
-16 12 -5 5.48 1.67
-16 4 5 5.03 1.14
-16 4 5 7.17 2.02
12 4 -5 3.5 0.94
-4 -12 5 4.76 1.09
4 -16 -5 5.71 1.08
-16 4 -5 2.63 1.43
12 4 5 4.6 1.09
-12 -4 5 3.2 1.64
4 12 -5 1.91 1.38
16 -4 -5 2.72 0.95
12 -16 -5 3.57 1.04
-16 4 -5 3.43 1.01
-12 16 -5 3.39 1.52
4 -16 5 3.89 1
-12 16 -5 3.81 0.99
16 -12 5 3.12 1.15
12 4 5 2.21 0.85
-16 12 5 3.43 1.53
-16 12 5 1.51 1.02
-4 16 5 2.88 1.42
3 -16 -5 13.44 1.63
13 3 -5 13.2 1.67
-3 -13 5 11.73 1.7
-3 16 -5 8.94 1.76
-16 3 5 16.85 2.85
-13 16 5 16.81 2.56
16 -3 5 10.96 1.39
3 13 5 7.16 1.84
-16 13 -5 10.9 2.01
-13 16 5 13.63 1.75
-16 3 5 11.91 1.9
-16 13 -5 13.38 2.36
3 13 5 13.42 1.71
-13 16 -5 16.83 2.57
-16 3 -5 14.05 1.74
-13 16 -5 15.93 1.81
13 -16 -5 12.01 1.71
-16 3 -5 15.66 2.52
16 -3 -5 14.03 1.83
-16 13 5 18.35 2.66
13 3 5 14.47 1.8
-13 -3 5 11.3 1.69
-3 16 5 12.68 1.67
3 -16 5 12.88 1.72
-16 13 5 12.01 1.95
-3 16 5 15.84 2.25
3 13 -5 12.39 2.08
16 -13 5 10.86 1.62
-13 -3 5 14.75 2.6
-16 2 5 5.1 1.23
-2 -14 5 8.98 1.29
-14 16 5 5.59 1.56
14 -16 5 2.77 1
-16 2 5 8.95 2.18
16 -2 5 5.66 1.08
-14 16 5 7.95 1.28
2 -16 -5 8.15 1.18
14 2 -5 5.42 1.09
-16 14 -5 7.49 1.26
-16 14 -5 4.35 1.49
-2 16 -5 4.86 1.6
2 14 5 5.57 1.78
2 14 5 6.28 1.11
-2 16 5 3.8 1.01
-16 2 -5 2.66 0.97
-16 14 5 3.83 1.49
-14 16 -5 3.88 1.56
14 2 5 5.98 1.14
16 -14 5 3.79 1.23
2 14 -5 2.37 1.52
-2 16 5 2.98 1.46
14 -16 -5 3.35 0.95
-14 16 -5 4.6 1.07
-16 2 -5 3.95 1.55
-14 -2 5 4.51 1.83
16 -2 -5 5.09 1.09
-14 -2 5 2.09 1.05
-16 14 5 3.54 1.1
2 -16 5 4.59 1.03
-15 16 5 5.33 1.15
-16 15 -5 1.3 1.37
-1 -15 5 3.12 1.01
15 -16 5 2.82 1.11
16 -1 5 5.39 1.08
-16 1 5 3.74 1.85
-1 16 -5 3.11 1.55
1 -16 -5 3.37 0.97
-16 15 -5 4.99 1.13
1 15 5 4.7 1.03
15 1 -5 4.69 1.05
-15 16 5 3.67 1.39
-16 1 5 3.15 1.11
1 15 5 4.26 1.65
1 15 -5 5.67 1.71
1 -16 5 3.83 1
16 -1 -5 5.8 1.08
-15 -1 5 5.39 1.89
-1 16 5 5.05 1.5
-16 15 5 4.72 1.6
-15 -1 5 4.84 1.16
-15 16 -5 5.39 1.18
-15 16 -5 3.9 1.54
-16 15 5 2.77 1.03
15 1 5 6.14 1.16
15 -16 -5 2.89 0.88
16 -15 5 5.31 1.19
-1 16 5 4.52 1.03
16 0 5 4.99 1.11
0 16 -5 3.73 1.56
-16 16 -5 3.86 1.03
-16 0 5 3.01 1.14
0 16 5 5.04 1.64
0 -16 5 6.02 1.15
0 16 5 5.81 1.1
-16 16 -5 5.23 1.64
-16 0 5 7.16 1.98
-16 16 5 5.13 1.13
-16 16 5 4.93 1.61
0 -16 -5 6.1 1.06
16 -16 5 4.32 1.17
16 0 -5 6.1 1.08
-9 -8 -5 1.6 0.89
-17 8 5 4.19 1.6
8 9 5 1.59 0.8
-9 17 5 0.34 1.25
17 -8 5 2.95 1.15
-17 8 5 2.85 1.02
8 9 5 1.76 0.82
-17 9 -5 3.1 1.42
8 -17 -5 3.47 1.2
9 -17 5 2.25 0.9
17 -8 5 2.59 0.91
-8 17 -5 1.5 1.23
-8 -9 5 2.34 0.99
17 -9 -5 3.41 0.98
-17 9 -5 4.23 0.97
9 8 5 2.35 0.85
-9 17 -5 1.98 0.91
9 8 5 3.68 0.94
-8 -9 -5 2.42 0.87
-9 17 -5 1.99 1.29
8 9 -5 0.98 1.24
17 -8 -5 3.44 0.94
17 -9 5 3.16 0.9
-9 -8 5 1.85 0.92
8 -17 5 4.08 0.99
17 -9 5 2.51 1.1
-17 9 5 2.45 1.43
9 -17 -5 1.97 1.07
-17 9 5 0.39 0.82
-17 8 -5 3.97 0.92
-17 8 -5 2.92 1.44
17 -7 5 0.83 0.99
7 10 5 1.26 0.95
7 10 5 0.19 0.51
-10 17 5 0.28 1.27
-10 17 5 -0.83 0.88
-17 7 5 3.39 1.71
7 -17 -5 1.63 1.05
-7 -10 5 0.6 0.93
-17 10 -5 1.94 1.45
10 7 -5 0.07 0.87
-17 7 5 0.9 0.96
17 -7 5 -0.1 0.86
17 -10 -5 1.01 0.84
10 -17 5 0.12 0.65
7 -17 5 0.98 0.9
10 -17 -5 0.58 1.05
-10 -7 5 -0.18 0.67
7 10 -5 1.46 1.34
17 -10 5 0.66 0.68
17 -7 -5 1.16 0.9
-17 7 -5 2.06 0.87
10 7 5 0.51 0.85
-10 17 -5 1.57 0.94
-17 10 5 0.11 1.31
-17 7 -5 0.66 1.32
10 7 5 1.5 0.86
-10 17 -5 1.09 1.38
10 7 5 1.07 0.87
17 -10 5 0.77 1.06
-7 -10 -5 -0.45 0.55
-17 6 5 6.51 1.79
6 -17 -5 5.4 1.17
-17 11 -5 4.8 1.57
-6 -11 5 5.65 1.14
17 -11 -5 3.32 0.9
6 11 5 6.12 1.15
-11 17 5 3.59 1.12
17 -6 5 7.45 1.26
-11 17 5 6.45 1.72
11 6 -5 4.68 1.02
-17 6 5 6.62 1.22
17 -11 5 5.51 1.32
-17 6 -5 4.95 1.03
-17 6 -5 5.09 1.6
-11 17 -5 4.59 1.56
11 6 5 5.49 1.08
6 -17 5 5.54 1.09
17 -6 -5 4.85 1.12
-6 17 5 3.24 1.36
6 11 -5 3.56 1.61
11 6 5 3.86 1.08
-11 17 -5 5.84 1.14
11 6 5 4.54 1.03
11 -17 -5 3.43 1.16
17 -12 -5 1.15 0.73
17 -5 5 1.31 1.04
-17 5 5 1.12 1
12 -17 5 0.08 0.7
12 5 -5 0.67 0.97
-12 17 5 1.37 1.37
-17 12 -5 1.04 1.42
5 12 5 0.14 0.87
-12 17 5 0.6 0.94
-5 -12 5 1.26 0.94
-17 5 5 0.99 1.61
-5 17 -5 -0.17 1.18
5 -17 -5 0.83 0.97
-17 12 5 -0.6 0.88
12 -17 -5 0.98 1.09
5 12 -5 0.78 1.44
-12 17 -5 1.36 1.36
17 -12 5 0.48 1.05
-17 5 -5 1.23 0.88
-17 5 -5 0.14 1.33
17 -12 5 -0.01 0.58
12 5 5 0.76 1
12 5 5 1.19 0.95
-12 17 -5 2.16 0.98
5 -17 5 1.02 0.9
-5 17 5 0.75 1.19
-17 12 5 0.63 1.16
17 -5 -5 0.52 0.87
4 13 5 1.31 0.92
4 -17 -5 0.96 0.87
-13 17 5 0.46 0.9
17 -4 5 1.25 0.95
-13 17 5 1.47 1.36
-17 4 5 2.14 1.79
-17 4 5 1.32 1.01
17 -13 -5 0.36 0.67
-4 -13 5 0.93 1
-4 17 -5 0.47 1.24
13 4 -5 0.74 0.95
-17 13 -5 -0.5 1.3
4 13 -5 2.7 1.54
-13 17 -5 1.61 1.38
-4 17 5 1.96 1.22
-13 -4 5 0.71 0.72
-13 17 -5 2.5 1.02
13 4 5 1.51 1.01
-17 13 5 1.75 1.08
-17 4 -5 1.65 0.86
4 -17 5 2.05 0.88
17 -13 5 2.11 1.1
-17 13 5 2.15 1.3
-17 4 -5 2.2 1.5
13 4 5 2.04 0.96
17 -4 -5 2.72 1.05
13 -17 -5 2.66 1.12
-3 17 -5 3.65 1.42
-14 17 5 4.28 1.51
-17 14 -5 6.74 1.17
-17 3 5 5.13 1.19
14 -17 5 2.29 1
-17 3 5 6.87 2.05
-14 17 5 8 1.24
17 -3 5 5.52 1.06
3 -17 -5 5.83 1.07
-3 -14 5 6.06 1.15
14 3 -5 3.9 1.02
3 14 5 4.76 1.05
-14 17 -5 6.19 1.71
14 -17 -5 7.52 1.3
-17 14 5 5.96 1.24
-14 -3 5 5.89 1.21
14 3 5 6.02 1.09
-17 3 -5 4.3 1.51
-14 17 -5 8.56 1.27
-17 14 5 4.16 1.47
17 -14 5 4.55 1.2
14 3 5 5.46 1.16
3 14 -5 5.54 1.7
-3 17 5 5.5 1.56
3 -17 5 6.2 1.09
-17 3 -5 5.46 1.06
17 -3 -5 6.99 1.12
17 -2 5 4.1 1.06
-17 15 -5 3.41 1.05
2 15 5 0.63 1.5
2 15 5 2.5 0.92
15 2 -5 2.74 0.96
-2 17 -5 1.36 1.37
2 -17 -5 5 1.05
-15 17 5 4.44 1.08
15 -17 5 2.02 1.07
-15 17 5 3.02 1.39
-17 2 5 4.24 1.9
-17 2 5 2.66 1.09
-2 -15 5 4.09 1.04
-15 17 -5 4.29 1.06
15 2 5 2.9 0.94
-17 15 5 2.37 1.42
15 -17 -5 2.42 0.98
-15 -2 5 0.33 1.55
17 -2 -5 2.2 0.96
-17 15 5 2.38 1.02
2 15 -5 1.68 1.42
-2 17 5 2.69 1.47
15 2 5 1.29 0.87
-17 2 -5 2.73 0.98
17 -15 5 4.17 1.23
-15 -2 5 1.59 1.01
2 -17 5 1.96 0.92
-15 17 -5 2.02 1.38
-16 17 5 13.9 2.44
1 16 5 12.64 1.69
-16 17 5 15.24 1.83
16 -17 5 13.36 1.85
16 1 -5 13.43 1.74
-1 -16 5 14.94 1.8
-17 16 -5 13.26 1.74
-17 1 5 11.6 1.85
17 -1 5 16.66 1.65
-17 1 5 9.52 2.04
-1 17 -5 7.99 1.75
1 -17 -5 13.09 1.68
16 -17 -5 7.84 1.21
17 -16 5 6.38 1.27
-1 17 5 3.94 1.42
-17 16 5 7.07 1.22
-16 -1 5 6.65 1.25
16 1 5 10.42 1.29
17 -1 -5 9.85 1.26
1 16 -5 5.68 1.54
-16 17 -5 8.89 1.24
-16 17 -5 5.18 1.56
-17 16 5 6.92 1.58
-1 17 5 6.53 1.12
1 -17 5 9.8 1.23
17 -17 -5 12.58 1.56
0 -17 5 16.05 1.78
-17 17 5 15.71 1.9
0 17 5 14.37 1.7
17 -17 5 13.46 1.87
-17 0 5 13.39 1.91
0 -17 -5 14.76 1.75
17 0 5 15.52 1.84
-17 17 -5 15.76 1.73
17 0 -5 15.42 1.82
-18 9 5 0.73 1.33
9 9 5 2.13 0.86
9 -18 -5 2.63 1.06
9 -18 5 1.53 0.92
-18 9 5 1.83 0.92
18 -9 5 1.4 0.87
-9 18 -5 0.47 0.86
18 -9 5 2.21 1.04
-9 18 -5 -0.58 1.03
-9 -9 -5 0.83 0.86
-18 9 -5 2.13 0.86
18 -9 -5 3.56 0.97
-9 -9 5 2.32 0.99
-18 9 -5 2.06 1.47
9 9 5 2.75 0.95
-18 8 5 3.05 1.53
18 -10 -5 1.11 0.84
-8 -10 5 1.25 0.95
-18 8 5 1.86 1
8 -18 -5 1.13 0.96
-18 10 -5 2.16 1.48
10 -18 5 1.14 0.89
18 -8 5 1.52 1.03
8 10 5 2.5 0.94
10 8 -5 -0.02 0.6
-10 -8 -5 1.01 0.87
-10 18 5 0.13 0.9
18 -8 5 0.57 0.88
8 10 5 0.85 0.79
-18 10 -5 1.49 0.84
8 -18 5 3.4 0.99
18 -8 -5 1.56 0.99
-10 18 -5 1.74 0.96
-8 -10 -5 1.15 0.9
18 -10 5 1.08 1.01
-18 8 -5 2.95 1.56
10 8 5 2.17 0.87
18 -10 5 1.62 0.82
-10 18 -5 -0.12 1.26
-18 10 5 0.88 0.8
-10 -8 5 1.52 0.92
-18 8 -5 2.14 0.88
10 -18 -5 2.49 1.11
10 8 5 1.63 0.83
-7 -11 5 5.61 1.11
-11 -7 -5 5.78 1.04
-18 7 5 5.08 1.15
-18 11 -5 6.65 1.1
18 -7 5 7.12 1.22
7 11 5 6.82 1.14
7 -18 -5 3.64 1.07
-11 18 5 1.97 0.99
11 -18 5 2.95 0.83
-18 7 5 5.02 1.78
-18 11 -5 4.54 1.55
11 7 -5 4.59 1.01
18 -11 -5 3 0.92
-7 -11 -5 2.87 0.91
-18 7 -5 4.23 1.53
11 7 5 3.96 1.03
-18 7 -5 5.81 0.98
-11 18 -5 4.54 1.08
-11 -7 5 2.93 0.91
18 -11 5 6.46 1.23
7 11 -5 0.79 1.25
11 -18 -5 5.87 1.23
7 -18 5 3.71 0.97
18 -7 -5 4.7 1.03
-11 18 -5 3.11 1.46
11 7 5 5.7 1.03
11 7 5 4.6 0.99
18 -11 5 3.16 0.83
-18 6 5 2.32 1.05
-18 12 -5 1.16 0.94
18 -6 5 1.48 1.01
6 12 5 1.61 0.92
-18 12 -5 -0.07 1.36
-18 6 5 2.96 1.62
-12 18 5 0.76 1.26
-6 -12 5 1.1 0.92
-12 18 5 1.51 1.01
6 -18 -5 0.73 0.96
12 -18 5 0.04 0.55
12 6 -5 0.77 0.97
18 -12 -5 0.72 0.77
6 12 -5 0.62 1.34
-12 -6 5 -0.4 0.64
18 -6 -5 1.5 0.95
12 6 5 0.15 0.84
12 -18 -5 0.55 1.06
-6 -12 -5 -0.14 0.55
-12 18 -5 1.66 0.96
6 -18 5 0.49 0.84
18 -12 5 0.31 0.98
18 -12 5 0.02 0.53
-12 18 -5 0.19 1.33
12 6 5 1.32 0.88
-18 12 5 -0.54 0.59
-18 6 -5 0.99 1.37
-18 6 -5 1.17 0.81
12 6 5 0.21 0.9
-18 13 -5 5.37 1.05
18 -13 -5 5.13 0.99
-13 18 5 3.78 1.41
5 13 5 7.79 1.17
-18 5 5 7.11 1.98
-18 5 5 6.37 1.24
13 5 -5 7.84 1.24
18 -5 5 5.62 1.11
5 -18 -5 4.93 1.08
-5 -13 5 8.16 1.23
-13 18 5 6.21 1.19
-5 18 5 6.65 1.61
-13 18 -5 4.27 1.57
18 -13 5 7.42 1.33
-13 18 -5 9.01 1.25
13 5 5 8.11 1.18
-18 5 -5 5.18 1.63
-18 5 -5 4.8 0.99
13 5 5 5.45 1.04
5 -18 5 6.92 1.12
5 13 -5 3.6 1.45
13 5 5 5.59 1.16
13 -18 -5 6.79 1.31
18 -5 -5 9.92 1.26
-18 13 5 5.75 1.19
-18 4 5 9.84 2.13
-14 18 5 11.81 1.69
18 -4 5 11.08 1.57
-18 14 -5 9.92 1.29
-18 4 5 12.36 1.9
4 -18 -5 9.9 1.29
-4 -14 5 12.57 1.74
-14 18 5 12.74 2.36
4 14 5 8.41 1.26
14 4 -5 12.25 1.41
-14 -4 5 5.3 1.06
-14 18 -5 9.48 1.54
4 14 -5 4.55 1.47
-18 4 -5 6.18 1.06
-4 18 5 5.44 1.49
14 4 5 6.4 1.19
-18 14 5 9.79 1.35
14 -18 -5 8.36 1.33
18 -14 5 8.5 1.35
-14 18 -5 5.67 1.59
18 -4 -5 8.59 1.17
14 4 5 9.77 1.23
4 -18 5 6.76 1.08
-15 18 5 13.8 2.46
-15 18 5 16.79 1.89
-18 3 5 15.19 2.69
-18 3 5 17.06 2.07
18 -3 5 15.43 1.79
-3 -15 5 15.18 1.85
3 15 5 14.3 1.69
15 -18 5 13.45 1.91
3 -18 -5 16.85 1.83
15 3 -5 14.37 1.9
-18 15 -5 14.44 1.81
15 3 5 12.32 1.65
-3 18 5 8.98 1.77
18 -3 -5 14.95 1.71
-15 -3 5 11.61 1.73
15 -18 -5 14.74 1.77
3 -18 5 11.9 1.59
15 3 5 12.23 1.83
18 -15 5 15.22 1.92
-18 15 5 13.4 1.83
3 15 -5 8.41 1.67
-15 18 -5 15.03 1.72
2 16 5 2.49 0.94
-16 18 5 -0.02 1.04
16 -18 5 2.61 1.03
-2 -16 5 2.99 0.98
-16 18 5 3.45 1.03
-18 2 5 1.97 1.08
2 -18 -5 1.73 0.84
-18 2 5 0.11 1.41
-2 18 -5 -0.38 1.81
-18 16 -5 2.46 0.97
18 -2 5 2.3 0.97
16 2 -5 3.02 1.05
-16 -2 5 2.34 1.04
-18 2 -5 1.71 0.88
16 2 5 0.82 0.9
18 -2 -5 3.46 1.01
-18 16 5 1.32 0.99
2 -18 5 2.26 0.94
2 16 -5 -0.08 1.1
18 -16 5 1.96 1.03
16 2 5 2.05 0.9
-2 18 5 0.54 1.06
-16 18 -5 2.42 0.93
16 -18 -5 1.13 0.93
17 1 -5 0.78 0.98
17 -18 5 0.13 0.88
18 -17 -5 -0.44 0.58
-18 17 -5 2.04 0.88
-1 -17 5 0.47 0.9
1 17 5 0.85 0.85
18 -1 5 1.28 0.89
-17 18 5 1.48 0.92
-18 1 5 0.37 0.98
1 -18 -5 0.6 0.79
-17 18 -5 1.4 0.9
18 -1 -5 0.69 0.92
-17 -1 5 0.28 0.95
-1 -17 -5 1.32 0.84
17 1 5 0.62 0.85
1 -18 5 0.54 0.85
17 -18 -5 0.7 0.88
-18 17 5 2.44 0.98
18 -17 5 1 0.98
18 0 -5 7.76 1.21
0 -18 5 7.57 1.11
18 -18 5 4.89 1.09
0 -18 -5 7.02 1.05
-18 18 -5 7.46 1.11
18 0 5 7.91 1.14
-18 0 5 5.89 1.18
-18 18 5 5.51 1.08
9 -19 -5 0.76 0.93
-9 19 -5 -0.64 0.78
-10 -9 -5 0.55 0.85
19 -10 -5 1.74 0.91
10 9 -5 -0.09 0.59
9 10 5 0.05 0.77
-19 9 5 0.29 0.87
-19 10 -5 0.06 1.36
10 -19 5 0.74 0.89
-19 10 -5 1.27 0.85
-9 -10 5 0.45 0.86
19 -9 5 0.43 0.96
9 10 5 1.31 0.92
-9 -10 -5 0.13 0.85
-10 -9 5 0.56 0.83
9 -19 5 0.43 0.83
10 9 5 0.35 0.92
-10 19 -5 0.26 0.84
-19 9 -5 0.84 0.81
10 -19 -5 0.01 0.96
-19 9 -5 0.44 1.37
-19 10 5 0.67 0.86
19 -10 5 0.6 0.8
19 -9 -5 1.08 0.96
10 9 5 0.63 0.8
19 -10 5 0.62 0.98
-19 11 -5 8.08 1.13
8 -19 -5 3.87 1.06
-11 -8 -5 5.84 1.02
-8 -11 5 8.13 1.16
8 11 5 6.46 1.1
11 -19 5 4.18 0.86
11 8 -5 5.26 1
8 11 5 4.65 0.93
19 -11 -5 4.47 0.94
19 -8 5 5.36 1.12
-19 11 -5 3.58 1.41
-11 19 5 4.56 1.12
-19 8 5 7.4 1.18
11 -19 -5 4.99 1.15
19 -11 5 4.89 1.13
19 -11 5 3.11 0.82
-19 11 5 2.39 0.87
11 8 5 5.91 1.06
-19 8 -5 1.94 1.33
19 -8 -5 5.35 1.04
8 -19 5 3.44 0.94
-11 19 -5 4.11 1.04
-11 -8 5 4.81 0.97
-8 -11 -5 5.41 1.02
11 8 5 3.57 0.92
-19 8 -5 7.46 1.04
12 7 -5 5.05 1.02
-7 -12 5 5.67 1.1
19 -12 -5 3.73 0.91
-12 -7 -5 4.55 0.96
19 -7 5 5.88 1.16
-19 7 5 1.98 1.48
7 -19 -5 4.14 1.06
7 12 5 6.27 1.08
-12 19 5 3.45 1.04
-19 7 5 5.02 1.11
-19 12 -5 6.73 1.08
12 7 5 2.58 0.85
12 -19 -5 2.28 1.07
-7 -12 -5 2.08 0.81
-19 7 -5 1.41 1.34
-12 -7 5 1.64 0.87
12 7 5 2.31 0.89
-12 19 -5 4.24 1.04
19 -12 5 4.04 1.06
7 -19 5 2.31 0.92
-19 7 -5 3.76 0.88
19 -7 -5 4.05 1
-6 -13 5 0.62 0.9
-13 19 5 0.47 0.96
13 6 -5 0.13 0.86
19 -13 -5 1.48 0.79
19 -6 5 -0.23 0.83
-13 -6 -5 0.6 0.8
6 13 5 0.42 0.89
-19 6 5 0.55 1.47
6 -19 -5 -0.03 0.92
-19 13 -5 1.02 0.88
-19 6 5 0.81 0.97
-19 13 5 0.18 0.64
-13 19 -5 1.13 0.95
-13 19 -5 -1.34 0.97
19 -13 5 0.7 1
13 6 5 0.67 0.82
13 6 5 1.34 0.9
13 6 5 1.23 0.82
13 -19 -5 0.97 1.08
19 -6 -5 0.88 0.88
-19 6 -5 -0.32 1.03
-13 -6 5 -0.64 0.6
-19 6 -5 0.95 0.78
-6 -13 -5 -0.2 0.56
6 -19 5 0.97 0.83
-19 5 5 1.11 1.42
-19 5 5 2.9 1.03
-14 19 5 1.95 0.97
5 -19 -5 2.42 0.93
-5 -14 5 1.67 0.97
5 14 5 1.55 0.87
19 -5 5 1.84 0.85
19 -14 -5 0.39 0.64
14 -19 5 -0.07 0.78
-19 14 -5 0.63 0.81
14 5 -5 2.28 1
-14 19 -5 2.33 0.96
5 -19 5 0.92 0.83
-19 5 -5 0.79 0.81
14 5 5 0.36 0.86
14 -19 -5 0.75 1.07
14 5 5 1.71 0.87
19 -5 -5 1.03 0.83
19 -14 5 1.92 1.01
14 5 5 0.97 0.89
-14 19 -5 -1.34 0.94
-19 14 5 0.46 0.92
19 -4 5 1.54 0.86
-4 -15 5 0.68 0.91
-15 19 5 2.03 0.94
-19 15 -5 0.32 0.73
-19 4 5 1.05 1.01
4 -19 -5 1.18 0.86
-19 4 5 0.34 1.78
15 -19 5 1.16 0.94
15 4 -5 1.03 0.96
4 15 5 1.87 0.84
-19 15 -5 -0.29 0.77
15 4 5 1.3 0.92
-15 19 -5 1.27 0.86
-19 4 -5 1.74 0.84
-15 19 -5 -0.66 1.81
19 -15 5 0.24 0.97
15 4 5 1.37 0.9
15 -19 -5 1.18 0.94
-19 15 5 1.01 0.94
19 -4 -5 0.83 0.88
15 4 5 1.97 0.87
4 -19 5 0.82 0.85
-15 -4 5 0.3 0.74
19 -3 5 10.82 1.56
-3 -16 5 12.29 1.65
16 3 -5 12.61 1.81
3 -19 -5 13.19 1.58
-16 19 5 13.32 1.74
-19 16 -5 10.18 1.56
16 -19 5 10.28 1.4
3 16 5 10.36 1.57
-19 3 5 12.54 1.85
19 -3 -5 8.19 1.14
-16 -3 5 6.33 1.12
19 -16 5 7.81 1.23
16 -19 -5 7.73 1.18
3 -19 5 5.42 1.03
16 3 5 5.53 1.1
-16 19 -5 9.23 1.47
-19 3 -5 4.17 0.98
-19 16 5 6.99 1.17
16 3 5 8.96 1.11
17 2 -5 7.97 1.25
2 -19 -5 7.16 1.09
-19 2 5 8.25 1.26
-2 -17 5 7.58 1.1
-17 19 5 9.04 1.23
-19 17 -5 5.84 1.11
17 -19 5 4.38 1.04
19 -2 5 7.42 1.16
19 -17 5 7.39 1.23
-2 -17 -5 8.41 1.12
2 -19 5 6.69 1.08
-17 19 -5 8.83 1.15
17 -19 -5 4.48 1.07
17 2 5 8.86 1.25
17 2 5 7.6 1.13
-17 -2 5 5.94 1.13
-19 17 5 5.44 1.09
19 -2 -5 8.58 1.19
-18 19 5 1.07 0.81
18 1 -5 1.28 0.93
1 -19 -5 1.3 0.74
19 -18 -5 -0.28 0.65
19 -1 5 1.1 0.76
18 -19 5 0.09 0.82
-19 18 -5 1.34 0.85
-1 -18 5 1.15 0.77
19 -1 5 1.92 0.95
-19 1 5 0.81 0.9
18 1 5 0.74 0.89
-1 -18 -5 0.62 0.76
19 -1 -5 1.13 0.9
-19 18 5 1.81 0.84
-18 -1 5 1.18 0.91
18 -19 -5 0.66 0.82
-18 19 -5 1.72 0.86
19 -18 5 1.64 0.97
1 -19 5 0.8 0.78
18 1 5 1.84 0.85
-19 19 5 0.44 0.77
-19 19 -5 0.6 0.71
19 -19 5 -0.28 0.75
19 0 5 0.91 0.72
19 0 5 0.96 0.85
19 0 -5 -0.57 0.83
0 -19 -5 0.33 0.7
-19 0 5 1.07 0.86
0 -19 5 -0.32 0.65
19 -19 -5 -0.38 0.52
-10 -10 5 4.64 1
20 -10 -5 5.49 1.01
10 -20 5 4.52 0.92
20 -10 5 6.46 1.12
10 10 5 4.68 0.9
-10 20 -5 3.99 0.95
-10 -10 -5 4.17 0.94
-20 10 5 4.32 1
10 -20 -5 6.83 1.17
10 10 5 8.42 1.15
20 -11 -5 3.34 0.93
20 -9 5 2.98 0.99
-20 9 5 4.52 1.02
9 -20 -5 4.47 1.05
9 11 5 4.12 0.99
9 11 5 3.03 0.84
-11 -9 -5 3.6 0.89
11 9 -5 1.56 0.69
-9 -11 5 4.05 0.98
-11 20 5 1.6 0.87
-20 11 -5 4.48 0.92
11 -20 -5 3.2 1.05
11 9 5 2.95 0.85
20 -9 -5 4.39 1.03
-11 -9 5 3.11 0.87
-9 -11 -5 3.08 0.88
11 9 5 3.37 0.98
20 -11 5 3.65 1.03
-20 11 5 2.05 0.88
9 -20 5 2.55 0.81
-20 9 -5 4.8 0.9
-11 20 -5 2.29 0.88
-8 -12 5 1.23 0.88
8 -20 -5 0.84 0.86
20 -12 -5 1.26 0.86
20 -8 5 1.85 0.85
8 12 5 2.03 0.89
-12 -8 -5 0.93 0.81
12 8 -5 1.05 0.88
-12 20 5 0.89 0.89
-20 8 5 2.23 0.96
-20 12 -5 1.78 0.81
8 12 5 0.19 0.54
12 8 5 0.44 0.92
8 -20 5 0.56 0.8
-8 -12 -5 0.09 0.75
20 -12 5 0.92 0.96
-12 20 -5 1.13 0.87
-12 -8 5 0.6 0.76
12 -20 -5 1.04 0.99
12 8 5 1.38 0.81
-20 8 -5 1.49 0.73
20 -8 -5 1.78 0.91
-20 12 5 -0.73 0.6
7 -20 -5 8.21 1.16
-7 -13 5 7.6 1.17
-20 7 5 9.02 1.26
20 -13 -5 5.04 0.97
13 7 -5 7.96 1.15
20 -7 5 9.96 1.23
7 13 5 8.07 1.15
-13 -7 -5 8.92 1.11
-20 13 -5 9 1.4
7 -20 5 3.78 0.92
-13 -7 5 3.59 0.85
13 -20 -5 4.85 1.16
20 -7 -5 6.13 1.02
-20 7 -5 5.67 0.96
13 7 5 4.14 0.91
13 7 5 6.44 1.04
-13 20 -5 5.26 1.01
20 -13 5 9.1 1.22
-6 -14 5 0.07 0.81
6 14 5 0.92 0.83
20 -6 5 0.22 0.7
6 -20 -5 0.79 0.83
14 6 -5 0.28 0.81
14 -20 5 -0.44 1.19
-14 -6 -5 1.16 0.84
-14 20 5 1.35 0.88
20 -14 -5 -0.18 0.56
-20 14 -5 0.27 0.73
-20 6 5 0.83 0.9
-14 20 -5 0.52 0.8
14 6 5 0.39 0.84
-20 14 5 -0.37 0.54
6 -20 5 1.2 0.8
14 -20 -5 0.39 1.01
20 -6 -5 0.4 0.77
-20 6 -5 0.23 0.72
14 6 5 0.17 0.75
20 -14 5 1.08 0.91
-15 20 5 6.56 1.15
15 5 -5 6.26 1.09
-20 5 5 8.2 1.24
-15 -5 -5 12.2 1.27
5 -20 -5 8.97 1.21
-5 -15 5 7.65 1.1
5 15 5 9.77 1.15
20 -5 5 11.08 1.27
20 -15 5 7.44 1.17
5 -20 5 7.63 1.06
-15 20 -5 9.16 1.44
15 5 5 10.36 1.2
-20 15 5 8.23 1.36
15 5 5 6.58 1.1
15 -20 -5 4.5 1.08
20 -5 -5 8.87 1.15
15 5 5 8.52 1.28
-20 5 -5 7.98 1.25
20 -4 5 14.11 1.66
16 -20 5 11.74 1.57
-16 -4 -5 14.97 1.66
-20 4 5 15.15 1.85
16 4 -5 15.7 1.71
-4 -16 5 14.05 1.59
-16 20 5 15.46 1.68
4 16 5 13.28 1.61
20 -4 5 14.15 1.62
4 -20 -5 13.56 1.63
20 -4 -5 16.7 1.76
16 4 5 13.66 1.56
4 -20 5 13.77 1.59
16 4 5 14.08 1.67
20 -16 5 17.59 1.74
16 -20 -5 14.76 1.69
-20 4 -5 13.1 1.55
-20 16 5 13.81 1.64
16 4 5 14.12 1.63
-16 20 -5 14.5 1.65
-20 17 -5 2 0.8
-17 20 5 2.76 0.85
-3 -17 5 3.14 0.86
17 3 -5 2.82 0.89
17 -20 5 1.72 0.84
-20 3 5 3.94 0.98
20 -3 5 3.64 0.93
3 17 5 2.57 0.83
20 -3 5 3.35 0.91
3 -20 -5 3.17 0.84
-17 -3 -5 3.34 0.86
17 3 5 2.63 0.8
-3 -17 -5 3.44 0.84
17 3 5 3.27 0.89
17 -20 -5 2.72 0.91
20 -17 5 3.27 0.94
-17 -3 5 1.8 0.77
-17 20 -5 2.73 0.83
3 -20 5 1.62 0.79
20 -3 -5 3.87 0.93
-20 3 -5 1.83 0.79
17 3 5 2.94 0.81
-20 17 5 3.04 0.88
-20 18 -5 6.2 0.97
-18 -2 -5 8.3 1.01
20 -2 5 6.52 1.03
-2 -18 5 5.61 0.93
2 -20 -5 8.76 1.09
20 -2 5 4.84 0.94
-18 20 5 8.84 1.1
18 2 -5 6.99 1.1
-20 2 5 5.83 1.05
2 18 5 5.74 0.95
18 -20 5 5.84 1
18 -20 -5 5.71 0.98
18 2 5 9.39 1.14
-20 18 5 7.05 1.02
-2 -18 -5 6.17 0.96
18 2 5 5.93 0.91
-18 20 -5 7.77 1.2
-18 -2 5 5.36 0.98
20 -18 5 6.75 1.07
20 -1 5 5.38 0.89
-19 -1 -5 7.54 0.94
-1 -19 5 4.02 0.8
19 -20 5 4.26 0.91
-20 19 -5 3.8 0.84
1 -20 -5 4.31 0.88
20 -1 5 5.72 0.97
-19 20 5 7.13 0.98
-20 1 5 4.28 0.94
19 1 -5 4.35 0.91
-19 -1 5 3.88 0.89
-20 19 5 4.09 0.83
1 -20 5 3.48 0.81
-19 20 -5 4.06 0.79
-1 -19 -5 4.8 0.87
20 -1 -5 5.81 1
20 -19 5 4.46 0.92
19 1 5 5.06 0.91
19 1 5 3.56 0.82
0 -20 5 -0.22 0.61
-20 20 5 0.37 0.63
-20 20 -5 0.25 0.64
-20 0 5 0.27 0.71
20 -20 5 -0.53 0.67
20 0 5 0.47 0.75
20 0 -5 0.74 0.73
-20 0 -5 0.46 0.68
20 0 5 -0.28 0.68
0 -20 -5 -0.18 0.72
-11 -10 -5 5.19 0.94
21 -11 -5 8.4 1.11
10 -21 -5 7.95 1.1
-21 10 5 5.37 1.02
21 -10 5 6.45 1.05
10 11 5 4.71 0.91
-10 -11 5 7.72 1.05
-21 11 -5 7.13 1.02
10 11 5 7.46 1.05
-21 10 -5 6.59 0.98
11 10 5 4.22 0.92
21 -11 5 9.02 1.16
21 -10 -5 6.87 1.05
-10 -11 -5 5.85 0.92
11 10 5 7.5 1.09
-11 -10 5 4.79 0.94
11 -21 -5 8.57 1.15
-21 11 5 5.42 1
9 12 5 11.38 1.46
21 -9 5 10.4 1.45
21 -12 -5 10.23 1.44
12 9 -5 8.8 1.27
-12 21 5 8.49 1.39
-21 9 5 13.62 1.7
9 -21 -5 10.28 1.55
-9 -12 5 11.64 1.45
-12 -9 -5 10.69 1.35
-21 12 -5 12.59 1.46
12 -21 -5 10.83 1.61
21 -12 5 11.14 1.58
9 -21 5 8.12 1.22
-12 -9 5 9.81 1.35
12 9 5 11.77 1.46
-12 21 -5 8.51 1.39
21 -9 -5 12.66 1.51
-9 -12 -5 9.41 1.28
12 9 5 9.43 1.37
-21 9 -5 10.78 1.38
8 13 5 0.19 0.76
-13 -8 -5 0.31 0.71
21 -13 -5 0.36 0.63
-21 13 -5 0.13 0.74
-21 8 5 0.87 0.86
8 -21 -5 0.04 0.78
-13 21 5 -0.16 0.75
21 -8 5 -0.06 0.7
13 8 -5 -0.04 0.75
-8 -13 5 1.07 0.8
21 -8 -5 0.62 0.75
-8 -13 -5 -0.36 0.65
-13 21 -5 0.68 0.8
-13 -8 5 0.76 0.71
21 -13 5 0.5 0.84
13 -21 -5 0.21 0.89
-21 8 -5 -0.08 0.69
13 8 5 0.43 0.86
8 -21 5 0.24 0.67
13 8 5 0.46 0.7
-21 7 5 3.36 0.94
14 7 -5 2.2 0.87
-14 -7 -5 3.53 0.83
21 -7 5 2.82 0.79
-7 -14 5 2.61 0.79
7 14 5 1.99 0.8
-21 14 -5 0.91 0.72
7 -21 -5 2.86 0.83
-14 21 5 2.24 0.86
-21 7 -5 1 0.7
7 -21 5 0.2 0.7
21 -14 5 0.84 0.88
14 -21 -5 0.19 0.92
14 7 5 0.44 0.7
-14 21 -5 1.24 0.75
21 -7 -5 1.75 0.78
14 7 5 1.28 0.91
-14 -7 5 -0.44 0.53
-21 15 -5 1.82 0.73
-6 -15 5 4.14 0.88
15 6 -5 2.93 0.91
6 15 5 3.66 0.83
6 -21 -5 3.7 0.86
21 -6 5 3.15 0.81
-21 6 5 5.57 1
-15 21 5 4.18 0.94
-15 -6 -5 4.72 0.9
15 -21 -5 1.13 0.84
6 -21 5 1.98 0.74
21 -6 -5 1.96 0.78
-21 6 -5 1.25 0.72
-15 21 -5 2.85 0.83
21 -15 5 2.62 0.87
15 6 5 1.47 0.71
15 6 5 2.88 0.94
16 -21 5 -0.25 0.68
-16 -5 -5 0.95 0.74
16 5 -5 0.51 0.75
21 -5 5 0.61 0.78
5 16 5 1.2 0.73
-21 5 5 2.09 0.85
-16 21 5 1.23 0.77
5 -21 -5 0.85 0.7
-5 -16 5 1.68 0.77
16 5 5 0.36 0.81
5 -21 5 0.38 0.71
16 -21 -5 0.67 0.86
21 -5 -5 0.85 0.77
21 -16 5 0.44 0.77
-16 21 -5 0.92 0.76
-5 -16 -5 0.79 0.71
-21 16 5 0.1 0.65
16 5 5 0.16 0.68
-21 5 -5 0.66 0.67
4 -21 -5 3.8 0.83
-4 -17 5 5.09 0.87
17 4 -5 3.99 0.87
21 -4 5 4.78 0.88
4 17 5 5.7 0.88
-17 21 5 5.63 0.92
-17 -4 -5 6.63 0.93
21 -4 5 4 0.77
17 4 5 5.13 0.87
21 -17 5 6.18 0.96
-21 17 5 3.38 0.83
-4 -17 -5 5.66 0.91
-17 21 -5 5.65 0.88
-21 4 -5 3.58 0.77
21 -4 -5 6.19 0.94
4 -21 5 3.01 0.78
17 -21 -5 4.15 0.9
17 4 5 3.92 0.87
18 3 -5 1.92 0.72
3 -21 -5 1.49 0.76
-21 3 5 2.19 0.8
21 -3 5 1.46 0.7
-3 -18 5 1.57 0.69
-18 -3 -5 1.9 0.73
18 -21 5 0.32 0.53
-18 21 5 2.62 0.78
3 18 5 1.16 0.66
21 -3 5 1.1 0.68
18 3 5 3.04 0.79
3 -21 5 0.96 0.63
18 -21 -5 2.82 0.78
21 -18 5 2.34 0.81
-3 -18 -5 2.37 0.74
-21 18 5 1.85 0.74
-18 21 -5 2.42 0.68
21 -3 -5 3.1 0.86
-21 19 -5 -0.73 0.48
19 2 -5 0.08 0.67
21 -2 5 0.32 0.7
2 -21 -5 -0.32 0.69
-21 2 5 0.18 0.66
-19 21 5 0.24 0.65
19 -21 5 -0.34 0.44
21 -2 5 0.58 0.67
-2 -19 5 -0.05 0.59
-19 -2 -5 0.23 0.68
19 2 5 0.11 0.7
-21 19 5 -0.07 0.63
-21 2 -5 0.59 0.61
21 -19 5 0.59 0.73
21 -2 -5 -0.06 0.75
19 2 5 0.29 0.65
2 -21 5 -0.3 0.57
-19 21 -5 -0.13 0.64
-2 -19 -5 -0.13 0.65
1 -21 -5 1.88 0.76
21 -1 5 2.1 0.8
-21 1 5 2.31 0.74
20 1 -5 1.68 0.74
21 -1 5 2.33 0.74
-20 21 5 2.07 0.74
-1 -20 5 1.35 0.67
-20 -1 -5 1.82 0.7
-20 21 -5 1.88 0.65
21 -20 5 2.1 0.71
21 -1 -5 3.48 0.81
-1 -20 -5 2.35 0.83
1 -21 5 0.69 0.61
20 1 5 3.59 0.85
-21 20 5 2.39 0.7
-21 1 -5 2.41 0.67
20 1 5 1.91 0.73
22 -11 5 13.8 1.49
11 11 5 12.54 1.48
-22 11 5 10.71 1.42
-11 -11 5 13.63 1.4
-22 11 -5 14.08 1.4
-11 -11 -5 13.36 1.35
22 -11 -5 10.51 1.27
11 -22 -5 10.86 1.48
10 12 5 0.04 0.72
10 -22 -5 0.16 0.71
-22 12 -5 0.46 0.68
22 -12 -5 0.59 0.61
-10 -12 5 0.76 0.73
-12 -10 -5 0.82 0.62
-22 10 5 1.42 0.72
22 -10 5 1.11 0.73
-22 12 5 -0.16 0.52
12 -22 -5 0.34 0.78
22 -10 -5 0.98 0.64
12 10 5 0.01 0.71
12 10 5 1.29 0.74
-12 22 -5 -0.28 0.61
-22 10 -5 0.27 0.65
-12 -10 5 0.14 0.65
22 -12 5 0.68 0.74
-10 -12 -5 0.54 0.62
-22 13 -5 3.09 0.78
9 -22 -5 4.12 0.85
-22 9 5 5.29 0.92
22 -9 5 6.12 0.92
-9 -13 5 4.9 0.86
-13 -9 -5 4.57 0.8
9 13 5 5.47 0.88
-9 -13 -5 1.82 0.65
-13 -9 5 2.43 0.7
13 -22 -5 2.4 0.85
13 9 5 2.41 0.73
22 -13 5 2.9 0.81
22 -9 -5 2.57 0.7
13 9 5 4.27 0.89
-13 22 -5 1.49 0.69
-22 9 -5 2.77 0.71
8 -22 -5 4.96 0.88
14 8 -5 2.86 0.72
22 -8 5 3.62 0.79
-22 14 -5 3.71 0.78
8 14 5 3.68 0.76
-14 22 5 2.49 0.76
-22 8 5 5.2 0.92
-14 -8 -5 3.04 0.75
-8 -14 5 3.74 0.79
-22 8 -5 3.38 0.77
22 -14 5 2.87 0.82
-14 22 -5 3.63 0.81
14 -22 -5 3.57 0.88
14 8 5 2.61 0.72
14 8 5 2.46 0.87
22 -8 -5 2.94 0.79
7 -22 -5 -0.11 0.68
-15 22 5 1.06 0.72
22 -7 5 -0.14 0.62
15 7 -5 -0.11 0.64
-7 -15 5 0.42 0.67
-15 -7 -5 0.51 0.65
7 15 5 0.4 0.62
-22 15 -5 -0.33 0.58
-22 7 5 1.14 0.76
15 7 5 0.12 0.59
15 7 5 0.26 0.81
-15 22 -5 0.33 0.63
15 -22 -5 -0.45 0.68
22 -7 -5 0.49 0.7
22 -15 5 0.62 0.75
7 -22 5 0.06 0.62
-22 7 -5 -0.01 0.59
6 16 5 5.23 0.83
22 -6 5 3.66 0.85
-22 6 5 4.94 0.9
16 6 -5 5.72 0.88
-16 -6 -5 6.38 0.89
6 -22 -5 5.33 0.88
-6 -16 5 5.12 0.84
-16 22 5 4.19 0.85
16 6 5 6.13 0.97
22 -6 -5 6.81 0.92
-22 6 -5 5.71 0.81
16 6 5 4.29 0.79
22 -16 5 5.51 0.93
16 -22 -5 5.97 0.94
-16 22 -5 6.56 1.09
-6 -16 -5 5.73 0.87
-22 5 5 2.06 0.77
-17 -5 -5 2.51 0.69
5 -22 -5 1.25 0.67
-5 -17 5 1.38 0.66
-17 22 5 1.7 0.7
5 17 5 0.77 0.61
22 -5 5 0.99 0.71
17 5 -5 1.72 0.74
17 5 5 2.11 0.66
-5 -17 -5 1.75 0.71
-17 22 -5 2.11 0.65
17 5 5 1.49 0.7
22 -17 5 2.4 0.79
17 -22 -5 2.8 0.72
-22 5 -5 2.05 0.67
22 -5 -5 2.8 0.83
22 -4 5 0.11 0.64
-22 4 5 0.64 0.68
18 4 -5 0.47 0.72
4 -22 -5 -0.53 0.67
-18 22 5 0.82 0.68
-18 -4 -5 0.85 0.67
-4 -18 5 0.38 0.64
18 4 5 0.37 0.63
22 -4 -5 0.39 0.79
-18 22 -5 0.59 0.62
-4 -18 -5 0.37 0.67
22 -18 5 0.66 0.8
18 -22 -5 -0.24 0.46
4 -22 5 0.2 0.43
-19 -3 -5 4.56 0.78
22 -3 5 5.04 0.87
-3 -19 5 3.07 0.73
-19 22 5 4.75 0.84
19 3 -5 4.67 0.89
3 -22 -5 3.86 0.81
-22 3 5 5.32 0.83
22 -3 -5 3.25 0.87
22 -19 5 2.9 0.79
-19 22 -5 2.41 0.7
-3 -19 -5 2.69 0.84
19 3 5 2.89 0.75
11 12 5 6.58 0.87
-12 -11 -5 6.14 0.83
11 -23 -5 6.35 0.91
-23 11 5 4.88 0.84
-11 -12 5 6.04 0.89
-23 12 -5 4.82 0.83
23 -11 5 7.92 0.97
12 -23 -5 5.4 0.88
-12 -11 5 5.48 0.84
-11 -12 -5 4.8 0.75
12 11 5 7.82 0.93
23 -12 5 5.98 0.87
-23 11 -5 7.16 1.07
-23 10 5 4.62 0.85
-13 -10 -5 3.19 0.67
-10 -13 5 3.51 0.75
-23 13 -5 5.02 0.84
10 13 5 6.28 0.83
23 -10 5 5.77 0.8
10 -23 -5 3.63 0.75
13 -23 -5 3.59 0.79
-23 10 -5 5.03 0.76
13 10 5 5.23 0.85
-13 -10 5 2.39 0.61
23 -10 -5 1.27 0.53
23 -13 5 5 0.83
-23 14 -5 0.93 0.68
9 -23 -5 0.86 0.65
23 -9 5 1.8 0.69
-14 -9 -5 0.82 0.57
-9 -14 5 1.18 0.66
-23 9 5 1.97 0.73
9 14 5 0.86 0.64
-14 23 -5 1.05 0.63
23 -14 5 1.87 0.74
-23 9 -5 1.35 0.62
14 9 5 1.1 0.61
23 -9 -5 1.47 0.64
14 -23 -5 1.56 0.68
14 9 5 1.72 0.77
-23 8 5 5.44 0.86
-15 -8 -5 5.58 0.79
8 15 5 4.38 0.8
-8 -15 5 5.03 0.82
8 -23 -5 6.26 0.86
23 -8 5 4.82 0.84
-15 23 -5 3.57 0.76
15 8 5 3.82 0.74
15 8 5 3.47 0.83
15 -23 -5 3.21 0.74
23 -15 5 3.8 0.81
-8 -15 -5 3.55 0.73
23 -8 -5 5.09 0.81
-23 8 -5 2.69 0.66
-16 23 5 2.05 0.7
-23 7 5 3.22 0.78
-16 -7 -5 3.41 0.69
7 -23 -5 2.5 0.73
23 -7 5 2.29 0.78
16 7 -5 1.2 0.49
7 16 5 2.07 0.64
-7 -16 5 2.92 0.75
16 7 5 1.28 0.73
23 -7 -5 2.23 0.74
16 -23 -5 1.31 0.64
-16 23 -5 1.91 0.7
16 7 5 1.59 0.68
23 -16 5 2.11 0.8
-7 -16 -5 1.07 0.65
-23 7 -5 1.19 0.59
23 -6 5 0.93 0.7
-6 -17 5 1.86 0.68
17 6 -5 1.66 0.6
-23 6 5 1.24 0.69
-17 23 5 1.54 0.71
6 -23 -5 2.02 0.75
6 17 5 1.34 0.61
-17 -6 -5 1.56 0.64
17 6 5 0.03 0.54
-17 23 -5 1.26 0.66
17 -23 -5 -0.13 0.45
17 6 5 1.11 0.67
-23 6 -5 0.97 0.58
23 -17 5 1.4 0.78
-6 -17 -5 1.08 0.69
23 -6 -5 1.77 0.76
12 12 5 8.79 1.15
-24 12 -5 9.53 1.16
12 -24 -5 9 1.33
24 -12 5 9.38 1.16
11 13 5 1.59 0.67
-24 13 -5 0.76 0.7
-24 11 -5 0.8 0.6
13 11 5 1.6 0.74
0 0 -6 422.98 25.57
0 0 6 364.29 25.65
1 -1 -6 58.32 3.83
0 -1 6 50.77 3.67
-1 0 -6 49.78 3.43
-1 0 6 47.19 3.69
1 0 -6 49.25 3.49
-1 1 -6 48.26 3.47
-1 0 -6 52.02 3.53
-1 0 -6 48.06 3.76
0 -1 -6 51.82 3.44
1 -1 6 47.34 3.66
0 1 -6 47.75 3.46
0 -1 -6 51.85 3.83
-1 -1 -6 31.31 2.72
1 1 -6 31.35 2.4
-1 -1 -6 35.33 2.42
-2 1 -6 30.87 2.4
1 -2 -6 34.52 2.81
1 -2 6 33.45 2.65
1 -2 -6 32.28 2.34
-1 -1 6 29.12 2.4
-2 1 6 33.75 2.5
-1 -1 6 32.19 2.62
-1 -1 -6 33.71 2.48
-2 1 -6 30.68 2.36
-1 2 6 32.74 2.6
2 -1 -6 34.42 2.49
0 -2 -6 26.05 2.17
0 -2 -6 26.75 2
-2 0 -6 26.64 2.07
-2 0 -6 28.03 2.03
-2 0 6 25.88 2.31
2 -2 -6 29.75 2.53
0 2 -6 26.45 2.01
-2 2 -6 21.68 1.91
2 -2 6 27.73 2.3
-2 2 6 28.18 2.27
-2 0 -6 26.65 2.3
0 -2 -6 27.36 2.44
0 -2 6 25.5 2.27
2 0 -6 27.12 2.04
-2 2 -6 21.5 1.89
-2 0 6 27.78 2.14
-3 1 6 2 0.98
-1 -2 6 2.09 0.97
1 -3 -6 2.26 1.05
-1 -2 6 2.02 0.86
1 -3 -6 1.94 0.65
3 -2 -6 2.37 1.12
-2 -1 -6 0.97 0.68
-2 -1 -6 1.63 0.81
-1 3 -6 1.06 0.55
-3 1 6 1.02 0.81
-3 1 6 2.29 0.81
-2 3 6 1.41 0.86
-2 -1 -6 0.91 0.97
2 1 -6 1.4 0.62
-1 -2 6 1.45 0.6
-3 2 -6 1.31 0.64
2 -3 6 1.94 0.99
-2 -1 6 3.8 1.01
-3 2 6 3.82 0.88
2 -3 -6 4.44 1.17
-3 1 -6 2.62 0.78
1 -3 6 3.7 1.09
1 2 -6 2.91 0.69
1 -3 6 3.65 0.9
3 -1 -6 3.65 0.72
-1 -2 -6 3.21 0.85
-1 -2 -6 3.47 1.04
-1 3 6 3.62 0.92
2 -3 -6 2.87 0.63
-2 -1 6 2.49 0.74
-3 1 -6 2.44 0.75
-3 2 6 4.28 0.95
-3 1 -6 2.05 0.86
-1 -2 -6 3.55 0.75
-3 3 6 122.29 8.04
0 -3 -6 116.79 7.84
-3 3 -6 104.34 7.79
3 0 -6 116.94 7.84
0 3 -6 114.66 7.84
0 -3 6 118.41 8.04
0 -3 -6 118.1 8.17
-3 0 -6 118.36 8.07
-3 0 6 111.12 7.99
-3 0 -6 123.85 7.9
-3 3 -6 112.76 7.86
-3 0 6 122.55 7.97
0 -3 6 127.13 8.04
3 -3 -6 128.11 8.22
0 -3 -6 112.76 7.96
-3 0 -6 122.62 7.9
-4 2 6 8.38 1.42
-2 -2 6 8.23 1.4
2 -4 -6 8.09 1.42
-2 -2 6 8.53 1.39
-2 4 -6 8.75 1.13
-2 -2 -6 7.73 1.29
4 -2 -6 11.01 1.64
2 2 -6 9.53 1.14
-2 -2 -6 8.85 1.09
-4 2 -6 7.79 1.29
-2 -2 6 7.94 1.19
-4 2 -6 8.26 1.05
2 -4 6 9.13 1.46
-2 4 6 9.1 1.32
-4 2 6 6.94 1.32
-2 -2 -6 8.22 1.17
-4 2 6 8.46 1.27
2 -4 6 8.89 1.65
4 -2 -6 9.11 1.15
-4 2 -6 7.8 1.16
4 -3 -6 12.44 1.87
-3 -1 -6 11.94 1.37
-3 4 6 11.38 1.52
-4 3 -6 10.27 1.24
-4 1 6 12.09 1.41
-4 1 6 9.57 1.5
-4 1 6 11.18 1.53
3 1 -6 10.61 1.34
-1 -3 6 11.37 1.5
-1 4 -6 10.52 1.21
-4 3 -6 11.08 1.15
3 -4 6 11.47 1.5
1 -4 -6 11.16 1.15
1 -4 -6 10.57 1.45
-1 -3 6 10.58 1.54
-3 -1 -6 11.31 1.24
1 -4 -6 11.83 1.71
-3 -1 -6 11.59 1.65
-3 -1 6 13.64 1.77
1 -4 6 16.65 1.67
-4 3 6 14.74 1.68
4 -1 -6 13.81 1.51
-4 1 -6 11.29 1.28
-1 -3 -6 14.58 1.43
-1 -3 -6 14.26 1.84
-3 -1 6 14.31 1.52
1 3 -6 13.97 1.4
-4 1 -6 15.67 1.5
-3 4 -6 14.05 1.42
3 -4 -6 17.23 1.97
-4 3 6 12.52 1.54
-4 1 -6 14.76 1.61
1 -4 6 16.49 1.77
-1 4 6 13.19 1.64
-1 -3 -6 14.2 1.64
4 -4 -6 7.44 1.47
0 4 -6 7.86 1.24
-4 0 -6 5.74 1
-4 4 -6 4.89 0.88
-4 0 -6 6.57 1.19
-4 4 6 7.08 1.18
0 -4 -6 7.52 1.4
0 -4 -6 7.76 1.26
0 -4 6 8.02 1.34
4 0 -6 7.09 1.08
-4 0 -6 8.73 1.2
-4 0 6 8.16 1.3
-4 0 6 7.65 1.22
0 -4 6 6.41 1.18
-4 4 -6 7.58 1.22
0 -4 -6 7.11 1
2 -5 -6 18.5 1.97
-5 3 -6 18.93 1.75
5 -3 -6 19.9 2.3
2 -5 -6 18.19 2.16
-5 2 6 17.97 1.99
-2 -3 6 19.25 2.06
3 2 -6 19.89 1.71
-5 2 6 20.58 1.91
5 -3 -6 18.37 1.76
-5 2 6 20.39 2.09
3 -5 6 19.33 1.89
-2 5 -6 20.43 1.74
-3 -2 -6 19.14 1.73
-3 -2 -6 17.75 1.75
-2 -3 6 20.79 1.99
-2 5 -6 20.23 1.75
-5 3 -6 19.88 1.79
-3 -2 -6 18.35 2.04
-3 5 6 18.23 1.94
-2 5 6 15.58 1.71
-2 -3 -6 17.1 1.54
-3 5 -6 17.38 1.64
5 -2 -6 16.05 1.56
2 -5 6 17.32 1.91
2 3 -6 16.45 1.54
-5 3 6 16.52 1.83
-3 -2 6 17.93 1.83
2 -5 6 17.33 2.03
-3 -2 6 13.52 1.74
-2 -3 -6 15.45 1.67
3 -5 -6 15.84 2.01
-5 2 -6 14.03 1.44
-5 3 6 16.61 1.72
-2 -3 -6 16.6 1.99
-3 -2 6 15.35 1.76
-5 2 -6 17.09 1.57
-5 3 6 14.48 1.74
-1 5 -6 24.87 2.04
-5 4 -6 25.16 2.07
-5 1 6 26.65 2.28
1 -5 -6 25.33 2.3
-1 -4 6 25.47 2.42
4 1 -6 25.36 2.03
-1 -4 6 25.05 2.32
4 -5 6 22.28 2.17
-5 1 6 26.81 2.47
-4 -1 -6 25.04 2.09
-4 5 6 24.47 2.3
1 -5 -6 24.7 2.08
-4 -1 -6 24.31 2.13
-5 1 6 25.28 2.38
-5 4 -6 26.12 2.16
1 -5 -6 24.63 2.53
-1 5 -6 26.03 2.07
-4 -1 -6 23.7 2.35
5 -4 -6 27.69 2.61
1 -5 6 25.98 2.48
-1 -4 -6 25.61 2.29
-4 -1 6 28.71 2.45
4 -5 -6 23.4 2.56
1 -5 6 25.98 2.34
5 -1 -6 25.81 2.08
1 4 -6 26.79 2.16
-1 -4 -6 26.64 2.75
-5 1 -6 26.4 2.14
-5 4 6 24.06 2.34
-4 -1 6 25.33 2.32
-4 5 -6 26.9 2.2
-5 4 6 25.1 2.25
-1 -4 -6 26.55 2.09
-4 -1 6 25.81 2.37
-1 5 6 23.11 2.2
0 -5 -6 54.67 4.2
0 5 -6 60.42 4.2
-5 5 6 60.59 4.43
5 0 -6 60.56 4.17
0 -5 -6 56.65 4.76
-5 0 -6 60.66 4.27
-5 0 6 56.2 4.41
0 -5 6 61.03 4.45
0 -5 6 57.58 4.39
0 -5 -6 59.42 4.4
-5 5 -6 60.34 4.23
0 5 -6 62.46 4.24
5 -5 -6 61.57 4.62
-5 0 6 64.5 4.44
-6 3 -6 12.83 1.43
-6 3 -6 13.45 1.45
3 -6 -6 9.7 1.72
6 -3 -6 13.12 2.06
-3 -3 6 11.88 1.67
-6 3 6 12.32 1.77
-3 -3 -6 11.16 1.4
-3 6 -6 12.67 1.41
-3 -3 -6 11.28 1.47
3 3 -6 12.19 1.37
-3 6 -6 8.8 1.22
-6 3 6 12.51 1.88
-3 -3 6 12.96 1.75
3 -6 6 13.63 1.75
3 -6 -6 10.17 1.64
-3 6 6 11.39 1.59
-3 -3 -6 8.95 1.58
-6 3 6 12.14 1.56
6 -3 -6 12.92 1.4
6 -4 -6 7.35 1.56
-2 -4 6 6.76 1.28
-4 -2 -6 5.18 1.23
-4 6 6 8.13 1.49
4 2 -6 8.07 1.14
-4 -2 -6 8.83 1.22
-4 -2 -6 5.55 1.09
2 -6 -6 8.44 1.58
-2 6 -6 8.38 1.21
-2 6 -6 7.8 1.13
-6 2 6 8.46 1.45
-6 2 6 7.27 1.25
-6 4 -6 6.69 1.13
-2 -4 6 6.55 1.27
4 -6 6 5.44 1.08
2 -6 -6 8.83 1.43
-6 4 -6 8.23 1.22
-6 2 6 7.44 1.32
-2 -4 -6 2.32 1.05
-6 4 6 3.51 1.08
6 -2 -6 1.52 0.8
-6 2 -6 3.84 0.97
-6 4 6 2.27 1.04
-6 4 6 2.55 1.14
-4 -2 6 2.86 1.07
-4 -2 6 3.11 1.04
-2 -4 -6 2.83 1.4
2 -6 6 2.04 1.05
2 -6 6 2.13 1.1
-4 -2 6 1.22 1.02
2 4 -6 2.69 0.77
-2 -4 -6 1.94 0.85
-4 6 -6 2.95 0.78
-2 6 6 1.39 0.81
4 -6 -6 1.52 1.19
-6 1 6 7.66 1.42
1 -6 -6 6.75 1.39
-1 -5 6 6.15 1.26
-1 6 -6 6.03 0.94
-6 5 -6 7.27 1.33
-1 -5 6 6.01 1.28
6 -5 -6 5.26 1.43
-6 1 6 5.41 1.37
1 -6 -6 5.77 1.51
-5 -1 -6 3.83 1.01
5 1 -6 6.03 0.93
-5 -1 -6 6.01 1.06
-5 6 6 7.05 1.25
-6 1 6 4.93 1.08
-1 6 -6 5.46 0.96
1 5 -6 10.75 1.28
-5 -1 6 8.61 1.46
-6 1 -6 9.54 1.37
-5 -1 6 8.78 1.56
-1 -5 -6 8.78 1.7
6 -1 -6 10.89 1.35
-6 5 6 8.75 1.58
-5 6 -6 10.22 1.32
-1 -5 -6 8.79 1.44
-5 -1 6 7.79 1.39
-6 5 6 9.35 1.41
5 -6 -6 9.26 1.61
-1 -5 -6 8.57 1.23
1 5 -6 8.49 1.31
1 -6 6 10.7 1.58
1 -6 6 11.03 1.69
0 -6 -6 0.6 1.32
6 -6 -6 0.9 1.32
0 6 -6 0.73 0.72
0 -6 -6 0.72 1.15
6 0 -6 -0.11 0.72
0 6 -6 0.34 0.67
-6 6 6 0.58 1.03
-6 0 6 1.17 1.11
-6 0 -6 1.46 0.86
-6 6 -6 1.91 0.85
0 -6 6 0.76 1.15
-6 0 6 0.56 1.07
0 -6 -6 0.42 0.8
-6 0 -6 1.04 1.16
0 -6 6 0.98 1.04
7 -4 -6 24.22 2.59
3 -7 -6 23.2 2.72
-3 7 -6 22.96 2.07
-3 -4 6 21.25 2.23
-7 3 6 22.72 2.26
-7 4 -6 23.63 2.09
7 -4 -6 26.43 2.17
-3 -4 6 23.81 2.35
-4 7 6 24.98 2.36
-3 7 -6 26.87 2.2
-7 3 6 23.37 2.27
-4 -3 -6 22.81 2.15
-4 -3 -6 24.38 2.16
3 -7 -6 23.68 2.41
-7 3 6 25.51 2.46
4 3 -6 24.17 2.05
-3 -4 -6 21.31 2.05
-7 4 6 20.83 2.3
4 -7 -6 22.29 2.57
7 -3 -6 23.43 1.96
-3 -4 -6 20.62 2.1
-4 7 -6 23.8 2.11
-7 4 6 24.46 2.48
-4 -3 6 21.85 2.25
3 -7 6 18.6 2.19
7 -3 -6 23.34 2.7
-7 4 6 22.95 2.18
-4 -3 6 20.47 2.14
-7 3 -6 21.41 2.05
-3 7 6 23.36 2.31
3 4 -6 24.94 2.05
2 -7 -6 -0.73 1.18
5 2 -6 0.56 0.71
2 -7 -6 -0.03 1.31
-2 -5 6 1.38 1.1
7 -5 -6 0.18 1.3
-2 -5 6 0.75 1.01
-2 7 -6 1.47 0.75
-5 7 6 -0.1 1.03
-7 2 6 1.14 0.87
-5 -2 -6 0.49 0.94
-7 5 -6 0.45 0.78
-7 2 6 1.07 1.13
-5 -2 -6 0.35 0.91
-7 2 6 1.62 1.09
-7 5 -6 0.44 0.75
-2 7 -6 0.67 0.8
-7 5 6 1.99 1.12
2 5 -6 3.04 0.8
2 -7 6 2.28 1.09
-2 -5 -6 1.49 0.95
5 -7 -6 2.08 1.32
-5 -2 6 1.48 1
-2 -5 -6 1.25 1.35
-2 -5 -6 1.29 1.01
-7 2 -6 1.46 0.97
-2 7 6 1.43 0.87
7 -2 -6 2.26 0.82
-5 -2 6 0.09 1.04
-5 7 -6 2.38 0.82
-7 5 6 1.31 1.07
-7 5 6 1.68 0.96
2 5 -6 0.33 0.6
-5 -2 6 2.49 1.07
2 -7 6 1.82 1.06
7 -6 -6 39.38 3.86
-1 -6 6 49.9 3.77
1 -7 -6 50.17 3.84
-6 -1 -6 40.78 3.69
-1 7 -6 46.5 3.51
-1 -6 6 47.56 3.82
-7 1 6 47.48 3.69
-6 -1 -6 41.96 3.56
6 1 -6 53.26 3.56
1 -7 -6 40.62 4.13
-7 1 6 46.11 3.74
-7 6 -6 50.76 3.6
-1 7 -6 54.42 3.62
-6 7 6 52.98 3.85
-7 1 6 53.54 3.95
-1 -6 -6 43.36 4.11
-7 6 6 44.35 3.69
1 -7 6 49.66 3.72
-7 6 6 46.91 3.61
-6 -1 6 46.97 3.68
1 6 -6 49.93 3.52
6 -7 -6 45.32 3.94
-6 -1 6 47.8 3.71
7 -1 -6 52.86 3.49
-7 1 -6 48.47 3.78
-6 7 -6 54.62 3.62
1 6 -6 42.09 3.42
-1 -6 -6 42.74 3.48
1 -7 6 42.43 3.73
-7 1 -6 44.34 3.53
-1 -6 -6 46.22 3.69
0 7 -6 44.02 3.45
-7 7 -6 47.77 3.62
7 0 -6 51.14 3.47
-7 0 6 51.36 3.81
0 7 -6 43.77 3.48
-7 7 6 52.66 3.84
0 -7 6 38.6 3.71
-7 0 -6 49.17 3.83
0 -7 6 47.18 3.71
0 7 6 50.58 3.69
0 -7 -6 43.82 3.75
4 -8 -6 30.89 2.87
4 -8 -6 26.22 3.15
-4 -4 6 29.46 2.7
-8 4 -6 30.75 2.56
-8 4 -6 29.6 2.83
8 -4 -6 32.43 2.48
-4 8 -6 35.37 2.64
-8 4 6 26.68 2.63
-8 4 6 34.13 2.93
-8 4 6 30.69 2.79
-4 8 -6 27.78 2.42
-4 8 6 32.44 2.8
-4 -4 6 27.25 2.72
4 4 -6 32.33 2.53
-3 8 -6 27.6 2.28
5 3 -6 29.03 2.29
3 -8 -6 21.17 2.93
-3 -5 6 23 2.37
-3 8 -6 31.34 2.31
8 -5 -6 26.22 2.31
3 -8 -6 25.67 2.64
-8 3 6 23.89 2.37
-8 3 6 21.13 2.34
-5 8 6 26.66 2.58
-8 5 -6 27.9 2.4
-8 3 6 29.27 2.81
-3 -5 6 23.75 2.49
-8 5 6 25.88 2.68
3 5 -6 31.46 2.38
8 -3 -6 33.19 2.42
-3 8 6 30.91 2.71
-8 5 6 26.8 2.52
-8 5 6 28.76 2.89
5 -8 -6 26.4 3
-8 3 -6 24.23 2.58
-5 -3 6 25.29 2.52
-5 -3 6 25.57 2.54
-5 8 -6 34.03 2.55
2 -8 -6 3.78 1.38
-6 8 6 3.69 1.19
-2 -6 6 4.69 1.25
-2 8 -6 3.17 0.91
-8 2 6 4.72 1.39
8 -6 -6 0 1.37
-2 -6 6 3.13 1.17
-8 6 -6 4.6 0.97
2 -8 -6 1.83 1.53
-8 2 6 3.06 0.94
6 2 -6 3.54 0.86
-2 8 -6 3.75 0.97
-8 2 6 0.56 1.07
-8 2 -6 2.42 1.1
-2 8 6 1.43 0.81
2 6 -6 4.07 0.97
8 -2 -6 1.89 0.75
-2 -6 -6 -0.01 0.87
2 -8 6 -0.31 1.15
-6 8 -6 2.75 0.89
-2 -6 -6 0.07 1.01
-6 -2 6 -0.13 0.92
-8 6 6 1.91 1.08
2 -8 6 2.76 1.25
-8 6 6 1.32 1.04
6 -8 -6 0.3 1.29
-8 6 6 1.57 1.07
-6 -2 6 2.75 1.17
-8 2 -6 0.19 1.11
-8 1 6 36.99 3.18
7 1 -6 36.93 2.81
-8 7 -6 36.57 2.92
-7 8 6 37.06 3.17
1 7 6 37.52 2.98
-1 8 -6 34.22 2.85
-1 -7 6 33.26 2.95
-7 -1 -6 35.32 3.07
-1 8 -6 33.15 2.79
-8 7 6 33.58 3.09
8 -1 -6 33.41 2.78
-8 1 -6 33.63 3.13
1 7 -6 36.62 2.81
-1 8 6 36.39 3.11
-7 8 -6 40.38 3.03
1 -8 6 33.58 3.01
-7 -1 6 36.44 3.09
0 -8 6 18.97 2.14
-8 0 -6 17.31 2.06
-8 8 -6 20.42 2.16
-8 0 6 19.66 2.22
8 0 -6 17.28 1.75
0 8 -6 14.57 1.78
0 8 6 21.61 2.11
-8 8 6 19.35 2.26
0 8 -6 21.14 1.98
9 -5 -6 4.27 0.94
-4 9 -6 3.3 0.95
4 -9 -6 0.19 1.59
-9 4 6 3.46 1.43
-4 -5 6 3.4 1.17
-9 4 6 4.27 1.18
5 4 -6 4.35 0.99
-5 9 6 4.99 1.37
-9 5 -6 3.95 1.04
-9 5 -6 4.24 1.28
-4 9 -6 3.55 0.97
4 -9 -6 -0.03 1.33
-5 9 -6 9.03 1.31
9 -4 -6 5.14 1.01
4 5 -6 8.25 1.2
-5 -4 6 4.76 1.28
-9 5 6 7.27 1.4
-9 5 6 7.7 1.8
-4 9 6 7.33 1.48
-9 4 -6 5.99 1.4
-9 6 -6 12.59 1.87
9 -6 -6 6.52 1.15
-3 9 -6 7.07 1.16
-3 9 -6 8.79 1.44
-6 9 6 7.58 1.5
-9 3 6 8.14 1.34
6 3 -6 8.74 1.3
-9 6 -6 6.77 1.28
-3 -6 6 10.1 1.64
-9 3 6 7.99 1.66
-6 9 -6 6.13 1.11
-9 6 6 4.53 1.18
-6 -3 6 5.02 1.3
-9 3 -6 4.5 1.23
9 -3 -6 3.15 0.81
-3 9 6 4.15 1.16
3 6 -6 6.82 1.14
-9 6 6 4.77 1.51
-2 -7 6 51.98 4.06
-2 9 -6 52.51 3.93
-9 7 -6 51.12 3.97
-7 9 6 51.59 4.22
-9 2 6 54.75 4.33
7 2 -6 50.32 3.77
-2 9 -6 47.95 3.86
2 7 6 49.89 4.02
-9 7 -6 57.65 4.28
-2 9 6 50.93 3.85
9 -2 -6 42.42 3.48
-7 9 -6 54.24 3.81
-9 2 -6 41.96 3.71
-9 7 6 43.59 3.89
-7 -2 6 47.6 3.82
2 7 -6 51.55 3.58
-9 1 6 1.56 1.24
-8 9 6 1.67 1.26
8 1 -6 1.5 0.83
-9 8 -6 1.35 0.97
-1 9 -6 1.48 0.85
-1 -8 6 1.09 1.14
-8 -1 -6 0.82 1.11
-1 9 -6 -0.07 0.78
-9 8 -6 1.5 1.34
1 8 6 1.2 1.15
9 -1 -6 0.9 0.74
-9 8 6 1.77 1.07
1 -9 6 1.32 1.12
1 8 -6 2.2 0.86
-1 9 6 0.64 1.01
-8 -1 6 1.04 1.16
-9 1 -6 1.07 1.18
-8 9 -6 0.94 0.95
0 9 6 29.68 2.81
-9 9 -6 31.12 2.81
0 9 -6 33.03 2.63
0 -9 6 26.56 2.68
9 0 -6 26.6 2.43
-9 0 -6 29.91 2.89
-9 0 6 32.24 3.08
-9 9 6 32.92 3.02
-9 9 -6 35.61 3.18
5 5 -6 64.38 4.64
-5 10 6 70.26 5.11
-10 5 6 63.62 5.13
-5 10 -6 67.95 4.82
-5 -5 6 61.54 4.86
-10 5 -6 62.64 4.88
-10 5 6 58.16 4.77
10 -6 -6 18.17 1.92
-6 10 6 23.67 2.71
-4 -6 6 20.71 2.36
6 4 -6 21 1.98
-10 4 6 20.12 2.3
-10 6 -6 18.36 2.24
-4 10 -6 19.7 2.11
-10 4 6 23.08 2.72
-4 10 -6 22.23 2.26
-10 6 -6 21.15 2.27
-6 10 -6 30.01 2.6
-4 10 6 27.27 2.87
-10 4 -6 26.25 2.63
4 6 -6 31.17 2.43
-10 6 6 27.91 2.82
-10 6 6 25.72 2.97
-6 -4 6 26.82 2.77
-10 3 6 0.67 1.3
-3 -7 6 0.43 1.2
-10 7 -6 0.01 1.06
3 7 6 0.5 1.01
-3 10 -6 0.47 0.84
7 3 -6 0.66 0.8
-7 10 6 -1.12 1.23
10 -7 -6 0.73 0.74
-3 10 -6 -0.46 0.89
-10 3 6 0.12 0.91
-10 7 -6 0.68 1.23
-7 -3 6 0.81 1.27
-3 10 6 0.82 1.03
-10 7 6 0.35 1.33
-3 10 6 0.96 1.03
10 -3 -6 -0.19 0.65
-10 3 -6 0.96 1.16
-10 7 6 0.33 1.13
-7 10 -6 1.12 1.05
3 7 -6 1.06 0.82
-10 8 -6 36.28 3.41
8 2 -6 37.17 3.08
-2 10 -6 41.8 3.25
2 8 6 37.73 3.29
-10 8 -6 43.25 3.49
-2 -8 6 42.06 3.39
-8 10 6 42.24 3.6
-2 10 -6 32.78 3.13
-10 2 6 44.64 3.6
-8 -2 6 45.66 3.83
-10 2 -6 42.95 3.79
-10 8 6 44.24 3.83
-2 10 6 48.85 3.74
2 8 -6 49.49 3.63
-8 10 -6 46.82 3.74
9 1 -6 6.01 1.07
-9 -1 -6 7.43 1.47
-1 10 -6 4.06 1.14
-1 10 -6 10.14 1.55
-10 9 -6 7.54 1.47
1 9 6 10.84 1.65
1 9 -6 7.51 1.26
-10 9 6 8.62 1.68
-10 1 -6 7.91 1.65
-9 10 -6 6.68 1.63
-1 10 6 7.57 1.43
-9 -1 6 8 1.72
-9 10 -6 7.72 1.52
0 10 6 11.85 1.98
-10 0 -6 13.1 2.11
-10 0 6 14.72 2.15
0 10 -6 12.57 1.82
-10 10 6 13.1 2.14
-10 10 -6 10.77 1.95
-10 10 -6 15.98 2.38
-11 6 -6 0.71 0.88
-11 6 -6 2.58 1.19
-5 11 -6 2.89 1.19
-5 11 -6 1.78 1.06
-5 -6 6 2.66 1.3
-11 5 6 3.85 1.65
6 5 -6 3.38 1.03
-11 5 6 1.89 1.06
-6 11 6 2.62 1.46
-6 -5 6 7.24 1.57
-11 6 6 5.89 1.6
5 6 -6 6.91 1.18
-6 11 -6 9.03 1.52
-11 6 6 6.88 1.39
-11 5 -6 8.12 1.52
-5 11 6 6.7 1.6
4 7 6 23.72 2.7
-11 4 6 30.29 3.11
-4 -7 6 32.28 2.96
-11 7 -6 25.92 2.85
7 4 -6 33.96 2.72
-4 11 -6 32 2.83
-11 7 -6 35.22 3.05
-7 11 6 33.28 3.36
-11 4 6 30.46 2.85
-4 11 -6 31.89 2.78
-11 7 6 39.9 3.56
4 7 -6 46.92 3.36
-7 -4 6 42.42 3.55
-7 11 -6 41.94 3.49
-11 4 -6 43.51 3.57
-4 11 6 40.43 3.67
-11 7 6 33.45 3.63
-11 8 -6 25.52 2.6
3 8 6 19.63 2.41
-8 11 6 23.7 2.86
8 3 -6 20.25 2.01
-3 11 -6 23.31 2.36
-3 -8 6 21.71 2.41
-11 3 6 23.54 2.81
-11 8 -6 16.56 2.36
-3 11 -6 17.48 2.16
-3 11 6 20.76 2.29
-11 8 6 21.14 2.59
-11 8 6 15.32 2.39
-8 11 -6 19.34 2.42
-8 -3 6 21.45 2.59
3 8 -6 23.97 2.23
-11 3 -6 20.43 2.25
-2 11 -6 -0.82 0.95
-2 -9 6 -0.01 0.93
-11 9 -6 0.59 1.03
-11 9 -6 2.02 1.35
2 9 6 0.76 1.21
-9 11 6 0.95 1.2
9 2 -6 0.95 0.82
-2 11 -6 0.86 1.12
-11 2 6 1.97 1.52
-11 2 -6 0.78 1.25
-2 11 6 0.54 1.21
-9 -2 6 1.81 1.44
-9 11 -6 0.67 1.31
-9 11 -6 0.63 1.01
-11 9 6 1.28 1.25
2 9 -6 0.67 1.01
-10 11 6 13 2.02
-10 -1 -6 8.33 1.67
-1 11 -6 11.02 1.62
-11 10 -6 7.86 1.66
-11 10 -6 9.97 1.87
1 10 6 8.01 1.62
-11 1 6 11.92 2.05
-10 11 -6 9.61 1.84
1 10 -6 12.41 1.63
-1 11 6 13 1.87
-11 1 -6 8.93 1.71
-10 -1 6 10.95 2.05
-11 10 6 11.19 2.09
-10 11 -6 10.27 1.78
-11 0 6 13.53 2.22
-11 11 -6 12.82 2.29
-11 11 6 11.64 2.19
-11 11 -6 10.58 1.77
0 11 -6 16.99 1.99
-11 0 -6 12.7 2.15
0 11 6 11.21 1.81
-6 -6 6 43.25 3.61
-6 12 6 39.18 3.81
-12 6 -6 38.07 3.36
6 6 -6 35.9 3.13
-12 6 6 42.05 3.57
-12 6 6 40.88 3.77
-6 12 -6 35.37 3.47
-5 -7 6 43.15 3.52
-5 12 -6 30.99 3.21
-5 12 -6 34.29 3.33
-12 5 6 38.32 3.4
-12 5 6 40 3.77
-12 7 -6 41.96 3.51
-7 12 6 43.19 3.95
-12 7 6 44.6 3.85
-12 7 6 36.36 3.81
-12 5 -6 45.2 3.63
-7 12 -6 41.7 3.74
-5 12 6 42.08 3.96
5 7 -6 46.26 3.46
-7 -5 6 47.29 3.84
8 4 -6 19.09 2.17
-8 12 6 24.83 3.01
-12 8 -6 17.44 2.41
-4 -8 6 21.26 2.44
-4 12 -6 20.29 2.4
-12 4 6 24.91 2.86
4 8 6 20.31 2.5
-4 12 -6 16.51 2.37
-12 8 -6 26.41 2.65
-12 8 6 26.37 2.78
-4 12 6 28.22 2.64
-12 8 6 20.18 2.85
4 8 -6 28.21 2.54
-8 12 -6 21.93 2.6
-12 4 -6 27.32 2.75
-8 -4 6 28.03 2.9
9 3 -6 10.28 1.76
-3 12 -6 13.57 1.91
3 9 6 11.48 1.83
-12 9 -6 14.9 2.1
-9 12 6 14.9 2.34
-12 9 -6 10.78 2.05
-12 3 6 14.88 2.52
-3 12 6 18.75 2.42
-9 -3 6 20.11 2.44
-9 12 -6 17.56 2.43
3 9 -6 21.64 2.32
-12 3 -6 19.02 2.42
-12 9 6 19.42 2.59
-9 12 -6 15.66 2.43
-2 12 -6 -0.54 0.8
10 2 -6 -1.53 0.82
-12 10 -6 0.97 1.42
-12 10 -6 -0.43 1.05
-2 12 -6 -0.13 1.07
-12 2 6 -0.32 1.31
2 10 6 0.69 1.2
-10 12 6 -0.17 1.17
-2 12 6 0.43 1.09
-10 12 -6 -0.53 1.27
-10 12 -6 -0.32 1.08
2 10 -6 -0.25 1.13
-12 2 -6 -0.38 1.28
-12 10 6 -0.3 1.15
-10 -2 6 0.26 1.49
-1 12 -6 15.6 2.25
-12 11 -6 12.79 2.3
-11 12 6 16.35 2.29
1 11 6 11.73 1.96
-12 11 -6 11.4 2.06
-12 1 6 14.85 2.57
-12 1 -6 17.49 2.38
-12 11 6 15.3 2.38
1 11 -6 15.59 2.31
-11 -1 6 16.94 2.59
-11 12 -6 14.73 2.39
-11 12 -6 13.77 2.19
-1 12 6 15.7 2.45
-12 12 6 0.81 0.92
-12 0 -6 3.69 1.54
-12 12 6 4.19 1.4
12 0 6 0.15 0.59
-12 12 -6 1.94 1.2
0 -12 6 0.75 0.73
0 12 -6 2.23 1.2
0 12 6 2.75 1.34
-12 0 6 3.23 1.74
-12 12 -6 3.81 1.56
0 12 6 2.09 0.73
-7 13 6 11.44 2.12
-6 13 -6 9.83 1.76
-13 6 6 11.54 2.12
-13 6 6 10.55 2.05
-6 -7 6 9.09 1.84
7 6 -6 12.1 1.9
-7 13 -6 16.07 2.28
-13 7 6 18.75 2.58
-13 6 -6 20.05 2.27
-7 -6 6 21.68 2.65
-6 13 6 19.06 2.82
6 7 -6 18.82 2.12
-13 7 6 16.46 2.58
8 5 -6 6.25 1.26
-5 13 -6 8.08 1.43
-5 13 -6 7.43 1.52
-13 8 -6 6.73 1.32
-8 13 -6 9.31 1.62
-13 5 -6 10.91 1.86
-8 -5 6 12.92 2.31
-13 8 6 7.18 1.75
-13 8 6 9.26 1.73
5 8 -6 9.99 1.54
9 4 -6 5.26 1.22
4 9 6 6.67 1.55
-13 4 6 10.72 1.94
-4 13 -6 6.66 1.41
-4 13 -6 4.95 1.34
-13 9 -6 8.44 1.56
-9 -4 6 13.57 2.38
-9 13 -6 14.37 2.06
-13 9 6 14.81 2.54
-4 13 6 14.49 2.29
-13 4 -6 14.01 2.25
4 9 -6 13.44 2.16
-13 3 6 0.17 1.49
13 -3 6 0.07 0.62
-3 13 -6 0.81 0.93
-3 13 -6 0.09 1.25
-13 3 6 -1.22 0.63
3 10 6 -0.07 0.58
-13 10 -6 0.18 1.16
3 10 6 0.01 1.32
10 3 -6 -1.76 0.8
-13 10 -6 0.26 1.28
-10 13 6 -0.27 1.24
13 -3 -6 -0.09 0.51
-13 3 -6 1.14 1.36
-10 13 -6 0.36 1.14
-10 -3 6 1.43 1.49
-13 10 6 0.74 1.32
3 -13 6 -0.4 0.56
-10 13 -6 0.17 0.63
3 10 -6 -0.7 1.1
-3 13 6 0.66 1.12
-10 13 -6 1.39 1.24
10 3 6 0 0.69
-11 13 6 8.51 1.82
-13 11 -6 6.54 1.74
-13 2 6 9.43 2.12
-2 13 -6 7.48 1.64
2 11 6 4.66 0.95
-13 11 -6 6.86 1.58
13 -2 6 6.36 1.02
2 11 6 4.29 1.59
2 -13 6 3.01 0.85
13 -2 -6 3.99 0.83
-13 2 -6 8.55 1.78
-11 13 -6 5.19 1.04
-11 13 -6 3.01 1.37
-2 13 6 8.11 1.63
-11 -2 6 7.18 1.86
-2 13 6 1.6 0.77
11 2 6 4.31 0.94
2 11 -6 6.41 1.44
-13 11 6 6.57 1.62
-13 12 -6 4.25 1.62
13 -1 6 3.24 0.84
-12 13 6 3.97 1.17
1 12 6 2.86 1.61
-12 13 6 4.85 1.57
-13 1 6 3.44 1.1
-1 13 -6 1.51 1.3
1 12 6 4.26 1
-13 1 6 6.04 1.95
-1 -12 6 3.5 0.96
-13 12 -6 1.86 1.22
-1 13 6 2.79 1.39
1 12 -6 1.6 1.36
-13 12 6 0.59 0.98
-12 13 -6 1.96 1.06
-1 13 6 2.22 0.91
-12 13 -6 2.16 1.27
-13 12 6 2.24 1.42
-12 13 -6 0.9 1.39
12 1 6 2.54 0.93
-12 -1 6 1.33 0.9
-12 -1 6 2.53 1.6
13 -1 -6 1.55 0.82
1 -13 6 2.59 0.95
-13 1 -6 3.45 1.56
13 0 6 13.2 1.72
0 13 6 11.67 2.04
-13 0 6 16.18 2.52
-13 13 -6 12.14 2.29
-13 13 6 14.34 2.56
-13 13 6 10.29 1.78
0 13 -6 13.81 2.07
13 0 -6 12.55 1.66
-13 13 -6 13.48 1.93
0 13 6 14.08 1.72
0 -13 6 12.69 1.7
-13 13 -6 15.38 2.52
-13 0 6 11.43 1.84
7 7 6 28.52 2.45
-7 14 -6 33.47 3.14
14 -7 -6 25.58 2.44
-7 14 6 33.41 3.54
7 7 -6 38.73 3.16
-14 7 -6 36.6 3.09
-14 7 6 26.16 2.99
-14 7 6 33.61 3.41
-7 -7 6 37.4 3.25
-14 6 6 7.46 1.93
14 -8 -6 1.98 0.69
8 6 -6 2.43 1.08
14 -6 6 1.55 0.75
8 -14 6 0.09 0.64
-14 8 -6 5.86 1.55
-6 14 -6 2.13 1.16
6 8 6 0.18 0.56
-8 14 6 4.04 1.64
-6 14 -6 2.79 1.18
8 6 6 0.6 0.65
-14 8 6 1.84 1.41
8 6 6 1.35 0.8
-14 6 -6 1.37 1.34
14 -6 -6 1.16 0.76
-14 8 6 2.05 1.43
-8 -6 6 1.42 1.48
6 -14 6 0.55 0.66
-6 14 6 0.74 1.43
6 8 -6 0.99 1.12
-8 14 -6 1.31 1.21
14 -8 6 0.23 0.56
-8 14 -6 0.86 0.88
14 -5 6 -0.07 0.6
-14 9 -6 -0.77 0.82
9 -14 6 -0.05 0.78
14 -9 -6 0.37 0.56
-14 5 6 -1.5 0.66
9 5 -6 -0.83 0.93
-14 5 6 1.15 1.45
-5 14 -6 -0.45 1.13
-14 9 -6 1.33 1.34
14 -5 6 0.16 0.84
-9 14 6 1.54 1.55
5 9 6 0.46 0.76
-5 14 -6 0.06 1.07
-14 5 -6 1.55 1.31
-14 9 6 1.55 1.36
-9 -5 6 2.25 1.69
5 -14 6 1.96 0.81
9 5 6 2.49 0.96
14 -5 -6 0.47 0.79
-9 14 -6 0.62 1.16
-9 14 -6 0.68 0.84
9 5 6 1 0.77
-14 9 6 1.18 1.36
14 -9 6 0.18 0.6
5 9 -6 0.69 1.12
-4 14 -6 5.17 1.38
14 -4 6 7.39 1.16
14 -4 6 5.19 1.01
-14 10 -6 4.82 1.39
-14 4 6 5.59 1.13
4 10 6 4.09 1.5
-14 4 6 9.16 2.06
4 10 6 6.52 1.06
-10 14 6 9.98 1.94
-14 10 -6 9.55 1.9
-10 14 -6 14.21 1.88
4 -14 6 13.48 1.63
4 10 -6 16.9 2.1
10 4 6 11.91 1.66
-10 14 -6 14.34 2.26
-14 10 6 16.48 2.66
-14 4 -6 14.98 2.33
-4 14 6 14.63 2.37
-10 -4 6 15.62 2.57
14 -4 -6 12.04 1.7
10 4 6 13.57 1.82
-11 14 6 1.08 1.43
-14 3 6 -0.56 1.42
3 11 6 -0.57 1.41
-14 11 -6 -0.05 1.51
3 -14 -6 0.71 0.82
-3 -11 6 -0.24 0.89
14 -3 6 -0.22 0.87
14 -3 6 -0.1 0.84
14 -11 -6 0.01 0.64
-14 3 6 0.49 1.04
-14 11 -6 0.32 1.25
3 11 6 0.24 0.9
-11 14 6 -0.3 0.97
11 -14 6 0.07 0.52
-3 14 -6 -1.08 1.25
-3 14 6 0.02 1.28
3 11 -6 -0.01 1.15
11 3 6 0.74 0.92
-11 14 -6 0.69 1.14
-11 -3 6 0.01 1.6
-14 11 6 0.24 1.27
-3 14 6 0.4 0.82
14 -11 6 0.12 0.51
-11 14 -6 1.11 1.08
-14 11 6 -1.57 0.79
-14 3 -6 -0.63 1.36
3 -14 6 0.79 0.88
-11 -3 6 -0.39 0.74
14 -3 -6 0.25 0.85
-14 12 -6 1.23 1.34
-14 2 6 1.32 1.69
14 -12 -6 0.47 0.67
-12 14 6 1.03 1.28
2 12 6 0.81 0.89
-14 12 -6 2.03 1.51
12 2 -6 0.75 0.7
12 -14 6 0.25 0.53
-2 14 -6 -0.42 1.29
-14 2 6 0.05 0.95
14 -2 6 -0.26 0.87
2 12 6 -0.05 1.39
-12 14 6 0.13 1.06
-2 -12 6 0.78 0.98
-12 14 -6 0.77 1.18
2 12 -6 -0.12 1.26
-2 14 6 0.22 0.85
14 -12 6 0.26 0.55
-12 -2 6 -0.13 0.91
-12 14 -6 0.53 1.04
2 -14 6 -0.24 0.84
-14 2 -6 -0.67 1.35
-14 12 6 -0.12 1.03
12 2 6 0.82 0.94
14 -2 -6 -0.43 0.87
-14 12 6 0.16 1.31
-12 -2 6 0.9 1.66
12 -14 -6 0.29 0.58
-2 14 6 0.21 1.2
-13 14 6 6.92 1.27
-14 1 6 5.4 1.21
13 1 -6 4.53 0.99
1 13 6 4.95 1.71
13 -14 6 3.46 0.79
-1 14 -6 4.2 1.55
-1 -13 6 6.06 1.12
-14 13 -6 5.28 1.62
-14 13 -6 5.79 1.69
-13 14 6 7.48 1.78
14 -13 -6 3.91 0.86
-14 1 6 7.98 2.06
-14 13 -6 6.58 1.19
1 13 6 7.29 1.14
14 -1 6 6.75 1.17
-1 14 6 5.27 1.66
-14 1 -6 6.46 1.71
1 -14 6 4.9 1.04
-13 14 -6 6.18 1.62
14 -13 6 4.63 0.85
1 13 -6 4.37 1.54
-14 13 6 3.25 1.37
-1 14 6 7.22 1.18
-13 -1 6 3.99 1.18
13 1 6 7.42 1.22
-13 14 -6 5.18 1.15
-14 13 6 6.09 1.29
-13 -1 6 3.78 1.79
14 -1 -6 4.64 1.03
14 -14 -6 1.3 0.74
0 14 6 1.45 1
-14 14 -6 1.33 0.99
-14 0 6 0.53 1
-14 14 6 0.84 1.04
14 0 -6 0.47 0.9
14 -14 6 0.18 0.69
-14 14 6 1.72 1.4
0 -14 6 0.52 0.94
-14 14 -6 0.87 1.37
0 14 6 -0.93 1.42
-14 0 6 1.16 1.76
14 0 6 0.29 0.93
0 14 -6 -0.12 1.26
15 -7 6 3.96 1.06
-15 8 -6 3.91 1.57
7 8 6 1.84 0.87
7 8 6 2.72 0.81
15 -7 6 4 1.01
15 -8 -6 2.96 0.91
8 -15 6 2.64 0.94
-15 7 6 3.58 1.58
-8 15 6 3.3 1.56
-7 15 -6 2.19 1.27
8 7 -6 0.56 1.15
7 8 -6 2.07 1.33
-7 15 6 4.18 1.67
15 -8 6 2.54 0.89
-8 15 -6 4.54 1.51
8 7 6 3.6 0.82
8 7 6 4.03 0.89
15 -7 -6 3.48 0.9
-15 8 6 3.85 1.58
-8 -7 6 0.25 1.3
15 -8 6 3.42 1
7 -15 6 4.05 0.97
8 7 6 5.12 1.06
-15 7 -6 4.39 1.57
15 -6 6 12.32 1.69
6 -15 -6 11.85 1.55
-9 15 6 13.88 2.29
-15 6 6 15.98 2.63
15 -9 -6 12.84 1.61
6 9 6 13.05 1.68
-15 6 6 9.71 1.41
15 -6 6 12.56 1.71
-6 15 -6 8.62 1.69
9 -15 6 11.96 1.58
-15 9 -6 14.74 2.36
6 -15 6 14.34 1.76
-9 15 -6 14.76 1.83
15 -9 6 9.52 1.57
-15 6 -6 16.28 2.36
-15 9 6 13.25 2.4
15 -6 -6 14.75 1.7
6 9 -6 12.2 1.9
9 6 6 11.67 1.63
-9 15 -6 16.42 2.5
9 6 6 14.1 1.75
15 -9 6 13.57 1.69
-15 9 6 16.22 2.63
-9 -6 6 13.36 2.44
15 -5 6 0.34 0.93
-15 5 6 -0.23 1.54
-5 -10 6 -0.35 0.85
-5 15 -6 0.53 1.16
10 5 -6 -1.02 1.48
-5 15 -6 -0.41 0.98
-10 15 6 -1.47 0.96
10 -15 6 0.35 0.83
15 -5 6 -0.14 0.87
5 -15 -6 -0.34 0.89
5 10 6 0.26 0.93
-10 15 6 0.35 1.49
15 -10 -6 1.22 0.86
-15 5 6 -0.27 0.98
-15 10 -6 -1.06 1.39
-15 5 -6 1.28 1.4
10 5 6 1.68 1.07
-10 15 -6 -0.03 1.25
15 -10 6 0.12 0.83
15 -5 -6 0.21 0.85
5 -15 6 0.62 0.88
15 -10 6 0.77 0.79
5 10 -6 -0.53 1.21
-15 10 6 -0.14 1.37
10 5 6 -0.02 0.57
-10 15 -6 1.93 0.97
-10 -5 6 0.57 1.52
10 5 6 -0.2 0.88
4 -15 -6 1.3 0.94
15 -4 6 1.69 1.03
4 11 6 0.68 1.42
-15 11 -6 0.48 1.56
-11 15 6 0.08 1.03
-15 4 6 -0.39 1.01
-4 15 -6 0.49 1.27
-15 11 -6 -0.91 1.12
15 -11 -6 0.67 0.78
11 -15 6 0.48 0.82
-11 15 6 1.34 1.52
4 11 6 1.01 0.96
-15 4 6 1.08 1.63
15 -4 6 0.53 0.9
-4 -11 6 0.55 0.95
11 4 -6 -0.01 0.66
11 4 6 0.99 1.04
4 11 -6 -0.3 1.18
4 -15 6 -0.03 0.86
-15 4 -6 -0.27 1.34
-4 15 6 0.32 1.21
-11 -4 6 -0.25 0.66
-15 11 6 -0.54 0.89
-15 11 6 0.35 1.4
-11 15 -6 0.48 0.97
-11 -4 6 1.4 1.59
11 4 6 0.01 0.88
-11 15 -6 0.31 1.26
15 -11 6 0.33 0.75
15 -11 6 -0.66 0.82
15 -4 -6 0.17 0.92
12 3 -6 1.88 0.83
3 12 6 2.19 0.96
-15 3 6 2.38 1.71
-3 -12 6 3.37 1.11
15 -12 -6 2.15 0.88
-15 12 -6 1.43 1.63
3 -15 -6 3.44 1.01
-15 12 -6 2.09 1.38
-12 15 6 1.13 1.03
12 -15 6 2.13 0.79
-15 3 6 2.79 1.13
-3 15 -6 1.42 1.34
3 12 6 1.77 1.52
-12 15 6 2.84 1.54
15 -3 6 2.05 1
-12 15 -6 4.32 1.55
12 3 6 4.64 1.13
15 -3 -6 4.86 1.09
-12 -3 6 3.72 1.83
15 -12 6 0.33 0.92
-12 15 -6 3.94 1.06
3 12 -6 2.97 1.48
-15 12 6 3.46 1.17
15 -12 6 3.01 0.86
-15 12 6 3.48 1.56
3 -15 6 3.77 1.02
-12 -3 6 2.37 0.98
-3 15 6 3.85 1.45
-15 3 -6 2.94 0.93
-15 3 -6 3.47 1.52
-15 2 6 4.76 1.86
2 13 6 3.33 1
13 -15 6 2.83 0.88
-13 15 6 3.92 1.21
-15 13 -6 4.19 1.02
-2 15 -6 1.39 1.33
2 13 6 2.53 1.55
-15 13 -6 1.66 1.48
-15 2 6 3.25 1.17
2 -15 -6 4.64 1.04
-2 -13 6 5.18 1.12
-13 15 6 3.53 1.45
15 -2 6 2.74 0.95
-15 13 -6 2.32 1.42
15 -13 -6 2.99 0.91
13 2 -6 2.86 0.94
-13 -2 6 5.69 2
15 -13 6 4.05 0.91
2 13 -6 4.09 1.57
-13 -2 6 3.53 1.13
-13 15 -6 5.1 1.12
-13 15 -6 4.84 1.62
-15 2 -6 4.4 1.65
15 -2 -6 4.68 1.09
-15 13 6 3.75 1.52
2 -15 6 5.75 1.09
-15 13 6 3.82 1.19
-2 15 6 4.41 1.02
13 2 6 4.64 1.09
-2 15 6 3.98 1.51
13 -15 -6 2.57 0.79
-14 15 6 1.84 1.07
-1 15 -6 0.88 1.5
15 -1 6 0.74 0.9
-15 1 6 0.87 1.06
14 -15 6 1.32 0.77
15 -14 -6 1.53 0.87
-1 -14 6 1.03 1
-14 15 6 1.28 1.35
14 1 -6 1.99 0.9
-15 14 -6 -0.01 1.32
1 14 6 -0.02 0.91
-15 1 6 1.07 1.7
-15 14 -6 1.67 0.94
1 14 6 0.91 1.65
15 -14 6 0.89 0.81
-14 -1 6 0.38 1.74
-14 15 -6 2.91 1.03
15 -1 -6 1.5 0.91
14 1 6 2.21 1
-15 14 6 0.79 1.02
14 -15 -6 2.14 0.8
1 14 -6 0.81 1.44
-14 -1 6 0.91 1.03
-1 15 6 1.53 0.96
1 -15 6 2.81 0.99
15 -14 6 -0.23 0.9
-15 14 6 1.61 1.4
-1 15 6 1.49 1.44
-14 15 -6 1.27 1.26
-15 0 6 4.37 1.91
0 15 -6 3.75 1.64
15 -15 6 0.74 0.93
15 -15 6 2.62 0.88
15 0 6 6.42 1.19
-15 15 6 4.25 1.48
0 15 6 2.99 1.59
-15 15 6 3.57 1.08
15 -15 -6 3.35 0.9
-15 15 -6 2.09 1.38
0 -15 6 3.06 1.01
-15 0 6 2.8 1.12
0 15 6 3.32 0.96
15 0 -6 3.32 0.97
-15 15 -6 3.81 1.04
8 8 6 6.31 1.07
8 -16 -6 6.87 1.24
-16 8 6 3.4 0.94
8 8 6 7.47 1.05
-8 16 -6 6.5 1.59
-8 16 6 0.31 1.46
8 -16 6 8.15 1.17
16 -8 6 4.76 1.02
16 -8 -6 7.99 1.14
8 8 -6 3.15 1.36
-8 16 -6 4.08 0.96
-16 9 -6 13.24 2.12
9 -16 6 9.02 1.27
16 -7 6 9.37 1.39
7 9 6 9.39 1.41
7 9 6 11.46 1.36
-16 7 6 9.88 1.99
16 -9 -6 10.36 1.51
16 -7 6 11.86 1.39
-9 16 6 6.19 1.73
7 -16 -6 12.06 1.79
-16 7 6 10.84 1.43
-7 16 -6 7.47 1.65
16 -7 -6 9.42 1.22
7 -16 6 9.94 1.26
-9 16 -6 8.89 1.25
7 9 -6 3.51 1.5
9 7 6 5.13 1.03
16 -9 6 6.06 1.08
-16 9 6 4.88 1.65
9 -16 -6 5.84 1.17
-16 7 -6 7.91 1.78
-9 16 -6 6.07 1.56
9 7 6 6.97 1.06
16 -9 6 10.18 1.43
-16 6 6 1.13 1
-6 16 -6 0.1 1.45
16 -10 -6 0.65 0.87
-10 16 6 -0.11 1.06
6 10 6 0.28 0.91
-10 16 6 0.98 1.46
-6 16 -6 -0.25 1.43
10 -16 6 1 0.95
-6 -10 6 0.14 0.93
6 -16 -6 0.77 1.01
16 -6 6 -0.19 0.88
16 -6 6 -0.13 1.01
-16 6 6 0.58 1.62
6 10 6 0.89 0.74
-16 10 -6 1.05 1.39
-16 6 -6 0.75 1.32
16 -6 -6 0.72 0.85
-10 16 -6 0.47 1.31
-16 10 6 0.16 1.26
16 -10 6 0.07 1.07
-10 16 -6 1.62 0.92
10 -16 -6 1.52 0.97
6 10 -6 -1.11 1.35
10 6 6 0.2 0.84
10 6 6 0.98 0.89
16 -10 6 0.31 0.83
10 6 6 0.72 0.88
6 -16 6 1.76 0.91
16 -5 6 0.35 0.95
11 5 -6 -0.06 0.53
-11 16 6 1.75 1.52
-16 5 6 1.28 1.05
16 -11 -6 0.37 0.88
-11 16 6 0.41 1.06
5 11 6 0.2 0.67
5 11 6 1.13 0.93
-16 5 6 2.1 1.66
11 -16 6 0.44 0.9
-5 16 -6 -0.11 1.16
5 -16 -6 1.18 0.97
-5 -11 6 0.72 0.98
16 -5 6 1.3 1.05
-16 11 -6 1.95 1.61
16 -11 6 0.99 0.9
-16 11 6 -0.03 0.79
-11 -5 6 -0.19 1.44
11 5 6 0.2 0.74
-16 5 -6 1 0.8
11 5 6 -0.23 0.88
-11 16 -6 2.17 0.99
-16 5 -6 0.43 1.38
11 5 6 0.94 0.98
5 -16 6 0.47 0.89
5 11 -6 -0.9 1.35
16 -5 -6 1.13 0.95
16 -11 6 0.34 1.15
11 -16 -6 0.08 0.68
-16 11 6 0.29 1.33
-11 16 -6 0.62 1.33
12 -16 6 11.11 1.63
-4 16 -6 9.87 1.85
-4 -12 6 11.29 1.46
-16 4 6 17.51 2.81
4 12 6 11.86 1.75
16 -12 -6 11.94 1.69
-16 12 -6 12.9 2.25
4 -16 -6 11.71 1.68
-12 16 6 15.03 2.69
-12 16 6 11.74 1.94
12 4 -6 11.4 1.54
16 -4 6 11.81 1.47
-16 4 6 12.68 1.92
-12 16 -6 15 2.55
-12 -4 6 11.27 1.67
12 4 6 15.65 1.9
4 12 -6 12.69 2.14
16 -12 6 13.5 1.97
-16 12 6 13.69 1.94
4 -16 6 13.37 1.72
-16 12 6 15.5 2.64
16 -12 6 12.85 1.73
-12 16 -6 15.66 1.85
12 -16 -6 10.69 1.49
16 -4 -6 13.47 1.8
12 4 6 14 1.93
-12 -4 6 14.73 2.67
-16 4 -6 15.31 1.73
-16 4 -6 14.15 2.43
16 -3 6 7.04 1.17
-13 16 6 5.89 1.67
13 3 -6 6.01 1.06
-16 13 -6 6.5 1.14
13 -16 6 3.83 0.95
-16 3 6 6.17 1.24
-16 3 6 8.51 2.14
16 -13 -6 4.91 1.02
-3 16 -6 3.92 1.53
3 13 6 0.94 1.7
3 13 6 6.19 1.11
-13 16 6 6.84 1.26
-3 -13 6 7.45 1.21
3 -16 -6 5.14 1.07
-16 13 -6 3.79 1.58
3 -16 6 5.6 1.06
-16 3 -6 5.16 1.61
-16 3 -6 7.16 1.16
-13 16 -6 4.39 1.45
-16 13 6 6.44 1.29
3 13 -6 4.63 1.59
16 -13 6 5.45 1.3
-16 13 6 5.6 1.64
-13 -3 6 4.93 1.78
-13 16 -6 8.6 1.25
-13 -3 6 5.74 1.22
16 -13 6 3.15 0.94
13 3 6 4.94 1.19
13 3 6 8.8 1.25
13 -16 -6 4.16 0.91
16 -3 -6 4.85 1.06
-16 14 -6 -0.28 1.17
2 14 6 0.85 1.54
2 14 6 1.58 0.89
14 -16 6 1.2 0.77
16 -14 -6 1.42 0.8
-14 16 6 2.65 1.52
-16 2 6 0.92 1.01
2 -16 -6 2.27 0.89
-2 -14 6 2.89 1.04
16 -2 6 2.1 0.97
-16 2 6 1.54 1.82
-16 14 -6 2.42 1.01
-14 16 6 1.02 0.98
-2 16 -6 1.43 1.49
14 2 -6 1.72 0.94
-14 -2 6 2.14 1.71
-14 16 -6 2.8 1
-16 14 6 1.77 1.41
2 14 -6 0.85 1.41
2 -16 6 1.32 0.92
-16 2 -6 1.12 0.89
-16 14 6 1.96 1.04
-14 16 -6 1.09 1.34
-14 -2 6 0.94 1.05
14 -16 -6 1.68 0.81
14 2 6 3.44 1.04
16 -2 -6 1.2 0.91
16 -14 6 1.47 0.83
16 -14 6 0.18 1.04
1 -16 -6 5.63 1.07
-1 16 -6 3.53 1.5
16 -1 6 5.17 1.12
-15 16 6 5.01 1.61
-1 -15 6 4.34 1.08
-15 16 6 5.08 1.14
16 -15 -6 3.83 0.92
-16 1 6 5.26 1.98
1 15 6 4.74 1.06
-16 15 -6 5.79 1.13
15 -16 6 2.85 0.88
-16 1 6 4.68 1.16
15 1 -6 5.75 1.12
-1 16 6 4.14 1.01
16 -1 -6 4.11 0.99
1 15 -6 4.05 1.57
1 -16 6 6.12 1.14
-15 -1 6 3.28 1.79
-15 16 -6 3.13 1.5
-15 16 -6 5.1 1.07
-16 15 6 4.94 1.16
15 -16 -6 3.69 0.94
15 1 6 8.33 1.22
-15 -1 6 4.78 1.23
16 -15 6 4.65 1.22
16 -15 6 4.23 0.96
-16 15 6 4.11 1.54
16 0 6 1.6 1.18
-16 0 6 1.33 1.06
-16 0 6 1.55 1.63
16 -16 -6 1.83 0.82
0 -16 6 1.82 0.95
0 16 -6 0.91 1.32
0 16 6 2.45 0.93
16 0 -6 1.43 0.96
16 -16 6 1.57 0.85
0 -16 -6 2.86 0.98
-16 16 -6 1.91 0.97
16 -16 6 1.66 1.09
-16 16 -6 -0.25 1.15
-16 16 6 2.86 1.06
-16 16 6 2.53 1.35
16 0 6 2.53 0.97
8 9 6 0.58 0.96
-9 -8 -6 -0.3 0.84
-17 9 -6 1.29 1.37
-8 17 -6 -0.28 0.8
8 9 6 0.03 0.8
17 -8 6 -0.32 1.03
8 -17 -6 1 1.07
-8 -9 6 0.19 0.87
17 -8 6 -0.37 0.83
-17 8 6 0.49 0.92
-9 17 6 -1.25 0.81
-17 8 6 2.2 1.48
17 -9 -6 0.95 0.88
9 -17 6 1.18 0.92
-8 17 -6 -1.38 1.03
-9 -8 6 0.56 0.79
8 9 -6 -1.07 1.18
-9 17 -6 0.58 0.9
-17 9 6 -0.34 0.78
9 -17 -6 0.48 1.03
-17 9 6 0.19 1.27
17 -9 6 -0.03 1.07
17 -8 -6 0.61 0.93
-17 8 -6 0.09 1.35
8 -17 6 -0.07 0.85
-8 -9 -6 -0.57 0.7
9 8 6 1.07 0.96
-9 17 -6 -0.12 1.29
9 8 6 0.72 0.83
17 -9 6 0.17 0.83
-7 17 -6 -1.28 0.62
-10 17 6 -0.32 1.03
-7 -10 6 1.16 0.95
10 -17 6 -0.4 0.91
17 -7 6 0.28 0.88
-17 10 -6 1.16 1.43
17 -7 6 -0.36 0.99
17 -10 -6 0.54 0.85
-17 7 6 1.58 1.6
7 10 6 0.41 0.94
7 -17 -6 -0.8 1
-17 7 6 0.27 0.98
-10 17 6 0.32 1.29
7 10 6 -0.03 0.83
-10 -7 6 -0.3 0.77
10 -17 -6 0.38 1.1
7 10 -6 -0.82 1.22
10 7 6 0.49 0.93
17 -10 6 0.62 0.84
-17 7 -6 0.17 1.27
17 -7 -6 0.69 0.89
17 -10 6 -0.77 1.04
10 7 6 0.41 0.94
10 7 6 0.18 0.8
-10 17 -6 1.31 0.94
-17 7 -6 1.13 0.82
-10 17 -6 -0.14 1.31
7 -17 6 0.31 0.91
6 11 6 3.99 0.93
-17 6 6 6.89 1.23
-17 6 6 5.97 1.89
-17 11 -6 6.86 1.85
-11 17 6 3.91 1.55
11 -17 6 6.6 1.15
-11 17 6 5.59 1.29
17 -11 -6 5.33 1
6 11 6 10.05 1.28
-6 -11 6 7.21 1.18
17 -6 6 7.25 1.3
6 -17 -6 4.76 1.13
11 6 6 4.13 1.05
-11 17 -6 8.65 1.26
17 -11 6 6.81 1.33
11 6 6 9.1 1.27
6 11 -6 3.7 1.62
-17 6 -6 7.77 1.11
11 6 6 7.2 1.11
17 -11 6 6.42 1.1
-17 6 -6 5.21 1.63
17 -6 -6 9.77 1.31
11 -17 -6 5.55 1.21
-11 17 -6 4.56 1.48
6 -17 6 6.45 1.11
-12 17 6 2.2 1.09
-12 17 6 2.48 1.44
-5 -12 6 2.88 1.07
12 -17 6 1.18 0.84
12 5 -6 2.46 0.95
-17 12 -6 2.86 1.63
-17 5 6 4.23 1.84
17 -12 -6 1.94 0.89
-17 5 6 3.25 1.08
17 -5 6 3.22 1.03
-5 17 -6 -0.11 1.6
5 12 6 4.15 1.04
5 -17 -6 3.32 0.97
-17 5 -6 1.25 1.38
-12 17 -6 2.79 1.41
12 5 6 3.08 1.01
5 12 -6 1.38 1.46
12 5 6 2.73 0.95
12 -17 -6 3.44 1.13
-17 12 6 0.06 1.78
5 -17 6 4.41 1.02
17 -12 6 2.83 1.19
-17 12 6 3.95 1.13
17 -12 6 2.99 0.94
12 5 6 3.86 1.03
-12 17 -6 5.5 1.1
17 -5 -6 3.02 0.99
-17 5 -6 4.78 1.01
12 -17 -6 2.07 0.75
-17 4 6 3.77 1.19
13 -17 6 1.93 0.85
-17 4 6 1.79 1.7
-13 17 6 2.41 1.38
17 -13 -6 2.03 0.89
-4 -13 6 1 0.93
4 -17 -6 1.39 0.89
-4 17 -6 -0.21 1.17
4 13 6 2.23 0.96
-17 13 -6 -0.4 1.23
17 -4 6 1.89 0.87
13 4 -6 1.89 0.96
-13 17 6 3.41 1.1
4 -17 6 1.16 0.86
13 -17 -6 1.79 0.76
13 4 6 1.48 0.99
17 -13 6 1.68 1.15
13 4 6 1.78 0.9
-13 17 -6 1.85 1.41
4 13 -6 2.49 1.52
17 -13 6 1.63 0.85
13 4 6 1.52 0.96
-17 13 6 0.88 1.02
-17 4 -6 -0.17 1.27
-17 4 -6 1.88 0.92
-13 17 -6 2.72 0.98
-17 13 6 0 1.26
13 -17 -6 0.85 1.02
-13 -4 6 1.08 0.9
17 -4 -6 1.71 1.05
-17 3 6 1.7 1.06
3 14 6 1.19 0.86
-3 17 -6 0.65 1.16
14 -17 6 1.97 0.81
-14 17 6 2.77 1.43
3 -17 -6 1.13 0.85
17 -14 -6 2.3 0.88
-3 -14 6 2.5 1
-17 3 6 2.23 1.8
17 -3 6 1.58 0.92
-14 17 6 2.77 1.02
14 3 -6 2.74 0.99
-17 14 -6 2.41 0.97
3 14 -6 2.3 1.49
14 3 6 2.9 0.96
14 3 6 4.51 1.16
17 -14 6 2.86 0.91
3 -17 6 1.8 0.87
-14 17 -6 1.9 1.43
-17 14 6 1.96 1.21
-14 -3 6 2.03 1.01
17 -14 6 3.02 1.12
-14 17 -6 3.3 0.98
14 3 6 0.5 0.77
14 -17 -6 1.55 0.73
-17 3 -6 3.27 0.96
-17 14 6 1.29 1.02
17 -3 -6 3.87 1.04
14 -17 -6 2.25 0.95
-15 17 6 5.46 1.12
15 2 -6 5.11 1.06
17 -15 -6 2.59 0.9
17 -2 6 3.71 1.03
-2 17 -6 1.14 1.27
-17 2 6 3.6 1.14
2 15 6 5.68 1.06
-17 2 6 5.37 1.97
-17 15 -6 3.33 0.99
-15 17 6 3.69 1.42
2 -17 -6 5.07 1.04
15 -17 6 3.01 0.85
-2 -15 6 4.99 1.09
15 2 6 4.88 1.02
2 15 -6 2.34 1.5
-15 -2 6 3.33 1.12
17 -15 6 3.33 1.14
15 -17 -6 1.5 0.72
17 -2 -6 4.04 1.01
-17 15 6 0.92 1.17
-17 15 6 4.01 1.11
2 -17 6 4.12 1.01
15 2 6 4.53 1.19
-15 17 -6 2.27 1.37
-15 17 -6 5.86 1.1
17 -15 6 3.49 0.9
-17 2 -6 4.09 1.01
1 16 6 2.23 0.94
17 -16 -6 2.19 0.82
-17 16 -6 1.26 0.95
-16 17 6 1.61 0.93
-17 1 6 1.61 1.08
-17 1 6 0.17 1.4
16 -17 6 0.7 0.97
17 -1 6 1.67 0.92
17 -1 6 3.4 1.23
-16 17 6 0.77 1.19
-1 17 -6 -0.1 1.09
16 -17 6 0.75 0.65
16 1 -6 2.58 1.02
-1 -16 6 2.83 0.97
1 -17 -6 1.43 0.88
-17 16 6 0.05 1.07
-16 17 -6 2.92 0.91
-16 -1 6 1.95 1.04
1 -17 6 3.49 1.01
17 -16 6 2.09 1.06
1 16 -6 1.25 1.19
16 1 6 2.57 1.17
16 1 6 4.93 1.03
17 -1 -6 2.76 1.01
17 -16 6 1.34 0.67
-17 16 6 3.25 1.03
-1 -16 -6 3.59 0.95
17 -17 6 0.11 0.52
17 0 -6 0 0.91
17 0 6 0.78 0.83
-17 17 6 1.96 0.96
-17 0 6 0.88 0.97
17 -17 6 0.6 0.99
-17 17 -6 0.96 0.86
0 -17 6 0.48 0.91
17 0 6 0.13 1.04
17 -17 -6 -0.19 0.56
0 -17 -6 0.75 0.83
9 -18 -6 -0.38 1
9 9 6 -0.73 0.76
-9 -9 6 -0.17 0.84
-18 9 -6 0.46 1.42
-9 -9 -6 -0.82 0.82
18 -9 6 0.43 0.84
-9 18 -6 0.47 0.88
18 -9 -6 0.72 0.88
9 9 6 -0.15 0.93
18 -9 6 0.07 1.06
-18 9 -6 1.22 0.8
9 -18 6 -0.35 0.84
-18 9 6 0.21 0.88
-8 -10 6 1.05 0.92
-18 10 -6 1.87 0.85
-18 8 6 2.18 1.01
18 -8 6 0.33 0.86
-8 18 -6 -0.4 0.8
8 10 6 0.57 0.87
18 -10 -6 2.08 0.91
-18 10 -6 0.62 1.43
8 -18 -6 0.69 1
18 -8 6 1.43 1.06
-10 -8 -6 1 0.89
8 10 6 1.08 0.95
-10 18 6 0.04 0.96
10 -18 6 1.27 0.97
-18 8 6 0.19 1.32
18 -10 6 1.76 0.85
18 -8 -6 1.43 0.89
-18 8 -6 3.19 0.91
-10 18 -6 2.63 1.02
-10 18 -6 -0.78 1.01
8 -18 6 1.53 0.89
10 8 6 0.95 0.8
18 -10 6 3.11 1.15
10 8 6 1.41 0.98
10 -18 -6 2.71 1.13
-8 -10 -6 2.07 0.88
-18 10 6 0.7 0.85
-18 8 -6 1.34 1.36
-10 -8 6 0.91 0.83
-18 11 -6 5.11 1.58
7 11 6 9.7 1.25
18 -11 -6 6.05 1.06
11 -18 6 6.06 1.13
-11 18 6 4.84 1.18
-7 -11 6 8.2 1.24
18 -7 6 8.98 1.34
-18 7 6 5.59 1.7
7 -18 -6 6.19 1.23
7 11 6 5.38 1.04
-18 7 6 8.62 1.27
18 -11 6 5.98 1.06
7 -18 6 7.74 1.19
11 7 6 8.74 1.32
-11 18 -6 4.64 1.52
11 7 6 7.23 1.11
11 -18 -6 7.75 1.29
-18 7 -6 8.19 1.76
18 -11 6 7.35 1.31
-18 7 -6 7.13 1.08
18 -7 -6 9.13 1.21
-11 18 -6 6.47 1.14
-12 18 6 0.96 1.03
-18 12 -6 1.27 0.9
6 12 6 0.05 0.47
-12 18 6 0.09 1.22
6 -18 -6 1.65 0.94
18 -6 6 0.33 0.9
-18 12 -6 -0.34 1.23
-18 6 6 1.98 1.64
12 -18 6 1.11 0.82
-18 6 6 1.71 1.02
12 6 -6 1.3 0.94
18 -12 -6 0.65 0.81
-6 -12 6 1.06 0.96
6 12 6 0.5 0.91
12 -18 -6 1.48 1.08
18 -12 6 1.1 1.06
18 -6 -6 1.44 0.94
-18 6 -6 1.64 0.83
12 6 6 1.21 0.86
18 -12 6 0.85 0.84
6 -18 6 1.33 0.89
-18 12 6 0.3 0.84
-12 18 -6 1.97 0.93
12 6 6 1.81 0.88
-18 6 -6 1.33 1.37
12 6 6 0.93 0.95
6 12 -6 0.03 1.19
-12 18 -6 0.12 1.29
12 -18 -6 0.52 0.65
13 5 -6 1.38 0.97
-13 18 6 0.53 1.2
-5 -13 6 1.69 0.93
-18 5 6 3.76 1.72
5 13 6 3.39 0.96
5 -18 -6 2.19 0.95
-18 5 6 2.55 1.06
-13 18 6 2.18 1.01
18 -5 6 2.69 0.95
-18 13 -6 2.92 0.96
13 -18 6 1.66 0.84
18 -13 -6 1.3 0.85
18 -13 6 4.8 0.96
13 5 6 4.39 0.98
5 -18 6 3.81 0.95
13 5 6 2.4 0.98
5 13 -6 1.49 1.27
18 -13 6 4.02 1.19
13 5 6 5.91 1.08
18 -5 -6 5.48 1.14
-18 13 6 3.48 1.05
13 -18 -6 3.45 1.17
-13 18 -6 5.1 1.03
-13 18 -6 1.99 1.39
-13 -5 6 1.94 0.77
-18 5 -6 4.43 0.92
4 -18 -6 4.92 1.01
14 -18 6 3.06 0.83
-18 14 -6 3.78 0.92
-14 18 6 1.23 1.2
18 -14 -6 2.56 0.85
-14 18 6 5.4 1.11
-4 -14 6 3.94 1.02
14 4 -6 4.16 1.1
18 -4 6 4.78 1.01
-18 4 6 6.71 1.24
18 -4 6 3.58 0.99
4 14 6 5.37 1.04
-18 4 6 3.06 1.62
18 -14 6 2.66 0.87
4 -18 6 4.58 0.96
14 -18 -6 4.27 1.14
4 14 -6 0.34 1.19
-14 -4 6 3.25 1
14 4 6 6.64 1.17
-18 4 -6 4.59 0.95
-14 18 -6 1.33 1.24
18 -4 -6 4.26 1.01
18 -14 6 4.02 1.14
14 4 6 7.98 1.14
-14 18 -6 7.43 1.13
14 4 6 2.28 1
-18 14 6 4.11 1.04
18 -3 6 4.25 1.1
-18 3 6 0.15 1.44
15 3 -6 3.64 1.02
3 -18 -6 2.53 0.9
-18 3 6 4.11 1.13
-18 15 -6 3.24 0.96
-15 18 6 3.93 0.99
3 15 6 2.3 0.9
-3 -15 6 4.04 1.04
18 -3 6 3.39 0.89
15 -18 6 1.17 0.62
-15 18 6 0.18 1.11
18 -15 -6 2.79 0.83
-18 15 -6 2.32 0.8
-15 -3 6 4.4 1.08
15 3 6 4.41 1.11
18 -15 6 2.94 0.78
-15 18 -6 5.79 1.04
-18 3 -6 4.85 1.03
18 -15 6 3.36 1.12
18 -3 -6 5.92 1.06
15 -18 -6 3.21 0.95
15 3 6 6.5 1.08
-18 15 6 2.89 1.03
15 3 6 2.35 0.88
3 15 -6 0.09 1.2
3 -18 6 4.02 0.95
18 -2 6 0.98 0.89
16 -18 6 -0.01 0.57
16 2 -6 0.25 0.96
-16 18 6 1.19 0.86
18 -16 -6 0.73 0.67
2 16 6 0.62 0.8
18 -2 6 1.61 1.04
-18 16 -6 0.61 0.87
-2 -16 6 -0.04 0.87
-18 2 6 0.51 1
16 -18 6 0.07 0.82
2 -18 -6 0.48 0.8
16 -18 -6 -0.69 0.64
18 -2 -6 0.5 0.93
16 2 6 -0.06 0.98
-16 -2 6 0.25 0.89
-18 2 -6 -0.19 0.83
18 -16 6 0.43 0.95
-16 18 -6 1.24 0.84
2 -18 6 0.8 0.85
18 -16 6 0.04 0.52
-18 16 6 1 0.92
16 2 6 0.5 0.84
18 -1 6 7.59 1.25
1 17 6 4.21 0.95
1 -18 -6 7.82 1.07
18 -1 6 8.72 1.14
-17 18 6 7.19 1.15
-18 17 -6 4.05 1
-18 1 6 4.87 1.15
-1 -17 6 5.94 1.02
17 -18 6 4.18 1.03
17 1 -6 7.54 1.18
17 1 6 6.12 1.03
18 -17 6 5.61 1.14
-1 -17 -6 8.07 1.13
-17 18 -6 7.67 1.12
-17 -1 6 4.92 1.11
-18 17 6 6.17 1.13
1 -18 6 6.57 1.1
18 -1 -6 8.16 1.22
17 1 6 8.46 1.31
18 0 6 16.71 1.76
0 -18 -6 16.65 1.74
18 0 6 20.62 1.98
18 -18 6 14.16 1.75
-18 18 -6 15.89 1.71
-18 0 6 16.15 1.86
18 0 -6 17.78 1.89
0 -18 6 18.29 1.75
-18 18 6 17.61 1.81
19 -9 6 1.64 0.98
10 -19 6 1.07 0.93
-10 19 6 -0.05 0.7
19 -10 -6 0.95 0.85
-19 10 -6 2.28 0.91
-10 -9 -6 0.5 0.83
-9 19 -6 0.38 0.83
9 10 6 0.83 0.84
-9 -10 6 0.67 0.85
9 -19 -6 0.77 0.96
-19 9 6 0.98 0.9
-19 10 -6 0.06 1.11
9 10 6 0.85 0.93
9 -19 6 0.88 0.85
-10 19 -6 0.61 0.87
10 9 6 1.39 0.82
-19 9 -6 -0.6 1.14
19 -10 6 0.99 0.82
10 9 6 1.62 0.98
19 -9 -6 2.37 0.97
-10 -9 6 1.41 0.83
-19 10 6 1.14 0.87
19 -10 6 1.16 1.04
10 -19 -6 1.98 1.09
-9 -10 -6 0.52 0.84
-19 9 -6 2.52 0.86
11 8 -6 0.07 0.58
-11 -8 -6 0.98 0.83
-8 -11 6 2.22 0.93
-11 19 6 2.08 0.98
11 -19 6 1.04 0.82
-19 11 -6 -0.55 1.08
-19 11 -6 3.37 0.93
8 11 6 1.91 0.86
8 11 6 1.33 0.92
19 -8 6 0.93 0.95
19 -11 -6 1.12 0.85
-19 8 6 2.12 1.02
8 -19 -6 2.72 0.96
-19 11 6 -0.16 0.6
19 -11 6 1.83 1.08
-19 8 -6 0.43 1.08
8 -19 6 1.28 0.87
19 -8 -6 1.81 0.9
-11 -8 6 1.47 0.81
19 -11 6 0.81 0.82
-11 19 -6 2.29 0.97
11 -19 -6 2.41 1.08
11 8 6 1.5 0.79
-8 -11 -6 0.86 0.77
11 8 6 1.42 1
-19 8 -6 2.01 0.83
12 -19 6 1.95 0.81
19 -12 -6 3.51 0.87
7 -19 -6 2.81 0.99
-12 -7 -6 3.51 0.93
12 7 -6 4.43 0.92
7 12 6 5.83 1.07
7 12 6 2.61 0.7
-19 12 -6 6.72 1.07
-12 19 6 3.82 1.04
-19 7 6 6.01 1.13
-7 -12 6 4.83 1.03
19 -7 6 4.67 1.04
19 -12 6 2.78 0.9
19 -7 -6 4.77 1.02
-12 19 -6 5.85 1.1
-19 7 -6 5.56 0.97
12 -19 -6 5.67 1.21
7 -19 6 5.4 1.03
12 7 6 4.68 1.15
12 7 6 5.11 1.02
19 -12 6 4.95 1.24
13 6 -6 5.02 1.02
-6 -13 6 6.81 1.13
6 -19 -6 6.82 1.17
-13 19 6 4.26 1.1
-13 -6 -6 3 0.92
19 -6 6 6.42 1.1
19 -13 -6 4.86 0.96
6 13 6 8.36 1.14
-19 13 -6 7.31 1.13
-19 6 6 6.62 1.14
19 -13 6 11.11 1.41
13 6 6 9.12 1.19
-19 13 6 7.35 1.17
-19 6 -6 8.79 1.39
6 -19 6 8.05 1.19
19 -6 -6 9.13 1.22
-13 19 -6 10.78 1.49
13 -19 -6 9.87 1.42
13 6 6 7.93 1.28
5 14 6 1.22 0.82
5 -19 -6 1.18 0.89
-5 -14 6 0.76 0.87
14 5 -6 1.41 0.96
19 -14 -6 0.84 0.79
19 -5 6 0.43 0.76
-14 19 6 1.47 0.91
-19 5 6 1.59 0.98
-19 14 -6 0.57 0.8
14 -19 6 0.2 0.53
14 5 6 1.38 0.86
5 -19 6 1.07 0.86
14 5 6 0.98 0.78
-19 5 -6 1.11 0.82
-19 14 6 0.76 0.89
-14 -5 6 -0.05 0.53
19 -5 -6 1.3 0.85
19 -14 6 2.22 1.04
-14 19 -6 1.1 0.84
19 -14 6 1.04 0.66
14 -19 -6 1.28 1.04
14 5 6 1.04 0.98
19 -4 6 3.85 0.92
4 -19 -6 4.46 0.97
15 4 -6 3.74 1.06
19 -15 -6 3.17 0.8
19 -4 6 2.52 0.83
-15 19 6 5.15 1.06
4 15 6 4.15 0.92
-19 15 -6 2.95 0.84
-4 -15 6 5.34 1.04
-19 4 6 5.33 1.13
15 4 6 8.82 1.11
-15 -4 6 6.79 1.11
19 -15 6 6.34 1.18
15 4 6 10.96 1.25
19 -4 -6 10.41 1.23
4 -19 6 7.92 1.13
15 4 6 6.14 1.18
15 -19 -6 7.22 1.14
-19 4 -6 6.79 1.06
-19 15 6 5.03 1.09
-19 16 -6 0.31 0.81
19 -3 6 0.8 0.9
3 16 6 -0.18 0.75
-16 19 6 0.63 0.82
16 3 -6 0.25 0.96
-19 3 6 0.5 0.94
-3 -16 6 0.98 0.84
3 -19 -6 -0.43 0.76
16 -19 6 -0.41 0.98
19 -16 -6 -0.06 0.51
19 -3 6 -0.58 0.8
-19 3 -6 0.02 0.75
16 3 6 0.09 0.74
16 3 6 0.1 0.85
19 -3 -6 0.61 0.84
16 3 6 0.21 0.75
16 -19 -6 -0.5 0.82
19 -16 6 0.71 0.86
-16 19 -6 0.72 0.75
-19 16 6 0.16 0.81
-16 -3 6 -0.25 0.8
3 -19 6 0.97 0.84
19 -2 6 1.93 0.81
-19 2 6 3.06 0.96
-17 19 6 2.94 0.88
17 2 -6 2.49 1
-2 -17 6 1.68 0.78
-19 17 -6 1.98 0.82
19 -2 6 2.08 0.9
2 17 6 1.71 0.78
17 -19 6 0.21 0.69
2 -19 -6 1.54 0.81
17 2 6 0.8 0.86
17 -19 -6 -0.26 0.53
2 -19 6 0.01 0.77
19 -2 -6 0.62 0.85
19 -17 6 0.53 0.8
17 2 6 1.05 0.74
-2 -17 -6 0.82 0.77
-19 17 6 1.05 0.8
-17 19 -6 1.12 0.79
-17 -2 6 0.76 0.87
-18 19 6 3.11 0.83
19 -1 6 6.05 1.07
-19 1 6 2.46 0.89
18 -19 6 1.76 0.78
18 1 -6 3.96 1.02
1 -19 -6 4.82 0.88
-1 -18 6 4.41 0.94
19 -1 6 4.7 0.89
-19 18 -6 4.08 0.92
18 1 6 1.56 0.76
18 1 6 2.82 0.9
-18 19 -6 2.46 0.8
-1 -18 -6 1.86 0.76
-18 -1 6 1.69 0.88
1 -19 6 1.81 0.78
-19 18 6 2 0.79
19 -1 -6 2.58 0.94
19 -18 6 1.88 0.81
19 0 6 0.28 0.72
19 0 6 0.88 0.87
19 0 -6 0.68 0.85
0 -19 -6 0.13 0.66
0 -19 6 0.8 0.7
-19 19 -6 -0.46 0.68
19 -19 6 -0.41 0.63
-19 0 6 0.54 0.8
-19 19 6 0.19 0.7
10 -20 -6 0.21 0.89
10 10 6 0.28 0.8
-10 20 -6 -0.6 0.75
20 -10 -6 0.1 0.82
10 -20 6 -0.19 0.79
10 10 6 0.73 0.88
20 -10 6 -0.45 0.9
-10 -10 6 -0.36 0.76
-20 10 -6 0.27 0.7
-20 10 6 0.19 0.77
-10 -10 -6 -0.25 0.74
-20 11 -6 1.76 0.8
9 11 6 1.96 0.9
9 -20 -6 1.33 0.92
20 -9 6 1.02 0.85
20 -11 -6 2.01 0.88
-9 -11 6 1.79 0.87
-20 9 6 1.45 0.85
11 -20 6 0.82 0.73
-11 20 6 1.22 0.75
-11 -9 -6 1.1 0.77
9 11 6 1.38 0.77
-20 11 6 1.53 0.74
11 9 6 1.43 0.81
-20 9 -6 1.9 0.76
-11 -9 6 1.75 0.81
9 -20 6 1.21 0.82
11 9 6 2.24 0.95
20 -9 -6 2.45 0.89
-9 -11 -6 0.73 0.76
20 -11 6 2.74 0.98
11 -20 -6 1.87 0.98
-11 20 -6 0.82 0.8
8 12 6 3.36 0.71
-20 8 6 6.36 1.05
8 -20 -6 5.62 1.04
-12 20 6 4.03 0.97
20 -8 6 5.22 0.98
20 -12 -6 6.69 1.04
12 -20 6 2.84 0.78
-12 -8 -6 4.97 0.91
8 12 6 8.52 1.07
-8 -12 6 7.3 1.03
20 -8 -6 4.74 0.98
20 -12 6 3.93 0.87
-12 20 -6 5.81 1.01
20 -12 6 5.35 1.13
12 8 6 6.12 1.11
8 -20 6 3.65 0.84
12 -20 -6 3.52 1.08
-12 -8 6 2.14 0.74
12 8 6 2.38 0.79
7 -20 -6 0.92 0.85
7 13 6 0.74 0.79
-13 20 6 1.56 0.84
-7 -13 6 1.71 0.83
20 -13 -6 1.11 0.75
13 -20 6 0.47 0.47
13 7 -6 1.21 0.79
-20 13 -6 1.97 0.82
-20 7 6 2.87 0.95
-13 -7 -6 0.7 0.76
20 -7 6 1.03 0.71
13 -20 -6 2.11 1.02
7 -20 6 1.61 0.82
13 7 6 2.39 1.01
-20 7 -6 1.85 0.8
20 -7 -6 2.41 0.89
20 -13 6 1.19 0.62
13 7 6 1.88 0.78
20 -13 6 1.32 0.96
-13 20 -6 1.94 0.85
-14 20 6 10.2 1.56
6 14 6 8.84 1.13
20 -14 -6 8.18 1.11
6 -20 -6 9.69 1.23
14 6 -6 7.99 1.15
-6 -14 6 10.76 1.26
-14 -6 -6 12.48 1.25
-20 14 -6 8.08 1.33
20 -6 6 11.94 1.31
-20 6 6 9.85 1.59
6 -20 6 4.07 0.93
14 6 6 4.6 1.08
14 6 6 4.98 0.9
20 -6 -6 5.17 0.92
20 -14 6 8.46 1.2
-20 6 -6 6.15 0.95
-14 20 -6 4.84 0.93
14 -20 -6 5.99 1.16
-15 20 6 7.11 1.08
20 -5 6 5.46 0.92
5 -20 -6 7.91 1.1
5 15 6 5.09 0.93
-5 -15 6 8 1.04
-20 5 6 7.11 1.1
-20 15 -6 3.59 0.81
-15 -5 -6 6.37 0.97
15 5 -6 3.99 0.94
20 -5 -6 8.22 1.08
5 -20 6 4.52 0.95
15 -20 -6 7.71 1.11
20 -15 6 6.33 1.13
-20 5 -6 6.92 1.01
15 5 6 5.92 1.12
-15 20 -6 9.32 1.1
-20 15 6 5.83 1.03
15 5 6 8.9 1.12
-4 -16 6 0.61 0.77
-16 20 6 0.88 0.76
-16 -4 -6 1.16 0.75
16 4 -6 -0.49 0.79
20 -4 6 0.85 0.8
-20 4 6 1.74 0.9
4 -20 -6 0.66 0.79
4 16 6 0.59 0.74
20 -4 6 0.19 0.6
16 4 6 0.92 0.77
4 -20 6 0.54 0.75
20 -4 -6 1.14 0.84
-20 4 -6 0.74 0.75
16 -20 -6 0.53 0.84
-4 -16 -6 0.88 0.75
-20 16 6 0.61 0.74
16 4 6 0.89 0.7
-16 -4 6 0.06 0.48
20 -16 6 1.08 0.87
-16 20 -6 0.53 0.72
16 4 6 0.25 0.78
3 17 6 0.38 0.66
-20 3 6 0.84 0.82
-3 -17 6 0.08 0.68
17 3 -6 0.43 0.79
-17 20 6 0.52 0.69
3 -20 -6 0.27 0.76
20 -3 6 1.28 0.77
-17 -3 -6 0.52 0.71
-20 17 -6 -0.42 0.62
20 -3 6 0.58 0.72
20 -17 6 1.67 0.77
-20 3 -6 1.56 0.71
20 -3 -6 3 0.88
3 -20 6 1.89 0.75
-17 -3 6 0.97 0.71
-3 -17 -6 2.97 0.8
-20 17 6 1.53 0.76
17 3 6 2.14 0.74
17 3 6 2.03 0.82
-17 20 -6 2.98 0.77
20 -2 6 3.18 0.79
-2 -18 6 3.38 0.79
2 -20 -6 2.81 0.81
-20 18 -6 2.42 0.74
-20 2 6 3.57 0.88
-18 -2 -6 3.77 0.81
18 2 -6 2.9 0.9
-18 20 6 4.08 0.82
20 -2 6 3.38 0.88
-20 18 6 2.11 0.72
20 -18 6 2.5 0.79
2 -20 6 1.54 0.72
-18 -2 6 2.91 0.73
20 -2 -6 3.66 0.93
-18 20 -6 2.57 0.76
-2 -18 -6 1.71 0.74
18 2 6 2.09 0.72
18 2 6 4.64 0.94
-19 20 6 9.23 1.17
1 -20 -6 6.74 1.03
20 -1 6 8.01 1.26
20 -1 6 10.13 1.27
-19 -1 -6 12.07 1.27
-1 -19 6 9.71 1.24
19 1 -6 8.95 1.34
-20 19 -6 7.71 1.15
-20 1 6 10.45 1.35
19 1 6 7.5 1.17
1 -20 6 9.59 1.21
-19 20 -6 9.28 1.15
20 -1 -6 10.38 1.39
-1 -19 -6 8.64 1.21
-20 19 6 8.56 1.18
19 1 6 10.28 1.35
20 -19 6 7.99 1.12
-19 -1 6 8.86 1.19
-20 20 6 2.96 0.72
-20 0 6 2.76 0.64
-20 20 -6 2.95 0.69
20 0 6 2.93 0.77
20 0 -6 4.74 0.9
0 -20 -6 2.13 0.79
-20 0 -6 4.2 0.77
20 0 6 3.12 0.77
0 -20 6 2.75 0.74
-21 11 -6 1.97 0.74
11 -21 6 0.89 0.54
-11 -10 -6 0.91 0.71
21 -11 -6 2.34 0.8
-21 10 6 2.35 0.8
10 11 6 2.34 0.85
21 -10 6 1.65 0.79
10 11 6 0.92 0.65
10 -21 -6 2.47 0.88
-10 -11 6 1.76 0.72
11 -21 -6 1.73 0.86
10 -21 6 0.87 0.65
-11 21 -6 0.23 0.69
11 10 6 0.41 0.74
11 10 6 1.49 0.84
21 -11 6 1.69 0.87
-11 -10 6 0.81 0.7
-21 10 -6 1.59 0.74
21 -10 -6 1.96 0.88
-10 -11 -6 0.15 0.64
-21 11 6 0.93 0.73
-21 9 6 1.56 0.83
21 -9 6 0.53 0.71
-12 -9 -6 -0.22 0.66
21 -12 -6 0.4 0.74
9 12 6 0.92 0.75
9 12 6 -0.09 0.39
-9 -12 6 1.16 0.78
9 -21 -6 -0.24 0.76
-21 12 -6 0.4 0.67
-12 21 6 -0.07 0.61
12 -21 6 -0.02 0.42
21 -12 6 0.7 0.83
9 -21 6 0.09 0.73
-12 -9 6 -0.16 0.65
12 -21 -6 0.81 0.88
-21 9 -6 1.01 0.72
12 9 6 0.43 0.76
-12 21 -6 -0.18 0.67
12 9 6 0.83 0.84
21 -9 -6 0.95 0.82
-9 -12 -6 0.03 0.48
-13 21 6 5.68 0.95
8 13 6 5.85 0.94
-13 -8 -6 5.55 0.89
21 -13 -6 4.84 0.89
-8 -13 6 5.6 0.97
8 -21 -6 6.36 1.01
-21 8 6 7 1.05
-21 13 -6 4.52 0.83
8 -21 6 3.16 0.85
13 8 6 5.12 1
-13 21 -6 3.77 0.88
-21 8 -6 5.61 0.86
13 8 6 2.71 0.81
21 -13 6 4.97 0.97
13 -21 -6 6.11 1.05
21 -8 -6 5.37 0.84
-14 21 6 0.73 0.68
-21 14 -6 2.12 0.72
-14 -7 -6 2.32 0.74
21 -7 6 1.64 0.74
21 -14 -6 2.05 0.71
14 7 -6 1.6 0.74
7 14 6 1.64 0.74
-7 -14 6 2.12 0.8
-21 7 6 3.62 0.88
7 -21 -6 2.26 0.79
21 -7 -6 2.16 0.78
21 -14 6 2.19 0.9
14 7 6 1.47 0.88
-21 7 -6 1.66 0.69
7 -21 6 1.5 0.69
14 7 6 2.12 0.74
14 -21 -6 1.55 0.88
-14 21 -6 2.31 0.78
15 6 -6 0.92 0.79
6 15 6 -0.4 0.65
-21 15 -6 -0.19 0.62
-21 6 6 0.84 0.81
-6 -15 6 -0.13 0.67
-15 -6 -6 0.06 0.65
6 -21 -6 0.75 0.72
-15 21 6 0.23 0.69
21 -6 6 -0.14 0.71
15 6 6 0.2 0.81
6 -21 6 0.35 0.69
-15 21 -6 0.62 0.69
15 6 6 -0.38 0.67
-21 6 -6 -0.19 0.63
21 -6 -6 0.71 0.73
21 -15 6 0.17 0.81
15 -21 -6 -0.21 0.76
-16 -5 -6 3.7 0.79
-21 5 6 4.11 0.87
16 5 -6 2.22 0.79
21 -5 6 4.71 0.91
-16 21 6 2.68 0.79
-5 -16 6 4.11 0.81
5 -21 -6 2.22 0.74
5 16 6 2.52 0.73
5 -21 6 1.97 0.71
16 -21 -6 2.09 0.78
21 -16 6 3.64 0.92
21 -5 -6 3.34 0.81
-5 -16 -6 4.11 0.81
16 5 6 2.38 0.78
-21 5 -6 1.7 0.68
16 5 6 3.1 0.74
-21 16 6 1.57 0.58
21 -4 6 -0.03 0.66
-21 4 6 1.52 0.72
4 17 6 0.81 0.64
-17 21 6 1.04 0.67
4 -21 -6 -0.15 0.66
17 4 -6 0.63 0.75
-4 -17 6 0.16 0.67
-17 -4 -6 0.79 0.7
21 -4 -6 0.65 0.75
4 -21 6 0.25 0.66
21 -17 6 2.11 0.83
-21 4 -6 0.07 0.6
-21 17 6 0.99 0.62
-17 21 -6 1.76 0.68
17 4 6 0.71 0.68
-4 -17 -6 1.45 0.73
-18 -3 -6 3.84 0.79
18 3 -6 3.29 0.78
21 -3 6 4 0.8
-21 3 6 3.57 0.82
-3 -18 6 2.29 0.71
-18 21 6 3 0.74
3 -21 -6 2.58 0.75
-21 18 6 1.85 0.64
3 -21 6 1.29 0.68
-3 -18 -6 2.31 0.72
21 -3 -6 3.14 0.87
18 3 6 2.77 0.78
-18 21 -6 2.26 0.66
21 -18 6 2.15 0.79
21 -2 6 3.86 0.81
2 -21 -6 4.32 0.83
-19 -2 -6 4.94 0.82
-21 2 6 4.78 0.84
19 2 -6 4.24 0.84
-2 -19 6 3.36 0.76
-19 21 6 2.5 0.71
19 2 6 2.62 0.77
-2 -19 -6 2.78 0.78
-21 19 6 1.89 0.65
-19 21 -6 3.99 0.75
-21 2 -6 4.75 0.78
21 -2 -6 4.61 0.91
2 -21 6 2.8 0.76
11 11 6 0.14 0.49
22 -11 -6 0.57 0.7
11 -22 -6 0.51 0.75
22 -11 6 0.23 0.66
-22 11 6 0.36 0.61
-22 11 -6 1.38 0.67
-11 -11 -6 0.18 0.56
-11 -11 6 1.03 0.65
11 11 6 0.46 0.71
10 12 6 1.43 0.72
22 -12 -6 1.59 0.75
-12 -10 -6 0.6 0.57
22 -10 6 1.5 0.72
-10 -12 6 1.02 0.69
10 -22 -6 0.94 0.72
-22 10 6 1.62 0.72
-22 12 -6 1.69 0.69
-22 10 -6 1.94 0.67
-12 22 -6 0.53 0.66
22 -12 6 2.08 0.78
22 -10 -6 1.03 0.65
-10 -12 -6 -0.41 0.42
12 10 6 0.86 0.59
-12 -10 6 0.28 0.55
12 -22 -6 1.12 0.78
12 10 6 1.54 0.79
-22 9 6 5.45 0.9
22 -9 6 4.56 0.81
9 -22 -6 3.37 0.84
-13 -9 -6 3.47 0.71
-9 -13 6 5.02 0.86
-22 13 -6 5.17 0.84
9 13 6 5.48 0.84
22 -13 6 4.99 0.93
13 9 6 2.6 0.76
-22 9 -6 4.45 0.78
13 -22 -6 3 0.88
22 -9 -6 3.62 0.76
13 9 6 3.94 0.9
-13 22 -6 2.09 0.75
22 -8 6 0.08 0.65
-8 -14 6 0.29 0.68
-14 22 6 0.19 0.57
-22 14 -6 0.59 0.66
8 14 6 0.35 0.65
8 -22 -6 -0.3 0.65
-22 8 6 1.04 0.72
-14 -8 -6 -0.26 0.57
-14 22 -6 0.22 0.67
22 -14 6 1.05 0.76
14 8 6 -0.29 0.78
8 -22 6 -0.11 0.48
14 8 6 -0.02 0.66
-22 8 -6 0.14 0.63
14 -22 -6 0.1 0.68
22 -8 -6 0.75 0.67
7 -22 -6 6.74 0.97
7 15 6 8.35 1.11
-22 7 6 9.26 1.21
-15 22 6 6.77 1.1
-7 -15 6 8 0.97
-15 -7 -6 8.67 1.09
-22 15 -6 6.07 1.03
22 -7 6 9.43 1.26
15 7 6 8.03 0.98
22 -15 6 9.12 1.28
22 -7 -6 8.83 1.27
-22 7 -6 6.8 1.03
7 -22 6 6.84 0.97
-15 22 -6 8.27 1.13
15 -22 -6 5.32 0.92
15 7 6 6.98 0.98
16 6 -6 2.76 0.67
22 -6 6 5.06 0.87
-16 -6 -6 5.03 0.77
6 -22 -6 4.52 0.82
-22 6 6 4.64 0.83
-6 -16 6 4.13 0.76
6 16 6 2.81 0.69
-16 22 6 2.93 0.74
16 6 6 3.79 0.82
6 -22 6 2.5 0.63
-6 -16 -6 3.47 0.8
-16 22 -6 3.3 0.69
22 -6 -6 4.23 0.84
22 -16 6 3.49 0.83
-22 6 -6 3.45 0.71
22 -5 6 -0.48 0.65
5 -22 -6 0.32 0.7
17 5 -6 -0.22 0.61
-17 22 6 0.74 0.64
-22 5 6 0.63 0.65
-17 -5 -6 0.3 0.63
-5 -17 6 -0.06 0.64
5 17 6 0.13 0.59
22 -17 6 1.28 0.78
17 5 6 0.94 0.73
-5 -17 -6 0.58 0.68
22 -5 -6 0 0.76
-17 22 -6 0.24 0.57
5 -22 6 0.3 0.49
-22 5 -6 -0.51 0.47
-22 4 6 1.6 0.72
-18 -4 -6 2.43 0.72
22 -4 6 1.02 0.69
-4 -18 6 1.46 0.67
4 -22 -6 1.07 0.73
18 4 -6 1.6 0.72
-18 22 6 1.38 0.67
18 4 6 1.51 0.81
4 -22 6 0.12 0.39
22 -4 -6 1.86 0.85
-18 22 -6 1.08 0.63
22 -18 6 0.65 0.55
-4 -18 -6 1 0.69
11 12 6 1.11 0.69
23 -11 6 0.23 0.57
-11 -12 6 -0.1 0.51
-23 12 -6 0.97 0.67
11 -23 -6 0.87 0.73
-12 -11 -6 -0.31 0.36
23 -12 6 1.61 0.71
12 -23 -6 1.47 0.75
12 11 6 0.81 0.73
-23 11 -6 1.75 0.68
10 -23 -6 1.23 0.7
-23 13 -6 1.35 0.69
-10 -13 6 0.63 0.66
-13 -10 -6 0.47 0.47
-23 10 6 1.05 0.58
23 -10 6 0.63 0.68
10 13 6 1.42 0.69
13 10 6 1.13 0.75
23 -13 6 1.09 0.75
-23 10 -6 1.27 0.66
13 -23 -6 0.68 0.67
23 -10 -6 0.73 0.58
13 10 6 0.1 0.33
-14 -9 -6 0.51 0.52
-23 14 -6 1.19 0.67
9 -23 -6 0.93 0.68
23 -9 6 1.15 0.67
9 14 6 1.7 0.68
-23 9 6 1.85 0.66
-9 -14 6 0.61 0.66
14 9 6 0.25 0.48
23 -9 -6 0.65 0.64
-14 23 -6 -0.62 0.53
23 -14 6 0.18 0.72
14 9 6 0.83 0.73
14 -23 -6 0.37 0.6
-23 9 -6 0.61 0.62
-23 8 6 2.69 0.72
-15 -8 -6 1.35 0.59
-8 -15 6 1.38 0.71
23 -8 6 1.86 0.78
8 -23 -6 2.36 0.76
8 15 6 2.03 0.68
15 8 6 1.01 0.66
-15 23 -6 0.79 0.64
23 -15 6 0.97 0.75
15 8 6 0.7 0.56
-8 -15 -6 0.71 0.67
15 -23 -6 -0.3 0.44
-23 8 -6 0.86 0.62
23 -8 -6 1.2 0.71
7 16 6 0.47 0.64
-23 7 6 0.17 0.67
-16 23 6 -0.09 0.37
-23 7 -6 0.23 0.56
23 -7 -6 0.14 0.72
-16 23 -6 0.61 0.64
0 0 -7 -0.18 0.61
0 0 7 0.21 1.01
0 0 -7 1.19 1.09
0 1 7 4.52 1.04
-1 0 -7 5.4 1.29
0 -1 -7 3.84 0.94
1 0 -7 5.81 0.95
1 -1 7 6.92 1.34
0 -1 7 6.92 1.31
-1 0 -7 4.86 0.83
1 -1 -7 5.64 1.39
0 1 -7 5.07 0.84
-1 0 7 5.78 1.2
0 -1 -7 5.15 1.35
1 0 7 5.95 1.22
1 -1 -7 6.41 0.94
-1 0 -7 4.9 0.93
-1 1 -7 4.85 0.83
-1 1 7 4.49 1.12
1 1 -7 0.22 0.7
-1 -1 -7 0.4 0.82
1 -2 7 -0.08 0.95
-2 1 7 0.44 0.94
2 -1 -7 -0.35 1.15
-1 2 7 0.07 0.67
-1 2 -7 0.31 0.68
-1 -1 -7 -0.04 0.54
-2 1 -7 -0.43 1.05
-2 1 -7 0.28 0.52
-2 1 -7 0.03 0.59
2 -1 -7 0.01 0.65
-1 -1 7 0.43 1.1
1 -2 -7 0.32 1.1
-1 -1 -7 -0.17 1.13
0 -2 -7 0.63 0.78
-2 0 7 0.42 0.71
-2 0 7 0.55 0.96
-2 0 -7 0 0.5
-2 0 -7 0.15 0.65
2 0 -7 0.88 0.74
0 -2 -7 1.39 1.11
-2 0 -7 0.3 0.95
0 2 7 -0.26 0.67
-2 2 7 0.3 0.93
2 -2 -7 1.06 1.16
0 2 -7 -0.17 0.6
-2 2 -7 0.04 0.52
-2 0 -7 0.16 0.61
0 -2 7 -0.32 1.06
-1 -2 7 14.24 1.74
2 -3 7 13.99 1.78
-3 1 7 13.19 1.49
1 -3 -7 14.02 1.92
-2 -1 -7 10.59 1.36
-1 3 -7 13.47 1.47
-3 2 -7 9.4 1.59
1 -3 -7 12.16 1.55
-3 1 7 14.38 1.83
2 1 -7 14.04 1.39
3 -2 -7 15.15 2.14
-2 3 7 15.39 1.69
3 -2 -7 13.79 1.57
-2 -1 -7 12.9 1.75
-2 -1 7 11.28 1.63
3 -1 -7 11.61 1.34
-3 2 7 11.34 1.53
-3 1 -7 8.88 1.5
-1 -2 -7 11.26 1.46
1 -3 7 13.06 1.69
-1 -2 -7 9.19 1.58
1 2 -7 12.93 1.42
2 -3 -7 12.06 1.95
-2 3 -7 13.21 1.33
0 -3 7 0.16 0.99
0 3 -7 0.86 0.66
-3 3 -7 0.04 0.64
0 -3 -7 -0.17 0.86
-3 0 7 0.61 0.79
-3 0 -7 -0.12 0.64
3 -3 -7 0.64 1.13
-3 0 -7 0.11 0.64
-3 3 7 0.15 0.77
-3 3 7 0.39 0.87
3 0 -7 0.13 0.71
0 -3 -7 0.07 0.58
-3 0 -7 0.27 1.04
0 -3 -7 0.06 1.18
-3 0 7 -0.05 1.06
2 2 -7 4.57 0.86
-2 4 7 5.43 1.16
2 -4 7 6.46 1.34
2 -4 -7 4.36 1.29
4 -2 -7 5.94 0.93
-2 4 -7 4.96 0.89
-4 2 7 5.48 1.27
4 -2 -7 4.54 1.46
-2 -2 -7 3.23 0.95
-2 4 -7 4.28 0.86
-4 2 -7 4.15 0.88
-4 2 7 3.88 1.08
-4 2 7 6.24 1.23
-2 -2 -7 3.39 1.19
-2 -2 7 5.52 1.24
3 1 -7 7.81 0.99
-4 1 7 5.88 1.18
-1 4 -7 6.75 1.02
4 -3 -7 5.77 1.5
-1 -3 7 6.9 1.34
-3 4 7 7.7 1.45
1 -4 -7 7.06 1.38
-3 -1 -7 4.17 1.23
-4 1 7 8.11 1.48
-1 -3 7 5.95 1.25
1 -4 -7 6.03 1.39
-4 3 -7 7.53 1.26
-3 -1 7 6.38 1.29
4 -1 -7 6.36 1
1 -4 7 7.04 1.43
1 -4 7 4.66 1.14
-4 3 7 6.14 1.23
-1 4 7 5.74 1.13
-1 -3 -7 4.47 1.38
-4 3 7 5.01 1.16
1 3 -7 5.51 0.91
-3 4 -7 5.26 0.91
-1 -3 -7 4.26 1.07
3 -4 -7 4.52 1.36
-4 0 7 0.3 0.86
4 0 -7 1.4 0.71
-4 4 7 0.06 0.82
-4 0 -7 0.16 0.81
0 -4 7 2.03 1.08
0 -4 7 2.32 1.02
-4 0 -7 -0.16 1.03
0 -4 -7 1.56 1.26
0 4 -7 2.29 0.75
4 -4 -7 2.32 1.28
-4 4 7 2.1 0.93
0 -4 -7 2.16 1.02
-4 4 -7 1.98 0.72
-4 0 7 1.4 1.04
-2 -3 7 17.81 2.16
3 2 -7 20.47 1.8
2 -5 -7 15.68 2.03
-2 -3 7 20.9 2.17
-5 2 7 16.45 1.94
-5 3 -7 20.12 1.88
-5 2 7 20.53 2.14
-3 5 7 19.99 2.17
-2 5 -7 21.18 1.91
-2 5 -7 20.59 1.85
2 -5 -7 17.95 2.35
5 -3 -7 22.48 1.88
-5 2 7 19.57 2.08
5 -3 -7 20.22 2.49
5 -2 -7 24.94 2.67
-5 3 7 21.69 2.22
3 -5 -7 24.14 2.58
-2 -3 -7 18.6 2.13
-5 3 7 24.17 2.26
-3 -2 7 23.61 2.36
2 -5 7 20.76 2.26
-2 5 7 24.05 2.18
5 -2 -7 24.81 2.01
2 -5 7 22.42 2.18
-3 5 -7 24.81 2.06
-5 3 7 22.78 2.24
-3 5 -7 20.63 1.83
-5 2 -7 23.28 2.04
-2 -3 -7 19.24 2.33
2 3 -7 24.12 2.04
-5 1 7 0.16 0.95
5 -4 -7 1.59 1.3
4 1 -7 3.19 0.84
-4 -1 -7 0.17 0.83
-1 5 -7 2.19 0.75
-4 5 7 2.78 1.04
-1 -4 7 2.38 1.24
-1 -4 7 2.05 1.04
-1 5 -7 1.89 0.76
-5 4 -7 2.96 0.85
-5 1 7 2.01 1.19
1 -5 -7 1.6 1.29
1 -5 -7 2.48 1.28
-4 5 -7 3.6 0.81
-4 -1 7 -0.14 0.95
5 -1 -7 3.11 0.88
-1 -4 -7 0.23 1.34
-5 4 7 2.41 0.99
1 -5 7 2.62 1.12
1 -5 7 1.67 1
-1 -4 -7 2.13 1.37
-5 4 7 3.12 0.99
4 -5 -7 2.78 1.31
-1 5 7 2.55 0.99
-1 -4 -7 2.06 1.09
-4 -1 7 3.2 1.13
-5 1 -7 1.63 0.73
-5 4 7 2.35 0.97
1 4 -7 2.58 0.78
-5 5 7 28.92 2.58
0 -5 7 23.72 2.52
-5 0 7 26.24 2.57
0 5 -7 28.54 2.26
0 5 -7 25.55 2.2
0 -5 7 22.38 2.36
-5 5 -7 24.99 2.22
0 -5 -7 23.55 2.36
5 -5 -7 21.75 2.68
0 -5 -7 23.06 2.71
5 0 -7 26.68 2.14
6 -3 -7 7.65 1.7
3 -6 -7 8.12 1.72
-3 -3 7 12.21 1.73
-3 6 -7 10.03 1.35
-6 3 -7 11.3 1.48
-3 6 7 11.16 1.76
6 -3 -7 11.9 1.55
3 -6 -7 8.84 1.6
-6 3 7 10.33 1.94
-6 3 7 9.54 1.75
-3 -3 7 8.89 1.49
-3 6 -7 11.05 1.38
3 3 -7 10.83 1.34
-2 6 -7 24.65 2.16
-6 2 7 24.49 2.48
4 2 -7 26.52 2.13
-6 4 -7 25.8 2.23
-2 -4 7 21.6 2.44
-6 2 7 26.94 2.54
2 -6 -7 23.3 2.7
2 -6 -7 23.49 2.42
6 -4 -7 29.98 2.35
-2 6 -7 26.37 2.16
-2 -4 7 21.81 2.4
-4 6 7 26.61 2.55
6 -4 -7 21.06 2.68
4 -6 -7 27.43 2.89
-6 4 7 27.13 2.64
-4 6 -7 30.35 2.32
-6 4 7 25.22 2.49
6 -2 -7 32.25 2.39
-6 4 7 20.63 2.35
-2 6 7 28.24 2.58
-6 2 -7 27.33 2.31
6 -2 -7 23.99 2.8
2 4 -7 29.09 2.28
-4 -2 7 28.18 2.55
2 -6 7 27.12 2.67
-4 -2 7 27.16 2.58
-6 1 7 26.23 2.46
1 -6 -7 19.5 2.67
-1 -5 7 21.32 2.39
-6 5 -7 23.62 2.07
-1 6 -7 26.7 2.09
-1 -5 7 21.4 2.29
-5 6 7 26.59 2.4
1 -6 -7 18.01 2.22
5 1 -7 25.62 2.04
6 -5 -7 16.98 2.45
-1 6 -7 23.97 2.1
-6 5 7 20.02 2.28
-5 6 -7 22.55 1.98
6 -1 -7 23.63 1.96
1 5 -7 21.79 1.88
1 5 -7 19.28 1.84
-1 6 7 16.47 1.91
5 -6 -7 15.8 2.36
1 -6 7 18.04 2.23
-5 -1 7 20.24 2.18
-6 6 7 1.54 1
6 0 -7 1.1 0.76
0 6 -7 1.3 0.83
0 6 -7 0.93 0.74
0 -6 7 0.7 1.05
0 -6 -7 0.1 1.18
0 -6 -7 0.09 1.6
0 -6 7 0.18 0.96
6 -6 -7 -0.28 1.17
-6 6 -7 1.89 0.82
-6 0 7 0.98 1.29
-7 4 -7 15.03 1.65
-4 7 7 15.53 1.95
-7 3 7 16.19 2.33
4 3 -7 15.13 1.62
-3 7 -7 16.57 1.67
-3 -4 7 14.05 1.99
7 -4 -7 16.95 1.7
-7 3 7 14.26 1.99
-3 7 -7 14.04 1.67
-4 7 -7 16.07 1.71
3 4 -7 17.09 1.78
-3 7 7 17.19 2.09
7 -3 -7 17.76 1.72
-7 3 -7 17.19 1.79
-7 4 7 17.89 2.33
-4 -3 7 13.25 1.89
-7 4 7 14.36 1.89
-2 -5 7 36.51 3.44
-7 2 7 44.73 3.61
-7 5 -7 40.25 3.21
5 2 -7 45.54 3.24
-2 7 -7 43.33 3.21
-2 7 -7 39.86 3.21
-5 7 7 42.12 3.48
7 -5 -7 47.8 3.34
-7 2 7 38.46 3.35
-5 7 -7 41.71 2.98
7 -2 -7 39.49 2.92
2 -7 7 37.34 3.26
2 5 -7 34.49 2.86
2 5 -7 41.59 2.93
-5 -2 7 38.62 3.21
-2 7 7 35.21 3.11
-7 5 7 36.59 3.25
-7 5 7 32.46 3.21
-6 -1 -7 3.64 1.35
6 1 -7 3.58 0.9
-1 -6 7 4.61 1.31
-1 7 -7 4.64 0.95
-7 6 -7 4.92 0.98
-1 7 -7 4.63 0.95
-7 1 7 6.3 1.65
-6 7 7 5.09 1.26
1 6 -7 5.2 1.01
-7 6 7 6.15 1.3
1 -7 7 5.21 1.33
-6 -1 7 6.35 1.53
7 -1 -7 5.05 0.96
-7 1 -7 5.59 1.54
1 6 -7 4.2 0.94
-6 7 -7 6.64 1.12
-1 7 7 2.97 0.94
0 -7 7 10.27 1.89
0 7 -7 11.96 1.6
-7 7 -7 12.4 1.7
-7 0 7 13.3 1.96
7 0 -7 13.05 1.51
0 7 -7 11.65 1.53
-7 0 -7 11.54 1.86
-7 7 7 13.06 2.11
-8 4 -7 3.48 0.92
-8 4 7 5.71 1.74
-8 4 7 3.63 1.17
-4 8 7 4.72 1.22
-4 -4 7 5.99 1.43
4 4 -7 5.97 1
-4 8 -7 2.62 0.81
8 -4 -7 5.22 1.03
-4 8 -7 4.85 1
-5 8 7 6.21 1.37
8 -5 -7 10.05 1.33
-3 -5 7 9.43 1.63
-3 8 -7 5.99 1.11
-8 3 7 7.52 1.41
-8 5 -7 7.11 1.21
-8 3 7 8.08 1.72
5 3 -7 9.09 1.24
-3 8 -7 7.42 1.22
-5 -3 7 8.26 1.59
-8 5 7 5 1.22
-5 8 -7 7.44 1.18
-8 5 7 7.24 1.74
-8 3 -7 5.75 1.48
-3 8 7 5.69 1.31
3 5 -7 4.49 0.96
8 -3 -7 6.68 1.15
3 5 -7 8.23 1.18
6 2 -7 14.45 1.61
8 -6 -7 14.09 1.83
-2 8 -7 13.8 1.76
-8 6 -7 13.23 1.68
-2 -6 7 13.56 2.03
-6 8 7 14.36 2.21
-2 8 -7 13.64 1.72
-8 2 7 12.59 2.13
-8 2 -7 8.27 1.56
-2 8 7 8.92 1.56
2 6 -7 11.76 1.48
-6 -2 7 10.79 1.97
-8 6 7 9.81 1.68
-6 8 -7 10.53 1.5
8 -2 -7 12.43 1.6
2 6 -7 7.89 1.34
-8 6 7 10.58 1.8
-1 8 -7 3.12 0.91
-7 -1 -7 1.55 1.17
-1 -7 7 3.03 1.23
-7 8 7 3.3 1.23
-8 1 7 4.92 1.63
-8 7 -7 2.36 0.92
7 1 -7 2.71 0.88
-1 8 -7 2.57 0.93
-7 -1 7 2.28 1.35
1 7 -7 0.68 0.75
1 -8 7 1.9 1.29
-8 1 -7 1.33 1.32
8 -1 -7 1.21 0.91
-1 8 7 -0.09 1
1 7 -7 2.15 0.96
-7 8 -7 2.25 0.97
-8 7 7 2.05 1.23
-8 8 7 1.83 1.25
0 8 -7 0.92 0.92
-8 0 7 2.12 1.5
0 -8 7 1.49 1.19
8 0 -7 1.54 0.95
0 8 -7 0.56 0.83
-8 8 -7 1.76 1.01
-8 0 -7 1.29 1.33
-4 9 -7 15.42 1.76
-9 5 -7 13.79 1.87
-9 4 7 16 2.51
-9 4 7 13.46 2.09
-9 5 -7 12.76 2.22
5 4 -7 15.75 1.67
-4 9 -7 12.47 1.68
9 -5 -7 14.11 1.78
-5 9 7 17.12 2.38
-4 -5 7 14.36 2.12
-4 9 7 12.96 2.15
4 5 -7 13.01 1.61
-9 5 7 13.01 2.13
-9 5 7 11.07 2.03
-5 9 -7 14.36 1.81
-9 4 -7 12.21 2.08
-5 -4 7 12.29 2.01
9 -4 -7 11.12 1.53
-3 9 -7 7.3 1.24
-3 9 -7 8.81 1.47
9 -6 -7 7.84 1.26
-6 9 7 8.47 1.62
-9 6 -7 9.18 1.72
6 3 -7 8.32 1.22
-9 6 -7 11.98 1.87
-9 3 7 9.5 1.85
-9 3 7 7.25 1.44
-3 -6 7 10.79 1.79
-9 6 7 8.7 1.79
9 -3 -7 10.07 1.56
-3 9 7 9.62 1.85
-6 -3 7 11.18 2.02
-6 9 -7 11.38 1.59
-9 6 7 11.92 2.06
3 6 -7 12.17 1.56
-9 3 -7 8.75 1.6
7 2 -7 7.01 1.15
-2 9 -7 6.27 1.23
9 -7 -7 6.7 1.25
-2 9 -7 6.64 1.21
-7 9 7 6.46 1.52
-9 7 -7 5.63 1.2
-9 7 -7 9.48 1.75
-2 -7 7 6.48 1.55
-9 2 7 9.42 1.99
-7 -2 7 7.12 1.61
2 7 -7 9.22 1.33
9 -2 -7 5.9 1.15
-9 7 7 6.51 1.47
-7 9 -7 8.84 1.39
-9 2 -7 5.47 1.42
-8 -1 -7 4.32 1.43
8 1 -7 4.02 1.07
-8 9 7 4.98 1.49
-9 8 -7 3.97 1.22
-9 1 7 6.18 1.73
-1 9 -7 3.71 1.05
-1 9 -7 3.62 1.01
-1 -8 7 4.89 1.47
-8 -1 7 6.76 1.62
1 -9 7 4.47 1.36
-8 9 -7 5.03 1.19
-9 1 -7 5.98 1.57
9 -1 -7 4.14 1.05
-9 8 7 5.31 1.43
1 8 -7 5.31 1.11
9 0 -7 3.3 0.96
-9 9 -7 4.61 1.23
-9 0 -7 4.85 1.47
-9 0 7 8.81 1.91
0 -9 7 5.31 1.5
-9 9 7 6.32 1.5
0 9 -7 5.13 1.11
-5 10 7 33.06 3.04
5 5 -7 29.77 2.53
-5 -5 7 30.56 2.96
-10 5 7 30.92 3.11
-10 5 7 28.56 2.8
10 -5 -7 24.57 2.49
-5 10 -7 33.86 2.79
-5 10 -7 23.06 2.45
-10 5 -7 27.88 2.8
-10 4 7 0.65 1.05
-4 10 -7 0.31 0.93
-6 10 7 1.06 1.36
-10 6 -7 0.77 1.25
-4 -6 7 0.92 1.27
-10 6 -7 -0.22 1
-10 4 7 -0.64 1.52
-4 10 -7 -0.06 0.97
10 -6 -7 0.04 0.9
6 4 -7 1.04 0.96
-10 4 -7 0.65 1.12
-4 10 7 0.6 1.17
10 -4 -7 0.21 0.88
-10 6 7 0.9 1.2
-6 10 -7 0.37 0.93
4 6 -7 0.25 0.94
-10 6 7 0.39 1.48
-6 -4 7 -0.09 1.29
-10 7 -7 12.47 1.92
-10 3 7 12.55 2.03
-3 -7 7 14.86 2.2
-3 10 -7 14.98 1.9
-7 10 7 15.3 2.34
-10 7 -7 14.25 2.13
10 -7 -7 13.39 1.79
7 3 -7 14.88 1.86
-10 3 7 14.24 2.52
-3 10 -7 14.41 1.95
-3 10 7 7.13 1.45
-10 7 7 10.07 1.74
10 -3 -7 6.07 1.16
-7 10 -7 10.31 1.86
-10 7 7 8.87 1.9
-10 3 -7 10.48 1.81
3 7 -7 12.63 1.53
-7 -3 7 11.4 2.09
8 2 -7 12.02 1.61
-8 10 7 14.42 2.19
-2 -8 7 13.36 2.02
-10 8 -7 10.43 1.71
10 -8 -7 9.97 1.58
-2 10 -7 11.09 1.57
-10 8 -7 11.88 1.98
-8 -2 7 16.59 2.24
10 -2 -7 8.58 1.41
-8 10 -7 11.14 1.98
2 8 -7 13.53 1.85
-10 2 -7 12.31 1.94
-10 8 7 14.66 2.1
-10 9 -7 3.02 1.47
9 1 -7 2.35 0.96
-10 1 7 4.7 1.78
-10 9 -7 1.39 1.1
-1 -9 7 2.35 1.33
-1 10 -7 1.31 0.96
-9 -1 -7 1.63 1.3
-9 10 7 2.64 1.36
-1 10 -7 3.3 1.07
10 -1 -7 2.08 0.99
1 9 -7 1.36 0.94
-9 10 -7 1.78 1.08
-9 -1 7 2.58 1.42
-10 1 -7 2.59 1.45
-10 9 7 2.57 1.4
10 0 -7 7.38 1.29
-10 0 -7 12.36 1.97
-10 10 -7 8.26 1.57
-10 0 7 14.08 2.19
0 10 -7 11.87 1.79
-10 10 -7 13.56 2.21
-11 5 7 25.47 2.81
-5 11 -7 19.15 2.42
-11 5 7 25.45 3.17
-11 6 -7 27.03 2.84
-5 -6 7 29.15 2.92
6 5 -7 26.66 2.43
-5 11 -7 28.29 2.76
-6 11 7 30.48 3.31
-6 -5 7 25.92 2.74
-6 11 -7 26.79 2.73
-11 5 -7 26.62 2.67
-11 6 7 25.26 2.72
-11 6 7 22.8 3.04
5 6 -7 28.41 2.44
-5 11 7 26.86 3.07
-7 11 7 22.78 2.75
-11 7 -7 14.3 2.35
-11 4 7 20.15 2.86
-11 7 -7 20.22 2.38
-4 11 -7 20.81 2.35
11 -7 -7 15.97 1.96
-11 4 7 18.02 2.3
-4 11 -7 17.34 2.04
7 4 -7 22.31 2.08
-4 -7 7 20.05 2.5
-7 11 -7 18.05 2.2
4 7 -7 19.98 2.14
-7 -4 7 21.52 2.57
-11 7 7 14.7 2.6
-4 11 7 17.58 2.47
-11 7 7 18.4 2.4
-11 4 -7 19.38 2.43
-3 11 -7 1.42 1.13
-11 8 -7 2.65 1.33
8 3 -7 3.39 1.13
-3 -8 7 3.36 1.49
-11 3 7 3.87 1.69
-11 8 -7 4.05 1.43
-8 11 7 2.68 1.45
-3 11 -7 2.84 1.23
11 -8 -7 2.75 0.99
-8 -3 7 2.33 1.46
3 8 -7 2.99 1.12
-11 8 7 0.12 1.3
-11 8 7 1.84 1.36
-11 3 -7 1.55 1.33
11 -3 -7 -0.48 0.78
-3 11 7 0.14 1.41
-8 11 -7 1.41 1.18
-11 9 -7 28.56 2.96
-2 11 -7 25 2.54
-9 11 7 26.18 3.11
-11 9 -7 20.19 2.66
11 -9 -7 20.51 2.19
-11 2 7 27.05 2.89
9 2 -7 22.82 2.32
-2 11 -7 17.28 2.38
-2 -9 7 23.1 2.54
-9 -2 7 24.76 2.84
-9 11 -7 26.39 2.98
-9 11 -7 24.26 2.77
2 9 -7 28.38 2.6
-11 2 -7 23.25 2.81
-11 9 7 28.98 3.14
-10 11 7 2.1 1.51
-1 11 -7 1.76 1.12
-10 -1 -7 -0.04 1.08
-1 -10 7 -0.49 1.08
-11 1 7 1.75 1.6
10 1 -7 0.68 1.01
-11 10 -7 0.89 1.2
-11 10 -7 1.94 1.53
-10 11 -7 -0.75 0.99
-10 11 -7 1.35 1.52
1 10 -7 -0.04 1
-10 -1 7 -0.6 1.51
11 -1 -7 -0.86 0.76
-11 1 -7 0.3 1.25
-11 10 7 0 1.22
-11 0 7 0.29 0.71
-11 0 -7 6.66 1.6
-11 11 -7 6.9 1.76
11 -11 7 -0.01 0.66
-11 11 -7 4.54 1.31
0 11 7 2.4 0.71
-11 11 7 6.37 1.59
11 0 -7 -0.16 0.83
11 -11 -7 0.1 0.77
-6 12 -7 7.37 1.54
-12 6 7 5.9 1.42
6 6 -7 7.82 1.33
-6 12 7 5.98 1.64
-6 -6 7 7.78 1.77
-12 6 7 7.54 1.96
7 5 -7 18.07 2.13
-12 7 -7 19.79 2.29
-12 5 7 15.22 2.51
-5 12 -7 14.25 2.38
-12 5 7 15.53 2.25
-7 12 7 21.21 3.02
-5 12 -7 11.89 2.08
-5 -7 7 17.28 2.54
-12 7 7 15.1 2.65
-12 5 -7 18.33 2.41
-5 12 7 15.47 2.64
-7 12 -7 14.81 2.35
5 7 -7 16.37 2.11
-12 7 7 16.54 2.53
-7 -5 7 16.63 2.5
-12 8 -7 3.64 1.26
-12 4 7 6.46 1.91
-4 12 -7 4.01 1.38
-4 -8 7 6.77 1.72
-4 12 -7 4.73 1.37
-12 8 -7 7.87 1.75
8 4 -7 3.42 1.14
-8 12 7 4.58 1.67
-12 8 7 5.32 1.51
4 8 -7 7.35 1.31
-12 8 7 4.57 1.67
-12 4 -7 9.43 1.79
-8 12 -7 5.27 1.45
-8 -4 7 9.47 1.96
-3 12 -7 29.09 3.31
-12 9 -7 29.66 3.43
-9 12 7 44 4
9 3 -7 34.44 3.18
-3 12 -7 41.32 3.31
-12 9 -7 47.02 3.69
-12 3 7 43.77 3.76
-9 12 -7 33.74 3.55
-12 3 -7 40.86 3.61
-12 9 7 39.83 3.81
-9 12 -7 36.45 3.68
3 9 -7 42.49 3.45
-9 -3 7 43.04 3.83
12 -2 7 1.44 0.7
-12 2 7 2.5 0.9
-12 2 7 6.22 1.76
2 10 7 0.53 0.62
-2 12 -7 2.94 1.21
-12 10 -7 3.03 1.33
-12 10 -7 6.36 1.72
10 2 -7 2.02 1.05
12 -10 -7 0.64 0.59
-10 12 7 6.39 1.77
-10 12 -7 7.69 1.31
-12 2 -7 10.08 1.93
-2 12 7 4.45 0.95
-10 -2 7 10.46 2.05
2 10 -7 11.57 1.72
-10 12 -7 7.39 1.64
-10 12 -7 9.66 1.95
-12 10 7 6.96 1.64
-12 11 -7 6.81 1.62
12 -1 7 10.26 1.42
-12 1 7 9.75 1.35
-12 11 -7 9.44 1.91
11 -12 7 9.34 1.26
12 -11 -7 10.03 1.39
-1 12 -7 11.12 1.85
1 11 7 11.31 1.46
-11 12 7 6.42 1.31
12 -11 7 4.57 0.79
1 -12 7 4.36 0.92
-11 -1 7 6.57 1.12
11 -12 -7 3.79 0.8
-11 12 -7 6.75 1.46
1 11 -7 8.65 1.54
-12 11 7 8.62 1.81
-12 11 7 7.81 1.33
0 -12 7 14.13 1.78
12 0 7 13.95 1.6
12 -12 -7 14.16 1.69
-12 12 -7 12.76 2.34
-12 0 7 14.93 1.88
0 12 -7 16 2.45
-12 12 7 16.19 2.57
12 -12 7 14.1 1.53
-12 12 -7 14.06 2.49
-12 0 7 20.14 2.84
0 12 7 16.26 1.84
-12 12 7 13.02 1.92
-12 12 -7 14.2 1.82
13 -7 -7 -0.52 0.73
-6 13 -7 -0.38 0.86
-6 13 -7 0.03 1.26
-7 13 7 -0.55 1.35
-13 7 -7 0.39 1.36
13 -6 7 0.11 0.79
-13 6 7 1.24 1.62
-6 -7 7 -0.6 1.44
-13 6 7 0.86 1.28
7 6 -7 -0.63 1.11
7 -13 7 -0.09 0.76
6 7 7 0.2 0.51
6 -13 7 0.66 0.77
7 6 7 0.13 0.8
7 6 7 0.18 0.64
6 7 -7 -0.35 1.06
13 -7 7 0.25 0.7
-6 13 7 -1.07 1.36
13 -6 -7 0.81 0.85
-13 7 7 0.64 1.53
-13 6 -7 -1.08 1.34
-7 13 -7 0.82 1.12
-13 7 7 0.34 1.25
-7 -6 7 -0.07 1.47
-5 13 -7 4.53 1.39
8 5 -7 7.55 1.29
-5 13 -7 5.39 1.36
-5 -8 7 9.99 1.85
8 5 7 9.56 1.47
-8 -5 7 16.02 2.55
13 -8 7 12.05 1.44
-13 8 7 10.6 2.06
5 -13 7 11.72 1.5
-13 5 -7 13.6 2.24
13 -5 -7 12.5 1.49
-8 13 -7 9.97 1.76
5 8 -7 15.53 2.14
-13 8 7 13.22 2.48
-13 4 7 0.43 0.8
-13 9 -7 7.35 1.88
-9 13 7 5.04 1.78
-13 4 7 6.76 1.98
9 4 -7 2.18 1.07
-4 13 -7 2.38 1.25
-4 13 -7 2.03 1.21
-13 9 -7 2.13 1.27
-4 -9 7 -0.02 1.63
9 -13 7 3.19 0.85
13 -4 7 5.46 1
4 9 7 2.03 0.75
4 9 -7 3.27 1.25
-13 9 7 3.1 1.57
-13 4 -7 3.52 1.51
13 -4 -7 3.09 0.89
4 -13 7 2.55 0.86
-9 13 -7 3.19 0.93
-9 13 -7 0.92 1.23
13 -9 7 2.52 0.86
-9 13 -7 2.79 1.36
9 4 7 0.7 0.69
9 4 7 1.63 0.81
-9 -4 7 2.4 1.56
-13 3 7 1.1 1.63
-3 -10 7 -0.47 0.65
-3 13 -7 -1.16 1.27
-3 13 -7 -0.8 0.96
13 -3 7 0.43 0.83
-13 10 -7 -0.38 1.21
13 -10 -7 0.95 0.86
-10 13 7 0.49 1.56
13 -3 7 0.09 0.62
-13 10 -7 1.51 1.58
3 10 7 0.67 0.88
10 3 -7 -0.65 0.96
-10 13 7 -0.74 0.98
10 -13 7 1.6 0.8
-13 3 7 0.28 0.97
-10 13 -7 2.19 0.93
-13 10 7 2.19 1.55
3 10 -7 2.18 1.34
13 -10 7 1.93 0.84
-10 -3 7 -0.15 0.66
-10 13 -7 0.75 1.31
-13 10 7 0.2 0.75
-13 3 -7 3.12 1.54
13 -3 -7 1.34 0.89
3 -13 7 1.46 0.85
10 3 7 2.07 0.93
-10 -3 7 2.19 1.67
-10 13 -7 2.28 1.36
10 3 7 2.02 0.86
-2 13 -7 2.88 1.47
-13 2 7 6.35 2.05
-2 -11 7 3.79 1
-11 13 7 7.09 1.84
11 -13 7 4.06 0.87
13 -11 -7 3.9 0.93
-13 11 -7 5.09 1.83
13 -2 7 3.34 0.88
-13 11 -7 3.23 1.47
2 11 7 5.09 1.06
-13 2 7 2.79 1.12
-11 13 7 2.11 1.14
13 -2 7 6.09 1.07
-11 -2 7 4.09 1.14
2 11 -7 4.61 1.51
11 2 7 2.85 1.04
-11 13 -7 2.23 1.5
-11 13 -7 4.18 1.5
-11 -2 7 3.74 1.67
-13 11 7 3.41 1.15
-2 13 7 4.78 1.01
2 -13 7 2.73 0.95
13 -2 -7 2.57 0.89
13 -11 7 2.43 0.81
-13 11 7 2.01 1.37
-13 2 -7 3.59 1.56
-11 13 -7 2.58 1.02
11 2 7 4.29 1.06
-13 12 -7 2.94 1.13
13 -12 -7 1.58 0.88
-13 12 -7 2.18 1.58
-13 1 7 1.37 1.11
-13 12 -7 0.97 1.21
13 -1 7 1.81 0.97
12 1 -7 1.11 0.7
-12 13 7 1.32 1.48
-1 13 -7 0.12 1.25
-12 13 7 1.06 1.1
12 -13 7 1.87 0.78
-13 1 7 2.33 1.71
-1 -12 7 1.34 0.96
13 -1 7 -0.23 0.73
1 12 7 1.62 0.94
-13 12 7 1.2 1.09
1 -13 7 1.61 0.93
-12 13 -7 1.48 1.24
13 -1 -7 2.31 0.93
-13 1 -7 1.48 1.48
-12 13 -7 3.09 1.17
-12 -1 7 1.42 1.07
12 -13 -7 2.61 0.95
12 1 7 2.01 1.05
-12 13 -7 1.58 1.41
-1 13 7 2.3 1
1 12 -7 1.82 1.4
13 -12 7 2.73 0.83
-13 12 7 2.29 1.45
-12 -1 7 1.1 1.69
12 1 7 0.95 1.03
0 13 7 0.8 0.96
-13 0 7 0.26 1.68
0 13 -7 0.36 1.25
-13 13 -7 0.72 1.03
-13 13 7 0.83 1.53
-13 13 -7 0.22 1.45
13 0 7 -1.61 1.05
13 0 -7 0.84 0.87
-13 0 7 -0.72 1.02
13 -13 -7 1.09 0.93
13 0 7 1.25 1
13 -13 7 0.46 0.76
-13 13 7 0.22 1.02
0 -13 7 0.46 0.91
-13 13 -7 1.18 1.28
7 7 -7 2.5 1.33
-14 7 7 2.1 1.55
7 7 7 3.36 1
7 7 7 1.75 0.85
-7 14 -7 2.39 0.72
-7 14 -7 1.06 1.21
14 -7 7 2.5 0.95
-7 -7 7 4.86 1.83
14 -7 -7 1.78 0.86
-7 14 7 2.37 1.66
7 -14 7 3.03 1
-14 7 7 1.39 1.23
-14 7 -7 3.78 1.58
14 -6 7 11.81 1.62
6 8 7 8.08 1.16
14 -8 -7 11.26 1.55
-6 14 -7 7.36 1.65
-14 6 7 10.17 2.07
-8 14 7 11.57 2.23
8 6 -7 6.67 1.45
6 8 7 8.24 1.15
-14 8 -7 12.04 1.93
8 -14 7 12.93 1.63
-14 8 7 6.89 1.81
-8 14 -7 8.77 1.3
6 -14 7 11.79 1.34
8 6 7 10.16 1.26
-8 -6 7 10.63 2.17
14 -8 7 12.07 1.37
-14 6 -7 10.5 1.83
6 8 -7 11.18 1.74
8 6 7 10.48 1.53
-8 14 -7 6.24 1.66
14 -6 -7 11.42 1.3
-14 8 7 8.44 1.81
-14 9 -7 0 1.03
5 9 7 0.24 0.7
14 -5 7 0.6 0.93
14 -5 7 0.26 0.74
-14 5 7 0.51 1.64
14 -9 -7 -0.19 0.78
9 5 -7 -1.21 1.01
-9 14 7 -1.44 0.81
5 9 7 0.64 0.89
-9 14 7 -0.62 1.7
-5 14 -7 -0.09 1.15
-14 5 7 -0.1 0.97
-5 14 -7 0.74 1.11
9 -14 7 0.21 0.9
-14 9 -7 0.07 1.43
-9 14 -7 0.07 1.16
5 -14 7 1.31 0.91
-14 5 -7 0.47 1.33
-14 9 7 0.89 1.5
14 -9 7 0.73 0.85
5 9 -7 0.77 1.26
-9 -5 7 1.65 1.63
-14 9 7 0.2 1.72
-9 14 -7 0.55 0.99
9 5 7 0.24 0.82
9 5 7 0.58 0.95
14 -5 -7 0.26 0.82
4 10 7 3.52 0.97
-14 10 -7 1.03 1.24
-4 -10 7 2.68 0.92
-14 4 7 3.38 1.13
-4 14 -7 0.91 1.06
-14 10 -7 5.96 1.81
-14 4 7 4.43 1.88
14 -4 7 3.48 1.01
14 -4 7 3.75 1.02
-10 14 7 2.82 1.25
14 -10 -7 5.34 1.02
10 -14 7 4.07 1
-10 14 7 4.9 1.73
-4 14 -7 3.22 1.41
14 -10 7 3.77 1.01
-10 -4 7 4.03 1.76
-14 10 7 1.19 0.86
4 -14 7 3.29 0.95
-14 4 -7 4.67 1.62
4 10 -7 2.83 1.43
-10 14 -7 3.73 1.12
10 4 7 4.19 1.13
14 -4 -7 2.64 0.94
-10 14 -7 3.31 1.38
10 4 7 2.8 0.95
-14 10 7 4.04 1.66
-3 -11 7 8.69 1.37
3 -14 -7 13.98 1.69
-14 3 7 15.18 2.78
-14 11 -7 13.59 2.44
-14 3 7 11.55 1.86
11 -14 7 12.19 1.69
3 11 7 12.57 1.74
14 -3 7 13.86 1.72
14 -3 7 12.87 1.79
-11 14 7 17.23 2.86
14 -11 -7 13.93 1.8
-14 11 -7 14 2.59
-3 14 -7 8.23 1.74
-11 14 7 11.98 1.98
-14 11 7 11.02 1.82
14 -3 -7 9.58 1.33
-11 14 -7 9.31 1.75
-14 3 -7 13.88 2.19
11 3 7 12.38 1.79
11 3 7 13.47 1.48
-14 11 7 10.59 2.05
14 -11 7 11.28 1.63
3 -14 7 11.29 1.62
-11 -3 7 15.18 2.49
-11 -3 7 11.23 1.75
3 11 -7 11.84 1.91
-11 14 -7 14.86 1.65
14 -12 -7 6.86 1.14
-2 -12 7 11.41 1.38
-14 2 7 10.01 1.45
-14 2 7 6.82 2.04
-14 12 -7 6.86 1.22
12 -14 7 9.43 1.18
-2 14 -7 5.29 1.54
12 2 -7 5.8 1
-12 14 7 7.57 1.84
-14 12 -7 8.53 1.95
14 -2 7 10.28 1.31
-12 14 7 10.22 1.51
-14 12 -7 6.91 1.74
12 2 7 9.7 1.44
-12 -2 7 13.27 2.38
12 2 7 13.85 1.83
2 -14 7 10.46 1.57
2 12 -7 8.63 1.76
-14 2 -7 8.44 1.85
-12 14 -7 8.82 1.75
-12 14 -7 13.41 1.84
14 -12 7 11.66 1.6
-14 12 7 11.74 2.13
12 -14 -7 12.26 1.68
-12 -2 7 10.08 1.42
-2 14 7 11.62 1.66
-14 12 7 9.38 1.47
14 -2 -7 10.87 1.33
13 1 -7 1.58 0.91
-14 1 7 2.74 1.15
13 -14 7 2.01 0.79
-14 13 -7 2.66 1.56
14 -13 -7 2.15 0.98
-14 1 7 1.74 1.8
-14 13 -7 0.42 1.27
1 13 7 2.23 1
14 -1 7 2.04 1.12
-13 14 7 0.9 1.04
-13 14 7 3.18 1.63
-14 13 -7 1.92 1.1
-1 14 -7 2.66 1.54
-1 -13 7 1.9 1.03
14 -1 7 1.64 1.01
13 -14 -7 5.3 1.11
13 1 7 4.49 1.16
-13 14 -7 2.92 1.51
-13 -1 7 4.65 1.22
-1 14 7 4.31 1.06
-13 -1 7 2.3 1.73
-14 13 7 4.08 1.2
1 -14 7 4 1.03
-14 13 7 3.24 1.58
-13 14 -7 5.88 1.18
1 13 -7 3.84 1.48
13 1 7 4.6 1.23
14 -13 7 3.82 0.92
14 -1 -7 5.47 1.1
-14 1 -7 -0.33 2.22
0 -14 7 -0.08 0.96
14 0 7 -0.52 1.13
-14 14 -7 -0.27 1.35
0 14 -7 -1.09 1.39
14 0 7 0.23 1.02
-14 14 -7 0.59 0.92
14 -14 7 0.28 0.77
14 -14 -7 0.09 0.9
0 14 7 0.39 0.9
-14 14 7 1.6 1.54
-14 14 7 0.59 0.98
-14 0 7 -0.89 1.03
-14 0 7 1.14 1.74
14 0 -7 0.42 0.87
-15 7 7 0.51 1.59
7 8 7 0.12 0.84
7 -15 -7 0.29 0.79
-8 15 7 0.84 1.52
8 7 -7 -1.59 1.15
-15 7 7 -0.2 0.81
8 -15 7 -0.04 0.89
15 -7 7 -0.43 0.99
-15 8 -7 0.88 1.49
15 -8 -7 0.36 0.92
15 -7 7 0.12 0.9
7 8 7 -0.17 0.91
-7 15 -7 0.31 0.88
-7 15 -7 -0.13 1.19
-8 -7 7 0.09 1.39
8 7 7 -0.52 0.88
7 -15 7 0.13 0.94
-7 15 7 0.2 1.72
15 -8 7 -0.24 0.92
15 -8 7 0.18 0.88
8 7 7 0.26 0.84
15 -7 -7 -0.19 0.86
-15 7 -7 0.26 1.24
-8 15 -7 1.16 1.02
-8 15 -7 0.32 1.32
7 8 -7 -1.18 1.31
-15 8 7 1.19 1.41
-9 15 7 4.59 1.81
-15 9 -7 5.61 1.78
-6 15 -7 1.11 1.19
6 -15 -7 2.25 0.93
-15 6 7 2.69 1.1
15 -6 7 3.41 0.98
6 9 7 2.67 0.95
9 6 -7 0.21 1.14
6 9 7 3.28 1.03
-9 15 7 1.71 1.08
15 -9 -7 4.5 1.03
15 -6 7 3.84 1.12
-15 6 7 6.96 2
9 -15 7 3.48 1.01
-9 -6 7 2.84 1.71
6 9 -7 0.67 1.3
15 -9 7 1.15 0.88
9 6 7 1.32 0.77
9 6 7 3.15 0.95
-15 9 7 0.22 2.22
-15 9 7 1.13 1.37
-9 15 -7 0.86 1.31
15 -9 7 1.73 0.89
-15 6 -7 2.04 1.44
-9 15 -7 2.82 1.09
9 6 7 3.24 1.03
15 -6 -7 2.72 0.9
6 -15 7 2.32 0.96
5 10 7 9.72 1.24
15 -10 -7 9.12 1.26
-10 15 7 10.62 2.14
-5 -10 7 6.96 1.26
-15 5 7 10.85 1.44
5 -15 -7 10.86 1.38
-10 15 7 9.47 1.56
15 -5 7 10.34 1.34
-15 5 7 10.49 2.24
10 -15 7 7.95 1.27
-15 10 -7 8.7 1.89
5 10 7 11.4 1.34
15 -5 7 9.33 1.42
-10 -5 7 11.63 2.29
-15 10 7 9.1 1.96
10 5 7 9.74 1.3
5 10 -7 7.73 1.7
15 -5 -7 12.1 1.42
15 -10 7 11.11 1.6
5 -15 7 11.83 1.38
-15 5 -7 8.11 1.76
-10 15 -7 9.88 1.42
10 5 7 11.18 1.39
-10 15 -7 10.78 1.88
15 -4 7 3.14 1.09
-15 11 -7 3.28 1.69
4 11 7 0.56 0.56
-4 -11 7 2.37 1
-15 11 -7 -0.15 1.34
15 -4 7 3.72 1
15 -11 -7 0.91 0.82
11 -15 7 1.88 0.84
-11 15 7 0.78 1.11
-4 15 -7 1.3 1.39
-15 4 7 4.02 1.95
-15 4 7 1.37 1.04
-11 15 7 3.95 1.77
4 -15 -7 2.45 1.05
4 11 7 1.3 0.93
-15 4 -7 2.22 1.54
-11 -4 7 1.23 0.96
4 11 -7 0.25 1.41
15 -11 7 1.51 0.86
-11 15 -7 2.33 1.03
4 -15 7 1.83 0.9
11 4 7 0.29 0.93
-11 15 -7 1.12 1.24
-15 11 7 1.07 1.44
11 4 7 2.55 1.07
15 -4 -7 0.55 0.95
-11 -4 7 2.41 1.73
-15 11 7 0.65 1.05
15 -11 7 -0.14 0.78
15 -3 7 1.65 0.93
-15 12 -7 1.15 1.52
12 3 -7 1.37 0.84
-12 15 7 1.2 1.08
-15 12 -7 -0.11 0.83
12 -15 7 2.66 0.89
-15 3 7 2.91 1.88
-15 12 -7 0.34 1.25
3 12 7 1.93 0.93
3 -15 -7 1.33 0.94
-3 15 -7 1.29 1.44
15 -12 -7 1.8 0.9
-3 -12 7 0.67 1.02
-12 15 7 2.24 1.62
-15 3 7 1.53 1.09
3 -15 7 4.81 1.07
15 -3 -7 4.87 1.11
-15 12 7 2.94 1.11
-12 15 -7 4.32 1.56
15 -12 7 5.44 1.06
12 3 7 5.22 1.16
12 -15 -7 2.77 1.02
12 3 7 5.01 1.14
3 12 -7 1.86 1.45
-15 3 -7 4.15 1.62
-12 15 -7 5.65 1.15
-12 -3 7 4.94 1.95
-12 -3 7 2.22 1.02
-15 12 7 4.9 1.74
-15 2 7 4.07 1.99
2 -15 -7 5.02 1.05
-15 2 7 4.81 1.21
13 2 -7 5.18 1.03
-15 13 -7 3.67 1.62
15 -13 -7 4.82 1.07
-15 13 -7 2.83 1.44
-2 -13 7 5.53 1.15
2 13 7 6.26 1.13
-13 15 7 5.11 1.7
15 -2 7 3.56 1.04
-15 13 -7 4.78 1.11
-13 15 7 5.5 1.25
-2 15 -7 4.11 1.67
15 -2 7 3.27 1.13
13 -15 7 2.88 0.86
2 -15 7 8.33 1.23
-15 13 7 5.3 1.79
2 13 -7 5.08 1.67
13 -15 -7 8.47 1.26
13 2 7 8.06 1.36
-13 -2 7 6.25 1.22
13 2 7 8.35 1.25
-13 15 -7 5.71 1.56
15 -2 -7 6.84 1.2
-15 13 7 4.7 1.2
-13 15 -7 7.36 1.19
-13 -2 7 7.88 2.11
-15 2 -7 4.25 1.05
15 -13 7 7.27 1.14
1 -15 -7 5.34 1.06
-1 15 -7 3.4 1.54
-15 1 7 7.46 1.35
15 -14 -7 5.39 1.11
-15 14 -7 5.46 1.06
14 -15 7 5.09 0.99
-15 1 7 5.98 1.99
15 -1 7 6.21 1.34
15 -1 7 4.92 1.14
-14 15 7 6.69 1.23
14 1 -7 7.42 1.15
-14 15 7 6.91 1.83
1 14 7 7.87 1.13
-15 14 -7 3.68 1.57
-1 -14 7 6.65 1.16
-14 -1 7 3.66 1.12
-14 -1 7 5.26 1.99
14 -15 -7 3.92 1.02
-14 15 -7 2.6 1.44
-15 14 7 4.34 1.16
1 14 -7 2.89 1.55
1 -15 7 5.13 1.13
-15 14 7 4.15 1.57
14 1 7 4.71 1.11
-1 15 7 3.93 0.99
15 -14 7 3.91 0.95
15 -1 -7 4.29 1.06
-14 15 -7 3.58 1.02
14 1 7 4.21 1.29
0 15 7 3.4 1
0 15 -7 1.66 1.41
15 0 7 2.66 1.01
15 0 7 2.98 1.29
0 -15 7 2.98 1
15 -15 7 2.82 0.95
-15 15 -7 0.69 1.28
-15 15 7 2.85 1.52
15 -15 -7 2.02 0.93
-15 15 -7 2.6 0.94
15 0 -7 1.73 0.89
-15 0 7 3.77 1.94
-15 0 7 1.49 1.01
-15 15 7 3.62 1.09
-16 8 -7 0.85 1.42
8 8 7 2.08 0.99
-16 8 7 0.67 0.87
8 -16 7 1.16 0.93
-8 16 -7 1.38 0.94
16 -8 7 0.27 0.86
16 -8 -7 1.59 0.93
16 -8 7 1.31 1.17
-8 16 -7 1.09 1.39
8 -16 -7 1.12 1.03
-16 8 7 1.59 1.49
8 8 7 1.43 0.83
-8 -8 7 -0.35 0.78
8 8 -7 -0.66 1.23
-7 -9 7 0.87 0.87
-16 9 -7 1.54 1.47
-16 7 7 2.46 1.05
7 9 7 1.63 0.98
-9 16 7 0.16 1.44
16 -7 7 0.56 0.88
-7 16 -7 0.52 0.82
9 7 -7 -1.93 1.07
16 -7 7 1.27 1.07
-16 7 7 2.89 1.65
-9 16 7 0.11 0.98
7 -16 -7 0.96 1.07
7 9 7 1.25 0.9
-7 16 -7 -0.2 1.17
16 -9 -7 2.13 0.91
9 -16 7 0.96 0.92
9 -16 -7 0.64 0.8
-9 16 -7 0.73 1.28
16 -9 7 1.6 0.87
7 9 -7 -0.17 1.35
-16 7 -7 2.34 1.52
-9 16 -7 3.27 1.06
16 -9 7 1.74 1.15
16 -7 -7 2.56 1
9 7 7 3.03 1.07
9 7 7 2.01 0.9
7 -16 7 2.93 1.01
16 -6 7 1.09 1.08
-16 10 -7 2.06 1.57
-10 16 7 0.83 1.45
-16 6 7 2.84 1.76
16 -10 -7 1.4 0.88
16 -6 7 0.71 0.91
6 10 7 0.85 0.89
-16 6 7 2.2 1.07
-6 -10 7 0.46 0.97
10 -16 7 1.03 0.95
-10 16 7 1.32 1.14
6 -16 -7 1.38 1.08
6 10 7 2.14 0.98
-10 16 -7 0 1.26
10 6 7 2.76 0.95
16 -10 7 0.72 0.86
-16 6 -7 2.64 1.52
6 -16 7 2.04 0.94
10 -16 -7 0.4 0.79
-10 -6 7 0 0.65
16 -6 -7 1.34 0.93
-10 16 -7 2.44 1.01
10 6 7 -0.29 0.86
16 -10 7 1.14 1.14
6 10 -7 -0.04 1.3
10 6 7 0.86 0.91
-16 10 7 -0.22 0.66
5 11 7 0.86 0.8
-11 16 7 0.7 1.1
11 -16 7 0.75 0.86
-5 -11 7 0.85 1.01
-11 16 7 0.86 1.59
5 11 7 0.17 0.92
16 -5 7 1.26 0.94
5 -16 -7 0.88 1.04
16 -5 7 0.27 1.01
-16 5 7 1.49 1.06
16 -11 -7 1.65 0.91
-16 11 -7 0.35 1.43
-16 5 7 0.63 1.63
16 -5 -7 0.01 0.88
-11 16 -7 0.74 1.22
11 5 7 2.49 0.99
-11 -5 7 0.12 1.34
11 5 7 0.95 0.82
-16 11 7 -0.06 1.26
-11 16 -7 1.9 1
-11 -5 7 0.55 0.89
-16 11 7 0.83 1.05
16 -11 7 0.88 0.93
5 11 -7 -0.76 1.32
5 -16 7 1.18 0.89
16 -11 7 0.91 1.09
-16 5 -7 0.93 1.38
11 5 7 0.44 0.9
-16 4 7 7.6 2.07
16 -12 -7 6.34 1.05
4 -16 -7 5.48 1.1
-12 16 7 5.51 1.69
12 -16 7 4.26 0.98
-16 12 -7 4.76 1.67
4 12 7 7.27 1.11
-12 16 7 5.86 1.26
12 4 -7 5.31 1.01
-16 4 7 8.57 1.33
-4 -12 7 4.65 1.13
16 -4 7 5.38 1.09
12 4 7 7.03 1.19
16 -4 -7 6.09 1.12
-12 -4 7 6.75 1.21
-16 12 7 6.18 1.25
-16 4 -7 6.5 1.74
-16 4 -7 5.19 1.03
-16 12 7 7.26 1.75
-12 16 -7 7.19 1.71
-12 16 -7 6.77 1.11
16 -12 7 7.18 1.13
4 -16 7 4.86 1.04
12 4 7 9.73 1.32
16 -12 7 6.06 1.29
12 -16 -7 6.9 1.13
-12 -4 7 4.66 1.79
4 12 -7 2.78 1.49
-3 -13 7 2.03 1.05
-16 3 7 2.79 1.17
-3 16 -7 1.26 1.28
13 3 -7 1.99 0.91
16 -3 7 1.43 0.94
13 -16 7 1.46 0.8
-16 13 -7 0.78 1.38
16 -3 7 1.19 0.96
-13 16 7 2.48 1.54
3 13 7 2.98 0.98
16 -13 -7 2.27 0.94
-13 16 7 2.21 1.04
-16 3 7 1.56 1.78
-16 13 -7 1.28 0.9
3 -16 -7 2.08 0.97
-13 -3 7 0.92 1
13 -16 -7 1.54 0.93
13 3 7 2.61 1.07
16 -13 7 2.06 1.06
-13 16 -7 2.7 0.96
3 13 -7 -0.25 1.43
-13 -3 7 2.1 1.6
-16 3 -7 -0.66 1.25
16 -3 -7 1.2 0.96
-16 3 -7 1.76 0.97
3 -16 7 1.34 0.92
-16 13 7 1.52 1.5
16 -13 7 1.45 0.86
-13 16 -7 1.24 1.36
-16 13 7 1.32 0.99
13 3 7 2.26 0.97
14 2 -7 3.21 1
-2 -14 7 2.9 1.01
16 -2 7 3.31 1.17
-2 16 -7 0.7 1.28
-14 16 7 1.35 1.35
-16 2 7 3.76 1.2
16 -2 7 3.08 1.04
14 -16 7 1.42 0.81
-14 16 7 4.66 1.17
2 14 7 4.66 1.03
-16 14 -7 3.14 1.01
2 -16 -7 3.12 1
16 -14 -7 2.05 0.88
-16 2 7 2.79 1.84
2 -16 7 1.74 0.91
14 2 7 1.98 0.98
14 2 7 2.77 1.12
16 -14 7 0.12 1
-14 -2 7 1.7 1.56
16 -14 7 1.81 0.88
2 14 -7 1.41 1.51
-14 16 -7 3.14 0.89
-16 14 7 2.21 0.98
14 -16 -7 1.45 0.89
-14 16 -7 2.2 1.4
-16 2 -7 1.63 0.93
16 -2 -7 2.34 0.99
-16 14 7 2.25 1.49
-14 -2 7 2.45 1.04
-1 -15 7 -0.48 0.89
-1 16 -7 0.4 1.32
-16 1 7 -0.33 0.98
-15 16 7 0.94 1.29
15 1 -7 0.79 0.95
1 -16 -7 1.02 0.87
1 15 7 0 0.83
16 -15 -7 0.11 0.8
16 -1 7 0.17 0.94
-16 15 -7 0.48 0.89
-16 1 7 1.51 1.73
16 -1 7 0.23 1.05
-15 16 7 0.54 0.98
15 -16 7 0.46 0.83
-15 16 -7 -0.11 1.11
-15 16 -7 3.79 1
15 1 7 3.28 0.97
15 1 7 2.83 1.15
-16 15 7 2.52 0.94
1 -16 7 3.24 1.02
15 -16 -7 1.47 0.9
-15 -1 7 0.02 1.49
1 15 -7 1.72 1.46
16 -15 7 1.53 0.89
-15 -1 7 1.92 1.05
16 -15 7 -0.25 0.83
-16 15 7 1.34 1.35
16 -1 -7 1.69 0.91
16 -16 7 10.95 1.59
16 0 -7 9.59 1.31
16 -16 -7 8.89 1.24
0 -16 7 11.99 1.63
0 -16 -7 11.37 1.32
16 0 7 10.84 1.53
-16 0 7 9.95 1.41
-16 16 7 10.24 1.67
-16 16 -7 10.05 1.54
16 0 7 12.34 1.39
17 -8 7 0.77 1.08
8 9 7 1.41 0.97
17 -9 -7 1.91 0.88
17 -8 7 0.21 0.8
8 9 7 1.16 0.89
-8 17 -7 -0.16 1.64
-17 8 7 1.32 0.93
8 -17 -7 0.34 1.06
-9 17 7 -0.17 0.84
-9 -8 -7 0.3 0.86
-17 9 -7 0.99 1.5
9 -17 7 1.21 0.91
-17 8 7 0.22 1.47
-8 -9 7 0.15 0.85
-8 17 -7 1.24 0.9
-9 17 -7 1.45 0.99
-9 -8 7 -0.44 0.66
-17 9 7 0.93 0.84
-17 8 -7 0.26 1.39
9 8 7 0.64 0.81
-8 -9 -7 -0.16 0.53
17 -8 -7 1.6 0.9
9 -17 -7 2.14 1.11
17 -9 7 0.54 1.13
-9 17 -7 -0.48 1.13
8 9 -7 -1.01 1.23
8 -17 7 0.84 0.9
17 -9 7 1.16 0.83
9 8 7 1.21 1.01
17 -10 -7 2.9 0.9
7 10 7 2.74 0.93
-7 -10 7 2.85 1
-17 10 -7 2.87 1.65
7 10 7 5.08 1.08
17 -7 7 2.03 0.89
17 -7 7 2.31 1.14
7 -17 -7 4.43 1.22
-17 7 7 4.1 1.63
-7 17 -7 1.42 0.87
10 -17 7 2.88 1.01
-17 7 7 4.38 1.12
-10 17 7 2.37 1.11
10 -17 -7 3.14 1.11
17 -10 7 2.13 0.89
7 10 -7 -0.02 1.26
10 7 7 2.87 1.05
17 -7 -7 3.17 0.94
17 -10 7 2.76 1.22
-10 17 -7 3.37 1.01
-17 7 -7 2.22 1.47
10 7 7 3.55 0.91
-10 17 -7 2.57 1.4
7 -17 7 2.83 0.98
-17 6 7 2.63 1.06
17 -11 -7 2.61 0.89
-6 -11 7 2.69 1.03
6 11 7 2.67 0.96
-11 17 7 0.25 1.3
6 11 7 2.4 0.87
11 -17 7 2.03 0.9
-17 6 7 2.59 1.74
-17 11 -7 1.94 1.53
17 -6 7 2.04 1.04
-11 17 7 2.7 1.16
6 -17 -7 2.64 1.12
11 6 7 2.88 0.94
11 6 7 3.75 1.03
-17 6 -7 1.95 0.84
-17 11 7 1.63 1
17 -11 7 2.1 1.15
-11 17 -7 3.61 1.03
17 -11 7 3.45 0.95
11 -17 -7 3.6 1.04
6 -17 7 3.07 0.97
-11 17 -7 1.72 1.34
11 6 7 2.9 1.07
-17 6 -7 3.61 1.54
6 11 -7 0.69 1.37
17 -6 -7 3.96 1.12
-17 12 -7 1.4 1.4
5 12 7 2.18 0.79
-12 17 7 3.28 1.13
5 -17 -7 4.18 1.1
5 12 7 3.67 0.99
-17 5 7 4.52 1.82
12 -17 7 2.7 0.9
-5 -12 7 3.72 1.08
17 -12 -7 3.9 0.95
-17 5 7 4.96 1.19
12 5 -7 2.19 0.9
17 -5 7 3.31 1.05
-12 17 7 4.35 1.57
17 -12 7 3.2 1.19
12 5 7 3.73 1.03
-17 5 -7 1.76 1.34
17 -5 -7 4.84 1.08
12 5 7 4.11 0.97
5 12 -7 2.07 1.53
-17 5 -7 4.8 0.98
17 -12 7 4.1 0.97
-12 17 -7 3.2 1.46
-12 17 -7 3.75 0.95
12 5 7 3.2 1.08
-17 12 7 3.93 1.12
12 -17 -7 2.21 0.93
-12 -5 7 2.52 0.96
5 -17 7 3.14 0.96
-13 17 7 10.58 1.77
17 -4 7 11.73 1.53
13 -17 7 5.26 1.03
13 4 -7 8.21 1.21
17 -13 -7 7.73 1.17
-4 -13 7 9.64 1.29
-13 17 7 7.58 1.78
-17 4 7 11.23 2.29
4 -17 -7 8.84 1.24
-17 4 7 12.4 1.48
17 -13 7 8.11 1.44
-13 17 -7 8.38 1.71
13 4 7 11.73 1.44
13 4 7 11.82 1.58
4 -17 7 15.28 1.5
17 -13 7 11.23 1.61
-13 17 -7 12.95 1.58
-17 4 -7 12.64 1.72
13 -17 -7 9.41 1.33
-13 -4 7 11.05 1.72
-17 13 7 11.74 1.75
14 3 -7 0.1 0.91
-14 17 7 0.14 1.24
14 -17 7 0.54 0.75
-17 14 -7 0.62 0.92
-17 3 7 0.76 1.04
-14 17 7 -0.01 0.93
-3 -14 7 0.98 0.95
3 14 7 1.05 0.87
-17 3 7 -0.39 1.62
17 -3 7 -0.09 0.82
17 -3 7 0.32 0.94
17 -14 -7 0.83 0.84
3 -17 -7 0.71 0.86
14 3 7 2.49 1.04
17 -14 7 1.88 0.9
-14 17 -7 0.08 1.13
3 -17 7 2.33 0.96
3 14 -7 0.92 1.35
-17 14 7 2.07 1.02
-17 3 -7 2.02 0.9
14 -17 -7 1.72 0.85
-14 -3 7 0.13 0.91
14 3 7 3.61 0.99
17 -3 -7 2.12 0.95
-14 17 -7 3.37 0.97
17 -14 7 1.66 1.09
-17 2 7 0.2 1.5
17 -2 7 2.49 0.99
2 -17 -7 1.52 0.88
-2 -15 7 1.77 0.94
-17 15 -7 2.52 0.97
17 -2 7 1.78 1.05
-15 17 7 1.98 0.93
15 -17 7 0.74 0.82
15 2 -7 1.63 0.96
17 -15 -7 1.69 0.84
2 15 7 2.62 0.89
-15 17 7 0.07 1.14
-17 2 7 1.31 1.03
15 -17 -7 1.06 0.86
-15 17 -7 2.71 0.9
17 -15 7 1.27 0.85
-15 -2 7 2.44 1.01
17 -2 -7 0.53 0.87
2 -17 7 0.87 0.87
17 -15 7 1.51 1
15 2 7 1.9 0.89
15 2 7 2.93 1.1
-15 17 -7 -0.33 0.92
-17 2 -7 0.43 0.83
2 15 -7 0.42 1.14
-17 15 7 1.74 0.92
-16 17 7 12.35 1.59
16 1 -7 12.56 1.63
16 -17 7 11.27 1.62
-1 -16 7 16.52 1.55
1 -17 -7 12.78 1.63
-17 1 7 12.47 1.73
17 -1 7 9.28 1.46
17 -1 7 13.7 1.48
-17 16 -7 10.83 1.57
17 -16 -7 10.25 1.57
1 16 7 11.52 1.61
1 -17 7 11.59 1.3
16 -17 -7 6.16 1.09
-1 -16 -7 8.07 1.16
16 1 7 11.17 1.46
-17 16 7 8.95 1.47
17 -16 7 8.84 1.16
17 -16 7 5.23 1.1
-16 17 -7 9.77 1.47
16 1 7 9.17 1.18
17 -1 -7 7.48 1.21
-16 -1 7 10.37 1.37
-17 0 7 1.35 0.91
17 0 7 1.51 1.09
0 -17 -7 2.87 0.9
0 -17 7 1.25 0.85
-17 17 7 1.7 0.84
17 0 -7 1.96 0.95
17 -17 -7 1.22 0.76
17 -17 7 0.78 0.78
17 0 7 1.44 0.83
-17 17 -7 1.54 0.85
17 -17 7 -0.11 0.86
9 9 7 0.3 0.94
18 -9 -7 0.82 0.83
18 -9 7 -0.15 0.81
9 -18 7 0.2 0.89
-9 -9 7 0.59 0.85
-9 -9 -7 0.13 0.8
-18 9 -7 0.84 0.81
-18 9 -7 0.13 1.21
18 -9 7 0.06 1.05
-18 9 7 0.65 0.85
9 -18 -7 0.18 1.01
-9 18 -7 0.73 0.82
9 9 7 -0.03 0.85
-8 -10 7 1.59 0.88
18 -8 7 1.48 1.07
18 -8 7 0.92 0.85
8 10 7 1.68 0.98
18 -10 -7 2.27 0.84
-18 8 7 1.77 0.92
-10 -8 -7 0.66 0.89
-8 18 -7 0.39 0.8
-18 10 -7 1.29 1.29
-10 18 7 0.54 0.98
10 -18 7 0.67 0.88
-18 10 -7 2.51 0.89
8 10 7 1.27 0.86
8 -18 -7 2.01 1.04
18 -8 -7 2.14 0.85
10 -18 -7 1.43 1.12
8 -18 7 1.97 0.89
18 -10 7 1.81 0.85
-10 18 -7 2.27 0.91
-18 8 -7 2.03 0.8
-8 -10 -7 -0.12 0.55
10 8 7 1.78 0.99
-18 8 -7 1.55 1.42
10 8 7 1.74 0.89
18 -10 7 1.42 1.14
-18 10 7 1 0.75
11 -18 7 1.72 0.85
-7 -11 7 1.39 0.9
-11 18 7 1.73 1.02
-18 7 7 2.96 1.02
18 -11 -7 3.3 0.89
7 -18 -7 2.39 1.06
7 11 7 1.96 0.83
7 11 7 2.72 0.96
-18 11 -7 0.97 1.33
18 -7 7 2.65 1.02
18 -11 7 1.58 1.16
11 -18 -7 2.55 1.09
-18 7 -7 0.54 1.14
11 7 7 1.64 0.83
-11 18 -7 2.62 0.96
7 -18 7 2.99 0.94
18 -11 7 2.63 0.89
11 7 7 2.51 1.05
18 -7 -7 3.43 0.95
-18 7 -7 3.63 0.91
18 -12 -7 0.12 0.83
-12 18 7 0.77 0.97
-6 -12 7 0.01 0.92
-18 6 7 1.31 1.01
6 12 7 0.5 0.71
6 12 7 -0.15 0.82
12 -18 7 0.45 0.8
12 6 -7 0.32 0.62
6 -18 -7 -0.25 0.96
-18 6 7 0.19 1.7
18 -6 7 0.31 0.89
12 6 7 0.52 0.83
-12 18 -7 -0.64 0.91
6 -18 7 0.1 0.88
-18 6 -7 -0.43 1.4
-12 18 -7 0.69 0.85
18 -12 7 0.78 1.09
-12 -6 7 0.04 0.57
12 6 7 0.52 0.99
12 -18 -7 0.91 0.82
12 -18 -7 0.23 1.01
-18 6 -7 0.82 0.83
18 -6 -7 0.99 0.85
-18 12 7 0.66 0.92
18 -12 7 -0.02 0.8
18 -13 -7 2.47 0.9
-18 5 7 3.39 1.12
18 -5 7 2.26 0.89
-18 5 7 0.21 1.84
5 -18 -7 1.59 0.96
13 5 -7 3.02 0.99
-5 -13 7 2.69 0.98
13 -18 7 1.17 0.77
5 13 7 3.43 0.96
-13 18 7 3.36 1.03
13 -18 -7 2.24 0.91
5 -18 7 5.26 1.07
-13 -5 7 3.11 0.96
13 -18 -7 4.15 0.95
13 5 7 7.1 1.12
-18 13 7 4.18 1.05
18 -13 7 4.86 0.99
-13 18 -7 7.48 1.12
18 -5 -7 6.03 1.1
18 -13 7 3.63 1.16
13 5 7 4.21 0.94
-18 5 -7 4.39 0.94
13 5 7 3.46 1.12
-14 18 7 0.66 0.87
-4 -14 7 -0.19 0.87
4 14 7 -0.31 0.8
18 -4 7 0.55 0.81
14 -18 7 0.1 0.7
18 -4 7 0.26 0.7
4 -18 -7 0.42 0.88
-18 4 7 0.3 0.98
14 4 -7 0.66 0.95
18 -14 -7 0.66 0.74
14 4 7 1.37 0.96
-18 4 -7 1.02 0.83
18 -14 7 1.32 1.01
-18 14 7 1.33 0.91
14 4 7 -0.01 0.82
14 -18 -7 0.46 0.8
18 -14 7 -0.05 0.77
18 -4 -7 -0.08 0.85
4 -18 7 1.12 0.88
14 -18 -7 -0.2 0.64
-14 -4 7 0.39 0.88
14 4 7 0.7 0.79
-14 18 -7 0.93 0.81
-18 15 -7 4.45 1.01
15 -18 7 3.61 0.92
-15 18 7 6.32 1.07
-3 -15 7 6.55 1.04
18 -3 7 6.01 1.1
-18 15 -7 3.65 0.86
18 -3 7 6.14 1.11
15 3 -7 5.47 1.12
3 -18 -7 5.51 1.01
18 -15 -7 4.13 0.92
3 15 7 7.06 1.02
-18 3 7 8.83 1.27
15 -18 -7 6.22 1.03
-18 15 7 5.97 1.09
-15 18 -7 9.22 1.43
-15 -3 7 4.84 1.09
18 -15 7 7.46 1.23
15 3 7 8 1.09
-18 3 -7 8.19 1.15
18 -15 7 6.47 1.06
15 3 7 11.14 1.32
3 -18 7 9.1 1.17
18 -2 7 0.73 0.84
-2 -16 7 0.4 0.82
-18 2 7 0.53 0.88
2 -18 -7 0.42 0.79
18 -2 7 1.28 0.97
-16 18 7 0.83 0.8
2 16 7 1.25 0.78
-18 16 -7 1.18 0.82
16 -18 7 0.59 0.8
16 2 -7 1.25 0.96
18 -16 -7 0.47 0.76
18 -16 7 1.5 0.91
-16 -2 7 0.6 0.86
-18 16 7 1.65 0.83
-2 -16 -7 1.67 0.85
2 -18 7 2.31 0.85
16 -18 -7 1.41 0.72
18 -16 7 1.13 0.78
16 2 7 0.86 1
-16 18 -7 1.79 0.81
16 2 7 2.01 0.83
18 -2 -7 1.92 0.92
17 -18 7 1.31 0.63
18 -1 7 4.16 1.05
-1 -17 7 4.39 0.9
1 -18 -7 3.05 0.85
18 -1 7 3.69 0.86
-17 18 7 6.08 1.02
-18 1 7 3.82 0.95
17 1 -7 4.04 1
-18 17 -7 2.72 0.86
18 -17 -7 2.67 0.76
-1 -17 -7 4.56 0.91
18 -17 7 2.23 0.67
-17 -1 7 2.66 0.93
18 -17 7 1.99 0.75
1 -18 7 4.82 0.94
18 -1 -7 5.03 1.06
17 1 7 4.14 0.9
-17 18 -7 4.86 0.88
17 1 7 4.78 1.17
-18 17 7 4.01 0.89
-18 18 -7 12.94 1.5
0 -18 -7 13.93 1.51
-18 0 7 12.4 1.63
18 0 7 13.46 1.56
0 -18 7 13.23 1.57
18 0 7 16.68 1.74
-18 18 7 14.15 1.47
18 0 -7 13.93 1.7
9 -19 -7 0.03 0.98
10 -19 7 0.4 0.81
-10 19 7 -0.42 0.68
9 10 7 0.45 0.9
19 -10 -7 0.44 0.76
-10 -9 -7 -0.1 0.76
19 -9 7 0.02 0.94
-19 9 7 0.47 0.84
-9 19 -7 -0.18 0.76
-19 10 -7 0.81 0.79
9 10 7 0.02 0.79
-9 -10 7 0.19 0.75
10 9 7 -0.43 0.82
-10 19 -7 0.25 0.79
-9 -10 -7 -0.85 0.66
-19 9 -7 0.16 0.78
9 -19 7 0.48 0.87
19 -10 7 0.23 1.04
-19 10 7 0.28 0.79
10 9 7 0.32 0.94
19 -9 -7 1.37 0.89
-10 -9 7 -0.29 0.73
10 -19 -7 0.37 0.97
19 -10 7 -0.07 0.73
-19 11 -7 4 0.95
-11 19 7 1.8 0.96
-11 -8 -7 1.96 0.83
-8 -11 7 1.39 0.85
8 11 7 2.04 0.9
8 -19 -7 1.44 0.98
-19 8 7 3.49 0.99
19 -8 7 3.01 1.01
8 11 7 1.49 0.78
19 -11 -7 2.64 0.86
11 -19 7 2.31 0.84
19 -11 7 1.54 0.83
8 -19 7 1.55 0.83
11 8 7 2.55 1.04
-11 -8 7 -0.37 0.87
19 -11 7 2.11 1.09
19 -8 -7 3.6 0.92
-11 19 -7 3.99 0.94
11 -19 -7 1.93 1.03
11 -19 -7 2.01 0.81
11 8 7 1.97 0.89
-19 8 -7 4.76 0.91
-12 -7 -7 5.92 1.03
7 12 7 5.76 0.92
7 12 7 7.07 1.03
19 -12 -7 7.62 1.07
7 -19 -7 8.32 1.21
-7 -12 7 8.76 1.17
-19 7 7 7.19 1.17
19 -7 7 6.54 1.09
-12 19 7 4.95 1.13
-19 12 -7 7.12 1.05
12 -19 7 6.79 1.01
12 -19 -7 5.58 1.18
-12 19 -7 5.79 1
12 7 7 5.68 1.12
19 -12 7 9.77 1.36
12 -19 -7 4.78 0.95
12 7 7 8.92 1.09
7 -19 7 5.3 1
19 -12 7 4.86 0.97
-6 -13 7 4.26 1
19 -6 7 2.93 0.88
6 -19 -7 2.56 0.98
-19 6 7 5.42 1.13
13 6 -7 2.93 0.8
-13 19 7 4.18 1.05
13 -19 7 2.35 0.77
-19 13 -7 3.09 0.9
-13 -6 -7 2.35 0.84
19 -13 -7 3.6 0.87
6 13 7 5.22 0.95
19 -6 -7 5.57 1
13 6 7 4.15 1.05
6 -19 7 4.09 0.92
19 -13 7 1.9 0.81
13 6 7 2.72 0.84
-13 19 -7 4.65 0.94
13 -19 -7 2.71 0.82
-19 13 7 3.35 0.94
13 -19 -7 5.12 1.1
19 -13 7 3.41 1.09
-19 6 -7 4.78 0.91
19 -14 -7 0.13 0.71
19 -5 7 1.69 0.8
5 -19 -7 0.19 0.88
14 5 -7 0.93 0.9
-19 14 -7 1.05 0.78
-5 -14 7 0.72 0.86
-14 19 7 1.49 0.87
5 14 7 1.86 0.82
-19 5 7 1.43 0.96
14 -19 7 0.25 0.68
-14 -5 7 0.63 0.75
14 -19 -7 0.26 0.69
19 -14 7 1.51 0.99
19 -14 7 1.85 0.77
-19 14 7 1.67 0.88
5 -19 7 1.55 0.88
-14 19 -7 2.92 0.84
14 -19 -7 1.13 0.67
-19 5 -7 1.71 0.79
14 5 7 2.03 0.98
19 -5 -7 1.59 0.82
14 5 7 1.56 0.83
15 4 -7 3.12 0.96
-15 19 7 2.68 0.87
-19 15 -7 2.18 0.77
19 -4 7 0.19 0.94
15 -19 7 2.33 0.76
19 -4 7 2.88 0.92
4 15 7 3.92 0.86
-19 4 7 3.39 0.98
19 -15 -7 2.82 0.78
4 -19 -7 2.79 0.89
-4 -15 7 3.02 0.88
15 -19 -7 -0.03 0.56
19 -15 7 1.99 0.75
4 -19 7 1.4 0.85
15 4 7 3.8 0.83
-15 -4 7 1.24 0.8
19 -4 -7 2.7 0.91
-19 15 7 1.24 0.81
-19 4 -7 2.3 0.81
19 -15 7 2.07 0.95
15 4 7 3.41 0.93
-15 19 -7 2.08 0.77
-16 19 7 10.8 1.44
-19 16 -7 9.74 1.41
-19 3 7 11.64 1.56
16 3 -7 11.75 1.69
19 -16 -7 10.66 1.33
-3 -16 7 11.91 1.45
3 -19 -7 11.98 1.51
19 -3 7 11.68 1.42
3 16 7 10.26 1.42
19 -3 7 12.38 1.55
-16 19 -7 12.04 1.39
16 3 7 10.25 1.37
-16 -3 7 10.77 1.45
-19 16 7 10.41 1.36
16 3 7 11.58 1.58
-19 3 -7 11.03 1.39
19 -3 -7 11.76 1.58
-3 -16 -7 12.54 1.47
19 -16 7 10.54 1.5
3 -19 7 12.43 1.53
2 -19 -7 2.43 0.82
-19 2 7 3.31 0.92
-17 19 7 3.53 0.83
19 -2 7 1.87 0.81
-19 17 -7 1.7 0.77
19 -2 7 2.42 0.81
17 2 -7 3.21 0.99
-2 -17 7 2.53 0.76
17 2 7 3.68 0.96
19 -17 7 2.2 0.78
2 -19 7 3.02 0.84
-17 19 -7 4.3 0.85
19 -2 -7 3.49 0.92
-2 -17 -7 3.33 0.84
17 2 7 3.46 0.81
-17 -2 7 2.87 0.86
-19 17 7 2.95 0.77
19 -1 7 3.16 0.78
18 1 -7 3.51 0.95
-18 19 7 2.69 0.73
1 -19 -7 1.63 0.77
-19 18 -7 2.41 0.75
19 -1 7 2.77 0.82
-19 1 7 2.06 0.81
-1 -18 7 2.5 0.79
-18 -1 7 0.92 0.72
-18 19 -7 1.9 0.73
18 1 7 2.14 0.86
18 1 7 1.6 0.74
19 -1 -7 2.48 0.87
-19 18 7 2.27 0.76
-1 -18 -7 1.14 0.71
1 -19 7 2.27 0.77
19 0 -7 4.05 0.94
19 0 7 3.29 0.88
0 -19 7 3.76 0.77
-19 0 7 3.15 0.76
19 0 7 3.61 0.8
0 -19 -7 3.61 0.82
-19 19 -7 3.04 0.76
-19 19 7 3.16 0.71
-10 -10 -7 0.15 0.71
10 -20 7 0.6 0.71
-10 -10 7 0.4 0.72
20 -10 -7 1.69 0.84
10 -20 -7 1.59 0.94
10 10 7 0.5 0.68
-20 10 -7 1.78 0.76
-20 10 7 1.19 0.74
-10 20 -7 0.22 0.72
10 10 7 0.96 0.85
20 -10 7 0.86 0.87
9 -20 -7 0.99 0.94
20 -11 -7 1.58 0.83
-9 -11 7 1.41 0.79
20 -9 7 1.12 0.89
-11 20 7 -0.2 0.6
9 11 7 1.16 0.69
11 -20 7 0.83 0.7
-20 9 7 1.73 0.81
-11 -9 -7 1.44 0.77
-20 11 -7 2.59 0.79
9 11 7 1.5 0.82
-11 20 -7 0.79 0.72
-20 9 -7 2.19 0.72
11 9 7 1.79 0.92
-11 -9 7 -0.54 0.53
-20 11 7 -0.25 0.53
11 9 7 1.89 0.82
11 -20 -7 1.14 0.62
-9 -11 -7 -0.16 0.52
20 -11 7 1.29 0.93
9 -20 7 1.39 0.79
20 -9 -7 1.48 0.84
11 -20 -7 2.7 0.95
8 12 7 0.98 0.65
8 12 7 1.53 0.77
8 -20 -7 1.09 0.88
-8 -12 7 1.98 0.82
20 -8 7 1.72 0.79
20 -12 -7 2.31 0.8
-20 12 -7 3.09 0.82
-12 20 7 1.19 0.8
12 -20 7 1.28 0.7
-20 8 7 3.66 0.93
-12 -8 -7 1.24 0.73
12 -20 -7 0.42 0.95
-12 20 -7 0.85 0.77
12 8 7 1.15 0.96
12 -20 -7 0.31 0.53
12 8 7 0.56 0.8
20 -8 -7 1.38 0.85
-20 8 -7 1.28 0.71
8 -20 7 0.81 0.8
20 -12 7 0.79 0.73
20 -12 7 1.84 0.98
7 13 7 2.89 0.81
-7 -13 7 1.96 0.82
7 -20 -7 0.61 0.82
-20 13 -7 2.37 0.79
-13 20 7 0.38 0.76
13 -20 7 1 0.63
-20 7 7 2.58 0.87
-13 -7 -7 1.55 0.75
20 -13 -7 1.78 0.73
20 -7 7 1.47 0.79
7 -20 7 2.29 0.77
13 -20 -7 4.39 1.04
20 -13 7 2.93 0.82
20 -7 -7 3.85 0.9
-20 7 -7 3.86 0.8
-13 20 -7 3.54 0.87
13 7 7 2.96 0.86
13 7 7 2.16 0.96
20 -13 7 3.25 1.02
-6 -14 7 0.24 0.76
20 -6 7 0.1 0.71
-14 20 7 1.22 0.8
20 -14 -7 0.56 0.7
6 14 7 0.24 0.71
14 6 -7 -0.55 0.6
-14 -6 -7 -0.04 0.7
14 -20 7 0.05 0.59
-20 6 7 0.48 0.8
-20 14 -7 0.72 0.72
6 -20 -7 0.15 0.77
20 -6 -7 0.96 0.71
6 -20 7 -0.56 0.7
-20 14 7 -0.01 0.55
-20 6 -7 0.27 0.71
14 6 7 0.25 0.86
14 6 7 0.19 0.82
14 -20 -7 -0.33 0.65
20 -14 7 -0.35 0.7
20 -14 7 1.26 0.87
-14 20 -7 0.74 0.72
-20 5 7 6.83 0.99
-20 15 -7 3.34 0.76
15 5 -7 3.98 0.87
-15 -5 -7 4.73 0.89
-5 -15 7 4.52 0.87
5 -20 -7 3.7 0.89
20 -5 7 5.39 0.99
5 15 7 4.55 0.84
-15 20 7 5.63 0.94
20 -15 -7 4.54 0.82
-20 5 -7 5.17 0.9
-20 15 7 4.6 0.92
15 5 7 5.85 0.94
20 -15 7 5.4 0.99
-15 20 -7 6.46 0.91
5 -20 7 3.76 0.85
20 -5 -7 6.31 0.97
20 -4 7 6.09 0.99
16 4 -7 7.28 1.03
-4 -16 7 8.55 1.05
4 16 7 6.08 0.92
4 -20 -7 8.16 1.08
-16 -4 -7 7.72 1
-20 4 7 8.58 1.29
-16 20 7 7.23 1.14
-20 4 -7 4.41 0.85
-16 20 -7 6.38 0.89
20 -16 7 5.8 0.99
-4 -16 -7 5.73 0.92
4 -20 7 5.94 0.95
-20 16 7 5.42 0.93
16 4 7 5.71 0.92
20 -3 7 0.72 0.7
3 -20 -7 0.06 0.72
-17 -3 -7 0.35 0.64
17 3 -7 0.75 0.74
-20 3 7 1.35 0.77
-3 -17 7 0.35 0.66
-17 20 7 0.64 0.63
17 3 7 0.95 0.75
3 -20 7 1.16 0.73
-3 -17 -7 1.05 0.72
-20 17 7 0.51 0.68
-17 -3 7 0.7 0.65
-17 20 -7 0.79 0.63
20 -17 7 0.77 0.68
20 -3 -7 0.32 0.75
2 -20 -7 4.56 0.92
-2 -18 7 5.03 0.86
20 -2 7 5.92 0.92
18 2 -7 7.16 0.96
-18 -2 -7 5.56 0.84
-18 20 7 6.16 0.88
-20 2 7 6.92 0.96
18 2 7 4.92 0.93
-2 -18 -7 5.29 0.85
-18 -2 7 2.88 0.77
2 -20 7 4.05 0.82
18 2 7 4.75 0.85
20 -2 -7 5.47 0.94
-20 18 7 4.32 0.81
-18 20 -7 4.51 0.8
1 -20 -7 3.89 0.86
-1 -19 7 3.78 0.81
20 -1 7 2.53 0.7
-19 -1 -7 4.27 0.77
19 1 -7 3.94 0.86
-20 1 7 2.86 0.76
-19 20 7 3.75 0.79
20 -1 7 4.13 0.84
1 -20 7 3.39 0.81
-19 -1 7 1.86 0.62
19 1 7 3.44 0.87
20 -1 -7 4.36 0.99
-1 -19 -7 2.87 0.78
-20 19 7 2.89 0.72
-19 20 -7 3.61 0.66
19 1 7 2.66 0.75
-21 10 7 1.67 0.65
-11 -10 -7 0.67 0.58
21 -10 7 0.6 0.7
10 -21 -7 2.71 0.87
10 11 7 2.14 0.76
10 11 7 1.12 0.63
-21 11 -7 2.96 0.73
-10 -11 7 0.67 0.68
21 -11 -7 2.48 0.85
11 -21 7 1.21 0.65
11 -21 -7 2.23 0.89
10 -21 7 1.58 0.68
21 -11 7 2.51 0.85
21 -10 -7 2.97 0.83
-21 10 -7 2.97 0.69
11 10 7 2.84 0.85
-11 21 -7 1.36 0.71
11 10 7 2.29 0.68
9 12 7 2.23 0.76
-21 9 7 1.64 0.64
21 -9 7 2.32 0.76
-12 -9 -7 1.27 0.68
21 -12 -7 2.62 0.79
-9 -12 7 2.23 0.73
9 -21 -7 2.5 0.8
-21 12 -7 2.03 0.7
9 12 7 1.96 0.52
12 -21 7 1.63 0.58
21 -9 -7 5.45 0.92
12 -21 -7 2.56 0.92
12 9 7 3.99 0.92
-21 9 -7 3.91 0.78
21 -12 7 3.49 0.91
12 9 7 3.41 0.79
9 -21 7 2.74 0.75
-12 21 -7 2.25 0.76
-21 8 7 3.13 0.78
-21 13 -7 2.37 0.72
-13 21 7 1.62 0.66
-8 -13 7 2.35 0.79
8 13 7 3.79 0.79
21 -13 -7 2.78 0.76
-13 -8 -7 1.48 0.69
8 -21 -7 1.67 0.78
21 -8 7 4.02 0.85
13 8 7 2.83 0.83
-13 21 -7 2.44 0.78
13 8 7 3.94 0.85
21 -13 7 3.57 0.96
-21 8 -7 4.63 0.79
8 -21 7 2.86 0.78
21 -8 -7 2.94 0.73
13 -21 -7 3.65 0.91
21 -14 -7 0.23 0.68
-21 14 -7 0.34 0.63
-21 7 7 1.15 0.7
-7 -14 7 -0.23 0.68
7 14 7 0.55 0.65
-14 -7 -7 -0.16 0.61
-14 21 7 0.39 0.62
7 -21 -7 0.41 0.72
21 -7 7 -0.15 0.66
14 7 7 0.78 0.81
21 -7 -7 0.64 0.69
14 7 7 0.5 0.73
14 -21 -7 0.04 0.56
7 -21 7 1.21 0.72
-14 21 -7 0.68 0.68
21 -14 7 1.04 0.85
-21 7 -7 0.96 0.65
-6 -15 7 0.74 0.67
6 -21 -7 0.74 0.67
-21 15 -7 0.17 0.57
21 -15 -7 0.25 0.53
-15 -6 -7 0.54 0.65
-15 21 7 0.51 0.64
-21 6 7 0.97 0.7
6 15 7 0.49 0.63
15 6 -7 -0.21 0.85
21 -6 7 0.4 0.75
-21 6 -7 1.29 0.63
-15 21 -7 1.57 0.67
21 -15 7 1.49 0.77
15 6 7 1.55 0.77
15 6 7 0 0.69
21 -6 -7 1.33 0.71
6 -21 7 0.85 0.65
16 5 -7 0.46 0.58
21 -5 7 0.3 0.73
-16 -5 -7 0.44 0.66
-5 -16 7 0.49 0.69
-16 21 7 1.38 0.67
5 16 7 0.7 0.62
-21 5 7 1.5 0.72
5 -21 -7 0.9 0.69
-16 21 -7 1.36 0.67
21 -5 -7 1.17 0.69
21 -16 7 1.34 0.73
-5 -16 -7 1.05 0.68
-21 16 7 -0.05 0.47
5 -21 7 0.85 0.67
16 5 7 0.37 0.77
-21 5 -7 0.19 0.6
4 -21 -7 3.5 0.78
-21 4 7 4.22 0.81
17 4 -7 3.28 0.72
-4 -17 7 3.45 0.76
21 -4 7 4.52 0.83
-17 21 7 4.15 0.76
-17 -4 -7 2.97 0.74
-21 17 7 2.48 0.58
17 4 7 3.7 0.86
21 -4 -7 4.81 0.87
4 -21 7 4.17 0.78
-4 -17 -7 3.37 0.76
-3 -18 7 6.21 0.91
18 3 -7 5.91 0.89
-21 3 7 8.91 1.25
-18 -3 -7 8.41 1.18
-18 21 7 6.71 1.08
21 -3 7 8.65 1.03
3 -21 -7 5.09 0.91
-3 -18 -7 5.7 0.87
3 -21 7 6.7 0.95
-18 21 -7 7.65 1.04
-21 18 7 5.58 0.88
21 -3 -7 9.04 1.07
18 3 7 8.35 1.1
11 11 7 3.24 0.55
22 -11 7 3.09 0.72
22 -11 -7 5.01 0.85
11 -22 -7 3.01 0.8
11 11 7 4.93 0.81
22 -12 -7 2.35 0.77
22 -10 7 1.9 0.69
-22 10 7 1.62 0.59
-22 12 -7 1.83 0.65
10 -22 -7 0.99 0.72
-10 -12 7 0.32 0.55
10 12 7 1.72 0.71
22 -12 7 1.85 0.78
12 -22 -7 1.39 0.73
12 10 7 0.81 0.55
12 10 7 1.48 0.72
22 -10 -7 1.6 0.65
-22 10 -7 1.89 0.68
9 -22 -7 2.77 0.77
22 -9 7 2.38 0.72
-9 -13 7 2.13 0.67
-22 9 7 2.19 0.69
-13 -9 -7 1.86 0.57
22 -13 -7 2.81 0.71
-22 13 -7 2.97 0.72
9 13 7 3.02 0.75
22 -13 7 2.56 0.8
13 -22 -7 1.11 0.6
13 9 7 2.49 0.82
-22 9 -7 2.03 0.65
-13 22 -7 1.81 0.68
9 -22 7 1.02 0.46
22 -9 -7 2.29 0.69
13 9 7 1.16 0.58
-22 8 7 3.77 0.77
8 -22 -7 3.4 0.78
-14 -8 -7 2.19 0.63
22 -8 7 2.52 0.8
-22 14 -7 2.66 0.68
-8 -14 7 2.65 0.73
8 14 7 3.67 0.73
-22 8 -7 1.32 0.61
14 8 7 1.5 0.72
8 -22 7 1.27 0.54
-14 22 -7 2.5 0.76
22 -8 -7 1.85 0.7
14 8 7 1.8 0.64
22 -14 7 2.26 0.8
22 -7 7 0.77 0.73
-15 22 7 0.59 0.55
-22 7 7 1.5 0.69
-22 15 -7 0.38 0.54
7 15 7 0.99 0.62
-15 -7 -7 0.25 0.58
-7 -15 7 1.51 0.67
7 -22 -7 1.25 0.66
22 -7 -7 0.93 0.72
22 -15 7 0.43 0.69
7 -22 7 1.28 0.56
-22 7 -7 1.16 0.59
-15 22 -7 0.8 0.65
-7 -15 -7 1.07 0.67
15 7 7 0.5 0.65
-6 -16 7 2.92 0.74
6 -22 -7 4.07 0.8
-16 22 7 4.43 0.78
22 -6 7 4.78 0.84
-16 -6 -7 3.5 0.74
-22 6 7 6.21 0.83
6 -22 7 4.14 0.72
16 6 7 5.22 0.9
-16 22 -7 6.27 1
22 -6 -7 6.59 0.91
-22 6 -7 4.12 0.69
-6 -16 -7 7.37 0.91
-22 5 7 1.11 0.69
11 12 7 1.93 0.74
-23 12 -7 1.15 0.69
-23 11 -7 1.77 0.69
12 11 7 2.72 0.79
-23 13 -7 4.96 0.8
-23 10 -7 9.59 1.19
0 0 -8 0.33 1.21
0 0 8 0.62 0.97
0 0 -8 0.44 0.76
-1 1 -8 13.08 2.03
1 -1 -8 13.79 2.27
-1 0 -8 17.66 1.71
1 0 -8 15.86 2.31
-1 0 -8 12.31 2.1
0 -1 -8 17.8 1.73
0 -1 -8 16.24 2.17
0 1 -8 16.14 1.68
-1 1 -8 16.5 1.59
1 -1 8 18.13 1.94
1 0 8 16.28 1.87
1 -1 -8 16.46 1.71
0 1 8 16.26 1.97
0 -1 8 17.53 1.92
-1 1 8 14.96 1.84
-1 0 8 16.87 1.91
1 0 -8 17.39 1.7
1 -2 -8 14.74 1.6
-1 -1 -8 10.21 1.9
-2 1 -8 15.93 1.61
-1 -1 -8 16.16 1.72
-2 1 8 16.21 1.87
1 -2 8 17.74 2.12
-1 2 8 12.95 1.81
-1 2 -8 18.46 1.68
2 -1 -8 17.01 2.37
1 1 -8 15.42 1.65
2 -1 -8 16.07 1.6
-1 -1 8 17.61 2.07
1 -2 -8 14.78 2.2
2 -2 -8 2.43 1.36
-2 0 -8 -0.12 1.17
0 2 8 1.95 1.03
0 -2 8 3.43 1.18
0 -2 -8 2.46 1.29
-2 2 8 3.09 1.21
2 -2 -8 2.82 0.88
-2 0 -8 2.86 0.83
-2 2 -8 2.35 0.72
2 0 -8 2.73 0.79
-2 0 8 3.93 1.33
0 2 -8 2.15 0.75
-2 3 8 2.51 0.94
-2 -1 -8 4.82 0.97
-3 1 8 5.26 1.36
1 -3 -8 4.01 1.45
3 -2 -8 5.5 0.95
-1 -2 8 6.73 1.41
-1 3 -8 5.02 0.94
2 1 -8 4.27 0.87
3 -2 -8 4.33 1.48
-2 -1 -8 0.06 1.49
3 -1 -8 4.28 0.89
-3 2 8 4.49 1.36
2 -3 -8 3.42 1.41
1 2 -8 3.46 0.82
1 -3 8 5.61 1.43
-2 3 -8 4.27 0.9
-2 -1 8 5.34 1.35
3 -1 -8 3.97 1.51
-3 0 8 5.91 1.35
3 -3 -8 3.8 1.45
0 -3 8 7.51 1.51
3 -3 -8 6.4 1.05
-3 3 -8 4.42 0.89
0 3 -8 4.68 0.89
-3 3 -8 3.8 0.78
3 0 -8 7.01 0.99
0 -3 -8 0.68 1.16
-3 3 8 3.98 1.16
-4 2 8 19.68 2.28
-2 4 -8 20.06 1.86
4 -2 -8 15.24 2.48
-2 4 -8 19.21 1.78
-4 2 -8 18.32 1.9
4 -2 -8 21.93 1.86
-2 -2 8 21.41 2.31
2 2 -8 18.55 1.8
-1 4 -8 17.49 1.78
-1 4 -8 20.52 1.88
4 -3 -8 19.03 1.87
-4 1 8 20.08 2.31
-1 -3 8 20.28 2.18
3 1 -8 21.29 1.91
-3 4 8 20.85 2.26
-4 3 -8 17.1 1.79
-3 -1 8 12.38 1.96
-3 4 -8 12.36 1.42
1 3 -8 9.76 1.36
-4 3 8 9.7 1.78
1 -4 8 12.85 2.01
-3 4 -8 9.61 1.37
4 -1 -8 11.95 1.42
-4 4 -8 5.85 1
-4 4 8 7.08 1.31
-4 0 8 8.6 1.59
0 -4 8 9.37 1.65
-4 4 8 3.48 1.1
4 0 -8 7.32 1.06
0 4 -8 5.75 0.99
-2 -3 8 9.08 1.58
-2 5 -8 7.87 1.3
-5 3 -8 7.67 1.38
-3 5 8 9.27 1.49
5 -3 -8 10.19 1.32
-2 5 -8 6.35 1.09
3 2 -8 9.21 1.43
-5 2 8 7.5 1.53
2 -5 8 11.65 1.72
-5 3 8 10.59 1.74
-3 5 -8 8.47 1.32
2 3 -8 8.24 1.17
5 -2 -8 9.25 1.23
-5 2 -8 9.21 1.45
-3 5 -8 7.52 1.21
-2 5 8 6.83 1.31
-3 -2 8 13.13 1.86
-5 3 8 9.61 1.51
5 -4 -8 15.75 1.7
-1 -4 8 13.21 2.1
-4 5 8 14.38 2.05
-5 4 -8 13.64 1.54
-1 5 -8 12.33 1.54
-5 1 8 12.82 2.13
-1 5 -8 15.32 1.61
4 1 -8 13.9 1.65
1 -5 8 16.31 2.2
5 -1 -8 16.38 1.76
-5 4 8 12.42 1.95
-5 1 -8 15.4 1.7
1 4 -8 14.41 1.62
-4 5 -8 15.83 1.64
-4 -1 8 16.7 2.16
-5 4 8 15.55 2
-5 0 -8 21.57 2.17
0 -5 8 25.86 2.52
-5 0 8 25.83 2.57
-5 5 8 28.22 2.7
-5 5 -8 24.46 2.21
0 5 -8 24.67 2.19
0 5 -8 28.6 2.28
5 0 -8 26.73 2.21
-3 6 8 34.85 3.05
-6 3 -8 34.19 2.79
-6 3 8 31.09 3.04
-3 6 -8 31.65 2.7
-6 3 8 36.94 3.34
3 3 -8 36.79 2.85
6 -3 -8 38.75 2.85
-3 6 -8 36.77 2.88
-3 -3 8 36.54 3.1
-4 6 8 42.03 3.52
4 2 -8 42.13 3.27
-6 4 -8 39.9 3.24
-2 -4 8 41.96 3.62
6 -4 -8 46.06 3.32
-2 6 -8 43.01 3.27
-6 2 8 43.7 3.76
-2 6 -8 42.49 3.2
-6 4 8 41.18 3.34
2 4 -8 37.54 2.9
-2 6 8 34.92 3.18
-6 4 8 30.1 3.18
6 -2 -8 38.02 2.98
-4 6 -8 40.07 2.99
-6 2 -8 36.64 2.96
-4 -2 8 36.15 3.18
-6 1 8 6.7 1.6
6 -5 -8 6.55 1.19
-6 5 -8 6.17 1.09
-1 6 -8 5.24 1.05
-1 -5 8 6.42 1.44
5 1 -8 5.5 1.02
-5 6 8 5.84 1.29
-1 6 -8 4.7 0.99
1 5 -8 4.28 1.05
1 5 -8 3.87 0.93
-6 5 8 1.99 1.14
-6 5 8 4.37 1.24
1 -6 8 3.75 1.31
-5 6 -8 4.28 0.94
6 -1 -8 3.07 0.91
-5 -1 8 5.06 1.52
0 6 -8 0.05 0.76
-6 0 8 0.57 1.28
-6 6 -8 0.96 0.77
0 6 -8 0.76 0.78
6 0 -8 0.48 0.85
0 -6 8 -0.11 1.05
-6 6 8 1.22 1.09
-3 7 -8 7.42 1.18
-3 7 -8 4.99 1.05
-7 4 -8 5.59 1.09
7 -4 -8 6.22 1.14
-4 7 8 6.38 1.41
-3 -4 8 6.33 1.49
-7 3 8 5.61 1.28
4 3 -8 8.14 1.16
-7 3 8 4.54 1.61
-4 7 -8 6.96 1.12
-4 -3 8 7.83 1.56
-7 4 8 6.81 1.44
-7 4 8 6.15 1.58
3 4 -8 7.84 1.14
7 -3 -8 6.01 1.1
-7 3 -8 4.33 1.07
-3 7 8 6.3 1.38
5 2 -8 18.85 1.96
-2 7 -8 14.96 1.81
-7 5 -8 17.75 1.89
-2 7 -8 19.42 1.99
7 -5 -8 19.44 1.96
-2 -5 8 17.57 2.31
-5 7 8 19.85 2.39
-7 2 8 17.4 2.55
-7 5 8 16.49 2.35
2 5 -8 22.27 2.06
-2 7 8 18.19 2.24
-7 2 -8 17.72 1.97
7 -2 -8 22.66 2.09
-5 7 -8 20.84 1.95
-5 -2 8 20.11 2.43
2 5 -8 18.49 2.02
-7 5 8 21.34 2.44
-7 6 -8 10.82 1.57
-6 -1 -8 7.85 1.76
-6 7 8 11.29 2.12
-1 7 -8 12.26 1.72
6 1 -8 11.79 1.69
-1 7 -8 12.15 1.71
-1 -6 8 14.24 2.01
-7 1 8 16.19 2.26
1 6 -8 13.41 1.7
7 -1 -8 12.05 1.62
-7 1 -8 13.08 2.27
-6 7 -8 13.73 1.67
1 6 -8 13.6 1.76
1 -7 8 12.78 2.1
-6 -1 8 13.07 2.02
-7 6 8 13.54 2
0 7 -8 4.21 1.07
0 7 -8 4.7 1.14
7 0 -8 5.35 1.12
-7 7 -8 4.59 1.1
-7 7 8 4.99 1.34
-7 0 8 4.91 1.49
-7 0 -8 3.06 1.47
0 -7 8 4.61 1.5
-8 4 8 45.35 4.06
-4 -4 8 44.44 3.8
8 -4 -8 46.98 3.52
-4 8 8 45.58 3.85
-8 4 8 40.97 3.66
-8 4 -8 40.52 3.45
4 4 -8 44.3 3.38
-4 8 -8 45.48 3.44
-3 8 -8 13.23 1.73
-3 8 -8 13.57 1.81
8 -5 -8 13.97 1.92
-8 5 -8 13.34 1.86
-3 -5 8 13.19 2.18
-5 8 8 14.83 2.32
-8 3 8 15.66 2.59
5 3 -8 14.77 1.67
-5 -3 8 11.48 2.09
-8 3 -8 11.88 2.21
8 -3 -8 12.56 1.77
3 5 -8 11.95 1.55
3 5 -8 7.86 1.41
-5 8 -8 12.42 1.72
-8 5 8 11.61 2.05
-3 8 8 10.21 1.76
-8 5 8 11.9 2.08
-2 8 -8 5.73 1.1
-2 8 -8 4.87 1.14
8 -6 -8 6.25 1.3
-6 8 8 5.58 1.4
-8 6 -8 5.31 1.12
-2 -6 8 7.89 1.74
-8 2 8 9.71 2.04
6 2 -8 6.53 1.14
2 6 -8 2.97 0.95
2 6 -8 5.48 1.08
-8 6 8 4.97 1.31
-6 8 -8 5.04 1.08
-8 6 8 3.66 1.5
8 -2 -8 4.91 1.11
-2 8 8 3.62 1.14
-8 2 -8 3.45 1.42
-6 -2 8 6.42 1.51
-8 1 8 4.72 1.7
-8 7 -8 2.88 1.02
7 1 -8 4.47 1.03
-7 -1 -8 3.75 1.46
-7 8 8 4.4 1.43
-1 8 -8 3.26 1.09
-1 -7 8 3.93 1.48
-1 8 -8 3.74 1.06
1 -8 8 2.72 1.39
1 7 -8 4.1 1.06
1 7 -8 3.35 1.01
-7 -1 8 4.17 1.45
8 -1 -8 3.5 1.08
-8 7 8 4.88 1.43
-8 1 -8 3.73 1.55
-7 8 -8 4.19 1.11
0 -8 8 2.11 1.46
0 8 -8 1.32 1
-8 0 -8 1.37 1.44
8 0 -8 1.57 1.03
0 8 -8 1.28 0.92
-8 8 -8 1.89 0.96
-8 8 8 2.33 1.23
-8 0 8 2.69 1.58
-9 5 -8 14.39 1.97
-4 -5 8 16.11 2.33
5 4 -8 17.43 1.93
-4 9 -8 11.79 1.75
-5 9 8 17.43 2.34
-4 9 -8 15.94 1.88
-9 5 -8 17.34 2.49
9 -5 -8 16.04 1.96
-9 4 8 16.62 2.53
-9 4 8 14.24 2.25
9 -4 -8 16.01 1.97
-5 -4 8 17.43 2.39
4 5 -8 17.55 1.99
-4 9 8 14.96 2.17
-9 4 -8 15.53 2.44
-5 9 -8 17.35 2.04
-9 5 8 15.53 2.61
-9 5 8 15.87 2.33
-9 6 -8 6.89 1.68
-3 9 -8 4.72 1.1
-6 9 8 6.25 1.57
6 3 -8 7.08 1.26
9 -6 -8 5.29 1.17
-9 3 8 6.7 1.95
-3 9 -8 4.78 1.13
-9 6 -8 3.58 1.1
-3 -6 8 7.33 1.77
9 -3 -8 5.34 1.14
-3 9 8 5.24 1.33
-9 6 8 6.26 1.7
-9 3 -8 6.34 1.53
-9 6 8 8.43 1.63
-6 9 -8 7.8 1.27
3 6 -8 9.66 1.33
7 2 -8 9.66 1.42
-2 9 -8 7.95 1.43
-9 2 8 11.19 2.16
-7 9 8 8.92 1.7
-9 7 -8 8.36 1.47
-2 -7 8 11.02 1.92
9 -7 -8 7.6 1.41
-2 9 -8 7.76 1.35
-9 7 8 9.05 1.65
-7 9 -8 8.61 1.58
-9 2 -8 7.24 1.63
9 -2 -8 7.79 1.35
-7 -2 8 12.64 2.09
-9 1 8 20.06 2.82
-1 9 -8 14.25 2.09
-1 9 -8 17.61 2.03
-1 -8 8 19.27 2.52
-8 9 8 20.7 2.75
8 1 -8 21.45 2.08
-9 8 -8 19.14 2.33
-8 9 -8 17.6 2.2
-9 8 8 17.42 2.42
-8 -1 8 19.63 2.67
9 -1 -8 16.28 2.07
-9 1 -8 16.68 2.45
1 8 -8 17.41 2.02
-9 0 8 15.15 2.41
9 0 -8 10.08 1.65
0 -9 8 8.78 1.79
0 9 -8 10.32 1.53
-9 9 -8 11.06 1.72
-9 9 8 13.43 2.16
-9 0 -8 10.24 1.93
-10 5 8 22.74 2.76
-5 10 -8 24.88 2.39
-10 5 -8 22.32 2.64
-10 5 8 22.66 3.08
10 -5 -8 20.23 2.31
5 5 -8 24.6 2.3
-5 10 8 24.03 2.96
-5 -5 8 24.95 2.81
6 4 -8 10.23 1.59
-4 10 -8 5.63 1.19
-4 10 -8 7.52 1.33
10 -6 -8 5.74 1.23
-10 6 -8 5.76 1.43
-6 10 8 8.53 1.81
-10 6 -8 10.6 1.93
-10 4 8 6.56 1.51
-4 -6 8 9.41 1.91
-10 4 8 10.82 2.25
4 6 -8 13.54 1.65
10 -4 -8 8.17 1.4
-10 6 8 8.07 1.94
-6 -4 8 13.64 2.13
-10 6 8 9.38 1.72
-10 4 -8 9.46 1.74
-4 10 8 6.07 1.52
-6 10 -8 11.81 1.66
-10 7 -8 0.99 1.19
10 -7 -8 3.23 1.14
-3 10 -8 1.51 1.1
7 3 -8 1.88 0.98
-3 -7 8 1.47 1.44
-3 10 -8 1.76 1.1
-7 10 8 1.21 1.48
-10 3 8 2.04 1.79
-10 7 -8 2.33 1.4
3 7 -8 1.61 1.06
10 -3 -8 0.96 0.95
-3 10 8 0.84 1.13
-10 7 8 1.01 1.27
-7 10 -8 1.74 1.01
-7 -3 8 1.6 1.34
-10 7 8 0.95 1.52
-10 3 -8 0.39 1.42
-2 10 -8 6.13 1.37
-10 2 8 9.56 2.19
-8 10 8 7.91 1.8
-2 10 -8 7.91 1.41
-2 -8 8 7.06 1.69
8 2 -8 8.85 1.42
10 -8 -8 6.92 1.35
-10 8 -8 10.77 2.07
-10 8 -8 4.62 1.33
-10 8 8 10.68 1.94
-8 -2 8 9.14 1.95
2 8 -8 10.71 1.57
10 -2 -8 6.46 1.3
-8 10 -8 9.06 1.59
-10 2 -8 8.84 1.92
-1 -9 8 10.17 1.87
9 1 -8 6.99 1.42
-10 9 -8 8.53 1.67
10 -9 -8 11.84 1.87
-9 10 8 13 2.19
-10 9 -8 10.3 1.97
-10 1 8 14.27 2.45
-1 10 -8 9.44 1.49
-10 1 -8 6.52 1.73
10 -1 -8 7.44 1.41
-10 9 8 10.73 1.93
-9 10 -8 9.35 1.63
1 9 -8 8.82 1.41
-10 0 8 9.02 1.35
-10 10 8 6.64 1.15
10 -10 8 8.56 1.14
10 -10 -8 9.62 1.18
-6 11 8 0.46 1.42
-5 11 -8 -1.97 0.88
-5 11 -8 0.88 1.05
-11 5 8 0.77 1.84
11 -6 -8 0.39 0.95
-11 6 -8 0.86 1.39
-5 -6 8 2.28 1.6
-11 5 8 0.34 1.21
-11 6 -8 -0.82 1.02
6 5 -8 1.66 1.01
-6 -5 8 0.84 1.54
-11 6 8 1.55 1.67
-11 5 -8 1.74 1.27
11 -5 -8 0.17 0.92
-6 11 -8 0.64 1.01
-11 6 8 0.39 1.27
5 6 -8 0.81 1.02
-5 11 8 0.66 1.29
7 4 -8 8.62 1.44
11 -7 -8 8.08 1.43
-4 -7 8 10.59 1.95
-11 4 8 10.82 2.26
-11 7 -8 11.04 1.91
-7 11 8 10.27 2.1
-4 11 -8 6.71 1.44
-4 11 -8 9.95 1.67
-11 7 8 8.67 2.07
-11 7 8 9.56 1.83
4 7 -8 11.2 1.59
-7 11 -8 11.35 2.07
-11 4 -8 10.28 1.87
-4 11 8 9.24 1.77
-7 -4 8 10.58 1.95
-3 11 -8 1.77 1.18
11 -8 -8 0.32 0.6
11 -8 -8 3.47 1.12
-11 8 -8 3.06 1.44
-8 11 8 4.43 1.74
-11 3 8 4.47 2.01
8 -11 8 0.19 0.6
-3 -8 8 5.26 1.73
-11 8 -8 1.66 1.23
-3 11 -8 1.57 1.14
8 3 -8 3.64 1.24
-11 8 8 2.97 1.53
11 -3 -8 1.6 1.02
-11 3 -8 3.31 1.47
3 8 -8 3.8 1.23
-8 -3 8 2.6 1.48
-8 11 -8 3.18 1.25
9 2 -8 8.72 1.57
11 -9 -8 9.87 1.49
-11 2 8 12.81 2.2
11 -9 -8 9.97 1.37
-11 9 -8 5.73 1.56
-11 9 -8 16.1 2.37
-2 11 -8 10.82 1.64
-2 11 -8 7.71 1.59
-9 11 8 11.48 2.04
9 -11 8 8.63 1.28
-2 -9 8 12.98 2.24
-9 11 -8 7.89 1.34
11 -9 8 8.53 1.19
-11 9 8 14.39 2.57
2 9 -8 13.78 2.02
11 -2 -8 6.28 1.33
-9 11 -8 12.44 2.15
-11 2 -8 9.94 1.84
10 1 -8 16.03 2.23
-11 10 -8 25.23 2.98
-10 11 8 24.62 3.06
-11 1 8 21.91 2.14
-11 1 8 24.11 2.89
11 -10 -8 21.25 1.91
-1 11 -8 21.18 2.51
-10 11 8 17.64 2.17
-11 10 -8 14.43 2.54
11 -10 -8 19.2 2.21
1 10 8 17.81 1.79
10 -11 8 18.69 1.85
-10 -1 8 18.11 2.8
-11 10 8 19.41 2.62
-10 -1 8 16.71 1.87
-11 10 8 14.64 2
11 -10 8 15.03 1.59
-11 1 -8 17.91 2.54
-10 11 -8 12.78 2.35
1 10 -8 18.64 2.19
-1 11 8 17.12 1.73
-10 11 -8 14.37 1.79
-10 11 -8 20.76 2.89
11 -1 -8 12.21 1.98
-11 11 -8 -0.19 1.19
-11 11 8 -0.81 1.26
11 0 -8 -1.38 0.96
0 11 -8 0.55 1.3
-11 0 -8 -0.01 1.19
0 11 8 0.34 0.86
11 -11 8 0.08 0.66
0 -11 8 0.05 0.78
11 -11 -8 0.55 0.88
-11 11 -8 0.32 1.57
11 0 8 -0.44 0.64
-11 0 8 -0.55 0.92
-11 11 8 -0.34 1.07
-11 11 -8 0.82 0.86
-11 0 8 -0.36 1.67
6 6 -8 1.77 1.11
6 -12 8 1.24 0.86
12 -6 -8 0.29 1.15
-12 6 8 0.49 1.68
-6 -6 8 0.91 1.66
-12 6 -8 1.47 1.48
12 -6 -8 0.68 0.85
-6 12 -8 0.23 1.11
-6 12 8 2.22 1.6
6 6 8 0.9 0.83
12 -6 8 1.05 0.77
-12 6 8 1.29 1.42
5 7 8 8.06 1.14
-7 12 8 12.63 2.34
-12 5 8 14.67 2.61
-12 5 8 8.52 1.71
12 -7 -8 12.79 1.57
-5 -7 8 13.53 2.26
7 5 -8 10.69 1.63
7 -12 8 10.73 1.54
12 -5 8 8.06 1.17
-5 12 -8 8.85 1.7
-5 12 8 8.53 1.86
-12 5 -8 10.61 1.89
-7 -5 8 14.33 2.33
7 5 8 8.06 1.08
-7 12 -8 7.96 1.56
12 -7 8 9.53 1.37
12 -5 -8 5.86 1.05
-7 12 -8 7.45 1.16
-12 7 8 9.1 1.86
5 7 -8 10.76 1.58
-12 7 8 7.02 1.96
5 -12 8 9.66 1.21
8 -12 8 5.24 0.97
-8 12 8 7.86 2.06
-12 8 -8 4.03 1.44
8 4 -8 6.71 1.36
4 8 8 3.99 0.81
-4 12 -8 3.21 1.26
-4 -8 8 7.2 1.91
-12 4 8 10.46 2.33
-4 12 -8 5.58 1.41
12 -4 8 4.07 0.91
4 -12 8 4.68 0.95
-8 12 -8 4.5 1.02
8 4 8 5.62 0.98
4 8 -8 7.7 1.41
-12 8 8 6.24 1.66
-8 -4 8 8.38 2
-12 4 -8 6.81 1.79
12 -4 -8 2.7 0.8
12 -8 8 4.7 0.94
-8 12 -8 6.81 1.59
-12 3 8 -0.25 1
12 -9 -8 0.94 0.86
-3 -9 8 0.11 1.46
3 9 8 -0.08 0.64
-3 12 -8 0.19 1.18
12 -9 -8 0.53 0.85
-12 9 -8 0.59 1.44
-12 9 -8 -0.53 1.19
-9 12 8 -0.85 0.98
9 -12 8 1.38 0.85
-9 12 8 0.6 1.57
12 -3 8 1.74 0.91
-3 12 -8 -1.18 1.07
-12 3 8 0.16 1.6
3 9 8 0.09 0.53
9 3 -8 -0.08 1.08
-9 -3 8 -0.51 0.8
9 3 8 -0.21 0.81
-9 -3 8 1.28 1.63
-9 12 -8 0.34 0.94
-12 9 8 -0.13 1.39
-9 12 -8 -0.21 1.05
-12 3 -8 0.18 1.4
12 -9 8 0.78 0.76
-9 12 -8 -0.17 1.48
3 -12 8 0.43 0.83
-12 9 8 -0.59 0.83
3 9 -8 0.08 1.12
12 -3 -8 -0.25 0.71
-12 2 8 5.09 1.24
-12 2 8 4.87 1.93
-12 10 -8 2.34 1.38
2 10 8 5 1
-12 10 -8 5.83 1.85
10 2 -8 1.34 1.11
12 -10 -8 0.34 0.86
-10 12 8 6.17 1.9
-2 12 -8 3.68 1.37
-10 12 8 2.51 1.15
-10 -2 8 5.23 1.16
12 -10 8 3.48 0.86
12 -2 -8 2.77 0.8
-10 12 -8 4.95 1.78
-12 2 -8 5.81 1.77
10 2 8 4.91 1.05
-10 12 -8 4.71 1.1
-10 -2 8 4.93 1.8
2 10 -8 7.52 1.57
-12 10 8 3.87 1.51
-12 10 8 4.68 1.28
2 -12 8 5.29 1.04
-10 12 -8 3.28 1.42
12 -1 8 7.45 1.13
12 -11 -8 6.96 1.09
11 -12 8 4.6 0.92
-1 12 -8 5.3 1.58
1 11 8 4.24 1.01
-12 11 -8 6.22 1.8
-12 11 -8 3.3 1.47
-11 12 8 4.54 1.25
-1 -11 8 5.01 1.07
-12 1 8 7.87 1.38
-11 12 8 8.58 2.02
-12 11 -8 6.15 1.15
-12 1 8 6.15 1.95
-11 12 -8 4.07 1.5
12 -11 8 8.27 1.08
11 1 8 6.78 1.2
-11 -1 8 7.04 1.28
1 11 -8 7.34 1.65
11 -12 -8 6.95 1.14
1 -12 8 7.56 1.22
-12 11 8 8.3 1.44
-1 12 8 10.66 1.31
-12 11 8 7.01 1.83
-11 12 -8 6.39 1.24
-11 12 -8 8.03 1.93
-11 -1 8 6.39 1.93
-12 1 -8 5.58 1.69
12 -1 -8 6.57 1.02
-12 12 -8 0.18 1.62
12 0 8 0.92 0.99
12 0 8 0.14 0.93
-12 0 8 -0.47 1.77
0 12 -8 -0.22 1.29
-12 12 -8 -0.49 1.26
-12 12 8 -0.02 1.32
12 -12 8 0.28 0.73
0 12 8 -0.03 0.87
-12 12 -8 -0.08 0.92
-12 0 8 -0.27 0.98
-12 12 8 -0.65 1.07
12 0 -8 -0.23 0.75
12 -12 -8 0.49 0.91
0 -12 8 0.33 0.95
6 7 8 1 0.9
13 -7 -8 2.64 1
-13 7 -8 2.74 1.65
-6 13 -8 1.16 0.77
-13 6 8 1.72 1.36
7 -13 8 1.16 0.92
-13 6 8 2.91 1.86
-6 13 -8 0.04 1.21
13 -6 8 2.21 0.96
-7 13 8 1.98 1.66
7 6 -8 2.15 1.24
-6 -7 8 2.4 1.76
-7 13 -8 1.62 0.96
-7 -6 8 1.34 1.74
7 6 8 0.07 0.6
-13 7 8 1.16 1.64
7 6 8 0.55 0.92
13 -7 8 1.08 0.87
-13 7 8 -1.04 1.33
-7 13 -8 -0.18 1.23
6 -13 8 1.33 0.96
13 -6 -8 0.43 0.91
-6 13 8 0.71 1.57
-13 6 -8 0.86 1.39
6 7 -8 0.05 1.12
-5 13 -8 -1.4 0.98
-8 13 8 1.31 1.67
8 5 -8 2.63 1.2
-13 8 -8 5.3 1.82
-13 5 8 0.9 0.88
13 -8 -8 3.93 1.02
-5 13 -8 1.62 1.32
-8 13 8 -0.54 0.87
-13 8 -8 1.6 1.5
-5 -8 8 2.33 1.74
5 8 8 3.33 0.95
-13 5 8 3.57 1.95
13 -5 8 3.89 1
8 -13 8 3.81 0.95
5 8 8 1.78 0.69
13 -8 8 3.47 0.94
-13 5 -8 1.39 1.45
5 -13 8 3.24 0.97
5 8 -8 2.95 1.27
-8 13 -8 1.29 1.26
-8 -5 8 1.7 1.66
-8 13 -8 2.57 1.06
8 5 8 2.73 0.95
8 5 8 1.51 0.74
13 -5 -8 3.04 0.95
-13 8 8 0.08 1.46
-13 8 8 2.75 1.55
-13 9 -8 8.42 1.77
13 -4 8 14.3 1.79
-13 4 8 8.96 1.47
-9 13 8 13.77 1.8
-13 9 -8 16.53 2.61
-4 13 -8 7.82 1.68
9 -13 8 11.89 1.67
4 9 8 12.7 1.63
-9 13 8 15.05 2.72
13 -9 -8 13.39 1.73
-13 4 8 16.44 2.94
4 9 8 12.54 1.61
9 4 -8 10.05 1.63
-13 9 8 10.77 1.67
-13 9 8 9.56 1.92
-9 -4 8 10.28 2.09
-13 4 -8 14.15 2.21
13 -4 -8 11.51 1.62
-9 13 -8 7.85 1.73
9 4 8 11.64 1.61
-9 13 -8 9.44 1.4
4 9 -8 14.65 1.92
9 4 8 11.14 1.62
13 -9 8 13.81 1.64
-9 -4 8 13.48 1.7
4 -13 8 9.17 1.29
13 -10 -8 13.86 1.85
10 -13 8 15.01 1.72
-10 13 8 17.8 3.08
3 10 8 14.77 1.65
-13 3 8 13.49 2.03
13 -3 8 16.62 1.87
3 10 8 14.62 1.77
-13 3 8 18.57 3.01
-3 13 -8 13.08 2.02
-13 10 -8 18.1 2.72
-10 -3 8 14.93 2.43
13 -10 8 11.15 1.29
10 3 8 10.56 1.34
-13 10 8 8.87 1.93
-10 -3 8 7.25 1.27
-10 13 -8 5.81 1.67
3 10 -8 12.61 1.87
-10 13 -8 9.99 1.43
3 -13 8 9.85 1.28
-13 10 8 8.48 1.42
13 -3 -8 9.8 1.28
-13 3 -8 12.27 2.09
-10 13 -8 6.14 1.55
10 3 8 12.22 1.76
-2 -11 8 6.59 1.2
-13 2 8 6.82 1.32
13 -2 8 4.84 1.02
-11 13 8 5.86 1.85
13 -2 8 5.04 1.06
11 -13 8 6.12 1.04
-13 11 -8 2.73 1.41
-11 13 8 3.78 1.23
-2 13 -8 5.15 1.61
13 -11 -8 4.79 1.02
-13 2 8 5.29 1.93
-13 11 -8 6.17 1.84
-13 11 -8 4.22 1.09
2 11 8 7.06 1.16
-11 13 -8 3.33 1.51
-13 2 -8 6.62 1.83
13 -2 -8 6.86 1.16
-13 11 8 8.03 1.46
11 2 8 6.66 1.25
-11 13 -8 4.7 1.4
11 -13 -8 9 1.22
-11 13 -8 6.52 1.28
-11 -2 8 7.8 2.07
2 -13 8 9.19 1.28
-11 -2 8 5.73 1.21
2 11 -8 6.64 1.61
13 -11 8 8.64 1.14
11 2 8 7.31 1.24
-13 11 8 4.57 1.69
12 1 -8 7.08 1.09
-1 -12 8 5.45 1.15
13 -1 8 7.42 1.23
1 12 8 9.86 1.27
-12 13 8 8.49 1.41
13 -12 -8 8.37 1.16
12 -13 8 5.99 1
13 -1 8 4.02 1.1
-1 13 -8 6.36 1.58
-13 1 8 6.59 1.28
-13 1 8 11.69 2.43
-13 12 -8 7.76 1.77
-13 12 -8 9.69 2.1
-13 12 -8 9.16 1.39
-12 13 8 8.29 2.02
1 -13 8 6.68 1.21
-12 13 -8 3.42 1.58
-13 12 8 3.89 1.63
12 -13 -8 5.31 1.06
-12 13 -8 3.54 1.13
-1 13 8 7.74 1.21
13 -12 8 6.03 1
-12 -1 8 6.28 2.12
-13 12 8 7.28 1.44
-12 13 -8 4.42 1.53
12 1 8 5.99 1.26
1 12 -8 5.61 1.69
13 -1 -8 6.11 1.1
-12 -1 8 5.13 1.21
12 1 8 6.2 1.19
13 0 -8 12.22 1.41
-13 13 -8 8.12 1.93
0 -13 8 13.12 1.49
-13 13 8 8.2 1.44
0 13 -8 5.83 1.74
13 0 8 10.75 1.56
13 0 8 10.04 1.38
-13 13 -8 9.3 1.41
-13 13 -8 9.26 1.87
0 13 8 14.27 1.49
-13 0 8 10.26 2.31
-13 0 8 10.42 1.49
13 -13 8 10.74 1.28
-13 13 8 10.89 2.14
13 -13 -8 11.19 1.36
-14 7 8 1.06 1.64
-7 14 -8 0.2 1.31
-14 7 8 -0.04 1.21
-7 14 8 0.31 1.56
7 7 8 0.26 0.72
-7 14 -8 0.08 0.92
7 7 8 -0.32 0.9
-14 7 -8 0.8 1.46
14 -7 8 0.38 0.9
-7 -7 8 0.01 1.61
7 -14 8 0.4 0.93
14 -7 -8 0.29 0.91
-14 7 8 -0.4 0.9
7 7 -8 -0.52 1.24
14 -8 -8 3.48 1.02
-6 -8 8 -0.05 1.5
-6 14 -8 2.9 0.89
6 8 8 2.79 0.96
14 -6 8 2.13 0.92
-6 14 -8 1.57 1.32
-14 6 8 3.46 1.89
6 8 8 2.46 0.97
8 -14 8 1.93 0.96
-14 8 -8 2.57 1.5
-8 14 8 0 0.96
8 6 -8 0.57 1.16
-8 14 8 0.97 1.62
14 -6 8 0.13 0.79
-14 6 8 1.52 1.02
14 -8 8 1.18 0.95
6 8 -8 0.34 1.24
-8 -6 8 3.12 1.73
-14 8 8 0.2 1.57
8 6 8 1.64 0.94
-8 -6 8 0.21 0.67
-14 6 -8 0.82 1.34
8 6 8 0.86 0.94
6 -14 8 1.94 0.99
14 -6 -8 0.85 0.89
-8 14 -8 0.6 0.95
-8 14 -8 -0.1 1.29
-14 8 8 0.28 1.32
9 -14 8 16.05 1.93
14 -9 -8 16.84 1.78
14 -5 8 17.78 1.97
-14 5 8 14.67 2.13
5 9 8 14.84 1.83
-9 14 8 13.2 2.34
-14 9 -8 16.28 2.65
5 9 8 15.94 1.88
-9 14 8 18.77 3.26
-14 5 8 18.56 3.01
-14 5 -8 14.2 2.44
14 -9 8 14.7 1.76
14 -5 -8 16.24 1.82
9 5 8 14.56 1.77
-14 9 8 16.16 2.71
-9 -5 8 15.64 2.74
9 5 8 12.18 1.47
5 -14 8 14.87 1.88
5 9 -8 15.92 2.42
-9 14 -8 11.9 1.88
-9 -5 8 14.11 1.75
-9 14 -8 12.54 2.1
-14 9 8 14.6 1.77
4 10 8 2.49 0.93
14 -4 8 3.65 1.03
-4 14 -8 1.5 1.23
-4 -10 8 1.93 0.97
-14 10 -8 2.58 1.75
14 -4 8 1.52 0.88
-14 10 -8 0.19 1.1
-14 4 8 3.29 1.97
14 -10 -8 3.4 0.93
-10 14 8 2.64 1.32
-4 14 -8 2.32 1.6
-14 4 8 1.98 1.16
-10 14 8 3.38 1.69
4 10 8 3.36 0.89
10 -14 8 3.6 0.9
10 4 8 4.45 1.14
14 -10 8 2.73 0.93
4 10 -8 2.26 1.48
4 -14 8 3.7 1.02
-10 14 -8 1.48 1.27
-10 14 -8 3.38 1.09
10 4 8 2.13 1
14 -4 -8 1.97 0.98
-14 10 8 2.36 1.48
-14 10 8 3.11 1.14
-10 -4 8 1.9 1.7
-14 4 -8 2.36 1.57
-10 -4 8 3.27 1.1
-14 11 -8 1.88 1.27
14 -3 8 4.34 1.09
11 -14 8 3.54 0.92
3 11 8 4.93 1.07
3 -14 -8 3.75 1.02
14 -3 8 4.25 1.02
-3 14 -8 0.95 1.28
-3 -11 8 4.46 1.13
-11 14 8 4.13 1.83
-11 14 8 3.38 1.22
3 11 8 2.11 0.81
-14 11 -8 4.09 1.84
-14 3 8 3.01 1.12
14 -11 -8 4.18 1.07
-14 3 8 6.01 2.12
-14 3 -8 8.08 1.93
-11 -3 8 8.04 1.32
-11 14 -8 9.81 1.4
-11 -3 8 8.39 2.17
14 -3 -8 7.5 1.24
11 3 8 9.22 1.33
-14 11 8 5.61 1.28
-14 11 8 8.15 1.97
-11 14 -8 6.93 1.64
11 -14 -8 9.06 1.28
14 -11 8 6.81 1.14
3 -14 8 10.1 1.32
11 3 8 8.54 1.31
3 11 -8 6.59 1.63
14 -12 -8 5.24 1.06
12 2 -8 3.06 0.87
-2 14 -8 1.97 1.38
2 12 8 5.39 1.06
-12 14 8 5.3 1.78
-14 2 8 6.69 1.31
-12 14 8 5.14 1.25
-14 12 -8 5.09 1.86
2 -14 -8 4.68 1.11
14 -2 8 4.8 1.13
-14 2 8 6.76 2.12
-14 12 -8 2.14 1.34
-14 12 -8 4.1 1.19
12 -14 8 5.83 1.02
-2 -12 8 5.31 1.17
14 -12 8 1.45 0.86
-14 12 8 1.22 1.05
12 2 8 1.23 1.11
14 -2 -8 1.96 0.98
-12 -2 8 1.14 1.74
-14 2 -8 -0.66 1.25
-12 14 -8 2.94 1.1
-14 12 8 2.44 1.53
-12 14 -8 0.89 1.27
-12 -2 8 1.6 1.04
12 -14 -8 1.16 0.94
2 -14 8 1.67 0.99
12 2 8 2.68 1.04
2 12 -8 0.44 1.27
1 13 8 7.05 1.15
-14 1 8 7.2 2.16
13 1 -8 4.76 1.03
-13 14 8 7.81 1.33
-14 13 -8 4.03 1.65
14 -13 -8 7.6 1.18
14 -1 8 7.3 1.27
-1 14 -8 4.38 1.66
14 -1 8 5.7 1.25
-1 -13 8 6.94 1.18
-13 14 8 5.37 1.73
13 -14 8 3.89 0.89
-14 1 8 5.91 1.25
-14 13 -8 6.81 1.22
-14 13 -8 5.52 1.65
-13 14 -8 7.67 1.23
-13 -1 8 6.16 1.23
-14 13 8 5 1.18
-13 -1 8 8.97 2.15
13 1 8 7.86 1.36
-14 13 8 7.51 1.96
-13 14 -8 7.08 1.66
1 13 -8 5.43 1.61
14 -1 -8 6.72 1.13
14 -13 8 5.64 1.03
13 1 8 8 1.23
14 -14 8 0.34 0.76
-14 0 8 0.12 0.95
14 0 -8 0.56 0.93
14 0 8 0.19 1.17
0 -14 8 0.82 0.96
14 0 8 0.95 1
14 -14 -8 0.44 0.88
-14 0 8 -0.33 1.63
-14 14 -8 -0.59 1.18
-14 14 8 0.17 1
0 14 8 -0.1 0.88
-14 14 8 -0.08 1.37
0 14 -8 -0.86 1.43
-14 14 -8 0.75 0.96
15 -7 8 5.15 1.03
15 -7 8 5.41 1.21
-15 8 -8 7.49 1.9
8 7 -8 3.69 1.44
7 8 8 6.84 1.12
-7 15 -8 3.38 1.49
15 -8 -8 5.51 1.02
8 -15 8 5.6 1.07
-15 7 8 5.56 1.16
7 8 8 6.15 1.18
-15 7 8 5.04 1.83
-7 15 -8 6.01 1.22
7 -15 8 7.7 1.19
15 -8 8 3.1 0.93
8 7 8 5.94 1.12
8 7 8 4.57 1.05
-8 -7 8 0.29 2.81
-8 15 -8 2.56 1.38
-8 15 -8 7.24 1.3
15 -7 -8 5.66 1.02
7 8 -8 3.65 1.52
-15 8 8 0.45 1.92
15 -8 8 4.56 0.99
-15 7 -8 6.12 1.64
-9 15 8 2.04 1.21
15 -9 -8 2.36 0.92
-6 15 -8 2.36 0.96
15 -6 8 2.68 1.08
6 9 8 2.51 0.98
9 6 -8 -0.95 1.18
9 -15 8 2.71 0.99
-15 6 8 3.18 1.13
6 -15 -8 0.25 0.76
-15 6 8 3.73 1.97
-6 15 -8 1.5 1.21
15 -6 8 3.52 1.01
-15 9 -8 3.03 1.73
-9 15 8 2.73 1.67
6 9 8 2.52 0.87
9 6 8 3.91 0.99
-9 15 -8 3.65 1.18
-15 9 8 1.49 0.89
-9 -6 8 1.94 0.99
9 6 8 4.14 1.01
-9 15 -8 2.89 1.34
9 6 8 2.42 0.79
15 -6 -8 4.36 1.01
-9 -6 8 2.52 1.55
6 9 -8 0.69 1.3
15 -9 8 3.08 0.93
15 -9 8 -0.13 0.97
-15 9 8 0.23 1.24
6 -15 8 3.9 1.08
-15 6 -8 3.98 1.6
15 -5 8 4.89 1.17
5 -15 -8 7.66 1.24
10 -15 8 9.59 1.26
-5 -10 8 5.49 1.19
-15 5 8 9.51 2.23
-15 5 8 8.96 1.42
5 10 8 8.49 1.2
-10 15 8 7.12 2.03
5 10 8 6.71 1.09
-15 10 -8 6.88 1.85
15 -5 8 9.76 1.28
15 -10 -8 9.53 1.24
-10 15 8 7.68 1.56
10 5 8 4.88 1.05
-15 10 8 4.14 1.6
-10 15 -8 6.54 1.27
-15 10 8 4.43 1.18
15 -10 8 4.9 1.01
15 -5 -8 4.61 1.02
-10 15 -8 3.06 1.34
5 10 -8 3.27 1.41
-10 -5 8 4.08 1.84
5 -15 8 6.84 1.16
-10 -5 8 4.52 1.09
10 5 8 4.47 1.04
-15 5 -8 3.18 1.56
-15 4 8 9.37 2.29
15 -4 8 7.55 1.24
15 -11 -8 9.46 1.19
-11 15 8 5.83 1.85
4 11 8 6.89 1.14
-4 -11 8 6.78 1.26
11 -15 8 7.28 1.1
4 11 8 4.64 0.96
4 -15 -8 6.96 1.22
-11 15 8 6.27 1.39
15 -4 8 4.63 1.08
-15 4 8 6.01 1.3
-15 11 -8 8.24 2.02
-15 11 8 8.15 1.88
15 -4 -8 11.51 1.38
15 -11 8 9.3 1.2
4 11 -8 8.22 1.78
-11 -4 8 9.03 2.2
4 -15 8 10.47 1.29
-11 15 -8 8.32 1.82
-11 -4 8 6.89 1.28
-15 11 8 7.08 1.35
-15 4 -8 8.36 1.89
11 4 8 11.5 1.39
11 4 8 8.76 1.27
-11 15 -8 11.29 1.41
-15 3 8 12.32 2.43
-3 -12 8 7.99 1.27
-3 15 -8 5.38 1.54
-15 12 -8 8.39 1.95
15 -12 -8 10.9 1.27
12 -15 8 9.13 1.17
-15 12 -8 8.88 1.28
12 3 -8 6.5 1
-12 15 8 6.59 1.8
15 -3 8 6.69 1.21
-12 15 8 11.67 1.51
3 12 8 7.62 1.06
3 -15 -8 7.1 1.2
-15 3 8 7.43 1.33
-12 -3 8 3.71 1.12
-15 12 8 6.35 1.27
-12 -3 8 5.58 2
12 3 8 6.34 1.24
12 3 8 8.02 1.28
3 -15 8 8.53 1.24
15 -12 8 5.89 1.03
12 -15 -8 8.15 1.26
15 -3 -8 7.02 1.19
-12 15 -8 5 1.55
-15 12 8 4.19 1.6
-12 15 -8 6.05 1.14
3 12 -8 3.41 1.55
13 2 -8 1.5 0.92
2 13 8 5.03 1.06
-15 2 8 3.37 1.11
15 -2 8 3.38 1.08
-15 13 -8 -0.04 1.36
13 -15 8 1.37 0.76
2 -15 -8 3.61 1.02
-2 15 -8 1.03 1.4
-15 2 8 4.2 1.95
-13 15 8 3.19 1.08
-2 -13 8 2.19 1
15 -13 -8 2.2 0.95
-15 13 -8 3.52 1.08
15 -2 8 3.22 1.09
-13 15 8 3.3 1.67
-15 13 8 7.09 1.28
2 13 -8 5.04 1.63
-15 2 -8 4.12 1
2 -15 8 8.71 1.26
13 -15 -8 7.08 1.17
-13 -2 8 4.31 1.94
15 -13 8 6.02 1.07
-13 15 -8 6.09 1.14
13 2 8 7.31 1.21
-13 15 -8 5.52 1.59
-13 -2 8 6.77 1.24
13 2 8 6.87 1.28
15 -2 -8 5.84 1.15
-15 13 8 4.42 1.6
-15 1 8 1.25 1.03
1 14 8 2.28 0.9
1 -15 -8 1.91 0.97
14 -15 8 1.21 0.82
-1 15 -8 0.13 1.27
15 -14 -8 2.5 0.96
15 -1 8 2.95 1.08
-15 14 -8 2.46 0.99
14 1 -8 1.08 0.9
-15 1 8 3.91 1.99
-1 -14 8 1.22 0.98
15 -1 8 2.46 1.16
-14 15 8 2.14 1.05
-15 14 -8 -0.34 0.98
-14 15 8 0.63 1.38
1 14 -8 -0.06 1.39
-15 14 8 2.32 0.99
14 -15 -8 2.64 0.98
-14 -1 8 3.31 1.84
15 -1 -8 2.07 0.94
-14 15 -8 2.71 0.97
14 1 8 1.85 1.11
-14 15 -8 0.95 1.24
14 1 8 2.5 0.99
-15 14 8 2.48 1.54
1 -15 8 2.95 0.98
15 -14 8 2.66 0.92
-14 -1 8 1.66 0.99
15 0 8 1.27 0.96
15 -15 -8 0.77 0.91
0 -15 8 -0.67 0.87
0 15 -8 0.67 1.18
-15 15 -8 1.4 0.87
-15 15 8 0.53 0.88
-15 15 8 0.13 1.26
-15 0 8 0.48 0.96
15 0 -8 0.32 0.89
-15 15 -8 -0.38 1.44
15 -15 8 0.08 0.82
-15 0 8 0.73 1.64
0 -15 -8 1.02 0.93
15 0 8 0.97 1.11
16 -8 8 4.73 1.23
16 -8 -8 4.69 1.01
8 8 8 2.46 0.96
-8 16 -8 0.81 1.26
-8 16 -8 4.58 1.16
-16 8 -8 4.14 1.64
8 -16 8 3.55 0.93
16 -8 8 4.86 1.03
8 8 8 4.52 1.1
-16 8 8 3.62 0.94
9 -16 8 11.98 1.43
16 -7 8 11.83 1.39
16 -7 8 13.57 1.91
7 -16 -8 12.45 1.78
7 9 8 13.24 1.75
-9 16 8 11.43 1.97
7 9 8 11.56 1.68
-7 16 -8 10.81 1.78
-16 7 8 11.58 1.84
-16 9 -8 10.61 2.03
16 -9 -8 14.49 1.64
9 7 8 14.71 1.9
16 -9 8 13.43 1.77
7 9 -8 12.06 2.02
-16 7 -8 17.41 2.59
-9 16 -8 17.44 2
7 -16 8 14.85 1.89
-9 16 -8 15.24 2.59
16 -7 -8 19.27 1.87
16 -9 8 15.91 2.03
9 7 8 13.96 1.91
6 10 8 4.37 0.94
16 -6 8 4.4 1.15
16 -6 8 4.3 1.03
6 10 8 3.92 1.03
-10 16 8 0.37 1.43
16 -10 -8 5.65 1.03
-16 6 8 4.09 1.18
-16 10 -8 3.87 1.72
10 -16 8 3.54 0.98
-16 6 8 4.87 1.84
-6 -10 8 2.38 0.99
-10 16 8 2.88 1.23
6 -16 -8 4.79 1.19
10 6 8 3.39 1.02
-10 16 -8 2.81 0.99
16 -10 8 3.13 1.2
-16 6 -8 3.32 1.56
6 10 -8 1.99 1.41
16 -10 8 2.2 0.87
10 6 8 2.43 1.02
-10 -6 8 2.13 1.02
6 -16 8 2.51 1
16 -6 -8 2.15 0.91
-10 16 -8 1.26 1.36
-16 10 8 3.91 1.15
16 -5 8 5.11 1.07
-16 5 8 5.28 1.98
5 -16 -8 5.03 1.18
-16 5 8 3.23 1.1
16 -5 8 4 1.11
16 -11 -8 4.95 0.99
5 11 8 2.83 0.85
11 -16 8 2.23 0.85
-11 16 8 3.64 1.66
5 11 8 3.26 0.99
-11 16 8 4.19 1.28
-5 -11 8 3.15 1.01
-16 11 -8 2.59 1.6
-11 16 -8 8.24 1.21
-16 5 -8 3.57 1.49
5 -16 8 9.22 1.25
16 -5 -8 9.26 1.23
16 -11 8 3.98 1.15
16 -11 8 6.43 1.11
5 11 -8 3.69 1.58
-16 11 8 5.94 1.25
11 5 8 5.62 1.08
11 5 8 9.45 1.29
-11 -5 8 7.42 1.27
-11 16 -8 5.51 1.57
-12 16 8 9.11 1.47
-16 12 -8 2.85 1.51
-12 16 8 4.25 1.57
-16 4 8 7.63 2.13
-16 4 8 6.49 1.23
16 -12 -8 7.75 1.14
4 12 8 5.31 0.97
-4 -12 8 7.49 1.2
16 -4 8 6.03 1.17
4 -16 -8 6.38 1.21
12 -16 8 4.29 0.94
4 12 8 8.29 1.15
-12 16 -8 5.16 1.5
-12 16 -8 9.67 1.27
4 12 -8 3.83 1.49
12 4 8 10.32 1.36
16 -4 -8 6.66 1.16
4 -16 8 7.43 1.19
-16 12 8 7.96 1.33
-16 4 -8 10.36 1.58
12 4 8 10.56 1.31
12 -16 -8 7.03 1.26
16 -12 8 7.17 1.13
-12 -4 8 4.89 1.15
-13 16 8 2.05 1.06
-13 16 8 0.77 1.38
16 -3 8 2.04 0.96
3 13 8 0.21 0.63
3 -16 -8 2.87 1
-16 13 -8 1.64 0.92
16 -13 -8 1.6 0.86
16 -3 8 -0.02 0.74
-16 3 8 1.39 0.97
3 13 8 2.09 0.9
-3 -13 8 1.69 0.96
-16 3 8 2.14 1.83
13 -16 8 1.35 0.76
13 3 -8 1 0.88
-13 16 -8 1.28 0.93
3 13 -8 -0.48 1.38
-13 -3 8 -0.49 0.9
-13 -3 8 0.21 1.94
-16 13 8 0.48 0.95
16 -3 -8 -0.09 0.9
3 -16 8 1.04 0.91
-16 3 -8 1.04 0.89
-16 13 8 0.46 1.15
13 -16 -8 1.32 0.98
13 3 8 1.04 0.91
13 3 8 1 1.01
-13 16 -8 0.01 1.18
16 -13 8 0.54 0.82
-14 16 8 2.28 0.95
14 2 -8 1.99 0.92
16 -2 8 2.6 1.08
-16 2 8 2.94 1.09
-16 2 8 1.71 1.7
2 14 8 3.34 0.9
14 -16 8 2.69 0.86
-2 -14 8 2.05 0.98
16 -14 -8 2.29 0.91
-16 14 -8 3.06 0.98
2 -16 -8 1.93 0.98
-14 16 8 1.92 1.37
16 -2 8 2.6 1.01
16 -2 -8 3.02 1
-14 16 -8 4.63 0.94
14 -16 -8 3.89 1
-16 14 8 4.72 1.07
14 2 8 4.81 1.08
14 2 8 5.22 1.22
2 14 -8 1.73 1.42
2 -16 8 4.86 1.01
-14 -2 8 4.64 1.13
16 -14 8 2.7 0.89
-16 2 -8 3.58 0.96
-15 16 8 0.82 0.83
-16 15 -8 0.77 0.86
1 -16 -8 0.06 0.85
16 -15 -8 0.38 0.82
-16 1 8 -0.15 0.99
15 -16 8 0.22 0.81
-16 1 8 0.41 1.9
-1 -15 8 0.29 0.88
16 -1 8 0.89 0.92
16 -1 8 -0.07 1.02
15 1 -8 -0.28 0.87
-15 16 8 0.09 1.3
-15 16 -8 1.27 0.86
15 1 8 0.63 1.06
16 -1 -8 0.14 0.88
15 -16 -8 0.69 0.92
1 15 -8 0.17 1.93
1 -16 8 0.48 0.87
-15 -1 8 -0.9 0.9
15 1 8 -0.06 0.87
16 -15 8 0.07 0.79
-16 15 8 0.12 0.82
16 0 -8 -0.87 0.86
-16 16 8 0.92 0.79
0 -16 8 0.19 0.86
-16 16 -8 0.37 0.83
16 0 8 0.87 1.07
-16 0 8 0.05 0.86
0 -16 -8 -0.92 0.8
16 0 8 -0.72 0.83
16 -16 -8 0.9 0.81
16 -16 8 -0.02 0.77
-17 8 8 3.66 0.97
-9 17 8 4.34 1.14
-8 17 -8 2.65 0.94
8 9 8 5.61 1.12
-17 9 -8 4.3 1.68
17 -8 8 4.9 1.19
8 9 8 5.6 1.01
8 -17 -8 4.85 1.15
17 -8 8 5.55 1.02
9 -17 8 4.64 1.03
17 -9 -8 7.51 1.06
8 -17 8 6.94 1.1
9 8 8 6.77 1.1
-17 8 -8 4.88 1.57
17 -9 8 5.77 1.32
9 8 8 4.87 1.08
-17 9 8 4.44 0.96
17 -9 8 5.49 1.02
-9 17 -8 4.76 1.02
9 -17 -8 4.85 1.05
10 -17 8 2.09 0.91
7 -17 -8 1.43 1.07
-17 7 8 2.21 0.94
17 -7 8 2.03 1.04
-10 17 8 0.77 1.06
-7 -10 8 0.35 0.89
-7 17 -8 1.25 0.83
17 -7 8 1.29 0.89
-17 10 -8 0.86 1.47
17 -10 -8 1.59 0.87
7 10 8 1.56 0.93
7 10 8 1.14 0.81
10 -17 -8 0.12 0.67
17 -10 8 1.22 0.83
10 7 8 1.21 0.93
10 7 8 0.77 0.98
-17 7 -8 1.11 1.34
7 -17 8 1.37 0.91
-10 17 -8 -0.52 1.02
-10 -7 8 0.11 0.6
17 -7 -8 2 0.87
-17 10 8 0.12 0.64
-10 17 -8 1.25 0.87
17 -10 8 -0.16 1.07
17 -11 -8 17.15 1.72
6 11 8 15.27 1.76
17 -6 8 16.92 1.9
11 -17 8 15.15 1.76
6 11 8 14.76 1.7
-11 17 8 15.64 1.97
-17 11 -8 10.13 2
-17 6 8 16.72 1.93
6 -17 -8 16.47 2
-6 -11 8 13.77 1.76
11 6 8 16.68 2.05
6 -17 8 19.31 2.02
-17 11 8 18.43 2.06
17 -11 8 17.11 1.84
17 -6 -8 20.12 1.95
17 -11 8 16.88 2.22
-17 6 -8 19.02 1.92
-11 -6 8 16.68 1.94
11 6 8 17.58 2.09
-11 17 -8 19.76 1.94
-5 -12 8 0.46 0.91
5 12 8 0.82 0.88
-17 12 -8 -0.09 1.83
5 12 8 -0.21 0.74
12 -17 8 0.22 0.76
-17 5 8 0.38 1.5
17 -5 8 0.57 0.96
-12 17 8 1.69 1.04
12 5 -8 -0.11 0.65
-17 5 8 1.22 1.02
5 -17 -8 0.79 1.01
17 -12 -8 1.11 0.83
12 5 8 0.03 0.82
-12 17 -8 -0.22 1.08
12 5 8 1.6 0.86
17 -12 8 0.69 1.13
12 5 8 1.94 0.93
17 -5 -8 0.84 0.91
17 -12 8 1.12 0.84
-17 12 8 1.27 1.06
5 12 -8 -0.91 1.18
-12 -5 8 1.28 0.99
12 -17 -8 2.53 1.04
-17 5 -8 1.66 0.87
-12 17 -8 2.26 0.9
5 -17 8 2.03 0.96
4 13 8 3.92 0.82
4 13 8 4.94 0.96
4 -17 -8 3.9 1.07
13 4 -8 4.1 0.95
17 -4 8 3.37 0.98
17 -13 -8 5.63 1.01
-17 4 8 8.18 1.22
-17 4 8 0.09 1.47
-13 17 8 6.48 1.16
13 -17 8 2 0.79
-4 -13 8 4.74 1.05
-17 13 8 3.94 1.09
13 -17 -8 5.13 1.1
17 -4 -8 5.76 1.16
-17 4 -8 4.79 1.02
17 -13 8 4.51 1.15
-13 -4 8 3.13 1.01
4 -17 8 5.68 1.08
-13 17 -8 6.35 1.05
13 4 8 5.99 1.07
13 4 8 6.3 1.17
17 -13 8 3.64 0.95
3 -17 -8 11.2 1.65
3 14 8 11.97 1.55
-17 14 -8 10.19 1.56
17 -14 -8 13.04 1.63
17 -3 8 14.26 1.54
-17 3 8 12.22 1.69
14 -17 8 9.78 1.45
-14 17 8 11.92 1.65
17 -3 8 9.42 1.49
-3 -14 8 11.44 1.61
14 3 -8 12.22 1.65
14 -17 -8 10.74 1.58
14 3 8 12.16 1.56
14 3 8 13.1 1.89
-14 -3 8 9.8 1.63
-17 14 8 10.64 1.6
3 -17 8 13.48 1.71
17 -3 -8 12.56 1.74
-14 17 -8 12.14 1.52
17 -14 8 12.6 1.61
-17 3 -8 12.01 1.61
-2 -15 8 1.93 0.89
17 -2 8 2.59 0.95
-17 15 -8 2.22 0.92
-17 2 8 3.72 1.04
17 -2 8 2.86 1
15 -17 8 1.93 0.85
2 15 8 2.97 0.87
-15 17 8 2.98 0.9
15 2 -8 1.48 0.91
2 -17 -8 1.63 0.88
17 -15 -8 3.21 0.93
17 -2 -8 2.06 0.91
-17 15 8 2.09 0.87
-15 17 -8 2.72 0.85
15 2 8 2.04 1.06
15 2 8 3.05 0.9
15 -17 -8 2.01 0.88
2 -17 8 2.5 0.87
-15 -2 8 1.38 0.9
17 -15 8 1.72 0.85
17 -16 -8 0.93 0.78
17 -1 8 1.06 0.95
16 1 -8 1.06 0.9
-17 16 -8 0.5 0.81
-17 1 8 1.55 0.94
17 -1 8 0.68 0.84
1 -17 -8 0.23 0.79
16 -17 8 0.97 0.78
-16 17 8 1.58 0.78
-1 -16 8 0.55 0.77
16 -17 -8 2.11 0.82
16 1 8 4.1 0.94
17 -16 8 2.51 0.85
1 -17 8 3 0.9
16 1 8 3.16 1.06
17 -1 -8 3.3 0.99
-17 16 8 2.23 0.82
-1 -16 -8 2.48 0.87
-16 17 -8 4.15 0.9
-16 -1 8 2.72 0.94
-17 0 8 1.86 0.9
17 0 8 2.3 0.85
17 0 -8 2.86 0.94
-17 17 8 3.14 0.78
17 0 8 2.78 1.05
17 -17 8 1.93 0.8
17 -17 -8 2.28 0.79
0 -17 -8 2.72 0.86
0 -17 8 2.77 0.84
-17 17 -8 2.48 0.81
-9 18 -8 2.34 0.86
-18 9 -8 4.18 0.91
9 9 8 2.99 1.04
18 -9 8 2.43 0.87
18 -9 8 1.53 1.02
9 -18 8 3.47 0.95
9 9 8 1.96 0.81
9 -18 -8 1.45 1.03
-18 9 -8 -0.28 1.53
-18 9 8 2.31 0.79
18 -9 -8 4.93 0.94
-10 -8 -8 17.39 1.76
10 -18 8 18.27 1.87
-8 18 -8 15.68 1.78
18 -8 8 21.8 2.15
8 10 8 21.3 1.92
8 -18 -8 20.57 2.09
8 10 8 17.3 1.84
-8 -10 8 15.79 1.82
-10 18 8 16.64 1.91
18 -10 -8 22.14 1.87
18 -8 8 18.37 1.84
8 -18 8 22.06 2.1
18 -10 8 18.95 1.98
-18 8 -8 22.13 2.03
10 8 8 20.44 2.09
10 -18 -8 20.13 2.01
10 8 8 18.24 2.11
18 -10 8 21.29 2.27
18 -8 -8 24.41 2.03
-10 18 -8 23.3 2.05
18 -7 8 5.7 1.1
7 11 8 4.07 0.86
-11 18 8 5.31 1.16
-11 -7 -8 3.51 0.95
7 -18 -8 6.64 1.18
7 11 8 4.62 0.98
-18 7 8 5.12 1.08
11 -18 8 5.07 0.93
-7 -11 8 3.83 0.95
18 -11 -8 4.94 0.93
18 -7 -8 9.97 1.19
18 -11 8 5.45 1.25
-11 18 -8 7.62 1.11
-18 7 -8 9.35 1.46
11 7 8 8.28 1.18
11 -18 -8 6.29 1.09
18 -11 8 6.71 1.03
11 7 8 7.8 1.27
7 -18 8 6.42 1.07
-18 6 8 6.56 1.08
12 -18 8 2.65 0.85
6 -18 -8 6.33 1.17
18 -6 8 4.58 1.08
-6 -12 8 4.28 0.94
6 12 8 3.3 0.85
18 -12 -8 3.98 0.92
-12 18 8 7.4 1.2
6 12 8 7.44 1.09
18 -6 -8 7.85 1.13
-18 12 8 6.52 1.19
12 -18 -8 4.17 0.99
18 -12 8 3.96 1.18
-18 6 -8 5.91 0.98
-12 -6 8 3.98 0.96
18 -12 8 4.35 0.94
12 6 8 4.71 1.14
6 -18 8 7.49 1.1
-12 18 -8 7.57 1.06
5 13 8 4.76 0.94
-5 -13 8 6.72 1.05
-13 18 8 6.3 1.08
13 -18 8 3.82 0.85
5 13 8 4.08 0.82
-18 5 8 5.95 1.05
18 -13 -8 7.36 1.01
18 -5 8 5.52 1.06
5 -18 -8 5.65 1.12
13 -18 -8 5.79 1.04
18 -13 8 8.3 1.31
5 -18 8 7.5 1.1
18 -5 -8 10.44 1.27
18 -13 8 6.23 1
-13 -5 8 5.18 1.12
-18 13 8 6.81 1.21
-18 5 -8 7.92 1.08
-14 18 8 2.17 0.85
18 -4 8 1.73 0.96
-18 4 8 2.56 0.92
4 14 8 2.09 0.79
18 -14 -8 1.35 0.83
-4 -14 8 1.89 0.87
14 4 -8 0.64 0.87
4 -18 -8 0.85 0.9
14 -18 8 1.31 0.74
14 4 8 2.22 0.82
14 -18 -8 1.56 0.83
14 4 8 1.61 1.04
18 -14 8 1.05 0.78
-14 18 -8 2.02 0.8
18 -14 8 1.29 0.91
-14 -4 8 0.97 0.9
-18 14 8 1.58 0.96
4 -18 8 1.8 0.86
18 -4 -8 1.82 0.87
-18 4 -8 1.89 0.82
15 3 -8 6.27 1.1
-18 3 8 6.48 1.11
18 -3 8 5.68 1.08
15 -18 8 4.34 0.92
3 15 8 5.35 0.92
3 -18 -8 5.25 1.01
-18 15 -8 4.13 0.83
-3 -15 8 5.04 0.94
-18 15 -8 4.25 0.93
18 -15 -8 4.79 0.92
-15 18 8 5.58 0.97
15 3 8 4.27 1.07
-18 15 8 3.69 0.95
3 -18 8 3.86 0.95
18 -15 8 2.77 0.85
18 -3 -8 2.73 0.9
18 -15 8 0.01 1.19
-15 18 -8 5.16 0.9
-18 3 -8 2.81 0.87
15 3 8 2.86 0.85
15 -18 -8 2.94 0.86
-15 -3 8 1.57 0.82
18 -2 8 1.25 0.81
16 2 -8 0.41 0.94
-18 16 -8 0.88 0.78
18 -16 -8 0.44 0.71
-18 2 8 1.58 0.83
-2 -16 8 1.68 0.81
2 -18 -8 0.04 0.78
16 -18 8 0.49 0.73
18 -2 8 1.13 0.85
-16 18 8 1.17 0.71
-18 16 8 0.7 0.78
2 -18 8 1.38 0.8
16 -18 -8 1.03 0.71
-16 18 -8 1.3 0.7
16 2 8 1.33 0.97
16 2 8 1.13 0.76
-2 -16 -8 0.76 0.79
18 -2 -8 1.06 0.85
18 -16 8 0.96 0.76
-16 -2 8 0.8 0.8
-1 -17 8 0.41 0.73
17 1 -8 0 0.86
-17 18 8 0.32 0.63
18 -17 -8 0.31 0.69
18 -1 8 1.27 0.91
-18 17 -8 0.61 0.71
18 -1 8 0.51 0.7
1 -18 -8 0.33 0.71
17 -18 8 0.37 0.66
-18 1 8 -0.41 0.76
-17 -1 8 -0.35 0.7
-1 -17 -8 0.3 0.73
17 -18 -8 0.43 0.67
17 1 8 -0.21 0.96
18 -17 8 0.03 0.65
18 -1 -8 -0.22 0.8
-18 17 8 0.53 0.69
-17 18 -8 0.57 0.67
1 -18 8 0.64 0.76
17 1 8 -0.06 0.71
18 -18 8 0.13 0.49
-18 0 8 0.33 0.67
0 -18 -8 0.33 0.7
18 0 8 0.24 0.9
18 0 -8 0.58 0.82
-18 18 -8 0.22 0.67
18 -18 -8 0.19 0.5
-18 18 8 0.34 0.67
0 -18 8 0.53 0.71
18 0 8 0.36 0.7
-9 -10 8 4.29 0.86
19 -9 8 6.82 1.15
19 -10 -8 6.87 0.94
10 -19 8 3.87 0.87
9 10 8 8.02 0.99
9 10 8 6.01 1.02
-19 9 8 3.99 0.86
9 -19 -8 7.87 1.2
-9 19 -8 5.97 0.96
19 -10 8 6.72 0.99
9 -19 8 7.36 1.03
10 -19 -8 5.41 1.11
10 9 8 4.7 0.91
-19 9 -8 9.3 1.41
10 9 8 8.38 1.19
-10 19 -8 4.6 0.95
19 -10 8 5.66 1.14
8 11 8 7.44 1.05
19 -11 -8 6.04 0.93
-11 -8 -8 5.82 0.93
8 -19 -8 7.4 1.18
-19 8 8 6.7 0.98
-8 -11 8 5.06 0.94
8 11 8 5.46 0.89
11 -19 8 4.93 0.89
19 -8 8 3.66 0.98
-11 19 8 5.99 1.04
11 8 8 10.09 1.5
19 -8 -8 10.01 1.42
-19 8 -8 10.93 1.49
11 8 8 8.96 1.25
19 -11 8 10.11 1.16
11 -19 -8 8.67 1.15
11 -19 -8 6.28 1.1
-11 19 -8 12.05 1.44
8 -19 8 8.3 1.15
19 -11 8 9.43 1.32
-7 -12 8 1.32 0.77
12 -19 8 1.09 0.73
-12 19 8 2.45 0.84
7 -19 -8 2.5 0.92
-19 7 8 2.6 0.83
7 12 8 1.91 0.72
7 12 8 2.01 0.83
19 -12 -8 1.26 0.76
19 -7 8 2.24 0.91
-19 12 -8 4.52 0.92
-12 -7 -8 2.36 0.8
-19 7 -8 5.7 0.93
19 -12 8 5.29 1.15
12 7 8 5.45 1.09
19 -7 -8 5.35 0.96
-12 19 -8 4.01 0.92
19 -12 8 5.12 0.9
12 7 8 7.84 1.12
7 -19 8 6.62 0.98
12 -19 -8 4.14 0.93
6 13 8 0.85 0.72
6 13 8 0.66 0.58
19 -13 -8 0.8 0.73
-19 6 8 0.89 0.79
-13 -6 -8 0.03 0.73
13 -19 8 -0.2 0.64
19 -6 8 -0.57 0.77
-13 19 8 0.34 0.79
-6 -13 8 -0.53 0.76
-19 13 -8 0.63 0.78
6 -19 -8 -0.01 0.85
13 6 8 0.49 0.82
-19 6 -8 0.77 0.72
-13 -6 8 0.22 0.51
13 -19 -8 0.73 0.76
19 -6 -8 1.62 0.81
-13 19 -8 1.66 0.79
-19 13 8 1.23 0.84
6 -19 8 1.48 0.77
13 6 8 1.04 0.87
19 -13 8 0.75 0.72
19 -13 8 1.12 0.92
5 14 8 3.81 0.83
-19 5 8 4.43 0.94
5 -19 -8 2.51 0.92
-19 14 -8 3.79 0.83
14 -19 8 2.4 0.74
19 -14 -8 3.41 0.86
19 -5 8 3.17 0.98
-5 -14 8 2.99 0.86
-14 -5 -8 2.72 0.82
-14 19 8 2.58 0.81
-14 -5 8 2.61 0.82
-19 14 8 3.45 0.94
-19 5 -8 3.18 0.79
19 -14 8 2.5 0.76
5 -19 8 3.36 0.83
14 -19 -8 3.8 0.84
19 -14 8 4.52 0.98
15 4 -8 3.42 0.89
-15 19 8 3.44 0.77
19 -4 8 3.73 0.96
-19 4 8 4.88 0.94
-4 -15 8 2.76 0.82
4 -19 -8 2.88 0.9
4 15 8 3.04 0.76
15 -19 8 1.69 0.75
-19 15 -8 2.09 0.71
19 -15 -8 2.97 0.74
15 -19 -8 2.71 0.77
19 -15 8 0.02 0.68
-15 -4 8 1.3 0.81
-19 15 8 4.09 0.89
19 -15 8 1.77 0.77
4 -19 8 4.03 0.91
-19 4 -8 1.76 0.74
15 4 8 4.2 1.03
19 -4 -8 3.32 0.86
-16 19 8 0.55 0.66
-19 3 8 0.8 0.74
-3 -16 8 0.69 0.7
16 3 -8 1.41 0.85
3 -19 -8 0.63 0.76
-19 16 -8 -0.71 0.49
16 -19 8 1.03 0.64
19 -16 -8 1 0.65
19 -3 8 1.07 0.77
19 -3 -8 0.57 0.77
16 3 8 0.47 0.93
-3 -16 -8 0.43 0.7
-19 16 8 0.63 0.75
19 -16 8 0.27 0.64
3 -19 8 1.06 0.76
-16 -3 8 1.22 0.78
-16 19 -8 0.82 0.69
16 -19 -8 0.58 0.58
-17 19 8 2.19 0.71
19 -2 8 2.57 0.79
19 -2 8 1.27 0.64
2 -19 -8 1.83 0.78
17 2 -8 2.4 0.88
19 -17 -8 2.29 0.62
-19 17 -8 2.1 0.71
-2 -17 8 2.36 0.74
-19 2 8 3.02 0.78
-2 -17 -8 0.99 0.71
-19 17 8 2.36 0.76
17 2 8 2.82 1.01
-17 -2 8 3.2 0.83
17 2 8 2.2 0.75
2 -19 8 2.08 0.78
19 -2 -8 2.03 0.82
-17 19 -8 1.89 0.68
-1 -18 8 1.55 0.73
-19 1 8 1.51 0.69
18 1 -8 2.28 0.85
19 -1 8 2.05 0.77
19 -1 8 2.47 0.76
-19 18 -8 2.02 0.69
-18 19 8 2.66 0.74
1 -19 -8 1.29 0.72
-1 -18 -8 3.13 0.74
-18 -1 8 2.69 0.76
-18 19 -8 3.47 0.71
19 -1 -8 3.36 0.87
-19 18 8 2.03 0.68
1 -19 8 3.12 0.79
18 1 8 1.93 0.73
18 1 8 4.38 1.01
-19 0 8 0.22 0.66
19 0 -8 0.26 0.81
-19 19 -8 0.22 0.63
-19 19 8 0.56 0.67
19 0 8 -0.2 0.7
0 -19 -8 -0.15 0.7
0 -19 8 -0.37 0.68
19 0 8 0.47 0.72
10 -20 -8 8.77 1.31
-20 10 8 8.61 1.13
20 -10 8 13.11 1.51
-20 10 -8 13.43 1.42
-10 20 -8 8.63 1.28
10 -20 -8 10.54 1.5
10 10 8 10.08 1.33
10 10 8 13.14 1.51
20 -10 -8 13.27 1.4
10 -20 8 12.02 1.39
9 11 8 1.99 0.66
-9 -11 8 1.06 0.66
20 -9 8 1.39 0.79
9 -20 -8 2.66 0.86
-20 11 -8 3.65 0.8
20 -11 -8 2.7 0.81
-20 9 8 2.38 0.72
9 11 8 2.28 0.81
11 -20 8 1.95 0.69
-11 20 -8 2.21 0.74
20 -9 -8 5.54 0.91
20 -11 8 2.99 0.9
11 9 8 3.6 0.79
-20 9 -8 5.36 0.83
11 -20 -8 3.6 0.87
11 -20 -8 4.13 0.84
9 -20 8 3.79 0.84
11 9 8 3.15 0.85
12 -20 8 2.02 0.68
-12 20 8 2.24 0.77
-20 8 8 4.02 0.85
8 -20 -8 3.04 0.9
-8 -12 8 2.49 0.75
8 12 8 1.91 0.68
-20 12 -8 4.85 0.84
8 12 8 3.87 0.86
20 -8 8 3.6 0.92
20 -12 -8 4.4 0.89
-12 -8 -8 2.11 0.7
8 -20 8 3.36 0.8
20 -8 -8 5.22 0.89
12 8 8 3.07 0.88
12 -20 -8 3.19 0.76
-12 20 -8 5.38 0.87
-20 8 -8 3.66 0.77
12 8 8 4.96 0.84
20 -12 8 3.14 0.81
20 -12 8 3.6 0.92
-20 7 8 8.67 1.3
-13 -7 -8 5.57 0.86
7 -20 -8 4.93 0.96
-20 13 -8 6.71 0.94
20 -7 8 7.05 1.02
20 -13 -8 6.98 0.95
7 13 8 5.45 0.89
-13 20 8 4.52 0.88
-7 -13 8 3.25 0.77
13 7 8 5.92 0.88
13 -20 -8 4.22 0.76
-13 20 -8 4 0.83
20 -7 -8 6.03 0.89
20 -13 8 3.75 0.8
20 -13 8 6.03 1.02
13 7 8 5.36 0.99
-20 7 -8 7.11 1.09
7 -20 8 6.55 0.94
-20 6 8 5.15 0.9
-14 20 8 4.83 0.88
20 -14 -8 4.46 0.81
6 -20 -8 1.87 0.82
-14 -6 -8 3.51 0.77
20 -6 8 2.9 0.94
-6 -14 8 2.81 0.79
-20 14 -8 3.82 0.8
6 14 8 4.2 0.82
14 -20 8 2.08 0.66
-20 6 -8 5.96 0.88
14 6 8 4.52 0.92
20 -14 8 3.53 0.85
20 -6 -8 5.13 0.84
6 -20 8 4.8 0.86
20 -14 8 3.99 0.82
-14 20 -8 4.42 0.84
5 -20 -8 0.81 0.72
5 15 8 2.01 0.68
-15 -5 -8 1.01 0.66
-20 5 8 1.47 0.71
20 -15 -8 1.31 0.67
-5 -15 8 0.52 0.66
-15 20 8 2.05 0.73
-20 15 -8 0.79 0.61
20 -5 8 1.29 0.79
15 -20 8 1.23 0.58
-15 20 -8 1.73 0.68
-5 -15 -8 0.62 0.66
20 -15 8 0.2 0.72
-20 15 8 1.4 0.66
-20 5 -8 1.18 0.68
20 -15 8 1.34 0.64
20 -5 -8 2.6 0.79
5 -20 8 0.87 0.68
15 5 8 2.08 0.87
20 -4 8 -0.55 0.71
-16 -4 -8 0.17 0.62
-4 -16 8 0.21 0.66
16 4 -8 -0.06 0.49
4 -20 -8 -0.49 0.67
-20 4 8 0.99 0.7
20 -16 -8 0.01 0.57
-16 20 8 0.8 0.66
16 4 8 0.08 0.83
-4 -16 -8 0.6 0.63
-16 -4 8 0.27 0.46
4 -20 8 0.95 0.71
20 -4 -8 -0.02 0.66
-20 16 8 0.2 0.61
-16 20 -8 0.22 0.61
17 3 -8 1.65 0.58
3 -20 -8 1.56 0.76
-20 3 8 2.86 0.73
-17 20 8 3.12 0.77
20 -3 8 3.11 0.78
-3 -17 8 3.38 0.77
-17 -3 -8 2.37 0.69
-17 -3 8 0.86 0.51
-20 17 8 1.23 0.65
3 -20 8 1.81 0.75
-3 -17 -8 2.2 0.71
17 3 8 2.36 0.93
20 -3 -8 1.84 0.75
-17 20 -8 1.39 0.62
-18 -2 -8 0.45 0.65
2 -20 -8 -0.14 0.67
-18 20 8 0.51 0.65
-20 2 8 -0.29 0.61
18 2 -8 0.38 0.56
20 -2 8 0.64 0.72
-2 -18 8 1.17 0.71
-18 -2 8 0.24 0.48
18 2 8 0.93 0.92
20 -2 -8 -0.04 0.78
-20 18 8 0.09 0.59
-2 -18 -8 0.26 0.67
-18 20 -8 0.1 0.64
2 -20 8 0.45 0.68
10 11 8 0.67 0.58
21 -10 8 0.95 0.71
-21 11 -8 1.15 0.64
10 -21 -8 0.25 0.43
21 -11 -8 1.06 0.72
10 -21 -8 0.13 0.66
10 11 8 1.04 0.73
11 -21 8 0.55 0.56
-21 10 8 0 0.44
11 10 8 0.87 0.78
11 -21 -8 0.19 0.78
21 -10 -8 2.93 0.78
10 -21 8 1.05 0.58
-21 10 -8 1.37 0.62
11 -21 -8 -0.08 0.55
11 10 8 1.5 0.62
21 -11 8 1.6 0.71
-11 21 -8 0.54 0.62
9 12 8 4.43 0.76
21 -9 8 2.66 0.76
12 -21 8 2.36 0.58
9 -21 -8 1.49 0.5
9 -21 -8 4 0.78
9 12 8 2.37 0.51
-21 9 8 3.64 0.69
-21 9 -8 5.04 0.77
9 -21 8 2.26 0.67
21 -12 8 3.32 0.83
-12 21 -8 2.95 0.73
12 9 8 2.87 0.68
12 9 8 3.01 0.82
21 -9 -8 5.28 0.84
-13 21 8 -0.05 0.42
-21 13 -8 0.96 0.62
13 -21 8 0.27 0.46
8 13 8 0.81 0.66
21 -8 8 -0.1 0.77
-13 -8 -8 0.22 0.52
21 -13 -8 1.29 0.71
8 -21 -8 1.45 0.7
-8 -13 8 0.76 0.61
-21 8 8 1.32 0.66
21 -8 -8 0.45 0.62
13 8 8 0.39 0.61
-21 8 -8 0.76 0.6
13 8 8 0.37 0.61
-13 21 -8 0.13 0.65
8 -21 8 0.53 0.65
21 -13 8 0.55 0.73
-7 -14 8 0.24 0.64
-21 7 8 0.86 0.65
7 14 8 0.42 0.64
-14 -7 -8 -0.27 0.53
21 -7 8 0.37 0.77
-21 14 -8 0.03 0.59
21 -14 -8 1.02 0.72
-14 21 8 0.89 0.63
7 -21 -8 0.45 0.7
7 -21 8 0.39 0.64
21 -7 -8 1.05 0.67
14 7 8 0.75 0.65
21 -14 8 0.09 0.55
-14 21 -8 0.64 0.64
-21 7 -8 1.09 0.63
-15 -6 -8 0.32 0.56
21 -6 8 0.24 0.73
-6 -15 8 0.84 0.66
-21 15 -8 -0.25 0.53
6 -21 -8 -0.1 0.66
-21 6 8 1.21 0.69
-15 21 8 0.73 0.65
21 -15 -8 0.75 0.55
-15 21 -8 0.72 0.64
-6 -15 -8 0.23 0.68
6 -21 8 -0.35 0.65
-21 6 -8 -0.32 0.56
15 6 8 0.29 0.69
21 -6 -8 0.52 0.7
-5 -16 8 -0.17 0.63
21 -5 8 0.14 0.73
-16 -5 -8 0.37 0.57
-21 5 8 0.97 0.65
5 -21 -8 0.01 0.65
-16 21 8 0.48 0.67
5 -21 8 0.61 0.66
21 -5 -8 0.72 0.71
-5 -16 -8 0.44 0.65
-16 21 -8 1.15 0.66
16 5 8 0.37 0.72
-21 5 -8 -1.36 0.59
4 -21 -8 0.66 0.64
21 -4 8 1.61 0.84
-17 -4 -8 1.19 0.67
-21 4 8 0.92 0.65
-17 21 8 1.21 0.72
-17 21 -8 2.07 0.71
21 -4 -8 1.75 0.75
17 4 8 2.08 0.82
-4 -17 -8 1.82 0.68
-22 11 -8 3.02 0.71
22 -11 -8 3.03 0.76
11 11 8 2.46 0.79
22 -11 8 1.97 0.74
-22 12 -8 2.19 0.69
22 -12 -8 1.78 0.79
10 12 8 0.98 0.7
22 -10 8 0.53 0.74
12 10 8 1.55 0.67
22 -12 8 1.37 0.68
-22 10 -8 1.76 0.69
22 -10 -8 2.23 0.65
12 10 8 1.09 0.54
-22 13 -8 1.15 0.66
9 -22 -8 -0.12 0.47
-22 9 8 0.14 0.41
22 -9 8 1.81 0.85
9 13 8 0.79 0.67
22 -13 -8 0.99 0.64
-13 22 -8 0.31 0.51
-22 9 -8 1.65 0.63
13 9 8 0.89 0.58
22 -13 8 0.06 0.42
22 -9 -8 1.9 0.69
9 -22 8 0.79 0.43
-22 8 8 1.72 0.63
8 14 8 1.06 0.67
22 -8 8 0.86 0.75
-22 14 -8 0.98 0.63
8 -22 -8 -0.12 0.41
-22 8 -8 2.05 0.64
22 -8 -8 3.79 0.73
8 -22 8 1.02 0.43
-14 22 -8 2.39 0.72
14 8 8 1.4 0.64
0 0 9 0.91 1.18
0 0 -9 0.64 0.74
-1 0 -9 37.54 2.88
-1 0 9 35.05 3.09
0 -1 -9 36.95 2.88
1 0 -9 35.63 2.86
1 -1 -9 34.66 2.8
0 1 9 34.72 3.11
0 -1 9 37.78 3.24
0 1 -9 35.21 2.84
-1 1 -9 35.26 2.78
-1 1 9 34.47 3.11
-1 -1 -9 0.4 0.75
-1 2 9 0.97 1.14
-1 -1 9 -0.2 1.16
2 -1 -9 0.43 0.86
1 1 -9 0.59 0.74
-1 2 -9 0.72 0.82
-2 1 9 0.68 1.24
-2 1 -9 0.32 0.73
1 -2 -9 0.37 0.77
1 -2 9 0.04 1.2
0 -2 -9 4.42 1.03
-2 0 -9 3.7 0.98
-2 2 -9 3.74 0.94
2 -2 -9 5.03 1.06
2 0 -9 5.17 1.01
-2 0 9 5.28 1.35
-2 2 9 3.77 1.27
0 2 -9 4.06 0.91
0 -2 9 6.5 1.53
-3 1 9 31.38 2.9
-1 -2 9 31.38 2.88
-2 -1 -9 30.71 2.59
-1 3 -9 31.41 2.61
3 -2 -9 31.92 2.59
2 1 -9 32.21 2.55
-3 2 -9 29.19 2.5
-2 3 -9 34.64 2.81
2 -3 -9 35.85 2.92
-3 2 9 33.26 3.16
3 -1 -9 35.58 2.79
-2 -1 9 36.52 3.26
1 -3 9 36.01 3.22
1 2 -9 33.78 2.82
-1 -2 -9 34.45 2.85
-3 1 -9 34.67 2.74
0 3 -9 10.65 1.54
-3 3 -9 11.73 1.46
-3 3 -9 9.77 1.41
3 -3 -9 9.91 1.5
0 -3 9 11.15 1.84
-3 0 -9 8.7 1.25
-3 3 9 8.62 1.53
3 0 -9 10 1.41
-3 0 9 10.24 1.86
-2 4 -9 1.21 0.8
-4 2 9 0.66 1.24
-2 -2 -9 1.77 0.95
2 2 -9 1.08 0.86
4 -2 -9 2.25 0.95
-2 4 -9 1 0.85
-2 -2 9 1.1 1.22
-4 2 -9 1.67 0.86
-4 1 9 19.72 2.51
-3 -1 -9 15.62 1.85
-4 3 -9 19.8 1.92
-1 4 -9 18.74 1.9
-1 -3 9 18.11 2.24
-1 4 -9 21.19 1.97
3 1 -9 23.15 2.03
4 -3 -9 19.93 1.96
-4 1 -9 17.36 1.92
4 -1 -9 18.26 1.89
-3 -1 9 17.46 2.36
-3 4 -9 15.45 1.66
1 3 -9 17.23 1.77
-4 3 9 13.39 2.14
1 -4 9 19.74 2.34
-3 4 -9 18.3 1.82
0 4 -9 9.49 1.48
-4 4 -9 7.47 1.37
0 4 -9 7.05 1.15
-4 0 9 9.09 1.74
0 -4 9 9.47 1.71
4 0 -9 8.46 1.36
4 -4 -9 9.75 1.33
-4 4 9 7.48 1.58
5 -3 -9 9.93 1.52
-2 -3 9 11.96 1.89
-5 2 9 8.24 1.77
-2 5 -9 8.54 1.4
-2 5 -9 9.61 1.59
3 2 -9 9.13 1.41
-5 3 -9 8.86 1.57
-3 -2 9 13.05 2.01
-5 2 -9 9.46 1.61
-5 3 9 10.36 1.85
2 3 -9 9.8 1.31
-3 5 -9 9.14 1.58
-3 5 -9 7.06 1.2
5 -2 -9 12.36 1.48
-1 -4 9 3.54 1.33
5 -4 -9 2.65 0.97
4 1 -9 3.67 0.95
-1 5 -9 2.92 0.99
-5 1 9 3.52 1.42
-5 4 -9 2.4 0.88
-1 5 -9 2.09 0.91
-4 -1 9 0.79 1.25
1 -5 9 1.24 1.35
5 -1 -9 1.06 0.88
-4 5 -9 0.96 0.83
-5 1 -9 0.19 0.77
-5 4 9 0.15 1.27
-4 5 -9 -0.07 0.53
1 4 -9 0.68 0.86
0 5 -9 67.9 5.11
5 0 -9 70.52 5.08
0 -5 9 73.38 5.49
-5 0 9 71 5.52
-5 0 -9 63.77 5.09
0 5 -9 77.93 5.23
-5 5 -9 71.85 5.16
5 -5 -9 73.6 5.18
-5 5 9 73.02 5.43
-6 3 9 0.75 1.53
-3 6 -9 0.3 0.85
3 3 -9 0.44 0.89
-6 3 -9 0.17 0.88
6 -3 -9 0.21 0.85
-3 6 -9 0.13 0.77
-3 -3 9 -0.2 1.28
-6 4 -9 38.23 3.14
-6 2 9 41.2 3.72
-2 6 -9 38.34 3.15
-4 6 9 39.99 3.5
6 -4 -9 38.89 3.2
-2 -4 9 37.63 3.51
4 2 -9 37.07 3.09
-2 6 -9 33.71 3.05
6 -2 -9 37.15 2.92
-4 6 -9 36.29 2.91
-6 4 9 29.94 3.29
-4 -2 9 37.87 3.28
-6 2 -9 33.88 2.93
2 4 -9 37.34 2.98
6 -5 -9 20.4 2.18
5 1 -9 20.91 2.06
-6 1 9 21.19 2.61
-1 6 -9 22.85 2.28
-1 -5 9 20.1 2.44
-6 5 -9 22.13 2.22
-1 6 -9 19.45 2.06
-5 6 9 23.14 2.49
6 -1 -9 19.85 1.99
-6 5 9 14 2.32
-5 -1 9 18.94 2.4
-6 1 -9 17.14 1.99
1 5 -9 19.86 1.99
-6 5 9 19.83 2.35
-5 6 -9 20.53 1.97
1 -6 9 20.39 2.36
1 5 -9 19.73 2.15
6 -6 -9 24.03 2.4
0 -6 9 24.64 2.79
-6 0 9 26.11 2.77
0 6 -9 24.14 2.39
6 0 -9 24.35 2.25
-6 6 9 24.49 2.66
-6 6 -9 23.12 2.26
0 6 -9 22.07 2.23
7 -4 -9 15.95 1.88
-3 -4 9 15.31 2.36
-7 4 -9 15.12 1.94
-7 3 9 14.2 2.67
-3 7 -9 12.28 1.81
4 3 -9 14.55 1.78
-3 7 -9 14.96 1.89
-4 7 9 16.95 2.36
7 -3 -9 10.98 1.53
3 4 -9 10.53 1.7
-4 -3 9 11.78 1.99
-7 4 9 11.3 2.14
-7 3 -9 9.78 1.69
-4 7 -9 11.53 1.73
-2 -5 9 14.17 2.32
-7 5 -9 13.51 1.79
-2 7 -9 17.13 1.97
5 2 -9 14.17 1.91
7 -5 -9 15.25 2.02
-7 2 9 14.36 2.57
-2 7 -9 10.73 1.82
-5 7 9 16.05 2.39
-7 5 9 13.93 2.12
-7 5 9 12.56 2.16
2 5 -9 13.44 1.71
-7 2 -9 10.43 1.73
-5 -2 9 12.76 2.31
7 -2 -9 15.57 1.92
2 5 -9 12.53 1.85
-5 7 -9 13.88 1.69
-1 -6 9 49.58 4.15
-7 1 9 53.52 4.5
-1 7 -9 48.82 3.88
7 -6 -9 54.1 4.05
6 1 -9 54.01 3.93
-1 7 -9 47.92 3.9
-7 6 -9 50.71 3.89
-6 -1 -9 41.71 4.25
-6 7 9 55.16 4.39
-7 6 9 47.25 4.08
1 -7 9 43.41 3.87
1 6 -9 48.49 3.66
1 6 -9 45.43 3.68
-6 -1 9 47.43 4.13
-6 7 -9 44.09 3.65
7 -1 -9 48.24 3.69
-7 1 -9 43.71 4.11
7 0 -9 8.42 1.4
0 7 -9 8.23 1.41
7 -7 -9 7.58 1.44
0 7 -9 10 1.76
-7 7 9 9.01 1.72
-7 0 -9 5.47 1.73
-7 7 -9 8.6 1.41
-7 0 9 8.28 1.89
0 -7 9 10.61 2.01
4 4 -9 8.95 1.28
-4 8 9 6.9 1.66
-4 8 -9 7.4 1.25
-4 8 -9 4.55 1.12
-4 -4 9 6.22 1.62
-8 4 9 6.47 1.92
8 -4 -9 6.39 1.28
-8 4 -9 6.2 1.32
-5 8 9 20.2 2.67
-8 3 9 16.21 2.83
-3 -5 9 16.91 2.37
-3 8 -9 14.67 1.87
5 3 -9 18.52 2.08
8 -5 -9 19.41 2.24
-8 5 -9 16.11 2.08
-3 8 -9 18.91 2.13
-8 5 9 15.55 2.28
-3 8 9 15.68 2.14
3 5 -9 17.52 1.87
8 -3 -9 17.91 2.11
-8 5 9 15.29 2.56
3 5 -9 13.06 1.9
-8 3 -9 11.4 1.93
-5 -3 9 19.25 2.55
-8 3 -9 17.4 2.61
-5 8 -9 15.66 2.03
-2 8 -9 5.36 1.21
6 2 -9 9.58 1.47
8 -6 -9 7.72 1.43
-2 8 -9 8.45 1.59
-8 2 9 11.3 2.26
-6 8 9 8.83 1.67
-2 -6 9 7.27 1.68
-8 6 -9 9.09 1.47
2 6 -9 8.53 1.6
-8 2 -9 6.74 1.75
-6 8 -9 9.54 1.78
-8 6 9 10.57 1.88
-6 -2 9 13.04 2.2
8 -2 -9 10.42 1.55
2 6 -9 10.57 1.46
8 -7 -9 19.28 2.36
-1 8 -9 16.38 2.19
-7 8 9 20.33 2.71
7 1 -9 18.14 2.1
-8 7 -9 16.92 2.25
-1 8 -9 20.63 2.27
-1 -7 9 19.86 2.63
-8 1 9 20.62 2.87
-7 -1 9 21.38 2.79
-7 8 -9 18.1 2.08
-8 7 9 19 2.67
1 7 -9 14.47 2.07
1 7 -9 20.88 2.24
8 -1 -9 23.1 2.31
-8 1 -9 15.96 2.6
0 8 -9 56.51 4.21
-8 0 9 58.07 4.74
0 -8 9 54.72 4.53
-8 8 -9 53.47 4.25
0 8 -9 45.43 4.12
8 0 -9 62.02 4.29
8 -8 -9 50.73 4.18
-8 8 9 56.51 4.57
-8 0 -9 46.88 4.5
9 -5 -9 7.2 1.45
-5 9 9 5.88 1.57
-9 4 9 7.07 2.15
5 4 -9 6.44 1.23
-9 5 -9 4.84 1.28
-4 9 -9 6.26 1.33
-4 9 -9 3.56 1.11
-4 -5 9 8.73 1.96
-9 5 -9 9.48 2.06
9 -4 -9 8.01 1.4
-5 9 -9 8.29 1.38
-9 5 9 8.1 1.71
-9 5 9 9.85 2.2
-5 -4 9 9.57 1.93
4 5 -9 12.02 1.58
-9 4 -9 11.46 2.11
-4 9 9 6.65 1.63
-9 6 -9 9.56 1.6
9 -6 -9 9.63 1.61
-9 3 9 9.51 2.15
-3 -6 9 11.83 2.2
-9 6 -9 9.05 1.97
-3 9 -9 10.8 1.87
6 3 -9 11.36 1.54
-6 9 9 11.19 1.99
-6 -3 9 13.74 2.27
-9 3 -9 10.29 2.04
-6 9 -9 9.76 1.83
-9 6 9 5.67 1.87
9 -3 -9 8.9 1.5
-3 9 9 6.64 1.53
-9 6 9 8.27 1.69
3 6 -9 10.76 1.47
-7 9 9 22.42 2.92
-2 9 -9 16.25 2.07
-9 7 -9 17.39 2.21
-2 -7 9 18.73 2.49
-2 9 -9 21.61 2.4
9 -7 -9 19.87 2.39
7 2 -9 20.54 2.17
-9 2 9 19.08 2.81
-9 7 9 22.1 2.85
-9 2 -9 19.03 2.83
9 -2 -9 22.07 2.49
-7 9 -9 20.63 2.42
2 7 -9 22.82 2.4
-7 -2 9 23.75 2.92
9 -8 -9 3.12 1.3
-8 9 9 4.93 1.63
-9 1 9 4.6 1.87
-1 -8 9 4.92 1.72
8 1 -9 2.99 1.24
-1 9 -9 3.87 1.21
-8 -1 -9 0.21 1.23
-9 8 -9 2.8 1.19
-1 9 -9 1.03 1.09
-8 -1 9 5.83 1.82
9 -1 -9 6.53 1.4
-9 8 9 5.78 1.55
-8 9 -9 4.7 1.16
-9 1 -9 4.87 1.62
-9 8 9 0.3 0.75
1 8 -9 2.31 1.01
-8 -1 9 0.83 0.72
-9 0 9 0.82 1.51
0 9 -9 -0.6 0.95
9 -9 9 0.7 0.64
-9 9 9 1.01 1.41
-9 0 9 0.3 0.91
9 -9 9 -0.2 0.64
-9 9 9 -0.71 0.9
9 -9 -9 0.66 0.74
-9 9 -9 0.48 1.11
-9 0 -9 -0.14 1.41
0 9 -9 0.47 1.09
9 0 -9 2.06 1.23
9 -9 -9 0.78 1.29
0 9 9 -0.05 0.71
-10 5 9 0.9 1.8
10 -5 -9 -0.09 0.95
-5 10 -9 1.08 1.11
-5 10 -9 -0.35 0.75
-10 5 -9 -1.39 0.92
-5 10 9 0.66 1.34
5 5 9 0.46 0.62
5 5 -9 2.11 1.04
-10 5 -9 1.31 1.57
-5 -5 9 2.52 1.62
10 -6 -9 3.05 1.22
-10 6 -9 3.15 1.26
-10 4 9 5.7 2.13
-10 6 -9 3.42 1.56
-4 10 -9 2.56 1.11
-4 10 -9 4.04 1.26
6 4 -9 5.07 1.2
-4 -6 9 5.78 1.86
4 6 9 2.18 0.72
-6 10 9 2.91 1.5
-6 -4 9 3.44 1.7
-6 10 -9 2.35 1.08
6 4 9 0.31 0.63
-10 4 -9 3.28 1.64
-4 10 9 2.33 1.41
-10 6 9 2.43 1.77
-10 6 9 1.62 1.38
4 6 -9 2.68 1.2
10 -4 -9 2.04 1.16
10 -7 -9 1.74 1.17
3 7 9 0.97 0.61
-10 7 -9 0.97 1.15
-10 7 -9 1.77 1.57
7 3 -9 0.5 1.01
-7 10 9 1.9 1.52
-3 10 -9 0.69 1.03
-3 -7 9 2.68 1.62
-10 3 9 1.23 1.89
-3 10 -9 1.06 1.11
10 -7 -9 0.23 0.61
7 -10 9 0.24 0.61
-10 7 9 3.37 1.52
-10 7 9 -0.24 0.75
-7 -3 9 3.3 1.7
-10 7 9 0.16 1.58
7 3 9 0.2 0.61
3 7 -9 3.32 1.12
10 -3 -9 3.36 1.16
-7 -3 9 1.46 0.8
10 -7 9 0.58 0.55
10 -7 9 1.6 0.87
-7 10 -9 3.09 1.19
-10 3 -9 1.24 1.45
-8 10 9 9.61 1.91
10 -8 -9 7.07 1.37
8 -10 9 6.35 0.96
-10 8 -9 10.67 2.03
-2 10 -9 6.49 1.34
-2 10 -9 8.03 1.42
-8 10 9 6.79 1.26
10 -8 -9 9.68 1.39
-2 -8 9 9.58 1.95
-10 8 -9 7.84 1.58
2 8 9 5.59 0.92
8 2 -9 11.01 1.63
10 -8 9 10.49 1.66
-10 8 9 14.18 2.55
-8 -2 9 16.14 2.66
-8 10 -9 12.93 2.1
2 8 -9 14.31 2
-10 2 -9 8.75 1.85
10 -8 9 8.77 1.28
10 -2 -9 12.05 1.81
-10 8 9 9.64 1.62
-8 -2 9 6.86 1.23
-1 10 -9 3.55 1.25
-1 -9 9 5.58 1.74
-10 1 9 4.26 1.11
-1 10 -9 6.71 1.42
10 -9 -9 5.04 0.97
9 1 -9 5.42 1.4
9 -10 9 1.87 0.86
-9 10 9 2.42 1.1
-9 10 9 6.59 1.86
9 -10 9 3.49 0.83
-10 9 -9 4.73 1.39
-10 9 -9 6.54 1.99
10 -9 -9 7.61 1.44
-10 1 9 7.63 2.18
1 9 9 4.25 0.82
10 -1 -9 2.86 1.18
-10 1 -9 5.51 1.77
-9 -1 9 3.5 1.07
-9 -1 9 6.76 1.89
-10 9 9 1.97 1.07
10 -9 9 2.46 0.77
-10 9 9 4.4 1.68
1 9 -9 4.97 1.36
10 -9 9 3.49 1.06
-9 10 -9 2.79 1.19
-10 10 -9 9.06 2.11
10 -10 -9 9.59 1.63
0 10 -9 7.4 1.51
-10 0 9 7.63 1.3
-10 10 9 10.07 2.09
10 0 -9 6.27 1.36
10 -10 -9 8.32 1.19
0 10 9 5.46 0.93
0 10 9 9.57 1.23
-10 10 -9 5.88 1.54
-10 10 -9 8.91 1.29
-10 10 9 4.97 1.28
10 -10 9 9.18 1.12
-10 0 9 14.63 2.47
10 -10 9 9.07 1.34
11 -5 9 2.01 0.81
-6 11 9 1.82 1.52
-11 5 9 0.86 1.76
6 5 -9 2.35 1.12
-11 6 -9 1.36 1.45
-5 11 -9 -0.61 0.96
5 6 9 2.49 0.89
11 -6 -9 2.26 0.87
6 -11 9 1.87 0.9
11 -6 -9 2.72 1.17
-5 11 -9 3.36 1.37
-5 -6 9 4.06 1.74
11 -5 -9 0.66 0.72
5 6 -9 2.38 1.1
-11 5 -9 2.79 1.64
-11 6 9 1.87 1.43
11 -6 9 1.74 0.79
6 5 9 2.37 0.9
-6 11 -9 2.33 1.3
-6 -5 9 0.67 0.71
-5 11 9 2.17 1.52
-11 6 9 1.22 1.72
5 -11 9 2.36 0.95
-6 -5 9 3.84 1.78
11 -5 -9 1.3 1.09
-7 11 9 -0.1 0.75
7 4 -9 1.26 1.11
11 -7 -9 0.92 0.94
4 7 9 0.76 0.74
11 -4 9 1.04 0.72
11 -7 -9 0.77 1.04
-11 4 9 -0.09 1.89
-11 7 -9 2.37 1.62
-4 11 -9 -0.58 1.1
-4 -7 9 1.01 1.64
-11 4 9 -0.06 0.85
7 -11 9 1.12 0.88
-11 7 -9 -0.76 1.18
-4 11 -9 -0.05 1.09
-7 11 9 1.09 1.67
11 -4 -9 0.16 1.09
7 4 9 0.64 0.88
-4 11 9 0.39 1.33
-11 7 9 1 1.5
-11 4 -9 0.67 1.43
-7 -4 9 1.3 1.54
4 7 -9 1.12 1.18
-11 7 9 -0.54 0.7
-7 11 -9 1.86 1.18
-11 7 9 0.28 1.56
4 -11 9 1.32 0.89
11 -7 9 1.9 0.86
11 -4 -9 -0.07 0.62
-7 -4 9 0.93 0.96
-8 11 9 1.81 1.1
-11 3 9 6.52 2.18
-3 11 -9 3.94 1.38
-8 11 9 5.04 1.88
-11 8 -9 7.14 1.99
8 -11 9 3.98 0.93
-11 3 9 2.53 1.05
-11 8 -9 2.25 1.35
-3 11 -9 3.35 1.33
11 -8 -9 4.15 1.24
3 8 9 3.2 0.84
11 -3 9 4.17 0.92
8 3 -9 6.05 1.44
-3 -8 9 4.97 1.78
11 -8 -9 6.07 1.09
-8 11 -9 11.3 1.83
8 3 9 9.59 1.29
-8 -3 9 9.84 2.16
-11 8 9 10.1 1.47
-11 3 -9 11.46 2.11
-11 8 9 5.96 1.67
11 -8 9 8.52 1.21
3 8 -9 11.71 1.81
-8 -3 9 9.55 1.33
3 -11 9 8.33 1.2
11 -3 -9 5.86 1.4
-2 11 -9 0.92 1.1
-9 11 9 4.33 1.65
2 9 9 3.84 0.88
-11 2 9 1.74 1.16
-11 9 -9 2.56 1.47
-11 9 -9 3.98 1.77
-2 -9 9 3.69 1.71
-2 11 -9 3.6 1.37
11 -9 -9 2.33 1.1
9 2 -9 3.74 1.36
-11 2 9 3.3 1.81
11 -2 9 2.68 0.79
-9 11 9 3.82 1.33
11 -9 -9 3.96 1.03
9 -11 9 3.27 0.83
2 9 9 4.2 0.87
-11 2 -9 0.85 1.56
2 -11 9 0.18 0.89
-9 11 -9 1.72 1
9 2 9 1.32 0.94
-9 -2 9 1.27 1.68
11 -9 9 2.05 0.85
-11 9 9 0.99 1.43
11 -2 -9 -0.09 0.82
-9 11 -9 0.5 1.23
11 -2 -9 0.15 1.06
-11 9 9 0.8 1.06
-9 -2 9 0.19 0.97
2 9 -9 1.29 1.09
-11 1 9 10.8 1.5
-11 1 9 10 2.3
-11 10 -9 3.47 1.41
-10 11 9 11.05 2.16
-11 10 -9 7.5 1.96
11 -10 -9 5.8 1.36
-11 10 -9 8.65 1.3
11 -10 -9 11.51 1.29
11 -1 9 8.11 1.08
10 -11 9 5.75 1.21
1 10 9 7.4 1.09
-10 11 9 7.98 1.44
10 -11 9 7.15 1.04
10 1 -9 4.32 1.37
-1 11 -9 6.25 1.52
1 10 9 6.64 1.11
-10 11 -9 4.19 1.37
-11 1 -9 5.79 1.72
11 -10 9 8.21 1.06
-10 -1 9 7.33 1.29
11 -1 -9 3.38 1.33
10 1 9 6.71 1.16
-11 10 9 8.26 1.45
1 -11 9 8.02 1.25
10 -11 -9 6.03 1.05
-11 10 9 5.77 1.71
-10 -1 9 10.61 2.26
1 10 -9 8.12 1.63
-10 11 -9 8.63 2.19
-10 11 -9 7.58 1.26
11 -11 9 1.71 0.79
-11 11 -9 1.98 1.79
11 -11 -9 1.67 0.93
11 -11 -9 1.36 1.01
-11 0 9 1.61 1.62
-11 11 9 1.29 1.44
-11 11 -9 0.07 1.21
-11 11 9 0.27 1.14
0 11 -9 0.34 1.21
0 -11 9 1.68 1.03
-11 11 -9 1.54 1.05
11 0 -9 -0.72 1.12
-11 0 9 0.55 1.06
11 0 9 0.74 0.83
0 11 9 0.4 0.75
-6 -6 9 2.65 0.9
6 6 -9 2.96 1.23
12 -6 9 3.32 1
-6 12 9 2.46 1.7
6 6 9 3.03 0.95
-6 -6 9 2.34 1.8
-6 12 -9 1.05 1.27
-12 6 9 3.45 1.9
-12 6 -9 2.6 1.59
12 -6 -9 1.43 0.98
6 -12 9 2.04 0.96
12 -6 -9 0.1 0.94
5 7 9 7.18 1.13
-12 7 -9 8.81 2.04
-12 5 9 5.19 2.02
12 -5 9 6.59 1.15
7 -12 9 8.07 1.21
12 -7 -9 5.43 1.13
-5 -7 9 8.88 2.2
-7 12 9 5.87 1.9
7 5 -9 4.7 1.33
-5 12 -9 5.99 1.65
-5 12 9 3.3 1.62
12 -7 9 5.08 0.99
5 7 -9 4.8 1.29
-12 7 9 5.07 1.67
-7 12 -9 5.75 1.14
-7 -5 9 7.32 2.04
-12 5 -9 8.83 1.97
-7 12 -9 4.98 1.52
-7 -5 9 5.07 1.14
7 5 9 7.14 1.17
5 -12 9 7.93 1.27
-12 7 9 1.49 1.74
12 -5 -9 6.45 1.12
-8 12 9 1.78 1.8
-12 4 9 1.66 1.89
-8 12 9 0.6 1.15
4 8 9 1.64 0.83
12 -4 9 1.95 0.93
-4 12 -9 -0.79 1.22
8 4 -9 2.14 1.33
12 -8 -9 2.07 0.97
8 -12 9 2.06 0.97
-4 -8 9 2.35 1.71
-4 12 -9 0.12 1.25
12 -8 -9 0.26 0.9
4 8 9 0.42 0.66
-12 4 9 0.81 1.11
-12 8 -9 0.07 1.26
-12 8 -9 3 1.72
-8 -4 9 1.32 1.01
-12 8 9 0.34 1.04
-12 8 9 0.28 1.5
-8 12 -9 0.9 1.3
12 -8 9 0.87 0.86
4 8 -9 2.65 1.26
8 4 9 1.42 0.97
-12 4 -9 0.53 1.39
12 -4 -9 0.99 0.88
-8 -4 9 2.43 1.8
4 -12 9 0.47 1.03
-8 12 -9 1.18 1
-3 12 -9 2.85 1.41
9 3 -9 5.48 1.48
-12 9 -9 2.42 1.45
-9 12 9 4.04 1.36
3 9 9 6.14 1.02
-3 -9 9 6.73 1.87
-9 12 9 5.84 1.94
3 9 9 5.6 1.05
-3 12 -9 3.14 1.46
12 -9 -9 8.21 1.2
12 -3 9 7.57 1.13
-12 3 9 5.33 1.28
-12 3 9 3.73 1.87
-12 9 -9 7.63 2.1
9 -12 9 7.47 1.1
-9 12 -9 5.18 1.13
-9 -3 9 9.29 2.19
-9 12 -9 5.5 1.6
12 -9 9 6.81 1.09
3 9 -9 6.69 1.4
-12 9 9 5.14 1.75
3 -12 9 8.31 1.27
-9 -3 9 6.05 1.19
12 -3 -9 6.99 1.14
-12 3 -9 6.91 1.85
9 3 9 7.38 1.29
-12 9 9 5.71 1.36
-9 12 -9 8.48 2.06
10 2 -9 3.43 1.33
-12 10 -9 4.58 1.03
10 -12 9 10.02 1.18
12 -2 9 6.73 1.06
-10 12 9 7.46 2.04
-12 10 -9 9.86 2.2
-12 2 9 11.63 2.47
-12 2 9 7.58 1.37
12 -10 -9 6.43 1.08
2 10 9 7.44 1.07
-12 10 -9 3.45 1.54
2 10 9 6.03 1.1
-10 12 9 4.92 1.33
-2 12 -9 4.64 1.55
10 2 9 11.6 1.47
-12 10 9 9.2 2
-10 -2 9 8.55 1.34
10 -12 -9 11.55 1.59
12 -10 9 10.66 1.23
-10 -2 9 15.08 2.56
-10 12 -9 7.43 1.78
-12 10 9 10.57 1.49
2 10 -9 9.37 1.64
-10 12 -9 8.58 1.34
2 -12 9 9.45 1.33
12 -2 -9 7.19 1.16
-10 12 -9 9.28 2.13
-12 2 -9 7.87 1.82
11 -12 9 4.83 0.94
-12 1 9 6.65 2.21
-12 11 -9 4 1.16
-12 1 9 5.58 1.25
-1 -11 9 6.1 1.24
-12 11 -9 1.51 1.31
-1 12 -9 2.3 1.45
-11 12 9 4.47 1.85
1 11 9 5 0.98
12 -11 -9 5.12 1.02
-12 11 -9 7.47 2.11
1 11 9 4.96 1.05
-11 12 9 3.01 1.17
12 -1 9 6.22 1.04
-11 -1 9 11.48 2.42
-12 11 9 6.19 1.3
-11 12 -9 8.82 2.04
11 1 9 7.85 1.35
1 11 -9 7.73 1.67
12 -11 9 7.4 1.07
11 1 9 4.77 1
12 -1 -9 9.61 1.2
11 -12 -9 8.8 1.22
11 -12 -9 7.8 1.48
-11 12 -9 8.9 1.35
-11 -1 9 7.21 1.29
-12 11 9 9.65 2.1
1 -12 9 7.06 1.25
0 12 -9 -0.87 1.32
0 12 9 0.6 0.83
-12 12 -9 -1.4 1.56
12 -12 9 -0.19 0.71
-12 12 -9 -0.22 1.26
12 0 9 0.74 0.93
-12 12 9 -0.19 1.46
12 0 -9 -0.14 0.79
-12 0 9 0.8 1.74
-12 12 9 0.32 1.09
12 -12 -9 1.07 0.91
12 0 9 -0.99 1.01
-12 12 -9 0.31 0.96
-12 0 9 -0.7 0.98
0 -12 9 0.04 0.98
-7 13 9 4.24 1.94
-13 7 -9 5.13 1.75
-6 13 -9 4.46 1.14
7 6 -9 2.38 1.22
6 7 9 5.6 1.04
-13 6 9 3.9 1.89
-6 -7 9 3.69 0.96
13 -6 9 4.93 1.04
13 -7 -9 5.06 1.05
7 -13 9 6.77 1.14
-6 -7 9 6.18 2.08
-6 13 -9 3.05 1.48
-6 13 9 0.72 1.63
6 -13 9 6.14 1.22
13 -7 9 5.41 1.13
7 6 9 4.44 1.05
-7 -6 9 5.35 1.17
-13 6 -9 5.42 1.84
-13 7 9 1.51 1.74
13 -6 -9 3.85 1.02
-7 13 -9 1.88 1.36
-13 7 9 2.47 1.55
6 7 -9 3.21 1.32
-7 13 -9 4.56 1.17
-7 -6 9 3.76 1.83
-5 -8 9 1.86 1.7
-13 5 9 2.01 1.99
-5 -8 9 0.36 0.75
13 -8 -9 2.25 0.92
8 -13 9 2.46 1.04
5 8 9 1.43 0.83
8 5 -9 2.56 1.35
13 -5 9 3.2 1.01
-8 13 9 -0.24 1.22
-5 13 -9 -0.28 1.26
-13 8 -9 2.55 1.59
-5 13 -9 2.03 0.96
-8 13 9 1.65 1.72
-13 5 9 0.93 1.06
5 8 9 2.3 0.85
13 -8 9 2.56 0.94
8 5 9 2.35 1.01
-13 8 9 1.27 1.08
-8 13 -9 0.59 1.18
-13 8 9 1.62 1.51
5 8 -9 1.93 1.24
-8 -5 9 2.85 1.08
-13 5 -9 3.47 1.66
-8 -5 9 3.19 1.9
8 5 9 1.98 0.8
13 -5 -9 1.51 0.93
5 -13 9 2.07 1.06
-8 13 -9 1.78 1.08
13 -4 9 4.06 1.02
-13 9 -9 3.47 1.71
-13 4 9 4.48 2.08
9 -13 9 4.44 0.93
4 9 9 3.02 0.85
13 -9 -9 2.85 0.98
-13 9 -9 1.77 1.29
-4 -9 9 -0.34 1.96
-13 4 9 2.62 1.15
-4 13 -9 0.02 1.19
-9 13 9 2.42 1.34
4 9 9 3.66 1.02
9 4 -9 0.9 1.29
-9 13 9 1.48 1.61
13 -9 9 3.86 1
-9 -4 9 4.59 1.86
9 4 9 4.84 1.16
-9 13 -9 0.94 1.37
4 9 -9 3.71 1.38
13 -4 -9 4.3 1.09
-9 13 -9 2.86 1.46
-9 13 -9 1.95 1.02
-13 4 -9 3.53 1.61
9 4 9 3.85 0.94
-13 9 9 2.47 1.6
-9 -4 9 4.89 1.22
4 -13 9 4.76 1.16
-13 9 9 2.31 1.17
-13 3 9 10.37 2.28
-10 13 9 12.04 2.36
10 -13 9 11.7 1.62
-13 10 -9 6.62 1.62
3 10 9 12.47 1.63
-10 13 9 7.02 1.5
13 -3 9 14.59 1.72
-3 -10 9 8.76 1.25
13 -10 -9 12.68 1.65
3 10 9 13.44 1.61
-3 13 -9 8.64 1.72
-13 10 -9 15.55 2.5
-10 -3 9 15.46 1.93
-10 13 -9 11.71 1.82
13 -10 9 17.41 1.83
-13 10 9 15.05 2.63
3 -13 9 18.44 2.03
-13 10 9 14.64 2.04
-13 3 -9 15.71 2.55
-10 13 -9 10.95 2
13 -3 -9 18.74 1.91
3 10 -9 17.52 2.48
-10 -3 9 19.49 3.06
10 3 9 14.97 2.13
10 3 9 15.71 1.89
-11 13 9 2 1.65
13 -11 -9 2.28 0.98
2 11 9 1.04 0.91
-13 11 -9 0.84 1.01
-13 11 -9 -0.86 1.25
11 -13 9 0.61 0.78
-13 2 9 1.04 1.8
2 -13 -9 -0.24 0.81
13 -2 9 1.47 0.87
-13 2 9 0.44 1.1
-11 13 9 0.9 1.11
-2 -11 9 0.77 0.99
13 -2 9 0.38 0.88
-2 13 -9 -1.13 1.23
-13 11 -9 0.68 1.73
2 11 9 1.65 0.89
-11 -2 9 -0.09 0.93
-11 13 -9 1.18 1.46
2 -13 9 1.81 1.05
-13 2 -9 -0.35 1.31
11 2 9 -0.1 1.12
-13 11 9 -0.18 1.5
11 2 9 1.5 0.99
11 -13 -9 2.17 0.97
13 -2 -9 0.28 0.92
2 11 -9 -1.06 1.31
-11 13 -9 -0.38 1.26
-13 11 9 -0.13 0.99
-11 -2 9 1.1 1.84
-11 13 -9 0.27 0.89
13 -11 9 0.79 0.88
-13 1 9 2.39 1.83
-12 13 9 2 1.09
-13 12 -9 3.76 1.69
-1 -12 9 4.05 1.11
-12 13 9 3.05 1.74
13 -12 -9 4.59 1.03
12 1 -9 2.32 0.81
-13 12 -9 1.41 1.3
-1 13 -9 2.3 1.53
-13 12 -9 3.94 1.18
-13 1 9 3.05 1.15
1 12 9 3.82 0.99
13 -1 9 3.92 1.07
12 -13 9 3.28 0.88
1 12 9 3.61 0.95
13 -1 9 2.98 1.06
-13 12 9 2.96 1.67
-12 13 -9 1.7 1.45
13 -1 -9 4.33 1.05
1 -13 9 4.65 1.13
-12 -1 9 1.81 1.76
-13 12 9 2.06 1.04
12 -13 -9 3.83 0.99
-12 13 -9 3.15 1.08
-12 13 -9 2.14 1.34
13 -12 9 2.74 0.9
1 12 -9 0.94 1.38
12 1 9 3.41 1.05
-12 -1 9 3.91 1.16
12 1 9 3.12 1.21
0 13 9 15.91 1.68
-13 0 9 17.74 2.08
-13 13 -9 14.65 2.64
-13 13 9 18.94 2.97
13 -13 9 15.51 1.71
13 0 -9 18.22 2
-13 13 -9 14.31 2.07
0 -13 9 19.39 1.99
0 13 -9 15.2 2.3
13 0 9 14.88 1.81
13 -13 -9 18.92 1.9
13 0 9 16.27 1.98
-13 13 9 17.44 2.03
-13 0 9 17.49 3.16
-7 -7 9 4.86 1.14
-7 14 -9 3.79 1.1
-14 7 9 1.77 0.8
7 7 9 4.86 1.01
14 -7 -9 5.2 1.06
14 -7 9 4.02 0.99
-14 7 9 0.27 1.57
-7 -7 9 2.06 1.63
-7 14 9 0.17 3.07
-14 7 -9 3.43 1.67
-7 14 -9 0.95 1.34
7 7 -9 3.35 1.32
7 -14 9 6.11 1.13
7 7 9 2.89 0.79
-6 -8 9 0.44 0.65
8 6 -9 0.07 1.32
6 8 9 0.88 0.87
-14 6 9 0.82 0.97
-14 6 9 0.48 1.72
-6 14 -9 0.31 0.94
-14 8 -9 0.46 1.58
8 -14 9 1.07 0.94
6 8 9 0.49 0.82
14 -8 -9 0.44 0.92
-6 14 -9 -0.89 1.34
-8 14 9 -0.63 1.18
14 -6 9 1.08 0.9
-8 14 9 -0.52 1.57
-14 8 9 -0.51 1.27
-8 14 -9 0.74 0.97
-14 6 -9 1.36 1.67
14 -6 -9 1.85 0.94
-14 8 9 1.96 1.1
6 -14 9 1.22 1
-8 14 -9 -0.3 1.32
-8 -6 9 0.16 1.01
6 8 -9 0.98 1.37
14 -8 9 0.56 0.9
-8 -6 9 2.02 1.8
8 6 9 1.54 0.97
-9 14 9 2.62 1.85
-9 14 9 2.49 1.3
-14 5 9 1.5 1.06
-14 5 9 2.97 1.98
9 5 -9 0.53 1.22
14 -5 9 -0.03 0.74
9 -14 9 4.34 1.01
14 -5 9 1.9 0.91
-5 14 -9 1.07 1.17
-5 14 -9 2.42 0.92
5 9 9 2.84 1
-14 9 -9 3.89 1.81
5 9 9 3.89 0.88
14 -9 -9 4.16 1.02
-9 -5 9 2.54 1.07
-14 5 -9 4.33 1.7
-14 9 9 2.43 1.61
5 -14 9 4.07 1.11
-9 -5 9 2.75 1.93
5 9 -9 2.67 1.45
-9 14 -9 1.88 1
14 -9 9 3.11 0.94
-9 14 -9 1.65 1.38
9 5 9 4.33 1.15
-14 9 9 2.26 1.17
14 -5 -9 3.32 0.99
9 5 9 3.56 0.97
-10 14 9 2.37 1.3
-14 4 9 1.92 1.12
4 10 9 2.64 0.84
-10 14 9 1.34 1.69
-4 14 -9 2.65 0.69
-4 -10 9 2.01 0.91
4 10 9 3.45 1.01
10 4 -9 -0.51 1.07
14 -10 -9 2.81 0.9
-14 10 -9 2.61 1.7
14 -4 9 4.99 1.03
10 -14 9 2.04 0.83
14 -4 9 1.53 0.85
-14 4 9 5.54 2.13
-14 10 9 2.2 1.13
-10 -4 9 2.72 1.8
14 -10 9 2.76 0.89
10 4 9 3.12 1.14
4 10 -9 2.11 1.34
-10 -4 9 2.43 1.15
14 -4 -9 2.28 0.95
10 4 9 2.99 0.98
4 -14 9 4.28 1.13
-10 14 -9 1.44 1.28
-10 14 -9 2.6 1.04
-14 10 9 1.43 1.6
-14 4 -9 2.2 1.49
-14 11 -9 0.6 1.61
-14 11 -9 2.91 1.12
14 -3 9 4.29 0.98
-3 -11 9 2.22 1.01
14 -11 -9 2.58 0.92
11 -14 9 2.63 0.82
-14 3 9 3.02 1.94
3 11 9 2.31 0.91
-11 14 9 2.31 1.13
14 -3 9 2.7 0.94
-3 14 -9 -0.66 1.15
3 11 9 3.36 0.97
-14 3 9 1.32 1.06
-11 14 9 2.66 1.77
11 -14 -9 2.58 0.97
-14 11 9 2.19 1.14
11 3 9 3.28 1.02
-14 3 -9 -0.4 1.27
11 3 9 2.22 1.16
-14 11 9 -0.36 1.41
3 -14 9 2.38 1.03
14 -11 9 1.72 0.86
-11 -3 9 3.28 1.85
-11 14 -9 0.53 1.17
-11 -3 9 1.21 0.94
3 11 -9 1.21 1.48
14 -3 -9 1.67 0.95
-11 14 -9 2.49 1.06
14 -2 9 6.53 1.18
-14 2 9 5.71 1.23
2 12 9 5.52 1
2 -14 -9 5.41 1.08
-2 14 -9 2.6 1.39
-12 14 9 7.06 1.96
-12 14 9 6 1.24
14 -2 9 3.45 1.02
-14 2 9 8.36 2.27
-2 -12 9 7.75 1.21
-14 12 -9 6.74 1.27
12 -14 9 4.74 0.9
-14 12 -9 5.91 1.84
14 -12 -9 9.05 1.18
12 2 9 12.38 1.62
14 -12 9 9.17 1.27
-14 12 9 7.37 1.85
12 2 9 12.99 1.9
2 12 -9 8.3 1.87
-12 -2 9 6.26 2.04
14 -2 -9 12.67 1.44
-12 -2 9 11.27 1.51
2 -14 9 10.21 1.34
-14 12 9 11.79 1.54
-12 14 -9 11.92 1.47
12 -14 -9 11.96 1.73
-13 14 9 4.3 1.66
1 13 9 7.65 1.08
14 -13 -9 10.11 1.24
-13 14 9 11.23 1.52
-14 1 9 8.23 2.23
-1 14 -9 3.66 1.46
14 -1 9 7.28 1.24
13 -14 9 7.17 1.07
-14 1 9 11.2 1.45
-1 -13 9 9.95 1.3
13 1 -9 6.38 1.11
-14 13 -9 9.73 1.36
14 -1 9 4.75 1.31
1 -14 -9 7.18 1.24
13 1 9 6.52 1.21
-13 -1 9 5.17 1.16
-14 13 9 4.14 1.6
13 1 9 8.01 1.47
1 -14 9 8.04 1.21
1 13 -9 4.01 1.65
-13 -1 9 8.44 2.23
-13 14 -9 6.55 1.19
13 -14 -9 8.07 1.16
14 -13 9 5.01 0.99
-13 14 -9 5.08 1.53
-14 13 9 8.13 1.28
14 -1 -9 7.54 1.22
0 14 -9 -0.57 1.15
14 0 9 1.99 1.19
-14 0 9 0.84 0.94
0 -14 -9 1.92 0.94
-14 14 9 1.69 1.42
-14 14 -9 -0.19 1
14 -14 -9 3.25 0.98
0 -14 9 2.45 0.97
-14 0 9 1.2 1.82
14 0 9 2.16 1.01
14 -14 9 2.9 0.89
-14 14 -9 2.32 1.02
14 0 -9 2.05 0.93
-14 14 9 2.65 1.02
8 7 -9 -0.97 1.3
8 -15 9 1.25 0.96
7 8 9 0.57 0.85
15 -7 9 0.47 0.88
-7 -8 9 0.43 0.7
-15 7 9 0.4 0.88
7 8 9 0.87 0.79
15 -7 9 0.21 0.82
15 -8 -9 0.35 0.8
-8 15 9 -1.24 1.12
-15 8 -9 0.91 1.52
-7 15 -9 -0.44 1.16
-7 15 -9 0.86 1.04
-15 7 -9 0.52 1.58
-8 -7 9 1.14 1.01
8 7 9 1.03 0.83
15 -8 9 1.06 0.86
-15 8 9 0.02 0.64
15 -7 -9 1.02 0.82
7 -15 9 1.55 0.94
-15 8 9 0.47 0.71
7 8 -9 -0.63 1.31
8 7 9 1.09 0.83
-8 15 -9 -0.24 1.27
-8 15 -9 0.98 1
6 9 9 1.39 0.93
15 -6 9 0.3 0.86
-15 6 9 0.44 0.95
-15 9 -9 1.65 1.56
-6 15 -9 1.2 0.96
-9 15 9 0.18 1.55
-15 6 9 0.29 1.58
9 -15 9 0.51 0.85
15 -6 9 1.73 0.9
6 9 9 0.42 0.77
9 6 -9 -1.1 1.18
-9 15 9 0.73 1.21
15 -9 -9 0.78 0.85
-15 6 -9 1.3 1.54
15 -6 -9 0.2 0.9
9 6 9 0.22 0.75
-9 15 -9 0.23 1.25
-9 15 -9 0.66 1
15 -9 9 2.07 0.93
9 6 9 1.61 0.97
6 -15 9 1.95 1
-9 -6 9 0.58 1.04
-9 -6 9 0.08 1.95
6 9 -9 0.45 1.44
-15 9 9 0.5 1.05
-15 5 9 3.6 1.15
-10 15 9 2.19 1.58
-15 10 -9 2.49 1.73
15 -5 9 3.9 1.02
15 -10 -9 3.04 0.92
-5 -10 9 0.79 0.88
5 10 9 1.74 0.8
15 -5 9 1.74 0.95
-15 5 9 3.93 1.84
10 -15 9 2.49 0.93
-10 15 9 3.06 1.29
5 10 9 3.18 1.02
-5 15 -9 2.27 0.91
15 -10 9 3.49 1.02
-10 15 -9 3.15 1.09
10 5 9 4.2 1.04
-15 10 9 -0.09 1.36
-15 5 -9 2.58 1.55
-10 -5 9 0.28 1.51
5 10 -9 1.84 1.51
-10 15 -9 2.35 1.39
5 -15 9 4.15 1.1
15 -5 -9 3.6 0.98
10 5 9 4.11 1.14
-10 -5 9 2.85 1.09
-15 10 9 2.88 1.17
4 -15 -9 2.16 0.97
-15 4 9 1.52 1.04
11 -15 9 1.04 0.81
15 -4 9 1.32 0.86
4 11 9 0.26 0.81
15 -11 -9 1.66 0.88
-4 -11 9 0.78 0.9
15 -4 9 1.14 0.94
-15 11 -9 0.4 1.54
-11 15 9 1.38 1.55
-15 4 9 1.51 1.71
4 11 9 2.11 0.9
-11 15 9 0.98 1.08
4 -15 9 3.31 1.04
11 4 9 3.57 1.02
-11 15 -9 0.87 1.22
-11 15 -9 3.04 1.1
-15 11 9 2.34 1.12
-11 -4 9 0.81 1
4 11 -9 -0.49 1.35
11 4 9 3.14 1.15
11 -15 -9 2.88 1.01
-15 11 9 0.16 1.2
15 -4 -9 2.93 1.01
15 -11 9 2.59 0.92
-11 -4 9 1.31 1.57
-15 4 -9 -0.27 1.37
-15 3 9 0.32 0.98
-12 15 9 0.94 1.43
3 12 9 0.58 0.86
-15 3 9 1.17 1.7
-12 15 9 0.37 1.01
3 -15 -9 0.6 0.93
15 -12 -9 -0.08 0.75
12 3 -9 -0.04 0.53
15 -3 9 0.19 0.99
-15 12 -9 0.48 1.37
-3 -12 9 0.55 0.89
12 -15 9 0.64 0.74
3 12 9 0.29 0.83
-15 12 -9 1.21 1.07
-12 15 -9 0.22 1.19
15 -3 -9 1.5 0.98
-12 -3 9 0.72 1.65
12 3 9 1.02 1.12
12 3 9 1.69 0.97
3 -15 9 1.1 0.96
12 -15 -9 2.26 0.99
-12 15 -9 1.37 0.96
15 -12 9 1.02 0.82
-12 -3 9 0.23 0.88
3 12 -9 -1.52 1.4
-15 12 9 0.66 1.01
-15 12 9 1.05 1.37
-15 2 9 5.16 1.92
-15 13 -9 2.98 0.98
2 13 9 5.77 1.01
2 13 9 3.51 0.92
15 -2 9 4.44 1.13
13 -15 9 3.53 0.87
15 -2 9 3.14 1.07
13 2 -9 3.82 0.95
2 -15 -9 5.15 1.11
-2 -13 9 5.11 1.1
15 -13 -9 4.92 1.01
-15 2 9 5.62 1.13
-13 15 9 5.14 1.11
-13 15 9 2.77 1.46
-15 2 -9 4.28 0.99
15 -13 9 6.97 1.07
-13 -2 9 6.7 1.22
-15 13 9 4.95 1.16
2 13 -9 1.94 1.4
13 2 9 6.76 1.38
2 -15 9 6.46 1.15
13 2 9 6.33 1.19
15 -2 -9 6.5 1.23
13 -15 -9 9.41 1.2
14 1 -9 11.93 1.69
15 -1 9 10.98 1.58
-1 -14 9 14.14 1.76
15 -1 9 12.51 1.89
14 -15 9 14.22 1.6
-15 14 -9 15.2 1.77
15 -14 -9 13.83 1.79
-15 1 9 13.09 1.81
-14 15 9 13.26 1.66
1 -15 -9 14.09 1.69
1 -15 9 14.57 1.49
14 1 9 12.33 1.65
-15 14 9 10.55 1.67
15 -14 9 11.63 1.6
14 -15 -9 11.18 1.34
14 1 9 10.17 1.41
15 -1 -9 8.52 1.31
-14 -1 9 10.79 1.72
-14 15 -9 10.89 1.64
15 0 9 14.14 1.83
15 -15 -9 15.49 1.81
15 -15 9 13.23 1.7
-15 0 9 14.9 1.81
15 0 9 14.02 2.05
-15 15 9 14.28 1.69
0 -15 -9 14.8 1.75
15 0 -9 14.64 1.75
0 -15 9 13.94 1.77
-8 16 9 -0.14 0.85
-16 8 -9 -0.74 1.38
-8 -8 9 0.43 0.65
8 8 9 0.02 0.83
16 -8 -9 0.65 0.85
-16 8 9 0.12 0.77
16 -8 9 -0.07 0.83
8 -16 9 0.66 0.89
-8 16 -9 1.35 1.02
16 -8 9 0.14 0.99
8 8 9 -0.1 0.77
16 -7 9 1.52 0.83
9 -16 9 2.91 0.91
-16 9 -9 1.7 1.59
7 9 9 1.86 0.83
-7 16 -9 0.83 0.96
16 -7 9 1.91 1.02
7 9 9 1.88 0.91
16 -9 -9 2.93 0.84
-16 7 9 1.72 0.88
-9 16 9 0.56 1.13
-16 9 9 2.21 0.96
-9 16 -9 3.75 1.11
-9 16 -9 -0.31 1.03
-16 7 -9 2.39 1.44
9 7 9 1.8 0.92
7 -16 9 3.06 0.96
-9 -7 9 0.39 0.97
9 7 9 2.47 0.88
16 -9 9 0.13 0.84
16 -9 9 2.49 0.88
16 -7 -9 3.31 0.96
-16 10 -9 -0.09 1.43
-16 6 9 2.23 1
-10 16 9 0.63 1.09
16 -6 9 0.58 0.85
6 10 9 1.6 0.96
6 -16 -9 0.6 0.69
10 -16 9 0.67 0.83
16 -10 -9 1.94 0.84
-6 16 -9 2.05 0.97
6 10 9 0.99 0.77
-6 -10 9 -0.29 0.8
16 -6 9 0.88 0.9
-10 16 -9 0.05 1.07
-10 16 -9 1.81 0.95
-10 -6 9 0.75 0.98
6 10 -9 -1.23 1.18
-16 6 -9 -0.35 1.18
16 -6 -9 1.2 0.85
-16 10 9 1.18 1.08
10 6 9 1.08 0.95
6 -16 9 0.83 0.87
10 6 9 0.18 0.75
16 -10 9 1.76 0.87
-16 11 -9 -0.17 1.35
-5 -11 9 -0.52 0.83
11 -16 9 0.32 0.76
5 11 9 0.01 0.76
-11 16 9 -0.02 1.06
16 -11 -9 0.39 0.8
-5 16 -9 -0.95 0.56
16 -5 9 0.15 0.93
-16 5 9 0.07 0.91
-16 5 9 0.45 2.7
5 11 9 0.11 0.84
5 -16 -9 0.13 0.98
16 -5 -9 -0.17 0.97
-16 11 9 0.13 1.05
-11 16 -9 1.22 0.93
11 5 9 0.38 1.01
11 -16 -9 0.7 0.93
-11 16 -9 -1.2 1
16 -11 9 0.51 0.8
5 11 -9 -2.58 1.21
-11 -5 9 0.04 0.94
5 -16 9 0.12 0.89
16 -12 -9 0.68 0.8
-16 4 9 0.63 0.93
-16 4 9 0.16 1.67
4 -16 -9 -0.16 0.94
12 -16 9 -0.01 0.72
-4 -12 9 0.1 0.87
4 12 9 -0.08 0.81
16 -4 9 0.64 0.96
4 12 9 0.2 0.8
-12 16 9 1.09 1.01
12 4 9 1.09 0.87
-16 4 -9 1.17 0.84
-16 12 9 0.41 1.04
4 12 -9 -1.27 1.13
12 4 9 0.89 1.06
16 -12 9 0.12 0.78
-12 16 -9 -0.96 0.96
-12 16 -9 1.1 0.86
16 -4 -9 -0.67 0.87
12 -16 -9 0.61 0.93
-12 -4 9 -0.32 0.94
4 -16 9 0.87 0.93
3 13 9 11.58 1.25
-3 -13 9 5.83 1.12
3 -16 -9 7.26 1.2
-13 16 9 9.63 1.51
16 -3 9 6.23 1.2
16 -13 -9 8.02 1.06
3 13 9 6.72 1.05
13 -16 9 7.56 1.06
-16 3 9 9.18 1.27
-16 13 -9 8.58 1.45
-13 -3 9 4.77 1.14
3 -16 9 8.01 1.15
-16 3 -9 5.43 1.05
-16 13 9 5.62 1.16
-13 16 -9 6.98 1.07
13 3 9 6.32 1.1
16 -13 9 4.71 0.97
16 -3 -9 6.42 1.16
13 -16 -9 7.03 1.14
13 3 9 9.2 1.4
-16 14 -9 2.55 0.91
-2 -14 9 1.84 0.9
-16 2 9 2.75 0.97
16 -14 -9 2.98 0.88
-14 16 9 2.86 0.92
14 2 -9 2.44 0.93
16 -2 9 3.18 1.05
2 -16 -9 2.09 0.93
16 -2 9 3.17 1.04
14 -16 9 2.44 0.83
-14 -2 9 1.41 0.91
14 2 9 2.26 0.93
14 -16 -9 1.78 0.95
-16 14 9 2.63 0.98
16 -2 -9 2.18 0.96
-14 16 -9 3.2 0.85
2 -16 9 3.22 0.99
16 -14 9 1.7 0.84
14 2 9 2.83 1.22
15 -16 9 1.13 0.8
-1 -15 9 1.88 0.9
16 -1 9 0.86 1.06
16 -1 9 0.81 0.94
-16 15 -9 2.55 0.87
-16 1 9 0.88 0.85
1 -16 -9 0.94 0.84
16 -15 -9 2.27 0.8
15 1 -9 0.82 0.89
-15 16 9 2.37 0.89
15 1 9 2.42 0.91
15 1 9 2.08 1.2
16 -1 -9 1.75 0.92
-15 -1 9 1.86 0.91
-1 -15 -9 1.27 0.89
-16 15 9 2.12 0.95
1 -16 9 3.02 0.91
-15 16 -9 1.54 0.76
15 -16 -9 2.25 0.89
16 -15 9 2.28 0.81
-16 16 -9 1.01 0.79
-16 16 9 1.01 0.83
16 0 9 0.61 0.88
16 -16 9 1.02 0.76
0 -16 9 1.91 0.84
16 -16 -9 1.08 0.8
16 0 9 1.24 1.06
-16 0 9 0.52 0.82
0 -16 -9 1.36 0.84
16 0 -9 0.21 0.83
-8 17 -9 3.26 0.94
17 -8 9 5.54 0.99
17 -8 9 3.82 1.1
-17 8 9 2.63 0.85
-9 17 9 3.18 1.1
8 9 9 4.09 0.89
-17 9 -9 -0.09 1.6
9 -17 9 5.66 1
17 -9 -9 5.84 0.98
8 9 9 3.87 0.99
9 8 9 4.81 0.96
17 -8 -9 5.4 0.98
17 -9 9 3.07 1.11
-9 17 -9 5.36 1.1
9 8 9 2.46 0.95
17 -9 9 5.23 0.98
8 -17 9 4.8 1.01
-17 7 9 0.46 0.78
17 -7 9 -0.83 0.72
7 10 9 0.35 0.9
17 -10 -9 0.01 0.76
17 -7 9 -0.44 0.85
10 -17 9 0.33 0.77
-7 17 -9 0.75 0.79
7 10 9 0.03 0.72
-10 17 9 -0.16 1.01
7 -17 -9 0.35 0.7
-7 -10 9 -0.52 0.67
17 -7 -9 0.18 0.8
-10 17 -9 1.19 0.83
7 -17 9 0.32 0.84
17 -10 9 0.51 0.91
10 7 9 0.04 0.81
-10 -7 9 0.43 0.88
10 7 9 0.65 0.85
17 -10 9 -0.2 0.76
-17 10 9 1.04 0.91
6 -17 -9 3.66 1.04
-6 -11 9 3.08 0.88
11 -17 9 3.13 0.84
-11 17 9 3.65 1.12
-17 6 9 3.7 0.97
17 -6 9 1.99 1
17 -11 -9 3.56 0.85
6 11 9 2.54 0.79
6 11 9 3.87 0.92
-17 6 -9 2.86 0.85
11 6 9 2.65 0.98
-17 11 9 2.8 1.03
6 -17 9 2.84 0.91
-11 17 -9 2.16 0.84
17 -11 9 0.08 0.98
17 -11 9 2.29 0.88
11 -17 -9 3.63 0.97
-11 -6 9 1.66 0.94
11 6 9 0.1 0.71
17 -6 -9 4.37 1.01
5 12 9 1.46 0.77
-5 -12 9 0.7 0.83
17 -12 -9 0.73 0.74
17 -5 9 0.89 0.94
12 -17 9 0.65 0.73
-12 17 9 1.75 1
5 -17 -9 1.29 1.01
5 12 9 0.69 0.82
-17 5 9 2.6 0.92
12 -17 -9 1.99 0.95
-12 -5 9 1.92 0.95
17 -5 -9 0.52 0.85
-12 17 -9 2.92 0.89
5 -17 9 2.48 0.91
-17 12 9 1.33 1.01
12 5 9 1.74 1.03
-17 5 -9 1.93 0.86
17 -12 9 2.89 0.88
4 13 9 1.99 0.78
-17 4 9 3.09 0.95
13 -17 9 2.61 0.76
-4 -13 9 1.79 0.85
4 13 9 2.83 0.83
17 -4 9 2.51 1.01
-13 17 9 3.48 1.03
17 -13 -9 3.14 0.84
4 -17 -9 1.55 0.99
-13 -4 9 1.73 0.94
-17 4 -9 2.55 0.9
4 -17 9 3.24 0.97
-13 17 -9 2.14 0.77
-17 13 9 2.4 1.01
13 -17 -9 3.36 0.96
17 -13 9 2.03 0.84
13 4 9 2.74 1.09
17 -4 -9 3.26 1.01
-3 -14 9 2.74 0.92
-17 14 -9 3.65 0.91
17 -14 -9 5.46 0.94
3 -17 -9 3.45 0.98
14 -17 9 3.55 0.83
17 -3 9 3.04 1.05
14 3 -9 2.78 0.83
-17 3 9 5.32 1.03
-14 17 9 5.71 1.03
17 -3 -9 2.91 0.91
-17 3 -9 2.53 0.83
-14 17 -9 3.02 0.78
14 3 9 4.44 1.17
14 3 9 1.97 0.85
17 -14 9 2.58 0.85
-14 -3 9 2.47 0.96
-17 14 9 2.58 0.99
3 -17 9 3.3 0.94
14 -17 -9 4.09 0.97
-2 -15 9 4.64 0.95
-17 15 -9 3.92 0.94
15 2 -9 4.39 0.99
15 -17 9 2.73 0.86
2 -17 -9 3.91 0.93
17 -2 9 4.51 1.01
17 -15 -9 5.02 0.9
-15 17 9 4.88 0.97
17 -2 9 3.84 0.97
-17 2 9 3.11 0.9
-17 15 9 5.17 1.01
15 2 9 4.18 0.94
17 -2 -9 4.11 1
-15 17 -9 5.33 0.92
15 2 9 4.5 1.23
15 -17 -9 4.34 0.99
-2 -15 -9 4.86 0.99
2 -17 9 6.05 1.04
-15 -2 9 5.06 1.06
-17 16 -9 3.99 0.87
-17 1 9 2.74 0.86
1 -17 -9 2.97 0.85
17 -1 9 2.79 0.92
16 1 -9 2.86 0.92
-16 17 9 5.48 0.96
17 -1 9 3.75 1.02
-1 -16 9 2.87 0.82
17 -16 -9 3.53 0.87
16 -17 9 3.18 0.81
-1 -16 -9 3.94 0.86
17 -16 9 3.65 0.86
-17 16 9 4.74 0.92
16 1 9 5.05 1.15
17 -1 -9 2.77 0.9
-16 -1 9 3.44 0.94
16 1 9 2.35 0.85
-16 17 -9 3.2 0.83
16 -17 -9 3.5 0.87
1 -17 9 4.86 0.96
17 -17 -9 3.54 0.82
0 -17 -9 3.58 0.81
-17 0 9 3.67 0.86
17 0 -9 3.74 0.94
17 0 9 3.35 0.84
17 0 9 3.56 0.96
17 -17 9 2.42 0.76
-17 17 9 2.65 0.8
0 -17 9 3.07 0.8
-17 17 -9 4.42 0.8
9 -18 9 0.14 0.7
18 -9 9 0.37 0.88
-9 18 -9 0.1 0.75
18 -9 9 0.55 0.73
18 -9 -9 0.38 0.7
-18 9 9 0.93 0.64
9 9 9 0.32 0.71
9 9 9 -0.42 0.82
8 10 9 2.82 0.91
18 -8 9 2.46 0.81
-18 8 9 2.05 0.75
10 -18 9 1.92 0.75
18 -8 9 1.89 0.9
18 -10 -9 2.18 0.74
-10 18 9 2.39 0.97
8 10 9 2.14 0.76
8 -18 -9 0.39 0.64
-8 18 -9 1.85 0.76
-10 18 -9 1.8 0.81
10 8 9 1.01 0.77
10 8 9 1.07 0.88
8 -18 9 2.48 0.84
18 -10 9 1.61 0.79
18 -10 9 1.62 0.99
-18 8 -9 2.01 0.77
18 -8 -9 2.34 0.87
-11 18 9 0.91 0.91
7 -18 -9 0.09 0.85
-11 -7 -9 -0.34 0.66
-7 -11 9 0.42 0.72
11 -18 9 1.06 0.71
7 11 9 1.22 0.7
7 11 9 0.67 0.82
-18 7 9 1.06 0.77
18 -11 -9 1.29 0.73
18 -7 9 1.16 0.89
-18 7 -9 2.3 0.8
7 -18 9 1.53 0.81
18 -11 9 0.53 0.73
18 -11 9 1.44 0.86
11 7 9 1.18 0.8
-11 -7 9 0.69 0.65
18 -7 -9 1.94 0.81
11 7 9 0.79 0.83
-11 18 -9 1.19 0.74
11 -18 -9 1.67 0.87
-18 11 9 0.24 0.65
6 12 9 5.45 0.96
6 12 9 3.2 0.79
18 -6 9 2.82 0.94
-18 6 9 3.38 0.9
6 -18 -9 4.16 0.99
18 -12 -9 3.27 0.8
-6 -12 9 3.25 0.84
-12 18 9 3.6 1.04
12 -18 9 2.42 0.75
18 -12 9 0.08 1.24
12 -18 -9 1.88 0.89
12 6 9 2.05 0.86
-18 12 9 2.61 0.93
-18 6 -9 1.82 0.8
18 -6 -9 2.52 0.88
-12 18 -9 1.52 0.75
-12 -6 9 1.25 0.86
18 -12 9 2.21 0.79
6 -18 9 1.9 0.79
5 -18 -9 6.14 1.11
5 13 9 7.84 1.02
-13 18 9 7.19 1.13
18 -5 9 8.34 1.24
-5 -13 9 4.59 0.91
5 13 9 6.8 0.95
18 -13 -9 8.84 1.26
-18 5 9 9.66 1.41
13 -18 9 6.62 0.94
-13 18 -9 7.54 1.02
-13 -5 9 4.27 1.02
13 5 9 8.6 1.15
18 -5 -9 10.02 1.18
13 -18 -9 5.01 1.02
-18 5 -9 6.95 1.01
-18 13 9 6.07 1.05
5 -18 9 5.85 0.96
18 -13 9 7.09 1.02
-18 4 9 2.2 0.81
4 14 9 -0.45 0.55
18 -14 -9 1.31 0.76
14 -18 9 1.34 0.7
-4 -14 9 0.65 0.76
4 -18 -9 0.88 0.89
18 -4 9 2.4 0.98
-14 18 9 2.18 0.84
-18 14 9 1.83 0.86
14 -18 -9 1.77 0.85
18 -4 -9 2.17 0.84
14 4 9 3.1 1.02
18 -14 9 1.69 0.74
4 -18 9 3.15 0.84
-14 -4 9 2.03 0.85
-18 4 -9 1.82 0.75
-14 18 -9 2.16 0.74
15 3 -9 0.32 0.6
-15 18 9 2.92 0.85
-18 15 -9 -0.81 0.65
3 -18 -9 1.06 0.82
15 -18 9 0.7 0.73
-18 3 9 2.47 0.8
18 -3 9 1.06 0.83
-18 15 -9 1.11 0.65
18 -15 -9 1.53 0.77
-3 -15 9 1.88 0.77
-15 18 -9 2.19 0.73
15 -18 -9 1.76 0.79
18 -15 9 0.54 0.7
-3 -15 -9 1.56 0.78
18 -3 -9 1.71 0.81
15 3 9 2.07 1.04
-18 15 9 1.89 0.79
3 -18 9 1.83 0.77
-15 -3 9 1.34 0.8
-16 18 9 1.23 0.73
18 -2 9 1.26 0.79
2 -18 -9 -0.07 0.75
-18 2 9 0.9 0.73
16 2 -9 -0.02 0.76
18 -2 9 0.15 0.78
18 -16 -9 0.48 0.69
-18 16 -9 -0.18 0.5
-18 16 -9 -0.01 0.68
16 -18 9 0.6 0.65
-2 -16 9 0.74 0.71
2 -18 9 0.81 0.74
18 -16 9 0.12 0.65
16 2 9 -0.18 0.71
16 2 9 0.96 0.97
-2 -16 -9 1.01 0.73
16 -18 -9 1.19 0.67
18 -2 -9 0.67 0.76
-16 18 -9 0.7 0.64
-18 16 9 1.07 0.75
-16 -2 9 0.75 0.78
18 -1 9 1.5 0.66
17 -18 9 0.28 0.63
18 -17 -9 1.68 0.69
-18 1 9 1.47 0.75
17 1 -9 0.94 0.93
18 -1 9 1.69 0.79
1 -18 -9 0.9 0.75
-1 -17 9 1.35 0.72
-18 17 -9 1.69 0.67
-17 18 9 2.77 0.75
-18 17 9 1.2 0.7
-17 -1 9 1.68 0.77
-1 -17 -9 1.39 0.71
17 1 9 3.04 0.94
18 -17 9 0.93 0.64
17 1 9 2.18 0.75
18 -1 -9 1.9 0.82
1 -18 9 2.07 0.75
-17 18 -9 2.5 0.71
17 -18 -9 1.88 0.7
-18 0 9 4.09 0.85
18 0 -9 5.44 1.01
-18 18 -9 4.9 0.77
18 0 9 4.69 0.89
18 0 9 3.5 0.79
0 -18 9 3.87 0.83
-18 18 9 5.74 0.86
0 -18 -9 5.29 0.86
-9 19 -9 2.8 0.79
-19 9 9 4.13 0.73
-19 10 -9 5.91 0.9
9 10 9 4.31 0.9
19 -9 9 3.71 0.91
9 10 9 2.64 0.7
19 -10 -9 4.43 0.78
10 -19 9 2.52 0.72
19 -10 9 2.82 0.87
9 -19 9 3.88 0.78
19 -10 9 4.69 0.84
10 -19 -9 5.36 0.91
10 9 9 3.65 0.8
-10 19 -9 3.89 0.82
10 9 9 6.03 0.98
19 -8 9 0.59 0.8
-11 19 9 2 0.8
-19 8 9 1.62 0.67
11 -19 9 1.12 0.67
-8 -11 9 -0.12 0.64
19 -11 -9 2.21 0.73
8 -19 -9 0.44 0.63
-19 11 -9 3.45 0.8
8 11 9 2.05 0.82
8 11 9 2.13 0.71
11 -19 -9 1.65 0.85
19 -8 -9 1.73 0.73
19 -11 9 1.36 0.81
-11 19 -9 1.42 0.76
11 8 9 1.56 0.74
-19 8 -9 1.71 0.73
11 8 9 1.51 0.85
19 -11 9 1.12 0.72
8 -19 9 2 0.77
-12 19 9 3.34 0.9
19 -12 -9 3.74 0.77
7 -19 -9 4.84 0.93
7 12 9 3.82 0.85
12 -19 9 3.92 0.76
19 -7 9 4.19 0.95
7 12 9 3.74 0.77
-12 -7 -9 2.94 0.7
-7 -12 9 3.77 0.78
-19 7 9 4.68 0.86
-19 12 -9 4.65 0.84
12 7 9 6.42 0.95
7 -19 9 5 0.92
-19 7 -9 4.56 0.84
-12 19 -9 5.76 0.92
19 -7 -9 5.98 0.94
12 -19 -9 4.32 0.95
19 -12 9 4.88 0.89
-19 6 9 1.48 0.72
6 13 9 0.88 0.6
19 -13 -9 1.3 0.67
-13 19 9 1.6 0.79
6 -19 -9 0.68 0.79
6 13 9 1.27 0.71
-6 -13 9 0.77 0.68
13 -19 9 1.41 0.63
-13 -6 -9 0.61 0.69
-19 13 -9 0.87 0.69
19 -6 9 1.51 0.92
-19 6 -9 1.05 0.67
19 -13 9 0.28 0.67
-13 19 -9 0.96 0.68
13 6 9 0.94 0.77
19 -6 -9 0.22 0.72
6 -19 9 0.34 0.68
-19 13 9 1.2 0.73
13 -19 -9 0.81 0.69
-13 -6 9 0.1 0.52
-19 14 -9 3.67 0.78
-14 19 9 2.32 0.83
19 -5 9 2.72 0.92
14 -19 9 2.09 0.69
-19 5 9 2.02 0.74
19 -14 -9 3.16 0.76
-5 -14 9 1.5 0.68
-14 -5 -9 1.64 0.7
5 -19 -9 1.76 0.79
-19 14 9 1.66 0.75
19 -14 9 1.77 0.68
14 -19 -9 1.54 0.71
5 -19 9 2.09 0.74
-14 19 -9 2.96 0.74
-19 5 -9 1.3 0.69
14 5 9 1.91 0.84
19 -5 -9 2.4 0.76
-14 -5 9 1.37 0.73
15 -19 9 1.52 0.68
4 -19 -9 0.95 0.74
-15 19 9 2.15 0.76
19 -15 -9 2.26 0.72
-15 -4 -9 0.85 0.68
19 -4 9 1.11 0.81
-4 -15 9 1.64 0.73
-19 4 9 1.79 0.71
-19 15 -9 1.21 0.63
-15 -4 9 1.8 0.77
-19 15 9 1.46 0.7
19 -15 9 1.35 0.66
15 4 9 2.74 0.88
19 -4 -9 1.46 0.73
4 -19 9 2.12 0.73
-15 19 -9 2.3 0.68
-4 -15 -9 1.92 0.74
15 -19 -9 1.88 0.73
19 -16 -9 0.29 0.67
-16 19 9 0.53 0.7
-16 -3 -9 0 0.59
3 -19 -9 -0.26 0.69
19 -3 9 -0.18 0.72
-19 3 9 0.34 0.65
-3 -16 9 0.11 0.65
16 -19 9 0.29 0.57
19 -16 9 0.29 0.62
-16 19 -9 0.7 0.64
-3 -16 -9 0.17 0.64
-19 16 9 0.89 0.63
-16 -3 9 0.55 0.72
16 -19 -9 1.15 0.67
3 -19 9 0.02 0.69
19 -3 -9 0.06 0.72
16 3 9 0.53 0.82
2 -19 -9 0.88 0.7
17 -19 9 0.07 0.4
19 -17 -9 0.79 0.56
19 -2 9 1.27 0.78
17 2 -9 0.1 0.65
-17 19 9 1.24 0.66
-2 -17 9 1.28 0.71
-19 2 9 1.25 0.73
19 -17 9 -0.12 0.42
17 2 9 1.95 0.88
19 -2 -9 1.45 0.8
-19 17 9 0.95 0.61
-17 19 -9 1.58 0.59
-17 -2 9 0.5 0.66
-2 -17 -9 0.4 0.65
17 -19 -9 0.02 0.6
2 -19 9 -0.41 0.66
-18 19 9 6.16 1.04
-1 -18 9 4.74 0.9
-19 1 9 5.66 0.95
1 -19 -9 5.3 0.89
19 -1 9 5.64 0.96
18 1 9 3.7 0.84
19 -1 -9 4.32 0.88
1 -19 9 5.1 0.89
-18 -1 9 4 0.82
-19 18 9 3.66 0.75
-1 -18 -9 5.14 0.83
-18 19 -9 4.26 0.74
-20 10 -9 0.85 0.65
10 10 9 -0.09 0.7
10 10 9 0.29 0.59
10 -20 9 0.24 0.57
-10 20 -9 -0.37 0.6
20 -10 -9 0.65 0.69
10 -20 -9 -0.59 0.66
20 -10 9 -0.14 0.72
9 -20 -9 3.38 0.81
9 11 9 2.68 0.68
9 11 9 4.02 0.87
20 -11 -9 3.75 0.77
-20 11 -9 3.7 0.77
20 -9 9 1.68 0.77
11 -20 9 2.02 0.62
-20 9 9 1.97 0.55
11 -20 -9 3.61 0.78
9 -20 9 1.75 0.64
20 -9 -9 5.61 0.86
-20 9 -9 4.72 0.74
11 9 9 2.3 0.78
-11 20 -9 2.76 0.76
11 9 9 3.09 0.73
20 -11 9 2.37 0.71
12 -20 9 -0.05 0.54
-20 8 9 1.05 0.59
-12 20 9 0.2 0.75
20 -8 9 1.5 0.83
8 12 9 0.7 0.57
-20 12 -9 0.96 0.69
8 -20 -9 0.03 0.75
20 -12 -9 1.3 0.73
8 12 9 0.29 0.68
8 -20 9 0.55 0.63
20 -8 -9 1.1 0.69
12 8 9 0.43 0.63
-20 8 -9 1.07 0.63
12 -20 -9 0.53 0.67
-12 20 -9 0.16 0.66
-7 -13 9 0.9 0.51
7 -20 -9 0.76 0.58
20 -13 -9 2.81 0.71
7 13 9 2 0.71
-20 7 9 1.87 0.67
-20 13 -9 2.61 0.73
13 -20 9 1.46 0.59
20 -7 9 2.37 0.89
-13 20 9 1.93 0.7
20 -7 -9 3.77 0.76
13 -20 -9 2.99 0.74
-20 7 -9 3.06 0.69
-13 20 -9 2.99 0.73
7 -20 9 4.64 0.78
20 -13 9 3.49 0.75
13 7 9 3.98 0.81
-20 6 9 8.12 1.13
-20 14 -9 8.99 1.17
-6 -14 9 7.23 1.05
6 -20 -9 6.19 0.89
20 -14 -9 8.96 1.13
20 -6 9 8.38 1.11
-14 20 9 7.57 1.14
-14 -6 -9 6.18 0.83
14 -20 9 5.61 0.85
20 -6 -9 7.86 1.08
6 -20 9 7.3 0.94
-20 6 -9 4.54 0.78
20 -14 9 4.45 0.77
14 -20 -9 4.62 0.73
-15 -5 -9 0.65 0.54
-20 5 9 1.66 0.69
-15 20 9 1.3 0.69
5 -20 -9 1.01 0.6
-5 -15 9 1.14 0.68
15 -20 9 0.82 0.54
-20 15 -9 0.7 0.59
20 -5 9 0.65 0.79
20 -15 -9 0.55 0.66
20 -5 -9 1.33 0.71
-5 -15 -9 -0.19 0.61
-20 15 9 0.16 0.41
5 -20 9 -0.14 0.67
20 -15 9 1 0.57
15 5 9 0.5 0.73
-15 20 -9 1.05 0.62
-4 -16 9 0.24 0.66
-20 4 9 0.66 0.69
-16 -4 -9 -0.05 0.55
4 -20 -9 -0.09 0.52
20 -4 9 0.35 0.82
-16 20 9 0.11 0.66
20 -16 -9 0.45 0.54
16 4 9 1.06 0.79
4 -20 9 0.57 0.71
-4 -16 -9 0.39 0.66
-20 16 9 0.57 0.47
20 -4 -9 0.28 0.68
-16 20 -9 0.49 0.61
20 -3 9 0.03 0.76
3 -20 -9 0.2 0.4
-20 3 9 0.93 0.72
-17 20 9 1.21 0.68
-3 -17 -9 0.55 0.63
-17 20 -9 1.33 0.65
-20 17 9 0.68 0.54
20 -3 -9 0.26 0.79
-21 11 -9 0.07 0.59
21 -10 9 0.16 0.56
10 11 9 0.45 0.51
11 -21 9 0.01 0.48
10 -21 -9 0.09 0.41
21 -11 -9 0.83 0.75
10 11 9 0.11 0.7
11 -21 -9 0.14 0.55
10 -21 9 -0.39 0.54
11 10 9 0.03 0.53
-21 10 -9 0.82 0.6
11 10 9 0.3 0.54
21 -10 -9 0.31 0.67
9 -21 -9 0.94 0.5
9 12 9 2.28 0.77
-21 12 -9 3.38 0.7
12 -21 9 1.6 0.57
21 -9 9 2.31 0.74
21 -12 -9 2.85 0.75
9 -21 9 2.88 0.66
-21 9 -9 2.79 0.69
21 -9 -9 3 0.74
-12 21 -9 2.91 0.7
12 9 9 2.65 0.7
-21 8 9 3.09 0.6
21 -8 9 4.36 0.84
13 -21 9 2.89 0.53
21 -13 -9 5.2 0.8
8 -21 -9 2.42 0.52
8 -21 9 4.35 0.76
21 -8 -9 6.13 0.81
-21 8 -9 3.55 0.71
13 8 9 3.79 0.76
-13 21 -9 6.84 1.06
-21 14 -9 0.66 0.62
-21 7 9 0.68 0.6
21 -7 9 0.12 0.72
21 -14 -9 0.56 0.67
21 -7 -9 0.48 0.66
-21 7 -9 0.47 0.58
-7 -14 -9 -0.78 0.63
7 -21 9 0.17 0.6
-14 21 -9 0.9 0.68
14 7 9 -0.12 0.69
-21 6 9 1.56 0.73
0 0 -10 -0.41 0.9
0 -1 -10 27.31 2.47
0 -1 10 26.56 2.83
-1 1 10 23.47 2.67
0 1 -10 27.28 2.43
-1 1 -10 26.05 2.41
-1 0 -10 26.03 2.43
1 -1 -10 26.99 2.36
-1 0 10 27.59 2.72
1 0 -10 25.2 2.33
-1 2 -10 12.54 1.76
-2 1 10 13.39 2.18
-1 -1 -10 11.91 1.78
-1 -1 10 12.65 2
1 -2 -10 12.71 1.82
-2 1 -10 11.62 1.72
2 -1 -10 12.68 1.64
1 1 -10 12.16 1.62
2 0 -10 12.41 1.71
0 2 -10 12.37 1.75
-2 2 -10 12.55 1.71
-2 2 10 9.11 1.74
0 -2 10 12.22 2.18
2 -2 -10 11.5 1.79
0 -2 -10 10.65 1.59
-2 0 -10 10.95 1.7
-2 0 10 11.81 2.19
2 1 -10 26.06 2.37
1 -3 -10 23.67 2.4
-1 3 -10 24.45 2.36
-3 2 -10 21.9 2.24
-3 1 10 25.38 2.83
-1 -2 10 24.84 2.67
-3 2 -10 25.91 2.44
-2 -1 -10 21.63 2.29
3 -2 -10 25.41 2.39
2 -3 -10 23.72 2.29
-3 1 -10 22.03 2.21
-2 3 -10 27.29 2.45
-2 3 -10 23.58 2.29
-2 -1 10 24.47 2.79
-3 2 10 22.51 2.69
3 -1 -10 25.74 2.27
-1 -2 -10 22.65 2.22
1 2 -10 24.88 2.26
-3 0 -10 4.31 1.04
-3 3 -10 6.75 1.18
-3 3 10 4.55 1.43
-3 0 10 6.42 1.74
0 -3 -10 4.36 1.09
3 0 -10 6.25 1.15
3 -3 -10 6.44 1.18
-3 3 -10 3.99 1.05
0 -3 10 7.96 1.78
0 3 -10 7.84 1.26
4 -2 -10 6 1.17
2 2 -10 6.92 1.22
2 -4 -10 5.47 1.18
-4 2 10 4.93 1.72
-2 4 -10 6.31 1.25
-2 -2 10 5.49 1.71
-2 4 -10 4.62 1.07
-2 -2 -10 4.38 1.15
-4 2 -10 5.02 1.16
-3 -1 -10 18.59 2.17
4 -3 -10 25.66 2.45
-4 3 -10 25.39 2.41
1 -4 -10 23.8 2.47
-4 1 10 25.34 2.8
3 1 -10 24.83 2.29
-1 4 -10 24.03 2.37
-1 -3 10 23.31 2.73
-1 4 -10 27.2 2.39
-4 1 -10 20.95 2.2
-3 4 -10 21.36 2.21
-3 4 -10 17.1 2.01
-1 -3 -10 19.04 2.03
-4 3 10 19.24 2.49
1 3 -10 20.71 2.07
3 -4 -10 21.49 2.14
4 -1 -10 21.78 2.2
-3 -1 10 20.57 2.51
-4 4 -10 1 0.85
-4 4 -10 -0.03 0.63
4 -4 -10 0.53 1.01
-4 4 10 0.27 1.25
0 4 -10 1.56 0.97
-4 0 10 0.99 1.51
4 0 -10 1.18 0.95
-4 0 -10 1.01 0.96
0 -4 10 1.77 1.42
0 4 -10 1.21 0.96
-2 -3 10 19.53 2.59
3 2 -10 19.37 2.07
-5 2 10 18.65 2.82
-3 -2 -10 15.83 1.89
-2 5 -10 19.25 2.1
-2 5 -10 19.37 2.05
-5 3 -10 17.74 2.01
5 -3 -10 19.1 2.03
-5 3 10 12.68 2.37
-3 5 -10 15.01 1.88
-3 5 -10 17.05 2
2 3 -10 16.72 2
-3 -2 10 15.25 2.36
5 -2 -10 17.81 2.04
-2 -3 -10 13.71 1.99
3 -5 -10 16.31 2.16
-5 2 -10 17.86 2.02
-5 1 10 20.47 2.83
4 1 -10 18.98 1.96
-1 -4 10 17.71 2.35
-1 5 -10 20.05 2.2
-5 4 -10 18.4 2.01
5 -4 -10 18.62 2.07
-4 -1 -10 16.28 2.05
-1 5 -10 16.25 2.06
-5 4 10 16.39 2.53
4 -5 -10 18.74 2.28
5 -1 -10 20.7 2.19
-4 -1 10 19.63 2.6
-4 5 -10 20.21 2.11
-5 1 -10 19.87 2.23
1 4 -10 22.22 2.24
1 4 -10 21.19 2.12
0 5 -10 3.76 1.1
0 5 -10 3.76 1.13
0 -5 10 4.46 1.51
-5 0 10 4.45 1.65
-5 5 -10 5.44 1.2
5 -5 -10 4.46 1.16
-5 0 -10 2.91 1.09
5 0 -10 3.99 1.1
-6 3 -10 3.84 1.19
3 3 -10 5.17 1.17
-3 6 -10 3.48 1.1
-3 -3 10 6.44 1.78
-6 3 10 5.49 1.88
-3 -3 -10 2.93 1.03
6 -3 -10 5.58 1.2
-3 6 -10 5.08 1.15
-2 -4 10 15.3 2.4
-2 6 -10 16.19 2.05
-6 4 -10 13.64 1.97
-2 6 -10 14.36 1.96
4 2 -10 15.48 1.86
-6 2 10 17.44 2.89
6 -4 -10 13.69 1.94
2 4 -10 15.3 1.99
-4 -2 10 15.87 2.37
-6 2 -10 14.76 1.99
6 -2 -10 15.04 2.02
-6 4 10 12.14 2.2
2 4 -10 15.64 1.98
-4 6 -10 15.66 1.88
6 -5 -10 4.53 1.22
-6 5 -10 3.14 1.12
-1 -5 10 6.06 1.8
-6 1 10 4.93 1.94
-1 6 -10 2.58 1.04
5 1 -10 4.11 1.1
-1 6 -10 5.05 1.25
-6 5 10 0.08 1.38
-6 1 -10 1.2 1.03
-5 -1 10 2.37 1.52
6 -1 -10 2.41 1.1
1 5 -10 1.8 0.99
1 5 -10 2.06 1.15
5 -6 -10 1.84 1.24
-5 6 -10 2.47 0.98
-6 0 10 8.52 2.15
6 -6 -10 7.15 1.48
-6 6 -10 6.56 1.32
6 0 -10 5.16 1.17
0 -6 10 6.95 1.85
0 6 -10 3.94 1.14
0 6 -10 5.18 1.21
-3 7 -10 15.72 2.06
-7 4 -10 16.74 2.03
-3 7 -10 18.59 2.21
-3 -4 10 16.38 2.42
4 3 -10 17.19 2.01
7 -4 -10 19.35 2.26
-7 3 10 17.99 2.99
-7 3 -10 13.59 2.04
-4 -3 10 17.43 2.63
-4 7 -10 15.7 1.94
3 4 -10 15.66 2.01
7 -3 -10 16.11 2.13
-7 4 10 14.44 2.53
3 4 -10 14.55 1.96
5 2 -10 17.16 2.07
-2 7 -10 21.01 2.32
-7 5 -10 17.22 2.23
-2 -5 10 18.16 2.64
7 -5 -10 18.81 2.18
-2 7 -10 15.86 2.17
-7 2 10 22.15 3.14
2 5 -10 22.34 2.38
-7 2 -10 14.26 2.09
-7 5 10 15.26 2.68
-5 -2 10 20.08 2.84
2 5 -10 20.77 2.2
-5 7 -10 19.41 2.13
7 -2 -10 19.75 2.15
-6 -1 -10 0.54 1.34
1 6 10 -0.02 0.5
6 1 -10 1.76 1.01
-6 7 10 -0.02 0.92
-1 7 -10 2.74 1.11
6 -7 10 0.02 0.56
7 -6 -10 1.42 1.21
-7 1 10 4.1 1.95
-1 -6 10 3 1.65
-1 7 -10 1.47 1.02
-7 6 -10 2.08 1.14
-7 6 10 0.2 0.7
-6 -1 10 1.27 1.6
6 -7 -10 1.1 1.16
1 6 -10 1.97 1.01
-6 7 -10 1.58 0.98
-6 -1 10 0.17 0.69
-7 1 -10 0.6 1.66
1 6 -10 2.22 1.07
7 -1 -10 2.9 1.18
7 -7 10 0.11 0.72
-7 0 -10 0.18 1.55
-7 7 10 -0.84 0.81
-7 0 10 0.17 1.73
-7 0 10 -0.07 0.69
0 -7 10 0.62 1.46
0 7 -10 0.07 1
7 -7 -10 0.4 1.06
7 0 -10 0.2 1.09
0 7 -10 1.05 1.14
0 7 10 0.36 0.64
-7 7 -10 0.41 1.02
-4 -4 10 79.61 5.95
4 4 -10 78.41 5.4
4 4 -10 63.28 5.41
-4 8 -10 79.63 5.55
8 -4 -10 79.12 5.52
-8 4 10 63.71 6.03
8 -5 -10 0.93 1.18
-8 5 -10 0.54 1.09
-3 8 -10 0.73 1.05
-8 3 10 0.77 1.82
-3 -5 10 0.33 0.6
-3 -5 10 1.19 1.51
5 -8 10 -0.14 0.58
3 5 10 0.98 0.64
-3 8 -10 1.81 1.09
5 3 -10 1.27 1.07
-8 5 10 2.12 1.88
-8 5 10 0.2 0.64
-8 3 -10 -0.2 1.08
3 5 -10 1.54 1.03
-5 8 -10 2.65 1.06
3 5 -10 4.29 1.17
-5 -3 10 4.64 1.89
8 -3 -10 2.16 1.09
-8 3 -10 3 1.73
8 -5 10 -0.16 0.57
-5 -3 10 1.29 0.84
-2 8 -10 1.39 1.15
8 -6 -10 1.1 1.15
2 6 10 1.32 0.71
-2 8 -10 2.04 1.16
-2 -6 10 1.39 1.38
6 2 -10 2.03 1.12
6 -8 10 0.56 0.68
-6 8 10 2.33 1.4
-6 8 10 0.02 0.68
-8 6 -10 0.76 1.03
-8 2 10 2.09 2
-2 -6 10 0.17 0.58
8 -6 10 0.75 0.79
-6 8 -10 0.92 0.97
2 6 -10 0.75 1.05
-8 6 10 0.48 0.92
-8 2 -10 0.25 1.62
-6 -2 10 0.88 1.71
2 6 -10 1.81 1.09
8 -2 -10 0.56 1.17
-6 -2 10 0.49 0.87
8 -7 -10 13.07 1.83
-1 8 -10 12.12 2.05
-8 1 10 16.63 2.75
-8 7 -10 9.55 1.63
1 7 10 10.07 1.46
-1 -7 10 9.46 1.94
-1 8 -10 8.82 1.49
7 1 -10 13.22 1.9
-7 8 10 14.09 2.42
-7 8 10 10.94 1.69
7 -8 10 6.76 1.18
-7 -1 10 8.27 1.37
-1 8 10 6 0.99
-8 7 10 9.05 1.41
-7 -1 10 9.79 2.12
-8 7 10 9.24 1.83
-8 1 -10 8.78 2.14
1 7 -10 7.22 1.4
1 7 -10 8.55 1.43
8 -7 10 8.71 1.24
8 -1 -10 8.42 1.52
-7 8 -10 10.75 1.77
7 -8 -10 7.67 1.55
0 8 -10 1.71 1.13
8 -8 10 1.4 0.96
-8 8 -10 1.31 1.11
0 -8 10 0.43 0.67
-8 0 10 3.31 1.85
8 -8 10 1.34 0.61
-8 0 -10 1.55 1.49
-8 0 10 1.35 1.12
0 8 -10 1.18 1.1
8 -8 -10 1.41 0.79
8 -8 -10 1.03 1.15
8 0 -10 1.77 1.16
0 8 10 1.58 0.83
-8 8 10 0.65 1.02
-8 8 10 1.84 1.54
-4 -5 10 10.68 2.02
4 5 10 10.22 1.56
-9 5 -10 9.65 2.04
-4 -5 10 9.6 1.53
9 -5 -10 12.27 1.8
-9 5 -10 7.87 1.59
-4 9 -10 11.83 1.88
-9 4 10 9.47 2.42
5 4 -10 12.81 1.99
-9 5 10 7.31 2.16
9 -4 -10 11.24 1.69
4 5 -10 4 1.18
4 5 -10 8.01 1.39
-5 -4 10 12.28 2.29
-5 -4 10 7.41 1.23
5 4 10 4.87 0.92
-9 4 -10 7.46 1.96
-5 9 -10 10.42 1.57
9 -5 10 7.54 1.14
-9 6 -10 5.53 1.44
-6 9 10 8.37 1.96
6 -9 10 5.87 1.06
-9 6 -10 7.69 2.18
-3 9 -10 4.51 1.25
-3 -6 10 7.47 1.98
9 -6 -10 5.99 1.53
6 3 -10 8.56 1.5
-3 -6 10 4.12 0.96
-9 3 10 6.35 2.19
-3 9 -10 6.14 1.39
3 6 10 6.9 1.05
-9 6 10 5.53 1.16
-6 9 -10 7.39 1.37
-6 -3 10 7.98 1.25
-9 3 -10 4.96 1.72
6 3 10 4.02 0.79
9 -6 10 6.35 1.1
9 -3 -10 7.83 1.45
-9 6 10 -0.06 1.61
3 6 -10 3.72 1.15
-9 7 -10 2.74 1.16
-2 9 -10 4.37 1.33
9 -7 -10 3.06 0.87
2 7 10 3.64 0.93
-2 9 -10 3.56 1.24
7 -9 10 2.6 0.77
-2 -7 10 2.16 0.82
7 2 -10 2.93 1.17
-7 9 10 3.39 1.67
-9 2 10 2.66 1
-9 2 10 5 2.09
-2 -7 10 6.29 1.89
9 -7 -10 4.08 1.28
7 -9 10 3.45 0.98
-7 9 10 3.79 1.25
-7 9 -10 6.54 1.38
2 7 -10 3.98 1.23
-9 7 10 4.22 1.2
2 7 -10 7.4 1.48
-7 -2 10 6.86 1.92
-7 -2 10 8.01 1.36
-9 2 -10 5.52 1.83
9 -7 10 3.61 0.82
9 -7 10 5.6 1.13
9 -2 -10 6.96 1.5
9 -8 -10 5.65 1.51
8 -9 10 4.16 0.93
8 -9 10 5.63 1.14
1 8 10 4.34 0.95
-8 9 10 2.77 1.2
-9 1 10 4.34 1.22
-8 9 10 7.08 1.97
-1 9 -10 4.49 1.31
-9 8 -10 3.19 1.3
-9 1 10 5.32 2.03
-1 -8 10 3.84 1.73
8 1 -10 4.62 1.42
-1 9 -10 2.67 1.24
9 -8 -10 4.92 1.05
9 -8 10 9.44 1.32
-8 -1 10 11.97 2.41
9 -1 -10 6.44 1.44
-9 8 10 5.57 1.28
-9 8 10 8.44 2.02
-9 1 -10 5.8 1.78
9 -8 10 7.13 1.05
-8 -1 10 7.31 1.36
-1 9 10 8.31 1.13
-8 9 -10 6.28 1.37
8 -9 -10 8.34 1.7
1 8 -10 6.18 1.38
-9 9 10 2.3 1.27
-9 0 10 4.32 2.1
-9 9 -10 2.22 1.28
0 9 -10 4.53 1.36
9 -9 10 3.42 0.87
9 -9 -10 2.44 0.94
9 0 -10 2.93 1.37
9 -9 -10 4.05 1.42
0 9 10 4.08 0.99
-9 0 10 3.41 1.2
0 9 -10 1.37 1.11
-9 0 -10 0.13 1.41
-9 9 10 3.34 1.7
9 -9 10 3.6 1.16
10 -5 10 1.69 0.76
-5 -5 10 1.2 1
-5 10 -10 1.28 1.17
-10 5 10 1.85 1.87
5 5 -10 3 1.29
5 -10 10 1.99 0.97
5 5 10 0.87 0.76
10 -5 -10 0.15 0.61
-5 -5 10 1.72 1.83
-10 5 -10 2.22 1.58
10 -5 -10 1.89 1.25
5 -10 10 0.33 0.59
-10 5 10 0.68 0.76
-4 -6 10 19.59 2.87
-10 6 -10 13.37 2.37
10 -6 -10 19.36 2.39
-6 10 10 21.53 3
6 -10 10 15.72 1.84
-4 10 -10 19.67 2.43
10 -6 -10 18.09 1.92
6 -10 10 16.29 1.9
-10 6 -10 19.74 2.96
4 6 10 17.39 1.92
10 -4 10 12.33 1.63
6 4 -10 23.08 2.45
-4 -6 10 16.99 1.92
-10 4 10 20.77 3.38
-6 -4 10 19.04 2.88
-6 -4 10 17.48 2.01
4 6 -10 18.19 2.14
-6 10 -10 15.65 2.16
10 -6 10 14.75 1.68
-10 4 -10 15.15 2.63
4 -10 10 12.7 1.77
-10 6 10 15.95 1.98
6 4 10 15.23 1.83
10 -4 -10 13.47 2.26
7 3 -10 -0.09 1.14
-10 3 10 1.32 2.04
3 7 10 0.59 0.79
-10 7 -10 0.41 1.22
-10 7 -10 0.51 1.68
7 -10 10 0.91 0.86
7 -10 10 0.16 0.86
-3 10 -10 0.44 1.23
10 -3 10 0.62 0.59
-10 3 10 0.1 0.96
10 -7 -10 1.04 0.93
-7 10 10 0.63 1.64
10 -7 -10 0.86 1.17
-3 -7 10 0.63 0.9
-3 -7 10 0.81 1.64
-3 10 -10 -0.15 1.02
-7 10 10 -0.32 1.13
3 -10 10 -0.01 0.8
-7 -3 10 2.81 1.84
-7 -3 10 0.4 1.01
10 -3 -10 -0.34 1.11
10 -7 10 -0.5 0.97
3 -10 10 0.16 0.65
-10 3 -10 0.02 1.57
7 3 10 -0.14 0.87
3 7 -10 0.76 1.2
-7 10 -10 0.93 1.14
-10 7 10 -0.03 1.09
10 -7 10 0.9 0.85
-10 8 -10 6.49 2.13
-10 8 -10 2.16 1.34
-8 10 10 2.94 1.32
-2 -8 10 5.85 1.9
8 2 -10 4.52 1.42
-2 10 -10 2.23 1.19
-2 -8 10 3.98 0.98
-10 2 10 1.99 1.12
10 -8 -10 3.81 1.42
-2 10 -10 2.76 1.28
8 -10 10 2.57 1
2 8 10 4.32 0.97
-8 10 10 3.33 1.76
10 -8 -10 2.82 1
8 -10 10 4.03 0.98
-10 2 10 5.4 2.22
10 -8 10 4.17 0.95
2 -10 10 1.53 0.89
10 -2 -10 3.91 1.41
-10 8 10 3.51 1.6
-10 2 -10 4.02 1.76
-8 10 -10 5.07 1.45
-8 -2 10 5.13 1.95
-8 -2 10 5.16 1.27
2 8 -10 4.96 1.42
8 2 10 2.77 0.95
-10 8 10 4.55 1.31
10 -8 10 4.06 1.11
-1 -9 10 0.4 0.67
9 -10 10 0.91 0.86
10 -9 -10 1.04 1.28
1 9 10 1.4 0.86
-10 1 10 1.07 1.87
-9 10 10 -0.81 1.18
-10 9 -10 -0.04 1.73
-10 9 -10 -0.22 1.2
10 -1 10 0.22 0.59
-1 10 -10 -0.58 1.05
9 -10 10 0.92 1
-9 10 10 1.54 1.7
-10 1 10 0.28 1.07
-1 10 -10 -0.24 1.21
10 -9 -10 1.43 0.98
9 1 -10 1.24 1.32
9 1 10 0.91 0.82
10 -9 10 0.23 1.01
-10 1 -10 0.09 1.41
9 -10 -10 -0.71 1.19
1 -10 10 0.08 0.84
1 -10 10 0.29 0.79
10 -9 10 0.58 0.78
-9 -1 10 1.93 1.92
-10 9 10 0.04 1.11
9 -10 -10 1.29 0.85
-9 -1 10 -0.61 1.03
1 9 -10 1.43 1.19
-9 10 -10 -0.05 1.11
-10 9 10 1.19 1.66
10 -1 -10 0.45 1.18
10 0 -10 2.92 1.32
-10 10 -10 7.45 1.26
-10 0 10 5.48 1.32
-10 10 -10 6.51 2.13
0 10 10 6.58 1.1
10 -10 10 6.24 1.05
-10 10 10 3.83 1.36
-10 10 -10 4.07 1.51
10 -10 10 4.21 1.16
0 10 -10 4.84 1.47
-10 10 10 4.42 1.85
10 -10 -10 5.99 1.49
10 -10 -10 6.13 1.15
-10 0 10 5.69 2.11
-11 5 10 -0.06 0.83
-11 5 10 1.21 1.99
-11 6 -10 -0.05 1.56
-6 11 10 0.31 1.64
-11 5 10 0.29 0.68
6 5 -10 -0.14 1.22
-6 11 10 -0.17 0.95
6 -11 10 1.2 1.07
11 -5 10 1.05 0.86
-5 -6 10 0.96 1.77
11 -6 -10 -0.46 1.03
-5 -6 10 0.6 0.96
5 6 10 0.96 0.84
-5 11 -10 -1.11 1.24
6 -11 10 0.64 0.78
11 -6 -10 -0.48 0.88
5 -11 10 0.06 0.6
11 -5 -10 1.09 1.16
5 -11 10 0.54 0.99
-6 -5 10 1.29 1.69
11 -6 10 0.76 0.91
-6 11 -10 0.16 1.28
-11 5 -10 0.3 1.56
-6 -5 10 1.7 1.13
6 5 10 0.93 0.85
11 -5 -10 0.49 0.92
-11 6 10 0.15 1.01
-11 6 10 1.17 1.98
5 6 -10 0.86 1.21
-11 7 -10 5.42 1.83
-7 11 10 5.51 2.11
11 -4 10 3.14 0.94
-4 -7 10 5.73 1.9
-7 11 10 2.27 1.31
11 -7 -10 3.45 1.22
7 4 -10 6.35 1.54
-4 -7 10 6 1.15
-11 4 10 7.81 2.46
4 7 10 4.44 0.93
-4 11 -10 2.65 1.3
-11 4 10 2.85 1.13
7 -11 10 6.07 1.11
11 -7 -10 6.22 1.17
7 -11 10 5.33 1.05
-11 4 -10 3.03 1.63
-7 11 -10 3.46 1.35
11 -4 -10 2.53 1.21
4 7 -10 3.91 1.35
-7 -4 10 4.52 1.85
4 -11 10 4.24 1.21
11 -7 10 3 0.92
-11 7 10 4.03 1.23
-7 -4 10 5.45 1.3
11 -4 -10 3.3 0.96
7 4 10 5.49 1.1
-11 8 -10 1.83 1.61
11 -8 -10 2.25 1.19
-11 3 10 0.92 1.06
-8 11 10 -0.05 1.23
-11 8 -10 0.31 1.29
8 -11 10 0.99 0.91
-8 11 10 0.92 1.86
-11 3 10 2.11 2.11
8 3 -10 1.8 1.31
8 -11 10 1.98 0.92
-3 -8 10 3.04 1.78
-3 -8 10 2.34 0.99
-3 11 -10 0.68 1.18
11 -3 10 3.01 0.92
-3 11 -10 0.13 1.22
11 -8 -10 1.7 1
3 8 10 2.58 0.89
3 8 10 -0.29 0.64
3 -11 10 3.39 1.2
-8 -3 10 4.13 1.17
-11 8 10 3.56 1.17
-8 -3 10 5.42 2.04
11 -3 -10 3.01 1.32
8 3 10 3.79 1.03
11 -8 10 3.73 0.97
-11 8 10 3.39 1.69
3 8 -10 4.68 1.37
-11 3 -10 6.72 1.9
11 -3 -10 2.91 0.85
-8 11 -10 4.49 1.52
2 9 10 14.83 1.79
9 -11 10 14.02 1.72
11 -9 -10 12.86 1.8
-2 -9 10 15.73 2.74
11 -2 10 13.11 1.68
-9 11 10 17.38 2.01
-11 9 -10 18.06 2.8
9 2 -10 15.88 2.41
11 -9 -10 13.03 2.12
-11 2 10 14.74 1.83
-9 11 10 12.38 2.43
-2 11 -10 10.07 1.83
-11 9 -10 9.34 1.94
-11 9 -10 12.01 1.78
9 -11 10 14.35 1.96
-11 2 10 14.61 2.69
9 2 10 6.28 1.2
11 -9 10 5.81 1.08
-11 9 10 9.23 1.53
-11 9 10 5.02 1.77
-9 11 -10 6.51 1.69
-9 -2 10 4.98 2.01
-11 2 -10 7.8 1.85
2 9 -10 8.77 1.6
-9 -2 10 10.32 1.51
-9 11 -10 6.35 1.99
2 -11 10 8.28 1.41
-9 11 -10 8.99 1.31
-11 10 -10 3.89 1.52
-1 11 -10 5.61 1.56
10 -11 10 8.31 1.13
-11 1 10 5.92 1.28
1 10 10 6.06 1.06
-11 10 -10 7.83 1.32
11 -10 -10 5.36 1.39
11 -1 10 7.46 1.05
10 -11 10 8.95 1.38
-10 11 10 6.87 2.08
-10 11 10 5.69 1.43
-11 10 -10 9.58 2.32
-11 1 10 10.42 2.51
11 -10 -10 9.48 1.25
-1 -10 10 3.48 0.96
10 1 -10 5.9 1.58
-10 -1 10 7.65 2.17
11 -10 10 9.25 1.21
1 10 -10 8.92 1.74
1 -11 10 8.48 1.35
-10 11 -10 6.94 2.09
-10 11 -10 8.29 1.32
-10 -1 10 9.42 1.5
10 1 10 8 1.29
10 -11 -10 10.04 1.3
10 -11 -10 7.83 1.59
-11 10 10 5.62 1.39
-11 10 10 7.28 2.04
0 11 -10 3.22 1.42
0 -11 10 3.89 1.1
-11 11 -10 4.09 1.15
-11 11 -10 2.21 1.42
11 -11 10 5.67 1.02
11 -11 -10 5.42 1.08
11 0 10 3.73 1.11
-11 11 -10 4.32 1.88
-11 0 10 6.95 2.32
-11 11 10 3.39 1.79
-11 11 10 4.75 1.37
0 11 10 5.03 1.02
-11 0 10 3.31 1.13
11 -11 -10 2.29 1.13
-6 12 -10 0.67 1.29
-12 6 10 1.17 1.78
12 -6 10 1.52 0.96
6 -12 10 -0.29 0.55
6 6 -10 1.01 1.2
-12 6 10 -0.07 0.73
-12 6 -10 0.34 1.54
-6 12 10 0.75 1.64
-6 12 10 0.49 0.8
-6 -6 10 1.97 1.04
6 6 10 1.82 0.86
6 -12 10 2.7 1.11
-6 -6 10 3.21 2
-12 6 10 1.38 1.04
12 -6 -10 2.17 1.02
5 7 10 2.81 0.91
7 -12 10 2.79 0.99
12 -5 10 1.88 0.92
7 -12 10 0.73 0.82
-5 -7 10 2.1 1.02
-12 5 10 0.62 0.96
12 -7 -10 1.22 0.86
-12 7 -10 2.97 1.8
-12 5 10 2.08 2.01
7 5 -10 2.39 1.39
-12 5 10 0.26 0.66
-7 12 10 0.78 1.28
12 -7 -10 0.46 1.49
-5 -7 10 3.46 1.87
-5 12 -10 0.7 1.43
-7 12 10 0.28 1.7
7 5 10 2.12 0.91
-12 7 10 1.49 1.17
5 -12 10 -0.37 0.58
-7 -5 10 1.4 1.13
-7 -5 10 1.62 1.82
5 -12 10 1.45 1.03
12 -7 10 0.35 0.88
-7 12 -10 0.55 1.28
-12 5 -10 0.74 1.61
5 7 -10 1.29 1.19
12 -5 -10 -0.02 0.9
-7 12 -10 2.26 1.04
-12 4 10 2.78 1.98
8 -12 10 3.7 0.95
4 8 10 3.37 0.83
8 -12 10 4.27 1.1
-8 12 10 3.26 2.05
8 4 -10 2.56 1.26
12 -4 10 4.04 0.99
-4 12 -10 1.92 1.4
-4 -8 10 3.57 1.07
4 8 10 2.98 0.89
-8 12 10 2.02 1.36
-4 -8 10 4.6 1.9
-12 4 10 3.07 1.23
-12 8 -10 5.11 1.98
12 -8 -10 2.86 1
12 -4 -10 2.65 1
-12 8 10 3.95 1.26
12 -8 10 3.89 0.96
-8 12 -10 2.43 1.48
-8 12 -10 5.43 1.17
-12 4 -10 3.5 1.67
8 4 10 5.48 1.12
4 -12 10 4.41 1.21
-8 -4 10 4.29 1.98
4 8 -10 3.73 1.43
-8 -4 10 3.87 1.14
3 9 10 4.16 1.01
3 9 10 4.29 0.97
-12 3 10 4.04 2.01
9 -12 10 4.73 1.01
12 -3 10 5.95 1.02
-9 12 10 3.66 1.44
-3 -9 10 0.5 1.48
-3 -9 10 4.25 1.03
-9 12 10 5.44 2.05
-12 9 -10 1.24 1.13
12 -9 -10 6.93 1.14
-12 3 10 4.76 1.27
9 3 -10 3.27 1.38
-12 9 -10 5.7 1.91
9 -12 10 3.47 1.1
-12 9 -10 3.65 1.03
-9 12 -10 3.61 1.53
3 -12 10 7.84 1.35
12 -3 -10 4.28 1.01
-9 12 -10 4.16 1.07
9 3 10 5.87 1.15
12 -9 10 7.38 1.16
3 9 -10 3.93 1.36
-9 -3 10 5.1 1.26
-12 9 10 3.32 1.69
-12 9 10 6.03 1.33
-9 -3 10 5.84 2.12
-9 12 -10 6.16 1.89
-12 3 -10 3.53 1.63
10 -12 10 2.92 0.91
-12 2 10 0.11 2
2 10 10 1 0.83
-10 12 10 0.16 1.74
-12 10 -10 0.57 1.31
12 -2 10 2.43 0.91
-2 12 -10 -0.8 1.3
-10 12 10 -0.87 1.18
-2 -10 10 0.44 0.71
-12 2 10 -0.07 1
12 -10 -10 1.09 0.9
-2 -10 10 1.31 0.87
10 2 -10 -1.48 1.18
-12 10 -10 1.38 1.84
-12 10 -10 0.61 0.94
10 -12 -10 0.56 0.85
-10 12 -10 0.43 0.91
-12 10 10 -0.81 1.02
10 2 10 0.48 1.01
12 -10 10 0.88 0.86
2 -12 10 -0.15 1.08
-10 12 -10 1.22 1.67
12 -2 -10 0.22 0.9
2 10 -10 0.75 1.27
-10 -2 10 -0.06 1.03
-12 2 -10 0.16 2.4
-10 12 -10 -0.58 1.24
-12 10 10 -0.28 1.67
-10 -2 10 0.25 1.82
10 -12 -10 0.79 1.23
-1 12 -10 16.12 2.59
12 -1 10 16.88 1.94
12 -11 -10 19.69 1.98
-11 12 10 21.14 3.36
-12 1 10 25.73 3.45
-12 1 10 21.44 2.24
-12 11 -10 21.66 3.07
11 -12 10 21.8 1.93
-11 12 10 21.17 2.35
-12 11 -10 15.8 2.07
1 11 10 20.95 2.02
-12 11 -10 13.1 2.54
-1 -11 10 17.83 2.07
1 11 -10 24.22 2.92
-11 -1 10 23.77 3.53
-11 12 -10 22.87 3.12
-12 11 10 17.7 2.4
11 1 10 21.02 2.45
-12 11 10 23.3 3.44
1 -12 10 25.2 2.4
12 -11 10 24.2 2.12
-11 -1 10 24.61 2.41
11 -12 -10 23.2 2.23
12 -1 -10 20.99 2.06
-12 12 -10 0.5 0.92
-12 12 10 0.7 1.66
12 0 10 1.29 0.8
0 -12 10 2.15 1.05
-12 12 -10 0.34 1.27
0 12 -10 -0.21 1.31
-12 0 10 0.49 0.96
-12 12 10 -0.04 1.11
-12 12 -10 1.2 1.67
12 0 10 0.77 1.06
12 0 -10 0.1 0.69
12 -12 10 1.8 0.82
-12 0 10 1.8 1.96
12 -12 -10 1.54 0.92
13 -6 10 7.85 1.18
-13 6 10 3.96 1.09
-6 -7 10 5.3 1.91
6 7 10 8.31 1.14
-6 13 -10 3.49 1.48
-7 13 10 5.41 1.44
-6 13 -10 6.49 1.27
-13 6 10 6.08 1.11
13 -7 -10 8.5 1.22
7 -13 10 8.34 1.27
-13 7 -10 7.27 2
-6 -7 10 8.52 1.31
7 6 -10 7.1 1.56
13 -7 10 8.72 1.25
13 -6 -10 5.35 1.11
7 6 10 9.62 1.21
-7 -6 10 5.32 1.23
6 7 -10 5.94 1.46
-13 6 -10 6.13 1.89
-7 13 -10 4.04 1.59
6 -13 10 10.06 1.34
-7 -6 10 7.53 2.26
-13 7 10 7.02 1.37
-7 13 -10 8.27 1.33
5 8 10 1.43 0.82
-5 13 -10 0.29 1.35
5 8 10 1.44 0.79
-5 -8 10 -0.41 1.48
-13 8 -10 0.7 1.62
-13 5 10 0.81 0.99
8 5 -10 0.04 1.25
-13 5 10 1.72 1.82
13 -5 10 1.84 0.94
-8 13 10 0.29 1.37
-5 13 -10 0.96 1.05
8 -13 10 0.85 0.86
8 -13 10 0.31 0.9
-5 -8 10 1.56 1.01
13 -8 -10 1.38 0.91
-8 13 10 1.01 1.73
-8 -5 10 1.05 1.93
5 -13 10 1.02 1.02
5 8 -10 1.16 1.16
8 5 10 1.39 0.94
-13 8 10 0.33 1.1
13 -5 -10 1.63 0.95
-8 -5 10 0.81 1.04
-8 13 -10 0.95 1.02
-13 5 -10 1.12 1.55
13 -8 10 1.54 0.95
-8 13 -10 0.83 1.27
13 -9 -10 7.33 1.12
9 -13 10 9.38 1.31
-13 9 -10 11.98 2.29
-13 4 10 6.91 1.31
-13 4 10 9.93 2.43
-9 13 10 3.65 2
4 9 10 5.88 1.1
-9 13 10 9.85 1.77
13 -4 10 9.27 1.21
4 9 10 9.53 1.19
-4 -9 10 8.77 1.3
9 4 -10 5.39 1.53
9 -13 10 11.87 1.28
-4 13 -10 6.91 1.22
13 -4 -10 7.09 1.18
-13 4 -10 6.07 1.71
-9 13 -10 3.88 1.54
-9 13 -10 5.18 1.15
13 -9 10 9.66 1.19
-13 9 10 5.4 1.28
-9 -4 10 7.8 1.31
-9 -4 10 5.07 2.03
4 -13 10 6.11 1.23
9 4 10 3.31 0.84
9 4 10 5.5 1.1
4 9 -10 7.04 1.62
3 10 10 3.12 1
-13 3 10 3.56 1.96
-13 3 10 6.16 1.3
-3 -10 10 2.08 0.9
-13 10 -10 4.22 1.09
13 -3 10 6.5 1.06
3 10 10 4.78 0.96
10 3 -10 -0.57 1.36
-10 13 10 2.78 1.31
-10 13 10 3.58 2.01
13 -10 -10 6.01 1.08
-13 10 -10 3.45 1.76
-13 10 10 1.18 1.68
10 -13 -10 2.05 0.86
-10 13 -10 0.76 2.03
-13 10 10 1.75 1.06
10 3 10 2.29 0.82
10 3 10 2.13 1.04
-10 -3 10 4.04 2.09
13 -3 -10 1.91 0.99
-10 13 -10 0.76 1.26
-10 -3 10 2.66 1.07
13 -10 10 1.76 0.85
3 -13 10 3.03 1.14
-10 13 -10 2.2 1.03
3 10 -10 1.4 1.34
-13 3 -10 -0.12 1.96
13 -11 -10 8.11 1.16
11 -13 10 5.61 0.94
-13 11 -10 4.34 1.15
-13 2 10 5.37 1.2
-13 2 10 5.43 2.26
-11 13 10 3.02 1.76
2 11 10 4.76 0.98
-2 -11 10 4.12 1.08
-11 13 10 6.78 1.43
-13 11 -10 4.38 1.84
-13 11 -10 1.22 1.34
-11 -2 10 4.15 1.18
-11 13 -10 3.41 1.02
-13 11 10 3.58 1.21
2 11 -10 1.98 1.4
-11 13 -10 1.09 2.62
2 -13 10 5.11 1.19
-11 13 -10 1.71 1.35
-13 11 10 2.69 1.72
-11 -2 10 4.74 2.02
11 -13 -10 3.26 0.99
13 -11 10 4.87 1.01
11 2 10 3.54 1.14
13 -2 -10 4.58 1.11
11 2 10 4.78 1
-12 13 10 7.55 1.39
12 -13 10 6.81 1.02
13 -1 10 4.52 1.13
13 -1 10 6.27 1.12
1 12 10 6.68 1.09
-12 13 10 4.9 1.88
-13 1 10 7.59 1.3
13 -12 -10 8.95 1.17
-1 -12 10 3.73 1.09
-13 1 10 5.62 2.19
-13 12 -10 4.8 1.73
-13 12 -10 7.43 1.32
-12 -1 10 2.94 1.14
12 1 10 3.47 1.03
-13 12 10 3.96 1.22
-12 -1 10 2.76 1.94
12 -13 -10 4.93 1.03
-12 13 -10 4.01 1.08
12 1 10 2.56 1.18
1 -13 10 4.56 1.18
13 -12 10 4.64 0.99
-12 13 -10 0.72 1.25
13 -1 -10 4.46 1.06
-13 12 10 3.77 1.79
1 12 -10 1.42 1.38
0 -13 -10 12.18 1.63
13 0 -10 14.84 1.73
13 0 10 9.32 1.47
-13 0 10 15.9 1.82
0 -13 10 16.07 1.94
13 0 10 13.26 1.8
13 -13 10 15.11 1.71
-13 0 10 10.19 2.31
-13 13 -10 14.21 1.95
13 -13 -10 16 1.75
-13 13 10 13.81 1.92
-14 7 10 1.62 0.86
-7 14 -10 0.8 1.31
-7 14 10 2.02 1.13
14 -7 -10 1.95 0.86
7 7 10 4.07 0.94
7 7 -10 1.24 1.25
7 -14 10 4.72 1.11
-7 14 -10 2.26 1.04
-7 -7 10 1.76 1.04
-14 7 10 1.09 0.94
14 -7 10 3.86 0.98
7 7 10 -0.13 0.68
-14 7 -10 2.25 1.58
8 6 -10 0.45 1.29
-6 14 -10 1.1 1.14
6 8 10 1.84 0.87
14 -8 -10 0.69 0.8
6 8 10 1 0.77
-14 6 10 0.23 0.89
8 -14 10 -0.63 0.64
14 -6 10 0.93 0.87
-6 -8 10 1.44 1.01
-8 14 10 -0.23 1.28
-14 6 10 1.2 0.95
8 -14 10 2.08 0.97
-6 14 -10 0.81 0.98
-14 8 -10 2.42 1.73
14 -8 10 1.31 0.91
-8 14 -10 -0.08 0.92
6 -14 10 1.2 1
-14 8 10 0.37 1.11
6 8 -10 0.11 1.29
-8 14 -10 -0.77 1.28
-8 -6 10 0.6 1.02
8 6 10 1.76 0.86
-8 -6 10 0.44 1.67
-14 6 -10 -0.47 1.54
14 -6 -10 1.08 0.91
-14 9 -10 10.7 2.24
-5 -9 10 8.54 1.24
-5 14 -10 5.36 1.14
-14 5 10 6.8 1.26
14 -5 10 10.9 1.54
-9 14 10 9.45 1.67
5 9 10 5.62 1.07
14 -9 10 7.32 1.1
-9 14 -10 4.14 1.08
-9 -5 10 5.56 1.92
-14 9 10 7.57 1.37
9 5 10 5.71 1.07
5 9 -10 3.8 1.49
5 -14 10 7.28 1.22
-14 5 -10 4.77 1.6
14 -5 -10 4.64 1.06
-9 -5 10 4.04 1.14
-9 14 -10 3.5 1.5
-10 14 10 0.58 1.58
14 -4 10 0.12 1.06
-4 14 -10 2.21 0.9
4 10 10 1.45 0.9
-14 10 -10 3.54 1.74
-14 4 10 1.27 1
-4 -10 10 0.22 0.72
10 -14 10 3.09 0.92
-14 4 10 1.3 1.77
4 10 10 2.88 0.88
14 -10 -10 2.54 0.84
14 -4 10 2.91 0.95
-4 -10 10 0.33 0.67
-10 14 10 2.34 1.37
10 -14 -10 3.06 0.96
-10 14 -10 -0.19 1.18
-10 -4 10 2 1.07
-14 10 10 2.08 1.11
4 10 -10 -0.11 1.27
-10 14 -10 1.37 1
14 -4 -10 2.06 0.98
14 -10 10 3.29 0.94
-10 -4 10 0.73 1.7
4 -14 10 1.68 1.02
10 4 10 2 0.97
-14 11 -10 9.32 1.37
14 -11 -10 9.23 1.12
-14 11 -10 6.89 1.82
-11 14 10 7.62 1.41
3 11 10 9.01 1.13
-14 3 10 6.46 2.05
-14 3 10 8.58 1.33
-3 -11 10 6.04 1.15
11 -14 10 8.3 1.08
-11 14 10 5.89 1.95
14 -3 10 5.63 1.09
3 11 -10 5.52 1.62
-11 14 -10 3.64 1.37
-11 -3 10 5.03 1.85
11 3 10 5.99 1.05
3 -14 10 9.14 1.28
11 3 10 6.88 1.24
14 -3 -10 9.36 1.29
-14 11 10 6.29 1.22
14 -11 10 7.48 1.06
-14 11 10 4.97 1.67
-14 2 10 3.46 1.8
14 -2 10 4.22 1.07
-12 14 10 5.4 1.26
2 12 10 5.97 1
14 -12 -10 5.78 1.02
-14 12 -10 6.02 1.23
-14 2 10 7.3 1.25
12 -14 10 5.06 0.92
-2 -12 10 4.12 1.03
-12 14 10 2.78 1.6
-14 12 10 2.03 1.47
-12 -2 10 4.42 1.12
14 -12 10 5.49 0.98
-14 12 10 4.03 1.11
2 12 -10 1.18 1.37
12 -14 -10 6.76 1.11
12 2 10 7.17 1.3
2 -14 10 4.68 1.11
12 2 10 4.67 1.02
-12 -2 10 2.42 1.69
-12 14 -10 7.89 1.24
14 -2 -10 4.5 1.02
14 -1 10 0.18 0.9
-14 1 10 0.47 0.91
14 -13 -10 0.21 0.83
-14 1 10 0.22 1.67
14 -1 10 0.49 0.92
-1 -13 10 0.03 0.93
13 -14 10 0.51 0.76
-13 14 10 0.09 1.01
1 -14 -10 0.46 0.8
-14 13 -10 1.06 1.02
-13 14 10 -0.24 1.26
13 1 -10 -0.04 0.7
13 1 10 -0.25 1.02
-14 13 10 -0.42 0.97
13 -14 -10 0.39 0.84
-13 -1 10 0.05 1.51
-13 14 -10 0.45 0.92
14 -1 -10 0.25 0.89
13 1 10 1.09 0.87
14 -13 10 0.6 0.86
-13 -1 10 -0.07 0.99
-14 13 10 -0.17 1.21
1 -14 10 0.48 0.94
1 13 -10 -0.91 1.76
-14 0 10 4.76 1.18
14 0 10 1.96 1.04
14 -14 10 3.39 0.9
0 -14 -10 4 0.96
0 -14 10 3.61 0.99
14 -14 -10 3.91 0.96
-14 14 -10 3.25 1.03
14 0 10 2.16 0.97
-14 14 10 2.99 1.02
14 0 -10 2.51 0.89
-15 8 -10 6.96 1.74
15 -7 10 8.19 1.07
-8 15 10 5.26 1.25
7 8 10 4.55 1.02
-7 -8 10 9.21 1.28
-7 15 -10 7.6 1.26
-15 7 10 4.53 1.01
15 -7 -10 5.27 1.04
-8 15 -10 4.48 1.12
15 -8 10 3.67 0.93
-15 8 10 4.69 1.23
7 -15 10 6.75 1.15
-15 7 -10 1.49 1.45
8 7 10 5.04 0.98
-8 -7 10 3.82 1.1
6 9 10 0.29 0.74
-15 9 -10 0.14 1.47
6 9 10 0.47 0.85
-6 15 -10 0.22 0.92
-9 15 10 0.43 1.23
15 -9 -10 0.4 0.79
-6 -9 10 0.84 0.86
-15 6 10 0.89 0.86
15 -6 10 0.78 0.83
9 -15 10 0.22 0.83
6 9 -10 -2.82 1.19
15 -9 10 1.03 0.81
15 -6 -10 0.26 0.83
9 6 10 1.24 0.89
-9 15 -10 1.6 1.01
6 -15 10 1.44 0.94
-9 -6 10 0.47 1
-15 9 10 0.86 1.11
-9 15 -10 0.01 1.02
-15 6 -10 -0.19 1.25
15 -5 10 14.65 1.69
15 -10 -10 15.08 1.63
-15 10 -10 8.96 1.99
5 10 10 13.63 1.67
-5 15 -10 11.51 1.76
-15 5 10 15.78 1.85
5 10 10 13.4 1.7
-10 15 10 16.8 2.22
10 -15 10 14.73 1.71
10 5 10 10.95 1.37
-15 10 10 10.83 1.57
-10 -5 10 10.94 1.51
-10 15 -10 12.51 1.5
15 -10 10 12.03 1.65
10 -15 -10 11.15 1.38
15 -5 -10 11.22 1.36
5 -15 10 11.89 1.73
4 11 10 11.2 1.56
15 -11 -10 11.75 1.56
-15 4 10 12.66 1.74
11 -15 10 11.68 1.52
4 11 10 11.63 1.67
-11 15 10 15.37 1.8
15 -4 10 10.91 1.45
15 -4 -10 6.82 1.16
-11 -4 10 4.43 1.11
-15 11 10 5.59 1.21
11 -15 -10 8.23 1.13
11 4 10 7.37 1.19
-12 15 10 5.88 1.28
-15 3 10 5.51 1.14
12 -15 10 3.75 0.84
-3 -12 10 3.13 0.92
15 -3 10 2.97 1.05
15 -12 -10 5.14 0.94
-15 12 -10 3.39 1.14
3 12 10 3 0.9
15 -3 -10 0.5 0.89
-12 15 -10 -0.04 1.51
-15 12 10 3.53 1.07
-12 -3 10 1.03 0.97
15 -12 10 2.65 0.88
-12 15 -10 2.85 0.97
3 -15 10 2.05 1.02
12 -15 -10 2.93 0.96
3 12 -10 -1.12 1.77
12 3 10 2.58 1.05
12 3 10 2.38 0.89
15 -13 -10 9.96 1.37
-15 2 10 11.69 1.57
2 -15 -10 6.12 1.07
15 -2 10 6.21 1.18
-13 15 10 10.81 1.66
-15 13 -10 11.69 1.56
13 -15 10 8.15 1.06
-2 -13 10 7.57 1.1
-13 15 -10 8.76 1.21
13 -15 -10 7.85 1.09
15 -2 -10 4.23 1.07
-13 -2 10 6.93 1.25
13 2 10 4.98 1.03
13 2 10 5.84 1.22
2 -15 10 6.5 1.14
-15 13 10 8.01 1.28
15 -13 10 7.61 1.08
15 -14 -10 1.41 0.77
15 -1 10 1.81 0.88
14 1 -10 1.39 0.79
-1 -14 10 0.77 0.87
15 -1 10 1.11 0.9
-15 1 10 1.13 0.85
-15 14 -10 2.41 0.89
1 -15 -10 1.08 0.82
14 -15 10 1.79 0.79
-14 15 10 0.87 0.89
-14 15 -10 0.98 0.82
-14 -1 10 -0.19 0.92
-1 -14 -10 1.05 0.88
1 -15 10 0.82 0.91
14 1 10 0.96 0.98
-15 14 10 1.08 0.88
15 -14 10 0.79 0.75
14 1 10 0.27 0.82
15 -1 -10 -0.02 0.83
14 -15 -10 1.15 0.82
0 -15 10 0.82 0.86
15 0 10 0.73 0.91
-15 15 10 1.09 0.83
15 0 10 0.29 0.82
15 0 -10 0.96 0.84
15 -15 10 0.96 0.78
15 -15 -10 2.35 0.84
-15 0 10 0.82 0.88
-15 15 -10 1.31 0.75
0 -15 -10 1.05 0.81
16 -8 -10 0.06 0.8
8 8 10 0.77 0.75
-8 -8 10 0.57 0.89
-8 16 -10 1.11 0.99
-16 8 10 0.75 0.69
-8 16 10 0.05 0.81
16 -8 10 1.16 0.77
8 8 10 0.5 0.84
-16 8 10 0.29 0.74
8 -16 10 0.58 0.82
-9 16 10 13.85 1.83
-16 7 10 13.82 1.61
16 -7 10 15.36 1.69
9 -16 10 16.02 1.7
7 9 10 13.37 1.62
7 9 10 11.77 1.65
-7 16 -10 12.22 1.79
16 -9 -10 16.83 1.66
7 -16 10 12.91 1.66
-9 16 -10 12.8 1.81
-16 9 10 11.27 1.62
-9 -7 10 10.86 1.75
16 -7 -10 11.82 1.57
9 7 10 11.41 1.61
16 -9 10 11.76 1.57
16 -6 10 1.12 0.82
-6 16 -10 0.86 0.9
10 -16 10 2.46 0.84
6 10 10 1.05 0.82
-10 16 10 2.55 1.18
16 -10 -10 1.55 0.74
-16 6 10 1.29 0.79
16 -6 10 0.96 0.78
6 10 10 1.51 0.8
10 -16 -10 3.43 0.95
6 -16 10 2.7 0.93
-10 16 -10 3.14 0.98
-10 -6 10 2.58 1.02
10 6 10 2.83 0.88
16 -6 -10 3.37 0.93
-16 10 10 2.78 1.12
16 -10 10 2.03 0.82
-5 -11 10 1.96 0.78
11 -16 10 3.04 0.8
-11 16 10 4.25 1.27
5 11 10 3.3 0.94
-16 5 10 2.98 0.93
16 -5 10 3.5 1.04
5 11 10 3.76 0.83
16 -11 -10 3.03 0.8
11 5 10 7.21 1.17
5 -16 10 5.5 1.06
-16 11 10 4.91 1.19
-11 16 -10 6.62 1.12
11 -16 -10 4.35 1.02
-11 -5 10 3.55 1.07
16 -5 -10 4.49 1.02
16 -11 10 4.22 0.93
-16 4 10 9.58 1.51
16 -12 -10 9.35 1.4
12 -16 10 10.19 1.18
-12 16 10 10.74 1.44
4 12 10 8.81 1.15
4 -16 10 13.28 1.41
16 -4 -10 11.96 1.34
-12 16 -10 8.18 1.19
-16 12 10 9.61 1.42
-16 4 -10 9.56 1.55
12 4 10 11.07 1.37
12 -16 -10 13.9 1.4
16 -12 10 8.59 1.18
-3 -13 10 0.12 0.79
-16 13 -10 -0.12 0.77
16 -13 -10 -0.12 0.69
3 13 10 -0.18 0.73
-16 3 10 0.36 0.82
-13 16 10 0.61 0.93
16 -3 10 -0.41 0.89
3 -16 -10 0.96 0.73
13 -16 10 -0.12 0.67
-16 3 -10 0.19 0.76
13 -16 -10 0.33 0.81
16 -13 10 0.6 0.74
3 -16 10 0.09 0.83
-13 16 -10 0.81 0.77
13 3 10 0.39 0.95
-16 13 10 1.08 0.85
-13 -3 10 0.31 0.87
16 -3 -10 -0.07 0.85
16 -14 -10 4.13 0.85
-14 16 10 5.43 1.05
-16 2 10 3.26 0.91
16 -2 10 2.98 0.94
2 -16 -10 2.73 0.88
14 -16 10 3.64 0.85
-16 14 -10 3.12 0.89
-2 -14 10 2.28 0.91
16 -14 10 2.05 0.8
14 2 10 1.21 0.98
-2 -14 -10 1.63 0.85
14 2 10 1.55 0.82
2 -16 10 2.33 0.93
-16 14 10 1.52 0.87
-14 16 -10 2.4 0.76
-14 -2 10 1.27 0.89
14 -16 -10 2.34 0.87
16 -2 -10 0.18 0.82
-15 16 10 2.19 0.84
1 -16 -10 1.01 0.78
15 1 -10 1.47 0.79
16 -15 -10 1.82 0.76
16 -1 10 1.74 0.84
-16 1 10 1.88 0.91
-1 -15 10 1.2 0.81
15 -16 10 0.92 0.75
-16 15 -10 1.97 0.83
16 -1 10 1.41 0.85
-1 -15 -10 0.46 0.74
1 -16 10 1.04 0.83
-16 15 10 1.49 0.85
15 1 10 0.25 0.88
16 -1 -10 0.21 0.82
-15 -1 10 1.63 0.87
16 -15 10 0.77 0.72
15 -16 -10 1.28 0.79
15 1 10 0.5 0.77
-15 16 -10 2 0.76
16 -16 10 0.14 0.64
-16 0 10 -0.24 0.78
-16 16 -10 0.59 0.71
16 0 -10 -0.23 0.79
16 -16 -10 0.39 0.73
16 0 10 0.45 0.83
-16 16 10 0.86 0.75
0 -16 10 0.11 0.78
0 -16 -10 -0.61 0.71
16 0 10 0.43 0.73
-8 17 -10 0.74 0.8
17 -8 10 1.44 0.76
-9 17 10 1.37 0.77
9 -17 10 2.01 0.77
8 9 10 1.41 0.77
17 -9 -10 1.57 0.74
8 9 10 1.15 0.83
-17 8 10 1.22 0.69
17 -8 -10 1.08 0.72
-9 17 -10 2.1 0.9
8 -17 10 1.11 0.72
-9 -8 10 1.39 0.77
9 8 10 1.67 0.78
9 8 10 1.44 0.82
17 -9 10 1.71 0.75
7 10 10 0.53 0.79
-17 7 10 1.12 0.71
-10 17 10 1.23 0.9
10 -17 10 1.19 0.73
17 -7 10 0.13 0.79
7 10 10 0.89 0.75
-7 17 -10 1.53 0.8
17 -10 -10 1.49 0.76
17 -7 10 1.03 0.72
17 -10 10 0.89 0.71
-10 17 -10 1.3 0.84
17 -7 -10 0.88 0.75
-17 10 10 0.84 0.78
10 7 10 0.96 0.75
10 -17 -10 0.93 0.79
7 -17 10 1.97 0.8
-10 -7 10 0.21 0.8
-11 17 10 9.92 1.55
11 -17 10 10.17 1.3
6 11 10 9.39 1.21
-17 6 10 10.71 1.46
17 -6 10 9.16 1.31
17 -11 -10 10.59 1.32
6 11 10 7.34 1.06
-11 -6 10 5.75 1.07
17 -6 -10 6.8 1.02
6 -17 10 7.33 1.06
-11 17 -10 4.96 0.93
-17 6 -10 4.74 0.94
-17 11 10 6.7 1.16
11 -17 -10 9.97 1.22
11 6 10 9.18 1.13
12 -17 10 8.1 1.03
-17 5 10 9.75 1.37
17 -12 -10 8.7 1.24
17 -5 10 8.01 1.24
5 12 10 6.8 0.99
-5 -12 10 5.92 0.99
-12 17 10 9.53 1.57
-12 17 -10 10.09 1.36
5 -17 10 8.88 1.19
12 5 10 12.89 1.38
17 -12 10 11.46 1.23
-17 5 -10 9.56 1.43
12 -17 -10 8.95 1.22
-17 12 10 8.96 1.47
17 -5 -10 10.45 1.23
-12 -5 10 8.47 1.27
4 13 10 8.92 1.32
13 -17 10 9.82 1.3
-4 -13 10 8.9 1.36
-13 17 10 13.14 1.54
-17 4 10 11.19 1.44
17 -13 -10 11.56 1.34
17 -4 10 9.47 1.31
13 4 10 9.93 1.24
-13 -4 10 9.35 1.24
13 -17 -10 11.11 1.43
17 -13 10 8.84 1.1
17 -4 -10 6.53 1.08
-17 4 -10 9.33 1.39
-17 13 10 8.94 1.47
-13 17 -10 8.34 1.27
4 -17 10 7.66 1.06
17 -14 -10 3.2 0.78
3 -17 -10 1.88 0.75
-17 3 10 3.29 0.88
-3 -14 10 1.85 0.76
-17 14 -10 1.1 0.73
14 -17 10 2.53 0.75
-14 17 10 2.96 0.89
17 -3 10 2.23 0.9
14 -17 -10 3.19 0.89
-14 -3 10 2.55 0.9
-3 -14 -10 2.88 0.84
17 -3 -10 1.91 0.8
-17 14 10 2.33 0.84
17 -14 10 4.43 0.84
-14 17 -10 3.97 0.82
14 3 10 3.86 1.01
3 -17 10 4.95 0.95
15 -17 10 1.8 0.73
-17 2 10 3.16 0.88
-2 -15 10 2.01 0.79
2 -17 -10 1.23 0.78
-17 15 -10 2.33 0.78
17 -2 10 1.74 0.87
17 -15 -10 3.01 0.79
-15 17 10 2.28 0.76
-15 17 -10 2.45 0.74
15 2 10 1.97 0.94
-2 -15 -10 1.19 0.73
-15 -2 10 1.8 0.81
-17 15 10 2.64 0.8
17 -2 -10 1.65 0.79
17 -15 10 2.37 0.75
15 -17 -10 1.84 0.79
2 -17 10 2.31 0.82
-1 -16 10 2.28 0.82
17 -1 10 1.71 0.8
1 -17 -10 1.6 0.7
-17 16 -10 2.52 0.7
17 -16 -10 2.19 0.73
17 -1 10 0.2 0.59
-17 1 10 3.2 0.89
-16 17 10 2.09 0.7
16 1 -10 -0.01 0.58
16 -17 10 1.74 0.66
16 1 10 1.53 0.89
-1 -16 -10 1.52 0.72
17 -1 -10 1.35 0.8
17 -16 10 1.74 0.7
16 1 10 1.87 0.82
1 -17 10 2.45 0.79
16 -17 -10 2.2 0.76
-16 17 -10 2.81 0.76
-17 16 10 2.8 0.76
-16 -1 10 2.06 0.79
17 0 10 -0.17 0.77
0 -17 -10 -0.12 0.63
-17 0 10 0.82 0.72
0 -17 10 -0.17 0.68
17 -17 10 0.31 0.62
17 0 10 0.21 0.64
-17 17 10 0.26 0.65
17 -17 -10 0.33 0.72
-17 17 -10 0.08 0.62
17 0 -10 -0.38 0.59
9 9 10 0.75 0.68
-9 18 -10 0.21 0.65
-18 9 10 0.08 0.65
18 -9 -10 0.39 0.64
18 -9 10 0.66 0.67
9 9 10 -0.25 0.73
9 -18 10 0.54 0.69
-18 9 -10 0.87 0.71
-18 8 10 1.94 0.64
8 10 10 2.1 0.8
18 -8 10 -0.1 0.73
-8 18 -10 2.43 0.74
8 10 10 3.8 0.8
18 -10 -10 4.3 0.77
10 -18 10 4.35 0.8
18 -10 10 5.37 0.91
10 -18 -10 4.8 0.92
-18 8 -10 5.72 0.9
10 8 10 4.44 0.83
8 -18 10 3.04 0.75
18 -8 -10 6.12 0.94
-10 18 -10 4.64 0.87
7 11 10 1.68 0.69
18 -7 10 0.89 0.85
18 -11 -10 2.76 0.71
7 11 10 1.61 0.78
11 -18 10 2.03 0.69
-11 18 10 2.27 0.84
-18 7 10 1.62 0.66
-18 7 -10 2.05 0.74
-18 11 10 0.19 0.51
7 -18 10 2.2 0.76
-11 -7 10 0.88 0.66
-11 18 -10 1.52 0.7
18 -7 -10 1.7 0.77
11 7 10 1.11 0.73
11 -18 -10 2.07 0.87
18 -11 10 1.09 0.67
18 -6 10 2 0.92
12 -18 10 1.25 0.62
18 -12 -10 2.99 0.75
6 12 10 1.3 0.68
-12 18 10 1.48 0.72
-6 -12 10 -0.03 0.59
-18 6 10 1.99 0.75
6 -18 10 2.89 0.81
18 -12 10 1.26 0.66
-18 6 -10 1.86 0.74
18 -6 -10 1.28 0.79
-12 -6 10 1.15 0.77
12 6 10 2.42 0.83
12 -18 -10 2.22 0.86
-18 12 10 2.22 0.82
-12 18 -10 0.99 0.68
5 13 10 2.29 0.67
18 -5 10 2.18 0.88
-13 18 10 2.44 0.77
-13 -5 -10 1.34 0.64
13 -18 10 2.14 0.66
18 -13 -10 2.08 0.7
-18 5 10 2.26 0.74
-5 -13 10 1.58 0.68
18 -13 10 1.62 0.72
5 -18 10 2.41 0.84
-13 -5 10 1.68 0.8
-18 13 10 2.03 0.81
-13 18 -10 2.92 0.75
18 -5 -10 0.94 0.74
13 5 10 2.41 0.85
13 -18 -10 2.59 0.81
-18 5 -10 1.42 0.71
-14 18 10 1.07 0.68
-18 4 10 1.71 0.77
18 -4 10 0.73 0.82
4 -18 -10 0.53 0.82
14 -18 10 0.8 0.66
18 -14 -10 0.79 0.68
-4 -14 10 0.8 0.68
-14 -4 10 1.11 0.77
14 -18 -10 1.3 0.78
-4 -14 -10 1.07 0.7
-14 18 -10 1.36 0.68
18 -4 -10 0.73 0.68
-18 14 10 1.26 0.76
18 -14 10 1.27 0.68
14 4 10 1.39 0.87
4 -18 10 1.15 0.72
-3 -15 10 2.15 0.75
18 -3 10 1.37 0.85
-15 18 10 3.14 0.75
-18 15 -10 1.77 0.63
3 -18 -10 0.27 0.53
15 -18 10 2.1 0.69
-18 3 10 2.82 0.8
18 -15 -10 1.95 0.72
-15 18 -10 2.86 0.71
15 3 10 2 0.91
3 -18 10 1.88 0.72
-3 -15 -10 1.17 0.67
-18 15 10 1.56 0.71
18 -15 10 1.59 0.67
15 -18 -10 2.17 0.75
18 -3 -10 1.66 0.75
-15 -3 10 1.91 0.79
18 -16 -10 3.08 0.75
-18 2 10 2.85 0.79
16 -18 10 1.84 0.64
2 -18 -10 0.27 0.47
-2 -16 10 1.93 0.75
18 -2 10 1.73 0.8
-16 18 10 3.64 0.77
2 -18 10 1.57 0.7
18 -2 -10 1.35 0.74
16 2 10 1.2 0.87
-18 16 10 1.89 0.72
-16 -2 10 1.76 0.77
16 -18 -10 1.09 0.71
18 -16 10 1.54 0.65
-16 18 -10 2.05 0.63
-2 -16 -10 0.95 0.62
1 -18 -10 0.31 0.57
18 -17 -10 0.44 0.69
-1 -17 10 -0.05 0.7
-17 18 10 0.32 0.66
17 -18 10 0.11 0.57
18 -1 10 0.03 0.76
-18 1 10 0.75 0.71
18 -17 10 0.15 0.55
-18 17 10 0.62 0.64
18 -1 -10 -0.15 0.58
1 -18 10 -0.36 0.7
17 1 10 0.52 0.69
-17 18 -10 0.25 0.58
17 -18 -10 0.53 0.7
-1 -17 -10 0.03 0.52
-17 -1 10 0.35 0.72
9 -19 -10 1.7 0.73
10 -19 10 1.22 0.63
19 -10 -10 3.34 0.76
-9 19 -10 0.83 0.65
9 10 10 0.04 0.72
-19 10 -10 2.57 0.76
9 10 10 1.56 0.67
19 -9 -10 1.64 0.69
9 -19 10 0.68 0.59
-19 9 -10 0.95 0.67
10 9 10 0.93 0.63
10 9 10 -0.06 0.7
10 -19 -10 1.22 0.77
-10 19 -10 0.31 0.68
8 11 10 3.25 0.73
19 -11 -10 4.62 0.76
-19 11 -10 4.29 0.78
11 -19 10 3.02 0.66
-19 8 10 3.74 0.71
11 -19 -10 3.06 0.81
8 -19 10 4.24 0.78
-11 19 -10 2.95 0.75
11 8 10 3.7 0.8
19 -8 -10 3.93 0.79
-19 8 -10 3.01 0.7
19 -11 10 2.73 0.73
12 -19 10 2.46 0.65
-19 7 10 3.48 0.74
-19 12 -10 5.88 0.83
19 -12 -10 5.51 0.79
7 12 10 3.85 0.72
-12 19 10 3.81 0.78
19 -7 -10 6.83 0.91
12 -19 -10 4.89 0.89
19 -12 10 4.88 0.83
-12 19 -10 4.46 0.82
12 7 10 3.85 0.82
-19 7 -10 4.72 0.8
7 -19 10 6.19 0.85
-19 6 10 0.95 0.69
19 -13 -10 0.75 0.62
-19 13 -10 1.39 0.68
6 13 10 0.19 0.46
13 -19 10 0.28 0.56
-13 19 10 0.83 0.66
19 -6 10 0.38 0.66
19 -13 10 0.13 0.6
-19 13 10 0.2 0.54
-13 19 -10 0.2 0.64
19 -6 -10 0.18 0.63
13 6 10 0.2 0.69
13 -19 -10 0.34 0.71
-19 6 -10 0.2 0.6
6 -19 10 0.27 0.65
-13 -6 10 0.36 0.55
-14 -5 -10 -0.17 0.47
19 -5 10 0.52 0.7
14 -19 10 0.74 0.6
-19 14 -10 0.64 0.67
-5 -14 10 -0.15 0.47
-14 19 10 0.85 0.66
-19 5 10 1.59 0.73
19 -14 -10 0.53 0.64
19 -14 10 0.6 0.59
-14 19 -10 0.41 0.63
-19 14 10 0.23 0.52
-5 -14 -10 0.64 0.64
-14 -5 10 0.44 0.49
19 -5 -10 1.25 0.69
14 5 10 1.08 0.79
14 -19 -10 1 0.75
5 -19 10 0.5 0.66
-19 5 -10 -0.97 0.44
-15 19 10 2.75 0.74
-19 15 -10 2.52 0.64
-19 4 10 3.3 0.8
15 -19 10 2.12 0.68
-4 -15 10 2.11 0.65
19 -4 10 2.28 0.77
19 -15 -10 2.79 0.73
15 4 10 1.89 0.86
19 -4 -10 1 0.68
4 -19 10 1.67 0.79
-19 15 10 1.62 0.58
15 -19 -10 2.29 0.71
-15 -4 10 1.36 0.64
-15 19 -10 2.27 0.65
19 -15 10 2.52 0.67
-4 -15 -10 1.76 0.61
-19 3 10 1.43 0.75
19 -3 10 0.05 0.54
-3 -16 10 1.43 0.71
-16 -3 -10 0.31 0.46
16 -19 10 1.08 0.57
19 -16 -10 0.16 0.69
-16 19 10 0.99 0.67
-19 16 10 0.39 0.59
19 -16 10 0.34 0.57
-3 -16 -10 0.69 0.54
-16 -3 10 0.55 0.62
3 -19 10 0.92 0.74
19 -3 -10 0.79 0.72
16 3 10 0.96 0.89
16 -19 -10 0.66 0.54
-16 19 -10 0.85 0.6
20 -10 -10 5 0.78
10 10 10 2.81 0.68
10 -20 10 3.24 0.7
-20 10 -10 4.04 0.74
10 -20 -10 3.79 0.83
-20 11 -10 3.34 0.71
9 11 10 1.36 0.62
11 -20 10 2.29 0.61
9 -20 -10 2.06 0.73
20 -11 -10 2.82 0.7
11 9 10 2.04 0.68
-11 20 -10 2.18 0.68
-20 9 -10 1.32 0.61
11 -20 -10 2.16 0.76
20 -9 -10 2.71 0.7
9 -20 10 1.16 0.6
12 -20 10 0.34 0.58
20 -12 -10 1.01 0.68
-20 8 10 0.16 0.59
8 12 10 0.39 0.45
-20 12 -10 1.7 0.67
8 -20 -10 1.02 0.64
-20 8 -10 1.22 0.61
12 8 10 0.67 0.67
8 -20 10 0.71 0.6
12 -20 -10 1.28 0.7
-12 20 -10 1.37 0.67
20 -8 -10 1.74 0.67
13 -20 10 0.57 0.6
-20 7 10 1.72 0.65
20 -13 -10 2.66 0.74
-20 13 -10 2.75 0.66
-13 20 -10 1.8 0.72
13 -20 -10 1.4 0.64
-20 7 -10 1.03 0.59
7 -20 10 1.12 0.63
13 7 10 0.66 0.72
20 -7 -10 1.08 0.63
-20 14 -10 2.13 0.67
14 -20 10 1.95 0.66
-20 6 10 3.29 0.74
20 -14 -10 4.15 0.81
-14 20 -10 2.79 0.71
14 6 10 3.34 0.92
6 -20 10 2.08 0.69
-6 -14 -10 2.39 0.68
20 -14 10 1.68 0.66
20 -6 -10 2.56 0.72
0 0 -11 0.04 0.92
0 -1 -11 0.12 1
-1 1 -11 0.51 1
1 -1 -11 0.51 0.93
1 0 -11 0.74 1.01
0 1 -11 1.25 1.06
-1 0 -11 0.4 1
-1 2 -11 5.58 1.25
-2 1 -11 4.45 1.14
2 -1 -11 5.86 1.32
-1 -1 -11 3.35 1.11
1 -2 -11 5.12 1.19
-1 -1 11 4.85 1.59
1 1 -11 5.18 1.2
-2 1 11 6.18 1.74
0 2 -11 2.21 1.07
2 0 -11 1.66 0.99
2 -2 -11 2.3 1.13
0 -2 -11 1.61 1.08
-2 0 11 1.86 1.57
-2 2 -11 2.48 1.15
-2 0 -11 1.83 1.07
-2 2 -11 1.09 1.01
-2 2 11 1.4 1.42
-3 2 -11 13.66 1.9
-1 -2 11 15.69 2.51
2 1 -11 14.38 2.02
-1 3 -11 15.45 2.13
-2 -1 -11 12.4 1.93
3 -2 -11 15.15 2.04
-3 1 11 17.29 2.65
-1 3 -11 13.72 1.84
1 -3 -11 12.56 1.88
3 -1 -11 14.92 2.02
-2 3 -11 12.67 1.96
-2 -1 11 15.14 2.6
-1 -2 -11 12.67 1.92
-3 2 11 11.92 2.18
-2 3 -11 14.71 1.94
-3 1 -11 15.12 1.92
2 -3 -11 13.73 2.07
1 2 -11 14.56 2.01
-3 3 -11 0.29 0.91
3 0 -11 -0.05 0.91
-3 0 11 1.42 1.64
0 -3 11 -0.5 0.89
-3 3 11 -0.58 1.35
-3 3 -11 0.29 0.91
-3 0 -11 0.32 1.03
0 3 -11 0.58 0.95
-3 0 -11 -0.28 0.75
0 -3 -11 0.66 0.98
3 -3 -11 0.77 1.07
0 3 -11 0.53 0.99
-4 2 -11 6.31 1.34
-4 2 11 8.32 1.99
4 -2 -11 10.02 1.54
2 2 -11 6.95 1.3
-2 -2 11 10.95 2.14
2 -4 -11 6.72 1.35
-2 -2 -11 5.96 1.3
-2 4 -11 7.02 1.37
-2 4 -11 8.28 1.42
-4 1 11 0.32 0.79
-3 -1 -11 0.4 0.76
-1 -3 11 0.58 0.61
4 -3 -11 1.96 1.18
-1 4 -11 3.68 1.22
-1 4 -11 1.97 1.06
3 -4 11 0.26 0.59
3 1 -11 2.71 1.11
1 -4 -11 2.08 1.17
-1 -3 11 -0.55 0.94
-1 -3 11 4.44 1.62
-4 3 -11 1.85 1.05
-4 1 11 2.89 1.63
-3 4 -11 2.56 1.04
-4 3 11 1 0.7
-4 3 11 2.11 1.57
1 3 -11 2.65 1.07
-3 4 -11 4.1 1.19
1 3 -11 3.27 1.2
4 -1 -11 4.82 1.24
-1 -3 -11 2.34 1.13
3 -4 -11 5.18 1.32
-3 -1 11 5.35 1.78
-4 1 -11 3.04 1.11
0 4 -11 5.12 1.34
-4 4 -11 3.92 1.14
4 0 -11 5.75 1.23
-4 0 -11 3.85 1.15
0 -4 -11 4.14 1.3
-4 0 11 3.94 1.82
0 4 -11 3.41 1.2
4 -4 -11 5.46 1.37
-2 -3 11 1.89 1.66
-2 -3 11 0.88 0.77
3 -5 11 1.06 0.79
-5 3 -11 0.8 1.03
2 -5 -11 0.99 1.19
-3 -2 -11 0.34 0.75
-5 2 11 0.63 1.63
-2 5 -11 1.49 1.03
-5 2 11 0.87 0.82
3 2 -11 0.62 0.96
-2 5 -11 0.94 1.07
5 -3 -11 0.88 1.03
-3 -2 11 0.5 0.65
2 -5 11 0.83 0.81
5 -2 -11 0.11 0.96
3 -5 -11 0.86 1.14
-3 -2 11 1.07 1.57
-3 5 -11 0.08 0.97
-5 3 11 0.99 0.92
-5 2 -11 0.8 1.04
-2 -3 -11 0.76 0.95
2 3 -11 0.75 1.02
-3 5 -11 0.1 1.03
-5 3 11 -0.86 1.61
-1 -4 11 3.75 1.57
-5 1 11 0.48 0.72
4 -5 11 1.76 0.79
-5 1 11 2.36 1.84
-1 5 -11 3.42 1.2
-5 4 -11 2.4 1.12
-1 5 -11 2.97 1.2
4 1 -11 1.99 1.13
-4 5 11 1.17 0.77
-4 -1 -11 1.16 1.05
-1 -4 11 2.64 0.94
1 -5 -11 1.15 1.16
5 -4 -11 1.96 1.12
-4 -1 11 3.8 1.74
1 4 -11 2.72 1.28
-5 4 11 2.72 1.61
-5 4 11 1.5 0.97
1 4 -11 1.24 1.04
1 -5 11 1.89 0.89
5 -1 -11 2.46 1.08
4 -5 -11 2.28 1.11
-4 -1 11 0.34 0.66
-1 -4 -11 1.76 1.11
-4 5 -11 3.35 1.22
-5 1 -11 2.11 1.08
-5 5 11 -0.19 0.93
-5 0 -11 -0.84 0.99
-5 5 -11 -0.17 0.93
-5 0 11 1.14 1.96
0 5 -11 1 1.13
0 -5 11 1.23 0.88
0 5 -11 0.89 1.07
-5 0 11 0.14 0.65
5 -5 11 0.17 0.79
-5 0 11 0.45 0.93
5 0 -11 0.31 1.06
0 -5 -11 0.33 1.2
5 -5 -11 1.06 1.22
3 -6 -11 0.58 1.14
-6 3 -11 1.3 1.09
-3 6 -11 2.35 1.14
6 -3 -11 0.57 1.17
3 -6 11 0.77 0.85
3 3 -11 1.75 1.15
-3 -3 11 0.9 0.89
3 3 11 -0.26 0.58
-3 -3 11 0.93 1.52
-6 3 11 1.04 0.95
6 -3 11 -0.41 0.78
-6 3 11 1.06 1.88
-3 -3 -11 0.48 0.77
-3 6 -11 -0.48 0.96
-6 2 11 0 1.83
4 -6 11 0.06 0.84
-4 -2 -11 -0.24 0.74
-6 4 -11 0.9 1.06
-2 -4 11 1.1 0.93
2 -6 -11 -0.6 1.16
-2 -4 11 1.82 1.55
-2 6 -11 0.37 1
4 2 -11 0.27 0.99
2 4 11 0.08 0.65
-6 2 11 1.48 0.92
6 -4 -11 0.66 1.16
-2 6 -11 1.9 1.18
-4 6 11 -0.07 0.75
2 4 -11 0.06 1.19
6 -4 11 0.14 0.61
6 -2 -11 0.74 1.09
2 4 -11 0.63 1.11
-6 4 11 -0.13 1.04
-2 -4 -11 -0.62 1
-6 4 11 0.24 1.72
-4 -2 11 0.26 1.55
4 -6 -11 -0.42 1.05
-6 2 -11 -0.03 1.04
2 -6 11 0.01 0.93
-4 -2 11 0.18 0.9
-4 6 -11 1.02 1.07
-1 6 -11 3.46 1.29
-1 6 -11 4.48 1.36
-1 -5 11 3.45 1.8
5 -6 11 2.64 0.91
-1 -5 11 2.17 0.97
1 5 11 3.52 0.86
5 1 -11 3.88 1.18
-6 1 11 5.25 2.13
-6 5 -11 3.22 1.19
-6 1 11 0.89 0.76
-5 6 11 3.17 1.12
6 -5 -11 2.83 1.21
1 -6 11 4.03 0.99
-6 5 11 4.67 1.2
6 -1 -11 4.66 1.26
-6 1 -11 2.33 1.14
1 5 -11 4.34 1.26
-5 6 -11 6.43 1.35
1 5 -11 6 1.47
-5 -1 11 7.94 2.25
-5 -1 11 3.77 1.09
6 -5 11 4.02 0.98
-1 -5 -11 3.78 1.25
5 -6 -11 5.18 1.4
6 0 -11 5.57 1.38
0 -6 11 4.11 1.03
-6 6 -11 3.43 1.22
0 6 -11 3.54 1.28
0 6 -11 3.98 1.29
6 -6 -11 4.84 1.42
-6 0 11 4.94 2.03
-6 6 11 3.35 1.22
6 -6 11 2.89 0.95
-6 0 11 4.49 1.23
-3 7 -11 2.81 1.12
4 3 -11 2.8 1.16
-3 -4 11 1.45 0.9
7 -4 -11 2.89 1.32
3 4 11 2.09 0.85
-4 7 11 0.63 0.75
-3 -4 11 3.08 1.77
-3 7 -11 0.83 1.05
4 -7 11 1.92 0.91
-7 3 11 2.46 2.09
-7 4 -11 2.45 1.23
-7 3 11 1.81 1
-7 4 11 0.69 1.83
7 -3 -11 1.15 1.22
-7 4 11 0.63 1.06
4 3 11 0.73 0.71
-4 7 -11 0.65 1.11
3 4 -11 0.99 1.25
7 -4 11 -0.37 0.74
-4 -3 11 0.67 1.7
-7 3 -11 0.59 1.09
3 -7 11 0.26 0.97
3 4 -11 0.58 1.12
-4 -3 11 0.19 0.9
4 -7 -11 -0.39 1.23
2 5 11 2.83 0.89
-2 7 -11 1.86 1.18
-7 2 11 0.28 0.77
7 -5 -11 1.1 1.17
-7 5 -11 2.65 1.2
-2 -5 11 2.93 1.03
-2 -5 11 2.93 1.75
-7 2 11 2.49 1.03
5 2 -11 3.14 1.26
-7 2 11 3.8 2.22
-5 7 11 1.85 1.09
-2 7 -11 2.48 1.19
5 -7 11 2.14 0.97
2 5 -11 4.64 1.4
-7 5 11 1.18 1.04
5 -7 -11 2.78 1.37
-7 5 11 -0.15 2.2
-2 -5 -11 2.27 1.12
-5 -2 11 5.77 2.16
-5 -2 11 2.29 1.03
-5 7 -11 2.53 1.15
2 5 -11 3.16 1.2
2 -7 11 2.75 0.99
7 -2 -11 4.56 1.36
7 -5 11 3.14 0.95
-7 1 11 -0.15 1.11
-6 7 11 -0.4 1.04
-7 6 -11 -0.33 1.12
-1 7 -11 0.28 1.19
7 -6 -11 -0.75 1.24
-7 1 11 0.4 0.68
-1 7 -11 0.52 1.15
-1 -6 11 0.93 1.67
6 -7 11 -0.15 0.91
6 1 -11 0.68 1.11
1 6 11 0.78 0.84
-1 -6 11 0.23 0.93
-7 1 11 0.29 1.89
-6 -1 11 0.17 1.11
-6 -1 11 0.71 1.83
1 6 -11 0.47 1.16
1 6 -11 0.22 1.18
-7 1 -11 -0.27 1.55
1 -7 11 0.43 0.91
-7 6 11 -0.21 1
6 -7 -11 -1.09 1.18
7 -1 -11 0.46 1.07
7 -6 11 0.65 0.94
-6 7 -11 0.43 1.08
0 7 -11 -0.12 1.07
7 -7 11 -0.12 0.57
0 7 -11 0.98 1.12
-7 0 11 0.61 1.82
-7 0 11 0.17 1.23
7 -7 -11 0.18 0.62
-7 7 11 0.89 1.19
7 0 -11 0.83 1.28
0 -7 11 1.3 0.97
-7 0 -11 0.35 1.37
7 -7 11 0.55 0.89
7 -7 -11 1.2 1.37
-7 7 -11 0.82 1.14
8 -4 -11 29.97 2.86
8 -4 11 23.53 2.38
4 4 11 24.53 2.5
-4 -4 11 27.03 2.51
-8 4 11 26.99 2.65
-8 4 -11 26.56 2.88
-4 8 -11 33.43 3.05
-4 -4 11 35.68 3.51
-8 4 -11 26.77 3.28
4 -8 11 26.4 2.55
-8 4 11 30.32 3.84
4 4 -11 32.03 2.89
-3 -5 11 11.65 2.22
3 5 11 10.81 1.54
-3 -5 11 6.12 1.16
5 3 -11 7.59 1.52
5 3 -11 10.78 1.61
8 -3 11 5.65 0.98
-3 8 -11 11.96 2.18
-8 3 11 10.71 1.45
-5 8 11 11.05 1.52
-3 8 -11 3.33 1.29
-8 5 -11 7.36 1.53
-8 3 11 8.41 2.34
5 -8 11 6.46 1.14
8 -5 -11 8.41 1.59
-8 5 11 13.01 1.96
-5 -3 11 14.29 1.91
-8 3 -11 9.74 2.17
3 -8 11 13.46 1.91
5 -8 -11 13.35 2.02
5 3 11 12.95 1.68
8 -5 11 10.54 1.76
-5 8 -11 13.73 2.06
-5 -3 11 15.88 2.87
3 5 -11 13.14 2
8 -3 -11 14.5 2.24
3 5 -11 10.67 2.06
6 -8 11 6.81 1.19
8 -6 -11 9.19 1.72
-2 -6 11 6.09 1.88
-2 -6 11 9.61 1.37
2 6 11 9.6 1.2
-6 8 11 5.16 1.35
-2 8 -11 5.11 1.44
-8 2 11 10.62 2.58
6 2 -11 10.46 1.66
-2 8 -11 7.9 1.61
-8 2 11 5.66 1.08
-8 6 -11 6.26 1.43
-8 2 11 5.16 1.32
2 6 -11 5.53 1.34
-8 2 -11 8.03 2.09
8 -6 11 6.17 1.13
2 6 -11 3.91 1.29
-6 -2 11 9.58 2.34
-6 -2 11 7.51 1.38
8 -2 -11 5.47 1.35
2 -8 11 5.47 1.14
-6 8 -11 6.88 1.41
6 2 11 6.08 1
-8 6 11 4.14 1.21
6 -8 -11 4.45 1.38
1 7 11 6.77 1.07
-8 1 11 6.54 1.42
7 1 -11 5.28 1.4
8 -7 -11 6.2 1.58
-8 7 -11 5.32 1.45
-1 -7 11 7.25 1.27
-1 8 -11 3.75 1.28
-7 8 11 5.9 1.36
-8 1 11 6.47 2.28
7 -8 11 5.85 1.18
-1 8 -11 5.67 1.51
7 -8 11 3.96 0.91
8 -7 -11 4.36 1.05
7 -8 -11 7.85 1.16
7 -8 -11 10.74 1.78
1 -8 11 5.43 1.11
-8 1 -11 7.32 1.97
-7 8 -11 5.78 1.36
8 -7 11 5.16 0.93
-7 -1 11 6.7 1.36
8 -7 11 6.43 1.13
1 7 -11 7.57 1.51
1 7 -11 5.76 1.44
-8 7 11 7.06 1.37
8 -1 -11 11.79 1.74
-8 8 11 1.55 1.2
8 -8 11 1.55 0.81
0 -8 11 1.7 1.01
8 -8 -11 3.12 1.04
-8 8 -11 1.19 1.25
-8 0 11 3.27 2.15
0 8 -11 1.57 1.27
-8 0 11 0.69 1.12
8 -8 11 1.84 0.99
8 -8 -11 0.75 1.38
8 0 -11 2.07 1.33
0 8 -11 0.24 1.21
9 -5 -11 12.22 1.84
5 -9 11 11.98 1.68
-9 4 11 10.46 1.75
-9 5 -11 5.85 1.55
5 -9 11 6.21 1.06
-5 9 11 7.67 1.41
4 5 11 11.42 1.3
5 4 -11 13.02 1.96
-9 5 -11 8.64 2.07
-4 9 -11 11.65 2
-9 4 11 10.34 2.54
-4 -5 11 8.45 1.29
5 4 11 12.61 1.83
4 -9 11 12.18 1.94
-5 9 -11 12.98 2.24
-9 4 -11 10.78 2.25
-9 5 11 12.47 1.92
-5 -4 11 16.11 2.6
9 -4 -11 13.61 1.98
-5 -4 11 11.5 1.9
4 5 -11 14.23 2.18
9 -5 11 11.51 1.8
6 3 -11 19.24 2.23
-3 -6 11 18.65 2.91
-9 6 -11 14.87 2.43
6 -9 11 15.95 2.08
-6 9 11 16.77 2.24
3 6 11 15.01 1.91
-9 3 11 15.77 2.18
-3 -6 11 17.94 2.04
9 -6 -11 18.07 2.3
-9 3 11 14.98 2.89
-9 3 11 16.1 1.96
-3 9 -11 17.8 2.48
6 -9 11 15.85 1.79
-9 6 -11 18.26 3.08
9 -6 -11 13.29 1.78
9 -3 -11 18.7 2.55
9 -6 11 15.53 2.04
6 -9 -11 19.21 2.37
3 -9 11 15.17 2.05
-6 -3 11 20.44 3.17
-9 3 -11 16.01 2.8
-9 6 11 14.73 2.01
6 3 11 16.39 1.91
9 -6 11 14.44 1.7
-6 -3 11 16.49 2.09
3 6 -11 16.34 2.29
-6 9 -11 15.8 2.38
7 2 -11 6.58 1.54
-9 7 -11 2.03 1.25
-9 2 11 5.99 2.43
2 7 11 4.85 1
9 -7 -11 3.59 1.43
-7 9 11 4.2 1.39
9 -7 -11 4.73 1.11
-2 -7 11 4.5 2.01
-2 9 -11 3.29 1.4
-9 7 -11 5.76 2.1
7 -9 11 2.66 0.97
-9 2 11 4.45 1.35
7 -9 11 3.33 1.02
-2 9 -11 2.09 1.22
-2 -7 11 4.15 1.14
-7 -2 11 5.32 1.28
-7 9 -11 5.18 1.47
-9 2 -11 3.18 1.75
7 -9 -11 3.22 1.34
9 -7 11 5.18 1.16
7 2 11 4.87 1.07
2 -9 11 4.71 1.17
-7 -2 11 5.37 2.1
2 7 -11 4.67 1.37
-9 7 11 3.91 1.27
9 -2 -11 3.51 1.46
9 -7 11 2.78 0.96
8 1 -11 5.23 1.44
-9 1 11 5.79 2.33
-1 9 -11 2.29 1.29
9 -8 -11 3.9 1.1
1 8 11 6.21 1.05
-8 9 11 2.84 1.32
-1 9 -11 3.3 1.36
8 -9 11 3.15 0.95
-9 8 -11 2.98 1.46
-9 1 11 3.43 1.34
9 -8 -11 3.01 1.48
-1 -8 11 3.54 1.08
-9 8 -11 5.03 2.16
8 -9 11 2.92 1.02
-9 8 11 2.52 1.24
1 8 -11 1.36 1.2
1 -9 11 2.38 1.05
-9 1 -11 0.26 1.47
8 1 11 2.17 0.89
8 -9 -11 2.58 1
-8 -1 11 3.07 1.28
-8 -1 11 3.28 2.01
9 -8 11 1.5 0.85
8 -9 -11 1.22 1.27
9 -1 -11 0.13 1.25
9 -8 11 1.85 1.03
-8 9 -11 1.24 1.22
9 -9 11 2.7 1.09
9 -9 -11 3.69 1.05
-9 9 -11 1.34 1.37
9 0 -11 4.27 1.49
9 0 11 0.94 0.67
-9 9 -11 2.57 1.91
-9 9 11 2.07 1.3
0 9 -11 1.89 1.37
9 -9 11 3.56 0.96
-9 0 11 2.4 1.21
9 -9 -11 2.45 1.3
-9 0 11 1.55 2.1
0 -9 11 2.9 1.08
-5 -5 11 0.79 0.98
10 -5 11 0.7 0.9
-5 10 11 0.57 1.1
5 5 11 1.11 0.9
10 -5 -11 0.05 0.83
5 -10 11 0.98 1.01
-10 5 11 -0.1 1.05
-10 5 11 -0.45 1.94
-5 -5 11 1.47 1.7
-5 10 -11 1.29 1.31
5 -10 11 0.55 0.89
-10 5 -11 1.52 1.66
10 -5 -11 0.58 1.33
5 5 -11 0.51 1.27
6 -10 11 9.15 1.3
-10 4 11 5.6 1.37
-10 4 11 6.94 2.34
4 6 11 12.81 1.33
-10 6 -11 9.88 2.2
6 -10 11 11.12 1.4
10 -4 11 5.93 1.09
-10 4 11 10.41 1.44
6 4 -11 11.21 1.77
10 -6 -11 7.08 1.23
-4 -6 11 10.21 1.37
-4 10 -11 8.2 1.75
10 -6 -11 6.2 1.56
-6 10 11 10.12 1.66
-4 -6 11 8.42 2.06
10 -6 11 7.38 1.17
4 -10 11 7.59 1.23
4 -10 11 6.34 1.29
6 4 11 9.26 1.26
4 6 -11 7.39 1.5
-10 6 11 4.49 1.21
-10 4 -11 6.53 2.09
-6 10 -11 7.72 1.59
10 -4 -11 7.86 1.66
-6 -4 11 9.69 1.42
-6 -4 11 7.06 2.12
-3 10 -11 2.42 1.36
7 -10 11 2.95 0.99
-10 7 -11 2.16 1.43
-10 3 11 5.76 2.5
10 -7 -11 3.66 1.05
10 -3 11 2.45 0.82
-10 3 11 3.44 1.02
-3 -7 11 5.42 2.03
-10 3 11 3.72 1.37
10 -7 -11 4.65 1.47
-7 10 11 2.6 1.31
7 -10 11 4.17 1.1
7 3 -11 3.59 1.31
-3 -7 11 5.2 1.21
3 7 11 5.39 1.02
-3 10 -11 -0.56 1.19
-10 7 -11 4.02 1.94
-7 -3 11 8.24 2.3
3 -10 11 4.21 1.06
-10 7 11 5.74 1.35
7 3 11 5.1 1.07
3 7 -11 7.27 1.55
-7 -3 11 5.42 1.25
7 -10 -11 4.01 1.43
-7 10 -11 6.91 1.64
3 -10 11 4.49 1.2
10 -3 -11 5.18 1.56
10 -7 11 3.68 1.01
-10 3 -11 5.24 1.86
8 2 -11 4.45 1.45
10 -8 -11 4.22 1.07
-8 10 11 2.74 1.32
-2 10 -11 1.38 1.17
8 -10 11 7.24 1.24
-10 8 -11 2.92 1.42
-2 10 -11 2.21 1.32
2 8 11 6.84 1.07
-10 2 11 6.8 2.5
8 -10 11 5.06 1.06
-10 2 11 2.91 1.31
10 -8 -11 4.46 1.44
-2 -8 11 5.19 1.2
10 -2 11 3.64 0.79
-10 8 -11 6.11 2.15
10 -2 -11 0.94 1.38
2 8 -11 0.84 1.25
-10 2 -11 0.91 1.4
8 2 11 1.51 0.95
8 -10 -11 -0.2 1.34
-8 -2 11 1.4 1.88
-8 10 -11 1.39 1.31
2 -10 11 1.54 0.98
-10 8 11 -0.45 1.07
10 -8 11 1.38 0.91
-8 -2 11 1.82 1.18
2 -10 11 1.51 1.11
8 -10 -11 1.88 0.94
9 1 -11 -0.91 1.25
-1 10 -11 0.91 1.26
10 -9 -11 1.27 0.96
10 -9 -11 0.48 1.32
-10 9 -11 1.09 1.83
9 -10 11 0.86 0.85
-10 1 11 -1.13 1.17
1 9 11 1.02 0.85
-9 10 11 -1.12 1.17
-10 9 -11 -0.24 1.34
10 -1 11 0.86 0.63
-10 1 11 -0.12 2
9 -10 11 0.26 1.01
-1 -9 11 1.69 1.02
10 -1 -11 0.13 1.24
10 -9 11 0.12 0.85
1 -10 11 1.1 0.99
1 9 -11 0.11 1.28
-9 10 -11 0.23 1.92
1 -10 11 0.65 0.95
9 -10 -11 0.52 1.3
9 -10 -11 0.31 0.95
-9 -1 11 -0.22 1.11
-9 -1 11 0.17 1.9
-10 9 11 -1.2 1.11
9 1 11 0.87 0.9
-9 10 -11 -0.02 1.31
-10 0 11 0.24 1.1
-10 10 -11 -0.82 1.27
10 -10 -11 1.28 1.22
0 -10 11 0.27 0.92
0 -10 11 0.72 1
-10 10 11 0.31 1.17
-10 0 11 0.49 2.08
10 0 11 1.35 0.85
0 10 -11 0.93 1.26
-10 10 -11 0.78 1.86
10 -10 -11 0.44 0.91
10 0 -11 -0.72 1.19
10 -10 11 0.48 0.82
-10 10 -11 0.69 0.93
6 5 -11 5.56 1.5
6 -11 11 5.12 1.09
-5 -6 11 4.03 1.94
-6 11 11 2.97 1.36
-11 5 11 3.08 1.13
5 6 11 4.61 0.98
-11 6 -11 2.51 1.74
11 -6 -11 1.99 1.16
11 -5 11 3.16 0.99
11 -6 -11 3.99 1.04
-11 5 11 2.75 1.07
-5 11 -11 3.79 1.51
-5 -6 11 5.22 1.15
6 -11 11 3.63 1.04
-11 5 11 0.23 1.88
5 -11 11 4.08 1.06
-11 5 -11 3.68 1.84
5 -11 11 4.8 1.24
11 -5 -11 1.89 0.98
6 5 11 3.76 0.96
-11 6 11 3.05 1.13
11 -5 -11 1.24 1.21
-5 11 11 4.23 1.15
-6 11 -11 1.96 1.35
-6 -5 11 5.41 2.08
5 6 -11 2.63 1.36
11 -6 11 4.75 1.08
-6 -5 11 2.68 1.07
-11 4 11 6.25 1.41
7 4 -11 6.06 1.57
-4 11 -11 5 1.67
-7 11 11 4.36 1.46
-11 4 11 6.64 1.24
7 -11 11 5.02 1.09
7 -11 11 5.76 1.08
11 -4 11 8.26 1.17
-11 4 11 4.21 2.12
-4 -7 11 6.62 2.07
11 -7 -11 5.37 1.1
-4 -7 11 6.15 1.2
4 7 11 7.31 1.07
-11 7 -11 7.46 2.11
11 -7 -11 4.43 1.35
-7 -4 11 6.14 2.1
11 -4 -11 2.47 1.29
11 -7 11 4.76 1.04
4 -11 11 5.45 1.29
-7 11 -11 4.85 1.58
-11 4 -11 4.97 1.83
-7 -4 11 5.54 1.25
7 4 11 5.7 1.09
11 -4 -11 3.63 1.01
4 -11 11 6.14 1.1
-11 7 11 5.79 1.32
4 7 -11 6.6 1.57
-8 11 11 10.21 1.74
-3 11 -11 7.27 1.78
-11 3 11 10.89 1.67
8 3 -11 11.1 1.87
-11 3 11 12.08 2.79
11 -3 11 10.47 1.51
-11 8 -11 9.71 2.2
8 -11 11 13.61 1.45
8 -11 11 11.73 1.47
3 8 11 10.31 1.57
-11 8 -11 10.15 1.71
-3 -8 11 12.98 1.57
-3 -8 11 8.42 2.15
11 -8 -11 10.34 1.36
3 8 -11 7.64 1.55
-8 -3 11 14.47 2.67
8 -11 -11 10.69 1.83
11 -8 11 7.21 1.16
-11 3 -11 8.85 1.91
-11 8 11 9.15 1.51
3 -11 11 7.29 1.18
8 3 11 7.22 1.16
11 -3 -11 5.05 1.04
-8 -3 11 7.92 1.36
-8 11 -11 6.38 1.59
3 -11 11 10.19 1.45
-11 9 -11 4.47 2.02
-11 9 -11 4.43 1.17
9 -11 11 3.69 1.11
-11 2 11 3.87 1.34
11 -9 -11 1.47 1.07
9 -11 11 4.76 0.98
2 9 11 4.22 0.97
11 -2 11 4.38 0.9
11 -9 -11 4.39 1.06
-2 -9 11 5.5 1.21
-11 2 11 3.66 2.24
9 2 -11 4.25 1.54
-9 11 11 2.6 1.28
9 -11 -11 4.96 1.5
-9 -2 11 5.4 2.17
11 -9 11 4.12 1.03
-11 9 11 1.43 1.11
-9 11 -11 1.86 1.88
-9 11 -11 2.3 1.37
-9 11 -11 3.82 1.08
2 -11 11 3.29 1.01
-9 -2 11 3.12 1.19
9 -11 -11 3.61 1
9 2 11 3.66 1.05
2 -11 11 2.93 1.21
2 9 -11 2.91 1.31
10 1 -11 -1.18 1.14
1 10 11 3.94 0.95
-11 10 -11 3.37 1.89
-1 -10 11 0.12 0.86
-11 1 11 1.51 1.16
-11 1 11 4.55 2.21
11 -10 -11 0.44 1.09
11 -10 -11 3.89 0.98
-1 -10 11 1.62 0.97
-11 10 -11 1.54 1
-11 10 -11 2.12 1.38
-1 11 -11 0.02 1.17
-10 11 11 2.85 1.26
10 -11 11 2.38 0.85
11 -1 11 0.17 0.71
1 -11 11 4.43 1.19
-11 10 11 6.08 1.34
-10 11 -11 4.49 1.91
10 -11 -11 6.33 1.11
-10 -1 11 7 2.34
-10 -1 11 5.65 1.28
10 -11 -11 5.28 1.43
-10 11 -11 2.52 1.49
-10 11 -11 4.49 1.06
1 10 -11 5.06 1.54
11 -10 11 6.07 1.1
10 1 11 5.29 1.1
1 -11 11 5.38 1.13
11 -11 -11 1.49 0.91
11 0 11 1.5 0.92
-11 0 11 1.51 1.96
-11 11 -11 -0.17 1.22
-11 11 -11 0.68 0.95
-11 0 11 0.86 1.1
11 -11 11 2.3 0.87
-11 11 -11 1.94 1.75
0 11 -11 -1.04 1.2
-11 11 11 0.36 1.07
0 -11 11 1.4 0.95
0 -11 11 1.03 1.08
12 -6 11 13.12 1.8
-6 12 -11 8.64 1.91
-6 12 11 10 1.63
-12 6 -11 12.62 2.35
-6 -6 11 13.33 2.43
-6 -6 11 13.86 1.55
6 -12 11 12.83 1.83
-12 6 11 11.28 1.58
12 -6 -11 12.05 1.66
6 6 -11 8.72 1.66
6 6 11 12.61 1.68
6 -12 11 12.95 1.84
7 -12 11 0.82 0.92
5 7 11 2.4 0.92
7 5 -11 2.12 1.36
-12 5 11 0.56 1.07
-5 -7 11 1.82 1.03
12 -7 -11 1.17 0.92
-7 12 11 1.22 1.31
-12 7 -11 2.45 1.79
-5 12 -11 -1.37 1.26
12 -5 11 1.94 0.91
-12 5 11 0.83 1.03
-5 -7 11 0.81 1.62
7 -12 11 1.44 0.96
12 -5 -11 3.08 0.99
-5 12 11 0.31 0.97
-7 -5 11 2.18 1.87
-12 5 -11 3.73 1.86
-7 -5 11 2.15 1.07
7 5 11 3.38 0.94
5 7 -11 1.39 1.24
-7 12 -11 2.74 1.5
-7 12 -11 4.81 1.15
-12 7 11 1.72 1.05
5 -12 11 3 1.01
5 -12 11 2.93 1.15
12 -7 11 2.3 0.94
4 8 11 5.37 0.98
8 -12 11 5.82 1.2
-4 -8 11 7.21 1.32
-12 8 -11 5.97 1.97
12 -8 -11 5.38 1.04
12 -4 11 7.62 1.1
-12 4 11 4.73 1.33
8 4 -11 3.31 1.41
8 -12 11 5.18 1.05
-12 4 11 3.15 1.97
-8 12 11 3.01 1.41
-8 12 -11 1.47 1.34
-8 -4 11 2.57 1.07
8 -12 -11 2.54 1.28
-8 12 -11 3.41 1.1
12 -8 11 2.66 0.94
-12 8 11 2.82 1.14
-8 -4 11 2.04 2.01
4 8 -11 1.8 1.32
-12 4 -11 1.51 1.41
12 -4 -11 0.95 0.94
8 4 11 4.28 1.03
4 -12 11 3.11 1.23
4 -12 11 2.26 0.91
12 -3 11 20.98 1.99
-12 9 -11 15.44 2.01
9 -12 11 22.74 2.04
-12 3 11 18.68 3.38
-12 9 -11 22.31 3.12
3 9 11 16.96 1.88
-3 -9 11 22.78 2.27
12 -9 -11 16.87 1.98
-9 12 11 15.06 2.35
-12 3 11 19.3 2.33
9 -12 11 17.29 2.19
-9 12 -11 17.69 2.05
3 -12 11 22.66 2.29
9 -12 -11 17.05 1.98
9 3 11 21.13 2.18
9 -12 -11 19.73 2.44
3 -12 11 18.13 1.92
-9 -3 11 16.87 2.14
-9 -3 11 19.46 3.33
-12 9 11 15.04 2.13
12 -3 -11 19.8 1.98
12 -9 11 20.81 1.98
3 9 -11 16.6 2.48
12 -10 -11 12.57 1.64
-2 -10 11 14.78 1.85
2 10 11 10.34 1.6
10 -12 11 13.91 1.66
12 -2 11 11.41 1.57
-12 2 11 9.06 1.57
-12 10 -11 15.32 2.57
-10 12 11 16.16 1.9
-12 2 11 14.55 2.7
-12 10 -11 10.87 1.52
2 -12 11 13.96 1.65
10 2 11 14.4 1.57
10 -12 -11 11.33 1.71
-10 -2 11 17.07 1.82
2 10 -11 7.73 1.76
-10 12 -11 13.25 1.58
12 -2 -11 9.46 1.31
12 -10 11 11.74 1.4
-10 -2 11 7.88 2.25
-12 10 11 13.17 1.7
11 -12 11 3.09 0.87
-1 -11 11 1.77 1.05
-12 11 -11 2.19 1.01
12 -11 -11 3.85 0.96
-11 12 11 3.58 1.25
-12 1 11 1.7 1.96
-12 1 11 3.52 1.18
-1 -11 11 1.29 0.86
12 -1 11 1.07 0.79
-12 11 -11 2.19 1.76
-11 -1 11 2.33 1.09
11 -12 -11 1.55 0.9
-11 -1 11 3.53 2.18
-11 12 -11 0.93 0.91
-12 11 11 3.68 1.2
-11 12 -11 0.62 1.49
12 -11 11 4.3 0.97
1 11 -11 -0.86 1.16
1 -12 11 2.27 1.07
12 -1 -11 0.51 0.63
-11 12 -11 0.48 1.15
11 1 11 2.84 0.98
12 -12 -11 0.62 0.87
-12 12 -11 0.06 0.92
0 -12 11 0.12 0.97
-12 12 11 -0.77 0.98
0 -12 11 -0.09 0.65
-12 0 11 -0.79 0.97
12 0 -11 -0.06 0.78
12 0 11 0.17 0.87
12 -12 11 0.6 0.83
-12 0 11 0.35 1.82
6 7 11 0.68 0.83
-6 13 -11 -1.3 1.23
-6 -7 11 0.54 0.97
7 -13 11 0.31 0.94
13 -6 11 0.05 0.86
-6 -7 11 -0.39 1.79
-13 6 11 0.77 1
7 6 -11 0.04 1.2
-13 7 -11 -0.63 1.52
13 -7 -11 0.29 0.83
-13 6 11 -0.27 1.02
-6 13 -11 0.63 1.03
7 -13 11 0.34 0.85
-7 13 11 -0.69 1.22
-7 13 -11 -1.36 1.2
13 -7 11 0.09 0.85
6 -13 11 0.12 0.86
6 -13 11 0.19 0.92
13 -6 -11 -0.15 0.82
-7 13 -11 -0.28 0.95
-13 7 11 -0.55 1.03
-7 -6 11 -0.24 1.51
7 6 11 0.16 0.84
-7 -6 11 0.09 0.89
-13 7 11 0.22 0.93
-13 6 -11 0.09 1.5
6 7 -11 -1.26 1.18
-6 13 11 0.23 1.03
-13 8 -11 4.86 1.84
13 -5 11 5.28 1.02
8 -13 11 6.61 1.22
5 8 11 7.02 1.05
-13 5 11 4.8 1.21
-8 13 11 5.05 1.45
-5 13 -11 4.78 1.17
8 -13 11 5.35 1.04
-5 -8 11 7.61 1.33
13 -8 -11 4.61 0.99
13 -8 11 3.42 0.96
5 -13 11 2.93 0.84
5 8 -11 3.03 1.37
-8 13 -11 3.82 1.06
-8 13 -11 2.76 1.47
8 5 11 3.64 0.93
5 -13 11 6.19 1.22
-13 8 11 4.91 1.19
-13 5 -11 0.19 1.29
-8 -5 11 4.07 1.86
-8 -5 11 2.73 1.05
13 -5 -11 4.22 1.06
9 -13 11 11.15 1.29
-13 4 11 7.64 1.47
9 -13 11 9.14 1.35
-13 9 -11 4.45 1.79
13 -4 11 9.45 1.22
13 -9 -11 8.08 1.19
-9 13 11 10.14 1.66
4 9 11 9.76 1.17
-4 -9 11 9.66 1.45
-9 -4 11 7.09 1.32
9 -13 -11 7.69 1.15
4 9 -11 3.69 1.4
-9 13 -11 6.18 1.18
4 -13 11 5.18 1.19
13 -9 11 7.05 1.11
-9 -4 11 4.3 1.83
13 -4 -11 4.7 1.08
9 -13 -11 4.94 1.31
9 4 11 5.24 1.06
-13 9 11 5.27 1.27
-13 10 -11 1.67 1.67
-13 10 -11 2.22 1.09
-13 3 11 2.15 1.17
-13 3 11 0.2 1.84
3 10 11 2.65 0.87
-10 13 11 2.3 1.29
13 -3 11 2.75 0.87
10 -13 11 2.13 0.8
-3 -10 11 3.73 1.03
13 -10 -11 2.66 0.86
-3 13 -11 1.89 0.95
10 -13 -11 1.57 0.94
10 3 11 1.46 0.91
-10 13 -11 0.39 0.89
-13 10 11 0.95 1.09
13 -3 -11 0.96 0.92
3 10 -11 -2.1 1.22
13 -10 11 1.3 0.84
-10 -3 11 0.65 1.06
3 -13 11 -0.37 0.67
-10 -3 11 1.48 1.74
3 -13 11 0.79 1.02
-10 13 -11 0.05 1.2
2 11 11 5.76 1
-11 13 11 6.97 1.38
11 -13 11 6.12 1
13 -11 -11 5.74 1
-13 11 -11 4.82 1.2
-13 2 11 0 1.76
-2 -11 11 2.97 1.03
-13 2 11 3.88 1.18
-13 11 11 6.99 1.34
13 -11 11 7.03 1.08
11 -13 -11 5.37 1.04
11 2 11 4.97 1.17
-11 -2 11 6.92 1.31
13 -2 -11 3.29 0.99
-11 13 -11 5.22 1.11
2 -13 11 5.97 1.26
13 -12 -11 4.87 0.99
-1 -12 11 1.84 0.99
-12 13 11 3.82 1.16
-13 12 -11 3.06 1.08
13 -1 11 1.41 0.84
-13 1 11 2.08 1.06
-13 1 11 0.07 2.56
12 -13 11 5.01 0.98
12 1 11 2.99 1
12 -13 -11 3.91 0.91
13 -1 -11 2.97 0.95
13 -12 11 3.04 0.93
-13 12 11 4.97 1.18
-12 -1 11 0.3 2.49
1 -13 11 2.6 1.04
-12 -1 11 4.26 1.12
-12 13 -11 3.56 1.04
13 0 11 1.55 0.9
13 0 11 0.17 0.65
0 -13 11 0.85 0.94
13 0 -11 -0.06 0.52
-13 13 11 1.61 0.98
13 -13 11 2.44 0.88
-13 13 -11 1.56 1
-13 0 11 1.33 0.97
13 -13 -11 1.81 0.83
-7 14 11 0.27 1.13
-14 7 11 0.33 0.81
-14 7 -11 0.08 1.26
14 -7 -11 -0.2 0.82
7 7 11 0.76 0.77
-7 -7 11 0.66 0.99
7 -14 11 -0.71 0.63
-7 14 -11 0.06 0.93
7 7 -11 -0.9 1.13
-14 7 11 0.25 1.04
14 -7 11 0.76 0.82
7 -14 11 0.66 0.83
14 -8 -11 6.23 1.01
-8 14 11 5.04 1.37
6 8 11 6.02 0.96
8 -14 11 4.04 0.98
-14 6 11 2.48 0.86
-14 6 11 3.27 1.04
-6 14 -11 3.5 1.09
-6 -8 11 4.91 1.12
8 6 11 5.83 1.04
14 -8 11 5.06 0.99
-8 -6 11 6.01 1.16
-8 14 -11 5.01 1.13
6 -14 11 4.64 1.05
14 -6 -11 4.04 1.01
-14 8 11 5.2 1.21
-9 14 11 -0.8 1.17
-14 5 11 1.06 0.99
14 -5 11 1.18 0.83
-5 14 -11 0.32 0.87
9 -14 11 0.6 0.82
-14 9 -11 -0.12 1.34
-5 -9 11 0.61 1.05
5 9 11 0.51 0.76
14 -9 -11 0.77 0.81
5 -14 11 0.5 0.99
9 -14 -11 1.64 0.88
-9 -5 11 0.59 0.95
-9 14 -11 1.01 0.95
14 -9 11 1.47 0.87
5 9 -11 -1.83 1.07
-14 9 11 0.6 1
14 -5 -11 0.3 0.86
-9 14 -11 0.86 0.94
9 5 11 1.53 0.85
-10 14 11 10.77 1.51
-4 -10 11 7.04 1.17
14 -4 11 10.73 1.48
4 10 11 8.36 1.12
-14 4 11 11.62 1.5
14 -10 -11 11.09 1.48
-4 14 -11 5.56 1.13
10 -14 11 10.28 1.47
14 -4 -11 8.43 1.24
10 -14 -11 14.26 1.4
-10 14 -11 7.23 1.21
10 4 11 11.28 1.36
4 -14 11 10.34 1.36
-14 10 11 9.79 1.64
14 -10 11 9.52 1.22
-10 -4 11 11.1 1.45
11 -14 11 12.03 1.25
-14 11 -11 10.95 1.45
3 11 11 7.77 1.12
-11 14 11 8.11 1.46
-14 3 11 9.82 1.41
14 -11 -11 11.48 1.24
11 -14 -11 11.65 1.3
-11 -3 11 9.26 1.36
14 -3 -11 7.14 1.15
-11 14 -11 8.9 1.26
11 3 11 6.02 1.16
3 -14 11 8.04 1.22
14 -11 11 8.8 1.16
-14 11 11 8.66 1.38
12 -14 11 1.14 0.77
-12 14 11 0.81 1.01
14 -12 -11 1.36 0.74
-2 -12 11 0.21 0.86
-14 12 -11 2.03 1.03
-14 2 11 1.58 1.03
12 2 11 0.5 0.93
-14 12 11 0.43 0.99
14 -12 11 0.88 0.76
12 -14 -11 1.14 0.83
14 -2 -11 0.17 0.94
-12 14 -11 -0.18 0.9
-12 -2 11 0.33 0.97
2 -14 11 0.71 0.96
-14 13 -11 1.33 0.95
13 -14 11 0.71 0.75
-1 -13 11 -0.51 0.85
14 -1 11 0.92 0.79
14 -1 11 -0.02 0.66
-14 1 11 0.4 0.92
14 -13 -11 0.5 0.77
-13 14 11 0.61 0.89
-13 14 -11 1.76 0.89
13 -14 -11 1.35 0.82
13 1 11 0.17 0.85
14 -1 -11 -0.15 0.79
13 1 11 0.47 0.71
-13 -1 11 0.19 0.87
14 -13 11 1 0.76
1 -14 11 0.47 0.91
-14 13 11 1.04 0.92
-14 0 11 0.09 0.86
14 0 -11 -0.12 0.51
14 -14 -11 -0.32 0.74
14 0 11 0.12 0.71
-14 14 -11 1.3 0.88
0 -14 11 0.71 0.83
-14 14 11 0.44 0.85
14 -14 11 0.18 0.7
14 0 11 -0.16 0.85
15 -8 -11 0.75 0.79
-7 15 -11 0.26 0.93
15 -7 11 0.71 0.74
-8 15 11 0.82 1.1
-7 -8 11 -0.16 0.92
-15 7 11 -0.08 0.8
7 8 11 -0.19 0.7
-15 7 11 0.56 0.7
8 -15 11 0.49 0.79
15 -7 -11 -0.44 0.79
-8 15 -11 0.05 0.94
-15 8 11 0.23 1
15 -8 11 0.58 0.77
-7 15 11 0.33 0.99
8 7 11 0.05 0.75
-8 -7 11 -0.39 0.88
7 -15 11 0.58 0.78
-6 15 -11 0.82 0.85
-6 -9 11 0.63 0.99
15 -9 -11 0.53 0.72
-15 6 11 0.88 0.86
6 9 11 0.39 0.71
9 -15 11 0.5 0.77
-9 15 11 0.92 1.08
15 -6 11 1.19 0.81
-15 9 11 0.97 0.99
-9 -6 11 0.68 0.86
9 6 11 1.26 0.84
9 -15 -11 1.1 0.85
6 -15 11 1.52 0.87
15 -6 -11 0.54 0.79
-9 15 -11 1.39 0.94
15 -9 11 0.89 0.82
5 10 11 6.55 0.98
10 -15 11 7.47 1.05
15 -5 11 5.91 0.98
15 -10 -11 6.69 1
-5 15 -11 4.73 1.04
-10 15 11 6.68 1.36
-15 5 11 5.37 1.13
-15 10 11 4.01 1.09
10 -15 -11 6.73 1.11
15 -5 -11 3.78 0.97
15 -10 11 3.98 0.87
-10 15 -11 5 1.12
10 5 11 3.41 0.94
5 -15 11 4.41 1.06
-10 -5 11 4.4 1.07
-15 4 11 0.53 0.91
-11 15 11 0.25 1
11 -15 11 0.15 0.66
-4 15 -11 -0.19 0.67
15 -11 -11 0.82 0.72
-4 -11 11 0 0.84
4 11 11 1.21 0.74
-11 -4 11 -0.43 0.9
4 -15 11 0.99 0.91
15 -4 -11 -1.02 0.85
-15 11 11 -0.24 0.93
11 4 11 -0.39 0.85
11 -15 -11 0.9 0.81
-11 15 -11 0.75 0.86
15 -11 11 0.63 0.76
-15 12 -11 2.73 0.89
-15 3 11 3.6 1.05
15 -12 -11 2.39 0.76
-12 15 11 2.63 1.03
-3 -12 11 1.35 0.81
12 -15 11 3.15 0.81
12 3 11 2.51 1
-15 12 11 2.38 1.01
-12 15 -11 2.44 0.88
3 -15 11 1.11 0.85
15 -3 -11 0.58 0.9
-12 -3 11 1.41 0.99
15 -12 11 1.98 0.79
12 -15 -11 2.72 0.9
-15 13 -11 4.11 0.97
-15 2 11 5.09 1.05
-13 15 11 4.69 1.04
15 -13 -11 5.28 0.87
13 -15 11 5.33 0.95
-2 -13 11 3.38 0.92
2 -15 11 4.37 0.97
-13 -2 11 3.38 1.04
-15 13 11 4.76 1.04
15 -2 -11 3.56 0.96
15 -13 11 5.46 0.94
13 -15 -11 5.7 0.95
-13 15 -11 4.32 0.94
13 2 11 3.96 1.1
15 -14 -11 2.89 0.75
14 -15 11 2.85 0.81
-14 15 11 2.56 0.87
-15 14 -11 2.28 0.78
15 -1 11 0.61 0.68
15 -1 11 0.97 0.69
-15 1 11 2.57 0.9
-1 -14 11 1.94 0.8
15 -1 -11 1.96 0.81
-14 -1 11 2.34 0.95
14 -15 -11 4.19 0.88
-14 15 -11 3.33 0.83
14 1 11 0.88 0.88
-15 14 11 3.01 0.87
15 -14 11 3.6 0.8
1 -15 11 2.13 0.9
15 0 11 1.56 0.83
15 -15 11 3.28 0.77
15 0 11 2.11 0.78
-15 15 11 3.13 0.82
15 -15 -11 2.84 0.74
-15 15 -11 2.46 0.73
0 -15 11 2.81 0.89
-15 0 11 4.84 1.01
-8 16 -11 5.17 1.08
8 -16 11 5.79 0.97
-8 -8 11 4.22 1.06
8 8 11 6.05 0.97
16 -8 11 4.38 0.9
16 -8 -11 5.22 0.93
-16 7 11 2.01 0.8
-7 16 -11 1.82 0.89
7 9 11 1.6 0.72
16 -7 11 1.34 0.73
-9 16 11 2.03 0.98
9 -16 11 2.51 0.79
-7 -9 11 1.77 0.84
16 -9 -11 2.09 0.79
-9 16 -11 1.19 0.91
16 -9 11 1.03 0.67
16 -7 -11 1.36 0.78
9 7 11 1.56 0.76
-16 9 11 1.73 0.93
7 -16 11 0.58 0.71
-9 -7 11 0.67 0.88
9 -16 -11 2.31 0.84
16 -10 -11 0.68 0.74
-6 16 -11 0.18 0.79
10 -16 11 0.49 0.68
-10 16 11 -0.02 0.94
-16 6 11 1.13 0.79
6 10 11 -0.15 0.71
-16 10 11 -0.63 0.89
10 6 11 0.71 0.78
6 -16 11 0.47 0.77
-10 -6 11 -0.26 0.82
16 -6 -11 -0.17 0.8
-10 16 -11 0.75 0.82
16 -10 11 0.23 0.73
10 -16 -11 -0.39 0.79
-11 16 11 1.78 1.01
16 -11 -11 2.58 0.76
11 -16 11 1.46 0.72
5 11 11 1.5 0.74
-16 5 11 2.3 0.93
5 -16 11 2.29 0.86
-11 16 -11 2.06 0.84
16 -11 11 2.65 0.78
11 5 11 2.06 0.87
-11 -5 11 1.14 0.87
11 -16 -11 1.73 0.82
16 -5 -11 1.08 0.83
-16 11 11 1.24 0.87
12 -16 11 4.66 0.86
16 -12 -11 4.91 0.85
-12 16 11 5.94 1.1
-16 4 11 3.49 0.96
16 -12 11 5.63 0.92
4 -16 11 2.92 0.92
12 -16 -11 4.55 0.92
-16 4 -11 3 0.83
-12 -4 11 2.6 0.94
-16 12 11 3.89 0.99
12 4 11 4.03 1
16 -4 -11 3.28 0.93
-12 16 -11 4.33 0.9
-13 16 11 7.03 1.06
-3 -13 11 3.76 0.87
16 -13 -11 5.11 0.85
13 -16 11 5.15 0.87
-16 3 11 7.19 1.12
-13 16 -11 6.41 0.94
16 -13 11 4.08 0.86
-16 13 11 5.14 1
-13 -3 11 4.41 1.03
16 -3 -11 3.33 0.92
3 -16 11 5.67 0.98
13 3 11 5.05 1.09
13 -16 -11 5.85 0.96
16 -14 -11 4.98 0.83
14 -16 11 5.08 0.87
-16 14 -11 4.21 0.86
-2 -14 11 3.71 0.87
-16 2 11 5.45 0.99
-14 16 11 5.92 1
14 2 11 4.29 1.07
-16 14 11 3.74 0.9
-14 -2 11 4.34 0.97
-14 16 -11 3.42 0.75
2 -16 11 2.52 0.79
16 -14 11 5.43 0.89
14 -16 -11 5.06 0.88
16 -2 -11 2.77 0.83
-1 -15 11 0.36 0.7
-16 15 -11 1.28 0.68
15 -16 11 0.12 0.6
16 -1 11 -0.08 0.65
16 -15 -11 0.9 0.69
-15 16 11 1.74 0.74
-16 1 11 1.23 0.82
-15 16 -11 1.89 0.7
-15 -1 11 2.08 0.87
1 -16 11 1.48 0.74
15 -16 -11 2.56 0.73
15 1 11 1.7 0.88
-16 15 11 2.45 0.77
16 -1 -11 0.81 0.63
16 -15 11 1.29 0.69
-16 16 -11 8.05 1.06
-16 0 11 8.79 1.29
16 -16 -11 8.63 1.2
-16 16 11 6.69 1.11
16 -16 11 8.46 1.14
0 -16 11 5.58 0.95
8 9 11 0.33 0.65
17 -8 11 0.38 0.66
-8 17 -11 0.3 0.7
9 -17 11 0.45 0.64
17 -9 -11 0.98 0.66
-17 8 11 0.14 0.48
9 -17 -11 0.81 0.77
-9 17 -11 0.39 0.74
8 -17 11 0.64 0.66
9 8 11 0.26 0.68
-9 -8 11 1.21 0.79
17 -8 -11 0.11 0.64
17 -9 11 0.86 0.69
-10 17 11 1.24 0.82
-17 7 11 1.61 0.7
10 -17 11 1.32 0.66
7 10 11 1.25 0.69
17 -10 -11 0.69 0.63
-7 17 -11 0.23 0.68
17 -10 11 1.68 0.67
10 -17 -11 1.8 0.86
-17 10 11 0.85 0.62
-10 -7 11 0.74 0.81
7 -17 11 0.63 0.7
-10 17 -11 1.84 0.76
17 -7 -11 0.77 0.72
10 7 11 1.63 0.72
17 -11 -11 1.29 0.65
6 11 11 1.44 0.7
11 -17 11 1.42 0.62
-11 17 11 1.33 0.83
-17 6 11 2.09 0.71
-17 11 11 2.52 0.87
17 -11 11 1.71 0.66
-11 17 -11 2.21 0.8
-11 -6 11 0.85 0.79
-17 6 -11 2.16 0.74
6 -17 11 2.14 0.78
17 -6 -11 1.7 0.79
11 -17 -11 3.04 0.87
11 6 11 1.63 0.8
-12 17 11 1.02 0.84
12 -17 11 1.76 0.67
-17 5 11 1.68 0.77
17 -12 -11 1.1 0.66
-12 -5 11 0.48 0.75
-12 17 -11 1.35 0.68
17 -12 11 1.41 0.69
12 -17 -11 0.49 0.75
-17 12 11 1.13 0.78
5 -17 11 0.47 0.72
-17 5 -11 1.15 0.69
17 -5 -11 0.48 0.78
12 5 11 1.12 0.84
-13 17 11 1.38 0.8
13 -17 11 1.27 0.68
17 -13 -11 1.32 0.67
-17 4 11 2.05 0.78
-13 17 -11 1.59 0.66
-13 -4 11 0.49 0.75
17 -4 -11 0.67 0.71
4 -17 11 1.93 0.79
-4 -13 -11 0.08 0.54
13 4 11 1.26 0.84
-17 13 11 1.23 0.71
17 -13 11 1.88 0.71
13 -17 -11 1.1 0.77
-14 17 11 4.07 0.86
-17 3 11 4.92 0.88
14 -17 11 3.85 0.78
17 -14 -11 5.89 0.84
-3 -14 11 3.12 0.71
14 -17 -11 6.2 0.93
17 -3 -11 3.95 0.85
-14 17 -11 3.55 0.74
17 -14 11 3.19 0.73
-17 14 11 2.53 0.7
-14 -3 11 4.42 0.85
14 3 11 4.05 0.97
3 -17 11 4.44 0.84
-17 2 11 5.71 0.96
-15 17 11 4.94 0.86
15 -17 11 3.52 0.73
17 -15 -11 4.55 0.78
-2 -15 11 3.57 0.78
-15 -2 11 3.51 0.85
15 -17 -11 4.6 0.81
-15 17 -11 4.65 0.78
-17 15 11 4.43 0.81
2 -17 11 3.44 0.82
15 2 11 4.95 1.06
17 -15 11 3.43 0.74
17 -2 -11 2.81 0.71
-1 -16 11 3.71 0.74
16 -17 11 3.84 0.73
-17 16 -11 3.1 0.61
-17 16 11 7.05 1.07
16 -17 -11 6.56 0.92
17 -16 11 5.53 0.85
1 -17 11 7.36 0.98
-16 -1 11 5.38 0.93
-16 17 -11 6.59 1.02
17 -17 11 2.94 0.71
0 -17 11 2.59 0.77
17 -17 -11 3.15 0.77
-17 17 11 2.5 0.7
-17 0 11 1.75 0.78
9 -18 -11 2.53 0.76
18 -9 -11 1.4 0.68
-9 18 -11 1.44 0.69
9 -18 11 1.33 0.64
-18 9 -11 1.8 0.68
9 9 11 1.65 0.69
-18 10 -11 0.59 0.64
18 -10 -11 0.43 0.58
10 -18 11 0.76 0.61
8 -18 -11 0.09 0.7
-8 18 -11 -0.23 0.61
8 10 11 0.63 0.65
8 -18 11 0.74 0.6
10 -18 -11 -0.1 0.71
18 -8 -11 0.26 0.64
-10 18 -11 -0.23 0.67
-18 8 -11 0.77 0.63
18 -10 11 0.22 0.61
10 8 11 0.09 0.67
18 -11 -11 2.25 0.64
-18 7 11 1.7 0.63
-11 18 11 0.82 0.57
7 11 11 0.84 0.61
11 -18 11 0.89 0.59
11 7 11 1.34 0.71
-11 -7 11 0.48 0.5
-11 18 -11 1.08 0.68
18 -7 -11 0.81 0.67
-18 7 -11 0.79 0.65
18 -11 11 1.24 0.63
7 -18 11 0.5 0.64
11 -18 -11 0.81 0.76
-18 6 11 1.45 0.7
12 -18 11 -0.2 0.54
-12 18 11 0.14 0.68
18 -12 -11 0.61 0.58
12 6 11 -0.6 0.73
-12 18 -11 0.24 0.64
18 -6 -11 0.12 0.63
-18 6 -11 0.44 0.6
12 -18 -11 -0.49 0.7
18 -12 11 0.26 0.6
-12 -6 11 0.21 0.63
-18 12 11 0.16 0.48
6 -18 11 -0.74 0.61
-18 5 11 2.47 0.77
-13 18 11 1.91 0.77
18 -13 -11 1.85 0.64
13 -18 11 1.95 0.67
5 -18 11 0.86 0.7
-13 -5 11 1.23 0.63
-18 13 11 1.24 0.65
18 -5 -11 1.57 0.69
18 -13 11 1.42 0.63
13 5 11 0.61 0.81
13 -18 -11 1.16 0.78
-13 18 -11 1.67 0.66
-18 14 -11 3.26 0.73
-14 18 11 4.14 0.82
14 -18 11 2.69 0.74
18 -14 -11 4.2 0.75
-18 4 11 4.4 0.86
4 -18 11 2.8 0.78
18 -4 -11 2.83 0.73
-14 18 -11 3.2 0.7
-18 14 11 1.96 0.67
18 -14 11 1.96 0.64
14 -18 -11 3.31 0.79
14 4 11 3 0.92
-14 -4 11 2.28 0.7
-18 3 11 5.98 0.94
18 -15 -11 4.56 0.8
-18 15 -11 3.65 0.67
-15 18 11 3.26 0.75
15 -18 11 2.66 0.71
18 -3 -11 3.19 0.66
15 -18 -11 4.13 0.76
18 -15 11 2.69 0.72
-15 18 -11 4.42 0.77
3 -18 11 4.35 0.82
-15 -3 11 3.26 0.76
15 3 11 3.77 0.96
-18 15 11 2.92 0.72
19 -10 -11 1.56 0.67
9 10 11 1.39 0.64
-19 10 -11 1.28 0.67
9 -19 -11 1.04 0.73
10 -19 11 0.32 0.57
19 -9 -11 0.92 0.66
10 -19 -11 0.77 0.76
-19 9 -11 1.51 0.64
10 9 11 1.67 0.73
-10 19 -11 1.02 0.68
9 -19 11 1.3 0.63
19 -11 -11 1.22 0.65
11 -19 11 0.74 0.58
8 11 11 0.66 0.6
-19 11 -11 1.18 0.65
8 -19 -11 0.79 0.71
-19 8 -11 1.13 0.6
11 8 11 1.38 0.71
11 -19 -11 1.38 0.74
-11 19 -11 1.32 0.68
8 -19 11 1.54 0.65
19 -8 -11 0.65 0.66
12 -19 11 0.07 0.59
-19 12 -11 -0.05 0.64
19 -12 -11 0.42 0.68
7 -19 -11 -0.1 0.69
-19 7 11 0.23 0.47
-12 19 -11 0.53 0.71
12 -19 -11 0.32 0.74
7 -19 11 -0.23 0.61
19 -12 11 -0.35 0.63
19 -7 -11 0.11 0.62
12 7 11 0.05 0.73
-19 7 -11 0.09 0.54
13 -19 11 0.21 0.63
-19 6 11 1.44 0.68
-13 19 11 0.11 0.48
19 -13 -11 1.07 0.66
-19 13 -11 0.75 0.67
6 -19 11 0.18 0.61
19 -6 -11 0.55 0.64
-13 19 -11 0.9 0.66
19 -13 11 0.07 0.65
13 6 11 0.06 0.81
13 -19 -11 0.95 0.76
-19 6 -11 -0.89 0.36
-19 5 11 2.14 0.76
-19 14 -11 1.32 0.68
0 0 12 72.91 5.25
0 0 -12 75.58 5.47
1 -1 12 21.42 2.05
0 1 -12 17.93 2.16
0 1 12 16.98 1.87
0 -1 12 21.53 2.22
1 0 12 16.74 1.89
-1 0 12 18.24 2.09
-1 1 -12 19.3 2.25
1 0 -12 15.86 2.12
0 -1 -12 14.77 2.11
-1 0 -12 16.65 2.23
1 -1 -12 17.61 2.16
-1 1 12 18.08 2.07
-1 1 -12 18.47 2.3
-1 2 12 40.02 3.41
1 -2 12 42.85 3.4
-1 2 -12 44.75 3.71
-2 1 -12 40.64 3.57
1 -2 -12 44.61 3.7
-2 1 12 40.83 3.48
-1 -1 -12 44.96 3.68
2 -1 -12 45.82 3.72
-2 1 -12 47.5 3.79
1 1 -12 45.54 3.68
2 -1 12 40.29 3.29
-1 2 -12 51.58 3.9
-1 -1 12 44.75 3.51
-2 0 -12 14.91 2.31
-2 0 -12 14.31 2.11
2 0 -12 18.49 2.34
-2 2 -12 16.08 2.19
0 -2 12 21.83 2.07
-2 2 -12 19.05 2.4
-2 2 12 16.68 2.11
0 2 -12 18.32 2.29
0 -2 12 13.83 1.8
-2 0 12 18.91 2.11
2 -2 -12 15.98 2.29
0 2 -12 16.63 2.29
0 -2 -12 15.9 2.27
2 1 -12 4.23 1.32
-1 3 -12 2.67 1.18
-3 1 12 5.6 1.93
3 -2 -12 3.85 1.27
-3 1 12 5.17 1.14
1 -3 -12 2.95 1.25
-1 3 -12 2.69 1.19
-2 3 12 4.61 1.19
-1 -2 12 2.36 0.97
-3 2 -12 2.55 1.23
2 -3 12 2.87 1.02
-2 -1 -12 2.25 1.06
-2 -1 12 3.14 0.97
1 2 -12 5.16 1.36
3 -1 -12 2.53 1.15
-1 3 12 4.8 0.98
-2 3 -12 5.56 1.4
2 -3 -12 3.14 1.2
-3 1 -12 3.06 1.17
-3 2 12 5.46 1.24
-2 3 -12 2.25 1.21
1 -3 12 4.54 1.14
-2 -1 12 5.25 1.96
-1 -2 -12 2.92 1.21
0 -3 -12 23.57 2.62
0 -3 12 23.48 2.41
-3 0 -12 26.93 2.76
3 -3 12 21.49 2.29
0 3 -12 25.14 2.72
3 0 -12 26.23 2.59
0 3 -12 29.48 2.9
-3 0 12 27.5 2.61
0 -3 12 26.99 2.31
-3 3 12 25.57 2.65
-3 0 12 30.97 3.47
3 -3 -12 25.29 2.76
-3 3 -12 23.5 2.71
-2 -2 12 20.46 2.28
2 2 -12 20.64 2.51
-4 2 12 20.42 3.2
-2 -2 12 26.56 2.39
-4 2 -12 21.68 2.57
-2 4 12 21.8 2.37
-2 4 -12 26.07 2.73
2 -4 -12 23.59 2.62
-4 2 12 22.43 2.51
-2 4 -12 20.09 2.43
2 -4 12 22.53 2.29
4 -2 -12 21.39 2.43
-4 3 -12 12.95 2.15
-3 -1 -12 11.34 2.12
-1 4 -12 11.45 1.79
3 -4 12 12.12 1.8
-1 -3 12 13.23 1.61
-4 1 12 10.3 2.37
-3 4 12 12.68 2.09
4 -3 -12 16.41 2.03
-4 1 12 12.5 1.97
-1 -3 12 16.81 1.8
-1 4 -12 15.01 2.15
3 1 -12 12.47 1.8
1 -4 -12 13.54 1.89
-4 1 -12 10.06 1.85
-4 3 12 4.81 1.95
-3 -1 12 8.73 1.38
1 3 -12 9.34 1.62
1 3 -12 11.71 2.09
-3 4 -12 12.46 1.93
4 -3 12 10.1 1.56
-3 -1 12 13.56 1.94
1 -4 12 7.68 1.31
-4 3 12 14.01 1.69
4 -1 -12 11.13 1.65
3 -4 -12 9.6 1.62
-1 -3 -12 10.32 1.61
-3 -1 12 16.56 2.69
0 -4 -12 -0.36 1.13
-4 4 -12 -0.47 1.1
0 4 -12 -0.21 1.1
-4 0 12 1.95 1.98
4 -4 -12 1.25 1.14
4 -4 12 0.26 0.91
-4 0 -12 0.22 1.07
-4 4 12 1.12 1.18
-4 0 12 0.94 1.08
-4 0 12 -0.02 0.91
4 0 -12 0.84 1.04
0 -4 12 -0.12 0.92
0 4 -12 -0.37 1.14
-5 2 12 0.17 1.86
-2 5 -12 0 1.16
-3 -2 -12 -0.72 0.98
-2 -3 12 0.19 1.53
5 -2 12 0.19 0.56
-5 2 12 0.68 1.2
5 -3 -12 -0.44 1.19
-3 5 12 0.21 1.13
2 -5 -12 0.88 1.2
3 2 -12 1.11 1.17
-2 5 -12 -0.33 1.08
-2 -3 12 0.56 1.04
3 -5 12 -0.13 0.89
-5 3 -12 0.44 1.1
3 -5 -12 0.32 1.11
2 3 -12 -0.2 1.13
-5 3 12 0.12 1.13
-3 -2 12 2.17 1.09
-3 5 -12 0.93 1.15
2 3 -12 0.69 1.34
-3 -2 12 -0.09 0.97
2 -5 12 0.54 0.98
-2 -3 -12 0.25 0.86
-3 5 -12 -0.31 1.29
-5 3 12 0.44 1.8
-5 2 -12 0.03 1.1
-2 5 12 1.45 1.02
5 -3 12 0.58 0.82
5 -2 -12 0.66 1.24
-3 -2 12 1.66 1.86
-5 1 12 6.89 1.32
4 -5 12 4.65 1.1
-5 1 12 3.91 1.06
-1 5 -12 5.38 1.38
-5 1 12 5.59 2.13
-1 5 -12 3.18 1.23
-4 5 12 5.07 1.29
5 -4 -12 5.28 1.35
-1 -4 12 4.9 1.18
1 -5 -12 5.11 1.41
4 1 -12 6.17 1.43
-5 4 -12 3.26 1.24
1 4 -12 3.91 1.33
1 -5 12 3.48 1.07
-1 -4 -12 3.36 1.24
1 4 -12 4.93 1.51
-4 -1 12 6.85 2.07
-5 1 -12 2.57 1.22
-4 -1 12 7.01 1.24
-4 -1 12 3.41 1.14
4 -5 -12 3.35 1.32
-4 5 -12 4.68 1.37
5 -1 -12 5.22 1.41
-5 4 12 4.9 1.29
5 -4 12 3.84 1.02
5 -5 12 6.95 1.18
-5 5 12 8.51 1.42
5 0 -12 11.04 1.72
0 -5 -12 5.49 1.36
-5 5 -12 6.31 1.44
-5 0 12 11.21 2.57
-5 0 12 10.12 1.45
-5 0 12 6.64 1.29
0 5 -12 9.32 1.61
0 -5 12 6.85 1.18
0 5 -12 9.85 1.74
5 -5 -12 8.55 1.6
-6 3 12 5.83 1.39
3 3 -12 4.93 1.29
-6 3 12 4.47 1.99
-3 6 12 4.43 1.28
6 -3 12 4.05 0.96
6 -3 -12 4.76 1.41
-3 -3 12 5.6 1.15
-3 -3 12 4.06 1.1
3 -6 -12 4.93 1.43
3 3 -12 5.09 1.56
-3 6 -12 6.49 1.51
3 3 12 4.25 1.01
-3 -3 12 6.27 2.12
-6 3 -12 2.86 1.33
3 -6 12 3.64 1.05
2 -6 -12 3.89 1.26
6 -4 -12 5.16 1.53
4 -6 12 6.34 1.22
4 2 -12 6.59 1.47
-6 2 12 5.62 1.37
-6 2 12 4.62 2.28
-6 2 12 1.61 0.89
-2 -4 12 5.17 1.93
-6 4 -12 3.54 1.29
-4 6 12 3.5 1.19
-2 6 -12 2.67 1.21
-2 -4 12 4.4 1.13
-2 6 -12 6.18 1.52
4 -6 -12 6.03 1.48
2 4 -12 7.33 1.59
-6 2 -12 5.03 1.38
4 2 12 8.98 1.36
2 -6 12 10.97 1.42
-4 6 -12 8.37 1.57
6 -2 -12 7.79 1.56
-4 -2 12 10.89 2.33
2 4 -12 8.52 1.6
-4 -2 12 10.67 1.76
-4 -2 12 8.85 1.36
-6 4 12 10.78 1.59
6 -4 12 6.2 1.16
-6 5 -12 3.68 1.36
-6 1 12 7.9 2.46
6 -5 -12 4.39 1.45
-1 6 -12 2.87 1.38
1 -6 -12 2.98 1.28
-1 6 -12 5.95 1.55
5 -6 12 4.74 1.12
-6 1 12 5.6 1.27
-6 1 12 3.92 1.21
5 1 -12 5.5 1.46
-1 -5 12 4.62 1.14
-5 6 12 5.09 1.34
6 -1 -12 2.71 1.26
-5 6 -12 3.14 1.25
-5 -1 12 3.98 1.11
5 -6 -12 3.28 1.39
-5 -1 12 3.41 1.11
1 5 -12 3.05 1.31
1 -6 12 4.88 1.19
-6 5 12 4.88 1.3
-1 -5 -12 2.13 1.11
-5 -1 12 5.09 2.18
1 5 -12 3.89 1.31
6 -5 12 2.97 0.95
-6 0 12 2.57 2.15
6 0 -12 2.91 1.26
0 -6 12 3.05 1.09
0 6 -12 0.9 1.22
6 -6 -12 0.84 1.23
6 -6 12 2.32 0.98
-6 0 12 1.64 1.13
-6 6 -12 1.93 1.32
-6 0 12 2.57 1.06
-6 6 12 2.75 1.26
0 -6 -12 2.36 1.29
0 6 -12 2.14 1.28
-4 7 12 11.82 1.99
-3 7 -12 13.6 2.27
-7 3 12 10.02 1.53
4 3 -12 10.33 1.63
3 4 12 12.43 1.71
4 3 -12 8.71 1.71
3 -7 -12 7.93 1.62
-3 -4 12 13.41 1.57
-3 -4 12 10.27 2.27
4 -7 12 12.67 1.51
7 -3 12 9.69 1.3
7 -4 -12 12.4 1.87
-7 4 -12 6.54 1.56
-7 3 12 6.42 2.29
7 -3 -12 8 1.62
-4 7 -12 10.69 2.01
3 4 -12 10.21 1.81
-3 7 12 7.41 1.34
-4 -3 12 10.43 1.6
-7 4 12 12.03 1.63
3 -7 12 10.2 1.41
-4 -3 12 7.96 2.21
4 3 12 11.91 1.73
-4 -3 12 11.51 1.46
3 4 -12 11.87 1.76
7 -4 12 8.61 1.3
4 -7 -12 9.59 1.77
2 -7 -12 2.39 1.36
-7 2 12 3.8 1.22
-2 7 -12 3.28 1.35
-2 -5 12 4.15 1.82
5 -7 12 2.54 1.03
5 2 -12 2.45 1.22
7 -2 12 1.29 0.74
-5 7 12 4.51 1.4
-7 2 12 2.91 1.21
-2 7 -12 -0.77 1.11
-7 2 12 2.93 2.18
-7 5 -12 2.51 1.34
-2 -5 12 3.43 1.14
7 -5 -12 1.9 1.33
-7 5 12 4.02 1.22
2 5 -12 4.76 1.36
-5 -2 12 5.38 2.22
-5 -2 12 4.33 1.17
2 -7 12 4.73 1.13
7 -2 -12 4.32 1.46
-7 2 -12 5.34 2.06
5 2 12 4.89 1.02
-5 -2 12 5.09 1.16
2 5 -12 3.57 1.39
7 -5 12 3.84 1.04
5 -7 -12 4.12 1.47
-5 7 -12 5.8 1.5
-1 7 -12 18.47 2.51
-7 6 -12 14.31 2.34
7 -6 -12 15.64 2.46
-7 1 12 20.85 3.54
-6 7 12 13.42 2.26
6 -7 12 11.87 1.94
-1 -6 12 14.46 2.02
-7 1 12 14.11 1.99
-7 1 12 14.2 2.25
6 1 -12 17.68 2.4
-1 7 -12 9.87 1.78
-6 7 -12 18.83 2.54
-6 -1 12 20.04 2.16
1 6 -12 21.21 2.66
1 -7 12 18.96 2.28
-6 -1 12 18.44 2.28
7 -6 12 19.36 2.11
6 1 12 14.08 1.85
1 6 -12 19.82 2.55
-6 -1 12 24.21 3.49
-7 6 12 17.93 2.27
6 -7 -12 21.84 2.68
7 -1 -12 20.79 2.61
-7 7 12 5.41 1.37
-7 0 12 4.91 1.32
0 7 -12 3.67 1.39
7 -7 -12 3.97 1.51
0 7 -12 5.1 1.44
7 -7 12 2.72 0.79
-7 0 12 5.9 1.18
0 -7 12 5.97 1.2
7 -7 -12 3.43 1
7 0 -12 5.2 1.46
7 -7 12 5.54 1.06
-7 7 -12 4.93 1.38
-7 0 12 8.23 2.54
0 -7 -12 4.69 1.39
-8 4 -12 18.61 3.18
-4 8 12 17.82 2.27
8 -4 -12 22.57 2.68
4 -8 12 15.91 2.09
4 4 -12 18.68 2.52
-8 4 12 18.17 2.3
-4 8 -12 21.04 2.62
8 -4 12 16.99 2.06
-4 -4 12 19.34 3.16
4 4 12 19.83 2.01
4 -8 -12 16.21 2.48
-4 -4 12 16.58 2.1
-8 3 12 5.55 2.38
5 3 -12 2.8 1.27
8 -3 12 4.43 1.03
-3 -5 12 7.18 2.08
5 3 -12 7.87 1.58
-8 3 12 8.45 1.43
3 5 12 8.83 1.16
5 -8 12 7.42 1.23
-3 -5 12 9.04 1.37
8 -5 -12 4.48 1.48
-5 8 12 5.67 1.41
3 -8 -12 4.56 1.47
-8 3 12 5.69 1.34
-3 8 -12 5.16 1.47
-8 5 -12 5.09 2.03
-8 5 -12 2.59 1.26
8 -3 -12 8.86 1.68
3 5 -12 6.3 1.57
-8 5 12 12.14 1.56
-8 3 -12 8.32 2.17
-5 -3 12 9.47 2.28
3 -8 12 7.28 1.24
3 5 -12 9.12 1.64
-5 -3 12 10.64 1.47
8 -5 12 11.4 1.39
-5 -3 12 11.58 1.46
-5 8 -12 12.5 2.3
-3 8 12 10.69 1.69
5 -8 -12 10.16 1.72
5 3 12 12.71 1.78
6 -8 12 0.44 0.73
-8 2 12 2.66 2.46
2 6 12 1.64 0.94
-8 2 12 1.55 1.11
-6 8 12 1.36 1.34
-2 8 -12 -0.78 0.96
-8 2 12 0.2 1.2
8 -6 -12 -0.11 0.75
8 -6 -12 0.01 1.34
6 2 -12 0.69 1.29
6 -8 12 0.92 0.92
6 2 -12 -0.84 0.96
-8 6 -12 0.36 1.22
-2 -6 12 0.31 1.01
2 -8 -12 0.34 1.33
-2 8 -12 1.11 1.45
6 -8 -12 1 1.26
-8 6 12 2.35 1.17
2 6 -12 2.58 1.32
8 -6 12 1.29 0.75
6 -8 -12 2.63 0.94
-8 2 -12 2.27 1.59
-6 -2 12 2.37 1.89
8 -2 -12 1.13 1.3
-6 -2 12 2.11 1.09
6 2 12 2.43 0.97
8 -6 12 2.87 1.05
-6 -2 12 3.23 0.99
2 6 -12 0.3 1.18
2 -8 12 1.48 0.98
-6 8 -12 1.49 1.3
-8 1 12 12.31 1.77
-1 8 -12 8.77 1.66
7 1 -12 10.46 1.71
8 -7 -12 11.89 1.95
-1 8 -12 7.98 1.71
8 -7 -12 8.04 1.28
-8 1 12 13.43 1.72
7 -8 12 10.68 1.67
-8 1 12 14.5 2.84
-8 7 -12 6.89 1.55
7 -8 12 6.01 1.11
1 -8 -12 5.39 1.54
-1 -7 12 11.06 1.39
8 -7 12 9.46 1.31
-7 -1 12 10.9 1.68
7 1 12 11.6 1.71
8 -7 12 11.64 1.83
1 7 -12 7.61 1.61
7 -8 -12 9.89 1.79
-7 -1 12 14.69 2.78
1 -8 12 13.62 1.57
7 -8 -12 11.12 1.43
-7 -1 12 12.13 1.61
8 -1 -12 9.74 1.74
-7 8 -12 10.79 1.86
8 -8 -12 2.81 1.42
-8 0 12 6.91 2.34
0 -8 -12 2.41 1.19
-8 0 12 8.62 1.5
-8 8 -12 3.28 1.32
0 8 -12 4.62 1.43
0 8 -12 1.57 1.33
-8 8 12 6.19 1.42
0 -8 12 4.37 1.08
8 -8 -12 5.96 1.17
8 0 -12 5.62 1.47
8 -8 12 4.42 1.02
-8 0 12 4.69 1.03
5 -9 12 0.28 0.87
-9 4 12 1.21 0.99
4 5 12 3.37 0.98
4 -9 -12 1.28 1.25
-4 -5 12 2.82 1.87
-9 4 12 4.38 1.28
9 -5 -12 -0.01 0.62
-4 -5 12 2.24 1.07
-9 4 12 -0.29 2.86
-5 9 12 3.47 1.49
9 -5 -12 1.35 1.35
9 -4 12 0.9 0.71
5 4 -12 2.22 1.31
-9 5 -12 4 1.94
5 -9 12 2.03 0.96
-4 9 -12 2.53 1.44
-9 5 12 0.55 1.08
-5 9 -12 0.73 1.32
5 4 12 1.86 0.96
5 -9 -12 -0.55 1.24
4 -9 12 1.42 0.89
-5 -4 12 1.37 1.79
9 -5 12 0.73 0.82
-4 9 12 1.66 1.1
4 -9 12 0.07 0.83
4 5 -12 1.14 1.2
-9 4 -12 0.56 1.72
-5 -4 12 1.1 0.94
9 -4 -12 1.43 1.38
3 6 12 7.11 1.06
-6 9 12 3.81 1.42
3 -9 -12 0.41 1.3
6 -9 12 2.34 0.97
-9 3 12 4.86 2.35
-3 -6 12 4.59 1.13
9 -6 -12 2.91 1.4
-3 -6 12 4.65 1.89
-9 3 12 3.58 1.31
9 -6 -12 3.7 1.07
6 3 -12 4.86 1.38
-9 6 -12 7.52 2.16
-3 9 -12 4.01 1.51
-9 3 12 5.32 1.31
6 -9 12 4.67 1.1
6 3 12 5.6 1.11
9 -3 -12 4.81 1.57
9 -6 12 3.77 1.05
-6 9 -12 2.47 1.27
3 -9 12 2.94 1.02
-9 3 -12 4.41 1.76
6 -9 -12 2.98 1.41
-6 -3 12 5.36 2.19
-9 6 12 4.5 1.27
9 -6 12 2.9 0.93
3 6 -12 4.45 1.47
-6 -3 12 4.15 1.13
7 -9 12 7.07 1.13
-9 2 12 7.47 1.28
-2 9 -12 7.14 1.67
-9 2 12 9.33 1.6
9 -7 -12 6.72 1.64
-9 7 -12 9.68 2.42
-7 9 12 7.03 1.5
-9 7 -12 4.09 1.43
7 -9 12 5.74 1.09
9 -7 -12 5.57 1.16
-9 2 12 10.97 2.83
2 -9 -12 3.5 1.42
-2 -7 12 8.46 1.27
7 2 -12 11.14 1.78
2 -9 12 9.95 1.36
9 -2 -12 9.21 1.76
-7 -2 12 9.34 1.46
-7 -2 12 11.48 2.57
7 -9 -12 5.75 1.53
-9 7 12 10.68 1.58
7 -9 -12 8.32 1.28
2 7 -12 9.19 1.65
7 2 12 10.73 1.31
9 -7 12 8.72 1.3
9 -7 12 5.45 1.15
-8 9 12 -0.55 1.15
9 -8 -12 0.35 1.24
8 -9 12 -0.65 0.91
-9 1 12 -1.59 2.17
8 1 -12 -0.41 1.28
-9 8 -12 -2.13 1.14
-9 8 -12 -0.31 1.71
-1 -8 12 -0.74 0.89
9 -8 -12 0.57 0.97
8 -9 12 -0.38 0.83
-9 1 12 -1.15 1.18
-1 9 -12 -1.83 0.98
-9 1 12 0.52 0.88
9 -8 12 -0.47 0.87
-8 9 -12 0.27 1.24
8 -9 -12 -0.26 0.9
1 8 -12 0.62 1.25
8 -9 -12 -0.21 1.32
1 -9 12 0.38 0.97
9 -8 12 0.06 0.99
-8 -1 12 0.59 1.09
-8 -1 12 1.67 2.28
-9 8 12 -0.21 1.1
-8 -1 12 -0.55 0.59
8 1 12 0.74 0.93
9 -1 -12 0.69 1.4
9 -9 12 1.07 1.05
9 0 -12 -0.85 1.3
0 9 -12 -1.09 1.06
0 -9 12 0.13 0.97
-9 9 -12 -0.66 1.26
-9 0 12 1.02 2
9 -9 12 0 0.94
-9 9 -12 0.01 1.76
-9 0 12 -0.2 0.58
9 -9 -12 0.92 1.32
-9 9 12 -0.48 1.08
-9 0 12 -0.14 1.22
9 -9 -12 0.67 0.93
9 0 12 0.7 0.86
5 -10 12 0.91 0.94
10 -5 -12 0.1 0.85
-5 -5 12 1.39 0.99
5 5 -12 0.81 1.31
-5 10 -12 0.44 1.23
-10 5 12 0.57 0.85
-10 5 12 0.89 1.09
10 -5 12 1.08 0.87
10 -5 -12 0.04 1.27
-5 -5 12 0.9 1.98
5 -10 12 1.1 0.96
-10 5 -12 1.06 1.76
-5 10 12 0.34 1.21
5 5 12 2.39 0.94
5 -10 -12 -0.87 1.16
10 -4 12 4.13 0.96
10 -6 -12 6.09 1.52
-10 4 12 7.6 1.38
6 4 -12 6.4 1.61
6 -10 12 7.15 1.18
-10 4 12 4.26 1.29
-4 -6 12 6.41 1.25
-6 10 12 5.43 1.52
4 6 12 8.77 1.16
-4 -6 12 8.73 2.26
6 -10 12 5.5 1.12
10 -6 -12 6.53 1.13
-4 10 -12 4.38 1.49
-10 6 -12 5.92 1.97
4 -10 -12 2.89 1.55
6 4 12 12.49 1.75
10 -4 -12 7.45 1.65
-10 4 -12 9.47 2.06
-4 10 12 12.18 1.75
4 -10 12 10.23 1.37
10 -6 12 7.87 1.22
-10 6 12 9.66 1.47
4 6 -12 12.28 1.85
4 -10 12 11.76 1.4
6 -10 -12 5.24 1.56
-6 -4 12 9.44 2.29
-6 10 -12 7.02 1.66
7 -10 12 3.42 1.01
-10 3 12 2.69 1.12
-3 -7 12 3.94 1.16
7 3 -12 2.38 1.34
-10 3 12 3.19 1.31
10 -3 12 2.73 0.8
7 -10 12 3.14 0.99
-10 3 12 1.07 2.1
3 7 12 5.17 0.96
-10 7 -12 3.31 1.87
-3 10 -12 2.22 1.44
10 -7 -12 2.49 0.99
-7 10 12 3.58 1.42
10 -7 -12 2.05 1.26
10 -3 -12 0.53 1.24
7 -10 -12 3.22 0.98
-7 -3 12 4.35 2.19
-7 -3 12 2.15 1.02
-7 10 -12 2.02 1.45
3 7 -12 1.02 1.2
10 -7 12 2.97 0.95
3 -10 12 2.81 1.06
7 -10 -12 1.11 1.21
3 -10 12 2.75 1.03
7 3 12 2.41 0.99
-10 3 -12 0.43 2.23
-10 7 12 1.17 1.07
8 -10 12 5.42 1.12
-8 10 12 3.88 1.38
-10 2 12 5.34 2.38
10 -2 12 2.59 0.77
8 2 -12 4.53 1.56
8 -10 12 5.01 1.08
10 -8 -12 4.38 1.09
-10 2 12 2.99 1.3
10 -8 -12 4.53 1.32
-10 2 12 5.43 1.07
-10 8 -12 5.5 1.93
-2 -8 12 3.61 1.08
8 -10 -12 6.36 1.62
8 2 12 6.26 1.19
8 -10 -12 7.05 1.21
2 -10 12 5.92 1.27
-8 -2 12 8.05 1.36
10 -8 12 8.3 1.24
-10 8 12 10.77 1.56
2 -10 12 8.5 1.28
-8 -2 12 9.83 2.53
-8 10 -12 7.03 1.72
2 8 -12 4.43 1.4
-10 1 12 -0.03 1.18
9 -10 12 0.89 0.88
-9 10 12 -0.05 1.17
10 -9 -12 0.37 0.92
9 -10 12 1.78 1
-10 9 -12 -1.69 0.98
-10 9 -12 1.41 1.01
10 -9 -12 0.16 1.13
-1 -9 12 1.69 1.01
-10 1 12 1.68 2.19
-10 1 12 0.02 0.58
9 1 -12 -0.55 1.21
-10 9 -12 0.38 1.73
-9 -1 12 1.12 2.14
-9 10 -12 -0.33 1.75
-10 9 12 0.53 1.07
9 1 12 0.63 0.92
1 -10 12 0.28 0.84
10 -1 -12 -0.59 1.07
-9 10 -12 -1.19 1.21
9 -10 -12 0.43 1.19
10 -9 12 0.79 0.94
-9 -1 12 -0.21 1.06
1 -10 12 -0.05 0.94
1 9 -12 -1.79 1.06
9 -10 -12 0.89 0.9
-10 10 -12 0.65 1.59
-10 10 -12 0.93 0.92
-10 10 12 -0.36 1.04
0 -10 12 -0.13 0.77
-10 0 12 0.21 1.08
0 -10 12 0.63 0.99
10 0 12 0.32 0.89
10 -10 -12 0.35 1.07
-10 10 -12 -1.38 1.06
10 -10 -12 0.91 0.87
-10 0 12 2.27 2.07
10 -10 12 0.64 0.92
5 -11 -12 -1.16 1.24
6 -11 12 0.68 0.95
11 -6 -12 0.77 0.93
6 -11 12 0.68 0.94
-11 5 12 1.41 1.18
6 5 -12 0.62 1.22
-11 6 -12 1.34 1.66
11 -5 12 0.4 0.8
5 6 12 1.21 0.88
-5 11 -12 0.28 1.39
-5 -6 12 1.12 0.96
-6 11 12 0.65 1.31
-5 -6 12 1.08 1.81
-11 5 12 0.98 1.03
-11 5 -12 1.19 1.41
-11 6 12 2.9 1.16
6 5 12 4.04 0.97
5 6 -12 0.27 1.22
5 -11 12 1.89 0.97
6 -11 -12 1.3 1.27
11 -5 -12 1.75 0.93
-6 11 -12 1.05 1.4
11 -6 12 3.2 0.98
-6 -5 12 3.47 1.93
5 -11 12 2.59 0.99
-5 11 12 3.37 1.26
-6 -5 12 1.23 0.95
7 4 -12 16.44 2.46
-11 4 12 13.47 2.07
7 -11 12 17.98 1.98
11 -4 12 13.58 1.67
-4 -7 12 14.89 2.09
4 7 12 16.83 1.81
-7 11 12 14.88 2.37
11 -7 -12 15.69 1.82
-11 7 -12 15.58 2.84
-11 4 12 14.63 2.11
7 -11 12 15.78 1.91
-4 -7 12 14 2.48
4 -11 12 13.39 1.84
-7 -4 12 11.11 2.35
7 4 12 13.58 1.81
-7 11 -12 10.56 1.96
7 -11 -12 10.11 1.74
-7 -4 12 13.05 1.77
11 -7 12 13.1 1.76
-11 7 12 8.75 1.43
4 -11 12 12.75 1.84
11 -4 -12 8.27 1.22
4 7 -12 7.11 1.56
11 -3 12 4.62 0.95
11 -8 -12 7.38 1.16
-8 11 12 7.6 1.6
3 8 12 9.3 1.13
-3 -8 12 8.27 1.32
8 3 -12 2.45 1.31
-11 3 12 5.13 1.12
-11 8 -12 7.61 2.05
-11 3 12 7.6 1.47
8 -11 12 5.54 1.16
8 -11 12 5.87 1.06
-11 8 -12 6.87 1.25
3 -11 12 3.71 0.99
-8 11 -12 1.65 1.39
-11 8 12 3.22 1.15
8 3 12 4.19 1.03
3 -11 12 3.34 1.08
3 8 -12 1.25 1.3
8 -11 -12 1.95 1.31
-8 -3 12 4.74 2.14
8 -11 -12 3.79 0.96
11 -8 12 4.79 1.05
-8 -3 12 5.73 1.19
-8 11 -12 5.59 1.13
-9 11 12 0.56 1.16
-11 9 -12 1.12 1.62
11 -2 12 2.31 0.76
-11 9 -12 1.6 1.03
9 -11 12 2.87 1.05
-11 2 12 -0.01 2.01
-11 2 12 0.07 0.58
-2 -9 12 2.68 1.04
9 -11 12 1.8 0.91
-11 2 12 0.87 1.17
11 -9 -12 2.03 0.94
9 2 -12 -0.55 1.39
-9 11 -12 0.14 1.5
-9 -2 12 3.46 1.15
-9 -2 12 3.11 2.09
9 2 12 2.78 1
-9 11 -12 2.94 1
2 -11 12 2.1 1.09
9 -11 -12 3.56 0.98
2 -11 12 3.72 1.05
11 -9 12 2.79 0.94
9 -11 -12 0.89 1.1
-11 9 12 3.55 1.18
-9 11 -12 0.56 1.26
-11 1 12 0.03 1.82
11 -10 -12 1.16 0.87
-11 1 12 0.91 1.12
10 -11 12 1 0.84
-11 10 -12 0.55 0.95
-11 10 -12 1.57 1.47
11 -1 12 -0.15 0.7
-1 -10 12 1.5 1.04
-10 11 12 0.03 1.15
-10 11 -12 -0.31 0.91
1 -11 12 0.81 0.96
11 -10 12 0.77 0.92
-10 -1 12 -0.67 1.01
-10 11 -12 0.54 1.59
1 -11 12 -0.32 0.97
10 -11 -12 0.14 0.85
-11 10 12 -0.04 1.03
10 1 12 -0.71 0.87
-10 -1 12 -0.1 1.88
-10 11 -12 -0.36 0.98
11 0 12 0.07 0.9
-11 11 -12 -0.9 0.83
0 -11 12 1.49 0.89
0 -11 12 0.18 0.93
11 -11 -12 -0.31 0.83
11 -11 12 0.22 0.86
-11 0 12 0.07 2.63
-11 0 12 -0.16 1.07
-11 11 12 -0.24 1.02
6 6 12 12.1 1.63
-12 6 12 12.49 1.97
6 -12 12 11.03 1.77
-6 12 -12 13.49 1.8
-6 -6 12 9.32 1.41
6 -12 12 12.61 1.83
-6 12 12 11.94 1.77
12 -6 12 13.46 1.65
12 -6 -12 9.79 1.32
-12 5 12 4.52 1.26
12 -5 12 3.82 0.96
-7 12 12 6.49 1.56
7 -12 12 8.47 1.26
-5 -7 12 6.99 1.29
-5 12 -12 7.43 1.25
-12 5 12 5.12 1.21
7 -12 12 8.02 1.22
12 -7 -12 6.97 1.13
5 7 12 8.89 1.1
12 -7 12 4.21 1.02
7 5 12 4.07 0.96
7 -12 -12 1.21 1.1
-7 -5 12 -0.36 1.49
-7 -5 12 4.02 1.07
-7 12 -12 5.13 1.14
12 -5 -12 2.69 0.98
-12 7 12 4.25 1.19
-5 12 12 1.31 0.89
5 -12 12 2.83 0.96
5 -12 12 3.27 1.02
4 8 12 5.75 0.97
12 -4 12 5.14 0.96
-12 4 12 3.51 1.21
8 -12 12 5.5 1.06
8 -12 12 6.58 1.22
-4 -8 12 7.76 1.28
12 -8 -12 5.62 1.04
-12 4 12 5.56 1.12
-4 12 -12 5.96 1.25
-12 8 -12 3.41 0.93
-8 12 12 2.93 1.43
-8 -4 12 5.08 1.1
8 -12 -12 7.46 1.14
4 -12 12 5.22 1.15
8 4 12 5.7 1.12
-8 12 -12 7.24 1.21
12 -8 12 7.44 1.15
12 -4 -12 4.92 1.06
4 -12 12 7.31 1.18
-12 8 12 7.15 1.33
-3 12 -12 16.07 1.92
-12 3 12 16.08 2.19
-9 12 12 13.81 2.16
9 -12 12 16.38 1.78
-3 -9 12 16.93 1.99
12 -3 12 15.45 1.64
12 -9 -12 15.92 1.72
-12 9 -12 12.71 1.86
3 9 12 16.21 1.67
12 -9 12 14.4 1.75
12 -3 -12 11.11 1.55
9 -12 -12 12.27 1.7
3 -12 12 13.42 1.83
-12 9 12 16.71 1.8
9 3 12 13.49 1.91
-9 12 -12 10.6 1.7
-9 -3 12 12.11 1.86
3 -12 12 13.18 1.58
-12 10 -12 -0.8 0.93
-2 12 -12 0.01 0.88
-12 2 12 -0.56 1.04
-12 10 -12 0.24 2.56
-10 12 12 -0.49 1.07
-2 -10 12 0.57 0.99
10 -12 12 1.4 0.86
12 -10 -12 0.18 0.79
2 -12 12 -0.06 0.89
10 2 12 0.25 0.87
-10 -2 12 -0.13 2.51
-10 -2 12 0.08 0.96
10 -12 -12 0.26 0.83
12 -10 12 -0.18 0.84
12 -2 -12 -0.23 0.55
2 -12 12 0.91 0.96
-12 10 12 0.05 0.96
-10 12 -12 -0.27 0.88
12 -11 -12 2.82 0.89
-12 1 12 2.71 1.13
-1 -11 12 2.43 0.99
-11 12 12 4.17 1.19
-12 11 -12 1.56 0.95
11 -12 12 2.85 0.92
-11 12 -12 1.28 0.91
11 -12 -12 4.62 0.96
11 1 12 2.22 0.95
-12 11 12 3.65 1.09
1 -12 12 2.16 0.98
12 -11 12 2.85 0.91
1 -12 12 2.53 0.89
-11 -1 12 3.59 1.12
12 -12 12 0.73 0.81
-12 12 -12 -0.38 0.87
12 -12 -12 0.17 0.79
0 -12 12 0.23 0.85
-12 12 12 -0.11 0.94
-12 0 12 0.37 0.95
12 0 12 -0.26 0.88
0 -12 12 -0.31 0.67
6 7 12 11.14 1.21
13 -7 -12 8.01 1.14
-7 13 12 9.57 1.6
-6 13 -12 8.8 1.32
-13 6 12 5.77 1.15
7 -13 12 7.9 1.21
7 -13 12 10.45 1.31
-6 -7 12 9.2 1.41
-13 6 12 8.01 1.36
13 -6 12 10.27 1.19
13 -7 12 7.55 1.1
6 -13 12 6.73 1.14
6 -13 12 5.95 1.1
7 6 12 9.52 1.15
-7 13 -12 6.75 1.22
-13 7 12 9.38 1.38
-6 13 12 8.5 1.31
-7 -6 12 10.88 1.37
13 -6 -12 6.12 1.09
-8 13 12 13.28 1.8
-5 -8 12 14.59 1.94
5 8 12 12.17 1.59
-5 13 -12 11.06 1.8
-13 5 12 12.68 1.7
13 -5 12 13.65 1.69
13 -8 -12 10.83 1.58
8 -13 12 12.92 1.83
-13 5 12 11.91 1.73
8 -13 12 14.68 1.79
-8 13 -12 11.1 1.45
5 -13 12 12.99 1.73
5 -13 12 12.99 1.77
-8 -5 12 12.19 1.77
8 5 12 12.35 1.71
13 -5 -12 13.36 1.63
13 -8 12 14.25 1.68
-13 8 12 11.08 1.86
8 -13 -12 13.05 1.61
-4 -9 12 6.17 1.13
13 -9 -12 5.1 0.99
13 -4 12 4.76 0.92
4 9 12 7.25 0.98
-13 4 12 5.7 1.23
9 -13 12 4.83 0.98
-9 13 12 6.75 1.41
-4 13 -12 3.42 1.03
4 -13 12 3.06 0.94
4 -13 12 3.17 1.02
9 -13 -12 4.54 1
-9 -4 12 2.82 0.97
9 4 12 3.3 0.96
-13 9 12 1.81 1.06
-9 13 -12 3.11 0.99
13 -9 12 3.92 0.98
13 -4 -12 2.58 0.92
-10 13 12 -0.04 1.1
13 -10 -12 1.04 0.75
10 -13 12 0.97 0.78
-13 3 12 0.69 1.03
-3 13 -12 1.11 0.85
-3 -10 12 0.94 0.96
-13 10 -12 1.93 1.04
3 -13 12 0.77 0.92
13 -10 12 0.56 0.85
-13 10 12 0.28 1
13 -3 -12 -0.58 0.8
-10 13 -12 -0.01 0.83
3 -13 12 -0.11 0.69
10 -13 -12 0.84 0.82
10 3 12 -0.09 0.9
-10 -3 12 -0.77 0.87
11 -13 12 2.3 0.82
-2 -11 12 1.25 0.85
13 -11 -12 1.39 0.74
-2 13 -12 0.89 0.58
-13 2 12 0.96 1
-11 13 12 1.23 1.02
-13 11 -12 0.76 1.02
13 -2 -12 0.35 0.59
13 -11 12 1.04 0.79
-13 11 12 0.75 0.94
-11 13 -12 1.38 0.92
2 -13 12 -0.48 0.57
2 -13 12 0.97 0.91
11 -13 -12 2.26 0.85
11 2 12 0.43 0.87
-11 -2 12 2.04 0.98
13 -12 -12 2.21 0.78
-1 -12 12 -0.11 0.69
-12 13 12 1.3 0.96
13 -1 12 -0.08 0.7
12 -13 12 1.56 0.82
-13 12 -12 1.39 0.96
-13 1 12 1.49 0.95
-1 -12 12 0.07 0.74
-12 13 -12 0.98 0.9
-13 12 12 0.89 0.88
1 -13 12 0.67 0.83
13 -12 12 1.06 0.77
12 -13 -12 1.59 0.83
-12 -1 12 0.11 0.9
12 1 12 -0.24 0.87
-13 13 -12 3.61 0.97
13 -13 12 3.51 0.83
-13 0 12 4.01 1.06
13 0 12 3.95 0.96
0 -13 12 3.06 0.86
13 -13 -12 5.15 0.91
-13 13 12 3.57 0.91
14 -7 -12 15 1.73
7 -14 12 16.91 1.83
-7 14 12 16.17 1.96
-14 7 12 16.63 1.98
7 -14 12 20.18 1.87
-7 14 -12 14.34 1.89
7 7 12 17.98 1.81
-7 -7 12 18.39 2.07
14 -7 12 18.56 1.7
-14 6 12 4.18 0.96
6 8 12 7.32 1
8 -14 12 5.45 0.98
-6 -8 12 5.41 1.16
14 -8 -12 4.19 0.93
14 -6 12 6.33 0.97
-6 14 -12 4.14 1.07
-14 6 12 4.31 0.95
-8 14 12 4.38 1.29
-14 8 12 1.94 1.04
6 -14 12 0.99 0.72
-8 14 -12 1.47 0.95
14 -6 -12 1.52 0.84
8 6 12 2.08 0.78
8 -14 -12 2.15 0.82
6 -14 12 1.73 0.85
14 -8 12 1.92 0.83
-8 -6 12 2.25 0.99
-14 5 12 1.74 0.95
14 -9 -12 2.54 0.82
14 -5 12 1.71 0.79
5 9 12 3.62 0.83
-5 -9 12 1.88 0.94
-9 14 12 2.42 1.16
9 -14 12 2.68 0.8
-5 14 -12 2.17 0.9
-14 9 12 1.85 1.01
5 -14 12 2.03 0.88
14 -9 12 2.53 0.86
14 -5 -12 1.41 0.82
-9 -5 12 1.88 0.9
9 -14 -12 2.27 0.85
-9 14 -12 1.69 0.9
9 5 12 2.95 0.92
-14 4 12 3.81 1.07
-10 14 12 5.62 1.21
-4 14 -12 1.66 0.84
14 -10 -12 4.73 0.89
-4 -10 12 2.64 0.93
10 -14 12 5.72 0.94
14 -4 -12 2.55 0.9
-10 14 -12 3.17 0.96
-10 -4 12 2.45 0.9
-14 10 12 2.16 1
10 4 12 3.77 1.04
10 -14 -12 4.41 0.96
14 -10 12 4.14 0.9
4 -14 12 3.08 0.96
-3 14 -12 0.84 0.54
11 -14 12 0.11 0.71
-11 14 12 0.15 0.95
-3 -11 12 0.34 0.58
-14 11 -12 -0.04 0.9
14 -11 -12 0.88 0.73
-14 3 12 0.31 0.92
14 -11 12 0.97 0.76
-11 14 -12 -0.04 0.85
3 -14 12 0.29 0.85
-14 11 12 0.31 0.9
-11 -3 12 -0.09 0.85
11 -14 -12 -0.02 0.74
14 -3 -12 -0.8 0.78
11 3 12 0.19 0.94
-14 2 12 2.86 0.98
-12 14 12 1.62 0.91
-2 -12 12 0.08 0.84
-14 12 -12 2.17 0.95
14 -12 -12 2.15 0.74
12 -14 12 1.7 0.78
14 -12 12 1.77 0.8
12 -14 -12 2.26 0.82
14 -2 -12 -0.09 0.53
2 -14 12 0.96 0.78
-12 14 -12 1.35 0.89
-12 -2 12 1.24 0.88
12 2 12 -0.39 0.9
-14 12 12 1.44 0.88
14 -13 -12 0.39 0.65
13 -14 12 0.6 0.7
-13 14 12 -0.01 0.77
-14 13 -12 0.6 0.85
-14 1 12 0.88 0.87
-1 -13 12 0.33 0.69
-13 14 -12 0.56 0.78
14 -13 12 1.02 0.71
13 1 12 0.65 0.87
-14 13 12 0.7 0.77
-13 -1 12 -0.09 0.79
1 -14 12 0.24 0.75
13 -14 -12 0.54 0.71
0 -14 12 2.06 0.77
14 -14 -12 3.11 0.72
14 -14 12 2.43 0.76
-14 14 -12 2.31 0.74
14 0 12 1.06 0.74
-14 14 12 2.11 0.76
-14 0 12 2.39 0.86
-8 15 12 3.69 1
15 -8 -12 4.07 0.9
-7 -8 12 5.07 1.09
15 -7 12 6.58 0.97
8 -15 12 4.31 0.87
7 8 12 5.39 0.9
-7 15 -12 3.46 1.02
8 7 12 8.09 1.05
-15 8 12 5.39 1.11
7 -15 12 7.28 1.05
-8 15 -12 6.66 1.14
15 -7 -12 6.07 0.98
15 -8 12 7.24 1.01
-8 -7 12 6.61 1.15
8 -15 -12 5.31 0.93
-6 15 -12 10.04 1.59
-15 6 12 11.71 1.49
-9 15 12 14.95 1.81
-6 -9 12 14.84 1.68
15 -6 12 13.92 1.54
9 -15 12 15.19 1.52
6 9 12 12.53 1.48
15 -9 -12 13.44 1.5
9 -15 -12 10.16 1.46
6 -15 12 9.8 1.39
15 -6 -12 6.67 1.04
-9 15 -12 9.63 1.63
9 6 12 9.06 1.1
-9 -6 12 6.78 1.14
-15 9 12 8.88 1.45
15 -9 12 9.57 1.33
-15 5 12 1.34 0.76
10 -15 12 0.89 0.68
15 -10 -12 1.09 0.71
-5 15 -12 0.74 0.78
-10 15 12 1.11 0.99
-5 -10 12 1.02 0.68
5 10 12 1.61 0.72
10 5 12 1.85 0.83
15 -5 -12 0.39 0.79
-10 15 -12 1.92 0.88
-10 -5 12 0.54 0.84
10 -15 -12 1.06 0.81
5 -15 12 1 0.75
-15 10 12 0.95 0.88
15 -10 12 1.41 0.76
-11 15 12 3.08 0.99
11 -15 12 2.06 0.74
15 -11 -12 2.33 0.74
-15 4 12 3.34 0.9
-11 -4 12 1.65 0.85
-15 11 12 2.05 0.9
11 4 12 2.2 0.93
15 -4 -12 1.15 0.81
11 -15 -12 2.56 0.81
4 -15 12 2.07 0.85
-11 15 -12 1.74 0.84
15 -11 12 2.95 0.8
15 -12 -12 1.11 0.67
12 -15 12 2.19 0.77
-12 15 12 2.37 0.9
-15 3 12 2.37 0.87
15 -3 -12 1.03 0.75
12 3 12 0.07 0.89
-15 12 12 1.78 0.82
-12 15 -12 1.7 0.79
12 -15 -12 1.16 0.78
3 -15 12 1.01 0.79
-12 -3 12 0.98 0.8
15 -12 12 1.12 0.7
13 -15 12 1.5 0.74
-15 2 12 1.8 0.89
15 -13 -12 1.54 0.71
-13 15 12 1.39 0.81
-15 13 -12 1.59 0.7
-15 13 12 0.78 0.79
15 -13 12 0.93 0.7
15 -2 -12 -0.1 0.77
-13 15 -12 1.33 0.67
13 2 12 0.48 0.84
-13 -2 12 0.54 0.79
13 -15 -12 1.39 0.74
2 -15 12 1.46 0.79
-15 1 12 1.57 0.81
15 -14 -12 1.16 0.67
14 -15 12 0.52 0.62
-15 14 -12 1.2 0.64
-1 -14 12 0.13 0.57
-14 15 12 1.43 0.73
14 -15 -12 0.31 0.62
1 -15 12 -0.52 0.69
14 1 12 0.73 0.82
-15 14 12 1.5 0.75
-14 -1 12 1.2 0.78
15 -14 12 0.86 0.66
-14 15 -12 0.91 0.62
-15 15 -12 0.59 0.64
-15 15 12 0.67 0.69
0 -15 12 -0.12 0.62
15 -15 -12 0.3 0.63
-15 0 12 0.58 0.73
15 -15 12 0.64 0.65
8 -16 -12 9.72 1.08
16 -8 12 6.63 0.96
-8 16 -12 8.9 1.41
8 -16 12 9.59 1.09
-8 -8 12 6.94 1.09
8 8 12 8.02 1.03
16 -8 -12 7 0.97
-9 16 12 1.59 0.74
16 -9 -12 3.06 0.72
7 9 12 2.37 0.71
-7 -9 12 2.39 0.7
9 -16 12 1.32 0.64
-7 16 -12 2.41 0.79
16 -7 -12 1.48 0.79
-16 9 12 2.02 0.75
9 -16 -12 1.58 0.76
16 -9 12 1.33 0.71
-9 16 -12 1.91 0.84
9 7 12 2.2 0.8
7 -16 12 1.34 0.69
-9 -7 12 1.17 0.85
-6 16 -12 0.13 0.7
-10 16 12 1.06 0.85
10 -16 12 0.29 0.62
16 -10 -12 0.73 0.66
-16 6 12 1.9 0.71
6 10 12 0.98 0.66
-10 -6 12 0.53 0.79
-16 10 12 0.17 0.83
6 -16 12 0.27 0.68
-10 16 -12 1.07 0.78
16 -10 12 0.89 0.66
16 -6 -12 0.81 0.76
10 6 12 1.57 0.76
10 -16 -12 1.41 0.78
11 -16 12 0.62 0.62
-16 5 12 1.82 0.76
16 -11 -12 -0.04 0.62
-11 16 12 0.62 0.84
5 -16 12 -0.12 0.68
-11 16 -12 0.09 0.72
11 5 12 -0.65 0.78
-16 11 12 0.05 0.72
16 -5 -12 -0.48 0.73
-11 -5 12 0.02 0.75
-16 5 -12 -0.15 0.64
11 -16 -12 -0.3 0.7
16 -11 12 0 0.67
16 -12 -12 0.36 0.61
-16 4 12 1.11 0.74
12 -16 12 0.76 0.66
-12 16 12 0.88 0.82
4 -16 12 0.1 0.65
12 -16 -12 -0.01 0.71
16 -4 -12 0.27 0.69
-16 12 12 0.53 0.78
-16 4 -12 -1.03 0.43
16 -12 12 0.81 0.66
-12 -4 12 0.3 0.69
-12 16 -12 0.51 0.65
12 4 12 0.02 0.83
16 -13 -12 0.93 0.63
-13 16 12 0.95 0.75
13 -16 12 0.65 0.64
-16 3 12 1.69 0.77
-13 16 -12 0.48 0.6
13 -16 -12 0.58 0.71
16 -3 -12 -0.15 0.44
13 3 12 -0.6 0.88
-16 13 12 0.67 0.74
16 -13 12 0.81 0.64
-13 -3 12 0.38 0.7
3 -16 12 0.3 0.69
16 -14 -12 0.45 0.55
-14 16 12 0.92 0.72
-16 2 12 0.47 0.73
14 -16 12 0.52 0.68
-14 16 -12 0.55 0.6
-16 14 12 0.71 0.65
14 -16 -12 0.48 0.65
2 -16 12 0.48 0.73
14 2 12 -0.79 0.81
16 -14 12 0.47 0.64
-14 -2 12 -0.32 0.67
-15 16 12 0.82 0.67
15 -16 12 0.78 0.65
-16 1 12 0.97 0.74
16 -15 -12 0.37 0.67
-15 16 -12 0.27 0.61
16 -15 12 0.28 0.63
-15 -1 12 0.26 0.73
15 -16 -12 0.08 0.68
1 -16 12 0.09 0.63
-16 15 12 0.2 0.66
-16 16 12 0.8 0.7
-16 0 12 1.15 0.75
16 -16 -12 1.15 0.69
8 9 12 0.22 0.61
-8 17 -12 0.39 0.73
17 -9 -12 -0.55 0.55
9 -17 12 0.33 0.6
8 -17 -12 -0.06 0.66
-9 -8 12 0.35 0.49
8 -17 12 0.23 0.61
17 -8 -12 0.14 0.62
9 8 12 0.03 0.64
17 -9 12 0.18 0.63
-9 17 -12 0.14 0.72
9 -17 -12 -0.61 0.66
17 -10 -12 1.06 0.59
7 -17 -12 1.09 0.65
10 -17 12 1.83 0.64
7 10 12 1.74 0.66
-7 17 -12 0.31 0.61
17 -7 -12 1.13 0.67
7 -17 12 0.44 0.61
-10 17 -12 1.15 0.72
10 7 12 0.41 0.72
10 -17 -12 1.15 0.7
-17 7 -12 1.06 0.62
17 -10 12 0.85 0.64
-10 -7 12 0.9 0.69
11 -17 12 2.67 0.68
17 -11 -12 1.85 0.63
-11 17 12 1.88 0.75
-17 6 12 2.93 0.68
17 -6 -12 1.91 0.73
17 -11 12 2.37 0.75
-11 17 -12 1.75 0.67
6 -17 12 0.74 0.64
-17 11 12 1.45 0.62
-17 6 -12 1.13 0.64
11 6 12 1.67 0.79
11 -17 -12 2.27 0.73
-11 -6 12 2.09 0.77
-12 17 12 1.44 0.79
-17 5 12 2.39 0.75
17 -12 -12 1.32 0.63
12 -17 12 1.77 0.68
17 -5 -12 1.01 0.64
5 -17 12 2.12 0.71
12 5 12 2.49 0.88
-12 -5 12 1.76 0.74
-17 12 12 2.58 0.72
-12 17 -12 3.16 0.73
17 -12 12 3.14 0.73
12 -17 -12 2.47 0.78
-17 4 12 0.93 0.7
13 -17 12 0.06 0.65
17 -13 -12 0.26 0.6
-13 17 12 0.55 0.78
13 4 12 0.09 0.86
-13 17 -12 0.55 0.61
17 -13 12 -0.03 0.58
-13 -4 12 0.07 0.68
17 -4 -12 -0.1 0.47
4 -17 12 0.05 0.64
-17 13 12 0.74 0.65
13 -17 -12 0.57 0.72
-17 3 12 2 0.77
17 -14 -12 0.56 0.64
14 -17 12 0.37 0.62
-14 17 12 1.22 0.72
14 -17 -12 0.4 0.7
-14 -3 12 0.73 0.72
14 3 12 -0.02 0.9
-17 14 12 0.88 0.7
3 -17 12 0.29 0.64
17 -14 12 0.58 0.61
-14 17 -12 0.83 0.64
-18 9 -12 0.68 0.61
9 9 12 -0.18 0.63
9 -18 -12 -0.04 0.71
9 -18 12 0.11 0.57
-9 18 -12 0.19 0.63
18 -9 -12 0.28 0.61
18 -10 -12 0.37 0.64
8 -18 -12 0.47 0.75
-18 10 -12 0.64 0.61
10 -18 12 -0.08 0.6
10 -18 -12 1.19 0.74
18 -8 -12 1.21 0.67
-10 18 -12 1.26 0.72
8 -18 12 1.38 0.69
10 8 12 0.66 0.74
-18 8 -12 1.69 0.64
18 -11 -12 1.55 0.66
-18 11 -12 1.83 0.68
11 -18 12 1.3 0.66
7 -18 -12 1.61 0.7
11 -18 -12 2.23 0.77
-18 7 -12 1.25 0.58
11 7 12 2.21 0.83
-11 18 -12 2.15 0.76
18 -7 -12 1.64 0.66
18 -11 12 1.88 0.7
7 -18 12 1.56 0.71
18 -12 -12 0.03 0.61
12 -18 12 0.07 0.66
6 -18 -12 0.64 0.69
-18 12 -12 0.6 0.63
-18 6 12 0.28 0.56
6 -18 12 0.1 0.62
18 -6 -12 0.17 0.59
18 -12 12 0.05 0.62
12 -18 -12 -0.15 0.75
12 6 12 -0.09 0.85
-12 18 -12 0.84 0.76
0 0 13 0.17 0.73
0 0 -13 -0.17 1.13
0 1 13 3.72 1.14
1 -1 13 1.23 0.9
-1 0 -13 1.45 1.19
0 -1 -13 0.74 1.22
-1 0 -13 1.19 1.13
1 -1 13 3.43 0.94
1 0 -13 1.43 1.2
0 1 -13 0.7 1.16
1 -1 -13 0.96 1.22
1 0 13 3.72 1.01
-1 0 13 3.71 1.13
0 -1 13 0.82 1
-1 0 13 1.25 0.95
1 0 13 0.08 0.59
-1 1 -13 0.34 1.07
-1 1 13 0.27 1.13
0 1 -13 0.89 1.18
-1 1 -13 1.97 1.3
-2 1 -13 4.13 1.37
2 -1 -13 4.84 1.47
-1 -1 13 4.4 1.21
-1 2 13 5.9 1.15
1 1 -13 4.05 1.47
1 1 -13 3.94 1.35
1 1 13 6.55 1.22
-1 2 -13 3.32 1.22
-1 2 -13 4.45 1.41
-1 -1 -13 3.92 1.37
2 -1 13 2.56 0.9
1 -2 13 3.98 1.13
1 -2 -13 3.16 1.28
2 0 13 -0.18 0.59
-2 0 13 0.48 0.91
0 2 -13 1.04 1.29
-2 2 -13 0.72 1.21
2 0 -13 0.95 1.15
-2 0 -13 0.6 1.16
0 2 -13 1.1 1.18
2 -2 -13 0.14 1.15
-2 0 13 3.13 1.15
-2 2 13 2.31 1.12
0 -2 -13 0.55 1.15
0 -2 13 0.71 1.03
2 -2 13 0.77 0.94
1 2 13 4.92 1.12
1 -3 -13 2.23 1.35
-2 -1 -13 2.29 1.24
-1 -2 13 3.39 1.12
-1 3 -13 1.13 1.13
-2 3 13 4.58 1.19
3 -1 13 1.97 0.81
-3 1 13 5.79 1.23
3 -2 -13 3.01 1.35
-3 2 -13 2.35 1.23
2 1 -13 2.53 1.2
-1 -2 13 4.86 1.07
2 -3 13 1.89 0.95
-3 1 13 3.03 1
-1 3 -13 2.95 1.35
-1 3 13 5.64 1.21
1 2 -13 3.63 1.48
3 -1 -13 2.65 1.27
2 1 13 3.95 0.96
2 -3 -13 3.53 1.4
-3 1 -13 2.62 1.29
1 -3 13 3.3 1.15
-3 2 13 4.51 1.21
1 2 -13 3.47 1.34
-2 -1 13 6.79 1.26
-2 3 -13 3.33 1.35
-2 -1 13 1.71 1.1
3 -2 13 3.18 1
0 -3 -13 3.88 1.24
-3 0 -13 2.84 1.28
-3 0 13 4.51 1.22
3 0 -13 5.68 1.5
3 -3 -13 4.6 1.37
3 -3 13 5.65 1.06
0 3 13 6.22 1.19
-3 0 13 7.96 1.31
-3 3 -13 5.4 1.44
0 3 -13 3.81 1.36
0 3 -13 3.24 1.29
0 -3 13 4.44 1.16
-2 4 -13 0.44 1.22
4 -2 -13 1.4 1.24
-2 4 13 2.75 1.08
2 2 13 1.75 0.77
-2 -2 -13 -0.81 0.98
2 -4 13 1.32 0.99
2 2 -13 1.71 1.39
2 -4 -13 1.51 1.34
2 2 -13 0.87 1.16
-4 2 13 2.63 1.17
4 -2 13 1.08 0.88
-2 -2 13 1.62 1.12
-4 2 -13 1.32 1.25
-4 2 13 0.46 0.75
4 -1 13 0.6 0.67
-1 4 -13 0.81 1.07
4 -3 -13 1.59 1.36
-4 1 13 1.42 1.06
-1 -3 13 1.05 0.99
1 3 13 2.63 0.96
-3 -1 -13 -1.03 0.93
-1 4 -13 2.57 1.3
-3 4 13 2.32 1.11
3 -4 13 1.53 0.98
3 1 -13 1.7 1.33
1 -4 -13 1.65 1.26
-4 3 -13 1.01 1.16
-4 1 13 2.64 1.08
1 3 -13 2.31 1.37
1 3 -13 1.85 1.26
-3 -1 13 4.43 1.19
-4 1 -13 0.95 1.16
-3 -1 13 2.3 1.13
4 -1 -13 2.65 1.32
-1 -3 -13 0.21 1.15
-1 4 13 3.39 1.13
3 -4 -13 0.67 1.23
-3 4 -13 2.45 1.26
4 -3 13 2 0.93
1 -4 13 1.28 1.03
-4 3 13 3.97 1.23
0 4 -13 0.62 1.15
0 -4 -13 1.02 1.08
-4 0 13 3.29 1.15
4 -4 13 2.38 1
-4 0 13 2.1 2.11
4 -4 -13 1.1 1.33
-4 4 -13 1.31 1.17
-4 0 13 0.84 1.15
0 -4 13 1.58 1.07
4 0 -13 2.34 1.35
-4 4 13 2.03 1.19
0 4 -13 1.99 1.25
0 4 13 1.92 0.96
-3 5 13 11.76 1.57
-2 5 -13 8.38 1.61
2 -5 -13 8.87 1.61
-5 2 13 9.23 1.37
3 2 -13 11.14 1.77
-2 -3 13 8.17 1.38
5 -2 13 5.84 1.07
3 2 -13 10.69 1.89
-5 3 -13 6.76 1.5
-5 2 13 8.3 1.35
5 -3 -13 11.55 1.83
3 -5 -13 7.47 1.55
-5 3 13 11.63 1.51
5 -2 -13 8.66 1.65
2 3 -13 7.78 1.7
-3 5 -13 10.91 1.79
2 3 -13 8.77 1.59
5 -3 13 6.21 1.13
-2 5 13 12.34 1.92
-5 2 -13 6 1.49
2 -5 13 6.86 1.23
1 -5 -13 0.93 1.13
-5 1 13 3.8 1.11
-5 4 -13 1.96 1.3
-5 1 13 2.51 2.16
5 -1 13 0.7 0.68
-1 5 -13 1.78 1.3
5 -4 -13 1.51 1.35
-1 5 -13 -0.5 0.92
-4 5 13 1.99 1.2
-5 1 13 1.52 1.15
-1 -4 13 0.76 0.98
4 -5 13 1.51 0.93
4 1 -13 1.73 1.37
1 4 13 -0.45 0.74
5 -4 13 1.2 0.91
-5 4 13 2.12 1.2
-4 5 -13 1.08 1.2
-1 5 13 1.28 0.95
1 4 -13 0.87 1.22
-4 -1 13 3.99 2.1
1 -5 13 1.43 1.02
-4 -1 13 3.14 1.13
-4 -1 13 2.32 1.2
4 -5 -13 1.76 1.39
5 -1 -13 1.73 1.3
-5 1 -13 -1 0.9
1 4 -13 2.8 1.47
0 5 -13 3.3 1.47
5 -5 -13 2.74 1.43
0 -5 13 3.04 1.08
-5 5 -13 1.7 1.3
0 -5 -13 0.64 1.01
0 5 13 1.12 0.77
-5 5 13 4.16 1.3
-5 0 13 3.9 1.15
-5 0 13 3.44 2.26
5 0 -13 2.26 1.42
0 5 -13 0.93 1.23
5 -5 13 2.48 0.98
-5 0 13 3.92 1.34
-6 3 13 0.69 0.87
3 -6 -13 2.06 1.35
-3 -3 13 1.79 1.11
-3 6 -13 1.49 1.22
-3 6 13 1.02 1.15
6 -3 13 1.39 0.93
-6 3 13 2.64 1.14
3 -6 13 2.75 1.07
6 -3 -13 0.91 1.28
3 3 -13 1.66 1.31
3 3 -13 0.9 1.25
-2 6 -13 3.48 1.36
4 2 -13 4.68 1.58
-6 2 13 -0.59 2.1
4 -6 13 5.41 1.14
6 -4 -13 3.86 1.48
-4 6 13 5.57 1.36
4 2 -13 5.2 1.5
6 -2 13 3.45 0.93
-6 4 -13 2.32 1.32
-2 -4 13 5.26 1.23
-6 2 13 3.64 1.18
-6 2 13 3.41 1.1
2 -6 -13 4.21 1.41
6 -2 -13 4.11 1.48
6 -4 13 3.78 0.97
2 -6 13 3.86 1.06
4 -6 -13 2.25 1.3
2 4 -13 4.34 1.52
-4 -2 13 5.4 2.23
2 4 -13 3.39 1.37
-2 6 13 3.31 1.09
-4 -2 13 4.28 1.05
-4 -2 13 6.09 1.29
-6 4 13 5.7 1.36
-4 6 -13 3.8 1.48
5 -6 13 3.56 1.02
-6 1 13 3.91 1.28
-6 5 -13 1.51 1.24
-1 6 -13 2.29 1.33
-5 6 13 3.24 1.24
-6 1 13 2.42 1.02
-6 1 13 1.47 2.26
-1 -5 13 4.48 1.13
-1 6 -13 -0.5 1.03
6 -5 -13 3.22 1.53
1 -6 -13 2.27 1.2
5 1 -13 3.71 1.48
1 5 -13 2.56 1.38
-5 -1 13 4.74 1.14
-6 5 13 5.63 1.36
-1 6 13 2.24 0.95
6 -1 -13 3.71 1.4
1 -6 13 4.52 1.15
6 -5 13 4.99 1.03
-5 -1 13 3.61 1.25
1 5 -13 2.88 1.35
5 -6 -13 3.23 1.49
-5 6 -13 4.04 1.5
-5 -1 13 6.5 2.42
-6 0 13 6.57 1.39
6 -6 13 3.77 1.03
0 6 -13 1.07 1.18
-6 6 -13 3.33 1.39
0 6 -13 5.76 1.56
-6 6 13 5.88 1.32
-6 0 13 6.91 2.49
6 0 -13 4.18 1.37
0 -6 13 6.92 1.28
-6 0 13 4.3 1.16
6 -6 -13 4.85 1.54
-7 3 13 0.68 1.03
3 -7 -13 -0.33 1.18
7 -3 13 0.26 0.84
4 -7 13 1.54 0.95
-3 -4 13 0.19 1.03
4 3 -13 0.58 1.31
-3 7 -13 0.61 1.24
7 -4 -13 0.6 1.34
-4 7 13 1.35 1.25
-7 4 -13 -3.15 1.53
4 3 -13 0.11 1.18
-7 3 13 0.73 1.01
4 -7 -13 1.15 1.36
3 -7 13 1.89 1.01
-4 7 -13 0.32 1.32
-4 -3 13 1.47 1.14
-7 4 13 0.9 1.11
7 -3 -13 1.88 1.43
-4 -3 13 3.18 1.96
7 -4 13 0.87 0.93
3 4 -13 0.82 1.19
-7 3 -13 1.43 1.76
-3 7 13 1.63 1.12
3 4 -13 -0.49 1.22
7 -5 -13 3.27 1.38
5 -7 13 3.94 1.05
5 2 -13 0.53 1.13
-2 -5 13 3.89 1.09
-5 7 13 5.16 1.31
-2 7 -13 3.44 1.45
-7 2 13 -0.99 2.05
5 2 -13 4 1.46
-7 2 13 5.12 1.17
7 -2 13 2.41 0.89
2 -7 -13 3.36 1.31
-7 2 13 3.67 1.22
2 5 -13 2.23 1.34
5 -7 -13 2.77 1.36
2 5 -13 3.54 1.42
7 -2 -13 3.58 1.44
2 -7 13 5.65 1.13
-5 -2 13 7.95 2.45
-5 -2 13 5.01 1.28
-7 5 13 6.86 1.36
-2 7 13 3.14 1.04
-5 7 -13 2.9 1.33
7 -5 13 4.11 1.01
-5 -2 13 6.28 1.15
7 -6 -13 1.05 1.3
6 1 -13 -0.44 1.02
1 -7 -13 0.03 1.02
-7 1 13 2.62 1.03
-6 7 13 2.18 1.23
6 -7 13 3.03 1.05
-1 -6 13 1.11 1.01
6 1 -13 1.66 1.26
7 -6 -13 -0.09 0.69
-7 6 -13 -0.25 1.19
-7 1 13 1.41 1.16
-1 7 -13 1.28 1.37
-7 1 13 1.79 2.16
-7 6 13 4.97 1.35
-6 -1 13 4.44 2.35
1 6 -13 0.22 1.2
-6 -1 13 3.06 1.2
7 -6 13 2.96 0.95
1 6 -13 1.21 1.28
-1 7 13 0.14 0.69
6 -7 -13 1.28 1.32
7 -1 -13 1 1.31
-6 -1 13 4.56 1.13
-6 7 -13 1.03 1.19
6 -7 -13 0.08 0.66
1 -7 13 2.06 0.99
-7 7 13 6.76 1.4
-7 0 13 3.51 2.06
-7 0 13 5.64 1.33
-7 0 13 4.44 1.14
0 -7 13 8.04 1.29
-7 7 -13 3.56 1.38
7 -7 -13 3.9 0.99
7 0 -13 3.65 1.46
7 -7 13 1.2 0.8
7 -7 13 7.82 1.2
7 -7 -13 4.22 1.58
4 -8 13 4.06 1.06
-4 -4 13 4.33 1.19
4 4 -13 2.37 1.3
8 -4 -13 2.21 1.35
4 -8 -13 2.29 1.4
-8 4 13 0.86 0.85
-8 4 13 4.76 1.23
-4 -4 13 6.23 2.24
-4 8 -13 2.7 1.38
-8 4 -13 1.46 1.51
-4 8 13 4.42 1.27
-3 8 -13 4.34 1.49
8 -5 -13 4.65 1.54
5 3 -13 4.44 1.41
-8 3 13 4.84 1.28
-8 5 -13 5.01 2.03
-3 -5 13 4.66 1.16
-8 3 13 6.1 1.25
3 -8 -13 4.57 1.39
5 -8 13 7.63 1.22
-5 8 13 9.31 1.56
-3 8 13 6.01 1.29
5 -8 -13 2.92 1.31
8 -5 13 4.57 1.05
5 -8 -13 3.6 1.01
-5 8 -13 5.61 1.61
-8 5 13 6.78 1.36
3 5 -13 4.51 1.43
-5 -3 13 5.34 2.12
-5 -3 13 7.04 1.3
3 -8 13 6.3 1.13
8 -3 -13 5.33 1.6
-8 6 -13 7.44 2.29
-2 -6 13 6.78 1.19
-6 8 13 8.69 1.5
-8 2 13 8.06 1.31
6 2 -13 6.51 1.51
-8 2 13 -0.52 3.56
6 -8 13 10.29 1.3
-2 8 -13 6.22 1.66
8 -6 -13 5.37 1.6
-8 2 13 8.42 1.45
8 -6 13 8.06 1.18
-6 -2 13 6.76 2.22
6 -8 -13 4.86 1.44
6 2 13 6.06 1.09
2 6 -13 5.08 1.39
-2 8 13 3.63 0.92
8 -2 -13 7.22 1.57
-6 8 -13 8.13 1.67
6 -8 -13 6.16 1.12
8 -6 13 4.53 0.91
8 -7 -13 -0.58 1.2
-8 1 13 -0.03 2.04
7 -8 13 1.69 0.97
-1 -7 13 2.26 1.06
7 -8 13 -0.05 0.88
-7 8 13 1.52 1.19
7 1 -13 0.1 1.26
-8 7 -13 1.07 1.9
8 -7 -13 0.04 0.91
-8 1 13 3.11 1.09
-8 1 13 0.88 1.12
7 1 13 0.99 0.92
8 -7 13 2.84 1.04
-7 -1 13 0.36 1.96
1 -8 13 0.66 0.91
8 -7 13 0.65 0.84
-8 7 13 1.21 1.13
8 -1 -13 -0.92 1.22
-7 -1 13 0.98 1.03
-7 -1 13 1.71 0.96
7 -8 -13 -0.44 0.9
7 -8 -13 0.11 1.18
-7 8 -13 -0.18 1.23
1 7 -13 -0.99 0.95
-8 0 13 0.68 0.99
-8 0 13 -0.44 1.97
8 -8 -13 -0.28 0.89
8 0 13 -0.2 0.76
8 -8 -13 -1.06 1.22
8 -8 13 0.5 0.9
8 -8 13 0.92 0.93
0 -8 13 0.92 0.93
8 0 -13 -0.68 1.18
-8 8 -13 -0.75 1.82
-8 8 13 -0.42 1.09
-8 0 13 -0.38 1.04
-9 4 13 8.22 1.31
4 -9 -13 6.04 1.48
5 4 -13 8.75 1.59
5 -9 13 6.85 1.13
-4 -5 13 13.37 1.9
-9 4 13 11.94 1.83
9 -5 -13 4.13 1.38
-5 9 13 12.55 2.05
-4 9 -13 9.01 1.8
4 5 -13 8.6 1.6
9 -5 13 6.77 1.08
-5 9 -13 8.98 1.8
-4 9 13 11.86 1.89
4 -9 13 12.33 1.7
-5 -4 13 9 2.2
9 -4 -13 5.57 1.47
-5 -4 13 12.95 1.87
5 -9 -13 6.35 1.51
5 -9 -13 8.55 1.2
-9 5 13 9.28 1.4
3 -9 -13 0.89 1.11
-6 9 13 4.7 1.36
-3 -6 13 5.45 1.17
-9 3 13 3.59 1.14
-9 3 13 5.35 1.17
9 -6 -13 3.34 0.91
-9 6 -13 3.86 1.78
6 -9 13 5.52 1.06
6 -9 13 3.74 0.98
6 3 -13 4.78 1.47
9 -3 -13 1.4 1.31
-6 9 -13 2.58 1.33
-6 -3 13 8.87 1.36
6 -9 -13 4.46 1.07
6 -9 -13 1.01 1.28
-3 9 13 4.24 1.13
-6 -3 13 5.81 2.22
-9 6 13 5.24 1.25
3 -9 13 7.63 1.13
6 3 13 7.11 1.13
9 -6 13 5.64 1.06
3 6 -13 3.8 1.4
-9 2 13 2.35 1.2
-9 7 -13 2.94 1.76
7 -9 13 3.07 0.98
-7 9 13 5.21 1.37
7 2 -13 2.16 1.28
-2 -7 13 5.65 1.15
9 -7 -13 4.3 1.03
-9 2 13 4.99 1.12
7 -9 13 7.59 1.17
9 -7 13 4.2 0.99
-7 -2 13 6.23 1.25
7 2 13 4.36 1.03
7 -9 -13 3.21 0.99
2 -9 13 3.78 0.99
7 -9 -13 0.38 1.19
-9 7 13 3.73 1.21
-7 9 -13 0.4 1.26
-7 -2 13 3.52 2.05
8 -9 13 8.24 1.26
-9 1 13 9.68 1.33
-8 9 13 8.16 1.39
-9 8 -13 4.53 1.79
9 -8 -13 9.82 1.26
-1 -8 13 8.03 1.25
-9 1 13 5.84 1.31
8 -9 13 10.64 1.32
-8 -1 13 10.15 1.43
8 -9 -13 5.75 1.1
1 -9 13 7.57 1.16
-9 8 13 8.06 1.38
9 -8 13 6.9 1.12
8 -9 -13 2.25 1.19
8 1 13 3.83 1.05
-8 -1 13 2.49 1.82
-8 9 -13 4.79 1.9
-8 -1 13 5.41 1.03
9 -9 13 3.25 0.99
9 0 13 2.57 0.9
-9 0 13 2.54 1.11
0 -9 13 4.01 1.03
9 -9 -13 2.53 0.97
-9 9 13 3.13 1.18
-9 9 -13 0.54 1.45
-9 0 13 3.49 0.93
-5 -5 13 2.24 1.71
5 -10 -13 0.58 1.1
-10 5 13 3.56 0.86
5 5 -13 1.75 1.26
5 -10 13 4.69 1
-10 5 13 6.66 1.22
10 -5 -13 2.74 0.73
-6 10 13 4.32 1.34
-10 6 -13 0.61 1.88
-10 4 13 4.53 1.14
6 -10 13 4.91 1.05
-4 -6 13 6.56 1.15
-10 4 13 6.26 1.23
10 -4 13 4.85 0.88
6 -10 13 4.34 1
10 -6 -13 4.65 1
-6 -4 13 3.22 1.83
10 -6 13 6.06 1.08
4 -10 13 5.83 1.12
-10 6 13 9.79 1.44
6 -10 -13 5.27 1.04
-4 10 13 6.94 1.31
6 4 13 8.18 1.11
7 -10 13 11.11 1.71
-3 -7 13 6.95 1.18
-10 3 13 7.26 1.22
10 -7 -13 6.42 1.13
7 -10 13 9.12 1.22
-10 3 13 8.2 1.36
-7 10 13 11.68 1.65
-10 7 13 8.23 1.46
7 -10 -13 5.59 1.12
3 -10 13 6.71 1.13
7 3 13 7.11 1.17
-7 -3 13 10.07 1.4
10 -7 13 5.6 1.13
-8 10 13 0.7 1.17
-10 2 13 1.72 1
-10 2 13 0.84 1.07
8 -10 13 1.4 0.88
-2 -8 13 2.53 1.06
-10 8 -13 1.68 0.99
8 -10 13 3.06 1.04
10 -8 -13 0.83 0.89
-10 8 -13 0.7 1.4
8 -10 -13 3.9 0.99
8 -10 -13 0.4 1.27
-8 -2 13 6.78 1.24
-8 -2 13 -0.27 1.9
8 2 13 5.32 1.05
-10 8 13 4.22 1.17
2 -10 13 5.78 1.05
10 -8 13 3.13 0.96
10 -9 -13 0.47 0.87
-10 1 13 0.5 0.78
-1 -9 13 1.5 0.97
-10 1 13 -0.31 0.99
9 -10 13 0.15 0.88
-10 9 -13 1.04 0.94
-9 10 13 -0.3 1.03
10 -9 13 0.22 0.84
9 1 13 0.34 0.92
9 -10 -13 -0.56 0.84
-9 -1 13 0.25 0.91
-9 10 -13 0.92 0.93
1 -10 13 0.82 0.91
-10 9 13 -0.03 0.97
10 -10 13 7.83 1.2
-10 10 -13 4.92 1.1
10 -10 -13 5.73 1.03
-10 10 13 5.87 1.21
0 -10 13 5.31 1.04
-10 0 13 7.47 1.28
10 0 13 3.87 0.97
11 -5 13 2.46 0.85
-11 5 13 5.6 1.17
6 -11 13 3.65 1.01
5 6 13 7.18 1.02
6 -11 13 5.86 1.06
-6 11 13 4.84 1.29
-5 -6 13 5.03 1.14
11 -6 -13 3.95 0.97
-11 5 13 4.25 1
6 -11 -13 2.76 0.86
-5 11 13 4.6 1.26
11 -5 -13 2.15 0.84
5 -11 13 3.08 0.98
6 5 13 3.87 0.93
-11 6 13 3.58 1.16
11 -6 13 3.83 0.92
5 -11 13 5.01 1.04
-6 -5 13 4.39 1.12
-11 4 13 6.82 1.12
11 -7 -13 4.42 0.99
-4 -7 13 6.4 1.13
-11 7 -13 5.02 0.99
-11 4 13 4.11 1.07
11 -4 13 4.32 0.88
7 -11 13 2.94 0.93
-7 11 13 4.56 1.37
4 -11 13 5.98 1.16
7 4 13 8.01 1.14
-11 7 13 8.71 1.45
-7 -4 13 10.94 1.4
-7 11 -13 9.03 1.26
7 -11 -13 5.82 1.08
11 -7 13 6.82 1.14
4 -11 13 7.01 1.16
-11 3 13 -0.88 0.9
8 -11 13 1.11 0.95
-11 3 13 0.05 0.85
-8 11 13 -0.82 1.1
8 -11 13 0.44 0.84
-3 -8 13 0.22 0.88
11 -8 -13 -0.09 0.79
11 -3 13 0.77 0.66
-11 8 -13 0.13 0.94
-11 8 13 0.15 1.03
-8 11 -13 0.03 0.89
11 -8 13 -0.81 0.81
8 -11 -13 0.27 0.86
8 3 13 0.96 0.95
3 -11 13 0.05 0.87
-8 -3 13 -0.04 0.9
3 -11 13 0.97 0.85
11 -9 -13 4.41 0.92
-9 11 13 3.87 1.2
9 -11 13 6.33 1.12
-2 -9 13 6.87 1.16
-11 2 13 7.03 1.27
-11 9 -13 6.42 1.17
2 -11 13 4.51 1.05
-9 -2 13 6.15 1.11
9 -11 -13 5.95 1.05
11 -9 13 5.31 1.08
9 2 13 5.33 1.07
-9 11 -13 8 1.21
2 -11 13 3.06 0.87
-11 9 13 8.79 1.32
11 -10 -13 6.47 1.02
-10 11 13 7.89 1.39
-1 -10 13 7.91 1.19
10 -11 13 8.43 1.21
-11 10 -13 4.11 1.04
-11 1 13 6.12 1.22
-11 10 13 5.09 1.17
11 -10 13 4.31 1.02
10 -11 -13 3.34 0.94
-10 -1 13 4.87 1.1
-10 11 -13 3.28 0.99
10 1 13 3.41 1
1 -11 13 3.16 0.95
-11 11 13 5.63 1.21
11 -11 -13 4.89 0.97
0 -11 13 5.63 1.05
-11 11 -13 5.79 1.1
-11 0 13 7.47 1.18
11 -11 13 5.96 1.05
-6 -6 13 1.9 0.98
6 6 13 2.88 0.85
-6 12 13 1.33 1.1
6 -12 -13 1.08 0.81
6 -12 13 1.91 0.86
12 -6 -13 0.61 0.83
-6 12 -13 1.77 0.99
-12 6 13 0.89 0.97
6 -12 13 1.93 0.97
-12 6 13 0.44 0.65
12 -6 13 1.78 0.76
-7 12 13 -0.13 1.03
-5 12 -13 1.69 1
12 -7 -13 0.1 0.78
7 -12 13 0.07 0.83
7 -12 13 1.08 0.93
12 -5 13 0.14 0.72
-12 5 13 0.69 0.88
-12 5 13 0.73 0.83
-5 -7 13 0.37 0.94
12 -5 -13 0.36 0.75
5 -12 13 0.35 0.85
12 -7 13 0.06 0.78
7 -12 -13 0.01 0.74
-5 12 13 0.61 0.78
-7 -5 13 0.24 0.95
-12 7 13 0.24 0.99
7 5 13 1.2 0.82
5 -12 13 0.54 0.85
-7 12 -13 0.34 0.92
12 -8 -13 5.9 0.97
-8 12 13 4.47 1.23
-12 4 13 4.74 1.04
8 -12 13 5.11 1.01
8 -12 13 4.71 1.01
-12 4 13 3.97 0.96
12 -4 13 5.07 0.86
-4 -8 13 4.45 1.02
-12 8 -13 3.08 0.74
-4 12 -13 6.64 1.17
-8 12 -13 7.98 1.22
8 -12 -13 5.38 1.04
-8 -4 13 8 1.25
4 -12 13 8.13 1.17
12 -8 13 6.65 1.07
-12 8 13 6.57 1.25
4 -12 13 6.32 1.1
8 4 13 7.37 1.12
-3 -9 13 9.33 1.22
-3 12 -13 5.17 1.08
-9 12 13 6.85 1.29
12 -9 -13 7.02 1.01
9 -12 13 6.99 1.1
-12 3 13 5.28 1.13
-12 9 -13 6.52 1.12
-9 12 -13 7.35 1.2
9 3 13 10.66 1.33
3 -12 13 6.2 1.15
3 -12 13 11.25 1.62
-12 9 13 12.74 1.48
12 -9 13 9.69 1.31
9 -12 -13 9.07 1.36
-9 -3 13 11.94 1.4
-12 2 13 2.48 0.97
-10 12 13 2.36 1.1
-2 -10 13 2.61 0.96
10 -12 13 1.7 0.88
-2 12 -13 1.9 0.85
-12 10 -13 1.8 0.91
12 -10 -13 1.57 0.78
-10 12 -13 1.61 0.89
2 -12 13 1.24 0.78
10 2 13 0.8 0.91
2 -12 13 1.87 0.91
-10 -2 13 2.64 0.91
12 -10 13 4.09 0.99
10 -12 -13 2.06 0.8
-12 10 13 1.53 0.94
11 -12 13 7.53 1.13
-12 11 -13 5.71 1.08
-12 1 13 7.17 1.17
-1 -11 13 6.96 1.1
12 -11 -13 4.49 0.87
-11 12 13 8.5 1.3
-12 11 13 7.01 1.16
12 -11 13 7.52 1.08
-11 -1 13 6.78 1.13
1 -12 13 4.82 1.01
-11 12 -13 4.67 1.02
11 -12 -13 6.62 1
11 1 13 3.29 1.03
-12 0 13 6.1 1.08
12 -12 -13 5.54 0.9
0 -12 13 4.71 0.88
-12 12 13 5.02 1.02
12 -12 13 4.44 0.93
-12 12 -13 6.44 1.08
6 7 13 0.79 0.74
-6 13 -13 0.12 0.9
-13 6 13 0.36 0.85
6 -13 -13 0.67 0.74
13 -7 -13 0.59 0.78
-6 -7 13 -0.06 0.87
7 -13 13 0.77 0.88
-7 13 13 -0.01 1.01
7 -13 13 0.18 0.77
-13 6 13 0.43 0.55
13 -6 13 0.19 0.71
-7 -6 13 0.21 0.89
7 6 13 0.88 0.74
-7 13 -13 -0.25 0.84
-6 13 13 0.67 0.74
-13 7 13 -0.45 0.89
6 -13 13 -0.14 0.87
7 -13 -13 0.36 0.72
13 -6 -13 -0.09 0.73
6 -13 13 0.19 0.8
13 -7 13 0.17 0.74
-8 13 13 2.01 1.02
13 -5 13 2.44 0.75
13 -8 -13 2.84 0.79
-13 5 13 1.72 0.81
-5 -8 13 2.99 0.93
-13 5 13 1.39 0.79
-5 13 -13 1.55 0.96
8 -13 13 3.31 0.88
8 5 13 4.18 0.93
5 -13 13 4.03 0.9
-8 13 -13 4.33 1.01
-8 -5 13 4.69 1.07
-13 8 13 4.13 1.09
5 -13 13 4.96 1
8 -13 -13 3.42 0.88
13 -5 -13 2.1 0.82
13 -8 13 3.59 0.91
-4 13 -13 0.82 0.8
-13 9 -13 0.21 0.67
13 -9 -13 0.77 0.73
-9 13 13 1.16 1.04
9 -13 13 1.49 0.82
-13 4 13 1.04 0.76
-4 -9 13 0.97 0.89
13 -9 13 2.46 0.85
-13 9 13 2.12 1.02
9 -13 -13 1.23 0.78
-9 13 -13 1.08 0.83
4 -13 13 1.72 0.78
-9 -4 13 1.7 0.91
9 4 13 2.47 0.91
4 -13 13 2.42 0.86
-13 3 13 2.36 0.91
-10 13 13 2.57 0.99
13 -10 -13 3.91 0.82
-3 13 -13 2.63 0.82
-3 -10 13 3.73 0.94
-13 10 -13 3.33 0.98
10 -13 13 3.62 0.9
10 3 13 1.77 0.96
-13 10 13 2.62 0.96
13 -10 13 2.89 0.87
-10 -3 13 2.76 0.91
3 -13 13 0.98 0.77
-10 13 -13 1.62 0.81
3 -13 13 2.22 0.77
10 -13 -13 1.63 0.77
-2 -11 13 1.28 0.78
11 -13 13 1.86 0.82
13 -11 -13 1.67 0.7
-13 2 13 1.79 0.86
-11 13 13 1.42 0.94
-13 11 -13 1.45 0.91
11 2 13 0.28 0.88
-11 13 -13 0.94 0.83
13 -11 13 2.15 0.84
11 -13 -13 2.04 0.78
-11 -2 13 1.4 0.8
-13 11 13 1.96 0.87
2 -13 13 1.45 0.71
12 -13 13 1.25 0.76
-13 12 -13 1.71 0.84
13 -12 -13 0.87 0.64
-13 1 13 0.55 0.77
-12 13 13 0.54 0.79
1 -13 13 -0.12 0.55
-13 12 13 1.25 0.81
13 -12 13 1.32 0.82
-12 13 -13 0.66 0.79
12 -13 -13 0.28 0.66
-12 -1 13 0.01 0.73
12 1 13 -0.14 0.8
-13 13 -13 5.08 0.92
13 -13 -13 3.58 0.77
-13 0 13 4.98 0.91
13 -13 13 5.14 0.92
-13 13 13 6.05 0.98
7 7 13 0.65 0.7
14 -7 13 0.57 0.74
7 -14 -13 0.32 0.71
-7 14 -13 0.23 0.9
-14 7 13 0.31 0.78
14 -7 -13 -0.18 0.68
7 -14 13 0.18 0.72
-7 14 13 0.32 0.67
-7 -7 13 0.32 0.84
14 -8 -13 0.63 0.68
-14 6 13 0.27 0.51
-14 6 13 0.59 0.52
8 -14 13 0.95 0.71
14 -6 13 1.37 0.74
-6 14 -13 0.2 0.82
-6 -8 13 0.44 0.78
6 -14 -13 1.35 0.7
-8 14 13 0.93 0.89
-14 8 13 0.77 0.85
8 6 13 0.45 0.72
14 -8 13 0.84 0.71
-8 14 -13 0.9 0.85
8 -14 -13 0.66 0.69
-8 -6 13 0.88 0.84
6 -14 13 1 0.78
6 -14 13 -0.23 0.64
14 -6 -13 -0.28 0.7
14 -9 -13 -0.27 0.68
-14 5 13 0.88 0.68
-5 14 -13 0.7 0.7
-9 14 13 0.63 0.84
9 -14 13 0.34 0.72
-5 -9 13 0.31 0.81
-9 -5 13 0.45 0.83
14 -5 -13 -0.23 0.69
5 -14 13 -0.82 0.71
-9 14 -13 0.81 0.81
9 5 13 -0.15 0.77
5 -14 13 0.62 0.68
-14 9 13 0.75 0.87
14 -9 13 0.3 0.74
9 -14 -13 0.71 0.7
10 -14 13 2.54 0.82
-4 14 -13 1.27 0.75
-10 14 13 1.53 0.91
14 -10 -13 1.64 0.66
-4 -10 13 2.24 0.81
-14 4 13 1.86 0.75
14 -4 -13 -0.09 0.57
10 4 13 -0.47 0.84
10 -14 -13 2.04 0.76
4 -14 13 0.45 0.69
-10 14 -13 1.88 0.87
-14 10 13 1.49 0.86
-10 -4 13 1.85 0.88
14 -10 13 1.2 0.75
-11 14 13 2.76 0.92
11 -14 13 3.76 0.88
14 -11 -13 2.23 0.71
-14 3 13 4.19 0.91
-11 14 -13 3.32 0.88
14 -11 13 2.11 0.77
3 -14 13 1.69 0.71
11 3 13 1.24 0.94
-14 11 13 2.04 0.86
11 -14 -13 2.45 0.76
-11 -3 13 2.15 0.81
14 -12 -13 1.94 0.68
-14 12 -13 1.36 0.74
12 -14 13 1.88 0.75
-14 2 13 1.65 0.76
-12 14 13 1.49 0.82
14 -12 13 3.5 0.81
2 -14 13 0.98 0.56
-14 12 13 1.8 0.78
-12 14 -13 1.91 0.77
-12 -2 13 1.53 0.76
12 2 13 0.7 0.87
12 -14 -13 2.45 0.76
14 -13 -13 1.98 0.65
-14 1 13 0.84 0.72
13 -14 13 1.92 0.73
-14 13 -13 1.88 0.67
-13 14 13 1.81 0.78
14 -13 13 0.38 0.7
13 -14 -13 1.14 0.62
-14 13 13 1.34 0.71
13 1 13 -0.74 0.65
-13 -1 13 0.72 0.7
-13 14 -13 0.49 0.68
-14 14 -13 1.11 0.62
-14 0 13 1.52 0.77
14 -14 -13 0.92 0.66
14 -14 13 1.19 0.73
-14 14 13 1.1 0.7
15 -7 13 0.63 0.7
-7 -8 13 0.72 0.72
15 -8 -13 0.2 0.61
7 -15 -13 0.31 0.61
-7 15 -13 0.71 0.85
8 -15 13 1.04 0.67
8 -15 -13 0.51 0.67
-8 -7 13 -0.04 0.77
15 -7 -13 0.19 0.63
-15 8 13 1.1 0.64
-8 15 -13 0.84 0.83
15 -8 13 1.27 0.7
8 7 13 0.9 0.7
7 -15 13 0.95 0.7
-15 6 13 0.61 0.56
6 -15 -13 1.65 0.64
15 -9 -13 0.63 0.62
-6 -9 13 0.97 0.73
9 -15 13 1.14 0.67
-6 15 -13 0.79 0.8
-9 15 13 1.14 0.79
6 -15 13 0.23 0.68
9 -15 -13 0.24 0.67
9 6 13 -0.23 0.73
15 -6 -13 0.18 0.65
-9 -6 13 0.89 0.77
15 -9 13 0.42 0.68
-15 9 13 0.64 0.74
-9 15 -13 1.02 0.83
10 -15 13 2.31 0.74
-15 5 13 2.12 0.66
15 -10 -13 1.86 0.64
-10 15 13 2.52 0.83
-5 15 -13 1.29 0.72
-10 -5 13 1.06 0.79
-15 10 13 1.06 0.81
-10 15 -13 1.88 0.79
10 5 13 1.32 0.83
10 -15 -13 2.56 0.72
5 -15 13 0.9 0.68
15 -5 -13 0.8 0.54
15 -10 13 1.58 0.69
-15 4 13 1.73 0.69
11 -15 13 1.03 0.7
15 -11 -13 0.7 0.64
-11 15 13 0.44 0.77
11 -15 -13 0.33 0.67
11 4 13 -0.75 0.83
-11 -4 13 0.93 0.77
-11 15 -13 0.87 0.67
4 -15 13 0.68 0.67
-15 11 13 1 0.73
15 -11 13 0.76 0.69
12 -15 13 0.72 0.66
-15 3 13 0.49 0.69
-12 15 13 0.47 0.74
15 -12 -13 0.29 0.61
-15 12 13 0.93 0.73
-12 -3 13 1.92 0.78
3 -15 13 0.87 0.62
12 3 13 0.48 0.92
15 -12 13 2.06 0.75
12 -15 -13 1.75 0.7
-12 15 -13 1.45 0.72
13 -15 13 0.9 0.68
-15 2 13 0.11 0.67
15 -13 -13 0.85 0.61
-13 15 13 1.02 0.69
-13 15 -13 1.13 0.7
-15 13 13 1.35 0.71
13 -15 -13 1 0.66
15 -13 13 0.44 0.69
2 -15 13 -0.03 0.52
13 2 13 -0.93 0.64
-13 -2 13 0.28 0.71
-14 15 13 0.55 0.68
-15 1 13 0.32 0.72
14 -15 13 0.38 0.72
15 -14 -13 -0.19 0.63
14 -15 -13 0 0.65
-14 15 -13 0.74 0.64
-15 14 13 0.6 0.68
15 -14 13 0.43 0.67
-14 -1 13 0.26 0.75
16 -8 -13 -0.01 0.63
-8 -8 13 0.09 0.55
8 -16 -13 -0.12 0.64
-8 16 -13 0.37 0.75
8 -16 13 0.04 0.61
7 -16 -13 0.78 0.66
16 -9 -13 0.93 0.6
9 -16 13 1 0.64
-7 16 -13 1.39 0.75
-9 16 -13 1.58 0.77
9 -16 -13 1.1 0.67
7 -16 13 0.67 0.64
16 -7 -13 0.24 0.57
16 -9 13 0.68 0.63
-9 -7 13 0.45 0.64
9 7 13 1.33 0.75
6 -16 -13 2.24 0.67
10 -16 13 2.78 0.74
16 -10 -13 1.9 0.63
-16 6 -13 2.41 0.61
10 6 13 2.76 0.85
16 -6 -13 2.18 0.58
10 -16 -13 3.27 0.73
-16 10 13 1.3 0.54
16 -10 13 3.3 0.75
-10 -6 13 3.41 0.79
6 -16 13 2.89 0.73
-10 16 -13 2.48 0.72
11 -16 13 0.65 0.7
16 -11 -13 0.58 0.59
-11 16 13 0.57 0.68
-16 5 13 0.89 0.49
5 -16 -13 -0.14 0.59
-11 -5 13 0.14 0.72
16 -11 13 0.03 0.65
11 5 13 -0.07 0.85
-11 16 -13 0.82 0.72
5 -16 13 -0.45 0.68
11 -16 -13 0.12 0.69
-16 11 13 0.65 0.62
-12 16 13 2.08 0.79
12 -16 13 2.36 0.75
16 -12 -13 2.86 0.69
-16 4 13 2.52 0.72
-12 16 -13 2.39 0.69
12 4 13 1.36 0.96
-16 12 13 2.25 0.71
4 -16 13 1.63 0.65
12 -16 -13 2.99 0.78
16 -12 13 1.41 0.67
-12 -4 13 1.93 0.8
-16 3 13 1.25 0.69
-13 16 13 1.81 0.76
16 -13 -13 1.12 0.65
13 -16 13 0.6 0.68
16 -13 13 2.23 0.74
13 -16 -13 2.57 0.69
-13 -3 13 1.65 0.82
-13 16 -13 2.28 0.72
-16 13 13 2.27 0.74
8 -17 -13 1.11 0.71
17 -9 -13 0.37 0.67
9 -17 13 0.75 0.66
-17 9 -13 0.82 0.64
-9 17 -13 0.45 0.67
8 -17 13 0.62 0.64
17 -8 -13 0.09 0.52
9 -17 -13 1.04 0.7
-17 8 -13 0.25 0.6
-17 7 -13 -0.54 0.37
-10 17 -13 1.06 0.71
0 0 14 2.25 0.94
0 0 14 0.27 0.87
0 0 -14 0.36 1.21
-1 0 -14 1.86 1.23
0 1 14 4.62 1.03
1 0 -14 -0.33 0.97
1 -1 -14 -0.18 0.98
1 0 14 1.61 0.82
1 -1 14 1.99 0.95
0 -1 -14 2.49 1.33
1 0 -14 2.8 1.46
1 -1 -14 2.17 1.32
0 1 14 -0.09 0.66
-1 1 14 1.73 0.84
0 1 -14 1.74 1.3
0 -1 14 3.31 1.03
-1 0 14 2.09 1.06
-1 1 -14 2.71 1.37
-1 1 14 5.37 1.08
-1 0 14 4.54 0.99
-2 1 14 1.22 0.99
2 -1 14 0.78 0.86
1 -2 14 0.92 1.02
-1 -1 -14 -0.48 1.12
1 1 -14 0.88 1.33
-2 1 -14 0.11 1.22
-1 2 14 3.15 1.14
-1 -1 14 1.7 1.1
2 -1 -14 0.28 1.16
1 -2 -14 -0.05 1.06
1 1 -14 -0.62 0.99
-1 2 -14 0.6 1.28
2 -2 -14 6.51 1.48
0 2 -14 5.97 1.49
-2 2 -14 6.11 1.48
0 -2 14 6.93 1.23
2 0 -14 10.38 1.81
0 -2 -14 5.54 1.38
2 0 14 3.79 0.92
-2 0 -14 2.72 1.16
2 -2 14 5.33 1.08
2 0 -14 5.69 1.4
-2 0 14 6.18 1.24
-3 1 14 3.58 1.19
1 2 14 3.22 0.91
-1 3 -14 2.58 1.38
-2 3 14 6.01 1.27
-3 2 -14 1.42 1.28
1 -3 -14 0.31 1.05
3 -2 -14 1.46 1.31
3 -1 14 2.28 0.86
-1 -2 14 3.09 1.16
-3 1 14 5.05 1.17
2 -3 14 2.41 0.96
2 1 -14 2.76 1.34
2 1 -14 0.74 1.16
-2 -1 14 3.55 1.21
3 -1 -14 2.24 1.25
1 2 -14 -0.41 1.02
-3 2 14 0.41 0.79
3 -2 14 1.92 0.9
2 -3 -14 2.47 1.21
-1 -2 -14 -0.38 0.97
-2 3 -14 2.56 1.34
-2 -1 14 5.4 1.06
1 -3 14 4.69 1.15
1 2 -14 2.14 1.3
-3 2 14 4.65 1.19
0 -3 14 0.44 1.01
0 3 14 2.86 1.05
-3 0 14 0.11 0.99
0 -3 -14 -0.1 0.93
3 -3 -14 0.57 1.25
3 -3 14 0.51 0.95
0 3 -14 0.86 1.35
3 0 14 -0.44 0.57
3 0 -14 1.13 1.31
-3 0 14 1.91 1
3 0 -14 0.25 1.29
-3 3 14 1.53 1.08
-3 3 -14 0.14 1.13
2 2 -14 -0.67 1.12
-4 2 14 1.01 0.96
2 2 -14 0.69 1.38
-4 2 -14 -1.4 0.8
-4 2 14 2.33 1.1
4 -2 -14 -0.52 1.22
-2 -2 14 1.44 1.17
2 -4 14 0.67 0.93
-2 4 14 2.01 1.1
-2 4 -14 0.42 1.29
2 -4 -14 0.03 0.97
4 -2 14 -0.05 0.8
4 -1 14 1.01 0.78
3 1 -14 1.07 1.23
4 -3 -14 1.44 1.26
-1 -3 14 2.89 1.2
3 -4 14 3.68 1.03
-3 4 14 2.78 1.07
-1 4 -14 3.02 1.37
-4 1 14 2.61 1.12
1 3 14 3.44 0.94
3 1 -14 1.2 1.37
-4 1 14 4.09 1.2
3 -4 -14 0.54 1.19
-3 -1 14 4.4 1.01
4 -1 -14 3.22 1.38
-4 3 14 4.14 1.14
-1 4 14 3.9 1.2
4 -3 14 3.36 0.98
1 3 -14 1.44 1.29
-3 4 -14 2.09 1.26
-3 -1 14 2.07 1.12
1 3 -14 -0.37 0.97
1 -4 14 2.78 0.98
0 4 -14 0.79 1.36
-4 0 14 -0.41 1.09
4 0 -14 -1.25 1.18
0 -4 14 -0.18 0.97
4 -4 -14 -0.82 1.14
0 4 14 1.4 0.99
4 -4 14 0.49 0.88
4 0 14 -0.63 0.61
-4 4 14 0.96 1.01
4 0 -14 -0.07 1.32
-4 4 -14 -1.45 1.03
-4 0 14 1.94 0.97
3 -5 14 1.64 0.94
3 2 -14 -0.01 1.07
-3 5 14 2.33 1.09
-2 -3 14 0.44 1.03
-2 5 -14 -0.2 1.18
5 -3 -14 -0.14 1.18
-5 2 14 2.17 1.09
-5 2 14 0.58 0.99
5 -2 14 0.56 0.82
3 2 -14 0.18 1.21
2 -5 -14 0.26 0.98
5 -3 14 1.9 0.87
-5 3 14 0.17 0.71
5 -2 -14 0.73 1.24
2 3 -14 0.81 1.28
-5 3 14 3.94 1.11
2 3 -14 -0.83 1.01
-2 5 14 2.72 1.09
2 -5 14 2.72 0.96
-3 -2 14 2.42 1.12
3 -5 -14 0.51 1.05
-3 5 -14 1.16 1.32
-4 5 14 5.75 1.25
-5 1 14 3.98 1.19
4 1 -14 1.77 1.29
4 -5 14 5.58 1.1
5 -4 -14 2.22 1.28
5 -1 14 2.29 0.86
4 1 -14 1.74 1.26
-1 5 -14 1.9 1.31
1 4 14 3.82 0.93
4 -5 -14 0.32 1.22
5 -4 14 2.06 0.87
-4 5 -14 0.14 1.21
-4 -1 14 3.06 0.97
5 -1 -14 2.28 1.39
-4 -1 14 4.25 1.24
1 -5 14 2.92 0.95
-5 4 14 3.01 1.08
-1 5 14 2.92 1.11
1 4 -14 1.19 1.23
0 -5 14 1.42 1.01
5 0 -14 -1.49 1.03
5 -5 14 0.95 0.89
5 0 -14 1.32 1.25
0 5 -14 -0.97 1.21
0 5 14 1.89 0.99
-5 0 14 0.89 0.93
5 -5 -14 -0.48 1.12
-5 5 14 2.48 1.07
-5 0 14 1.41 1.16
3 3 -14 -1.22 0.95
-3 6 14 2.04 1.14
6 -3 14 2.32 0.89
-6 3 14 1.56 0.95
-6 3 14 3.42 1.09
-3 6 -14 0.69 1.24
6 -3 -14 1.06 1.22
-3 -3 14 3.25 1.12
3 -6 14 2.77 0.96
3 3 -14 -0.79 1.05
3 -6 -14 0.07 1
-6 2 14 0.41 1
4 -6 14 -0.14 0.88
6 -2 14 0.46 0.78
4 2 -14 -0.45 1.1
4 2 -14 -0.75 1.81
6 -4 -14 -0.95 1.15
-2 -4 14 0.71 1.05
-2 6 -14 -1.3 1.11
-4 6 14 0.91 1.02
-6 2 14 0.48 1.06
2 4 -14 -0.89 0.96
4 -6 -14 0 0.99
2 -6 14 0.95 0.89
-2 6 14 1.51 0.99
2 4 -14 -0.34 1.62
6 -4 14 1.25 0.87
-4 6 -14 -1.38 1.2
-4 -2 14 1.1 1.11
-6 4 14 1.06 1.02
6 -2 -14 0.15 1.27
-5 6 14 1.15 1.09
5 1 -14 -1.33 1.04
5 -6 14 1.98 0.93
1 5 14 -0.65 0.77
-6 1 14 0.98 1.15
-6 1 14 1.84 1.03
-1 -5 14 0.77 1
6 -5 -14 -0.08 1.15
-5 -1 14 1.13 0.9
1 5 -14 -1.53 1.16
-5 -1 14 1.27 1.14
1 -6 14 1.49 0.96
-6 5 14 1.41 1.04
-1 6 14 1.4 1.05
6 -1 -14 -0.44 1.16
5 -6 -14 -0.15 1.15
6 -5 14 1.12 0.86
-6 0 14 1.22 0.95
6 -6 -14 -0.36 1.12
-6 0 14 1.04 1.13
6 0 -14 -1.01 1.14
-6 6 14 1.47 1.08
0 -6 14 0.3 0.91
0 6 14 -0.73 0.68
6 -6 14 1.6 0.89
-7 3 14 6.25 1.27
-4 7 14 6.37 1.29
-7 3 14 6.75 1.24
-3 -4 14 6.51 1.2
4 -7 14 8.5 1.22
-3 7 14 3.76 1.14
-7 4 14 7.22 1.27
3 -7 14 6.48 1.16
7 -4 14 4.5 1.04
-4 -3 14 6.94 1.28
-7 2 14 1.23 1.11
7 -5 -14 -0.58 1.1
5 2 -14 -0.93 0.97
-5 7 14 1.13 1.12
-2 -5 14 2.24 1.04
5 -7 14 2.17 0.95
-7 2 14 1.47 1.05
-5 -2 14 0.45 1.05
-7 5 14 -0.03 0.95
-2 7 14 1.16 0.95
7 -2 -14 -0.6 1.04
7 -5 14 1.26 0.88
5 -7 -14 0.22 1.02
2 -7 14 -0.17 0.83
-7 1 14 7.42 1.44
-6 7 14 8.26 1.42
6 -7 14 6.83 1.07
-7 1 14 5.58 1.23
-1 -6 14 8.41 1.27
7 -6 14 8.51 1.21
-6 -1 14 9.17 1.43
1 -7 14 7.26 1.16
-7 6 14 7.5 1.32
0 -7 14 7.81 1.21
-7 7 14 6.29 1.3
-7 0 14 7.15 1.39
-7 0 14 6.21 1.16
7 -7 14 8.61 1.24
-4 8 14 0.2 0.97
-4 -4 14 -0.23 0.92
-8 4 14 0.49 0.78
-8 4 14 -0.45 0.9
4 -8 14 0.93 0.89
-8 3 14 0.94 1.01
-8 3 14 1.07 0.94
-5 8 14 1.25 1.17
-3 -5 14 1.68 0.94
5 -8 14 1.68 0.9
-5 -3 14 0.68 0.98
3 -8 14 0.43 0.85
-8 5 14 0.26 0.96
-3 8 14 0.65 0.98
5 -8 -14 0.3 0.59
-6 8 14 3.13 1.19
6 -8 14 3.51 0.87
-2 -6 14 4.8 1.13
-8 2 14 2.98 1.08
-8 2 14 3.08 1.12
-8 6 14 4.47 1.13
2 -8 14 4.88 1
-2 8 14 3.45 0.98
-6 -2 14 4.42 1.18
-7 8 14 0.84 1.08
7 -8 14 2.11 0.95
-8 1 14 0.53 1.13
8 -7 -14 -0.21 0.57
-8 1 14 0.99 0.95
-1 -7 14 1.72 0.93
7 -8 14 0.13 0.67
7 -8 -14 0.34 0.73
-8 7 14 2.18 1.08
8 -7 14 -0.15 0.67
8 -7 14 1.88 0.9
1 -8 14 1.71 0.88
-7 -1 14 2.1 1.13
0 -8 14 2.76 0.9
-8 8 14 5.27 1.24
-8 0 14 2.75 0.92
8 -8 14 2.92 0.86
8 -8 -14 2.75 0.85
8 -8 14 4.7 0.97
-8 0 14 1.84 1.12
-9 4 14 -0.16 0.88
-5 9 14 0.53 1.05
5 -9 14 0.72 0.79
4 -9 -14 -0.26 0.62
-4 -5 14 -0.5 0.87
-9 4 14 0.77 0.88
4 -9 14 1.09 0.87
-5 -4 14 -0.25 0.91
5 -9 -14 -0.24 0.7
-9 5 14 0.16 0.89
-4 9 14 0.55 0.96
-3 -6 14 0.61 0.91
-6 9 14 0.72 1.16
6 -9 14 -0.08 0.68
6 -9 14 1.63 0.87
3 -9 -14 0.35 0.51
-9 3 14 1.62 0.97
-9 3 14 0.62 0.99
-3 9 14 0.11 0.91
-6 -3 14 -0.01 0.94
6 -9 -14 -0.6 0.74
-9 6 14 0.06 0.94
9 -6 14 0.1 0.6
3 -9 14 0.66 0.87
-7 9 14 0.93 1.15
-9 2 14 0.54 1.02
7 -9 14 1.06 0.84
-2 -7 14 1.14 0.93
9 -7 -14 -0.18 0.56
-9 2 14 1.25 0.94
7 -9 14 1.83 0.9
2 -9 14 3.2 0.94
7 -9 -14 -0.15 0.78
-7 -2 14 0.92 1
-9 7 14 2.05 1.03
9 -7 14 1.06 0.8
8 -9 14 1.79 0.87
-8 9 14 0.14 1.03
-9 1 14 1.12 1.09
8 -9 14 1.98 0.91
-9 8 -14 2.61 0.95
-1 -8 14 3.66 1
9 -8 -14 1.66 0.77
-9 1 14 1.47 0.9
-8 -1 14 2.75 1.1
-9 8 14 2.58 1.07
9 -8 14 2.33 0.91
8 -9 -14 1.76 0.85
1 -9 14 3.38 0.95
9 -9 -14 0.91 0.79
-9 9 14 1.36 1.06
9 -9 14 1.14 0.89
-9 9 -14 1.25 0.87
-9 0 14 -0.21 1.03
0 -9 14 1.31 0.85
-10 5 14 -0.42 0.88
-5 -5 14 0.5 0.88
5 -10 14 -0.21 0.62
5 -10 -14 -0.1 0.74
-5 10 14 -0.34 0.97
10 -5 14 -0.01 0.52
5 -10 14 0.84 0.82
-4 -6 14 0.92 0.86
-10 6 -14 0.06 0.71
-10 4 14 0.14 0.86
6 -10 14 0.39 0.75
4 -10 -14 -0.07 0.69
-6 10 14 0.38 1.09
-10 4 14 1.11 0.89
10 -6 -14 -0.09 0.65
6 -10 14 1.36 0.87
6 -10 -14 -0.05 0.78
-10 6 14 1.2 0.92
10 -6 14 0.52 0.72
-4 10 14 0.7 0.92
-6 -4 14 1.38 0.92
4 -10 14 0.56 0.82
7 -10 14 2.26 0.93
10 -7 -14 1.17 0.69
-10 7 -14 2.27 0.92
-10 3 14 2.82 1
-3 -7 14 4.4 1.04
-10 3 14 1.33 0.93
-7 10 14 3.04 1.24
7 -10 14 4.37 1.01
7 -10 -14 2.19 0.86
3 -10 14 4.58 0.98
-7 -3 14 3.53 1.03
-10 7 14 3.6 1.06
10 -7 14 2.55 0.87
-2 -8 14 0.15 0.85
-10 8 -14 0.4 0.85
-8 10 14 0.22 1.08
8 -10 14 0.16 0.88
-10 2 14 0.35 0.87
8 -10 14 1.05 0.87
-10 2 14 0.16 0.96
10 -8 -14 0.18 0.74
2 -10 14 1.83 0.87
10 -8 14 1.44 0.89
-10 8 14 0 0.92
-8 -2 14 0.4 0.96
-8 10 -14 1.03 0.9
8 -10 -14 0.39 0.79
-9 10 14 1.04 1
9 -10 14 1.66 0.87
-10 1 14 1.56 0.96
10 -9 -14 1.47 0.74
-1 -9 14 2.45 0.9
-10 9 -14 1.52 0.89
1 -10 14 2.52 0.89
-9 -1 14 1.16 0.96
-10 9 14 1.19 0.94
10 -9 14 1.09 0.87
9 -10 -14 1.37 0.81
-9 10 -14 1.61 0.9
10 -10 14 2.07 0.85
-10 0 14 1.66 0.91
-10 10 14 2.14 0.95
-10 10 -14 0.58 0.81
10 -10 -14 1.47 0.75
0 -10 14 1.49 0.82
11 -6 -14 -0.19 0.57
-5 11 -14 2.19 0.97
5 -11 -14 0.8 0.74
11 -5 14 0.54 0.59
-6 11 14 0.82 1.03
-5 -6 14 2.01 0.86
6 -11 14 1.18 0.8
-11 5 14 0.56 0.62
6 -11 14 2.59 0.89
-11 5 14 0.43 0.85
-6 11 -14 1.65 0.92
5 -11 14 2.24 0.88
-11 6 14 1.27 0.85
-6 -5 14 2.35 0.9
11 -6 14 1.37 0.69
6 -11 -14 1.6 0.78
5 -11 14 1.22 0.7
-5 11 14 1.14 0.91
-4 11 -14 0.72 0.92
11 -7 -14 -0.41 0.63
-4 -7 14 0.78 0.89
-11 4 14 0.78 0.84
4 -11 -14 -0.31 0.66
7 -11 14 -0.01 0.82
-11 4 14 0.1 0.89
-11 7 -14 1.54 0.5
7 -11 14 0.23 0.82
-7 11 14 -1.22 1.03
11 -7 14 1.22 0.8
7 -11 -14 0.05 0.73
-7 11 -14 0.44 0.86
4 -11 14 1.37 0.81
-11 7 14 1.06 0.88
4 -11 14 -0.14 0.7
-7 -4 14 0.82 0.88
8 -11 14 3.12 0.92
-11 3 14 2.38 0.89
11 -8 -14 2.16 0.76
-3 -8 14 3.24 0.95
-11 8 -14 1.1 0.81
-11 3 14 3.16 0.96
-8 11 14 0.8 1.06
-3 11 -14 3.17 1
-8 -3 14 3.42 1
11 -8 14 2.82 0.85
-11 8 14 2.25 0.99
3 -11 14 3.8 0.93
-8 11 -14 2.83 0.93
8 -11 -14 2.29 0.8
-9 11 14 2.14 1.03
-2 -9 14 2.6 0.87
11 -9 -14 1.75 0.77
9 -11 14 3.26 0.91
-11 2 14 1.43 0.92
-11 9 -14 1.18 0.83
-2 11 -14 1.47 0.86
11 -9 14 0.7 0.83
9 -11 -14 1.53 0.77
-9 -2 14 1.32 0.9
2 -11 14 1.28 0.83
-9 11 -14 0.88 0.84
-11 9 14 1.75 0.9
-11 10 -14 -0.8 0.72
11 -10 -14 0.6 0.67
-1 -10 14 -0.36 0.77
-1 11 -14 -0.05 0.73
-11 1 14 -0.41 0.82
10 -11 14 0.49 0.74
-10 11 14 -0.22 0.88
1 -11 14 0.66 0.84
10 -11 -14 0.81 0.72
-11 10 14 -0.06 0.86
-10 11 -14 -0.17 0.74
11 -10 14 -0.01 0.75
-10 -1 14 0.58 0.91
-11 0 14 -1.07 0.76
11 -11 14 0.1 0.83
0 -11 14 0.02 0.76
-11 11 -14 -0.08 0.76
11 -11 -14 -0.09 0.6
-11 11 14 -1.21 0.77
6 -12 -14 0.49 0.68
12 -6 14 0.92 0.7
-6 -6 14 0.7 0.78
12 -6 -14 -0.15 0.64
6 -12 14 0.58 0.85
-6 12 14 0.54 0.85
-6 12 -14 0.66 0.87
-12 6 14 0.43 0.8
6 -12 14 0.88 0.73
-5 12 -14 2.4 0.92
12 -7 -14 1.01 0.64
7 -12 14 1.51 0.8
5 -12 -14 1.54 0.73
-12 5 14 2.81 0.91
-7 12 14 2.1 0.98
7 -12 14 2.31 0.88
-12 5 14 0.64 0.6
12 -5 14 1.94 0.65
-5 -7 14 1.98 0.86
5 -12 14 3.59 0.93
-12 7 14 1.76 0.82
7 -12 -14 3.11 0.78
5 -12 14 2.85 0.75
-7 -5 14 3.14 0.92
12 -7 14 2.25 0.76
-7 12 -14 3.92 1
8 -12 14 4.34 0.91
12 -8 -14 2.41 0.75
-4 -8 14 3.84 0.93
-12 4 14 3.43 0.87
-8 12 14 4.04 1.15
-4 12 -14 2.02 0.93
4 -12 -14 1.71 0.67
-12 4 14 4.25 0.87
-8 12 -14 1.82 0.83
4 -12 14 2.54 0.86
12 -8 14 1.79 0.77
8 -12 -14 2.45 0.74
-8 -4 14 2.62 0.91
-12 8 14 1.84 0.82
-3 -9 14 0.22 0.82
-12 9 -14 0.07 0.68
-3 12 -14 0.63 0.73
-9 12 14 -0.33 0.93
12 -9 -14 -0.21 0.65
-12 3 14 0.9 0.73
9 -12 14 0.17 0.77
12 -9 14 1.05 0.73
-9 12 -14 -0.01 0.77
-9 -3 14 -0.21 0.83
9 -12 -14 0.11 0.69
3 -12 14 0.23 0.76
-12 9 14 0.04 0.79
-2 12 -14 2.03 0.7
12 -10 -14 1.81 0.69
-12 2 14 1.57 0.82
-2 -10 14 2.31 0.82
10 -12 14 3.01 0.86
-10 12 14 1.74 0.97
-12 10 -14 1.77 0.83
-10 12 -14 0.36 0.71
2 -12 14 1.05 0.76
-12 10 14 0.85 0.82
-10 -2 14 1.23 0.82
12 -10 14 1.03 0.77
10 -12 -14 0.57 0.69
-12 1 14 2.01 0.82
-12 11 -14 2.12 0.82
-1 -11 14 1.92 0.77
-11 12 14 2.54 0.87
11 -12 14 2.65 0.88
12 -11 -14 2.05 0.7
12 -11 14 0.6 0.83
1 -12 14 0.6 0.63
11 -12 -14 0.95 0.63
-12 11 14 0.43 0.81
-11 12 -14 0.45 0.78
-11 -1 14 0.23 0.86
12 -12 -14 -0.36 0.57
-12 12 -14 0.34 0.72
-12 0 14 -0.11 0.77
12 -12 14 0.24 0.77
-12 12 14 0.23 0.76
-7 13 14 0.71 0.71
13 -7 -14 0.34 0.5
-6 -7 14 1.82 0.81
-6 13 -14 1.23 0.83
13 -6 14 1.15 0.64
-13 6 14 0.67 0.77
6 -13 -14 1.5 0.65
7 -13 14 1.02 0.74
13 -7 14 0.87 0.7
6 -13 14 1.07 0.79
-7 13 -14 -0.18 0.78
-7 -6 14 0.53 0.74
-13 7 14 0.75 0.72
6 -13 14 0.58 0.65
7 -13 -14 0.86 0.66
5 -13 -14 -0.2 0.62
13 -8 -14 -0.34 0.59
-5 -8 14 0.42 0.77
-13 5 14 -0.19 0.61
-8 13 14 -0.24 0.81
-13 5 14 0.67 0.66
8 -13 14 0.6 0.72
-5 13 -14 -0.02 0.76
5 -13 14 -0.2 0.74
13 -8 14 0.69 0.67
8 -13 -14 0.3 0.63
-8 -5 14 -0.27 0.76
5 -13 14 0.48 0.58
-13 8 14 0.65 0.71
-8 13 -14 -0.5 0.72
-13 4 14 9.02 1.23
-9 13 14 9.76 1.54
4 -13 -14 6.81 1.07
9 -13 14 10.91 1.41
-4 -9 14 9.48 1.4
13 -9 -14 8.33 1.16
-4 13 -14 7.5 1.26
4 -13 14 7.1 0.97
-9 13 -14 8.65 1.13
13 -9 14 8.97 1.26
9 -13 -14 6.06 0.9
-9 -4 14 6.74 1.04
-13 9 14 5.97 0.95
3 -13 -14 1.32 0.59
-3 -10 14 1.78 0.75
-13 3 14 2.59 0.8
-10 13 14 2.13 0.9
-3 13 -14 2.14 0.55
13 -10 -14 1.69 0.64
10 -13 14 2.73 0.83
-13 10 14 1.47 0.77
3 -13 14 -0.65 0.54
-10 -3 14 1.1 0.8
-10 13 -14 0.72 0.76
10 -13 -14 1.4 0.67
13 -10 14 0.74 0.75
13 -11 -14 -0.37 0.55
-11 13 14 -0.07 0.77
-13 2 14 0.75 0.72
-13 11 -14 -0.8 0.44
11 -13 14 0.36 0.76
-2 -11 14 -0.21 0.45
-13 11 14 -0.27 0.7
-11 13 -14 0.63 0.77
-11 -2 14 0.41 0.75
13 -11 14 0.29 0.75
11 -13 -14 0.23 0.62
-13 12 -14 1.25 0.66
12 -13 14 2.25 0.8
-13 1 14 2.02 0.81
-12 13 14 3.18 0.87
13 -12 -14 1.95 0.64
13 -12 14 1.48 0.76
-12 -1 14 1.51 0.82
12 -13 -14 2.05 0.62
-13 12 14 0.97 0.76
-12 13 -14 1.08 0.72
13 -13 -14 0.47 0.61
-13 13 -14 0.23 0.59
-13 0 14 0.44 0.76
-13 13 14 0.07 0.73
13 -13 14 0.15 0.78
-7 14 -14 0.29 0.86
7 -14 -14 -0.19 0.6
14 -7 -14 -0.2 0.65
-14 7 14 -0.12 0.45
-7 -7 14 0.51 0.71
7 -14 14 0.97 0.68
14 -8 -14 1.92 0.54
-6 -8 14 2.68 0.81
8 -14 14 3.74 0.85
-6 14 -14 2.32 0.85
6 -14 -14 2.29 0.65
14 -8 14 1.94 0.71
-8 14 -14 3.75 0.93
6 -14 14 2.26 0.65
8 -14 -14 1.86 0.67
-8 -6 14 3.24 0.8
-14 8 14 3.35 0.74
-5 -9 14 3.42 0.79
14 -9 -14 2.78 0.64
9 -14 14 4.52 0.87
-9 14 14 3.6 0.82
5 -14 -14 3.38 0.73
-5 14 -14 3.64 0.85
-14 9 14 3.24 0.77
-9 -5 14 3.5 0.79
9 -14 -14 3.11 0.72
-9 14 -14 3.25 0.88
14 -9 14 3.94 0.86
4 -14 -14 2.01 0.6
-14 4 14 2.49 0.64
14 -10 -14 3.11 0.63
10 -14 14 2.02 0.75
-10 14 14 2.28 0.84
-10 -4 14 3.52 0.88
-14 10 14 3.87 0.86
10 -14 -14 3.24 0.75
-10 14 -14 5.32 0.93
14 -10 14 2.88 0.8
14 -11 -14 1.63 0.62
-11 14 14 2.16 0.84
3 -14 -14 1.03 0.47
11 -14 14 1.31 0.7
-14 3 14 1.79 0.74
11 -14 -14 0.82 0.64
-11 14 -14 0.82 0.79
-11 -3 14 1.08 0.79
14 -11 14 1.34 0.74
-14 11 14 0.85 0.7
-12 14 14 4.26 0.9
12 -14 14 3.46 0.89
-14 2 14 3.36 0.84
14 -12 -14 2.76 0.67
14 -12 14 1.78 0.78
-12 -2 14 1.5 0.81
-12 14 -14 1.67 0.74
12 -14 -14 1.33 0.63
-14 12 14 1.7 0.77
7 -15 -14 1.66 0.66
-7 -8 14 1.65 0.62
8 -15 14 1.59 0.75
-7 15 -14 2.08 0.81
-8 -7 14 2.05 0.76
7 -15 14 2.11 0.64
-8 15 -14 2.49 0.84
8 -15 -14 2.37 0.62
15 -9 -14 -0.01 0.37
6 -15 -14 0.88 0.61
9 -15 14 0.45 0.76
-6 15 -14 -0.42 0.53
-9 -6 14 1.03 0.68
9 -15 -14 1 0.66
15 -9 14 1.34 0.74
6 -15 14 0.19 0.44
-9 15 -14 1.43 0.79
-15 9 14 0.09 0.46
15 -10 -14 3.98 0.59
5 -15 -14 3.84 0.74
10 -15 14 3.62 0.8
-10 15 -14 4.91 0.88
10 -15 -14 4.4 0.8
15 -10 14 5.24 0.92
-15 10 14 4.36 0.74
-10 -5 14 4.1 0.85
0 0 15 0.21 0.87
1 0 15 5.49 1.03
0 -1 15 4.94 1.07
-1 1 15 5.27 0.99
-1 0 15 6.56 1.18
1 -1 15 6.77 1.14
1 -2 15 3.38 1.02
-2 1 15 2.01 0.95
1 1 -15 -0.74 1.21
2 -1 15 2.08 0.88
-1 -1 15 2.86 1.02
2 0 -15 -0.59 1.52
2 0 15 0.76 0.7
2 -2 15 0.91 0.88
-2 2 15 2.26 0.89
-2 0 15 0.71 0.96
0 -2 15 1.8 1.02
-2 3 15 0.98 0.94
2 -3 15 0.98 0.97
3 -1 15 0.38 0.75
-1 -2 15 -0.03 0.94
-3 1 15 0.35 0.78
-3 1 15 -0.15 0.98
3 -2 15 0.59 0.8
1 -3 15 0.18 0.86
-3 2 15 0.32 0.67
-1 3 15 1.51 0.92
-2 -1 15 -0.02 1.02
-3 2 15 2.14 0.94
3 0 15 -0.57 0.57
3 -3 15 0.57 0.87
-3 3 15 1.89 1.02
-3 0 15 0.43 1.04
0 -3 15 0.51 0.96
-4 2 15 0.82 0.88
4 -2 15 0.15 0.8
2 -4 15 0.27 0.92
-2 4 15 3.07 1.09
-4 2 15 -0.01 0.86
-2 -2 15 -0.57 1.02
-3 4 15 11.36 1.84
4 -1 15 5.73 1.05
3 -4 15 8.59 1.2
-4 1 15 6.69 1.33
-4 1 15 9.62 1.44
-1 -3 15 9.85 1.35
-3 -1 15 12.9 1.64
1 -4 15 10.19 1.65
-4 3 15 11.7 1.74
4 -3 15 10.71 1.6
-1 4 15 10.96 1.63
-4 4 15 4.99 1.16
-4 0 15 4.09 1.2
4 -4 15 3.62 0.95
0 -4 15 5.34 1.08
-3 5 15 7.55 1.32
3 -5 15 6.31 1.09
-5 2 15 4.13 1.17
5 -2 15 4.26 0.96
-2 -3 15 4.95 1.18
-5 2 15 6.87 1.18
-5 3 15 4.71 1.14
-2 5 15 4.18 1.14
5 -3 15 3.82 0.95
-3 -2 15 4.05 1.2
2 -5 15 4.87 1.07
-1 -4 15 4.15 1.04
-5 1 15 2.76 0.91
-4 5 15 3.63 1.17
4 -5 15 4.42 0.95
-5 1 15 2.42 1.15
1 -5 15 4.36 0.99
5 -4 15 3.69 0.95
-1 5 15 2.76 0.97
-4 -1 15 3.57 1.23
-5 4 15 4.93 1.17
-5 5 15 7.45 1.3
5 -5 15 6.29 1.09
-5 0 15 7.47 1.34
0 -5 15 6.93 1.13
-3 6 15 0.82 1.11
-3 -3 15 -0.26 0.98
6 -3 15 0.36 0.8
-6 3 15 0.65 0.94
-6 3 15 0.37 0.74
3 -6 15 0.51 0.84
4 -6 15 16.04 1.81
-6 2 15 13.89 2.05
-2 -4 15 17.36 2.04
-6 2 15 15.89 1.85
-4 6 15 17.22 2.07
-6 4 15 14.46 1.99
2 -6 15 16.69 1.94
6 -4 15 16.57 1.81
-4 -2 15 14.87 2.14
-2 6 15 13.19 1.92
-6 1 15 7.75 1.17
-5 6 15 6.6 1.28
5 -6 15 7.73 1.13
-1 -5 15 8.08 1.2
-6 1 15 4.35 1.2
1 -6 15 8.24 1.16
-6 5 15 10.14 1.44
-5 -1 15 6.91 1.39
6 -5 15 8.48 1.21
-6 6 15 0.95 0.94
0 -6 15 1.56 0.87
6 -6 15 1.29 0.85
-6 0 15 -0.08 1
4 -7 15 12.62 1.6
-7 3 15 10.76 1.74
-4 7 15 12.88 2.04
-3 -4 15 11.55 1.86
-7 4 15 10.23 1.4
-4 -3 15 12.2 1.92
-3 7 15 9.77 1.44
3 -7 15 11.44 1.63
-2 -5 15 1.8 0.93
-7 2 15 1.36 0.95
-5 7 15 2.07 1.04
5 -7 15 2.19 0.86
-7 2 15 1.66 0.91
-5 -2 15 4.48 1.19
2 -7 15 3.92 0.99
-7 5 15 3.65 1.08
-2 7 15 3.71 1.07
6 -7 15 20.56 1.95
-7 1 15 17.85 1.85
-1 -6 15 21.62 2.05
-6 7 15 20.27 2.1
-7 1 15 18.3 2.13
-7 6 15 22.42 2.27
1 -7 15 23.48 2.19
7 -6 15 24.05 2.15
-6 -1 15 26.39 2.42
0 -7 15 4.7 0.97
7 -7 15 3.43 0.9
-7 0 15 3.98 1.08
-7 7 15 3.16 1.02
-8 4 15 -0.03 0.91
-4 -4 15 0.03 0.89
4 -8 15 1.13 0.75
-4 8 15 -0.04 1.02
-8 3 15 9.8 1.64
-8 3 15 10.21 1.58
-5 8 15 11.01 1.76
-3 -5 15 12.44 1.73
5 -8 15 10.95 1.47
-8 5 15 12.11 1.72
3 -8 15 12.5 1.69
-5 -3 15 15.94 1.91
-3 8 15 11.2 1.78
-2 -6 15 9.96 1.5
-8 2 15 9.16 1.18
-8 2 15 5 1.1
-6 8 15 6.18 1.22
-8 6 15 8.3 1.23
-6 -2 15 8.27 1.25
-1 -7 15 8.49 1.12
-7 8 15 4.83 1.1
7 -8 15 6.76 1.02
-8 1 15 5.81 1.19
-7 -1 15 6.89 1.22
-8 7 15 7.71 1.22
1 -8 15 8.97 1.17
-8 0 15 9.81 1.32
0 -8 15 11 1.45
-8 8 -15 8.66 1.47
-8 8 15 11.66 1.41
-9 4 15 7.08 1.19
-5 9 15 5.46 1.16
5 -9 15 8.3 1.11
-4 -5 15 11.03 1.29
-4 9 15 6.95 1.26
4 -9 15 8.71 1.34
-9 5 15 6.28 1.11
-9 6 -15 0.67 0.77
-3 -6 15 0.42 0.84
-9 3 15 -0.79 0.79
-9 3 15 0.57 0.8
6 -9 15 0.53 0.8
-6 9 15 -0.32 0.98
3 -9 15 0.01 0.77
-9 6 15 -0.3 0.81
-6 -3 15 -0.24 0.85
-3 9 15 -0.68 0.91
7 -9 15 13.97 1.55
-9 2 15 8.81 1.38
-9 2 15 8.44 1.24
-7 9 15 11.05 1.66
-2 -7 15 12.87 1.54
-9 7 -15 9.84 1.44
-7 -2 15 11.76 1.71
2 -9 15 14.27 1.63
-9 7 15 10.93 1.59
-7 9 -15 13.46 1.59
-1 -8 15 4.41 0.91
-9 1 15 6.77 1.14
-8 9 15 5.81 1.07
-9 8 -15 3.2 0.89
1 -9 15 7.28 1.07
-9 8 15 7.03 1.15
-8 -1 15 8.09 1.23
-9 9 15 -0.33 0.77
-9 0 15 -0.18 0.83
-9 9 -15 0.12 0.74
0 -9 15 1.31 0.79
5 -10 15 -0.11 0.71
-10 5 15 -0.06 0.85
-5 10 15 -0.3 0.89
-5 -5 15 -0.29 0.81
-5 10 -15 0.59 0.83
-6 10 15 -0.5 0.82
6 -10 15 1.06 0.77
-4 10 -15 -0.01 0.86
-10 4 15 0.1 0.82
-4 -6 15 0.96 0.84
-6 10 -15 0.84 0.82
-10 6 15 0.45 0.84
-6 -4 15 0.82 0.86
4 -10 15 0.71 0.69
-10 3 15 -0.58 0.71
-7 10 15 0.03 0.87
-10 3 15 0.41 0.73
-3 -7 15 0.56 0.77
-10 7 -15 0.76 0.61
3 -10 15 1.52 0.73
-7 10 -15 0.96 0.82
-10 7 15 1.68 0.83
-7 -3 15 1.95 0.85
-2 -8 15 0.28 0.72
-8 10 15 -1.36 0.81
-10 8 -15 -0.26 0.69
-10 2 15 0.06 0.72
2 -10 15 0.43 0.7
-8 10 -15 -0.05 0.7
8 -10 -15 -0.05 0.72
-10 8 15 -0.29 0.72
-8 -2 15 -0.34 0.76
-1 -9 15 3.82 0.81
-9 10 15 2.39 0.88
-1 10 -15 1.6 0.8
-10 1 15 2.07 0.87
-10 9 -15 2.29 0.78
-9 -1 15 2.54 0.89
-9 10 -15 2.58 0.8
1 -10 15 4.73 0.83
-10 9 15 3.3 0.89
-10 0 15 5.79 1.01
0 -10 15 6.03 0.92
-10 10 15 5.43 1
-10 10 -15 4.15 0.87
6 -11 15 0.54 0.74
-6 11 15 0.52 0.82
-11 5 15 -0.25 0.76
-5 -6 15 0.73 0.76
-5 11 -15 0.17 0.82
5 -11 15 0.63 0.77
-11 6 15 0.06 0.81
-6 11 -15 -0.14 0.78
-6 -5 15 0.74 0.81
-11 4 15 -0.33 0.7
-7 11 15 -0.2 0.86
-4 -7 15 0.09 0.74
-4 11 -15 0.96 0.84
-7 -4 15 0.15 0.79
7 -11 -15 -0.12 0.45
-11 7 15 -0.78 0.68
-7 11 -15 0.04 0.78
4 -11 15 1.03 0.73
-8 11 15 -0.63 0.84
-11 3 15 0.27 0.68
-3 -8 15 -0.07 0.7
-3 11 -15 -0.21 0.82
-11 8 15 0.29 0.66
-8 11 -15 0.1 0.69
3 -11 15 0.39 0.71
8 -11 -15 0.1 0.47
-8 -3 15 0.32 0.76
-11 2 15 1.73 0.79
-9 11 15 0.79 0.8
-11 9 -15 1.19 0.62
-2 11 -15 1.15 0.73
-2 -9 15 1.74 0.7
-11 9 15 0.49 0.7
-9 11 -15 0.48 0.69
9 -11 -15 -0.03 0.37
2 -11 15 1.37 0.67
-9 -2 15 1.31 0.77
-1 -10 15 1.72 0.75
-11 10 -15 1 0.68
-10 11 15 0.85 0.78
-11 1 15 1.69 0.8
-10 11 -15 1.22 0.76
10 -11 -15 -0.08 0.42
-10 -1 15 1.55 0.85
-11 10 15 0.15 0.7
1 -11 15 1.31 0.66
-11 0 15 0.49 0.8
0 -11 15 0.37 0.54
-11 11 15 0.02 0.71
-11 11 -15 0.82 0.72
-6 -6 15 0.92 0.77
6 -12 -15 0.03 0.61
-6 12 -15 1.09 0.8
-12 6 15 0.39 0.74
-12 5 15 -0.19 0.57
-7 12 15 0.06 0.58
-5 -7 15 0.65 0.73
-5 12 -15 -0.14 0.77
-12 7 15 -0.08 0.76
-7 12 -15 -0.09 0.76
-7 -5 15 0.48 0.79
5 -12 15 0.23 0.7
7 -12 -15 0.06 0.41
-4 -8 15 0.14 0.7
-8 12 15 -0.1 0.8
-4 12 -15 0.25 0.84
4 -12 15 -0.25 0.68
-8 -4 15 -0.14 0.71
-8 12 -15 0.2 0.71
-12 8 15 -0.32 0.67
8 -12 -15 -0.04 0.41
-3 -9 15 0.12 0.65
-3 12 -15 1.73 0.65
-9 12 15 -0.36 0.79
-12 3 15 0.47 0.5
-9 12 -15 0.18 0.75
3 -12 15 0.27 0.61
9 -12 -15 0.08 0.41
-12 9 15 -0.1 0.68
-9 -3 15 0.37 0.76
-2 -10 15 0.82 0.62
-10 12 15 0.19 0.73
-12 2 15 0.83 0.71
10 -12 -15 -0.12 0.49
-10 12 -15 1.18 0.78
-10 -2 15 0.98 0.77
-12 10 15 0.77 0.7
-12 1 15 2.79 0.89
-11 12 15 1.54 0.77
-11 12 -15 2.01 0.77
-11 -1 15 2.12 0.84
-12 11 15 1.8 0.77
-6 13 -15 0.24 0.82
-6 -7 15 0.6 0.75
-7 -6 15 -0.51 0.8
-7 13 -15 0.51 0.88
-13 7 15 -0.52 0.53
-5 -8 15 -0.04 0.62
-5 13 -15 0.47 0.79
8 -13 -15 0.06 0.49
-8 -5 15 -0.11 0.79
-13 8 15 -0.23 0.71
-8 13 -15 -0.41 0.9
-4 13 -15 0.53 0.61
-9 13 15 0.15 0.53
-4 -9 15 0.12 0.52
-13 9 15 0.15 0.73
-9 13 -15 -0.26 0.81
9 -13 -15 0 0.5
-9 -4 15 0.04 0.83
0 0 16 0.29 0.77
-1 0 16 0.33 0.84
0 -1 16 0.28 0.86
1 0 16 -0.59 0.58
1 -1 16 0.04 0.8
2 -1 16 -0.82 0.73
1 -2 16 0.25 0.81
-1 -1 16 0.3 0.89
-2 1 16 -0.25 0.65
2 -2 16 1.22 0.81
-2 0 16 0.44 0.83
0 -2 16 0.46 0.93
-3 1 16 1.71 0.82
2 -3 16 2.92 0.91
3 -1 16 1.17 0.75
-1 -2 16 3.67 1.04
-2 -1 16 3.41 0.94
1 -3 16 3.76 0.98
3 -2 16 2.47 0.85
0 -3 16 1.01 0.93
3 -3 16 1.24 0.82
-3 0 16 -0.58 0.86
2 -4 16 1.22 0.85
-2 -2 16 -0.57 0.9
4 -2 16 0.3 0.74
-1 -3 16 11.07 1.65
3 -4 16 11.65 1.5
-4 1 16 8.37 1.26
-3 -1 16 10.07 1.41
1 -4 16 13 1.71
-4 4 16 3.03 0.89
4 -4 16 3.27 0.91
0 -4 16 3.05 0.96
-4 0 16 2.11 0.93
-3 5 16 1.65 0.87
-2 -3 16 1.39 0.93
3 -5 16 1.38 0.78
-3 -2 16 3.67 1.04
2 -5 16 2.57 0.87
-5 3 16 3.37 0.9
-5 1 16 0.4 0.83
-4 5 16 0.33 0.85
4 -5 16 0.53 0.79
-1 -4 16 1.46 0.82
5 -4 16 1.81 0.85
-5 4 16 0.43 0.77
-4 -1 16 0.62 0.95
1 -5 16 2.1 0.86
-5 0 16 2.14 0.93
-5 5 16 2.04 0.92
0 -5 16 2.19 0.88
5 -5 16 3.41 0.89
-3 6 16 2.3 0.93
-3 -3 16 3.56 1.03
-6 3 16 3.43 0.88
3 -6 16 3.75 0.85
4 -6 16 5.13 0.96
-4 6 16 4.21 1.06
-2 -4 16 5.44 1.04
2 -6 16 2.96 0.88
-6 4 16 2.56 0.88
-4 -2 16 3.95 1.04
-1 -5 16 1.16 0.77
-5 6 16 0.17 0.88
-6 1 16 1.09 0.88
5 -6 16 1.6 0.82
-5 -1 16 1.89 1
-6 5 16 0.45 0.86
1 -6 16 2.23 0.84
-6 0 16 0 0.88
0 -6 16 1.47 0.83
-6 6 16 -0.23 0.91
4 -7 16 0.97 0.77
-4 7 16 0.67 0.93
-3 -4 16 1.17 0.83
-4 -3 16 1.09 0.89
-7 4 16 0.32 0.75
3 -7 16 0.6 0.69
-3 7 16 -0.32 0.81
-7 2 16 0.16 0.68
-5 7 16 -0.6 0.92
5 -7 16 1.07 0.78
-2 -5 16 0.09 0.75
-5 -2 16 0.69 0.89
2 -7 16 0.57 0.76
-7 5 16 -0.37 0.77
-6 7 16 0.23 0.95
-1 -6 16 1.59 0.82
-7 1 16 1.26 0.87
1 -7 16 1.19 0.74
-7 6 16 -0.39 0.81
-6 -1 16 0.57 0.92
-7 0 16 0.69 0.93
0 -7 16 1.36 0.79
-7 7 16 -0.22 0.86
-7 7 -16 0.65 0.74
-8 4 16 0.1 0.7
4 -8 16 1.43 0.73
-4 -4 16 1.14 0.82
-4 8 16 0.38 0.84
5 -8 16 0.56 0.74
-5 8 16 -0.21 0.93
-8 5 -16 -0.78 0.45
-3 -5 16 -0.02 0.76
3 -8 16 1.21 0.67
-5 -3 16 1.03 0.86
-8 5 16 0.05 0.74
-8 6 -16 -0.35 0.67
-8 2 16 0.06 0.57
-6 8 16 -1.41 0.93
-2 -6 16 -0.05 0.68
-6 8 -16 0.46 0.75
-6 -2 16 0.16 0.87
2 -8 16 0.74 0.69
-8 6 16 -0.27 0.79
-8 1 16 0.96 0.83
-7 8 16 0 0.92
-1 -7 16 1.68 0.76
-8 7 -16 0.61 0.7
1 -8 16 2.37 0.76
-8 7 16 0.68 0.88
-7 8 -16 2.18 0.78
-7 -1 16 1.84 0.93
-8 8 16 -1.17 0.86
0 -8 16 0.41 0.69
-8 8 -16 0.37 0.66
-8 0 16 -0.54 0.86
-9 4 16 -0.39 0.66
5 -9 16 1.46 0.75
-4 9 -16 0.71 0.81
-4 -5 16 0.94 0.79
-5 9 16 -0.69 0.81
-9 5 16 -1.03 0.68
-5 9 -16 0.59 0.74
-5 -4 16 0.21 0.82
4 -9 16 1.28 0.75
-6 9 16 -0.54 0.94
-3 9 -16 0.88 0.81
-3 -6 16 0.45 0.74
3 -9 16 0.33 0.7
-6 -3 16 -0.01 0.82
-6 9 -16 0.37 0.73
-9 6 16 -0.8 0.78
-2 -7 16 0.61 0.74
-9 2 16 0.05 0.62
-7 9 16 -1.03 0.93
-2 9 -16 0.28 0.79
-9 7 -16 1.12 0.43
-7 9 -16 0.88 0.75
-9 7 16 0.18 0.86
-7 -2 16 0.84 0.92
2 -9 16 1.02 0.68
-8 9 16 -0.63 0.88
-9 8 -16 0.96 0.58
-1 9 -16 -0.7 0.75
-1 -8 16 0.61 0.75
-9 1 16 -0.84 0.73
1 -9 16 0.53 0.71
-8 9 -16 -0.27 0.68
-8 -1 16 -0.07 0.87
-9 8 16 -0.84 0.82
0 -9 16 1.06 0.74
-9 9 16 -0.38 0.85
-9 0 16 0.37 0.85
-9 9 -16 0.29 0.63
5 -10 16 1.66 0.77
-10 5 16 0.14 0.64
-5 -5 16 1.15 0.74
-5 10 -16 1.04 0.82
-4 -6 16 0.75 0.77
-4 10 -16 0 0.78
-6 10 16 -0.22 0.62
-10 6 16 -0.25 0.71
4 -10 16 1.01 0.75
-6 -4 16 0.46 0.83
-6 10 -16 -0.31 0.73
-3 -7 16 -0.44 0.69
-7 10 16 -1.5 0.92
-3 10 -16 0.49 0.82
3 -10 16 0.16 0.76
-7 10 -16 -0.25 0.73
-7 -3 16 -0.75 0.81
-10 7 16 -1.13 0.78
-8 10 16 -0.26 0.92
-2 10 -16 0.81 0.73
-2 -8 16 0.32 0.73
-10 8 16 0.02 0.84
-8 -2 16 1.07 0.88
2 -10 16 1.45 0.74
-8 10 -16 1.01 0.77
0 -1 17 -0.61 0.54
-1 -1 17 -0.37 0.65
1 -2 17 -0.13 0.76
2 -2 17 -0.62 0.61
0 -2 17 -0.6 0.75
2 -3 17 -0.37 0.81
-1 -2 17 -0.46 0.8
-2 -1 17 -0.17 0.71
1 -3 17 0.66 0.85
0 -3 17 0.64 0.82
3 -3 17 0.84 0.76
-2 -2 17 0.39 0.87
2 -4 17 0.61 0.83
3 -4 17 0.55 0.84
-1 -3 17 0.56 0.84
1 -4 17 0.36 0.79
-3 -1 17 -0.18 0.8
-4 0 17 -0.44 0.82
0 -4 17 0.21 0.83
3 -5 17 0.98 0.87
-2 -3 17 1.16 0.92
2 -5 17 0.54 0.82
-3 -2 17 1.08 0.88
4 -5 17 0.19 0.83
-1 -4 17 -0.23 0.85
1 -5 17 0.2 0.74
-4 -1 17 -0.85 0.78
-5 0 17 -0.16 0.79
0 -5 17 0.11 0.75
3 -6 17 0.12 0.84
-3 -3 17 -0.21 0.86
-2 -4 17 2.43 0.92
4 -6 17 1.46 0.82
2 -6 17 1.28 0.81
-4 -2 17 -0.17 0.86
-1 -5 17 1.22 0.85
-6 5 -17 1.11 0.66
-5 -1 17 0.34 0.75
1 -6 17 1.06 0.78
0 -6 17 1.07 0.79
-6 6 -17 0.19 0.69
-3 -4 17 1.03 0.83
4 -7 17 1.62 0.85
-4 -3 17 0.35 0.87
3 -7 17 1.06 0.85
-2 -5 17 1.23 0.85
-5 7 -17 0.55 0.76
2 -7 17 0.83 0.83
-5 -2 17 0.8 0.87
