#------------------------------------------------------------------------------
#$Date: 2019-11-03 12:12:20 +0200 (Sun, 03 Nov 2019) $
#$Revision: 221359 $
#$URL: file:///home/coder/svn-repositories/cod/cif/4/12/82/4128230.cif $
#------------------------------------------------------------------------------
#
# This file is available in the Crystallography Open Database (COD),
# http://www.crystallography.net/
#
# All data on this site have been placed in the public domain by the
# contributors.
#
data_4128230
loop_
_publ_author_name
'Wei, Yong-Sheng'
'Zhang, Mei'
'Kitta, Mitsunori'
'Liu, Zheng'
'Horike, Satoshi'
'Xu, Qiang'
_publ_section_title
;
 A Single-Crystal Open-Capsule Metal-Organic Framework.
;
_journal_issue                   19
_journal_name_full               'Journal of the American Chemical Society'
_journal_page_first              7906
_journal_page_last               7916
_journal_paper_doi               10.1021/jacs.9b02417
_journal_volume                  141
_journal_year                    2019
_chemical_formula_moiety         '0.5(C48 H24 Fe6 N6 O32)'
_chemical_formula_sum            'C24 H12 Fe3 N3 O16'
_chemical_formula_weight         765.92
_space_group_crystal_system      hexagonal
_space_group_IT_number           194
_space_group_name_Hall           '-P 6c 2c'
_space_group_name_H-M_alt        'P 63/m m c'
_symmetry_space_group_name_Hall  '-P 6c 2c'
_symmetry_space_group_name_H-M   'P 63/m m c'
_atom_sites_solution_hydrogens   difmap
_atom_sites_solution_primary     direct
_audit_creation_date             2018-07-08
_audit_creation_method
;
Olex2 1.2
(compiled 2016.09.09 svn.r3337 for OlexSys, GUI svn.r5227)
;
_cell_angle_alpha                90
_cell_angle_beta                 90
_cell_angle_gamma                120
_cell_formula_units_Z            2
_cell_length_a                   12.9009(10)
_cell_length_b                   12.9009(10)
_cell_length_c                   18.2641(10)
_cell_measurement_reflns_used    2931
_cell_measurement_temperature    150(2)
_cell_measurement_theta_max      27.7830
_cell_measurement_theta_min      2.8280
_cell_volume                     2632.5(3)
_computing_molecular_graphics    'Olex2 (Dolomanov et al., 2009)'
_computing_publication_material  'Olex2 (Dolomanov et al., 2009)'
_computing_structure_refinement  'ShelXL (Sheldrick, 2015)'
_computing_structure_solution    'SIR2004 (Burla et al., 2007)'
_diffrn_ambient_temperature      150.15
_diffrn_measured_fraction_theta_full 0.998
_diffrn_measured_fraction_theta_max 0.999
_diffrn_measurement_device_type  'Xcalibur, Atlas, Gemini ultra'
_diffrn_radiation_type           MoK\a
_diffrn_radiation_wavelength     0.71073
_diffrn_reflns_av_R_equivalents  0.0494
_diffrn_reflns_av_unetI/netI     0.0256
_diffrn_reflns_Laue_measured_fraction_full 0.998
_diffrn_reflns_Laue_measured_fraction_max 0.999
_diffrn_reflns_limit_h_max       13
_diffrn_reflns_limit_h_min       -14
_diffrn_reflns_limit_k_max       11
_diffrn_reflns_limit_k_min       -15
_diffrn_reflns_limit_l_max       16
_diffrn_reflns_limit_l_min       -22
_diffrn_reflns_number            12908
_diffrn_reflns_point_group_measured_fraction_full 0.998
_diffrn_reflns_point_group_measured_fraction_max 0.999
_diffrn_reflns_theta_full        26.000
_diffrn_reflns_theta_max         25.958
_diffrn_reflns_theta_min         2.137
_exptl_absorpt_coefficient_mu    0.861
_exptl_absorpt_correction_T_max  1.00000
_exptl_absorpt_correction_T_min  0.15098
_exptl_absorpt_correction_type   multi-scan
_exptl_absorpt_process_details
'CrysAlisPro 1.171.39.43c (Rigaku Oxford Diffraction, 2018)'
_exptl_crystal_colour            'clear red'
_exptl_crystal_colour_lustre     clear
_exptl_crystal_colour_primary    red
_exptl_crystal_density_diffrn    0.966
_exptl_crystal_description       prism
_exptl_crystal_F_000             766
_exptl_crystal_size_max          0.1
_exptl_crystal_size_mid          0.03
_exptl_crystal_size_min          0.01
_refine_diff_density_max         0.502
_refine_diff_density_min         -0.585
_refine_diff_density_rms         0.097
_refine_ls_extinction_method     none
_refine_ls_goodness_of_fit_ref   1.159
_refine_ls_hydrogen_treatment    constr
_refine_ls_matrix_type           full
_refine_ls_number_parameters     51
_refine_ls_number_reflns         1020
_refine_ls_number_restraints     6
_refine_ls_restrained_S_all      1.164
_refine_ls_R_factor_all          0.0833
_refine_ls_R_factor_gt           0.0626
_refine_ls_shift/su_max          0.000
_refine_ls_shift/su_mean         0.000
_refine_ls_structure_factor_coef Fsqd
_refine_ls_weighting_details
;
 w=1/[\s^2^(Fo^2^)+(0.1397P)^2^+0.6348P]
 where P=(Fo^2^+2Fc^2^)/3
;
_refine_ls_weighting_scheme      calc
_refine_ls_wR_factor_gt          0.2096
_refine_ls_wR_factor_ref         0.2274
_reflns_Friedel_coverage         0.000
_reflns_number_gt                735
_reflns_number_total             1020
_reflns_threshold_expression     'I > 2\s(I)'
_iucr_refine_instructions_details
;
TITL wei-1_1_a.res in P6(3)/mmc
REM Old TITL Wei-2_1 in P63/mmc #194
REM SHELXT solution in P6(3)/mmc
REM R1 0.288, Rweak 0.012, Alpha 0.030, Orientation as input
REM Formula found by SHELXT: C24 O16 Fe3
CELL 0.71073 12.9009 12.9009 18.2641 90 90 120
ZERR 2 0.001 0.001 0.001 0 0 0
LATT 1
SYMM -Y,+X-Y,+Z
SYMM +Y-X,-X,+Z
SYMM -X,-Y,0.5+Z
SYMM +Y,-X+Y,0.5+Z
SYMM -Y+X,+X,0.5+Z
SYMM +Y,+X,-Z
SYMM -Y+X,-Y,-Z
SYMM -X,-X+Y,-Z
SYMM -Y,-X,0.5-Z
SYMM +Y-X,+Y,0.5-Z
SYMM +X,+X-Y,0.5-Z
SFAC C H Fe N O
UNIT 48 24 6 6 32
SIMU 0.01 0.02 1.7 N1
ISOR 0.01 0.01 N1
 
L.S. 10 0 14
PLAN  10
TEMP -123
BOND $H
MORE -1
CONF
fmap 2
acta 52
OMIT -3 52
REM <olex2.extras>
REM <HklSrc "%.\\MIL-88B-NH2.hkl">
REM </olex2.extras>
 
WGHT    0.139700    0.634800
FVAR       4.51610
FE1   3    0.752180    0.504361    0.250000    10.25000    0.08101    0.08265 =
         0.02378    0.00000    0.00000    0.04133
O1    5    0.666667    0.333333    0.250000    10.08333    0.07905    0.07905 =
         0.01967    0.00000    0.00000    0.03952
O2    5    0.653072    0.518526    0.329221    11.00000    0.09677    0.09096 =
         0.04901   -0.01048    0.01711    0.04803
O3    5    0.840919    0.681838    0.250000    10.25000    0.10891    0.05911 =
         0.05480    0.00000    0.00000    0.02956
AFIX   3
H3A   2    0.862869    0.725740    0.288000    10.25000   -1.50000
H3B   2    0.862869    0.725740    0.212000    10.25000   -1.50000
AFIX   0
N1    4    0.332111    0.283842    0.441902    10.25000    0.10143    0.09844 =
         0.07172   -0.02413    0.01783    0.04002
AFIX   7
H1A   2    0.309981    0.217292    0.473222    10.25000   -1.20000
H1B   2    0.256741    0.276722    0.434043    10.25000   -1.20000
AFIX   0
C1    1    0.555905    0.444095    0.357864    10.50000    0.10316    0.10316 =
         0.03394   -0.00519    0.00519    0.06277
C2    1    0.526011    0.473989    0.431713    10.50000    0.09544    0.09544 =
         0.03864   -0.00488    0.00488    0.06009
C3    1    0.421140    0.394122    0.465800    11.00000    0.09886    0.11181 =
         0.05026   -0.00868    0.01205    0.06079
HKLF 4
 
REM  wei-1_1_a.res in P6(3)/mmc
REM R1 =  0.0626 for     735 Fo > 4sig(Fo)  and  0.0833 for all    1020 data
REM     51 parameters refined using      6 restraints
 
END  
     
WGHT      0.1397      0.6348 

REM Highest difference peak  0.502,  deepest hole -0.585,  1-sigma level  0.097
Q1    1   0.8144  0.6287  0.2500  10.25000  0.05    0.50
Q2    1   0.6423  0.5383  0.2500  10.50000  0.05    0.31
Q3    1   0.5026  0.4974  0.4191  10.50000  0.05    0.29
Q4    1   0.2723  0.3175  0.4171  11.00000  0.05    0.26
Q5    1   0.5233  0.4767  0.3896  10.50000  0.05    0.25
Q6    1   0.4513  0.3850  0.4533  11.00000  0.05    0.25
Q7    1   0.4364  0.4409  0.4376  11.00000  0.05    0.24
Q8    1   0.6447  0.5859  0.3295  11.00000  0.05    0.22
Q9    1   0.4708  0.4290  0.3327  11.00000  0.05    0.21
Q10   1   0.1943  0.2918  0.4627  11.00000  0.05    0.20

  REM The information below was added by Olex2.
  REM
  REM R1 = 0.0626 for 735 Fo > 4sig(Fo) and 0.0833 for all 12908 data
  REM n/a parameters refined using n/a restraints
  REM Highest difference peak 0.50, deepest hole -0.58
  REM Mean Shift 0, Max Shift 0.000.
  
  REM +++ Tabular Listing of Refinement Information +++
  REM R1_all = 0.0833
  REM R1_gt = 0.0626
  REM wR_ref = 0.2274
  REM GOOF = 1.159
  REM Shift_max = 0.000
  REM Shift_mean = 0
  REM Reflections_all = 12908
  REM Reflections_gt = 735
  REM Parameters = n/a
  REM Hole = -0.58
  REM Peak = 0.50
  REM Flack = n/a
  
  
;
_cod_data_source_file            ja9b02417_si_002.cif
_cod_data_source_block           Fe-MIL-88B
_cod_original_cell_volume        2632.5(4)
_cod_database_code               4128230
_shelxl_version_number           2013-2
_shelx_space_group_comment
;
The symmetry employed for this shelxl refinement is uniquely defined
by the following loop, which should always be used as a source of
symmetry information in preference to the above space-group names.
They are only intended as comments.
;
_olex2_refinement_description
;
1. Fixed Uiso
 At 1.2 times of:
  All N(H,H) groups
 At 1.5 times of:
  All O(H,H) groups
2. Uiso/Uaniso restraints and constraints
N1: within 1.7A with sigma of 0.01 and sigma for terminal atoms of 0.02
Uanis(N1) \\sim Ueq: with sigma of 0.01 and sigma for terminal atoms of 0.01
3. Others
 Fixed Sof: H3A(0.25) H3B(0.25) N1(0.25) H1A(0.25) H1B(0.25)
4.a Riding coordinates:
 O3(H3A,H3B)
4.b Rotating group:
 N1(H1A,H1B)
;
_platon_squeeze_void_probe_radius 1.20
loop_
_space_group_symop_operation_xyz
'x, y, z'
'-y, x-y, z'
'-x+y, -x, z'
'-x, -y, z+1/2'
'y, -x+y, z+1/2'
'x-y, x, z+1/2'
'y, x, -z'
'x-y, -y, -z'
'-x, -x+y, -z'
'-y, -x, -z+1/2'
'-x+y, y, -z+1/2'
'x, x-y, -z+1/2'
'-x, -y, -z'
'y, -x+y, -z'
'x-y, x, -z'
'x, y, -z-1/2'
'-y, x-y, -z-1/2'
'-x+y, -x, -z-1/2'
'-y, -x, z'
'-x+y, y, z'
'x, x-y, z'
'y, x, z-1/2'
'x-y, -y, z-1/2'
'-x, -x+y, z-1/2'
loop_
_atom_site_label
_atom_site_type_symbol
_atom_site_fract_x
_atom_site_fract_y
_atom_site_fract_z
_atom_site_U_iso_or_equiv
_atom_site_adp_type
_atom_site_occupancy
_atom_site_site_symmetry_order
_atom_site_calc_flag
_atom_site_refinement_flags_posn
_atom_site_refinement_flags_adp
_atom_site_refinement_flags_occupancy
Fe1 Fe 0.75218(5) 0.50436(11) 0.2500 0.0623(6) Uani 1 4 d S T P
O1 O 0.6667 0.3333 0.2500 0.059(2) Uani 1 12 d S T P
O2 O 0.6531(3) 0.5185(3) 0.32922(15) 0.0784(10) Uani 1 1 d . . .
O3 O 0.8409(2) 0.6818(5) 0.2500 0.0798(18) Uani 1 4 d S T P
H3A H 0.8629 0.7257 0.2880 0.120 Uiso 0.5 2 d RS T P
H3B H 0.8629 0.7257 0.2120 0.120 Uiso 0.5 2 d RS T P
N1 N 0.3321(16) 0.2838(16) 0.4419(8) 0.095(5) Uani 0.25 1 d . U .
H1A H 0.3100 0.2173 0.4732 0.114 Uiso 0.25 1 d GR . .
H1B H 0.2567 0.2767 0.4340 0.114 Uiso 0.25 1 d GR . .
C1 C 0.5559(3) 0.4441(3) 0.3579(3) 0.0751(17) Uani 1 2 d S T P
C2 C 0.5260(3) 0.4740(3) 0.4317(3) 0.0710(17) Uani 1 2 d S T P
C3 C 0.4211(5) 0.3941(5) 0.4658(2) 0.0834(14) Uani 1 1 d . . .
loop_
_atom_site_aniso_label
_atom_site_aniso_U_11
_atom_site_aniso_U_22
_atom_site_aniso_U_33
_atom_site_aniso_U_23
_atom_site_aniso_U_13
_atom_site_aniso_U_12
Fe1 0.0810(8) 0.0827(9) 0.0238(6) 0.000 0.000 0.0413(5)
O1 0.079(4) 0.079(4) 0.020(3) 0.000 0.000 0.0395(19)
O2 0.097(2) 0.091(2) 0.0490(16) -0.0105(14) 0.0171(16) 0.0480(18)
O3 0.109(4) 0.059(3) 0.055(3) 0.000 0.000 0.0296(17)
N1 0.101(8) 0.098(8) 0.072(7) -0.024(6) 0.018(6) 0.040(7)
C1 0.103(4) 0.103(4) 0.034(3) -0.0052(14) 0.0052(14) 0.063(4)
C2 0.095(3) 0.095(3) 0.039(3) -0.0049(13) 0.0049(13) 0.060(4)
C3 0.099(3) 0.112(4) 0.050(2) -0.009(2) 0.012(2) 0.061(3)
loop_
_atom_type_symbol
_atom_type_description
_atom_type_scat_dispersion_real
_atom_type_scat_dispersion_imag
_atom_type_scat_source
C C 0.0033 0.0016 'International Tables Vol C Tables 4.2.6.8 and 6.1.1.4'
H H 0.0000 0.0000 'International Tables Vol C Tables 4.2.6.8 and 6.1.1.4'
Fe Fe 0.3463 0.8444 'International Tables Vol C Tables 4.2.6.8 and 6.1.1.4'
N N 0.0061 0.0033 'International Tables Vol C Tables 4.2.6.8 and 6.1.1.4'
O O 0.0106 0.0060 'International Tables Vol C Tables 4.2.6.8 and 6.1.1.4'
loop_
_geom_angle_atom_site_label_1
_geom_angle_atom_site_label_2
_geom_angle_atom_site_label_3
_geom_angle
_geom_angle_site_symmetry_1
_geom_angle_site_symmetry_3
O1 Fe1 O2 94.54(9) . .
O1 Fe1 O2 94.54(9) . 11_655
O1 Fe1 O2 94.54(9) . 20_655
O1 Fe1 O2 94.54(9) . 16_556
O1 Fe1 O3 180.00(8) . .
O2 Fe1 O2 170.92(18) 20_655 16_556
O2 Fe1 O2 86.53(19) 16_556 11_655
O2 Fe1 O2 92.75(19) 20_655 11_655
O2 Fe1 O2 86.53(19) . 20_655
O2 Fe1 O2 170.92(18) . 11_655
O2 Fe1 O2 92.75(19) . 16_556
O3 Fe1 O2 85.46(9) . 11_655
O3 Fe1 O2 85.46(9) . .
O3 Fe1 O2 85.46(9) . 16_556
O3 Fe1 O2 85.46(9) . 20_655
Fe1 O1 Fe1 120.0 3_665 .
Fe1 O1 Fe1 120.0 . 2_655
Fe1 O1 Fe1 120.0 3_665 2_655
C1 O2 Fe1 132.4(3) . .
Fe1 O3 H3A 125.2 . .
Fe1 O3 H3B 125.2 . .
H3A O3 H3B 109.5 . .
H1A N1 H1B 100.1 . .
C3 N1 H1A 117.5 . .
C3 N1 H1B 115.9 . .
O2 C1 O2 124.6(5) 19_665 .
O2 C1 C2 117.7(3) 19_665 .
O2 C1 C2 117.7(3) . .
C3 C2 C1 119.8(3) . .
C3 C2 C1 119.8(3) 19_665 .
C3 C2 C3 120.4(5) 19_665 .
N1 C3 C3 111.1(6) . 7_556
C2 C3 N1 129.1(7) . .
C2 C3 C3 119.8(3) . 7_556
loop_
_geom_bond_atom_site_label_1
_geom_bond_atom_site_label_2
_geom_bond_distance
_geom_bond_site_symmetry_2
Fe1 O1 1.9108(12) .
Fe1 O2 1.999(3) 20_655
Fe1 O2 1.999(3) 11_655
Fe1 O2 1.999(3) .
Fe1 O2 1.999(3) 16_556
Fe1 O3 1.983(6) .
O1 Fe1 1.9108(12) 2_655
O1 Fe1 1.9108(12) 3_665
O2 C1 1.250(4) .
O3 H3A 0.8499 .
O3 H3B 0.8499 .
N1 H1A 0.9491 .
N1 H1B 0.9408 .
N1 C3 1.378(17) .
C1 O2 1.250(4) 19_665
C1 C2 1.505(7) .
C2 C3 1.373(6) .
C2 C3 1.373(6) 19_665
C3 C3 1.388(8) 7_556
loop_
_geom_torsion_atom_site_label_1
_geom_torsion_atom_site_label_2
_geom_torsion_atom_site_label_3
_geom_torsion_atom_site_label_4
_geom_torsion
_geom_torsion_site_symmetry_1
_geom_torsion_site_symmetry_4
Fe1 O2 C1 O2 -20.1(10) . 19_665
Fe1 O2 C1 C2 160.4(4) . .
O2 C1 C2 C3 -179.0(6) . .
O2 C1 C2 C3 -1.5(9) . 19_665
O2 C1 C2 C3 179.0(6) 19_665 19_665
O2 C1 C2 C3 1.5(9) 19_665 .
C1 C2 C3 N1 -0.5(15) . .
C1 C2 C3 C3 179.4(6) . 7_556
C3 C2 C3 N1 -178.0(11) 19_665 .
C3 C2 C3 C3 1.9(12) 19_665 7_556
loop_
_platon_squeeze_void_nr
_platon_squeeze_void_average_x
_platon_squeeze_void_average_y
_platon_squeeze_void_average_z
_platon_squeeze_void_volume
_platon_squeeze_void_count_electrons
_platon_squeeze_void_content
1 -0.021 -0.015 -0.001 1329 289 ' '
loop_
_refln_index_h
_refln_index_k
_refln_index_l
_refln_F_squared_meas
_refln_F_squared_sigma
_refln_scale_group_code
0 0 -2 275389 21076 1
0 0 4 567931 17183 1
0 0 -4 569494 17187 1
0 0 -4 565670 17184 1
0 0 6 30064 845 1
0 0 -6 30552 852 1
0 0 -6 30675 840 1
0 0 6 30065 862 1
0 0 8 15501 1023 1
0 0 8 13947 1038 1
0 0 -8 15322 1021 1
0 0 -8 14283 1027 1
0 0 -10 1008984 37006 1
0 0 -10 1010975 36996 1
0 0 10 1023446 36993 1
0 0 10 1020094 37001 1
0 0 12 330789 13195 1
0 0 -12 326395 13215 1
0 0 -14 244752 9319 1
0 0 -16 55569 2413 1
0 0 -18 50100 1983 1
0 0 -20 14743 932 1
0 0 -22 28636 1421 1
-1 0 -1 1026126 16212 1
-1 1 -2 37835 2360 1
1 -1 2 36838 2362 1
-1 0 -2 34475 2358 1
0 -1 -2 36261 2366 1
-1 1 -2 40471 2362 1
1 0 2 37716 2358 1
1 0 2 34757 2363 1
1 -1 2 38300 2358 1
-1 1 2 36882 2366 1
-1 0 -2 39250 2365 1
-1 1 -3 182116 9693 1
0 -1 3 178712 9696 1
-1 0 -3 193414 9697 1
-1 1 -3 192971 9691 1
1 -1 3 182480 9688 1
0 -1 -3 204428 9699 1
1 -1 3 182854 9692 1
1 0 3 178014 9696 1
-1 0 -3 194022 9691 1
-1 1 3 176419 9698 1
1 0 3 181613 9690 1
0 -1 4 7204 335 1
0 1 -4 7170 336 1
1 -1 4 7814 305 1
1 0 4 6055 275 1
0 1 -4 7392 174 1
0 -1 -4 6830 307 1
-1 0 -4 6326 314 1
1 -1 -4 6890 326 1
0 1 4 6679 316 1
1 0 4 6336 326 1
1 -1 4 8217 252 1
-1 0 -4 6353 257 1
-1 1 -4 8006 229 1
-1 1 -4 6916 302 1
1 0 5 48289 2237 1
0 -1 -5 47705 2236 1
0 -1 5 50220 2237 1
0 1 -5 47138 2201 1
-1 0 -5 46489 2220 1
-1 1 -5 49231 2232 1
-1 1 5 44403 2235 1
0 1 -5 51455 2240 1
-1 0 5 47856 2237 1
1 -1 5 49961 2232 1
1 -1 5 51280 2220 1
1 0 5 47812 2224 1
0 -1 5 48206 2230 1
1 -1 -5 48618 2236 1
-1 0 -5 46262 2235 1
0 1 5 46694 2234 1
0 -1 -5 49096 2230 1
0 -1 -6 741 334 1
1 -1 6 370 344 1
0 1 -6 1004 343 1
1 -1 -6 1084 333 1
0 -1 -6 492 344 1
1 -1 6 625 294 1
1 0 6 363 291 1
-1 0 -6 372 338 1
1 0 -6 379 344 1
0 -1 6 463 356 1
0 1 -6 348 174 1
0 -1 6 548 340 1
1 0 6 1012 349 1
-1 1 -6 805 320 1
-1 0 6 1010 359 1
0 1 6 404 340 1
-1 0 -6 557 299 1
-1 1 6 471 351 1
-1 0 -7 17223 593 1
0 -1 -7 14400 625 1
1 0 7 15706 602 1
0 -1 7 15900 620 1
1 0 -7 16060 637 1
1 -1 7 16652 637 1
0 -1 7 17219 642 1
1 0 7 16189 631 1
0 1 -7 16918 634 1
-1 0 -7 16970 624 1
1 -1 7 16414 594 1
1 -1 -7 17094 630 1
0 1 -7 16993 535 1
0 1 7 17425 626 1
-1 0 7 17051 634 1
-1 1 7 16866 627 1
-1 1 -7 16748 622 1
0 -1 -7 16528 605 1
0 -1 8 2048 418 1
1 0 8 1307 409 1
1 -1 8 3303 359 1
-1 0 8 2780 410 1
-1 1 -8 1636 377 1
-1 1 8 2353 401 1
-1 0 -8 1983 373 1
1 0 -8 2377 413 1
0 1 8 3153 395 1
1 -1 -8 2774 393 1
0 1 -8 1495 216 1
0 -1 8 3531 385 1
0 1 8 2306 425 1
1 0 8 2065 371 1
1 -1 8 1386 404 1
0 -1 -8 3871 382 1
0 1 -8 1623 405 1
-1 0 -8 2982 350 1
0 -1 -8 1846 397 1
1 -1 -9 154087 6079 1
1 0 -9 160936 6081 1
0 1 -9 154265 6039 1
-1 0 -9 158832 6078 1
1 -1 9 163570 6061 1
0 -1 -9 158785 6080 1
0 -1 -9 154987 6067 1
0 -1 9 162752 6067 1
1 -1 9 159106 6073 1
-1 0 9 160377 6073 1
-1 0 -9 160781 6064 1
-1 0 9 151850 6076 1
1 0 9 156343 6075 1
-1 1 -9 160112 6075 1
0 1 9 156139 6078 1
0 1 9 158179 6068 1
1 -1 -9 157179 6072 1
0 -1 9 154026 6076 1
0 1 -9 159076 6078 1
-1 1 9 157068 6071 1
1 0 9 156924 6061 1
1 -1 -10 63278 2498 1
-1 1 -10 62649 2494 1
0 1 10 63647 2483 1
0 -1 -10 62522 2500 1
0 1 -10 61790 2439 1
-1 0 10 62455 2488 1
1 0 -10 62172 2500 1
1 0 10 63774 2472 1
-1 1 10 64348 2486 1
0 1 10 63238 2497 1
1 0 10 63589 2495 1
0 1 -10 62846 2496 1
1 -1 10 63677 2471 1
1 -1 -10 65164 2490 1
1 -1 10 63162 2491 1
-1 0 10 61373 2496 1
0 -1 -10 62562 2483 1
0 -1 10 63606 2494 1
-1 0 -10 62330 2496 1
0 -1 10 64085 2482 1
-1 0 -10 65197 2477 1
1 -1 11 197452 7219 1
1 -1 -11 194119 7246 1
0 1 -11 195843 7240 1
0 1 11 200308 7240 1
-1 0 -11 200109 7226 1
-1 1 -11 192287 7239 1
0 1 -11 196033 7196 1
0 -1 11 193613 7236 1
0 -1 -11 197605 7231 1
0 1 11 197132 7226 1
1 0 -11 195769 7247 1
-1 0 -11 194572 7241 1
-1 1 11 189461 7238 1
1 0 11 196433 7220 1
0 -1 11 194344 7224 1
1 -1 11 193909 7234 1
-1 0 11 198762 7232 1
1 -1 -11 200181 7238 1
1 0 11 200596 7237 1
-1 0 11 204452 7243 1
-1 1 11 194064 7230 1
0 -1 -11 194208 7243 1
0 -1 12 30383 1240 1
1 0 12 29234 1234 1
1 -1 12 28731 1265 1
1 -1 -12 30252 1257 1
1 -1 -12 28022 1282 1
0 1 12 30860 1248 1
0 -1 -12 29696 1250 1
0 1 -12 29210 1175 1
-1 0 -12 29156 1271 1
1 0 -12 31835 1286 1
-1 1 -12 29635 1262 1
0 1 -12 28671 1273 1
-1 0 -12 30889 1253 1
1 -1 12 30158 1231 1
-1 0 12 33810 1259 1
0 -1 -12 29553 1268 1
-1 1 12 29744 1255 1
-1 1 -13 102174 3833 1
1 -1 -13 96739 3842 1
0 -1 13 98467 3808 1
0 -1 -13 97331 3833 1
1 0 -13 102242 3842 1
-1 0 -13 103841 3813 1
-1 1 -13 104473 3783 1
0 1 13 101624 3814 1
1 -1 13 99200 3802 1
1 0 13 103802 3807 1
0 1 -13 98172 3831 1
-1 0 -13 97645 3831 1
0 -1 -13 101426 3818 1
1 -1 -13 99366 3825 1
0 1 -13 101401 3769 1
0 -1 -14 14236 798 1
-1 1 -14 14971 710 1
1 0 14 14580 785 1
0 -1 -14 14683 839 1
-1 0 -14 15334 789 1
1 -1 -14 14114 855 1
1 0 -14 13197 833 1
-1 1 -14 13417 840 1
0 1 -14 13721 832 1
0 1 -14 14297 671 1
1 -1 -14 13525 811 1
1 -1 14 14138 766 1
-1 0 -14 13635 828 1
1 -1 -15 43693 1674 1
0 1 -15 41048 1658 1
0 -1 -15 41473 1662 1
0 1 -15 42500 1535 1
-1 1 -15 44363 1567 1
0 -1 -15 43440 1632 1
-1 1 -15 41583 1646 1
-1 0 -15 41171 1647 1
1 0 -15 40424 1653 1
-1 0 -16 3302 642 1
1 -1 -16 5188 670 1
-1 1 -16 3836 619 1
0 1 -16 5124 641 1
0 -1 -16 4475 600 1
0 -1 -16 4466 651 1
-1 1 -16 4313 453 1
0 1 -16 4300 382 1
1 0 -16 4505 671 1
0 1 -17 19478 873 1
-1 1 -17 19028 1062 1
0 -1 -17 19617 1082 1
-1 0 -17 21757 1080 1
1 0 -17 21744 1102 1
-1 1 -17 20793 929 1
0 1 -17 21801 1077 1
1 -1 -17 22900 1100 1
0 1 -18 4079 731 1
-1 1 -18 3526 697 1
1 -1 -18 3983 746 1
0 -1 -18 4155 741 1
1 0 -18 2940 722 1
-1 0 -18 2931 721 1
-1 1 -19 11066 884 1
1 0 -19 11204 902 1
-1 0 -19 11213 880 1
1 -1 -19 11186 893 1
0 -1 -19 12592 906 1
0 1 -19 8903 886 1
-1 1 -20 906 766 1
-1 0 -20 824 759 1
1 0 -20 1007 761 1
0 1 -20 1152 764 1
0 -1 -20 92 771 1
1 -1 -20 1555 790 1
0 1 -21 9475 897 1
1 0 -21 10220 932 1
0 -1 -21 9844 913 1
-1 0 -21 10612 911 1
-1 1 -21 7199 895 1
1 -1 -21 10844 941 1
0 -1 -22 1656 846 1
1 -1 -22 1700 863 1
-1 0 -22 2310 830 1
0 1 -22 2212 827 1
1 0 -22 1981 847 1
-1 1 -22 765 827 1
-1 2 0 209658 3650 1
2 -1 0 202708 3654 1
1 -2 0 213056 3648 1
-1 2 0 214196 3647 1
1 -2 0 209038 3653 1
2 -1 -2 156605 1521 1
2 -1 2 160322 1504 1
-2 1 2 163787 1522 1
-2 1 -2 159490 1506 1
1 -2 -2 164998 1521 1
-1 2 2 168176 1521 1
-1 -1 -2 163532 1517 1
1 1 2 165307 1518 1
-2 1 2 166811 1524 1
-1 -1 -2 169939 1525 1
-1 -1 -4 96 271 1
2 -1 4 72 294 1
1 -2 4 125 220 1
1 1 4 335 301 1
-1 2 4 16 362 1
2 -1 4 11 198 1
-2 1 -4 72 261 1
-2 1 -4 68 191 1
-2 1 4 129 350 1
-1 -1 -4 100 323 1
1 -2 4 6 277 1
1 1 6 17319 540 1
-2 1 6 17524 535 1
2 -1 6 17329 499 1
1 -2 -6 17818 506 1
-1 -1 6 16374 529 1
-2 1 -6 15941 484 1
-1 2 6 17061 523 1
1 1 6 16889 487 1
-1 2 6 17077 538 1
1 -2 6 16622 498 1
-2 1 -6 18508 436 1
-1 2 -6 17427 494 1
-1 2 -6 16986 425 1
-1 -1 -6 15639 474 1
2 -1 6 16490 447 1
2 -1 -6 18859 516 1
-1 -1 -6 17321 509 1
1 1 8 75460 3247 1
-1 2 8 74817 3241 1
1 1 8 73904 3230 1
-1 2 -8 76949 3240 1
-1 -1 8 79242 3248 1
-1 -1 -8 71255 3241 1
-2 1 8 74981 3244 1
-2 1 -8 72450 3237 1
-2 1 -8 77895 3219 1
1 -2 -8 77532 3242 1
-1 -1 -8 73586 3228 1
-1 -1 8 83163 3249 1
-1 2 -8 76188 3206 1
2 -1 8 75092 3238 1
1 -2 8 77985 3227 1
1 -2 8 77188 3239 1
2 -1 -8 74092 3243 1
1 1 -8 81132 3251 1
2 -1 8 73838 3218 1
1 -2 -10 2280 415 1
-1 2 -10 1932 409 1
1 1 10 1774 379 1
1 1 -10 2541 168 1
-2 1 10 1250 422 1
-2 1 -10 2204 355 1
-1 -1 10 1820 436 1
-1 2 10 1881 424 1
-1 2 -10 2424 260 1
-1 -1 -10 2502 353 1
1 1 10 3249 448 1
1 1 -10 2861 438 1
-1 -1 10 2769 416 1
-1 -1 -10 2793 427 1
2 -1 10 2123 426 1
2 -1 10 2655 346 1
-2 1 -10 2489 405 1
1 -2 10 2817 420 1
1 -2 10 2952 375 1
2 -1 12 23899 1044 1
1 -2 -12 24200 1114 1
-1 -1 -12 23645 1061 1
1 1 12 23923 1060 1
2 -1 12 24773 1089 1
-1 -1 -12 24015 1101 1
-1 -1 12 24244 1080 1
1 -2 12 25491 1097 1
-2 1 -12 23597 1089 1
1 1 -12 22859 962 1
1 1 -12 24088 1106 1
1 -2 12 24585 1052 1
1 -2 -12 25291 1088 1
-1 2 -12 25028 997 1
-1 2 12 26301 1093 1
-1 2 -12 24264 1093 1
2 -1 -12 23204 1097 1
-1 -1 -14 3653 506 1
2 -1 -14 3825 583 1
1 1 -14 3628 574 1
1 1 -14 3241 258 1
1 -2 14 4409 501 1
-1 2 -14 4046 359 1
-1 2 -14 4181 559 1
2 -1 14 4147 490 1
1 -2 -14 1614 605 1
1 -2 -14 3413 552 1
-2 1 -14 3576 552 1
-1 -1 -14 3837 571 1
-1 -1 -16 8900 715 1
-1 2 -16 8431 481 1
-1 -1 -16 8213 673 1
-2 1 -16 8865 701 1
1 1 -16 7671 716 1
1 1 -16 7038 396 1
2 -1 -16 8503 741 1
-1 2 -16 8719 710 1
-2 1 -16 8696 596 1
1 -2 -16 8745 738 1
1 -2 -16 8908 693 1
-1 -1 -18 2417 689 1
1 1 -18 2389 698 1
1 -2 -18 3005 734 1
2 -1 -18 2254 717 1
-1 2 -18 1147 673 1
-2 1 -18 2849 547 1
-2 1 -18 1743 681 1
-1 -1 -18 2026 633 1
-2 1 -20 4290 782 1
1 -2 -20 6082 843 1
2 -1 -20 5692 853 1
-1 2 -20 3010 785 1
-1 -1 -20 4239 792 1
-1 -1 -22 1620 835 1
-2 1 -22 816 820 1
1 -2 -22 2654 872 1
2 -1 -22 2092 868 1
0 2 0 250785 2887 1
2 -2 0 237707 2881 1
-2 2 0 240573 2880 1
-2 2 1 92263 330 1
2 0 1 96434 357 1
-2 2 1 90413 357 1
0 2 1 96410 371 1
-2 0 -1 95795 361 1
2 -2 -1 91278 337 1
2 -2 -1 89721 361 1
-2 0 2 447212 19818 1
-2 2 2 445830 19825 1
0 2 2 439041 19829 1
2 0 2 453569 19825 1
2 -2 -2 469358 19826 1
-2 0 -2 477873 19826 1
2 -2 -2 418219 19827 1
-2 2 2 474779 19828 1
2 -2 3 39825 884 1
-2 2 3 38496 923 1
2 -2 3 42949 916 1
-2 0 3 38938 870 1
-2 2 3 38533 927 1
0 -2 -3 36957 923 1
-2 2 -3 39008 892 1
2 -2 -3 41339 924 1
-2 0 -3 37095 892 1
2 0 3 36438 916 1
2 0 3 38188 894 1
-2 0 -3 38843 916 1
-2 2 -3 41732 910 1
-2 2 -4 135654 2749 1
2 -2 4 130870 2742 1
2 -2 4 139206 2733 1
2 -2 -4 136885 2762 1
2 0 4 133782 2742 1
-2 0 -4 132769 2741 1
2 -2 4 141771 2751 1
-2 0 4 130477 2765 1
-2 0 -4 135747 2756 1
2 0 4 137058 2759 1
-2 2 -4 135111 2744 1
-2 2 4 135302 2761 1
0 -2 -4 137757 2759 1
0 2 4 133227 2761 1
0 -2 5 17579 1070 1
-2 2 -5 19320 1048 1
2 0 5 18608 1040 1
2 -2 5 18999 1050 1
0 -2 5 19733 1015 1
0 2 5 18916 1071 1
2 -2 5 18182 1023 1
-2 2 5 19059 1080 1
2 0 5 19313 1071 1
0 -2 -5 20551 1069 1
-2 2 -5 18540 1044 1
-2 0 -5 17785 1063 1
2 -2 -5 18841 1076 1
-2 0 -5 18248 1040 1
2 -2 6 115420 4774 1
0 -2 6 115545 4782 1
-2 2 -6 120493 4773 1
2 0 6 117397 4768 1
0 -2 6 125453 4754 1
-2 2 -6 120951 4769 1
-2 0 -6 112578 4781 1
-2 2 6 120388 4787 1
-2 0 -6 114372 4766 1
2 -2 -6 106306 4782 1
0 -2 -6 124420 4782 1
2 -2 -6 112356 4782 1
2 0 6 112450 4782 1
2 -2 6 119032 4760 1
-2 0 6 115773 4787 1
0 2 6 118887 4781 1
2 0 7 125 305 1
2 0 7 327 397 1
-2 2 -7 330 344 1
0 -2 7 426 394 1
-2 2 -7 539 283 1
2 -2 7 387 357 1
0 2 7 209 372 1
0 -2 -7 104 343 1
-2 0 7 309 402 1
-2 2 7 351 411 1
-2 2 7 2 397 1
-2 0 -7 21 295 1
2 -2 -7 115 369 1
-2 0 -7 262 355 1
2 -2 7 264 283 1
2 -2 -8 142415 5229 1
-2 0 -8 141522 5208 1
0 2 8 146595 5223 1
2 0 8 142001 5227 1
0 -2 -8 141617 5232 1
0 -2 8 141161 5220 1
-2 0 8 141073 5229 1
-2 0 -8 143746 5225 1
0 -2 8 144685 5226 1
2 -2 8 143630 5220 1
2 -2 8 144688 5203 1
-2 2 8 140672 5225 1
-2 2 -8 143072 5221 1
-2 2 -8 144748 5205 1
0 -2 -8 150823 5224 1
-2 2 8 145131 5231 1
2 0 8 136860 5209 1
-2 2 -9 2549 422 1
-2 2 9 2146 475 1
-2 0 -9 2746 419 1
2 0 9 2690 453 1
2 -2 9 2987 355 1
0 -2 9 2462 426 1
2 0 9 2529 380 1
-2 0 9 3093 450 1
2 -2 -9 2491 450 1
0 2 9 3148 429 1
0 -2 -9 2323 432 1
0 2 -9 2568 427 1
0 -2 -9 2634 404 1
2 -2 9 2539 413 1
2 0 -9 2109 453 1
-2 2 -9 2500 321 1
-2 2 9 2984 456 1
0 -2 9 2706 435 1
-2 0 -9 2817 377 1
2 0 -10 2383 455 1
0 -2 -10 1262 434 1
-2 0 10 2305 447 1
0 -2 -10 1298 400 1
0 2 10 2143 408 1
2 0 10 1627 445 1
0 2 -10 2185 430 1
-2 0 -10 1303 415 1
2 -2 10 2011 422 1
2 -2 -10 630 432 1
-2 0 -10 1660 338 1
-2 2 10 1254 444 1
-2 2 -10 1554 407 1
0 -2 10 1818 406 1
2 -2 10 1889 345 1
2 0 10 2038 366 1
0 -2 10 1692 445 1
0 2 10 2002 464 1
-2 2 -10 2082 315 1
2 -2 11 3587 369 1
0 -2 -11 4110 468 1
-2 2 -11 3880 440 1
0 2 11 3815 435 1
-2 0 -11 3429 449 1
2 -2 11 3770 446 1
0 -2 11 3968 428 1
-2 0 11 4333 476 1
2 0 -11 3907 493 1
0 2 11 3885 477 1
2 -2 -11 1872 468 1
0 2 -11 3869 455 1
-2 0 -11 3466 394 1
2 0 11 4521 471 1
2 0 11 3669 390 1
0 -2 -11 3616 427 1
-2 2 11 2053 462 1
0 -2 11 3583 464 1
-2 2 -11 4237 343 1
-2 2 -12 28687 1130 1
-2 0 -12 27205 1198 1
0 2 12 25700 1171 1
-2 2 -12 28251 1188 1
0 2 -12 25590 1203 1
0 -2 -12 27322 1185 1
2 -2 12 27285 1144 1
2 0 -12 27743 1224 1
2 -2 -12 27983 1209 1
2 -2 12 26194 1182 1
-2 0 -12 28350 1155 1
0 -2 -12 26293 1198 1
2 0 12 26178 1149 1
0 -2 12 26965 1170 1
-2 0 -13 2979 524 1
0 -2 13 2354 469 1
-2 2 -13 3420 516 1
-2 0 -13 3322 438 1
0 2 -13 2187 513 1
0 -2 -13 2742 483 1
2 -2 -13 3207 540 1
2 -2 13 3132 427 1
2 0 13 3019 436 1
0 -2 -13 2499 533 1
-2 2 -13 2859 393 1
2 0 -13 2773 553 1
0 2 -14 13968 843 1
2 0 -14 15425 880 1
2 -2 14 14606 767 1
2 0 14 15820 783 1
0 -2 -14 15792 821 1
2 -2 -14 16468 853 1
0 -2 -14 15272 863 1
2 -2 -14 13846 865 1
-2 2 -14 14229 829 1
2 0 -14 13504 634 1
-2 0 -14 16719 814 1
-2 2 -14 16448 739 1
-2 0 -14 14574 835 1
2 0 -15 980 606 1
-2 0 -15 1233 559 1
0 -2 -15 446 523 1
-2 2 -15 1302 425 1
0 -2 -15 700 593 1
-2 2 -15 1013 557 1
2 0 -15 1144 227 1
2 -2 -15 1190 598 1
2 -2 15 1196 490 1
2 -2 -15 1927 583 1
0 2 -15 812 579 1
2 0 -16 10784 493 1
0 -2 -16 12220 752 1
2 0 -16 12762 813 1
-2 2 -16 12851 644 1
0 -2 -16 12975 832 1
2 -2 -16 12106 825 1
-2 0 -16 13093 746 1
0 2 -16 10724 769 1
-2 2 -16 11696 763 1
-2 0 -16 12032 773 1
0 -2 -17 14 668 1
-2 0 -17 14 625 1
0 2 -17 14 621 1
-2 2 -17 13 601 1
-2 2 -17 13 439 1
2 -2 -17 13 674 1
0 -2 -17 23 618 1
2 0 -17 14 644 1
-2 2 -18 1160 669 1
0 -2 -18 1738 652 1
2 0 -18 3241 710 1
-2 0 -18 2944 695 1
0 -2 -18 2077 694 1
2 -2 -18 2265 733 1
2 -2 -19 65 753 1
0 -2 -19 670 667 1
2 0 -19 63 731 1
0 -2 -19 65 723 1
-2 2 -19 51 716 1
-2 0 -19 151 721 1
-2 0 -20 9194 885 1
2 0 -20 9538 876 1
-2 2 -20 9038 854 1
2 -2 -20 9191 883 1
0 -2 -20 8302 875 1
-2 0 -21 353 782 1
0 -2 -21 604 818 1
2 -2 -21 74 851 1
-2 2 -21 18 782 1
0 -2 -22 2244 881 1
-2 2 -22 2094 805 1
2 -2 -22 2487 903 1
-2 0 -22 2571 831 1
-3 2 0 10030 489 1
1 -3 0 11491 507 1
2 -3 0 10758 480 1
2 -3 0 11574 515 1
1 -3 0 10736 528 1
-3 1 0 10323 526 1
3 -2 0 9089 500 1
3 -2 0 8847 521 1
-2 -1 0 10765 534 1
-2 3 0 10637 506 1
-2 3 0 10860 475 1
-1 3 0 10826 502 1
-3 2 1 103329 5625 1
-3 2 1 100860 5630 1
2 1 1 92341 5633 1
-3 2 -1 91412 5618 1
2 -3 -1 104473 5634 1
1 -3 1 107687 5628 1
-1 3 1 109093 5631 1
2 -3 -1 103178 5627 1
1 -3 -1 109373 5633 1
2 -3 1 106444 5619 1
-3 1 -1 105348 5625 1
3 -2 -1 92809 5631 1
-1 3 1 106093 5635 1
-2 3 1 106814 5626 1
-2 -1 -1 105756 5636 1
3 -2 -1 100973 5633 1
2 -3 1 107473 5626 1
-2 3 1 101813 5633 1
3 -1 -1 92737 5628 1
-3 1 1 100116 5630 1
-1 3 2 88528 3215 1
2 -3 -2 86414 3219 1
-3 2 2 86202 3214 1
-3 2 2 85264 3209 1
3 -2 -2 87029 3217 1
-1 -2 -2 90483 3215 1
2 -3 -2 89713 3212 1
-2 3 2 89144 3211 1
2 1 2 85391 3217 1
-3 1 2 79677 3201 1
-3 1 -2 87286 3202 1
-2 -1 -2 86961 3218 1
1 -3 -2 92375 3216 1
-2 3 2 91406 3217 1
3 -1 2 86173 3201 1
3 -1 -2 80185 3203 1
3 -2 -2 86322 3210 1
-1 3 2 91426 3219 1
3 -1 -3 56435 3432 1
-3 2 3 58867 3447 1
-1 3 3 63065 3454 1
-2 3 3 61675 3454 1
-3 2 3 59082 3453 1
-1 -2 -3 58396 3449 1
3 -2 -3 59861 3449 1
-3 1 3 62446 3457 1
-3 2 -3 54532 3428 1
3 -2 3 56936 3429 1
-3 1 -3 58533 3424 1
1 2 3 57335 3448 1
1 -3 -3 59901 3451 1
3 -2 -3 58712 3453 1
-3 2 -3 56871 3450 1
2 -3 -3 59021 3449 1
2 1 3 59291 3453 1
3 -1 3 55226 3437 1
-3 1 3 60217 3453 1
-2 -1 -3 59813 3451 1
-3 1 -3 59544 3438 1
-2 -1 -3 59077 3442 1
-2 3 3 59295 3449 1
-3 2 -4 29488 1009 1
2 -3 -4 30320 1050 1
-2 3 4 29257 1048 1
1 2 4 27864 1038 1
2 1 4 28677 1029 1
2 -3 4 35661 1014 1
-1 3 4 30287 1060 1
3 -2 -4 30629 1046 1
1 -3 -4 28649 1045 1
2 -3 4 36721 1020 1
-3 1 -4 29625 1029 1
3 -1 4 35682 1037 1
3 -1 -4 28258 996 1
-2 -1 -4 28401 1024 1
-3 2 4 29980 1055 1
3 -2 4 28985 1013 1
-3 2 -4 31452 1043 1
-3 2 4 29554 1047 1
-3 1 4 29330 1058 1
-1 -2 -4 25337 1043 1
-2 -1 -4 29698 1046 1
-3 1 4 30600 1068 1
-1 -2 -4 28289 1036 1
2 1 4 27684 1048 1
-2 3 4 28105 1050 1
-3 1 -4 27599 992 1
3 -1 5 59220 2320 1
-3 2 5 59313 2333 1
-3 2 -5 61915 2322 1
3 -2 5 59117 2312 1
2 -3 -5 62600 2334 1
-3 1 -5 60526 2321 1
-2 3 5 59941 2334 1
-1 -2 -5 59835 2334 1
-3 1 -5 59138 2296 1
1 -3 -5 57897 2332 1
2 1 5 58545 2317 1
2 -3 5 61943 2311 1
3 -2 -5 63434 2336 1
1 2 5 56778 2323 1
1 -3 5 59456 2301 1
-1 -2 -5 57775 2323 1
1 -3 -5 63380 2335 1
-3 2 -5 58980 2308 1
-3 2 5 61128 2335 1
2 1 5 55963 2331 1
-1 3 5 62096 2337 1
3 -1 5 59938 2297 1
1 -3 5 57846 2320 1
-3 1 5 63115 2340 1
2 -3 5 61961 2310 1
-2 -1 -5 57386 2329 1
3 -2 5 59496 2289 1
-2 -1 -5 58757 2316 1
-1 3 6 2176 384 1
2 -3 -6 2419 395 1
1 -3 -6 1870 375 1
3 -1 -6 1940 403 1
-2 -1 -6 2427 329 1
1 2 6 2499 362 1
-1 -2 -6 2659 378 1
-2 -1 -6 2175 371 1
-3 1 -6 1530 245 1
3 -1 6 2498 268 1
2 -3 6 2793 283 1
1 -3 6 3024 359 1
3 -2 -6 2484 404 1
-3 1 6 2831 419 1
-3 1 -6 1802 328 1
3 -1 6 2039 375 1
2 -3 6 2208 311 1
-1 3 6 2639 428 1
2 1 6 1831 331 1
-3 2 -6 2441 344 1
-3 2 6 2466 422 1
-1 -2 6 2039 398 1
-2 3 6 2643 421 1
-1 -2 -6 2541 352 1
1 -3 6 2182 248 1
3 -2 6 2232 236 1
-1 -2 6 2401 177 1
-3 2 -6 2351 306 1
3 -2 6 2133 339 1
2 1 6 2316 418 1
2 -3 7 99899 3680 1
3 -2 7 94861 3657 1
1 -3 7 99271 3659 1
-1 -2 -7 97526 3693 1
-3 2 7 99980 3695 1
-3 2 -7 96428 3676 1
-3 1 -7 95816 3681 1
-2 -1 -7 100379 3691 1
-3 1 -7 95716 3659 1
2 1 7 94336 3694 1
2 -3 -7 96297 3691 1
3 -1 7 98500 3662 1
1 2 7 95486 3683 1
1 -3 7 98802 3685 1
3 -1 7 96850 3684 1
-1 -2 -7 94133 3685 1
3 -2 7 98547 3679 1
2 1 7 95823 3676 1
1 2 7 91861 3696 1
-3 1 7 97709 3698 1
-2 -1 -7 97858 3679 1
-2 3 7 98730 3696 1
1 -3 -7 98371 3691 1
-1 -2 7 91250 3691 1
2 -3 -7 95560 3695 1
-1 3 7 96150 3691 1
3 -1 -7 90507 3695 1
3 -2 -7 98561 3699 1
-2 3 -7 98464 3678 1
-3 2 -7 94886 3675 1
-1 3 7 99135 3699 1
2 -3 -8 15821 832 1
-1 3 8 15725 856 1
-2 3 -8 16279 810 1
-3 2 -8 14788 808 1
2 -3 -8 14560 840 1
1 2 8 14701 826 1
3 -1 8 14806 777 1
-2 -1 -8 13697 800 1
-1 -2 -8 14695 817 1
-1 -2 8 14703 840 1
2 1 8 15190 850 1
3 -2 8 14334 766 1
-2 3 8 15117 853 1
-3 2 8 16216 857 1
1 -3 -8 14867 822 1
-3 1 -8 14023 812 1
-3 1 -8 15841 769 1
-1 -2 -8 14331 831 1
3 -1 8 16132 834 1
2 -3 8 16162 782 1
2 -3 8 15681 824 1
1 2 8 15163 861 1
-2 -1 -8 15323 835 1
-2 3 8 15658 854 1
3 -2 8 15759 817 1
-3 1 8 15904 854 1
-2 -1 8 14346 854 1
-1 3 8 14468 837 1
2 1 8 14679 804 1
3 -2 -8 15552 845 1
-3 2 -8 16183 787 1
1 -3 8 14826 828 1
3 -2 -8 15870 851 1
-3 2 9 45 434 1
-3 2 -9 360 329 1
-2 3 -9 450 295 1
-3 1 9 257 442 1
2 -3 9 589 387 1
3 -2 9 262 298 1
2 -3 -9 597 431 1
-2 3 -9 842 371 1
1 2 9 138 401 1
1 -3 9 271 362 1
3 -1 9 280 312 1
3 -2 9 567 406 1
1 -3 9 470 405 1
3 -2 -9 252 415 1
-1 3 9 491 418 1
-1 -2 -9 478 411 1
-1 -2 9 686 433 1
-2 -1 -9 376 401 1
-2 3 9 110 438 1
-1 -2 -9 413 372 1
-2 -1 -9 406 333 1
1 -3 -9 141 402 1
-3 1 9 575 456 1
-3 2 -9 574 376 1
3 -1 9 593 429 1
-2 3 9 452 442 1
2 1 9 135 373 1
-2 -1 9 450 436 1
2 1 9 232 449 1
-2 -1 9 707 452 1
-3 2 9 709 451 1
3 -2 -9 678 441 1
-3 1 -9 380 380 1
1 2 9 486 450 1
-3 1 -9 516 304 1
-2 3 10 10198 623 1
-3 1 10 10560 625 1
-2 -1 10 11131 625 1
1 -3 10 10535 571 1
-3 1 -10 11863 533 1
-2 3 10 10270 627 1
-3 2 10 10056 625 1
3 -2 10 10664 527 1
-2 3 -10 11812 581 1
-3 1 10 10934 639 1
1 2 10 10688 594 1
-3 1 -10 10596 582 1
1 2 10 10051 635 1
2 1 10 10881 576 1
-1 -2 10 9589 612 1
-1 -2 -10 9263 574 1
1 -3 10 11952 613 1
1 -3 -10 10445 608 1
3 -2 -10 11605 632 1
-3 2 10 11422 643 1
-3 2 -10 10889 577 1
3 -2 10 10026 602 1
-1 -2 -10 9623 624 1
-3 2 -10 11096 538 1
-2 -1 -10 10267 595 1
-2 -1 -10 9696 554 1
2 1 10 9814 632 1
2 -3 -10 11819 626 1
3 -1 10 10896 616 1
-2 3 -10 11169 512 1
-1 3 10 10261 609 1
-2 -1 10 10442 626 1
2 -3 10 11365 543 1
2 -3 10 11543 594 1
-1 -2 10 10217 606 1
3 -1 10 10086 530 1
1 2 11 3856 457 1
-3 2 -11 4274 456 1
-2 -1 -11 3831 419 1
1 -3 11 4393 490 1
-1 -2 -11 4162 440 1
2 -3 11 4421 410 1
-1 3 11 4245 479 1
3 -2 -11 4216 518 1
-3 1 -11 5095 418 1
2 -3 11 5047 490 1
2 1 11 3861 445 1
3 -1 11 4198 401 1
-1 -2 11 4670 504 1
3 -2 11 4387 477 1
-1 -2 -11 3700 506 1
-3 2 -11 4381 407 1
1 -3 11 4148 439 1
-2 -1 11 4197 496 1
2 1 11 4444 513 1
-2 3 -11 4321 353 1
3 -1 11 4502 499 1
-2 -1 -11 3592 496 1
-1 -2 11 4417 484 1
1 -3 -11 4648 469 1
2 -3 -11 4814 497 1
-3 1 -11 3892 477 1
-2 3 -11 4449 464 1
3 -2 11 4086 387 1
-2 3 -12 19377 909 1
-3 1 -12 22556 956 1
-2 3 -12 20836 985 1
1 2 12 19372 971 1
1 -3 12 19431 953 1
1 -3 -12 20095 1000 1
-1 -2 -12 18722 970 1
3 -2 12 20161 992 1
-3 1 -12 19667 982 1
2 -3 12 21164 995 1
3 -2 -12 20616 1003 1
3 -1 12 19267 937 1
-1 -2 -12 18380 1016 1
2 -3 -12 20457 1003 1
-1 -2 12 19178 982 1
-2 -1 -12 18620 949 1
-2 -1 -12 19992 1007 1
-3 2 -12 19801 974 1
2 -3 12 20236 942 1
-3 2 -12 19937 942 1
2 1 12 19161 959 1
3 -1 12 20186 1002 1
3 -2 12 20091 937 1
1 -3 12 20661 997 1
3 -2 13 11 407 1
-3 2 -13 11 478 1
-1 -2 -13 143 454 1
2 -3 13 500 417 1
1 -3 13 268 429 1
-3 2 -13 259 409 1
-3 1 -13 252 431 1
-2 -1 -13 922 427 1
-2 3 -13 47 335 1
1 -3 -13 9 485 1
-2 3 -13 516 467 1
2 -3 -13 11 512 1
-1 -2 -13 11 513 1
-3 1 -13 340 464 1
2 1 13 116 444 1
-2 -1 -13 10 506 1
3 -1 13 10 411 1
-2 -1 -14 15082 811 1
-2 -1 -14 15461 761 1
-1 -2 -14 15163 779 1
3 -1 14 14266 735 1
-3 1 -14 14420 795 1
3 -2 14 15487 729 1
-3 1 -14 17025 771 1
1 -3 -14 15860 845 1
-3 2 -14 15631 797 1
1 -3 14 14182 753 1
-2 3 -14 14676 790 1
2 -3 -14 15789 815 1
-1 -2 -14 14636 823 1
-2 3 -14 14538 671 1
-3 2 -14 17070 747 1
1 -3 -14 15089 811 1
2 -3 14 15575 739 1
-2 3 -15 964 552 1
1 -3 -15 879 567 1
2 -3 -15 411 572 1
-3 2 -15 450 565 1
-2 -1 -15 309 505 1
3 -1 15 0 477 1
-2 3 -15 704 359 1
-2 -1 -15 925 581 1
1 -3 -15 719 603 1
-3 1 -15 992 551 1
-3 2 -15 773 477 1
-1 -2 -15 1013 579 1
3 -2 15 952 471 1
2 -3 15 476 485 1
3 -1 -15 894 615 1
-1 -2 -15 915 517 1
-1 -2 -16 3288 581 1
3 -1 -16 4362 680 1
-2 -1 -16 4227 625 1
3 -2 16 3278 525 1
-2 -1 -16 3405 572 1
-1 -2 -16 2832 637 1
-3 2 -16 2974 622 1
-2 3 -16 3674 615 1
1 -3 -16 3052 608 1
2 -3 -16 3875 650 1
-3 2 -16 3196 537 1
1 -3 -16 3091 690 1
-2 3 -16 2813 400 1
-3 1 -16 2805 616 1
-3 1 -16 3838 525 1
3 -1 -17 611 670 1
2 -3 -17 2 699 1
-3 2 -17 57 534 1
-3 2 -17 549 617 1
-3 1 -17 3 611 1
-2 -1 -17 2 578 1
1 -3 -17 326 660 1
1 -3 -17 300 612 1
2 -3 -17 587 638 1
-3 1 -17 698 534 1
-1 -2 -17 507 565 1
-1 -2 -17 2 658 1
-2 -1 -17 1612 638 1
-2 3 -17 2 611 1
2 -3 -18 1993 679 1
-1 -2 -18 1156 620 1
-3 2 -18 566 663 1
3 -2 -18 1644 725 1
-2 3 -18 1424 660 1
1 -3 -18 1264 731 1
-3 1 -18 1051 567 1
-2 -1 -18 1603 667 1
1 -3 -18 1116 669 1
3 -1 -18 1333 712 1
-2 -1 -18 244 643 1
-3 2 -18 1427 550 1
2 -3 -18 1769 737 1
-3 1 -18 1456 673 1
-1 -2 -18 1229 691 1
-2 -1 -19 1302 667 1
-3 1 -19 721 725 1
-3 2 -19 698 703 1
-1 -2 -19 1560 721 1
-1 -2 -19 1088 679 1
2 -3 -19 961 785 1
3 -2 -19 244 785 1
1 -3 -19 1187 757 1
1 -3 -19 1765 702 1
3 -1 -19 471 731 1
-2 3 -19 1646 682 1
-2 -1 -19 1239 728 1
2 -3 -20 1741 820 1
1 -3 -20 1522 804 1
-3 2 -20 2778 747 1
-1 -2 -20 2990 777 1
1 -3 -20 1583 735 1
-1 -2 -20 2750 694 1
3 -2 -20 3325 832 1
-2 -1 -20 2515 747 1
3 -1 -20 1540 782 1
-3 1 -20 2991 742 1
2 -3 -21 0 834 1
-3 1 -21 0 769 1
1 -3 -21 1579 839 1
-2 -1 -21 580 784 1
3 -2 -21 413 860 1
-3 2 -21 644 759 1
-1 -2 -21 931 804 1
-3 1 -22 2259 818 1
-1 -2 -22 2049 862 1
-3 2 -22 1813 825 1
1 -3 -22 1944 893 1
3 -2 -22 1820 900 1
-2 -1 -22 860 834 1
2 -3 -22 1568 885 1
0 -3 0 73326 2727 1
0 3 0 70273 2722 1
3 -3 0 57497 2694 1
-3 0 0 71119 2720 1
-3 3 0 66514 2708 1
3 -3 0 63508 2708 1
3 -3 1 367 233 1
-3 0 -1 1009 298 1
3 -3 -1 352 300 1
0 -3 -1 617 314 1
-3 3 1 610 233 1
-3 3 1 304 307 1
-3 3 -1 580 217 1
3 0 1 924 295 1
0 -3 1 524 301 1
0 3 1 405 345 1
3 -3 -1 459 246 1
3 -3 -2 284101 15087 1
-3 0 -2 308967 15092 1
3 -3 -2 295047 15093 1
0 3 2 298803 15095 1
-3 3 2 285152 15086 1
0 -3 -2 271859 15095 1
-3 3 2 298932 15093 1
3 0 2 298232 15091 1
3 -3 2 291536 15077 1
-3 0 3 287804 13812 1
3 -3 3 274852 13805 1
3 -3 3 288513 13824 1
3 -3 -3 287575 13827 1
-3 0 -3 282128 13822 1
3 0 3 285065 13822 1
-3 3 3 281695 13825 1
0 -3 -3 283198 13827 1
-3 0 -3 287864 13814 1
0 3 3 293864 13827 1
-3 3 3 269683 13820 1
3 -3 -3 281193 13822 1
3 -3 4 3803 550 1
3 -3 -4 3267 560 1
-3 3 -4 3942 488 1
-3 3 4 3145 558 1
3 -3 4 2569 474 1
0 -3 -4 3418 556 1
-3 0 -4 3157 537 1
0 3 4 2973 573 1
-3 0 -4 2619 495 1
3 -3 -4 3259 550 1
-3 0 4 2639 467 1
3 0 4 3060 547 1
-3 3 4 3468 576 1
-3 0 5 150267 6185 1
-3 3 5 150866 6180 1
0 -3 -5 153798 6181 1
3 -3 5 157065 6175 1
-3 3 -5 156682 6162 1
-3 0 -5 148477 6163 1
-3 0 -5 148735 6177 1
0 3 5 144726 6178 1
3 -3 -5 155511 6183 1
-3 3 5 152084 6181 1
-3 3 -5 154224 6174 1
3 0 5 143217 6177 1
0 3 5 146816 6185 1
3 -3 5 150418 6161 1
3 0 5 146037 6163 1
3 -3 6 254 315 1
-3 0 -6 496 264 1
3 0 6 372 290 1
3 -3 6 465 195 1
0 -3 6 55 349 1
3 0 6 170 378 1
3 -3 6 131 277 1
0 -3 -6 497 355 1
3 -3 -6 8 391 1
0 3 6 497 369 1
-3 0 -6 496 347 1
-3 3 6 193 382 1
-3 0 6 228 397 1
-3 3 -6 93 298 1
-3 3 -6 67 297 1
-3 0 7 136945 4582 1
0 3 7 139757 4577 1
0 -3 7 141438 4540 1
-3 3 -7 144924 4560 1
-3 3 7 142669 4580 1
3 0 7 140572 4576 1
3 -3 -7 141315 4581 1
-3 3 -7 142237 4562 1
3 0 7 137777 4556 1
3 -3 7 144240 4543 1
-3 0 -7 131485 4573 1
-3 0 -7 138068 4555 1
0 -3 -7 144584 4582 1
3 -3 7 143314 4562 1
0 -3 7 138521 4576 1
3 0 8 23230 783 1
3 -3 -8 24100 835 1
3 0 8 23005 841 1
-3 0 -8 21591 771 1
-3 0 -8 21246 807 1
-3 3 -8 22403 776 1
3 -3 8 23236 743 1
-3 0 8 22961 862 1
0 -3 8 21602 822 1
-3 3 -8 22246 781 1
-3 3 8 23058 842 1
0 -3 -8 22464 814 1
0 3 8 22126 832 1
3 -3 8 23778 797 1
0 -3 8 23610 728 1
-3 0 -9 37048 1310 1
-3 0 9 37229 1334 1
-3 3 -9 39627 1294 1
3 -3 -9 39117 1334 1
-3 0 -9 35049 1275 1
0 3 9 37975 1320 1
0 -3 -9 37981 1316 1
0 -3 9 39833 1327 1
3 0 9 37535 1284 1
-3 3 9 39889 1335 1
3 0 9 37116 1321 1
3 -3 9 37711 1265 1
3 -3 -9 38732 1332 1
-3 3 -9 37770 1279 1
3 -3 9 39400 1301 1
3 0 10 17035 882 1
3 0 10 18675 945 1
3 -3 10 18015 860 1
3 -3 -10 19529 940 1
-3 3 10 18291 936 1
0 -3 -10 15821 931 1
-3 3 -10 17983 907 1
3 -3 -10 18156 957 1
-3 3 -10 18317 873 1
0 -3 -10 18765 930 1
-3 3 10 19035 946 1
-3 0 -10 16334 921 1
0 3 10 18644 927 1
-3 0 -10 16625 872 1
3 -3 10 18512 908 1
-3 0 10 18684 947 1
0 -3 10 18278 926 1
0 -3 -11 21646 920 1
0 -3 -11 21773 943 1
3 -3 11 19389 846 1
0 -3 11 20314 926 1
-3 0 -11 19161 909 1
0 -3 11 18820 901 1
-3 0 -11 20305 861 1
-3 3 -11 20294 860 1
-3 3 -11 20945 895 1
3 -3 11 19927 904 1
3 0 11 19867 880 1
0 3 11 20921 913 1
3 0 11 19793 939 1
3 -3 -11 22149 943 1
3 -3 -11 20055 947 1
3 -3 -12 47686 1632 1
0 -3 -12 41409 1631 1
3 0 12 43901 1577 1
-3 0 -12 44131 1570 1
3 -3 12 43355 1599 1
3 -3 -12 41293 1629 1
-3 0 -12 41020 1601 1
-3 3 -12 46294 1561 1
-3 3 -12 44308 1593 1
0 -3 12 39604 1584 1
3 -3 12 42076 1551 1
0 -3 -12 43729 1602 1
3 -3 -13 51825 1904 1
-3 0 -13 50884 1843 1
0 -3 -13 45694 1895 1
3 0 13 49199 1848 1
3 -3 13 47766 1828 1
-3 0 -13 46029 1873 1
0 -3 -13 47340 1871 1
-3 3 -13 49820 1866 1
-3 3 -13 49370 1831 1
0 -3 -14 1181 572 1
-3 0 -14 1065 529 1
3 -3 -14 1309 583 1
3 0 14 642 484 1
3 -3 14 916 437 1
-3 3 -14 1510 412 1
-3 0 -14 1537 475 1
0 -3 -14 1631 518 1
-3 3 -14 1095 504 1
0 -3 -15 30873 1391 1
0 -3 -15 32576 1362 1
3 -3 -15 33732 1394 1
3 0 15 32204 1333 1
3 -3 15 31188 1307 1
-3 3 -15 32787 1365 1
-3 0 -15 34627 1338 1
-3 3 -15 32617 1294 1
-3 0 -15 32203 1377 1
-3 0 -16 7590 651 1
-3 3 -16 6517 535 1
3 -3 -16 6830 707 1
0 -3 -16 6127 649 1
-3 3 -16 6624 665 1
-3 0 -16 6785 681 1
0 -3 -16 7009 726 1
0 -3 -17 8985 806 1
0 -3 -17 7922 728 1
-3 0 -17 9366 723 1
-3 3 -17 8538 586 1
-3 0 -17 6897 738 1
-3 3 -17 7520 741 1
-3 3 -18 1078 657 1
0 -3 -18 1917 702 1
-3 0 -18 2802 666 1
-3 0 -18 3528 635 1
0 -3 -18 1709 644 1
0 -3 -19 13765 864 1
-3 3 -19 10844 874 1
0 -3 -19 11899 916 1
-3 0 -19 11732 852 1
3 -3 -20 2339 805 1
0 -3 -20 1620 795 1
-3 0 -20 810 756 1
-3 3 -20 2300 746 1
0 -3 -20 948 739 1
0 -3 -21 10594 864 1
0 -3 -21 10417 927 1
-3 0 -21 7413 889 1
3 -3 -21 10050 955 1
-3 3 -21 9536 878 1
-2 4 0 7324 317 1
-4 2 0 9227 314 1
-4 2 0 9132 283 1
-2 4 0 6316 272 1
2 -4 0 8075 271 1
4 -2 0 7973 356 1
2 -4 0 8031 314 1
-2 4 2 24183 1542 1
2 -4 -2 24537 1543 1
-4 2 2 22721 1542 1
2 -4 -2 23883 1553 1
-2 4 2 25165 1552 1
4 -2 -2 21687 1537 1
-4 2 -2 23427 1517 1
-4 2 2 22998 1549 1
2 -4 2 24772 1522 1
-2 -2 -2 25493 1560 1
-4 2 4 14355 821 1
-2 4 4 13932 817 1
-2 4 4 12968 809 1
-4 2 -4 11628 747 1
-2 -2 -4 14158 813 1
-4 2 4 14008 815 1
4 -2 4 12011 755 1
2 2 4 11672 810 1
-2 -2 -4 13927 789 1
4 -2 -4 12845 757 1
-4 2 -4 13526 806 1
2 -4 -4 12414 803 1
-2 -2 -6 67738 3247 1
-4 2 -6 66491 3198 1
2 -4 6 71166 3224 1
2 -4 -6 72096 3248 1
-4 2 6 70584 3247 1
2 -4 6 70050 3217 1
4 -2 6 69422 3226 1
-4 2 6 67626 3247 1
-4 2 -6 65987 3222 1
2 2 6 63969 3232 1
2 2 6 67957 3249 1
4 -2 -6 72700 3250 1
-2 -2 -6 68052 3233 1
-2 4 6 73362 3251 1
-4 2 -6 66614 3236 1
2 -4 8 433 271 1
-2 -2 -8 886 361 1
2 2 8 872 377 1
-2 -2 -8 1178 417 1
-4 2 -8 719 348 1
4 -2 8 623 381 1
-4 2 -8 636 250 1
2 2 8 550 459 1
-2 -2 8 916 437 1
-2 4 8 990 451 1
-4 2 -8 694 349 1
4 -2 -8 1337 432 1
2 -4 8 1035 375 1
2 -4 -8 627 410 1
-4 2 8 1157 460 1
4 -2 8 618 262 1
2 -4 -8 1155 430 1
2 -4 -10 1849 492 1
-4 2 -10 1696 422 1
-4 2 -10 2113 354 1
2 2 10 932 434 1
4 -2 10 1945 473 1
-2 -2 -10 1576 479 1
-4 2 10 1761 510 1
2 2 10 1612 521 1
2 -4 10 2364 445 1
-4 2 -10 1720 412 1
4 -2 10 1576 352 1
-2 4 10 1438 478 1
-2 -2 -10 1982 429 1
4 -2 -10 2056 485 1
2 -4 10 1700 386 1
2 -4 -10 1705 494 1
-2 -2 10 2175 494 1
-2 4 10 2011 494 1
4 -2 -12 9082 629 1
2 2 12 8669 534 1
-4 2 -12 9638 518 1
-4 2 -12 9076 526 1
-2 -2 -12 8059 513 1
2 -4 12 9848 569 1
4 -2 12 9626 590 1
2 -4 12 8972 489 1
2 -4 -12 9150 573 1
-2 -2 -12 8858 592 1
4 -2 12 9163 465 1
-2 -2 -14 10695 707 1
-2 -2 -14 10068 780 1
4 -2 14 10596 676 1
-4 2 -14 11712 707 1
2 -4 -14 11102 792 1
-4 2 -14 10031 740 1
2 -4 14 10544 697 1
-4 2 -16 106 578 1
-4 2 -16 247 542 1
-2 -2 -16 619 609 1
2 -4 -16 1 599 1
-2 -2 -16 868 535 1
-2 -2 -18 12 693 1
-4 2 -18 187 616 1
-4 2 -18 772 664 1
-2 -2 -18 956 621 1
2 -4 -18 111 681 1
-2 -2 -20 278 761 1
-4 2 -20 1351 730 1
-2 -2 -20 47 710 1
2 -4 -20 1212 755 1
2 -4 -20 88 809 1
4 -3 0 15436 1184 1
-4 3 0 15132 1181 1
-3 -1 0 17314 1212 1
4 -3 0 14183 1213 1
1 -4 0 17824 1211 1
-4 3 0 14669 1162 1
-1 4 0 17129 1198 1
3 -4 0 16380 1194 1
-3 4 0 16885 1190 1
-3 4 0 17425 1168 1
1 3 0 16092 1209 1
3 -4 0 15303 1172 1
-4 1 0 16111 1208 1
1 -4 0 16668 1200 1
-4 3 -1 43274 1509 1
1 3 1 42970 1548 1
-3 4 1 45008 1538 1
-3 4 -1 46107 1522 1
-4 1 -1 45024 1528 1
-4 3 1 41574 1516 1
3 1 1 41608 1541 1
-4 1 1 43271 1537 1
1 -4 1 46675 1535 1
-4 1 -1 41776 1543 1
-4 3 1 41480 1528 1
1 -4 -1 45766 1542 1
3 -4 -1 43347 1521 1
-1 4 1 45429 1540 1
1 -4 -1 48481 1553 1
3 -4 1 42479 1502 1
3 -4 -1 43812 1539 1
-3 -1 -1 44051 1546 1
-3 4 1 45666 1519 1
4 -3 -1 40747 1531 1
4 -3 1 42425 1514 1
3 -4 1 47221 1528 1
1 -4 2 1525 435 1
4 -3 -2 1077 427 1
3 -4 -2 1216 466 1
4 -1 2 985 424 1
-3 -1 -2 1087 455 1
-3 4 2 1081 428 1
3 -4 2 1112 383 1
4 -3 -2 1012 458 1
-4 3 2 1120 428 1
-1 4 2 1262 479 1
3 -4 -2 1037 436 1
-1 -3 -2 1156 467 1
-4 1 -2 1065 419 1
1 -4 -2 1517 471 1
3 -4 2 1152 361 1
-3 4 2 1259 468 1
-4 3 2 1252 466 1
-1 4 2 1374 469 1
3 1 2 1296 465 1
-4 1 2 798 422 1
-4 3 -2 1452 349 1
1 3 2 1069 487 1
-1 4 3 90338 3246 1
3 -4 -3 95033 3239 1
3 -4 3 95884 3217 1
3 -4 -3 99548 3248 1
-3 -1 -3 96083 3235 1
-4 3 -3 100073 3246 1
4 -3 -3 92039 3245 1
-3 4 3 96165 3245 1
-4 3 3 93911 3243 1
4 -3 -3 93159 3235 1
-1 -3 -3 100276 3248 1
3 1 3 93157 3244 1
-4 3 -3 87737 3208 1
-4 1 3 89157 3224 1
-3 4 3 96403 3237 1
-1 4 3 96588 3244 1
4 -3 3 93486 3208 1
-4 1 -3 96936 3232 1
-3 -1 -3 97009 3245 1
4 -1 3 92790 3230 1
-4 3 3 90874 3234 1
1 -4 -3 98844 3246 1
3 -4 4 113536 3559 1
-3 -1 -4 111361 3572 1
-4 3 4 111864 3584 1
-3 4 4 112887 3585 1
-4 1 -4 112935 3573 1
-4 3 4 110605 3579 1
4 -3 -4 111418 3586 1
-4 3 -4 119270 3583 1
3 -4 -4 118032 3588 1
-4 1 -4 107680 3554 1
4 -3 4 108477 3554 1
4 -3 4 114425 3582 1
-4 3 -4 111222 3553 1
1 3 4 109474 3583 1
3 -4 -4 115987 3585 1
-3 -1 -4 112885 3584 1
3 1 4 109172 3584 1
-1 -3 -4 111540 3583 1
-1 4 4 114456 3586 1
4 -1 4 109869 3571 1
4 -3 -4 111619 3581 1
-3 4 4 114005 3580 1
3 -4 4 113771 3577 1
4 -1 -4 104677 3558 1
-4 1 4 112238 3588 1
1 -4 -4 116917 3591 1
1 -4 -5 14522 1025 1
4 -3 -5 16001 1027 1
-4 1 -5 15233 963 1
4 -3 5 15198 976 1
-4 3 5 15667 1031 1
-3 -1 -5 15659 1026 1
4 -1 5 14986 1006 1
3 -4 -5 16511 1032 1
3 1 5 14847 1030 1
-1 -3 -5 14364 1021 1
1 3 5 14003 1023 1
-3 4 5 15549 1030 1
-4 3 -5 15618 969 1
4 -3 -5 15441 1032 1
-4 3 5 15430 1020 1
-4 1 5 16907 1049 1
3 -4 5 15958 1000 1
-3 -1 -5 14444 989 1
-1 4 5 15958 1040 1
-4 1 -5 15013 998 1
3 -4 5 16145 982 1
-4 3 -5 16382 1012 1
-4 1 5 15580 1034 1
4 -1 -5 13961 963 1
-3 4 5 16533 1026 1
3 1 6 45024 1741 1
3 1 6 45056 1765 1
4 -1 6 42457 1744 1
4 -3 -6 43844 1765 1
-4 1 -6 43194 1739 1
-4 3 6 46039 1762 1
-4 1 -6 42358 1712 1
1 -4 -6 47922 1768 1
-4 1 6 46793 1782 1
3 -4 6 47866 1739 1
-3 -1 -6 47800 1761 1
-4 3 -6 46529 1725 1
-3 4 6 46633 1764 1
4 -1 -6 44791 1706 1
1 -4 -6 45798 1764 1
4 -3 -6 46481 1768 1
4 -3 6 45517 1730 1
1 3 6 45337 1757 1
-4 3 6 46474 1769 1
-3 4 6 46111 1768 1
-1 4 6 46625 1773 1
3 -4 6 45726 1725 1
-1 -3 -6 44617 1754 1
-4 3 -6 46690 1751 1
3 -4 -6 47375 1768 1
-4 1 6 48179 1770 1
-3 -1 -6 44543 1735 1
-3 -1 -7 56701 2461 1
-4 3 7 61565 2493 1
1 3 7 56131 2480 1
3 -4 -7 62718 2496 1
-1 4 7 59458 2498 1
3 -4 7 60639 2458 1
-1 4 7 57855 2488 1
3 1 7 55813 2463 1
4 -1 7 59705 2478 1
4 -3 7 54083 2429 1
1 -4 7 59700 2445 1
-1 -3 -7 54758 2487 1
4 -1 -7 57454 2432 1
-4 1 7 60675 2498 1
-4 1 -7 58903 2470 1
3 1 7 58763 2489 1
-4 3 -7 60235 2459 1
-1 -3 -7 57391 2480 1
-1 -3 7 54716 2484 1
4 -3 7 59886 2463 1
-4 3 -7 61726 2471 1
4 -1 7 55980 2444 1
3 -4 7 63159 2465 1
1 -4 -7 58528 2490 1
1 -4 -7 60597 2491 1
4 -3 -7 63518 2498 1
-4 1 -7 57663 2441 1
1 -4 7 57860 2476 1
-4 3 7 60241 2491 1
-3 -1 -7 58077 2485 1
-3 4 7 60104 2491 1
-1 -3 8 10012 633 1
1 -4 8 11429 528 1
4 -3 8 9533 503 1
-4 3 8 10825 652 1
-3 -1 -8 9978 627 1
1 3 8 9909 618 1
3 -4 -8 11611 647 1
-1 -3 -8 10434 634 1
-1 4 8 10164 647 1
3 1 8 10062 589 1
3 -4 8 10065 525 1
3 1 8 10187 650 1
-1 4 8 11224 665 1
4 -3 8 11492 588 1
-4 3 -8 11398 583 1
1 -4 8 10904 615 1
3 -4 8 12088 569 1
-4 3 -8 11407 570 1
3 -4 8 11771 578 1
-1 -3 8 11143 483 1
-4 1 -8 10701 593 1
-3 4 8 10895 652 1
4 -3 -8 11070 651 1
4 -1 8 9799 541 1
4 -1 8 11147 624 1
4 -1 -8 10598 479 1
1 -4 -8 10622 631 1
-4 1 8 11571 656 1
-1 -3 -8 10384 613 1
-3 -1 -8 9415 573 1
-4 1 -8 9918 529 1
-3 -1 -9 29684 1242 1
4 -3 9 31000 1252 1
-4 3 -9 32331 1247 1
1 -4 -9 30037 1275 1
-1 -3 9 30527 1274 1
3 -4 -9 31949 1286 1
-1 4 9 31363 1295 1
-1 -3 -9 30077 1269 1
-4 1 -9 29163 1253 1
3 1 9 29220 1291 1
-3 -1 9 28845 1294 1
1 -4 9 31163 1274 1
1 3 9 29812 1264 1
-4 3 -9 30508 1242 1
-3 4 9 32297 1292 1
-4 3 9 32248 1293 1
4 -1 9 31059 1273 1
4 -3 -9 31235 1295 1
3 -4 9 32889 1252 1
3 -4 -9 30559 1285 1
1 3 9 29095 1294 1
-4 1 9 31369 1290 1
3 1 9 31598 1247 1
-1 -3 -9 30003 1286 1
-1 4 9 29370 1278 1
3 -4 9 30720 1211 1
-4 1 -9 29294 1212 1
4 -1 9 29418 1218 1
4 -3 9 29079 1203 1
-3 -1 -9 28555 1277 1
1 -4 9 32461 1209 1
4 -3 -10 8679 621 1
4 -1 10 8133 490 1
1 3 10 7271 559 1
-1 -3 -10 6969 542 1
-3 -1 -10 6870 518 1
4 -3 10 7723 557 1
-1 -3 -10 7377 596 1
1 -4 -10 7446 577 1
-4 3 -10 7472 527 1
-4 1 -10 7748 547 1
3 -4 10 7525 469 1
-3 -1 -10 8123 584 1
-4 1 -10 7789 474 1
4 -1 -10 6911 376 1
3 -4 10 8052 555 1
-3 4 10 7485 601 1
1 -4 10 7994 573 1
4 -3 10 7412 456 1
3 -4 -10 8282 613 1
-1 4 10 6899 582 1
-3 4 -10 7854 537 1
4 -1 10 7819 585 1
4 -3 -10 7773 605 1
3 1 10 6861 525 1
-1 -3 10 7585 586 1
-4 3 10 7604 606 1
-3 -1 10 6287 619 1
3 1 10 8048 613 1
3 -4 -10 8481 605 1
-4 3 -10 7478 528 1
-3 -1 -11 30362 1297 1
3 -4 -11 36033 1321 1
3 -4 11 33632 1287 1
1 3 11 29835 1281 1
-4 1 -11 34615 1241 1
-4 3 -11 33024 1262 1
-3 -1 -11 29612 1257 1
4 -1 11 31488 1303 1
-1 -3 -11 30796 1314 1
4 -1 11 32119 1243 1
1 -4 11 28882 1264 1
-3 4 -11 32743 1268 1
4 -3 -11 34123 1321 1
4 -3 -11 33596 1328 1
3 1 11 31649 1266 1
3 -4 11 32716 1237 1
1 -4 11 32011 1292 1
1 -4 -11 32560 1306 1
-1 -3 -11 30703 1285 1
4 -3 11 33031 1286 1
4 -3 11 29657 1224 1
-4 3 -11 32208 1268 1
-4 1 -11 31346 1285 1
3 -4 -11 33441 1324 1
1 -4 -12 2561 487 1
-3 -1 -12 1661 409 1
3 -4 -12 1011 521 1
4 -3 -12 1416 534 1
4 -3 12 1338 349 1
3 -4 12 1286 371 1
-4 1 -12 2897 392 1
-3 4 -12 1303 434 1
-3 -1 -12 1829 484 1
4 -1 12 1534 510 1
-1 -3 -12 2140 515 1
4 -3 -12 2694 542 1
-4 3 -12 1622 448 1
-4 3 -12 1274 413 1
-1 -3 -12 2148 457 1
3 1 12 2757 432 1
4 -3 12 2207 479 1
3 -4 -12 1890 531 1
-4 1 -12 1607 463 1
3 -4 12 1735 478 1
1 -4 12 1375 438 1
4 -1 12 2128 383 1
4 -3 -13 30721 1234 1
1 -4 13 26472 1152 1
-3 -1 -13 28546 1147 1
4 -3 -13 28676 1228 1
3 1 13 28397 1158 1
-4 3 -13 30344 1157 1
-1 -3 -13 26074 1221 1
-3 4 -13 26404 1164 1
1 -4 -13 28997 1199 1
4 -3 13 27325 1118 1
3 -4 -13 27002 1225 1
-4 3 -13 29281 1179 1
-1 -3 -13 27759 1181 1
3 -4 -13 30255 1226 1
-4 1 -13 32041 1146 1
-3 -1 -13 26858 1204 1
4 -3 13 28790 1191 1
4 -1 13 27582 1140 1
3 -4 13 27336 1127 1
-4 1 -13 27362 1181 1
3 -4 14 17006 881 1
4 -3 14 17739 870 1
3 -4 -14 17546 1013 1
-4 1 -14 17308 944 1
-3 4 -14 17464 929 1
1 -4 -14 18800 974 1
3 -4 -14 19869 988 1
-4 1 -14 21827 917 1
3 1 14 18626 923 1
-1 -3 -14 19575 997 1
-4 3 -14 20649 905 1
-3 -1 -14 17362 969 1
-4 3 -14 19908 951 1
4 -3 -14 18183 1010 1
4 -1 14 19133 900 1
-1 -3 -14 18299 943 1
4 -3 15 14558 767 1
-3 -1 -15 13411 866 1
-4 1 -15 14268 850 1
4 -3 -15 14083 915 1
-3 -1 -15 16223 815 1
-1 -3 -15 14570 886 1
3 -4 -15 15143 893 1
-3 4 -15 14685 841 1
-1 -3 -15 16135 847 1
-4 3 -15 16177 803 1
3 -4 15 14074 779 1
-4 1 -15 18048 838 1
-4 3 -15 15073 862 1
4 -1 15 15607 801 1
1 -4 -15 15616 874 1
-3 -1 -16 2335 618 1
-4 1 -16 1709 591 1
3 -4 -16 3290 682 1
-1 -3 -16 3664 592 1
1 -4 -16 1914 655 1
-4 3 -16 2399 594 1
-4 3 -16 2076 523 1
-3 4 -16 1709 571 1
1 -4 -16 3203 608 1
-3 -1 -16 2477 546 1
-1 -3 -16 2310 649 1
-4 1 -17 8104 640 1
-4 1 -17 7580 724 1
-1 -3 -17 8731 700 1
-4 3 -17 7775 641 1
-1 -3 -17 9070 770 1
-3 -1 -17 7475 747 1
1 -4 -17 8775 782 1
3 -4 -17 8747 782 1
1 -4 -17 9542 731 1
-3 -1 -17 9503 682 1
-4 3 -17 8805 719 1
-4 3 -18 4690 702 1
-4 3 -18 5018 596 1
-1 -3 -18 4761 760 1
1 -4 -18 5724 756 1
-4 1 -18 4682 706 1
-4 1 -18 3411 595 1
-1 -3 -18 6152 669 1
-3 -1 -18 5009 705 1
-3 -1 -18 5657 649 1
1 -4 -18 4682 718 1
3 -4 -18 5687 764 1
-4 3 -19 6918 784 1
-3 -1 -19 8302 755 1
1 -4 -19 6840 843 1
-4 1 -19 6324 666 1
3 -4 -19 7333 818 1
-1 -3 -19 7586 732 1
-3 -1 -19 6109 773 1
1 -4 -19 8603 778 1
-4 1 -19 5813 775 1
-1 -3 -19 6157 821 1
-4 3 -20 1627 765 1
-1 -3 -20 1527 699 1
-3 -1 -20 1722 774 1
-4 1 -20 1552 749 1
1 -4 -20 393 790 1
-1 -3 -20 2367 778 1
-3 -1 -20 2162 711 1
1 -4 -20 2204 779 1
1 -4 -21 5978 849 1
-1 -3 -21 7759 832 1
1 -4 -21 7136 899 1
-4 3 -21 6555 839 1
-3 -1 -21 5815 855 1
-1 -3 -21 5992 878 1
-4 1 -21 5479 844 1
-4 0 0 65111 2300 1
4 -4 0 59545 2262 1
-4 4 0 58640 2279 1
0 4 0 62139 2296 1
4 -4 0 58988 2281 1
-4 4 0 61282 2259 1
0 -4 0 63519 2299 1
-4 4 -1 125 234 1
4 -4 1 106 241 1
0 -4 1 95 326 1
4 -4 -1 92 224 1
-4 4 1 0 292 1
0 -4 -1 84 329 1
0 4 1 43 343 1
-4 4 1 93 220 1
-4 0 -1 27 306 1
4 -4 -1 118 294 1
4 0 2 53540 2968 1
4 -4 2 57909 2949 1
-4 4 2 52684 2958 1
0 -4 -2 56302 2980 1
4 -4 -2 56545 2962 1
-4 0 -2 58531 2971 1
4 -4 -2 55015 2972 1
0 -4 2 59817 2974 1
-4 4 2 56296 2972 1
-4 4 -2 58772 2946 1
0 4 2 57902 2978 1
4 -4 -3 8393 350 1
0 -4 -3 10195 393 1
-4 0 3 7888 322 1
-4 4 3 8288 402 1
-4 0 -3 7745 368 1
4 -4 -3 8666 390 1
-4 4 3 8417 352 1
0 4 3 9415 417 1
4 -4 3 7582 238 1
4 0 3 7967 376 1
4 -4 3 8291 386 1
-4 0 -4 108402 3288 1
-4 4 4 114436 3313 1
4 -4 4 109600 3272 1
4 -4 4 111922 3268 1
4 -4 4 114295 3307 1
0 -4 -4 113592 3313 1
4 -4 -4 111306 3314 1
0 4 4 111004 3314 1
-4 0 -4 114184 3302 1
4 0 4 112134 3305 1
0 -4 -4 111464 3314 1
4 -4 -4 112803 3304 1
-4 0 4 113314 3284 1
-4 4 4 112340 3303 1
-4 0 -5 3 291 1
0 4 5 59 398 1
4 -4 5 9 357 1
-4 4 5 162 405 1
4 -4 5 682 150 1
0 -4 -5 443 370 1
-4 0 5 36 203 1
-4 0 -5 18 356 1
4 -4 -5 609 395 1
4 -4 -5 208 366 1
4 0 5 71 359 1
0 4 5 649 412 1
4 -4 5 23 209 1
-4 4 5 175 364 1
-4 0 -6 301031 10614 1
4 -4 6 313809 10610 1
-4 0 -6 302259 10597 1
-4 4 -6 311503 10593 1
0 4 6 305192 10617 1
4 -4 -6 312674 10622 1
4 -4 -6 313951 10619 1
0 4 6 307279 10620 1
4 -4 6 301890 10581 1
4 0 6 305665 10613 1
4 -4 6 306870 10594 1
0 -4 -6 313471 10619 1
-4 0 6 307035 10622 1
-4 4 6 317311 10618 1
-4 4 6 312059 10614 1
4 -4 7 62195 2083 1
4 -4 7 63873 2105 1
0 -4 -7 60507 2114 1
-4 4 7 61948 2119 1
-4 4 7 62286 2118 1
0 4 7 60107 2119 1
-4 0 7 58720 2127 1
4 0 7 59467 2113 1
-4 0 -7 58799 2111 1
-4 0 -7 58821 2083 1
4 -4 7 58271 2056 1
4 -4 -7 62171 2119 1
0 4 7 60691 2130 1
-4 4 -7 62479 2084 1
4 -4 -8 81034 3224 1
-4 4 -8 79957 3185 1
0 -4 -8 79524 3216 1
4 -4 8 74282 3158 1
4 -4 8 80010 3187 1
-4 4 8 79123 3213 1
0 -4 8 74136 3208 1
-4 4 8 77484 3212 1
0 -4 8 74531 3163 1
0 4 8 76893 3209 1
-4 0 -8 75260 3179 1
4 0 8 77466 3209 1
0 4 8 76008 3223 1
-4 4 -8 81085 3196 1
-4 0 8 74521 3216 1
-4 0 -8 76564 3208 1
-4 4 -9 1400 358 1
-4 4 9 1232 453 1
4 0 9 1476 332 1
4 -4 9 1239 243 1
4 0 9 1038 440 1
-4 0 -9 1473 315 1
-4 0 9 1302 459 1
0 -4 9 1395 407 1
4 -4 -9 1255 466 1
0 -4 -9 1292 430 1
4 -4 9 1712 362 1
0 4 9 1124 427 1
-4 0 -9 1991 416 1
0 -4 9 1182 256 1
-4 4 -9 904 348 1
4 0 10 68195 2533 1
-4 4 -10 68199 2503 1
-4 4 -10 67434 2501 1
4 0 10 66547 2495 1
4 -4 -10 70603 2546 1
-4 0 -10 64754 2519 1
4 -4 10 62112 2471 1
0 -4 -10 65087 2523 1
0 4 10 64041 2522 1
0 -4 10 63163 2522 1
4 -4 10 66730 2508 1
-4 0 -10 62292 2489 1
-4 4 -11 1572 394 1
4 -4 -11 2291 504 1
-4 0 -11 1554 451 1
4 -4 11 1406 444 1
0 -4 -11 1068 465 1
4 -4 11 1105 308 1
4 0 11 1588 390 1
-4 4 -11 1665 419 1
4 0 11 1781 520 1
4 -4 -11 2146 530 1
-4 0 -12 55761 2288 1
4 -4 -12 56592 2353 1
-4 0 -12 52945 2326 1
4 -4 12 48995 2268 1
4 -4 12 56083 2318 1
4 0 12 55096 2296 1
0 -4 -12 52951 2321 1
-4 4 -12 53320 2305 1
4 -4 -12 53922 2356 1
-4 4 -12 54005 2295 1
-4 4 -13 6062 513 1
0 -4 -13 6350 643 1
4 -4 -13 6352 658 1
0 -4 -13 6264 593 1
4 -4 -13 6910 675 1
-4 0 -13 5287 596 1
4 0 13 6128 531 1
4 -4 13 5815 469 1
-4 4 -13 5822 568 1
-4 0 -13 6074 506 1
4 -4 13 5930 595 1
0 -4 -14 18130 830 1
4 0 14 14791 773 1
-4 0 -14 15565 762 1
-4 4 -14 15255 756 1
4 -4 -14 15818 916 1
4 -4 14 13973 725 1
0 -4 -14 17038 867 1
-4 0 -14 15146 823 1
-4 4 -14 17163 805 1
4 -4 -14 17137 901 1
-4 0 -15 10 568 1
-4 4 -15 572 556 1
-4 4 -15 806 457 1
0 -4 -15 1696 556 1
-4 0 -15 374 483 1
4 0 15 726 511 1
4 -4 -15 63 640 1
0 -4 -15 1440 605 1
4 -4 -15 1144 640 1
-4 4 -16 38348 1679 1
-4 4 -16 37873 1620 1
-4 0 -16 38321 1694 1
4 -4 -16 43338 1731 1
0 -4 -16 39325 1726 1
-4 0 -16 42892 1650 1
4 -4 -16 39396 1745 1
0 -4 -16 40668 1681 1
-4 0 -17 1411 633 1
0 -4 -17 586 622 1
-4 4 -17 591 616 1
-4 0 -17 1244 586 1
4 -4 -17 1504 696 1
0 -4 -17 788 693 1
4 -4 -17 640 718 1
4 -4 -18 18516 1173 1
0 -4 -18 20098 1099 1
-4 0 -18 20751 1108 1
-4 4 -18 20066 1086 1
0 -4 -18 18526 1144 1
-4 0 -18 22968 1074 1
-4 0 -19 1957 721 1
-4 0 -19 21 680 1
-4 4 -19 363 697 1
0 -4 -19 20 772 1
0 -4 -19 794 686 1
-4 4 -20 13296 992 1
0 -4 -20 14610 1042 1
-4 0 -20 16256 1023 1
0 -4 -20 15996 976 1
-4 0 -21 35 787 1
0 -4 -21 941 840 1
0 -4 -21 36 765 1
-3 5 0 51068 2279 1
-5 3 0 44691 2269 1
2 -5 0 52245 2290 1
3 -5 0 50976 2268 1
-3 5 0 51521 2266 1
5 -3 0 47837 2292 1
-2 5 0 50316 2275 1
2 -5 0 49252 2278 1
-5 2 0 47628 2288 1
-3 -2 0 51645 2296 1
3 -5 0 51640 2285 1
3 -5 -1 7892 466 1
-3 5 1 10362 465 1
-3 5 1 9773 418 1
3 -5 1 9247 385 1
-5 2 -1 8778 402 1
-5 3 1 8469 417 1
-5 2 -1 8969 473 1
5 -3 -1 8586 471 1
3 -5 1 9597 437 1
2 -5 -1 9459 470 1
-5 2 1 8224 449 1
5 -2 -1 8668 461 1
2 -5 -1 9539 441 1
-3 -2 -1 9358 479 1
3 2 1 8219 478 1
2 -5 1 9652 468 1
2 -5 1 10277 426 1
-2 5 1 9957 483 1
-5 3 -1 8076 391 1
-3 -2 1 9124 473 1
5 -3 1 8181 480 1
-2 5 1 9737 442 1
-5 3 1 8657 436 1
-5 3 -1 8412 367 1
3 -5 -1 7829 427 1
3 2 2 10242 895 1
-3 5 2 12251 867 1
-5 3 -2 10506 824 1
5 -3 -2 11134 879 1
2 -5 -2 11855 888 1
-5 2 2 11079 892 1
-5 2 -2 10750 844 1
3 -5 2 12107 864 1
-5 2 2 10113 872 1
-2 5 2 12009 883 1
-3 5 2 11731 893 1
-5 3 2 10763 882 1
2 -5 2 13969 888 1
3 -5 2 11734 834 1
3 -5 -2 11942 882 1
-5 3 -2 10612 826 1
-3 -2 -2 10204 895 1
-2 5 2 12042 898 1
2 -5 2 11584 855 1
5 -2 -2 9833 874 1
3 -5 -2 11671 894 1
-5 3 2 10568 869 1
2 -5 -2 13188 906 1
-5 3 3 2736 362 1
3 -5 3 1121 257 1
-5 2 -3 2484 251 1
2 -5 -3 1719 362 1
5 -3 -3 2145 320 1
2 -5 -3 2097 338 1
-5 2 3 1757 392 1
-2 5 3 482 390 1
-3 -2 -3 1842 346 1
-3 5 3 3600 327 1
-5 3 -3 2524 196 1
-3 -2 -3 2354 363 1
-3 5 3 3782 371 1
2 -5 3 1811 239 1
-5 3 3 2939 329 1
5 -2 3 1462 252 1
5 -2 -3 2630 300 1
-2 5 3 1704 336 1
3 2 3 1676 371 1
3 -5 -3 3872 359 1
3 -5 3 1624 216 1
5 -3 3 1455 189 1
-5 2 3 1870 353 1
3 -5 -3 3642 370 1
-2 -3 -3 1633 344 1
-5 2 4 67371 1979 1
-5 3 -4 61829 1922 1
2 -5 -4 66179 1967 1
-3 -2 -4 67287 1957 1
-3 -2 -4 68464 1976 1
-3 5 4 72991 1979 1
3 2 4 65660 1976 1
5 -2 -4 63609 1941 1
-5 3 4 65266 1961 1
-5 2 -4 63386 1935 1
-5 3 4 66615 1970 1
-5 3 -4 66704 1969 1
-2 -3 -4 67101 1967 1
5 -2 4 64900 1937 1
5 -3 4 64756 1923 1
-2 5 4 67399 1966 1
-5 2 -4 60536 1915 1
3 -5 -4 70645 1980 1
-3 5 4 66764 1962 1
-2 -3 -4 63206 1970 1
3 -5 -4 68699 1965 1
-2 5 4 69620 1975 1
-5 2 4 67231 1966 1
-2 5 5 13018 521 1
5 -2 5 12620 430 1
-2 5 5 13518 506 1
-2 -3 -5 11703 501 1
5 -2 -5 13532 407 1
2 -5 -5 13998 502 1
-5 3 5 13590 517 1
-5 2 5 13751 536 1
-5 2 -5 13150 344 1
-5 2 5 13948 516 1
-5 3 5 13802 495 1
-2 -3 -5 14356 479 1
5 -3 -5 12065 504 1
5 -3 5 12374 393 1
3 -5 5 13314 419 1
3 -5 -5 13978 506 1
3 -5 -5 13040 510 1
3 2 5 13039 525 1
-5 2 -5 12973 474 1
-5 2 -5 13003 411 1
-3 -2 -5 14229 512 1
-3 5 5 13330 500 1
-5 3 -5 12558 477 1
-3 5 5 13533 528 1
-3 -2 -5 12856 457 1
-5 3 -5 12143 384 1
3 -5 -6 1980 403 1
-5 2 -6 212 194 1
-2 -3 -6 1711 359 1
-3 5 6 2044 418 1
2 3 6 882 399 1
-5 2 -6 972 317 1
2 -5 -6 2031 407 1
5 -2 6 864 340 1
-2 -3 -6 2311 413 1
2 3 6 962 432 1
-5 3 6 1393 421 1
5 -3 6 1309 294 1
-2 5 6 1234 426 1
3 -5 6 2772 315 1
-3 -2 -6 1659 360 1
-5 3 -6 2378 379 1
5 -3 -6 2033 406 1
-5 3 -6 2068 276 1
3 2 6 1649 428 1
-5 2 -6 2519 390 1
-3 5 6 690 425 1
-5 2 6 1807 428 1
-3 -2 -6 1922 399 1
-5 2 6 1616 434 1
5 -2 -6 2198 270 1
3 -5 6 2106 312 1
-5 3 6 2058 406 1
-2 -3 -7 10184 513 1
-3 -2 -7 9969 504 1
-5 2 -7 10132 475 1
-3 5 7 10572 566 1
5 -2 -7 10757 425 1
-5 2 -7 9765 391 1
5 -3 -7 11150 557 1
2 -5 7 9649 475 1
-5 3 7 10449 568 1
-5 3 -7 11125 525 1
5 -3 7 10677 483 1
2 -5 -7 9974 557 1
-5 3 -7 10422 451 1
3 -5 -7 11227 554 1
-3 5 7 10634 556 1
3 -5 7 10587 468 1
2 3 7 9721 531 1
3 2 7 10120 516 1
-5 2 -7 9720 509 1
3 2 7 10419 575 1
-5 3 7 10784 564 1
-2 -3 -7 10679 558 1
2 -5 7 10941 440 1
5 -2 7 10155 502 1
2 3 7 9080 569 1
-2 5 7 11745 575 1
-5 2 7 11058 572 1
-3 -2 -7 10096 546 1
3 -5 7 10377 464 1
-5 2 7 10536 574 1
3 -5 -8 10610 647 1
-3 -2 -8 9923 576 1
-5 2 8 11198 644 1
2 -5 -8 11213 623 1
-5 3 -8 11309 592 1
-5 2 8 11643 653 1
-5 2 -8 11406 601 1
-5 2 -8 11122 490 1
-5 3 8 10741 632 1
5 -3 -8 11055 650 1
2 3 8 10163 650 1
3 -5 8 10878 549 1
-2 -3 8 10159 634 1
-2 -3 -8 11142 626 1
3 2 8 10251 591 1
2 -5 8 10931 509 1
5 -2 -8 10720 496 1
2 -5 -8 10981 637 1
-5 3 -8 10280 550 1
2 -5 8 10920 575 1
5 -2 8 10671 588 1
-5 2 -8 9498 555 1
-3 -2 -8 10602 634 1
3 -5 8 11831 552 1
3 2 8 10114 636 1
-3 5 8 11691 651 1
2 3 8 10274 607 1
-2 -3 -8 11323 602 1
-5 3 8 11828 640 1
-2 5 8 11181 654 1
-5 2 -9 1847 371 1
3 -5 9 2653 338 1
-3 -2 -9 1945 388 1
5 -3 -9 2597 492 1
-5 3 -9 1938 376 1
2 -5 9 2330 423 1
2 3 9 2070 427 1
5 -2 9 1611 265 1
3 -5 -9 2251 493 1
5 -3 9 2026 236 1
2 -5 -9 1994 470 1
-5 2 -9 2216 408 1
-2 5 9 1673 464 1
3 2 9 1622 474 1
5 -2 9 2009 429 1
-5 3 -9 2658 410 1
3 2 9 1902 400 1
-2 -3 -9 1855 446 1
-3 5 9 2496 474 1
-5 2 -9 2083 283 1
3 -5 9 2234 376 1
-3 -2 -9 2411 462 1
-5 2 9 2243 471 1
2 -5 -9 2116 438 1
5 -3 9 2099 403 1
-2 -3 -9 2079 404 1
2 3 9 2746 481 1
-2 5 9 1980 476 1
2 -5 9 1739 288 1
-2 -3 9 1856 469 1
5 -2 -9 1918 256 1
-5 3 9 2093 468 1
5 -3 10 8722 371 1
3 -5 10 10782 508 1
5 -2 10 9141 527 1
5 -2 10 8975 392 1
2 -5 -10 9579 532 1
3 2 10 9314 509 1
-5 2 -10 9128 492 1
-2 -3 -10 10061 530 1
5 -3 10 9612 517 1
5 -3 -10 9474 592 1
2 3 10 9071 524 1
-5 2 -10 10999 405 1
-3 -2 -10 8588 549 1
-5 3 -10 10119 505 1
-2 -3 -10 9231 558 1
2 -5 10 9781 398 1
-5 2 -10 10337 506 1
3 -5 -10 10426 554 1
-3 -2 -10 9557 498 1
2 -5 10 10086 522 1
3 -5 -10 9649 561 1
-5 3 -10 9867 469 1
2 -5 -10 8745 580 1
-3 -2 -11 3859 431 1
2 -5 11 3537 481 1
-5 2 -11 3102 422 1
-2 -3 -11 3387 452 1
-5 2 -11 4338 364 1
3 -5 -11 2944 508 1
3 -5 11 3355 467 1
5 -2 11 3515 492 1
2 -5 -11 3260 513 1
2 3 11 2976 469 1
5 -3 -11 4161 547 1
3 -5 11 2970 359 1
-5 3 -11 2985 431 1
-5 3 -11 4221 451 1
-5 2 -11 3744 446 1
3 -5 -11 3354 537 1
5 -2 11 3419 342 1
-3 -2 -11 3329 502 1
-2 -3 -11 2786 495 1
3 2 11 2893 454 1
5 -3 11 4130 484 1
2 -5 -11 2456 501 1
5 -3 11 3335 318 1
-5 2 -12 2384 456 1
2 -5 -12 2479 549 1
5 -3 12 2035 516 1
-5 3 -12 2020 463 1
2 -5 12 2505 429 1
-3 -2 -12 2551 527 1
5 -2 12 2039 375 1
-2 -3 -12 2507 457 1
5 -2 12 2998 542 1
2 -5 12 2266 524 1
5 -3 -12 2343 589 1
-5 2 -12 3298 409 1
3 -5 12 2700 504 1
2 -5 -12 2055 540 1
-2 -3 -12 1869 528 1
3 2 12 2552 487 1
5 -3 12 2158 366 1
3 -5 12 2542 392 1
-5 3 -12 2998 477 1
3 -5 -12 1599 546 1
3 -5 -12 1714 564 1
-5 2 -12 2424 470 1
-3 -2 -12 2749 459 1
5 -2 13 737 399 1
5 -3 -13 673 589 1
-5 3 -13 797 474 1
-5 3 -13 1046 491 1
-2 -3 -13 701 553 1
2 -5 13 59 445 1
-5 2 -13 842 467 1
-5 2 -13 1418 487 1
-2 -3 -13 926 479 1
3 -5 13 1170 406 1
3 -5 -13 221 580 1
3 -5 -13 228 562 1
-3 -2 -13 415 458 1
5 -3 13 852 381 1
2 -5 -13 995 579 1
2 -5 -13 20 550 1
-3 -2 -13 19 543 1
5 -3 13 1101 553 1
-2 -3 -14 24894 1087 1
3 -5 14 23784 1032 1
5 -3 14 24594 1017 1
-5 2 -14 24496 1065 1
-2 -3 -14 24466 1131 1
5 -3 -14 25541 1155 1
2 -5 -14 24560 1126 1
3 -5 -14 26382 1136 1
5 -2 14 25825 1025 1
-3 -2 -14 25036 1123 1
2 -5 14 22818 1044 1
-5 2 -14 23056 1083 1
-3 -2 -14 25425 1067 1
3 -5 -14 23571 1149 1
-5 3 -14 25503 1086 1
-5 3 -14 24505 1067 1
-3 -2 -15 252 601 1
-3 -2 -15 0 510 1
-5 3 -15 400 552 1
3 -5 -15 671 644 1
3 -5 -15 501 607 1
-5 2 -15 369 510 1
-5 2 -15 1 545 1
-2 -3 -15 66 537 1
5 -3 -15 254 642 1
-2 -3 -15 0 616 1
2 -5 -15 1 597 1
3 -5 15 0 476 1
-2 -3 -16 3 637 1
-3 -2 -16 1103 620 1
5 -3 -16 2 689 1
2 -5 -16 3 630 1
-5 2 -16 345 585 1
3 -5 -16 244 675 1
-2 -3 -16 721 558 1
-5 3 -16 305 600 1
-5 2 -16 1 545 1
-5 3 -16 2 566 1
3 -5 -16 1 655 1
-3 -2 -16 104 532 1
3 -5 -17 3714 744 1
-2 -3 -17 3152 710 1
-5 3 -17 4762 627 1
2 -5 -17 4590 704 1
3 -5 -17 4233 713 1
-3 -2 -17 4668 706 1
5 -3 -17 3558 773 1
-5 2 -17 2717 660 1
-5 2 -17 4592 629 1
-3 -2 -17 4084 599 1
-2 -3 -17 2873 631 1
-5 3 -17 3955 661 1
-3 -2 -18 2070 638 1
-5 3 -18 2089 669 1
-5 2 -18 1987 650 1
-2 -3 -18 679 730 1
-3 -2 -18 2699 726 1
3 -5 -18 1864 734 1
-5 3 -18 1214 631 1
-5 2 -18 2321 670 1
2 -5 -18 1810 719 1
5 -3 -18 690 775 1
-2 -3 -18 2120 657 1
-2 -3 -19 1086 658 1
5 -3 -19 217 799 1
-3 -2 -19 819 651 1
-5 2 -19 1175 671 1
-2 -3 -19 1062 756 1
2 -5 -19 992 730 1
3 -5 -19 609 778 1
-5 3 -19 662 694 1
-3 -2 -19 467 747 1
-5 2 -19 0 704 1
-5 3 -20 1211 727 1
-2 -3 -20 909 783 1
3 -5 -20 85 792 1
-5 2 -20 642 747 1
-2 -3 -20 1069 710 1
-3 -2 -20 1890 777 1
2 -5 -20 624 775 1
-3 -2 -20 0 694 1
-3 -2 -21 1521 805 1
-5 2 -21 3 797 1
-2 -3 -21 3 815 1
-3 -2 -21 1109 787 1
3 -5 -21 1099 829 1
-5 3 -21 198 783 1
2 -5 -21 152 820 1
-2 -3 -21 155 754 1
-5 1 0 171 317 1
-4 5 0 241 212 1
-1 -4 0 233 372 1
5 -4 0 330 366 1
-5 4 0 367 285 1
1 -5 0 430 368 1
1 -5 0 204 347 1
-4 5 0 107 304 1
5 -4 0 61 292 1
-5 4 0 643 187 1
4 -5 0 230 305 1
1 4 0 73 353 1
-5 1 0 360 353 1
-4 -1 0 301 361 1
4 -5 0 164 244 1
-1 5 0 293 338 1
5 -4 1 107848 3267 1
4 -5 -1 119704 3264 1
-4 5 -1 122916 3247 1
1 -5 1 123545 3263 1
-5 4 1 111953 3238 1
4 -5 1 121433 3252 1
1 -5 -1 122651 3268 1
-5 4 1 119940 3254 1
1 -5 -1 122918 3275 1
-5 1 -1 124075 3259 1
5 -4 -1 116692 3255 1
1 4 1 125067 3271 1
-4 5 1 123582 3259 1
-1 -4 1 113763 3271 1
5 -4 1 117002 3242 1
4 -5 -1 113552 3244 1
-1 5 1 123706 3263 1
-4 -1 -1 120542 3273 1
4 -5 1 114442 3232 1
-5 1 1 121679 3266 1
-4 5 1 118974 3240 1
-1 -4 -1 119205 3273 1
-5 4 -1 117628 3240 1
-5 1 -1 116555 3267 1
1 -5 -2 1378 341 1
-5 1 -2 2000 285 1
4 -5 -2 1339 360 1
-1 5 2 1378 381 1
-5 4 2 2011 266 1
4 -5 2 1339 269 1
-4 5 2 2014 275 1
4 1 2 1350 344 1
-4 5 2 1339 343 1
5 -4 -2 2177 288 1
-1 5 2 1674 357 1
4 -5 2 1339 149 1
-5 4 2 1809 325 1
-4 -1 -2 2398 341 1
4 -5 -2 3135 280 1
-1 -4 -2 2318 349 1
5 -4 2 2210 203 1
1 -5 -2 1378 360 1
-1 -4 2 2201 345 1
1 -5 2 1382 329 1
1 4 2 1786 380 1
5 -4 -2 1335 342 1
-5 4 -2 1986 188 1
-5 1 2 2849 325 1
4 -5 -3 43622 1952 1
-1 5 3 44409 1972 1
-5 4 3 40414 1944 1
5 -4 -3 44326 1948 1
4 -5 3 42239 1912 1
-5 4 3 43600 1960 1
4 -5 -3 43998 1967 1
-5 1 3 38065 1941 1
4 1 3 39737 1958 1
-4 5 3 44055 1946 1
5 -4 -3 42199 1967 1
-1 -4 -3 48330 1977 1
-4 5 3 46339 1964 1
-1 5 3 41696 1964 1
-4 -1 -3 40490 1959 1
-5 1 -3 41989 1945 1
5 -1 3 41929 1943 1
1 4 3 43118 1968 1
4 -5 3 45355 1926 1
1 -5 3 43979 1954 1
1 -5 -3 43298 1967 1
-5 4 4 33819 1132 1
4 -5 4 35696 1129 1
-4 5 4 35578 1141 1
5 -1 4 31568 1109 1
-5 4 4 32937 1116 1
-4 -1 -4 31684 1108 1
-4 5 4 35597 1122 1
-5 1 4 31644 1087 1
1 4 4 32753 1142 1
-1 -4 -4 33182 1132 1
4 -5 4 34114 1070 1
-1 5 4 32997 1138 1
5 -4 -4 32302 1138 1
-4 -1 -4 33374 1136 1
1 -5 -4 34526 1141 1
5 -4 -4 35381 1117 1
5 -4 4 31738 1051 1
-5 1 -4 33609 1107 1
4 1 4 31271 1125 1
4 -5 -4 35760 1128 1
4 -5 -4 33904 1139 1
-5 4 -4 30568 1051 1
5 -4 4 34786 1134 1
4 -5 4 33726 1067 1
4 -5 -5 110473 4469 1
-5 1 5 106352 4468 1
-4 5 5 111496 4467 1
-4 -1 -5 106979 4467 1
4 1 5 103250 4464 1
1 4 5 110507 4468 1
-4 -1 -5 102033 4449 1
4 -5 5 104564 4432 1
5 -4 -5 108981 4469 1
5 -4 5 108338 4464 1
4 -5 5 111357 4456 1
-5 4 5 109639 4458 1
-5 1 -5 105353 4452 1
5 -1 5 104086 4451 1
-5 4 -5 106461 4426 1
5 -4 5 102559 4426 1
4 -5 5 104419 4427 1
-1 5 5 104477 4467 1
-5 4 5 109824 4464 1
-1 -4 -5 111746 4468 1
-5 4 -5 112038 4465 1
1 -5 -5 108104 4469 1
-5 1 -5 96299 4431 1
-4 5 5 110541 4459 1
5 -4 -5 106701 4461 1
4 -5 -5 108296 4464 1
-5 1 -6 78188 3228 1
-4 5 6 83436 3245 1
-5 1 6 81732 3250 1
4 -5 -6 82921 3246 1
4 -5 -6 85052 3250 1
-5 4 6 82149 3239 1
-5 1 -6 77391 3203 1
4 -5 6 81485 3209 1
4 -5 6 82825 3230 1
-5 4 6 84853 3243 1
-4 -1 -6 78777 3221 1
4 1 6 76520 3241 1
1 -5 -6 80482 3248 1
5 -4 6 77213 3205 1
5 -4 -6 83528 3250 1
-4 -1 6 76973 3194 1
-4 -1 -6 80275 3243 1
5 -1 6 75383 3227 1
5 -4 -6 81518 3241 1
-4 5 6 81418 3238 1
-1 5 6 79120 3245 1
1 4 6 78475 3240 1
1 -5 -6 80943 3247 1
-5 1 6 82974 3257 1
5 -4 6 82217 3234 1
-5 4 -6 84687 3241 1
-5 4 -6 82545 3202 1
-1 -4 -6 83729 3247 1
4 -5 7 37726 1348 1
-4 5 7 37789 1402 1
-5 4 7 37033 1401 1
1 -5 -7 35720 1396 1
-5 4 7 39147 1401 1
1 4 7 37586 1399 1
-5 1 -7 33946 1335 1
-4 5 7 38034 1400 1
-5 1 7 37879 1408 1
5 -4 -7 37466 1409 1
-1 5 7 37787 1412 1
-5 1 7 39624 1430 1
-4 -1 -7 35094 1371 1
5 -1 7 35010 1379 1
-1 5 7 35286 1403 1
4 -5 -7 39477 1415 1
5 -4 -7 38413 1408 1
-5 4 -7 39896 1386 1
4 -5 7 39070 1378 1
-4 -1 7 34746 1416 1
-1 -4 -7 36567 1396 1
4 1 7 35751 1404 1
4 -5 -7 35512 1408 1
1 -5 -7 36812 1403 1
5 -4 7 36094 1354 1
-5 4 -7 36962 1346 1
-5 1 -7 37046 1376 1
-4 -1 -7 38952 1400 1
-5 1 8 20226 863 1
-1 5 8 20934 834 1
4 -5 -8 21244 845 1
-5 4 -8 20586 758 1
-5 4 8 20592 835 1
4 -5 8 20462 753 1
-5 4 8 22207 842 1
-1 5 8 20486 849 1
5 -1 8 20003 812 1
1 4 8 20586 824 1
-4 -1 -8 19306 816 1
-4 -1 8 19802 846 1
1 -5 8 20718 809 1
1 -5 8 20257 736 1
-5 1 -8 20568 743 1
-4 -1 -8 19035 768 1
-4 5 8 21660 840 1
-5 1 -8 19917 792 1
4 1 8 20758 834 1
-5 4 -8 22352 801 1
1 -5 -8 22239 855 1
4 -5 8 21676 785 1
1 -5 -8 21393 838 1
-1 -4 -8 19877 828 1
-4 5 8 21265 834 1
5 -4 8 21308 780 1
5 -4 -8 21156 850 1
5 -4 -8 18838 843 1
-5 1 8 20563 845 1
1 -5 9 37519 1490 1
5 -4 9 38875 1470 1
5 -4 -9 41316 1529 1
-1 -4 -9 33930 1508 1
-5 1 -9 37369 1480 1
1 4 9 36278 1492 1
4 1 9 36673 1508 1
4 -5 9 39395 1463 1
4 -5 9 37661 1431 1
-4 -1 -9 37426 1506 1
-1 -4 9 34842 1411 1
4 -5 9 39262 1468 1
-4 -1 -9 37815 1466 1
1 -5 9 37902 1434 1
1 -5 -9 37452 1510 1
-5 4 9 41288 1511 1
-1 -4 -9 38953 1500 1
-1 -4 9 35784 1504 1
-5 4 -9 38980 1477 1
4 -5 -9 41099 1523 1
1 -5 -9 38526 1511 1
-4 5 9 39810 1511 1
5 -1 9 39395 1494 1
-5 1 -9 37678 1434 1
-5 4 -9 38854 1457 1
4 1 9 37658 1471 1
5 -4 9 34119 1408 1
-4 -1 -10 4318 466 1
5 -1 10 4954 413 1
1 -5 -10 5452 562 1
1 -5 -10 4587 532 1
1 -5 10 4408 521 1
5 -1 10 4377 531 1
-1 -4 -10 5435 541 1
-5 1 -10 4913 473 1
4 -5 10 6037 482 1
4 1 10 4468 563 1
-5 4 -10 5579 483 1
5 -4 10 4088 349 1
5 -4 -10 5038 554 1
-4 -1 -10 5074 535 1
-1 -4 -10 5521 564 1
1 -5 10 5578 398 1
-5 1 -10 4946 399 1
4 1 10 5165 472 1
4 -5 10 4811 371 1
5 -4 10 5662 495 1
4 -5 -10 6553 586 1
1 -5 -11 37330 1514 1
4 1 11 37671 1470 1
5 -1 11 35598 1437 1
-4 -1 -11 36807 1508 1
4 -5 11 33453 1424 1
-5 4 -11 37365 1469 1
-5 1 -11 38300 1438 1
5 -4 -11 37569 1534 1
1 -5 11 34895 1500 1
4 -5 11 36297 1481 1
-4 -1 -11 36975 1462 1
5 -4 11 30512 1413 1
-5 4 -11 37800 1477 1
5 -4 11 37482 1486 1
-1 -4 -11 35766 1526 1
4 -5 -11 37420 1529 1
5 -1 11 37763 1513 1
-1 -4 -11 36671 1503 1
-5 1 -11 35893 1484 1
-5 1 -12 91 466 1
-5 4 -12 78 440 1
5 -1 12 48 381 1
4 1 12 382 447 1
4 -5 -12 11 551 1
-1 -4 -12 70 491 1
5 -4 12 211 317 1
-4 -1 -12 19 502 1
-5 1 -12 91 374 1
1 -5 -12 805 502 1
-5 4 -12 127 431 1
4 -5 -12 77 550 1
4 -5 12 49 476 1
4 -5 12 294 344 1
-4 -1 -12 25 405 1
5 -4 12 78 484 1
5 -4 -12 556 561 1
-1 -4 -12 87 536 1
4 1 13 23400 973 1
5 -4 -13 22909 1058 1
-4 -1 -13 21363 1008 1
-5 4 -13 21483 973 1
1 -5 -13 22053 1029 1
4 -5 13 22882 998 1
-5 4 -13 21958 963 1
-1 -4 -13 22595 1047 1
5 -4 13 19676 894 1
-5 1 -13 24442 936 1
4 -5 13 19357 910 1
5 -1 13 21817 938 1
-5 1 -13 20039 986 1
5 -4 13 21877 1001 1
-4 -1 -13 22456 954 1
5 -4 -13 22853 1065 1
4 -5 -13 21199 1046 1
-1 -4 -13 21834 999 1
4 -5 -13 23365 1057 1
5 -1 14 356 463 1
-4 -1 -14 121 459 1
5 -4 14 12 401 1
4 -5 14 252 416 1
-1 -4 -14 681 546 1
4 1 14 50 516 1
5 -4 -14 13 613 1
-1 -4 -14 38 594 1
4 -5 -14 710 653 1
-5 1 -14 450 522 1
-5 4 -14 111 504 1
1 -5 -14 19 568 1
-5 1 -14 152 468 1
-4 -1 -14 15 559 1
4 -5 -14 661 612 1
-5 4 -14 12 478 1
5 -4 -14 99 612 1
-4 -1 -15 14761 793 1
5 -4 -15 15255 923 1
-5 4 -15 14198 787 1
-1 -4 -15 15083 898 1
-5 1 -15 16434 793 1
-4 -1 -15 14800 867 1
4 -5 -15 15679 911 1
-5 1 -15 13643 841 1
-1 -4 -15 14600 852 1
1 -5 -15 14616 870 1
4 -5 -15 13487 913 1
-5 4 -15 15238 837 1
-5 4 -16 2871 612 1
-1 -4 -16 2647 602 1
-5 1 -16 3035 609 1
-1 -4 -16 2492 682 1
5 -4 -16 2822 720 1
-4 -1 -16 1931 530 1
-5 1 -16 3386 576 1
4 -5 -16 4278 705 1
4 -5 -16 3758 693 1
-5 1 -16 2683 503 1
-5 4 -16 1854 551 1
-4 -1 -16 2887 633 1
1 -5 -16 3817 649 1
-5 1 -17 16435 836 1
-4 -1 -17 13542 808 1
5 -4 -17 13636 976 1
1 -5 -17 15536 902 1
-5 4 -17 12586 805 1
-5 4 -17 13604 862 1
-1 -4 -17 13132 914 1
-5 1 -17 12724 862 1
-4 -1 -17 13502 894 1
4 -5 -17 14870 955 1
-5 1 -17 12866 782 1
4 -5 -17 15241 962 1
-1 -4 -17 13831 861 1
-5 4 -18 5601 632 1
-1 -4 -18 3637 774 1
-4 -1 -18 4849 736 1
-4 -1 -18 4218 647 1
5 -4 -18 4040 829 1
4 -5 -18 4628 790 1
-5 4 -18 5129 718 1
-5 1 -18 4944 709 1
1 -5 -18 5731 749 1
-1 -4 -18 5100 687 1
4 -5 -18 4992 808 1
-5 1 -18 3718 574 1
-5 4 -19 6283 781 1
5 -4 -19 6658 896 1
1 -5 -19 5752 838 1
1 -5 -19 5336 774 1
-4 -1 -19 5433 716 1
-5 1 -19 5190 638 1
4 -5 -19 5137 843 1
4 -5 -19 6350 837 1
-1 -4 -19 6550 759 1
-1 -4 -19 6748 807 1
-4 -1 -19 5720 800 1
-5 1 -19 5854 773 1
4 -5 -20 2112 822 1
-1 -4 -20 2393 811 1
5 -4 -20 1571 868 1
-5 1 -20 2293 757 1
-1 -4 -20 2734 736 1
-4 -1 -20 2309 772 1
4 -5 -20 1734 853 1
1 -5 -20 2194 815 1
-5 4 -20 2296 775 1
1 -5 -20 901 765 1
-5 4 -21 5976 836 1
-1 -4 -21 6054 819 1
1 -5 -21 5513 839 1
-1 -4 -21 3444 892 1
1 -5 -21 4879 888 1
-5 1 -21 5288 839 1
5 -4 -21 6238 944 1
4 -5 -21 7300 940 1
-4 -1 -21 5626 842 1
-5 5 0 70903 3503 1
5 -5 0 66859 3485 1
5 -5 0 66998 3506 1
-5 5 0 68775 3482 1
-5 0 0 69639 3527 1
0 5 0 67336 3518 1
0 -5 0 69410 3527 1
-5 5 -1 825 265 1
-5 0 -1 163 363 1
5 -5 -1 1488 352 1
-5 5 1 521 230 1
0 -5 1 726 344 1
5 -5 -1 476 237 1
-5 5 1 612 325 1
0 5 1 913 369 1
5 -5 1 1499 290 1
0 -5 -1 495 396 1
-5 5 2 126866 4168 1
-5 5 -2 129069 4145 1
5 -5 2 124694 4148 1
0 -5 -2 120807 4181 1
0 5 2 122838 4177 1
5 -5 -2 122746 4171 1
-5 0 -2 116211 4172 1
5 -5 -2 121082 4154 1
0 -5 2 122717 4173 1
-5 5 2 121578 4152 1
5 0 3 1641 364 1
5 -5 -3 130 339 1
-5 5 3 824 381 1
5 -5 -3 790 371 1
-5 0 -3 1918 378 1
0 -5 -3 1178 387 1
0 5 3 1195 403 1
5 -5 3 1085 227 1
-5 5 3 413 316 1
5 -5 3 885 378 1
-5 0 3 1291 319 1
0 -5 3 1175 349 1
0 5 4 2883 433 1
0 -5 -4 3096 430 1
-5 0 4 3743 336 1
5 -5 -4 2806 418 1
5 -5 4 3250 230 1
5 -5 -4 2805 384 1
5 0 4 2696 396 1
-5 0 -4 2341 404 1
-5 5 4 3212 425 1
5 -5 4 3219 414 1
-5 5 5 198239 7634 1
5 -5 5 165316 7589 1
5 0 5 173455 7622 1
5 -5 5 182266 7628 1
-5 0 5 180163 7601 1
0 -5 -5 187820 7637 1
-5 0 -5 169556 7608 1
5 -5 -5 179686 7627 1
5 -5 5 179495 7585 1
5 -5 -5 186450 7635 1
0 -5 -5 182819 7639 1
-5 5 5 183609 7620 1
0 5 5 181797 7632 1
-5 0 -5 181080 7626 1
5 0 6 3531 435 1
-5 0 -6 2839 346 1
-5 5 6 3771 425 1
0 5 6 3438 452 1
0 -5 -6 3660 457 1
5 -5 -6 3783 485 1
-5 0 -6 3795 427 1
5 -5 -6 4415 450 1
5 -5 6 3756 426 1
-5 5 6 3627 465 1
0 -5 -6 3672 444 1
5 -5 6 2988 280 1
0 5 6 3590 468 1
-5 0 -7 94806 3248 1
0 5 7 96963 3281 1
5 -5 7 81536 3214 1
0 -5 -7 96124 3290 1
-5 5 7 98992 3276 1
-5 5 7 102680 3286 1
5 -5 7 98554 3240 1
-5 0 -7 101574 3280 1
5 -5 -7 96704 3288 1
5 0 7 95870 3275 1
5 -5 7 97510 3270 1
0 -5 -7 100952 3287 1
5 -5 -7 104884 3290 1
-5 0 7 95260 3292 1
0 5 7 96780 3287 1
-5 0 -8 3 417 1
5 -5 8 251 381 1
5 -5 8 1 167 1
0 5 8 3 447 1
-5 5 8 1 438 1
-5 5 8 1 427 1
-5 0 8 4 455 1
5 -5 8 1 315 1
5 -5 -8 406 448 1
5 0 8 3 418 1
5 -5 -8 1 456 1
0 -5 -8 102 410 1
-5 0 -8 3 291 1
0 5 8 3 448 1
0 -5 9 26801 971 1
-5 0 -9 26171 908 1
0 -5 -9 29426 993 1
5 -5 9 22782 850 1
-5 5 9 28325 980 1
-5 0 -9 27306 965 1
0 -5 9 26784 878 1
5 -5 -9 29138 1004 1
5 0 9 27476 980 1
5 -5 -9 27695 1006 1
5 -5 9 26912 922 1
0 -5 -10 8990 552 1
5 0 10 8369 564 1
-5 0 -10 8966 546 1
5 -5 10 6832 349 1
-5 0 -10 8398 445 1
5 -5 -10 9428 593 1
5 -5 10 8400 490 1
0 -5 10 8233 380 1
-5 5 -10 8059 452 1
-5 0 -11 10445 616 1
-5 0 -11 9500 525 1
-5 5 -11 10418 543 1
5 0 11 9529 545 1
0 -5 -11 8965 640 1
5 -5 11 8184 462 1
0 -5 11 10037 458 1
5 -5 11 10543 592 1
5 -5 -11 10918 684 1
-5 0 -12 49572 1907 1
5 -5 -12 55227 1955 1
0 -5 -12 50964 1916 1
5 -5 12 43292 1823 1
5 -5 12 54505 1899 1
-5 0 -12 48914 1856 1
-5 5 -12 48310 1867 1
5 0 12 53454 1868 1
5 -5 -13 4405 642 1
5 -5 13 3540 402 1
-5 5 -13 3882 498 1
5 0 13 4029 489 1
0 -5 -13 4536 584 1
-5 0 -13 3748 467 1
5 -5 13 4152 579 1
5 -5 -13 3613 643 1
-5 0 -13 5121 575 1
0 -5 -14 21 564 1
5 -5 -14 394 641 1
5 -5 -14 362 676 1
-5 5 -14 27 491 1
-5 0 -14 357 451 1
5 0 14 507 481 1
-5 0 -14 34 555 1
-5 0 -15 2555 606 1
-5 5 -15 1722 546 1
5 -5 -15 3436 717 1
0 -5 -15 3238 626 1
-5 0 -15 3121 527 1
5 -5 -15 1842 722 1
0 -5 -15 3274 689 1
-5 0 -16 10612 774 1
0 -5 -16 10505 785 1
5 -5 -16 11520 886 1
-5 0 -16 11481 717 1
5 -5 -16 12568 889 1
0 -5 -16 11483 842 1
-5 5 -16 10475 744 1
5 -5 -17 20958 1189 1
-5 0 -17 21704 1063 1
5 -5 -17 21418 1203 1
0 -5 -17 21890 1125 1
0 -5 -17 20734 1164 1
-5 0 -17 17982 1104 1
0 -5 -18 44 739 1
-5 0 -18 463 629 1
0 -5 -18 23 683 1
-5 0 -18 238 675 1
5 -5 -18 24 791 1
-5 0 -19 10343 869 1
5 -5 -19 10152 956 1
0 -5 -19 10301 921 1
0 -5 -19 9640 869 1
5 -5 -20 1587 866 1
0 -5 -20 0 752 1
0 -5 -20 636 826 1
-5 0 -20 110 730 1
-5 0 -20 251 495 1
3 -6 0 16418 1661 1
-6 3 0 15279 1637 1
-3 -3 0 15534 1669 1
-3 6 0 17535 1634 1
6 -3 0 14954 1663 1
-6 3 0 15350 1665 1
3 -6 0 16308 1636 1
3 -6 -2 10850 460 1
-6 3 2 9982 405 1
3 -6 2 9270 339 1
6 -3 -2 9935 422 1
-3 6 2 10409 453 1
3 -6 2 10673 411 1
-3 -3 -2 10340 463 1
-6 3 2 11648 433 1
-6 3 -2 11239 336 1
-6 3 -2 11064 332 1
-3 6 2 9907 399 1
3 -6 -2 10433 414 1
3 -6 4 2343 323 1
3 -6 -4 1282 440 1
6 -3 4 1873 304 1
-3 6 4 1353 418 1
-6 3 4 2252 421 1
-6 3 4 1847 443 1
-3 6 4 1527 463 1
-3 -3 -4 1703 442 1
3 -6 -4 1011 426 1
6 -3 -4 1567 377 1
-3 -3 -4 1707 407 1
3 3 4 1863 469 1
-6 3 -4 1899 304 1
-3 6 6 51431 1950 1
-3 -3 -6 50999 1935 1
-6 3 -6 47505 1899 1
6 -3 6 49227 1904 1
-6 3 6 52831 1950 1
3 -6 -6 51324 1956 1
3 -6 -6 54445 1949 1
-6 3 -6 54095 1948 1
6 -3 -6 50236 1908 1
3 3 6 50182 1955 1
-3 6 6 53852 1950 1
-3 -3 -6 52869 1957 1
-6 3 6 52567 1947 1
-3 -3 -8 44666 1773 1
-6 3 -8 43278 1716 1
6 -3 -8 44265 1700 1
-6 3 -8 47508 1756 1
3 -6 8 44504 1714 1
3 3 8 42215 1772 1
6 -3 8 42835 1721 1
3 -6 -8 44663 1768 1
3 -6 8 43864 1723 1
-3 6 8 45781 1766 1
-3 -3 -8 43035 1741 1
-6 3 8 43527 1760 1
3 -6 -10 21743 877 1
3 -6 -10 19044 852 1
3 3 10 19896 813 1
-6 3 -10 20529 775 1
-3 -3 -10 21253 814 1
-3 -3 -10 20132 860 1
-6 3 -10 21202 816 1
6 -3 10 20967 815 1
3 -6 10 21195 800 1
3 -6 10 21054 752 1
-6 3 -12 2805 488 1
6 -3 12 2516 551 1
6 -3 12 2860 331 1
3 -6 -12 3408 595 1
3 -6 12 2324 406 1
3 -6 -12 2989 592 1
-3 -3 -12 2622 576 1
-6 3 -12 3771 520 1
-3 -3 -12 3607 503 1
3 -6 12 3116 546 1
3 -6 -14 1404 630 1
3 -6 14 554 459 1
-3 -3 -14 331 536 1
-6 3 -14 1088 547 1
-6 3 -14 1668 535 1
3 -6 -14 1130 612 1
-3 -3 -14 206 595 1
-3 -3 -16 9738 724 1
-3 -3 -16 9025 796 1
3 -6 -16 10776 844 1
3 -6 -16 9232 800 1
-6 3 -16 10636 747 1
-6 3 -16 8771 751 1
-3 -3 -18 10133 863 1
3 -6 -18 10863 896 1
-3 -3 -18 9621 792 1
-6 3 -18 8468 821 1
3 -6 -18 9138 910 1
-6 3 -18 9620 803 1
-3 -3 -20 6072 791 1
-3 -3 -20 7056 902 1
3 -6 -20 5859 906 1
3 -6 -20 5759 881 1
-6 3 -20 7394 843 1
-2 6 0 91308 3742 1
-6 4 0 93326 3734 1
4 -6 0 92005 3747 1
6 -4 0 86777 3753 1
4 -6 0 91047 3729 1
-4 -2 0 94256 3763 1
2 -6 0 93421 3748 1
-4 6 0 95481 3728 1
-4 6 0 95141 3741 1
-6 4 0 85073 3720 1
-6 2 0 85988 3753 1
2 -6 0 96494 3761 1
2 -6 -1 327 386 1
4 -6 1 1 254 1
2 -6 1 29 355 1
-6 2 -1 16 400 1
4 -6 -1 63 370 1
2 -6 -1 79 355 1
4 -6 1 14 350 1
-4 6 1 12 279 1
6 -4 -1 15 362 1
-6 4 -1 335 260 1
-4 6 1 19 351 1
-4 -2 1 1020 409 1
-6 2 1 1 337 1
-6 4 -1 275 186 1
4 -6 -1 165 295 1
2 -6 1 197 327 1
2 4 1 728 396 1
-6 2 -1 541 309 1
-2 6 1 214 344 1
-4 -2 -1 245 387 1
-6 4 1 92 265 1
6 -4 1 47 395 1
-6 4 -1 344 196 1
4 -6 -2 28130 1008 1
-6 4 2 26962 1000 1
6 -4 -2 28711 1034 1
-4 6 2 30522 1037 1
4 -6 2 28777 1001 1
4 -6 -2 30362 1048 1
-6 4 -2 29323 971 1
-2 -4 -2 30316 1050 1
6 -4 2 27363 1051 1
2 -6 -2 29310 1041 1
-4 6 2 28851 1004 1
4 2 2 25927 1041 1
-2 6 2 29898 1049 1
-6 2 2 27428 1017 1
-6 4 -2 25355 953 1
-6 2 -2 29417 1000 1
-2 6 2 29644 1029 1
-4 -2 -2 28810 1046 1
4 -6 2 28200 973 1
2 -6 -2 30293 1049 1
2 -6 2 29897 1016 1
-6 2 -2 26861 1054 1
-6 4 2 28377 1020 1
2 -6 2 30751 1044 1
-2 -4 -3 1465 385 1
4 -6 3 970 278 1
2 -6 -3 2098 424 1
-6 4 3 1936 378 1
-4 -2 -3 1374 384 1
-4 6 3 1503 391 1
-6 4 -3 1974 178 1
-6 2 -3 1846 294 1
6 -4 -3 1971 374 1
-2 6 3 1478 398 1
-2 6 3 1769 392 1
-6 4 3 2457 346 1
4 -6 3 2323 235 1
2 -6 3 2052 298 1
4 2 3 1672 403 1
4 -6 -3 2029 352 1
4 -6 -3 720 407 1
2 -6 -3 2652 391 1
-6 2 3 1807 438 1
-4 -2 -4 32874 1374 1
2 -6 -4 33664 1396 1
-4 6 4 34760 1393 1
4 -6 -4 33275 1389 1
-2 -4 -4 33910 1391 1
4 -6 -4 31733 1374 1
2 -6 -4 33028 1385 1
-2 6 4 32474 1380 1
-4 6 4 33937 1366 1
6 -4 -4 33069 1365 1
-6 2 4 32642 1394 1
6 -4 -4 32726 1389 1
2 -6 4 32018 1349 1
4 -6 4 32505 1323 1
6 -2 4 30077 1342 1
4 2 4 30599 1386 1
-6 4 4 32307 1362 1
-4 -2 -4 31064 1386 1
-6 4 4 33577 1379 1
-6 4 -4 32579 1382 1
-6 2 -4 31149 1343 1
-2 6 4 33932 1395 1
-6 2 4 31675 1384 1
4 -6 4 32758 1329 1
-2 6 5 4548 502 1
6 -4 -5 4408 487 1
-6 2 5 5595 544 1
-6 4 -5 5067 484 1
4 -6 -5 4796 482 1
-6 4 5 4905 464 1
-6 4 5 4709 488 1
-6 4 -5 4301 331 1
-4 6 5 5191 508 1
-2 -4 -5 4165 468 1
4 -6 5 4599 357 1
-2 6 5 4540 486 1
-6 2 5 5357 504 1
2 -6 -5 4676 506 1
4 -6 -5 4645 500 1
-4 -2 -5 4614 496 1
6 -4 5 4077 333 1
-6 2 -5 3331 327 1
4 -6 5 4982 387 1
-6 2 -5 4266 413 1
-4 6 5 4956 465 1
6 -2 -5 3883 386 1
4 2 5 4029 490 1
-4 -2 -5 3787 446 1
-6 2 -6 2657 263 1
-2 6 6 2482 447 1
2 -6 -6 2829 463 1
4 -6 -6 3765 445 1
-6 4 6 3575 456 1
-6 2 -6 2876 444 1
-4 6 6 3046 454 1
-6 4 -6 2629 431 1
-6 2 6 3311 471 1
-2 -4 -6 2711 471 1
-4 -2 -6 2755 465 1
-2 -4 -6 1974 422 1
6 -4 -6 3198 447 1
6 -4 -6 2421 482 1
-6 4 -6 2809 295 1
6 -2 -6 2345 313 1
-6 2 -6 3221 370 1
4 -6 6 3220 398 1
6 -4 6 2629 302 1
4 -6 -6 3324 460 1
-6 2 6 3048 502 1
-4 -2 -6 2042 384 1
4 2 6 2260 464 1
-6 4 6 2669 431 1
-4 6 6 3247 445 1
4 -6 6 3228 356 1
-2 6 6 2809 464 1
6 -2 7 1492 362 1
-6 2 -7 1646 425 1
-6 2 -7 1943 349 1
-4 6 7 2187 440 1
-6 4 -7 2051 297 1
6 -4 7 1791 311 1
6 -4 -7 1996 467 1
-6 4 7 2245 437 1
4 -6 7 1839 371 1
-2 6 7 2539 446 1
6 -2 -7 1433 286 1
-6 2 -7 1915 236 1
4 -6 -7 2466 450 1
4 -6 -7 1630 451 1
4 -6 7 2810 346 1
2 4 7 2059 421 1
-4 -2 -7 1781 374 1
6 -4 -7 2145 446 1
-4 6 7 2352 432 1
4 2 7 1812 456 1
2 -6 -7 2024 431 1
-6 4 7 1971 448 1
-4 -2 -7 2738 458 1
-6 2 7 2471 471 1
-6 2 7 1777 468 1
-6 4 -7 1946 409 1
-2 -4 -7 2077 459 1
-2 -4 -7 2113 423 1
-4 6 8 22029 945 1
2 -6 8 20818 893 1
6 -4 -8 22687 967 1
-4 -2 -8 22165 939 1
-6 2 -8 21563 890 1
6 -4 -8 23985 962 1
6 -2 -8 20335 837 1
2 -6 -8 23726 954 1
2 -6 8 21365 856 1
-6 4 8 23292 936 1
4 -6 8 23628 879 1
-2 -4 -8 24509 969 1
-2 -4 -8 23758 932 1
6 -4 8 22976 877 1
2 4 8 21737 932 1
4 -6 8 22949 895 1
-2 6 8 22470 956 1
4 2 8 21076 949 1
6 -2 8 21074 906 1
4 -6 -8 22554 953 1
-6 4 -8 23788 924 1
-6 4 -8 22114 865 1
-6 2 -8 24507 930 1
-4 -2 -8 21489 907 1
-6 2 -8 21075 827 1
-6 2 8 22843 955 1
4 -6 9 6 334 1
2 4 9 190 426 1
4 -6 -9 5 477 1
2 -6 9 67 391 1
6 -4 9 219 375 1
-4 -2 -9 943 386 1
-6 2 -9 67 248 1
-4 -2 -9 6 457 1
-6 4 -9 515 336 1
2 -6 -9 6 473 1
-2 -4 -9 6 456 1
-6 4 -9 69 397 1
-2 -4 -9 6 433 1
2 -6 9 6 279 1
-6 2 -9 6 432 1
6 -2 -9 6 235 1
-6 4 9 330 470 1
6 -4 -9 279 491 1
4 -6 9 510 359 1
-6 2 -9 6 378 1
2 -6 -9 26 486 1
6 -2 9 6 413 1
-6 2 -10 23468 973 1
-2 -4 -10 24355 1065 1
-2 -4 -10 21911 1084 1
-6 2 -10 21935 1031 1
4 2 10 22603 1046 1
-4 -2 -10 25574 1042 1
2 -6 -10 22718 1093 1
4 -6 10 22152 1021 1
-6 4 -10 24109 1051 1
4 -6 -10 23878 1102 1
-6 4 -10 23255 1015 1
2 -6 -10 23282 1080 1
-2 -4 10 20120 926 1
2 -6 10 23831 986 1
6 -2 -10 21460 947 1
6 -4 -10 25330 1108 1
4 -6 10 23365 1019 1
-4 -2 -10 26416 1104 1
6 -2 10 24276 1064 1
-6 2 -10 24365 1064 1
6 -4 10 24651 1040 1
2 -6 10 24166 1059 1
4 2 11 1457 460 1
6 -4 -11 1242 557 1
2 -6 -11 2041 514 1
6 -2 -11 1165 215 1
-4 -2 -11 1745 496 1
-6 2 -11 1741 468 1
4 -6 11 1868 437 1
-4 -2 -11 1726 438 1
6 -4 11 1515 462 1
-6 2 -11 1921 443 1
2 -6 -11 1367 494 1
-6 2 -11 2373 332 1
-2 -4 -11 1952 457 1
4 -6 11 1077 323 1
-6 4 -11 1937 408 1
2 -6 11 2027 508 1
4 -6 -11 1375 523 1
-2 -4 -11 1451 523 1
6 -2 11 1650 493 1
-6 4 -11 2062 456 1
2 -6 11 739 327 1
6 -4 -12 3477 605 1
-6 2 -12 3730 489 1
6 -4 12 3009 308 1
-4 -2 -12 3685 570 1
-6 2 -12 3727 510 1
6 -2 12 4108 566 1
4 -6 12 4173 523 1
-6 4 -12 3591 487 1
2 -6 -12 4301 565 1
4 2 12 4001 513 1
4 -6 -12 4421 594 1
4 -6 -12 5055 611 1
6 -4 12 4368 549 1
-6 2 -12 3887 407 1
2 -6 -12 3863 594 1
-2 -4 -12 4096 530 1
-6 4 -12 3676 478 1
4 -6 12 3443 364 1
-2 -4 -12 4896 586 1
-4 -2 -12 3647 478 1
4 -6 13 1902 557 1
4 -6 -13 1844 616 1
6 -4 -13 1355 646 1
2 -6 -13 1410 580 1
-6 2 -13 1824 487 1
-4 -2 -13 2151 479 1
-6 2 -13 2436 426 1
-6 2 -13 1568 512 1
4 -6 13 1972 394 1
4 -6 -13 3551 612 1
2 -6 -13 2459 603 1
6 -4 13 1980 334 1
-6 4 -13 1822 498 1
-6 4 -13 1840 504 1
6 -2 13 1537 392 1
-2 -4 -13 2116 535 1
-4 -2 -13 1366 582 1
-2 -4 -13 1818 591 1
6 -4 13 2151 569 1
4 -6 -14 15477 893 1
2 -6 -14 13589 882 1
-2 -4 -14 14071 857 1
6 -4 -14 15571 910 1
-4 -2 -14 14462 855 1
-6 2 -14 14217 792 1
-4 -2 -14 13807 773 1
-6 2 -14 13004 798 1
-6 4 -14 14482 799 1
2 -6 -14 14307 854 1
-6 4 -14 15641 792 1
4 -6 -14 14838 887 1
-2 -4 -14 14696 817 1
-6 2 -14 15265 718 1
-4 -2 -15 32 603 1
-2 -4 -15 7 578 1
6 -4 -15 374 672 1
-6 4 -15 61 547 1
-6 2 -15 312 560 1
-2 -4 -15 126 632 1
-4 -2 -15 6 523 1
4 -6 -15 35 663 1
4 -6 -15 6 653 1
2 -6 -15 6 616 1
-6 4 -15 111 550 1
2 -6 -15 6 634 1
-6 2 -15 470 531 1
-6 4 -16 1809 599 1
4 -6 -16 1947 698 1
6 -4 -16 776 722 1
-6 2 -16 925 609 1
-2 -4 -16 2477 681 1
-2 -4 -16 1572 603 1
-4 -2 -16 1232 674 1
2 -6 -16 1444 684 1
-4 -2 -16 1338 570 1
2 -6 -16 2146 673 1
4 -6 -16 1966 709 1
-6 4 -16 1246 602 1
-6 2 -16 1883 578 1
-4 -2 -17 1 681 1
6 -4 -17 1616 737 1
-6 2 -17 404 611 1
4 -6 -17 1 723 1
-6 4 -17 1 621 1
-6 2 -17 895 598 1
4 -6 -17 806 755 1
2 -6 -17 1 708 1
-2 -4 -17 1 727 1
-2 -4 -17 613 633 1
-6 4 -17 43 627 1
-4 -2 -17 194 594 1
-6 2 -18 5817 735 1
-6 4 -18 5248 696 1
-6 2 -18 5493 677 1
6 -4 -18 6394 852 1
-2 -4 -18 5340 723 1
-4 -2 -18 5451 673 1
4 -6 -18 7548 828 1
-2 -4 -18 6455 787 1
-6 4 -18 5146 722 1
4 -6 -18 5671 819 1
2 -6 -18 4957 784 1
-4 -2 -18 4932 774 1
-2 -4 -19 0 711 1
6 -4 -19 0 804 1
-6 2 -19 0 656 1
-4 -2 -19 0 752 1
4 -6 -19 676 829 1
-4 -2 -19 0 663 1
4 -6 -19 0 826 1
-6 4 -19 547 721 1
-6 2 -19 0 721 1
-2 -4 -19 336 770 1
2 -6 -19 643 761 1
-2 -4 -20 3081 838 1
6 -4 -20 937 869 1
2 -6 -20 1433 805 1
-4 -2 -20 3557 741 1
4 -6 -20 3650 868 1
-6 2 -20 2296 780 1
-6 4 -20 2619 798 1
-2 -4 -20 2563 754 1
4 -6 -20 3694 898 1
-4 -2 -20 950 802 1
-6 1 0 111 382 1
-6 5 0 771 294 1
5 -6 0 497 348 1
-5 6 0 921 225 1
-6 5 0 1074 185 1
-6 1 0 696 379 1
-1 6 0 772 365 1
6 -5 0 908 406 1
1 -6 0 556 387 1
-5 -1 0 121 406 1
6 -5 0 387 295 1
-1 -5 0 459 392 1
5 -6 0 863 251 1
1 -6 0 578 369 1
1 -6 -1 40223 1570 1
-1 -5 -1 35907 1571 1
-6 1 1 36638 1558 1
-6 5 -1 37410 1516 1
5 -6 -1 38693 1550 1
5 -6 -1 37441 1522 1
-1 -5 1 36826 1565 1
5 -6 1 35198 1500 1
-5 6 1 39717 1543 1
-6 5 1 35929 1509 1
6 -5 1 36093 1522 1
-6 1 -1 37789 1569 1
-5 6 1 38847 1515 1
6 -5 -1 36015 1544 1
1 5 1 35867 1564 1
6 -5 1 35739 1567 1
-5 -1 1 39286 1572 1
-1 6 1 37618 1557 1
-6 1 -1 37779 1557 1
-5 -1 -1 35838 1571 1
1 -6 1 37605 1553 1
1 -6 -1 38545 1565 1
5 -6 1 39707 1536 1
-5 6 -1 39487 1530 1
1 -6 1 40833 1580 1
5 -6 2 3001 209 1
1 -6 -2 4666 411 1
6 -5 -2 3651 392 1
-6 1 2 4016 401 1
-6 5 -2 3802 265 1
5 -6 -2 3856 395 1
-6 5 2 3888 385 1
1 5 2 2787 432 1
5 -6 2 5118 337 1
-5 6 2 4008 397 1
1 -6 -2 5107 419 1
5 -6 -2 3608 340 1
6 -5 2 3514 281 1
-6 5 2 4206 302 1
-5 6 2 4794 321 1
-1 -5 2 3840 399 1
1 -6 2 3612 376 1
-1 6 2 4289 410 1
-1 -5 -2 3316 422 1
-6 1 -2 3153 353 1
-5 -1 -2 3392 429 1
-6 5 -3 12141 507 1
5 -6 -3 11946 640 1
-6 5 3 10674 577 1
-6 5 3 12267 614 1
-1 6 3 11678 634 1
-1 -5 -3 12171 646 1
6 -5 -3 11258 581 1
-6 1 -3 10625 597 1
6 -5 -3 12072 624 1
5 -6 3 12609 562 1
5 -6 -3 11517 597 1
1 5 3 10359 641 1
-6 1 3 10769 593 1
-1 -5 3 10878 643 1
5 1 3 9193 625 1
1 -6 3 11254 613 1
-5 -1 -3 9992 619 1
-1 -5 -3 10485 648 1
1 -6 -3 12306 647 1
-5 6 3 11995 576 1
-5 6 3 11592 631 1
-6 1 4 2333 303 1
5 -6 4 2876 189 1
1 -6 4 3401 334 1
6 -5 -4 2153 369 1
5 -6 -4 2140 399 1
6 -5 4 2459 413 1
5 -6 4 1410 228 1
6 -1 4 2322 338 1
5 -6 4 3093 395 1
-6 5 4 2383 322 1
-1 -5 -4 824 405 1
-6 1 -4 2219 321 1
-1 6 4 803 417 1
-5 6 4 2567 400 1
-5 -1 -4 2101 359 1
5 1 4 2312 395 1
6 -5 -4 2106 404 1
5 -6 4 2487 172 1
5 -6 -4 2762 343 1
-6 5 4 3265 382 1
1 5 4 2019 402 1
-1 6 4 2387 406 1
1 -6 -4 803 398 1
-5 6 4 1864 341 1
5 -6 5 21928 908 1
-5 6 5 23548 1002 1
-5 -1 -5 19295 949 1
-6 5 5 24304 999 1
6 -5 -5 22565 994 1
5 -6 5 19849 910 1
-6 5 5 22455 973 1
6 -5 5 20992 886 1
6 -5 -5 21314 998 1
1 5 5 22842 1008 1
5 -6 5 23058 988 1
5 -6 -5 22597 1007 1
-5 6 5 22263 975 1
-1 -5 -5 24966 1012 1
5 -6 -5 22143 981 1
6 -1 5 20701 971 1
5 1 5 20367 992 1
-1 6 5 21365 999 1
6 -5 5 26796 1009 1
-5 -1 -5 20857 989 1
-6 1 -5 20571 975 1
-6 1 -5 19350 927 1
1 -6 -5 22465 1006 1
-5 -1 6 12085 459 1
-1 -5 -6 11980 584 1
1 5 6 11520 577 1
5 -6 6 10700 430 1
-6 5 6 12000 577 1
6 -5 -6 10621 595 1
6 -5 -6 12754 576 1
6 -5 6 10237 429 1
5 -6 6 11879 550 1
1 5 6 10849 592 1
1 -6 -6 10817 597 1
5 -6 6 10768 453 1
-6 5 6 11758 553 1
-6 1 6 11971 606 1
-5 6 6 12169 582 1
-6 1 -6 9451 459 1
-5 -1 -6 9878 512 1
5 -6 -6 11720 554 1
6 -1 6 10453 539 1
5 1 6 10227 574 1
-1 6 6 11029 586 1
-5 6 6 11570 559 1
6 -5 6 11510 570 1
-5 -1 -6 10556 577 1
-6 1 -6 11282 550 1
5 -6 -6 11340 578 1
5 -6 7 1201 235 1
-5 -1 7 1756 231 1
-6 1 -7 1429 413 1
-5 6 7 713 456 1
-1 6 7 1711 461 1
6 -5 7 957 416 1
5 -6 -7 998 431 1
5 -6 7 1432 300 1
1 5 7 1552 453 1
-6 5 7 1027 418 1
1 -6 -7 1187 455 1
-6 1 -7 1422 290 1
6 -5 7 1258 291 1
6 -5 -7 1507 467 1
-5 -1 -7 1349 352 1
5 -6 -7 1665 456 1
5 1 7 1106 454 1
5 -6 7 1465 398 1
-1 -5 -7 977 438 1
-6 5 7 1438 450 1
-5 -1 -7 1078 424 1
-5 6 7 1236 432 1
-6 1 7 1713 511 1
6 -5 -7 2103 451 1
-6 5 -7 1337 270 1
6 -1 7 1177 404 1
1 -6 -7 1770 464 1
-6 1 7 1592 471 1
1 -6 -8 12244 774 1
-5 -1 -8 11279 771 1
5 -6 8 10850 665 1
-5 6 8 11574 757 1
-6 5 8 12151 753 1
6 -5 -8 11918 777 1
-6 1 -8 11077 661 1
-6 5 -8 10501 657 1
5 -6 -8 12377 791 1
5 -6 -8 12007 777 1
6 -5 -8 12506 800 1
-6 1 -8 10622 726 1
-5 -1 -8 10926 698 1
6 -1 8 11009 739 1
5 1 8 10894 773 1
1 -6 -8 11921 783 1
5 -6 8 12556 729 1
-1 -5 -8 11233 766 1
6 -5 8 10901 676 1
6 -1 9 26 439 1
5 1 9 18 471 1
-5 -1 -9 141 469 1
-6 5 -9 20 311 1
5 -6 9 21 319 1
6 -5 9 20 365 1
-1 -5 -9 56 464 1
-5 6 9 20 452 1
-6 1 -9 26 296 1
1 -6 -9 135 477 1
1 -6 -9 25 458 1
5 -6 -9 20 477 1
5 -6 9 21 262 1
6 -5 -9 21 486 1
5 -6 9 21 387 1
-6 1 -9 26 418 1
1 -6 9 669 444 1
1 -6 9 2 299 1
6 -5 -9 151 480 1
-5 -1 -9 444 362 1
5 -6 -9 20 495 1
-6 5 9 78 453 1
6 -5 10 3585 438 1
-6 5 -10 3181 376 1
1 -6 -10 3909 525 1
1 -6 10 3426 333 1
-6 1 -10 3414 340 1
-1 -5 10 2365 265 1
-1 -5 -10 3245 492 1
1 -6 -10 3189 536 1
6 -5 -10 2727 568 1
5 -6 10 2748 297 1
-5 -1 -10 3581 486 1
5 -6 -10 2241 537 1
-6 1 -10 2889 449 1
1 -6 10 3237 491 1
6 -1 10 2939 503 1
-6 5 -10 3566 461 1
6 -5 -10 4168 554 1
5 -6 10 3827 401 1
-5 -1 -10 4100 415 1
-5 -1 -11 10315 661 1
6 -5 11 9742 604 1
-6 1 -11 10209 515 1
1 -6 -11 11280 685 1
1 -6 -11 9968 677 1
-6 5 -11 10131 608 1
-6 5 -11 10603 554 1
5 -6 11 10320 587 1
-5 -1 -11 10424 575 1
-6 1 -11 9871 610 1
5 -6 -11 11272 696 1
5 -6 11 8924 466 1
-1 -5 11 8795 439 1
6 -1 11 9717 657 1
6 -5 -11 12190 709 1
1 -6 11 10839 510 1
-1 -5 -11 11084 673 1
-6 1 -12 844 496 1
6 -5 12 672 512 1
5 -6 12 16 309 1
-6 1 -12 22 361 1
-6 5 -12 149 421 1
-1 -5 -12 220 513 1
-5 -1 -12 1131 433 1
6 -5 -12 580 594 1
1 -6 -12 824 536 1
1 -6 12 461 341 1
5 -6 -12 493 580 1
6 -5 12 207 264 1
-1 -5 -12 194 559 1
5 -6 12 383 480 1
-5 -1 -12 626 533 1
-6 5 -12 119 471 1
1 -6 -12 330 549 1
-5 -1 -13 3650 500 1
1 -6 -13 4544 632 1
5 -6 13 4013 412 1
5 1 13 4555 543 1
-6 1 -13 3959 564 1
-6 5 -13 4053 510 1
1 -6 -13 4178 623 1
-6 1 -13 4402 445 1
-5 -1 -13 4559 600 1
5 -6 -13 4821 655 1
5 -6 13 4696 576 1
6 -5 13 4875 595 1
-1 -5 -13 4332 636 1
-6 5 -13 4796 540 1
-1 -5 -13 4650 588 1
6 -5 -13 4658 662 1
-6 1 -14 52 549 1
-5 -1 -14 431 479 1
1 -6 -14 459 598 1
-6 1 -14 61 444 1
-6 5 -14 48 505 1
-1 -5 -14 54 573 1
5 -6 -14 359 644 1
5 -6 -14 141 654 1
-5 -1 -14 254 581 1
-1 -5 -14 318 621 1
-6 5 -14 670 512 1
6 -5 -14 1116 658 1
6 -5 14 53 597 1
5 -6 -15 1991 674 1
6 -5 -15 36 689 1
-5 -1 -15 835 623 1
-6 1 -15 37 571 1
-6 1 -15 551 470 1
-1 -5 -15 37 588 1
1 -6 -15 1127 629 1
-5 -1 -15 351 517 1
-6 5 -15 434 529 1
5 -6 -15 37 677 1
-1 -5 -15 903 665 1
-6 5 -15 992 544 1
-6 1 -16 2870 634 1
6 -5 -16 3137 771 1
-6 5 -16 2656 604 1
-1 -5 -16 2692 650 1
1 -6 -16 2788 677 1
-5 -1 -16 2501 555 1
-1 -5 -16 2805 710 1
-6 1 -16 3674 527 1
5 -6 -16 2537 745 1
-6 1 -16 2185 508 1
5 -6 -16 1250 734 1
-5 -1 -16 3259 684 1
-5 -1 -17 547 573 1
-1 -5 -17 6 706 1
-6 5 -17 560 621 1
-1 -5 -17 534 651 1
-6 1 -17 5 655 1
6 -5 -17 967 776 1
1 -6 -17 1178 687 1
5 -6 -17 4 757 1
-5 -1 -17 229 674 1
5 -6 -17 1319 757 1
-6 1 -17 1362 507 1
-6 1 -18 2208 538 1
6 -5 -18 2845 815 1
-1 -5 -18 2778 717 1
-1 -5 -18 1998 755 1
-5 -1 -18 3647 725 1
-6 5 -18 2958 673 1
-6 1 -18 2447 689 1
5 -6 -18 3751 803 1
-5 -1 -18 2995 637 1
1 -6 -18 3758 732 1
5 -6 -18 1918 821 1
1 -6 -19 2 760 1
-6 1 -19 900 537 1
-6 5 -19 833 692 1
-1 -5 -19 580 801 1
6 -5 -19 770 836 1
-1 -5 -19 1 721 1
-5 -1 -19 1 745 1
5 -6 -19 651 814 1
5 -6 -19 2 861 1
-6 1 -19 39 711 1
1 -6 -20 2980 797 1
5 -6 -20 2963 861 1
-1 -5 -20 1224 807 1
-5 -1 -20 1884 797 1
-1 -5 -20 1789 761 1
-6 1 -20 528 762 1
6 -5 -20 881 880 1
5 -6 -20 1539 888 1
-6 1 -20 897 582 1
6 -6 0 11125 728 1
0 -6 0 10499 781 1
6 -6 0 11163 666 1
-6 0 0 10445 774 1
-6 6 0 10885 714 1
0 6 0 9809 754 1
-6 6 0 11901 655 1
0 -6 0 10909 775 1
0 -6 -1 234 386 1
-6 6 -1 615 276 1
-6 6 1 4 340 1
-6 6 1 68 218 1
6 -6 -1 4 339 1
-6 0 1 1 388 1
6 -6 -1 4 259 1
0 6 1 1 394 1
-6 0 -1 84 395 1
0 -6 1 1 408 1
6 -6 2 16445 514 1
-6 6 2 16530 566 1
0 -6 2 15365 576 1
6 -6 -2 15534 576 1
-6 6 -2 17692 496 1
0 6 2 15388 594 1
-6 0 -2 14340 589 1
0 -6 -2 15907 596 1
-6 6 2 17086 509 1
6 -6 -2 17754 520 1
0 -6 -3 3110 417 1
-6 0 -3 2520 375 1
6 -6 3 3755 249 1
0 6 3 2973 416 1
6 -6 -3 3341 414 1
-6 6 3 2566 295 1
6 -6 -3 2084 331 1
-6 6 3 2219 379 1
6 0 3 1290 353 1
-6 0 3 2961 352 1
0 -6 3 2122 389 1
-6 6 4 16668 543 1
0 6 4 14212 552 1
6 -6 4 14968 399 1
6 -6 4 14416 552 1
-6 0 4 15338 489 1
6 -6 -4 14995 517 1
6 -6 -4 14572 555 1
0 -6 4 15140 528 1
-6 6 4 14417 487 1
6 0 4 13444 521 1
0 -6 -4 14788 561 1
-6 0 -4 13705 520 1
-6 6 5 20308 905 1
6 -6 5 15453 785 1
-6 6 5 20020 876 1
0 -6 -5 20808 921 1
6 -6 -5 19519 918 1
0 -6 -5 19068 924 1
-6 0 5 19419 842 1
6 -6 5 19442 902 1
6 0 5 16789 886 1
0 6 5 17310 905 1
-6 0 -5 17896 884 1
-6 0 -5 15734 843 1
6 -6 -5 20257 890 1
0 -6 -6 12329 765 1
-6 6 6 12840 720 1
-6 6 6 12674 748 1
6 -6 6 12245 736 1
0 6 6 10889 747 1
6 0 6 10899 724 1
-6 0 -6 11083 740 1
6 -6 6 10408 602 1
-6 0 -6 9575 671 1
6 -6 -6 12223 770 1
6 -6 -6 13029 737 1
-6 0 6 11032 644 1
0 -6 -6 11342 765 1
6 -6 -7 3042 489 1
-6 0 -7 3284 455 1
6 -6 7 3308 294 1
0 -6 -7 3396 497 1
6 -6 -7 3546 495 1
-6 6 7 3090 444 1
0 -6 -7 3793 490 1
-6 0 -7 3229 355 1
6 -6 7 3347 435 1
6 0 7 2866 446 1
-6 0 -8 11506 599 1
-6 6 8 13072 679 1
6 -6 -8 13374 727 1
6 -6 -8 13684 715 1
0 -6 -8 12871 722 1
-6 0 -8 12778 694 1
6 0 8 12203 680 1
6 -6 8 11811 577 1
6 -6 8 13093 658 1
0 -6 -8 13548 709 1
0 -6 -9 1233 501 1
-6 0 -9 2097 349 1
6 -6 -9 1929 515 1
0 -6 -9 1864 474 1
-6 0 -9 1567 468 1
6 -6 -9 1854 517 1
6 -6 9 1018 349 1
6 0 9 1416 474 1
-6 0 -10 480 366 1
0 -6 -10 232 501 1
6 -6 -10 254 559 1
-6 0 -10 76 485 1
6 -6 -10 3 549 1
6 -6 10 628 407 1
6 -6 10 273 167 1
0 -6 10 1 305 1
-6 0 -11 1486 390 1
6 -6 11 1766 243 1
0 -6 -11 3150 556 1
6 -6 -11 2018 582 1
0 -6 11 2436 322 1
6 -6 -11 1295 571 1
-6 0 -11 2154 516 1
6 -6 11 2253 458 1
6 -6 -12 10340 741 1
-6 0 -12 9533 666 1
0 -6 -12 8553 672 1
6 -6 12 9380 630 1
-6 0 -12 8561 542 1
6 -6 12 5819 441 1
0 -6 12 8036 474 1
-6 0 -13 6381 512 1
0 -6 -13 6043 663 1
6 -6 13 7122 619 1
6 -6 -13 6713 746 1
-6 0 -13 5706 625 1
0 -6 -14 422 594 1
-6 0 -14 223 574 1
-6 0 -14 29 444 1
6 -6 -14 145 676 1
0 -6 -15 1602 614 1
-6 0 -15 1584 496 1
6 -6 -15 1084 719 1
-6 0 -15 1995 624 1
-6 0 -16 846 649 1
0 -6 -16 1192 665 1
-6 0 -16 7 529 1
6 -6 -16 1438 743 1
6 -6 -16 688 743 1
-6 0 -17 322 657 1
0 -6 -17 22 677 1
6 -6 -17 20 771 1
6 -6 -17 89 761 1
-6 0 -18 6324 776 1
6 -6 -18 6861 894 1
0 -6 -18 5045 826 1
0 -6 -18 6605 802 1
6 -6 -18 7054 885 1
0 -6 -19 732 792 1
0 -6 -19 4 766 1
-6 0 -19 4 736 1
6 -6 -19 4 855 1
6 -6 -20 2291 915 1
-6 0 -20 1699 480 1
-6 0 -20 2743 802 1
0 -6 -20 1696 795 1
0 -6 -20 2795 862 1
-7 3 0 5688 430 1
3 -7 0 5496 405 1
-4 -3 0 5566 472 1
-7 4 0 5143 327 1
3 -7 0 4406 436 1
-4 7 0 6058 403 1
4 -7 0 6155 433 1
4 -7 0 5630 374 1
-4 7 0 5970 349 1
-7 3 0 5288 386 1
-3 7 0 4516 364 1
7 -4 0 5499 451 1
-7 4 0 4800 353 1
3 -7 -1 46489 1702 1
-7 3 -1 40470 1660 1
-7 4 1 43956 1670 1
-7 4 1 41832 1656 1
-7 3 -1 45681 1668 1
7 -4 1 40198 1698 1
4 -7 -1 44632 1669 1
-7 3 1 45469 1681 1
-4 7 1 45296 1683 1
-7 4 -1 44878 1656 1
7 -4 -1 42557 1693 1
-4 7 1 47992 1665 1
-3 7 1 46875 1673 1
-7 3 1 40389 1690 1
-4 -3 1 42640 1710 1
-7 4 -1 42575 1647 1
-4 -3 -1 45172 1715 1
3 -7 1 44774 1670 1
4 -7 1 43018 1655 1
4 -7 1 43815 1683 1
3 -7 -1 44219 1686 1
4 -7 -1 45313 1697 1
-7 3 -1 41031 1700 1
3 -7 1 44800 1693 1
-7 4 2 9795 574 1
-7 4 2 9901 593 1
4 -7 -2 9888 592 1
-4 7 2 10956 617 1
3 -7 -2 10941 640 1
-7 3 -2 9851 635 1
4 -7 2 10252 540 1
-7 4 -2 8577 617 1
3 -7 2 10549 609 1
7 -3 -2 8867 593 1
7 -4 2 9061 635 1
-7 4 -2 9164 527 1
4 3 2 8942 623 1
7 -4 -2 9661 606 1
4 -7 -2 10795 637 1
-3 7 2 10991 592 1
-7 3 -2 9563 544 1
3 -7 2 10946 567 1
-4 -3 -2 9688 644 1
-7 4 -2 9060 510 1
-4 7 2 11230 576 1
-4 -3 2 9886 636 1
4 -7 2 10174 590 1
3 -7 -2 11126 615 1
-7 3 2 10206 611 1
-3 7 2 10767 626 1
3 -7 -3 72483 2915 1
4 -7 -3 70925 2911 1
4 -7 3 70104 2872 1
-3 7 3 71245 2907 1
4 -7 -3 69164 2899 1
-7 4 -3 69610 2856 1
-7 4 3 71358 2898 1
4 3 3 63494 2906 1
-3 7 3 72111 2896 1
3 -7 -3 71594 2905 1
-7 3 -3 61754 2908 1
7 -4 -3 72030 2900 1
3 -7 3 68774 2880 1
-3 -4 -3 67638 2916 1
-4 7 3 72245 2889 1
-4 -3 -3 67153 2916 1
-4 7 3 72233 2908 1
-7 4 -3 65994 2858 1
-7 3 3 67528 2896 1
7 -3 -3 64577 2891 1
-7 3 3 69741 2901 1
3 -7 3 73090 2899 1
-7 4 3 69081 2890 1
4 -7 3 69760 2883 1
-3 -4 -3 67491 2913 1
-7 3 -3 63233 2872 1
-3 -4 -4 15973 707 1
3 -7 -4 18394 717 1
-7 4 -4 18880 565 1
4 -7 4 15815 636 1
-3 7 4 17283 723 1
-7 3 4 17039 705 1
-7 4 4 17000 702 1
-4 7 4 16954 715 1
-7 3 4 16895 714 1
-3 7 4 16953 692 1
4 -7 4 16813 632 1
7 -4 -4 17004 687 1
4 -7 -4 16766 731 1
-4 -3 -4 16571 705 1
3 -7 4 16340 641 1
-4 -3 -4 16153 729 1
-3 -4 -4 15743 717 1
-7 3 -4 16594 635 1
-4 7 4 16353 680 1
7 -3 -4 15883 662 1
3 -7 -4 17209 734 1
4 -7 -4 17697 713 1
-7 4 4 16045 684 1
4 3 4 15609 722 1
3 -7 4 16995 664 1
-7 4 -4 16111 601 1
-4 7 5 66797 2370 1
-7 3 5 65104 2362 1
4 -7 5 64716 2328 1
3 -7 5 63989 2332 1
-4 -3 -5 64575 2359 1
3 -7 -5 64352 2378 1
3 4 5 57220 2369 1
-7 3 5 65636 2368 1
7 -3 -5 61346 2336 1
-3 -4 -5 63833 2364 1
4 -7 -5 65448 2365 1
-7 4 -5 63910 2363 1
7 -4 -5 64631 2342 1
-4 -3 -5 62469 2376 1
4 3 5 60330 2371 1
7 -4 5 61314 2308 1
4 -7 5 62644 2324 1
3 -7 -5 68581 2372 1
-7 4 5 64735 2360 1
-7 4 -5 61519 2309 1
-3 7 5 63207 2355 1
-3 -4 -5 63648 2376 1
-7 4 5 61502 2351 1
-4 7 5 64579 2350 1
4 -7 -5 64278 2378 1
7 -3 5 59548 2321 1
-7 3 -5 62231 2325 1
-7 3 -5 49025 2294 1
-3 7 5 66503 2372 1
-4 -3 -6 33147 1381 1
-7 3 6 33687 1401 1
-7 4 6 32655 1393 1
3 -7 -6 33815 1401 1
4 -7 -6 34110 1408 1
-3 7 6 32952 1387 1
-7 4 -6 32181 1326 1
4 3 6 31902 1407 1
-7 3 -6 25660 1297 1
-7 3 6 33940 1405 1
7 -4 -6 32778 1360 1
-7 4 -6 33426 1401 1
3 -7 -6 34639 1415 1
4 -7 -6 33577 1399 1
7 -4 6 31987 1327 1
7 -3 6 32738 1345 1
-7 3 -6 34046 1410 1
7 -3 -6 32147 1354 1
-7 4 6 33499 1390 1
-4 -3 -6 35586 1423 1
-4 7 6 34665 1391 1
-4 7 6 34010 1407 1
-3 -4 -6 35688 1424 1
4 -7 6 32645 1346 1
-3 -4 -6 31544 1389 1
-7 3 -6 33623 1344 1
7 -3 7 58937 2206 1
7 -4 7 59842 2195 1
-7 3 -7 47756 2158 1
-7 3 -7 60493 2208 1
4 -7 -7 64200 2253 1
4 -7 7 59535 2212 1
-3 -4 -7 60371 2238 1
-3 7 7 61591 2244 1
-4 -3 -7 59096 2232 1
-7 4 -7 60019 2193 1
4 -7 -7 64237 2267 1
4 -7 7 65498 2230 1
-7 3 -7 63633 2252 1
-4 7 7 64559 2247 1
-7 4 -7 62502 2247 1
-7 4 7 61997 2244 1
7 -3 -7 61549 2204 1
3 -7 -7 62310 2259 1
7 -4 -7 61868 2210 1
-4 -3 -7 64046 2267 1
-3 -4 -7 64523 2262 1
-7 3 7 60449 2250 1
7 -4 -8 22755 825 1
3 -7 8 22377 851 1
-7 3 -8 21997 829 1
4 -7 8 23184 853 1
4 -7 -8 22424 921 1
4 -7 8 22543 841 1
-7 4 -8 22557 815 1
-7 4 -8 22552 888 1
3 -7 -8 23026 923 1
-7 4 8 22931 904 1
7 -3 -8 22384 810 1
7 -3 8 23842 841 1
-7 3 -8 17303 742 1
7 -4 8 21785 815 1
-7 3 -8 23777 904 1
4 -7 -8 21114 920 1
-7 3 8 23587 915 1
-3 -4 -8 22547 895 1
-4 7 8 23138 900 1
3 -7 8 22760 822 1
-4 -3 -8 22566 930 1
-3 -4 -8 23872 934 1
-4 -3 -8 22842 866 1
-3 -4 -9 68349 2524 1
3 -7 9 66976 2501 1
-3 -4 -9 70440 2557 1
4 -7 -9 73870 2553 1
3 -7 9 69004 2486 1
-4 -3 -9 69322 2514 1
7 -3 -9 69016 2471 1
7 -3 9 68682 2496 1
-4 -3 -9 69560 2556 1
3 -7 -9 73607 2554 1
-7 3 -9 70087 2492 1
7 -4 9 66760 2486 1
7 -4 -9 72494 2482 1
-7 4 -9 70082 2526 1
-7 4 -9 69308 2485 1
4 -7 9 67369 2494 1
-7 3 -9 72412 2537 1
4 -7 9 70958 2500 1
-3 -4 -10 10667 722 1
-7 3 -10 9953 682 1
7 -4 -10 9487 557 1
-4 -3 -10 10130 651 1
-7 3 -10 9895 611 1
4 -7 10 9606 604 1
4 -7 -10 10068 730 1
-7 4 -10 9705 669 1
3 -7 10 9450 562 1
7 -3 -10 9298 530 1
-7 4 -10 9520 597 1
7 -3 10 10478 637 1
-3 -4 -10 9385 655 1
7 -4 10 9243 609 1
4 -7 10 9175 612 1
3 -7 -10 9668 724 1
3 -7 10 9188 624 1
-4 -3 -10 10057 721 1
-3 -4 -11 10027 671 1
-4 -3 -11 9877 646 1
-4 -3 -11 10040 706 1
-3 -4 -11 11717 723 1
3 -7 -11 10994 730 1
7 -4 -11 11413 536 1
-7 4 -11 10717 674 1
-7 3 -11 11164 677 1
7 -3 -11 10757 503 1
4 -7 11 9926 613 1
3 -7 11 10861 557 1
-7 4 -11 12026 618 1
4 -7 -11 11651 725 1
4 -7 11 11148 589 1
7 -4 11 12217 637 1
3 -7 -11 10244 710 1
3 -7 11 10851 647 1
7 -3 11 10780 651 1
-7 3 -11 10049 614 1
4 -7 12 1538 419 1
7 -4 12 1893 521 1
-7 3 -12 2135 478 1
4 -7 -12 2081 599 1
-4 -3 -12 2218 522 1
-3 -4 -12 1600 531 1
-7 3 -12 1245 531 1
7 -3 12 2271 542 1
3 -7 12 1225 382 1
-7 4 -12 1180 525 1
-7 4 -12 1788 467 1
-4 -3 -12 1464 591 1
-3 -4 -12 2493 598 1
4 -7 12 2780 513 1
3 -7 -12 1589 588 1
7 -3 -12 1570 287 1
3 -7 -12 2445 610 1
-4 -3 -13 13194 795 1
-3 -4 -13 12569 864 1
3 -7 -13 13653 866 1
4 -7 -13 13146 865 1
-7 4 -13 12865 808 1
3 -7 -13 12560 880 1
-7 3 -13 12252 779 1
4 -7 -13 12871 897 1
7 -4 13 13957 829 1
-7 4 -13 12218 771 1
-4 -3 -13 12856 866 1
-3 -4 -13 13129 817 1
-4 -3 -14 189 538 1
3 -7 -14 975 633 1
-3 -4 -14 657 562 1
4 -7 -14 622 631 1
-7 3 -14 777 533 1
4 -7 -14 358 652 1
-7 4 -14 318 568 1
-4 -3 -14 368 617 1
-3 -4 -14 755 628 1
-7 3 -14 0 576 1
-7 4 -14 391 536 1
3 -7 -14 1111 637 1
-7 4 -15 11886 798 1
-4 -3 -15 12479 779 1
-3 -4 -15 11907 795 1
4 -7 -15 12551 874 1
-4 -3 -15 11385 858 1
3 -7 -15 13628 862 1
-7 3 -15 12360 808 1
-3 -4 -15 11774 865 1
3 -7 -15 12858 889 1
4 -7 -15 12575 891 1
-7 3 -15 11514 779 1
-7 4 -15 11791 786 1
3 -7 -16 3524 759 1
-4 -3 -16 3917 641 1
-3 -4 -16 4048 653 1
-7 4 -16 3407 645 1
-4 -3 -16 3731 720 1
4 -7 -16 4502 762 1
4 -7 -16 3829 744 1
-7 3 -16 4571 641 1
-3 -4 -16 3957 731 1
-7 3 -16 3975 653 1
3 -7 -16 2590 712 1
-7 4 -16 3356 664 1
-7 4 -17 11744 829 1
-4 -3 -17 12096 805 1
3 -7 -17 13520 898 1
-3 -4 -17 10784 820 1
4 -7 -17 11693 901 1
-3 -4 -17 12753 925 1
4 -7 -17 11347 938 1
-7 3 -17 12909 834 1
3 -7 -17 11290 918 1
-7 3 -17 10823 828 1
-4 -3 -17 10967 909 1
-7 4 -17 12752 857 1
3 -7 -18 4559 835 1
-3 -4 -18 3874 805 1
-4 -3 -18 3751 790 1
4 -7 -18 4021 836 1
-4 -3 -18 4259 692 1
-7 4 -18 4650 742 1
-7 4 -18 3663 725 1
-3 -4 -18 5013 710 1
4 -7 -18 5883 825 1
-7 3 -18 3732 740 1
3 -7 -18 5340 808 1
-7 3 -18 4661 721 1
-7 4 -19 15045 1018 1
-3 -4 -19 15897 999 1
-4 -3 -19 16571 987 1
3 -7 -19 16836 1063 1
4 -7 -19 17646 1073 1
-7 4 -19 15757 987 1
-3 -4 -19 14174 1059 1
-4 -3 -19 16277 1061 1
-7 3 -19 15977 984 1
3 -7 -19 13931 1070 1
4 -7 -19 15442 1107 1
-7 3 -19 15855 1012 1
4 -7 -20 2259 903 1
3 -7 -20 3538 896 1
-4 -3 -20 1702 849 1
-3 -4 -20 2745 757 1
-4 -3 -20 4038 774 1
3 -7 -20 1397 859 1
4 -7 -20 1587 885 1
-3 -4 -20 2396 865 1
-7 3 -20 1573 826 1
-7 5 0 18782 1236 1
5 -7 0 17665 1221 1
-5 7 0 19645 1249 1
2 -7 0 19618 1287 1
5 -7 0 18005 1262 1
7 -5 0 17093 1284 1
-7 2 0 17185 1282 1
-2 7 0 18367 1255 1
-7 2 0 18030 1265 1
-5 7 0 20852 1219 1
-5 -2 0 17932 1296 1
-7 5 0 15734 1201 1
2 -7 0 18877 1267 1
-2 -5 0 16189 1284 1
5 -7 -1 1149 398 1
2 -7 -1 563 403 1
-7 5 1 226 245 1
5 -7 1 201 251 1
5 -7 -1 335 314 1
-7 5 -1 214 281 1
5 -7 1 696 360 1
-7 5 1 241 335 1
2 -7 1 320 404 1
-5 7 -1 390 327 1
-5 7 1 211 349 1
-7 2 1 408 393 1
-7 2 -1 126 407 1
2 5 1 833 391 1
-5 -2 1 272 413 1
2 -7 -1 1188 405 1
-7 5 -1 340 182 1
-2 7 1 84 361 1
-7 2 -1 260 344 1
-2 -5 1 6 403 1
-5 -2 -1 148 423 1
2 -7 1 368 362 1
7 -5 1 694 411 1
7 -5 -1 372 383 1
-5 7 1 521 276 1
5 -7 2 481 325 1
-5 7 2 227 374 1
-7 5 -2 439 230 1
-5 7 2 313 301 1
2 -7 2 1264 410 1
5 -7 -2 1247 412 1
7 -5 -2 1240 387 1
-2 -5 -2 761 401 1
-7 5 2 479 281 1
-5 -2 -2 1330 407 1
-7 2 2 540 364 1
2 -7 -2 378 396 1
-7 5 2 1240 354 1
2 5 2 1332 402 1
5 -7 2 280 226 1
-7 2 -2 1267 413 1
-5 -2 2 672 400 1
7 -5 2 723 396 1
-2 -5 2 384 408 1
5 -7 -2 476 327 1
-2 7 2 1269 388 1
2 -7 -2 1269 424 1
2 -7 2 1264 366 1
-7 2 -2 817 347 1
5 -7 3 72 194 1
-7 5 3 632 375 1
-5 -2 -3 349 401 1
-2 -5 -3 300 386 1
-5 7 3 438 394 1
5 -7 3 480 302 1
5 2 3 117 395 1
-2 7 3 27 419 1
-7 5 -3 487 187 1
7 -5 -3 537 377 1
5 -7 -3 711 423 1
-5 7 3 615 317 1
7 -5 -3 508 399 1
-7 2 -3 568 324 1
2 5 3 240 411 1
-7 5 3 938 302 1
-2 -5 3 680 419 1
2 -7 3 572 359 1
-7 2 3 349 367 1
-7 2 -3 664 439 1
5 -7 -3 672 371 1
2 -7 -3 101 421 1
-2 7 3 549 384 1
2 -7 -3 476 443 1
-5 7 4 26923 1277 1
2 -7 -4 26242 1300 1
-7 5 4 25249 1266 1
-7 2 -4 23311 1243 1
-5 -2 -4 23545 1251 1
5 -7 -4 26230 1295 1
-2 -5 -4 25486 1293 1
5 -7 4 22654 1201 1
5 2 4 22227 1270 1
-2 7 4 24644 1286 1
5 -7 -4 24574 1264 1
7 -5 -4 25509 1269 1
7 -5 -4 25212 1281 1
-7 2 4 26370 1298 1
-7 5 4 24486 1242 1
2 -7 4 24634 1251 1
-2 7 4 25970 1276 1
-5 -2 -4 23156 1279 1
-5 7 4 26180 1249 1
5 -7 4 24345 1214 1
2 -7 -4 26004 1283 1
-5 7 5 10447 615 1
2 -7 -5 11888 637 1
-5 -2 -5 9667 561 1
-7 2 5 11489 652 1
2 -7 5 10432 553 1
-2 -5 -5 10402 619 1
-7 5 5 11027 598 1
-7 5 5 11000 566 1
5 -7 -5 10707 630 1
-7 2 5 10292 621 1
7 -5 5 9661 608 1
5 -7 -5 10847 598 1
7 -5 -5 10178 625 1
7 -2 5 9298 533 1
5 -7 5 10185 474 1
5 2 5 9262 608 1
-2 7 5 11862 599 1
-7 5 -5 8258 431 1
-5 -2 -5 10554 610 1
-7 2 -5 10651 548 1
2 -7 -5 9952 627 1
-5 7 5 10869 573 1
-7 2 -5 9181 479 1
5 -7 5 10173 480 1
5 -7 5 10202 492 1
-2 7 5 11441 618 1
-7 2 6 5170 503 1
5 -7 6 6216 465 1
5 -7 -6 6738 479 1
-2 -5 -6 6532 473 1
-5 -2 -6 6764 426 1
-7 5 6 6614 455 1
-2 7 6 6742 489 1
-5 7 6 6380 457 1
-7 2 -6 5389 313 1
-7 2 -6 5777 426 1
5 -7 -6 6305 504 1
-7 5 6 7616 483 1
2 -7 -6 6527 511 1
-7 2 6 5788 545 1
7 -5 -6 6501 517 1
5 -7 6 5622 361 1
7 -5 6 5951 284 1
-7 5 -6 5594 283 1
-5 7 6 7408 509 1
7 -2 6 5544 410 1
-5 -2 -6 6575 489 1
5 2 6 5133 491 1
5 -7 6 6562 330 1
2 -7 -7 8228 590 1
-7 2 7 8601 592 1
-7 2 -7 8751 522 1
-5 -2 -7 8629 521 1
-2 -5 -7 8407 577 1
-7 5 -7 8718 555 1
-7 2 -7 8534 415 1
7 -5 -7 8040 571 1
7 -5 -7 8214 598 1
5 -7 -7 7831 597 1
-7 5 7 8618 555 1
5 -7 7 9134 532 1
5 -7 -7 9041 576 1
7 -2 7 9125 512 1
7 -5 7 7787 411 1
5 -7 7 8433 459 1
-7 2 -7 9134 597 1
5 -7 7 8281 425 1
-7 5 -7 8371 411 1
-5 -2 -7 8678 597 1
-5 7 7 8390 562 1
-5 -2 -8 11774 700 1
-2 -5 -8 11919 732 1
-7 5 8 14183 746 1
2 -7 -8 11422 770 1
5 -7 -8 12725 767 1
7 -5 -8 14306 773 1
-7 5 -8 12591 730 1
7 -5 -8 12668 784 1
7 -2 8 12257 697 1
-5 -2 8 12641 583 1
5 -7 8 12511 700 1
5 -7 8 12799 658 1
5 -7 -8 12933 770 1
-7 2 -8 12897 756 1
7 -5 8 11184 625 1
-7 5 -8 11505 621 1
-7 2 -8 11188 602 1
-5 -2 -8 12570 767 1
-5 7 8 12530 739 1
-7 2 -8 12519 685 1
7 -5 -9 1354 524 1
5 -7 -9 1359 514 1
-5 -2 -9 269 498 1
2 -7 -9 439 506 1
5 -7 9 386 414 1
5 -7 9 1166 368 1
-7 2 -9 594 263 1
-7 5 -9 499 463 1
-7 2 -9 401 497 1
7 -5 -9 268 541 1
-2 -5 -9 969 529 1
-7 5 -9 671 333 1
-7 2 -9 1228 403 1
-5 -2 -9 427 408 1
2 -7 -9 579 506 1
2 -7 9 690 429 1
5 -7 -9 903 524 1
2 -7 9 877 332 1
7 -2 9 750 433 1
-2 -5 -9 890 485 1
7 -5 9 560 346 1
-5 -2 -10 12974 618 1
5 -7 10 13225 570 1
2 -7 10 13279 655 1
-7 2 -10 13531 613 1
-7 2 -10 13018 506 1
2 -7 -10 15019 718 1
5 -7 -10 14060 720 1
2 -7 10 13153 553 1
7 -5 -10 13942 715 1
-5 -2 -10 13280 680 1
-2 -5 -10 12159 666 1
-2 -5 -10 12415 710 1
-7 5 -10 14324 658 1
2 -7 -10 14339 718 1
5 -7 -10 12852 718 1
7 -2 10 14510 647 1
5 -7 10 13829 609 1
7 -5 10 12566 584 1
-7 2 -10 12729 676 1
-7 5 -10 13438 566 1
7 -2 11 3626 538 1
5 -7 -11 3752 612 1
5 -7 11 2949 449 1
7 -5 -11 4505 621 1
7 -5 11 3558 485 1
-2 -5 -11 2665 538 1
-7 2 -11 2954 551 1
-5 -2 -11 3075 481 1
-2 -5 11 2923 260 1
-7 2 -11 3495 346 1
5 -7 11 2591 364 1
-5 -2 -11 3448 580 1
-2 -5 -11 3231 588 1
2 -7 11 3831 392 1
-7 5 -11 3657 440 1
5 -7 11 2825 464 1
-7 5 -11 3506 512 1
2 -7 -11 3309 579 1
2 -7 -11 3338 591 1
-7 2 -11 3521 479 1
-7 2 -12 637 520 1
-7 2 -12 309 496 1
-7 5 -12 476 511 1
2 -7 -12 297 556 1
5 -7 -12 164 594 1
2 -7 -12 538 590 1
5 -7 12 463 486 1
7 -5 -12 13 602 1
7 -5 12 302 505 1
-5 -2 -12 192 491 1
-2 -5 -12 66 548 1
2 -7 12 826 377 1
-7 2 -12 64 344 1
5 -7 12 36 344 1
-5 -2 -12 34 566 1
-2 -5 -12 33 584 1
-7 5 -12 528 440 1
2 -7 -13 499 611 1
-7 2 -13 371 526 1
-7 5 -13 529 525 1
-2 -5 -13 669 560 1
-5 -2 -13 1430 507 1
5 -7 -13 47 650 1
-7 2 -13 174 386 1
-7 2 -13 42 528 1
5 -7 13 415 526 1
7 -5 -13 754 637 1
-5 -2 -13 2295 610 1
-2 -5 -13 819 644 1
-7 5 -13 983 477 1
2 -7 -13 324 587 1
-2 -5 -14 8668 708 1
7 -5 -14 9322 799 1
-5 -2 -14 7403 627 1
-7 5 -14 8838 627 1
-7 5 -14 8987 668 1
-7 2 -14 7637 650 1
-7 2 -14 8320 670 1
2 -7 -14 8834 741 1
5 -7 -14 7251 771 1
-5 -2 -14 7887 723 1
-2 -5 -14 8625 755 1
2 -7 -14 7200 769 1
5 -7 -14 8987 787 1
5 -7 -15 22 699 1
-7 5 -15 21 590 1
-7 2 -15 138 545 1
-7 2 -15 49 572 1
-5 -2 -15 34 534 1
-2 -5 -15 18 599 1
2 -7 -15 573 657 1
5 -7 -15 173 706 1
7 -5 -15 1258 712 1
2 -7 -15 407 674 1
-2 -5 -15 407 659 1
-7 5 -15 21 537 1
-5 -2 -15 161 638 1
-7 5 -16 788 624 1
-7 5 -16 34 580 1
2 -7 -16 137 715 1
-2 -5 -16 283 619 1
-5 -2 -16 39 569 1
-7 2 -16 597 633 1
-5 -2 -16 29 679 1
2 -7 -16 364 691 1
7 -5 -16 34 735 1
5 -7 -16 439 769 1
5 -7 -16 468 711 1
-2 -5 -16 1366 703 1
-7 2 -16 27 571 1
-2 -5 -17 1239 686 1
-2 -5 -17 1304 760 1
2 -7 -17 196 729 1
7 -5 -17 1378 793 1
-7 2 -17 1166 643 1
-5 -2 -17 1632 741 1
-5 -2 -17 676 607 1
2 -7 -17 1224 734 1
5 -7 -17 1246 776 1
5 -7 -17 664 784 1
-7 5 -17 1353 642 1
-7 2 -17 1055 608 1
-7 5 -17 743 642 1
-5 -2 -18 3600 663 1
-2 -5 -18 3096 792 1
-7 5 -18 2738 702 1
7 -5 -18 2974 822 1
2 -7 -18 3075 803 1
-2 -5 -18 3195 696 1
-7 2 -18 3082 716 1
2 -7 -18 2207 781 1
-7 2 -18 2192 626 1
5 -7 -18 4131 799 1
-5 -2 -18 3237 782 1
5 -7 -18 3229 837 1
-7 5 -18 2651 686 1
-7 2 -19 134 741 1
-2 -5 -19 31 798 1
-7 2 -19 502 638 1
7 -5 -19 792 852 1
2 -7 -19 929 826 1
-2 -5 -19 124 728 1
2 -7 -19 706 789 1
5 -7 -19 732 841 1
-5 -2 -19 377 784 1
5 -7 -19 103 863 1
-7 2 -20 2495 682 1
-7 2 -20 1401 804 1
-2 -5 -20 928 867 1
5 -7 -20 3724 899 1
-2 -5 -20 2484 790 1
2 -7 -20 3092 858 1
-5 -2 -20 1520 836 1
5 -7 -20 2117 929 1
6 -7 0 10220 439 1
6 -7 0 10881 527 1
-1 -6 0 10443 561 1
7 -6 0 10602 499 1
-7 6 0 10269 481 1
7 -6 0 10340 583 1
-1 7 0 9966 526 1
-7 1 0 11221 559 1
-6 -1 0 10345 593 1
-6 7 0 12340 427 1
1 -7 0 10822 563 1
-7 1 0 10103 567 1
1 -7 0 10944 577 1
-7 6 0 11095 395 1
-6 7 0 11056 498 1
-6 7 1 2319 349 1
1 -7 -1 1919 456 1
-1 7 1 2447 395 1
1 -7 -1 1568 424 1
7 -6 1 1887 444 1
-1 -6 -1 2102 441 1
6 -7 1 2184 216 1
7 -6 1 2312 322 1
1 -7 1 2015 444 1
6 -7 -1 2059 289 1
6 -7 1 2357 349 1
6 -7 -1 2215 389 1
7 -6 -1 1940 368 1
-7 6 1 2141 251 1
-7 1 -1 1944 442 1
-6 7 1 2235 268 1
-7 1 1 1988 369 1
1 6 1 1795 407 1
-6 -1 1 1529 438 1
-7 1 1 1827 423 1
-7 6 -1 2352 291 1
-7 1 -1 2120 393 1
-6 -1 -1 2162 443 1
-1 -6 1 2516 430 1
7 -6 -1 2704 448 1
1 -7 1 2330 423 1
-6 7 -1 2599 321 1
-7 6 1 2745 351 1
-6 7 2 20124 775 1
-1 -6 2 16371 808 1
1 6 2 15170 797 1
1 -7 2 17643 799 1
-7 6 2 18934 775 1
-7 6 -2 18704 709 1
6 -7 -2 20759 799 1
7 -6 -2 16836 781 1
1 -7 -2 19410 822 1
6 -7 2 19932 754 1
6 -7 -2 20945 750 1
-1 7 2 17146 793 1
-7 1 2 19647 804 1
-7 1 -2 16879 791 1
-6 -1 -2 16549 815 1
-1 -6 -2 15545 815 1
7 -6 2 17518 725 1
1 -7 -2 17274 804 1
-7 6 2 17300 723 1
-6 7 2 19405 724 1
-7 1 -2 17514 815 1
-1 -6 -3 242 435 1
-7 6 -3 95 203 1
-6 7 3 64 392 1
-7 6 3 502 388 1
-6 7 3 350 302 1
6 -7 -3 115 411 1
6 -7 3 228 306 1
1 -7 -3 953 431 1
-7 1 -3 49 362 1
7 -6 -3 344 340 1
6 -7 -3 345 359 1
-6 -1 -3 36 404 1
7 -6 -3 76 394 1
-1 -6 -3 314 418 1
1 -7 -3 1331 429 1
-7 1 3 154 371 1
-1 -6 3 37 398 1
-7 6 3 132 301 1
1 -7 3 3 401 1
1 6 3 38 412 1
-1 7 3 925 408 1
6 -7 4 17574 707 1
-1 -6 4 14613 799 1
1 6 4 14579 792 1
-7 6 4 17363 786 1
6 -7 4 17346 818 1
6 -7 -4 16291 792 1
6 1 4 13584 775 1
7 -6 -4 17124 767 1
7 -6 -4 16785 794 1
-7 1 4 16299 741 1
6 -7 -4 16278 755 1
1 -7 4 15987 788 1
-1 7 4 15467 785 1
-6 7 4 16605 777 1
-6 -1 -4 13952 778 1
-7 1 -4 13503 758 1
-1 -6 -4 14530 803 1
1 -7 -4 16326 810 1
-6 7 4 16421 740 1
-1 -6 -4 15317 819 1
-7 6 4 16518 739 1
-1 7 5 6680 496 1
-7 6 5 7482 498 1
1 -7 5 8489 478 1
-6 -1 -5 6891 496 1
-7 6 5 7589 435 1
7 -6 -5 7866 471 1
6 -7 5 7763 496 1
-6 7 5 8495 494 1
7 -6 -5 8181 523 1
-1 -6 -5 7631 529 1
-7 1 5 7302 401 1
1 -7 -5 7747 537 1
6 -7 5 8819 337 1
6 -7 -5 7344 487 1
7 -1 5 6929 444 1
6 1 5 7155 476 1
6 -7 -5 8803 474 1
-1 -6 -5 7989 518 1
-7 1 -5 6968 434 1
-6 -1 5 7484 402 1
7 -6 5 6830 499 1
-6 7 5 8021 438 1
-7 1 -5 6677 377 1
-6 -1 -5 6469 439 1
-1 -6 -6 16748 727 1
-6 7 6 17664 677 1
1 -7 -6 16770 730 1
-6 -1 6 17603 612 1
6 -7 6 14407 558 1
6 -7 -6 15951 711 1
7 -6 -6 16514 701 1
-7 6 6 17883 705 1
-7 1 6 15334 734 1
6 -7 6 16675 562 1
7 -6 -6 17613 735 1
6 1 6 15006 694 1
6 -7 6 16990 686 1
7 -1 6 14680 660 1
6 -7 -6 18028 697 1
7 -6 6 17119 692 1
-6 -1 -6 15123 713 1
-7 1 -6 16809 677 1
-1 -6 -6 15006 728 1
-7 1 -6 14654 606 1
-6 -1 -6 15315 648 1
-7 6 6 17022 664 1
7 -6 7 335 202 1
-1 -6 -7 24 452 1
-6 -1 -7 11 348 1
6 -7 -7 1 470 1
7 -6 -7 333 481 1
1 -7 -7 341 467 1
6 -7 7 333 226 1
-6 -1 -7 32 469 1
6 -7 -7 1 492 1
-7 1 -7 340 296 1
-7 1 -7 0 431 1
7 -6 7 335 421 1
-6 -1 7 103 265 1
1 -7 -7 341 474 1
6 -7 7 0 264 1
7 -1 7 340 408 1
-7 6 7 333 416 1
6 -7 7 333 406 1
7 -6 -7 23 467 1
6 1 7 314 467 1
-6 7 7 334 434 1
-1 -6 -8 6169 602 1
1 -7 -8 5792 603 1
1 -7 -8 5974 620 1
6 -7 8 4678 426 1
6 -7 -8 5985 623 1
-7 6 8 5698 556 1
-7 1 -8 6570 559 1
7 -6 -8 6356 609 1
7 -1 8 5521 547 1
-6 7 8 5966 574 1
7 -6 -8 4772 627 1
6 -7 8 4482 373 1
6 -7 8 5436 536 1
7 -6 8 4707 400 1
6 -7 -8 6902 604 1
-6 -1 -8 5227 504 1
-7 1 -8 5558 446 1
-6 -1 -8 5229 568 1
6 -7 9 71 419 1
6 -7 9 71 236 1
-6 -1 -9 166 398 1
1 -7 -9 55 520 1
1 -7 -9 291 519 1
-1 -6 -9 15 495 1
-7 1 -9 254 328 1
-6 -1 -9 523 513 1
7 -1 9 5 459 1
-7 1 -9 54 455 1
6 -7 -9 246 536 1
6 -7 -9 81 523 1
7 -6 -9 72 554 1
6 -7 9 71 325 1
7 -6 -9 72 530 1
7 -6 9 71 325 1
7 -1 10 3071 532 1
6 -7 10 2886 469 1
-7 1 -10 2662 373 1
1 -7 -10 3049 577 1
7 -6 10 2951 416 1
-6 -1 -10 3132 444 1
6 -7 -10 4081 592 1
6 -7 10 1683 283 1
6 -7 -10 3193 587 1
-6 -1 -10 2053 540 1
7 -6 -10 2650 622 1
-7 1 -10 2308 510 1
1 -7 -10 2661 566 1
6 -7 10 2296 407 1
-1 -6 -10 2517 541 1
1 -7 10 2659 380 1
7 -6 -10 2639 583 1
-1 -6 11 1977 296 1
-6 -1 -11 2147 445 1
-1 -6 -11 1903 552 1
1 -7 -11 3141 602 1
1 -7 11 2808 362 1
-7 1 -11 1761 351 1
6 -7 11 2270 271 1
7 -6 11 2141 457 1
6 -7 -11 1617 600 1
6 -7 -11 2471 603 1
7 -6 -11 2810 633 1
-6 -1 -11 1854 551 1
-7 1 -11 2514 502 1
6 -7 11 3238 451 1
1 -7 -11 2243 594 1
7 -6 -11 2642 606 1
7 -6 -12 8336 723 1
-1 -6 12 6716 422 1
-7 1 -12 7791 483 1
1 -7 -12 8944 725 1
-7 1 -12 7446 628 1
-1 -6 -12 7485 700 1
1 -7 -12 7383 671 1
7 -6 12 7520 607 1
-6 -1 -12 8126 579 1
6 -7 -12 7884 738 1
1 -7 12 7552 497 1
7 -6 -12 7360 732 1
6 -7 12 7462 592 1
6 -7 -12 9303 732 1
-6 -1 -12 8374 671 1
7 -6 -13 308 652 1
-6 -1 -13 1315 496 1
-7 1 -13 674 397 1
1 -7 -13 1402 612 1
-1 -6 -13 873 583 1
6 -7 -13 718 658 1
7 -6 -13 2195 676 1
1 -7 13 908 385 1
-6 -1 -13 518 586 1
1 -7 -13 1207 631 1
-7 1 -13 601 562 1
1 -7 -14 3676 687 1
-7 1 -14 3157 614 1
7 -6 -14 3511 717 1
-1 -6 -14 3198 640 1
-6 -1 -14 2637 509 1
1 -7 -14 3274 657 1
-7 1 -14 3994 462 1
6 -7 -14 3385 725 1
-6 -1 -14 4037 646 1
-1 -6 -14 2482 669 1
-7 1 -15 387 621 1
7 -6 -15 101 723 1
-1 -6 -15 15 633 1
-7 1 -15 240 490 1
1 -7 -15 575 695 1
6 -7 -15 805 736 1
1 -7 -15 761 651 1
-6 -1 -15 470 533 1
-1 -6 -15 918 687 1
-6 -1 -15 16 649 1
-1 -6 -16 6202 781 1
-7 1 -16 5199 686 1
-6 -1 -16 4969 741 1
1 -7 -16 6586 742 1
-6 -1 -16 5090 611 1
7 -6 -16 6782 830 1
-7 1 -16 5350 563 1
6 -7 -16 5526 798 1
-1 -6 -16 5697 708 1
6 -7 -16 4138 824 1
-6 -1 -17 27 733 1
-7 1 -17 502 656 1
-1 -6 -17 279 764 1
-1 -6 -17 26 698 1
1 -7 -17 5 718 1
-7 1 -17 28 501 1
6 -7 -17 29 808 1
7 -6 -17 29 811 1
6 -7 -17 56 795 1
-1 -6 -18 2382 727 1
1 -7 -18 1252 758 1
-7 1 -18 874 699 1
-6 -1 -18 1080 752 1
6 -7 -18 1969 844 1
-1 -6 -18 1312 776 1
7 -6 -18 266 853 1
-7 1 -18 1122 516 1
6 -7 -18 1920 849 1
7 -6 -19 184 875 1
-1 -6 -19 660 799 1
-7 1 -19 307 518 1
-7 1 -19 5 759 1
-1 -6 -19 5 748 1
6 -7 -19 1026 865 1
-6 -1 -19 235 771 1
1 -7 -19 901 776 1
6 -7 -19 6 866 1
0 -7 0 3438 504 1
0 -7 0 2811 479 1
-7 7 0 3741 373 1
7 -7 0 4391 403 1
-7 0 0 3646 475 1
-7 7 -1 28379 1283 1
0 -7 -1 27024 1340 1
7 -7 -1 28494 1274 1
7 -7 1 26602 1294 1
7 -7 -1 27822 1322 1
-7 7 1 29543 1307 1
0 7 1 25097 1333 1
-7 0 1 25504 1342 1
-7 0 -1 27187 1357 1
0 -7 1 24777 1340 1
-7 7 1 27799 1258 1
0 -7 -1 26713 1351 1
-7 7 2 15841 762 1
7 -7 2 13549 716 1
7 -7 -2 14208 720 1
-7 7 -2 15349 707 1
0 -7 -2 13166 815 1
0 -7 2 12709 789 1
-7 0 -2 13145 802 1
-7 0 2 15664 784 1
-7 7 2 14693 703 1
0 7 2 12724 784 1
7 -7 -2 13987 767 1
-7 7 3 52486 1911 1
7 -7 -3 49759 1893 1
0 7 3 45897 1925 1
7 -7 -3 52366 1924 1
7 -7 3 50202 1868 1
0 -7 3 46520 1923 1
-7 0 -3 45254 1918 1
0 -7 -3 47112 1942 1
-7 0 3 51280 1911 1
-7 7 3 51212 1881 1
-7 0 -4 3625 409 1
-7 7 4 3924 435 1
7 -7 4 3620 462 1
7 -7 4 4043 272 1
-7 7 4 5054 368 1
7 -7 -4 4112 475 1
7 0 4 4206 407 1
7 -7 -4 4412 420 1
0 -7 -4 3773 486 1
0 -7 4 4016 450 1
-7 0 4 4772 409 1
-7 0 -5 5459 417 1
0 -7 -5 6384 542 1
0 -7 5 6138 506 1
-7 0 -5 6426 495 1
7 -7 -5 6102 526 1
-7 7 5 7558 493 1
-7 0 5 8551 424 1
7 -7 -5 7608 483 1
7 0 5 5852 469 1
7 -7 5 6945 503 1
7 -7 5 5365 290 1
-7 7 5 7221 439 1
-7 0 -6 4528 424 1
7 -7 -6 7494 525 1
-7 7 6 6625 488 1
-7 0 -6 4579 535 1
-7 0 6 5983 412 1
7 -7 6 5790 527 1
7 -7 -6 6870 564 1
0 -7 -6 5596 580 1
7 0 6 4994 498 1
0 -7 -6 6053 554 1
0 -7 -7 11431 626 1
7 0 7 9461 562 1
7 -7 -7 14774 647 1
-7 0 -7 9799 481 1
7 -7 7 11078 572 1
-7 0 -7 10012 580 1
-7 7 7 13291 559 1
0 -7 -7 11071 634 1
7 -7 -7 14133 621 1
0 -7 -8 79 520 1
7 -7 8 75 259 1
-7 7 8 1266 463 1
-7 0 -8 79 364 1
-7 0 -8 722 487 1
7 -7 -8 76 547 1
0 -7 -8 674 524 1
7 -7 -8 1503 525 1
7 -7 8 318 439 1
7 0 8 79 473 1
0 -7 -9 12725 734 1
-7 0 -9 11290 708 1
7 -7 -9 12413 751 1
7 -7 -9 14193 746 1
0 -7 -9 12580 751 1
7 -7 9 11150 669 1
-7 0 -9 11521 609 1
7 -7 9 11125 564 1
0 -7 -10 284 546 1
0 -7 -10 332 585 1
7 -7 10 137 397 1
7 -7 -10 1422 587 1
-7 0 -10 1558 535 1
7 -7 -10 749 597 1
-7 0 -10 1333 402 1
-7 0 -11 8263 519 1
0 -7 11 7205 458 1
7 -7 11 6798 546 1
7 -7 -11 8236 694 1
-7 0 -11 6939 639 1
0 -7 -11 7650 686 1
7 -7 -11 7913 704 1
0 -7 -11 7256 673 1
0 -7 -12 13684 795 1
-7 0 -12 12054 643 1
-7 0 -12 11961 771 1
0 -7 -12 12227 812 1
7 -7 -12 11449 860 1
0 -7 12 12037 600 1
7 -7 -12 13921 864 1
7 -7 -13 21982 1038 1
0 -7 -13 20269 975 1
-7 0 -13 17723 840 1
-7 0 -13 19003 959 1
7 -7 -13 19208 1044 1
0 -7 -14 2174 650 1
-7 0 -14 1552 479 1
7 -7 -14 1088 712 1
-7 0 -14 2174 642 1
-7 0 -15 13484 889 1
7 -7 -15 12907 967 1
0 -7 -15 11404 900 1
0 -7 -16 4627 722 1
-7 0 -16 4072 714 1
7 -7 -16 3622 836 1
-7 0 -17 3177 765 1
0 -7 -17 4357 772 1
7 -7 -17 4387 832 1
7 -7 -18 77 853 1
-7 0 -18 4 721 1
0 -7 -18 4 765 1
7 -7 -18 5 818 1
-7 0 -19 4019 808 1
0 -7 -19 3955 819 1
7 -7 -19 3539 944 1
4 -8 0 42293 2230 1
-8 4 0 44042 2205 1
-4 -4 0 38747 2247 1
-4 8 0 45367 2204 1
4 -8 0 42451 2209 1
8 -4 0 37371 2226 1
-8 4 0 40478 2199 1
4 -8 -2 105899 2940 1
-8 4 2 98768 2906 1
4 -8 2 103723 2903 1
-8 4 -2 98627 2886 1
-8 4 2 99923 2910 1
-8 4 -2 97365 2937 1
-4 8 2 109189 2912 1
-8 4 -2 98990 2889 1
-4 -4 -2 101963 2953 1
4 -8 2 103317 2920 1
8 -4 -2 96511 2922 1
4 -8 -2 104825 2916 1
-4 8 2 109480 2929 1
-8 4 4 86965 3661 1
4 -8 -4 91843 3688 1
4 -8 -4 89116 3673 1
-4 -4 -4 81937 3671 1
-8 4 -4 84312 3616 1
-8 4 4 86178 3663 1
4 -8 4 90018 3656 1
4 -8 4 89400 3644 1
-4 8 4 89697 3658 1
-4 -4 -4 86088 3691 1
8 -4 -4 85465 3660 1
-4 8 4 90682 3677 1
-8 4 -4 82407 3629 1
4 -8 -6 100963 3394 1
4 -8 -6 107584 3419 1
-4 -4 -6 96526 3386 1
-8 4 -6 96044 3343 1
-8 4 -6 98528 3394 1
8 -4 6 92664 3339 1
4 -8 6 100900 3359 1
8 -4 -6 101138 3366 1
-4 8 6 104580 3383 1
-4 -4 -6 98417 3412 1
-8 4 6 99744 3385 1
4 -8 6 101152 3360 1
-4 -4 -8 71125 3203 1
4 -8 -8 77831 3228 1
4 -8 -8 77057 3231 1
4 -8 8 71295 3179 1
-8 4 -8 73606 3164 1
-8 4 -8 76008 3215 1
8 -4 -8 76097 3173 1
8 -4 8 67284 3161 1
4 -8 8 75857 3189 1
-4 -4 -8 75622 3236 1
-4 -4 -10 27063 1136 1
4 -8 -10 28824 1134 1
-8 4 -10 27660 1024 1
4 -8 10 27444 1028 1
-8 4 -10 27679 1086 1
-4 -4 -10 25492 1070 1
8 -4 -10 27973 994 1
8 -4 10 27160 1020 1
4 -8 10 26335 1042 1
-4 -4 -12 31020 1389 1
-8 4 -12 29499 1338 1
4 -8 -12 31873 1386 1
8 -4 -12 30109 1219 1
-8 4 -12 31015 1295 1
8 -4 12 32107 1301 1
4 -8 12 32323 1276 1
4 -8 12 27800 1291 1
-4 -4 -12 30761 1332 1
4 -8 -14 17449 988 1
-4 -4 -14 17787 990 1
-4 -4 -14 17699 925 1
-8 4 -14 16885 936 1
4 -8 -14 17881 1008 1
-8 4 -14 18479 894 1
-4 -4 -16 23067 1135 1
4 -8 -16 23224 1207 1
-8 4 -16 23041 1144 1
4 -8 -16 21259 1222 1
-4 -4 -16 24354 1220 1
-8 4 -16 22815 1142 1
-4 -4 -18 16813 1010 1
4 -8 -18 17080 1087 1
-8 4 -18 15829 1004 1
-4 -4 -18 17668 1095 1
4 -8 -18 17162 1124 1
3 -8 0 324 413 1
5 -8 0 930 376 1
-8 3 0 759 418 1
-8 5 0 656 256 1
3 -8 0 574 392 1
-8 5 0 139 329 1
5 -8 0 646 305 1
8 -5 0 526 433 1
-3 8 0 0 353 1
-8 3 0 286 363 1
-5 8 0 789 300 1
-5 -3 0 0 433 1
-5 8 0 37 361 1
5 -8 1 14563 616 1
5 -8 -1 15350 656 1
5 -8 -1 13272 576 1
3 -8 -1 13725 653 1
-5 8 1 15608 610 1
-8 5 1 14314 594 1
-8 5 -1 14187 559 1
-8 3 1 13286 616 1
-8 3 1 14079 637 1
-3 8 1 14035 602 1
-5 -3 1 13333 664 1
-8 5 -1 12981 525 1
-8 3 -1 13508 608 1
-5 8 1 15318 571 1
-5 -3 -1 14325 687 1
8 -5 -1 12627 646 1
3 -8 1 14056 600 1
8 -5 1 13607 659 1
3 -8 -1 13305 625 1
-8 3 -1 13251 660 1
-8 5 1 13111 541 1
5 -8 1 12383 551 1
3 -8 1 14082 642 1
-8 5 -1 11696 506 1
3 -8 -2 15097 795 1
5 -8 2 14872 727 1
-8 3 2 15167 764 1
5 -8 -2 14536 779 1
-8 5 -2 11551 639 1
-8 5 2 14730 741 1
-5 8 2 15321 755 1
5 -8 -2 14056 721 1
-8 3 -2 12864 787 1
8 -5 -2 13486 766 1
-5 -3 2 13641 788 1
-3 8 2 14629 743 1
-8 3 -2 12837 719 1
-5 8 2 15240 711 1
-5 -3 -2 14269 801 1
3 -8 2 14008 726 1
-8 5 -2 12131 645 1
5 -8 2 12646 678 1
-8 5 2 13105 694 1
8 -5 2 12825 774 1
3 -8 -2 15770 765 1
3 -8 2 14443 764 1
5 -8 3 29602 1283 1
-8 5 -3 29964 1237 1
5 -8 -3 32066 1342 1
5 -8 -3 29661 1297 1
-5 8 3 32396 1316 1
-5 8 3 33007 1287 1
-8 3 3 30370 1319 1
-8 3 3 29568 1310 1
3 -8 -3 31587 1345 1
8 -5 -3 29770 1314 1
3 -8 3 29903 1307 1
-8 3 -3 27325 1335 1
-8 5 3 32462 1306 1
-5 -3 3 28139 1342 1
-3 -5 3 27579 1346 1
3 -8 3 30096 1290 1
-3 8 3 30495 1302 1
-5 -3 -3 28678 1338 1
-8 3 -3 28118 1279 1
5 -8 3 27637 1250 1
-8 5 3 28294 1277 1
8 -5 3 27283 1329 1
-8 5 -3 23623 1223 1
3 -8 -3 31443 1331 1
-3 8 3 30026 1322 1
-3 -5 -3 27101 1330 1
5 -8 4 8427 421 1
-3 -5 -4 8943 550 1
-5 -3 -4 7923 507 1
-8 5 -4 7456 317 1
-5 8 4 9040 517 1
-5 -3 -4 8578 536 1
3 -8 4 9666 504 1
3 -8 -4 8828 559 1
-8 5 4 8076 499 1
-8 3 4 7881 521 1
5 -8 4 8736 379 1
3 -8 -4 9185 540 1
8 -5 -4 7640 493 1
-8 3 4 8792 539 1
3 -8 4 8345 458 1
-5 8 4 9683 460 1
-3 -5 4 8728 559 1
-8 3 -4 8047 429 1
5 -8 -4 8957 493 1
5 -8 -4 8400 534 1
-8 5 4 8079 462 1
-8 3 -4 7540 539 1
-3 8 4 8596 503 1
5 -8 5 47274 1834 1
3 -8 -5 51438 1905 1
5 -8 5 47036 1841 1
-8 5 5 49737 1883 1
-8 5 -5 43159 1808 1
-3 -5 -5 47566 1902 1
5 -8 -5 50593 1890 1
-8 3 5 50755 1899 1
-8 3 5 49062 1890 1
3 -8 -5 51080 1916 1
8 -5 -5 49643 1873 1
-8 5 -5 49310 1898 1
3 -8 5 48095 1856 1
-8 5 5 48671 1868 1
-3 8 5 49156 1880 1
-5 -3 -5 46956 1908 1
-5 8 5 51288 1870 1
-3 -5 -5 46252 1901 1
-8 3 -5 48848 1853 1
5 -8 -5 50436 1907 1
-5 -3 -5 43377 1875 1
-8 5 6 4327 479 1
5 -8 -6 4386 521 1
-5 -3 -6 3772 482 1
-8 5 -6 3848 524 1
-3 -5 -6 3435 494 1
5 -8 6 3870 362 1
-5 -3 -6 3977 557 1
8 -3 6 3707 404 1
8 -5 -6 3455 458 1
-5 8 6 4334 484 1
5 -8 -6 4158 551 1
-8 5 -6 3447 312 1
-8 3 -6 3404 418 1
3 -8 -6 3776 560 1
5 -8 6 3714 391 1
5 -8 6 3784 376 1
3 -8 -6 4243 536 1
-3 8 6 3712 498 1
3 -8 6 4034 420 1
-3 -5 -6 4085 555 1
-8 3 6 3924 530 1
-8 3 -6 2831 302 1
-5 -3 -7 39896 1585 1
-3 -5 -7 39896 1603 1
5 -8 7 43881 1596 1
-8 3 -7 32425 1497 1
5 -8 7 40730 1547 1
3 -8 -7 41019 1630 1
-8 3 -7 41427 1557 1
5 -8 -7 42883 1629 1
8 -5 -7 43314 1567 1
5 -8 -7 46700 1619 1
-8 5 -7 39970 1518 1
5 -8 7 41295 1534 1
-8 5 7 40777 1587 1
8 -5 7 38984 1513 1
8 -3 7 38695 1549 1
-8 5 -7 44167 1609 1
-8 3 -7 44508 1621 1
-5 8 7 44517 1597 1
-5 -3 -7 41879 1627 1
-3 -5 -7 42216 1629 1
3 -8 -7 42528 1624 1
-5 -3 -8 2652 432 1
-8 5 -8 3264 317 1
8 -5 -8 3541 398 1
-8 5 -8 3373 503 1
-5 -3 -8 3582 544 1
-8 3 -8 2984 518 1
-3 -5 -8 3447 543 1
5 -8 8 3887 440 1
5 -8 -8 3505 522 1
-3 -5 -8 2896 485 1
5 -8 -8 3045 536 1
5 -8 8 3479 400 1
-8 3 -8 3888 409 1
3 -8 -8 3711 543 1
8 -3 8 3685 399 1
8 -5 8 3048 317 1
-8 3 -8 2718 215 1
-5 -3 -9 26202 1234 1
3 -8 9 25506 1209 1
-3 -5 -9 24957 1251 1
-8 3 -9 22645 1113 1
-8 3 -9 27624 1202 1
3 -8 -9 27860 1285 1
5 -8 -9 28487 1285 1
3 -8 9 27940 1193 1
-8 5 -9 27284 1247 1
5 -8 -9 28437 1281 1
5 -8 9 26924 1217 1
-5 -3 9 26036 1119 1
8 -3 9 24626 1193 1
8 -5 9 23780 1156 1
-8 3 -9 28754 1274 1
-8 5 -9 26847 1165 1
8 -5 -9 28334 1194 1
5 -8 9 27005 1199 1
-5 -3 -9 25251 1278 1
-3 -5 -9 27902 1294 1
8 -5 -10 140 402 1
8 -5 10 19 368 1
-8 5 -10 354 490 1
-5 -3 -10 21 557 1
-5 -3 -10 15 475 1
-3 -5 -10 20 507 1
5 -8 -10 27 567 1
5 -8 -10 27 560 1
-8 3 -10 481 549 1
-8 5 -10 28 371 1
-3 -5 -10 20 572 1
-8 3 -10 116 230 1
5 -8 10 659 427 1
3 -8 10 26 370 1
5 -8 10 220 444 1
-8 3 -10 789 438 1
3 -8 -10 404 565 1
3 -8 10 17 417 1
8 -3 10 35 449 1
-8 3 -11 5791 522 1
-3 -5 -11 4336 576 1
-8 5 -11 5550 575 1
-5 -3 -11 5521 548 1
5 -8 11 4997 478 1
3 -8 -11 5097 612 1
-8 3 -11 5269 597 1
8 -5 11 5843 476 1
-8 5 -11 5678 456 1
-5 -3 -11 5793 631 1
5 -8 -11 5941 654 1
-3 -5 -11 5349 641 1
3 -8 11 6113 433 1
5 -8 11 5502 508 1
8 -3 11 5740 538 1
8 -5 -11 5635 447 1
3 -8 -11 5613 642 1
3 -8 -12 5000 677 1
8 -3 12 5230 581 1
3 -8 -12 4549 649 1
5 -8 12 4289 505 1
-5 -3 -12 5570 577 1
-3 -5 -12 4481 604 1
5 -8 -12 6099 685 1
-8 3 -12 4621 624 1
-8 5 -12 3935 583 1
3 -8 12 4396 450 1
-5 -3 -12 4145 653 1
-3 -5 -12 4212 669 1
-8 3 -12 5058 554 1
-8 5 -12 5043 507 1
8 -5 -12 5703 444 1
-8 5 -13 7395 577 1
-8 5 -13 8380 637 1
-8 3 -13 8428 609 1
-5 -3 -13 7714 639 1
-3 -5 -13 7690 675 1
-8 3 -13 7184 654 1
3 -8 -13 7756 713 1
5 -8 -13 7932 741 1
-5 -3 -13 6065 719 1
3 -8 -13 7026 747 1
-3 -5 -13 6433 735 1
3 -8 13 8228 498 1
-8 5 -14 5768 638 1
5 -8 -14 4940 741 1
-8 3 -14 5563 646 1
-8 3 -14 6042 613 1
-3 -5 -14 5826 669 1
-5 -3 -14 5933 612 1
3 -8 -14 6209 712 1
-8 5 -14 6947 605 1
-5 -3 -14 5403 714 1
-3 -5 -14 5840 730 1
3 -8 -14 6084 744 1
-8 3 -15 5603 669 1
-8 3 -15 5546 653 1
-3 -5 -15 6361 696 1
5 -8 -15 6025 784 1
5 -8 -15 6276 765 1
-8 5 -15 5806 671 1
3 -8 -15 4774 735 1
-5 -3 -15 4980 646 1
-8 5 -15 6662 648 1
3 -8 -15 4587 751 1
-5 -3 -15 6541 765 1
-3 -5 -15 5225 753 1
-8 5 -16 2716 668 1
3 -8 -16 2638 759 1
-3 -5 -16 2610 678 1
-5 -3 -16 2490 624 1
-8 3 -16 2159 669 1
3 -8 -16 3058 746 1
5 -8 -16 2580 740 1
5 -8 -16 3042 793 1
-8 3 -16 1693 653 1
-8 5 -16 2870 641 1
-3 -5 -16 2144 755 1
-5 -3 -16 2943 729 1
3 -8 -17 9041 895 1
-3 -5 -17 8130 844 1
-8 5 -17 8341 797 1
-3 -5 -17 7711 781 1
-5 -3 -17 7810 744 1
3 -8 -17 10192 867 1
5 -8 -17 8535 880 1
5 -8 -17 7630 887 1
-8 3 -17 7714 772 1
-5 -3 -17 8561 862 1
-8 3 -17 8056 742 1
-8 5 -18 721 736 1
-5 -3 -18 194 792 1
-3 -5 -18 177 720 1
3 -8 -18 1287 824 1
-5 -3 -18 1337 691 1
3 -8 -18 349 789 1
5 -8 -18 896 818 1
-8 3 -18 401 719 1
5 -8 -18 1676 842 1
-3 -5 -18 12 806 1
-8 3 -18 1002 655 1
-3 -5 -19 7195 932 1
-5 -3 -19 8303 922 1
3 -8 -19 7806 944 1
3 -8 -19 8116 914 1
5 -8 -19 7158 930 1
5 -8 -19 8069 968 1
-3 -5 -19 7201 829 1
-8 5 -19 6829 846 1
-6 8 0 5295 406 1
2 -8 0 5919 508 1
2 -8 0 5431 478 1
-8 6 0 5324 276 1
6 -8 0 5443 351 1
6 -8 0 6637 480 1
8 -6 0 5053 494 1
-2 8 0 5344 431 1
-8 6 0 5598 392 1
-8 2 0 4712 463 1
-6 -2 0 5460 534 1
-8 2 0 5073 491 1
-2 -6 0 4749 489 1
2 -8 -1 8126 632 1
6 -8 -1 8012 578 1
-8 6 -1 7130 493 1
6 -8 1 7951 559 1
-8 6 1 9084 554 1
-6 8 1 8600 561 1
6 -8 -1 8147 513 1
-6 8 -1 9155 536 1
8 -6 -1 7701 610 1
2 -8 1 8102 578 1
8 -6 1 6292 605 1
-2 8 1 8057 572 1
-6 -2 1 6524 632 1
-8 2 1 6913 603 1
-8 2 -1 7553 596 1
-2 -6 1 6570 601 1
-6 -2 -1 7157 646 1
-8 2 -1 7889 632 1
-6 8 1 8982 495 1
-2 -6 -1 6737 617 1
2 -8 -1 7777 604 1
-8 2 1 7687 569 1
-8 6 1 7542 466 1
6 -8 1 7347 474 1
2 -8 1 7505 617 1
-8 6 2 2189 334 1
-8 6 -2 2840 296 1
-2 -6 -2 2710 495 1
6 -8 -2 1927 381 1
-2 -6 -2 2175 488 1
2 -8 -2 3102 501 1
-6 8 2 2611 429 1
-8 2 2 2331 441 1
2 -8 -2 2253 456 1
8 -6 2 1632 485 1
6 -8 2 2803 410 1
2 -8 2 2516 491 1
-6 8 2 2928 349 1
-8 2 -2 2483 507 1
6 -8 2 2018 276 1
6 -8 -2 2405 476 1
-6 -2 2 2025 467 1
-2 8 2 2618 438 1
-8 6 2 2017 420 1
-2 -6 2 2223 493 1
8 -6 -2 2865 461 1
-8 2 -2 2853 435 1
2 -8 2 3187 450 1
-6 -2 -2 2657 500 1
-6 -2 -3 222 440 1
6 -8 -3 686 377 1
-6 8 3 648 408 1
2 -8 3 341 451 1
-8 6 3 732 404 1
8 -6 -3 40 431 1
-6 8 3 479 324 1
-8 2 3 1520 394 1
6 -8 3 900 347 1
-8 6 3 40 324 1
2 -8 -3 536 458 1
-8 6 -3 765 207 1
6 -8 3 824 211 1
6 -8 -3 1369 438 1
-2 -6 -3 165 440 1
2 -8 -3 1063 453 1
8 -6 -3 40 413 1
-8 2 -3 977 374 1
-2 -6 3 365 452 1
-8 2 -3 586 477 1
-2 8 3 42 416 1
2 -8 3 1105 409 1
-6 8 4 13895 558 1
2 -8 -4 13058 614 1
6 -8 4 12211 461 1
-2 -6 -4 12791 603 1
-8 6 4 12639 555 1
6 -8 4 10181 394 1
2 -8 4 11166 535 1
-8 6 4 11396 486 1
8 -6 -4 12274 562 1
8 -6 -4 13231 554 1
-2 -6 4 11753 591 1
-2 8 4 11476 544 1
-6 -2 -4 10949 573 1
-8 2 -4 11184 513 1
6 -8 4 9372 361 1
-8 2 -4 11482 600 1
-6 8 4 13013 487 1
6 -8 -4 12254 585 1
6 -8 -4 12880 533 1
2 -8 -4 13004 598 1
6 -8 5 1846 228 1
2 -8 -5 2410 498 1
-8 6 5 1880 388 1
6 -8 -5 1771 443 1
-8 2 5 1327 478 1
-6 8 5 2579 399 1
8 -6 -5 1645 465 1
-6 -2 -5 1762 408 1
-8 6 5 1521 450 1
6 -8 5 1814 262 1
-6 -2 -5 1534 477 1
6 -8 5 2282 312 1
-2 -6 5 1423 498 1
-8 2 -5 1755 391 1
6 -8 -5 1805 478 1
2 -8 5 2150 410 1
2 -8 -5 1356 470 1
8 -6 -5 2807 442 1
-2 -6 -5 2427 478 1
6 -8 5 2550 478 1
6 -8 6 16601 657 1
2 -8 -6 16854 796 1
-6 -2 -6 14874 730 1
6 -8 -6 18851 791 1
8 -6 -6 17037 810 1
6 -8 6 17055 779 1
6 -8 -6 18784 784 1
2 -8 6 18231 773 1
8 -2 6 14281 716 1
6 -8 6 14812 643 1
6 -8 6 14107 651 1
-6 -2 -6 15802 799 1
8 -6 6 14788 772 1
-6 8 6 18375 753 1
-8 2 -6 16831 742 1
-2 -6 -6 15889 801 1
-8 2 -6 14071 659 1
-8 6 6 17127 742 1
-6 -2 7 107 299 1
-6 -2 -7 6 406 1
6 -8 7 336 272 1
-8 2 -7 7 283 1
-6 -2 -7 289 512 1
6 -8 7 7 275 1
6 -8 7 495 310 1
6 -8 -7 878 507 1
-6 8 7 242 447 1
6 -8 7 437 452 1
6 -8 -7 798 532 1
-8 2 -7 7 430 1
2 -8 -7 7 515 1
8 -6 -7 8 528 1
-2 -6 -7 388 486 1
8 -2 7 7 396 1
-8 6 7 46 445 1
-6 -2 -8 10822 549 1
-2 -6 -8 12143 639 1
-8 2 -8 10048 438 1
-8 2 -8 11737 570 1
6 -8 -8 13276 680 1
6 -8 8 11079 432 1
8 -6 -8 12072 635 1
-8 6 8 12092 598 1
-6 -2 -8 9267 624 1
6 -8 8 11097 467 1
-6 -2 8 10699 421 1
6 -8 8 11369 570 1
6 -8 -8 12590 648 1
8 -6 -8 11146 655 1
8 -2 8 10463 542 1
8 -6 8 9599 394 1
2 -8 -8 11286 644 1
-8 2 -8 12246 673 1
8 -6 9 97 295 1
6 -8 9 96 372 1
-8 6 -9 31 270 1
-8 2 -9 17 467 1
-2 -6 -9 97 517 1
-8 2 -9 97 587 1
8 -6 -9 96 540 1
6 -8 -9 98 550 1
6 -8 9 121 454 1
-6 -2 -9 96 442 1
8 -6 -9 41 567 1
2 -8 -9 541 557 1
6 -8 9 39 305 1
-8 2 -9 33 296 1
8 -2 9 128 462 1
6 -8 -9 98 557 1
-6 -2 -9 5 542 1
-6 -2 -10 5601 550 1
-8 2 -10 6435 662 1
-8 2 -10 4412 393 1
6 -8 10 4441 407 1
6 -8 -10 5855 653 1
-2 -6 -10 4930 628 1
8 -6 -10 4862 634 1
2 -8 -10 6207 671 1
-8 6 -10 4298 409 1
2 -8 10 6230 491 1
6 -8 10 4788 474 1
6 -8 -10 5358 659 1
-6 -2 -10 3880 637 1
8 -6 10 4494 432 1
6 -8 10 5057 553 1
-8 2 -10 4972 565 1
2 -8 -10 5915 667 1
8 -2 10 5280 567 1
2 -8 -11 4718 644 1
-8 6 -11 4218 403 1
8 -6 -11 5113 646 1
-2 -6 -11 3958 588 1
2 -8 11 4818 449 1
-8 2 -11 4443 377 1
6 -8 -11 5599 655 1
-6 -2 -11 5797 635 1
6 -8 -11 5472 667 1
-2 -6 -11 4455 652 1
-6 -2 -11 4838 526 1
6 -8 11 4515 516 1
-8 2 -11 4620 547 1
-8 2 -11 4364 618 1
2 -8 -11 4611 642 1
-8 6 -12 390 390 1
8 -6 -12 155 645 1
6 -8 -12 721 641 1
-2 -6 -12 342 585 1
2 -8 -12 538 601 1
-6 -2 -12 737 508 1
-8 2 -12 577 338 1
6 -8 -12 356 639 1
-6 -2 -12 253 607 1
-2 -6 -12 935 631 1
2 -8 12 1333 427 1
2 -8 -12 211 626 1
-8 2 -12 718 520 1
-8 2 -12 180 572 1
2 -8 -13 3 641 1
-8 2 -13 3 554 1
8 -6 -13 258 675 1
2 -8 -13 3 640 1
-6 -2 -13 2 530 1
-8 6 -13 26 426 1
-8 2 -13 3 575 1
6 -8 -13 285 677 1
2 -8 13 311 431 1
-6 -2 -13 2 626 1
-2 -6 -13 2 652 1
-2 -6 -13 283 598 1
2 -8 -14 936 701 1
-8 6 -14 1329 479 1
8 -6 -14 2032 722 1
-2 -6 -14 1495 633 1
-6 -2 -14 1329 552 1
2 -8 -14 1327 676 1
6 -8 -14 1372 732 1
-8 2 -14 1633 594 1
-8 2 -14 890 573 1
-6 -2 -14 783 667 1
-2 -6 -14 1336 691 1
-8 2 -15 466 568 1
2 -8 -15 56 734 1
-8 2 -15 57 603 1
8 -6 -15 442 740 1
2 -8 -15 56 686 1
-2 -6 -15 57 659 1
-6 -2 -15 84 561 1
6 -8 -15 61 757 1
-6 -2 -15 271 691 1
-2 -6 -15 57 706 1
2 -8 -16 896 759 1
8 -6 -16 1103 796 1
-2 -6 -16 1171 686 1
-6 -2 -16 1238 618 1
2 -8 -16 1735 730 1
6 -8 -16 1435 802 1
-8 2 -16 1556 647 1
-8 2 -16 1675 582 1
-2 -6 -16 1267 759 1
-6 -2 -16 1524 726 1
2 -8 -17 580 776 1
-6 -2 -17 1160 773 1
-8 2 -17 1 681 1
-2 -6 -17 700 708 1
-6 -2 -17 430 637 1
2 -8 -17 1 732 1
6 -8 -17 1 783 1
-8 2 -17 385 591 1
6 -8 -17 50 815 1
8 -6 -17 1 816 1
-2 -6 -17 1 777 1
-6 -2 -18 1779 816 1
-8 2 -18 1786 607 1
2 -8 -18 2091 828 1
8 -6 -18 2520 871 1
-2 -6 -18 916 747 1
-8 2 -18 1035 741 1
-2 -6 -18 926 818 1
6 -8 -18 2089 864 1
6 -8 -18 1730 883 1
2 -8 -18 3085 799 1
2 -8 -19 19 846 1
-2 -6 -19 18 760 1
-8 2 -19 639 771 1
2 -8 -19 279 816 1
6 -8 -19 97 888 1
-2 -6 -19 18 851 1
6 -8 -19 145 907 1
-6 -2 -19 266 834 1
7 -8 0 12734 564 1
-8 1 0 11449 602 1
1 -8 0 12062 600 1
8 -7 0 12552 522 1
8 -7 0 13906 625 1
-8 7 0 13591 504 1
-7 8 0 15360 441 1
-8 1 0 12575 590 1
1 -8 0 11828 590 1
7 -8 0 12694 449 1
-7 -1 0 12269 627 1
-7 8 0 13469 523 1
-1 -7 0 11369 615 1
-8 7 -1 26574 912 1
-8 7 1 27146 939 1
1 -8 1 25452 1010 1
7 -8 -1 26036 966 1
8 -7 -1 23687 948 1
8 -7 1 24537 923 1
-7 -1 1 22674 993 1
8 -7 -1 26621 1015 1
8 -7 1 22973 996 1
-1 8 1 24822 972 1
-8 1 1 22642 982 1
-8 1 -1 24505 993 1
-7 -1 -1 23722 1026 1
-1 -7 1 22287 998 1
7 -8 1 26599 948 1
-7 8 1 28881 894 1
1 -8 1 22423 984 1
-1 -7 -1 23532 1001 1
1 -8 -1 24498 998 1
-8 1 1 26072 998 1
7 -8 -1 25475 905 1
-8 1 -1 24122 1007 1
7 -8 1 20682 856 1
-7 8 1 27243 946 1
-8 7 1 26434 876 1
-7 8 -1 27988 922 1
1 -8 -1 25209 1005 1
1 -8 -2 14989 944 1
-7 8 2 16026 883 1
-8 7 2 15483 881 1
7 -8 2 16369 867 1
1 -8 2 15940 930 1
7 -8 -2 15094 907 1
8 -7 -2 13111 882 1
8 -7 -2 15196 941 1
8 -7 2 14850 836 1
-7 -1 2 13809 920 1
-1 8 2 14531 901 1
-8 1 2 15553 906 1
-1 -7 2 13249 934 1
1 -8 2 14811 915 1
-8 1 -2 14810 925 1
-7 -1 -2 14629 947 1
-1 -7 -2 14527 930 1
-7 8 2 16182 824 1
7 -8 -2 15539 844 1
1 -8 -2 15384 935 1
-8 1 -2 13991 943 1
-8 7 2 14164 820 1
-8 7 -2 15729 817 1
-8 7 3 29181 1204 1
-8 7 3 27107 1157 1
-7 8 3 29053 1202 1
7 -8 3 29357 1166 1
-8 1 3 27038 1207 1
1 -8 -3 26025 1251 1
8 -7 -3 26335 1215 1
7 -8 3 29389 1248 1
-1 -7 3 23476 1232 1
1 -8 3 24279 1221 1
-7 -1 -3 23246 1221 1
-8 1 -3 25025 1218 1
-1 -7 -3 24555 1236 1
7 -8 -3 27204 1174 1
-7 8 3 27759 1154 1
1 -8 -3 24227 1217 1
-8 1 -3 24851 1249 1
7 -8 -3 27136 1224 1
-8 7 -3 26877 1121 1
7 -8 4 531 323 1
-8 1 -4 1964 414 1
-7 -1 -4 1418 440 1
-7 8 4 316 454 1
-8 1 -4 1046 519 1
-7 8 4 1258 355 1
-8 1 4 559 390 1
7 -8 -4 1136 478 1
7 -8 -4 864 404 1
8 -7 -4 4822 406 1
7 -8 4 2557 489 1
8 -7 -4 5823 486 1
-1 -7 -4 846 496 1
-1 -7 -4 1860 475 1
-1 -7 4 1536 490 1
1 -8 4 1743 428 1
1 -8 -4 1505 485 1
-7 -1 -5 3717 436 1
-1 -7 -5 3740 551 1
-1 -7 -5 4581 553 1
7 -8 5 4354 365 1
-8 7 5 4275 510 1
7 -8 5 3001 516 1
1 -8 -5 4246 550 1
-7 -1 5 4481 423 1
-7 8 5 4795 439 1
-8 1 5 4104 433 1
8 -7 5 3810 515 1
7 -8 -5 4167 537 1
8 -7 -5 3736 475 1
-7 -1 -5 3577 514 1
7 -8 -5 3931 489 1
8 -7 -5 4348 545 1
-8 7 5 3332 432 1
-1 -7 5 3325 549 1
1 -8 5 3871 504 1
-8 1 -5 3905 491 1
8 -7 6 35 466 1
-7 -1 -6 154 377 1
-8 1 -6 156 319 1
7 -8 6 161 287 1
-7 -1 6 151 350 1
-7 8 6 161 417 1
-1 -7 -6 153 496 1
-1 -7 -6 242 515 1
-8 1 -6 156 467 1
-7 -1 -6 38 470 1
7 -8 -6 161 512 1
7 -8 -6 48 460 1
7 -8 6 161 478 1
8 -7 -6 160 520 1
8 -7 -6 46 490 1
1 -8 6 156 493 1
8 -1 6 156 418 1
-8 7 6 56 424 1
1 -8 -6 42 536 1
-1 -7 -7 13006 711 1
1 -8 -7 13169 711 1
7 -8 7 13446 473 1
-8 7 7 12299 619 1
7 -8 -7 13283 701 1
8 -7 -7 13709 687 1
8 -7 -7 14213 701 1
-7 -1 7 12886 525 1
7 -8 7 12830 656 1
8 -1 7 10771 613 1
7 -8 -7 14108 686 1
8 -7 7 11667 643 1
-7 -1 -7 10362 681 1
-8 1 -7 12680 646 1
-1 -7 -7 12687 711 1
-7 8 7 13769 631 1
-7 -1 -7 10031 578 1
-8 1 -7 9575 533 1
1 -8 -8 1941 547 1
-7 -1 -8 1122 415 1
-8 1 -8 1314 351 1
-1 -7 -8 1463 542 1
7 -8 -8 2247 577 1
7 -8 8 803 230 1
7 -8 8 1697 494 1
-1 -7 -8 932 563 1
-7 -1 -8 1589 528 1
8 -7 8 2205 498 1
7 -8 8 554 258 1
7 -8 -8 1355 547 1
1 -8 -8 1218 550 1
8 -7 -8 1855 570 1
-8 7 8 1408 479 1
8 -7 8 467 152 1
8 -1 8 998 470 1
8 -7 -8 2314 536 1
-8 1 -8 1532 503 1
7 -8 9 3854 276 1
8 -7 -9 6559 613 1
-7 -1 -9 5494 477 1
-1 -7 -9 5320 588 1
1 -8 -9 5191 629 1
8 -7 9 4026 304 1
-7 -1 -9 5161 592 1
7 -8 -9 5692 622 1
8 -7 -9 5640 641 1
7 -8 9 4620 371 1
7 -8 -9 6002 621 1
1 -8 -9 5663 632 1
-8 1 -9 4762 405 1
7 -8 9 5617 527 1
8 -7 -10 3675 637 1
7 -8 10 1590 230 1
-7 -1 -10 2232 459 1
-1 -7 -10 1966 584 1
-8 1 -10 2774 383 1
1 -8 -10 3646 611 1
7 -8 -10 2815 620 1
-7 -1 -10 3904 600 1
8 -7 -10 3929 649 1
7 -8 -10 3567 631 1
-8 1 -10 3490 563 1
1 -8 -10 2739 619 1
7 -8 10 2548 511 1
-8 1 -11 12379 788 1
-1 -7 -11 11943 801 1
-7 -1 -11 12424 802 1
1 -8 -11 12522 863 1
1 -8 -11 12716 836 1
8 -7 -11 12866 855 1
7 -8 -11 12435 836 1
8 -7 -11 12621 862 1
-7 -1 -11 10596 695 1
-8 1 -11 11900 642 1
1 -8 11 12799 673 1
7 -8 -11 12777 845 1
8 -7 -12 5230 719 1
1 -8 -12 4494 662 1
-7 -1 -12 5293 535 1
-1 -7 -12 5575 662 1
-8 1 -12 4244 441 1
1 -8 12 5673 476 1
7 -8 -12 4582 705 1
8 -7 -12 5149 738 1
7 -8 -12 6276 725 1
-7 -1 -12 4789 666 1
-8 1 -12 3965 627 1
1 -8 -12 3983 705 1
8 -7 -13 9261 821 1
-7 -1 -13 8160 615 1
1 -8 -13 6639 758 1
-8 1 -13 7670 672 1
-1 -7 -13 9715 750 1
7 -8 -13 7421 787 1
8 -7 -13 9478 809 1
7 -8 -13 7760 803 1
-7 -1 -13 8258 743 1
-8 1 -13 8206 703 1
1 -8 -13 7747 781 1
-7 -1 -14 3877 582 1
-1 -7 -14 4650 708 1
1 -8 -14 4238 718 1
8 -7 -14 4397 801 1
7 -8 -14 4449 773 1
8 -7 -14 3435 786 1
7 -8 -14 5362 816 1
-7 -1 -14 4925 733 1
-8 1 -14 2876 591 1
1 -8 -14 3758 747 1
-8 1 -14 4162 684 1
-8 1 -15 5371 595 1
1 -8 -15 6228 806 1
-8 1 -15 6386 727 1
1 -8 -15 6311 759 1
8 -7 -15 8114 863 1
-7 -1 -15 5813 620 1
-1 -7 -15 6600 748 1
7 -8 -15 6691 831 1
-7 -1 -15 7059 758 1
-7 -1 -16 2006 736 1
1 -8 -16 1144 772 1
8 -7 -16 38 802 1
-1 -7 -16 349 713 1
1 -8 -16 355 719 1
-8 1 -16 39 508 1
7 -8 -16 794 812 1
-8 1 -16 632 673 1
-8 1 -17 2316 521 1
-7 -1 -17 2880 773 1
-1 -7 -17 4724 818 1
1 -8 -17 2854 815 1
8 -7 -17 3366 879 1
-1 -7 -17 3151 759 1
1 -8 -17 3420 774 1
-8 1 -17 3331 748 1
7 -8 -17 3620 888 1
-7 -1 -18 869 801 1
-8 1 -18 741 748 1
1 -8 -18 453 799 1
1 -8 -18 974 767 1
-1 -7 -18 67 751 1
7 -8 -18 0 845 1
7 -8 -18 0 859 1
-1 -7 -18 814 812 1
8 -7 -18 404 884 1
-8 8 0 46071 1817 1
8 -8 0 44263 1834 1
-8 8 0 41177 1756 1
-8 0 0 38336 1878 1
0 -8 0 39711 1860 1
0 -8 0 41730 1883 1
8 -8 1 688 518 1
0 -8 -1 56 507 1
-8 8 1 537 238 1
0 -8 -1 56 485 1
-8 8 1 62 379 1
-8 8 -1 60 336 1
8 -8 1 15 376 1
8 -8 -1 62 408 1
-8 0 1 66 433 1
-8 0 1 496 494 1
-8 0 -1 553 534 1
0 -8 1 0 494 1
0 -8 1 26 451 1
-8 8 2 45734 1400 1
8 -8 -2 41235 1415 1
8 -8 -2 43272 1360 1
8 -8 2 41148 1367 1
-8 0 2 34610 1415 1
0 -8 2 36792 1429 1
-8 0 -2 37269 1447 1
0 -8 -2 37625 1427 1
-8 8 2 43150 1343 1
-8 0 2 41541 1408 1
-8 8 -2 43834 1351 1
0 -8 -2 38722 1451 1
-8 0 -3 130 485 1
-8 8 3 79 430 1
0 -8 -3 359 486 1
-8 8 3 256 321 1
8 -8 3 12 321 1
8 -8 -3 146 458 1
0 -8 3 601 455 1
-8 0 3 49 424 1
8 -8 -3 139 381 1
-8 8 4 20211 923 1
8 -8 4 17761 822 1
8 -8 -4 19079 944 1
8 -8 4 19300 962 1
0 -8 4 16483 947 1
-8 0 4 19737 904 1
0 -8 -4 17995 974 1
8 -8 -4 19480 898 1
-8 0 -4 16038 945 1
-8 8 4 19951 867 1
-8 0 -5 978 502 1
0 -8 -5 910 527 1
8 -8 5 908 251 1
-8 8 5 425 407 1
8 -8 -5 673 510 1
-8 0 5 1649 416 1
0 -8 5 711 523 1
8 -8 5 1027 503 1
8 -8 -5 1036 454 1
-8 0 -6 4725 545 1
0 -8 -6 5634 611 1
0 -8 -6 5957 599 1
8 -8 6 4934 572 1
8 -8 -6 6075 603 1
-8 0 6 5782 440 1
-8 8 6 5587 501 1
0 -8 6 4929 585 1
-8 0 -6 3755 447 1
8 -8 -6 5640 553 1
-8 0 -7 1606 396 1
-8 0 -7 853 514 1
0 -8 -7 709 570 1
8 -8 -7 255 557 1
8 -8 7 467 512 1
0 -8 7 1182 552 1
-8 8 7 2900 474 1
8 -8 -7 1044 534 1
0 -8 -7 1241 546 1
8 -8 -8 9923 685 1
0 -8 -8 8461 687 1
0 -8 -8 8018 695 1
8 -8 8 7886 616 1
-8 0 -8 7496 517 1
8 -8 -8 9229 700 1
-8 0 -8 8709 652 1
8 -8 9 1111 507 1
-8 0 -9 439 570 1
8 -8 -9 16 604 1
0 -8 -9 362 593 1
-8 0 -9 20 421 1
0 -8 -9 495 570 1
8 -8 -9 16 605 1
-8 0 -10 12004 651 1
-8 0 -10 12141 798 1
0 -8 -10 12888 795 1
8 -8 -10 13255 832 1
8 -8 -10 13228 860 1
0 -8 -10 12300 817 1
0 -8 -11 254 610 1
-8 0 -11 22 448 1
8 -8 -11 627 662 1
-8 0 -11 22 609 1
0 -8 -11 22 646 1
8 -8 -11 278 657 1
0 -8 -12 20264 1064 1
0 -8 -12 20640 1061 1
8 -8 -12 18870 1082 1
-8 0 -12 17942 1034 1
8 -8 -12 21297 1090 1
-8 0 -12 19467 916 1
-8 0 -13 507 468 1
0 -8 -13 36 679 1
8 -8 -13 10 752 1
-8 0 -13 528 654 1
0 -8 -13 577 697 1
8 -8 -13 118 741 1
0 -8 -14 20319 1085 1
8 -8 -14 21438 1146 1
-8 0 -14 19600 1063 1
0 -8 -14 20118 1122 1
8 -8 -14 20948 1160 1
0 -8 -15 13 695 1
8 -8 -15 7 789 1
0 -8 -15 13 742 1
-8 0 -15 13 697 1
8 -8 -15 7 781 1
8 -8 -16 6037 899 1
-8 0 -16 6105 807 1
0 -8 -16 5384 784 1
8 -8 -16 6188 875 1
-8 0 -17 419 772 1
0 -8 -17 54 756 1
8 -8 -18 2435 938 1
-8 0 -18 3964 832 1
0 -8 -18 2346 810 1
4 -9 0 3629 449 1
5 -9 0 3824 442 1
5 -9 0 3815 405 1
-9 5 0 3159 397 1
-9 4 0 3280 393 1
-4 9 0 3654 409 1
-5 9 0 3993 394 1
-9 5 0 3791 390 1
-9 4 0 3853 432 1
9 -5 0 3391 482 1
-5 -4 0 3144 537 1
-9 5 0 3778 340 1
4 -9 0 4487 424 1
4 -9 1 23832 908 1
4 -9 -1 23830 929 1
5 -9 1 25426 912 1
-9 4 1 22768 873 1
-9 5 -1 24085 846 1
-9 5 1 24067 874 1
-9 5 1 21810 839 1
-9 4 -1 20465 934 1
5 -9 -1 24522 914 1
-4 9 1 23565 874 1
-5 9 1 25770 867 1
-5 -4 1 21911 959 1
-9 4 -1 22827 881 1
-9 5 -1 22136 841 1
-5 -4 -1 20997 952 1
4 -9 1 23296 876 1
-9 4 -1 21363 847 1
9 -5 -1 21451 909 1
-9 5 -1 19431 815 1
5 -9 1 22973 853 1
9 -5 1 20182 912 1
4 -9 -1 21690 886 1
5 -9 -1 22419 874 1
-4 -5 -2 513 511 1
-5 -4 -2 58 510 1
-9 5 -2 141 286 1
-9 4 -2 157 318 1
4 -9 2 165 406 1
4 -9 2 739 386 1
5 -9 2 501 340 1
-9 4 -2 157 477 1
-9 4 2 591 417 1
4 -9 -2 264 485 1
5 -9 -2 313 452 1
4 -9 -2 823 418 1
-9 5 -2 293 327 1
-5 9 2 458 440 1
-9 5 2 19 405 1
9 -5 -2 98 432 1
-9 4 2 562 405 1
5 -9 -2 462 389 1
-9 5 2 259 359 1
5 -9 2 915 421 1
-5 -4 2 236 507 1
-4 9 2 714 403 1
-5 9 2 295 380 1
-9 4 -2 68 353 1
4 -9 -3 21336 875 1
5 -9 3 20589 836 1
4 -9 -3 21441 913 1
5 -9 -3 21645 909 1
-5 9 3 21759 839 1
5 -9 -3 19820 851 1
-9 5 -3 19982 767 1
-9 4 3 19569 852 1
-9 5 3 20615 848 1
9 -5 -3 19689 867 1
-9 4 3 19886 857 1
-9 4 -3 17715 772 1
-9 4 -3 18119 900 1
-5 -4 3 18027 922 1
-4 9 3 22524 852 1
4 -9 3 19797 834 1
-5 -4 -3 18035 921 1
-4 -5 -3 19607 929 1
5 -9 3 20237 798 1
-9 4 -3 17939 801 1
-9 5 -3 17328 758 1
-9 5 3 18543 822 1
4 -9 3 20617 860 1
-4 -5 -3 18826 897 1
5 -9 4 3586 317 1
-5 -4 -4 1939 469 1
-4 -5 -4 2534 459 1
-5 9 4 497 402 1
4 -9 4 25 425 1
-5 -4 -4 69 498 1
5 -9 4 3611 381 1
-4 -5 -4 1428 510 1
5 -9 -4 595 519 1
4 -9 -4 1176 505 1
-9 5 -4 805 215 1
-9 5 -4 817 256 1
-9 5 4 1038 438 1
-9 4 4 24 461 1
9 -5 -4 1396 438 1
-9 4 -4 920 348 1
-9 4 -4 718 261 1
-9 5 4 995 401 1
4 -9 -4 763 444 1
-5 -4 4 1510 511 1
5 -9 -4 347 417 1
-9 4 -4 25 506 1
-9 4 4 1065 447 1
4 -9 4 1184 370 1
-4 9 4 411 419 1
4 -9 -5 13145 709 1
-9 5 -5 10825 504 1
4 -9 -5 13174 673 1
-5 -4 -5 10679 647 1
5 -9 -5 12556 648 1
-9 4 -5 10484 483 1
-9 4 5 12901 671 1
4 -9 5 12359 581 1
5 -9 5 12412 553 1
9 -5 -5 12833 629 1
-4 9 5 12135 632 1
-5 9 5 13405 625 1
-5 -4 -5 11423 708 1
-4 -5 -5 11659 698 1
5 -9 -5 13142 722 1
-9 5 5 12583 631 1
9 -4 -5 11387 603 1
-9 4 -5 11613 560 1
4 -9 5 12138 608 1
-4 -5 -5 10524 671 1
5 -9 5 12610 583 1
9 -4 -6 1292 425 1
4 -9 6 2145 439 1
-9 4 -6 749 224 1
5 -9 6 805 372 1
-5 -4 -6 911 487 1
9 -5 -6 1926 467 1
-4 -5 -6 1650 510 1
-5 -4 -6 1364 562 1
5 -9 -6 1880 513 1
-4 -5 -6 1888 547 1
4 -9 -6 2360 568 1
5 -9 -6 2257 555 1
-9 5 6 1537 483 1
-9 4 -6 1568 382 1
-9 4 6 1556 522 1
4 -9 -6 1870 542 1
4 -9 6 1552 407 1
-9 5 -6 1544 536 1
-9 5 -6 1662 311 1
5 -9 6 1527 393 1
-5 9 6 1714 470 1
-5 -4 -7 10674 668 1
4 -9 -7 12749 754 1
5 -9 7 10110 578 1
-9 5 -7 11741 540 1
-9 5 -7 10822 707 1
-9 4 -7 11595 708 1
5 -9 -7 13340 744 1
9 -4 7 9598 560 1
9 -5 -7 12203 629 1
4 -9 7 11426 606 1
5 -9 7 11337 589 1
-9 5 7 11534 674 1
5 -9 -7 12605 721 1
-4 -5 -7 10112 690 1
9 -4 -7 11439 599 1
-5 -4 -7 10816 746 1
4 -9 -7 12556 730 1
-4 -5 -7 10971 750 1
-9 4 -7 11146 576 1
5 -9 7 10634 557 1
5 -9 -8 151 554 1
-9 5 -8 1317 339 1
4 -9 -8 1816 581 1
5 -9 8 1165 360 1
-5 -4 -8 1871 486 1
-4 -5 -8 1598 495 1
-9 5 -8 616 525 1
9 -4 -8 156 390 1
4 -9 8 158 411 1
-5 -4 -8 664 553 1
-4 -5 -8 153 579 1
5 -9 8 148 471 1
-9 4 -8 1925 556 1
5 -9 8 148 371 1
9 -5 8 989 312 1
9 -4 8 1019 363 1
-9 4 -8 156 377 1
4 -9 -8 155 544 1
9 -5 -8 145 415 1
5 -9 8 909 387 1
5 -9 -8 2368 554 1
4 -9 9 141 428 1
5 -9 -9 368 572 1
-5 -4 -9 691 508 1
-9 5 -9 122 514 1
-4 -5 -9 1241 531 1
-9 5 -9 700 359 1
5 -9 -9 11 580 1
5 -9 9 811 458 1
-5 -4 -9 990 584 1
-4 -5 -9 1414 590 1
4 -9 -9 10 596 1
-9 4 -9 381 530 1
5 -9 9 11 421 1
9 -5 -9 325 411 1
9 -5 9 683 340 1
9 -4 9 551 388 1
9 -4 -9 183 380 1
-9 4 -9 286 411 1
4 -9 -9 10 568 1
4 -9 9 10 448 1
-9 4 -10 1581 444 1
5 -9 -10 1581 629 1
-9 5 -10 1384 548 1
4 -9 10 2587 455 1
-4 -5 -10 1492 542 1
-9 5 -10 2028 415 1
-5 -4 -10 1134 526 1
-5 -4 -10 996 627 1
-4 -5 -10 1754 611 1
5 -9 10 1721 473 1
5 -9 10 1273 443 1
5 -9 -10 2539 595 1
-9 4 -10 1236 566 1
9 -5 -10 1922 429 1
9 -4 -10 667 374 1
4 -9 10 1871 447 1
9 -4 10 750 425 1
4 -9 -10 1432 604 1
-4 -5 -11 17455 951 1
-5 -4 -11 18238 929 1
-4 -5 -11 17685 1012 1
5 -9 -11 19857 1009 1
-5 -4 -11 17285 1007 1
4 -9 -11 18805 1012 1
-9 4 -11 18329 883 1
-9 5 -11 17892 949 1
5 -9 -11 18796 1009 1
4 -9 11 19137 872 1
9 -5 -11 18508 838 1
-9 4 -11 18479 956 1
5 -9 11 18850 898 1
-9 5 -11 19346 861 1
9 -4 -11 15613 803 1
-9 4 -12 1078 509 1
4 -9 -12 2478 674 1
-9 5 -12 1134 579 1
-5 -4 -12 1372 556 1
-4 -5 -12 1627 564 1
-9 5 -12 390 468 1
4 -9 12 1499 461 1
-5 -4 -12 1017 639 1
-4 -5 -12 863 646 1
5 -9 12 699 489 1
-9 4 -12 582 585 1
5 -9 -12 16 640 1
4 -9 -13 6150 802 1
-9 5 -13 6816 704 1
5 -9 -13 8013 811 1
-5 -4 -13 7316 698 1
-4 -5 -13 7349 719 1
-9 4 -13 7315 661 1
-5 -4 -13 7822 784 1
-4 -5 -13 7668 799 1
-9 4 -13 6056 711 1
4 -9 13 7961 590 1
5 -9 13 7268 618 1
-9 5 -13 7286 633 1
-9 5 -14 6 609 1
-5 -4 -14 39 626 1
-4 -5 -14 7 620 1
5 -9 -14 7 728 1
-9 4 -14 139 587 1
4 -9 -14 1018 685 1
4 -9 -14 333 714 1
-9 4 -14 606 619 1
-5 -4 -14 217 692 1
-4 -5 -14 7 708 1
-9 5 -15 7442 743 1
4 -9 -15 9062 850 1
-4 -5 -15 7322 749 1
5 -9 -15 9235 871 1
4 -9 -15 9515 829 1
-9 4 -15 7223 713 1
-5 -4 -15 7941 735 1
-9 4 -15 6488 739 1
-5 -4 -15 8095 826 1
-4 -5 -15 9373 838 1
4 -9 -16 1220 757 1
-4 -5 -16 357 669 1
-5 -4 -16 988 642 1
5 -9 -16 717 782 1
4 -9 -16 410 753 1
-9 5 -16 0 663 1
5 -9 -16 879 730 1
-9 4 -16 688 651 1
-5 -4 -16 685 758 1
-4 -5 -16 937 751 1
-9 5 -17 3727 757 1
4 -9 -17 5155 855 1
-4 -5 -17 4677 749 1
-5 -4 -17 5372 742 1
4 -9 -17 4720 815 1
-9 4 -17 3399 720 1
5 -9 -17 4957 880 1
5 -9 -17 4719 825 1
-4 -5 -17 4374 831 1
-5 -4 -17 5422 840 1
-4 -5 -18 17 820 1
-5 -4 -18 263 823 1
-4 -5 -18 1453 757 1
-5 -4 -18 475 728 1
4 -9 -18 282 845 1
4 -9 -18 818 850 1
5 -9 -18 547 841 1
5 -9 -18 838 853 1
-6 9 0 1199 400 1
-9 6 0 885 237 1
3 -9 0 1127 462 1
6 -9 0 1199 424 1
-9 3 0 381 467 1
9 -6 0 518 474 1
-9 6 0 435 367 1
6 -9 0 1199 331 1
-9 6 0 1199 286 1
-6 9 0 1199 330 1
-9 3 0 1127 430 1
-6 -3 0 1126 512 1
3 -9 0 87 421 1
3 -9 -1 965 475 1
3 -9 1 1229 463 1
6 -9 1 799 421 1
9 -6 -1 1728 477 1
-9 6 -1 1018 195 1
-9 3 1 950 459 1
3 -9 -1 1213 434 1
6 -9 -1 1548 451 1
-9 6 1 1339 275 1
-9 6 -1 1244 340 1
-9 6 1 1710 396 1
-9 3 -1 1886 487 1
6 -9 1 1764 317 1
-6 9 1 1224 413 1
-9 3 1 1566 436 1
-9 3 1 87 373 1
6 -9 -1 1217 363 1
3 -9 1 1159 428 1
-3 9 1 1089 412 1
-6 -3 1 1156 514 1
-6 9 1 1018 347 1
9 -6 1 1678 471 1
-9 3 -1 1715 453 1
-3 -6 1 570 513 1
-9 6 -1 1443 245 1
-6 -3 -1 1089 521 1
-6 -3 -2 4609 535 1
3 -9 2 4625 479 1
3 -9 -2 4981 506 1
-3 -6 -2 4360 501 1
6 -9 2 4285 421 1
-9 6 2 5384 325 1
3 -9 -2 6221 466 1
6 -9 -2 4843 492 1
9 -6 2 3554 477 1
6 -9 2 4698 310 1
-9 6 2 5121 424 1
-6 9 2 5962 443 1
-9 3 2 5823 473 1
-9 6 -2 5052 308 1
-9 3 -2 4738 515 1
-6 -3 2 4272 520 1
6 -9 -2 5382 403 1
-3 9 2 5399 443 1
-3 -6 2 4244 522 1
3 -9 2 4822 430 1
9 -6 -2 5306 468 1
-9 3 2 5537 450 1
-6 9 2 5725 374 1
-9 3 -2 3857 447 1
6 -9 -3 3420 521 1
-6 9 3 2650 389 1
-3 -6 -3 1912 522 1
-6 -3 -3 2977 528 1
-9 3 -3 2226 424 1
3 -9 3 2174 463 1
-9 6 -3 2379 256 1
-9 6 3 2032 355 1
6 -9 3 1697 398 1
9 -6 3 1981 479 1
6 -9 3 1961 298 1
3 -9 -3 2528 484 1
-9 6 3 3529 452 1
3 -9 -3 2393 533 1
-9 3 3 3149 504 1
-6 -3 3 2190 522 1
9 -6 -3 2012 468 1
-9 3 -3 2670 522 1
-3 -6 3 1671 531 1
-3 9 3 3244 463 1
6 -9 -3 2599 411 1
3 -9 3 2241 426 1
6 -9 4 4083 475 1
-6 -3 -4 3802 599 1
-9 6 4 4597 542 1
-9 3 4 4356 565 1
3 -9 -4 4416 596 1
-6 -3 -4 3456 548 1
3 -9 4 4218 541 1
6 -9 -4 4651 535 1
-9 6 4 3701 464 1
-9 3 -4 3550 492 1
9 -6 -4 4258 544 1
3 -9 4 4025 521 1
-3 9 4 4151 536 1
-6 9 4 4538 487 1
6 -9 4 3129 371 1
-3 -6 4 3593 608 1
6 -9 -4 3750 586 1
-9 3 -4 3578 601 1
-3 -6 -4 3519 593 1
3 -9 -4 4367 555 1
-9 3 -5 84 529 1
-6 -3 -5 160 451 1
-9 3 5 1071 503 1
6 -9 5 665 269 1
6 -9 -5 984 465 1
-6 9 5 405 408 1
6 -9 5 357 347 1
-9 6 5 235 403 1
3 -9 -5 921 524 1
-9 3 -5 112 413 1
6 -9 -5 788 526 1
9 -6 -5 521 445 1
3 -9 5 503 455 1
-6 -3 -5 158 512 1
3 -9 -5 1066 505 1
-3 -6 5 196 543 1
3 -9 5 952 429 1
-3 -6 -5 399 506 1
-6 -3 -6 3811 479 1
-9 3 -6 3410 287 1
-3 -6 -6 4248 525 1
6 -9 6 4317 340 1
-9 6 6 5796 467 1
6 -9 -6 5199 520 1
-6 9 6 4348 455 1
3 -9 -6 5111 570 1
9 -6 -6 4192 464 1
-9 3 -6 5485 448 1
3 -9 -6 4109 532 1
6 -9 -6 5302 559 1
3 -9 6 4538 445 1
6 -9 6 4946 334 1
-6 -3 -6 5688 544 1
6 -9 6 4821 511 1
6 -9 6 4942 322 1
-6 -3 -7 843 540 1
-9 6 7 93 469 1
6 -9 7 1734 487 1
6 -9 7 1015 313 1
6 -9 -7 624 531 1
-3 -6 -7 101 514 1
3 -9 -7 1088 567 1
9 -6 -7 865 438 1
-6 -3 -7 100 455 1
6 -9 -7 583 549 1
-9 3 -7 89 438 1
6 -9 7 1206 348 1
-9 6 -7 93 194 1
3 -9 -7 1504 545 1
9 -3 7 604 385 1
3 -9 7 90 431 1
-9 3 -7 497 262 1
6 -9 7 94 333 1
-9 3 -8 1656 267 1
6 -9 8 2859 365 1
-6 -3 -8 2690 492 1
-3 -6 -8 2782 549 1
6 -9 -8 3381 570 1
-3 -6 -8 2632 583 1
9 -6 -8 3167 471 1
-9 3 -8 2365 457 1
-9 3 -8 3514 594 1
-6 -3 -8 2467 585 1
6 -9 8 2336 507 1
6 -9 -8 2247 594 1
6 -9 8 2063 386 1
-9 6 -8 2162 262 1
3 -9 -8 2033 573 1
6 -9 8 2215 362 1
9 -3 8 2025 419 1
9 -6 -9 3110 468 1
-6 -3 -9 2455 501 1
-3 -6 -9 2745 585 1
6 -9 -9 3247 592 1
-9 3 -9 2506 257 1
6 -9 9 2635 412 1
-6 -3 -9 2550 596 1
6 -9 -9 4163 623 1
-3 -6 -9 4187 613 1
-9 3 -9 3671 595 1
6 -9 9 3842 522 1
-9 3 -9 2641 476 1
-9 6 -9 2721 301 1
3 -9 -9 3544 610 1
6 -9 9 2867 374 1
-6 -3 9 2887 295 1
9 -3 9 2731 451 1
6 -9 10 27 501 1
6 -9 10 156 352 1
-6 -3 -10 153 502 1
6 -9 -10 570 630 1
-9 3 -10 280 596 1
6 -9 -10 444 615 1
-3 -6 -10 76 615 1
-6 -3 -10 153 604 1
-9 6 -10 156 318 1
9 -6 -10 153 445 1
-9 3 -10 18 469 1
-3 -6 -10 406 549 1
3 -9 -10 242 599 1
9 -3 10 245 462 1
3 -9 10 152 427 1
6 -9 11 2368 381 1
6 -9 -11 2340 667 1
-3 -6 -11 2744 608 1
3 -9 11 1230 420 1
-9 3 -11 1691 632 1
9 -6 -11 2145 458 1
6 -9 -11 1140 647 1
-6 -3 -11 2225 656 1
-3 -6 -11 1741 651 1
6 -9 11 1795 519 1
-9 6 -11 2237 375 1
-9 6 -11 1335 566 1
-6 -3 -11 1103 526 1
-9 3 -11 2089 517 1
3 -9 -11 1834 652 1
3 -9 -12 698 647 1
6 -9 -12 1720 690 1
9 -6 -12 1800 458 1
-6 -3 -12 2243 558 1
-3 -6 -12 1693 612 1
-9 3 -12 895 623 1
6 -9 -12 923 670 1
6 -9 12 1219 512 1
-9 3 -12 1334 548 1
-6 -3 -12 1649 640 1
-3 -6 -12 1144 671 1
3 -9 12 1165 438 1
-9 6 -12 1150 579 1
3 -9 -12 1294 651 1
3 -9 -13 2371 715 1
-9 3 -13 930 565 1
-6 -3 -13 1291 578 1
-9 3 -13 2161 619 1
3 -9 -13 776 666 1
6 -9 -13 2469 704 1
6 -9 -13 17 702 1
-6 -3 -13 1890 681 1
-3 -6 -13 1956 699 1
-3 -6 -13 2089 632 1
-9 6 -13 1823 604 1
3 -9 -14 1721 735 1
-9 3 -14 1054 640 1
-9 3 -14 528 582 1
-3 -6 -14 589 667 1
-6 -3 -14 855 591 1
3 -9 -14 675 672 1
6 -9 -14 1203 737 1
-6 -3 -14 1239 710 1
-3 -6 -14 1752 706 1
3 -9 -15 1172 768 1
-9 3 -15 817 654 1
-6 -3 -15 2052 627 1
-9 3 -15 1261 638 1
-3 -6 -15 1074 682 1
3 -9 -15 229 733 1
6 -9 -15 1356 743 1
-6 -3 -15 1621 728 1
-3 -6 -15 464 754 1
-9 3 -16 730 657 1
3 -9 -16 2907 799 1
-3 -6 -16 2157 706 1
-6 -3 -16 966 644 1
3 -9 -16 1649 754 1
6 -9 -16 2289 796 1
-9 3 -16 1320 684 1
-6 -3 -16 2710 771 1
-3 -6 -16 1101 745 1
-6 -3 -17 9 772 1
-3 -6 -17 89 712 1
-6 -3 -17 9 671 1
3 -9 -17 790 790 1
6 -9 -17 154 789 1
6 -9 -17 9 847 1
3 -9 -17 1546 819 1
-3 -6 -17 1191 788 1
-3 -6 -18 606 758 1
-6 -3 -18 1190 839 1
3 -9 -18 0 860 1
3 -9 -18 1102 817 1
6 -9 -18 0 847 1
6 -9 -18 1539 882 1
-3 -6 -18 1064 853 1
-9 7 0 4598 448 1
2 -9 0 4816 529 1
7 -9 0 3617 521 1
7 -9 0 4501 413 1
-7 9 0 5129 389 1
9 -7 0 3447 560 1
2 -9 0 4202 587 1
-9 2 0 3893 555 1
-7 -2 0 3637 609 1
-9 2 0 4257 571 1
-9 7 0 4420 302 1
-7 9 0 4238 469 1
-2 -7 0 4016 591 1
7 -9 1 1206 295 1
-2 -7 -1 1507 525 1
7 -9 -1 1610 357 1
-9 2 -1 1553 514 1
2 -9 -1 1048 514 1
2 -9 1 2304 515 1
2 -9 -1 2191 496 1
-9 7 -1 1849 332 1
-7 9 1 1492 409 1
-9 7 1 2192 409 1
7 -9 1 541 422 1
7 -9 -1 872 464 1
2 -9 1 814 454 1
9 -7 -1 1892 494 1
-9 2 1 1910 476 1
-9 7 1 1905 263 1
-2 9 1 972 444 1
-9 2 1 1058 437 1
-7 -2 1 1986 527 1
-7 9 1 2006 322 1
9 -7 1 825 495 1
-9 2 -1 2615 515 1
-7 -2 -1 2579 513 1
-2 -7 1 1491 511 1
-7 9 2 3357 367 1
2 -9 2 3247 492 1
9 -7 2 3222 524 1
-9 7 -2 4134 314 1
-7 -2 -2 2260 544 1
-7 9 2 3853 447 1
2 -9 -2 3917 553 1
2 -9 2 3787 513 1
-9 2 2 3751 474 1
7 -9 -2 4228 409 1
2 -9 -2 3333 497 1
-9 7 2 3712 458 1
7 -9 2 4414 465 1
9 -7 -2 2755 510 1
7 -9 -2 3390 503 1
-9 2 -2 3213 536 1
-2 -7 -2 4179 523 1
-2 -7 -2 3804 541 1
-9 7 2 3628 327 1
-7 -2 2 2260 531 1
-2 -7 2 3709 538 1
7 -9 2 3169 271 1
-9 2 -2 3614 496 1
-7 9 3 2445 456 1
-9 2 -3 1964 474 1
-9 7 -3 1517 260 1
9 -7 -3 1879 502 1
-7 9 3 2572 374 1
2 -9 3 1788 518 1
-2 -7 -3 1935 533 1
-9 2 3 1914 460 1
2 -9 -3 2532 544 1
7 -9 -3 2462 431 1
7 -9 3 1661 426 1
-7 -2 -3 1572 525 1
2 -9 -3 2202 487 1
-9 7 3 2634 487 1
7 -9 -3 2442 507 1
9 -7 3 1131 517 1
-2 -7 -3 1338 522 1
-9 2 -3 1407 547 1
-7 -2 3 742 503 1
7 -9 3 1242 199 1
-9 7 3 2401 359 1
-2 -7 3 1781 528 1
2 -9 3 1941 457 1
-7 -2 -4 211 498 1
-9 2 -4 3 444 1
9 -7 -4 51 489 1
7 -9 4 158 382 1
2 -9 -4 398 543 1
-2 -7 -4 148 516 1
-7 9 4 11 371 1
7 -9 -4 46 436 1
2 -9 4 150 496 1
-9 7 4 12 471 1
2 -9 -4 149 508 1
9 -7 -4 30 476 1
-2 -7 4 148 527 1
-9 7 4 21 376 1
7 -9 -4 104 507 1
-2 -7 -4 13 516 1
2 -9 4 150 460 1
-9 2 -4 150 544 1
-9 2 4 100 415 1
9 -7 -5 66 501 1
-7 -2 -5 4 463 1
2 -9 -5 61 537 1
-9 2 -5 264 570 1
-2 -7 -5 233 497 1
-7 -2 -5 72 500 1
-9 2 -5 513 458 1
-7 9 5 212 398 1
7 -9 5 273 371 1
7 -9 5 2 519 1
7 -9 -5 681 536 1
2 -9 -5 227 529 1
9 -7 -5 211 520 1
7 -9 -5 194 482 1
-2 -7 5 67 556 1
-2 -7 -5 644 549 1
2 -9 5 496 486 1
-9 7 5 214 404 1
7 -9 6 10 169 1
7 -9 6 100 521 1
-7 -2 -6 20 511 1
-9 2 -6 2 314 1
7 -9 6 266 345 1
2 -9 -6 147 548 1
9 -7 6 78 496 1
-9 2 -6 14 485 1
-7 9 6 130 441 1
7 -9 -6 382 500 1
7 -9 -6 18 550 1
2 -9 -6 416 561 1
-7 -2 -6 105 423 1
9 -7 -6 1003 544 1
-2 -7 6 21 585 1
2 -9 6 18 487 1
-7 -2 6 144 353 1
-2 -7 -6 449 519 1
-9 7 6 5 418 1
7 -9 6 19 214 1
9 -7 -6 178 489 1
-7 -2 -7 1959 461 1
-9 2 -7 2105 332 1
-2 -7 -7 2176 556 1
7 -9 7 2082 337 1
-7 -2 -7 2896 568 1
-7 9 7 2405 490 1
7 -9 -7 1435 555 1
-9 2 -7 2270 517 1
7 -9 -7 1424 586 1
7 -9 7 1914 531 1
2 -9 -7 3833 591 1
-7 -2 7 2351 377 1
9 -7 -7 2078 577 1
9 -2 7 1471 444 1
2 -9 7 2654 536 1
7 -9 7 1641 299 1
-9 7 7 2091 476 1
7 -9 7 1223 253 1
-9 2 -8 1225 346 1
7 -9 8 1795 327 1
-2 -7 -8 1801 592 1
-7 -2 -8 1986 573 1
7 -9 -8 1678 567 1
7 -9 -8 2500 596 1
-9 2 -8 1736 528 1
-7 -2 8 1831 348 1
9 -7 -8 1212 611 1
2 -9 -8 2032 581 1
2 -9 8 2338 555 1
-7 -2 -8 2357 463 1
7 -9 8 2290 524 1
9 -2 8 1985 468 1
7 -9 8 1072 299 1
7 -9 8 1583 339 1
7 -9 9 763 522 1
-7 -2 -9 124 465 1
-2 -7 -9 923 589 1
-9 2 -9 621 323 1
-7 -2 -9 558 593 1
7 -9 -9 725 609 1
7 -9 -9 1360 636 1
-9 2 -9 1014 668 1
7 -9 9 668 334 1
-9 2 -9 280 531 1
2 -9 -9 792 603 1
9 -2 9 535 474 1
-7 -2 -10 2827 508 1
-2 -7 -10 2802 595 1
-9 2 -10 2392 357 1
2 -9 -10 3283 660 1
-9 2 -10 2632 688 1
7 -9 -10 2572 665 1
-7 -2 -10 809 608 1
7 -9 -10 3264 643 1
7 -9 10 2259 361 1
7 -9 10 2951 532 1
-9 2 -10 1924 553 1
2 -9 -10 1735 649 1
2 -9 11 1224 483 1
9 -7 -11 711 646 1
-7 -2 -11 885 515 1
-2 -7 -11 797 602 1
-9 2 -11 983 657 1
7 -9 11 818 523 1
7 -9 -11 1971 668 1
7 -9 -11 1288 671 1
-7 -2 -11 835 626 1
2 -9 -11 785 647 1
-9 2 -11 939 562 1
2 -9 -11 799 661 1
7 -9 -12 4 683 1
-7 -2 -12 5 524 1
-2 -7 -12 1176 610 1
9 -7 -12 1324 693 1
2 -9 -12 1156 654 1
-9 2 -12 123 622 1
2 -9 12 841 479 1
7 -9 -12 4 682 1
-7 -2 -12 597 651 1
-9 2 -12 287 571 1
7 -9 12 180 513 1
2 -9 -12 5 678 1
-9 2 -13 581 625 1
-7 -2 -13 154 550 1
-2 -7 -13 177 667 1
9 -7 -13 287 717 1
2 -9 -13 901 690 1
7 -9 -13 138 720 1
7 -9 -13 662 716 1
-7 -2 -13 656 694 1
2 -9 -13 24 700 1
-9 2 -13 23 595 1
2 -9 -14 129 703 1
-9 2 -14 497 633 1
9 -7 -14 970 733 1
-2 -7 -14 0 682 1
7 -9 -14 0 738 1
-7 -2 -14 1132 579 1
-9 2 -14 193 609 1
7 -9 -14 784 770 1
-7 -2 -14 0 726 1
-2 -7 -14 553 710 1
2 -9 -14 80 699 1
9 -7 -15 279 783 1
-2 -7 -15 220 696 1
-7 -2 -15 779 601 1
2 -9 -15 33 734 1
7 -9 -15 408 767 1
7 -9 -15 508 791 1
2 -9 -15 33 773 1
-7 -2 -15 137 738 1
-2 -7 -15 1198 765 1
-9 2 -15 94 662 1
-9 2 -15 212 596 1
-9 2 -16 6 674 1
2 -9 -16 6 789 1
-2 -7 -16 939 697 1
7 -9 -16 6 824 1
2 -9 -16 6 737 1
-9 2 -16 527 593 1
-7 -2 -16 5 749 1
-2 -7 -16 204 769 1
2 -9 -17 10 818 1
-2 -7 -17 9 741 1
2 -9 -17 10 787 1
-9 2 -17 691 727 1
7 -9 -17 8 871 1
-7 -2 -17 9 801 1
-2 -7 -17 255 793 1
-2 -7 -18 23 852 1
-7 -2 -18 468 852 1
-2 -7 -18 494 766 1
2 -9 -18 780 852 1
2 -9 -18 469 825 1
7 -9 -18 573 913 1
-1 -8 0 5843 600 1
1 -9 0 6229 595 1
1 -9 0 5667 573 1
8 -9 0 7375 526 1
9 -8 0 5697 605 1
9 -8 0 6586 492 1
8 -9 0 5786 347 1
-1 -8 0 5361 626 1
-9 8 0 7096 453 1
-9 1 0 5930 603 1
-9 1 0 6233 576 1
-8 -1 0 5420 626 1
-8 9 0 7095 472 1
-9 8 1 11218 551 1
-1 -8 -1 8175 645 1
1 -9 -1 8073 633 1
8 -9 1 9776 572 1
-9 1 -1 7992 636 1
8 -9 -1 9503 595 1
9 -8 -1 9101 584 1
9 -8 1 9846 535 1
1 -9 -1 10535 679 1
9 -8 -1 10038 670 1
-9 8 -1 10638 498 1
9 -8 1 8838 655 1
-9 1 1 7956 606 1
-8 9 1 11122 455 1
1 -9 1 9633 636 1
-9 1 1 9782 634 1
-9 8 1 10158 415 1
-8 -1 1 7889 661 1
-9 1 -1 7947 678 1
-8 9 -1 10646 517 1
-8 -1 -1 8238 690 1
8 -9 -1 11087 491 1
-1 -8 1 8596 648 1
1 -9 1 10131 677 1
-8 9 1 10215 548 1
9 -8 -2 4375 611 1
1 -9 2 3691 614 1
-9 1 2 3130 532 1
-1 -8 -2 3270 577 1
-9 8 -2 3456 368 1
-8 9 2 3653 473 1
1 -9 -2 2929 554 1
-9 8 2 2424 474 1
8 -9 2 4142 458 1
8 -9 -2 3272 536 1
1 -9 -2 3464 590 1
9 -8 -2 3049 510 1
9 -8 2 3663 566 1
9 -8 2 3350 405 1
8 -9 -2 4364 436 1
-8 9 2 3884 364 1
-9 1 2 2630 475 1
-8 -1 2 2269 546 1
-9 1 -2 2604 589 1
-9 8 2 3963 346 1
-1 -8 2 3140 567 1
-9 1 -2 2764 579 1
1 -9 2 3685 551 1
-8 -1 -2 4718 621 1
1 -9 3 4567 611 1
-8 -1 -3 3688 603 1
-1 -8 -3 4802 598 1
-8 9 3 4724 516 1
1 -9 -3 5172 608 1
1 -9 -3 4951 588 1
-9 1 -3 3755 585 1
8 -9 3 4054 459 1
8 -9 -3 4914 569 1
-9 1 -3 4318 634 1
-9 8 3 5701 540 1
9 -8 -3 4137 559 1
-8 9 3 5310 417 1
-9 1 3 5212 533 1
-8 -1 3 3610 525 1
8 -9 3 5591 623 1
-1 -8 3 3430 574 1
8 -9 -3 5206 490 1
9 -8 -3 5598 623 1
1 -9 3 5224 578 1
-9 8 -3 4484 367 1
-9 8 3 4699 413 1
-8 -1 -4 3090 540 1
-9 1 -4 1880 516 1
-1 -8 -4 1325 542 1
8 -9 4 2176 560 1
1 -9 -4 1880 559 1
-1 -8 -4 2148 536 1
-8 9 4 2836 379 1
1 -9 -4 2710 561 1
-9 1 -4 2897 630 1
-9 1 4 1851 453 1
8 -9 4 2735 372 1
8 -9 -4 2947 526 1
-9 8 4 1544 384 1
9 -8 -4 3314 525 1
8 -9 -4 2162 464 1
-1 -8 4 1007 535 1
1 -9 4 1569 521 1
-8 -1 4 2288 422 1
-8 -1 -5 3604 489 1
-1 -8 -5 3892 593 1
-8 -1 -5 3533 557 1
-9 1 -5 4847 681 1
-1 -8 -5 3569 608 1
-8 9 5 3915 463 1
1 -9 -5 2940 593 1
8 -9 5 4411 397 1
8 -9 5 3958 599 1
9 -8 5 3752 576 1
8 -9 -5 5148 591 1
-9 1 5 4508 470 1
9 -8 -5 4402 579 1
-9 8 5 5573 467 1
8 -9 -5 4772 529 1
-9 1 -5 4090 564 1
-8 -1 5 3757 462 1
-1 -8 5 4432 597 1
1 -9 5 3999 570 1
8 -9 6 1049 330 1
-9 1 -6 1214 395 1
-8 -1 -6 513 439 1
-1 -8 -6 945 579 1
-8 -1 -6 1000 534 1
9 -8 -6 1007 508 1
-1 -8 -6 1109 582 1
-8 9 6 1360 464 1
1 -9 -6 768 579 1
8 -9 -6 1429 597 1
9 -8 -6 1019 569 1
8 -9 6 1657 567 1
-9 1 -6 1216 680 1
8 -9 -6 891 532 1
-9 8 6 1159 466 1
-1 -8 6 1205 602 1
1 -9 6 802 557 1
9 -8 6 1626 542 1
-8 -1 6 1098 428 1
-9 1 -7 1221 387 1
-8 -1 -7 1175 452 1
-9 1 -7 1442 546 1
-8 -1 -7 968 570 1
8 -9 7 1161 280 1
-1 -8 -7 1182 581 1
-8 9 7 1221 492 1
-1 -8 -7 575 579 1
9 -8 -7 611 541 1
-8 -1 7 862 370 1
1 -9 -7 520 579 1
8 -9 -7 1796 598 1
9 -8 -7 1511 597 1
9 -8 7 986 533 1
8 -9 -7 536 560 1
-9 8 7 212 485 1
-1 -8 7 1586 632 1
1 -9 7 617 581 1
8 -9 7 1873 555 1
-8 -1 -8 2472 453 1
-9 1 -8 1599 387 1
9 -8 -8 3509 602 1
9 -8 -8 2051 649 1
-1 -8 -8 3206 622 1
8 -9 8 1325 556 1
-8 -1 -8 1379 590 1
9 -8 8 2564 546 1
8 -9 8 1274 205 1
-9 1 -8 2333 577 1
-1 -8 -8 1923 621 1
8 -9 -8 2142 646 1
1 -9 -8 1766 611 1
8 -9 -8 1774 608 1
1 -9 8 2860 609 1
-8 -1 8 2113 362 1
-1 -8 -9 2920 680 1
9 -8 -9 3877 648 1
-1 -8 -9 3412 620 1
-8 -1 -9 2719 626 1
-9 1 -9 1793 602 1
8 -9 -9 1852 661 1
1 -9 -9 2195 635 1
9 -8 -9 2561 670 1
1 -9 -9 2440 639 1
8 -9 -9 2876 653 1
-9 1 -9 2335 422 1
-8 -1 -9 1737 473 1
8 -9 9 3133 566 1
-8 -1 -10 2521 497 1
-9 1 -10 3210 429 1
-1 -8 -10 3671 640 1
1 -9 -10 2823 643 1
9 -8 -10 3895 686 1
-8 -1 -10 3584 656 1
8 -9 -10 2436 687 1
-1 -8 -10 2302 655 1
-9 1 -10 2804 618 1
9 -8 -10 2029 692 1
8 -9 10 2051 552 1
1 -9 -10 2610 675 1
8 -9 -10 3974 681 1
-9 1 -10 2382 700 1
1 -9 -11 4962 710 1
9 -8 -11 4144 736 1
-8 -1 -11 3624 532 1
-1 -8 -11 3887 673 1
8 -9 -11 3340 725 1
-8 -1 -11 4501 687 1
9 -8 -11 4920 756 1
-1 -8 -11 3753 709 1
-9 1 -11 4723 653 1
8 -9 -11 4205 743 1
1 -9 -11 3135 717 1
8 -9 11 3904 579 1
-9 1 -11 4934 709 1
9 -8 -12 706 735 1
-8 -1 -12 100 515 1
1 -9 -12 775 682 1
-9 1 -12 600 654 1
-1 -8 -12 684 671 1
8 -9 -12 913 721 1
9 -8 -12 714 725 1
-8 -1 -12 32 675 1
-9 1 -12 735 636 1
8 -9 -12 1036 750 1
1 -9 -12 198 677 1
9 -8 -13 6878 842 1
-8 -1 -13 6985 643 1
-1 -8 -13 5460 774 1
1 -9 -13 7165 760 1
8 -9 -13 7189 806 1
9 -8 -13 7113 845 1
-8 -1 -13 7511 782 1
-9 1 -13 6128 693 1
8 -9 -13 6143 835 1
-9 1 -13 5907 730 1
1 -9 -13 4954 771 1
9 -8 -14 322 803 1
-1 -8 -14 766 723 1
1 -9 -14 3554 731 1
8 -9 -14 2004 772 1
9 -8 -14 264 801 1
-9 1 -14 1038 583 1
-8 -1 -14 536 718 1
8 -9 -14 1335 818 1
-9 1 -14 2524 688 1
1 -9 -14 2025 764 1
-9 1 -15 1924 728 1
9 -8 -15 2042 842 1
1 -9 -15 2280 750 1
1 -9 -15 2532 785 1
-9 1 -15 1429 553 1
8 -9 -15 1603 820 1
-1 -8 -15 1350 746 1
8 -9 -15 2441 842 1
-8 -1 -15 2675 754 1
-9 1 -16 1 753 1
9 -8 -16 239 835 1
1 -9 -16 1822 811 1
-1 -8 -16 1289 736 1
1 -9 -16 268 746 1
8 -9 -16 895 840 1
8 -9 -16 89 839 1
-8 -1 -16 608 778 1
-8 -1 -17 4 813 1
-9 1 -17 1430 789 1
1 -9 -17 512 822 1
9 -8 -17 1577 899 1
-1 -8 -17 890 775 1
1 -9 -17 884 788 1
8 -9 -17 373 876 1
8 -9 -17 1706 883 1
-9 9 0 15 400 1
0 -9 0 57 553 1
0 -9 0 43 526 1
-9 0 0 14 488 1
9 -9 0 429 458 1
-9 0 0 462 564 1
9 -9 0 429 592 1
-9 9 1 17045 831 1
9 -9 1 16057 832 1
9 -9 -1 14761 865 1
9 -9 1 14800 950 1
-9 0 1 11947 904 1
-9 0 -1 13750 961 1
-9 9 1 17881 734 1
0 -9 1 13187 918 1
0 -9 -1 13460 919 1
-9 0 1 13413 873 1
-9 0 -1 13360 879 1
0 -9 1 13949 943 1
-9 9 -1 17795 807 1
0 -9 -1 15061 949 1
0 -9 -2 119 560 1
-9 9 2 2 289 1
0 -9 -2 422 547 1
-9 9 2 2 446 1
-9 0 2 4 473 1
-9 9 -2 159 352 1
9 -9 2 387 398 1
9 -9 -2 2 508 1
0 -9 2 609 583 1
-9 0 2 4 476 1
0 -9 2 4 542 1
-9 0 -2 395 588 1
0 -9 -3 2999 577 1
-9 9 3 3014 358 1
9 -9 -3 2534 408 1
-9 0 -3 2006 595 1
9 -9 3 2344 385 1
9 -9 -3 2376 545 1
-9 0 3 1621 436 1
0 -9 3 1494 572 1
-9 0 3 3126 504 1
-9 0 4 5140 500 1
0 -9 -4 4162 581 1
-9 9 4 4578 412 1
9 -9 -4 4558 476 1
9 -9 4 3989 363 1
9 -9 -4 4257 575 1
9 -9 4 4103 613 1
-9 0 -4 3544 583 1
0 -9 4 3134 563 1
9 -9 -5 15168 737 1
9 -9 -5 15157 796 1
-9 0 5 13591 693 1
9 -9 5 13028 795 1
0 -9 5 11137 803 1
-9 0 -5 11412 785 1
0 -9 -5 13032 799 1
-9 9 5 14915 683 1
-9 0 -6 2055 469 1
0 -9 -6 3293 633 1
9 -9 6 2209 611 1
-9 0 6 3912 466 1
-9 0 -6 3028 603 1
-9 9 6 4241 505 1
9 -9 -6 4106 628 1
0 -9 6 2903 633 1
9 -9 -6 2278 571 1
0 -9 -7 898 607 1
-9 0 -7 1207 593 1
-9 0 -7 1244 456 1
0 -9 -7 846 621 1
-9 9 7 1728 499 1
9 -9 -7 856 620 1
9 -9 7 194 581 1
0 -9 7 1016 632 1
-9 0 7 791 400 1
9 -9 -7 435 569 1
-9 0 -8 537 442 1
9 -9 8 235 547 1
-9 0 -8 299 605 1
0 -9 -8 5 627 1
9 -9 -8 641 640 1
0 -9 -8 5 636 1
0 -9 8 5 673 1
9 -9 -8 8 616 1
9 -9 9 5782 629 1
0 -9 -9 5650 701 1
-9 0 -9 5963 528 1
-9 0 -9 6406 695 1
0 -9 -9 5648 722 1
9 -9 -9 6152 720 1
9 -9 -9 6612 712 1
-9 0 -10 0 465 1
0 -9 -10 0 648 1
-9 0 -10 494 663 1
9 -9 -10 1 691 1
0 -9 -10 0 675 1
9 -9 -10 1 692 1
-9 0 -11 5914 544 1
0 -9 -11 5830 733 1
9 -9 -11 6023 805 1
-9 0 -11 6622 750 1
0 -9 -11 6145 767 1
9 -9 -11 5624 774 1
0 -9 -12 894 692 1
9 -9 -12 39 747 1
-9 0 -12 781 686 1
0 -9 -12 40 712 1
9 -9 -12 1410 750 1
9 -9 -13 5316 845 1
0 -9 -13 5462 768 1
9 -9 -13 5174 866 1
-9 0 -13 4937 772 1
0 -9 -13 3958 782 1
9 -9 -14 0 826 1
0 -9 -14 465 722 1
9 -9 -14 927 831 1
-9 0 -14 0 726 1
0 -9 -14 0 777 1
9 -9 -15 2241 861 1
9 -9 -15 376 847 1
0 -9 -15 2799 766 1
-9 0 -15 2507 775 1
0 -9 -15 3599 796 1
9 -9 -16 7 883 1
0 -9 -16 1133 774 1
9 -9 -16 7 880 1
0 -9 -16 607 799 1
-9 0 -16 6 794 1
-9 0 -17 357 846 1
9 -9 -17 389 920 1
0 -9 -17 1871 796 1
9 -9 -17 1351 911 1
0 -9 -17 1471 868 1
5 -10 0 39017 1793 1
-10 5 0 35831 1746 1
-10 5 0 31888 1729 1
-10 5 0 34858 1756 1
-5 -5 0 34754 1839 1
5 -10 0 36399 1759 1
-10 5 -2 1025 360 1
5 -10 2 1123 395 1
-5 -5 -2 9 563 1
5 -10 -2 686 513 1
-10 5 -2 429 346 1
-10 5 2 1146 433 1
5 -10 -2 510 445 1
-5 10 2 641 439 1
-10 5 2 715 409 1
5 -10 2 1399 462 1
-10 5 -4 763 543 1
-5 -5 -4 72 489 1
5 -10 4 365 399 1
5 -10 4 371 433 1
-5 -5 -4 366 578 1
10 -5 -4 391 467 1
-10 5 -4 308 320 1
-10 5 -4 238 289 1
5 -10 -4 139 556 1
5 -10 -4 239 498 1
-10 5 4 253 455 1
-5 10 4 223 453 1
-5 -5 -6 711 521 1
-5 -5 -6 239 582 1
5 -10 -6 584 590 1
-10 5 6 386 503 1
-10 5 -6 532 329 1
5 -10 6 310 432 1
5 -10 -6 578 545 1
5 -10 6 449 398 1
10 -5 -6 722 465 1
5 -10 8 3154 405 1
-5 -5 -8 3888 543 1
-10 5 -8 5061 573 1
-5 -5 -8 3574 618 1
5 -10 -8 3987 616 1
10 -5 -8 3892 456 1
5 -10 8 3360 427 1
5 -10 8 3920 393 1
5 -10 -8 4762 590 1
-10 5 -8 4377 378 1
5 -10 -10 6371 688 1
-10 5 -10 5911 483 1
-5 -5 -10 6284 639 1
10 -5 -10 6626 490 1
-10 5 -10 5221 635 1
5 -10 10 6601 572 1
5 -10 -10 5802 697 1
-5 -5 -10 6426 724 1
5 -10 -12 2305 712 1
-5 -5 -12 3064 614 1
-10 5 -12 2403 616 1
5 -10 -12 4010 716 1
5 -10 12 2380 552 1
-5 -5 -12 3625 707 1
-10 5 -14 1420 659 1
-5 -5 -14 3032 666 1
5 -10 -14 1661 762 1
-5 -5 -14 1120 748 1
-5 -5 -16 155 710 1
5 -10 -16 1 815 1
5 -10 -16 582 809 1
-5 -5 -16 70 785 1
6 -10 0 7616 562 1
-10 6 0 8161 506 1
4 -10 0 6919 584 1
10 -6 0 5463 583 1
4 -10 0 6983 543 1
-10 4 0 6394 482 1
6 -10 0 6980 470 1
-10 6 0 5711 442 1
-10 6 0 5645 375 1
-10 4 0 6031 540 1
-10 4 0 7037 596 1
-6 -4 0 5252 651 1
4 -10 1 115 479 1
-10 4 -1 22 551 1
4 -10 1 896 449 1
6 -10 -1 18 479 1
4 -10 -1 22 462 1
4 -10 -1 22 510 1
-10 6 -1 18 385 1
6 -10 1 18 449 1
-10 6 1 18 425 1
10 -6 -1 18 496 1
6 -10 1 121 356 1
-10 6 1 18 312 1
10 -6 1 661 504 1
-10 6 -1 18 249 1
-10 4 1 22 419 1
-10 4 -1 427 381 1
6 -10 -1 320 392 1
-10 4 1 22 390 1
-4 10 1 22 445 1
-6 10 1 18 406 1
-6 -4 1 436 560 1
-10 4 -1 777 476 1
-10 6 -1 79 315 1
-6 -4 -1 20 568 1
4 -10 2 6209 595 1
6 -10 2 6047 555 1
-6 -4 -2 5868 680 1
-10 6 -2 7691 472 1
6 -10 -2 7165 538 1
-10 4 -2 5714 645 1
-10 6 2 7042 553 1
4 -10 -2 6395 630 1
-10 4 2 6800 563 1
-10 4 -2 5996 480 1
-10 4 2 6605 562 1
-4 -6 -2 5736 617 1
-4 10 2 7184 572 1
-6 -4 2 6139 672 1
-6 10 2 7885 531 1
-10 4 -2 6930 558 1
-10 6 2 6286 472 1
-10 6 -2 5382 399 1
4 -10 2 6483 560 1
10 -6 -2 6506 594 1
-10 6 -2 4768 368 1
6 -10 2 6068 474 1
4 -10 -2 7436 598 1
6 -10 -2 7962 623 1
-4 -6 -3 1529 527 1
4 -10 3 1982 455 1
-10 4 3 1442 495 1
-10 4 -3 1399 427 1
4 -10 3 1311 480 1
6 -10 3 1542 347 1
4 -10 -3 1895 539 1
-10 4 -3 352 540 1
-10 6 -3 1665 294 1
-10 6 3 1411 463 1
6 -10 -3 1698 542 1
6 -10 3 1288 445 1
-10 6 -3 751 218 1
-10 6 3 1002 382 1
4 -10 -3 823 500 1
-10 4 -3 813 342 1
10 -6 -3 740 500 1
-6 -4 3 428 568 1
6 -10 -3 1748 457 1
-6 -4 -3 1414 564 1
-4 10 3 1182 467 1
-6 10 3 1282 426 1
4 -10 4 3457 481 1
-6 10 4 3973 468 1
-4 -6 -4 2792 538 1
4 -10 4 3854 515 1
-6 -4 -4 3383 532 1
-4 -6 -4 3595 582 1
6 -10 4 3715 355 1
6 -10 4 3970 457 1
-10 4 -4 2422 432 1
4 -10 -4 3938 592 1
6 -10 -4 3869 576 1
-10 6 4 3468 436 1
-10 4 -4 3887 575 1
10 -6 -4 3208 516 1
4 -10 -4 4032 543 1
-10 4 -4 3170 339 1
-10 6 -4 2965 246 1
-6 -4 4 3327 603 1
-4 -6 4 3333 591 1
6 -10 -4 3594 504 1
-6 -4 -4 3040 587 1
-10 4 4 3240 518 1
-10 6 5 2015 458 1
-6 -4 -5 1762 510 1
4 -10 5 2372 489 1
6 -10 5 2104 427 1
-6 -4 -5 2491 569 1
-4 -6 -5 3458 584 1
10 -6 -5 2460 510 1
4 -10 -5 2617 587 1
-10 4 -5 2211 424 1
6 -10 -5 2178 572 1
6 -10 5 1904 339 1
-10 4 -5 2327 558 1
-10 4 -5 2073 294 1
4 -10 -5 3053 540 1
-4 -6 -5 1670 548 1
-6 -4 5 2559 594 1
-4 -6 5 1884 614 1
-6 10 5 2051 460 1
-10 4 5 874 533 1
6 -10 -5 2508 503 1
-10 6 -5 1076 213 1
4 -10 5 3018 470 1
-10 6 -6 1344 255 1
4 -10 6 3302 490 1
-10 4 -6 1678 279 1
-4 -6 -6 2348 578 1
-6 -4 -6 3215 550 1
6 -10 6 2912 425 1
6 -10 6 1546 335 1
10 -6 -6 3119 516 1
-6 -4 -6 2577 589 1
-4 -6 -6 2315 595 1
4 -10 -6 3249 613 1
6 -10 -6 2887 606 1
-10 4 -6 2318 431 1
4 -10 -6 3008 587 1
-4 -6 6 2975 664 1
-10 6 6 2461 502 1
4 -10 6 2309 473 1
6 -10 -6 2903 560 1
6 -10 6 2123 371 1
4 -10 7 3056 463 1
6 -10 -7 3626 574 1
-6 -4 -7 3813 548 1
6 -10 7 2828 409 1
-4 -6 -7 2606 567 1
-10 4 -7 2395 236 1
-6 -4 -7 3637 631 1
-10 6 -7 2968 285 1
4 -10 -7 3545 625 1
-4 -6 -7 2374 630 1
6 -10 -7 2723 611 1
-10 4 -7 3856 449 1
4 -10 -7 4495 611 1
4 -10 7 3257 476 1
6 -10 7 3497 521 1
6 -10 7 3083 416 1
6 -10 7 2428 369 1
10 -6 -7 3097 517 1
6 -10 -8 16 593 1
4 -10 -8 20 628 1
-6 -4 -8 16 514 1
-4 -6 -8 619 532 1
6 -10 8 17 386 1
-6 -4 -8 931 607 1
6 -10 -8 16 619 1
-10 6 -8 17 274 1
-4 -6 -8 17 624 1
-10 4 -8 2233 595 1
-10 4 -8 199 423 1
4 -10 8 21 430 1
4 -10 -8 20 588 1
6 -10 8 17 380 1
6 -10 8 86 511 1
10 -6 -8 17 483 1
6 -10 9 1331 389 1
-6 -4 -9 134 528 1
-4 -6 -9 2693 578 1
4 -10 -9 2509 639 1
6 -10 9 1983 529 1
-6 -4 -9 494 626 1
6 -10 -9 1323 622 1
-4 -6 -9 1260 628 1
6 -10 -9 80 613 1
-10 4 -9 687 600 1
4 -10 9 584 442 1
6 -10 9 1120 374 1
-10 4 -9 863 431 1
10 -6 -9 1578 471 1
4 -10 -9 1109 608 1
-10 6 -9 816 570 1
6 -10 10 3361 428 1
-6 -4 -10 3454 586 1
6 -10 -10 4542 679 1
-4 -6 -10 2557 617 1
4 -10 -10 2593 671 1
4 -10 10 4180 531 1
6 -10 -10 3461 691 1
-6 -4 -10 3694 684 1
-4 -6 -10 3545 695 1
6 -10 10 3327 563 1
6 -10 10 2078 376 1
-10 4 -10 3238 647 1
10 -6 -10 2984 489 1
-10 4 -10 3743 495 1
4 -10 -10 3986 680 1
-10 6 -10 3654 601 1
6 -10 11 26 530 1
6 -10 11 1 391 1
-10 4 -11 52 502 1
-4 -6 -11 37 591 1
6 -10 -11 47 662 1
4 -10 11 733 490 1
6 -10 -11 133 664 1
-6 -4 -11 414 665 1
-4 -6 -11 51 691 1
-10 4 -11 52 629 1
-6 -4 -11 51 551 1
-10 6 -11 339 590 1
4 -10 -11 68 676 1
4 -10 -12 4414 749 1
-6 -4 -12 5889 620 1
-4 -6 -12 3655 657 1
-10 4 -12 4310 573 1
6 -10 -12 5945 752 1
6 -10 -12 4907 744 1
-6 -4 -12 4900 726 1
6 -10 12 4671 577 1
-4 -6 -12 3242 719 1
4 -10 12 4612 535 1
-10 4 -12 4455 675 1
-10 6 -12 4535 644 1
4 -10 -13 14 729 1
-6 -4 -13 17 613 1
-4 -6 -13 17 632 1
6 -10 -13 1 705 1
6 -10 -13 1 722 1
6 -10 13 21 536 1
-6 -4 -13 17 725 1
-4 -6 -13 558 712 1
-10 4 -13 14 642 1
-10 6 -13 48 623 1
4 -10 -14 3427 796 1
-6 -4 -14 3166 667 1
6 -10 -14 3223 772 1
4 -10 -14 3189 765 1
-10 4 -14 3224 701 1
-6 -4 -14 3239 758 1
-4 -6 -14 3170 774 1
-4 -6 -14 3033 702 1
-10 6 -14 2210 678 1
4 -10 -15 574 775 1
-4 -6 -15 47 693 1
-6 -4 -15 37 653 1
4 -10 -15 40 758 1
6 -10 -15 175 807 1
-10 4 -15 465 674 1
-6 -4 -15 37 731 1
-4 -6 -15 1507 770 1
-10 6 -15 35 668 1
4 -10 -16 2601 817 1
-4 -6 -16 1508 724 1
-6 -4 -16 1585 698 1
4 -10 -16 1 787 1
6 -10 -16 717 822 1
-6 -4 -16 1554 801 1
-4 -6 -16 1456 792 1
4 -10 -17 266 838 1
-4 -6 -17 614 740 1
-6 -4 -17 29 723 1
4 -10 -17 29 826 1
6 -10 -17 350 857 1
-6 -4 -17 29 825 1
-4 -6 -17 572 817 1
3 -10 0 13154 810 1
-10 7 0 16460 714 1
-10 7 0 10878 589 1
7 -10 0 12893 670 1
-10 3 0 13282 807 1
-10 7 0 11813 613 1
-10 3 0 11775 769 1
-7 -3 0 10846 845 1
-3 -7 0 10922 833 1
10 -7 0 12872 801 1
7 -10 0 14742 782 1
3 -10 0 11308 762 1
-3 -7 -1 104 529 1
-7 10 1 59 447 1
3 -10 1 112 523 1
3 -10 1 4 481 1
-10 3 1 208 513 1
3 -10 -1 10 535 1
3 -10 -1 145 482 1
-3 -7 -1 104 570 1
-10 7 -1 103 374 1
7 -10 1 103 473 1
10 -7 -1 102 531 1
-10 7 1 283 455 1
-10 3 -1 1 533 1
7 -10 1 103 329 1
10 -7 1 24 521 1
-10 3 1 2 427 1
-7 10 1 104 377 1
-7 -3 1 108 574 1
-10 7 1 102 281 1
-10 3 -1 58 543 1
7 -10 -1 10 514 1
7 -10 -1 0 388 1
-3 -7 1 109 545 1
-7 -3 -1 105 564 1
-7 -3 -2 1099 572 1
3 -10 -2 1321 547 1
-3 -7 -2 1090 556 1
3 -10 2 1752 499 1
-3 -7 -2 249 551 1
10 -7 2 1124 513 1
-10 7 -2 901 307 1
7 -10 2 1161 463 1
3 -10 -2 1137 513 1
-10 7 2 1296 480 1
7 -10 -2 1479 519 1
-10 3 -2 1390 555 1
-10 3 2 1914 516 1
7 -10 2 1515 310 1
-7 -3 2 610 554 1
3 -10 2 996 537 1
-3 -7 2 855 549 1
-7 10 2 1944 395 1
10 -7 -2 645 523 1
-10 7 2 1392 327 1
-10 3 2 1523 487 1
7 -10 -2 885 417 1
-10 3 -2 1500 528 1
-10 7 3 1104 364 1
3 -10 3 1746 509 1
7 -10 -3 563 454 1
-7 -3 -3 811 560 1
-3 -7 -3 795 535 1
-10 7 -3 960 265 1
3 -10 -3 1414 573 1
7 -10 3 1477 446 1
-10 7 3 2091 507 1
3 -10 -3 613 521 1
7 -10 -3 1062 546 1
7 -10 3 1134 286 1
3 -10 3 1353 530 1
-7 -3 3 855 565 1
-10 3 -3 1033 569 1
10 -7 -3 1186 518 1
-10 3 -3 1395 502 1
-3 -7 3 1302 574 1
10 -7 3 585 538 1
-7 10 3 1890 418 1
-10 7 4 4314 469 1
7 -10 4 5596 517 1
3 -10 4 3995 572 1
-10 3 -4 3465 556 1
7 -10 -4 5263 566 1
-7 -3 -4 2982 623 1
3 -10 -4 3246 642 1
10 -7 4 3176 600 1
-3 -7 -4 4017 625 1
7 -10 -4 4678 631 1
3 -10 -4 4055 611 1
10 -7 -4 4814 590 1
-7 10 4 5373 493 1
-7 -3 4 3769 612 1
-3 -7 4 3447 645 1
-10 3 -4 4072 665 1
7 -10 4 3646 362 1
3 -10 4 4540 580 1
-10 7 5 506 418 1
-7 -3 -5 202 499 1
-7 10 5 53 442 1
-7 -3 -5 1180 567 1
7 -10 5 2 417 1
3 -10 -5 653 579 1
7 -10 -5 655 506 1
7 -10 5 205 245 1
-10 3 -5 246 474 1
3 -10 5 689 498 1
7 -10 -5 2 562 1
-3 -7 -5 14 550 1
3 -10 -5 797 552 1
10 -7 -5 575 506 1
-3 -7 5 513 605 1
7 -10 5 154 255 1
3 -10 5 527 516 1
-10 3 -5 1107 594 1
-10 7 6 3484 482 1
7 -10 6 4074 554 1
-10 3 -6 2958 332 1
-7 -3 -6 3545 533 1
-10 3 -6 4420 634 1
3 -10 6 3232 506 1
7 -10 6 1923 268 1
-3 -7 -6 3852 586 1
7 -10 -6 4468 563 1
7 -10 6 3641 425 1
-7 -3 -6 2751 579 1
3 -10 -6 3990 640 1
-10 3 -6 3683 512 1
7 -10 -6 3643 599 1
10 -7 -6 3873 531 1
-7 10 6 4674 493 1
7 -10 6 2855 308 1
3 -10 -6 3429 610 1
-3 -7 6 3438 671 1
3 -10 6 4205 537 1
7 -10 7 314 294 1
-10 7 7 241 477 1
-7 -3 -7 15 503 1
-10 3 -7 120 295 1
7 -10 7 257 398 1
7 -10 7 921 540 1
7 -10 -7 199 565 1
-7 -3 -7 94 597 1
10 -7 -7 220 514 1
3 -10 -7 346 600 1
7 -10 -7 1244 605 1
-10 3 -7 426 494 1
3 -10 -7 256 585 1
-3 -7 7 126 673 1
3 -10 7 305 518 1
-3 -7 -7 95 569 1
3 -10 -8 3 638 1
7 -10 8 747 372 1
-3 -7 -8 2 581 1
10 -7 -8 4 494 1
7 -10 -8 200 594 1
-7 -3 -8 359 626 1
7 -10 8 514 541 1
7 -10 -8 193 636 1
-10 3 -8 678 512 1
3 -10 -8 269 601 1
3 -10 8 570 511 1
-7 -3 -8 719 505 1
7 -10 8 5 325 1
-7 -3 8 773 365 1
7 -10 9 445 388 1
-7 -3 -9 12 516 1
-10 3 -9 321 669 1
7 -10 -9 605 629 1
-7 -3 -9 1 624 1
7 -10 -9 430 642 1
10 -7 -9 229 502 1
-3 -7 -9 416 597 1
-10 3 -9 118 519 1
-7 -3 9 103 331 1
7 -10 9 199 546 1
3 -10 9 995 500 1
3 -10 -9 2 646 1
7 -10 9 3 323 1
10 -7 -10 4006 529 1
-7 -3 -10 4381 578 1
-3 -7 -10 4196 644 1
7 -10 10 3216 594 1
-10 3 -10 4490 737 1
7 -10 10 4279 470 1
7 -10 -10 4045 690 1
-7 -3 -10 3458 685 1
7 -10 -10 3265 705 1
-3 -7 -10 5169 700 1
-10 3 -10 3275 575 1
3 -10 -10 3854 698 1
10 -7 -11 30 501 1
3 -10 11 32 510 1
-7 -3 -11 27 546 1
-3 -7 -11 892 623 1
-10 3 -11 581 692 1
7 -10 -11 30 680 1
7 -10 -11 30 690 1
-7 -3 -11 496 663 1
-3 -7 -11 948 699 1
7 -10 11 238 559 1
-10 3 -11 33 546 1
3 -10 -11 797 684 1
-7 -3 -12 1561 580 1
-3 -7 -12 2351 653 1
-10 3 -12 2886 716 1
7 -10 12 1828 570 1
7 -10 -12 2641 733 1
7 -10 -12 1542 727 1
-7 -3 -12 3115 716 1
-3 -7 -12 2392 729 1
3 -10 -12 1280 714 1
-10 3 -12 2589 596 1
3 -10 -13 159 748 1
-10 3 -13 72 693 1
-7 -3 -13 76 594 1
-3 -7 -13 951 684 1
3 -10 -13 55 712 1
-10 3 -13 817 615 1
7 -10 -13 148 733 1
7 -10 -13 17 730 1
7 -10 13 256 565 1
-7 -3 -13 21 735 1
-3 -7 -13 364 736 1
3 -10 -14 1177 770 1
-10 3 -14 1386 648 1
-10 3 -14 1440 689 1
-7 -3 -14 1789 639 1
-3 -7 -14 1088 700 1
3 -10 -14 1705 751 1
7 -10 -14 2001 775 1
7 -10 -14 1542 772 1
-7 -3 -14 2604 774 1
-3 -7 -14 2961 789 1
3 -10 -15 0 799 1
-3 -7 -15 552 712 1
-7 -3 -15 0 653 1
3 -10 -15 9 739 1
7 -10 -15 775 786 1
7 -10 -15 0 800 1
-7 -3 -15 0 775 1
-3 -7 -15 741 768 1
-3 -7 -16 1249 730 1
3 -10 -16 2241 835 1
3 -10 -16 936 792 1
7 -10 -16 631 848 1
-7 -3 -16 579 799 1
-3 -7 -16 940 820 1
3 -10 -17 399 835 1
-3 -7 -17 29 755 1
3 -10 -17 434 831 1
7 -10 -17 294 864 1
-3 -7 -17 29 828 1
-7 -3 -17 29 832 1
-2 -8 0 799 582 1
2 -10 0 570 513 1
2 -10 0 40 559 1
8 -10 0 221 330 1
-10 8 0 828 405 1
8 -10 0 762 502 1
-8 10 0 454 435 1
10 -8 0 572 565 1
-10 2 0 273 528 1
-10 2 0 11 559 1
-8 -2 0 18 599 1
-2 -8 -1 56 567 1
-8 10 1 686 456 1
2 -10 1 113 521 1
2 -10 -1 476 553 1
-10 8 -1 522 365 1
2 -10 -1 971 532 1
-10 8 1 653 246 1
8 -10 1 436 274 1
8 -10 -1 482 380 1
8 -10 1 581 489 1
8 -10 -1 1706 526 1
2 -10 1 571 579 1
10 -8 -1 1078 548 1
-10 2 1 351 530 1
-10 2 1 378 480 1
-8 10 1 835 340 1
-8 -2 1 1189 593 1
-10 8 1 1030 449 1
-10 2 -1 1113 577 1
10 -8 1 1340 566 1
-8 -2 -1 186 582 1
-2 -8 1 415 571 1
-10 2 -1 943 558 1
-8 -2 -2 586 607 1
2 -10 2 627 542 1
2 -10 2 1159 587 1
-2 -8 -2 533 580 1
-10 8 -2 823 331 1
2 -10 -2 600 570 1
-10 2 -2 890 598 1
2 -10 -2 742 550 1
-10 8 2 1490 490 1
8 -10 2 993 484 1
-10 2 2 209 505 1
8 -10 -2 1069 431 1
10 -8 2 306 570 1
8 -10 -2 631 533 1
10 -8 -2 871 562 1
-10 8 2 882 316 1
-10 2 2 246 415 1
-8 -2 2 628 555 1
-2 -8 2 999 578 1
-8 10 2 1120 366 1
-10 2 -2 310 588 1
-8 10 3 652 378 1
-8 -2 -3 79 597 1
2 -10 3 332 547 1
-10 2 -3 65 542 1
-10 8 -3 3 276 1
-2 -8 -3 79 567 1
-2 -8 -3 79 575 1
-10 2 3 65 496 1
2 -10 -3 22 575 1
2 -10 -3 40 549 1
8 -10 3 70 463 1
8 -10 -3 56 466 1
-10 2 -3 65 605 1
8 -10 -3 69 552 1
10 -8 3 107 552 1
10 -8 -3 69 547 1
-10 8 3 71 359 1
-10 8 3 69 499 1
-8 -2 3 1 520 1
-2 -8 3 78 572 1
2 -10 3 64 529 1
2 -10 4 894 553 1
-8 -2 -4 319 587 1
-8 10 4 100 406 1
-10 2 -4 163 537 1
2 -10 -4 321 604 1
-2 -8 -4 35 577 1
10 -8 -4 33 551 1
-2 -8 -4 144 568 1
8 -10 4 152 442 1
2 -10 -4 28 566 1
8 -10 -4 339 506 1
8 -10 -4 757 569 1
-10 2 -4 336 629 1
-10 8 4 525 402 1
-8 -2 4 55 495 1
-2 -8 4 35 593 1
2 -10 4 106 537 1
-10 2 4 203 474 1
8 -10 4 413 562 1
2 -10 5 555 530 1
-8 -2 -5 271 511 1
-8 -2 -5 620 584 1
10 -8 -5 958 547 1
-2 -8 -5 535 572 1
8 -10 5 30 552 1
-8 10 5 419 438 1
2 -10 -5 172 594 1
-2 -8 -5 466 575 1
8 -10 5 307 433 1
2 -10 -5 499 571 1
8 -10 -5 949 530 1
8 -10 -5 144 585 1
-10 8 5 606 435 1
-10 2 -5 1015 650 1
-2 -8 5 56 616 1
2 -10 5 579 561 1
-10 2 -5 572 526 1
-10 2 -6 3 358 1
-8 -2 -6 201 478 1
-2 -8 -6 549 606 1
-8 -2 -6 435 596 1
-8 10 6 328 458 1
2 -10 -6 166 605 1
-8 -2 6 2 410 1
-2 -8 -6 480 617 1
8 -10 6 280 432 1
8 -10 6 478 568 1
8 -10 -6 647 603 1
8 -10 -6 77 552 1
2 -10 -6 3 586 1
-10 2 -6 67 561 1
-2 -8 6 124 639 1
10 -8 6 176 552 1
2 -10 6 498 573 1
-10 2 -6 888 696 1
10 -8 -6 184 556 1
-10 2 -7 348 368 1
-8 -2 -7 0 490 1
-2 -8 -7 0 596 1
10 -8 7 0 552 1
-8 -2 7 0 408 1
-10 2 -7 0 708 1
-8 -2 -7 408 600 1
8 -10 7 0 413 1
-2 -8 -7 0 611 1
-10 2 -7 707 560 1
8 -10 -7 62 615 1
8 -10 -7 0 571 1
8 -10 7 0 574 1
2 -10 -7 0 619 1
-2 -8 7 0 689 1
2 -10 7 0 578 1
10 -8 -7 0 551 1
-8 -2 -8 1 489 1
-10 2 -8 0 364 1
-2 -8 -8 572 617 1
8 -10 8 599 386 1
-8 -2 -8 728 623 1
-2 -8 -8 489 637 1
-10 2 -8 0 574 1
8 -10 -8 1 633 1
-8 -2 8 61 367 1
8 -10 -8 886 621 1
2 -10 -8 1 631 1
-2 -8 8 68 711 1
2 -10 8 1 594 1
8 -10 8 59 570 1
10 -8 -8 0 550 1
8 -10 9 24 577 1
-8 -2 -9 23 498 1
-2 -8 -9 510 628 1
-8 -2 -9 713 644 1
8 -10 -9 25 677 1
-10 2 -9 193 604 1
8 -10 -9 56 651 1
2 -10 -9 20 664 1
2 -10 9 21 610 1
10 -8 -9 24 554 1
-10 2 -10 1215 751 1
-8 -2 -10 627 524 1
-2 -8 -10 919 638 1
-8 -2 -10 797 670 1
8 -10 -10 168 694 1
8 -10 -10 35 682 1
-10 2 -10 40 615 1
8 -10 10 15 569 1
2 -10 10 264 602 1
2 -10 -10 804 690 1
-10 2 -11 1352 727 1
-8 -2 -11 622 528 1
-2 -8 -11 655 648 1
2 -10 -11 98 701 1
8 -10 -11 279 713 1
-8 -2 -11 762 706 1
8 -10 -11 922 717 1
-10 2 -11 1076 619 1
2 -10 -11 2 700 1
-10 2 -12 422 725 1
-8 -2 -12 718 554 1
-2 -8 -12 1103 684 1
2 -10 -12 879 707 1
8 -10 -12 15 751 1
-8 -2 -12 1051 704 1
8 -10 -12 2104 747 1
-10 2 -12 358 640 1
2 -10 -12 1312 709 1
-8 -2 -13 1 592 1
-2 -8 -13 1 700 1
2 -10 -13 0 734 1
8 -10 -13 237 761 1
-8 -2 -13 1622 753 1
8 -10 -13 955 771 1
-10 2 -13 0 653 1
2 -10 -13 0 740 1
-10 2 -13 0 694 1
-2 -8 -14 383 712 1
2 -10 -14 167 721 1
8 -10 -14 1045 799 1
8 -10 -14 233 799 1
-8 -2 -14 100 771 1
2 -10 -14 50 781 1
-10 2 -14 51 684 1
2 -10 -15 715 806 1
-10 2 -15 768 710 1
-2 -8 -15 449 734 1
2 -10 -15 155 763 1
8 -10 -15 33 818 1
8 -10 -15 694 838 1
-8 -2 -15 35 790 1
2 -10 -16 6 844 1
-2 -8 -16 5 754 1
2 -10 -16 6 778 1
8 -10 -16 91 845 1
8 -10 -16 5 874 1
-8 -2 -16 5 842 1
-2 -8 -16 1115 815 1
-1 -9 0 528 579 1
-9 10 0 915 443 1
1 -10 0 1020 565 1
-1 -9 0 459 597 1
1 -10 0 61 613 1
10 -9 0 718 595 1
9 -10 0 415 507 1
-10 1 0 247 553 1
10 -9 0 663 477 1
-10 9 0 791 414 1
-10 1 0 498 586 1
-9 -1 0 38 616 1
-1 -9 1 1904 582 1
-1 -9 1 1927 652 1
1 -10 1 2455 564 1
1 -10 1 2127 605 1
-1 -9 -1 1408 575 1
-9 10 1 2428 471 1
1 -10 -1 2054 618 1
1 -10 -1 1230 567 1
-10 9 1 3099 461 1
-10 1 1 1712 550 1
10 -9 -1 1701 597 1
9 -10 1 2733 502 1
9 -10 -1 1961 531 1
10 -9 1 3020 611 1
10 -9 -1 1601 511 1
10 -9 1 1795 447 1
-10 1 1 1941 522 1
-9 10 -1 3970 439 1
-9 -1 1 2001 587 1
-10 1 -1 1641 579 1
-10 9 -1 2759 388 1
-10 1 -1 2800 635 1
-9 -1 -1 2597 642 1
-9 -1 -2 96 630 1
10 -9 -2 93 602 1
1 -10 -2 2 621 1
-1 -9 -2 220 581 1
-10 1 -2 346 563 1
-10 9 2 269 488 1
1 -10 -2 223 555 1
1 -10 2 98 580 1
9 -10 2 135 459 1
9 -10 -2 322 542 1
10 -9 -2 290 527 1
10 -9 2 1 594 1
-10 1 2 31 455 1
-9 -1 2 32 433 1
1 -10 2 132 562 1
-9 -1 2 160 512 1
-10 1 2 154 522 1
9 -10 -2 184 380 1
-1 -9 2 766 580 1
-10 1 -2 97 633 1
10 -9 -3 381 614 1
-9 -1 -3 29 627 1
1 -10 3 22 605 1
9 -10 3 30 596 1
1 -10 -3 574 615 1
-1 -9 -3 29 607 1
-9 -1 3 50 452 1
1 -10 -3 0 558 1
-10 1 -3 22 605 1
9 -10 3 30 433 1
9 -10 -3 31 560 1
-10 1 -3 128 599 1
10 -9 -3 304 559 1
-10 1 3 309 503 1
-10 1 3 22 386 1
-9 -1 3 28 489 1
9 -10 -3 31 447 1
-1 -9 3 194 594 1
1 -10 3 266 568 1
1 -10 4 2196 610 1
-9 -1 -4 1847 632 1
1 -10 -4 1715 614 1
-1 -9 -4 1698 588 1
1 -10 -4 1472 600 1
-10 1 4 1583 489 1
-9 -1 4 1521 454 1
9 -10 4 1461 424 1
-10 1 -4 2654 619 1
9 -10 -4 1356 590 1
10 -9 -4 1523 591 1
-9 -1 4 806 469 1
9 -10 -4 1535 495 1
-1 -9 4 1407 619 1
9 -10 4 2955 613 1
1 -10 4 2327 602 1
10 -9 -4 736 601 1
-10 1 -4 631 652 1
-9 -1 -5 116 501 1
-10 1 5 59 465 1
-10 1 -5 940 593 1
-9 -1 -5 917 607 1
1 -10 -5 8 623 1
-1 -9 -5 3 609 1
-9 -1 5 242 461 1
1 -10 -5 18 601 1
-10 1 -5 341 695 1
-1 -9 -5 480 609 1
9 -10 5 20 372 1
10 -9 5 49 612 1
9 -10 5 52 600 1
9 -10 -5 48 612 1
10 -9 -5 376 610 1
9 -10 -5 73 537 1
-1 -9 5 14 615 1
1 -10 5 199 591 1
-9 -1 -6 2579 497 1
-10 1 -6 2303 605 1
-1 -9 -6 2810 628 1
1 -10 -6 1378 642 1
-10 1 -6 1930 437 1
9 -10 6 2493 349 1
9 -10 -6 3248 653 1
10 -9 -6 3695 647 1
-9 -1 -6 2324 622 1
9 -10 6 3542 631 1
-10 1 -6 2050 759 1
9 -10 -6 2935 588 1
-1 -9 6 3074 658 1
-9 -1 6 2539 462 1
1 -10 6 2621 627 1
-1 -9 -6 2407 620 1
10 -9 6 3362 613 1
-1 -9 -7 11 653 1
-10 1 -7 1706 770 1
-10 1 -7 179 429 1
-9 -1 -7 11 491 1
-9 -1 -7 11 633 1
-10 1 -7 12 629 1
-9 -1 7 11 416 1
-1 -9 -7 1616 652 1
1 -10 -7 11 642 1
9 -10 -7 274 651 1
10 -9 -7 440 646 1
-1 -9 7 1163 692 1
9 -10 -7 761 609 1
1 -10 7 865 631 1
9 -10 7 703 612 1
-9 -1 -8 1070 487 1
-10 1 -8 773 422 1
-1 -9 -8 5 654 1
10 -9 -8 996 607 1
-9 -1 -8 592 658 1
-10 1 -8 793 636 1
-1 -9 -8 254 665 1
9 -10 -8 889 669 1
1 -10 -8 922 668 1
10 -9 -8 175 676 1
-1 -9 8 858 730 1
1 -10 8 4 662 1
9 -10 -8 644 651 1
-9 -1 8 394 400 1
-9 -1 -9 20 488 1
-10 1 -9 716 439 1
-1 -9 -9 769 647 1
1 -10 -9 980 662 1
10 -9 -9 71 646 1
-9 -1 -9 485 674 1
-10 1 -9 761 654 1
-1 -9 -9 280 684 1
9 -10 -9 607 693 1
1 -10 -9 698 663 1
10 -9 -9 122 711 1
-1 -9 9 140 758 1
1 -10 9 56 681 1
9 -10 -9 26 687 1
-9 -1 -10 4 522 1
-1 -9 -10 329 669 1
10 -9 -10 1198 701 1
1 -10 -10 4 679 1
-9 -1 -10 4 703 1
9 -10 -10 641 727 1
-10 1 -10 805 677 1
-1 -9 -10 917 719 1
10 -9 -10 4 733 1
1 -10 -10 436 697 1
1 -10 10 421 695 1
9 -10 -10 730 728 1
-9 -1 -11 177 543 1
10 -9 -11 1214 724 1
1 -10 -11 3 708 1
-1 -9 -11 282 689 1
9 -10 -11 353 744 1
-9 -1 -11 394 720 1
10 -9 -11 29 753 1
-1 -9 -11 82 710 1
-10 1 -11 3 676 1
1 -10 -11 3 740 1
9 -10 -11 3 751 1
-10 1 -11 3 760 1
10 -9 -12 550 736 1
-1 -9 -12 210 711 1
1 -10 -12 25 730 1
9 -10 -12 473 766 1
10 -9 -12 1477 769 1
-9 -1 -12 240 723 1
-10 1 -12 20 717 1
-1 -9 -12 371 746 1
-10 1 -12 160 698 1
1 -10 -12 371 760 1
9 -10 -12 54 787 1
10 -9 -13 1 824 1
-1 -9 -13 1921 740 1
1 -10 -13 474 750 1
9 -10 -13 0 776 1
10 -9 -13 446 805 1
-9 -1 -13 0 795 1
-1 -9 -13 0 771 1
-10 1 -13 594 717 1
1 -10 -13 0 779 1
9 -10 -13 0 799 1
10 -9 -14 66 834 1
-1 -9 -14 634 752 1
1 -10 -14 68 758 1
9 -10 -14 13 824 1
-9 -1 -14 0 790 1
-1 -9 -14 952 804 1
-10 1 -14 68 726 1
1 -10 -14 68 798 1
9 -10 -14 66 830 1
10 -9 -15 20 862 1
-1 -9 -15 1040 774 1
1 -10 -15 17 780 1
9 -10 -15 603 873 1
-9 -1 -15 20 827 1
9 -10 -15 20 844 1
1 -10 -15 683 802 1
-10 1 -15 417 764 1
1 -10 -16 745 868 1
-10 1 -16 227 820 1
10 -9 -16 52 889 1
-1 -9 -16 32 801 1
1 -10 -16 924 807 1
9 -10 -16 200 943 1
-9 -1 -16 32 847 1
9 -10 -16 84 884 1
0 -10 0 6125 656 1
0 -10 0 3978 623 1
10 -10 0 6173 665 1
10 -10 0 5990 548 1
-10 0 0 4617 546 1
-10 0 0 4047 660 1
0 -10 1 1915 631 1
0 -10 -1 2201 662 1
-10 0 1 1849 519 1
10 -10 1 2249 653 1
0 -10 1 1437 619 1
10 -10 -1 3343 554 1
10 -10 1 2670 502 1
-10 0 -1 1779 559 1
0 -10 -1 1706 614 1
-10 0 1 2895 603 1
-10 0 -1 1559 670 1
10 -10 -1 1982 662 1
-10 0 -2 3921 712 1
0 -10 2 3206 642 1
0 -10 -2 3161 665 1
0 -10 2 3343 679 1
0 -10 -2 2922 626 1
10 -10 -2 3371 594 1
10 -10 2 3607 487 1
-10 0 2 3239 536 1
-10 0 2 1543 522 1
-10 0 -2 3987 594 1
10 -10 -2 3301 666 1
0 -10 3 640 628 1
0 -10 -3 682 619 1
-10 0 3 772 522 1
-10 0 -3 637 577 1
0 -10 -3 896 599 1
10 -10 -3 25 586 1
10 -10 3 1051 418 1
-10 0 3 197 449 1
-10 0 -3 729 664 1
0 -10 3 1407 608 1
0 -10 -4 327 634 1
-10 0 -4 1117 660 1
10 -10 -4 963 607 1
10 -10 4 57 384 1
-10 0 4 334 403 1
-10 0 4 809 500 1
0 -10 4 69 637 1
-10 0 -5 1111 661 1
10 -10 -5 2388 512 1
0 -10 -5 2188 648 1
-10 0 5 2390 501 1
10 -10 -5 2655 646 1
0 -10 5 1967 646 1
-10 0 -6 1487 498 1
10 -10 -6 61 559 1
-10 0 6 70 467 1
-10 0 -6 1046 647 1
0 -10 -6 1380 641 1
10 -10 -6 651 653 1
0 -10 6 516 669 1
-10 0 -7 0 488 1
10 -10 -7 506 623 1
0 -10 -7 0 676 1
-10 0 -7 769 670 1
0 -10 -7 1167 678 1
10 -10 -7 1094 682 1
0 -10 7 1 694 1
-10 0 7 512 435 1
-10 0 -8 1247 486 1
0 -10 -8 192 673 1
-10 0 -8 234 682 1
0 -10 -8 10 686 1
10 -10 -8 724 695 1
10 -10 -8 189 667 1
0 -10 8 796 713 1
10 -10 -9 273 707 1
-10 0 -9 1 488 1
0 -10 -9 661 693 1
-10 0 -9 980 723 1
0 -10 -9 1 722 1
10 -10 -9 311 727 1
0 -10 9 957 753 1
10 -10 -10 613 736 1
0 -10 -10 0 701 1
-10 0 -10 789 736 1
10 -10 -10 1072 764 1
0 -10 -10 946 712 1
0 -10 10 1043 778 1
10 -10 -11 32 765 1
0 -10 -11 555 723 1
-10 0 -11 1165 746 1
10 -10 -11 32 806 1
0 -10 -11 1072 761 1
0 -10 11 1014 806 1
10 -10 -12 2877 828 1
0 -10 -12 3289 772 1
10 -10 -12 757 828 1
-10 0 -12 1862 782 1
0 -10 -12 2425 794 1
10 -10 -13 1857 854 1
0 -10 -13 1561 793 1
10 -10 -13 624 852 1
-10 0 -13 1292 811 1
0 -10 -13 1508 800 1
10 -10 -14 1223 889 1
0 -10 -14 283 786 1
10 -10 -14 17 860 1
-10 0 -14 968 815 1
0 -10 -14 422 833 1
10 -10 -15 88 919 1
0 -10 -15 316 807 1
10 -10 -15 0 900 1
-10 0 -15 144 847 1
0 -10 -15 493 855 1
-11 5 0 1066 421 1
5 -11 0 352 514 1
6 -11 0 1335 520 1
5 -11 0 0 476 1
-11 6 0 483 446 1
6 -11 0 909 429 1
-11 5 0 380 428 1
-11 6 0 260 397 1
-11 5 0 0 472 1
-6 -5 0 140 622 1
-5 -6 -1 3420 638 1
-11 5 1 3007 465 1
5 -11 1 4405 544 1
5 -11 -1 3114 560 1
6 -11 1 3545 521 1
5 -11 1 3247 494 1
6 -11 -1 2634 543 1
-11 6 -1 4288 436 1
6 -11 1 3118 433 1
5 -11 -1 3244 498 1
-11 6 1 4247 483 1
-11 5 -1 3402 418 1
-11 5 1 3883 476 1
6 -11 -1 3112 464 1
-5 11 1 3661 508 1
-11 6 1 2242 342 1
-6 11 1 4143 491 1
-11 5 1 3067 401 1
-6 -5 1 4151 645 1
-11 5 -1 3231 478 1
-11 6 -1 2998 403 1
-6 -5 -1 3415 651 1
-5 -6 -2 1029 643 1
5 -11 2 1621 511 1
6 -11 2 1138 493 1
5 -11 2 918 454 1
5 -11 -2 1411 553 1
-11 5 -2 997 427 1
6 -11 -2 834 553 1
6 -11 2 42 401 1
-6 -5 -2 1033 616 1
-11 6 -2 742 330 1
-11 6 2 993 484 1
5 -11 -2 1717 506 1
-11 5 2 879 465 1
11 -6 -2 523 524 1
6 -11 -2 307 457 1
-5 11 2 1648 494 1
-6 11 2 598 473 1
-6 -5 2 1054 624 1
-11 5 2 691 461 1
-5 -6 -3 22 550 1
-6 -5 -3 22 616 1
-5 -6 -3 730 613 1
-6 -5 -3 22 533 1
5 -11 3 27 503 1
5 -11 3 443 467 1
-11 5 -3 13 392 1
6 -11 3 21 489 1
6 -11 3 35 409 1
5 -11 -3 75 568 1
-11 6 -3 3 295 1
6 -11 -3 21 563 1
11 -6 -3 21 512 1
5 -11 -3 27 505 1
6 -11 -3 201 486 1
-6 -5 3 888 629 1
-11 5 3 7 489 1
-6 11 3 285 484 1
-11 5 -3 75 580 1
-11 5 -4 2450 605 1
-6 -5 -4 2114 571 1
-5 -6 -4 2613 561 1
5 -11 4 2024 482 1
-6 -5 -4 1671 640 1
5 -11 4 2250 504 1
-5 -6 -4 1380 639 1
6 -11 4 3069 493 1
6 -11 4 2094 408 1
-11 5 -4 1602 407 1
5 -11 -4 2227 609 1
6 -11 -4 2652 597 1
-11 6 -4 1700 293 1
11 -6 -4 1847 523 1
5 -11 -4 2724 547 1
-11 5 4 2544 532 1
6 -11 -4 2400 522 1
-6 -5 4 1537 630 1
-6 11 4 2781 494 1
-6 -5 -5 1161 617 1
-11 5 -5 319 596 1
-5 -6 -5 243 565 1
6 -11 5 254 395 1
6 -11 5 705 465 1
-5 -6 -5 0 615 1
-6 -5 -5 412 549 1
5 -11 -5 258 629 1
6 -11 -5 874 602 1
-11 5 -5 805 385 1
5 -11 -5 615 560 1
-6 -5 5 0 651 1
5 -11 5 589 456 1
6 -11 -5 308 535 1
5 -11 5 587 487 1
11 -6 -5 176 496 1
-5 -6 -6 2917 629 1
-6 -5 -6 2750 590 1
-5 -6 -6 3362 597 1
6 -11 6 4184 489 1
6 -11 6 2673 404 1
-6 -5 -6 4545 640 1
5 -11 -6 3947 657 1
6 -11 -6 4060 634 1
-11 5 -6 2628 394 1
11 -6 -6 3726 515 1
5 -11 -6 3971 600 1
5 -11 6 3256 508 1
6 -11 -6 2783 585 1
5 -11 6 3694 468 1
5 -11 7 3143 489 1
-6 -5 -7 2345 574 1
-5 -6 -7 2243 593 1
6 -11 7 2125 470 1
-6 -5 -7 3230 681 1
-5 -6 -7 3187 661 1
5 -11 -7 2512 691 1
11 -6 -7 2253 505 1
6 -11 -7 2858 670 1
-11 5 -7 1903 407 1
-5 -6 7 2039 748 1
5 -11 -7 3004 617 1
5 -11 7 1430 463 1
6 -11 -7 2428 604 1
6 -11 7 2269 424 1
5 -11 8 2079 453 1
6 -11 8 1308 454 1
-6 -5 -8 2208 586 1
11 -6 -8 1517 496 1
-11 5 -8 1175 609 1
-5 -6 -8 1126 589 1
-6 -5 -8 1831 690 1
-5 -6 -8 1696 673 1
5 -11 -8 1735 693 1
6 -11 -8 1553 678 1
6 -11 -8 1779 635 1
5 -11 8 1383 459 1
5 -11 -8 2074 640 1
6 -11 8 1229 439 1
-11 6 -8 489 587 1
6 -11 8 1773 521 1
5 -11 9 1443 395 1
6 -11 -9 3092 668 1
6 -11 9 3198 439 1
11 -6 -9 2859 499 1
6 -11 9 3221 557 1
-6 -5 -9 2974 606 1
-5 -6 -9 2087 616 1
-11 5 -9 2623 617 1
5 -11 -9 2504 698 1
-6 -5 -9 1880 704 1
-5 -6 -9 1558 693 1
6 -11 -9 3805 700 1
5 -11 9 1814 456 1
6 -11 9 2411 431 1
5 -11 9 3011 537 1
5 -11 -9 3806 665 1
-11 6 -9 2556 623 1
5 -11 -10 0 676 1
5 -11 10 0 348 1
6 -11 10 0 422 1
5 -11 10 0 552 1
6 -11 -10 0 664 1
-6 -5 -10 609 601 1
-5 -6 -10 51 600 1
-11 5 -10 198 608 1
5 -11 -10 323 702 1
6 -11 10 0 562 1
6 -11 -10 1193 698 1
-6 -5 -10 768 704 1
-5 -6 -10 1 695 1
5 -11 10 80 410 1
6 -11 10 46 378 1
-11 6 -10 0 614 1
5 -11 11 6 313 1
6 -11 -11 4 696 1
-6 -5 -11 5 585 1
-5 -6 -11 682 617 1
5 -11 -11 1341 708 1
-11 5 -11 804 627 1
5 -11 11 716 572 1
6 -11 -11 4 725 1
-6 -5 -11 5 718 1
-5 -6 -11 5 720 1
5 -11 -11 6 719 1
6 -11 11 182 581 1
5 -11 11 501 386 1
6 -11 11 512 408 1
-11 6 -11 80 626 1
-11 6 -12 3 643 1
-11 5 -12 544 645 1
6 -11 12 436 603 1
5 -11 -12 518 738 1
-6 -5 -12 674 631 1
-5 -6 -12 245 645 1
6 -11 -12 1563 732 1
5 -11 -12 197 725 1
6 -11 -12 3 741 1
-6 -5 -12 4 741 1
-5 -6 -12 351 737 1
5 -11 12 4 599 1
5 -11 -13 685 781 1
-6 -5 -13 612 625 1
-5 -6 -13 765 653 1
6 -11 -13 1047 770 1
-11 5 -13 415 664 1
6 -11 -13 1150 761 1
-6 -5 -13 402 734 1
-5 -6 -13 891 739 1
-11 6 -13 1488 674 1
5 -11 -14 87 791 1
-6 -5 -14 82 668 1
-5 -6 -14 82 681 1
6 -11 -14 84 776 1
6 -11 -14 1205 768 1
-6 -5 -14 82 768 1
-5 -6 -14 82 791 1
5 -11 -15 35 803 1
-6 -5 -15 7 713 1
-5 -6 -15 5 736 1
6 -11 -15 405 825 1
-6 -5 -15 27 793 1
-5 -6 -15 1 800 1
5 -11 -16 1527 862 1
-5 -6 -16 114 736 1
-6 -5 -16 1364 717 1
6 -11 -16 106 862 1
-6 -5 -16 1065 830 1
-5 -6 -16 114 848 1
4 -11 0 1340 567 1
4 -11 0 1284 530 1
7 -11 0 2603 557 1
-11 7 0 2496 477 1
-11 4 0 1473 473 1
7 -11 0 2025 414 1
-11 7 0 1800 340 1
-11 4 0 2214 527 1
11 -7 0 2132 573 1
-7 -4 0 885 636 1
-11 4 0 2727 591 1
-11 7 -1 3166 299 1
-11 4 -1 3389 609 1
4 -11 1 4140 573 1
4 -11 -1 4185 605 1
4 -11 1 3494 549 1
7 -11 1 4062 550 1
11 -7 -1 3249 568 1
7 -11 -1 4206 588 1
4 -11 -1 3821 564 1
-11 7 1 4149 526 1
-11 4 1 3285 514 1
-11 4 -1 3188 476 1
7 -11 1 3662 421 1
-11 7 1 2550 317 1
-11 4 1 2327 458 1
7 -11 -1 3940 459 1
11 -7 1 3199 582 1
-7 -4 1 3361 669 1
-11 4 -1 4183 574 1
-7 -4 -1 3445 677 1
-11 4 -2 179 532 1
-11 4 -2 112 589 1
-4 -7 -2 85 580 1
-7 -4 -2 85 658 1
4 -11 2 286 536 1
4 -11 -2 375 593 1
11 -7 2 64 555 1
7 -11 2 214 495 1
-11 4 2 197 512 1
7 -11 -2 887 575 1
-11 7 2 455 518 1
4 -11 -2 460 543 1
4 -11 2 1 514 1
7 -11 2 469 359 1
-11 4 2 27 326 1
-7 -4 2 512 619 1
7 -11 -2 79 462 1
-4 -7 2 411 621 1
11 -7 -2 690 555 1
-7 -4 -3 3092 654 1
4 -11 3 4628 557 1
-11 4 -3 3745 524 1
4 -11 3 4213 567 1
-11 4 3 4587 581 1
4 -11 -3 3992 630 1
-4 -7 -3 2963 583 1
7 -11 3 5188 519 1
-11 4 -3 3252 611 1
7 -11 -3 4681 606 1
7 -11 3 3862 376 1
4 -11 -3 4533 596 1
11 -7 -3 4592 595 1
-7 -4 3 2782 640 1
-4 -7 3 4445 680 1
7 -11 -3 3459 502 1
4 -11 4 3401 541 1
-11 4 -4 2329 477 1
7 -11 4 2287 497 1
4 -11 -4 3542 642 1
7 -11 4 2394 338 1
7 -11 -4 2367 605 1
-11 4 -4 2800 610 1
-4 -7 -4 2259 575 1
-7 -4 -4 2795 647 1
11 -7 -4 2917 549 1
4 -11 -4 3631 592 1
-7 -4 4 1955 631 1
4 -11 4 2347 541 1
-4 -7 4 2703 646 1
-7 -4 -4 2247 549 1
7 -11 -4 2427 511 1
-7 -4 -5 4150 592 1
-4 -7 -5 3891 640 1
-7 -4 -5 4828 662 1
7 -11 5 5334 514 1
7 -11 5 3370 366 1
4 -11 -5 5337 667 1
-11 4 -5 4561 513 1
11 -7 -5 5344 570 1
7 -11 -5 4884 649 1
7 -11 -5 6341 597 1
-11 4 -5 5127 652 1
4 -11 5 5015 574 1
4 -11 -5 6705 632 1
-7 -4 5 3648 649 1
-4 -7 5 4102 694 1
4 -11 5 5490 594 1
4 -11 6 3061 524 1
-7 -4 -6 2162 592 1
7 -11 -6 4021 588 1
-4 -7 -6 3945 629 1
7 -11 6 2619 332 1
11 -7 -6 2835 559 1
7 -11 6 3514 502 1
-7 -4 -6 2648 642 1
4 -11 -6 5021 686 1
7 -11 -6 2913 657 1
-11 4 -6 2683 502 1
-11 4 -6 2062 651 1
4 -11 -6 3321 628 1
-7 -4 6 3022 653 1
-4 -7 6 2906 750 1
4 -11 6 3028 560 1
7 -11 7 2322 549 1
4 -11 7 1993 481 1
11 -7 -7 1930 546 1
7 -11 7 1865 343 1
-4 -7 -7 1545 610 1
7 -11 -7 3426 619 1
7 -11 7 2651 489 1
-7 -4 -7 2288 664 1
-7 -4 -7 2405 582 1
4 -11 -7 4020 680 1
-4 -7 -7 1731 669 1
7 -11 -7 3088 666 1
-11 4 -7 2746 496 1
4 -11 -7 1482 647 1
-4 -7 7 1778 754 1
4 -11 7 2245 532 1
4 -11 8 1155 435 1
7 -11 8 40 447 1
-7 -4 -8 871 557 1
-4 -7 -8 736 605 1
-7 -4 -8 44 668 1
7 -11 -8 40 624 1
7 -11 8 660 545 1
4 -11 -8 236 696 1
-4 -7 -8 1631 670 1
7 -11 -8 40 669 1
-11 4 -8 259 473 1
-4 -7 8 1636 772 1
4 -11 -8 920 636 1
4 -11 8 46 482 1
11 -7 -8 42 537 1
4 -11 9 4451 465 1
7 -11 9 7395 536 1
-7 -4 -9 6768 648 1
-4 -7 -9 6964 720 1
7 -11 -9 7190 721 1
4 -11 -9 7509 784 1
-7 -4 -9 6565 754 1
-4 -7 -9 6396 773 1
7 -11 9 6778 648 1
7 -11 -9 7527 771 1
-11 4 -9 7646 749 1
-11 4 -9 6776 564 1
4 -11 9 5694 534 1
4 -11 -9 7049 745 1
11 -7 -9 6488 605 1
-7 -4 -10 1300 593 1
-4 -7 -10 1393 648 1
7 -11 -10 366 674 1
4 -11 -10 1387 729 1
-7 -4 -10 1190 716 1
7 -11 -10 1393 716 1
-4 -7 -10 27 697 1
-11 4 -10 764 688 1
7 -11 10 1087 593 1
4 -11 10 640 444 1
11 -7 -10 789 520 1
4 -11 10 1748 569 1
4 -11 -10 1096 693 1
4 -11 11 2586 613 1
-4 -7 -11 2463 663 1
-7 -4 -11 1909 592 1
7 -11 -11 2570 734 1
4 -11 -11 1620 748 1
7 -11 -11 3821 765 1
-7 -4 -11 1877 744 1
-4 -7 -11 2685 760 1
-11 4 -11 2195 724 1
4 -11 11 1134 432 1
4 -11 -11 1838 727 1
4 -11 -12 225 724 1
-7 -4 -12 5 590 1
-4 -7 -12 376 660 1
7 -11 -12 370 752 1
7 -11 -12 7 740 1
-7 -4 -12 758 736 1
-4 -7 -12 642 725 1
-11 4 -12 4 711 1
4 -11 -13 2696 791 1
-7 -4 -13 1648 634 1
-4 -7 -13 3007 707 1
7 -11 -13 3281 788 1
7 -11 -13 2318 790 1
-7 -4 -13 2982 777 1
-4 -7 -13 2530 793 1
4 -11 -14 359 805 1
-7 -4 -14 1370 668 1
-4 -7 -14 3 724 1
7 -11 -14 1771 791 1
7 -11 -14 99 803 1
-7 -4 -14 213 788 1
-4 -7 -14 78 794 1
-7 -4 -15 2203 712 1
-4 -7 -15 1871 764 1
4 -11 -15 1306 821 1
4 -11 -15 2262 848 1
7 -11 -15 331 840 1
7 -11 -15 1408 828 1
-7 -4 -15 542 829 1
-4 -7 -15 1397 831 1
4 -11 -16 74 849 1
-4 -7 -16 77 758 1
4 -11 -16 2117 822 1
7 -11 -16 1724 872 1
7 -11 -16 510 860 1
-7 -4 -16 1826 852 1
-4 -7 -16 797 840 1
-3 -8 0 2692 627 1
8 -11 0 2512 417 1
3 -11 0 3234 603 1
-11 3 0 4234 589 1
8 -11 0 2909 550 1
3 -11 0 3530 581 1
11 -8 0 2727 605 1
-11 3 0 2105 569 1
-8 -3 0 1017 653 1
-3 -8 -1 6352 695 1
3 -11 1 8775 666 1
-11 3 1 7326 638 1
3 -11 1 7578 638 1
11 -8 -1 8188 677 1
3 -11 -1 7001 655 1
-3 -8 -1 7455 690 1
3 -11 -1 7695 676 1
8 -11 1 8804 625 1
8 -11 1 7987 467 1
8 -11 -1 9697 662 1
-11 3 -1 7498 681 1
8 -11 -1 8953 530 1
11 -8 1 7598 684 1
-11 3 1 6033 559 1
-8 -3 1 8276 721 1
-11 3 -1 7360 685 1
-8 -3 -1 7336 755 1
-3 -8 1 7511 701 1
-11 3 -2 873 605 1
11 -8 -2 5 594 1
-8 -3 -2 1385 660 1
-3 -8 -2 199 570 1
-3 -8 -2 174 621 1
3 -11 2 1112 565 1
8 -11 -2 942 464 1
3 -11 -2 1160 630 1
11 -8 2 137 574 1
3 -11 2 942 588 1
-11 8 2 865 534 1
3 -11 -2 1 578 1
8 -11 2 402 529 1
8 -11 -2 6 579 1
-11 3 -2 413 607 1
-11 3 2 2 377 1
-8 -3 2 284 612 1
-3 -8 2 3 639 1
8 -11 2 368 339 1
-11 3 2 162 547 1
-8 -3 -3 3058 669 1
-3 -8 -3 3085 644 1
3 -11 3 3042 611 1
-3 -8 -3 2960 648 1
3 -11 -3 3509 649 1
-11 3 -3 1971 594 1
8 -11 -3 3395 504 1
8 -11 3 3149 548 1
3 -11 -3 3841 605 1
8 -11 -3 3495 616 1
-11 3 -3 2938 645 1
11 -8 3 2627 598 1
-8 -3 3 2306 590 1
3 -11 3 3321 592 1
11 -8 -3 1938 603 1
8 -11 3 2008 309 1
-3 -8 3 2418 641 1
3 -11 4 1237 584 1
11 -8 4 764 578 1
3 -11 4 2643 585 1
-3 -8 -4 48 606 1
-8 -3 -4 2900 652 1
-11 3 -4 924 559 1
-3 -8 -4 1747 652 1
3 -11 -4 1453 629 1
8 -11 -4 1288 519 1
8 -11 4 1412 506 1
8 -11 -4 1192 607 1
3 -11 -4 1352 590 1
11 -8 -4 805 573 1
-8 -3 4 699 596 1
-11 3 -4 370 636 1
-3 -8 4 1779 648 1
3 -11 5 1858 552 1
-8 -3 -5 2567 566 1
-3 -8 -5 2248 619 1
-8 -3 -5 2648 646 1
3 -11 -5 2603 673 1
-11 3 -5 1483 580 1
8 -11 -5 2712 567 1
8 -11 5 3576 505 1
8 -11 -5 2499 639 1
3 -11 -5 1626 626 1
11 -8 -5 1915 570 1
-8 -3 5 2509 605 1
-3 -8 5 2339 690 1
-11 3 -5 2452 678 1
3 -11 5 1918 593 1
8 -11 5 2447 548 1
-11 3 -6 193 361 1
3 -11 6 212 516 1
-8 -3 -6 82 536 1
8 -11 6 40 562 1
-8 -3 -6 168 628 1
3 -11 -6 1323 666 1
8 -11 6 905 486 1
8 -11 -6 773 593 1
-11 3 -6 527 560 1
8 -11 -6 2029 657 1
11 -8 -6 357 549 1
3 -11 -6 1107 642 1
-3 -8 -6 762 619 1
-3 -8 6 1049 702 1
3 -11 6 824 608 1
-11 3 -6 498 688 1
3 -11 7 1275 488 1
-8 -3 -7 962 569 1
-3 -8 -7 1917 633 1
8 -11 7 2151 503 1
3 -11 -7 1043 689 1
-8 -3 -7 1000 672 1
8 -11 -7 1436 633 1
-11 3 -7 1660 578 1
8 -11 -7 1403 676 1
11 -8 -7 1534 571 1
3 -11 -7 2100 663 1
-3 -8 7 656 772 1
-8 -3 7 2055 434 1
3 -11 7 2138 604 1
-11 3 -7 2204 753 1
-8 -3 -8 1120 557 1
-3 -8 -8 92 649 1
3 -11 -8 1388 682 1
-8 -3 -8 1321 688 1
11 -8 -8 175 555 1
8 -11 -8 798 658 1
8 -11 -8 755 677 1
-11 3 -8 590 577 1
3 -11 -8 6 665 1
-3 -8 8 727 795 1
3 -11 8 895 595 1
-8 -3 -9 4246 617 1
-3 -8 -9 4400 719 1
3 -11 -9 4201 767 1
11 -8 -9 4310 611 1
-8 -3 -9 4417 737 1
8 -11 -9 5143 719 1
8 -11 -9 5711 745 1
-11 3 -9 4756 648 1
-3 -8 9 5529 887 1
3 -11 -9 4805 741 1
3 -11 9 4181 619 1
-11 3 -10 416 790 1
11 -8 -10 608 559 1
-8 -3 -10 1252 584 1
-8 -3 -10 192 722 1
8 -11 -10 839 724 1
8 -11 -10 1524 737 1
-11 3 -10 1856 610 1
3 -11 10 323 557 1
3 -11 -10 1188 720 1
-3 -8 -10 1578 686 1
-11 3 -11 3657 810 1
-8 -3 -11 3937 610 1
-3 -8 -11 2130 716 1
8 -11 -11 4166 797 1
-8 -3 -11 4144 789 1
8 -11 -11 4258 765 1
3 -11 11 3554 562 1
-11 3 -11 3263 626 1
3 -11 -11 4104 756 1
-11 3 -12 402 786 1
-8 -3 -12 510 596 1
-3 -8 -12 138 689 1
8 -11 -12 83 787 1
8 -11 -12 344 759 1
-8 -3 -12 1441 769 1
3 -11 12 1437 516 1
3 -11 -12 251 735 1
-8 -3 -13 1885 630 1
-3 -8 -13 2950 734 1
3 -11 -13 2057 783 1
8 -11 -13 1416 817 1
8 -11 -13 1834 809 1
-8 -3 -13 2063 796 1
-3 -8 -13 2772 784 1
3 -11 -13 791 791 1
3 -11 -14 0 811 1
-3 -8 -14 324 755 1
3 -11 -14 566 791 1
8 -11 -14 0 830 1
8 -11 -14 1250 838 1
-8 -3 -14 2039 827 1
-3 -8 -14 749 800 1
3 -11 -15 393 856 1
-3 -8 -15 3003 788 1
3 -11 -15 2140 795 1
8 -11 -15 1299 855 1
8 -11 -15 559 852 1
-8 -3 -15 1527 844 1
-3 -8 -15 2425 832 1
-2 -9 0 1469 630 1
2 -11 0 1790 637 1
2 -11 0 1575 604 1
9 -11 0 1974 570 1
9 -11 0 1452 304 1
11 -9 0 2017 640 1
-11 2 0 1753 615 1
-9 -2 0 1142 670 1
-2 -9 1 1697 633 1
-2 -9 -1 839 631 1
2 -11 1 1028 647 1
2 -11 1 267 607 1
2 -11 -1 316 639 1
-2 -9 1 1659 642 1
2 -11 -1 532 584 1
9 -11 1 1297 551 1
9 -11 -1 1049 601 1
-11 2 1 1370 566 1
9 -11 -1 926 399 1
11 -9 -1 774 629 1
-11 2 1 340 521 1
-11 2 -1 1302 599 1
-9 -2 1 562 626 1
11 -9 1 1216 646 1
-11 2 -1 333 649 1
-9 -2 -1 705 679 1
-11 2 -2 4654 703 1
-9 -2 -2 1954 718 1
-11 2 -2 3751 660 1
2 -11 2 5681 623 1
2 -11 2 3672 646 1
-2 -9 -2 3213 646 1
2 -11 -2 4574 674 1
2 -11 -2 3721 627 1
-11 2 2 4600 596 1
9 -11 2 4956 552 1
9 -11 -2 5433 629 1
11 -9 -2 3716 651 1
9 -11 -2 3526 477 1
-11 2 2 2691 457 1
-9 -2 2 3909 631 1
-2 -9 2 2968 652 1
2 -11 3 54 616 1
-9 -2 -3 570 674 1
-2 -9 -3 533 657 1
-11 2 -3 402 648 1
-11 2 3 0 531 1
-2 -9 -3 98 622 1
2 -11 -3 303 642 1
-11 2 -3 634 655 1
2 -11 -3 95 612 1
9 -11 3 100 507 1
11 -9 -3 67 618 1
9 -11 -3 101 628 1
9 -11 -3 443 513 1
-11 2 3 96 361 1
-9 -2 3 97 549 1
2 -11 3 96 605 1
-2 -9 3 99 634 1
2 -11 4 188 590 1
-9 -2 4 213 411 1
-9 -2 -4 181 677 1
-2 -9 -4 431 633 1
-11 2 -4 591 620 1
-2 -9 -4 14 610 1
11 -9 -4 1021 621 1
2 -11 -4 181 613 1
-11 2 -4 594 691 1
9 -11 4 943 501 1
2 -11 -4 760 671 1
9 -11 -4 440 628 1
9 -11 -4 11 541 1
-9 -2 4 355 528 1
-2 -9 4 14 648 1
-11 2 4 11 522 1
2 -11 4 103 615 1
-9 -2 -5 867 561 1
2 -11 5 1073 593 1
-2 -9 -5 122 639 1
-9 -2 -5 1041 669 1
2 -11 -5 314 681 1
-11 2 -5 1449 625 1
11 -9 -5 123 597 1
-2 -9 -5 942 628 1
9 -11 5 597 482 1
2 -11 -5 117 635 1
9 -11 -5 124 649 1
-11 2 -5 588 718 1
9 -11 -5 124 581 1
-9 -2 5 892 448 1
-9 -2 5 874 505 1
-2 -9 5 121 672 1
2 -11 5 757 615 1
2 -11 6 257 524 1
-11 2 -6 0 420 1
-9 -2 -6 700 533 1
-2 -9 -6 1206 641 1
11 -9 -6 0 599 1
-9 -2 -6 809 653 1
2 -11 -6 735 663 1
-11 2 -6 16 627 1
-2 -9 -6 40 658 1
2 -11 -6 117 647 1
9 -11 -6 304 657 1
9 -11 -6 322 607 1
-11 2 -6 0 778 1
-9 -2 6 641 470 1
-2 -9 6 0 707 1
2 -11 6 40 633 1
-9 -2 -7 272 555 1
-2 -9 -7 50 654 1
2 -11 -7 967 678 1
-9 -2 -7 50 679 1
-11 2 -7 588 629 1
-2 -9 -7 343 673 1
9 -11 -7 41 682 1
2 -11 -7 1 668 1
9 -11 -7 41 647 1
-11 2 -7 44 824 1
-2 -9 7 163 749 1
11 -9 -7 42 595 1
2 -11 7 45 646 1
-9 -2 7 135 460 1
11 -9 -8 551 619 1
-9 -2 -8 598 553 1
-2 -9 -8 1044 698 1
-9 -2 -8 1628 714 1
-2 -9 -8 1280 690 1
-11 2 -8 750 645 1
9 -11 -8 1287 715 1
2 -11 -8 893 681 1
9 -11 -8 1633 696 1
-2 -9 8 1187 811 1
-11 2 -8 1453 845 1
2 -11 8 272 663 1
11 -9 -9 438 626 1
-9 -2 -9 54 555 1
-2 -9 -9 83 689 1
-9 -2 -9 17 733 1
-2 -9 -9 418 724 1
9 -11 -9 15 735 1
-11 2 -9 16 664 1
2 -11 -9 419 724 1
9 -11 -9 217 697 1
-2 -9 9 497 853 1
2 -11 9 524 654 1
-9 -2 -10 2162 583 1
-2 -9 -10 1917 712 1
-9 -2 -10 1598 769 1
9 -11 -10 1811 752 1
-2 -9 -10 1966 763 1
-11 2 -10 1729 682 1
9 -11 -10 285 753 1
2 -11 -10 557 741 1
-2 -9 10 243 887 1
2 -11 10 761 651 1
11 -9 -10 1996 635 1
-9 -2 -11 2 573 1
-2 -9 -11 510 725 1
2 -11 -11 3 762 1
-9 -2 -11 345 758 1
9 -11 -11 2 783 1
-11 2 -11 328 693 1
9 -11 -11 965 761 1
2 -11 11 181 652 1
2 -11 -11 2 771 1
-11 2 -11 122 855 1
-2 -9 -12 6 724 1
2 -11 -12 1984 751 1
9 -11 -12 786 801 1
-9 -2 -12 2572 812 1
2 -11 12 1537 641 1
9 -11 -12 2818 810 1
-11 2 -12 45 696 1
2 -11 -12 1053 785 1
-2 -9 -13 37 751 1
2 -11 -13 452 768 1
9 -11 -13 738 826 1
-9 -2 -13 135 797 1
9 -11 -13 96 829 1
2 -11 -13 558 811 1
-2 -9 -14 604 772 1
2 -11 -14 372 784 1
9 -11 -14 123 846 1
-9 -2 -14 1600 845 1
9 -11 -14 536 872 1
2 -11 -14 1199 825 1
2 -11 -15 174 850 1
-2 -9 -15 25 804 1
2 -11 -15 31 821 1
9 -11 -15 24 892 1
-9 -2 -15 222 858 1
9 -11 -15 427 890 1
-1 -10 0 4478 708 1
1 -11 0 5389 743 1
1 -11 0 4697 690 1
-1 -10 0 4719 694 1
10 -11 0 6047 643 1
-11 1 0 3591 683 1
-10 -1 0 3279 717 1
-1 -10 1 847 649 1
-1 -10 1 828 676 1
-1 -10 -1 1 665 1
1 -11 -1 329 667 1
-1 -10 -1 750 639 1
1 -11 1 872 644 1
1 -11 1 2 688 1
1 -11 -1 44 633 1
-10 -1 1 1234 469 1
-11 1 -1 823 598 1
10 -11 1 348 551 1
10 -11 -1 610 612 1
11 -10 -1 340 551 1
-11 1 1 631 550 1
-10 -1 1 1 612 1
-11 1 -1 2 706 1
-10 -1 -1 831 715 1
-11 1 1 1013 572 1
-1 -10 2 2141 672 1
-10 -1 2 2338 489 1
-11 1 -2 2933 737 1
-10 -1 -2 1582 755 1
1 -11 2 2627 677 1
-1 -10 2 2014 699 1
1 -11 -2 1544 674 1
-1 -10 -2 1174 660 1
1 -11 2 1372 651 1
1 -11 -2 2154 628 1
10 -11 2 3346 549 1
10 -11 -2 3699 640 1
11 -10 -2 2620 597 1
-11 1 -2 1962 640 1
-11 1 2 1881 570 1
-11 1 2 918 483 1
-10 -1 2 1168 583 1
1 -11 3 238 650 1
1 -11 3 867 646 1
-10 -1 -3 8 707 1
10 -11 -3 11 422 1
-10 -1 3 9 472 1
1 -11 -3 8 667 1
-1 -10 -3 8 629 1
1 -11 -3 423 638 1
-11 1 -3 8 713 1
10 -11 3 209 499 1
-11 1 3 951 555 1
10 -11 -3 8 640 1
11 -10 -3 752 618 1
-11 1 3 27 405 1
-10 -1 3 9 506 1
-1 -10 3 163 657 1
-11 1 -3 270 649 1
10 -11 -4 1368 506 1
1 -11 4 416 638 1
-10 -1 -4 475 729 1
-11 1 -4 1075 707 1
1 -11 -4 1293 690 1
-11 1 -4 366 686 1
-1 -10 -4 435 641 1
-11 1 4 225 535 1
1 -11 -4 1177 666 1
10 -11 4 678 466 1
10 -11 -4 706 664 1
-10 -1 4 6 505 1
11 -10 -4 264 645 1
-11 1 4 481 359 1
-10 -1 4 294 474 1
-1 -10 4 1569 682 1
1 -11 4 333 671 1
-10 -1 5 118 512 1
-10 -1 -5 117 554 1
1 -11 5 39 600 1
-11 1 5 117 523 1
-10 -1 -5 345 710 1
1 -11 -5 22 706 1
-11 1 -5 117 700 1
-1 -10 -5 32 668 1
1 -11 -5 115 659 1
-11 1 -5 117 727 1
10 -11 -5 116 676 1
11 -10 -5 116 660 1
-10 -1 5 118 450 1
-1 -10 5 118 693 1
1 -11 5 118 652 1
10 -11 -5 116 562 1
-11 1 -6 714 500 1
-10 -1 -6 2 545 1
-1 -10 -6 1070 673 1
-10 -1 -6 1501 699 1
-11 1 -6 871 691 1
-1 -10 -6 1376 685 1
1 -11 -6 4 699 1
10 -11 -6 144 693 1
11 -10 -6 1 687 1
-11 1 -6 4 742 1
-10 -1 6 354 485 1
-1 -10 6 874 734 1
1 -11 6 936 682 1
10 -11 -6 1 618 1
-11 1 -7 282 476 1
-10 -1 -7 176 548 1
-1 -10 -7 0 699 1
-10 -1 -7 77 727 1
-11 1 -7 0 723 1
-1 -10 -7 258 688 1
1 -11 -7 313 689 1
10 -11 -7 14 712 1
11 -10 -7 285 707 1
-11 1 -7 1397 819 1
-1 -10 7 0 762 1
1 -11 7 0 699 1
10 -11 -7 0 653 1
-10 -1 -8 1367 551 1
-1 -10 -8 940 726 1
-10 -1 -8 894 745 1
-11 1 -8 132 728 1
-1 -10 -8 983 732 1
1 -11 -8 869 736 1
10 -11 -8 1493 741 1
11 -10 -8 1180 739 1
-1 -10 8 112 790 1
1 -11 8 591 727 1
10 -11 -8 15 693 1
-11 1 -8 73 873 1
-10 -1 -9 8 548 1
-1 -10 -9 708 711 1
-10 -1 -9 8 774 1
-11 1 -9 1045 734 1
-1 -10 -9 8 723 1
10 -11 -9 6 763 1
1 -11 -9 271 734 1
11 -10 -9 8 750 1
-1 -10 9 8 838 1
1 -11 9 43 715 1
10 -11 -9 1046 730 1
-1 -10 -10 535 724 1
1 -11 -10 2035 769 1
-10 -1 -10 1570 796 1
-11 1 -10 1605 756 1
-1 -10 -10 1798 779 1
10 -11 -10 1273 807 1
11 -10 -10 1404 804 1
1 -11 -10 803 751 1
-1 -10 10 1335 874 1
1 -11 10 1536 733 1
10 -11 -10 2329 785 1
-1 -10 -11 44 736 1
1 -11 -11 247 745 1
-10 -1 -11 153 787 1
10 -11 -11 448 788 1
-1 -10 -11 101 778 1
-11 1 -11 875 757 1
11 -10 -11 49 825 1
1 -11 -11 45 791 1
-1 -10 11 332 903 1
1 -11 11 44 736 1
10 -11 -11 650 811 1
-1 -10 -12 2866 803 1
1 -11 -12 2923 833 1
10 -11 -12 2067 834 1
-10 -1 -12 3344 861 1
11 -10 -12 1919 879 1
-1 -10 -12 2487 832 1
-11 1 -12 4055 815 1
-1 -10 12 2877 969 1
1 -11 12 1209 784 1
1 -11 -12 2489 845 1
10 -11 -12 2658 859 1
-1 -10 -13 356 800 1
1 -11 -13 2066 822 1
10 -11 -13 99 870 1
-10 -1 -13 442 843 1
1 -11 13 72 774 1
-1 -10 -13 2 841 1
-11 1 -13 2 802 1
1 -11 -13 2 821 1
10 -11 -13 1 850 1
10 -11 -14 1393 901 1
-1 -10 -14 457 827 1
1 -11 -14 1805 831 1
10 -11 -14 1649 924 1
-10 -1 -14 213 889 1
-1 -10 -14 538 857 1
1 -11 -14 1276 869 1
0 -11 0 5406 753 1
0 -11 0 2820 687 1
11 -11 0 4051 599 1
-11 0 0 2991 701 1
-11 0 0 3268 561 1
0 -11 1 3785 773 1
0 -11 1 2733 708 1
0 -11 -1 4914 794 1
0 -11 -1 4230 724 1
-11 0 -1 4026 607 1
11 -11 -1 6171 665 1
11 -11 1 4654 607 1
-11 0 1 5014 599 1
-11 0 1 3830 666 1
-11 0 -1 4208 797 1
-11 0 -2 1250 771 1
0 -11 2 778 687 1
0 -11 2 21 704 1
0 -11 -2 342 713 1
0 -11 -2 1202 676 1
-11 0 2 204 539 1
11 -11 -2 295 634 1
11 -11 2 523 521 1
-11 0 2 471 535 1
-11 0 -2 1242 573 1
0 -11 3 6094 756 1
0 -11 3 7491 771 1
-11 0 -3 5665 848 1
0 -11 -3 5434 773 1
0 -11 -3 5258 729 1
-11 0 -3 5413 657 1
11 -11 -3 7857 741 1
-11 0 3 3591 529 1
-11 0 3 6754 620 1
-11 0 -4 1643 632 1
-11 0 -4 1731 785 1
0 -11 -4 1964 716 1
0 -11 4 1387 699 1
11 -11 -4 2023 683 1
-11 0 4 2435 558 1
-11 0 4 627 418 1
0 -11 4 1379 725 1
-11 0 -5 400 767 1
0 -11 -5 460 694 1
-11 0 5 78 534 1
11 -11 -5 1043 697 1
-11 0 5 784 377 1
-11 0 -5 217 656 1
0 -11 5 1285 723 1
-11 0 -6 1 560 1
-11 0 6 876 516 1
-11 0 -6 710 755 1
-11 0 -6 346 690 1
0 -11 -6 284 693 1
11 -11 -6 3 724 1
0 -11 6 759 750 1
-11 0 -7 2981 586 1
-11 0 -7 2128 744 1
-11 0 -7 4097 801 1
0 -11 -7 2254 750 1
11 -11 -7 3803 794 1
0 -11 7 3168 792 1
11 -11 -8 1243 685 1
0 -11 -8 541 747 1
-11 0 -8 434 755 1
0 -11 -8 515 762 1
11 -11 -8 28 784 1
-11 0 -8 24 744 1
0 -11 8 24 798 1
11 -11 -9 2091 750 1
0 -11 -9 2610 765 1
-11 0 -9 3026 815 1
0 -11 -9 2577 796 1
11 -11 -9 2674 833 1
0 -11 9 2642 810 1
11 -11 -10 1157 801 1
0 -11 -10 1281 785 1
-11 0 -10 736 813 1
0 -11 -10 1209 795 1
11 -11 -10 240 860 1
0 -11 10 1 818 1
11 -11 -11 4514 864 1
0 -11 -11 4233 842 1
-11 0 -11 5389 906 1
11 -11 -11 3067 915 1
0 -11 -11 3584 858 1
0 -11 11 3295 921 1
11 -11 -12 1228 885 1
0 -11 -12 360 831 1
11 -11 -12 2285 895 1
-11 0 -12 3083 883 1
0 -11 -12 1054 836 1
0 -11 12 334 898 1
11 -11 -13 3210 929 1
0 -11 -13 3231 867 1
11 -11 -13 2358 944 1
-11 0 -13 3478 914 1
0 -11 13 1905 928 1
0 -11 -13 2625 885 1
6 -12 0 310 557 1
6 -12 0 177 483 1
-12 6 0 5 421 1
-6 -6 0 141 682 1
-6 -6 -2 36 684 1
6 -12 2 580 550 1
6 -12 -2 684 599 1
6 -12 2 44 452 1
6 -12 -2 40 513 1
-12 6 2 40 262 1
-6 -6 2 236 667 1
-6 -6 -4 555 579 1
-6 -6 -4 702 692 1
6 -12 4 1017 542 1
6 -12 4 883 459 1
6 -12 -4 999 645 1
6 -12 -4 764 550 1
6 -12 6 1850 472 1
-6 -6 -6 1446 614 1
6 -12 6 1741 557 1
-6 -6 -6 1604 710 1
6 -12 -6 1273 715 1
6 -12 -6 2302 626 1
6 -12 8 769 521 1
-6 -6 -8 1260 631 1
-6 -6 -8 1127 716 1
6 -12 -8 1574 709 1
6 -12 8 328 432 1
6 -12 -8 964 656 1
6 -12 -10 25 711 1
6 -12 10 24 430 1
-6 -6 -10 20 646 1
6 -12 -10 1578 738 1
-6 -6 -10 619 723 1
-12 6 -10 150 653 1
6 -12 -12 34 741 1
-6 -6 -12 112 672 1
6 -12 -12 125 758 1
-6 -6 -12 15 770 1
6 -12 -14 93 820 1
-6 -6 -14 1253 710 1
6 -12 -14 794 840 1
-6 -6 -14 1 813 1
5 -12 0 4 585 1
7 -12 0 593 568 1
5 -12 0 138 532 1
7 -12 0 442 436 1
-12 5 0 7 472 1
-7 -5 0 3 686 1
-7 -5 -1 1347 708 1
5 -12 1 1106 584 1
5 -12 -1 1518 599 1
5 -12 1 651 549 1
7 -12 -1 876 583 1
5 -12 -1 1047 543 1
7 -12 1 1263 429 1
7 -12 -1 1476 475 1
7 -12 1 1019 546 1
-12 7 1 1069 312 1
-12 5 1 807 403 1
-7 -5 1 1019 693 1
-12 5 -1 337 509 1
-5 -7 -2 329 599 1
-7 -5 -2 1738 716 1
-12 5 -2 926 488 1
5 -12 2 406 569 1
12 -7 -2 1429 562 1
5 -12 -2 1758 608 1
5 -12 2 1499 537 1
7 -12 2 3168 559 1
7 -12 -2 486 616 1
5 -12 -2 884 557 1
7 -12 2 1822 422 1
-12 5 2 1175 314 1
7 -12 -2 1647 499 1
-7 -5 2 1667 693 1
-5 -7 -3 1999 618 1
-7 -5 -3 1631 706 1
5 -12 3 1663 571 1
-12 5 -3 1161 465 1
5 -12 3 2078 543 1
7 -12 3 2397 548 1
5 -12 -3 2383 641 1
7 -12 -3 1135 629 1
7 -12 3 1821 414 1
5 -12 -3 3440 600 1
-7 -5 -3 1217 589 1
7 -12 -3 2235 530 1
-7 -5 3 1478 698 1
-12 5 -3 2690 640 1
12 -7 -3 1625 576 1
-12 5 -4 130 664 1
-7 -5 -4 402 601 1
-5 -7 -4 331 613 1
5 -12 4 5 547 1
-7 -5 -4 923 690 1
5 -12 4 5 565 1
-5 -7 -4 1579 692 1
7 -12 4 10 541 1
-12 5 -4 393 446 1
5 -12 -4 185 620 1
7 -12 4 163 384 1
12 -7 -4 35 548 1
7 -12 -4 218 644 1
5 -12 -4 993 586 1
-7 -5 4 9 670 1
7 -12 -4 130 519 1
5 -12 5 4764 568 1
-12 5 -5 3792 698 1
-5 -7 -5 3044 659 1
5 -12 5 3605 580 1
-7 -5 -5 1989 720 1
7 -12 5 3878 571 1
-5 -7 -5 3094 731 1
5 -12 -5 3463 697 1
-7 -5 -5 2539 624 1
7 -12 -5 3927 684 1
5 -12 -5 4314 635 1
-7 -5 5 4171 734 1
-5 -7 5 3224 753 1
12 -7 -5 2797 585 1
7 -12 -5 4365 592 1
7 -12 -6 225 572 1
5 -12 6 816 543 1
5 -12 6 15 543 1
-7 -5 -6 2 608 1
-5 -7 -6 318 630 1
-12 5 -6 44 649 1
7 -12 6 361 554 1
-7 -5 -6 571 667 1
-5 -7 -6 552 670 1
5 -12 -6 3 684 1
7 -12 -6 2 683 1
12 -7 -6 3 536 1
5 -12 -6 3 631 1
-7 -5 6 718 732 1
-5 -7 6 886 766 1
7 -12 -7 922 625 1
5 -12 7 1016 523 1
-7 -5 -7 1289 623 1
-5 -7 -7 1330 650 1
7 -12 7 1607 561 1
-7 -5 -7 1148 713 1
-5 -7 -7 1464 718 1
5 -12 -7 2123 734 1
12 -7 -7 665 534 1
7 -12 -7 207 699 1
-7 -5 7 1341 759 1
-5 -7 7 1334 819 1
5 -12 -7 1593 661 1
5 -12 7 1367 516 1
5 -12 8 3265 516 1
7 -12 -8 3619 686 1
-7 -5 -8 4226 662 1
7 -12 8 4265 583 1
12 -7 -8 3650 561 1
-5 -7 -8 3336 676 1
-7 -5 -8 1823 762 1
5 -12 -8 3824 771 1
-5 -7 -8 3107 748 1
7 -12 -8 4038 733 1
-5 -7 8 3538 900 1
5 -12 -8 4216 703 1
5 -12 8 2499 503 1
5 -12 9 669 421 1
-7 -5 -9 454 621 1
7 -12 -9 401 664 1
-5 -7 -9 1123 668 1
-12 5 -9 14 696 1
5 -12 -9 1026 738 1
-7 -5 -9 1181 750 1
-5 -7 -9 1066 720 1
7 -12 -9 826 736 1
-5 -7 9 784 918 1
5 -12 9 741 445 1
5 -12 -9 13 687 1
5 -12 10 274 363 1
-7 -5 -10 1078 635 1
-5 -7 -10 66 695 1
7 -12 -10 748 692 1
-12 5 -10 854 694 1
5 -12 -10 640 762 1
-7 -5 -10 799 745 1
7 -12 -10 633 742 1
-5 -7 -10 350 762 1
5 -12 10 688 405 1
5 -12 -10 656 706 1
5 -12 10 447 622 1
5 -12 -11 593 733 1
5 -12 11 157 314 1
-7 -5 -11 258 637 1
-5 -7 -11 923 682 1
7 -12 -11 1492 724 1
5 -12 -11 2 750 1
7 -12 -11 124 779 1
-7 -5 -11 1676 754 1
-5 -7 -11 887 771 1
5 -12 -12 1328 782 1
-7 -5 -12 15 646 1
-5 -7 -12 477 695 1
7 -12 -12 13 749 1
5 -12 -12 271 791 1
7 -12 -12 465 785 1
-7 -5 -12 15 796 1
-5 -7 -12 14 790 1
5 -12 -13 1727 818 1
-7 -5 -13 1096 671 1
-5 -7 -13 1085 702 1
7 -12 -13 1336 785 1
5 -12 -13 1 806 1
7 -12 -13 1786 831 1
-7 -5 -13 1367 814 1
-5 -7 -13 1423 808 1
5 -12 -14 85 821 1
-7 -5 -14 237 704 1
-5 -7 -14 229 743 1
7 -12 -14 72 815 1
7 -12 -14 2 839 1
-7 -5 -14 456 830 1
-5 -7 -14 594 845 1
-4 -8 0 4168 751 1
4 -12 0 6691 697 1
4 -12 0 5757 668 1
8 -12 0 6524 659 1
-12 4 0 4881 613 1
8 -12 0 6231 527 1
-12 4 0 4918 686 1
-8 -4 0 5225 772 1
-4 -8 -1 8 654 1
-12 4 -1 7 636 1
-4 -8 -1 153 668 1
4 -12 1 1032 607 1
4 -12 -1 902 642 1
4 -12 1 433 567 1
8 -12 1 723 603 1
4 -12 -1 1571 591 1
12 -8 -1 560 600 1
8 -12 -1 1463 621 1
-12 4 1 652 451 1
8 -12 1 382 421 1
-8 -4 1 8 694 1
-12 4 -1 947 591 1
8 -12 -1 6 477 1
-4 -8 1 8 699 1
-8 -4 -1 500 705 1
12 -8 -2 5299 652 1
8 -12 -2 5986 553 1
-8 -4 -2 4999 764 1
-12 4 -2 3517 626 1
4 -12 2 4353 642 1
-12 4 -2 5161 697 1
4 -12 2 4178 627 1
4 -12 -2 5290 690 1
8 -12 2 5757 618 1
8 -12 -2 6803 663 1
4 -12 -2 5427 643 1
-4 -8 -2 3863 657 1
-12 4 2 2537 389 1
-8 -4 2 3205 717 1
-4 -8 2 3326 715 1
-4 -8 -3 60 607 1
8 -12 -3 565 536 1
-12 4 -3 22 560 1
4 -12 3 161 599 1
-12 4 -3 22 650 1
4 -12 -3 343 644 1
8 -12 3 243 546 1
4 -12 3 129 591 1
8 -12 -3 491 631 1
4 -12 -3 38 611 1
-12 4 3 23 275 1
12 -8 -3 25 602 1
-8 -4 -3 33 713 1
-8 -4 3 32 668 1
-4 -8 3 33 685 1
-8 -4 -4 3387 641 1
4 -12 4 3862 648 1
-4 -8 -4 3752 695 1
4 -12 4 4267 644 1
8 -12 -4 4554 600 1
-8 -4 -4 3300 763 1
-12 4 -4 3113 577 1
4 -12 -4 4537 715 1
8 -12 4 4424 612 1
-12 4 -4 4133 712 1
8 -12 -4 4930 693 1
4 -12 -4 3833 681 1
12 -8 -4 3688 628 1
-8 -4 4 2416 685 1
-4 -8 4 2574 754 1
4 -12 5 277 595 1
4 -12 5 202 568 1
-4 -8 -5 4 631 1
-8 -4 -5 321 699 1
8 -12 -5 130 580 1
4 -12 -5 712 684 1
8 -12 5 282 546 1
-12 4 -5 3 536 1
-8 -4 -5 4 585 1
12 -8 -5 5 579 1
-12 4 -5 3 680 1
8 -12 -5 119 658 1
4 -12 -5 3 657 1
-8 -4 5 4 650 1
-4 -8 5 4 743 1
4 -12 6 1921 558 1
-4 -8 -6 2535 675 1
8 -12 -6 2204 599 1
-8 -4 -6 1908 697 1
8 -12 6 2635 585 1
12 -8 -6 2390 602 1
4 -12 -6 2779 727 1
-12 4 -6 2283 540 1
8 -12 -6 3395 703 1
-12 4 -6 1156 698 1
-8 -4 -6 3091 638 1
4 -12 -6 3279 672 1
-8 -4 6 1529 691 1
-4 -8 6 1907 789 1
4 -12 6 2649 627 1
4 -12 7 433 498 1
-8 -4 -7 424 618 1
-4 -8 -7 1214 671 1
12 -8 -7 4 594 1
8 -12 7 48 582 1
8 -12 -7 5 622 1
-8 -4 -7 354 719 1
4 -12 -7 407 714 1
8 -12 -7 659 713 1
-12 4 -7 1026 725 1
4 -12 -7 363 693 1
-8 -4 7 718 698 1
-4 -8 7 1139 844 1
4 -12 7 670 596 1
4 -12 8 5251 546 1
12 -8 -8 8446 685 1
-8 -4 -8 6775 710 1
-4 -8 -8 8582 782 1
8 -12 -8 7469 739 1
4 -12 -8 6965 820 1
-8 -4 -8 6330 832 1
8 -12 -8 8205 812 1
4 -12 -8 8107 794 1
-4 -8 8 6836 985 1
4 -12 8 6591 665 1
12 -8 -9 187 583 1
4 -12 9 3 398 1
-8 -4 -9 2 613 1
-4 -8 -9 3 695 1
4 -12 -9 4 766 1
8 -12 -9 3 698 1
-8 -4 -9 2 751 1
-4 -8 -9 3 722 1
8 -12 -9 3 738 1
-4 -8 9 3 927 1
4 -12 -9 4 726 1
4 -12 9 417 520 1
-8 -4 -10 3738 679 1
-4 -8 -10 4246 729 1
4 -12 -10 4233 800 1
8 -12 -10 4846 763 1
-8 -4 -10 5175 815 1
8 -12 -10 4626 784 1
-4 -8 -10 1696 751 1
-12 4 -10 4242 802 1
-4 -8 10 4255 998 1
4 -12 10 3920 516 1
4 -12 -10 3577 786 1
4 -12 10 1683 379 1
-8 -4 -11 407 633 1
-4 -8 -11 89 711 1
4 -12 -11 75 751 1
8 -12 -11 42 720 1
8 -12 -11 70 775 1
-8 -4 -11 42 786 1
-4 -8 -11 909 790 1
4 -12 11 40 444 1
4 -12 -11 39 753 1
-8 -4 -12 2075 660 1
-4 -8 -12 1865 742 1
8 -12 -12 2029 779 1
8 -12 -12 1992 808 1
-8 -4 -12 3280 844 1
-4 -8 -12 2352 794 1
4 -12 12 703 423 1
4 -12 -12 1195 798 1
4 -12 -13 13 799 1
-8 -4 -13 11 674 1
-4 -8 -13 11 744 1
8 -12 -13 14 867 1
8 -12 -13 14 796 1
-8 -4 -13 1058 808 1
-4 -8 -13 183 800 1
-4 -8 -14 2479 780 1
8 -12 -14 2133 892 1
8 -12 -14 2552 869 1
-8 -4 -14 1997 863 1
-4 -8 -14 2603 861 1
4 -12 -14 1039 872 1
-3 -9 0 1334 670 1
3 -12 0 1224 677 1
-12 3 0 1695 625 1
3 -12 0 52 627 1
9 -12 0 96 618 1
-12 3 0 1470 599 1
-9 -3 0 972 695 1
-3 -9 1 2873 718 1
-12 3 1 4340 658 1
3 -12 1 3945 678 1
3 -12 -1 4334 704 1
3 -12 1 4075 673 1
-3 -9 -1 3138 701 1
3 -12 -1 3969 676 1
-12 3 -1 3355 669 1
9 -12 1 3604 628 1
9 -12 -1 5085 669 1
-12 3 1 2885 526 1
-9 -3 1 3933 717 1
-12 3 -1 3594 699 1
-9 -3 -1 2210 761 1
-9 -3 -2 1917 756 1
3 -12 2 1372 651 1
-3 -9 -2 1970 690 1
3 -12 2 1681 648 1
3 -12 -2 1896 689 1
-12 3 -2 229 664 1
3 -12 -2 1410 651 1
9 -12 2 2229 605 1
9 -12 -2 589 532 1
9 -12 -2 1037 637 1
-12 3 -2 1194 656 1
-3 -9 -2 2296 657 1
-12 3 2 640 390 1
-9 -3 2 1637 661 1
-12 3 2 1910 610 1
-3 -9 2 1371 694 1
-9 -3 -3 3417 749 1
-3 -9 -3 3088 673 1
-12 3 -3 2694 654 1
3 -12 3 2480 653 1
-3 -9 -3 2964 691 1
3 -12 -3 3248 710 1
9 -12 3 3925 611 1
3 -12 -3 2235 649 1
9 -12 -3 2977 578 1
9 -12 -3 3601 687 1
-12 3 -3 3216 694 1
-12 3 3 1157 333 1
-9 -3 3 2019 640 1
3 -12 3 2209 655 1
-3 -9 3 2299 728 1
3 -12 4 76 646 1
3 -12 4 76 614 1
-3 -9 -4 72 654 1
-9 -3 -4 72 739 1
-12 3 -4 230 648 1
-3 -9 -4 72 652 1
3 -12 -4 16 691 1
9 -12 4 47 579 1
9 -12 -4 65 581 1
3 -12 -4 31 656 1
9 -12 -4 65 669 1
-12 3 -4 78 668 1
-9 -3 4 70 592 1
-3 -9 4 68 724 1
3 -12 5 103 648 1
-9 -3 -5 476 598 1
3 -12 5 10 579 1
-3 -9 -5 1193 659 1
-9 -3 -5 8 714 1
3 -12 -5 1089 697 1
-12 3 -5 10 618 1
-3 -9 -5 8 684 1
9 -12 5 633 573 1
9 -12 -5 9 622 1
9 -12 -5 1002 692 1
3 -12 -5 1165 678 1
-9 -3 5 8 595 1
-12 3 -5 1106 720 1
-3 -9 5 8 743 1
3 -12 6 6 528 1
-9 -3 -6 6 586 1
-3 -9 -6 5 674 1
-9 -3 -6 6 723 1
-9 -3 6 569 457 1
3 -12 -6 6 707 1
-3 -9 -6 583 695 1
-12 3 -6 673 635 1
9 -12 -6 27 695 1
9 -12 -6 901 640 1
3 -12 -6 6 703 1
-9 -3 6 6 603 1
-3 -9 6 6 806 1
-12 3 -6 1042 761 1
3 -12 6 6 658 1
-9 -3 -7 941 634 1
-3 -9 -7 1119 703 1
3 -12 -7 1651 716 1
-9 -3 -7 1370 770 1
-3 -9 -7 1963 736 1
-12 3 -7 2340 654 1
9 -12 -7 1937 741 1
9 -12 -7 2353 688 1
12 -9 -7 5165 635 1
3 -12 -7 2153 719 1
-9 -3 7 1214 618 1
-3 -9 7 2770 842 1
-12 3 -7 2275 797 1
3 -12 7 1861 661 1
3 -12 7 1389 506 1
3 -12 8 11 443 1
-9 -3 -8 864 606 1
-3 -9 -8 200 724 1
3 -12 -8 1244 748 1
-9 -3 -8 918 760 1
9 -12 -8 428 746 1
-12 3 -8 1274 647 1
9 -12 -8 12 709 1
12 -9 -8 141 611 1
3 -12 -8 822 733 1
-3 -9 8 11 888 1
3 -12 8 133 644 1
-12 3 -8 1326 837 1
3 -12 9 1896 403 1
-9 -3 -9 2500 608 1
-3 -9 -9 2368 758 1
3 -12 -9 1194 760 1
-9 -3 -9 3704 768 1
9 -12 -9 2949 780 1
12 -9 -9 2637 620 1
9 -12 -9 3459 738 1
3 -12 -9 3148 781 1
-3 -9 9 3038 932 1
3 -12 9 1885 625 1
-9 -3 -10 292 610 1
-3 -9 -10 4 737 1
-9 -3 -10 157 780 1
9 -12 -10 3 810 1
9 -12 -10 973 759 1
-3 -9 10 881 970 1
3 -12 -10 1265 786 1
3 -12 10 4 585 1
-9 -3 -11 1389 653 1
-3 -9 -11 1964 755 1
-9 -3 -11 1806 804 1
9 -12 -11 1641 847 1
9 -12 -11 685 789 1
-3 -9 11 2394 1003 1
3 -12 11 1458 571 1
3 -12 -11 2165 810 1
-9 -3 -12 611 649 1
-3 -9 -12 1217 764 1
9 -12 -12 790 830 1
-9 -3 -12 1 847 1
9 -12 -12 484 816 1
3 -12 12 228 530 1
3 -12 -12 0 804 1
-3 -9 -13 765 774 1
9 -12 -13 1652 861 1
-9 -3 -13 1664 861 1
9 -12 -13 636 840 1
3 -12 13 1555 531 1
3 -12 -13 2391 827 1
-2 -10 0 1314 680 1
2 -12 0 1516 707 1
2 -12 0 2860 682 1
10 -12 0 2206 652 1
-12 2 0 1578 616 1
-12 2 0 2339 634 1
-10 -2 0 1357 703 1
2 -12 1 524 659 1
-2 -10 1 242 731 1
-2 -10 -1 43 697 1
2 -12 1 36 697 1
2 -12 -1 19 701 1
2 -12 -1 36 657 1
-2 -10 1 44 683 1
-12 2 1 50 595 1
10 -12 1 285 616 1
10 -12 -1 39 642 1
-12 2 -1 37 636 1
-12 2 1 37 519 1
-10 -2 1 87 657 1
-12 2 -1 121 679 1
-10 -2 -1 226 754 1
-2 -10 2 221 708 1
-2 -10 2 1566 736 1
-12 2 -2 1364 731 1
-10 -2 -2 1040 776 1
2 -12 2 862 714 1
2 -12 2 1250 692 1
-2 -10 -2 467 675 1
2 -12 -2 1501 715 1
-12 2 2 760 600 1
2 -12 -2 837 680 1
10 -12 2 1403 612 1
10 -12 -2 493 667 1
-12 2 2 581 441 1
-10 -2 2 1456 617 1
-12 2 -2 1798 665 1
2 -12 3 8 676 1
-12 2 3 620 602 1
-10 -2 -3 0 784 1
2 -12 3 1034 675 1
-12 2 -3 297 746 1
-10 -2 3 6 433 1
2 -12 -3 8 725 1
-2 -10 -3 84 675 1
2 -12 -3 157 666 1
10 -12 3 6 585 1
10 -12 -3 5 687 1
-12 2 3 8 365 1
-10 -2 3 228 579 1
-2 -10 3 121 712 1
-12 2 -3 147 671 1
2 -12 4 355 626 1
-12 2 -4 1375 723 1
-2 -10 -4 1080 698 1
-10 -2 -4 568 779 1
-12 2 -4 52 718 1
2 -12 4 48 697 1
2 -12 -4 397 730 1
-2 -10 -4 121 663 1
2 -12 -4 108 679 1
10 -12 -4 53 700 1
-10 -2 4 228 469 1
-12 2 4 1 310 1
-10 -2 4 188 533 1
-12 2 4 302 561 1
-2 -10 4 280 728 1
-10 -2 -5 1121 620 1
2 -12 5 18 573 1
-2 -10 -5 1405 697 1
-10 -2 -5 21 746 1
2 -12 -5 1063 734 1
-12 2 -5 128 705 1
-12 2 -5 470 770 1
-2 -10 -5 1628 703 1
2 -12 -5 1318 686 1
10 -12 -5 1630 720 1
-10 -2 5 1200 530 1
-10 -2 5 1285 493 1
-2 -10 5 1121 761 1
2 -12 5 981 703 1
2 -12 6 194 552 1
-10 -2 -6 277 603 1
-2 -10 -6 93 696 1
-10 -2 -6 128 767 1
2 -12 -6 126 737 1
-12 2 -6 360 717 1
-2 -10 -6 525 735 1
-12 2 -6 343 812 1
2 -12 -6 331 712 1
10 -12 -6 151 734 1
-10 -2 6 350 522 1
10 -12 -6 967 692 1
-2 -10 6 828 802 1
2 -12 6 125 703 1
2 -12 7 66 498 1
-10 -2 -7 658 611 1
-2 -10 -7 169 725 1
2 -12 -7 10 718 1
-10 -2 -7 329 776 1
-12 2 -7 10 705 1
-2 -10 -7 179 735 1
-12 2 -7 10 883 1
10 -12 -7 13 753 1
2 -12 -7 4 725 1
-10 -2 7 12 520 1
10 -12 -7 12 727 1
-2 -10 7 12 829 1
2 -12 7 1429 711 1
-10 -2 -8 6 611 1
-2 -10 -8 121 720 1
2 -12 -8 390 727 1
-10 -2 -8 6 796 1
-2 -10 -8 287 753 1
-12 2 -8 1212 718 1
-12 2 -8 7 936 1
10 -12 -8 1191 779 1
2 -12 -8 1022 753 1
10 -12 -8 1494 765 1
-2 -10 8 6 852 1
2 -12 8 7 692 1
-10 -2 -9 41 609 1
-2 -10 -9 1 753 1
-10 -2 -9 41 814 1
-2 -10 -9 0 772 1
-12 2 -9 38 725 1
10 -12 -9 312 791 1
2 -12 -9 385 743 1
10 -12 -9 42 804 1
-2 -10 9 41 916 1
2 -12 9 39 682 1
-2 -10 -10 177 758 1
-10 -2 -10 3 836 1
-2 -10 -10 4 799 1
10 -12 -10 1596 818 1
2 -12 -10 1071 780 1
-2 -10 10 661 973 1
10 -12 -10 260 833 1
2 -12 10 1124 681 1
-2 -10 -11 5 770 1
-10 -2 -11 25 860 1
10 -12 -11 120 822 1
-2 -10 -11 0 824 1
-2 -10 11 113 993 1
2 -12 -11 111 800 1
2 -12 11 149 654 1
10 -12 -11 120 848 1
-2 -10 -12 1154 799 1
2 -12 -12 2234 869 1
10 -12 -12 1396 875 1
-10 -2 -12 1022 876 1
-2 -10 -12 968 838 1
-2 -10 12 787 1030 1
2 -12 12 16 663 1
2 -12 -12 675 832 1
10 -12 -12 1043 883 1
-2 -10 -13 1 799 1
2 -12 -13 283 848 1
10 -12 -13 43 897 1
-10 -2 -13 26 897 1
-2 -10 -13 323 865 1
-2 -10 13 25 1075 1
2 -12 13 25 654 1
2 -12 -13 26 858 1
10 -12 -13 30 888 1
-1 -11 0 652 741 1
-1 -11 0 771 699 1
1 -12 0 4 758 1
1 -12 0 24 703 1
-11 -1 0 1 472 1
11 -12 0 1408 646 1
-12 1 0 159 635 1
-11 -1 0 1645 699 1
-12 1 0 919 593 1
-1 -11 1 1862 751 1
-1 -11 1 2000 735 1
-1 -11 -1 2078 742 1
1 -12 1 2731 776 1
1 -12 1 2823 720 1
1 -12 -1 2795 754 1
-1 -11 -1 1564 727 1
-12 1 -1 1782 629 1
1 -12 -1 1426 699 1
11 -12 1 1259 627 1
11 -12 -1 3479 688 1
-11 -1 1 1482 478 1
-11 -1 -1 1626 485 1
-12 1 1 2406 611 1
-12 1 1 1299 570 1
-11 -1 1 503 651 1
-12 1 -1 986 746 1
-11 -1 -1 1193 771 1
-11 -1 2 652 497 1
-12 1 -2 975 776 1
-11 -1 -2 975 797 1
-1 -11 2 331 728 1
-11 -1 -2 725 489 1
1 -12 2 1199 755 1
-1 -11 -2 1863 738 1
1 -12 -2 1889 782 1
-1 -11 -2 117 724 1
1 -12 -2 1156 701 1
1 -12 2 1057 733 1
-1 -11 2 622 763 1
-12 1 -2 630 640 1
11 -12 -2 1270 706 1
-12 1 2 1489 615 1
-12 1 2 422 481 1
-11 -1 2 1084 581 1
-1 -11 3 961 750 1
-1 -11 3 2584 764 1
1 -12 3 721 742 1
1 -12 3 1337 703 1
-11 -1 -3 1094 842 1
-12 1 -3 2935 827 1
1 -12 -3 932 762 1
-1 -11 -3 362 725 1
1 -12 -3 615 715 1
-12 1 3 1578 594 1
11 -12 -3 515 724 1
-11 -1 3 987 533 1
-12 1 -3 1682 683 1
12 -11 -3 1983 684 1
-12 1 3 908 412 1
-11 -1 3 666 528 1
1 -12 4 874 762 1
-1 -11 4 709 722 1
1 -12 4 199 659 1
-11 -1 4 43 552 1
-11 -1 -4 13 836 1
-12 1 -4 124 790 1
-12 1 4 1216 575 1
1 -12 -4 670 761 1
-1 -11 -4 19 714 1
1 -12 -4 1092 712 1
11 -12 -4 127 713 1
12 -11 -4 9 711 1
-12 1 -4 1705 708 1
-12 1 4 12 366 1
-11 -1 4 787 484 1
-1 -11 4 1211 779 1
-11 -1 -5 1682 643 1
1 -12 5 1659 653 1
-11 -1 -5 993 833 1
1 -12 -5 2677 771 1
-12 1 -5 2703 811 1
-1 -11 -5 931 742 1
1 -12 -5 3073 737 1
11 -12 -5 2260 758 1
12 -11 -5 2304 729 1
-12 1 5 802 337 1
-11 -1 5 922 464 1
-11 -1 5 2251 575 1
-12 1 -5 1598 740 1
-1 -11 5 1870 811 1
1 -12 5 1825 755 1
-12 1 5 2346 600 1
-12 1 -6 408 783 1
1 -12 6 0 576 1
-11 -1 -6 261 613 1
-1 -11 -6 1185 733 1
1 -12 -6 1129 778 1
-11 -1 -6 200 821 1
-12 1 -6 0 772 1
-1 -11 -6 0 730 1
1 -12 -6 1238 754 1
11 -12 -6 1 786 1
12 -11 -6 1093 748 1
-11 -1 6 75 437 1
-1 -11 6 0 844 1
1 -12 6 494 763 1
-11 -1 -7 1310 628 1
-12 1 -7 743 832 1
-1 -11 -7 1411 784 1
-11 -1 -7 1523 826 1
-12 1 -7 2203 809 1
-1 -11 -7 818 775 1
1 -12 -7 1861 784 1
11 -12 -7 0 797 1
12 -11 -7 1603 779 1
-11 -1 7 787 433 1
-1 -11 7 1138 851 1
1 -12 7 2666 792 1
-1 -11 -8 73 777 1
-11 -1 -8 413 833 1
-12 1 -8 1185 811 1
-1 -11 -8 671 785 1
1 -12 -8 1737 790 1
11 -12 -8 20 808 1
12 -11 -8 574 804 1
-1 -11 8 19 879 1
1 -12 8 1502 769 1
-1 -11 -9 1413 775 1
-11 -1 -9 272 849 1
-12 1 -9 2498 833 1
-1 -11 -9 799 810 1
11 -12 -9 462 854 1
1 -12 -9 1747 821 1
12 -11 -9 1400 853 1
-1 -11 9 563 882 1
1 -12 9 508 774 1
-1 -11 -10 740 800 1
1 -12 -10 444 816 1
-11 -1 -10 1820 881 1
-12 1 -10 1495 853 1
-1 -11 -10 1314 830 1
11 -12 -10 115 845 1
1 -12 -10 1148 823 1
-1 -11 10 0 926 1
1 -12 10 90 804 1
-1 -11 -11 1583 818 1
1 -12 -11 691 848 1
-11 -1 -11 1959 926 1
11 -12 -11 2851 899 1
-12 1 -11 2538 850 1
-1 -11 -11 2216 843 1
1 -12 -11 1523 852 1
-1 -11 11 902 974 1
1 -12 11 811 767 1
11 -12 -12 1646 941 1
-1 -11 -12 421 838 1
1 -12 -12 129 855 1
11 -12 -12 62 921 1
-11 -1 -12 30 915 1
-1 -11 -12 124 887 1
1 -12 -12 11 874 1
-1 -11 12 763 1018 1
1 -12 12 192 782 1
0 -12 0 1289 812 1
0 -12 0 2258 754 1
-12 0 0 2165 559 1
-12 0 0 443 663 1
-12 0 -1 999 776 1
0 -12 1 860 789 1
0 -12 -1 286 758 1
0 -12 -1 546 738 1
-12 0 1 801 567 1
0 -12 1 604 757 1
12 -12 -1 2 692 1
-12 0 -1 1 551 1
-12 0 1 383 602 1
-12 0 -2 1651 562 1
-12 0 -2 1943 828 1
0 -12 2 2594 794 1
0 -12 2 1302 757 1
0 -12 -2 2599 782 1
0 -12 -2 1411 743 1
12 -12 -2 1847 726 1
-12 0 2 1588 529 1
-12 0 2 2002 569 1
0 -12 3 42 776 1
0 -12 3 1077 741 1
-12 0 -3 45 860 1
0 -12 -3 45 798 1
0 -12 -3 45 768 1
-12 0 -3 45 567 1
12 -12 -3 54 746 1
-12 0 3 42 573 1
-12 0 3 158 466 1
0 -12 4 3281 846 1
0 -12 4 2911 760 1
-12 0 -4 3001 892 1
0 -12 -4 2736 825 1
0 -12 -4 4257 802 1
-12 0 4 3122 619 1
-12 0 -4 2792 637 1
12 -12 -4 3520 796 1
-12 0 4 1624 432 1
-12 0 -5 258 649 1
0 -12 5 493 678 1
-12 0 -5 0 866 1
0 -12 -5 0 775 1
12 -12 -5 0 800 1
-12 0 5 219 387 1
-12 0 -5 73 654 1
0 -12 5 162 827 1
0 -12 6 2006 632 1
-12 0 -6 2431 863 1
0 -12 -6 2382 781 1
12 -12 -6 3466 876 1
-12 0 6 1157 379 1
0 -12 6 1761 839 1
-12 0 -7 25 883 1
0 -12 -7 1298 793 1
12 -12 -7 16 886 1
-12 0 7 24 359 1
0 -12 7 24 837 1
-12 0 -8 2724 919 1
0 -12 -8 2660 839 1
12 -12 -8 2180 892 1
0 -12 8 1530 888 1
0 -12 -9 509 813 1
-12 0 -9 1010 905 1
0 -12 -9 314 834 1
12 -12 -9 686 902 1
0 -12 9 12 884 1
0 -12 -10 1561 864 1
-12 0 -10 1754 942 1
0 -12 -10 2439 863 1
12 -12 -10 2868 955 1
0 -12 10 3126 912 1
0 -12 -11 31 838 1
-12 0 -11 279 942 1
12 -12 -11 258 957 1
0 -12 -11 46 873 1
0 -12 11 518 884 1
-6 -7 0 735 729 1
6 -13 0 274 603 1
7 -13 0 23 607 1
6 -13 0 231 521 1
7 -13 0 811 481 1
-7 -6 0 29 735 1
-7 -6 -1 277 734 1
-6 -7 -1 266 726 1
6 -13 1 6 600 1
6 -13 -1 6 629 1
7 -13 1 5 601 1
7 -13 -1 140 611 1
6 -13 1 6 527 1
6 -13 -1 405 536 1
7 -13 1 5 475 1
7 -13 -1 536 492 1
-7 -6 1 7 731 1
-6 -7 -2 255 646 1
-7 -6 -2 396 753 1
-6 -7 -2 7 752 1
6 -13 2 6 597 1
7 -13 2 403 599 1
6 -13 -2 429 631 1
7 -13 -2 676 636 1
6 -13 2 542 525 1
7 -13 2 6 460 1
6 -13 -2 1093 549 1
7 -13 -2 1251 514 1
-13 6 2 512 266 1
-7 -6 2 683 727 1
-7 -6 -3 464 639 1
-6 -7 -3 6 635 1
-7 -6 -3 6 751 1
-6 -7 -3 215 741 1
6 -13 3 1278 605 1
7 -13 3 1044 590 1
6 -13 3 35 517 1
6 -13 -3 766 652 1
7 -13 -3 1275 675 1
6 -13 -3 5 559 1
-13 6 3 184 212 1
7 -13 -3 7 527 1
-7 -6 3 989 740 1
-7 -6 -4 668 638 1
-6 -7 -4 199 635 1
-7 -6 -4 681 744 1
-6 -7 -4 2 755 1
6 -13 4 360 593 1
7 -13 4 1228 598 1
6 -13 4 2 512 1
6 -13 -4 725 673 1
7 -13 -4 179 672 1
6 -13 -4 619 582 1
7 -13 -4 605 558 1
-7 -6 4 2 750 1
-7 -6 -5 81 638 1
-6 -7 -5 5 652 1
6 -13 5 404 516 1
-7 -6 -5 383 745 1
7 -13 5 76 607 1
-6 -7 -5 81 766 1
6 -13 -5 87 684 1
7 -13 -5 77 685 1
6 -13 5 89 579 1
6 -13 -5 87 607 1
-7 -6 5 184 753 1
7 -13 -5 77 572 1
-7 -6 -6 3 669 1
-6 -7 -6 8 674 1
6 -13 6 484 574 1
7 -13 6 1066 622 1
-7 -6 -6 28 737 1
-6 -7 -6 175 733 1
6 -13 -6 505 741 1
7 -13 -6 380 710 1
-7 -6 6 53 787 1
6 -13 -6 169 630 1
7 -13 -6 694 615 1
7 -13 -7 1520 658 1
-7 -6 -7 1120 685 1
-6 -7 -7 877 696 1
6 -13 7 629 585 1
7 -13 7 2121 649 1
-7 -6 -7 1035 784 1
-6 -7 -7 1088 793 1
6 -13 -7 2061 769 1
7 -13 -7 1257 733 1
6 -13 -7 1397 668 1
-13 6 -7 1479 708 1
7 -13 -8 450 660 1
6 -13 8 169 557 1
-7 -6 -8 8 677 1
-6 -7 -8 8 684 1
-7 -6 -8 830 797 1
-6 -7 -8 450 766 1
6 -13 -8 10 746 1
7 -13 -8 21 739 1
-6 -7 8 589 910 1
6 -13 -8 325 675 1
6 -13 9 525 523 1
7 -13 -9 616 681 1
-7 -6 -9 339 662 1
-6 -7 -9 186 699 1
-7 -6 -9 1208 800 1
6 -13 -9 8 783 1
-6 -7 -9 4 800 1
7 -13 -9 5 774 1
-6 -7 9 4 951 1
6 -13 -9 8 691 1
6 -13 -10 955 710 1
7 -13 -10 181 722 1
-7 -6 -10 0 679 1
-6 -7 -10 162 709 1
6 -13 -10 0 790 1
7 -13 -10 381 780 1
-7 -6 -10 0 803 1
-6 -7 -10 344 796 1
-6 -7 10 0 1007 1
-7 -6 -11 52 697 1
7 -13 -11 48 746 1
-6 -7 -11 493 692 1
6 -13 -11 47 758 1
6 -13 -11 47 815 1
7 -13 -11 489 818 1
-7 -6 -11 1664 830 1
-6 -7 -11 244 808 1
6 -13 -12 853 792 1
-7 -6 -12 31 710 1
-6 -7 -12 60 714 1
7 -13 -12 731 782 1
6 -13 -12 545 839 1
7 -13 -12 26 853 1
-7 -6 -12 308 834 1
-6 -7 -12 31 844 1
5 -13 0 1015 652 1
8 -13 0 1045 627 1
5 -13 0 279 589 1
-13 5 0 12 468 1
-8 -5 0 555 755 1
-8 -5 -1 382 756 1
-5 -8 -1 1132 679 1
5 -13 1 776 650 1
5 -13 -1 100 654 1
5 -13 1 901 595 1
8 -13 1 28 636 1
8 -13 -1 1135 647 1
5 -13 -1 752 589 1
-13 5 1 1053 416 1
-8 -5 1 828 735 1
-8 -5 -2 37 776 1
5 -13 2 58 614 1
-5 -8 -2 516 677 1
5 -13 -2 135 645 1
5 -13 2 204 578 1
8 -13 2 42 598 1
8 -13 -2 653 654 1
5 -13 -2 375 608 1
-13 5 2 471 313 1
-8 -5 2 34 719 1
8 -13 -2 749 529 1
-5 -8 2 37 723 1
-8 -5 -3 778 657 1
-5 -8 -3 1557 648 1
-8 -5 -3 953 788 1
5 -13 3 1589 621 1
5 -13 3 1995 590 1
5 -13 -3 1187 696 1
8 -13 3 290 608 1
8 -13 -3 1432 668 1
5 -13 -3 1691 636 1
-13 5 3 419 255 1
-8 -5 3 773 727 1
-13 5 -3 1532 688 1
-5 -8 3 1836 779 1
8 -13 -3 2115 556 1
-13 5 -4 12 703 1
8 -13 -4 10 574 1
-8 -5 -4 7 635 1
-5 -8 -4 242 673 1
-8 -5 -4 7 773 1
5 -13 4 11 607 1
5 -13 4 670 591 1
5 -13 -4 370 694 1
8 -13 4 281 621 1
8 -13 -4 440 688 1
5 -13 -4 357 631 1
-8 -5 4 6 712 1
-5 -8 4 6 778 1
-13 5 -5 1652 724 1
-8 -5 -5 1763 641 1
8 -13 -5 2067 616 1
-5 -8 -5 2371 699 1
5 -13 5 1664 598 1
5 -13 5 1153 576 1
-8 -5 -5 1933 776 1
8 -13 5 1704 630 1
5 -13 -5 1285 718 1
8 -13 -5 1647 697 1
5 -13 -5 1243 639 1
-8 -5 5 1103 736 1
-5 -8 5 568 798 1
5 -13 6 2 593 1
-8 -5 -6 2 672 1
-13 5 -6 2 722 1
5 -13 6 2 560 1
-5 -8 -6 2 707 1
8 -13 -6 2 619 1
-8 -5 -6 2 759 1
8 -13 6 2 655 1
-5 -8 -6 824 750 1
5 -13 -6 755 713 1
8 -13 -6 139 725 1
5 -13 -6 420 672 1
-8 -5 6 2 745 1
-5 -8 6 10 857 1
5 -13 7 3072 609 1
5 -13 7 3039 565 1
-8 -5 -7 3599 707 1
-5 -8 -7 3011 733 1
-13 5 -7 2190 767 1
8 -13 -7 3569 674 1
-8 -5 -7 4042 829 1
-5 -8 -7 3735 778 1
5 -13 -7 3221 802 1
8 -13 -7 4050 779 1
5 -13 -7 3688 716 1
-8 -5 7 2605 834 1
-5 -8 7 3353 902 1
5 -13 8 0 500 1
-8 -5 -8 0 690 1
-5 -8 -8 294 712 1
8 -13 -8 179 658 1
-8 -5 -8 300 808 1
5 -13 -8 0 813 1
-5 -8 -8 0 782 1
8 -13 -8 0 731 1
-8 -5 8 0 802 1
-5 -8 8 1080 948 1
5 -13 -8 0 713 1
5 -13 9 1074 454 1
-8 -5 -9 27 665 1
-5 -8 -9 1864 741 1
8 -13 -9 1823 709 1
5 -13 -9 2647 801 1
-8 -5 -9 503 792 1
-5 -8 -9 1533 791 1
8 -13 -9 1293 789 1
-8 -5 9 1513 879 1
-5 -8 9 2679 980 1
5 -13 -9 1168 734 1
5 -13 10 30 396 1
-8 -5 -10 5 677 1
-5 -8 -10 744 757 1
8 -13 -10 24 728 1
5 -13 -10 30 791 1
-8 -5 -10 25 821 1
-5 -8 -10 396 800 1
8 -13 -10 12 799 1
-5 -8 10 470 1041 1
5 -13 -10 30 754 1
-8 -5 -11 1070 699 1
-5 -8 -11 676 742 1
8 -13 -11 1192 761 1
5 -13 -11 958 830 1
8 -13 -11 970 821 1
-8 -5 -11 0 829 1
-5 -8 -11 645 815 1
-5 -8 11 1995 1090 1
5 -13 -11 389 764 1
5 -13 -12 394 814 1
-8 -5 -12 19 704 1
-5 -8 -12 19 763 1
5 -13 -12 337 862 1
8 -13 -12 1474 804 1
8 -13 -12 25 850 1
-8 -5 -12 659 849 1
-5 -8 -12 9 844 1
-4 -9 0 825 726 1
-4 -9 0 961 735 1
4 -13 0 73 693 1
4 -13 0 77 667 1
9 -13 0 632 656 1
-13 4 0 11 657 1
-13 4 0 52 524 1
-9 -4 0 77 745 1
-13 4 -1 1460 695 1
-9 -4 -1 1787 799 1
-4 -9 1 882 751 1
-4 -9 -1 1529 709 1
-4 -9 -1 271 717 1
4 -13 1 875 667 1
4 -13 -1 917 699 1
4 -13 1 1382 658 1
4 -13 -1 695 641 1
9 -13 1 1529 654 1
9 -13 -1 1843 671 1
-13 4 1 509 440 1
-9 -4 1 554 740 1
-13 4 -1 1214 593 1
-9 -4 -2 2 775 1
-13 4 -2 986 605 1
-4 -9 -2 404 672 1
-13 4 -2 783 682 1
-4 -9 -2 2 734 1
4 -13 2 1 647 1
4 -13 2 1 646 1
4 -13 -2 176 716 1
9 -13 2 805 646 1
4 -13 -2 908 655 1
9 -13 -2 2 651 1
-13 4 2 3 352 1
-9 -4 2 2 712 1
-4 -9 2 2 742 1
-4 -9 -3 640 697 1
-9 -4 -3 572 776 1
4 -13 3 1131 637 1
4 -13 3 320 650 1
-4 -9 -3 1 731 1
-13 4 -3 805 685 1
4 -13 -3 371 712 1
9 -13 3 1 645 1
9 -13 -3 297 691 1
4 -13 -3 786 667 1
-13 4 3 70 278 1
-9 -4 3 1 679 1
-4 -9 3 1023 757 1
-4 -9 -4 649 693 1
4 -13 4 268 661 1
4 -13 4 22 622 1
-9 -4 -4 1613 796 1
-4 -9 -4 665 739 1
4 -13 -4 914 716 1
-13 4 -4 22 703 1
9 -13 4 1208 661 1
9 -13 -4 777 693 1
-9 -4 -4 771 656 1
4 -13 -4 22 675 1
-13 4 4 274 228 1
-9 -4 4 22 664 1
-4 -9 4 1286 789 1
-9 -4 -5 218 659 1
4 -13 5 8 649 1
4 -13 5 8 604 1
-4 -9 -5 537 707 1
-9 -4 -5 9 782 1
4 -13 -5 608 743 1
9 -13 -5 1 655 1
-13 4 -5 8 730 1
9 -13 -5 371 718 1
4 -13 -5 9 686 1
-9 -4 5 50 635 1
-4 -9 5 434 812 1
-9 -4 -6 127 656 1
4 -13 6 874 561 1
-4 -9 -6 166 698 1
-9 -4 -6 608 776 1
4 -13 -6 300 735 1
9 -13 -6 1063 680 1
-13 4 -6 1201 755 1
9 -13 -6 1054 735 1
4 -13 6 1293 648 1
4 -13 -6 1038 689 1
-9 -4 6 17 686 1
-4 -9 6 841 861 1
4 -13 7 693 503 1
-9 -4 -7 844 659 1
-4 -9 -7 968 722 1
-9 -4 -7 935 779 1
4 -13 -7 555 763 1
9 -13 -7 1034 705 1
-13 4 -7 224 798 1
9 -13 -7 2250 784 1
4 -13 -7 1208 705 1
-9 -4 7 6 681 1
-4 -9 7 467 878 1
4 -13 7 455 637 1
4 -13 8 27 450 1
-9 -4 -8 1297 682 1
-4 -9 -8 1044 733 1
4 -13 -8 26 776 1
-9 -4 -8 538 831 1
9 -13 -8 641 729 1
9 -13 -8 1280 781 1
4 -13 -8 1114 746 1
-9 -4 8 597 712 1
-4 -9 8 889 917 1
4 -13 8 1089 608 1
4 -13 9 23 393 1
-9 -4 -9 25 657 1
-4 -9 -9 1625 760 1
4 -13 -9 520 806 1
-9 -4 -9 1740 822 1
9 -13 -9 1559 749 1
9 -13 -9 1541 806 1
4 -13 -9 1379 769 1
-4 -9 9 26 1002 1
4 -13 9 981 571 1
4 -13 10 105 352 1
-9 -4 -10 35 670 1
-4 -9 -10 468 770 1
4 -13 -10 138 829 1
-9 -4 -10 637 852 1
9 -13 -10 1236 822 1
9 -13 -10 613 759 1
-4 -9 10 14 1047 1
4 -13 -10 14 794 1
4 -13 10 13 520 1
-9 -4 -11 299 695 1
-4 -9 -11 6 767 1
4 -13 11 165 315 1
4 -13 -11 680 826 1
-9 -4 -11 999 859 1
9 -13 -11 463 847 1
9 -13 -11 1915 797 1
-4 -9 11 6 1073 1
4 -13 -11 5 802 1
-9 -4 -12 83 694 1
-4 -9 -12 0 802 1
4 -13 -12 0 847 1
9 -13 -12 0 882 1
-9 -4 -12 695 891 1
9 -13 -12 0 837 1
-4 -9 -12 0 841 1
-4 -9 12 0 1102 1
4 -13 -12 346 847 1
-3 -10 0 236 735 1
-13 3 0 3 653 1
3 -13 0 6 731 1
3 -13 0 253 683 1
10 -13 0 1171 676 1
-13 3 0 3 555 1
-10 -3 0 105 743 1
-10 -3 -1 113 783 1
-13 3 1 145 657 1
-3 -10 1 116 737 1
-3 -10 -1 114 741 1
3 -13 1 118 721 1
3 -13 -1 115 708 1
3 -13 1 635 694 1
-13 3 -1 115 658 1
3 -13 -1 0 678 1
10 -13 1 61 672 1
10 -13 -1 336 683 1
-13 3 1 73 462 1
-10 -3 1 56 705 1
-13 3 -1 115 635 1
-3 -10 2 859 765 1
-3 -10 2 0 753 1
-10 -3 -2 0 792 1
-13 3 -2 322 675 1
-3 -10 -2 0 720 1
3 -13 2 1 697 1
-3 -10 -2 0 704 1
3 -13 2 1 691 1
3 -13 -2 567 755 1
3 -13 -2 1 682 1
-13 3 -2 318 670 1
10 -13 2 1016 660 1
10 -13 -2 230 692 1
-13 3 2 1 385 1
-10 -3 2 0 683 1
-13 3 2 1 638 1
-10 -3 -3 20 843 1
-3 -10 -3 2 730 1
3 -13 3 0 682 1
-13 3 -3 687 690 1
3 -13 3 30 690 1
-3 -10 -3 20 740 1
3 -13 -3 28 753 1
3 -13 -3 28 703 1
10 -13 -3 23 725 1
-13 3 -3 153 683 1
-13 3 3 29 308 1
-10 -3 3 263 623 1
-3 -10 3 369 756 1
-10 -3 -4 207 640 1
3 -13 4 303 710 1
3 -13 4 112 647 1
-3 -10 -4 6 722 1
-10 -3 -4 88 815 1
-13 3 -4 5 682 1
3 -13 -4 411 729 1
-3 -10 -4 6 737 1
3 -13 -4 61 702 1
10 -13 -4 659 706 1
-13 3 -4 224 724 1
-13 3 4 5 269 1
-10 -3 4 725 613 1
-3 -10 4 6 784 1
3 -13 5 841 703 1
-10 -3 -5 1 660 1
3 -13 5 0 595 1
-3 -10 -5 1 723 1
-10 -3 -5 1 809 1
3 -13 -5 1279 747 1
-3 -10 -5 1 742 1
10 -13 -5 1 731 1
3 -13 -5 0 731 1
-13 3 -5 0 766 1
-13 3 5 0 232 1
-10 -3 5 0 579 1
-3 -10 5 0 843 1
3 -13 6 23 701 1
-10 -3 -6 55 637 1
3 -13 6 23 548 1
-3 -10 -6 22 725 1
-10 -3 -6 534 807 1
3 -13 -6 490 762 1
-3 -10 -6 22 768 1
10 -13 -6 278 755 1
3 -13 -6 23 755 1
-13 3 -6 23 825 1
-10 -3 6 22 597 1
-3 -10 6 85 863 1
3 -13 7 7 475 1
-10 -3 -7 0 664 1
-3 -10 -7 7 735 1
3 -13 -7 9 772 1
-10 -3 -7 7 847 1
-3 -10 -7 859 770 1
10 -13 -7 3 782 1
3 -13 -7 765 749 1
-10 -3 7 298 602 1
-3 -10 7 63 899 1
3 -13 7 394 671 1
3 -13 8 191 444 1
-10 -3 -8 429 660 1
-3 -10 -8 48 738 1
3 -13 -8 543 806 1
-10 -3 -8 1025 864 1
-3 -10 -8 48 780 1
10 -13 -8 50 817 1
3 -13 -8 45 779 1
-10 -3 8 46 623 1
-3 -10 8 45 961 1
3 -13 8 44 661 1
3 -13 9 0 382 1
-10 -3 -9 0 661 1
-3 -10 -9 1176 782 1
3 -13 -9 236 803 1
-10 -3 -9 119 863 1
-3 -10 -9 1 796 1
10 -13 -9 0 814 1
3 -13 -9 0 797 1
-3 -10 9 0 980 1
3 -13 9 0 648 1
3 -13 10 238 342 1
-10 -3 -10 17 673 1
-3 -10 -10 17 769 1
3 -13 -10 187 845 1
-10 -3 -10 1285 886 1
-3 -10 -10 17 828 1
10 -13 -10 17 851 1
3 -13 -10 15 816 1
-3 -10 10 17 1019 1
3 -13 10 15 605 1
3 -13 11 96 300 1
-3 -10 -11 258 795 1
-10 -3 -11 81 911 1
10 -13 -11 84 868 1
10 -13 -11 195 874 1
-3 -10 11 386 1092 1
3 -13 -11 94 848 1
3 -13 11 96 567 1
-2 -11 0 625 747 1
-2 -11 0 55 758 1
2 -13 0 60 769 1
2 -13 0 70 719 1
-13 2 0 237 624 1
11 -13 0 59 688 1
-13 2 0 48 579 1
-11 -2 0 198 752 1
-13 2 -1 21 662 1
-11 -2 -1 1083 792 1
-2 -11 1 415 750 1
-2 -11 1 20 761 1
2 -13 1 20 744 1
-2 -11 -1 21 746 1
2 -13 -1 22 770 1
2 -13 1 894 712 1
2 -13 -1 252 709 1
-13 2 1 20 624 1
11 -13 -1 122 718 1
-13 2 -1 191 630 1
-13 2 1 20 500 1
-11 -2 1 356 416 1
-11 -2 1 19 700 1
-2 -11 2 66 746 1
-2 -11 2 871 802 1
-11 -2 -2 17 849 1
-13 2 -2 4 715 1
2 -13 2 4 747 1
2 -13 2 4 734 1
-13 2 2 991 622 1
2 -13 -2 4 775 1
-2 -11 -2 492 741 1
2 -13 -2 4 728 1
-11 -2 2 512 436 1
11 -13 -2 300 745 1
-13 2 -2 312 655 1
-13 2 2 408 427 1
-11 -2 2 8 602 1
-2 -11 3 778 767 1
-13 2 3 187 631 1
-2 -11 3 6 783 1
-11 -2 -3 1499 879 1
2 -13 3 174 741 1
2 -13 3 387 703 1
-13 2 -3 84 757 1
2 -13 -3 6 804 1
-2 -11 -3 1260 715 1
2 -13 -3 6 752 1
-11 -2 3 554 465 1
11 -13 -3 9 773 1
-13 2 3 250 347 1
-13 2 -3 338 677 1
-11 -2 3 6 550 1
2 -13 4 36 759 1
2 -13 4 36 658 1
-2 -11 -4 104 750 1
-11 -2 -4 1738 871 1
-13 2 -4 36 773 1
2 -13 -4 575 818 1
-2 -11 -4 35 743 1
2 -13 -4 79 739 1
11 -13 -4 433 772 1
-11 -2 4 425 510 1
-13 2 4 35 300 1
-11 -2 4 430 519 1
-13 2 -4 346 720 1
-2 -11 4 895 818 1
2 -13 5 17 750 1
-11 -2 -5 20 671 1
2 -13 5 17 615 1
-2 -11 -5 123 772 1
-11 -2 -5 850 901 1
2 -13 -5 329 793 1
-13 2 -5 377 758 1
-2 -11 -5 28 764 1
2 -13 -5 28 777 1
11 -13 -5 494 775 1
-13 2 5 367 273 1
-11 -2 5 19 504 1
-2 -11 5 1049 822 1
-13 2 -5 990 795 1
2 -13 6 1099 548 1
-11 -2 -6 56 657 1
-2 -11 -6 278 754 1
2 -13 -6 1258 792 1
-11 -2 -6 56 889 1
-13 2 -6 894 763 1
-2 -11 -6 56 759 1
2 -13 -6 379 760 1
11 -13 -6 58 818 1
-13 2 6 59 252 1
-11 -2 6 770 500 1
-2 -11 6 56 867 1
2 -13 6 1682 774 1
2 -13 7 315 501 1
-11 -2 -7 2 681 1
-2 -11 -7 18 776 1
2 -13 -7 2097 824 1
-11 -2 -7 18 889 1
-2 -11 -7 234 783 1
11 -13 -7 19 817 1
2 -13 -7 78 797 1
-11 -2 7 148 510 1
-2 -11 7 18 923 1
2 -13 7 156 756 1
2 -13 8 9 466 1
-2 -11 -8 10 812 1
2 -13 -8 9 797 1
-11 -2 -8 246 892 1
-2 -11 -8 1547 822 1
11 -13 -8 9 842 1
2 -13 -8 942 809 1
-11 -2 8 10 525 1
-2 -11 8 664 937 1
2 -13 8 1287 736 1
2 -13 9 85 391 1
-2 -11 -9 8 800 1
-11 -2 -9 693 922 1
-2 -11 -9 8 835 1
11 -13 -9 1327 874 1
2 -13 -9 457 822 1
-2 -11 9 8 995 1
2 -13 9 131 723 1
-2 -11 -10 38 827 1
-11 -2 -10 33 932 1
-2 -11 -10 38 856 1
11 -13 -10 14 887 1
2 -13 -10 217 849 1
-2 -11 10 759 1021 1
2 -13 10 384 700 1
-1 -12 0 1402 830 1
1 -13 0 1082 819 1
-1 -12 0 0 788 1
-12 -1 0 70 467 1
1 -13 0 278 781 1
-13 1 0 50 589 1
-13 1 0 2 632 1
-12 -1 0 299 693 1
-13 1 -1 810 724 1
-12 -1 -1 2013 785 1
-1 -12 1 786 814 1
-1 -12 1 658 759 1
-1 -12 -1 1098 813 1
1 -13 1 713 820 1
1 -13 -1 1354 828 1
1 -13 1 666 747 1
-1 -12 -1 0 783 1
1 -13 -1 1 765 1
-13 1 1 708 594 1
-12 -1 -1 0 462 1
-12 -1 1 44 490 1
-13 1 -1 1 598 1
-13 1 1 102 550 1
-12 -1 1 466 611 1
-13 1 -2 10 621 1
-12 -1 -2 6 815 1
-13 1 -2 713 773 1
-1 -12 2 6 788 1
-1 -12 2 6 773 1
1 -13 2 10 800 1
1 -13 2 444 796 1
-1 -12 -2 360 804 1
1 -13 -2 10 807 1
-12 -1 -2 6 458 1
-1 -12 -2 6 763 1
1 -13 -2 191 744 1
-13 1 2 10 603 1
-12 -1 2 6 527 1
12 -13 -2 7 767 1
-13 1 2 10 455 1
-12 -1 2 328 553 1
-1 -12 3 956 825 1
-1 -12 3 1055 787 1
1 -13 3 1843 758 1
1 -13 3 0 804 1
-12 -1 3 509 566 1
-12 -1 -3 0 873 1
-13 1 -3 45 833 1
1 -13 -3 1216 820 1
-13 1 -3 0 645 1
-13 1 3 420 611 1
-1 -12 -3 444 759 1
1 -13 -3 694 798 1
12 -13 -3 1082 786 1
-12 -1 -3 634 481 1
-13 1 3 250 406 1
-12 -1 3 128 515 1
-1 -12 4 104 826 1
-1 -12 4 3 790 1
1 -13 4 428 817 1
-13 1 4 4 621 1
1 -13 4 4 694 1
-12 -1 -4 287 894 1
-13 1 -4 4 836 1
1 -13 -4 272 826 1
-1 -12 -4 284 785 1
-13 1 -4 4 689 1
1 -13 -4 4 783 1
-12 -1 -4 3 484 1
12 -13 -4 4 806 1
-13 1 4 4 354 1
-12 -1 4 626 472 1
1 -13 5 50 818 1
-1 -12 5 575 737 1
-12 -1 -5 307 710 1
1 -13 5 0 647 1
-12 -1 -5 93 952 1
1 -13 -5 128 853 1
-13 1 -5 314 838 1
-1 -12 -5 1208 791 1
1 -13 -5 191 806 1
12 -13 -5 1 835 1
-13 1 5 491 319 1
-12 -1 5 945 441 1
-1 -12 5 432 884 1
1 -13 6 91 581 1
1 -13 -6 1032 849 1
-12 -1 -6 776 924 1
-13 1 -6 185 868 1
-1 -12 -6 289 810 1
1 -13 -6 6 809 1
12 -13 -6 457 853 1
-13 1 6 97 296 1
-12 -1 6 7 417 1
-1 -12 6 140 890 1
1 -13 6 6 839 1
1 -13 7 17 530 1
-1 -12 -7 88 821 1
1 -13 -7 659 830 1
-12 -1 -7 1675 960 1
-13 1 -7 412 876 1
-1 -12 -7 216 821 1
1 -13 -7 101 819 1
12 -13 -7 578 877 1
-13 1 7 6 282 1
-12 -1 7 90 418 1
-1 -12 7 949 928 1
1 -13 7 70 836 1
1 -13 8 0 467 1
-1 -12 -8 327 823 1
-12 -1 -8 0 964 1
-1 -12 -8 0 833 1
1 -13 -8 0 865 1
12 -13 -8 0 903 1
-12 -1 8 8 411 1
-1 -12 8 125 950 1
1 -13 8 695 822 1
-1 -12 -9 788 849 1
-12 -1 -9 447 997 1
-1 -12 -9 1310 870 1
12 -13 -9 873 922 1
1 -13 -9 1080 847 1
-1 -12 9 243 988 1
1 -13 9 306 836 1
0 -13 0 751 855 1
0 -13 0 72 817 1
-13 0 0 199 546 1
-13 0 0 589 669 1
-13 0 -1 2 739 1
0 -13 1 73 842 1
0 -13 -1 59 847 1
0 -13 1 300 790 1
0 -13 -1 2 786 1
-13 0 -1 684 526 1
-13 0 1 2 560 1
-13 0 1 2 558 1
-13 0 -2 1287 813 1
0 -13 2 0 807 1
0 -13 2 261 836 1
0 -13 -2 498 838 1
0 -13 -2 0 775 1
-13 0 -2 0 548 1
-13 0 2 0 583 1
-13 0 2 0 502 1
0 -13 3 36 794 1
0 -13 3 584 832 1
-13 0 -3 819 882 1
0 -13 -3 640 843 1
0 -13 -3 1543 813 1
-13 0 3 36 442 1
0 -13 4 52 855 1
0 -13 4 52 745 1
-13 0 -4 56 916 1
0 -13 -4 288 841 1
0 -13 -4 56 819 1
13 -13 -4 37 834 1
-13 0 4 10 394 1
0 -13 5 654 882 1
0 -13 5 772 688 1
0 -13 -5 1470 870 1
-13 0 -5 11 937 1
0 -13 -5 195 822 1
13 -13 -5 2175 874 1
-13 0 5 340 360 1
0 -13 6 357 634 1
-13 0 -6 421 952 1
0 -13 -6 1 845 1
13 -13 -6 397 904 1
-13 0 6 1 343 1
0 -13 6 634 889 1
0 -13 7 479 581 1
-13 0 -7 1243 967 1
0 -13 -7 14 854 1
13 -13 -7 69 920 1
-13 0 7 133 338 1
0 -13 7 1433 927 1
-7 -7 0 277 812 1
7 -14 0 729 648 1
-7 -7 -2 947 695 1
-7 -7 -2 1039 827 1
7 -14 2 428 631 1
7 -14 -2 32 678 1
7 -14 -2 459 564 1
-7 -7 2 37 776 1
-7 -7 -4 566 686 1
-7 -7 -4 17 801 1
7 -14 4 1635 662 1
7 -14 -4 2269 733 1
7 -14 -4 553 597 1
-7 -7 -6 1567 724 1
7 -14 6 2361 725 1
-7 -7 -6 730 841 1
7 -14 -6 2368 757 1
7 -14 -6 1353 652 1
7 -14 -8 522 689 1
-7 -7 -8 1327 731 1
-7 -7 -8 33 863 1
7 -14 -8 337 777 1
7 -14 -10 56 769 1
-7 -7 -10 1728 759 1
7 -14 -10 0 845 1
-7 -7 -10 1084 871 1
-8 -6 0 273 809 1
6 -14 0 105 671 1
8 -14 0 155 659 1
6 -14 0 105 581 1
-6 -8 -1 838 711 1
-8 -6 -1 7 808 1
6 -14 1 7 649 1
6 -14 -1 6 666 1
8 -14 1 5 652 1
8 -14 -1 147 680 1
6 -14 1 7 576 1
6 -14 -1 627 594 1
-8 -6 1 993 791 1
-6 -8 -2 2 691 1
-8 -6 -2 19 808 1
6 -14 2 137 663 1
6 -14 -2 21 695 1
8 -14 2 446 660 1
8 -14 -2 20 668 1
6 -14 2 450 570 1
6 -14 -2 21 597 1
-8 -6 2 21 803 1
-8 -6 -3 88 704 1
-6 -8 -3 88 683 1
-8 -6 -3 45 841 1
-6 -8 -3 88 773 1
6 -14 3 425 665 1
8 -14 3 100 669 1
6 -14 -3 103 716 1
8 -14 -3 98 692 1
6 -14 -3 244 598 1
-8 -6 3 447 791 1
-8 -6 -4 15 686 1
-6 -8 -4 54 709 1
-8 -6 -4 140 835 1
-6 -8 -4 109 813 1
6 -14 4 1267 673 1
8 -14 4 1475 688 1
6 -14 -4 365 708 1
8 -14 -4 229 705 1
6 -14 -4 121 630 1
-8 -6 4 568 793 1
8 -14 -5 830 627 1
-8 -6 -5 12 717 1
-6 -8 -5 12 732 1
6 -14 5 152 641 1
-8 -6 -5 696 809 1
-6 -8 -5 12 815 1
8 -14 5 581 716 1
6 -14 -5 9 768 1
8 -14 -5 319 739 1
6 -14 -5 205 657 1
-8 -6 5 421 837 1
-6 -8 5 1100 898 1
8 -14 -6 812 666 1
-8 -6 -6 1167 744 1
-6 -8 -6 281 746 1
6 -14 6 1192 634 1
-8 -6 -6 1469 812 1
-6 -8 -6 1177 812 1
6 -14 -6 2040 805 1
8 -14 -6 1916 775 1
6 -14 -6 1133 670 1
-8 -6 6 1110 864 1
-6 -8 6 1324 933 1
-8 -6 -7 35 727 1
8 -14 -7 72 682 1
-6 -8 -7 409 743 1
6 -14 7 31 613 1
-8 -6 -7 305 845 1
-6 -8 -7 35 815 1
6 -14 -7 32 798 1
8 -14 -7 42 785 1
-8 -6 7 481 845 1
-6 -8 7 21 956 1
6 -14 -7 32 704 1
6 -14 8 18 570 1
-8 -6 -8 254 710 1
-6 -8 -8 16 752 1
8 -14 -8 727 693 1
-8 -6 -8 210 868 1
-6 -8 -8 16 813 1
6 -14 -8 17 811 1
8 -14 -8 884 798 1
-8 -6 8 16 903 1
-6 -8 8 257 992 1
6 -14 -8 17 693 1
-8 -6 -9 97 722 1
-6 -8 -9 49 748 1
8 -14 -9 15 713 1
6 -14 -9 20 834 1
-8 -6 -9 10 857 1
-6 -8 -9 18 836 1
8 -14 -9 818 804 1
-8 -6 9 402 971 1
-6 -8 9 734 1073 1
6 -14 -9 20 746 1
6 -14 -10 2 764 1
-8 -6 -10 700 727 1
-6 -8 -10 53 791 1
8 -14 -10 1411 746 1
6 -14 -10 529 858 1
-8 -6 -10 2 887 1
-6 -8 -10 2 851 1
8 -14 -10 1 850 1
-6 -8 10 682 1135 1
-9 -5 0 75 782 1
-5 -9 0 74 749 1
-5 -9 0 74 777 1
5 -14 0 871 709 1
9 -14 0 494 672 1
5 -14 0 58 643 1
-5 -9 1 72 801 1
-9 -5 -1 3 817 1
-5 -9 -1 368 742 1
5 -14 1 1 689 1
5 -14 -1 74 698 1
5 -14 1 317 645 1
9 -14 1 81 694 1
9 -14 -1 82 693 1
5 -14 -1 410 647 1
-9 -5 1 4 768 1
-5 -9 -2 616 718 1
-9 -5 -2 377 828 1
5 -14 2 17 686 1
5 -14 -2 17 706 1
5 -14 2 831 652 1
9 -14 2 9 702 1
9 -14 -2 10 691 1
5 -14 -2 17 663 1
-9 -5 2 12 767 1
-5 -9 2 11 793 1
-9 -5 -3 925 713 1
-5 -9 -3 2 741 1
-9 -5 -3 471 847 1
5 -14 3 3 673 1
5 -14 3 961 635 1
5 -14 -3 3 758 1
9 -14 3 4 732 1
9 -14 -3 4 699 1
5 -14 -3 3 689 1
-9 -5 3 79 742 1
-5 -9 3 398 831 1
-9 -5 -4 104 681 1
-5 -9 -4 217 707 1
-9 -5 -4 380 814 1
5 -14 4 4 629 1
5 -14 4 243 648 1
5 -14 -4 5 752 1
9 -14 -4 4 752 1
5 -14 -4 644 669 1
-9 -5 4 5 746 1
-5 -9 4 5 871 1
-14 5 -4 5 757 1
-9 -5 -5 9 677 1
-5 -9 -5 1098 715 1
5 -14 5 8 639 1
5 -14 5 694 639 1
-9 -5 -5 104 844 1
5 -14 -5 8 764 1
9 -14 -5 1211 726 1
5 -14 -5 264 679 1
-9 -5 5 1086 749 1
-5 -9 5 1261 894 1
-9 -5 -6 1127 729 1
5 -14 6 239 582 1
-5 -9 -6 495 745 1
-9 -5 -6 503 844 1
5 -14 -6 823 792 1
9 -14 -6 1238 759 1
5 -14 -6 1088 703 1
-9 -5 6 522 765 1
-5 -9 6 883 930 1
-9 -5 -7 6 720 1
5 -14 7 6 545 1
-5 -9 -7 7 750 1
-9 -5 -7 717 862 1
5 -14 -7 61 813 1
9 -14 -7 1140 803 1
5 -14 -7 7 750 1
-9 -5 7 64 775 1
-5 -9 7 6 968 1
5 -14 8 88 503 1
-9 -5 -8 121 705 1
-5 -9 -8 787 773 1
-9 -5 -8 167 876 1
5 -14 -8 1 863 1
9 -14 -8 4 806 1
-9 -5 8 124 845 1
5 -14 -8 3 736 1
-5 -9 8 122 1043 1
5 -14 9 12 455 1
-9 -5 -9 113 723 1
-5 -9 -9 13 795 1
5 -14 -9 282 855 1
-9 -5 -9 13 882 1
-5 -9 -9 357 835 1
9 -14 -9 12 838 1
-9 -5 9 12 900 1
-5 -9 9 385 1075 1
5 -14 -9 26 785 1
-9 -5 -10 184 745 1
-5 -9 -10 239 798 1
5 -14 -10 116 857 1
-9 -5 -10 42 903 1
-5 -9 -10 403 874 1
9 -14 -10 677 850 1
-9 -5 10 45 932 1
-5 -9 10 99 1133 1
5 -14 -10 40 799 1
-4 -10 0 596 770 1
-4 -10 0 379 759 1
4 -14 0 114 752 1
4 -14 0 66 709 1
10 -14 0 339 729 1
-10 -4 0 0 797 1
-10 -4 -1 143 788 1
-4 -10 1 635 762 1
-4 -10 -1 143 738 1
-4 -10 -1 143 787 1
4 -14 1 574 740 1
4 -14 -1 140 751 1
4 -14 1 99 699 1
4 -14 -1 65 716 1
10 -14 1 607 735 1
10 -14 -1 144 715 1
-14 4 -1 101 700 1
-10 -4 1 341 754 1
-4 -10 2 228 817 1
-14 4 -2 465 732 1
-10 -4 -2 5 820 1
-4 -10 -2 5 767 1
-4 -10 -2 5 794 1
4 -14 2 4 718 1
4 -14 -2 1082 779 1
4 -14 2 9 679 1
4 -14 -2 527 710 1
10 -14 -2 4 732 1
-14 4 2 61 339 1
-10 -4 2 5 733 1
-4 -10 -3 3 750 1
-10 -4 -3 3 831 1
-14 4 -3 1625 743 1
4 -14 3 245 682 1
-4 -10 -3 1182 787 1
4 -14 3 548 716 1
4 -14 -3 324 777 1
10 -14 -3 2 736 1
4 -14 -3 562 704 1
-14 4 3 470 280 1
-10 -4 3 173 706 1
-4 -10 3 3 831 1
-10 -4 -4 3 699 1
-4 -10 -4 257 740 1
4 -14 4 3 662 1
-10 -4 -4 256 878 1
4 -14 4 3 700 1
-4 -10 -4 561 769 1
4 -14 -4 35 779 1
10 -14 -4 1 744 1
4 -14 -4 3 729 1
-14 4 4 185 237 1
-10 -4 4 32 678 1
-4 -10 4 2 853 1
-10 -4 -5 258 705 1
4 -14 5 205 695 1
4 -14 5 329 605 1
-4 -10 -5 410 748 1
-10 -4 -5 92 868 1
4 -14 -5 89 795 1
-4 -10 -5 91 779 1
10 -14 -5 111 782 1
4 -14 -5 89 744 1
-14 4 5 10 203 1
-10 -4 5 166 691 1
-4 -10 5 532 910 1
4 -14 6 22 684 1
-10 -4 -6 18 741 1
4 -14 6 118 573 1
-4 -10 -6 664 766 1
-10 -4 -6 18 872 1
4 -14 -6 460 807 1
-4 -10 -6 365 823 1
10 -14 -6 1526 781 1
4 -14 -6 823 761 1
-10 -4 6 354 675 1
-4 -10 6 162 936 1
4 -14 7 739 668 1
4 -14 7 6 512 1
-10 -4 -7 254 739 1
-4 -10 -7 5 771 1
-10 -4 -7 5 913 1
4 -14 -7 7 829 1
10 -14 -7 4 806 1
4 -14 -7 216 777 1
-10 -4 7 6 695 1
-4 -10 7 742 991 1
4 -14 8 278 459 1
-10 -4 -8 1 731 1
-4 -10 -8 1 797 1
4 -14 -8 0 851 1
-10 -4 -8 441 920 1
10 -14 -8 1 837 1
4 -14 -8 0 798 1
-10 -4 8 1 731 1
-4 -10 8 1 1042 1
4 -14 9 86 406 1
-10 -4 -9 17 728 1
-4 -10 -9 1 821 1
4 -14 -9 333 891 1
-10 -4 -9 1 931 1
10 -14 -9 20 860 1
-10 -4 9 1 772 1
4 -14 -9 1 821 1
-4 -10 9 169 1079 1
-14 3 0 2 662 1
-3 -11 0 722 800 1
3 -14 0 711 778 1
3 -14 0 333 765 1
-14 3 0 426 528 1
-11 -3 0 2 783 1
-11 -3 -1 25 811 1
-3 -11 1 147 805 1
-3 -11 -1 12 786 1
3 -14 1 74 774 1
-14 3 -1 25 659 1
3 -14 -1 371 803 1
3 -14 1 24 748 1
3 -14 -1 300 764 1
11 -14 -1 8 781 1
-14 3 1 23 441 1
-11 -3 1 393 687 1
-14 3 1 108 671 1
-3 -11 2 726 827 1
-3 -11 2 59 837 1
-11 -3 -2 9 870 1
3 -14 2 10 728 1
-3 -11 -2 143 794 1
3 -14 2 10 767 1
3 -14 -2 310 821 1
-14 3 -2 667 702 1
3 -14 -2 902 767 1
11 -14 -2 296 788 1
-14 3 2 10 368 1
-11 -3 2 636 679 1
-3 -11 3 0 828 1
-3 -11 3 0 821 1
-11 -3 -3 223 916 1
-3 -11 -3 424 785 1
3 -14 3 637 692 1
3 -14 3 0 766 1
3 -14 -3 600 823 1
-3 -11 -3 155 765 1
3 -14 -3 832 753 1
11 -14 -3 0 791 1
-14 3 3 0 310 1
-11 -3 3 596 634 1
-11 -3 -4 770 733 1
3 -14 4 148 666 1
3 -14 4 419 782 1
-3 -11 -4 3 784 1
-11 -3 -4 978 925 1
3 -14 -4 3 819 1
-3 -11 -4 1104 797 1
3 -14 -4 1106 787 1
11 -14 -4 2413 814 1
-14 3 4 3 259 1
-11 -3 4 511 604 1
-3 -11 4 3 890 1
-11 -3 -5 902 731 1
3 -14 5 8 765 1
3 -14 5 8 635 1
-3 -11 -5 0 788 1
-11 -3 -5 368 947 1
3 -14 -5 8 843 1
-3 -11 -5 7 835 1
11 -14 -5 8 825 1
3 -14 -5 1062 789 1
-14 3 5 8 234 1
-11 -3 5 305 584 1
-3 -11 5 6 898 1
3 -14 6 314 760 1
-11 -3 -6 1670 749 1
3 -14 6 43 564 1
-3 -11 -6 1025 815 1
-11 -3 -6 126 921 1
3 -14 -6 1253 853 1
-3 -11 -6 1 835 1
11 -14 -6 1262 848 1
3 -14 -6 861 829 1
-14 3 6 213 218 1
-11 -3 6 440 573 1
-3 -11 6 1 963 1
3 -14 7 1 733 1
3 -14 7 3 508 1
-11 -3 -7 706 752 1
-3 -11 -7 3 825 1
3 -14 -7 3 864 1
-11 -3 -7 4 969 1
-3 -11 -7 3 843 1
11 -14 -7 10 850 1
3 -14 -7 3 814 1
-11 -3 7 1146 586 1
-3 -11 7 4 1002 1
3 -14 8 111 440 1
-3 -11 -8 1658 857 1
3 -14 -8 0 873 1
-11 -3 -8 2008 987 1
-3 -11 -8 0 874 1
11 -14 -8 396 860 1
3 -14 -8 404 840 1
-11 -3 8 471 609 1
-3 -11 8 520 1055 1
3 -14 8 0 703 1
-2 -12 0 7 866 1
-2 -12 0 496 821 1
2 -14 0 1220 845 1
2 -14 0 761 799 1
-12 -2 0 7 414 1
-14 2 0 7 638 1
-14 2 0 125 549 1
-12 -2 0 187 735 1
-14 2 -1 995 636 1
-12 -2 -1 65 798 1
-2 -12 1 62 846 1
-2 -12 1 62 838 1
-2 -12 -1 65 857 1
2 -14 1 65 807 1
2 -14 -1 127 845 1
-2 -12 -1 763 812 1
-14 2 1 52 634 1
2 -14 1 194 803 1
-12 -2 -1 256 399 1
2 -14 -1 57 812 1
-14 2 -1 56 641 1
-12 -2 1 109 432 1
-14 2 1 52 465 1
-12 -2 1 62 654 1
-12 -2 2 4 465 1
-14 2 2 12 656 1
-2 -12 2 1260 826 1
-2 -12 2 359 849 1
-12 -2 -2 5 871 1
-14 2 -2 513 711 1
2 -14 2 3 783 1
2 -14 2 690 815 1
2 -14 -2 4 870 1
-2 -12 -2 1092 804 1
2 -14 -2 32 805 1
-12 -2 -2 5 384 1
-14 2 2 3 402 1
-12 -2 2 254 613 1
-2 -12 3 2 876 1
-2 -12 3 804 830 1
2 -14 3 1 738 1
-12 -2 -3 2 926 1
2 -14 3 1 820 1
2 -14 -3 590 882 1
-2 -12 -3 3 805 1
2 -14 -3 1 794 1
12 -14 -3 3 842 1
-14 2 3 216 342 1
-12 -2 3 877 572 1
-14 2 3 381 644 1
-2 -12 4 7 888 1
-12 -2 -4 6 746 1
-2 -12 4 539 836 1
2 -14 4 254 835 1
2 -14 4 4 696 1
-12 -2 -4 895 952 1
2 -14 -4 4 878 1
-2 -12 -4 6 818 1
2 -14 -4 95 826 1
12 -14 -4 5 865 1
-14 2 4 262 299 1
-12 -2 4 481 526 1
-2 -12 5 0 791 1
-12 -2 -5 0 761 1
2 -14 5 0 820 1
2 -14 5 590 643 1
-2 -12 -5 1449 829 1
-12 -2 -5 410 980 1
2 -14 -5 0 886 1
-2 -12 -5 0 847 1
2 -14 -5 239 827 1
12 -14 -5 0 888 1
-14 2 5 265 267 1
-12 -2 5 173 502 1
-2 -12 5 725 915 1
2 -14 6 272 818 1
2 -14 6 289 570 1
-2 -12 -6 276 841 1
2 -14 -6 1138 879 1
-12 -2 -6 2 1008 1
-2 -12 -6 604 832 1
2 -14 -6 1 844 1
12 -14 -6 275 898 1
-14 2 6 1 251 1
-12 -2 6 166 490 1
-2 -12 6 205 957 1
-14 1 0 7 588 1
-13 -1 0 302 686 1
-1 -13 0 7 895 1
1 -14 0 7 874 1
-1 -13 0 7 841 1
1 -14 0 560 837 1
-14 1 0 7 603 1
-13 -1 0 7 483 1
-13 -1 -1 69 758 1
-14 1 -1 200 669 1
-1 -13 1 336 889 1
-1 -13 -1 69 886 1
1 -14 1 69 862 1
-1 -13 1 14 837 1
1 -14 -1 70 891 1
1 -14 1 960 858 1
-1 -13 -1 1110 829 1
1 -14 -1 70 839 1
-13 -1 1 223 519 1
-14 1 1 70 616 1
-14 1 1 4 504 1
-13 -1 1 32 601 1
-1 -13 2 442 863 1
-13 -1 -2 0 845 1
-14 1 -2 80 747 1
-1 -13 2 84 873 1
1 -14 2 611 823 1
-1 -13 -2 736 883 1
1 -14 2 70 853 1
1 -14 -2 1001 896 1
-1 -13 -2 161 822 1
-14 1 2 80 622 1
1 -14 -2 0 859 1
-14 1 2 7 433 1
-13 -1 2 612 542 1
-1 -13 3 58 818 1
-1 -13 3 574 893 1
1 -14 3 297 780 1
1 -14 3 87 873 1
-13 -1 -3 56 922 1
-14 1 -3 208 807 1
-1 -13 -3 4 872 1
1 -14 -3 526 905 1
-1 -13 -3 56 848 1
1 -14 -3 58 857 1
-14 1 3 59 374 1
-13 -1 3 471 485 1
-1 -13 4 102 913 1
-1 -13 4 28 794 1
1 -14 4 32 882 1
1 -14 4 141 723 1
-13 -1 -4 748 969 1
1 -14 -4 249 948 1
-1 -13 -4 29 862 1
1 -14 -4 30 853 1
-14 1 4 360 337 1
-13 -1 4 80 441 1
-8 -7 0 1194 878 1
-7 -8 0 190 865 1
7 -15 0 913 726 1
8 -15 0 745 729 1
-8 -7 1 2477 890 1
-7 -8 1 1108 875 1
-7 -8 -1 99 773 1
-8 -7 -1 1207 879 1
-7 -8 -1 452 855 1
7 -15 1 1131 725 1
7 -15 -1 22 714 1
8 -15 1 514 730 1
8 -15 -1 1151 747 1
-8 -7 -2 107 767 1
-7 -8 -2 8 768 1
-8 -7 -2 9 894 1
-7 -8 -2 8 883 1
7 -15 2 722 720 1
8 -15 2 483 742 1
7 -15 -2 5 741 1
8 -15 -2 86 752 1
-8 -7 2 59 857 1
-8 -7 -3 125 755 1
-7 -8 -3 1133 736 1
-8 -7 -3 125 885 1
-7 -8 -3 127 897 1
7 -15 3 134 725 1
8 -15 3 1880 754 1
7 -15 -3 133 755 1
8 -15 -3 131 768 1
-8 -7 3 126 862 1
-8 -7 -4 1 738 1
-7 -8 -4 310 774 1
-8 -7 -4 1 908 1
-7 -8 -4 205 874 1
7 -15 4 1 741 1
8 -15 4 1 777 1
7 -15 -4 1 791 1
8 -15 -4 2 761 1
-8 -7 4 601 893 1
-8 -7 -5 786 778 1
-7 -8 -5 1252 785 1
7 -15 5 748 744 1
-8 -7 -5 942 910 1
-7 -8 -5 1222 904 1
7 -15 -5 2125 816 1
8 -15 -5 2662 797 1
-8 -7 5 31 925 1
-8 -7 -6 8 774 1
-7 -8 -6 75 780 1
-8 -7 -6 942 903 1
-7 -8 -6 10 901 1
7 -15 -6 1343 815 1
8 -15 -6 96 788 1
-8 -7 6 335 968 1
7 -15 -6 595 685 1
-8 -7 -7 1240 799 1
-7 -8 -7 0 802 1
-8 -7 -7 407 907 1
-7 -8 -7 1130 918 1
7 -15 -7 1560 841 1
8 -15 -7 0 828 1
-8 -7 7 623 1000 1
7 -15 -7 853 703 1
-9 -6 0 846 858 1
-6 -9 0 497 790 1
6 -15 0 16 728 1
9 -15 0 905 759 1
-6 -9 -1 167 787 1
-9 -6 -1 1077 877 1
6 -15 1 395 723 1
6 -15 -1 28 749 1
9 -15 1 20 765 1
9 -15 -1 203 740 1
-9 -6 1 45 845 1
-9 -6 -2 59 756 1
-6 -9 -2 12 747 1
-9 -6 -2 1355 895 1
6 -15 2 125 721 1
6 -15 -2 1033 749 1
9 -15 2 806 793 1
9 -15 -2 70 755 1
6 -15 -2 10 661 1
-9 -6 2 12 833 1
-9 -6 -3 8 770 1
-6 -9 -3 9 772 1
-9 -6 -3 8 915 1
6 -15 3 103 719 1
6 -15 -3 1160 781 1
9 -15 -3 10 756 1
6 -15 -3 7 652 1
-9 -6 3 9 841 1
-6 -9 3 21 910 1
-9 -6 -4 0 757 1
-6 -9 -4 0 779 1
-9 -6 -4 0 915 1
6 -15 4 0 712 1
6 -15 -4 0 778 1
9 -15 -4 1136 758 1
6 -15 -4 857 689 1
-9 -6 4 195 845 1
-6 -9 4 0 930 1
-9 -6 -5 410 775 1
-6 -9 -5 370 783 1
6 -15 5 0 684 1
-9 -6 -5 356 928 1
-6 -9 -5 321 838 1
6 -15 -5 0 824 1
9 -15 -5 631 779 1
6 -15 -5 0 712 1
-9 -6 5 0 850 1
-6 -9 5 0 967 1
-9 -6 -6 20 792 1
-6 -9 -6 20 781 1
6 -15 6 20 652 1
-9 -6 -6 20 908 1
-6 -9 -6 1373 901 1
6 -15 -6 20 837 1
9 -15 -6 14 781 1
6 -15 -6 20 724 1
-9 -6 6 801 867 1
-6 -9 6 1270 1019 1
-9 -6 -7 194 791 1
-6 -9 -7 4 796 1
6 -15 7 6 619 1
-9 -6 -7 4 927 1
-6 -9 -7 4 881 1
6 -15 -7 354 853 1
9 -15 -7 240 810 1
-9 -6 7 4 904 1
6 -15 -7 160 736 1
-6 -9 7 49 1058 1
-10 -5 0 84 842 1
-5 -10 0 911 830 1
-5 -10 0 0 848 1
5 -15 0 273 753 1
5 -15 0 0 720 1
10 -15 0 0 782 1
-5 -10 1 0 852 1
-5 -10 1 0 860 1
-10 -5 -1 1285 878 1
-5 -10 -1 0 778 1
-5 -10 -1 203 854 1
5 -15 1 0 765 1
5 -15 -1 579 769 1
5 -15 1 0 711 1
10 -15 -1 0 786 1
5 -15 -1 0 731 1
-10 -5 1 0 829 1
-5 -10 2 652 890 1
-5 -10 -2 823 802 1
-10 -5 -2 92 894 1
-5 -10 -2 24 869 1
5 -15 2 737 740 1
5 -15 -2 20 796 1
10 -15 -2 802 783 1
5 -15 -2 324 728 1
-10 -5 2 937 786 1
-10 -5 -3 312 763 1
-5 -10 -3 32 796 1
-10 -5 -3 32 916 1
5 -15 3 281 718 1
-5 -10 -3 684 845 1
5 -15 -3 211 796 1
10 -15 -3 28 779 1
5 -15 -3 151 751 1
-10 -5 3 33 782 1
-5 -10 3 0 906 1
-10 -5 -4 627 764 1
-5 -10 -4 1 795 1
-10 -5 -4 1 933 1
5 -15 4 46 669 1
5 -15 -4 114 816 1
10 -15 -4 32 801 1
5 -15 -4 1 741 1
-10 -5 4 561 773 1
-5 -10 4 990 948 1
-10 -5 -5 877 767 1
-5 -10 -5 897 819 1
5 -15 5 176 635 1
-10 -5 -5 1 933 1
5 -15 -5 745 840 1
10 -15 -5 407 818 1
5 -15 -5 33 762 1
-10 -5 5 36 747 1
-5 -10 5 36 970 1
-10 -5 -6 7 792 1
-5 -10 -6 6 825 1
5 -15 6 321 602 1
-10 -5 -6 172 949 1
5 -15 -6 353 861 1
10 -15 -6 375 814 1
5 -15 -6 823 784 1
-10 -5 6 985 782 1
-5 -10 6 69 1042 1
-11 -4 0 62 821 1
-4 -11 0 127 879 1
4 -15 0 16 824 1
4 -15 0 16 785 1
-11 -4 -1 35 872 1
-4 -11 1 36 883 1
-4 -11 -1 35 843 1
-4 -11 -1 35 866 1
4 -15 1 1278 801 1
4 -15 -1 29 835 1
4 -15 1 246 794 1
4 -15 -1 801 785 1
-11 -4 1 181 783 1
-4 -11 2 362 889 1
-11 -4 -2 194 914 1
-4 -11 -2 0 825 1
4 -15 2 0 762 1
-4 -11 -2 16 853 1
4 -15 -2 353 839 1
4 -15 2 896 773 1
4 -15 -2 347 798 1
11 -15 -2 453 849 1
-11 -4 2 0 735 1
-4 -11 3 587 935 1
-11 -4 -3 605 776 1
-4 -11 3 758 908 1
-4 -11 -3 678 820 1
-11 -4 -3 1091 958 1
4 -15 3 297 720 1
-4 -11 -3 502 859 1
4 -15 3 314 753 1
4 -15 -3 1 867 1
11 -15 -3 1026 860 1
4 -15 -3 510 786 1
-11 -4 3 1 708 1
-11 -4 -4 88 776 1
-4 -11 -4 1100 841 1
4 -15 4 69 683 1
-11 -4 -4 40 956 1
-4 -11 -4 4 841 1
4 -15 -4 69 861 1
11 -15 -4 56 861 1
4 -15 -4 69 818 1
-11 -4 4 62 689 1
-4 -11 4 63 969 1
-12 -3 0 10 803 1
-3 -12 0 793 889 1
3 -15 0 10 860 1
3 -15 0 38 838 1
-12 -3 0 10 370 1
-12 -3 -1 266 832 1
-3 -12 1 1 887 1
-3 -12 1 169 886 1
-3 -12 -1 1206 886 1
3 -15 1 1 842 1
3 -15 -1 1 891 1
3 -15 1 1 839 1
3 -15 -1 1 845 1
-12 -3 1 246 734 1
