#------------------------------------------------------------------------------
#$Date: 2019-11-03 16:13:46 +0200 (Sun, 03 Nov 2019) $
#$Revision: 221835 $
#$URL: file:///home/coder/svn-repositories/cod/cif/4/12/87/4128771.cif $
#------------------------------------------------------------------------------
#
# This file is available in the Crystallography Open Database (COD),
# http://www.crystallography.net/
#
# All data on this site have been placed in the public domain by the
# contributors.
#
data_4128771
loop_
_publ_author_name
'Corella-Ochoa, M Nieves'
'Tapia, Jes\'us B'
'Rubin, Heather N.'
'Lillo, Vanesa'
'Gonz\'alez-Cobos, Jes\'us'
'N\'u\~nez-Rico, Jos\'e Luis'
'Balestra, Salvador R. G.'
'Almora-Barrios, Neyvis'
'Lled\'os, Marina'
'G\"uell-Bara, Arnau'
'Cabezas-Gim\'enez, Juanjo'
'Escudero-Ad\'an, Eduardo C'
'Vidal-Ferran, Anton'
'Calero, Sof\'ia'
'Reynolds, Melissa'
'Mart\'i-Gastaldo, Carlos'
'Gal\'an-Mascar\'os, Jos\'e Ram\'on'
_publ_section_title
;
 Homochiral Metal-Organic Frameworks for Enantioselective Separations in
 Liquid Chromatography.
;
_journal_issue                   36
_journal_name_full               'Journal of the American Chemical Society'
_journal_page_first              14306
_journal_page_last               14316
_journal_paper_doi               10.1021/jacs.9b06500
_journal_volume                  141
_journal_year                    2019
_chemical_absolute_configuration ad
_chemical_formula_sum            'C16 H16 Cu N10 O4'
_chemical_formula_weight         475.93
_space_group_IT_number           212
_space_group_name_Hall           'P 4acd 2ab 3'
_space_group_name_H-M_alt        'P 43 3 2'
_symmetry_cell_setting           cubic
_symmetry_space_group_name_H-M   'P 43 3 2'
_atom_sites_solution_hydrogens   geom
_audit_creation_method           SHELXL-2014/6
_cell_angle_alpha                90
_cell_angle_beta                 90
_cell_angle_gamma                90
_cell_formula_units_Z            12
_cell_length_a                   20.262(2)
_cell_length_b                   20.262(2)
_cell_length_c                   20.262(2)
_cell_measurement_reflns_used    2748
_cell_measurement_temperature    100(2)
_cell_measurement_theta_max      24.15
_cell_measurement_theta_min      2.25
_cell_volume                     8318.5(14)
_computing_cell_refinement       'Bruker APEX2 v2014.9-0'
_computing_data_collection       'Bruker APEX2 v2014.9-0'
_computing_data_reduction        'Bruker SAINT V7.60A'
_computing_molecular_graphics    'Bruker SHELXTL'
_computing_publication_material  'Bruker SHELXTL'
_computing_structure_refinement  'SHELXL-2014 (Sheldrick, 2014)'
_computing_structure_solution    'SHELXS-2014 (Sheldrick, 2014)'
_diffrn_ambient_temperature      100(2)
_diffrn_detector_area_resol_mean 512
_diffrn_detector_type            '4K CCD area detector APEX II'
_diffrn_measured_fraction_theta_full 0.995
_diffrn_measured_fraction_theta_max 0.993
_diffrn_measurement_device_type  'APEX DUO Kappa 4-axis goniometer'
_diffrn_measurement_method
;
 Fullsphere data collection, phi and omega scans
;
_diffrn_measurement_specimen_support 'magnetic support with MicroMount'
_diffrn_radiation_monochromator  'Quazar MX Multilayer Optics'
_diffrn_radiation_type           MoK\a
_diffrn_radiation_wavelength     0.71073
_diffrn_reflns_Laue_measured_fraction_full 0.995
_diffrn_reflns_Laue_measured_fraction_max 0.993
_diffrn_reflns_limit_k_max       20
_diffrn_reflns_limit_k_min       -14
_diffrn_reflns_limit_l_max       25
_diffrn_reflns_limit_l_min       -5
_diffrn_reflns_point_group_measured_fraction_full 0.997
_diffrn_reflns_point_group_measured_fraction_max 0.995
_diffrn_reflns_theta_full        25.242
_diffrn_reflns_theta_max         27.108
_diffrn_reflns_theta_min         1.741
_diffrn_source                   'Microfocus source E025 IuS'
_diffrn_source_current           0.6
_diffrn_source_power             50
_diffrn_source_size              '0.2 mm x 0.2 mm fine focus'
_diffrn_source_type              'Bruker APEX DUO'
_exptl_absorpt_coefficient_mu    0.822
_exptl_absorpt_correction_T_max  0.976
_exptl_absorpt_correction_T_min  0.899
_exptl_absorpt_correction_type   empirical
_exptl_absorpt_process_details
; 
 SADABS Version 2008/1 Bruker-Nonius
 Blessing, Acta Cryst. (1995) A51 33-38
;
_exptl_crystal_colour            blue
_exptl_crystal_density_diffrn    1.140
_exptl_crystal_description       block
_exptl_crystal_F_000             2916
_exptl_crystal_size_max          0.20
_exptl_crystal_size_mid          0.20
_exptl_crystal_size_min          0.20
_refine_diff_density_max         0.185
_refine_diff_density_min         -0.163
_refine_diff_density_rms         0.040
_refine_ls_abs_structure_details
;
 Flack x determined using 948 quotients [(I+)-(I-)]/[(I+)+(I-)]
 (Parsons, Flack and Wagner, Acta Cryst. B69 (2013) 249-259).
;
_refine_ls_abs_structure_Flack   -0.016(9)
_refine_ls_extinction_method     none
_refine_ls_goodness_of_fit_ref   1.076
_refine_ls_hydrogen_treatment    constr
_refine_ls_matrix_type           full
_refine_ls_number_parameters     141
_refine_ls_number_reflns         3063
_refine_ls_number_restraints     96
_refine_ls_restrained_S_all      1.069
_refine_ls_R_factor_all          0.0444
_refine_ls_R_factor_gt           0.0333
_refine_ls_shift/su_max          0.000
_refine_ls_shift/su_mean         0.000
_refine_ls_structure_factor_coef Fsqd
_refine_ls_weighting_details
'w=1/[\s^2^(Fo^2^)+(0.0396P)^2^+1.3963P] where P=(Fo^2^+2Fc^2^)/3'
_refine_ls_weighting_scheme      calc
_refine_ls_wR_factor_gt          0.0812
_refine_ls_wR_factor_ref         0.0854
_reflns_Friedel_coverage         0.668
_reflns_Friedel_fraction_full    1.000
_reflns_Friedel_fraction_max     0.998
_reflns_number_gt                2612
_reflns_number_total             3063
_reflns_threshold_expression     'I > 2\s(I)'
_cod_data_source_file            ja9b06500_si_003.cif
_cod_data_source_block           TAMOF1_403K
_cod_depositor_comments
;
The following automatic conversions were performed:

data item '_symmetry_cell_setting' value 'Cubic' was changed to
'cubic' in accordance with the
/home/data/users/saulius/crontab/automatic-downloads/current/ACS/lib/dictionaries/cif_core.dic
dictionary named 'cif_core.dic' version 2.4.2 last updated on
2011-04-26.

Automatic conversion script
Id: cif_fix_values 6909 2019-04-08 15:41:33Z antanas 
;
_cod_original_cell_volume        8319(3)
_cod_original_sg_symbol_H-M      P4(3)32
_cod_database_code               4128771
_shelx_space_group_comment
;
The symmetry employed for this shelxl refinement is uniquely defined
by the following loop, which should always be used as a source of
symmetry information in preference to the above space-group names.
They are only intended as comments.
;
_shelx_estimated_absorpt_t_min   0.960
_shelx_estimated_absorpt_t_max   0.976
_shelxl_version_number           2014/6
_shelx_res_file
;
TITL mo_NCII143B2_403K_0m_a.res in P4(3)32
REM Old TITL mo_NCII143B2_403K_0m in P4(3)32
REM SHELXT solution in P4(3)32
REM R1 0.122,  Rweak 0.036,  Alpha 0.008,  Orientation as input
REM Flack x = -0.023 ( 0.013 ) from Parsons' quotients
REM Formula found by SHELXT:  C22 N6 O2 Cu
CELL  0.71073  20.2620  20.2620  20.2620   90.000   90.000   90.000
ZERR   12.000   0.0024   0.0024   0.0024    0.000    0.000    0.000
LATT -1
SYMM 1/2-X, -Y, 1/2+Z
SYMM -X, 1/2+Y, 1/2-Z
SYMM 1/2+X, 1/2-Y, -Z
SYMM Z, X, Y
SYMM 1/2+Z, 1/2-X, -Y
SYMM 1/2-Z, -X, 1/2+Y
SYMM -Z, 1/2+X, 1/2-Y
SYMM Y, Z, X
SYMM -Y, 1/2+Z, 1/2-X
SYMM 1/2+Y, 1/2-Z, -X
SYMM 1/2-Y, -Z, 1/2+X
SYMM 1/4+Y, 3/4+X, 3/4-Z
SYMM 1/4-Y, 1/4-X, 1/4-Z
SYMM 3/4+Y, 3/4-X, 1/4+Z
SYMM 3/4-Y, 1/4+X, 3/4+Z
SYMM 1/4+X, 3/4+Z, 3/4-Y
SYMM 3/4-X, 1/4+Z, 3/4+Y
SYMM 1/4-X, 1/4-Z, 1/4-Y
SYMM 3/4+X, 3/4-Z, 1/4+Y
SYMM 1/4+Z, 3/4+Y, 3/4-X
SYMM 3/4+Z, 3/4-Y, 1/4+X
SYMM 3/4-Z, 1/4+Y, 3/4+X
SYMM 1/4-Z, 1/4-Y, 1/4-X
SFAC C H N O CU
UNIT 192 192 120 48 12
TEMP -173.150
SIZE 0.03 0.05 0.05
damp 100
L.S. 15
ACTA
CONF
REM EQIV $1 1/2-Y,-Z, -1/2+X
REM DFIX -2.12 0.01 H1WA H3WA
REM DFIX -2.12 0.01 H1WA H3WB_$1
LIST 4
FMAP 2
PLAN 20
ISOR 0.01
WGHT    0.039600    1.396300
FVAR       0.09623
CU01  5    0.625000    0.091007    0.158993    10.50000    0.04130    0.03695 =
         0.03695    0.00517    0.01185    0.01185
O1    4    0.388912    0.176658    0.295797    11.00000    0.07488    0.04878 =
         0.04887    0.00171    0.00335   -0.01093
O2    4    0.357035    0.147657    0.195292    11.00000    0.07931    0.04118 =
         0.06957   -0.00946   -0.02277   -0.00509
N1    3    0.430174    0.297042    0.256269    11.00000    0.03273    0.02907 =
         0.03774   -0.00041   -0.00701    0.00492
N2    3    0.508383    0.328148    0.322803    11.00000    0.03675    0.03262 =
         0.04154    0.00682   -0.00894   -0.00050
N3    3    0.465856    0.380871    0.314870    11.00000    0.04573    0.03200 =
         0.05115   -0.00150   -0.00844    0.00572
N4    3    0.568643    0.167161    0.137522    11.00000    0.05288    0.04416 =
         0.05026    0.01010    0.01647    0.01746
N5    3    0.535967    0.268817    0.123027    11.00000    0.06377    0.03401 =
         0.05580    0.00765    0.01079    0.01488
AFIX  43
H5    2    0.537466    0.311618    0.115811    11.00000   -1.20000
AFIX   0
C1    1    0.387825    0.258898    0.211123    11.00000    0.03133    0.03557 =
         0.04691   -0.00798   -0.01054    0.00904
AFIX  13
H1    2    0.343545    0.280692    0.211305    11.00000   -1.20000
AFIX   0
C2    1    0.486374    0.279138    0.287090    11.00000    0.03496    0.03128 =
         0.05059    0.00367   -0.00847    0.00588
AFIX  43
H2    2    0.506916    0.237154    0.283399    11.00000   -1.20000
AFIX   0
C3    1    0.419987    0.360376    0.274790    11.00000    0.03693    0.03060 =
         0.04669   -0.00245   -0.00516    0.00704
AFIX  43
H3    2    0.383901    0.386606    0.260367    11.00000   -1.20000
AFIX   0
C4    1    0.413405    0.262355    0.140561    11.00000    0.05216    0.04042 =
         0.04325    0.00020   -0.01392    0.01570
AFIX  23
H4A   2    0.382421    0.238798    0.111025    11.00000   -1.20000
H4B   2    0.415164    0.309066    0.126338    11.00000   -1.20000
AFIX   0
C5    1    0.480489    0.232480    0.134206    11.00000    0.05030    0.04158 =
         0.03331    0.00025   -0.00165    0.01130
C6    1    0.501526    0.169409    0.143482    11.00000    0.04987    0.03979 =
         0.05123    0.00432    0.00493    0.01089
AFIX  43
H6    2    0.473875    0.132676    0.152668    11.00000   -1.20000
AFIX   0
C7    1    0.587498    0.228101    0.124957    11.00000    0.05558    0.04654 =
         0.06265    0.00803    0.01716    0.01047
AFIX  43
H7    2    0.631987    0.241254    0.118169    11.00000   -1.20000
AFIX   0
C8    1    0.377511    0.187599    0.237420    11.00000    0.03021    0.03662 =
         0.05537   -0.00683   -0.00002    0.00453
HKLF 4
REM  mo_NCII143B2_403K_0m_a.res in P4(3)32
REM R1 =  0.0333 for    2612 Fo > 4sig(Fo)  and  0.0444 for all    3063 data
REM    141 parameters refined using     96 restraints
END
WGHT      0.0396      1.3963
REM Highest difference peak  0.185,  deepest hole -0.163,  1-sigma level  0.040
Q1    1   0.7559  0.2559  0.2441  10.33333  0.05    0.18
Q2    1   0.4299  0.4299  0.4299  10.33333  0.05    0.17
Q3    1   0.6616  0.1287  0.1678  11.00000  0.05    0.16
Q4    1   0.5493  0.3328  0.3403  11.00000  0.05    0.16
Q5    1   0.7280  0.2029  0.2341  11.00000  0.05    0.16
Q6    1   0.7242  0.2030  0.2244  11.00000  0.05    0.15
Q7    1   0.4924  0.3422  0.3224  11.00000  0.05    0.15
Q8    1   0.4595  0.3611  0.3421  11.00000  0.05    0.15
Q9    1   0.4346  0.3300  0.2467  11.00000  0.05    0.15
Q10   1   0.4798  0.4586  0.4518  11.00000  0.05    0.15
Q11   1   0.4799  0.3599  0.3199  11.00000  0.05    0.14
Q12   1   0.4735  0.3540  0.3333  11.00000  0.05    0.14
Q13   1   0.5940  0.0508  0.1569  11.00000  0.05    0.14
Q14   1   0.3188  0.1250 -0.0688  10.50000  0.05    0.14
Q15   1   0.4158  0.1705  0.2784  11.00000  0.05    0.14
Q16   1   0.3797  0.2244  0.2211  11.00000  0.05    0.13
Q17   1   0.4889  0.4806  0.4227  11.00000  0.05    0.13
Q18   1   0.4397  0.3702  0.3051  11.00000  0.05    0.13
Q19   1   0.5039  0.3153  0.3111  11.00000  0.05    0.13
Q20   1   0.5900  0.1402  0.1598  11.00000  0.05    0.13
;
_shelx_res_checksum              72554
_shelx_hkl_file
;
   0   0  -1    0.01    0.01
   0   0   1    0.01    0.01
   1  -1  -1   22.15    0.63
   0   0  -2   -1.48    0.02
   0   0   2   -1.39    0.05
   0  -1   2   15.72    0.47
   0   1   2   15.43    0.48
   0  -2  -1   16.30    0.45
   0  -2   1   15.01    0.42
   0   2  -1   16.21    0.42
   0   2   1   15.55    0.45
   1   0   2   15.42    0.48
  -1  -1   2  275.63    6.76
  -1   1  -2  278.00    6.75
  -1   1   2  272.82    6.77
  -1   2   1  270.26    6.73
   1  -2  -1  253.28    6.73
   1  -1  -2  276.09    6.77
   1  -1   2  274.33    6.75
   1   1  -2  274.16    6.76
   1   1   2  275.18    6.77
   0  -2  -2  522.36   12.86
   0  -2   2  514.70   12.84
   0   2  -2  523.04   12.84
   0   2   2  524.54   12.87
  -1   2   2    4.53    0.22
   1  -2   2    3.50    0.18
   1   2  -2    3.82    0.19
   1   2   2    4.61    0.22
   2  -2  -2  755.50   18.63
   0   0  -3    0.06    0.05
   0   0   3   -0.04    0.08
   0   3   0   -0.01    0.03
   0  -1   3   60.69    1.61
   0   1  -3   60.37    1.61
   0   1   3   63.58    1.63
   1  -3   0   61.00    1.53
   1   0   3   59.72    1.62
   0   3   1   61.85    1.56
  -1   0   3   63.17    1.63
   0  -3  -1   56.70    1.55
   0   3  -1   61.85    1.52
   1   1   3  624.10   15.10
   1   1  -3  620.55   15.09
   1  -1   3  605.83   15.08
  -1  -1   3  608.96   15.08
  -1   1  -3  588.31   15.07
  -1   1   3  613.94   15.10
  -1   3   1  626.50   15.07
   1  -3  -1  593.94   15.02
   0  -2   3   69.38    1.80
   0   2  -3   67.94    1.80
   0   2   3   69.24    1.83
   0   3  -2   67.80    1.75
   0   3   2   71.18    1.80
   0  -3  -2   68.32    1.79
   0  -3   2   68.52    1.75
   1   2  -3    2.47    0.20
   1   3   2    2.01    0.17
  -1   2   3    1.92    0.19
   1  -2   3    2.24    0.18
   1  -3  -2    2.47    0.18
   1   2   3    0.28    0.12
  -2   1   3    0.33    0.12
  -1   3   2    0.41    0.11
  -1  -2   3    0.37    0.12
   1  -3   2    0.38    0.09
   1   3  -2    0.55    0.10
  -1   2  -3    0.45    0.12
  -2   2   3  501.97   12.65
   2  -3  -2  509.28   12.61
   2  -2   3  518.45   12.62
  -1  -3   3  869.74   21.76
  -1   3  -3  894.19   21.75
  -1   3   3  889.50   21.79
   1  -3   3  886.77   21.75
   1   3  -3  893.40   21.76
   1   3   3  867.17   21.80
  -2   3   3  169.17    4.33
   2  -3   3  171.21    4.29
   0   0   4  971.66   24.34
   0   4   0 1000.00   24.27
   0  -1   4   33.37    0.98
   0   1   4   35.83    1.00
   1  -4   0   33.47    0.86
   1   0   4   32.44    0.99
   0   4   1   32.13    0.89
   0  -4  -1   33.38    0.89
  -1  -1   4    8.40    0.37
   1  -4  -1    8.50    0.28
  -1   4   1    7.62    0.28
   1  -1   4    8.31    0.36
  -1   1   4    7.45    0.37
   0  -4  -2  206.28    5.27
   0   2   4  204.18    5.34
  -2   0   4  211.43    5.35
   0  -2   4  211.40    5.31
   0   4  -2  212.70    5.22
   0   4   2  212.53    5.28
   2   0   4  216.16    5.35
   1  -4  -2  311.97    7.85
  -1   2   4  314.42    7.92
   1  -2   4  317.10    7.89
  -2  -1   4  312.33    7.92
   2   1   4  315.71    7.93
   1   4   2  322.10    7.87
  -2   1   4  320.16    7.99
  -1   4   2  321.91    7.92
   2  -1   4  311.87    7.97
   2  -4  -1  323.48    7.89
  -1  -2   4  320.12    7.96
   1  -4   2  315.16    7.86
   1   2   4  313.80    7.98
  -2   4   2   45.07    1.23
  -2   2   4   43.39    1.29
   2   2   4   44.61    1.30
  -2  -2   4   44.83    1.28
   2  -4  -2   44.38    1.23
   2  -2   4   46.75    1.27
   0   3   4    9.79    0.42
   0  -3   4    8.87    0.37
   0   4   3    8.85    0.38
   0  -4   3   10.06    0.34
   0   4  -3    9.39    0.34
   1   4   3  150.04    3.88
  -1   4  -3  151.27    3.81
   1  -3   4  150.12    3.86
  -1   3   4  155.07    3.91
  -1  -3   4  148.47    3.77
   1   4  -3  148.32    3.73
   1   3   4  147.30    3.80
   1  -4   3  144.41    3.71
  -1   4   3  147.97    3.77
  -2   3   4  182.57    4.69
   2  -3   4  183.11    4.64
   2   4   3  183.05    4.67
  -3   2   4  191.35    4.88
  -2   4   3  188.53    4.83
   2  -4   3  188.98    4.77
   2   3   4  192.06    4.87
  -3   3   4   22.13    0.75
   0  -4   4   13.52    0.48
   0   4   4   13.91    0.53
  -1  -4   4   40.00    1.15
  -1   4   4   42.46    1.20
   1  -4   4   41.07    1.14
   1   4   4   40.00    1.20
  -2   4   4   57.14    1.59
   2  -4   4   55.58    1.53
   2   4   4   56.23    1.60
  -3   4   4   63.26    1.80
   3  -4   4   65.55    1.75
   0   0   5   -0.04    0.12
   0   5   0    0.04    0.05
   0  -1   5  187.89    4.69
   0   1   5  178.34    4.70
   1   0   5  181.94    4.70
   0   5   1  185.62    4.57
  -1   0   5  181.44    4.70
  -1   5   1    2.17    0.16
  -1   1   5    2.55    0.25
  -1  -1   5    2.05    0.23
   1  -1   5    2.51    0.25
   1  -5  -1    2.34    0.16
   1   1   5    2.71    0.26
   0   5   2    7.63    0.32
   0   5  -2    7.72    0.25
   0  -5  -2    7.20    0.31
   0   2   5    7.33    0.40
   2   0   5    7.15    0.39
   0  -2   5    7.48    0.37
   1  -5  -2  310.55    7.78
   2   1   5  312.32    7.89
  -1   2   5  314.17    7.88
   1   5   2  310.58    7.79
   1  -2   5  314.33    7.85
   2  -5  -1  328.95    8.25
  -2   1   5  325.33    8.38
   1   2   5  337.39    8.39
  -1  -2   5  334.61    8.36
   1  -5   2  328.63    8.20
   2  -1   5  329.04    8.37
  -1   5   2  345.11    8.28
  -2   5   2   15.14    0.50
  -2  -2   5   14.20    0.57
   2   2   5   14.22    0.59
   2  -2   5   13.83    0.55
   2  -5  -2   15.34    0.50
  -2   2   5   14.61    0.59
  -3   0   5    0.33    0.16
   0   5  -3    0.30    0.10
   0  -3   5    0.23    0.15
   0   3   5    0.24    0.16
   0   5   3    0.21    0.13
   3   0   5    0.11    0.16
   0  -5   3    0.18    0.09
  -1   3   5  173.66    4.48
   3   1   5  170.25    4.49
   1   5   3  176.93    4.42
   1  -3   5  170.29    4.43
  -1   5  -3  175.35    4.33
   1   5  -3  161.05    4.08
  -1   5   3  160.91    4.13
  -3   1   5  165.67    4.22
   1   3   5  162.57    4.20
   3  -1   5  155.73    4.19
  -1  -3   5  162.66    4.16
   1  -5   3  164.57    4.05
   2  -3   5  173.68    4.48
   2   5   3  175.08    4.48
  -2   3   5  181.17    4.54
   3   2   5  169.43    4.53
  -3   2   5  168.32    4.42
   2  -5   3  169.06    4.27
  -2  -3   5  172.60    4.38
   3  -2   5  166.43    4.38
   2   3   5  168.35    4.41
  -2   5   3  175.06    4.34
   3  -3   5  122.13    3.23
  -3   3   5  124.74    3.27
   3   3   5  122.22    3.28
   0   5   4   14.39    0.55
   0   5  -4   14.25    0.53
   0   4   5   13.94    0.58
   0  -4   5   14.33    0.53
   0  -5   4   14.46    0.49
  -1   5  -4  234.28    5.95
   1  -4   5  236.21    6.00
  -1   4   5  241.94    6.06
   1   5   4  237.62    6.03
   1  -5   4  244.99    6.13
   1   4   5  240.41    6.24
  -1  -4   5  245.06    6.19
  -1   5   4  249.11    6.21
  -2   4   5   42.66    1.28
   2   5   4   42.11    1.25
   2  -4   5   40.59    1.21
   2   4   5   45.91    1.36
   2  -5   4   44.14    1.24
  -2   5   4   44.18    1.31
   3  -4   5   42.17    1.22
  -3   4   5   40.76    1.27
   3   4   5   40.23    1.26
  -3   5   4   39.79    1.22
   3  -5   4   41.22    1.15
   4  -4   5  467.71   11.68
   0  -5   5   30.44    0.91
   0   5   5   29.65    0.98
  -1  -5   5    4.31    0.29
  -1   5   5    4.14    0.33
   1  -5   5    4.42    0.29
   1   5   5    4.30    0.36
  -2   5   5  186.35    4.81
   2  -5   5  188.43    4.74
   2   5   5  182.37    4.82
  -3   5   5  211.14    5.47
   3  -5   5  210.40    5.40
   3   5   5  216.52    5.50
   4  -5   5    8.80    0.44
   0   0   6    0.08    0.17
   0   6   0    0.06    0.06
   0  -1   6   30.55    1.00
   0   1   6   29.31    1.00
   1   0   6   31.33    1.00
  -1   0   6   32.27    1.02
   0   6   1   30.45    0.85
   1   1   6  628.84   15.47
   1   6   1  628.52   15.31
  -1   1   6  627.72   15.47
  -1  -1   6  610.33   15.45
  -1   6   1  617.64   15.29
   1  -1   6  622.80   15.45
   1  -6  -1  608.25   15.28
   2  -6   0   27.40    0.74
   0   6   2   27.13    0.80
   0  -2   6   27.93    0.91
   2   0   6   26.62    0.92
   0   2   6   26.94    0.93
  -2  -1   6  101.76    2.71
   1   6   2  103.76    2.60
   1  -6  -2   98.40    2.57
   1  -2   6  100.08    2.69
   2   1   6   95.19    2.71
  -1   2   6  100.64    2.72
  -2   1   6  109.66    2.94
  -1  -2   6  106.00    2.90
   1   2   6  109.64    2.94
  -1   6   2  110.02    2.79
   2  -1   6  109.79    2.92
   2  -6  -1  107.10    2.76
   2   2   6  193.15    5.03
  -2  -2   6  196.34    5.01
   2  -6   2  191.76    4.80
   2  -2   6  196.91    4.99
   2  -6  -2  190.52    4.93
  -2   6   2  191.58    4.88
  -2   2   6  197.53    5.03
   0   3   6   24.00    0.84
  -3   0   6   23.13    0.84
   3   0   6   23.45    0.83
   0   6   3   21.85    0.73
   0  -3   6   22.42    0.78
   0   6  -3   22.61    0.65
  -1   3   6  160.73    4.22
  -3  -1   6  162.36    4.22
   3   1   6  161.10    4.23
   1   6   3  159.95    4.12
   1  -3   6  160.39    4.17
  -1  -3   6  170.00    4.42
   3  -1   6  169.08    4.44
   3  -6  -1  165.48    4.29
   1   3   6  179.74    4.47
   1   6  -3  171.84    4.29
  -1   6   3  174.34    4.35
   1  -6   3  164.24    4.25
  -3  -2   6   74.13    2.05
   3   2   6   71.12    2.06
  -2   3   6   72.24    2.05
   2  -3   6   70.67    2.00
   2   6   3   72.36    1.97
  -2  -3   6   58.26    1.71
   3  -2   6   61.57    1.73
   2   3   6   59.67    1.75
   2  -6   3   61.28    1.56
  -2   6   3   59.47    1.64
  -3   2   6   57.22    1.74
   3   3   6   36.85    1.20
  -3   3   6   35.80    1.18
   3  -3   6   36.34    1.14
   0  -6   4   55.76    1.52
   4   0   6   57.43    1.69
   0   6   4   56.86    1.60
   0  -4   6   58.93    1.62
   0   4   6   56.77    1.67
   0   6  -4   56.05    1.52
   1  -4   6   22.93    0.78
  -1   4   6   21.78    0.82
   4   1   6   23.02    0.86
  -1   6  -4   22.55    0.68
   1   6   4   23.08    0.78
   4  -1   6   17.96    0.74
  -1   6   4   19.47    0.68
  -1  -4   6   19.42    0.70
   1  -6   4   19.14    0.59
   1   4   6   19.12    0.75
   4   2   6  145.73    4.11
   2  -4   6  154.64    4.04
   2   6   4  159.94    4.06
  -2   4   6  162.14    4.11
  -2  -4   6  161.30    4.20
  -2   6   4  163.66    4.18
   4  -2   6  159.37    4.23
   2   4   6  163.40    4.26
   2  -6   4  160.28    4.09
  -3   4   6   53.72    1.63
   3  -4   6   56.65    1.59
   4   3   6   53.46    1.65
   3   6   4   54.60    1.59
  -3   6   4   54.48    1.58
  -4   3   6   55.17    1.66
   3  -6   4   54.98    1.50
   3   4   6   54.91    1.66
   4  -3   6   55.79    1.62
   4   4   6   10.69    0.59
  -4   4   6   12.20    0.59
   4  -4   6   11.26    0.52
   0   6   5   27.22    0.90
   0  -6   5   27.37    0.83
   0  -5   6   24.95    0.85
   0   5   6   26.16    0.93
   1   6   5   66.67    1.91
  -1   5   6   68.88    1.94
   1  -5   6   66.51    1.86
   1  -6   5   63.82    1.76
   1   5   6   66.20    1.90
  -1  -5   6   64.38    1.82
  -1   6   5   66.41    1.86
   2   6   5   60.73    1.76
   2  -5   6   61.90    1.71
  -2   5   6   59.55    1.78
  -2   6   5   61.31    1.77
   2  -6   5   61.49    1.68
   2   5   6   62.37    1.82
  -3   5   6   78.73    2.23
   3   6   5   78.65    2.22
   3  -5   6   78.44    2.16
   3   5   6   84.37    2.36
   3  -6   5   81.71    2.22
  -3   6   5   83.87    2.31
  -4   5   6    2.86    0.34
   4  -5   6    3.49    0.32
   4   5   6    1.34    0.29
   4  -6   5    1.80    0.22
   5  -5   6    3.34    0.34
   0  -6   6   35.14    1.07
   0   6   6   34.72    1.15
  -1  -6   6  109.89    2.89
  -1   6   6  111.13    2.98
   1  -6   6  107.77    2.87
   1   6   6  107.98    2.98
  -2   6   6    9.50    0.52
   2  -6   6    9.46    0.45
   2   6   6    9.78    0.54
  -3   6   6  298.46    7.75
   3  -6   6  306.20    7.67
   3   6   6  306.77    7.79
  -4   6   6    6.80    0.50
   4  -6   6    7.55    0.43
   4   6   6    7.93    0.56
   5  -6   6    2.66    0.31
   0   0   7   -0.03    0.16
   0   7   0    0.08    0.07
   0  -1   7  169.41    4.44
   0   1   7  169.46    4.46
   1   0   7  171.12    4.46
  -1   0   7  170.81    4.45
   0   7   1  168.07    4.25
  -1   7   1   50.32    1.32
   1  -7  -1   50.23    1.31
  -1   1   7   49.78    1.52
   1  -1   7   51.45    1.52
  -1  -1   7   47.23    1.50
   1   1   7   50.66    1.53
   1   7   1   50.31    1.35
   0   2   7   -0.07    0.21
  -2   0   7    0.10    0.20
   0  -2   7    0.16    0.19
   2   0   7    0.45    0.20
   0   7   2   -0.08    0.12
   2  -7   0    0.08    0.07
   1   7   2  285.83    7.02
  -1   2   7  280.99    7.17
   2   1   7  271.18    7.16
   1  -2   7  274.30    7.14
  -2  -1   7  284.09    7.17
   1  -7  -2  282.40    6.99
  -1  -2   7  297.18    7.56
   2  -1   7  291.83    7.57
  -2   1   7  300.24    7.60
   1   2   7  287.26    7.58
  -1   7   2  304.77    7.42
   2  -7  -1  299.47    7.37
  -2   7   2  155.47    3.91
   2  -2   7  155.00    4.06
  -2   2   7  148.31    4.07
   2   2   7  153.21    4.09
  -2  -2   7  156.81    4.07
   3  -7   0  145.58    3.63
   0   3   7  142.65    3.85
   0   7   3  148.01    3.72
   0  -3   7  145.74    3.81
  -3   0   7  144.22    3.85
   0   7  -3  140.07    3.61
   3   0   7  144.88    3.86
   1   7   3   93.93    2.46
  -3  -1   7   89.38    2.57
   3   1   7   89.76    2.58
   1  -3   7   94.60    2.54
  -1   3   7   94.55    2.59
   1  -7   3   94.39    2.32
  -1  -3   7   90.50    2.53
  -3   1   7   93.34    2.58
   3  -7  -1   91.63    2.38
   1   3   7   92.03    2.57
   1   7  -3   90.42    2.36
  -1   7   3   91.55    2.43
   3  -1   7   91.06    2.56
  -3  -2   7  218.44    5.60
  -2   3   7  215.52    5.61
   2   7   3  216.36    5.50
   2  -3   7  215.98    5.57
   3   2   7  212.73    5.62
   3  -2   7  212.17    5.43
  -3   2   7  204.29    5.45
  -2  -3   7  211.26    5.42
   2  -7   3  211.91    5.21
   2   3   7  209.90    5.46
  -2   7   3  206.46    5.31
   3   3   7    7.33    0.50
  -3  -3   7    8.29    0.49
  -3   3   7    8.07    0.51
   3  -3   7    7.31    0.45
   3  -7   3    7.04    0.30
   0  -4   7    0.96    0.22
   4   0   7    0.85    0.23
   0   4   7    1.35    0.26
   0   7   4    0.96    0.20
   0   7  -4    1.24    0.15
  -1   7  -4   12.64    0.44
   1  -4   7   12.97    0.59
  -1   4   7   13.84    0.65
   1   7   4   13.70    0.56
   4  -1   7   12.31    0.62
   1  -7   4   13.52    0.45
  -1   7   4   12.41    0.55
  -4   1   7   13.92    0.66
   1   4   7   13.73    0.64
  -1  -4   7   13.03    0.59
   2  -4   7   73.83    2.08
   4   2   7   73.69    2.16
   2   7   4   75.60    2.06
  -2   4   7   72.11    2.13
  -4   2   7   75.01    2.24
   2  -7   4   78.39    2.03
  -2  -4   7   79.69    2.20
   2   4   7   79.49    2.25
  -2   7   4   78.16    2.14
   4  -2   7   76.65    2.22
   4   3   7   36.46    1.25
   3   7   4   35.93    1.16
  -3   4   7   37.17    1.24
   3  -4   7   37.30    1.18
  -3   7   4   37.75    1.18
  -4   3   7   39.88    1.30
   3   4   7   37.75    1.28
   4  -3   7   40.11    1.25
   3  -7   4   37.62    1.08
   4  -7   4   32.55    0.98
   4  -4   7   32.15    1.10
  -4   4   7   32.83    1.16
   4   4   7   35.28    1.19
   0  -5   7   21.49    0.81
   0  -7   5   22.43    0.72
   0   7   5   23.91    0.83
   0   5   7   24.82    0.90
   5   0   7   23.53    0.91
  -1   5   7  110.74    2.98
   1  -5   7  104.84    2.89
   1   7   5  110.49    2.92
   5   1   7  105.60    3.01
   5  -1   7  118.36    3.21
   1   5   7  114.41    3.18
  -1   7   5  121.84    3.12
   1  -7   5  114.86    3.00
  -1  -5   7  112.52    3.11
   2   7   5  122.35    3.27
   2  -5   7  119.76    3.24
   5   2   7  121.34    3.37
  -2   5   7  124.20    3.33
  -2   7   5  126.63    3.44
   2   5   7  129.14    3.51
   2  -7   5  130.88    3.33
  -2  -5   7  131.62    3.45
   5  -2   7  127.98    3.50
   3  -5   7   30.84    1.03
   5   3   7   31.10    1.14
  -3   5   7   32.16    1.11
   3   7   5   30.40    1.06
   3  -7   5   24.98    0.78
   5  -3   7   24.07    0.91
  -3   7   5   24.00    0.87
   3   5   7   24.93    0.96
   4  -5   7    4.36    0.38
  -4   5   7    4.60    0.43
   5   4   7    3.89    0.42
   4   7   5    4.79    0.43
   5  -4   7    2.66    0.34
   4   5   7    2.76    0.38
   4  -7   5    3.26    0.28
   5  -7   5   48.40    1.43
   5   5   7   49.90    1.61
   5  -5   7   49.38    1.52
   0   6   7   45.21    1.42
   0   7   6   44.42    1.39
   0  -7   6   44.43    1.29
   0  -6   7   42.85    1.33
  -1   6   7   24.00    0.92
   1  -6   7   23.24    0.82
   1   7   6   24.07    0.89
  -1   7   6   29.33    1.02
   1   6   7   27.33    1.03
   1  -7   6   28.46    0.90
  -1  -6   7   31.00    0.98
   2  -6   7   55.09    1.56
   2   7   6   50.67    1.62
  -2   6   7   53.78    1.65
  -2   7   6   57.00    1.73
   2   6   7   59.57    1.78
   2  -7   6   58.43    1.63
   3   7   6   21.98    0.88
   3  -6   7   22.28    0.82
  -3   6   7   23.11    0.90
   3  -7   6   24.04    0.81
  -3   7   6   23.54    0.90
   3   6   7   24.74    0.96
   4  -6   7   64.52    1.86
  -4   6   7   65.88    1.96
   4   7   6   63.64    1.94
   4  -7   6   60.26    1.69
   4   6   7   59.30    1.84
  -4   7   6   59.13    1.78
   6  -4   7   58.02    1.79
   5   7   6   18.75    0.84
   5  -6   7   17.38    0.73
   5  -7   6   18.22    0.70
   5   6   7   16.32    0.81
   6  -5   7   16.92    0.74
   6  -6   7  289.11    7.41
   0  -7   7  493.79   12.32
   0   7   7  492.18   12.43
  -1  -7   7    3.35    0.32
  -1   7   7    3.28    0.38
   1  -7   7    3.86    0.32
   1   7   7    2.36    0.36
  -2   7   7    8.52    0.55
   2  -7   7    9.03    0.47
   2   7   7    9.24    0.57
  -3   7   7  103.77    2.92
   3  -7   7  107.52    2.82
   3   7   7  102.16    2.94
  -4   7   7  172.04    4.71
   4  -7   7  177.02    4.61
   4   7   7  182.48    4.75
   5  -7   7    7.71    0.48
   5   7   7    6.95    0.60
   6  -7   7   13.84    0.66
   6   7   7   14.63    0.81
   7  -7   7  224.28    5.84
   0   0   8  645.60   15.95
   0   8   0  628.97   15.66
   0  -1   8    0.34    0.23
   0   1   8    0.47    0.21
   0   8   1    0.35    0.11
   1   0   8   -0.13    0.23
  -1   0   8    0.39    0.24
  -1   1   8    4.07    0.41
  -1   8   1    3.85    0.21
  -1  -1   8    3.59    0.36
   1  -1   8    3.99    0.40
   1   1   8    4.61    0.42
   1   8   1    3.89    0.25
   2   0   8  146.31    4.00
   0  -2   8  144.19    3.98
   0   8   2  155.01    3.81
  -2   0   8  145.96    4.01
   0   2   8  155.37    4.03
   1  -8  -2  118.13    2.95
   2   1   8  112.84    3.12
  -1   2   8  112.47    3.12
   1   8   2  111.03    2.93
  -2  -1   8  109.98    3.10
   1  -2   8  113.32    3.09
  -2   1   8  116.39    3.32
   2  -1   8  120.13    3.32
   1   2   8  124.19    3.35
  -1  -2   8  122.92    3.32
   2  -8  -1  120.07    3.08
  -1   8   2  126.81    3.13
   2   8   2   12.05    0.47
  -2   8   2   11.25    0.43
  -2  -2   8   10.02    0.57
   2  -2   8   10.84    0.58
   0   8   3  106.19    2.72
   0   8  -3   99.49    2.59
   3  -8   0  105.03    2.61
   0   3   8  103.21    2.88
   0  -3   8  102.20    2.83
   3   0   8  101.31    2.87
  -3   0   8  103.69    2.88
   1  -3   8   11.39    0.57
   1   8   3   11.55    0.49
  -3  -1   8   11.95    0.61
  -1   3   8    9.98    0.57
   3  -8   1   10.68    0.34
   1   3   8   14.49    0.71
  -1  -3   8   15.67    0.70
   3  -1   8   15.74    0.72
  -1   8   3   15.19    0.57
   1   8  -3   15.50    0.49
   3  -8  -1   16.24    0.51
  -3   1   8   14.96    0.72
  -2   3   8   10.09    0.60
   3   2   8    9.59    0.58
  -3  -2   8   10.03    0.58
   2   8   3   10.13    0.48
   2  -3   8   10.30    0.55
  -2  -3   8   11.45    0.60
   3  -2   8   12.55    0.63
  -2   8   3   12.98    0.50
  -3   2   8   12.07    0.66
   2   3   8   12.56    0.66
   3  -8   3    4.25    0.22
  -3  -3   8    5.22    0.44
  -3   3   8    4.15    0.42
   3  -3   8    4.24    0.39
   3   3   8    4.00    0.42
   0  -4   8    4.59    0.40
   0   8   4    5.36    0.37
   0   8  -4    5.76    0.27
  -4   0   8    5.46    0.46
   4   0   8    5.85    0.47
   0   4   8    5.20    0.47
   4   1   8   56.16    1.74
  -4  -1   8   56.33    1.73
   1  -4   8   52.33    1.65
  -1   4   8   56.66    1.73
   1   8   4   56.11    1.60
   1   8  -4   48.31    1.40
  -1   8   4   49.75    1.45
  -1  -4   8   51.40    1.55
   1  -8   4   52.06    1.32
   1   4   8   49.57    1.59
   4  -1   8   47.82    1.56
  -4   1   8   49.37    1.59
  -2   4   8  202.95    5.30
   2  -4   8  200.35    5.23
   2   8   4  204.49    5.18
   4   2   8  194.84    5.30
   4  -2   8  213.16    5.53
   2  -8   4  207.10    5.26
   2   4   8  216.14    5.56
  -2  -4   8  206.73    5.48
  -4   2   8  210.65    5.56
  -2   8   4  211.99    5.40
   3  -4   8   47.86    1.48
   4   3   8   48.03    1.56
   3   8   4   46.13    1.43
  -3   4   8   47.73    1.54
   4  -3   8   42.32    1.36
   3   4   8   43.01    1.41
  -3  -4   8   40.70    1.34
  -3   8   4   40.55    1.25
   3  -8   4   41.26    1.14
  -4   3   8   39.32    1.37
   4  -4   8   33.82    1.16
  -4   4   8   34.84    1.23
   4  -8   4   34.20    0.99
   4   4   8   32.49    1.22
   0  -5   8  203.19    5.27
   5   0   8  202.92    5.36
   0   8   5  198.69    5.23
   0   5   8  206.31    5.35
   1  -5   8   19.50    0.78
   5   1   8   20.45    0.88
   1   8   5   19.94    0.77
  -1   5   8   19.23    0.85
  -1  -5   8   21.62    0.83
   5  -1   8   22.05    0.91
   1   5   8   20.35    0.89
   1  -8   5   22.83    0.69
  -1   8   5   22.02    0.81
   5   2   8  122.34    3.43
   2   8   5  124.21    3.32
  -2   5   8  123.13    3.41
   2  -5   8  124.99    3.34
  -2  -5   8  121.33    3.31
   2  -8   5  121.95    3.14
  -2   8   5  124.00    3.28
   2   5   8  122.71    3.39
   5  -2   8  121.73    3.37
   5   3   8   63.70    1.98
  -3   5   8   61.66    1.94
   3  -5   8   63.71    1.87
   3   8   5   64.35    1.87
  -3   8   5   59.77    1.80
   3  -8   5   63.14    1.69
   3   5   8   64.25    1.94
   5  -3   8   62.70    1.90
   5   4   8  174.24    4.65
   4   8   5  174.46    4.55
   4  -5   8  166.66    4.53
  -4   5   8  171.13    4.61
   4  -8   5  163.29    4.24
   4   5   8  164.77    4.48
   5  -4   8  168.82    4.42
   5  -8   5   22.91    0.79
  -5   5   8   24.28    1.00
   5   5   8   24.34    1.02
   5  -5   8   23.07    0.92
   0  -8   6   87.78    2.28
   0   8   6   84.07    2.39
   6   0   8   87.29    2.51
   0   6   8   83.56    2.46
   0  -6   8   82.00    2.37
   1   8   6   10.72    0.58
   6   1   8   11.35    0.67
   1  -6   8   10.00    0.54
  -1   6   8    9.80    0.61
  -1  -6   8    9.06    0.50
   1   6   8    6.30    0.53
   6  -1   8    8.01    0.59
   1  -8   6    8.07    0.40
  -1   8   6    7.75    0.50
   6   2   8   82.49    2.50
   2   8   6   87.48    2.42
  -2   6   8   83.48    2.47
   2  -6   8   86.04    2.38
  -2  -6   8   78.50    2.28
   2  -8   6   81.63    2.16
   2   6   8   79.88    2.37
  -2   8   6   79.94    2.29
   6  -2   8   83.08    2.38
   3   8   6    1.19    0.29
   3  -6   8    0.71    0.25
  -3   6   8    0.78    0.31
   6   3   8    0.55    0.31
   3  -8   6    3.05    0.27
   6  -3   8    2.38    0.36
   3   6   8    3.08    0.42
  -3   8   6    2.70    0.34
   4  -6   8   92.18    2.58
   4   8   6   93.74    2.65
  -4   6   8   92.64    2.68
   6   4   8   91.69    2.73
   4  -8   6   83.13    2.27
  -4   8   6   83.49    2.38
   6  -4   8   82.91    2.42
   4   6   8   84.05    2.48
  -5   6   8   41.68    1.41
   6   5   8   39.88    1.44
   5   8   6   38.17    1.36
   5  -6   8   40.17    1.32
   5  -8   6   43.76    1.30
   6  -5   8   41.71    1.41
   5   6   8   42.98    1.51
   6   6   8   39.11    1.42
   6  -6   8   37.66    1.30
   6  -8   6   37.75    1.22
   0   8   7    6.94    0.52
   0  -7   8    7.31    0.46
   0   7   8    7.68    0.57
   0  -8   7    7.53    0.42
   1  -7   8    2.07    0.28
   1   8   7    1.89    0.33
  -1   7   8    2.14    0.36
   1  -8   7    2.18    0.26
  -1   8   7    2.05    0.33
   1   7   8    1.76    0.33
  -1  -7   8    2.41    0.32
   2   8   7   13.10    0.68
   2  -7   8   15.09    0.64
  -2   7   8   12.90    0.72
   2   7   8    8.88    0.61
   2  -8   7   10.83    0.49
  -2   8   7   10.26    0.59
  -3   7   8   33.37    1.21
   3   8   7   31.59    1.19
   3  -7   8   33.97    1.11
   3  -8   7   33.52    1.05
  -3   8   7   31.21    1.14
   3   7   8   32.50    1.21
   4   8   7   56.14    1.81
   4  -7   8   59.00    1.72
  -4   7   8   57.16    1.82
   4  -8   7   56.87    1.71
   4   7   8   57.64    1.89
   7  -4   8   63.34    1.88
  -4   8   7   60.04    1.83
   5   8   7   36.81    1.32
   5  -7   8   36.67    1.22
  -5   7   8   35.90    1.31
   5   7   8   37.25    1.38
   7  -5   8   38.46    1.32
   5  -8   7   36.34    1.19
   7   6   8   64.70    2.11
   6  -7   8   65.14    1.96
   6   8   7   68.15    2.10
   6  -8   7   61.59    1.84
   7  -6   8   62.02    1.92
   6   7   8   65.11    2.04
   7  -8   7    5.47    0.46
   7  -7   8    5.69    0.49
   7   7   8    4.95    0.56
   0  -8   8  108.94    2.94
   0   8   8  108.28    3.06
  -1  -8   8   46.57    1.43
  -1   8   8   47.18    1.55
   1  -8   8   47.98    1.43
   1   8   8   45.63    1.55
  -2   8   8    0.41    0.30
   2  -8   8    0.64    0.22
   2   8   8    0.96    0.32
  -3   8   8   72.36    2.19
   3  -8   8   72.99    2.07
   3   8   8   72.57    2.21
  -4   8   8    8.29    0.61
   4  -8   8    7.53    0.50
   4   8   8    8.00    0.62
   5  -8   8   58.61    1.79
   5   8   8   61.94    1.95
   6  -8   8    6.17    0.49
   6   8   8    6.53    0.58
   7  -8   8   11.89    0.65
   7   8   8   11.67    0.78
   8  -7   8   11.47    0.69
   8  -8   8   19.81    0.89
   0   0   9    0.49    0.26
   0  -1   9  172.86    4.62
   0   1   9  172.52    4.64
   1   9   0  172.48    4.35
   1   0   9  180.79    4.65
   0   9   1  171.62    4.35
  -1   0   9  170.99    4.63
  -1   1   9   12.65    0.68
  -1  -1   9   11.53    0.64
   1   9   1   11.88    0.45
   1  -1   9   12.93    0.67
   1   1   9   12.93    0.66
  -1   9   1   12.71    0.41
   0   2   9   96.88    2.75
   0  -2   9   97.71    2.73
   2   0   9   97.38    2.75
  -2   0   9   93.54    2.74
   0   9   2   95.87    2.51
  -2  -1   9  126.21    3.39
   2   1   9  117.12    3.37
   1   9   2  120.02    3.15
   1  -2   9  124.09    3.36
  -1   2   9  121.60    3.38
  -2   1   9  120.10    3.42
  -1  -2   9  126.99    3.41
   1   2   9  118.37    3.42
  -1   9   2  128.22    3.18
   1   9  -2  124.70    3.11
   2  -9  -1  122.03    3.13
   2  -1   9  125.56    3.42
   2   2   9   44.76    1.51
  -2  -2   9   44.20    1.47
  -2   2   9   43.33    1.47
   2  -2   9   47.61    1.48
   2   9   2   45.02    1.30
   3  -9   0    2.24    0.15
   3   0   9    2.41    0.37
   0   9   3    2.19    0.24
   0  -3   9    2.15    0.34
   0   3   9    1.99    0.34
  -3   0   9    2.53    0.35
  -3  -1   9   29.61    1.11
   1  -3   9   28.75    1.07
   3   1   9   30.46    1.13
   1   9   3   29.13    0.93
  -1   3   9   30.62    1.13
  -1   9   3   31.52    0.95
  -3   1   9   30.28    1.14
   3  -1   9   28.91    1.11
   1   3   9   32.01    1.15
  -1  -3   9   30.42    1.09
   1   9  -3   29.91    0.85
   3  -9  -1   31.02    0.87
   2   9   3   52.15    1.50
   2  -3   9   50.11    1.62
  -3  -2   9   53.54    1.66
  -2   3   9   51.82    1.68
   3   2   9   51.99    1.68
  -3   2   9   50.91    1.68
  -2   9   3   53.64    1.47
  -2  -3   9   50.76    1.63
   2   3   9   50.60    1.67
   3  -2   9   53.23    1.66
   3   3   9   42.97    1.44
  -3  -3   9   42.11    1.41
   3   9   3   41.46    1.28
   3  -3   9   41.83    1.40
  -3   3   9   42.53    1.45
   0   9  -4    0.56    0.12
   4  -9   0    0.55    0.13
   0  -4   9    0.48    0.24
   0   4   9    0.95    0.33
  -4   0   9    0.54    0.29
   0   9   4    0.41    0.20
   4   0   9    0.10    0.25
  -4  -1   9   21.46    0.91
   1   9   4   20.30    0.77
   4   1   9   22.01    0.94
   1  -4   9   21.94    0.87
  -1   4   9   21.93    0.93
  -1  -4   9   28.55    1.07
   1   9  -4   28.22    0.84
  -4   1   9   28.99    1.12
   4  -1   9   29.59    1.10
  -1   9   4   29.33    0.95
   1   4   9   29.13    1.11
   2  -4   9   41.90    1.38
   4   2   9   43.14    1.47
   2   9   4   40.84    1.29
  -2   4   9   44.23    1.46
  -4  -2   9   41.03    1.42
  -4   2   9   38.50    1.32
   2  -9   4   35.47    0.97
  -2   9   4   36.04    1.12
   4  -2   9   37.04    1.28
   2   4   9   34.20    1.27
  -2  -4   9   36.47    1.24
   3   9   4   44.95    1.36
   4   3   9   43.32    1.50
   3  -4   9   42.53    1.41
   4  -9   3   42.72    1.17
  -3   4   9   42.49    1.48
   4  -3   9   47.56    1.55
   3   4   9   47.24    1.59
  -3  -4   9   46.34    1.53
   3  -9   4   48.58    1.28
  -3   9   4   47.99    1.41
  -4   3   9   47.19    1.59
   4   9   4   85.79    2.36
   4   4   9   83.60    2.50
  -4   4   9   83.01    2.47
   4  -9   4   83.62    2.18
   4  -4   9   80.92    2.41
   5   0   9  231.74    5.96
   0   9   5  221.87    5.79
   0  -5   9  223.03    5.85
   0   5   9  223.67    5.94
   1   9   5   28.65    0.97
  -1   5   9   27.31    1.08
   5   1   9   25.74    1.07
   1  -5   9   28.48    1.03
  -1   9   5   27.44    0.93
  -1  -5   9   27.10    1.00
   5  -1   9   24.60    1.02
   1   5   9   27.20    1.07
   2   9   5   42.32    1.34
   2  -5   9   42.38    1.38
   5   2   9   43.34    1.48
  -2   5   9   39.91    1.44
   2  -9   5   49.48    1.35
  -5   2   9   48.27    1.64
   5  -2   9   50.06    1.63
  -2  -5   9   50.94    1.59
   2   5   9   50.59    1.66
  -2   9   5   50.77    1.51
   3  -5   9   56.94    1.76
  -3   5   9   57.19    1.84
   3   9   5   58.23    1.74
   5   3   9   57.84    1.87
   5  -3   9   56.61    1.81
   3   5   9   59.37    1.86
  -5   3   9   58.84    1.86
  -3  -5   9   56.90    1.79
   3  -9   5   57.87    1.56
  -3   9   5   56.80    1.70
   5   4   9   93.46    2.75
   4  -5   9   96.74    2.65
  -4   5   9   92.06    2.71
   4   9   5   87.71    2.60
  -5   4   9   96.49    2.81
   5  -4   9   95.06    2.75
   4  -9   5   94.79    2.52
   4   5   9   98.25    2.83
   5  -5   9   76.62    2.29
   5   5   9   79.83    2.40
  -5   5   9   75.45    2.36
   5  -9   5   79.28    2.12
   6   0   9   99.15    2.93
   0  -6   9  102.43    2.82
   0   9   6   99.88    2.80
   0   6   9  103.77    2.92
  -1   6   9   11.07    0.68
   1   9   6   11.88    0.62
   1  -6   9   11.53    0.61
   6   1   9   12.59    0.74
   6  -1   9   12.25    0.72
  -1  -6   9   11.70    0.62
   1  -9   6   11.71    0.47
  -1   9   6   11.83    0.60
   1   6   9   11.14    0.69
   2  -6   9   30.34    1.06
   2   9   6   28.27    1.05
  -2   6   9   28.63    1.13
   6   2   9   28.32    1.16
   2   6   9   27.29    1.12
  -2   9   6   27.37    1.00
   2  -9   6   26.83    0.86
  -2  -6   9   28.93    1.04
   6  -2   9   28.70    1.11
   6   3   9   13.67    0.78
  -3   6   9   11.79    0.72
   3  -6   9   11.98    0.64
   3   9   6   12.30    0.67
   3   6   9   12.47    0.74
  -3   9   6   14.82    0.67
   3  -9   6   12.83    0.52
   6  -3   9   12.21    0.74
   6   4   9  100.25    2.98
  -4   6   9  102.63    2.95
   4  -6   9   99.20    2.85
   4   9   6  104.22    2.89
  -4   9   6   94.95    2.65
   4  -9   6   93.61    2.51
   6  -4   9   94.68    2.72
   4   6   9   92.95    2.78
   6   5   9   40.35    1.48
  -5   6   9   37.41    1.42
   5  -6   9   40.11    1.35
   5   9   6   39.15    1.37
   5   6   9   38.89    1.44
   6  -5   9   39.23    1.36
   5  -9   6   39.09    1.20
   6  -9   6   84.09    2.33
   6   6   9   84.63    2.59
   6  -6   9   84.91    2.47
   7   0   9    1.33    0.34
   0   7   9    1.65    0.37
   0  -7   9    1.32    0.29
   0   9   7    1.16    0.29
  -1   7   9  106.02    3.07
   1   9   7  106.26    3.00
   1  -7   9  106.09    2.94
   7   1   9  111.03    3.14
   7  -1   9  103.90    3.02
  -1   9   7  103.46    2.90
  -1  -7   9  100.76    2.86
   1   7   9  102.76    2.98
   1  -9   7  106.25    2.76
  -2   7   9   20.56    0.94
   7   2   9   21.25    1.00
   2   9   7   20.60    0.89
   2  -7   9   20.73    0.84
   7  -2   9   22.75    1.00
   2   7   9   20.29    0.97
  -2   9   7   20.46    0.88
   2  -9   7   22.14    0.76
  -2  -7   9   22.20    0.88
   3   9   7   78.26    2.30
  -3   7   9   72.73    2.32
   3  -7   9   77.49    2.23
   7   3   9   79.59    2.41
  -3   9   7   73.88    2.23
   3  -9   7   77.00    2.09
   7  -3   9   75.73    2.31
   3   7   9   76.84    2.33
   4   9   7  120.67    3.38
   7   4   9  117.47    3.48
  -4   7   9  123.43    3.43
   4  -7   9  121.89    3.32
   4  -9   7  118.85    3.18
   4   7   9  116.33    3.41
   7  -4   9  122.76    3.39
  -4   9   7  120.79    3.32
   5  -7   9   26.92    1.01
   7   5   9   24.31    1.12
  -5   7   9   27.89    1.12
   5   9   7   26.51    1.10
   5  -9   7   28.63    1.00
   7  -5   9   31.08    1.17
   5   7   9   29.74    1.21
   6  -7   9   28.22    1.07
   7   6   9   29.82    1.23
   6   9   7   26.19    1.12
   6  -9   7   25.30    0.91
   6   7   9   24.38    1.12
   7  -6   9   24.23    1.01
   7  -9   7    0.87    0.28
   7   7   9    0.55    0.37
   7  -7   9    0.44    0.29
   0  -8   9   31.99    1.09
   0   9   8   30.63    1.16
   0  -9   8   31.93    1.04
   0   8   9   31.54    1.21
  -1   8   9   21.43    0.96
   1   9   8   19.77    0.91
   1  -8   9   21.71    0.82
   1   8   9   28.84    1.13
   1  -9   8   28.77    0.95
  -1  -8   9   27.89    1.01
  -1   9   8   26.41    1.08
   2  -8   9   17.05    0.73
  -2   8   9   15.03    0.83
   2   9   8   16.97    0.83
   2   8   9   16.67    0.83
   2  -9   8   15.78    0.65
  -2   9   8   14.97    0.78
   3  -8   9   55.38    1.72
  -3   8   9   58.69    1.87
   3   9   8   56.63    1.83
  -3   9   8   51.44    1.62
   8  -3   9   46.64    1.65
   3  -9   8   47.01    1.45
   3   8   9   48.47    1.67
   4   9   8   53.08    1.72
  -4   8   9   47.68    1.67
   4  -8   9   49.55    1.57
   8  -4   9   48.63    1.65
   4   8   9   48.27    1.65
   4  -9   8   45.97    1.44
  -4   9   8   47.10    1.59
  -5   8   9   11.83    0.75
   5   9   8   12.89    0.77
   8   5   9   13.05    0.84
   5  -8   9   12.92    0.66
   5   8   9    8.75    0.72
   8  -5   9    9.79    0.71
   5  -9   8    9.89    0.57
   8   6   9    3.35    0.55
   6  -8   9    2.59    0.39
   6   9   8    2.76    0.46
   6   8   9    4.19    0.54
   8  -6   9    4.26    0.49
   6  -9   8    3.98    0.42
   8  -9   7  179.68    4.73
   7  -8   9  178.95    4.77
   8   7   9  177.19    4.96
   7   9   8  176.90    4.90
   7  -9   8  187.88    4.95
   8  -7   9  193.11    5.05
   7   8   9  180.23    5.14
   8  -9   8   16.85    0.79
   8  -8   9   14.60    0.83
   8   8   9   15.83    0.97
   8   9   8   15.74    0.94
   0  -9   9   13.76    0.65
   0   9   9   14.38    0.78
  -1   9   9    1.03    0.34
   1  -9   9    1.76    0.29
   1   9   9    1.39    0.38
  -2   9   9    4.52    0.49
   2  -9   9    3.79    0.37
   2   9   9    3.49    0.47
  -4   9   9   20.41    0.95
   4  -9   9   19.39    0.83
   4   9   9   22.56    1.04
  -5   9   9   34.98    1.34
   5  -9   9   34.29    1.20
   5   9   9   35.53    1.37
   6  -9   9   11.08    0.64
   6   9   9   11.78    0.80
   9  -6   9   10.57    0.72
   7  -9   9   14.48    0.75
   7   9   9   12.88    0.87
   9  -7   9   12.30    0.77
   8  -9   9   63.57    1.99
   8   9   9   64.87    2.19
   9  -9   8   62.50    1.99
   9  -8   9   63.24    2.03
   9   8   9   65.16    2.20
   9  -9   9   29.66    1.19
   9   9   9   29.67    1.35
   0  -1  10    0.79    0.30
   0   1  10    1.81    0.37
   1  10   0    1.46    0.15
   1   0  10    1.39    0.33
   0  10   1    1.83    0.17
  -1   0  10    1.37    0.34
  -1   1  10   26.16    1.06
  -1  -1  10   26.07    1.03
   1   1  10   25.59    1.04
  -1  10   1   25.27    0.72
   1  -1  10   25.14    1.02
   1  10   1   25.28    0.77
  -2   0  10   78.29    2.30
   0  10   2   76.19    2.01
   0  -2  10   73.03    2.25
   0   2  10   78.35    2.30
   2   0  10   73.03    2.26
   2   1  10  111.84    3.18
  -1   2  10  109.31    3.18
   1  -2  10  109.99    3.15
   1  10   2  113.46    2.92
  -2  -1  10  115.38    3.19
   2  10   1  119.96    3.05
   2  -1  10  114.36    3.29
   1   2  10  115.47    3.31
  -2   1  10  121.32    3.34
  -1  10   2  119.97    3.03
  -1  -2  10  114.39    3.29
  -2   2  10   56.34    1.84
  -2  -2  10   58.34    1.84
   2  10   2   59.28    1.63
   2   2  10   58.25    1.87
   2  -2  10   56.98    1.82
   0   3  10   67.54    2.15
   0  -3  10   68.13    2.11
   0  10   3   71.56    1.92
  -3   0  10   69.56    2.16
   3   0  10   73.99    2.18
  -3  -1  10   71.71    2.16
  -1   3  10   71.32    2.17
   1  10   3   69.53    1.93
   1  -3  10   69.28    2.11
   3   1  10   68.86    2.16
   3 -10  -1   70.98    1.82
  -1  -3  10   69.28    2.10
  -3   1  10   70.85    2.16
   3  -1  10   70.39    2.14
  -1  10   3   71.50    1.91
   1  10  -3   68.06    1.79
   1   3  10   66.10    2.13
   3   2  10   81.13    2.48
  -3  -2  10   83.97    2.46
   2  -3  10   83.87    2.44
   2  10   3   83.76    2.27
  -2   3  10   80.63    2.48
   2   3  10   87.84    2.57
  -2  -3  10   84.34    2.50
   3  -2  10   85.60    2.52
  -3   2  10   87.61    2.57
  -2  10   3   83.27    2.29
   3   3  10  179.38    4.82
   3  -3  10  174.90    4.76
  -3   3  10  181.07    4.83
  -3  -3  10  171.67    4.76
   3  10   3  180.31    4.61
   0  -4  10   41.40    1.45
   4   0  10   45.77    1.54
   0   4  10   44.95    1.53
   0  10  -4   42.13    1.15
   0  10   4   44.04    1.32
  -4   0  10   43.67    1.52
   4 -10   0   44.76    1.19
   1  10   4   33.78    1.07
   1  -4  10   31.87    1.18
   4 -10   1   31.76    0.89
  -1   4  10   32.23    1.25
  -4  -1  10   35.77    1.27
   4   1  10   32.03    1.25
  -4   1  10   35.51    1.32
   1   4  10   33.87    1.30
  -1  -4  10   36.18    1.28
   4  -1  10   36.87    1.32
  -1  10   4   36.93    1.12
   1  10  -4   33.23    0.98
   2  -4  10  169.84    4.57
  -2   4  10  169.01    4.64
   2  10   4  174.08    4.45
   4   2  10  168.76    4.64
  -4  -2  10  169.55    4.62
   2   4  10  176.15    4.60
   4  -2  10  166.13    4.55
  -4   2  10  168.41    4.59
  -2  10   4  166.24    4.35
  -2  -4  10  163.12    4.51
   3  -4  10   52.57    1.65
  -4  -3  10   49.46    1.66
   3  10   4   49.08    1.52
   4   3  10   50.52    1.71
  -3   4  10   48.31    1.68
  -3  -4  10   48.44    1.58
   3   4  10   44.71    1.61
  -4   3  10   47.78    1.63
   4  -3  10   47.95    1.59
   4   4  10    7.87    0.65
   4  -4  10    8.66    0.60
   4  10   4    9.33    0.56
  -4   4  10    8.51    0.66
   4 -10   4    9.06    0.36
   0  -5  10    1.08    0.31
   0  10   5    0.81    0.24
   5   0  10    1.31    0.36
   0   5  10    0.66    0.33
   0  10  -5    0.97    0.16
   5   1  10   78.81    2.38
   1  -5  10   74.11    2.26
  -1   5  10   77.95    2.36
   1  10   5   78.22    2.19
   1   5  10   82.79    2.47
  -1  10   5   81.25    2.28
  -1  -5  10   80.07    2.38
   5  -1  10   83.29    2.46
  -5   1  10   78.88    2.45
   2  -5  10    9.03    0.58
  -2   5  10    9.22    0.69
   5   2  10    7.93    0.65
   2  10   5    8.27    0.52
  -2  10   5    6.66    0.47
   5  -2  10    7.13    0.59
  -5   2  10    7.63    0.65
   2 -10   5    7.35    0.31
  -2  -5  10    7.76    0.57
   2   5  10    6.15    0.58
   3  -5  10   15.04    0.77
  -3   5  10   17.02    0.87
   3  10   5   15.58    0.71
   3   5  10   16.01    0.84
   5  -3  10   18.69    0.87
  -5   3  10   16.40    0.88
  -3  10   5   17.00    0.72
  -3  -5  10   18.32    0.85
   3 -10   5   16.94    0.55
   4  -5  10   71.89    2.14
   5 -10   4   68.92    1.87
   4  10   5   68.65    2.07
  -4   5  10   67.27    2.19
   5   4  10   72.65    2.24
   4 -10   5   66.72    1.82
   4   5  10   67.03    2.17
   5  -4  10   72.66    2.13
  -5   4  10   66.25    2.14
   5 -10   5  132.64    3.30
   5   5  10  123.63    3.63
  -5   5  10  123.84    3.61
   5  10   5  123.70    3.49
   5  -5  10  129.35    3.55
   0   6  10   24.40    1.05
   0  10   6   23.04    0.91
   6   0  10   23.48    1.06
   0  -6  10   24.54    0.95
   1  10   6   63.08    1.89
   1  -6  10   63.87    1.92
  -1   6  10   60.87    2.00
   6   1  10   64.06    2.05
   6  -1  10   59.88    1.96
  -1  10   6   59.04    1.80
   1   6  10   62.97    1.97
  -1  -6  10   60.18    1.86
   2  10   6    1.11    0.29
  -2   6  10    1.30    0.38
   6   2  10    0.64    0.35
   2  -6  10    1.33    0.32
  -2  -6  10    0.73    0.29
   2 -10   6    1.82    0.20
   6  -2  10    1.02    0.35
   2   6  10    1.02    0.34
  -2  10   6    1.55    0.31
  -3   6  10   52.15    1.72
   3  -6  10   46.09    1.57
   6   3  10   50.87    1.73
   3  10   6   49.17    1.58
   3 -10   6   48.80    1.38
   6  -3  10   49.35    1.67
   3   6  10   49.82    1.71
  -3  10   6   51.22    1.56
   4  -6  10   49.30    1.61
   4  10   6   48.16    1.60
   6   4  10   48.81    1.73
  -4   6  10   50.95    1.71
   4   6  10   48.01    1.70
   4 -10   6   49.16    1.39
   6  -4  10   48.85    1.64
   5  -6  10   17.65    0.84
   6 -10   5   17.22    0.65
   6   5  10   16.66    0.94
   5  10   6   16.61    0.81
  -5   6  10   16.46    0.90
   5   6  10   17.32    0.95
   5 -10   6   17.43    0.66
   6  -5  10   17.43    0.88
   6  -6  10    0.11    0.28
   6  10   6    0.05    0.28
   6   6  10    0.28    0.36
   6 -10   6    0.08    0.20
   7   0  10   35.93    1.40
   0   7  10   35.93    1.36
   0  10   7   36.30    1.26
   0  -7  10   37.20    1.27
  -1   7  10   27.05    1.13
   1  10   7   25.18    1.01
   1  -7  10   26.00    1.00
   7   1  10   26.66    1.16
  -1  -7  10   21.54    0.88
   7  -1  10   19.71    0.98
   1 -10   7   20.98    0.72
   1   7  10   19.22    0.95
  -1  10   7   21.03    0.87
   2  10   7   15.28    0.76
  -2   7  10   15.72    0.85
   2  -7  10   14.95    0.74
   7   2  10   16.74    0.90
  -2  -7  10   13.15    0.69
   2   7  10   13.55    0.79
   7  -2  10   12.45    0.78
   2 -10   7   12.34    0.52
  -2  10   7   12.56    0.69
  -3   7  10   30.53    1.22
   3  10   7   29.59    1.14
   7   3  10   29.54    1.26
   3  -7  10   29.73    1.10
   3   7  10   33.34    1.32
  -3  10   7   33.32    1.20
   7  -3  10   34.86    1.32
   3 -10   7   33.88    1.04
   4  -7  10   22.52    0.92
   4  10   7   20.00    0.94
  -4   7  10   21.15    1.01
   7   4  10   22.51    1.07
   4   7  10   20.73    1.02
   4 -10   7   20.76    0.76
  -4  10   7   21.70    0.93
   7  -4  10   21.96    1.01
   5  10   7   17.19    0.87
   7   5  10   18.47    0.99
  -5   7  10   16.06    0.89
   5  -7  10   16.18    0.80
   5   7  10   12.71    0.83
   7  -5  10   12.57    0.77
   5 -10   7   11.91    0.57
   6  -7  10   18.61    0.89
   7   6  10   18.54    1.03
   7 -10   6   20.13    0.77
   6  10   7   19.31    0.94
   7  -6  10   17.62    0.89
   6 -10   7   17.06    0.72
   6   7  10   17.33    0.97
   7  -7  10   54.50    1.82
   7   7  10   57.17    1.99
   7 -10   7   56.94    1.70
   7  10   7   55.53    1.89
   0  -8  10   21.00    0.87
   8   0  10   23.22    1.07
   0   8  10   21.04    0.99
   0  10   8   22.64    0.96
  -1   8  10   16.99    0.88
   1  -8  10   16.40    0.76
   8   1  10   15.66    0.92
   1  10   8   17.92    0.84
   1   8  10   14.63    0.83
   8  -1  10   15.58    0.89
  -1  -8  10   17.41    0.77
   1 -10   8   16.42    0.66
  -1  10   8   16.06    0.80
   8   2  10    9.44    0.78
  -2   8  10    8.86    0.69
   2  -8  10    8.52    0.58
   2  10   8    8.34    0.62
  -2  10   8    6.48    0.55
   2   8  10    6.38    0.61
   2 -10   8    6.13    0.42
   8  -2  10    6.05    0.61
   8   3  10    9.97    0.80
   3  -8  10   11.30    0.64
  -3   8  10   10.44    0.77
   3  10   8    9.84    0.67
   3 -10   8   10.56    0.52
   3   8  10    9.58    0.76
  -3  10   8    9.46    0.65
   8  -3  10   11.46    0.76
   4  10   8   51.13    1.72
   8   4  10   51.70    1.83
  -4   8  10   48.89    1.73
   4  -8  10   50.77    1.63
  -4  10   8   53.05    1.73
   8  -4  10   50.82    1.78
   4   8  10   53.24    1.82
   4 -10   8   53.97    1.58
   5  10   8   29.85    1.22
   8   5  10   31.44    1.35
  -5   8  10   30.56    1.26
   5  -8  10   31.28    1.16
   5 -10   8   27.90    0.96
   5   8  10   26.26    1.19
   8  -5  10   25.87    1.15
   6  -8  10    5.96    0.54
   8   6  10    5.49    0.65
   6  10   8    4.89    0.57
   6   8  10    2.77    0.50
   6 -10   8    2.54    0.35
   8  -6  10    1.68    0.42
   8 -10   7   34.06    1.16
   8   7  10   31.08    1.39
   7  -8  10   33.00    1.23
   7  10   8   29.05    1.29
   7 -10   8   30.85    1.13
   7   8  10   33.82    1.39
   8  -7  10   30.17    1.24
   8   8  10    9.31    0.82
   8 -10   8   10.59    0.65
   8  -8  10   10.34    0.74
   8  10   8   11.63    0.84
   0   9  10   11.53    0.76
   9   0  10   11.73    0.85
   0  -9  10   13.27    0.65
   0 -10   9   12.91    0.62
   0  10   9   13.46    0.78
   1  10   9    6.58    0.60
   9   1  10    6.58    0.67
  -1   9  10    6.00    0.60
   1  -9  10    7.04    0.54
   1 -10   9    6.63    0.46
  -1  -9  10    6.16    0.49
  -1  10   9    5.93    0.56
   9  -1  10    5.21    0.59
   1   9  10    5.95    0.60
   2  10   9    6.61    0.60
   2  -9  10    7.53    0.54
  -2   9  10    7.35    0.64
   9   2  10    7.09    0.68
   9  -2  10   10.20    0.80
  -2  10   9    7.31    0.63
   2   9  10    8.66    0.70
   2 -10   9    8.40    0.51
   3  10   9    1.93    0.43
  -3   9  10    2.60    0.44
   3  -9  10    2.12    0.35
   9   3  10    2.95    0.55
   3 -10   9    1.99    0.32
  -3  10   9    2.40    0.42
   3   9  10    2.49    0.48
   9  -3  10    2.36    0.47
   9   4  10   19.64    1.10
   4  10   9   21.48    1.04
  -4   9  10   23.97    1.04
   4  -9  10   21.22    0.90
   9  -4  10   16.99    0.96
  -4  10   9   20.35    0.97
   4   9  10   19.77    1.00
   4 -10   9   19.46    0.80
   5  -9  10    1.70    0.36
   9   5  10    2.07    0.53
  -5   9  10    1.17    0.41
   5  10   9    2.19    0.46
   5   9  10    2.36    0.48
  -5  10   9    2.03    0.45
   5 -10   9    1.58    0.32
   9  -5  10    2.81    0.47
   9   6  10   48.06    1.81
   6  10   9   48.65    1.75
   6  -9  10   46.81    1.58
   6   9  10   45.45    1.70
   9  -6  10   43.50    1.63
   6 -10   9   47.23    1.49
   9   7  10    4.43    0.64
   7  -9  10    4.55    0.50
   7  10   9    5.16    0.63
   7 -10   9    4.40    0.46
   9  -7  10    4.36    0.55
   7   9  10    5.02    0.64
  10  -8   9   25.86    1.16
   9 -10   8   28.20    1.09
   8  10   9   26.18    1.28
   8  -9  10   27.99    1.13
   9   8  10   27.38    1.32
   8   9  10   30.06    1.36
   9  -8  10   29.53    1.24
   8 -10   9   28.99    1.13
   9 -10   9   21.28    0.99
   9  -9  10   21.34    1.03
   9   9  10   22.53    1.20
   9  10   9   25.61    1.21
  10  -9   9   21.73    1.02
   0 -10  10   53.81    1.65
   0  10  10   51.71    1.80
  -1  10  10   15.23    0.86
   1 -10  10   16.02    0.73
   1  10  10   16.02    0.91
  -2  10  10   58.62    1.98
   2 -10  10   61.08    1.83
   2  10  10   61.95    2.02
  -3  10  10    4.48    0.57
   3 -10  10    4.65    0.44
   3  10  10    3.42    0.54
  -4  10  10   61.33    2.08
   4 -10  10   63.63    1.94
   4  10  10   70.14    2.19
  -5  10  10   47.12    1.70
   5 -10  10   46.46    1.53
   5  10  10   49.42    1.77
  10  -5  10   46.19    1.71
   6 -10  10   22.26    0.95
   6  10  10   21.61    1.12
  10  -6  10   23.05    1.09
   7 -10  10    4.96    0.53
   7  10  10    6.25    0.71
  10  -7  10    6.15    0.64
  10   7  10    7.13    0.78
   8 -10  10   21.95    0.99
   8  10  10   22.48    1.22
  10 -10   8   21.36    0.97
  10  -8  10   23.53    1.09
  10   8  10   21.20    1.19
   9 -10  10   14.61    0.83
   9  10  10   14.25    1.06
  10 -10   9   13.75    0.83
  10  -9  10   13.79    0.87
  10   9  10   13.70    1.06
  10  10   9   12.84    1.00
  10 -10  10   13.56    0.84
  10  10  10   11.90    0.96
   0  -1  11    4.90    0.49
   0   1  11    5.55    0.54
   1  11   0    5.12    0.25
  -1   0  11    4.92    0.52
   0  11   1    4.97    0.27
   1   0  11    6.30    0.58
  -1  -1  11   17.51    0.88
  -1   1  11   18.30    0.90
   1  -1  11   18.00    0.89
   1  11   1   18.34    0.60
   1   1  11   19.95    0.92
   0   2  11   58.37    1.94
  -2   0  11   63.08    1.97
   0  11   2   61.13    1.64
   2   0  11   60.54    1.95
   0  -2  11   57.95    1.91
  -1   2  11    3.88    0.50
  -2  -1  11    3.61    0.48
   1  11   2    4.01    0.30
   1  -2  11    5.69    0.55
   2   1  11    4.33    0.52
   1   2  11    5.74    0.57
   2  -1  11    6.45    0.58
  -1  11   2    5.68    0.32
  -1  -2  11    5.94    0.54
   2  11   1    6.14    0.35
  -2   1  11    5.24    0.55
  -2  -2  11   22.73    1.02
  -2   2  11   24.72    1.06
   2  11   2   23.09    0.78
   2  -2  11   24.20    1.02
   2   2  11   23.07    1.04
  -3   0  11    1.78    0.37
   0  11   3    1.59    0.23
   3   0  11    2.17    0.42
   0   3  11    1.71    0.40
   0  -3  11    1.79    0.37
   1  -3  11   49.10    1.64
  -1   3  11   49.21    1.70
   1  11   3   49.67    1.43
  -3  -1  11   48.86    1.68
   3   1  11   48.88    1.68
   3 -11  -1   45.33    1.19
  -1  -3  11   43.97    1.52
  -3   1  11   41.73    1.53
  -1  11   3   44.74    1.29
   3  -1  11   43.89    1.54
   1   3  11   43.78    1.57
   2  11   3  105.67    2.87
   3   2  11  109.58    3.16
  -3  -2  11  102.98    3.09
   2  -3  11  110.38    3.10
  -2   3  11  109.68    3.15
  -2  -3  11  110.38    3.32
   2  11  -3  126.54    3.04
  -3   2  11  116.37    3.39
  -2  11   3  115.72    3.08
   2   3  11  115.16    3.38
   3  11   2  120.37    3.13
   3  -2  11  116.67    3.35
   3  -3  11   39.07    1.39
  -3  -3  11   37.74    1.38
  -3   3  11   36.20    1.42
   3   3  11   38.30    1.44
   3  11   3   38.76    1.21
   4   0  11   38.83    1.45
   4 -11   0   38.21    1.06
   0  11   4   38.08    1.21
   0  -4  11   40.05    1.39
  -4   0  11   41.24    1.47
   0   4  11   41.55    1.48
   1  -4  11   48.51    1.64
   1  11   4   48.07    1.47
  -1   4  11   49.11    1.69
  -4  -1  11   51.67    1.71
   4   1  11   49.93    1.71
   1   4  11   49.72    1.74
   4 -11  -1   55.39    1.49
  -1  11   4   50.27    1.49
  -1  -4  11   48.47    1.68
   4  -1  11   53.21    1.75
  -4   1  11   48.57    1.73
   1  11  -4   50.15    1.35
   2  -4  11    5.52    0.53
  -2   4  11    4.55    0.54
  -4  -2  11    5.20    0.54
   4   2  11    4.27    0.54
   2  11   4    5.52    0.42
  -2  11   4    4.22    0.34
   4  -2  11    3.08    0.44
  -4   2  11    3.10    0.46
   2   4  11    2.94    0.46
  -2  -4  11    4.13    0.47
   3  11   4    3.84    0.38
  -3   4  11    3.64    0.53
   3  -4  11    3.68    0.48
  -4  -3  11    4.13    0.50
   4   3  11    3.02    0.45
   4  11   3    4.90    0.41
   3   4  11    4.81    0.55
  -4   3  11    3.74    0.52
  -3  -4  11    5.20    0.54
   4  -3  11    4.32    0.51
  -4   4  11    0.57    0.32
   4  -4  11    0.38    0.31
   4  11   4    0.46    0.27
  -4  -4  11    0.70    0.32
   4   4  11    0.47    0.35
   0  11   5   11.75    0.59
   0  -5  11   11.57    0.69
   0  11  -5   12.19    0.42
   0   5  11   12.09    0.78
   5   0  11   11.14    0.75
  -5   0  11   10.97    0.76
   5 -11   1   62.12    1.70
   1  -5  11   65.07    2.01
  -1   5  11   69.49    2.12
   1  11   5   64.55    1.89
   5   1  11   64.01    2.10
  -1  11   5   64.65    1.89
   5  -1  11   62.20    2.08
   1   5  11   67.39    2.12
  -5   1  11   64.34    2.11
  -1  -5  11   67.38    2.05
   5   2  11   55.31    1.92
   2  -5  11   58.42    1.86
   2  11   5   59.12    1.75
  -2   5  11   59.25    1.94
  -2  11   5   60.69    1.80
   2   5  11   61.52    2.04
   5  -2  11   63.69    2.03
  -2  -5  11   62.18    1.96
  -5   2  11   61.87    2.04
   3  11   5   41.86    1.33
   5 -11   3   39.26    1.10
  -3   5  11   39.21    1.47
   3  -5  11   38.82    1.41
   5   3  11   42.13    1.54
   5  -3  11   41.91    1.52
  -3  -5  11   42.27    1.49
  -5   3  11   41.77    1.56
   3 -11   5   42.25    1.13
  -3  11   5   42.31    1.33
   3   5  11   42.43    1.57
   4  -5  11   17.67    0.87
   4  11   5   17.92    0.81
   5   4  11   20.10    1.00
   5 -11   4   19.11    0.60
  -4   5  11   17.64    0.95
  -5   4  11   19.97    0.99
   4 -11   5   18.78    0.60
   4   5  11   17.95    0.94
   5  -4  11   20.37    0.95
   5 -11   5    3.21    0.26
  -5   5  11    2.48    0.47
   5  -5  11    3.90    0.49
   5  11   5    3.33    0.41
   5   5  11    3.29    0.51
   0   6  11    1.71    0.45
   0  -6  11    1.94    0.38
   6   0  11    2.11    0.46
   0  11   6    2.40    0.34
   1  11   6   52.16    1.64
   6   1  11   53.72    1.84
  -1   6  11   55.46    1.83
   1  -6  11   51.17    1.71
   1   6  11   47.03    1.67
  -1  11   6   49.94    1.50
   6  -1  11   46.39    1.67
  -1  -6  11   45.33    1.56
   2  -6  11   12.65    0.72
  -2   6  11   12.30    0.81
   2  11   6   12.42    0.66
   6   2  11   13.78    0.85
   6  -2  11   13.56    0.82
   2   6  11   13.85    0.85
  -2  -6  11   14.22    0.76
  -2  11   6   14.12    0.68
   3  11   6   83.98    2.48
   3  -6  11   87.77    2.55
   6   3  11   85.13    2.65
  -3   6  11   86.37    2.64
   6  -3  11   85.83    2.58
  -3  11   6   83.84    2.41
  -3  -6  11   83.91    2.51
   3 -11   6   83.75    2.21
   3   6  11   84.40    2.62
   4  -6  11    3.12    0.45
   6 -11   4    3.94    0.30
   6   4  11    4.11    0.57
  -4   6  11    2.57    0.48
   4  11   6    4.40    0.47
   4   6  11    1.69    0.44
   4 -11   6    1.93    0.23
   6  -4  11    2.33    0.42
  -5   6  11  114.65    3.38
   6   5  11  117.44    3.43
   6 -11   5  112.95    3.02
   5  -6  11  116.13    3.29
   5  11   6  115.29    3.25
   5 -11   6  108.87    2.91
   5   6  11  111.18    3.30
   6  -5  11  112.67    3.21
   6 -11   6   47.04    1.42
   6  -6  11   50.56    1.68
   6  11   6   49.10    1.64
   6   6  11   46.54    1.76
   0  -7  11    0.45    0.30
   0   7  11    1.38    0.41
   0  11   7    0.34    0.28
   7   0  11    0.22    0.37
   1  -7  11   25.54    1.01
   7   1  11   24.77    1.15
   1  11   7   23.53    0.98
  -1   7  11   23.80    1.10
   7  -1  11   29.63    1.24
  -1  -7  11   27.20    1.10
  -1  11   7   29.09    1.07
   1   7  11   27.61    1.20
   2  -7  11   15.42    0.78
   2  11   7   17.01    0.79
   7   2  11   13.54    0.85
  -2   7  11   15.53    0.89
   2 -11   7   14.74    0.56
  -2  11   7   13.69    0.73
  -2  -7  11   15.61    0.80
   7  -2  11   15.62    0.89
   2   7  11   15.36    0.89
  -3   7  11   44.56    1.60
   3  -7  11   43.00    1.48
   3  11   7   40.89    1.45
   7   3  11   43.16    1.63
  -3  11   7   42.24    1.41
   7  -3  11   44.13    1.57
   3   7  11   43.83    1.60
   3 -11   7   40.65    1.23
  -4   7  11   33.67    1.34
   4  -7  11   32.73    1.24
   4  11   7   32.62    1.24
   7   4  11   31.98    1.38
   4   7  11   28.73    1.28
   4 -11   7   30.42    0.96
   7  -4  11   28.07    1.22
  -4  11   7   31.73    1.14
   7 -11   5   24.06    0.85
  -5   7  11   26.30    1.16
   7   5  11   26.11    1.21
   5  -7  11   24.84    1.04
   5  11   7   22.91    1.05
   7  -5  11   23.99    1.11
   5 -11   7   24.76    0.85
   5   7  11   24.49    1.18
   6  -7  11   10.77    0.73
   7   6  11   11.94    0.91
   6  11   7   10.21    0.76
   7 -11   6   11.80    0.57
   7  -6  11    8.95    0.71
   6 -11   7    9.11    0.51
   6   7  11    8.81    0.76
   7  11   7   52.97    1.83
   7  -7  11   53.99    1.79
   7 -11   7   52.76    1.60
   7   7  11   52.98    1.93
   0  11   8   41.01    1.41
   0  -8  11   39.41    1.37
   8   0  11   38.34    1.51
   0   8  11   39.09    1.49
  -1   8  11    6.18    0.62
   1  -8  11    4.33    0.47
   8   1  11    4.53    0.59
   1  11   8    5.04    0.51
  -1  11   8    5.48    0.53
   1   8  11    5.44    0.61
   8  -1  11    4.88    0.60
  -1  -8  11    5.56    0.52
   8   2  11   32.87    1.40
   2  -8  11   34.14    1.22
  -2   8  11   33.17    1.33
   2  11   8   31.69    1.24
  -2  -8  11   31.15    1.22
   2 -11   8   34.03    1.06
  -2  11   8   33.82    1.26
   8  -2  11   33.88    1.40
   2   8  11   34.82    1.39
   3  -8  11   10.17    0.66
   8   3  11   13.86    0.90
   3  11   8   11.57    0.74
  -3   8  11   10.59    0.82
   3   8  11   13.34    0.86
   8  -3  11   12.91    0.85
  -3  11   8   12.43    0.73
   3 -11   8   12.93    0.57
  -4   8  11   23.36    1.10
   4  -8  11   21.97    0.96
   4  11   8   24.35    1.06
   8   4  11   20.57    1.14
   4 -11   8   25.86    0.90
   4   8  11   27.33    1.21
   8  -4  11   24.84    1.15
  -4  11   8   25.94    1.09
  -5   8  11   17.17    0.98
   5  -8  11   15.51    0.83
   8   5  11   17.21    1.04
   5  11   8   17.19    0.92
   5 -11   8   16.62    0.70
   5   8  11   17.11    1.02
   8  -5  11   15.50    0.90
   8   6  11   27.69    1.31
   6  -8  11   26.08    1.11
   8 -11   6   26.71    0.97
   6  11   8   25.45    1.15
   8  -6  11   24.90    1.13
   6   8  11   26.42    1.24
   6 -11   8   24.98    0.93
   7  -8  11   11.02    0.74
   8 -11   7   10.21    0.61
   8   7  11   12.17    0.96
   7  11   8   10.29    0.80
   8  -7  11    9.02    0.72
   7 -11   8    9.17    0.59
   7   8  11    9.73    0.84
   8 -11   8   83.70    2.43
   8  -8  11   86.71    2.59
   8   8  11   79.54    2.71
   8  11   8   87.41    2.68
   0  -9  11    4.90    0.49
   0  11   9    5.30    0.57
   0   9  11    4.63    0.58
   9   0  11    4.70    0.59
   1  -9  11   83.28    2.45
   9   1  11   84.28    2.68
   1  11   9   85.05    2.54
  -1   9  11   82.19    2.59
   1   9  11   83.01    2.65
   9  -1  11   89.29    2.74
   1 -11   9   86.37    2.40
  -1  -9  11   85.36    2.52
  -1  11   9   87.41    2.59
   9   2  11   16.03    0.99
  -2   9  11   15.09    0.90
   2  11   9   15.08    0.84
   2  -9  11   16.08    0.80
   2   9  11   15.79    0.92
  -2  11   9   15.24    0.85
   9  -2  11   13.03    0.91
   2 -11   9   14.85    0.67
   3  -9  11   35.59    1.32
   9   3  11   40.35    1.56
  -3   9  11   37.29    1.47
   3  11   9   39.14    1.44
   9  -3  11   33.37    1.40
   3 -11   9   34.33    1.13
   3   9  11   35.81    1.42
  -3  11   9   33.34    1.31
   9   4  11   43.14    1.70
   4  11   9   40.87    1.54
  -4   9  11   41.09    1.60
   4  -9  11   44.89    1.49
  -4  11   9   42.04    1.49
   9  -4  11   41.53    1.57
   4 -11   9   39.69    1.30
   4   9  11   39.09    1.56
  -5   9  11    8.32    0.75
   9   5  11    8.84    0.84
   5  11   9    9.77    0.78
   5  -9  11    8.67    0.65
   9  -5  11   13.14    0.88
   5 -11   9   11.66    0.63
   5   9  11   12.38    0.91
   6  11   9   24.35    1.12
   6  -9  11   21.79    0.99
   9   6  11   20.68    1.13
   6   9  11   22.91    1.19
   6 -11   9   23.99    0.94
   9  -6  11   24.67    1.16
   9 -11   7   19.39    0.85
   9   7  11   19.16    1.13
   7  -9  11   19.47    0.94
   7  11   9   19.82    1.05
   7   9  11   24.37    1.22
   9  -7  11   22.76    1.11
   7 -11   9   23.71    0.96
   8  11   9   10.40    0.86
   9   8  11   10.64    0.91
   8  -9  11    9.45    0.74
   9 -11   8   10.52    0.66
   8 -11   9    9.78    0.63
   9  -8  11    9.05    0.74
   8   9  11    8.14    0.81
   9  11   8    7.68    0.76
   9 -11   9    4.59    0.52
   9  11   9    4.86    0.65
   9  -9  11    5.11    0.59
   9   9  11    4.67    0.70
   0  11  10   14.65    0.90
  10   0  11   15.65    1.00
   0 -10  11   15.86    0.78
   0  10  11   15.52    0.92
   1 -10  11   30.76    1.12
  10   1  11   28.94    1.37
  -1  10  11   28.81    1.29
   1  11  10   30.96    1.26
   1 -11  10   25.78    0.99
   1  10  11   28.54    1.25
  10  -1  11   25.97    1.27
  -1  11  10   27.16    1.17
   2  11  10    4.24    0.56
  -2  10  11    4.46    0.58
  10   2  11    4.72    0.66
   2 -10  11    4.39    0.46
   2  10  11    5.87    0.67
   2 -11  10    5.35    0.47
  10  -2  11    5.42    0.70
  -2  11  10    5.49    0.59
  -3  10  11   16.20    0.93
   3  11  10   15.76    0.94
   3 -10  11   16.09    0.79
  10   3  11   16.39    1.07
  -3  11  10   14.55    0.88
   3 -11  10   15.20    0.71
  10  -3  11   13.34    0.94
   3  10  11   15.26    0.93
   4  11  10   23.13    1.15
  -4  10  11   23.91    1.12
   4 -10  11   23.12    0.99
  10   4  11   24.07    1.27
  -4  11  10   21.21    1.07
   4 -11  10   22.08    0.90
   4  10  11   22.35    1.13
  10  -4  11   22.25    1.16
  -5  10  11   82.74    2.56
   5  11  10   82.12    2.59
   5 -10  11   77.38    2.38
  10   5  11   80.80    2.69
  -5  11  10   82.77    2.62
   5  10  11   85.43    2.70
  10  -5  11   86.83    2.70
   6  11  10    6.15    0.69
   6 -10  11    6.72    0.59
  10   6  11    5.76    0.75
  10  -6  11    6.91    0.70
   6 -11  10    7.38    0.56
   6  10  11    5.22    0.69
   7  11  10    4.62    0.63
   7 -10  11    4.64    0.53
  11  -7  10    5.52    0.64
  10   7  11    3.62    0.64
  10  -7  11    3.62    0.55
   7 -11  10    4.09    0.47
   7  10  11    2.34    0.57
   8  11  10   30.32    1.40
   8 -10  11   29.43    1.21
  11  -8  10   26.48    1.23
  10   8  11   33.97    1.50
  10 -11   8   29.22    1.16
  10  -8  11   25.78    1.24
   8 -11  10   30.41    1.15
   8  10  11   28.55    1.37
   9  11  10   15.89    1.06
  11  -9  10   16.75    0.97
  10   9  11   18.25    1.16
  10 -11   9   18.19    0.90
   9 -10  11   16.52    0.91
  11   9  10   19.61    1.22
   9 -11  10   18.10    0.92
   9  10  11   19.80    1.18
  10  -9  11   17.48    0.99
  10  11   9   18.00    1.11
  11 -10   9   19.43    0.99
  10 -11  10    1.80    0.42
  10 -10  11    1.89    0.45
  10  10  11    2.49    0.61
  10  11  10    1.59    0.57
  11 -10  10    1.89    0.46
  11  10  10    1.69    0.59
   0 -11  11    0.41    0.30
   0  11  11   -0.33    0.35
  -1  11  11   14.16    0.91
   1 -11  11   14.22    0.72
   1  11  11   12.30    0.86
  -2  11  11   32.43    1.39
   2 -11  11   33.25    1.20
   2  11  11   33.78    1.41
  11  -2  11   33.72    1.49
  -3  11  11    9.81    0.82
   3 -11  11    9.59    0.62
   3  11  11   11.19    0.86
  11  -3  11    8.99    0.83
  -4  11  11   48.99    1.76
   4 -11  11   47.10    1.56
   4  11  11   45.41    1.78
  11  -4  11   49.52    1.82
  -5  11  11    1.73    0.49
   5 -11  11    1.99    0.38
   5  11  11    1.85    0.52
  11  -5  11    1.31    0.47
  11   5  11    2.07    0.59
   6 -11  11    0.21    0.31
   6  11  11    0.49    0.45
  11  -6  11   -0.20    0.40
  11   6  11   -0.18    0.46
   7 -11  11    0.60    0.34
   7  11  11    0.71    0.48
  11  -7  11   -0.27    0.40
  11   7  11    0.09    0.50
   8 -11  11    2.79    0.47
   8  11  11    2.29    0.55
  11  -8  11    2.68    0.54
  11   8  11    2.34    0.63
   9 -11  11    3.02    0.52
   9  11  11    2.58    0.64
  11 -11   9    3.48    0.51
  11  -9  11    3.78    0.59
  11   9  11    3.34    0.67
  10 -11  11    0.76    0.40
  10  11  11   -0.70    0.48
  11 -11  10    0.44    0.43
  11 -10  11    0.35    0.41
  11  10  11    0.88    0.54
  11  11  10   -0.15    0.48
  11 -11  11   19.57    1.03
  11  11  11   18.14    1.22
   0  -1  12   40.20    1.47
   0   1  12   40.35    1.49
   1  12   0   37.82    1.06
   0  12   1   39.11    1.08
   1   0  12   41.07    1.49
  -1   0  12   39.37    1.47
   1  -1  12   95.83    2.89
  -1  -1  12  100.04    2.91
  -1   1  12   97.66    2.92
   1  12   1   97.22    2.52
   1   1  12   96.43    2.91
   0   2  12  136.10    3.90
   0  -2  12  136.39    3.87
   0  12   2  139.48    3.53
   2  12   0  138.90    3.51
  -2   0  12  138.24    3.91
   2   0  12  135.43    3.88
  -1   2  12   18.57    0.98
   1  -2  12   20.11    0.97
   2   1  12   21.97    0.99
   1  12   2   19.61    0.68
  -2  -1  12   18.44    0.97
   1   2  12   17.04    0.94
  -1  12   2   16.84    0.57
  -1  -2  12   16.33    0.89
   2  12   1   17.32    0.60
  -2   1  12   16.40    0.92
   2  -1  12   15.29    0.88
   2  12   2   53.63    1.51
  -2  -2  12   51.53    1.79
  -2   2  12   52.20    1.82
   2  -2  12   53.99    1.80
   2   2  12   52.26    1.83
   0  -3  12   15.09    0.83
  -3   0  12   16.07    0.89
   0  12   3   13.94    0.58
   3   0  12   12.91    0.84
   0   3  12   14.10    0.86
  -1   3  12  101.61    3.05
   1  12   3  100.59    2.73
   1  -3  12  105.67    3.02
  -3  -1  12   99.13    3.03
   3   1  12  106.48    3.07
  -1  12   3  107.83    2.80
   3  -1  12  104.80    3.12
   1   3  12  106.07    3.15
  -3   1  12  105.86    3.14
   3  12   1  104.86    2.81
  -1  -3  12  106.37    3.09
  -2   3  12   22.80    1.04
   2  12   3   22.00    0.80
  -3  -2  12   21.35    1.03
   2  -3  12   22.04    1.02
   3   2  12   22.42    1.07
   2   3  12   20.41    1.04
  -2  -3  12   21.47    1.00
  -3   2  12   23.12    1.07
   2  12  -3   20.86    0.64
   3  -2  12   20.15    0.99
   3  12   2   19.43    0.75
   3  12   3   11.27    0.56
   3   3  12   12.59    0.82
  -3   3  12   12.17    0.81
   3  -3  12   11.03    0.74
  -3  -3  12   10.32    0.77
   0   4  12   99.47    3.01
   0  -4  12  101.93    2.95
  -4   0  12  104.46    3.02
   0  12   4   97.06    2.71
   4   0  12  100.12    3.01
   4   1  12   20.89    1.04
   1  12   4   20.46    0.78
  -4  -1  12   21.38    1.04
   1  -4  12   19.01    0.95
  -1   4  12   20.50    1.03
   4 -12  -1   18.10    0.58
   4  -1  12   18.49    0.97
  -4   1  12   18.65    0.94
  -1  12   4   18.39    0.71
  -1  -4  12   17.71    0.92
   1   4  12   17.44    0.94
  -4  -2  12   64.69    2.11
   2  -4  12   62.42    2.06
  -2   4  12   62.56    2.11
   4   2  12   67.47    2.16
   2  12   4   65.09    1.87
  -4   2  12   61.55    2.13
  -2  -4  12   64.96    2.08
  -2  12   4   64.66    1.83
   4  -2  12   65.88    2.12
   2   4  12   67.41    2.17
  -3   4  12    1.62    0.45
   3  -4  12    1.31    0.38
   4   3  12    1.45    0.44
  -4  -3  12    1.39    0.39
   3  12   4    1.36    0.30
   3   4  12    0.64    0.41
   4  12   3    0.87    0.26
  -4   3  12    1.03    0.38
   4  -3  12    0.51    0.36
  -3  -4  12    1.37    0.37
   4   4  12    0.83    0.41
  -4   4  12    0.83    0.40
   4  -4  12    1.97    0.41
   4  12   4    1.26    0.30
  -4  -4  12    1.25    0.39
  -5   0  12   26.24    1.20
   0  12   5   28.19    0.99
   0  -5  12   28.99    1.18
   5 -12   0   28.04    0.81
   5   0  12   27.90    1.22
   0   5  12   26.65    1.19
  -5  -1  12   64.01    2.09
  -1   5  12   62.32    2.08
   1  -5  12   64.20    2.02
   1  12   5   61.94    1.84
   5   1  12   59.24    2.06
  -1  12   5   62.92    1.84
   1   5  12   60.13    2.09
   1  12  -5   62.05    1.67
  -5   1  12   61.48    2.09
   5  -1  12   66.53    2.11
  -1  -5  12   66.86    2.06
  -2   5  12   60.33    2.02
   2  -5  12   61.29    1.94
   2  12   5   56.32    1.77
   5   2  12   59.45    2.03
   2   5  12   60.71    2.05
   5  -2  12   59.74    2.00
  -2  12   5   59.60    1.77
  -2  -5  12   62.05    1.96
  -5   2  12   58.33    2.03
   3  -5  12   19.11    0.93
   5   3  12   17.71    0.97
   3  12   5   19.61    0.82
  -3   5  12   18.73    0.98
  -3  -5  12   18.27    0.92
   3   5  12   17.54    0.95
   5  -3  12   18.34    0.95
  -3  12   5   18.21    0.75
   4  -5  12   30.32    1.21
   4  12   5   28.02    1.09
   5   4  12   31.03    1.32
  -4   5  12   29.02    1.28
   5  12   4   27.96    1.06
  -5   4  12   27.80    1.26
   5  -4  12   28.43    1.20
   4   5  12   29.52    1.28
  -5   5  12   55.19    1.92
   5 -12   5   55.30    1.49
   5  -5  12   55.48    1.88
   5  12   5   54.95    1.75
   5   5  12   55.79    1.96
   0  -6  12  112.29    3.10
   6   0  12  105.08    3.19
   0   6  12  107.12    3.19
   0  12   6  101.99    2.95
   1  12   6    9.63    0.60
  -1   6  12   10.24    0.82
   1  -6  12    9.82    0.71
   6   1  12   10.30    0.81
   6  -1  12    8.21    0.72
  -1  12   6    7.93    0.55
   1   6  12    9.32    0.78
  -1  -6  12    8.22    0.67
   2  12   6    0.18    0.26
   6   2  12    0.45    0.40
   2  -6  12    0.61    0.34
  -2   6  12    0.47    0.40
   2   6  12    0.59    0.42
  -2  12   6    0.84    0.29
  -2  -6  12    1.17    0.37
   6  -2  12    0.62    0.38
   6   3  12    7.52    0.73
  -3   6  12    6.24    0.65
   3  12   6    7.35    0.56
   3  -6  12    6.14    0.59
   3 -12   6    9.38    0.38
  -3  -6  12   10.79    0.74
   3   6  12    8.57    0.73
  -3  12   6   10.03    0.59
   6  -3  12   10.62    0.80
   6 -12   4  105.14    2.83
  -4   6  12  109.89    3.28
   6   4  12  111.59    3.33
   4  12   6  112.02    3.11
   4  -6  12  111.45    3.19
   4   6  12  110.81    3.36
  -6   4  12  110.97    3.34
   4 -12   6  114.82    2.89
   6  -4  12  111.27    3.28
   5  -6  12   36.02    1.38
  -5   6  12   38.72    1.51
   5  12   6   36.36    1.33
   6 -12   5   36.03    1.08
   6   5  12   36.31    1.49
   5 -12   6   35.34    1.04
   6  12   5   36.86    1.31
   6  -5  12   31.87    1.34
  -6   5  12   35.20    1.46
   5   6  12   35.17    1.47
   6  -6  12   36.09    1.45
   6  12   6   39.58    1.43
   6   6  12   44.93    1.65
  -6   6  12   38.42    1.55
   6 -12   6   37.97    1.17
   0   7  12    0.23    0.38
   0  -7  12    0.22    0.31
   0  12   7    0.82    0.29
   7   0  12    0.25    0.38
   7   1  12    4.58    0.62
  -1   7  12    3.79    0.55
   1  12   7    4.29    0.45
   1  -7  12    4.24    0.50
  -1  -7  12    3.35    0.46
   1   7  12    2.43    0.50
  -1  12   7    3.27    0.42
   7  -1  12    2.29    0.47
   2  -7  12   23.14    0.99
   7   2  12   22.76    1.14
  -2   7  12   23.63    1.12
   2  12   7   20.38    0.93
  -2  12   7   24.15    0.99
  -2  -7  12   26.15    1.09
   7  -2  12   21.91    1.13
   2   7  12   26.11    1.19
   3  -7  12    2.93    0.45
  -3   7  12    3.02    0.54
   7   3  12    3.46    0.57
   3  12   7    2.85    0.43
   3   7  12    3.36    0.56
  -3  12   7    1.64    0.36
   3 -12   7    3.32    0.27
   7  -3  12    2.81    0.52
   4  -7  12   15.06    0.85
   4  12   7   15.77    0.83
  -4   7  12   16.36    0.96
   7   4  12   15.09    0.98
   4   7  12   17.31    1.00
   7  -4  12   17.06    0.95
   4 -12   7   15.98    0.60
   7   5  12    9.69    0.86
  -5   7  12   10.23    0.82
   5  -7  12    9.84    0.74
   5  12   7   12.98    0.76
   7 -12   5   10.04    0.50
   7  -5  12   10.42    0.80
   5 -12   7    9.55    0.48
   5   7  12   10.19    0.82
   7   6  12   12.18    0.96
  -6   7  12   13.37    0.91
   6  -7  12   13.99    0.84
   6  12   7   15.20    0.87
   7 -12   6   13.73    0.61
   6   7  12   11.78    0.91
   7  -6  12   12.24    0.85
   6 -12   7   11.82    0.57
   7  12   6   12.89    0.80
   7  12   7    1.55    0.43
   7   7  12    1.60    0.51
   7  -7  12    1.05    0.41
   7 -12   7    1.74    0.30
   0  12   8   18.30    0.90
   8   0  12   18.75    1.05
   0  -8  12   18.21    0.89
   0   8  12   19.36    1.06
   1  12   8   10.25    0.71
  -1   8  12    9.25    0.79
   8   1  12    8.88    0.79
   1  -8  12   11.06    0.69
   8  -1  12    7.67    0.75
   1   8  12    8.82    0.79
  -1  -8  12    8.81    0.67
  -1  12   8    8.69    0.65
   2  -8  12   48.92    1.66
  -2   8  12   50.53    1.80
   8   2  12   48.59    1.85
   2  12   8   50.27    1.68
  -2  12   8   48.76    1.63
  -2  -8  12   49.50    1.65
   2 -12   8   47.64    1.39
   2   8  12   47.86    1.77
   8  -2  12   46.89    1.77
   3  12   8    5.88    0.59
   8   3  12    4.78    0.62
   3  -8  12    5.85    0.56
  -3   8  12    6.95    0.71
   8  -3  12    7.94    0.74
   3 -12   8    6.25    0.42
   3   8  12    8.69    0.76
  -3  12   8    7.27    0.60
   4  -8  12    4.88    0.54
  -4   8  12    3.90    0.58
   8   4  12    4.50    0.69
   4  12   8    4.97    0.55
   8  -4  12    6.21    0.67
   4   8  12    5.91    0.69
   4 -12   8    6.09    0.41
  -4  12   8    7.03    0.61
   5  12   8    3.19    0.51
  -5   8  12    4.24    0.60
   5  -8  12    4.11    0.51
   8   5  12    4.45    0.66
   5   8  12    3.34    0.57
   5 -12   8    4.37    0.38
   8  -5  12    5.26    0.61
   6  12   8    8.85    0.73
   6  -8  12    8.68    0.71
   8 -12   6    8.10    0.52
   8   6  12    6.84    0.77
   8  -6  12    8.01    0.73
   6 -12   8    7.07    0.49
   6   8  12    7.76    0.78
   8 -12   7   44.44    1.40
   8   7  12   43.78    1.76
   7  -8  12   42.84    1.59
   7  12   8   44.09    1.64
   7   8  12   40.83    1.66
   8  -7  12   39.12    1.51
   7 -12   8   39.67    1.29
   8  12   7   37.33    1.52
   8 -12   8    0.55    0.28
   8  -8  12    0.02    0.37
   8   8  12    0.12    0.48
   8  12   8    0.17    0.39
   0  12   9    0.85    0.40
   0   9  12    1.28    0.46
   0  -9  12    1.55    0.40
   9   0  12    0.99    0.46
   1  12   9   87.26    2.58
  -1   9  12   84.53    2.67
   9   1  12   83.07    2.75
   1  -9  12   83.85    2.52
   9  -1  12   87.70    2.74
   1   9  12   84.25    2.66
  -1  12   9   80.78    2.52
  -1  -9  12   83.45    2.51
   2  12   9   41.82    1.53
   9   2  12   42.77    1.71
  -2   9  12   42.29    1.62
   2  -9  12   41.34    1.48
   9  -2  12   50.41    1.85
   2 -12   9   46.93    1.45
  -2  12   9   48.73    1.69
   2   9  12   48.93    1.80
  -3   9  12   53.06    1.90
   9   3  12   55.72    2.03
   3  12   9   52.74    1.82
   3  -9  12   53.25    1.76
   3 -12   9   50.26    1.52
   9  -3  12   49.11    1.86
  -3  12   9   51.70    1.73
   3   9  12   53.22    1.89
   4  -9  12    4.52    0.52
   9   4  12    3.69    0.63
  -4   9  12    4.01    0.63
   4  12   9    3.57    0.54
   4 -12   9    4.28    0.39
  -4  12   9    4.46    0.53
   4   9  12    3.86    0.60
   9  -4  12    2.72    0.55
   5  12   9   12.39    0.89
   9   5  12   15.80    1.12
  -5   9  12   12.30    0.92
   5  -9  12   12.31    0.78
   9  -5  12   16.34    0.96
   5   9  12   15.19    1.00
   5 -12   9   14.59    0.68
   6  -9  12   19.93    0.96
   6  12   9   17.66    1.01
   9   6  12   19.21    1.12
   6 -12   9   20.13    0.83
   9  -6  12   19.30    1.04
   6   9  12   18.98    1.16
   9 -12   7   31.82    1.13
   7  12   9   31.54    1.38
   9   7  12   29.05    1.41
   7  -9  12   31.10    1.28
   9  -7  12   31.65    1.36
   7 -12   9   31.58    1.14
   7   9  12   33.55    1.48
   8  -9  12    0.38    0.38
   9 -12   8    0.52    0.31
   8  12   9   -0.31    0.40
   9   8  12   -0.24    0.47
   8 -12   9    0.18    0.29
   8   9  12   -0.13    0.45
   9  12   8    0.37    0.43
   9  -8  12    0.21    0.39
   9   9  12   48.38    1.92
   9 -12   9   45.09    1.57
   9  -9  12   48.36    1.73
   9  12   9   50.01    1.84
   0  10  12  120.45    3.60
  10   0  12  127.41    3.73
   0 -10  12  116.53    3.43
   0  12  10  126.37    3.55
  10   1  12   44.53    1.73
   1  12  10   39.03    1.52
  -1  10  12   39.85    1.59
   1 -10  12   37.70    1.40
  -1 -10  12   36.19    1.36
   1  10  12   39.10    1.55
  -1  12  10   37.70    1.46
  10  -1  12   39.20    1.62
  -2  10  12   46.44    1.74
  10   2  12   46.87    1.86
   2 -10  12   44.69    1.57
   2  12  10   47.93    1.70
   2 -12  10   44.88    1.41
  10  -2  12   47.60    1.79
  -2  12  10   40.89    1.60
   2  10  12   45.80    1.72
  10   3  12   16.34    1.11
   3 -10  12   20.79    0.93
   3  12  10   18.47    0.98
  -3  10  12   18.04    1.03
  10  -3  12   20.14    1.12
   3 -12  10   20.73    0.84
  -3  12  10   19.45    1.01
   3  10  12   20.16    1.11
   4  12  10   18.61    1.04
  -4  10  12   20.50    1.11
   4 -10  12   21.32    0.96
  10   4  12   20.42    1.21
   4  10  12   20.80    1.14
  -4  12  10   23.35    1.09
   4 -12  10   21.56    0.88
  10  -4  12   24.03    1.19
  10   5  12   12.06    0.98
  -5  10  12   14.82    0.98
   5 -10  12   12.93    0.80
   5  12  10   14.46    0.90
   5 -12  10   13.12    0.68
   5  10  12   11.83    0.95
  10  -5  12   13.81    1.02
  10   6  12   37.46    1.68
   6  12  10   37.83    1.56
   6 -10  12   39.79    1.44
  10  -6  12   36.94    1.50
   6  10  12   36.87    1.59
   6 -12  10   35.09    1.25
   7 -10  12    4.58    0.56
  10 -12   7    3.98    0.48
   7  12  10    5.45    0.68
  10   7  12    5.02    0.73
   7  10  12    4.58    0.69
   7 -12  10    5.70    0.53
  10  -7  12    5.35    0.67
   8  12  10   12.08    0.97
  10   8  12   10.73    0.98
  10 -12   8   12.39    0.74
   8 -10  12   11.46    0.83
   8 -12  10   10.75    0.71
   8  10  12   11.19    0.97
  10  -8  12    9.88    0.83
   9  12  10    2.15    0.61
   9 -10  12    1.78    0.48
  10 -12   9    1.95    0.42
  12  -9  10    2.39    0.53
  10   9  12    2.17    0.64
  10  12   9    2.25    0.59
  10  -9  12    2.05    0.50
   9  10  12    3.06    0.65
   9 -12  10    1.69    0.42
  10 -10  12    1.66    0.49
  10  12  10    2.93    0.64
  10 -12  10    3.02    0.48
  12 -10  10    3.59    0.58
  10  10  12    3.05    0.67
   0  11  12    2.71    0.55
   0 -11  12    3.08    0.44
   0  12  11    3.47    0.55
  11   0  12    2.72    0.63
  11   1  12   10.18    0.89
  -1  11  12   10.58    0.87
   1 -11  12   12.93    0.72
   1  12  11   12.48    0.88
  -1  12  11   12.47    0.89
   1  11  12   10.91    0.87
  11  -1  12   13.31    1.03
   1 -12  11   11.75    0.66
   2 -11  12    4.93    0.51
  11   2  12    3.81    0.64
  -2  11  12    4.37    0.62
   2  12  11    3.91    0.59
   2 -12  11    5.07    0.47
  11  -2  12    4.40    0.68
  -2  12  11    4.83    0.61
   2  11  12    4.29    0.63
   3  12  11    3.28    0.56
   3 -11  12    4.10    0.48
  11   3  12    3.95    0.71
  -3  11  12    3.80    0.59
  -3  12  11    3.95    0.57
  11  -3  12    4.66    0.67
   3  11  12    2.75    0.58
   3 -12  11    4.07    0.44
   4  12  11   12.09    0.90
   4 -11  12   10.81    0.71
  11   4  12   13.71    1.07
  -4  11  12   11.05    0.86
  -4  12  11    9.67    0.80
  11  -4  12   10.51    0.90
   4 -12  11    9.00    0.62
   4  11  12   11.50    0.93
  -5  11  12    2.79    0.54
  11   5  12    3.05    0.66
   5 -11  12    3.08    0.46
  12  -5  11    2.42    0.58
   5  12  11    2.74    0.57
  11  -5  12    3.47    0.60
  -5  12  11    2.09    0.50
   5 -12  11    2.53    0.41
   5  11  12    2.14    0.54
  12  -6  11   11.61    0.95
  11   6  12   11.41    1.01
   6  12  11   12.32    0.96
   6 -11  12   14.99    0.81
   6 -12  11   13.75    0.77
   6  11  12   14.74    1.08
  11  -6  12   14.35    1.02
  12  -7  11   13.18    0.96
  11   7  12   11.91    1.04
   7  12  11   13.27    1.01
   7 -11  12   10.98    0.77
   7  11  12   10.72    0.95
   7 -12  11   10.05    0.68
  11  -7  12   10.65    0.90
  12  -8  11   20.20    1.15
   8  12  11   21.86    1.22
   8 -11  12   22.06    1.06
  11 -12   8   21.96    1.01
  11   8  12   21.08    1.30
  12   8  11   25.42    1.41
   8  11  12   25.86    1.36
   8 -12  11   23.42    1.07
  11  -8  12   28.69    1.30
  11   9  12    9.86    0.97
   9 -11  12    7.79    0.71
  12  -9  11    7.54    0.78
   9  12  11    6.93    0.84
  11 -12   9    9.18    0.71
   9  11  12    8.95    0.92
  11  -9  12    6.80    0.72
  11  12   9    4.38    0.73
   9 -12  11    7.13    0.66
  12   9  11    6.03    0.82
  12 -11   9    6.92    0.68
  12  11  10    7.17    0.88
  11 -12  10    6.03    0.62
  10 -11  12    6.55    0.69
  12 -10  11    6.62    0.72
  10  12  11    5.86    0.83
  11  10  12    5.50    0.83
  11  12  10    4.56    0.75
  12  10  11    5.81    0.82
  11 -10  12    5.75    0.67
  10 -12  11    5.61    0.61
  12 -11  10    4.77    0.62
  10  11  12    5.49    0.81
  11 -12  11    0.08    0.39
  11 -11  12    0.49    0.44
  11  11  12   -0.25    0.55
  11  12  11   -0.04    0.51
  12 -11  11    0.35    0.44
  12  11  11    0.21    0.57
   0  12  12   20.73    1.13
  12   0  12   20.95    1.25
  -1  12  12    0.94    0.46
   1 -12  12    1.88    0.40
   1  12  12    1.93    0.52
  12  -1  12    2.23    0.59
  12   1  12    1.65    0.57
  -2  12  12    1.09    0.47
   2 -12  12    1.94    0.38
   2  12  12    1.05    0.49
  12  -2  12    2.91    0.63
  12   2  12    2.46    0.61
  -3  12  12    6.37    0.71
   3 -12  12    5.56    0.54
   3  12  12    6.01    0.72
  12  -3  12    6.58    0.79
  12   3  12    7.92    0.88
  -4  12  12    1.17    0.48
   4 -12  12    1.10    0.35
   4  12  12    1.25    0.48
  12  -4  12    1.33    0.52
  12   4  12    1.41    0.59
  -5  12  12    0.94    0.47
   5 -12  12    2.18    0.42
   5  12  12    0.90    0.51
  12  -5  12    1.84    0.55
  12   5  12    1.38    0.60
   6 -12  12    4.33    0.52
   6  12  12    4.38    0.69
  12  -6  12    3.96    0.65
  12   6  12    5.21    0.81
   7 -12  12    6.41    0.61
   7  12  12    6.20    0.81
  12  -7  12    5.41    0.73
  12   7  12    6.80    0.88
   8 -12  12    7.66    0.67
   8  12  12    6.87    0.82
  12  -8  12    5.09    0.71
  12   8  12    6.77    0.86
   9 -12  12   -0.04    0.37
   9  12  12   -0.01    0.54
  12 -12   9    0.36    0.39
  12  -9  12    0.21    0.48
  12   9  12    0.14    0.57
  10 -12  12   -0.02    0.41
  10  12  12    0.48    0.55
  12 -12  10    0.92    0.46
  12 -10  12    0.78    0.46
  12  10  12    0.85    0.60
  12  12  10   -0.22    0.50
  11 -12  12   13.55    0.93
  11  12  12   11.99    1.15
  12 -12  11   13.28    0.92
  12 -11  12   14.62    1.01
  12  11  12   14.36    1.20
  12  12  11   14.44    1.19
  12 -12  12   16.11    1.01
  12  12  12   15.26    1.25
   0  -1  13   40.82    1.51
   0   1  13   36.47    1.49
   0  13   1   39.67    1.06
   1   0  13   38.28    1.50
  -1   0  13   39.41    1.52
   1  -1  13   25.85    1.17
  -1  -1  13   26.63    1.17
  -1   1  13   25.35    1.16
   1  13   1   24.99    0.76
   1   1  13   22.60    1.10
   0   2  13   83.87    2.63
   0  -2  13   83.33    2.59
   0  13   2   84.86    2.22
   2  13   0   85.32    2.20
   2   0  13   81.15    2.61
  -2   0  13   83.48    2.63
  -2  -1  13   22.71    1.11
   2  13  -1   21.86    0.67
  -1   2  13   23.01    1.11
   1  13   2   22.73    0.74
   2   1  13   21.66    1.06
   1  -2  13   22.45    1.08
   2  13   1   21.99    0.72
  -1  -2  13   23.45    1.08
   2  -1  13   22.46    1.08
   1   2  13   22.90    1.11
  -2   1  13   19.36    1.02
  -1  13   2   21.30    0.68
   2   2  13   18.47    1.02
  -2  -2  13   20.45    1.02
   2  -2  13   20.20    1.02
   2  13   2   18.34    0.69
  -2   2  13   18.93    0.98
   0   3  13   22.17    1.08
   3   0  13   17.53    1.01
   0  -3  13   18.51    0.98
  -3   0  13   20.13    1.04
   0  13   3   19.67    0.71
  -1   3  13   38.18    1.49
  -3  -1  13   39.32    1.51
   1  -3  13   37.44    1.46
   3   1  13   36.58    1.49
   1  13   3   38.76    1.17
   3  -1  13   36.43    1.42
   1   3  13   34.33    1.41
  -3   1  13   35.44    1.43
   3  13   1   33.65    1.06
  -1  13   3   33.45    1.04
  -1  -3  13   33.95    1.36
   3   2  13    1.44    0.45
  -2   3  13    0.71    0.41
  -3  -2  13    1.73    0.43
   2  -3  13    1.15    0.42
   2  13   3    1.39    0.25
  -3   2  13    1.67    0.47
   3  13   2    1.58    0.26
  -2  -3  13    1.48    0.42
   3  -2  13    1.54    0.43
   2   3  13    1.11    0.47
   3   3  13   20.78    1.10
   3  13   3   21.71    0.82
   3  -3  13   22.35    1.06
  -3  -3  13   23.53    1.09
  -3   3  13   20.62    1.06
   0   4  13   28.05    1.25
   0  -4  13   27.90    1.18
   4   0  13   25.03    1.20
   0  13   4   26.57    0.92
  -4   0  13   25.93    1.22
   4   1  13   15.32    0.96
  -4  -1  13   16.75    0.95
  -1   4  13   15.85    0.96
   1  -4  13   16.12    0.92
   1  13   4   16.56    0.69
   1   4  13   19.68    1.05
  -1  -4  13   19.01    0.99
  -4   1  13   18.72    1.02
   4  -1  13   19.69    1.03
  -1  13   4   18.72    0.73
   4   2  13   57.16    1.98
   2  13   4   53.93    1.65
  -2   4  13   56.94    1.96
   2  -4  13   54.72    1.89
  -4  -2  13   54.72    1.92
  -4   2  13   47.15    1.73
  -2  -4  13   47.50    1.70
   4  13   2   46.80    1.44
  -2  13   4   45.35    1.40
   2  13  -4   46.86    1.28
   2   4  13   49.52    1.77
   4  -2  13   47.48    1.71
  -4  -3  13   33.90    1.42
   3  -4  13   36.20    1.41
  -3   4  13   37.56    1.47
   4   3  13   36.61    1.49
   3  13   4   35.84    1.20
  -3  -4  13   35.17    1.42
  -4   3  13   39.47    1.52
   4  -3  13   36.86    1.45
   3   4  13   38.61    1.53
   4  13   3   35.37    1.21
  -4   4  13   22.10    1.13
   4  13   4   22.07    0.89
   4   4  13   23.33    1.16
   4  -4  13   21.70    1.06
  -4  -4  13   21.81    1.08
   0   5  13    2.46    0.52
  -5   0  13    1.87    0.46
   5   0  13    2.01    0.47
   0  -5  13    1.76    0.43
   0  13   5    2.31    0.32
  -1   5  13   30.51    1.34
   5   1  13   30.03    1.33
   1  13   5   30.71    1.06
  -5  -1  13   29.97    1.32
   1  -5  13   30.47    1.25
   5  -1  13   31.61    1.38
  -5   1  13   35.19    1.44
  -1  13   5   35.11    1.15
  -1  -5  13   35.04    1.36
   1   5  13   32.66    1.41
  -5  -2  13   28.32    1.28
   5   2  13   30.01    1.33
   2  13   5   28.70    1.05
  -2   5  13   29.29    1.30
   2  -5  13   29.70    1.23
  -2  -5  13   30.54    1.25
   5  -2  13   29.31    1.29
   2   5  13   30.30    1.34
  -5   2  13   28.24    1.28
  -2  13   5   30.13    1.03
  -3   5  13   21.31    1.14
   3  -5  13   23.56    1.07
   3  13   5   21.11    0.89
   5   3  13   22.21    1.15
   5  13   3   19.31    0.85
   5  -3  13   22.02    1.08
  -5   3  13   24.26    1.16
   3   5  13   20.08    1.10
  -3  -5  13   20.51    1.03
   4  13   5    1.28    0.34
   5   4  13    1.88    0.53
   4  -5  13    1.48    0.43
  -4   5  13    0.84    0.46
   5  13   4    1.43    0.32
   4   5  13    1.02    0.46
   5  -4  13    1.27    0.44
  -5   4  13    1.22    0.47
   5  -5  13   66.68    2.14
   5   5  13   61.21    2.19
  -5   5  13   64.64    2.21
   5  13   5   61.18    1.96
   6   0  13   20.04    1.09
   0  -6  13   19.38    0.97
   0  13   6   20.56    0.85
   0   6  13   20.61    1.09
   6 -13   1   10.42    0.40
   6   1  13   10.54    0.89
  -1   6  13    9.36    0.79
   1  -6  13   10.05    0.76
   1  13   6   10.72    0.63
   1   6  13   12.77    0.93
   6  -1  13   11.35    0.90
  -1  -6  13   11.92    0.80
  -1  13   6   11.47    0.64
   6   2  13   12.07    0.92
   2  13   6   14.84    0.72
  -2   6  13   12.69    0.94
   2  -6  13   12.16    0.79
  -2  -6  13   13.08    0.83
   6  -2  13   12.98    0.88
   2   6  13   10.98    0.86
  -2  13   6   12.45    0.66
   3  13   6    5.19    0.49
   3  -6  13    6.11    0.62
  -3   6  13    5.64    0.69
   6   3  13    5.25    0.68
  -6   3  13    5.71    0.65
  -3  13   6    6.12    0.50
   3   6  13    7.45    0.77
   6  -3  13    5.02    0.63
  -3  -6  13    6.17    0.62
   4  -6  13   53.21    1.83
   4  13   6   51.54    1.71
   6   4  13   52.52    1.93
  -4   6  13   52.92    1.92
   4   6  13   54.03    1.99
   6  -4  13   54.85    1.92
  -6   4  13   55.58    1.99
   6   5  13   24.37    1.28
   5  -6  13   25.21    1.15
   6 -13   5   25.12    0.78
  -5   6  13   26.39    1.27
   5  13   6   26.68    1.10
  -6   5  13   27.42    1.30
   5 -13   6   26.35    0.80
   5   6  13   28.00    1.33
   6  -5  13   26.70    1.22
   6  13   5   27.84    1.11
   6  13   6   35.68    1.37
   6 -13   6   36.69    1.08
  -6   6  13   35.93    1.53
   6  -6  13   39.27    1.48
   6   6  13   34.96    1.56
   0  13   7   15.18    0.77
   0   7  13   14.45    0.95
   7   0  13   13.77    0.96
   0  -7  13   14.20    0.84
   1  13   7   26.52    1.10
  -1   7  13   29.71    1.33
   1  -7  13   30.51    1.23
   7   1  13   30.05    1.37
   1   7  13   32.87    1.42
  -1  -7  13   33.83    1.32
   7  -1  13   30.19    1.38
  -1  13   7   33.81    1.21
   2  13   7    4.96    0.50
  -2   7  13    5.05    0.65
   7   2  13    4.51    0.65
   2  -7  13    4.54    0.55
   7  -2  13    4.79    0.61
  -2  -7  13    4.82    0.56
   2   7  13    4.69    0.63
  -2  13   7    4.36    0.49
  -3   7  13   14.59    1.00
   3  13   7   14.93    0.80
   3  -7  13   13.65    0.85
   7   3  13   14.95    1.01
  -3  13   7   16.09    0.80
  -3  -7  13   16.16    0.93
   3   7  13   16.96    1.03
   7  -3  13   16.84    1.00
   4  -7  13    8.94    0.72
   4  13   7    7.70    0.64
   7   4  13    6.40    0.74
   7 -13   4    8.92    0.42
  -4   7  13    9.50    0.82
   4   7  13    8.72    0.82
   7  -4  13    9.60    0.82
   4 -13   7    9.68    0.42
   5  13   7   26.37    1.14
  -5   7  13   26.64    1.29
   5  -7  13   27.96    1.19
   7 -13   5   26.13    0.86
   7   5  13   26.73    1.30
   5 -13   7   28.51    0.89
   7  -5  13   27.42    1.28
   5   7  13   28.80    1.36
   7   6  13    0.82    0.48
   6  -7  13    0.48    0.39
   7 -13   6    0.65    0.22
  -6   7  13    0.87    0.46
   6  13   7    0.76    0.40
   7  -6  13    0.41    0.41
   7  13   6    0.75    0.38
   6 -13   7    0.63    0.22
   6   7  13    0.37    0.47
   7  -7  13    2.21    0.48
   7 -13   7    1.45    0.29
   7   7  13    1.49    0.53
   7  13   7    2.21    0.47
   0  13   8    9.75    0.66
   0   8  13    7.50    0.78
   0  -8  13    8.72    0.69
   8   0  13    6.88    0.75
  -1   8  13   19.07    1.08
   1  -8  13   20.53    0.99
   1  13   8   21.26    0.97
   8   1  13   21.25    1.15
   8  -1  13   14.16    1.04
  -1  -8  13   15.01    0.86
  -1  13   8   14.87    0.81
   1   8  13   14.44    1.00
   2  13   8   10.10    0.69
   2  -8  13    9.38    0.73
   8   2  13    9.56    0.88
  -2   8  13    9.55    0.80
  -2  13   8    7.19    0.61
   2   8  13    7.43    0.76
  -2  -8  13    7.82    0.68
   8  -2  13    9.98    0.86
  -3   8  13   53.32    1.95
   3  13   8   53.40    1.76
   8   3  13   49.96    1.96
   3  -8  13   52.13    1.78
   3   8  13   50.24    1.89
   8  -3  13   49.55    1.86
   3 -13   8   51.24    1.43
  -3  13   8   49.75    1.67
   4  13   8   11.03    0.79
   8   4  13   11.07    0.92
  -4   8  13   10.32    0.85
   4  -8  13   10.98    0.79
   4 -13   8   10.09    0.49
   4   8  13    9.34    0.85
  -4  13   8   10.61    0.73
   8  -4  13   10.77    0.87
   5  13   8    3.27    0.50
   8   5  13    2.51    0.57
   8 -13   5    3.02    0.33
   5  -8  13    3.47    0.52
  -5   8  13    3.07    0.58
   5 -13   8    4.00    0.35
   8  -5  13    4.26    0.61
   5   8  13    4.93    0.69
  -6   8  13    7.16    0.75
   6  -8  13    7.52    0.69
   8   6  13    8.08    0.85
   8 -13   6    7.83    0.49
   6  13   8    8.03    0.73
   6 -13   8    6.54    0.45
   8  13   6    6.13    0.63
   6   8  13    5.89    0.77
   8  -6  13    6.18    0.70
   8 -13   7   12.80    0.64
   7  13   8   14.11    0.91
   8   7  13   12.33    1.00
   7  -8  13   11.45    0.85
   8  13   7   11.04    0.84
   7   8  13   11.52    0.97
   7 -13   8   11.95    0.61
   8  -7  13    9.80    0.82
   8 -13   8   11.82    0.65
   8  -8  13   11.09    0.86
   8   8  13   11.27    0.98
   8  13   8   12.58    0.93
   0  -9  13    6.01    0.61
   0   9  13    6.49    0.70
   0  13   9    5.72    0.60
   9   0  13    5.64    0.74
  -1   9  13   22.38    1.15
   1  -9  13   22.36    1.03
   9   1  13   21.84    1.23
   1  13   9   20.80    1.04
   1   9  13   25.25    1.26
  -1  -9  13   22.32    1.06
  -1  13   9   23.10    1.05
   9  -1  13   22.45    1.23
   2  -9  13   14.67    0.85
  -2   9  13   14.40    0.97
   9   2  13   16.43    1.10
   2  13   9   16.14    0.89
   9  -2  13   17.11    1.07
  -2  13   9   15.34    0.87
   2   9  13   16.02    1.06
   3  13   9   20.29    1.03
   9   3  13   23.04    1.26
   3  -9  13   21.52    1.01
  -3   9  13   21.24    1.14
   3 -13   9   21.76    0.81
   9  -3  13   21.34    1.17
  -3  13   9   22.30    1.03
   3   9  13   24.55    1.22
   9   4  13   10.69    0.94
   4  -9  13   12.68    0.83
   4  13   9   14.18    0.87
  -4   9  13   15.46    0.97
   4 -13   9   12.52    0.59
  -4  13   9   13.78    0.84
   4   9  13   11.93    0.94
   9  -4  13   12.59    0.96
  -5   9  13   13.25    0.98
   5  13   9   12.42    0.87
   9   5  13   10.30    0.95
   5  -9  13   12.30    0.80
   9  -5  13   12.77    0.93
   5 -13   9   10.53    0.56
   5   9  13   11.31    0.94
   9   6  13   12.45    1.04
   6  13   9    9.70    0.82
   6  -9  13    8.09    0.71
  -6   9  13    7.78    0.81
   9 -13   6    8.76    0.56
   9  -6  13    7.90    0.77
   6   9  13    6.93    0.82
   6 -13   9    8.31    0.54
   9   7  13   18.52    1.20
   7  -9  13   19.51    1.02
   9 -13   7   18.94    0.83
   7  13   9   20.24    1.08
   9  13   7   18.69    1.08
   7 -13   9   19.18    0.83
   7   9  13   20.53    1.22
   9  -7  13   19.66    1.06
   8  13   9   11.84    0.94
   9 -13   8   12.08    0.68
   9   8  13   11.50    1.02
   8  -9  13   10.81    0.84
   9  13   8    9.28    0.84
   9  -8  13   10.95    0.86
   8   9  13    9.23    0.92
   8 -13   9   10.19    0.64
   9  13   9    4.32    0.65
   9   9  13    4.03    0.71
   9  -9  13    2.94    0.56
   9 -13   9    4.33    0.49
   0  10  13    0.02    0.43
  10   0  13    0.41    0.49
   0  13  10   -0.29    0.36
   0 -10  13    0.11    0.35
   1 -10  13   45.03    1.54
   1  13  10   42.40    1.59
  -1  10  13   40.68    1.68
  10   1  13   40.98    1.76
  -1 -10  13   43.06    1.56
  10  -1  13   45.29    1.83
  -1  13  10   45.07    1.64
   1  10  13   46.52    1.77
  -2  10  13    7.64    0.77
   2  13  10    8.13    0.73
   2 -10  13    7.62    0.66
  10   2  13    7.88    0.85
   2  10  13    8.25    0.83
  10  -2  13    8.76    0.87
  -2  13  10    8.63    0.73
   3  13  10    3.13    0.54
   3 -10  13    3.47    0.50
  -3  10  13    3.50    0.61
  10   3  13    3.40    0.66
  10  -3  13    4.62    0.67
   3 -13  10    4.12    0.40
   3  10  13    3.01    0.59
  -3  13  10    3.86    0.55
   4  13  10    4.44    0.59
  -4  10  13    4.95    0.68
  10   4  13    4.42    0.74
   4 -10  13    5.68    0.57
   4  10  13    4.82    0.69
  10  -4  13    4.12    0.65
  -4  13  10    5.37    0.61
   4 -13  10    5.03    0.44
  -5  10  13   19.64    1.14
   5  13  10   20.14    1.08
   5 -10  13   21.92    1.03
  10   5  13   22.46    1.30
   5  10  13   25.95    1.32
  10  -5  13   23.78    1.23
   5 -13  10   24.17    0.93
  10   6  13   41.51    1.83
   6 -10  13   43.28    1.58
   6  13  10   42.90    1.70
   6 -13  10   40.50    1.36
   6  10  13   43.57    1.77
  10  -6  13   42.22    1.70
  10 -13   7    5.20    0.50
  10   7  13    5.26    0.77
   7  13  10    4.82    0.67
   7 -10  13    4.69    0.57
   7 -13  10    5.39    0.50
   7  10  13    5.29    0.75
  10  -7  13    5.29    0.67
  10   8  13   10.29    0.99
   8  13  10   10.40    0.90
   8 -10  13   11.21    0.84
  10 -13   8   10.18    0.68
  10  -8  13   11.20    0.91
   8 -13  10   11.86    0.71
   8  10  13   14.56    1.13
  10  13   8   12.30    0.97
   9  13  10    1.91    0.59
   9 -10  13    1.88    0.50
  10   9  13    1.75    0.64
  10 -13   9    3.00    0.44
  10  -9  13    2.83    0.55
  10  13   9    2.69    0.62
   9  10  13    2.59    0.68
   9 -13  10    2.64    0.45
  13 -10  10    2.68    0.56
  10 -10  13    2.50    0.55
  10 -13  10    2.32    0.45
  10  10  13    2.89    0.71
  10  13  10    1.72    0.61
   0  11  13    6.01    0.69
   0  13  11    6.31    0.66
   0 -11  13    6.22    0.58
  11   0  13    5.22    0.76
   1 -11  13    1.33    0.40
  -1  11  13    1.08    0.50
   1  13  11    1.16    0.45
  11   1  13    2.92    0.63
  -1  13  11    2.25    0.49
   1  11  13    2.48    0.54
  11  -1  13    2.31    0.62
   2 -11  13   22.41    1.03
  11   2  13   25.00    1.35
  -2  11  13   21.66    1.19
   2  13  11   23.36    1.17
  11  -2  13   28.20    1.42
  -2  13  11   29.75    1.29
   2 -13  11   27.30    1.04
   2  11  13   29.25    1.37
   3 -11  13   20.73    0.98
  11   3  13   21.44    1.29
  -3  11  13   21.69    1.18
   3  13  11   19.89    1.11
  11  -3  13   17.50    1.12
   3  11  13   17.57    1.08
  -3  13  11   17.42    0.97
   3 -13  11   18.12    0.80
  11   4  13    0.42    0.52
   4 -11  13    0.63    0.36
   4  13  11    0.92    0.46
  -4  11  13    0.54    0.45
   4  11  13    1.07    0.53
   4 -13  11    0.27    0.30
  -4  13  11    0.61    0.43
  11  -4  13    0.74    0.51
  -5  11  13   15.80    1.02
   5 -11  13   15.83    0.89
   5  13  11   13.76    0.96
  11   5  13   15.67    1.22
   5 -13  11   15.53    0.77
  11  -5  13   16.61    1.08
   5  11  13   14.93    1.10
   6 -11  13   13.18    0.85
   6  13  11   12.20    0.98
  11   6  13   13.11    1.11
   6  11  13   12.47    1.02
  11  -6  13   10.73    0.94
   6 -13  11   13.20    0.72
  11   7  13    6.65    0.87
   7 -11  13    6.18    0.66
  11 -13   7    8.07    0.62
   7  13  11    6.11    0.76
  13  -7  11    6.96    0.78
   7  11  13    5.45    0.77
  11  -7  13    5.03    0.71
   7 -13  11    5.85    0.55
  11   8  13    3.50    0.75
  13  -8  11    3.50    0.63
   8 -11  13    4.36    0.57
  11 -13   8    3.78    0.50
   8  13  11    2.44    0.62
  11  -8  13    2.31    0.56
   8 -13  11    2.84    0.45
   8  11  13    1.59    0.60
  13  -9  11    4.52    0.67
  11 -13   9    5.42    0.58
  11   9  13    5.87    0.85
   9  13  11    5.42    0.77
   9 -11  13    5.44    0.66
   9 -13  11    3.73    0.53
  11  -9  13    4.65    0.66
  11  13   9    3.08    0.66
  13   9  11    3.76    0.73
   9  11  13    4.06    0.76
  10  13  11    4.14    0.75
  13 -10  11    4.08    0.64
  10 -11  13    5.48    0.70
  11  10  13    4.04    0.77
  11 -13  10    4.95    0.59
  11 -10  13    4.39    0.65
  13 -11  10    4.25    0.63
  11  13  10    3.82    0.72
  10  11  13    5.40    0.82
  13  10  11    5.70    0.85
  10 -13  11    4.69    0.58
  11  11  13    8.27    0.99
  11  13  11    8.03    0.94
  11 -13  11    5.91    0.65
  11 -11  13    6.75    0.74
  13 -11  11    7.50    0.79
  13  11  11    7.45    0.94
   0  13  12    7.23    0.75
   0  12  13    6.79    0.75
  12   0  13    6.27    0.82
  12   1  13    8.75    0.95
   1  13  12    8.24    0.80
  -1  12  13    8.45    0.82
   1 -12  13    8.52    0.66
  12  -1  13    9.48    0.96
   1  12  13    9.04    0.85
  -1  13  12    9.77    0.83
  -2  12  13   27.57    1.34
   2  13  12   25.77    1.24
   2 -12  13   24.88    1.09
  12   2  13   23.73    1.40
  12  -2  13   26.32    1.44
  -2  13  12   25.73    1.26
   2 -13  12   26.53    1.04
   2  12  13   22.99    1.29
  -3  12  13   20.98    1.15
  13  -3  12   21.12    1.26
   3 -12  13   20.79    0.98
   3  13  12   19.83    1.16
  12   3  13   20.41    1.32
   3 -13  12   18.73    0.87
  12  -3  13   19.74    1.22
   3  12  13   20.66    1.20
  -3  13  12   20.08    1.08
  -4  12  13    0.58    0.48
  12   4  13    0.01    0.55
   4  13  12    0.13    0.46
  13  -4  12    0.23    0.51
   4 -12  13   -0.25    0.34
   4 -13  12    0.29    0.32
   4  12  13   -0.34    0.43
  12  -4  13    0.44    0.54
  -4  13  12    0.49    0.46
  -5  12  13    3.44    0.64
  13  -5  12    3.96    0.71
   5  13  12    4.23    0.68
  12   5  13    3.47    0.76
   5 -12  13    3.99    0.52
   5  12  13    2.72    0.64
  13   5  12    2.60    0.67
  12  -5  13    3.53    0.66
   5 -13  12    2.75    0.44
  -5  13  12    1.99    0.53
   6 -12  13    6.72    0.65
  12   6  13    5.58    0.82
   6  13  12    5.99    0.76
  13  -6  12    6.12    0.79
   6 -13  12    5.02    0.52
   6  12  13    5.42    0.77
  12  -6  13    5.64    0.78
  13   6  12    5.70    0.87
   7  13  12   28.26    1.41
   7 -12  13   26.00    1.16
  12   7  13   22.67    1.43
  13  -7  12   26.44    1.37
  13   7  12   22.71    1.42
   7  12  13   23.23    1.37
   7 -13  12   22.09    1.02
  12  -7  13   24.35    1.32
  12 -13   8    6.11    0.59
   8 -12  13    3.83    0.57
  13  -8  12    3.27    0.65
  12   8  13    3.28    0.75
   8  13  12    4.94    0.77
   8  12  13    6.54    0.86
   8 -13  12    5.00    0.57
  13   8  12    5.64    0.86
  12  -8  13    4.10    0.70
  12   9  13    7.01    0.96
   9 -12  13    6.76    0.71
   9  13  12    8.19    0.92
  12 -13   9    8.17    0.71
  13  -9  12    7.86    0.83
  12  13   9    8.83    0.94
   9 -13  12    7.61    0.69
   9  12  13    8.70    0.97
  13 -12   9    8.15    0.75
  13   9  12    8.02    1.00
  12  -9  13    7.97    0.83
  13  12  10   10.42    1.06
  13 -10  12   12.02    1.00
  12  10  13    9.56    1.09
  10 -12  13   12.72    0.91
  10  13  12   11.13    1.04
  12 -13  10   12.77    0.88
  13  10  12   14.78    1.27
  10  12  13   11.17    1.09
  13 -12  10   13.45    0.93
  12  13  10   13.46    1.13
  12 -10  13   11.73    0.99
  10 -13  12   13.21    0.91
  11  13  12    1.27    0.67
  13  12  11    1.57    0.66
  13 -11  12    0.89    0.51
  12  11  13    1.65    0.74
  12 -13  11    1.78    0.50
  11 -12  13    1.92    0.53
  11 -13  12    2.96    0.55
  13  11  12    2.43    0.73
  12 -11  13    2.14    0.57
  11  12  13    2.91    0.75
  13 -12  11    2.02    0.53
  12  13  11    2.90    0.73
  12 -13  12    2.21    0.55
  12 -12  13    2.63    0.58
  12  12  13    1.17    0.74
  12  13  12    2.45    0.75
  13 -12  12    2.79    0.59
  13  12  12    1.27    0.70
   0  13  13   43.56    1.74
  13   0  13   40.62    1.86
  -1  13  13    1.97    0.55
   1  13  13    1.02    0.53
  13  -1  13    2.38    0.65
  13   1  13    1.55    0.62
  -2  13  13    3.58    0.64
   2 -13  13    2.48    0.44
   2  13  13    3.29    0.64
  13  -2  13    2.73    0.70
  13   2  13    2.70    0.69
  -3  13  13    2.76    0.62
   3 -13  13    2.49    0.44
   3  13  13    1.52    0.55
  13  -3  13    3.46    0.71
  13   3  13    2.86    0.70
  -4  13  13   44.76    1.78
   4 -13  13   41.96    1.52
   4  13  13   43.97    1.78
  13  -4  13   41.44    1.83
  13   4  13   45.81    1.97
  -5  13  13    6.71    0.76
   5 -13  13    6.37    0.60
   5  13  13    4.94    0.75
  13  -5  13    5.17    0.76
  13   5  13    7.13    0.94
   6 -13  13    1.97    0.44
   6  13  13    0.41    0.53
  13  -6  13    1.94    0.63
  13   6  13    1.31    0.59
   7 -13  13    3.24    0.53
   7  13  13    3.62    0.72
  13  -7  13    2.92    0.66
  13   7  13    1.29    0.67
   8 -13  13   15.79    0.91
   8  13  13   15.00    1.18
  13  -8  13   15.52    1.15
  13   8  13   14.08    1.24
   9 -13  13    3.25    0.55
   9  13  13    2.56    0.72
  13 -13   9    3.09    0.56
  13  -9  13    2.38    0.63
  13   9  13    2.69    0.78
  10 -13  13    2.90    0.56
  10  13  13    3.22    0.74
  13 -13  10    4.24    0.62
  13 -10  13    4.02    0.67
  13  10  13    2.22    0.76
  13  13  10    3.42    0.79
  11 -13  13   10.19    0.86
  11  13  13   12.16    1.15
  13 -13  11   10.11    0.87
  13 -11  13   11.73    0.99
  13  11  13   11.00    1.17
  13  13  11   11.27    1.13
  12 -13  13   -0.63    0.43
  12  13  13   -0.26    0.65
  13 -13  12   -0.32    0.45
  13 -12  13   -0.30    0.47
  13  12  13    0.71    0.71
  13  13  12    1.03    0.68
  13 -13  13   16.03    1.09
  13  13  13   15.87    1.41
   0  -1  14    4.62    0.58
   0   1  14    3.50    0.55
   1   0  14    4.18    0.59
  -1   0  14    4.39    0.57
   1   1  14   10.75    0.85
  -1  -1  14    9.65    0.81
  -1   1  14    9.87    0.82
   1  -1  14    8.95    0.78
   1  14   1   10.03    0.41
   0  -2  14    9.66    0.80
   0  14   2    8.91    0.41
   2   0  14    9.42    0.82
   2  14   0    9.38    0.38
  -2   0  14    8.67    0.78
   0   2  14    9.89    0.84
  -1   2  14    5.42    0.62
   2   1  14    7.10    0.75
   1  -2  14    5.68    0.67
  -2  -1  14    4.12    0.62
   1  14   2    6.38    0.36
   1   2  14    5.45    0.65
  -2   1  14    5.16    0.67
   2  -1  14    5.65    0.64
   2  14   1    6.02    0.35
  -1  -2  14    5.16    0.62
   2  14   2   32.14    1.02
   2   2  14   30.01    1.38
   2  -2  14   33.35    1.41
  -2  -2  14   33.03    1.40
  -2   2  14   35.95    1.46
   0  14   3   32.00    0.98
   0   3  14   29.38    1.35
   3  14   0   29.08    0.94
   3   0  14   30.58    1.36
  -3   0  14   30.24    1.36
   0  -3  14   32.79    1.34
  -1   3  14   80.76    2.59
  -3  -1  14   80.36    2.57
   1  -3  14   79.61    2.53
   3   1  14   77.52    2.55
   1  14   3   79.16    2.18
  -1  -3  14   83.55    2.62
  -3   1  14   83.90    2.66
   1   3  14   83.68    2.66
   3  14   1   82.16    2.24
  -1  14   3   81.68    2.22
   3  -1  14   79.68    2.61
   2  14   3    0.04    0.21
  -2   3  14   -0.07    0.40
  -3  -2  14    0.30    0.42
   2  -3  14    0.41    0.41
   3   2  14   -0.33    0.39
   3  14   2    0.29    0.23
  -3   2  14   -0.28    0.40
  -2  -3  14   -0.07    0.38
   2   3  14    0.03    0.42
   3  -2  14   -0.54    0.37
   3   3  14   78.07    2.63
  -3  -3  14   84.70    2.62
   3  -3  14   79.72    2.59
  -3   3  14   85.24    2.68
   3  14   3   80.41    2.28
  -4   0  14    5.70    0.70
   0  14   4    7.17    0.46
   4   0  14    6.96    0.74
   0   4  14    7.12    0.75
   0  -4  14    7.38    0.70
   4   1  14    2.89    0.54
  -1   4  14    3.36    0.54
  -4  -1  14    2.68    0.55
   1  14   4    2.77    0.34
   1  -4  14    2.76    0.51
  -1  -4  14    3.30    0.54
   4  -1  14    2.96    0.55
  -4   1  14    3.52    0.57
  -1  14   4    1.97    0.31
   1   4  14    2.49    0.56
   4  14   1    2.88    0.33
   4   2  14  132.16    3.93
  -4  -2  14  134.06    3.92
   2  14   4  129.99    3.57
  -2   4  14  138.76    3.96
   2  -4  14  135.83    3.89
  -2  -4  14  141.61    4.03
  -4   2  14  138.30    4.09
   4  -2  14  143.22    4.07
   2   4  14  138.54    4.08
   4  14   2  138.99    3.72
  -3   4  14   28.57    1.35
  -4  -3  14   27.89    1.29
   4   3  14   28.20    1.35
   3  14   4   28.59    1.03
   3  -4  14   29.84    1.30
   3   4  14   24.09    1.24
   4  -3  14   22.79    1.16
  -3  -4  14   24.73    1.17
  -4   3  14   24.09    1.22
   4  14   3   24.23    0.92
  -4   4  14    4.59    0.64
   4  -4  14    5.59    0.65
  -4  -4  14    4.50    0.61
   4   4  14    5.60    0.70
   4  14   4    5.27    0.48
   0  -5  14   -0.11    0.37
  -5   0  14    1.09    0.48
   0   5  14    1.47    0.49
   5   0  14    0.89    0.45
   0  14   5    1.15    0.29
   1  14   5   43.83    1.39
   1  -5  14   44.17    1.64
  -1   5  14   41.40    1.68
  -5  -1  14   44.08    1.70
   5   1  14   42.48    1.72
  -1  -5  14   36.90    1.52
  -1  14   5   40.14    1.28
   5  -1  14   39.46    1.60
  -5   1  14   38.77    1.61
   1   5  14   43.06    1.65
  -5  -2  14   15.96    1.01
  -2   5  14   16.38    1.01
   2  -5  14   17.79    1.00
   2  14   5   17.10    0.77
   5   2  14   18.05    1.07
  -2  14   5   17.31    0.76
   5  -2  14   18.15    1.06
  -5   2  14   18.60    1.09
  -2  -5  14   17.82    1.00
   2  14  -5   19.26    0.62
   2   5  14   19.75    1.10
   3  14   5    7.35    0.55
  -3   5  14    7.42    0.77
   5   3  14    6.60    0.75
   3  -5  14    8.14    0.72
   3   5  14    6.80    0.72
  -5   3  14   10.51    0.91
   5  -3  14    8.10    0.77
  -3  -5  14    9.02    0.80
   5  14   3    8.71    0.58
   4  -5  14    9.79    0.80
  -4   5  14    9.86    0.89
   5   4  14   11.63    0.96
   4  14   5   10.36    0.65
  -5   4  14   12.14    0.96
   5  -4  14   10.46    0.84
  -4  -5  14   10.40    0.84
   5  14   4   11.80    0.69
   4   5  14   11.09    0.93
   5   5  14    6.61    0.77
  -5   5  14    9.22    0.85
   5  14   5    8.14    0.63
   5  -5  14    8.67    0.78
   0  -6  14    1.80    0.49
   0  14   6    2.13    0.37
   6 -14   0    2.90    0.22
   0   6  14    2.04    0.54
   6   0  14    2.48    0.58
   1  14   6    2.81    0.39
   6   1  14    1.90    0.52
   1  -6  14    1.60    0.44
  -1   6  14    2.68    0.57
   1   6  14    1.96    0.50
  -1  -6  14    2.39    0.48
   6  -1  14    2.09    0.53
  -1  14   6    2.11    0.36
   2  14   6   30.47    1.13
   6   2  14   30.18    1.41
   2  -6  14   30.33    1.28
  -2   6  14   28.41    1.35
  -2  14   6   25.65    1.00
  -6   2  14   26.26    1.27
  -2  -6  14   26.91    1.21
   2   6  14   28.27    1.33
   6  -2  14   28.60    1.31
   3  -6  14    2.08    0.47
   3  14   6    1.68    0.38
  -3   6  14    1.85    0.53
   6   3  14    1.35    0.51
   3   6  14    2.23    0.55
  -6   3  14    1.90    0.55
   6  -3  14    1.10    0.46
  -3  -6  14    1.18    0.46
   4  -6  14   22.10    1.10
   4  14   6   23.86    1.01
   6   4  14   23.43    1.25
  -4   6  14   21.74    1.21
   6  -4  14   21.47    1.12
   4   6  14   21.52    1.20
   6  14   4   19.29    0.92
  -6   4  14   21.62    1.19
   5  -6  14   24.89    1.19
  -5   6  14   24.81    1.30
   5  14   6   26.33    1.10
   6   5  14   26.98    1.35
   5   6  14   29.40    1.43
  -6   5  14   31.51    1.42
   6  -5  14   28.43    1.33
   6  14   5   28.72    1.16
  -6   6  14   17.41    1.09
   6   6  14   18.23    1.14
   6  14   6   16.50    0.88
   6  -6  14   15.14    0.96
   0   7  14  132.71    3.84
   0  -7  14  121.59    3.68
   7   0  14  133.10    3.87
   0  14   7  126.05    3.53
   7   1  14   30.02    1.41
  -1   7  14   28.84    1.37
   1  -7  14   28.70    1.26
   1  14   7   28.32    1.13
   1   7  14   26.91    1.35
  -1  -7  14   29.42    1.26
  -1  14   7   27.16    1.09
   7  -1  14   27.57    1.34
   2  14   7    3.57    0.48
   2  -7  14    4.04    0.57
   7   2  14    3.25    0.63
  -2   7  14    5.48    0.70
   7  -2  14    2.63    0.57
  -2  14   7    4.86    0.49
   2   7  14    3.05    0.61
  -2  -7  14    4.20    0.58
   3  -7  14   22.33    1.11
   7   3  14   21.39    1.24
  -3   7  14   22.19    1.22
   3  14   7   22.51    0.99
  -3  -7  14   18.32    1.03
   7  -3  14   16.75    1.05
   3   7  14   20.14    1.15
  -3  14   7   19.59    0.89
   7   4  14   54.71    2.05
  -4   7  14   54.44    2.01
   4  14   7   49.83    1.74
   4  -7  14   52.82    1.87
   4   7  14   59.16    2.18
   7  -4  14   62.24    2.16
   7   5  14    1.68    0.60
   5  14   7    1.43    0.44
   7 -14   5    2.56    0.25
  -5   7  14    2.92    0.59
   5  -7  14    2.47    0.52
   5 -14   7    3.02    0.24
   7  14   5    3.29    0.48
   5   7  14    2.07    0.56
   7  -5  14    3.08    0.58
  -6   7  14    1.34    0.51
   7 -14   6    1.27    0.23
   6  14   7    1.33    0.44
   7   6  14   -0.17    0.48
   6  -7  14    0.54    0.43
   6   7  14    1.07    0.52
   6 -14   7    0.94    0.21
   7  14   6    1.21    0.41
   7  -6  14    1.18    0.46
   7 -14   7   32.75    1.03
   7  -7  14   32.53    1.39
   7   7  14   32.47    1.54
   7  14   7   31.05    1.34
   0  -8  14   -0.26    0.36
   8   0  14    0.99    0.53
   0  14   8    0.80    0.35
   0   8  14   -0.15    0.44
   1  14   8    2.12    0.41
   8   1  14    1.56    0.55
   1  -8  14    2.00    0.45
  -1   8  14    2.29    0.57
  -1  -8  14    3.17    0.55
  -1  14   8    3.37    0.48
   1   8  14    3.14    0.62
   8  -1  14    3.96    0.65
  -2   8  14   97.83    3.07
   2  14   8   94.32    2.83
   2  -8  14   97.89    2.92
   8   2  14   97.03    3.12
   8  -2  14   88.28    2.88
  -2  14   8   89.86    2.64
   2   8  14   86.33    2.88
  -2  -8  14   93.43    2.78
  -3   8  14   10.29    0.92
   3  14   8   12.39    0.77
   3  -8  14   10.86    0.81
   8   3  14   10.83    0.96
   8  -3  14   11.75    0.93
   3   8  14   12.25    1.01
  -3  14   8   11.55    0.74
   4  -8  14   31.89    1.35
  -4   8  14   33.24    1.48
   8 -14   4   33.57    1.01
   8   4  14   32.66    1.55
   4  14   8   31.95    1.31
   4   8  14   37.23    1.62
   8  -4  14   36.67    1.56
   4 -14   8   36.51    1.07
  -5   8  14    8.73    0.85
   5  -8  14    7.30    0.71
   5  14   8    7.89    0.71
   8   5  14    8.10    0.84
   8 -14   5    7.95    0.45
   5 -14   8    6.33    0.40
   5   8  14    7.53    0.83
   8  -5  14    8.62    0.79
   8 -14   6   15.27    0.62
   6  14   8   13.39    0.89
   8   6  14   15.23    1.12
   6  -8  14   13.38    0.91
  -6   8  14   14.52    1.07
   8  -6  14   10.50    0.88
   6 -14   8   11.06    0.53
   6   8  14   13.52    1.03
   8  14   6   12.73    0.87
   8 -14   7   11.54    0.59
   7  14   8   11.71    0.89
   8   7  14   10.76    1.00
   7  -8  14   13.15    0.94
   7 -14   8   11.60    0.58
   8  14   7   11.20    0.86
   7   8  14   11.94    1.02
   8  -7  14   11.52    0.89
   8 -14   8    7.47    0.51
   8  -8  14    7.16    0.73
   8  14   8    5.68    0.69
   8   8  14    6.34    0.86
   9   0  14   19.69    1.16
   0  14   9   16.82    0.91
   0  -9  14   16.35    0.94
   0   9  14   18.93    1.12
   1  14   9    3.00    0.50
  -1   9  14    2.91    0.58
   9   1  14    3.49    0.65
   1  -9  14    2.28    0.49
   1   9  14    2.90    0.58
   9  -1  14    2.57    0.61
  -1  -9  14    2.86    0.51
  -1  14   9    2.73    0.48
   2  14   9    2.50    0.47
  -2   9  14    2.06    0.54
   9   2  14    2.03    0.59
   2  -9  14    2.89    0.50
  -2  -9  14    2.24    0.47
   9  -2  14    2.86    0.59
   2   9  14    3.26    0.62
  -2  14   9    3.16    0.49
   3  14   9    2.38    0.50
   9   3  14    2.63    0.65
   3  -9  14    2.52    0.49
  -3   9  14    1.58    0.52
  -3  14   9    2.01    0.43
   9  -3  14    3.31    0.63
   3   9  14    3.11    0.63
  -4   9  14    0.37    0.46
   4  14   9    0.79    0.41
   4  -9  14    0.08    0.36
   9   4  14    0.40    0.49
   4 -14   9    0.93    0.23
   9  -4  14    0.63    0.48
  -4  14   9    0.83    0.40
   4   9  14    0.34    0.49
   5  -9  14    4.31    0.57
   9 -14   5    4.28    0.39
   9   5  14    3.57    0.67
  -5   9  14    4.87    0.71
   5  14   9    4.36    0.59
   5 -14   9    5.69    0.41
   9  -5  14    5.78    0.72
   5   9  14    3.40    0.64
   9 -14   6   30.46    1.06
   9   6  14   32.87    1.58
   6  14   9   32.92    1.38
  -6   9  14   32.75    1.49
   6  -9  14   29.11    1.31
   6 -14   9   30.12    1.02
   9  -6  14   30.67    1.40
   6   9  14   30.27    1.49
   9   7  14   17.99    1.22
   9 -14   7   17.65    0.76
   7  14   9   16.18    1.04
   7  -9  14   18.45    1.02
   7   9  14   15.68    1.18
   9  14   7   15.85    1.01
   9  -7  14   17.41    1.08
   7 -14   9   17.43    0.75
   9 -14   8   -0.07    0.29
   8  -9  14    0.99    0.45
   8  14   9    0.55    0.47
   9   8  14    0.57    0.56
   9  14   8    0.32    0.46
   9  -8  14   -0.35    0.40
   8   9  14    0.32    0.53
   8 -14   9    0.81    0.32
   9  14   9   35.05    1.58
   9  -9  14   36.24    1.51
   9 -14   9   34.34    1.25
   9   9  14   36.59    1.71
  10   0  14    2.89    0.68
   0  14  10    4.81    0.58
   0  10  14    2.55    0.60
   0 -10  14    4.40    0.55
   1 -10  14   10.15    0.77
  -1  10  14    9.70    0.89
  10   1  14    9.76    0.95
   1  14  10   11.60    0.83
   1  10  14   12.10    0.97
  10  -1  14   10.44    0.98
  -1  14  10   11.77    0.81
  -1 -10  14   10.73    0.79
  -2  10  14   13.89    1.04
  10   2  14   16.42    1.22
   2  14  10   13.96    0.90
   2 -10  14   14.05    0.89
   2  10  14   13.80    1.04
  -2  14  10   15.47    0.91
  10  -2  14   15.90    1.10
  -3  10  14    2.29    0.59
   3 -10  14    2.47    0.49
   3  14  10    2.68    0.52
  10   3  14    2.75    0.67
  -3  14  10    3.77    0.53
  10  -3  14    3.38    0.64
   3  10  14    2.78    0.62
  -4  10  14    3.82    0.65
   4 -10  14    3.54    0.54
  10   4  14    3.65    0.71
   4  14  10    3.32    0.55
   4  10  14    2.36    0.62
   4 -14  10    3.60    0.37
  -4  14  10    2.27    0.48
  10  -4  14    2.91    0.62
   5  14  10    6.37    0.71
   5 -10  14    5.27    0.61
  10   5  14    5.33    0.76
  -5  10  14    6.79    0.81
  10  -5  14    4.59    0.68
   5 -14  10    6.02    0.47
   5  10  14    4.85    0.73
   6 -10  14    0.01    0.38
   6  14  10   -0.16    0.41
  10   6  14    0.04    0.52
  10 -14   6   -0.15    0.27
  -6  10  14   -0.48    0.48
   6 -14  10    0.29    0.28
   6  10  14    0.69    0.53
  10  -6  14    0.88    0.49
   7 -10  14    0.83    0.46
   7  14  10    2.25    0.54
  10 -14   7    1.38    0.33
  10   7  14    1.33    0.61
  10  14   7    0.98    0.50
   7  10  14    1.20    0.58
   7 -14  10    1.25    0.34
  10  -7  14    0.51    0.49
   8  14  10   16.92    1.13
   8 -10  14   17.47    1.02
  10 -14   8   17.25    0.83
  10   8  14   17.55    1.29
   8  10  14   19.01    1.27
  10  14   8   19.55    1.16
   8 -14  10   17.98    0.84
  10  -8  14   17.31    1.12
   9  14  10    7.83    0.87
  10   9  14    5.66    0.84
   9 -10  14    6.76    0.74
  10 -14   9    7.63    0.62
   9 -14  10   10.61    0.71
  10  14   9   11.57    0.99
  10  -9  14   11.80    0.94
   9  10  14   10.51    1.05
  10 -10  14   16.34    1.07
  10  10  14   13.12    1.19
  10 -14  10   14.05    0.84
  10  14  10   14.49    1.14
  11   0  14   25.36    1.43
   0  11  14   26.72    1.33
   0  14  11   26.05    1.24
   0 -11  14   28.16    1.18
   1 -11  14    0.49    0.40
  -1  11  14    1.37    0.53
  11   1  14    0.84    0.57
   1  14  11    0.37    0.43
  11  -1  14    0.50    0.55
  -1  14  11    0.94    0.45
   1  11  14    0.96    0.54
  -2  11  14    4.57    0.70
   2 -11  14    3.32    0.54
   2  14  11    3.84    0.60
  11   2  14    4.70    0.77
  -2  14  11    3.86    0.56
   2  11  14    3.62    0.66
  11  -2  14    4.91    0.76
   3  14  11    5.20    0.66
   3 -11  14    5.92    0.62
  11   3  14    5.12    0.80
  -3  11  14    6.40    0.75
  -3  14  11    4.52    0.62
  11  -3  14    5.37    0.77
   3 -14  11    6.40    0.47
   3  11  14    3.55    0.67
  11   4  14   15.19    1.20
   4  14  11   15.93    1.02
   4 -11  14   14.04    0.88
  -4  11  14   13.88    1.06
  11  -4  14   15.11    1.15
  -4  14  11   13.81    0.94
   4 -14  11   16.18    0.73
   4  11  14   15.33    1.14
   5 -11  14   25.04    1.16
  -5  11  14   24.94    1.31
   5  14  11   25.68    1.30
  11   5  14   24.70    1.44
  11  -5  14   21.27    1.24
   5  11  14   24.27    1.32
   5 -14  11   20.95    0.89
  11   6  14    7.06    0.90
   6  14  11    6.55    0.76
   6 -11  14    8.24    0.72
  11  -6  14    8.07    0.85
   6  11  14    6.27    0.86
   6 -14  11    6.82    0.54
   7  14  11   33.23    1.53
   7 -11  14   32.22    1.36
  11   7  14   31.15    1.65
  11 -14   7   32.45    1.20
   7  11  14   31.87    1.58
  11  -7  14   31.68    1.49
   7 -14  11   29.73    1.15
   8  14  11    6.04    0.80
  11   8  14    5.79    0.90
  11 -14   8    4.75    0.53
   8 -11  14    4.45    0.63
   8 -14  11    3.97    0.51
  11  14   8    5.33    0.75
  11  -8  14    5.49    0.74
   8  11  14    4.65    0.79
  14  -9  11   26.51    1.35
   9  14  11   26.96    1.40
  11   9  14   25.38    1.52
  11 -14   9   27.21    1.13
   9 -11  14   23.26    1.21
  11  -9  14   24.76    1.31
   9 -14  11   27.75    1.11
   9  11  14   25.35    1.47
  11  14   9   23.64    1.34
  10  14  11    3.26    0.70
  11  10  14    2.15    0.74
  10 -11  14    2.72    0.59
  11 -14  10    3.41    0.53
  14 -10  11    3.02    0.63
  11 -10  14    2.18    0.60
  10 -14  11    2.55    0.49
  14 -11  10    2.22    0.56
  11  14  10    2.35    0.65
  10  11  14    1.89    0.72
  14  11  11    0.76    0.67
  11 -14  11   -0.10    0.64
  11  11  14    0.62    0.66
  11 -11  14    0.78    0.54
  14 -11  11   -0.07    0.48
  11  14  11    0.98    0.63
   0  12  14    6.37    0.77
   0  14  12    8.97    0.81
  12   0  14   11.07    1.05
  -1  12  14   28.95    1.40
   1 -12  14   27.39    1.19
  12   1  14   28.79    1.54
   1  14  12   29.04    1.32
  12  -1  14   22.04    1.36
   1  12  14   23.99    1.31
  -1  14  12   21.53    1.18
   2  14  12   15.79    1.03
  12   2  14   11.96    1.08
   2 -12  14   14.57    0.86
  -2  12  14   13.17    1.03
   2  12  14   11.21    0.97
  12  -2  14   10.20    1.04
  -2  14  12   13.79    0.98
   3  14  12   41.00    1.68
   3 -12  14   41.57    1.52
  -3  12  14   40.28    1.72
  12   3  14   38.69    1.84
  -3  14  12   31.56    1.46
  12  -3  14   35.41    1.66
   3 -14  12   34.56    1.23
   3  12  14   37.28    1.64
   4 -12  14   10.28    0.77
  -4  12  14    9.75    0.91
  12   4  14    8.70    0.98
   4  14  12   10.13    0.91
   4  12  14    9.27    0.94
   4 -14  12    9.95    0.66
  12  -4  14   11.21    1.02
  -4  14  12   11.36    0.90
   5  14  12   10.90    0.95
  14  -5  12   10.58    1.00
  12   5  14   10.69    1.08
  -5  12  14   11.78    1.00
   5 -12  14   11.82    0.84
  12  -5  14   10.39    0.99
   5 -14  12   10.89    0.69
   5  12  14    9.81    0.98
   6  14  12   11.08    0.99
  14  -6  12   10.25    1.00
   6 -12  14   12.19    0.86
  12   6  14   10.25    1.07
  12  -6  14   12.54    1.04
   6 -14  12   11.76    0.73
   6  12  14   11.11    1.01
   7 -12  14    1.09    0.46
  12 -14   7    0.75    0.37
   7  14  12    0.86    0.56
  12   7  14   -0.08    0.61
  14  -7  12    1.55    0.59
   7 -14  12    0.24    0.36
  12  -7  14    0.34    0.53
   7  12  14    0.86    0.54
  14   7  12    0.53    0.61
   8 -12  14    3.58    0.57
  12 -14   8    3.80    0.52
  14  -8  12    4.29    0.72
   8  14  12    3.50    0.72
  12   8  14    2.54    0.77
  12  -8  14    3.09    0.67
  14   8  12    3.93    0.86
   8 -14  12    4.44    0.54
   8  12  14    4.23    0.78
  12 -14   9    1.21    0.42
   9  14  12    0.45    0.59
   9 -12  14    1.23    0.50
  14  -9  12    0.31    0.52
  12   9  14    0.96    0.67
  12  14   9    1.59    0.62
   9 -14  12    0.39    0.44
   9  12  14   -0.53    0.55
  12  -9  14   -0.59    0.49
  14   9  12    0.23    0.63
  12 -14  10    6.06    0.73
  10 -12  14    7.45    0.75
  10  14  12    6.53    0.89
  12  10  14    7.84    1.03
  14 -10  12    7.63    0.85
  14 -12  10    7.00    0.74
  10  12  14    7.79    0.96
  12  14  10    7.37    0.91
  12 -10  14    7.19    0.82
  14  10  12    6.42    0.96
  11 -12  14    0.06    0.47
  11  14  12   -0.74    0.59
  12  11  14   -0.19    0.61
  14  12  11    0.35    0.62
  14 -11  12    0.32    0.53
  14  11  12    0.67    0.63
  12  14  11   -0.05    0.60
  11  12  14    0.13    0.67
  14 -12  11    0.22    0.47
  12 -11  14   -0.48    0.47
  14 -12  12   -0.15    0.46
  12  14  12   -0.44    0.64
  14  12  12   -0.10    0.64
  12 -12  14    0.26    0.52
  12  12  14   -1.10    0.58
  13   0  14   -0.60    0.54
  14   0  13    0.46    0.58
   0  14  13   -0.55    0.44
   0  13  14    0.32    0.49
   1  14  13   11.93    0.96
  -1  13  14   12.25    1.01
  13   1  14    9.81    1.02
  14  -1  13   11.00    1.08
  13  -1  14   10.45    1.04
  -1  14  13    9.05    0.86
  14   1  13   10.22    1.05
   1  13  14   11.18    0.99
   2 -13  14    8.59    0.70
  -2  13  14    9.04    0.88
   2  14  13    7.21    0.82
  13   2  14    7.29    0.95
  14  -2  13    7.37    0.93
  -2  14  13   10.33    0.89
  13  -2  14   11.55    1.09
  14   2  13    9.64    1.05
   2  13  14    6.53    0.82
   3  14  13    2.01    0.59
   3 -13  14    1.75    0.44
  -3  13  14    3.20    0.62
  14  -3  13    1.95    0.66
  13   3  14    1.96    0.66
   3  13  14    1.57    0.60
  13  -3  14    1.21    0.60
  14   3  13    1.68    0.66
   3 -14  13    1.51    0.40
  -3  14  13    1.48    0.56
   4 -13  14    5.72    0.61
  -4  13  14    5.94    0.76
   4  14  13    5.10    0.75
  13   4  14    7.07    0.94
  14  -4  13    5.39    0.81
   4  13  14    5.03    0.76
   4 -14  13    6.17    0.58
  -4  14  13    5.91    0.75
  13  -4  14    5.68    0.83
  14   4  13    6.29    0.89
  -5  13  14    7.79    0.86
  14  -5  13    8.04    0.93
   5 -13  14    8.32    0.72
   5  14  13    9.55    0.93
  13   5  14    9.03    1.03
  14   5  13   11.39    1.11
  -5  14  13    9.67    0.91
   5 -14  13   11.30    0.75
  13  -5  14   11.21    1.06
   5  13  14   13.22    1.12
   6 -13  14   38.73    1.51
  14  -6  13   41.95    1.82
  13   6  14   41.89    1.95
   6  14  13   41.63    1.80
  13  -6  14   43.15    1.86
  14   6  13   40.28    1.94
   6  13  14   41.18    1.85
   6 -14  13   39.17    1.45
  14  -7  13    6.42    0.83
   7 -13  14    5.43    0.66
   7  14  13    6.11    0.84
  13   7  14    4.10    0.85
  13  -7  14    6.00    0.82
  14   7  13    6.69    0.99
   7  13  14    5.10    0.83
   7 -14  13    4.75    0.56
   8  14  13    7.85    0.92
  14  -8  13    6.99    0.89
  13   8  14    7.03    1.00
   8 -13  14    7.55    0.74
  13 -14   8    8.16    0.71
   8  13  14    6.27    0.90
  13  -8  14    6.00    0.82
  14   8  13    5.33    0.93
   8 -14  13    5.06    0.67
  14  -9  13   13.17    1.10
  13   9  14   12.77    1.23
   9  14  13   13.01    1.17
   9 -13  14   12.92    0.94
  13 -14   9   13.79    1.00
  14 -13   9   14.18    0.99
   9  13  14   13.87    1.21
  13  -9  14   12.42    1.05
  14   9  13   12.82    1.23
  13  14   9   13.62    1.17
  14  13  10    6.21    0.94
  14 -10  13    5.82    0.81
  10  14  13    5.49    0.89
  13  10  14    9.82    1.11
  10 -13  14    7.79    0.78
  14  10  13    7.29    1.02
  13 -10  14    8.16    0.89
  13  14  10    6.67    0.92
  14 -13  10    6.99    0.77
  10  13  14    5.68    0.92
  14  13  11    2.63    0.76
  14 -11  13    3.55    0.70
  13  11  14    4.81    0.92
  11 -13  14    3.47    0.64
  11  14  13    3.47    0.82
  14 -13  11    3.82    0.66
  11  13  14    4.55    0.89
  13 -11  14    4.38    0.73
  14  11  13    4.03    0.89
  13  14  11    3.75    0.81
  13  12  14    2.40    0.83
  14 -12  13    2.22    0.63
  12  14  13    2.97    0.81
  12 -13  14    1.97    0.60
  14  13  12    2.69    0.81
  14  12  13    3.91    0.87
  13 -12  14    3.69    0.71
  12  13  14    2.34    0.82
  14 -13  12    2.49    0.61
  13  14  12    4.52    0.89
  13 -13  14    4.20    0.73
  13  13  14    6.40    1.03
  13  14  13    4.30    0.92
  14 -13  13    4.20    0.73
  14  13  13    4.49    0.98
   0  14  14    0.67    0.52
  14   0  14    0.50    0.65
  -1  14  14    2.67    0.63
   1  14  14    3.23    0.63
  14  -1  14    1.42    0.69
  14   1  14    3.77    0.80
  -2  14  14    1.57    0.56
   2 -14  14    2.10    0.45
   2  14  14    1.94    0.60
  14  -2  14    1.47    0.69
  14   2  14    0.51    0.67
  -3  14  14    2.65    0.66
   3 -14  14    3.81    0.52
   3  14  14    2.85    0.64
  14  -3  14    3.70    0.76
  14   3  14    4.21    0.87
  -4  14  14   10.96    0.99
   4 -14  14   10.08    0.74
   4  14  14   11.48    1.03
  14  -4  14   12.17    1.10
  14   4  14    9.62    1.11
  -5  14  14    1.80    0.58
   5 -14  14    1.38    0.44
   5  14  14    1.25    0.60
  14  -5  14    0.81    0.60
  14   5  14    1.11    0.68
   6 -14  14    0.68    0.43
   6  14  14    0.12    0.58
  14  -6  14    1.61    0.63
  14   6  14    0.79    0.70
   7 -14  14    2.35    0.58
   7  14  14    1.84    0.71
  14  -7  14    2.24    0.69
  14   7  14    1.54    0.74
   8  14  14   -0.24    0.59
  14 -14   8    0.14    0.42
  14  -8  14    0.13    0.55
  14   8  14   -0.15    0.67
   9  14  14    0.88    0.68
  14 -14   9    0.75    0.74
  14  -9  14    1.59    0.63
  14   9  14    1.24    0.74
  10  14  14   13.62    1.27
  14 -10  14   16.47    1.19
  14  10  14   13.71    1.31
  14  14  10   15.65    1.30
  11  14  14    0.27    0.67
  14 -11  14    0.21    0.52
  14  11  14    0.44    0.72
  14  14  11   -0.18    0.64
  12  14  14    1.66    0.78
  14 -12  14    2.21    0.65
  14  12  14    2.76    0.86
  14  14  12    2.11    0.83
  13  14  14    0.88    0.74
  14 -13  14    0.96    0.62
  14  13  14   -0.74    0.74
  14  14  13   -0.40    0.70
  14  14  14   24.89    1.70
   0   0  15    1.58    0.48
   0  -1  15    0.53    0.44
   0   1  15    0.46    0.46
   1   0  15    0.67    0.44
  -1   0  15    1.51    0.53
   1   1  15    6.26    0.70
   1  15   1    6.69    0.32
  -1  -1  15    6.28    0.71
  -1   1  15    6.72    0.75
   1  -1  15    7.34    0.76
   0   2  15  166.44    4.75
   0  -2  15  160.43    4.69
   2   0  15  163.16    4.73
   2  15   0  171.06    4.18
   0  15   2  171.07    4.21
  -2   0  15  159.69    4.74
   2   1  15    3.92    0.61
   1  -2  15    5.45    0.70
  -2  -1  15    5.00    0.69
  -1   2  15    5.18    0.68
   1  15   2    4.48    0.33
  -2   1  15    5.62    0.73
   2  15   1    7.24    0.37
  -1  -2  15    5.62    0.72
   1   2  15    7.21    0.79
   2  -1  15    5.71    0.68
  -2   2  15    0.16    0.45
   2   2  15    0.72    0.49
   2  15   2    0.58    0.21
   2  -2  15    0.61    0.44
  -2  -2  15    0.95    0.47
   3   0  15    1.53    0.52
   0   3  15    1.61    0.48
   0  -3  15    2.62    0.52
   3  15   0    1.80    0.24
  -3   0  15    2.39    0.56
   0  15   3    2.42    0.28
  -3  -1  15   25.06    1.29
   3  15  -1   26.16    0.82
   1  -3  15   29.10    1.30
   1  15   3   26.96    0.90
   3   1  15   27.49    1.32
  -1   3  15   25.97    1.32
   3  -1  15   24.30    1.25
   3  15   1   25.35    0.86
  -1  -3  15   26.47    1.27
   1   3  15   26.49    1.31
  -3   1  15   27.58    1.31
   3   2  15   25.84    1.25
  -3  -2  15   23.67    1.23
   2  -3  15   25.18    1.23
  -2   3  15   23.71    1.25
   2  15   3   24.29    0.87
  -3   2  15   26.96    1.32
   3  15   2   24.87    0.89
  -2  -3  15   26.76    1.28
   3  -2  15   27.28    1.29
   2   3  15   24.22    1.30
  -3   3  15    1.11    0.45
   3   3  15    1.40    0.49
   3  -3  15    1.57    0.49
   3  15   3    1.58    0.31
  -3  -3  15    1.27    0.51
   0   4  15    0.23    0.47
   4   0  15    0.28    0.46
   0  15   4   -0.22    0.22
   0  -4  15   -0.75    0.38
  -4   0  15   -0.04    0.43
   4  15   0   -0.11    0.22
  -4  -1  15   51.32    1.90
   4   1  15   48.19    1.89
   1  -4  15   48.36    1.82
  -1   4  15   51.07    1.92
   1  15   4   48.80    1.50
   4  -1  15   49.17    1.88
  -1  -4  15   50.29    1.85
  -4   1  15   47.23    1.83
   1   4  15   51.63    1.91
  -1  15   4   46.61    1.44
   4  15   1   49.17    1.46
   2  15   4   38.57    1.29
  -4  -2  15   42.06    1.67
   2  -4  15   41.32    1.62
   4   2  15   41.80    1.70
  -2   4  15   39.15    1.67
   4  -2  15   35.28    1.51
   2   4  15   35.52    1.57
  -2  -4  15   34.53    1.48
  -4   2  15   34.54    1.54
   4  15   2   36.46    1.17
  -4  -3  15   30.74    1.40
   4   3  15   30.07    1.44
   3  15   4   31.94    1.10
  -3   4  15   28.52    1.41
   3  -4  15   32.47    1.43
   3   4  15   31.10    1.46
   4  15   3   31.61    1.11
  -4   3  15   31.41    1.45
   4  -3  15   32.41    1.42
  -3  -4  15   31.57    1.39
   4   4  15    3.51    0.61
   4  15   4    5.36    0.47
  -4  -4  15    4.22    0.63
  -4   4  15    5.50    0.72
   4  -4  15    5.13    0.66
   0  15   5    3.84    0.39
  -5   0  15    2.63    0.55
   0  -5  15    3.56    0.59
   5   0  15    3.86    0.66
   0   5  15    3.02    0.60
  -1   5  15   15.59    1.04
   1  -5  15   14.30    0.92
   1  15   5   13.95    0.69
  -5  -1  15   12.56    0.98
   5   1  15   11.45    0.94
   5  -1  15   17.35    1.08
   1   5  15   16.25    1.07
  -1  15   5   17.20    0.74
  -1  -5  15   16.38    1.03
  -5   1  15   16.53    1.09
   5   2  15   24.28    1.27
  -2   5  15   23.61    1.25
   2  -5  15   21.98    1.15
  -5  -2  15   23.72    1.24
   2  15   5   24.57    0.94
  -2  15   5   22.97    0.88
  -5   2  15   23.22    1.26
   5  -2  15   22.17    1.24
   2   5  15   22.95    1.27
   5  15   2   23.74    0.92
  -2  -5  15   23.79    1.20
   3  15   5   11.58    0.68
  -3   5  15   12.04    1.00
   3  -5  15   13.05    0.94
   5   3  15   10.15    0.94
   5  15   3    7.94    0.56
   3   5  15    5.69    0.72
  -5   3  15    6.25    0.74
   5  -3  15    6.44    0.74
  -3  -5  15    6.43    0.71
   4  15   5    3.00    0.42
  -4   5  15    1.69    0.54
   4  -5  15    2.77    0.54
   5   4  15    3.25    0.65
  -4  -5  15    1.86    0.50
  -5   4  15    2.74    0.60
   4   5  15    1.90    0.57
   5  15   4    2.49    0.41
   5  -4  15    2.03    0.54
  -5   5  15    7.52    0.87
   5  -5  15    6.95    0.75
   5   5  15    6.63    0.76
   5  15   5    7.12    0.61
   6   0  15   81.70    2.72
   0  -6  15   82.45    2.63
   0  15   6   80.05    2.35
   0   6  15   82.19    2.72
   6   1  15   16.31    1.08
   1  15   6   16.84    0.81
   1  -6  15   16.53    1.01
  -1   6  15   15.21    1.06
   6  -1  15   18.36    1.14
   1   6  15   18.96    1.16
  -6   1  15   19.59    1.17
  -1  -6  15   18.28    1.03
  -1  15   6   19.19    0.83
   2  -6  15    6.21    0.69
   6   2  15    8.47    0.85
  -2   6  15    6.72    0.75
   2  15   6    6.53    0.55
  -6   2  15    6.92    0.78
  -2  -6  15    6.79    0.72
   2   6  15    7.36    0.82
  -2  15   6    6.76    0.53
   6  -2  15    9.04    0.87
   3  15   6   21.28    0.93
  -3   6  15   21.42    1.22
   6   3  15   23.17    1.22
   3  -6  15   19.34    1.08
   3   6  15   21.45    1.24
   6  15   3   20.99    0.94
  -3  -6  15   22.90    1.15
   6  -3  15   24.22    1.23
  -6   3  15   22.04    1.24
  -4   6  15    5.81    0.72
   6   4  15    4.94    0.69
   4  15   6    5.74    0.56
   4  -6  15    5.46    0.67
   6  -4  15    3.67    0.60
   4   6  15    2.73    0.60
  -6   4  15    4.17    0.68
   6  15   4    2.95    0.45
   5  15   6    7.41    0.62
   6   5  15    5.17    0.78
  -5   6  15    6.27    0.80
   5  -6  15    6.48    0.73
   5   6  15    8.12    0.85
   6  15   5    7.55    0.64
  -6   5  15    7.17    0.82
   6  -5  15    9.70    0.85
   6  15   6    1.83    0.44
   6   6  15    2.28    0.62
  -6   6  15    1.75    0.59
   6  -6  15    1.56    0.51
   0  15   7    3.24    0.45
   7   0  15    3.31    0.62
   0   7  15    3.70    0.64
   0  -7  15    4.32    0.60
   1  15   7   40.23    1.39
   7   1  15   39.82    1.70
   1  -7  15   39.50    1.56
  -1   7  15   34.06    1.61
  -1  -7  15   39.30    1.54
   1   7  15   37.83    1.64
   7  -1  15   35.97    1.62
  -1  15   7   37.56    1.34
  -2   7  15    7.49    0.83
   2  -7  15    8.49    0.77
   7   2  15    5.10    0.72
   2  15   7    7.44    0.62
  -2  15   7    8.74    0.62
  -2  -7  15    7.55    0.74
   2   7  15    6.85    0.79
   7  -2  15    7.90    0.83
   3  -7  15    2.00    0.51
  -3   7  15    2.40    0.58
   3  15   7    1.59    0.39
   7   3  15    0.98    0.54
   7  -3  15    1.87    0.54
  -3  -7  15    1.67    0.48
   3   7  15    1.52    0.57
  -3  15   7    1.28    0.37
   7   4  15   42.30    1.78
  -4   7  15   45.49    1.82
   4  -7  15   43.86    1.69
   4  15   7   42.18    1.54
   7  15   4   42.78    1.52
   4   7  15   41.74    1.78
   7  -4  15   43.87    1.74
   7   5  15   27.17    1.41
  -5   7  15   26.77    1.38
   5  15   7   23.88    1.10
   5  -7  15   25.70    1.26
   5   7  15   24.96    1.35
   7  -5  15   23.34    1.24
   7  15   5   24.08    1.09
  -6   7  15    2.49    0.61
   7   6  15    3.20    0.71
   6  -7  15    3.33    0.59
   6  15   7    1.88    0.45
   7  -6  15    2.40    0.56
   6   7  15    2.35    0.63
   7  15   6    2.01    0.46
   7   7  15    0.89    0.55
   7  -7  15    0.88    0.46
   7  15   7   -0.08    0.37
   0   8  15    1.96    0.59
   8   0  15    2.14    0.59
   0  -8  15    2.01    0.50
   0  15   8    1.67    0.39
   1  15   8   14.65    0.84
   8   1  15   11.55    1.01
  -1   8  15   14.02    1.07
   1  -8  15   16.10    0.97
  -1  -8  15   12.95    0.92
  -1  15   8   11.64    0.76
   8  -1  15   14.23    1.11
   1   8  15   14.60    1.11
   8   2  15   17.45    1.18
   2  15   8   16.68    0.90
   2  -8  15   17.23    1.02
  -2   8  15   17.32    1.12
  -2  15   8   16.60    0.85
  -2  -8  15   15.28    0.99
   8  -2  15   16.44    1.10
   2   8  15   17.83    1.13
   3  15   8    7.59    0.66
  -3   8  15    7.03    0.80
   8   3  15    7.46    0.86
   3  -8  15    7.87    0.75
   3   8  15    7.87    0.83
  -3  15   8    7.53    0.63
   8  -3  15    6.66    0.78
   4  15   8   17.94    0.94
  -4   8  15   16.19    1.10
   8   4  15   16.37    1.23
   4  -8  15   17.30    1.03
   4   8  15   18.51    1.19
   8  -4  15   18.82    1.19
   5  -8  15    1.23    0.48
   5  15   8    1.49    0.46
  -5   8  15    1.94    0.59
   8   5  15    1.20    0.57
   5   8  15    0.02    0.53
   8  15   5    0.76    0.42
   8  -5  15    1.21    0.52
  -6   8  15   14.29    1.11
   8   6  15   12.42    1.09
   6  15   8   14.52    0.91
   6  -8  15   14.90    0.97
   6   8  15   15.58    1.20
   8  15   6   15.57    0.96
   8  -6  15   16.97    1.06
   7  15   8    8.81    0.80
   7  -8  15    7.10    0.75
   8   7  15    9.20    0.97
   8  -7  15   10.89    0.92
   7   8  15    9.78    1.00
   8  15   7   10.07    0.83
   8   8  15    8.39    0.96
   8  15   8    8.29    0.79
   8  -8  15    8.27    0.82
   9   0  15   35.96    1.64
   0  15   9   34.89    1.35
   0  -9  15   35.52    1.44
   0   9  15   33.97    1.61
   1  -9  15   12.19    0.89
   9   1  15   10.62    0.99
  -1   9  15   12.02    1.01
   1  15   9   12.75    0.83
  -1  -9  15   11.86    0.88
   1   9  15   10.77    0.96
   9  -1  15   11.11    1.03
  -1  15   9    9.17    0.74
   2  15   9   10.43    0.77
   2  -9  15    8.22    0.76
  -2   9  15    9.04    0.90
   9   2  15    8.74    0.94
   9  -2  15    7.42    0.85
   2   9  15    9.32    0.91
  -2  15   9    8.85    0.72
  -2  -9  15   10.33    0.83
   3  15   9   19.19    1.02
   9   3  15   21.76    1.33
   3  -9  15   21.30    1.09
  -3   9  15   21.75    1.24
   3   9  15   17.70    1.21
  -3  15   9   17.08    0.92
   9  -3  15   20.29    1.20
   4  15   9    5.00    0.61
   4  -9  15    4.93    0.63
   9   4  15    3.08    0.66
  -4   9  15    3.30    0.67
   9  -4  15    6.93    0.83
   4   9  15    7.45    0.87
   9   5  15   20.70    1.31
   5  -9  15   19.23    1.07
   5  15   9   19.45    1.06
  -5   9  15   20.73    1.23
   9  -5  15   20.09    1.16
   5   9  15   17.39    1.21
   6  -9  15    1.78    0.50
   6  15   9    1.44    0.47
  -6   9  15    0.48    0.53
   9   6  15    1.46    0.60
   9  -6  15    0.40    0.46
   9  15   6    0.82    0.45
   6   9  15    0.52    0.55
   7  -9  15   10.66    0.88
   9   7  15   10.00    1.01
   7  15   9   11.60    0.92
   9  -7  15   10.39    0.92
   9  15   7   10.33    0.88
   7   9  15    9.02    0.99
   8  -9  15    8.86    0.84
   9   8  15    9.88    1.00
   8  15   9   10.09    0.90
   8   9  15   10.69    1.06
   9  -8  15    8.48    0.86
   9  15   8   10.12    0.87
   9  -9  15    1.96    0.58
   9  15   9    1.17    0.54
   9   9  15    1.63    0.66
   0  15  10    5.60    0.64
  10   0  15    5.25    0.79
   0 -10  15    5.52    0.62
   0  10  15    5.89    0.79
  -1  10  15   11.31    0.98
   1 -10  15   10.70    0.84
  10   1  15   10.73    1.00
   1  15  10   12.55    0.87
   1  10  15   13.35    1.05
  -1  15  10   12.66    0.85
  10  -1  15   11.74    1.02
  -1 -10  15   12.11    0.87
  -2  10  15    7.20    0.85
   2 -10  15    6.21    0.69
   2  15  10    6.15    0.67
  10   2  15    6.84    0.89
  -2  15  10    6.93    0.66
   2  10  15    6.07    0.81
  10  -2  15    6.63    0.84
  10   3  15    5.83    0.86
  -3  10  15    5.90    0.78
   3 -10  15    6.11    0.66
   3  15  10    6.79    0.70
   3  10  15    5.81    0.76
  10  -3  15    5.34    0.78
  -3  15  10    6.53    0.67
  -4  10  15    2.69    0.66
   4  15  10    3.29    0.56
  10   4  15    2.21    0.62
   4 -10  15    4.15    0.60
   4  10  15    4.14    0.74
  10  -4  15    4.77    0.76
  -4  15  10    5.62    0.64
  10   5  15    3.66    0.74
   5  15  10    5.15    0.67
  -5  10  15    4.38    0.74
   5 -10  15    4.93    0.64
   5  10  15    2.77    0.68
  10  -5  15    3.00    0.65
   6 -10  15    6.25    0.71
  10   6  15    6.64    0.90
   6  15  10    6.87    0.77
  -6  10  15    7.78    0.88
  10  -6  15    6.99    0.83
   6  10  15    5.61    0.84
   7  15  10    9.57    0.90
   7 -10  15   11.07    0.89
  10   7  15   10.86    1.09
  10  15   7   11.30    0.94
  10  -7  15   10.03    0.95
   7  10  15    8.62    0.95
   8 -10  15    6.77    0.73
   8  15  10    7.77    0.83
  10   8  15    6.35    0.89
   8  10  15    8.77    0.98
  10  15   8    9.50    0.89
  10  -8  15    7.84    0.85
   9 -10  15    7.38    0.81
   9  15  10    9.22    0.92
  10   9  15    7.80    1.01
  10  -9  15    7.96    0.84
  10  15   9    6.31    0.82
   9  10  15    7.34    0.96
  10  10  15   33.62    1.76
  10 -10  15   33.84    1.55
  10  15  10   37.71    1.68
   0  11  15   12.72    1.05
   0 -11  15   13.71    0.88
   0  15  11   12.67    0.94
  11   0  15   11.83    1.07
  11   1  15   26.73    1.50
   1  15  11   26.32    1.26
   1 -11  15   27.20    1.24
  -1  11  15   29.68    1.48
  -1  15  11   24.19    1.21
   1  11  15   22.28    1.30
  11  -1  15   21.90    1.34
   2  15  11   17.89    1.06
  -2  11  15   18.69    1.25
   2 -11  15   19.15    1.02
  11   2  15   19.42    1.30
   2  11  15   19.82    1.27
  -2  15  11   22.53    1.15
  11  -2  15   24.68    1.38
  11   3  15    3.35    0.74
   3 -11  15    4.06    0.58
   3  15  11    2.19    0.54
  -3  11  15    3.10    0.67
  -3  15  11    2.48    0.51
  11  -3  15    2.69    0.68
   3  11  15    2.40    0.65
   4  15  11    3.17    0.61
  -4  11  15    3.47    0.68
  11   4  15    3.72    0.76
   4 -11  15    2.77    0.54
  -4  15  11    6.14    0.68
   4  11  15    5.01    0.77
  11  -4  15    5.12    0.78
  -5  11  15    5.09    0.78
   5 -11  15    5.94    0.69
   5  15  11    6.38    0.74
  11   5  15    4.82    0.84
  11  -5  15    3.52    0.69
   5  11  15    4.24    0.74
   6 -11  15    8.91    0.79
  11   6  15    9.62    1.07
   6  15  11    8.70    0.86
   6  11  15    7.73    0.95
  11  -6  15    7.33    0.86
  11   7  15    2.24    0.70
   7  15  11    3.45    0.64
   7 -11  15    3.73    0.60
   7  11  15    3.76    0.79
  11  -7  15    1.96    0.63
   8 -11  15    2.56    0.58
   8  15  11    1.26    0.59
  11   8  15    2.49    0.74
  11  -8  15    4.33    0.73
   8  11  15    3.41    0.77
  11  15   8    3.61    0.68
   9  15  11    9.14    0.94
   9 -11  15   11.34    0.92
  11   9  15    8.80    1.03
  11  -9  15   10.29    0.95
   9  11  15   11.29    1.13
  11  15   9   11.16    1.02
  15 -10  11    6.72    0.81
  10  15  11    6.57    0.86
  11  10  15    6.77    0.99
  10 -11  15    7.39    0.82
  10  11  15    5.10    0.92
  11 -10  15    5.84    0.78
  11  15  10    8.13    0.93
  11 -11  15    6.76    0.82
  11  11  15    4.92    0.93
  15 -11  11    5.40    0.78
  11  15  11    5.75    0.86
   0  12  15   12.27    1.04
  12   0  15   11.00    1.07
   0  15  12   12.30    0.95
   1 -12  15    6.85    0.68
  -1  12  15    7.04    0.83
  12   1  15    8.44    1.02
   1  15  12    5.66    0.70
  12  -1  15    8.59    0.96
   1  12  15    9.03    0.93
  -1  15  12    8.40    0.82
   2  15  12    5.83    0.74
  12   2  15    4.90    0.83
   2 -12  15    4.87    0.61
  -2  12  15    6.10    0.80
  12  -2  15    5.28    0.85
  -2  15  12    4.27    0.64
   2  12  15    4.67    0.75
   3 -12  15    9.45    0.78
   3  15  12    6.73    0.78
  12   3  15    7.18    0.96
  -3  12  15    7.16    0.85
  12  -3  15    9.28    1.00
  -3  15  12    8.95    0.82
   3  12  15    8.51    0.93
   4  15  12   13.42    1.02
  12   4  15   13.71    1.19
  -4  12  15   13.62    1.09
   4 -12  15   13.07    0.91
   4  12  15   13.87    1.16
  12  -4  15   14.63    1.18
  -4  15  12   14.81    1.00
  -5  12  15    3.87    0.73
   5  15  12    5.57    0.76
  12   5  15    4.56    0.84
   5 -12  15    5.82    0.65
  12  -5  15    6.08    0.84
   5  12  15    5.13    0.78
   6 -12  15    5.00    0.65
  12   6  15    5.81    0.90
   6  15  12    6.20    0.80
   6  12  15    4.76    0.80
  12  -6  15    5.50    0.81
  12   7  15   10.03    1.13
   7 -12  15    7.87    0.78
   7  15  12    8.29    0.91
  15  -7  12    8.28    0.93
   7  12  15    5.65    0.89
  12  -7  15    7.04    0.87
  15  -8  12   15.31    1.17
   8  15  12   13.23    1.14
   8 -12  15   14.97    1.01
  12   8  15   18.83    1.42
  12  15   8   13.09    1.12
  12  -8  15   14.98    1.16
   8  12  15   13.77    1.22
   9  15  12    4.33    0.80
   9 -12  15    4.90    0.69
  15  -9  12    3.12    0.69
  12   9  15    6.02    0.97
  15   9  12    4.24    0.86
  12  -9  15    2.67    0.64
   9  12  15    2.75    0.78
  12  15   9    2.72    0.70
  12  10  15    1.66    0.78
  10  15  12    2.15    0.68
  15 -10  12    2.14    0.65
  10 -12  15    2.20    0.58
  10  12  15    2.16    0.77
  12 -10  15    1.56    0.61
  15 -12  10    2.37    0.57
  15  10  12    3.59    0.83
  12  15  10    3.36    0.73
  11 -12  15    6.32    0.77
  11  15  12    6.98    0.94
  15 -11  12    6.10    0.84
  12  11  15    5.14    0.96
  15  12  11    4.54    0.89
  15 -12  11    5.50    0.75
  11  12  15    5.73    0.95
  15  11  12    5.62    0.96
  12 -11  15    5.46    0.78
  12  15  11    5.06    0.86
  12  15  12    5.46    0.92
  15  12  12    7.31    1.04
  15 -12  12    7.53    0.87
  12 -12  15    8.08    0.89
  12  12  15    6.55    1.03
   0  15  13   14.72    1.07
   0  13  15   15.17    1.14
  13   0  15   13.69    1.26
  -1  13  15    1.45    0.60
   1  15  13    2.11    0.57
  13   1  15    0.78    0.66
   1 -13  15    1.08    0.45
  15  -1  13    1.27    0.69
   1  13  15    2.09    0.63
  -1  15  13    1.38    0.56
  13  -1  15    1.44    0.70
  13   2  15   19.30    1.43
   2 -13  15   18.11    1.01
   2  15  13   21.10    1.22
  -2  13  15   20.61    1.24
  15  -2  13   19.96    1.45
  13  -2  15   16.98    1.31
   2  13  15   17.51    1.26
  -2  15  13   19.40    1.15
   3  15  13    1.96    0.60
   3 -13  15    2.47    0.51
  -3  13  15    2.85    0.66
  13   3  15    1.78    0.74
  15  -3  13    1.76    0.71
  -3  15  13    0.99    0.53
  13  -3  15    1.71    0.68
   3  13  15    2.16    0.65
  15   3  13    1.99    0.71
  13   4  15    8.62    1.05
   4 -13  15    9.25    0.79
  15  -4  13   10.70    1.06
   4  15  13    8.08    0.89
  -4  13  15   10.15    0.98
  -4  15  13   10.95    0.94
  13  -4  15   11.55    1.10
   4  13  15    8.07    0.94
  15   4  13   11.96    1.15
   5 -13  15    1.20    0.46
   5  15  13    2.00    0.60
  15  -5  13    1.84    0.68
  -5  13  15    0.82    0.58
  13   5  15    1.46    0.74
   5  13  15    1.10    0.59
  13  -5  15    2.42    0.68
  15   5  13    2.04    0.71
   6  15  13    4.85    0.78
  15  -6  13    2.94    0.73
   6 -13  15    4.20    0.61
  13   6  15    3.88    0.85
  13  -6  15    3.28    0.73
  15   6  13    4.18    0.87
   6  13  15    2.72    0.74
   7 -13  15    3.20    0.57
  15  -7  13    3.15    0.71
  13   7  15    3.56    0.86
   7  15  13    2.02    0.71
   7  13  15    2.62    0.76
  15   7  13    1.48    0.77
  13  -7  15    3.13    0.71
  13   8  15    0.20    0.68
   8  15  13   -0.13    0.56
  15  -8  13   -0.23    0.57
   8 -13  15   -0.23    0.43
   8  13  15   -0.58    0.58
  15   8  13   -0.38    0.66
  13  -8  15    0.02    0.55
   9 -13  15    2.09    0.56
  13   9  15    1.50    0.76
  15  -9  13    0.33    0.58
   9  15  13    2.68    0.70
  15   9  13    0.58    0.68
  13  15   9    2.35    0.70
   9  13  15    0.74    0.70
  13  -9  15    0.60    0.57
  10  15  13    3.21    0.78
  15 -10  13    1.67    0.67
  10 -13  15    2.46    0.61
  13  10  15    2.20    0.81
  13 -10  15    2.97    0.68
  15 -13  10    2.34    0.63
  10  13  15    1.97    0.75
  15  10  13    2.88    0.82
  13  15  10    2.06    0.74
  13  11  15   11.62    1.23
  11 -13  15    9.23    0.90
  15 -11  13   10.16    0.97
  11  15  13   12.35    1.20
  15  13  11   10.01    1.15
  13  15  11   10.15    1.11
  11  13  15   12.85    1.27
  13 -11  15   11.10    1.01
  15 -13  11   10.13    0.94
  15  11  13    9.70    1.18
  12 -13  15    0.35    0.55
  15  13  12    0.14    0.70
  13  12  15    0.02    0.71
  12  15  13    0.15    0.67
  15 -12  13    0.29    0.55
  15 -13  12   -0.12    0.53
  15  12  13    0.73    0.74
  13  15  12   -0.22    0.64
  13 -12  15   -0.67    0.52
  12  13  15    1.16    0.76
  15  13  13    4.37    0.97
  13  15  13    4.17    0.91
  15 -13  13    4.78    0.77
  13  13  15    4.14    0.93
  13 -13  15    5.54    0.87
   0  15  14    0.67    0.53
   0  14  15    0.74    0.55
  15   0  14    0.34    0.68
  14   0  15   -0.78    0.58
  15  -1  14    3.57    0.80
  14   1  15    1.14    0.74
   1  15  14    2.38    0.64
  -1  14  15    2.12    0.66
  -1  15  14    1.58    0.61
   1  14  15    1.62    0.61
  14  -1  15    2.74    0.76
  15   1  14    1.85    0.74
   2 -14  15   19.77    0.99
   2  15  14   17.62    1.24
  -2  14  15   16.45    1.21
  14   2  15   20.02    1.53
  15  -2  14   15.10    1.30
   2  14  15   19.17    1.25
  15   2  14   17.98    1.42
  14  -2  15   18.97    1.41
  -2  15  14   21.00    1.23
  -3  14  15    1.45    0.63
  15  -3  14    2.52    0.75
   3 -14  15    2.21    0.47
   3  15  14    1.49    0.63
  14   3  15    0.82    0.71
   3  14  15    1.42    0.64
  15   3  14    2.58    0.79
  14  -3  15    3.00    0.77
  -3  15  14    2.45    0.60
   4 -14  15    4.33    0.58
   4  15  14    3.87    0.74
  -4  14  15    2.38    0.70
  14   4  15    3.78    0.84
  15  -4  14    4.50    0.84
   4  14  15    2.63    0.69
  -4  15  14    6.02    0.77
  14  -4  15    2.79    0.80
  15   4  14    6.18    0.95
   5  15  14   24.49    1.44
  15  -5  14   22.88    1.51
  -5  14  15   25.81    1.39
  14   5  15   24.85    1.62
   5 -14  15   25.91    1.18
  14  -5  15   22.57    1.42
   5  14  15   22.92    1.42
  15   5  14   21.05    1.57
  14   6  15   10.75    1.22
   6  15  14   10.72    1.07
   6 -14  15   12.05    1.09
  15  -6  14   12.52    1.18
   6  14  15   12.32    1.17
  14  -6  15   12.16    1.16
  15   6  14   13.15    1.29
   7  15  14    6.06    0.87
  15  -7  14    6.82    0.92
  14   7  15    6.37    1.01
  14  -7  15    7.28    0.93
  15   7  14    6.94    1.04
   7  14  15    7.28    0.98
   8  15  14    8.05    0.99
  15  -8  14    7.63    0.97
  14   8  15    8.34    1.14
   8  14  15    9.05    1.07
  15   8  14    9.74    1.21
  14  -8  15    7.77    0.92
  15  -9  14   11.05    1.08
   9  15  14    9.70    1.09
  14   9  15   12.76    1.29
   9  14  15   12.13    1.20
  14  15   9   11.67    1.14
  15   9  14   12.42    1.31
  14  -9  15   11.22    1.10
  14  10  15   10.69    1.25
  15 -10  14   11.07    1.06
  10  15  14   12.33    1.19
  15  14  10   11.89    1.20
  14 -10  15   12.32    1.11
  10  14  15   14.02    1.26
  14  15  10    9.35    1.09
  15  10  14   11.57    1.25
  11  15  14    1.57    0.78
  15  14  11    1.71    0.77
  14  11  15    0.24    0.74
  15 -11  14    1.48    0.62
  11  14  15    1.35    0.78
  14 -11  15    2.61    0.71
  15  11  14    3.36    0.92
  14  15  11    1.37    0.74
  14  12  15    2.67    0.88
  12  15  14    2.49    0.85
  15  14  12    2.66    0.83
  15 -12  14    1.85    0.66
  14  15  12    3.62    0.91
  12  14  15    2.98    0.88
  15  12  14    2.38    0.87
  14 -12  15    1.75    0.64
  13  15  14    3.29    0.89
  15  14  13    3.00    0.92
  14  13  15    4.31    1.00
  15  13  14    2.47    0.86
  13  14  15    3.41    0.93
  14  15  13    2.77    0.86
  14  14  15    0.74    0.82
  14  15  14    0.82    0.80
  15  14  14    0.70    0.80
   0  15  15    3.33    0.71
  15   0  15    4.66    0.86
  -1  15  15   29.77    1.52
   1  15  15   29.04    1.51
  15  -1  15   27.16    1.67
  15   1  15   28.82    1.73
  -2  15  15    6.52    0.83
   2  15  15    6.55    0.86
  15  -2  15    5.69    0.95
  15   2  15    5.20    0.97
  -3  15  15   -0.37    0.49
   3  15  15   -0.58    0.55
  15  -3  15    0.62    0.67
  15   3  15    0.25    0.68
  -4  15  15    0.25    0.52
   4  15  15    0.00    0.56
  15  -4  15    0.18    0.63
  15   4  15    0.11    0.66
   5  15  15   -0.09    0.59
  15  -5  15    1.71    0.73
  15   5  15   -0.12    0.68
   6  15  15    1.30    0.66
  15  -6  15    1.67    0.70
  15   6  15    1.50    0.80
   7  15  15    3.98    0.84
  15  -7  15    6.52    0.94
  15   7  15    5.58    1.00
   8  15  15    3.22    0.83
  15  -8  15    1.35    0.68
  15   8  15    3.13    0.89
   9  15  15    2.99    0.86
  15  -9  15    2.84    0.74
  15   9  15    3.73    0.94
  10  15  15   -0.21    0.70
  15 -10  15    0.28    0.60
  15  10  15   -0.18    0.77
  15  15  10    0.71    0.73
  11  15  15    7.59    1.09
  15 -11  15    6.02    0.87
  15  11  15    6.57    1.11
  15  15  11    4.17    0.94
  12  15  15    1.08    0.80
  15 -12  15    1.13    0.63
  15  12  15    1.84    0.88
  15  15  12    0.87    0.78
  13  15  15    2.61    0.91
  15  13  15    2.56    0.93
  15  15  13    3.25    0.95
  14  15  15   -0.75    0.78
  15  14  15    0.85    0.88
  15  15  14    0.02    0.80
   0   0  16    1.71    0.53
   0  -1  16    1.48    0.52
   0   1  16    1.12    0.53
  -1   0  16    2.87    0.60
   1   0  16    0.96    0.53
  -1  -1  16   23.44    1.25
  -1   1  16   24.27    1.29
   1  -1  16   25.81    1.30
   1   1  16   23.95    1.29
   0  -2  16   32.89    1.49
   0   2  16   33.82    1.52
   2   0  16   31.92    1.50
  -2   0  16   31.64    1.50
   1  -2  16   23.87    1.26
  -1   2  16   23.93    1.29
   2   1  16   24.59    1.28
  -2  -1  16   21.46    1.24
   1  16   2   23.07    0.75
  -1  -2  16   21.25    1.20
  -2   1  16   23.59    1.28
   2  16   1   22.56    0.72
   2  -1  16   21.49    1.21
   1   2  16   22.73    1.26
  -2  -2  16   -0.63    0.42
   2  16   2    0.03    0.20
   2   2  16    0.68    0.52
  -2   2  16    0.21    0.50
   2  -2  16    0.17    0.46
   0  -3  16    9.14    0.86
   0   3  16    8.89    0.90
   3  16   0    9.34    0.42
  -3   0  16    8.05    0.85
   0  16   3    8.46    0.45
   3   0  16    8.37    0.86
   1  -3  16   36.16    1.53
  -3  -1  16   36.66    1.58
  -1   3  16   35.53    1.58
   3  16  -1   34.40    0.99
   1  16   3   33.26    1.07
   3   1  16   33.15    1.51
   3  -1  16   37.11    1.61
  -1  -3  16   35.52    1.58
   1   3  16   34.66    1.60
   3  16   1   36.98    1.11
  -3   1  16   37.84    1.63
   2  16   3    0.53    0.25
   2  -3  16    0.59    0.48
   3   2  16    0.44    0.50
  -3  -2  16    0.91    0.51
  -2   3  16    0.35    0.51
  -2  -3  16    0.41    0.44
   3  -2  16    0.67    0.49
   2   3  16    0.70    0.49
   3  16   2    0.92    0.25
  -3   2  16    0.89    0.51
   3  -3  16   46.85    1.88
  -3  -3  16   50.83    1.91
   3   3  16   47.77    1.93
  -3   3  16   51.03    1.97
   3  16   3   50.05    1.51
  -4   0  16   26.11    1.33
   0  16   4   24.80    0.88
   0  -4  16   25.61    1.27
   4   0  16   24.96    1.32
   0   4  16   25.32    1.33
   4  16   0   22.99    0.84
  -4  -1  16    4.46    0.69
   1  16   4    3.84    0.37
  -1   4  16    3.06    0.64
   4   1  16    4.84    0.73
   4  16  -1    3.81    0.32
   1  -4  16    3.45    0.59
  -4   1  16    4.59    0.71
   4  -1  16    3.74    0.64
   4  16   1    3.54    0.35
   1   4  16    3.93    0.70
  -1  16   4    3.68    0.35
  -1  -4  16    3.38    0.62
   2  -4  16    5.87    0.71
  -2   4  16    5.42    0.75
  -4  -2  16    5.95    0.73
   2  16   4    5.57    0.45
   4   2  16    4.83    0.72
  -2  -4  16    8.53    0.80
   2   4  16    7.35    0.85
   4  -2  16    8.41    0.87
  -4   2  16    5.93    0.79
   4  16   2    6.78    0.49
   4   3  16    6.76    0.85
   3  16   4    6.22    0.49
  -3   4  16    6.01    0.78
  -4  -3  16    7.90    0.84
   3  -4  16    6.93    0.77
   4  -3  16    8.61    0.88
   4  16   3    8.28    0.55
  -4   3  16    7.09    0.83
   3   4  16    7.99    0.88
  -3  -4  16    6.94    0.78
   4  16   4    1.85    0.35
  -4  -4  16    1.36    0.54
   4  -4  16    0.92    0.48
   4   4  16    1.18    0.56
  -4   4  16    0.32    0.52
   0   5  16    1.05    0.53
   0  -5  16    1.67    0.54
  -5   0  16    2.06    0.58
   0  16   5    1.01    0.29
   5   0  16    1.98    0.58
   1  16   5   19.88    0.83
   1  -5  16   20.09    1.13
   5   1  16   21.26    1.24
  -1   5  16   21.28    1.24
  -5  -1  16   20.15    1.20
   5  -1  16   23.84    1.29
  -1  16   5   22.04    0.87
   5  16   1   24.15    0.90
  -1  -5  16   22.48    1.21
  -5   1  16   27.58    1.36
   1   5  16   22.03    1.29
   5   2  16   16.36    1.11
  -2   5  16   14.93    1.11
   2  -5  16   14.32    1.04
   2  16   5   14.62    0.73
  -5  -2  16   14.18    1.08
   5  16   2   13.04    0.68
  -2  -5  16   13.41    1.01
  -5   2  16   12.45    1.03
   5  -2  16   14.96    1.08
   2   5  16   13.50    1.08
  -5  -3  16   25.84    1.34
   5   3  16   25.35    1.39
  -3   5  16   28.06    1.41
   3  16   5   25.68    1.02
   3  -5  16   25.75    1.29
   3   5  16   25.94    1.37
   5  16   3   24.71    0.98
  -5   3  16   22.94    1.32
  -3  -5  16   24.44    1.26
   5  -3  16   25.14    1.30
  -4   5  16    2.42    0.58
   5   4  16    4.39    0.76
   4  16   5    3.81    0.47
   4  -5  16    4.04    0.64
   5  -4  16    2.89    0.58
  -4  -5  16    4.04    0.63
  -5   4  16    2.29    0.64
   5  16   4    2.65    0.42
   4   5  16    2.66    0.68
   5  16   5   52.42    1.76
  -5   5  16   57.66    2.16
   5  -5  16   55.42    2.04
   5   5  16   56.01    2.16
   0  -6  16   11.76    0.95
   6   0  16   14.40    1.06
   0   6  16   12.37    1.02
   1  -6  16    1.14    0.50
  -1   6  16    0.86    0.54
   1  16   6    1.62    0.35
   6   1  16    0.91    0.55
  -1  -6  16    0.73    0.48
   1   6  16    1.31    0.56
   6  -1  16    0.31    0.49
  -1  16   6    0.86    0.30
  -6   1  16    1.85    0.57
   6   2  16    8.49    0.91
   2  -6  16    8.45    0.82
  -2   6  16   10.28    0.97
   2  16   6    9.55    0.63
   2   6  16    9.64    0.94
   6  16   2    8.92    0.62
  -2  -6  16    9.34    0.85
   6  -2  16   10.59    0.93
  -2  16   6    8.41    0.59
  -6   2  16   10.88    0.99
   3  16   6    8.63    0.65
   3  -6  16   11.33    0.93
   6   3  16   10.92    1.01
  -3   6  16    9.03    0.90
  -6   3  16   10.15    0.94
   6  16   3   11.57    0.70
  -3  -6  16   11.18    0.94
   6  -3  16   11.55    0.98
   3   6  16   10.63    0.98
   4  16   6   30.85    1.22
   4  -6  16   31.26    1.44
   6   4  16   32.36    1.57
  -4   6  16   30.09    1.51
   6  16   4   31.14    1.23
  -6   4  16   33.79    1.59
   6  -4  16   33.36    1.54
   4   6  16   34.65    1.60
   6   5  16    3.75    0.73
   5  16   6    3.19    0.49
   5  -6  16    3.15    0.62
  -5   6  16    3.86    0.72
   6  -5  16    3.35    0.64
  -6   5  16    3.23    0.67
   6  16   5    3.43    0.49
   5   6  16    2.96    0.69
  -6   6  16    2.15    0.62
   6  -6  16    2.05    0.58
   6  16   6    2.19    0.46
   6   6  16    1.80    0.63
   0  -7  16   -0.03    0.40
   0   7  16    0.37    0.50
   0  16   7    0.61    0.33
   7   0  16    0.17    0.48
  -1   7  16    9.58    0.92
   1  16   7    9.78    0.68
   7   1  16   10.83    1.00
   1  -7  16    9.66    0.86
  -1  -7  16    8.13    0.82
  -1  16   7    9.04    0.64
   1   7  16   10.98    0.98
   7  -1  16    9.11    0.93
   2  16   7    6.69    0.58
   2  -7  16    5.43    0.68
  -2   7  16    6.22    0.82
   7   2  16    4.38    0.70
   2   7  16    4.55    0.73
  -2  16   7    4.95    0.51
  -2  -7  16    5.37    0.70
   7  -2  16    4.12    0.73
   3  16   7    4.20    0.50
  -3   7  16    4.16    0.73
   7   3  16    3.92    0.73
   3  -7  16    3.78    0.62
   7  16   3    3.78    0.51
   3   7  16    4.44    0.71
  -3  -7  16    4.40    0.64
   7  -3  16    4.57    0.70
  -4   7  16   34.46    1.58
   4  16   7   32.15    1.28
   7   4  16   30.73    1.58
   4  -7  16   32.82    1.44
   7  16   4   34.66    1.35
   4   7  16   37.52    1.69
   7  -4  16   37.81    1.63
  -5   7  16    2.57    0.66
   5  16   7    2.32    0.47
   5  -7  16    2.52    0.59
   7   5  16    1.63    0.60
   5   7  16    2.80    0.68
   7  -5  16    2.61    0.62
   7  16   5    2.90    0.50
  -6   7  16    0.39    0.53
   6  16   7    0.52    0.40
   6  -7  16   -0.25    0.46
   7   6  16    0.18    0.51
   7  -6  16    0.58    0.51
   7  16   6    0.13    0.40
   6   7  16   -0.46    0.50
   7  -7  16    7.59    0.81
   7   7  16    7.31    0.91
   7  16   7    8.11    0.73
   8   0  16   25.66    1.44
   0  -8  16   27.79    1.32
   0  16   8   29.16    1.15
   0   8  16   28.11    1.45
  -1   8  16    1.35    0.56
   1  16   8    0.31    0.36
   8   1  16    1.41    0.61
   1  -8  16    1.03    0.49
  -1  16   8    1.11    0.38
  -1  -8  16    1.39    0.48
   8  -1  16   -0.04    0.50
   1   8  16    0.66    0.54
  -2   8  16   10.82    1.01
   2  16   8   10.61    0.74
   8   2  16    9.29    0.98
   2  -8  16    8.14    0.81
   2   8  16    7.03    0.85
   8  -2  16    6.28    0.81
  -2  16   8    8.82    0.67
  -2  -8  16    8.97    0.82
  -3   8  16    2.82    0.64
   3  16   8    3.36    0.52
   3  -8  16    3.14    0.60
   8   3  16    3.22    0.72
   3   8  16    3.39    0.72
  -3  16   8    3.74    0.50
   8  -3  16    3.52    0.69
  -4   8  16    4.83    0.75
   4  16   8    6.68    0.66
   8   4  16    6.27    0.85
   4  -8  16    4.88    0.66
   4   8  16    5.10    0.79
   8  16   4    7.40    0.67
   8  -4  16    6.71    0.81
   5  -8  16    1.84    0.54
   5  16   8    1.53    0.45
   8   5  16    1.68    0.62
  -5   8  16    1.79    0.62
   8  16   5    0.81    0.44
   5   8  16    1.55    0.60
   8  -5  16    1.32    0.56
   6  16   8    9.44    0.79
   8   6  16    6.29    0.86
   6  -8  16    9.86    0.88
  -6   8  16    7.85    0.91
   6   8  16    6.51    0.85
   8  16   6    7.35    0.74
   8  -6  16    8.35    0.88
   7  16   8    6.13    0.71
   8   7  16    6.10    0.89
   7  -8  16    6.55    0.76
   7   8  16    7.68    0.94
   8  -7  16    7.10    0.80
   8  16   7    7.89    0.74
   8  16   8    1.78    0.55
   8  -8  16    1.17    0.52
   8   8  16    1.37    0.61
   0  16   9    5.50    0.60
   0   9  16    3.14    0.68
   0  -9  16    4.53    0.65
   9   0  16    3.43    0.73
  -1   9  16   15.23    1.17
   1  16   9   14.46    0.88
   1  -9  16   14.57    0.98
   9   1  16   13.82    1.16
   1   9  16   12.17    1.04
  -1  16   9   12.51    0.81
   9  -1  16   12.02    1.05
  -1  -9  16   11.44    0.92
  -2   9  16   18.80    1.24
   2  -9  16   19.04    1.10
   9   2  16   20.25    1.32
   2  16   9   22.94    1.08
  -2  -9  16   23.59    1.18
   2   9  16   20.32    1.30
   9  -2  16   19.93    1.31
  -2  16   9   21.04    1.02
   9   3  16   10.45    1.03
  -3   9  16   11.48    1.04
   3  -9  16    9.20    0.85
   3  16   9   10.79    0.81
  -3  16   9   10.52    0.78
   9  -3  16   10.18    0.96
   3   9  16    9.24    0.96
   9   4  16    1.91    0.67
   4  -9  16    4.47    0.65
   4  16   9    3.87    0.56
  -4   9  16    2.84    0.67
   9  -4  16    2.08    0.65
   4   9  16    2.87    0.66
   5  -9  16   16.56    1.05
   9   5  16   13.60    1.19
   5  16   9   16.28    0.99
  -5   9  16   15.03    1.19
   9  -5  16   11.84    1.00
   9  16   5   11.96    0.88
   5   9  16   10.38    1.03
   6  16   9   10.89    0.90
  -6   9  16   10.27    1.01
   9   6  16   11.70    1.12
   6  -9  16   10.51    0.91
   9  -6  16   12.37    1.04
   9  16   6   12.69    0.94
   6   9  16   11.14    1.05
   7  -9  16   34.32    1.50
   9   7  16   33.49    1.72
   7  16   9   30.69    1.44
   9  16   7   30.82    1.38
   7   9  16   30.43    1.63
   9  -7  16   29.85    1.48
   9   8  16    1.16    0.65
   8  16   9    0.60    0.50
   8  -9  16    0.96    0.51
   9  16   8   -0.04    0.48
   9  -8  16    0.28    0.49
   8   9  16   -0.07    0.61
   9  16   9   13.17    1.05
   9  -9  16   11.18    0.98
   9   9  16   11.16    1.15
   0  16  10   22.33    1.11
   0 -10  16   20.88    1.14
  10   0  16   23.27    1.40
   0  10  16   22.55    1.32
   1 -10  16   10.44    0.87
  10   1  16   10.52    1.08
  -1  10  16    8.60    0.93
   1  16  10   11.52    0.84
  10  -1  16   11.32    1.06
  -1 -10  16   12.20    0.92
  -1  16  10   12.88    0.88
   1  10  16   11.18    1.02
  10   2  16    5.39    0.83
   2  16  10    6.05    0.69
   2 -10  16    6.13    0.70
  -2  10  16    6.80    0.87
  10  -2  16    7.03    0.89
   2  10  16    6.13    0.85
  -2  16  10    6.43    0.66
  -3  10  16   12.77    1.06
   3  16  10   11.13    0.86
  10   3  16   11.61    1.09
   3 -10  16   11.85    0.90
  -3  16  10   11.06    0.83
   3  10  16   11.76    1.07
  10  -3  16   10.91    1.05
  10   4  16   12.13    1.18
   4  16  10   10.51    0.87
  -4  10  16   11.57    1.03
   4 -10  16   12.69    0.93
   4  10  16   10.99    1.06
  10  -4  16   10.79    1.02
  10   5  16    5.18    0.83
   5 -10  16    4.69    0.66
   5  16  10    5.59    0.69
  -5  10  16    5.57    0.80
   5  10  16    5.61    0.82
  10  -5  16    6.28    0.84
   6  16  10    0.64    0.51
  -6  10  16   -0.81    0.52
   6 -10  16   -0.26    0.45
  10   6  16   -0.33    0.54
  10  16   6    1.10    0.50
   6  10  16    0.46    0.59
  10  -6  16    0.50    0.58
   7  16  10    7.41    0.81
   7 -10  16    7.10    0.80
  10   7  16    7.49    1.01
  10  16   7    7.59    0.82
  10  -7  16    7.61    0.89
   7  10  16    7.65    0.98
  10   8  16    9.28    1.04
   8 -10  16   10.39    0.91
   8  16  10    9.21    0.93
  10  16   8   10.37    0.94
   8  10  16    9.69    1.06
  10  -8  16   10.00    0.97
   9 -10  16    2.78    0.65
  10   9  16    2.72    0.76
   9  16  10    1.57    0.59
  10  -9  16    3.13    0.70
  10  16   9    3.11    0.69
   9  10  16    2.47    0.75
  10  10  16    2.94    0.82
  10 -10  16    3.50    0.72
  10  16  10    4.02    0.74
   0 -11  16    1.85    0.51
  11   0  16    2.17    0.68
   0  11  16    2.03    0.64
   0  16  11    1.67    0.50
   1  16  11    1.44    0.48
  -1  11  16    2.07    0.64
   1 -11  16    1.61    0.49
  11   1  16    2.17    0.71
  11  -1  16    1.76    0.67
  -1  16  11    2.17    0.53
   1  11  16    1.27    0.62
   2 -11  16   10.46    0.86
  11   2  16    9.26    1.03
  -2  11  16    7.89    0.90
   2  16  11    9.62    0.84
   2  11  16   10.54    1.04
  11  -2  16    7.65    0.93
  -2  16  11    9.39    0.80
   3 -11  16    3.72    0.60
  11   3  16    2.85    0.73
  -3  11  16    3.55    0.70
   3  16  11    3.75    0.61
  -3  16  11    4.53    0.62
  11  -3  16    3.44    0.73
   3  11  16    3.06    0.71
   4 -11  16   19.14    1.11
  11   4  16   18.15    1.37
  -4  11  16   19.12    1.24
   4  16  11   18.56    1.11
  11  -4  16   21.93    1.34
   4  11  16   21.47    1.40
   5  16  11    0.19    0.48
   5 -11  16    0.44    0.45
  11   5  16    0.45    0.62
  -5  11  16    0.64    0.60
   5  11  16   -0.14    0.57
  11  -5  16    0.38    0.55
   6 -11  16    3.61    0.63
  11   6  16    5.33    0.89
   6  16  11    4.26    0.71
  -6  11  16    6.19    0.83
  11  -6  16    5.15    0.80
   6  11  16    4.67    0.84
  11   7  16   33.55    1.80
   7 -11  16   32.45    1.48
   7  16  11   35.75    1.60
  11  16   7   33.02    1.57
  11  -7  16   37.52    1.70
   7  11  16   35.06    1.77
   8 -11  16   16.19    1.11
  11   8  16   14.25    1.28
   8  16  11   15.09    1.14
   8  11  16   16.30    1.34
  11  16   8   14.53    1.14
  11  -8  16   16.97    1.24
   9 -11  16    4.71    0.75
   9  16  11    4.89    0.78
  11   9  16    4.80    0.90
  11  -9  16    6.96    0.87
   9  11  16    3.72    0.85
  11  16   9    4.57    0.77
  10 -11  16    6.11    0.80
  10  16  11    4.61    0.81
  11  10  16    6.82    1.01
  11  16  10    5.27    0.84
  11 -10  16    4.43    0.77
  10  11  16    5.25    0.91
  11 -11  16   13.65    1.08
  16 -11  11   15.06    1.15
  11  16  11   15.26    1.24
  11  11  16   12.98    1.30
  12   0  16    7.37    0.96
   0 -12  16   11.99    0.91
   0  12  16    9.30    0.96
   0  16  12   10.31    0.88
   1 -12  16   -0.02    0.41
  12   1  16    0.28    0.63
   1  16  12    0.74    0.48
  -1  12  16    0.90    0.60
  -1  16  12    0.57    0.48
   1  12  16    1.08    0.58
  12  -1  16    0.21    0.59
  -2  12  16    3.98    0.72
  12   2  16    4.32    0.82
   2 -12  16    4.50    0.63
   2  16  12    2.99    0.61
  12  -2  16    5.33    0.86
  -2  16  12    5.47    0.68
   2  12  16    5.28    0.81
  -3  12  16    1.28    0.62
   3 -12  16    3.07    0.56
   3  16  12    2.06    0.58
  12   3  16    1.58    0.72
   3  12  16    2.79    0.71
  -3  16  12    2.62    0.57
  12  -3  16    2.25    0.73
   4  16  12   -0.70    0.44
   4 -12  16    0.50    0.46
  12   4  16    0.45    0.64
  -4  12  16    0.63    0.58
   4  12  16    0.16    0.59
  -4  16  12    0.22    0.46
  12  -4  16   -0.31    0.58
  -5  12  16    1.17    0.60
   5 -12  16    0.94    0.49
  12   5  16    0.46    0.66
   5  16  12   -0.16    0.49
  12  -5  16    1.24    0.61
   5  12  16    1.72    0.66
   6  16  12   -0.05    0.51
  12   6  16    1.32    0.71
   6 -12  16    0.29    0.47
   6  12  16   -0.96    0.54
  12  -6  16    0.42    0.60
   7  16  12    6.13    0.86
  12   7  16    6.92    0.99
   7 -12  16    7.27    0.79
  12  -7  16    7.20    0.90
  12  16   7    7.38    0.87
   7  12  16    6.58    0.96
   8 -12  16   12.14    0.97
  12   8  16   10.69    1.20
  16  -8  12   11.03    1.04
   8  16  12   10.93    1.05
  12  -8  16    9.97    1.00
  12  16   8   11.45    1.04
   8  12  16   11.45    1.20
   9 -12  16    2.30    0.61
  16  -9  12    1.82    0.66
  12   9  16    1.92    0.79
   9  16  12    1.95    0.67
   9  12  16    1.40    0.73
  12  16   9    1.82    0.66
  12  -9  16    2.08    0.66
  10  16  12   -0.20    0.58
  16 -10  12   -0.74    0.53
  10 -12  16   -0.09    0.50
  12  10  16   -0.06    0.69
  10  12  16   -1.00    0.65
  12 -10  16    0.66    0.56
  12  16  10    0.36    0.64
  16  10  12   -0.42    0.67
  16 -11  12    5.37    0.83
  11 -12  16    3.69    0.68
  11  16  12    4.66    0.86
  12  11  16    4.80    1.00
  11  12  16    4.29    0.94
  12 -11  16    5.11    0.79
  12  16  11    5.41    0.89
  16 -12  11    3.66    0.71
  16  11  12    3.64    0.95
  16 -12  12   24.96    1.42
  12  16  12   22.44    1.55
  16  12  12   25.18    1.80
  12 -12  16   23.29    1.35
  12  12  16   26.09    1.71
   0  16  13    0.79    0.50
  13   0  16    1.12    0.69
   0  13  16   -0.42    0.56
   1  16  13    6.80    0.79
   1 -13  16    9.70    0.78
  13   1  16    5.41    0.92
  -1  13  16    6.44    0.88
  13  -1  16    6.41    0.96
   1  13  16    7.70    0.91
  -1  16  13    6.58    0.79
  13   2  16   16.11    1.35
   2 -13  16   14.23    0.98
   2  16  13   15.67    1.13
  -2  13  16   17.16    1.25
  -2  16  13   13.63    1.05
   2  13  16   14.80    1.22
  13  -2  16   13.08    1.20
  -3  13  16   10.83    1.04
   3 -13  16   10.98    0.86
   3  16  13   11.25    0.99
  13   3  16    9.20    1.07
   3  13  16   11.96    1.10
  13  -3  16   11.77    1.13
  -3  16  13   10.72    0.95
  16  -4  13   13.67    1.22
   4  16  13   12.69    1.05
   4 -13  16   14.32    0.95
  -4  13  16   13.24    1.12
  13   4  16   14.67    1.32
   4  13  16   15.75    1.24
  -4  16  13   14.58    1.06
  13  -4  16   12.97    1.17
  13   5  16   15.68    1.34
   5  16  13   14.65    1.12
   5 -13  16   14.44    0.97
  -5  13  16   13.37    1.15
  16  -5  13   13.30    1.19
   5  13  16   13.61    1.18
  13  -5  16   11.87    1.14
   6  16  13   10.28    1.01
  16  -6  13   11.81    1.13
  13   6  16   12.25    1.26
   6 -13  16   10.51    0.87
  13  -6  16    9.26    1.04
   6  13  16   11.68    1.12
  16   6  13    9.81    1.16
   7 -13  16    2.26    0.57
  13   7  16    2.84    0.84
   7  16  13    1.69    0.67
  16  -7  13    1.87    0.69
   7  13  16    2.78    0.83
  16   7  13    3.84    0.88
  13  -7  16    4.14    0.78
   8  16  13   12.19    1.13
  13   8  16   11.75    1.27
  16  -8  13   12.33    1.12
   8 -13  16   10.74    0.92
  13  -8  16   10.87    1.05
  16   8  13   10.50    1.21
   8  13  16   10.80    1.14
  13  16   8   11.01    1.06
   9 -13  16    0.87    0.53
  13   9  16    1.79    0.80
  16  -9  13    0.29    0.61
   9  16  13    1.10    0.68
   9  13  16    0.59    0.73
  16   9  13    1.25    0.79
  13  16   9    0.89    0.65
  13  -9  16    0.89    0.61
  13  10  16    5.13    0.98
  10 -13  16    3.46    0.68
  16 -10  13    4.02    0.79
  10  16  13    2.68    0.79
  16  10  13    6.17    1.04
  13  16  10    4.71    0.86
  13 -10  16    4.65    0.79
  16 -13  10    3.91    0.71
  10  13  16    5.75    0.97
  16  13  11    8.22    1.13
  11 -13  16    8.55    0.91
  13  11  16    6.32    1.08
  16 -11  13    7.07    0.92
  11  16  13    8.96    1.07
  11  13  16    6.50    1.03
  13 -11  16    8.16    0.94
  13  16  11   10.54    1.12
  16  11  13    7.56    1.12
  16 -13  11   10.40    0.97
  13  12  16   -0.15    0.75
  12  16  13    1.01    0.74
  16  13  12    1.49    0.82
  12 -13  16    1.26    0.93
  16 -12  13    0.17    0.56
  16  12  13    1.78    0.85
  13 -12  16    0.37    0.61
  16 -13  12    0.25    0.58
  12  13  16    0.63    0.79
  13  16  12    0.58    0.73
  13  13  16    1.27    0.84
  16  13  13    2.63    0.86
  13  16  13    3.85    0.94
  14   0  16    0.29    0.64
   0  14  16   -0.58    0.51
  16   0  14   -0.45    0.65
   0  16  14    0.53    0.52
  -1  14  16   22.10    1.37
   1  16  14   22.45    1.30
  14   1  16   23.47    1.66
  16  -1  14   23.52    1.56
   1  14  16   23.69    1.44
  -1  16  14   24.90    1.38
  14  -1  16   25.96    1.67
  16   1  14   23.43    1.60
   2 -14  16    0.77    0.46
  16  -2  14    1.79    0.73
   2  16  14    1.32    0.59
  -2  14  16    1.47    0.64
  14   2  16    0.38    0.71
   2  14  16    0.96    0.61
  -2  16  14    1.89    0.59
  16   2  14    1.07    0.75
  14  -2  16    1.39    0.72
  -3  14  16   24.20    1.41
  14   3  16   26.26    1.64
  16  -3  14   25.20    1.62
   3 -14  16   24.69    1.21
   3  16  14   22.93    1.38
  14  -3  16   21.41    1.55
   3  14  16   22.51    1.40
  -3  16  14   23.11    1.31
  16   3  14   23.85    1.59
  16  -4  14    1.50    0.73
  -4  14  16    1.10    0.67
   4 -14  16    1.75    0.52
  14   4  16    1.95    0.78
   4  16  14    2.64    0.69
   4  14  16    2.26    0.69
  16   4  14    1.05    0.72
  -4  16  14    1.19    0.60
  14  -4  16    1.34    0.72
  16  -5  14   15.01    1.28
   5 -14  16   16.77    1.50
  14   5  16   13.98    1.35
   5  16  14   15.11    1.17
  -5  14  16   16.85    1.25
   5  14  16   14.11    1.22
  16   5  14   13.37    1.31
  14  -5  16   13.24    1.21
  16  -6  14    6.36    0.93
   6  16  14    6.03    0.86
  14   6  16    4.31    0.94
   6  14  16    5.28    0.86
  16   6  14    5.53    0.99
  14  -6  16    6.12    0.91
   7  16  14    4.53    0.83
  14   7  16    4.61    0.94
  16  -7  14    3.45    0.81
   7  14  16    4.10    0.87
  16   7  14    3.01    0.88
  14  -7  16    4.73    0.85
   8  16  14    3.83    0.85
  14   8  16    4.70    0.98
  16  -8  14    5.61    0.87
  16   8  14    3.43    0.91
   8  14  16    3.71    0.88
  14  -8  16    4.17    0.81
   9  16  14    4.16    0.87
  14   9  16    4.76    0.98
  16  -9  14    3.52    0.82
  14  -9  16    3.89    0.79
  16   9  14    3.37    0.91
   9  14  16    3.58    0.89
  14  16   9    4.87    0.86
  16 -10  14    1.18    0.65
  10  16  14    1.50    0.75
  14  10  16    0.52    0.77
  14  16  10   -0.19    0.65
  14 -10  16    1.57    0.68
  10  14  16    0.64    0.74
  16  10  14    0.39    0.79
  14  11  16    0.11    0.73
  11  16  14    0.69    0.70
  16 -11  14   -0.13    0.59
  16  14  11    1.27    0.79
  16  11  14    0.88    0.82
  11  14  16   -0.79    0.72
  14  16  11    0.08    0.67
  14 -11  16   -0.30    0.61
  16 -12  14    0.46    0.60
  12  16  14    0.87    0.75
  14  12  16    1.17    0.83
  16  14  12    0.52    0.79
  12  14  16   -0.09    0.74
  14 -12  16   -0.25    0.57
  16  12  14    0.64    0.78
  14  16  12    0.15    0.69
  14  13  16   -1.76    0.72
  16  14  13    0.63    0.80
  13  16  14    0.73    0.79
  13  14  16    0.49    0.83
  16  13  14    0.57    0.87
  14  16  13    0.65    0.78
  14  14  16    0.06    0.83
  16  14  14   -0.39    0.77
  14  16  14    0.16    0.80
  16   0  15    2.02    0.78
   0  16  15    1.05    0.59
  15   0  16    0.83    0.73
   0  15  16    0.99    0.62
  -1  15  16    1.30    0.66
  15   1  16    0.62    0.73
  16  -1  15    1.34    0.79
   1  16  15    1.40    0.62
  15  -1  16    1.78    0.81
  -1  16  15    1.81    0.65
  16   1  15    1.32    0.78
   1  15  16    2.73    0.70
  16  -2  15    2.54    0.81
   2  16  15    0.70    0.59
  15   2  16    0.39    0.73
  -2  15  16    0.79    0.62
  15  -2  16    1.22    0.76
   2  15  16    1.03    0.62
  16   2  15    1.35    0.77
  -2  16  15    1.78    0.62
  -3  15  16    3.87    0.76
   3  16  15    3.15    0.72
  16  -3  15    3.41    0.87
  15   3  16    4.47    0.96
  15  -3  16    3.16    0.86
   3  15  16    2.30    0.71
  16   3  15    3.25    0.88
  -3  16  15    3.65    0.73
  16  -4  15    6.88    0.99
   4  16  15    4.97    0.81
  -4  15  16    3.61    0.77
  15   4  16    3.22    0.93
  16   4  15    6.54    1.05
  15  -4  16    6.36    0.97
  -4  16  15    6.80    0.87
   4  15  16    5.05    0.83
  -5  15  16    6.67    0.89
  16  -5  15    8.17    1.04
   5  16  15    6.97    0.91
  15   5  16    8.26    1.16
  15  -5  16    9.87    1.13
   5  15  16    9.09    1.04
  16   5  15    7.90    1.16
   6  16  15    3.18    0.78
  16  -6  15    3.65    0.85
  15   6  16    5.48    1.02
  15  -6  16    3.89    0.87
   6  15  16    3.95    0.82
  16   6  15    4.43    0.94
  16  -7  15   24.68    1.57
  15   7  16   27.05    1.80
   7  16  15   27.94    1.63
   7  15  16   30.12    1.64
  16   7  15   26.78    1.81
  15  -7  16   28.57    1.66
  15   8  16    7.02    1.13
  16  -8  15    6.90    0.94
   8  16  15    6.84    0.99
  15  -8  16    7.43    0.98
   8  15  16    6.89    1.03
  16   8  15    9.80    1.25
  16  -9  15    0.57    0.68
   9  16  15    0.89    0.73
  15   9  16    1.26    0.85
  16   9  15    0.36    0.79
   9  15  16   -0.40    0.67
  15  16   9    0.27    0.67
  15  -9  16    0.55    0.65
  16  15  10    4.96    0.97
  15  10  16    4.32    0.99
  16 -10  15    3.46    0.79
  10  16  15    4.04    0.91
  16  10  15    5.02    1.04
  15 -10  16    4.11    0.81
  10  15  16    5.52    1.03
  15  16  10    3.42    0.89
  16 -11  15    6.03    0.95
  16  15  11    4.11    0.93
  15  11  16    2.81    0.98
  11  16  15    3.64    0.94
  15 -11  16    5.82    0.88
  16  11  15    6.41    1.19
  11  15  16    5.90    1.05
  15  16  11    5.89    1.01
  15  12  16    3.07    0.97
  16  15  12    4.30    0.99
  12  16  15    3.17    0.91
  16 -12  15    2.66    0.79
  12  15  16    3.08    0.94
  15 -12  16    0.89    0.66
  16  12  15    2.35    0.97
  15  16  12    3.08    0.92
  15  13  16    0.38    0.88
  16  15  13   -0.35    0.79
  13  16  15    0.27    0.80
  13  15  16    0.35    0.87
  15  16  13    0.32    0.77
  16  13  15    0.13    0.80
   0  16  16    4.90    0.83
  16   0  16    4.46    0.92
  -1  16  16    0.61    0.59
   1  16  16    0.24    0.60
  16  -1  16   -0.57    0.72
  16   1  16    1.38    0.78
  -2  16  16   10.35    1.02
   2  16  16    9.15    1.02
  16  -2  16   11.01    1.20
  16   2  16    9.07    1.21
  -3  16  16   -0.49    0.56
   3  16  16   -0.60    0.54
  16  -3  16   -0.10    0.70
  16   3  16    0.85    0.76
  -4  16  16    3.64    0.76
   4  16  16    3.72    0.78
  16  -4  16    2.59    0.84
  16   4  16    5.75    1.07
   5  16  16    2.67    0.72
  16  -5  16    1.23    0.76
  16   5  16    1.76    0.83
   6  16  16    1.73    0.75
  16  -6  16    2.25    0.79
  16   6  16    1.59    0.85
   7  16  16    3.37    0.79
  16  -7  16    5.40    0.95
  16   7  16    3.98    1.03
   8  16  16    3.17    0.88
  16  -8  16    3.48    0.79
  16   8  16    5.42    1.07
   9  16  16    1.97    0.82
  16  -9  16    0.90    0.68
  16   9  16    0.52    0.81
  16  16   9    1.14    0.77
  10  16  16    0.01    0.75
  16 -10  16   -0.57    0.61
  16  10  16    0.81    0.86
  16  16  10    1.23    0.75
  11  16  16    0.02    0.79
  16 -11  16    0.30    0.65
  16  11  16    0.97    0.86
  16  16  11    0.38    0.78
  12  16  16   12.82    1.39
  16 -12  16    8.98    1.06
  16  12  16   11.42    1.41
  16  16  12   12.78    1.36
   0   0  17    0.36    0.47
   0  -1  17   14.72    1.11
   0   1  17   13.85    1.06
  -1   0  17   15.69    1.13
   1   0  17   15.99    1.15
   1  -1  17    4.96    0.72
   1   1  17    5.77    0.76
  -1   1  17    5.72    0.74
  -1  -1  17    7.27    0.82
  -2   0  17   51.08    2.03
   2   0  17   52.35    2.04
   0  -2  17   50.56    1.99
   0   2  17   52.60    2.05
   2   1  17   12.56    1.02
  -2  -1  17   12.11    1.00
   1  -2  17   12.61    1.02
  -1   2  17   10.22    0.97
  -2   1  17   16.81    1.14
   1   2  17   16.82    1.15
   2  -1  17   11.81    1.01
  -1  -2  17   14.73    1.14
  -2  -2  17    0.54    0.50
  -2   2  17    0.64    0.50
   2  -2  17    0.28    0.50
   2   2  17    0.40    0.53
   2  17   2    0.24    0.20
   3   0  17    1.67    0.58
   0  17   3    1.11    0.24
   0  -3  17    1.22    0.56
   0   3  17    1.45    0.59
  -3   0  17    1.12    0.57
   3   1  17   15.61    1.14
   1  17   3   12.93    0.57
  -3  -1  17   12.09    1.03
  -1   3  17   13.35    1.08
   1  -3  17   11.82    0.98
   3  -1  17   14.53    1.11
  -1  -3  17   11.51    1.00
   3  17   1   13.98    0.56
  -3   1  17   11.71    1.00
   1   3  17   15.77    1.16
  -3  -2  17   11.97    1.03
   3   2  17   13.74    1.12
  -2   3  17   12.29    1.06
   2  17   3   12.72    0.60
   2  -3  17   11.28    0.98
  -3   2  17   14.75    1.15
   3  17   2   15.96    0.64
  -2  -3  17   15.39    1.13
   3  -2  17   14.44    1.09
   2   3  17   14.27    1.11
  -3   3  17   21.17    1.28
  -3  -3  17   21.88    1.26
   3   3  17   21.92    1.32
   3  17   3   21.65    0.84
   3  -3  17   23.30    1.33
   0   4  17   17.30    1.19
   0  17   4   16.56    0.68
   4   0  17   16.84    1.15
   0  -4  17   16.69    1.10
  -4   0  17   16.43    1.20
   4  17   0   17.12    0.66
  -1   4  17    0.02    0.52
   4  17  -1    0.79    0.28
  -4  -1  17    0.57    0.52
   1  -4  17    0.84    0.52
   1  17   4    0.91    0.27
   4   1  17    0.32    0.52
   4  17   1    0.34    0.24
  -1  -4  17    1.30    0.55
   1   4  17    0.50    0.50
   4  -1  17    1.31    0.54
  -4   1  17    0.76    0.56
  -2   4  17   46.23    1.95
   2  -4  17   46.39    1.87
  -4  -2  17   46.35    1.91
   2  17   4   47.92    1.46
   4   2  17   47.38    1.95
  -2  -4  17   43.68    1.80
   4  -2  17   42.72    1.82
   2   4  17   43.64    1.86
   4  17   2   43.59    1.36
  -4   2  17   44.09    1.86
   3  -4  17    6.01    0.79
   4   3  17    6.64    0.87
  -4  -3  17    6.48    0.82
  -3   4  17    6.11    0.81
   3  17   4    7.27    0.53
  -4   3  17    8.79    0.97
  -3  -4  17    8.78    0.89
   4  -3  17   10.11    0.97
   4  17   3    8.44    0.57
   3   4  17    8.56    0.95
  -4   4  17   29.40    1.53
   4  17   4   29.03    1.09
   4   4  17   27.07    1.49
  -4  -4  17   30.18    1.45
   4  -4  17   28.70    1.47
   0   5  17    0.14    0.51
  -5   0  17   -0.26    0.45
   0  -5  17    0.42    0.49
   5  17   0   -0.21    0.23
   0  17   5    0.17    0.26
   5   0  17    0.00    0.50
   1  -5  17   11.23    0.92
  -5  -1  17   10.23    0.97
   5   1  17   11.12    0.98
   1  17   5    9.87    0.60
  -1   5  17   11.60    1.07
   5  -1  17   12.37    1.03
  -5   1  17   12.47    1.05
  -1  17   5   12.48    0.62
   5  17   1   11.45    0.63
  -1  -5  17   12.54    1.02
   1   5  17   10.36    1.00
   2  17   5   13.34    0.69
   5   2  17   10.99    1.00
   2  -5  17   11.67    0.98
  -5  -2  17   13.75    1.09
  -2   5  17   11.55    1.07
  -2  -5  17   12.01    0.98
   5  17   2   11.75    0.65
   5  -2  17   12.66    1.07
  -5   2  17   11.48    1.02
   2   5  17   12.56    1.08
  -5  -3  17   45.56    1.91
   3  17   5   44.86    1.51
   5   3  17   47.60    1.98
   3  -5  17   46.75    1.86
  -3   5  17   52.34    2.02
   3   5  17   49.08    2.01
  -3  -5  17   50.44    1.92
   5  -3  17   45.84    1.91
  -5   3  17   47.08    1.97
   5  17   3   45.58    1.52
   4  17   5    2.47    0.42
   4  -5  17    3.42    0.67
   5   4  17    1.98    0.64
  -4   5  17    2.95    0.66
   5  17   4    3.05    0.43
  -4  -5  17    2.63    0.62
   5  -4  17    3.32    0.65
  -5   4  17    1.90    0.66
   4   5  17    4.38    0.77
   5  -5  17    1.34    0.57
   5  17   5    1.50    0.39
  -5   5  17    2.45    0.67
   5   5  17    1.35    0.61
   6   0  17    2.53    0.63
   0  17   6    2.48    0.39
   0  -6  17    2.39    0.59
   0   6  17    1.94    0.64
   6   1  17    5.69    0.81
   1  -6  17    5.28    0.72
  -1   6  17    5.15    0.78
   1  17   6    4.88    0.48
  -1  17   6    5.46    0.48
   6  17   1    4.63    0.47
  -6   1  17    4.23    0.73
  -1  -6  17    5.87    0.74
   6  -1  17    3.54    0.71
   1   6  17    4.34    0.73
   2  17   6    3.42    0.43
  -2   6  17    2.07    0.65
   6   2  17    2.33    0.60
   2  -6  17    2.62    0.58
   6  17   2    1.96    0.38
  -6   2  17    1.79    0.65
  -2  -6  17    2.49    0.59
   6  -2  17    1.56    0.57
   2   6  17    2.04    0.66
   6   3  17   15.43    1.22
   3  -6  17   12.72    1.00
  -3   6  17   11.43    1.05
   3  17   6   14.18    0.77
  -3  -6  17   17.01    1.15
   3   6  17   17.97    1.23
   6  17   3   17.29    0.85
   6  -3  17   17.45    1.17
  -6   3  17   15.68    1.19
   6   4  17   21.93    1.36
   4  -6  17   21.43    1.22
   4  17   6   21.63    0.98
  -4   6  17   21.24    1.31
   6  -4  17   17.40    1.22
  -6   4  17   19.73    1.28
   4   6  17   18.72    1.27
   6  17   4   21.01    0.94
   5  17   6   24.54    1.11
   6   5  17   26.14    1.47
   5  -6  17   24.96    1.36
  -5   6  17   26.57    1.46
  -6   5  17   25.70    1.44
   6  -5  17   24.67    1.33
   5   6  17   24.98    1.43
   6  17   5   25.16    1.09
   6   6  17    2.99    0.72
   6  -6  17    3.43    0.67
  -6   6  17    3.82    0.75
   6  17   6    3.20    0.51
   0  -7  17    2.29    0.57
   0   7  17    3.43    0.72
   7   0  17    4.62    0.79
   0  17   7    4.04    0.48
  -1   7  17   12.52    1.08
   1  -7  17   14.58    1.06
   1  17   7   13.41    0.77
   7   1  17   13.38    1.14
  -1  -7  17   13.97    1.03
  -1  17   7   12.87    0.74
   1   7  17   13.26    1.11
   7  -1  17   13.51    1.10
   2  -7  17    1.96    0.59
   7   2  17    1.91    0.69
  -2   7  17    3.05    0.68
   2  17   7    2.21    0.43
   7  17   2    3.31    0.46
   7  -2  17    2.62    0.65
  -2  -7  17    3.49    0.65
  -2  17   7    2.47    0.42
   2   7  17    2.32    0.66
  -3   7  17    7.77    0.90
   3  -7  17    8.80    0.87
   7   3  17    7.66    0.90
   3  17   7    8.70    0.68
   7  -3  17    9.47    0.96
   3   7  17   10.91    1.06
   7  17   3    9.44    0.69
  -3  -7  17    8.82    0.86
   7   4  17    5.79    0.83
   4  17   7    6.72    0.63
  -4   7  17    5.88    0.83
   4  -7  17    6.02    0.77
   7  -4  17    5.17    0.76
   4   7  17    5.33    0.78
   7  17   4    4.32    0.54
   7   5  17    0.35    0.61
  -5   7  17    0.02    0.56
   5  17   7    0.93    0.41
   5  -7  17    1.07    0.53
   7  -5  17    1.80    0.57
   5   7  17    0.61    0.53
   7  17   5    1.60    0.46
   6  17   7   13.86    0.89
   6  -7  17   14.22    1.09
  -6   7  17   16.25    1.24
   7   6  17   15.03    1.20
   7  17   6   14.73    0.91
   6   7  17   15.05    1.26
   7  -6  17   15.33    1.16
   7   7  17    0.14    0.58
   7  -7  17   -0.01    0.52
   7  17   7    0.62    0.44
   8   0  17    3.36    0.73
   0  17   8    3.31    0.50
   0  -8  17    3.29    0.63
   0   8  17    3.02    0.70
   8   1  17    6.86    0.90
   1  17   8    6.51    0.61
  -1   8  17    5.11    0.78
   1  -8  17    6.80    0.78
   1   8  17    8.33    0.92
   8  -1  17    5.80    0.80
  -1  -8  17    6.74    0.76
  -1  17   8    7.39    0.63
   2  17   8    2.24    0.48
  -2   8  17    0.57    0.56
   8   2  17    1.78    0.68
   2  -8  17    1.32    0.53
   2   8  17    2.36    0.67
  -2  17   8    2.05    0.42
  -2  -8  17    1.89    0.58
   8  -2  17    1.69    0.64
  -3   8  17   11.90    1.06
   3  -8  17   14.92    1.00
   8   3  17   12.40    1.11
   3  17   8   13.75    0.86
   3   8  17   13.37    1.15
   8  -3  17   13.42    1.12
   8  17   3   13.15    0.83
   4  17   8   20.35    1.03
  -4   8  17   18.00    1.26
   4  -8  17   18.75    1.17
   8   4  17   20.90    1.36
   8  -4  17   21.28    1.29
   4   8  17   19.99    1.34
   8  17   4   20.03    1.01
  -5   8  17    4.81    0.80
   5  -8  17    6.43    0.78
   5  17   8    5.87    0.65
   8   5  17    4.33    0.81
   8  -5  17    4.38    0.75
   8  17   5    5.86    0.65
   5   8  17    3.10    0.75
   8   6  17    1.36    0.68
   6  17   8    1.01    0.47
   6  -8  17    2.39    0.60
  -6   8  17    0.13    0.59
   8  -6  17    1.95    0.62
   6   8  17    2.09    0.70
   8  17   6    2.34    0.50
   8   7  17   22.52    1.45
   7  -8  17   19.60    1.24
   7  17   8   20.40    1.13
   8  17   7   23.02    1.19
   7   8  17   22.90    1.45
   8  -7  17   20.89    1.30
   8   8  17   25.10    1.53
   8  -8  17   22.91    1.33
   8  17   8   21.85    1.20
   0   9  17    1.37    0.62
   0  -9  17    0.77    0.51
   9   0  17    1.66    0.65
   0  17   9    0.41    0.40
   9   1  17   12.42    1.14
   1  -9  17   14.35    1.06
  -1   9  17   14.15    1.17
   1  17   9   12.58    0.86
   9  -1  17   10.04    1.04
   1   9  17   11.31    1.05
  -1  -9  17    9.35    0.87
  -1  17   9   10.71    0.79
   9   2  17    0.69    0.61
   2  -9  17    0.30    0.49
  -2   9  17    0.45    0.58
   2  17   9    0.54    0.41
   9  -2  17   -0.02    0.54
   2   9  17    0.91    0.59
  -2  -9  17    1.59    0.54
  -2  17   9    0.82    0.40
  -3   9  17   28.18    1.53
   3  -9  17   31.44    1.44
   3  17   9   30.06    1.29
   9   3  17   27.83    1.58
   3   9  17   27.15    1.53
   9  -3  17   29.87    1.53
   4  -9  17    1.26    0.53
  -4   9  17    1.92    0.64
   4  17   9    1.54    0.50
   9   4  17    2.33    0.70
   4   9  17    0.93    0.64
   9  17   4    1.46    0.47
   9  -4  17    2.15    0.63
   5  17   9    1.75    0.51
  -5   9  17    0.84    0.59
   5  -9  17    1.85    0.58
   9   5  17    0.59    0.65
   9  17   5    2.13    0.50
   5   9  17   -0.17    0.55
   9  -5  17    1.18    0.62
  -6   9  17    3.61    0.76
   6  -9  17    4.28    0.69
   9   6  17    5.55    0.91
   6  17   9    3.73    0.61
   9  -6  17    2.72    0.68
   9  17   6    2.38    0.56
   6   9  17    2.88    0.78
   7  -9  17    8.55    0.88
   7  17   9    6.83    0.77
   9   7  17    7.35    1.01
   7   9  17    7.09    1.02
   9  -7  17    6.85    0.86
   9  17   7    6.25    0.74
   9   8  17    4.93    0.89
   8  -9  17    5.65    0.77
   8  17   9    7.46    0.79
   9  17   8    7.47    0.82
   9  -8  17    6.45    0.83
   8   9  17    6.80    0.96
   9  -9  17    0.45    0.54
   9  17   9    0.08    0.51
   9   9  17   -0.49    0.59
   0  17  10   -0.02    0.41
   0  10  17   -0.62    0.53
  10   0  17    0.84    0.63
   0 -10  17    0.16    0.46
   1 -10  17   26.08    1.30
  -1  10  17   24.41    1.41
   1  17  10   26.15    1.20
  10   1  17   20.42    1.43
  -1 -10  17   26.42    1.29
  10  -1  17   22.35    1.43
   1  10  17   25.29    1.45
  -1  17  10   23.79    1.15
   2 -10  17    1.67    0.57
  10   2  17    1.68    0.73
  -2  10  17    2.26    0.70
   2  17  10    1.30    0.49
  10  -2  17    2.89    0.72
  -2  17  10    1.52    0.47
   2  10  17    1.90    0.65
  -3  10  17   11.46    1.08
   3 -10  17   12.75    0.99
  10   3  17   11.06    1.13
   3  17  10   12.01    0.90
  -3  17  10   14.80    0.91
  10  -3  17   13.44    1.16
   3  10  17   14.75    1.22
   4  17  10    4.86    0.66
   4 -10  17    5.07    0.72
  -4  10  17    4.11    0.81
  10   4  17    3.53    0.84
  10  -4  17    3.72    0.76
   4  10  17    3.05    0.76
   5 -10  17   26.47    1.34
   5  17  10   25.20    1.26
  -5  10  17   23.49    1.45
  10   5  17   26.96    1.60
   5  10  17   21.80    1.41
  10  -5  17   24.25    1.43
  10  17   5   23.24    1.19
   6 -10  17    2.74    0.63
  -6  10  17    2.82    0.72
   6  17  10    3.26    0.64
  10   6  17    1.74    0.72
  10  17   6    2.93    0.59
  10  -6  17    2.34    0.67
   6  10  17    2.62    0.77
  10   7  17    5.55    0.89
   7  17  10    3.44    0.65
   7 -10  17    5.02    0.74
   7  10  17    5.31    0.91
  10  17   7    5.57    0.72
  10  -7  17    3.56    0.74
  10   8  17   15.34    1.35
   8 -10  17   14.37    1.11
   8  17  10   16.98    1.14
  10  -8  17   16.81    1.23
  10  17   8   14.37    1.10
   8  10  17   14.70    1.28
   9 -10  17   15.53    1.15
  10   9  17   14.34    1.35
   9  17  10   17.05    1.21
   9  10  17   15.20    1.34
  10  -9  17   14.64    1.17
  10  17   9   15.92    1.17
  10  10  17   10.74    1.20
  10 -10  17   13.88    1.11
  10  17  10   13.10    1.13
   0  11  17   18.57    1.37
   0 -11  17   18.29    1.11
  11   0  17   17.55    1.40
   0  17  11   19.28    1.09
  -1  11  17    4.97    0.80
   1  17  11    5.92    0.70
  11   1  17    5.78    0.91
   1 -11  17    4.20    0.68
  -1  17  11    4.95    0.66
  11  -1  17    5.13    0.87
   1  11  17    4.75    0.80
  -2  11  17   16.35    1.26
   2 -11  17   18.52    1.14
   2  17  11   17.53    1.05
  11   2  17   16.60    1.35
  -2  17  11   20.07    1.10
   2  11  17   21.45    1.36
  11  -2  17   19.92    1.39
   3  17  11    6.98    0.76
  -3  11  17    6.48    0.90
   3 -11  17    9.01    0.86
  11   3  17    7.98    1.01
  -3  17  11    6.16    0.71
   3  11  17    7.47    0.95
  11  -3  17    7.92    1.00
   4 -11  17   19.69    1.13
  -4  11  17   17.47    1.32
   4  17  11   18.94    1.16
  11   4  17   19.39    1.47
   4  11  17   17.04    1.31
  11  -4  17   18.00    1.32
  11   5  17    3.19    0.79
   5 -11  17    3.36    0.67
  -5  11  17    2.94    0.74
   5  17  11    3.36    0.64
  11  -5  17    2.74    0.74
   5  11  17    3.57    0.80
  -6  11  17   10.16    1.06
   6  17  11   10.00    0.93
   6 -11  17   13.38    1.01
  11   6  17   11.22    1.16
  11  -6  17   10.18    1.02
   6  11  17   10.88    1.12
  11  17   6   11.35    0.96
   7 -11  17    6.12    0.79
  11   7  17    7.21    1.00
   7  17  11    9.39    0.91
  11  -7  17    9.19    0.99
  11  17   7    8.85    0.90
   7  11  17    7.74    1.01
   8  17  11    0.43    0.58
  11   8  17    0.21    0.69
   8 -11  17    0.31    0.52
  11  17   8   -0.24    0.53
  11  -8  17    0.14    0.58
   8  11  17    0.79    0.70
   9 -11  17    3.85    0.70
   9  17  11    3.91    0.78
  11   9  17    3.67    0.91
   9  11  17    4.50    0.91
  11  -9  17    4.07    0.75
  11  17   9    3.53    0.74
  10  17  11    2.76    0.73
  11  10  17    3.55    0.89
  10 -11  17    3.02    0.67
  11 -10  17    2.46    0.69
  10  11  17    2.75    0.84
  11  17  10    3.50    0.76
  17 -11  11    0.08    0.57
  11  17  11   -0.44    0.61
  11 -11  17    0.74    0.54
  11  11  17    0.25    0.71
  12   0  17   -0.02    0.63
   0  17  12    1.00    0.52
   0  12  17    0.09    0.61
   0 -12  17    0.47    0.48
  12   1  17    4.12    0.84
  -1  12  17    4.48    0.80
   1 -12  17    3.67    0.63
   1  17  12    3.93    0.64
  -1  17  12    3.53    0.61
  12  -1  17    3.67    0.82
   1  12  17    4.87    0.83
  12   2  17    2.92    0.83
   2  17  12    2.06    0.59
  -2  12  17    1.51    0.69
   2 -12  17    1.65    0.55
  12  -2  17    2.53    0.76
  -2  17  12    2.32    0.55
   2  12  17    2.30    0.74
   3  17  12   11.56    0.96
  -3  12  17    9.94    1.05
   3 -12  17    9.56    0.87
  12   3  17   10.90    1.19
   3  12  17   11.28    1.09
  -3  17  12   10.21    0.90
  12  -3  17   12.69    1.18
  -4  12  17    8.95    1.00
  12   4  17   12.17    1.24
   4 -12  17   12.00    0.94
   4  17  12   12.33    0.99
   4  12  17   14.35    1.23
  12  -4  17   12.16    1.17
  12   5  17    6.10    1.02
   5  17  12    4.73    0.76
  -5  12  17    5.16    0.84
   5 -12  17    5.18    0.71
  12  -5  17    4.22    0.83
   5  12  17    4.44    0.81
   6  17  12    2.09    0.63
  12   6  17    0.88    0.75
   6 -12  17    1.31    0.54
  12  -6  17    1.24    0.66
   6  12  17    0.37    0.64
  12   7  17   20.78    1.59
   7 -12  17   20.72    1.22
   7  17  12   18.96    1.27
   7  12  17   22.10    1.58
  12  17   7   22.19    1.32
  12  -7  17   20.28    1.35
   8  17  12   22.55    1.40
   8 -12  17   24.09    1.30
  12   8  17   23.94    1.63
  12  -8  17   23.83    1.46
   8  12  17   27.35    1.65
  12  17   8   24.10    1.42
  17  -9  12    0.52    0.61
   9 -12  17    1.53    0.62
  12   9  17    1.64    0.78
   9  17  12    1.74    0.69
   9  12  17    0.65    0.77
  12  -9  17    1.36    0.64
  12  17   9    1.35    0.65
  17 -10  12    0.35    0.61
  10 -12  17    1.17    0.61
  12  10  17    1.10    0.79
  10  17  12    0.43    0.67
  12  17  10    0.36    0.63
  10  12  17    2.29    0.84
  12 -10  17    1.31    0.65
  11  17  12    3.96    0.82
  12  11  17    3.86    0.97
  11 -12  17    2.83    0.68
  17 -11  12    2.71    0.72
  12 -11  17    4.70    0.78
  11  12  17    3.28    0.89
  17  11  12    2.92    0.91
  12  17  11    4.05    0.82
  17 -12  11    3.72    0.72
  12  12  17   -0.07    0.77
  12 -12  17   -0.19    0.55
  17  12  12    1.04    0.82
  17 -12  12    0.25    0.57
  12  17  12   -0.39    0.67
   0  13  17    7.48    0.96
   0  17  13    9.32    0.89
  13   0  17    8.73    1.09
   1 -13  17   13.53    0.96
   1  17  13   10.67    0.94
  -1  13  17   11.86    1.13
  13   1  17    9.92    1.15
   1  13  17   13.08    1.19
  -1  17  13   12.49    1.00
  13  -1  17   14.29    1.32
   2 -13  17    7.05    0.76
   2  17  13    6.98    0.82
  13   2  17    4.84    0.95
  -2  13  17    7.12    0.94
   2  13  17    6.79    0.95
  13  -2  17    7.49    1.01
  -2  17  13    6.74    0.80
  13   3  17    7.47    1.06
  -3  13  17    3.96    0.78
   3  17  13    6.34    0.81
   3 -13  17    5.20    0.71
   3  13  17    6.35    0.90
  -3  17  13    5.84    0.73
  13  -3  17    6.00    0.95
   4 -13  17    4.17    0.63
   4  17  13    3.16    0.69
  13   4  17    2.36    0.81
  -4  13  17    2.80    0.71
   4  13  17    1.30    0.68
  13  -4  17    0.07    0.66
   5  17  13    3.94    0.74
  -5  13  17    4.43    0.81
  13   5  17    4.99    0.98
   5 -13  17    4.84    0.68
  13  -5  17    4.18    0.82
   5  13  17    2.55    0.73
  13   6  17    3.09    0.90
   6  17  13    3.26    0.72
  17  -6  13    2.03    0.75
   6 -13  17    2.72    0.62
   6  13  17    3.09    0.81
  13  -6  17    2.41    0.75
  13   7  17    0.21    0.74
   7 -13  17    0.48    0.52
   7  17  13   -0.21    0.56
  17  -7  13    0.86    0.65
  13  -7  17    0.46    0.62
   7  13  17    0.15    0.70
  13  17   7    0.03    0.58
   8  17  13    1.31    0.71
   8 -13  17    0.76    0.55
  13   8  17   -0.50    0.69
  17  -8  13    0.28    0.63
  13  17   8    1.62    0.65
  17   8  13    1.51    0.83
  13  -8  17    1.70    0.67
   8  13  17    1.13    0.77
   9 -13  17    2.79    0.63
  17  -9  13    4.07    0.81
   9  17  13    4.22    0.82
  13   9  17    3.11    0.90
  17   9  13    2.24    0.88
  13  17   9    3.63    0.79
   9  13  17    3.79    0.93
  13  -9  17    3.58    0.78
  10 -13  17    0.12    0.58
  13  10  17   -0.28    0.78
  17 -10  13    0.79    0.62
  10  17  13   -0.25    0.63
  17  10  13    0.39    0.81
  13 -10  17    0.83    0.61
  13  17  10   -0.98    0.63
  10  13  17    0.36    0.74
  17 -13  10    0.13    0.53
  17 -11  13    4.62    0.83
  11  17  13    3.13    0.84
  13  11  17    4.91    1.03
  17 -13  11    2.49    0.72
  13  17  11    2.67    0.82
  13 -11  17    3.62    0.79
  17  11  13    3.81    0.95
  11  13  17    4.03    0.92
  17 -12  13    8.78    1.02
  13  12  17    6.15    1.14
  12  17  13    8.54    1.13
  17  13  12    8.09    1.18
  17  12  13    7.94    1.20
  12  13  17    7.65    1.15
  13 -12  17    5.85    0.86
  13  17  12    7.65    1.08
  17  13  13    1.30    0.90
  13  17  13    2.71    0.87
  13  13  17    1.48    0.89
  14   0  17    1.41    0.73
   0  17  14    1.25    0.59
  17   0  14    1.67    0.79
   0  14  17    1.58    0.68
   1  17  14    0.24    0.52
  17  -1  14    0.77    0.74
  14   1  17    0.88    0.70
  -1  14  17    0.33    0.62
  -1  17  14   -0.96    0.47
  17   1  14    1.11    0.75
  14  -1  17    0.31    0.68
   1  14  17    0.75    0.64
  -2  14  17   -1.29    0.56
   2  17  14    0.28    0.56
  17  -2  14    1.50    0.76
   2 -14  17   -0.03    0.43
  14   2  17    0.41    0.73
   2  14  17    0.02    0.58
  -2  17  14    0.23    0.52
  14  -2  17    0.14    0.63
  17   2  14    0.80    0.74
  -3  14  17    1.29    0.65
  17  -3  14    0.88    0.72
   3 -14  17    1.90    0.60
  14   3  17    1.35    0.79
   3  17  14    2.17    0.66
  17   3  14    2.68    0.83
  -3  17  14    2.07    0.62
  14  -3  17    2.14    0.77
   3  14  17    2.07    0.72
  -4  14  17   13.90    1.21
  17  -4  14   14.71    1.32
   4  17  14   11.59    1.06
  14   4  17   12.78    1.30
  14  -4  17   12.76    1.23
  -4  17  14   13.33    1.06
  17   4  14   11.58    1.26
   4  14  17   12.28    1.17
  -5  14  17    8.47    0.99
   5  17  14    8.67    0.96
  14   5  17    6.17    1.03
  17  -5  14    8.97    1.07
   5  14  17    7.95    1.01
  17   5  14    8.72    1.17
  14  -5  17    7.94    1.05
  14   6  17    0.93    0.78
  17  -6  14    3.10    0.81
   6  17  14    3.02    0.73
   6  14  17    3.24    0.79
  17   6  14    2.26    0.85
  14  -6  17    1.36    0.73
   7  17  14    5.13    0.88
  17  -7  14    5.55    0.94
  14   7  17    7.07    1.08
  14  -7  17    5.66    0.91
   7  14  17    6.74    0.99
  17   7  14    5.68    1.07
  17  -8  14    4.76    0.88
   8  17  14    4.38    0.86
  14   8  17    5.42    1.07
   8  14  17    8.39    1.11
  14  -8  17    5.50    0.91
  17   8  14    6.50    1.11
  14  17   8    6.16    0.93
   9  17  14    5.92    0.94
  14   9  17    2.34    0.91
  17  -9  14    4.89    0.91
  14  17   9    3.21    0.81
  17   9  14    3.99    0.96
  14  -9  17    3.73    0.80
   9  14  17    5.31    1.00
  17 -10  14    1.63    0.72
  14  10  17    0.97    0.86
  10  17  14    2.14    0.82
  14 -10  17    2.29    0.75
  14  17  10    2.08    0.78
  17  10  14    2.37    0.92
  10  14  17    3.28    0.90
  17  14  11    4.43    1.00
  17 -11  14    5.14    0.88
  14  11  17    6.11    1.14
  11  17  14    3.68    0.89
  14 -11  17    4.01    0.81
  14  17  11    5.89    0.99
  17  11  14    4.71    1.09
  11  14  17    4.41    1.03
  17  14  12    1.62    0.86
  17 -12  14    0.28    0.64
  12  17  14    1.65    0.84
  14  12  17    0.95    0.83
  14  17  12    0.70    0.74
  17  12  14   -0.14    0.83
  14 -12  17    0.94    0.70
  12  14  17    0.85    0.87
  14  13  17    0.45    0.83
  17  14  13    0.65    0.86
  13  17  14    0.51    0.78
  13  14  17    0.93    0.87
  17  13  14    1.09    0.90
  14  17  13    0.83    0.79
  17   0  15    5.19    0.98
   0  17  15    6.07    0.83
   0  15  17    5.49    0.87
  15   0  17    7.54    1.09
  17  -1  15   -0.16    0.68
  15   1  17    0.67    0.74
  -1  15  17    0.02    0.59
   1  17  15    0.09    0.55
  17   1  15   -0.30    0.68
   1  15  17    0.32    0.61
  -1  17  15   -0.43    0.55
  15  -1  17   -0.90    0.65
  17  -2  15    7.92    1.07
   2  17  15   10.58    1.02
  15   2  17    8.09    1.14
  -2  15  17   10.18    1.08
   2  15  17   10.63    1.09
  15  -2  17   10.27    1.18
  17   2  15    9.12    1.19
  -2  17  15   10.56    1.01
  -3  15  17    6.76    0.93
  15   3  17    4.15    0.94
  17  -3  15    6.96    1.01
   3  17  15    5.64    0.83
   3  15  17    5.19    0.86
  17   3  15    5.83    1.00
  15  -3  17    5.47    0.96
  -3  17  15    5.95    0.83
   4  17  15   11.18    1.08
  17  -4  15   11.65    1.24
  15   4  17   12.93    1.32
  -4  15  17   12.61    1.16
  -4  17  15   10.09    1.00
  15  -4  17   14.07    1.32
  17   4  15   13.30    1.37
   4  15  17   13.82    1.24
  -5  15  17    0.29    0.64
   5  17  15    0.56    0.62
  15   5  17    1.05    0.80
  17  -5  15    1.58    0.78
  17   5  15    0.29    0.77
  15  -5  17    1.05    0.74
   5  15  17    1.28    0.68
  15   6  17    3.60    0.96
   6  17  15    3.05    0.76
  17  -6  15    4.72    0.89
  15  -6  17    2.57    0.82
   6  15  17    2.86    0.83
  17   6  15    3.44    0.95
   7  17  15    0.86    0.67
  17  -7  15    1.38    0.75
  15   7  17    0.85    0.82
   7  15  17   -0.25    0.66
  17   7  15    2.15    0.92
  15  -7  17    1.06    0.71
   8  17  15    0.71    0.72
  17  -8  15    0.33    0.67
  15   8  17    1.91    0.86
  17   8  15    0.39    0.78
  15  -8  17    0.57    0.65
  15  17   8   -0.11    0.65
   8  15  17    0.76    0.77
  17  -9  15    2.68    0.79
  15   9  17    2.21    0.91
   9  17  15    1.85    0.78
  15  17   9    2.96    0.83
  17   9  15    1.34    0.85
   9  15  17    3.80    0.93
  15  -9  17    2.54    0.78
  17  15  10    2.19    0.87
  15  10  17    1.53    0.93
  17 -10  15    1.65    0.77
  10  17  15    1.12    0.76
  10  15  17    1.68    0.85
  15  17  10   -0.27    0.70
  15 -10  17    0.85    0.68
  17  10  15    0.59    0.84
  17 -11  15   -0.08    0.64
  11  17  15    1.45    0.83
  17  15  11    2.93    0.93
  15  11  17    1.59    0.96
  17  11  15    2.51    0.97
  15  17  11    0.69    0.73
  15 -11  17    0.03    0.68
  11  15  17    2.48    0.91
  15  12  17    0.62    0.88
  12  17  15    1.44    0.83
  17  15  12    0.41    0.78
  17 -12  15    0.61    0.65
  12  15  17    0.31    0.80
  15 -12  17    0.44    0.67
  17  12  15   -0.36    0.83
  15  17  12    0.36    0.77
  16   0  17   -0.32    0.74
   0  17  16    0.25    0.60
  17   0  16   -0.29    0.73
   0  16  17    0.54    0.64
  17  -1  16   -0.33    0.70
  -1  16  17    0.06    0.62
   1  17  16    0.97    0.61
  16   1  17    2.12    0.85
  16  -1  17    0.87    0.78
  17   1  16    1.38    0.84
  -1  17  16    0.81    0.62
   1  16  17    1.46    0.66
  -2  16  17    0.16    0.60
  17  -2  16   -0.07    0.71
  16   2  17    0.24    0.76
   2  17  16    0.38    0.61
   2  16  17   -0.20    0.60
  16  -2  17    0.54    0.74
  17   2  16    0.37    0.79
  -2  17  16    0.66    0.61
   3  17  16    0.08    0.62
  -3  16  17   -0.53    0.57
  17  -3  16    0.11    0.72
  16   3  17    1.04    0.79
  17   3  16   -0.42    0.75
  16  -3  17    0.00    0.73
   3  16  17    0.53    0.64
  -3  17  16    0.14    0.58
   4  17  16    9.23    1.03
  16   4  17    9.25    1.27
  -4  16  17    7.53    0.97
  17  -4  16    9.09    1.18
  16  -4  17    8.32    1.10
  -4  17  16    8.34    0.96
  17   4  16    8.34    1.17
   4  16  17    6.68    0.97
  16   5  17    1.24    0.86
  17  -5  16    0.77    0.76
   5  17  16    0.50    0.60
  16  -5  17    0.81    0.72
   5  16  17    0.29    0.64
  17   5  16    0.12    0.81
  16   6  17   -0.07    0.78
  17  -6  16    1.67    0.79
   6  17  16    0.38    0.64
  16  -6  17    1.83    0.78
  17   6  16    0.86    0.82
   6  16  17    0.41    0.71
   7  17  16    8.38    1.05
  16   7  17    8.21    1.25
  17  -7  16    6.15    1.00
  17   7  16    3.52    1.06
  16  -7  17    6.63    1.03
   7  16  17    6.10    0.94
  16   8  17    5.01    1.07
   8  17  16    5.89    0.93
  17  -8  16    6.07    0.98
  16  -8  17    5.33    0.92
   8  16  17    4.52    0.93
  17   8  16    4.57    1.07
  16   9  17    0.03    0.76
  17  -9  16    0.97    0.67
   9  17  16   -0.29    0.68
  16  -9  17   -0.44    0.61
  17   9  16    0.10    0.82
  16  17   9   -0.66    0.70
   9  16  17   -0.86    0.74
  17  16  10    0.13    0.74
  17 -10  16    0.33    0.69
  10  17  16    0.94    0.82
  16  10  17   -0.29    0.84
  17  10  16    1.05    0.92
  10  16  17    0.32    0.79
  16  17  10    0.34    0.75
  16 -10  17   -0.35    0.64
  16  11  17    1.70    0.96
  17 -11  16    2.38    0.77
  11  17  16    0.60    0.82
  17  16  11    0.76    0.85
  11  16  17    2.21    0.93
  16 -11  17    1.28    0.76
  17  11  16    2.39    1.03
  16  17  11    3.56    0.94
   0  17  17   13.20    1.18
  17   0  17   10.82    1.33
  -1  17  17    1.09    0.65
   1  17  17    1.27    0.66
  17  -1  17    0.82    0.78
  17   1  17    1.73    0.89
  -2  17  17    1.78    0.71
   2  17  17    2.21    0.75
  17  -2  17    2.96    0.91
  17   2  17    2.86    0.94
  -3  17  17   -0.91    0.60
   3  17  17   -0.24    0.59
  17  -3  17    0.65    0.78
  17   3  17   -0.41    0.86
  -4  17  17    0.17    0.62
   4  17  17    1.10    0.68
  17  -4  17    0.21    0.74
  17   4  17   -0.48    0.79
   5  17  17    2.20    0.79
  17  -5  17    1.26    0.82
  17   5  17    3.37    0.98
   6  17  17    6.86    0.97
  17  -6  17    6.40    1.04
  17   6  17    7.13    1.19
   7  17  17   -0.15    0.67
  17  -7  17   -0.15    0.69
  17   7  17   -0.24    0.88
   8  17  17    1.65    0.80
  17  -8  17    2.63    0.80
  17   8  17    1.05    0.88
   9  17  17    2.50    0.81
  17  -9  17    2.31    0.82
  17   9  17    2.61    1.04
  17  17   9    2.05    0.86
   0   0  18   -0.06    0.52
   0  -1  18    0.28    0.53
   0   1  18   -0.01    0.53
  -1   0  18    0.41    0.53
   1   0  18    0.64    0.49
   1  -1  18    9.10    0.91
   1   1  18    9.00    0.92
  -1   1  18    8.64    0.91
  -1  -1  18    9.30    0.98
   2   0  18    8.18    0.92
  -2   0  18    8.11    0.89
   0  -2  18    7.76    0.89
   0   2  18    6.33    0.82
  -2  -1  18    3.79    0.71
  -1   2  18    2.75    0.69
   1  -2  18    2.46    0.63
   2   1  18    2.91    0.63
   2  -1  18    2.82    0.69
   1   2  18    2.85    0.72
  -2   1  18    1.33    0.60
  -1  -2  18    2.80    0.68
   2  -2  18    0.37    0.52
  -2  -2  18    0.62    0.54
  -2   2  18    0.62    0.56
   2   2  18    0.56    0.57
   3   0  18   33.50    1.64
  -3   0  18   33.01    1.63
   0   3  18   34.11    1.64
   0  -3  18   35.02    1.62
   3   1  18   13.45    1.08
   1  -3  18   13.09    1.08
  -1   3  18   12.62    1.11
  -3  -1  18   14.46    1.14
  -3   1  18   16.16    1.22
   3  -1  18   16.63    1.23
  -1  -3  18   15.19    1.17
   1   3  18   16.33    1.23
   2  -3  18    3.57    0.71
  -2   3  18    3.61    0.74
  -3  -2  18    4.63    0.75
   3   2  18    4.73    0.78
   3  -2  18    4.52    0.75
  -2  -3  18    7.37    0.86
   2   3  18    4.75    0.81
  -3   2  18    4.70    0.77
  -3   3  18    2.51    0.64
   3  -3  18    2.61    0.63
  -3  -3  18    3.07    0.66
   3   3  18    2.89    0.65
  -4   0  18   23.13    1.38
   0   4  18   24.39    1.41
   0  -4  18   23.53    1.35
   4   0  18   23.27    1.37
  -1   4  18    4.67    0.76
  -4  -1  18    8.89    0.92
   4   1  18    6.66    0.89
   1  -4  18    7.01    0.85
   1   4  18    6.70    0.88
   4  -1  18    7.62    0.90
  -1  -4  18    5.92    0.83
  -4   1  18   10.96    1.02
   4   2  18   29.90    1.55
   2  -4  18   31.39    1.54
  -2   4  18   28.07    1.55
  -4  -2  18   28.14    1.50
  -4   2  18   33.94    1.65
   4  -2  18   33.71    1.63
  -2  -4  18   37.31    1.65
   2   4  18   33.07    1.68
   4   3  18   11.93    1.09
   3  -4  18   11.99    1.04
  -4  -3  18   11.37    1.05
   3  18   4   11.68    0.64
  -3   4  18    9.96    1.00
   4  18   3   10.07    0.59
  -3  -4  18    7.92    0.90
   3   4  18    7.19    0.95
  -4   3  18    7.86    0.92
   4  -3  18    8.62    0.90
  -4  -4  18    2.04    0.63
  -4   4  18    1.55    0.60
   4   4  18    2.52    0.70
   4  18   4    2.56    0.39
   4  -4  18    2.09    0.64
  -5   0  18    2.65    0.71
   0  -5  18    4.25    0.73
   0   5  18    3.21    0.70
   5   0  18    3.22    0.71
  -5  -1  18   15.88    1.22
   1  18   5   17.24    0.88
   5   1  18   18.44    1.26
   1  -5  18   17.47    1.23
  -1   5  18   16.89    1.27
  -1  -5  18   14.31    1.11
   1   5  18   14.81    1.18
  -5   1  18   13.78    1.18
   5  -1  18   15.00    1.19
  -5  -2  18    3.52    0.71
   2  -5  18    2.46    0.63
   2  18   5    3.28    0.41
  -2   5  18    1.78    0.66
   5   2  18    3.27    0.73
   2   5  18    2.39    0.67
   5  18   2    2.95    0.41
  -5   2  18    1.76    0.64
  -2  -5  18    2.33    0.62
   5  -2  18    2.24    0.64
  -3   5  18    2.81    0.69
  -5  -3  18    3.73    0.72
   3  18   5    3.95    0.45
   3  -5  18    3.03    0.66
   5   3  18    1.93    0.66
   5  18   3    2.74    0.40
   5  -3  18    3.03    0.69
   3   5  18    3.94    0.76
  -5   3  18    2.68    0.73
  -3  -5  18    2.80    0.67
   4  18   5    0.45    0.33
   4  -5  18    1.31    0.57
   5   4  18    1.13    0.65
  -4   5  18    0.36    0.59
  -5   4  18    0.23    0.57
  -4  -5  18    0.34    0.52
   5  -4  18    0.61    0.58
   5  18   4    0.16    0.33
   4   5  18    0.93    0.63
  -5   5  18   -0.64    0.50
   5  18   5   -0.38    0.32
   5  -5  18    0.04    0.52
   5   5  18    0.06    0.57
   6   0  18    1.95    0.62
   0  -6  18    2.65    0.65
   0  18   6    2.30    0.38
   0   6  18    2.10    0.67
   6   1  18    0.49    0.58
   1  18   6    0.17    0.29
  -1   6  18    0.41    0.57
   1  -6  18    1.57    0.56
  -1  -6  18    0.48    0.52
   6  -1  18    0.47    0.58
  -1  18   6    0.77    0.53
  -6   1  18    1.00    0.60
   6  18   1    1.22    0.33
   1   6  18    1.12    0.62
   2  -6  18    2.84    0.66
   2  18   6    3.64    0.45
  -2   6  18    2.72    0.70
   6   2  18    2.03    0.71
   6  -2  18    2.42    0.68
   6  18   2    2.93    0.42
  -2  -6  18    2.18    0.60
  -6   2  18    1.73    0.67
   2   6  18    1.60    0.66
   3  -6  18    8.25    0.88
   6   3  18    6.25    0.89
  -3   6  18   10.14    1.04
   3  18   6    8.42    0.63
   6  -3  18    6.59    0.90
  -3  -6  18    7.80    0.86
  -6   3  18    5.82    0.85
   6  18   3    7.63    0.61
   3   6  18    6.28    0.85
   4  18   6    8.17    0.64
   4  -6  18    8.21    0.88
   6   4  18    6.54    0.88
  -4   6  18    7.21    0.93
   6  -4  18    7.30    0.89
   4   6  18    5.56    0.85
  -6   4  18    6.83    0.89
   6  18   4    6.84    0.60
  -5   6  18    4.64    0.81
   5  -6  18    7.09    0.85
   6   5  18    5.84    0.90
   5  18   6    6.65    0.63
   5   6  18    7.36    0.91
   6  -5  18    9.31    0.93
  -6   5  18    6.06    0.87
   6  18   5    7.38    0.64
   6  -6  18    3.75    0.72
   6   6  18    3.61    0.79
   6  18   6    1.92    0.47
  -6   6  18    2.53    0.72
   7   0  18   41.17    1.86
   0  -7  18   41.42    1.74
   0   7  18   40.27    1.84
   0  18   7   39.09    1.40
   1  -7  18    0.26    0.51
   7   1  18    0.21    0.60
   1  18   7    0.61    0.35
  -1   7  18    0.00    0.55
  -1  -7  18   -0.36    0.48
  -1  18   7    0.92    0.36
   1   7  18    0.14    0.55
   7  18   1    0.26    0.33
   7  -1  18    0.50    0.58
   2  18   7    8.64    0.68
   7   2  18    8.12    0.99
  -2   7  18    8.71    1.00
   2  -7  18   10.53    0.97
   2   7  18    7.36    0.91
  -2  -7  18    6.36    0.82
   7  -2  18   11.57    1.07
   7  18   2    8.82    0.65
   3  -7  18   17.86    1.22
   7   3  18   21.41    1.39
   3  18   7   20.03    0.96
  -3   7  18   16.77    1.29
   3   7  18   18.56    1.36
  -3  -7  18   18.37    1.17
   7  18   3   17.95    0.92
   7  -3  18   18.98    1.34
  -4   7  18   12.35    1.14
   4  18   7   11.65    0.81
   4  -7  18   12.33    1.04
   7   4  18   10.10    1.06
   7  18   4   10.22    0.75
   4   7  18   11.31    1.11
   7  -4  18    9.79    1.01
   5  -7  18   19.06    1.21
   7   5  18   18.83    1.42
   5  18   7   19.28    1.01
  -5   7  18   21.03    1.36
   7  -5  18   17.09    1.25
   7  18   5   17.58    0.96
   5   7  18   16.21    1.26
  -6   7  18    5.99    0.86
   6  -7  18    5.68    0.79
   6  18   7    5.94    0.66
   7   6  18    5.36    0.86
   7  18   6    4.90    0.62
   7  -6  18    5.02    0.78
   6   7  18    2.52    0.75
   7  -7  18    6.65    0.85
   7   7  18    6.04    0.90
   7  18   7    6.31    0.70
   0  -8  18   -0.07    0.48
   0  18   8    0.09    0.37
   0   8  18   -0.19    0.58
   8   0  18   -0.18    0.57
   1  18   8   40.46    1.46
   8   1  18   41.21    1.89
  -1   8  18   36.98    1.80
   1  -8  18   37.67    1.67
  -1  -8  18   44.42    1.80
   1   8  18   41.23    1.90
   8  -1  18   42.90    1.92
  -1  18   8   40.94    1.48
  -2   8  18   10.93    1.11
   2  -8  18   12.23    1.01
   8   2  18   11.51    1.10
   2  18   8   10.97    0.77
  -2  18   8   12.56    0.79
  -2  -8  18   11.53    1.00
   2   8  18   11.80    1.10
   8  18   2   13.29    0.82
   8  -2  18   15.12    1.21
  -3   8  18    7.34    0.93
   8   3  18    6.66    0.97
   3  -8  18    7.67    0.86
   3  18   8    8.16    0.70
   3   8  18    8.57    1.01
   8  18   3    7.37    0.66
   8  -3  18    6.77    0.89
   8   4  18    1.98    0.71
   4  -8  18    1.44    0.60
  -4   8  18    2.67    0.73
   4  18   8    3.10    0.53
   4   8  18    1.09    0.66
   8  -4  18    1.45    0.64
   8  18   4    1.10    0.43
   8   5  18    7.74    0.99
   5  -8  18    9.54    0.92
   5  18   8    9.58    0.78
  -5   8  18    7.89    0.95
   8  -5  18    9.49    0.98
   8  18   5    8.11    0.74
   5   8  18    7.26    0.95
   6  -8  18    9.98    0.96
   8   6  18    8.60    1.08
  -6   8  18    8.74    1.01
   6  18   8    9.60    0.82
   8  18   6   10.93    0.84
   6   8  18    8.19    1.00
   8  -6  18    9.38    1.00
   7  18   8    1.31    0.48
   8   7  18    1.83    0.74
   7  -8  18    0.52    0.57
   8  -7  18    1.80    0.65
   7   8  18    2.32    0.76
   8  18   7    1.75    0.54
   8  -8  18    3.99    0.76
   8   8  18    3.37    0.81
   8  18   8    4.19    0.66
   0  -9  18    0.02    0.51
   9   0  18    0.19    0.60
   0   9  18   -0.07    0.56
   0  18   9    0.13    0.39
   9   1  18    2.53    0.73
  -1   9  18    2.10    0.69
   1  -9  18    3.21    0.67
   1  18   9    3.17    0.53
  -1  -9  18    3.26    0.66
   9  -1  18    2.58    0.70
   1   9  18    1.72    0.70
  -1  18   9    3.40    0.52
   2  -9  18    0.98    0.55
   2  18   9    0.35    0.42
   9   2  18    0.53    0.58
  -2   9  18    0.15    0.59
   2   9  18    2.00    0.73
  -2  -9  18    1.50    0.56
   9  -2  18    0.28    0.62
  -2  18   9    1.56    0.45
   3  18   9    3.40    0.53
   9   3  18    2.75    0.80
   3  -9  18    3.01    0.64
  -3   9  18    1.54    0.69
   9  18   3    3.83    0.56
   9  -3  18    3.02    0.73
   3   9  18    2.63    0.75
  -4   9  18    5.17    0.87
   4  -9  18    6.09    0.79
   4  18   9    5.80    0.67
   9   4  18    5.65    0.91
   9  -4  18    5.90    0.87
   4   9  18    5.25    0.88
   9  18   4    6.81    0.68
   5  -9  18    2.99    0.67
   9   5  18    3.48    0.79
   5  18   9    3.03    0.58
  -5   9  18    3.76    0.79
   9  18   5    3.61    0.59
   5   9  18    2.60    0.75
   9  -5  18    3.37    0.74
   6  -9  18    8.39    0.91
   6  18   9    8.87    0.83
  -6   9  18    8.96    1.03
   9   6  18    8.06    1.04
   6   9  18    7.55    1.00
   9  18   6    6.69    0.74
   9  -6  18    6.23    0.87
   7  -9  18   -0.40    0.50
   7  18   9    0.27    0.49
   9   7  18   -0.92    0.57
   7   9  18    0.39    0.66
   9  18   7    0.37    0.46
   9  -7  18    0.13    0.57
   8  18   9    5.15    0.72
   9   8  18    5.66    0.96
   8  -9  18    3.48    0.70
   9  18   8    4.89    0.72
   9  -8  18    4.78    0.78
   8   9  18    4.64    0.93
   9   9  18    1.16    0.73
   9  18   9    0.93    0.57
   9  -9  18    1.60    0.62
   0  18  10    3.89    0.59
   0 -10  18    2.96    0.63
  10   0  18    2.67    0.76
   0  10  18    2.58    0.75
   1  18  10   -0.20    0.41
  -1  10  18    0.41    0.63
  10   1  18    0.50    0.68
   1 -10  18    0.72    0.53
  -1  18  10    0.47    0.42
  10  -1  18    0.28    0.61
   1  10  18    1.41    0.65
  -1 -10  18    1.04    0.55
  10   2  18   12.74    1.24
  -2  10  18   10.88    1.08
   2 -10  18   14.22    1.07
   2  18  10   11.22    0.87
   2  10  18   14.72    1.25
  -2  18  10   13.27    0.91
  10  -2  18   13.89    1.22
   3  18  10    0.89    0.48
  10   3  18    0.78    0.67
  -3  10  18    0.12    0.63
   3 -10  18    0.83    0.53
  10  -3  18    0.39    0.61
   3  10  18    2.30    0.69
   4 -10  18    0.63    0.54
  10   4  18    0.78    0.69
  -4  10  18    0.56    0.61
   4  18  10    0.59    0.47
  10  18   4    0.65    0.48
   4  10  18   -0.54    0.55
  10  -4  18    0.77    0.61
  10   5  18    8.93    1.13
  -5  10  18    8.56    1.00
   5  18  10    9.32    0.85
   5 -10  18    9.75    0.92
  10  18   5   12.94    0.95
   5  10  18   10.28    1.13
  10  -5  18   10.18    1.05
  10   6  18    1.09    0.76
  -6  10  18    0.90    0.68
   6 -10  18    0.47    0.55
   6  18  10    0.47    0.50
   6  10  18    1.12    0.69
  10  -6  18    0.48    0.61
  10  18   6    0.44    0.48
   7  18  10    1.75    0.58
   7 -10  18    1.66    0.61
  10   7  18    1.52    0.77
  10  -7  18    2.09    0.66
  10  18   7    1.78    0.57
   7  10  18    1.87    0.75
  10   8  18    1.77    0.77
   8  18  10    2.67    0.66
   8 -10  18    2.82    0.69
  10  -8  18    3.51    0.74
   8  10  18    2.22    0.80
  10  18   8    2.73    0.64
  10   9  18   11.24    1.23
   9  18  10   10.18    1.01
   9 -10  18   10.25    1.01
  10  18   9    9.84    0.97
  10  -9  18   11.51    1.08
   9  10  18    9.87    1.16
  10 -10  18    0.23    0.56
  10  18  10    0.10    0.57
  10  10  18    0.36    0.73
   0 -11  18   10.35    0.93
   0  11  18   11.54    1.15
   0  18  11   11.67    0.91
  11   0  18    8.80    1.08
   1  18  11   11.64    0.90
   1 -11  18   13.70    1.03
  -1  11  18   10.68    1.12
  11   1  18   10.29    1.14
  -1  18  11    9.48    0.84
  11  -1  18   11.18    1.16
   1  11  18    9.32    1.03
  11   2  18    6.57    0.99
  -2  11  18    5.75    0.89
   2 -11  18    6.54    0.79
   2  18  11    6.61    0.73
   2  11  18    5.38    0.91
  11  -2  18    5.66    0.93
  -2  18  11    6.76    0.72
  -3  11  18    2.33    0.70
  11   3  18    1.36    0.70
   3  18  11    2.03    0.58
   3 -11  18    2.18    0.60
   3  11  18    1.25    0.69
  11  -3  18    2.72    0.77
  -3  18  11    2.85    0.56
   4 -11  18   16.37    1.16
   4  18  11   17.63    1.11
  -4  11  18   17.42    1.37
  11   4  18   15.36    1.37
  11  -4  18   21.44    1.40
   4  11  18   17.31    1.40
  11   5  18   12.34    1.27
   5  18  11   15.24    1.08
   5 -11  18   12.79    1.05
  -5  11  18   14.75    1.26
   5  11  18   12.07    1.17
  11  -5  18   13.02    1.18
  11  18   5   12.31    0.97
  -6  11  18    1.41    0.68
  11   6  18    0.73    0.73
   6 -11  18    2.29    0.64
   6  18  11    1.29    0.56
  11  18   6    1.00    0.54
  11  -6  18    2.68    0.75
   6  11  18    2.89    0.80
   7  18  11    5.38    0.80
  11   7  18    6.01    1.00
   7 -11  18    5.34    0.77
  11  18   7    7.62    0.85
   7  11  18    7.57    1.06
  11  -7  18    9.05    1.01
  11   8  18    5.71    0.98
   8  18  11    6.19    0.85
   8 -11  18    6.25    0.83
  11  -8  18    3.52    0.75
  11  18   8    3.41    0.71
   8  11  18    4.10    0.90
  11   9  18    3.25    0.91
   9  18  11    4.46    0.80
   9 -11  18    3.32    0.75
  11  -9  18    2.44    0.70
  11  18   9    3.81    0.74
   9  11  18    3.02    0.91
  10  18  11    2.63    0.77
  11  10  18    3.10    0.90
  10 -11  18    3.55    0.74
  11 -10  18    3.01    0.74
  10  11  18    3.20    0.88
  11  18  10    3.84    0.77
  11  18  11   13.39    1.18
  11  11  18   12.93    1.36
  11 -11  18   11.98    1.11
   0  18  12    6.77    0.80
  12   0  18    5.93    0.95
   0 -12  18    7.13    0.82
   0  12  18    6.74    0.93
  -1  12  18   17.60    1.35
   1 -12  18   18.33    1.18
  12   1  18   18.64    1.46
   1  18  12   18.42    1.14
  12  -1  18   17.56    1.40
  -1  18  12   18.64    1.12
   1  12  18   15.36    1.32
  12   2  18    7.44    1.06
   2 -12  18    5.62    0.77
   2  18  12    5.71    0.73
  -2  12  18    6.46    0.91
  12  -2  18    8.94    1.09
  -2  18  12    8.97    0.84
   2  12  18    6.99    0.97
   3 -12  18    9.26    0.90
   3  18  12    8.85    0.89
  12   3  18   11.71    1.24
  -3  12  18   10.03    1.07
   3  12  18   10.32    1.13
  -3  18  12    9.64    0.86
  12  -3  18    9.51    1.08
   4  18  12    9.00    0.91
  12   4  18    8.47    1.11
  -4  12  18    7.87    0.99
   4 -12  18    7.97    0.87
   4  12  18    8.25    1.04
  12  -4  18    7.24    1.00
  12   5  18    3.24    0.89
   5 -12  18    1.75    0.61
   5  18  12    1.37    0.56
  -5  12  18    0.87    0.69
  12  -5  18    1.53    0.73
   5  12  18    1.81    0.77
  12   6  18   11.48    1.25
   6  18  12   13.06    1.05
   6 -12  18   13.36    1.05
  12  18   6   10.96    0.99
  12  -6  18   11.36    1.14
   6  12  18   11.13    1.19
   7  18  12    9.39    0.95
  12   7  18    7.71    1.16
   7 -12  18    8.77    0.93
   7  12  18    8.82    1.10
  12  18   7    9.52    0.94
  12  -7  18    7.81    0.98
   8  18  12    1.76    0.66
   8 -12  18    1.30    0.61
  12   8  18    1.93    0.85
  12  -8  18    2.52    0.74
  12  18   8    2.52    0.66
   8  12  18    1.77    0.80
   9 -12  18   -0.31    0.53
   9  18  12    0.46    0.62
  12   9  18    0.55    0.80
  12  -9  18    0.65    0.65
  12  18   9    1.34    0.65
   9  12  18    0.48    0.73
  12  10  18    1.43    0.83
  10  18  12    1.26    0.67
  10 -12  18    2.08    0.71
  18 -10  12    2.96    0.78
  12 -10  18    0.91    0.67
  12  18  10    2.54    0.75
  10  12  18    2.50    0.94
  11  18  12   -0.03    0.65
  11 -12  18   -0.54    0.58
  12  11  18   -0.51    0.75
  18 -11  12   -0.34    0.59
  18 -12  11    0.28    0.58
  11  12  18    0.91    0.83
  12  18  11   -0.01    0.65
  12 -11  18   -0.32    0.57
  18 -12  12   -0.34    0.62
  18  12  12    2.01    0.90
  12  18  12    0.21    0.68
  12  12  18   -0.29    0.80
  12 -12  18    0.78    0.61
  13   0  18    0.24    0.71
   0  18  13    1.65    0.57
   0  13  18    1.45    0.70
   1 -13  18    5.83    0.73
  -1  13  18    4.87    0.88
   1  18  13    5.07    0.73
  13   1  18    6.10    1.00
  -1  18  13    6.29    0.78
   1  13  18    4.55    0.83
  13  -1  18    4.85    0.94
   2 -13  18    3.47    0.66
  -2  13  18    2.26    0.75
   2  18  13    2.04    0.61
  13   2  18    2.12    0.87
  13  -2  18    3.22    0.85
   2  13  18    3.03    0.79
  -2  18  13    3.62    0.65
   3 -13  18    3.81    0.70
  13   3  18    2.24    0.89
   3  18  13    4.02    0.72
  -3  13  18    4.55    0.87
   3  13  18    3.84    0.87
  -3  18  13    2.47    0.61
  13  -3  18    2.88    0.80
  -4  13  18    0.37    0.65
   4 -13  18    0.08    0.53
  13   4  18    0.55    0.76
   4  18  13    0.17    0.55
   4  13  18    0.57    0.71
  13  -4  18   -0.57    0.64
   5  18  13   14.44    1.14
  13   5  18   14.31    1.44
   5 -13  18   14.15    1.09
  -5  13  18   13.71    1.24
   5  13  18   15.58    1.34
  13  -5  18   12.71    1.21
  13   6  18    6.94    1.10
   6  18  13    6.52    0.86
   6 -13  18    5.00    0.73
  13  -6  18    2.99    0.78
   6  13  18    4.79    0.93
  13   7  18    0.29    0.80
   7 -13  18    1.50    0.59
   7  18  13    1.04    0.64
  18  -7  13    0.24    0.67
   7  13  18    1.16    0.75
  13  18   7    1.15    0.64
  13  -7  18    1.50    0.73
   8 -13  18    3.16    0.69
   8  18  13    2.65    0.73
  13   8  18    1.37    0.87
  18  -8  13    2.55    0.78
  13  -8  18    3.07    0.80
  13  18   8    2.01    0.71
   8  13  18    1.77    0.84
   9 -13  18    8.64    1.02
  13   9  18    9.26    1.23
  18  -9  13    6.86    0.99
   9  18  13    7.78    1.00
  13  -9  18    6.01    0.92
   9  13  18    8.46    1.16
  13  18   9    8.82    1.06
  18   9  13    6.59    1.11
  13  10  18    9.80    1.30
  10  18  13   10.94    1.14
  18 -10  13   10.96    1.14
  10  13  18    8.78    1.23
  13  18  10    9.27    1.07
  13 -10  18   10.78    1.11
  18  10  13    9.07    1.29
  18 -11  13    1.12    0.68
  11  18  13   -1.21    0.61
  13  11  18    0.47    0.81
  18  11  13   -0.26    0.79
  13 -11  18    0.19    0.65
  13  18  11    0.24    0.65
  11  13  18    0.03    0.82
  18 -12  13    3.19    0.78
  12  18  13    2.02    0.79
  13  12  18    3.27    1.01
  18  13  12    1.87    0.94
  13 -12  18    2.91    0.75
  18  12  13    3.83    1.05
  13  18  12    1.77    0.80
  12  13  18    2.50    0.97
  18  13  13    2.03    0.96
  13  18  13    2.43    0.88
  13  13  18    3.30    1.01
  18   0  14   -0.44    0.70
   0  14  18    0.56    0.68
   0  18  14   -0.18    0.52
  14   0  18    0.26    0.68
  14   1  18   -0.28    0.70
  -1  14  18   -0.43    0.60
  18  -1  14   -0.11    0.72
   1  18  14    1.19    0.59
  18   1  14   -0.19    0.70
  -1  18  14    0.11    0.54
  14  -1  18   -0.28    0.65
   1  14  18    0.88    0.65
  18  -2  14    2.33    0.82
   2 -14  18    2.51    0.67
   2  18  14    1.90    0.63
  -2  14  18    4.12    0.84
  14   2  18    2.54    0.85
  18   2  14    3.41    0.91
  14  -2  18    2.70    0.85
  -2  18  14    1.08    0.58
   2  14  18    3.15    0.81
  18  -3  14    2.23    0.77
  14   3  18    2.09    0.80
  -3  14  18    3.76    0.79
   3  18  14    0.98    0.59
  14  -3  18    2.75    0.84
  18   3  14    1.61    0.81
   3  14  18    2.86    0.79
  -3  18  14    1.82    0.64
  -4  14  18    1.94    0.73
  18  -4  14    1.55    0.74
  14   4  18    1.14    0.79
   4  18  14    2.36    0.67
   4  14  18    1.50    0.72
  14  -4  18    2.11    0.80
  18   4  14    1.48    0.84
   5  18  14    1.24    0.61
  -5  14  18    0.87    0.68
  18  -5  14    0.29    0.71
  14   5  18    1.08    0.79
  14  -5  18    0.71    0.73
   5  14  18    2.43    0.80
  18   5  14    0.81    0.83
  14   6  18    2.00    0.89
  18  -6  14    3.09    0.82
   6  18  14    2.94    0.74
  14  -6  18    2.06    0.77
  18   6  14    2.01    0.86
   6  14  18    2.26    0.77
  14   7  18    3.61    0.95
  18  -7  14    2.96    0.85
   7  18  14    3.90    0.78
  14  18   7    1.43    0.70
  14  -7  18    3.23    0.81
  18   7  14    2.92    0.99
   7  14  18    3.37    0.83
  18  -8  14   -0.25    0.65
   8  18  14   -0.37    0.60
  14   8  18    0.20    0.82
  18   8  14    0.74    0.83
  14  -8  18   -1.12    0.56
   8  14  18   -0.60    0.68
  14  18   8    0.29    0.64
  18  -9  14    3.87    0.90
   9  18  14    4.05    0.86
  14   9  18    4.13    1.02
  14  18   9    4.06    0.88
  14  -9  18    4.03    0.87
  18   9  14    6.66    1.19
   9  14  18    4.83    1.01
  14  10  18    9.37    1.30
  10  18  14    7.57    1.06
  18 -10  14    7.47    1.03
  18  10  14    7.93    1.24
  14 -10  18    5.73    0.91
  14  18  10    7.42    1.03
  10  14  18    5.39    1.07
  11  18  14    1.25    0.76
  18 -11  14    0.26    0.67
  18  14  11    0.36    0.80
  14  11  18    0.67    0.88
  11  14  18    0.28    0.80
  14  18  11    1.36    0.77
  18  11  14   -0.38    0.79
  14 -11  18    0.72    0.69
  14  12  18    1.93    1.01
  18  14  12    2.16    0.90
  12  18  14    0.87    0.80
  18 -12  14    0.99    0.73
  18  12  14    1.22    0.94
  14 -12  18    2.97    0.81
  14  18  12    0.48    0.78
  12  14  18    1.57    0.96
  15   0  18    0.04    0.75
  18   0  15   -1.38    0.68
   0  15  18    0.29    0.66
   0  18  15   -0.67    0.51
  18  -1  15    1.25    0.82
  -1  15  18    1.30    0.71
   1  18  15    1.01    0.61
  15   1  18    2.32    0.85
  18   1  15    2.40    0.87
  15  -1  18    0.77    0.76
  -1  18  15    2.50    0.67
   1  15  18    0.92    0.72
  15   2  18    0.98    0.81
   2  18  15    0.69    0.62
  -2  15  18    1.87    0.71
  18  -2  15    0.73    0.77
  18   2  15    0.72    0.77
   2  15  18    1.62    0.73
  -2  18  15    1.11    0.60
  15  -2  18    0.45    0.72
  -3  15  18    2.22    0.75
   3  18  15    2.03    0.67
  18  -3  15    3.84    0.92
  15   3  18    3.39    0.94
  18   3  15    3.57    0.98
  15  -3  18    1.87    0.84
   3  15  18    2.67    0.78
  -3  18  15    4.06    0.74
   4  18  15    4.97    0.82
  18  -4  15    3.01    0.91
  15   4  18    3.90    0.99
  -4  15  18    3.68    0.83
  18   4  15    4.47    0.99
   4  15  18    5.83    0.97
  15  -4  18    4.83    0.98
  15   5  18   12.08    1.35
   5  18  15    9.45    1.04
  -5  15  18    8.99    1.06
  18  -5  15   10.15    1.17
  15  -5  18   10.81    1.21
  18   5  15   10.31    1.28
   5  15  18    9.96    1.14
  18  -6  15    8.51    1.10
  15   6  18    8.26    1.20
   6  18  15    8.99    1.04
  15  -6  18    8.45    1.10
   6  15  18    9.23    1.13
  18   6  15    8.82    1.21
  18  -7  15   -1.00    0.63
   7  18  15    0.27    0.63
  15   7  18   -0.32    0.77
   7  15  18   -0.57    0.67
  18   7  15    0.46    0.85
  15  -7  18   -0.11    0.65
   8  18  15    3.32    0.79
  15   8  18    1.41    0.95
  18  -8  15    1.38    0.78
   8  15  18    1.24    0.75
  15  18   8    2.35    0.79
  18   8  15    0.42    0.85
  15  -8  18    0.58    0.69
  18  -9  15    2.63    0.87
  15   9  18    5.92    1.13
   9  18  15    3.34    0.87
  15  18   9    2.41    0.81
  18   9  15    3.24    1.03
  15  -9  18    1.72    0.76
   9  15  18    3.71    1.02
  18 -10  15    4.40    0.91
  15  10  18    5.16    1.18
  10  18  15    5.44    1.00
  18  10  15    5.54    1.19
  15 -10  18    6.10    0.96
  15  18  10    7.11    1.04
  10  15  18    5.47    1.08
  15  11  18    1.59    0.96
  18  15  11    0.92    0.86
  11  18  15    0.74    0.80
  18 -11  15    0.66    0.69
  18  11  15    0.87    0.95
  15 -11  18   -0.96    0.61
  15  18  11   -0.47    0.73
  11  15  18    0.85    0.89
   0  18  16   15.63    1.21
  16   0  18   11.12    1.29
  18   0  16   13.43    1.38
   0  16  18   11.56    1.17
   1  18  16    4.09    0.78
  18  -1  16    5.10    1.01
  16   1  18    4.02    0.99
  -1  16  18    3.35    0.83
   1  16  18    4.38    0.85
  16  -1  18    4.17    0.98
  18   1  16    4.72    1.03
  -1  18  16    3.92    0.78
   2  18  16    2.02    0.71
  18  -2  16    2.79    0.90
  -2  16  18    1.23    0.71
  16   2  18    2.09    0.86
  -2  18  16    1.57    0.66
   2  16  18    1.06    0.66
  16  -2  18    1.64    0.80
  18   2  16    2.23    0.90
  18  -3  16    6.48    1.06
   3  18  16    8.10    0.98
  -3  16  18    6.49    0.96
  16   3  18    7.98    1.23
  16  -3  18    8.22    1.15
   3  16  18    7.60    1.01
  18   3  16    8.94    1.23
  -3  18  16    7.08    0.93
   4  18  16    0.52    0.62
  -4  16  18    0.26    0.68
  16   4  18   -1.39    0.71
  18  -4  16    0.51    0.77
  18   4  16    0.21    0.84
   4  16  18    0.43    0.67
  16  -4  18   -0.04    0.73
  16   5  18    1.72    0.88
  18  -5  16    2.23    0.90
   5  18  16    1.52    0.70
  16  -5  18    3.08    0.88
   5  16  18    2.30    0.77
  18   5  16    1.67    0.90
  16   6  18    1.49    0.88
  18  -6  16    1.85    0.84
   6  18  16    0.68    0.66
  18   6  16    1.25    0.91
   6  16  18    1.28    0.77
  16  -6  18    1.73    0.83
  18  -7  16    0.92    0.76
  16   7  18   -0.46    0.85
   7  18  16    1.32    0.69
  16  -7  18   -0.29    0.63
  18   7  16    0.02    0.82
   7  16  18    0.10    0.71
   8  18  16    0.97    0.72
  16   8  18    2.73    1.03
  18  -8  16    1.79    0.80
  18   8  16    2.53    1.00
  16  18   8    1.82    0.81
   8  16  18    1.30    0.78
  16  -8  18    4.23    0.91
   9  18  16   -0.28    0.69
  18  -9  16   -0.76    0.68
  16   9  18    0.97    0.90
  18   9  16    0.29    0.87
   9  16  18    0.65    0.74
  16  -9  18    0.87    0.75
  16  18   9    0.12    0.73
  17   0  18    1.89    0.89
   0  17  18    1.04    0.74
   0  18  17    2.87    0.74
  18   0  17    0.69    0.86
  17   1  18    1.44    0.89
   1  18  17    3.59    0.79
  18  -1  17    1.21    0.88
  -1  17  18    5.16    0.89
  17  -1  18    1.68    0.88
  -1  18  17    3.58    0.76
  18   1  17    2.40    0.94
   1  17  18    2.24    0.80
   2  18  17    1.64    0.68
  -2  17  18    0.40    0.65
  18  -2  17   -0.02    0.84
  17   2  18    0.93    0.88
   2  17  18    0.04    0.65
  -2  18  17    1.01    0.65
  17  -2  18    0.53    0.83
  18   2  17   -0.73    0.81
  17   3  18    0.84    0.85
   3  18  17    1.16    0.68
  -3  17  18    0.45    0.65
  18  -3  17    0.33    0.84
  -3  18  17    0.56    0.63
  17  -3  18    0.39    0.78
  18   3  17    0.00    0.85
   3  17  18    1.10    0.72
  17   4  18    4.53    1.10
  18  -4  17    2.62    0.88
   4  18  17    2.62    0.79
  -4  17  18    2.62    0.77
  17  -4  18    2.90    0.89
  18   4  17    2.58    1.02
   4  17  18    3.49    0.85
  17   5  18    6.97    1.21
   5  18  17    9.49    1.12
  18  -5  17    9.14    1.23
  17  -5  18    9.56    1.20
  18   5  17    8.30    1.33
   5  17  18    8.03    1.07
  17   6  18   -0.11    0.81
   6  18  17    0.40    0.69
  18  -6  17    1.78    0.86
   6  17  18    0.40    0.69
  18   6  17    0.14    0.90
  17  -6  18    0.33    0.77
  18  -7  17    3.39    0.87
   7  18  17    2.48    0.82
  17   7  18    2.06    1.01
  18   7  17    2.37    1.05
  17  -7  18    2.71    0.85
   7  17  18    1.64    0.82
   0  18  18    3.17    0.81
  18   0  18    3.18    1.01
  -1  18  18    0.97    0.69
   1  18  18   -0.58    0.63
  18  -1  18   -0.45    0.80
  18   1  18    0.27    0.83
  -2  18  18    3.54    0.84
   2  18  18    3.61    0.85
  18  -2  18    3.53    1.01
  18   2  18    4.68    1.08
  -3  18  18    1.25    0.71
   3  18  18   -0.61    0.66
  18  -3  18    0.70    0.82
  18   3  18    1.30    0.93
   4  18  18    1.91    0.78
  18  -4  18    3.73    0.96
  18   4  18    3.52    1.10
   5  18  18    0.01    0.73
  18  -5  18    0.69    0.79
  18   5  18   -0.22    0.85
   0   0  19    0.45    0.54
   0  -1  19    7.23    0.90
   0   1  19    6.90    0.88
   1   0  19    6.36    0.84
  -1   0  19    5.38    0.83
   1   1  19   -0.59    0.50
  -1  -1  19   -0.21    0.56
  -1   1  19   -0.36    0.55
   1  -1  19    0.60    0.55
   2   0  19   15.97    1.26
   0   2  19   14.01    1.16
   0  -2  19   14.73    1.18
  -2   0  19   19.57    1.36
  -1   2  19    0.51    0.59
   1  -2  19    0.47    0.55
  -2  -1  19    0.77    0.60
   2   1  19    0.66    0.61
  -1  -2  19    0.06    0.53
  -2   1  19    0.03    0.58
   1   2  19    0.22    0.54
   2  -1  19    0.36    0.59
   2  -2  19   -0.21    0.55
   2   2  19    0.94    0.60
  -2  -2  19    0.66    0.59
  -2   2  19    0.85    0.61
   3   0  19   17.54    1.32
   0   3  19   19.39    1.26
  -3   0  19   19.42    1.30
   0  -3  19   19.73    1.29
   3   1  19   25.49    1.49
  -3  -1  19   24.89    1.46
   1  -3  19   23.20    1.41
  -1   3  19   27.61    1.51
   3  -1  19   21.54    1.39
  -1  -3  19   25.92    1.43
  -3   1  19   23.81    1.43
   1   3  19   23.64    1.43
  -2   3  19    1.86    0.64
  -3  -2  19    2.71    0.67
   3   2  19    2.17    0.67
   2  -3  19    2.08    0.65
   3  -2  19    2.73    0.70
  -2  -3  19    3.76    0.74
   2   3  19    2.46    0.73
  -3   2  19    2.32    0.71
   3   3  19    2.39    0.72
  -3   3  19    2.40    0.68
   3  -3  19    3.74    0.71
  -3  -3  19    4.80    0.78
  -4   0  19    3.70    0.75
   0  -4  19    5.86    0.83
   4   0  19    5.04    0.83
   0   4  19    3.48    0.76
  -1   4  19   19.70    1.33
   1  -4  19   19.34    1.25
  -4  -1  19   18.12    1.35
   4   1  19   17.21    1.31
  -1  -4  19   20.26    1.32
   1   4  19   20.29    1.35
  -4   1  19   16.41    1.28
   4  -1  19   18.20    1.34
   4   2  19   12.51    1.12
  -2   4  19   14.56    1.22
   2  -4  19   12.46    1.08
  -4  -2  19   14.34    1.20
  -2  -4  19   13.08    1.13
   2   4  19   10.87    1.06
  -4   2  19   14.41    1.21
   4  -2  19   13.68    1.16
   4   3  19    9.08    1.03
  -4  -3  19    7.42    0.94
  -3   4  19   10.30    1.06
   3  -4  19    9.20    1.01
  -3  -4  19    7.97    0.93
  -4   3  19   11.23    1.08
   4  -3  19   11.11    1.06
   3   4  19    9.43    0.99
   4   4  19    0.30    0.56
   4  -4  19    0.26    0.57
  -4  -4  19    0.59    0.57
  -4   4  19    0.16    0.58
   5   0  19    0.80    0.61
   0  -5  19    1.19    0.62
   0   5  19    1.65    0.64
  -5   0  19    1.50    0.68
  -5  -1  19    6.36    0.90
   5   1  19    6.74    0.92
  -1   5  19    6.30    0.86
   1  -5  19    5.81    0.82
   1   5  19    5.90    0.89
   5  -1  19    4.10    0.82
  -5   1  19    5.74    0.89
  -1  -5  19    4.06    0.77
   2  -5  19   18.24    1.23
  -5  -2  19   17.79    1.33
   5   2  19   18.76    1.39
  -2   5  19   19.26    1.40
   2   5  19   14.58    1.20
  -5   2  19   17.62    1.30
  -2  -5  19   17.23    1.27
   5  -2  19   17.66    1.31
  -3   5  19    5.51    0.83
  -5  -3  19    6.93    0.89
   3  -5  19    6.66    0.85
   5   3  19    7.93    0.97
  -3  -5  19    6.54    0.86
   3   5  19    5.31    0.89
   5  -3  19    7.41    0.92
  -5   3  19    5.15    0.88
  -4   5  19    1.35    0.64
   5   4  19    0.33    0.63
   4  -5  19   -0.44    0.51
  -4  -5  19    0.04    0.52
   5  -4  19    0.86    0.59
   4   5  19   -0.48    0.56
  -5   4  19   -0.26    0.57
   5   5  19    4.06    0.81
  -5   5  19    4.77    0.83
   5  -5  19    3.56    0.75
   0  -6  19    7.59    0.88
   0   6  19    8.67    0.96
   6   0  19    6.96    0.95
   6   1  19    2.66    0.74
  -1   6  19    4.31    0.77
   1  -6  19    3.70    0.75
  -6   1  19    4.66    0.84
   1   6  19    5.80    0.89
   6  -1  19    3.08    0.75
  -1  -6  19    4.96    0.78
  -2   6  19    2.32    0.71
   6   2  19    1.19    0.68
   2  -6  19    1.36    0.64
   2   6  19    2.01    0.70
  -6   2  19    2.31    0.68
  -2  -6  19    2.03    0.65
   6  -2  19    2.61    0.75
   3  -6  19    2.44    0.67
  -3   6  19    2.60    0.69
   6   3  19    4.51    0.84
  -3  -6  19    2.19    0.65
  -6   3  19    3.72    0.78
   6  -3  19    3.30    0.76
   3   6  19    3.11    0.75
   4  -6  19   14.25    1.17
   6   4  19   16.62    1.33
  -4   6  19   15.81    1.27
  -6   4  19   11.80    1.12
   6  -4  19   14.56    1.21
   4   6  19   16.94    1.33
   5  19   6    8.04    0.78
   5  -6  19    5.42    0.84
   6   5  19    7.18    0.97
  -5   6  19    6.82    0.96
  -6   5  19    6.55    0.93
   6  19   5    6.39    0.80
   5   6  19    6.01    0.89
   6  -5  19    5.50    0.88
  -6   6  19   -0.58    0.62
   6   6  19    1.89    0.71
   6  -6  19    0.80    0.61
   6  19   6    0.82    0.43
   0   7  19    0.52    0.65
   7   0  19    1.50    0.69
   0  -7  19    0.53    0.54
  -1   7  19    9.99    1.09
   1  -7  19   10.15    0.99
   7   1  19    7.62    1.00
   1   7  19   10.42    1.08
  -1  -7  19    9.45    0.97
   7  -1  19   12.76    1.15
   2  -7  19    3.41    0.72
   7   2  19    2.68    0.76
  -2   7  19    2.59    0.76
   2   7  19    3.00    0.77
   7  -2  19    2.27    0.72
  -2  -7  19    4.08    0.74
   3  -7  19    0.81    0.58
  -3   7  19    0.33    0.62
   7   3  19    1.83    0.70
   3   7  19    1.16    0.66
  -3  -7  19    0.77    0.58
   7  -3  19    0.47    0.61
  -4   7  19   11.34    1.13
   7   4  19    8.22    1.02
   4  -7  19    8.57    0.93
   4  19   7    9.56    0.78
   7  19   4   11.48    1.19
   7  -4  19    9.01    1.00
   4   7  19    9.48    1.06
   7   5  19    4.30    0.84
   5  -7  19    3.13    0.72
  -5   7  19    6.64    0.97
   5  19   7    3.24    0.53
   5   7  19    3.19    0.80
   7  19   5    5.72    0.62
   7  -5  19    4.94    0.83
  -6   7  19    4.83    0.91
   7   6  19    5.61    0.95
   6  -7  19    8.10    0.93
   6  19   7    5.59    0.66
   7  19   6    6.77    0.68
   7  -6  19    5.39    0.83
   6   7  19    5.29    0.91
   7  19   7    0.98    0.49
   7   7  19    1.21    0.73
   7  -7  19    0.90    0.63
   8   0  19   15.59    1.28
   0  -8  19   14.01    1.14
   0   8  19   16.60    1.36
   8   1  19   14.25    1.25
   1  -8  19   14.64    1.11
  -1   8  19   12.11    1.15
   1   8  19   16.43    1.30
  -1  -8  19   16.33    1.19
   8  -1  19   16.63    1.34
   8   2  19    6.54    0.95
   2  19   8    7.54    0.95
  -2   8  19    7.37    0.95
   2  -8  19    5.94    0.83
  -2  -8  19    5.27    0.79
   2   8  19    5.57    0.91
   8  -2  19    5.40    0.87
  -3   8  19   24.43    1.57
   3  19   8   22.28    1.11
   3  -8  19   25.83    1.42
   8   3  19   26.46    1.60
   3   8  19   22.05    1.52
   8  -3  19   23.06    1.49
  -4   8  19    5.46    0.90
   4  -8  19    6.50    0.84
   8   4  19    6.03    0.95
   4  19   8    5.24    0.64
   4   8  19    4.33    0.84
   8  19   4    5.57    0.63
   8  -4  19    4.40    0.84
  -5   8  19    6.11    0.94
   8   5  19    6.71    0.97
   5  19   8    5.41    0.65
   5  -8  19    7.09    0.87
   5   8  19    4.34    0.83
   8  -5  19    5.85    0.90
   8  19   5    7.00    0.69
   6  19   8    9.70    0.83
  -6   8  19    7.56    1.02
   8   6  19    6.87    1.06
   6  -8  19    8.88    0.97
   8  19   6    8.71    0.80
   6   8  19    9.77    1.10
   8  -6  19    6.87    0.93
   7  -8  19    5.65    0.85
   7  19   8    7.16    0.77
   8   7  19    6.92    1.04
   8  -7  19    5.56    0.86
   7   8  19    6.73    1.02
   8  19   7    5.36    0.70
   8  19   8    1.82    0.55
   8   8  19    2.14    0.80
   8  -8  19    1.43    0.64
   0  -9  19    4.42    0.76
   9   0  19    4.18    0.82
   0   9  19    5.49    0.92
   1  19   9    4.21    0.65
   1  -9  19    4.50    0.75
  -1   9  19    4.80    0.88
   9   1  19    4.23    0.85
   9  -1  19    7.07    1.01
   1   9  19    5.12    0.89
  -1  -9  19    4.70    0.76
   2  -9  19   14.72    1.13
   9   2  19   15.19    1.34
   2  19   9   14.83    0.90
  -2   9  19   11.38    1.14
  -2  -9  19   14.92    1.15
   2   9  19   14.04    1.24
   9  -2  19   14.84    1.29
   3  19   9    3.14    0.56
   3  -9  19    3.74    0.71
   9   3  19    3.07    0.78
  -3   9  19    1.83    0.74
   9  19   3    5.42    0.63
   3   9  19    5.68    0.91
   9  -3  19    4.10    0.83
   4  19   9   10.21    0.81
   9   4  19    8.32    1.05
  -4   9  19    9.80    1.12
   4  -9  19    8.59    0.93
   9  19   4   10.03    0.82
   4   9  19    9.05    1.10
   9  -4  19   11.21    1.12
  -5   9  19   12.36    1.22
   9   5  19   11.91    1.24
   5  19   9   13.79    0.95
   5  -9  19   13.20    1.10
   9  -5  19   12.43    1.17
   5   9  19   13.51    1.29
   9  19   5   13.25    0.95
  -6   9  19    0.16    0.64
   6  -9  19    1.44    0.60
   6  19   9    0.05    0.47
   9   6  19   -1.00    0.58
   9  -6  19   -0.16    0.61
   6   9  19    0.91    0.70
   9  19   6   -0.01    0.46
   9   7  19    1.25    0.76
   7  -9  19    1.12    0.61
   7  19   9    1.70    0.58
   9  19   7    2.03    0.59
   7   9  19    0.33    0.69
   9  -7  19    1.65    0.68
   8  -9  19    3.18    0.74
   9   8  19    3.32    0.87
   8  19   9    4.50    0.69
   8   9  19    3.98    0.93
   9  -8  19    4.80    0.79
   9  19   8    3.74    0.65
   9  -9  19    5.52    0.86
   9  19   9    5.68    0.78
   9   9  19    7.00    1.05
   0  19  10    8.58    0.77
   0  10  19    7.87    1.02
   0 -10  19    7.48    0.89
  10   0  19    9.51    1.11
   1  19  10    3.42    0.58
  -1  10  19    3.68    0.87
   1 -10  19    3.99    0.75
  10   1  19    5.19    0.94
  -1 -10  19    3.57    0.70
  10  -1  19    3.95    0.86
  -1  19  10    5.14    0.94
   1  10  19    3.69    0.86
   2  19  10    3.30    0.58
   2 -10  19    4.29    0.75
  -2  10  19    2.36    0.78
  10   2  19    4.07    0.86
  10  -2  19    3.28    0.83
   2  10  19    3.72    0.85
   3 -10  19    3.81    0.75
   3  19  10    4.06    0.62
  -3  10  19    5.77    0.92
  10   3  19    5.99    1.00
  10  19   3    5.03    0.66
  10  -3  19    5.34    0.92
   3  10  19    5.68    0.95
  -4  10  19    1.64    0.72
  10   4  19    2.79    0.86
   4  19  10    2.53    0.58
   4 -10  19    1.60    0.60
  10  -4  19    3.35    0.81
   4  10  19    2.02    0.75
  10  19   4    2.13    0.53
  -5  10  19    3.46    0.82
   5 -10  19    2.76    0.68
   5  19  10    3.26    0.62
  10   5  19    2.77    0.83
  10  -5  19    2.62    0.76
   5  10  19    2.76    0.81
  10  19   5    3.25    0.61
  -6  10  19    9.63    1.09
   6 -10  19    9.99    0.97
   6  19  10    8.89    0.86
  10   6  19    8.13    1.10
  10  -6  19    7.41    0.98
   6  10  19    9.73    1.14
  10  19   6    9.19    0.87
  10   7  19    3.23    0.88
   7  19  10    3.44    0.68
   7 -10  19    2.87    0.69
  10  19   7    3.48    0.65
  10  -7  19    3.81    0.79
   7  10  19    3.93    0.87
   8 -10  19   -0.45    0.54
   8  19  10    1.01    0.58
  10   8  19    1.29    0.79
  10  19   8    2.59    0.62
   8  10  19    0.43    0.73
  10  -8  19    1.23    0.66
  10   9  19    0.66    0.79
   9 -10  19   -0.28    0.57
   9  19  10    0.49    0.56
  10  -9  19    0.50    0.62
  10  19   9   -0.04    0.56
   9  10  19    1.01    0.78
  10  19  10   14.85    1.20
  10  10  19   15.60    1.52
  10 -10  19   14.72    1.21
   0  19  11    3.50    0.62
   0  11  19    3.73    0.82
   0 -11  19    3.19    0.67
  11   0  19    2.17    0.80
  -1  11  19    7.86    1.04
   1  19  11    8.35    0.81
   1 -11  19    6.67    0.84
  11   1  19    8.88    1.14
  11  -1  19    8.74    1.09
   1  11  19    6.98    1.01
  -1  19  11    9.45    0.81
   2  19  11   10.86    0.90
  -2  11  19    6.02    0.94
   2 -11  19    9.27    0.91
  11   2  19    8.39    1.09
  11  -2  19   11.18    1.22
  -2  19  11   10.21    1.01
   2  11  19   11.05    1.17
   3 -11  19    2.86    0.69
   3  19  11    2.96    0.61
  -3  11  19    1.83    0.71
  11   3  19    3.26    0.88
   3  11  19    3.62    0.86
  11  -3  19    3.85    0.88
   4 -11  19    5.21    0.81
  -4  11  19    4.15    0.86
  11   4  19    3.20    0.89
   4  19  11    5.12    0.73
  11  -4  19    2.97    0.82
  11  19   4    4.10    0.66
   4  11  19    5.01    0.92
  -5  11  19    3.15    0.81
   5  19  11    3.67    0.65
  11   5  19    1.85    0.82
   5 -11  19    3.57    0.74
  11  19   5    2.67    0.61
   5  11  19    2.48    0.84
  11  -5  19    1.44    0.72
  -6  11  19    4.34    0.84
   6  19  11    3.62    0.67
  11   6  19    3.71    0.91
   6 -11  19    4.16    0.75
  11  -6  19    3.66    0.81
   6  11  19    1.31    0.78
  11  19   6    5.26    0.76
   7  19  11    1.35    0.61
  11   7  19    1.52    0.80
   7 -11  19    1.49    0.67
  11  -7  19    0.76    0.67
  11  19   7    0.62    0.55
   7  11  19    1.25    0.77
  11   8  19    2.00    0.88
   8 -11  19    1.96    0.69
   8  19  11    1.24    0.66
  11  19   8    1.56    0.61
   8  11  19    2.22    0.87
  11  -8  19    1.67    0.67
   9  19  11   -0.45    0.58
  11   9  19    0.97    0.80
   9 -11  19   -0.05    0.56
   9  11  19    0.96    0.83
  11  -9  19   -0.19    0.60
  11  19   9    0.85    0.62
  11  10  19    7.83    1.14
  10  19  11    9.08    0.99
  10 -11  19    7.98    0.97
  10  11  19    7.37    1.19
  11  19  10   10.31    1.03
  11 -10  19    9.03    1.05
  11 -11  19    4.22    0.78
  11  19  11    4.74    0.82
  11  11  19    3.42    0.99
   0 -12  19    3.91    0.72
   0  19  12    3.80    0.66
   0  12  19    4.79    0.89
  12   0  19    4.00    0.91
  12   1  19    2.29    0.80
  -1  12  19    2.96    0.84
   1  19  12    3.52    0.64
   1 -12  19    3.00    0.69
   1  12  19    4.35    0.86
  -1  19  12    4.42    0.69
  12  -1  19    3.77    0.87
  12   2  19   20.61    1.60
   2  19  12   19.53    1.17
  -2  12  19   20.10    1.49
   2 -12  19   20.25    1.27
  12  -2  19   21.54    1.61
   2  12  19   24.05    1.53
  -2  19  12   18.93    1.15
  12   3  19   12.88    1.35
  -3  12  19   10.67    1.12
   3  19  12   11.50    0.99
   3 -12  19   10.27    0.99
   3  12  19    9.47    1.13
  12  -3  19    9.90    1.15
  12   4  19    1.47    0.83
   4  19  12    2.05    0.63
  -4  12  19    1.81    0.75
   4 -12  19    1.93    0.65
   4  12  19    2.07    0.81
  12  -4  19    3.32    0.84
  -5  12  19    3.07    0.81
   5  19  12    4.12    0.73
  12   5  19    5.09    0.97
   5 -12  19    5.14    0.80
   5  12  19    4.00    0.91
  12  -5  19    2.28    0.79
  12  19   5    4.71    0.75
  12   6  19    9.53    1.23
   6  19  12   12.65    1.03
   6 -12  19   12.37    1.10
   6  12  19    7.47    1.02
  12  19   6   10.28    0.98
  12  -6  19    9.51    1.10
  12   7  19   12.96    1.36
   7 -12  19   10.88    1.02
   7  19  12   10.30    1.03
  12  -7  19   11.10    1.17
  12  19   7   11.48    1.05
   7  12  19   12.62    1.30
   8 -12  19    1.88    0.62
   8  19  12    2.24    0.68
  12   8  19    2.16    0.85
   8  12  19    2.48    0.85
  12  -8  19    1.70    0.72
  12  19   8    0.54    0.59
  12   9  19    3.21    0.99
   9  19  12    2.73    0.75
   9 -12  19    2.03    0.72
   9  12  19    1.46    0.89
  12  -9  19    2.00    0.72
  12  19   9    3.31    0.77
  19 -10  12    0.28    0.65
  12  10  19    0.28    0.82
  10 -12  19    0.40    0.62
  10  19  12    0.38    0.61
  12  19  10    0.75    0.66
  10  12  19   -0.03    0.77
  12 -10  19    0.62    0.65
  19 -11  12    0.55    0.67
  12  11  19    2.03    0.89
  11  19  12   -0.78    0.64
  11 -12  19    0.44    0.67
  12  19  11    0.36    0.66
  12 -11  19    0.45    0.65
  11  12  19    0.46    0.84
  19 -12  11    0.86    0.64
  12 -12  19    0.78    0.69
  19 -12  12    0.69    0.67
  12  12  19    0.44    0.87
  12  19  12    1.65    0.78
   0  19  13    6.52    0.79
   0  13  19    6.32    0.99
  13   0  19    4.13    0.95
  -1  13  19    1.64    0.75
   1 -13  19    1.82    0.62
   1  19  13    2.93    0.64
  13   1  19    2.13    0.80
  -1  19  13    2.38    0.64
  13  -1  19    1.68    0.83
   1  13  19    1.94    0.79
   2 -13  19    9.31    0.93
  13   2  19    9.74    1.24
   2  19  13    9.00    0.90
  -2  13  19    8.12    1.06
  13  -2  19   11.58    1.26
  -2  19  13    9.51    0.92
   2  13  19    9.44    1.14
   3  19  13    0.86    0.55
   3 -13  19    1.27    0.59
  -3  13  19    0.73    0.67
  13   3  19    1.85    0.84
  13  -3  19    1.36    0.77
   3  13  19    1.88    0.80
  13   4  19    3.80    0.98
   4  19  13    5.91    0.83
  -4  13  19    3.24    0.82
   4 -13  19    5.74    0.78
   4  13  19    5.09    0.94
  13  -4  19    5.89    0.97
   5 -13  19    1.35    0.61
  -5  13  19    0.66    0.68
  13   5  19    1.04    0.80
   5  19  13    1.52    0.60
   5  13  19    0.79    0.73
  13  -5  19    0.81    0.72
   6  19  13    0.39    0.58
  13   6  19   -0.94    0.73
   6 -13  19    0.07    0.54
  13  -6  19    1.42    0.73
   6  13  19    0.18    0.73
  13  19   6   -0.08    0.56
   7 -13  19    1.17    0.64
   7  19  13    2.15    0.67
  13   7  19    1.62    0.84
  13  19   7    1.89    0.70
   7  13  19    2.09    0.79
  13  -7  19    2.31    0.79
   8  19  13    2.87    0.76
  19  -8  13    3.08    0.81
  13   8  19    3.66    1.01
  13  19   8    2.18    0.73
  13  -8  19    3.62    0.86
   8  13  19    2.58    0.84
  13   9  19    2.14    0.89
  19  -9  13    2.75    0.83
   9  19  13    3.00    0.78
   9  13  19    1.73    0.88
  13  -9  19    3.69    0.85
  13  19   9    2.61    0.75
  13  10  19    1.34    0.93
  19 -10  13    0.25    0.69
  10  19  13   -0.04    0.68
  13  19  10    0.79    0.67
  10  13  19    0.64    0.81
  19  10  13    1.17    0.92
  13 -10  19    1.53    0.71
  11  19  13    4.81    0.95
  19 -11  13    3.13    0.84
  13  11  19    3.61    1.02
  11  13  19    2.06    0.95
  13  19  11    2.00    0.80
  13 -11  19    4.33    0.85
  19  11  13    4.76    1.08
  12  19  13    1.32    0.78
  19  13  12    0.48    0.88
  19 -12  13    2.20    0.79
  13  12  19    0.89    0.91
  19  12  13    2.39    0.99
  13  19  12    2.30    0.82
  13 -12  19    1.98    0.87
  12  13  19    1.91    0.99
   0  19  14    0.57    0.55
  14   0  19   -0.14    0.72
   0  14  19    0.24    0.70
  -1  14  19   -0.28    0.60
   1  19  14    0.19    0.54
  14   1  19    0.24    0.81
  14  -1  19    0.92    0.75
   1  14  19    0.72    0.69
  -1  19  14    0.77    0.58
  -2  14  19    6.64    1.00
  14   2  19    6.10    1.04
   2  19  14    5.74    0.79
   2  14  19    6.88    1.02
  14  -2  19    5.76    1.04
  -2  19  14    5.74    0.81
  19  -3  14    2.70    0.88
   3  19  14    1.45    0.61
  -3  14  19    0.90    0.68
  14   3  19    1.17    0.84
  -3  19  14    1.39    0.59
  14  -3  19   -0.66    0.70
   3  14  19    0.49    0.74
  19  -4  14    8.59    1.16
  14   4  19    7.60    1.15
   4  19  14    7.84    0.93
  -4  14  19    7.59    1.04
   4  14  19    8.46    1.10
  14  -4  19    6.83    1.03
   5  19  14    3.16    0.73
  14   5  19    3.27    0.97
  19  -5  14    2.73    0.87
  -5  14  19    2.88    0.82
  14  -5  19    1.87    0.79
   5  14  19    2.56    0.86
  19   5  14    2.18    0.93
  14   6  19    9.87    1.29
   6  19  14    7.51    0.95
  19  -6  14    8.68    1.12
   6  14  19    8.25    1.13
  19   6  14    8.53    1.22
  14  -6  19    8.60    1.12
  14  19   6   10.44    1.06
   7  19  14    0.90    0.64
  14   7  19    1.25    0.89
  19  -7  14    0.20    0.71
  19   7  14    0.39    0.88
   7  14  19    1.12    0.78
  14  -7  19   -0.12    0.69
  14  19   7    1.45    0.67
  14   8  19    0.05    0.87
   8  19  14    0.31    0.67
  19  -8  14    0.01    0.72
   8  14  19    1.34    0.79
  14  -8  19    0.82    0.70
  14  19   8    1.16    0.70
  19   8  14    0.14    0.84
  14   9  19    8.43    1.27
  19  -9  14    8.62    1.10
   9  19  14    7.20    1.01
  14  19   9    7.26    1.01
  19   9  14    6.66    1.21
   9  14  19    4.78    0.99
  14  -9  19    7.17    1.04
  10  19  14    4.91    0.96
  19 -10  14    4.13    0.92
  14  10  19    6.27    1.20
  10  14  19    5.83    1.12
  14 -10  19    5.00    0.95
  19  10  14    5.87    1.16
  14  19  10    4.86    0.94
   0  15  19    0.60    0.70
   0  19  15    0.72    0.61
  15   0  19   -0.31    0.79
  19   0  15    1.07    0.81
  -1  15  19    2.69    0.79
   1  19  15    3.84    0.76
  15   1  19    2.53    0.93
  19  -1  15    3.52    0.94
  15  -1  19    3.80    0.98
  -1  19  15    3.48    0.76
   1  15  19    4.93    0.93
  19   1  15    3.89    0.96
  15   2  19    2.31    0.92
   2  19  15    0.92    0.63
  -2  15  19    0.92    0.71
  19  -2  15    0.84    0.81
  19   2  15    0.52    0.80
  15  -2  19    1.24    0.79
  -2  19  15    1.84    0.66
   2  15  19    1.24    0.75
  19  -3  15    0.96    0.84
  -3  15  19    1.14    0.74
   3  19  15    1.19    0.64
  15   3  19    1.72    0.91
  19   3  15    2.04    0.93
   3  15  19    2.73    0.81
  15  -3  19    2.56    0.84
  -3  19  15    1.57    0.68
  -4  15  19    3.52    0.86
   4  19  15    3.90    0.77
  15   4  19    4.77    1.03
  19  -4  15    5.01    1.02
  15  -4  19    4.03    0.94
   4  15  19    4.27    0.90
  19   4  15    3.30    0.98
  15   5  19    4.63    1.06
  19  -5  15    2.44    0.87
   5  19  15    3.71    0.78
   5  15  19    3.76    0.90
  19   5  15    4.10    1.04
  15  -5  19    3.06    0.90
   6  19  15    1.67    0.69
  19  -6  15    1.13    0.83
  15   6  19    2.70    0.97
  15  -6  19    1.91    0.80
  19   6  15    1.48    0.89
   6  15  19    0.66    0.73
  15   7  19   -0.30    0.84
  19  -7  15    1.15    0.78
   7  19  15    0.38    0.65
  15  -7  19    1.42    0.78
  15  19   7    0.08    0.66
   7  15  19    0.23    0.73
  19   7  15    0.59    0.90
   8  19  15    0.60    0.69
  15   8  19    0.31    0.85
  19  -8  15    1.51    0.81
  15  19   8    0.39    0.71
   8  15  19    0.50    0.72
  15  -8  19    0.30    0.74
  19   8  15    0.54    0.92
  19  -9  15   -0.54    0.72
   9  19  15    0.37    0.71
  15   9  19   -0.69    0.81
  15  19   9   -0.70    0.69
   9  15  19    0.10    0.75
  19   9  15    1.43    0.95
  15  -9  19    0.26    0.69
  19   0  16   -0.13    0.79
   0  16  19   -0.30    0.66
  16   0  19    1.80    0.88
   0  19  16    0.34    0.64
   1  19  16    0.09    0.62
  16   1  19    1.19    0.89
  19  -1  16   -0.42    0.79
  -1  16  19    1.21    0.73
  19   1  16    0.98    0.87
  16  -1  19    0.24    0.76
  -1  19  16    1.33    0.65
   1  16  19    0.10    0.69
  19  -2  16    8.25    1.21
  -2  16  19    8.95    1.07
  16   2  19    5.36    1.09
   2  19  16    6.65    0.91
   2  16  19    5.56    0.95
  16  -2  19    5.27    1.06
  19   2  16    5.65    1.13
  -2  19  16    7.00    0.92
   3  19  16   -0.34    0.59
  16   3  19    0.09    0.81
  -3  16  19    0.59    0.72
  19  -3  16    0.00    0.74
  -3  19  16    0.43    0.60
   3  16  19   -0.36    0.69
  16  -3  19   -0.09    0.74
  19   3  16    0.86    0.90
   4  19  16    0.91    0.68
  19  -4  16    0.08    0.79
  16   4  19    1.23    0.96
  -4  16  19    1.30    0.73
  16  -4  19    1.29    0.78
   4  16  19    1.22    0.77
  19   4  16    1.65    0.92
  19  -5  16    4.90    1.02
   5  19  16    3.36    0.83
  16   5  19    4.17    1.04
   5  16  19    4.39    0.96
  16  -5  19    3.48    0.91
  19   5  16    5.88    1.18
   6  19  16   -0.26    0.64
  19  -6  16    0.45    0.83
  16   6  19    1.40    0.90
   6  16  19    0.73    0.75
  19   6  16    0.53    0.84
  16  -6  19    1.01    0.80
  19  -7  16    4.30    1.02
  16   7  19    5.35    1.16
   7  19  16    4.09    0.90
  16  19   7    3.78    0.90
   7  16  19    5.40    1.02
  19   7  16    6.60    1.28
  16  -7  19    4.37    0.93
   0  19  17    4.85    0.84
  19   0  17    3.15    1.01
   0  17  19    5.34    0.95
  17   0  19    3.85    1.04
  -1  17  19    3.17    0.84
   1  19  17    2.32    0.78
  17   1  19    2.61    0.95
  19  -1  17    4.57    1.10
  17  -1  19    3.16    0.99
   1  17  19    4.09    0.92
  -1  19  17    3.94    0.80
  19   1  17    5.10    1.09
  -2  17  19    0.69    0.68
  17   2  19    0.94    0.93
   2  19  17   -0.03    0.66
  19  -2  17    1.27    0.90
   2  17  19    2.45    0.82
  19   2  17    1.66    0.96
  17  -2  19    1.47    0.87
  -2  19  17    2.95    0.79
   3  19  17    2.15    0.76
  17   3  19    3.29    1.05
  -3  17  19    2.16    0.83
  19  -3  17    2.51    0.99
   3  17  19    2.47    0.85
  19   3  17    2.80    1.04
  -3  19  17    3.44    0.79
  17  -3  19    2.66    0.93
  17   4  19    3.71    1.06
   4  19  17    4.38    0.90
  19  -4  17    4.44    1.09
  -4  17  19    3.97    0.87
   4  17  19    5.40    0.99
  17  -4  19    3.65    0.97
  19   4  17    3.07    1.05
   0   0  20   26.90    1.55
   0  -1  20   12.47    1.14
   0   1  20   10.74    1.06
   1   0  20   12.50    1.16
  -1   0  20   12.64    1.18
   1   1  20   -0.76    0.55
   1  -1  20    0.68    0.61
  -1  -1  20   -0.19    0.57
  -1   1  20    1.15    0.66
   0  -2  20    0.41    0.62
   0   2  20   -0.31    0.57
   2   0  20   -0.81    0.51
  -2   0  20    0.53    0.59
   2   1  20   11.13    1.11
  -2  -1  20   12.00    1.15
   1  -2  20   11.25    1.10
  -1   2  20    9.71    1.08
  -2   1  20    9.52    1.06
   2  -1  20   11.41    1.08
   1   2  20   12.53    1.14
  -1  -2  20   10.37    1.04
   2  -2  20    2.77    0.72
   2   2  20    2.04    0.70
  -2   2  20    1.97    0.69
  -2  -2  20    1.53    0.63
   0   3  20    3.18    0.78
   0  -3  20    4.11    0.79
  -3   0  20    1.31    0.68
   3   0  20    3.83    0.77
  -3  -1  20    5.01    0.86
   1  -3  20    6.56    0.89
   3   1  20    5.91    0.90
  -1   3  20    4.15    0.82
  -3   1  20    4.24    0.81
   1   3  20    5.04    0.85
   3  -1  20    5.77    0.86
  -1  -3  20    3.93    0.77
  -3  -2  20    1.39    0.66
  -2   3  20    1.03    0.68
   3   2  20    1.81    0.70
   2  -3  20    0.89    0.60
  -3   2  20    1.75    0.71
   3  -2  20    0.84    0.62
   2   3  20    2.51    0.73
  -2  -3  20    1.42    0.62
  -3   3  20    2.44    0.76
   3  -3  20    1.83    0.70
   3   3  20    1.30    0.67
  -3  -3  20    2.05    0.69
   0   4  20    3.91    0.79
   0  -4  20    2.81    0.73
  -4   0  20    2.28    0.75
   4   0  20    5.27    0.88
  -1   4  20    6.47    0.96
  -4  -1  20    7.82    0.96
   4   1  20    6.16    0.93
   1  -4  20    7.18    0.88
  -1  -4  20    5.76    0.85
   1   4  20    5.84    0.90
   4  -1  20    6.20    0.87
  -4   1  20    6.01    0.90
  -4  -2  20    0.93    0.65
   4   2  20    0.37    0.65
  -2   4  20    0.28    0.61
   2  -4  20    0.13    0.57
   2   4  20    0.23    0.64
  -2  -4  20    1.95    0.66
   4  -2  20    1.09    0.66
  -4   2  20    1.05    0.69
   3  -4  20    3.52    0.73
  -3   4  20    3.22    0.80
  -4  -3  20    2.01    0.67
   4   3  20    2.07    0.71
   4  -3  20    2.44    0.70
  -4   3  20    2.51    0.76
  -3  -4  20    2.72    0.71
   3   4  20    3.28    0.77
  -4  -4  20    0.42    0.58
  -4   4  20    2.39    0.75
   4   4  20    1.12    0.67
   4  -4  20    0.80    0.62
   0  -5  20    6.17    0.89
   5   0  20    5.48    0.88
   0   5  20    6.63    0.94
  -5   0  20    6.98    0.95
  -1   5  20    5.06    0.87
   1  -5  20    3.79    0.81
   5   1  20    5.20    0.90
  -5  -1  20    4.24    0.80
   1   5  20    4.87    0.86
   5  -1  20    4.60    0.83
  -5   1  20    3.16    0.79
  -1  -5  20    4.06    0.80
  -2   5  20    9.33    1.11
  -5  -2  20    9.22    1.05
   5   2  20    9.51    1.11
   2  -5  20    9.70    1.01
   2   5  20    8.23    1.03
  -2  -5  20    8.61    1.01
  -5   2  20    7.23    0.98
   5  -2  20    8.56    1.02
   5   3  20    1.68    0.73
   3  -5  20    2.87    0.73
  -3   5  20    1.97    0.73
  -3  -5  20    4.28    0.81
   5  -3  20    2.39    0.74
  -5   3  20    4.46    0.84
   3   5  20    3.66    0.81
  -4   5  20   18.11    1.41
   4  -5  20   23.23    1.40
   5   4  20   24.29    1.55
  -5   4  20   19.35    1.44
  -4  -5  20   19.50    1.33
   5  -4  20   21.32    1.38
   4   5  20   17.55    1.42
  -5   5  20    5.93    0.92
   5  -5  20    3.90    0.80
   5   5  20    5.36    0.96
   6   0  20    0.99    0.67
   0   6  20    1.53    0.71
   0  -6  20    1.52    0.66
   6   1  20    2.53    0.79
  -1   6  20    3.04    0.79
   1  -6  20    2.56    0.70
   1   6  20    3.01    0.80
   6  -1  20    3.74    0.81
  -1  -6  20    3.62    0.75
   2  -6  20    9.71    1.03
   6   2  20    8.23    1.05
  -2   6  20   11.42    1.15
   2   6  20    8.52    1.07
  -6   2  20   12.61    1.16
  -2  -6  20   10.91    1.06
   6  -2  20   12.66    1.18
  -3   6  20    2.94    0.80
   3  -6  20    1.49    0.68
   6   3  20    2.57    0.76
  -3  -6  20    2.21    0.69
   6  -3  20    3.28    0.77
   3   6  20    3.05    0.81
  -6   3  20    2.76    0.79
   4  -6  20    9.46    1.02
  -4   6  20   10.18    1.11
   6   4  20   10.51    1.15
  -6   4  20   11.28    1.13
   6  -4  20    8.71    1.00
   4   6  20    9.24    1.07
   6   5  20    4.97    0.91
   5  -6  20    4.26    0.82
  -5   6  20    3.86    0.88
  -6   5  20    4.50    0.87
   6  -5  20    3.85    0.79
   5   6  20    3.59    0.86
   6   6  20   11.00    1.18
   6  -6  20    9.81    1.05
  -6   6  20   14.33    1.25
   7   0  20    1.49    0.70
   0  -7  20    1.28    0.64
   0   7  20    2.21    0.75
   1  -7  20    0.07    0.60
  -1   7  20   -0.01    0.66
   7   1  20    0.61    0.64
  -1  -7  20   -0.03    0.57
   1   7  20    0.53    0.64
   7  -1  20    0.77    0.67
   7   2  20    3.30    0.83
   2  -7  20    4.92    0.78
  -2   7  20    4.10    0.84
   7  -2  20    3.76    0.85
   2   7  20    5.24    0.92
  -2  -7  20    4.40    0.77
  -3   7  20   -0.19    0.64
   7   3  20    1.32    0.73
   3  -7  20    1.42    0.64
   7  -3  20   -0.41    0.60
  -3  -7  20    0.49    0.60
   3   7  20    0.25    0.67
   7   4  20    5.05    0.95
  -4   7  20    4.83    0.88
   4  -7  20    5.26    0.83
   7  -4  20    3.06    0.75
   4   7  20    3.62    0.86
   7   5  20    6.44    1.01
   5  -7  20    5.11    0.83
  -5   7  20    6.24    0.98
   7  -5  20    6.17    0.95
   5   7  20    7.47    1.06
   6  -7  20    1.31    0.65
   7   6  20    1.94    0.76
  -6   7  20    2.38    0.79
   7  -6  20    4.59    0.81
   6   7  20    3.33    0.83
   7  -7  20    0.12    0.60
   7   7  20   -0.19    0.64
   0   8  20    1.38    0.70
   8   0  20    0.84    0.66
   0  -8  20    1.46    0.64
   1  -8  20    4.09    0.74
  -1   8  20    4.19    0.90
   8   1  20    5.56    0.93
   1   8  20    3.53    0.81
  -1  -8  20    4.23    0.77
   8  -1  20    3.90    0.85
  -2   8  20    1.05    0.70
   8   2  20   -0.09    0.63
   2  -8  20    0.92    0.59
  -2  -8  20    1.13    0.62
   2   8  20    0.65    0.67
   8  -2  20    0.25    0.65
   3  -8  20    2.48    0.69
   8   3  20    2.42    0.82
  -3   8  20    2.06    0.75
   8  -3  20    2.23    0.78
   3   8  20    1.91    0.77
  -4   8  20    0.59    0.69
   8   4  20    0.69    0.75
   4  -8  20    1.04    0.61
   8  -4  20    0.35    0.64
   4   8  20    1.54    0.76
  -5   8  20    6.54    0.99
   8   5  20    5.31    0.98
   5  -8  20    6.86    0.90
   5   8  20    5.24    0.95
   8  -5  20    6.19    0.93
   6  -8  20    2.61    0.70
   8   6  20    2.75    0.84
  -6   8  20    2.17    0.77
   8  -6  20    4.22    0.84
   6   8  20    4.09    0.88
   8   7  20    4.28    0.94
   7  -8  20    4.17    0.81
   7   8  20    4.36    0.89
   8  -7  20    5.03    0.87
   8   8  20    0.04    0.71
   8  -8  20    0.03    0.62
   9   0  20   10.50    1.14
   0  -9  20    9.58    0.98
   0   9  20    9.78    1.09
   9   1  20    4.93    0.92
   1  -9  20    4.61    0.78
  -1   9  20    3.12    0.87
   9  -1  20    3.54    0.85
   1   9  20    3.99    0.87
  -1  -9  20    3.34    0.74
   9   2  20    9.45    1.18
  -2   9  20   11.14    1.20
   2  -9  20   11.06    1.05
   9  -2  20   14.03    1.28
   2   9  20   10.42    1.18
  -2  -9  20   12.97    1.10
   9   3  20   14.38    1.32
  -3   9  20   13.77    1.27
   3  -9  20   13.52    1.14
   3   9  20   11.93    1.20
   9  -3  20   11.98    1.20
  -4   9  20   10.91    1.18
   9   4  20   10.91    1.20
   4  -9  20   10.23    1.02
   4   9  20   13.36    1.30
   9  -4  20   13.48    1.28
   9   5  20    0.12    0.70
  -5   9  20    0.81    0.71
   5  -9  20    0.31    0.60
   9  -5  20    2.59    0.78
   5   9  20    1.29    0.72
  -6   9  20    3.86    0.86
   9   6  20    5.89    1.02
   6  -9  20    5.54    0.85
   6   9  20    5.89    1.01
   9  -6  20    6.98    0.97
   7  -9  20    1.63    0.64
   9   7  20    2.18    0.87
   9  -7  20    2.51    0.76
   7   9  20    3.33    0.90
   8  20   9    1.25    0.88
   9   8  20    0.38    0.78
   8  -9  20    0.53    0.62
   9  -8  20    0.08    0.57
   9  20   8   -0.13    0.76
   8   9  20    0.64    0.74
   9  -9  20    2.92    0.79
   9  20   9    3.55    0.74
   9   9  20    2.88    0.93
   0 -10  20    6.78    0.89
  10   0  20    5.55    0.99
   0  10  20    8.32    1.07
  10   1  20    6.64    1.03
  -1  10  20    8.04    1.10
   1 -10  20    7.94    0.92
   1  10  20    6.15    0.97
  10  -1  20    7.46    1.04
  -1 -10  20    7.58    0.89
  -2  10  20   10.23    1.12
   2 -10  20   10.55    1.02
  10   2  20    8.27    1.12
  10  -2  20    7.29    1.02
   2  10  20    8.68    1.08
  -3  10  20    2.95    0.80
   3 -10  20    1.10    0.63
  10   3  20    0.58    0.76
  10  -3  20    1.82    0.74
   3  10  20    1.30    0.76
  10   4  20    9.66    1.20
   4 -10  20    8.74    0.96
  -4  10  20    9.04    1.11
  10  -4  20    9.69    1.11
   4  10  20    8.66    1.13
   5 -10  20    5.58    0.85
  -5  10  20    6.07    1.00
  10   5  20    3.95    0.94
  10  -5  20    5.24    0.91
   5  10  20    4.98    0.95
  -6  10  20    3.91    0.91
  10   6  20    3.09    0.90
   6 -10  20    5.04    0.83
  10  -6  20    2.86    0.80
   6  10  20    2.65    0.83
   7  20  10    6.24    1.02
   7 -10  20    4.22    0.82
  10   7  20    6.29    1.09
   7  10  20    5.83    1.00
  10  -7  20    6.73    0.96
   8 -10  20   -0.14    0.60
   8  20  10   -0.45    0.52
  10   8  20    0.31    0.81
  10  20   8   -0.29    0.56
  10  -8  20    0.55    0.62
   8  10  20    1.52    0.81
   9 -10  20    1.19    0.68
   9  20  10    1.76    0.67
  10   9  20    2.94    0.95
  10  20   9    0.09    0.57
   9  10  20    2.76    0.90
  10  -9  20    0.35    0.67
  10  10  20    4.00    1.02
  10 -10  20    3.52    0.80
  10  20  10    1.87    0.66
  11   0  20    0.05    0.70
   0 -11  20    2.15    0.63
   0  11  20    2.37    0.79
   1 -11  20   -0.20    0.53
  11   1  20   -0.42    0.65
  -1  11  20    0.37    0.69
  11  -1  20    0.20    0.72
   1  11  20    0.62    0.70
  11   2  20    4.48    0.99
  -2  11  20    3.50    0.83
   2 -11  20    4.72    0.78
  11  -2  20    3.09    0.83
   2  11  20    2.69    0.84
  11   3  20    7.13    1.07
  -3  11  20    8.62    1.06
   3 -11  20    6.56    0.86
  11  -3  20    6.02    0.96
   3  11  20    6.90    1.04
   4 -11  20    2.33    0.68
  -4  11  20    0.52    0.68
  11   4  20    2.08    0.86
   4  11  20    3.86    0.92
  11  -4  20    2.41    0.80
  11   5  20    1.28    0.83
  -5  11  20    0.79    0.73
   5 -11  20    2.76    0.68
  11  -5  20    1.74    0.75
   5  11  20    1.23    0.77
   6 -11  20    0.81    0.59
   6  20  11    0.45    0.61
  11   6  20   -0.77    0.69
   6  11  20   -0.98    0.67
  11  -6  20   -0.60    0.63
   7  20  11    1.67    0.63
   7 -11  20    0.82    0.62
  11   7  20    0.62    0.80
  11  20   7    2.02    0.83
  11  -7  20    1.41    0.70
   7  11  20    2.96    0.89
   8  20  11   11.83    1.03
   8 -11  20   13.82    1.19
  11   8  20   10.77    1.35
  11  -8  20    9.70    1.10
   8  11  20   12.52    1.33
  11  20   8    9.66    0.97
  11   9  20    2.98    0.97
   9 -11  20    0.90    0.69
   9  20  11    1.82    0.72
  11  -9  20    1.17    0.69
  11  20   9    1.71    0.65
   9  11  20    1.14    0.85
  10 -11  20    1.25    0.70
  10  20  11    1.12    0.65
  11  10  20    2.14    0.96
  11 -10  20    1.23    0.69
  10  11  20    0.57    0.84
  11  20  10    0.59    0.62
  11  11  20    0.40    0.87
  11 -11  20    0.18    0.67
  11  20  11    0.44    0.67
   0  12  20   -0.59    0.65
  12   0  20   -0.24    0.72
   1 -12  20    0.61    0.58
  -1  12  20    0.37    0.70
  12   1  20    1.17    0.77
   1  12  20    0.18    0.72
  12  -1  20    0.42    0.71
   2 -12  20    1.01    0.61
  12   2  20    1.35    0.79
  -2  12  20    1.33    0.78
   2  12  20    1.43    0.73
  12  -2  20    2.22    0.87
  -3  12  20    4.97    0.91
   3 -12  20    4.77    0.76
  12   3  20    5.96    1.05
  12  -3  20    5.62    0.99
   3  12  20    4.27    0.95
  -4  12  20    2.01    0.80
  12   4  20    1.37    0.81
   4 -12  20    2.56    0.68
  12  -4  20    1.46    0.79
   4  12  20    1.78    0.81
  12   5  20   -0.02    0.74
  -5  12  20    0.56    0.70
   5  20  12    0.94    0.65
   5 -12  20    0.94    0.64
   5  12  20    0.23    0.67
  12  -5  20    0.51    0.69
  12   6  20    1.31    0.82
   6  20  12    1.87    0.63
   6 -12  20    2.41    0.72
  12  -6  20    2.58    0.81
   6  12  20    2.43    0.83
   7 -12  20    2.56    0.71
  12   7  20    1.17    0.85
   7  20  12    2.06    0.65
  12  20   7    2.73    0.68
   7  12  20    2.68    0.86
  12  -7  20    1.08    0.71
  12   8  20    0.27    0.81
   8 -12  20    0.36    0.64
   8  20  12    0.39    0.63
   8  12  20    1.94    0.87
  12  20   8    2.33    0.72
  12  -8  20    1.05    0.69
   9 -12  20    0.22    0.64
   9  20  12   -0.10    0.61
  12   9  20    0.14    0.81
   9  12  20    1.36    0.83
  12  20   9    1.01    0.65
  12  -9  20   -0.79    0.62
  12  10  20    2.05    0.97
  10  20  12   -0.55    0.66
  10 -12  20    0.80    0.71
  12  20  10    0.98    0.68
  12 -10  20    1.40    0.74
  10  12  20    2.10    0.97
  11  20  12    8.62    1.09
  11 -12  20    9.37    1.10
  20 -11  12   10.37    1.15
  12  11  20   11.13    1.43
  12  20  11    8.79    1.08
  11  12  20    8.11    1.30
  12 -11  20    8.20    1.03
  13   0  20    0.82    0.81
   0  13  20    0.12    0.67
   1 -13  20    6.14    0.84
  -1  13  20    7.30    1.05
  13   1  20    6.30    1.10
  13  -1  20    6.91    1.11
   1  13  20    5.97    0.99
  13   2  20    1.09    0.84
  -2  13  20    0.64    0.70
   2 -13  20    1.82    0.64
   2  13  20    1.06    0.77
  13  -2  20    0.67    0.76
   3 -13  20    4.93    0.79
  -3  13  20    3.71    0.87
  13   3  20    4.18    0.96
  13  -3  20    4.84    0.93
   3  13  20    3.93    0.90
  13   4  20    2.68    0.93
   4  20  13    2.29    0.74
   4 -13  20    2.40    0.69
  -4  13  20    2.81    0.84
  13  -4  20    3.23    0.90
   4  13  20    3.83    0.88
   5  20  13    1.28    0.63
  -5  13  20    3.12    0.83
   5 -13  20    0.41    0.60
  13   5  20    2.06    0.92
   5  13  20    1.73    0.79
  13  -5  20    2.57    0.82
   6 -13  20    2.58    0.83
  13   6  20    1.50    0.89
   6  20  13    1.42    0.64
  13  -6  20    1.64    0.79
   6  13  20    1.51    0.79
  13  20   6    0.93    0.70
   7  20  13    3.76    0.76
  13   7  20    4.28    1.07
   7  13  20    3.65    0.91
  13  -7  20    3.81    0.91
  13  20   7    3.43    0.79
  13   8  20    1.60    0.94
  20  -8  13    1.24    0.77
   8  20  13    1.48    0.68
  13  -8  20    1.46    0.79
   8  13  20    2.29    0.84
  13  20   8    1.50    0.70
  20  -9  13    0.17    0.71
   9  20  13    1.05    0.69
  13   9  20    2.38    0.95
  13  -9  20    0.58    0.69
   9  13  20    1.93    0.89
  13  20   9    0.67    0.69
  20 -10  13    1.69    0.77
  10  20  13    0.97    0.78
  13  10  20    1.81    0.97
  20  10  13    2.72    0.98
  10  13  20    4.09    1.05
  13 -10  20    2.12    0.80
  13  20  10    1.55    0.75
   0  14  20    0.50    0.74
  14   0  20    0.52    0.74
  -1  14  20    8.88    1.13
  14   1  20    9.22    1.23
  14  -1  20    8.25    1.16
   1  14  20    8.29    1.06
  -2  14  20    3.44    0.89
  14   2  20    6.19    1.11
   2  14  20    4.65    0.94
  14  -2  20    4.87    1.00
  14   3  20    5.03    1.07
  -3  14  20    3.24    0.88
   3  20  14    4.05    0.86
  14  -3  20    2.05    0.85
   3  14  20    4.22    0.89
  20  -4  14    1.69    0.82
  14   4  20    1.25    0.87
   4  20  14    1.71    0.66
  -4  14  20    1.72    0.78
  14  -4  20    1.27    0.79
   4  14  20    0.13    0.69
  -5  14  20    1.24    0.77
  14   5  20    0.88    0.84
   5  20  14    0.55    0.64
  20  -5  14    0.60    0.76
  14  20   5    2.10    1.08
   5  14  20    1.89    0.80
  14  -5  20    1.58    0.78
  14   6  20    2.62    0.97
  20  -6  14    1.40    0.83
   6  20  14    1.96    0.69
  20   6  14    3.26    0.98
   6  14  20    2.10    0.83
  14  -6  20    1.72    0.81
  14  20   6    1.85    0.69
   7  20  14   -0.47    0.59
  20  -7  14   -0.64    0.66
  14   7  20   -0.94    0.80
   7  14  20   -0.35    0.73
  14  -7  20   -0.12    0.68
  20   7  14    0.06    0.88
  14  20   7    0.11    0.62
   8  20  14    0.92    0.66
  14   8  20    2.20    0.97
  20  -8  14    1.64    0.78
  14  20   8    0.68    0.70
   8  14  20    0.66    0.78
  14  -8  20   -0.18    0.68
  20   8  14    0.14    0.90
   0  15  20    0.17    0.74
  20   0  15   -0.21    0.77
  15   0  20    1.04    0.89
  20  -1  15   -0.83    0.76
  -1  15  20    0.06    0.72
  15   1  20   -0.51    0.77
   1  15  20   -0.09    0.67
  15  -1  20    0.22    0.82
  20   1  15   -1.22    0.73
   2  20  15    1.65    0.80
  15   2  20    0.73    0.86
  20  -2  15    1.15    0.83
  -2  15  20    1.01    0.78
   2  15  20    1.07    0.78
  15  -2  20    2.54    0.90
  20   2  15    2.03    0.89
  -3  15  20    5.35    0.95
  15   3  20    4.03    1.06
  20  -3  15    5.40    1.08
   3  20  15    3.83    0.79
  15  -3  20    4.11    0.99
  20   3  15    3.49    1.08
   3  15  20    4.61    0.93
  20  -4  15    0.28    0.78
  15   4  20    0.61    0.90
  -4  15  20    0.09    0.67
   4  20  15    0.57    0.62
  20   4  15    2.35    0.95
   4  15  20    1.13    0.77
  15  -4  20    1.22    0.81
  20  -5  15   -0.09    0.77
   5  20  15    0.46    0.64
  15   5  20    1.09    0.90
  20   5  15    0.50    0.85
  15  -5  20    1.38    0.81
   5  15  20    1.07    0.80
   6  20  15    2.34    0.74
  15   6  20    2.73    1.04
  20  -6  15    2.09    0.90
   6  15  20    1.99    0.83
  20   6  15    1.98    0.93
  15  20   6    2.00    0.75
  15  -6  20    1.28    0.85
   7  20  15    2.89    0.80
  15   7  20    2.19    1.02
  20  -7  15    3.34    0.93
   7  15  20    1.37    0.82
  20   7  15    2.91    1.10
  15  20   7    1.03    0.71
  15  -7  20    2.99    0.90
  20   0  16    1.22    0.89
  16   0  20    0.71    0.86
   0  16  20    1.93    0.80
  -1  16  20    0.32    0.70
  16   1  20   -0.14    0.83
  20  -1  16   -0.27    0.84
   1  20  16   -0.05    0.91
   1  16  20   -0.08    0.70
  16  -1  20    0.91    0.84
  20   1  16    0.44    0.87
  16   2  20    0.27    0.85
  20  -2  16   -1.18    0.73
   2  20  16    0.12    0.63
  -2  16  20    1.44    0.77
  20   2  16    0.61    0.91
  16  -2  20    0.11    0.81
   2  16  20    1.18    0.73
  -3  16  20    2.10    0.81
  20  -3  16    2.98    0.98
   3  20  16    2.90    0.76
  16   3  20    3.24    1.06
  20   3  16    0.79    0.93
   3  16  20    0.82    0.80
  16  -3  20    1.99    0.88
  16   4  20    1.40    0.95
   4  20  16    2.04    0.73
  20  -4  16    1.28    0.85
  -4  16  20    2.08    0.78
   4  16  20    0.49    0.75
  16  -4  20    0.78    0.83
  20   4  16    1.90    0.97
   0   0  21    0.77    0.70
   0  -1  21    1.15    0.73
   0   1  21    1.65    0.72
  -1   0  21    0.78    0.72
   1   0  21    2.87    0.78
  -1  -1  21    3.28    0.82
  -1   1  21    3.68    0.84
   1  -1  21    6.75    0.96
   1   1  21    5.33    0.90
  -2   0  21    2.44    0.76
   2   0  21    1.44    0.73
   0   2  21    2.49    0.75
   0  -2  21    1.83    0.76
   1  -2  21   12.10    1.16
  -1   2  21   11.69    1.20
  -2  -1  21    9.79    1.08
   2   1  21   10.24    1.09
   2  -1  21   12.20    1.19
   1   2  21   12.37    1.21
  -1  -2  21   11.01    1.11
  -2   1  21   10.46    1.10
   2   2  21    7.04    0.97
   2  -2  21    5.90    0.92
  -2   2  21    6.67    0.96
  -2  -2  21    6.81    0.96
   3   0  21   12.54    1.16
   0  -3  21   10.32    1.09
   0   3  21   12.26    1.22
  -3   0  21   12.84    1.21
  -1   3  21    1.41    0.72
   3   1  21    2.17    0.76
  -3  -1  21    1.59    0.73
   1  -3  21    1.90    0.70
   1   3  21    1.58    0.71
  -1  -3  21    0.10    0.60
  -3   1  21    1.46    0.77
   3  -1  21    1.78    0.71
   3   2  21    2.32    0.76
   2  -3  21    1.00    0.67
  -2   3  21    2.58    0.76
  -3  -2  21    1.00    0.67
   2   3  21    3.24    0.82
  -2  -3  21    4.02    0.84
   3  -2  21    3.03    0.75
  -3   2  21    3.14    0.79
  -3  -3  21    8.40    1.02
  -3   3  21    7.60    0.98
   3   3  21    8.64    1.09
   3  -3  21   10.08    1.08
   0   4  21    1.93    0.75
   4   0  21    1.02    0.70
   0  -4  21    1.61    0.66
  -4   0  21    1.77    0.72
  -1   4  21    2.45    0.79
  -4  -1  21    1.97    0.74
   1  -4  21    1.72    0.72
   4   1  21    1.53    0.70
  -4   1  21    1.47    0.72
   1   4  21    0.91    0.66
   4  -1  21    1.64    0.75
  -1  -4  21    1.53    0.71
   2  -4  21    9.22    1.05
  -2   4  21    7.04    0.98
  -4  -2  21    8.40    1.05
   4   2  21    6.18    0.94
  -2  -4  21    6.69    0.97
   2   4  21    5.71    0.97
  -4   2  21    7.15    1.03
   4  -2  21    8.08    1.00
   4   3  21    0.38    0.69
  -4  -3  21    1.99    0.73
   3  -4  21    2.08    0.74
  -3   4  21    1.37    0.73
   4  -3  21    2.36    0.74
   3   4  21    2.73    0.76
  -4   3  21    2.46    0.78
  -3  -4  21    1.23    0.72
  -4  -4  21    0.52    0.63
   4  -4  21    1.00    0.66
  -4   4  21    0.78    0.70
   4   4  21    0.04    0.61
   0   5  21    3.53    0.85
   0  -5  21    2.78    0.78
   5   0  21    3.73    0.84
  -5   0  21    1.58    0.73
  -5  -1  21    2.92    0.79
   5   1  21    2.76    0.78
   1  -5  21    2.99    0.77
  -1   5  21    2.68    0.84
  -1  -5  21    2.80    0.72
  -5   1  21    1.22    0.75
   5  -1  21    1.72    0.74
   1   5  21    2.79    0.79
  -5  -2  21   17.15    1.34
   2  -5  21   16.93    1.33
   5   2  21   14.96    1.33
  -2   5  21   12.48    1.29
  -5   2  21   11.97    1.20
   2   5  21   13.32    1.25
   5  -2  21   13.44    1.26
  -2  -5  21   13.09    1.20
  -3   5  21    5.33    0.93
   3  -5  21    5.52    0.91
   5   3  21    5.24    0.97
   5  -3  21    3.96    0.82
   3   5  21    4.45    0.86
  -3  -5  21    5.01    0.85
  -5   3  21    5.51    0.96
  -4   5  21    0.16    0.69
   4  -5  21    2.20    0.74
   5   4  21    1.45    0.75
   4   5  21    1.58    0.73
  -5   4  21    1.65    0.71
   5  -4  21    1.61    0.73
  -4  -5  21    1.23    0.68
   5  -5  21    6.11    0.94
  -5   5  21    6.41    1.01
   5   5  21    4.82    0.92
   0   6  21   -0.04    0.64
   0  -6  21   -0.67    0.60
   6   0  21    0.64    0.66
   6   1  21   22.74    1.56
   1  -6  21   22.76    1.45
  -1   6  21   22.47    1.65
   1   6  21   17.21    1.41
  -1  -6  21   21.11    1.38
   6  -1  21   21.70    1.57
   6   2  21    7.46    1.06
  -2   6  21    7.43    1.05
   2  -6  21    5.19    0.87
  -2  -6  21    7.07    0.95
   6  -2  21    7.23    1.00
   2   6  21    6.76    1.02
   6   3  21    6.95    1.00
  -3   6  21    6.56    1.01
   3  -6  21    5.40    0.89
  -3  -6  21    7.50    0.96
  -6   3  21    8.16    1.05
   6  -3  21    7.65    1.01
   3   6  21    7.05    1.00
   6   4  21    5.72    0.97
   4  -6  21    6.80    0.94
  -4   6  21    6.93    1.01
   6  -4  21    5.64    0.93
   4   6  21    7.35    1.02
  -6   4  21    4.66    0.91
  -5   6  21   17.40    1.44
   5  -6  21   15.59    1.29
   6   5  21   18.48    1.48
  -6   5  21   18.97    1.50
   6  -5  21   16.34    1.34
   5   6  21   14.82    1.41
   6   6  21    6.04    1.02
   6  -6  21    4.99    0.90
  -6   6  21    3.98    0.94
   7   0  21   20.08    1.54
   0   7  21   23.23    1.52
   0  -7  21   16.93    1.34
   1  -7  21   -0.44    0.54
  -1   7  21    0.30    0.71
   7   1  21    0.09    0.69
  -1  -7  21    1.35    0.67
   7  -1  21    0.37    0.66
   1   7  21   -0.51    0.62
  -2   7  21    2.31    0.80
   2  -7  21    3.50    0.78
   7   2  21    3.91    0.90
   2   7  21    2.77    0.83
  -2  -7  21    1.85    0.72
   7  -2  21    1.88    0.78
   7   3  21    6.77    1.01
   3  -7  21    7.66    0.95
  -3   7  21    8.05    1.05
   7  -3  21    6.05    0.96
   3   7  21    5.92    1.00
  -3  -7  21    7.39    0.97
   4  -7  21   12.39    1.15
   7   4  21   13.50    1.31
  -4   7  21   10.77    1.21
   7  -4  21   14.39    1.30
   4   7  21   10.67    1.24
   7   5  21    0.89    0.74
   5  -7  21    1.28    0.66
  -5   7  21   -0.10    0.70
   7  -5  21    1.88    0.75
   5   7  21    0.73    0.74
   7   6  21    0.24    0.71
   6  -7  21   -0.40    0.57
  -6   7  21   -0.67    0.66
   6   7  21    0.63    0.79
   7  -6  21    0.88    0.65
   7   7  21    9.25    1.14
   7  -7  21   10.46    1.10
   0   8  21    1.61    0.78
   8   0  21    0.66    0.74
   0  -8  21    0.87    0.66
  -1   8  21    1.68    0.78
   8   1  21    1.29    0.78
   1  -8  21    2.72    0.71
   1   8  21    3.40    0.85
  -1  -8  21    0.99    0.68
   8  -1  21    2.01    0.78
   8   2  21    4.60    0.98
   2  -8  21    3.76    0.80
  -2   8  21    4.71    0.92
   2   8  21    3.87    0.91
  -2  -8  21    3.75    0.77
   8  -2  21    5.95    0.93
  -3   8  21    1.60    0.76
   8   3  21    3.08    0.87
   3  -8  21    2.61    0.74
   8  -3  21    2.02    0.79
   3   8  21    2.75    0.84
   8   4  21    0.06    0.67
   4  -8  21   -0.68    0.55
  -4   8  21   -0.15    0.67
   4   8  21   -0.24    0.69
   8  -4  21    0.58    0.65
   8   5  21    2.01    0.81
  -5   8  21    1.77    0.81
   5  -8  21    1.37    0.64
   8  -5  21    0.62    0.67
   5   8  21    0.99    0.74
  -6   8  21    3.05    0.85
   8   6  21    0.37    0.75
   6  -8  21    1.10    0.67
   8  -6  21    1.64    0.76
   6   8  21    0.29    0.75
   8   7  21    3.53    0.92
   7  -8  21    4.83    0.88
   7   8  21    4.22    0.91
   8  -7  21    3.51    0.84
   8  -8  21    3.50    0.81
   8   8  21    4.27    1.00
   0   9  21    2.61    0.85
   9   0  21    3.61    0.88
   0  -9  21    2.03    0.67
  -1   9  21    2.60    0.83
   1  -9  21    1.82    0.69
   9   1  21    1.00    0.74
  -1  -9  21    1.16    0.68
   1   9  21    0.54    0.69
   9  -1  21    1.24    0.74
   9   2  21   -0.03    0.71
  -2   9  21    0.40    0.71
   2  -9  21    0.64    0.62
   2   9  21    0.85    0.75
   9  -2  21   -0.26    0.68
   9   3  21    4.37    0.95
  -3   9  21    6.00    1.01
   3  -9  21    5.36    0.86
   3   9  21    3.29    0.88
   9  -3  21    3.86    0.87
   9   4  21    2.95    0.90
   4  -9  21    2.59    0.71
  -4   9  21    0.66    0.73
   9  -4  21    2.43    0.80
   4   9  21    1.69    0.75
   9   5  21    4.38    0.98
  -5   9  21    4.90    0.96
   5  -9  21    5.62    0.89
   9  -5  21    2.75    0.80
   5   9  21    3.35    0.92
   6  -9  21    3.58    0.79
   9   6  21    3.42    0.96
  -6   9  21    3.87    0.94
   6   9  21    4.45    0.96
   9  -6  21    3.76    0.87
   7  -9  21    0.51    0.65
   9   7  21    0.40    0.80
   9  -7  21   -0.17    0.66
   7   9  21    1.29    0.80
   9   8  21    4.82    1.05
   8  -9  21    2.13    0.74
   8   9  21    2.26    0.90
   9  -8  21    3.17    0.83
   9   9  21    0.91    0.82
   9  -9  21    0.79    0.71
   0  10  21   12.12    1.23
  10   0  21   10.10    1.20
   0 -10  21   11.33    1.09
  10   1  21    8.80    1.13
   1 -10  21    8.28    0.99
  -1  10  21   10.33    1.20
   1  10  21    7.26    1.09
  -1 -10  21    8.51    1.00
  10  -1  21    9.52    1.20
  -2  10  21    9.27    1.13
  10   2  21   10.56    1.24
   2 -10  21    8.78    1.01
  10  -2  21   10.53    1.21
   2  10  21   10.39    1.22
  10   3  21    0.79    0.77
   3 -10  21    0.20    0.59
  -3  10  21   -0.70    0.64
   3  10  21   -0.41    0.69
  10  -3  21   -0.24    0.66
  -4  10  21    5.68    1.00
  10   4  21    6.72    1.11
   4 -10  21    6.17    0.90
   4  10  21    3.86    0.94
  10  -4  21    5.44    0.97
  -5  10  21    4.54    0.96
  10   5  21    5.10    0.98
   5 -10  21    3.22    0.77
   5  10  21    2.97    0.88
  10  -5  21    3.75    0.88
  10   6  21    3.11    0.93
   6 -10  21    2.72    0.77
   6  10  21    1.94    0.87
  10  -6  21    2.19    0.78
  10   7  21    2.97    0.99
   7 -10  21    2.14    0.73
  10  -7  21    1.19    0.74
   7  10  21    0.57    0.74
   8 -10  21    0.14    0.66
  10   8  21    0.64    0.84
  10  -8  21    2.06    0.77
   8  10  21    2.18    0.87
   9 -10  21    3.05    0.81
  10   9  21    2.95    0.93
   9  10  21    2.89    0.94
  10  -9  21    4.40    0.89
  10 -10  21    0.82    0.71
  10  10  21    1.02    0.90
  11   0  21    9.90    1.24
   0  11  21   12.84    1.33
   0 -11  21   11.42    1.10
  11   1  21    0.03    0.76
   1 -11  21    0.47    0.61
  -1  11  21    1.19    0.78
   1  11  21    0.31    0.76
  11  -1  21    0.52    0.73
   2 -11  21    1.70    0.68
  11   2  21    0.67    0.80
  -2  11  21    2.07    0.82
   2  11  21    2.17    0.79
  11  -2  21    2.44    0.84
   3 -11  21    4.50    0.82
  -3  11  21    5.21    0.98
  11   3  21    4.16    0.99
  11  -3  21    5.09    0.98
   3  11  21    4.59    0.94
   4 -11  21    2.02    0.72
  11   4  21    3.25    0.96
  -4  11  21    3.81    0.89
   4  11  21    2.87    0.88
  11  -4  21    2.44    0.84
  -5  11  21    1.84    0.79
  11   5  21    0.80    0.83
   5 -11  21    3.42    0.77
  11  -5  21    0.68    0.71
   5  11  21    1.59    0.82
   6 -11  21    0.22    0.60
  11   6  21    0.57    0.78
  11  -6  21    1.41    0.77
   6  11  21    1.17    0.82
   7 -11  21    5.93    0.92
  11   7  21    4.92    1.04
  11  -7  21    3.42    0.88
   7  11  21    4.99    1.04
   8 -11  21    3.97    0.83
  11   8  21    2.02    0.94
  11  -8  21    2.55    0.81
   8  11  21    1.80    0.87
   9 -11  21    1.92    0.80
  11   9  21    2.86    0.98
  11  -9  21    1.85    0.75
   9  11  21    1.59    0.87
  10 -11  21    1.24    0.74
  11  10  21    1.97    0.99
  11 -10  21    1.30    0.77
  10  11  21    1.42    0.94
  12   0  21    1.22    0.82
   0  12  21    0.92    0.80
  12   1  21    0.69    0.78
  -1  12  21    1.41    0.77
   1 -12  21    0.79    0.64
  12  -1  21    1.41    0.82
   1  12  21    0.56    0.71
  12   2  21    2.89    0.94
  -2  12  21    1.31    0.77
   2 -12  21    2.14    0.70
  12  -2  21    3.00    0.91
   2  12  21    2.09    0.81
  12   3  21    0.09    0.78
   3 -12  21    0.71    0.60
  -3  12  21    0.15    0.68
   3  12  21    0.71    0.75
  12  -3  21    0.38    0.77
  12   4  21    4.40    1.02
  -4  12  21    5.24    0.97
   4 -12  21    4.22    0.81
  12  -4  21    3.73    0.91
   4  12  21    4.65    0.99
  -5  12  21   -0.16    0.71
  12   5  21   -0.21    0.81
   5 -12  21   -0.71    0.58
  12  -5  21   -0.26    0.69
   5  12  21    0.28    0.72
   6 -12  21    1.24    0.63
  12   6  21    1.20    0.85
  12  -6  21    1.58    0.78
   6  12  21    0.72    0.73
  12   7  21   -0.14    0.82
   7 -12  21   -0.52    0.63
  12  -7  21   -0.62    0.65
   7  12  21    0.42    0.77
   8 -12  21    5.98    0.93
  12   8  21    4.80    1.11
  12  -8  21    8.54    1.10
   8  12  21    6.56    1.12
  12   9  21    3.59    1.06
   9 -12  21    2.11    0.77
  12  -9  21    0.86    0.77
   9  12  21    1.41    0.87
   0  13  21    0.30    0.72
  13   0  21    0.55    0.75
  13   1  21    6.33    1.10
  -1  13  21    6.11    1.04
   1  13  21    6.37    1.06
  13  -1  21    7.74    1.17
  -2  13  21    0.49    0.71
   2 -13  21   -0.72    0.58
  13   2  21    0.40    0.79
   2  13  21    0.55    0.76
  13  -2  21   -0.49    0.76
  13   3  21    1.99    0.96
   3 -13  21    1.70    0.66
  -3  13  21    1.03    0.78
  13  -3  21    2.73    0.90
   3  13  21    3.16    0.92
   4 -13  21    1.91    0.75
  -4  13  21    1.44    0.79
  13   4  21    1.05    0.88
  13  -4  21    1.62    0.85
   4  13  21    2.06    0.86
  -5  13  21    0.70    0.74
  13   5  21    1.87    0.90
   5  13  21    1.18    0.79
  13  -5  21    0.42    0.75
  13   6  21    0.65    0.90
   6  13  21    1.40    0.83
  13  -6  21    0.83    0.78
  13   7  21    0.97    0.94
  13  -7  21    0.44    0.68
   7  13  21    0.01    0.78
  13   8  21    4.53    1.16
   8  13  21    4.23    0.99
  13  -8  21    4.68    0.95
  14   0  21    7.63    1.20
   0  14  21    6.84    1.10
  -1  14  21    0.61    0.75
  14   1  21   -0.02    0.79
  14  -1  21    0.24    0.75
   1  14  21    0.12    0.72
  14   2  21    2.41    0.97
  -2  14  21    0.61    0.74
  14  -2  21    0.41    0.78
   2  14  21    0.79    0.76
  14   3  21    1.20    0.89
  -3  14  21    2.98    0.89
  14  -3  21    3.25    0.91
   3  14  21    1.50    0.80
  -4  14  21   10.68    1.23
  14   4  21    9.39    1.31
   4  14  21   10.61    1.28
  14  -4  21    9.94    1.27
  21  -5  14    0.37    0.84
  14   5  21    0.47    0.95
  -5  14  21    0.08    0.74
  14  -5  21    0.51    0.79
   5  14  21    0.52    0.79
  21  -6  14    0.48    0.77
  14   6  21   -0.24    0.84
  14  -6  21   -0.67    0.74
   6  14  21    0.99    0.82
   0  15  21    1.27    0.83
  15   0  21    1.31    0.93
  21   0  15    0.88    0.88
  21  -1  15    1.56    0.94
  15   1  21    4.28    1.08
  -1  15  21    1.25    0.80
  15  -1  21    1.63    0.94
   1  15  21    3.20    0.92
  21   1  15    2.88    1.00
  -2  15  21    2.69    0.87
  21  -2  15    3.10    0.97
  15   2  21    1.76    0.95
  15  -2  21    2.21    0.93
  21   2  15    3.27    1.02
   2  15  21    1.25    0.77
  21  -3  15    1.70    0.90
  21   3  15    2.99    1.03
   0   0  22    1.32    0.71
   0  -1  22    1.11    0.69
   0   1  22    1.02    0.73
   1   0  22    0.08    0.67
  -1   0  22    0.33    0.66
   1   1  22    5.34    0.93
   1  -1  22    4.16    0.88
  -1   1  22    4.33    0.88
  -1  -1  22    4.11    0.87
   0  -2  22    1.05    0.74
   0   2  22    0.70    0.73
   2   0  22    0.52    0.65
  -2   0  22    1.27    0.74
   1  -2  22    8.38    1.08
  -2  -1  22   10.28    1.13
   2   1  22    9.61    1.14
  -1   2  22   10.99    1.21
  -1  -2  22    8.11    1.06
   2  -1  22    9.15    1.07
  -2   1  22    9.35    1.10
   1   2  22    6.25    1.03
   2   2  22    4.35    0.90
  -2   2  22    4.06    0.92
  -2  -2  22    3.26    0.85
   2  -2  22    4.07    0.86
   0   3  22    4.55    0.93
   0  -3  22    3.79    0.82
  -3   0  22    3.85    0.89
   3   0  22    4.06    0.86
  -3  -1  22    1.10    0.72
   3   1  22    0.79    0.72
   1  -3  22    1.59    0.74
  -1   3  22    0.13    0.71
   3  -1  22    0.23    0.69
   1   3  22    1.02    0.76
  -1  -3  22    1.40    0.71
  -3   1  22   -0.74    0.61
   3   2  22   24.29    1.58
  -3  -2  22   20.71    1.54
   2  -3  22   16.34    1.38
  -2   3  22   20.04    1.57
   2   3  22   20.64    1.56
  -3   2  22   20.50    1.57
  -2  -3  22   18.18    1.40
   3  -2  22   16.61    1.42
  -3   3  22    0.37    0.73
   3   3  22   -0.10    0.70
   3  -3  22    0.12    0.66
  -3  -3  22    0.30    0.67
   4   0  22    3.78    0.90
   0  -4  22    4.57    0.87
   0   4  22    4.81    0.93
  -4   0  22    3.15    0.87
   1  -4  22    3.02    0.81
  -1   4  22    1.88    0.80
  -4  -1  22    1.19    0.73
   4   1  22    2.59    0.85
  -4   1  22    2.38    0.82
   4  -1  22    1.88    0.76
  -1  -4  22    3.54    0.82
   1   4  22    2.56    0.79
  -4  -2  22    2.44    0.81
  -2   4  22    2.75    0.81
   2  -4  22    2.49    0.78
   4   2  22    2.66    0.84
  -2  -4  22    3.10    0.79
   2   4  22    2.95    0.79
   4  -2  22    2.70    0.84
  -4   2  22    3.15    0.86
  -3   4  22    1.13    0.76
   3  -4  22    1.86    0.77
  -4  -3  22    1.69    0.75
   4   3  22    2.18    0.83
  -4   3  22    2.41    0.85
   3   4  22    1.45    0.77
  -3  -4  22    2.33    0.76
   4  -3  22    3.37    0.84
   4   4  22    1.49    0.76
  -4  -4  22    0.54    0.69
  -4   4  22    2.32    0.82
   4  -4  22    1.57    0.73
  -5   0  22    5.73    0.97
   5   0  22    6.25    1.00
   0  -5  22    7.12    0.99
   0   5  22    7.96    1.11
  -1   5  22    6.15    1.02
   1  -5  22    7.33    0.99
   5   1  22    5.64    0.99
  -5  -1  22    4.95    0.93
  -1  -5  22    8.32    1.07
  -5   1  22    7.24    1.02
   1   5  22    4.10    0.88
   5  -1  22    6.65    1.03
  -2   5  22    0.74    0.74
   5   2  22   -0.32    0.68
   2  -5  22    0.85    0.67
  -2  -5  22    1.67    0.74
   2   5  22    0.51    0.71
   5  -2  22    1.91    0.75
  -5   2  22    0.68    0.77
   5   3  22   -0.34    0.66
   3  -5  22    0.30    0.68
  -3   5  22    0.14    0.74
  -5   3  22    0.38    0.71
   5  -3  22    0.52    0.69
   3   5  22    0.48    0.75
  -3  -5  22    0.20    0.66
   5   4  22    3.65    0.91
   4  -5  22    4.02    0.87
  -4   5  22    3.00    0.88
   5  -4  22    5.34    0.93
   4   5  22    3.11    0.86
  -5   4  22    3.11    0.88
   5   5  22    3.69    0.93
  -5   5  22    1.89    0.79
   5  -5  22    2.97    0.83
   0   6  22    7.70    1.11
   6   0  22    8.57    1.13
   0  -6  22    8.39    1.03
   6   1  22    3.29    0.91
  -1   6  22    3.20    0.89
   1  -6  22    4.41    0.83
   1   6  22    2.55    0.82
   6  -1  22    3.71    0.87
  -1  -6  22    3.38    0.83
   6   2  22   -0.26    0.71
   2  -6  22    0.31    0.66
  -2   6  22    0.40    0.72
   2   6  22    0.95    0.75
   6  -2  22    0.30    0.70
  -2  -6  22    0.10    0.68
   6   3  22    6.56    1.02
  -3   6  22    7.75    1.12
   3  -6  22    7.41    1.00
   3   6  22    6.03    1.00
   6  -3  22    5.98    0.99
  -3  -6  22    6.15    0.95
  -4   6  22    1.41    0.75
   6   4  22    1.04    0.80
   4  -6  22    1.85    0.74
   4   6  22    0.42    0.76
   6  -4  22    0.65    0.70
  -6   4  22    0.66    0.73
  -5   6  22   -0.28    0.69
   5  -6  22    1.53    0.72
   6   5  22    0.92    0.75
   6  -5  22    0.21    0.68
  -6   5  22    0.18    0.73
   5   6  22    0.20    0.69
   6  -6  22    0.76    0.70
  -6   6  22    1.65    0.78
   6   6  22    1.01    0.74
   0   7  22   13.57    1.36
   0  -7  22   14.34    1.27
   7   0  22   12.91    1.33
   1  -7  22    6.40    0.93
   7   1  22    5.57    1.01
  -1   7  22    4.84    0.98
   1   7  22    5.20    1.02
   7  -1  22    5.14    0.98
  -1  -7  22    5.11    0.91
  -2   7  22   12.83    1.33
   2  -7  22   16.86    1.36
   7   2  22   15.30    1.43
   2   7  22   11.97    1.30
  -2  -7  22   12.11    1.19
   7  -2  22   14.19    1.35
   3  -7  22    3.26    0.79
  -3   7  22    3.67    0.92
   7   3  22    3.09    0.86
   3   7  22    1.37    0.83
   7  -3  22    4.38    0.91
   4  -7  22    0.01    0.66
  -4   7  22   -0.08    0.72
   7   4  22    0.29    0.72
   7  -4  22   -0.18    0.65
   4   7  22   -0.90    0.73
  -5   7  22    6.55    1.04
   7   5  22    5.48    1.02
   5  -7  22    4.52    0.88
   7  -5  22    3.30    0.85
   5   7  22    4.54    0.98
  -6   7  22    4.86    0.98
   7   6  22    3.91    0.95
   6  -7  22    4.19    0.86
   7  -6  22    3.28    0.82
   6   7  22    3.92    0.97
   7   7  22    0.31    0.73
   7  -7  22    0.85    0.68
   0  -8  22    4.07    0.82
   8   0  22    4.23    0.93
   0   8  22    4.28    0.95
   8   1  22    6.19    1.00
   1  -8  22    5.49    0.88
  -1   8  22    5.29    1.01
   1   8  22    3.60    0.93
  -1  -8  22    3.21    0.77
   8  -1  22    4.89    0.96
   8   2  22    4.53    0.95
  -2   8  22    7.87    1.10
   2  -8  22    6.63    0.96
   8  -2  22    6.29    1.05
  -2  -8  22    4.07    0.83
   2   8  22    5.71    0.99
   8   3  22    0.98    0.79
  -3   8  22    0.50    0.72
   3  -8  22    0.23    0.67
   3   8  22    1.29    0.80
   8  -3  22    0.71    0.78
   8   4  22    4.95    1.04
   4  -8  22    3.35    0.81
  -4   8  22    4.40    0.98
   8  -4  22    4.38    0.91
   4   8  22    4.20    0.98
  -5   8  22   -0.07    0.71
   8   5  22    0.71    0.80
   5  -8  22    1.01    0.68
   5   8  22    0.13    0.77
   8  -5  22    0.63    0.70
  -6   8  22    2.13    0.84
   8   6  22    0.04    0.77
   6  -8  22    0.76    0.67
   6   8  22    0.66    0.80
   8  -6  22    0.87    0.72
   7  -8  22    0.37    0.66
   8   7  22   -0.15    0.78
   7   8  22    1.14    0.86
   8  -7  22    1.94    0.78
   8  -8  22    0.46    0.64
   8   8  22    0.03    0.80
   9   0  22    1.71    0.87
   0   9  22    0.83    0.79
   0  -9  22    0.67    0.64
   9   1  22    1.13    0.78
  -1   9  22   -0.48    0.69
   1  -9  22    0.86    0.65
  -1  -9  22    1.58    0.68
   9  -1  22    0.37    0.76
   1   9  22    0.96    0.76
   9   2  22    0.64    0.81
  -2   9  22    0.98    0.80
   2  -9  22    2.73    0.76
   9  -2  22    1.28    0.77
   2   9  22    1.73    0.80
   3  -9  22    1.35    0.70
  -3   9  22    0.45    0.74
   9   3  22   -1.09    0.69
   3   9  22    0.80    0.77
   9  -3  22    0.84    0.74
  -4   9  22    0.78    0.78
   4  -9  22    2.39    0.76
   9   4  22    0.74    0.82
   9  -4  22    3.28    0.90
   4   9  22    3.58    0.87
   5  -9  22   -0.01    0.63
   9   5  22   -0.18    0.76
  -5   9  22   -1.67    0.65
   9  -5  22   -0.40    0.69
   5   9  22    0.42    0.77
   9   6  22    3.25    0.98
   6  -9  22    4.45    0.89
   6   9  22    5.70    1.07
   9  -6  22    2.30    0.83
   7  -9  22    1.65    0.73
   9   7  22    0.91    0.83
   9  -7  22    2.49    0.82
   7   9  22    2.12    0.90
   8  -9  22    1.65    0.73
   9   8  22    1.99    0.93
   9  -8  22    2.34    0.76
   8   9  22    1.30    0.88
   9   9  22    0.40    0.76
   9  -9  22    0.30    0.69
   0  10  22    0.43    0.78
   0 -10  22    1.01    0.68
  10   0  22    1.08    0.83
  -1  10  22   -0.16    0.68
  10   1  22   -0.06    0.78
   1 -10  22   -0.93    0.56
   1  10  22    0.26    0.70
  10  -1  22   -0.44    0.69
  -1 -10  22   -0.26    0.59
  10   2  22   -0.52    0.73
   2 -10  22    1.00    0.66
  -2  10  22   -0.65    0.71
   2  10  22    0.70    0.75
  10  -2  22    0.41    0.71
  10   3  22    3.96    1.01
  -3  10  22    2.40    0.86
   3 -10  22    4.04    0.81
   3  10  22    2.37    0.88
  10  -3  22    2.08    0.83
  10   4  22    1.06    0.85
   4 -10  22    2.23    0.73
  -4  10  22    1.89    0.87
  10  -4  22    1.42    0.79
   4  10  22    1.66    0.84
  10   5  22    2.36    0.93
  -5  10  22    1.78    0.83
   5 -10  22    1.22    0.68
  10  -5  22    1.55    0.79
   5  10  22    2.28    0.84
   6 -10  22   -0.34    0.63
  10   6  22    0.86    0.84
   6  10  22    0.66    0.80
  10  -6  22   -0.03    0.68
  10   7  22    3.87    1.03
   7 -10  22    3.24    0.82
  10  -7  22    1.85    0.81
   7  10  22    2.71    0.91
   8 -10  22    4.68    0.90
  10   8  22    2.76    0.93
  10  -8  22    4.55    0.92
   8  10  22    4.95    1.06
   9 -10  22    6.73    1.02
  10   9  22    7.38    1.18
   9  10  22    5.02    1.08
  10  -9  22    6.17    1.02
  11   0  22    0.54    0.82
   0 -11  22   -0.52    0.59
   0  11  22    0.56    0.75
  -1  11  22    4.27    0.95
   1 -11  22    5.50    0.90
  11   1  22    4.91    1.06
  11  -1  22    5.42    1.03
   1  11  22    6.87    1.05
  -2  11  22    2.11    0.82
   2 -11  22    0.84    0.67
  11   2  22    0.46    0.83
  11  -2  22    2.35    0.88
   2  11  22    1.25    0.82
   3 -11  22    5.90    0.91
  11   3  22    4.18    1.04
  -3  11  22    4.85    0.98
   3  11  22    4.03    0.97
  11  -3  22    5.95    1.08
   4 -11  22    1.88    0.74
  -4  11  22    4.25    0.99
  11   4  22    2.47    0.93
  11  -4  22    4.21    0.97
   4  11  22    3.39    0.94
  -5  11  22    3.46    0.92
   5 -11  22    5.62    0.92
  11   5  22    3.85    1.06
  11  -5  22    5.37    0.97
   5  11  22    5.44    1.02
  11   6  22    0.58    0.88
   6 -11  22    0.60    0.68
   6  11  22   -0.54    0.73
  11  -6  22   -0.12    0.70
  11   7  22    1.10    0.91
   7 -11  22    2.15    0.82
  11  -7  22    1.88    0.76
   7  11  22    2.53    0.91
  11   8  22    1.80    0.96
   8 -11  22    2.02    0.76
   8  11  22    2.66    0.95
  11  -8  22    4.26    0.91
  12   0  22    3.37    0.94
   0  12  22    2.27    0.89
  -1  12  22    2.95    0.90
  12   1  22    1.51    0.89
   1 -12  22    2.70    0.78
  12  -1  22    0.39    0.79
   1  12  22    1.29    0.83
  12   2  22    1.26    0.85
   2 -12  22   -0.27    0.62
  -2  12  22    0.08    0.73
  12  -2  22   -0.03    0.72
   2  12  22   -1.30    0.68
  12   3  22    3.08    0.98
  -3  12  22    5.65    1.04
   3 -12  22    5.19    0.87
   3  12  22    4.57    1.00
  12  -3  22    3.77    0.93
   4 -12  22    4.07    0.84
  12   4  22    4.40    1.05
  -4  12  22    4.61    0.96
  12  -4  22    5.91    1.07
   4  12  22    5.15    1.03
  12   5  22   -0.59    0.79
  -5  12  22    0.52    0.81
   5 -12  22    0.31    0.61
  12  -5  22   -0.14    0.71
   5  12  22   -0.18    0.74
  12   6  22   -0.85    0.78
   6 -12  22    1.24    0.74
   6  12  22    0.22    0.79
  12  -6  22    0.66    0.76
  13   0  22    0.31    0.82
   0  13  22    0.74    0.80
  13   1  22    2.01    0.93
  -1  13  22    0.97    0.83
   1  13  22    1.75    0.86
  13  -1  22    0.71    0.84
   2 -13  22    1.70    0.82
  -2  13  22    2.32    0.86
  13   2  22    0.68    0.92
  13  -2  22    0.54    0.77
   2  13  22    0.64    0.78
  -3  13  22    0.62    0.77
  13   3  22    1.34    0.94
  13  -3  22    1.00    0.80
   3  13  22    0.70    0.80
  -4  13  22   -0.37    0.74
  13   4  22   -0.05    0.87
  13  -4  22    2.02    0.88
   4  13  22    0.70    0.79
   0   0  23    1.63    0.78
   0  -1  23    9.29    1.15
   0   1  23    7.50    1.09
   1   0  23    5.78    1.01
  -1   0  23    8.41    1.09
   1   1  23   -0.14    0.66
   1  -1  23   -0.21    0.73
  -1  -1  23    0.50    0.72
  -1   1  23    1.76    0.82
   0  -2  23    0.71    0.66
   0   2  23    0.45    0.69
   2   0  23    0.17    0.73
  -2   0  23   -0.23    0.68
   2   1  23    0.62    0.71
   1  -2  23    2.25    0.82
  -1   2  23    2.24    0.83
  -2  -1  23    2.18    0.83
  -2   1  23    2.15    0.80
   2  -1  23    2.91    0.86
   1   2  23    1.46    0.79
  -1  -2  23    3.18    0.87
  -2   2  23    2.48    0.86
   2  -2  23    1.29    0.75
   2   2  23    2.26    0.85
  -2  -2  23    1.31    0.74
   0  -3  23   19.06    1.52
   0   3  23   15.34    1.40
   3   0  23   17.52    1.48
  -3   0  23   17.83    1.51
  -3  -1  23    5.15    0.99
   1  -3  23    5.52    1.01
   3   1  23    5.48    0.98
  -1   3  23    5.42    0.99
   3  -1  23    3.45    0.89
   1   3  23    4.33    0.94
  -3   1  23    5.85    1.03
  -1  -3  23    5.23    0.95
  -3  -2  23   -0.09    0.67
   2  -3  23    0.11    0.66
  -2   3  23   -0.52    0.70
   3   2  23   -0.13    0.66
   3  -2  23    0.08    0.71
  -3   2  23   -0.51    0.68
  -2  -3  23    1.34    0.79
   2   3  23   -0.23    0.65
   3   3  23   -0.42    0.67
  -3  -3  23   -0.02    0.69
  -3   3  23   -0.19    0.70
   3  -3  23    0.04    0.67
  -4   0  23    7.20    1.09
   0  -4  23    7.25    1.05
   0   4  23    7.97    1.16
   4   0  23   10.25    1.18
  -1   4  23    5.55    1.01
   4   1  23    4.38    0.95
   1  -4  23    5.25    0.94
  -4  -1  23    3.79    0.94
  -4   1  23    5.31    0.99
  -1  -4  23    4.29    0.91
   4  -1  23    3.51    0.91
   1   4  23    5.24    0.98
  -2   4  23    0.60    0.73
   2  -4  23   -0.01    0.65
  -4  -2  23    0.63    0.74
   4   2  23   -0.38    0.69
   4  -2  23    0.84    0.75
   2   4  23    0.58    0.74
  -2  -4  23   -0.02    0.69
  -4   2  23   -0.66    0.70
  -4  -3  23    7.17    1.05
  -3   4  23    7.35    1.11
   4   3  23    6.23    1.05
   3  -4  23    7.61    1.03
  -3  -4  23    9.45    1.14
  -4   3  23    7.98    1.12
   3   4  23    9.98    1.22
   4  -3  23    9.19    1.16
   4   4  23    6.00    1.06
  -4   4  23    5.49    0.98
  -4  -4  23    5.95    0.98
   4  -4  23    6.26    1.00
   0  -5  23   13.11    1.25
   5   0  23   10.44    1.23
  -5   0  23   11.66    1.31
   0   5  23   12.28    1.31
  -1   5  23    3.12    0.91
   1  -5  23    3.56    0.87
   5   1  23    3.05    0.88
  -5  -1  23    1.85    0.85
  -1  -5  23    3.49    0.87
   1   5  23    1.70    0.78
  -5   1  23    2.30    0.85
   5  -1  23    3.14    0.90
   5   2  23    2.54    0.85
  -2   5  23    4.63    0.99
   2  -5  23    2.24    0.79
  -5   2  23    2.52    0.90
  -2  -5  23    3.66    0.88
   5  -2  23    3.03    0.86
   2   5  23    3.70    0.94
  -3   5  23    0.73    0.75
   3  -5  23    0.81    0.67
   5   3  23   -0.12    0.72
   5  -3  23    0.18    0.76
  -5   3  23   -0.60    0.72
   3   5  23   -0.47    0.69
  -3  -5  23   -0.18    0.65
   4  -5  23    0.40    0.68
   5   4  23    0.64    0.74
  -4   5  23    0.36    0.77
   5  -4  23    0.32    0.70
   4   5  23    0.85    0.80
  -5   4  23    2.37    0.83
  -5   5  23   -0.49    0.72
   5  -5  23    0.09    0.70
   5   5  23    0.78    0.79
   0  -6  23    0.56    0.71
   0   6  23    1.20    0.77
   6   0  23   -0.19    0.73
   1  -6  23    1.59    0.77
  -1   6  23    4.06    0.93
   6   1  23    3.93    0.97
  -1  -6  23    2.27    0.81
   6  -1  23    0.39    0.75
   1   6  23    2.40    0.83
   6   2  23    2.42    0.86
  -2   6  23    1.54    0.81
   2  -6  23    0.47    0.71
  -2  -6  23    2.28    0.79
   6  -2  23    1.52    0.78
   2   6  23    1.62    0.85
   6   3  23    0.53    0.77
  -3   6  23    0.85    0.75
   3  -6  23    0.33    0.68
   3   6  23    0.28    0.75
   6  -3  23    0.60    0.74
  -3  -6  23   -0.49    0.68
   4  -6  23    0.05    0.65
  -4   6  23   -0.50    0.73
   6   4  23    0.12    0.77
   6  -4  23    0.05    0.69
   4   6  23   -0.54    0.75
   5  -6  23    2.29    0.79
   6   5  23    3.63    0.96
  -5   6  23    2.18    0.86
   6  -5  23    4.16    0.90
   5   6  23    1.97    0.88
   6  -6  23    0.40    0.69
   6   6  23    0.82    0.83
   0  -7  23    1.48    0.73
   7   0  23   -0.20    0.79
   0   7  23    0.76    0.79
   1  -7  23    2.47    0.82
   7   1  23    4.33    1.00
  -1   7  23    4.59    0.97
   7  -1  23    4.22    0.96
  -1  -7  23    2.71    0.81
   1   7  23    3.79    0.92
   2  -7  23    4.18    0.89
  -2   7  23    1.73    0.89
   7   2  23    2.93    0.91
   7  -2  23    3.01    0.90
  -2  -7  23    2.31    0.77
   2   7  23    1.70    0.82
   3  -7  23    2.18    0.76
  -3   7  23    1.47    0.84
   7   3  23    3.39    0.91
   3   7  23    4.05    0.96
   7  -3  23    1.84    0.82
   4  -7  23    5.22    0.90
   7   4  23    3.39    0.93
  -4   7  23    2.75    0.90
   7  -4  23    3.45    0.90
   4   7  23    3.14    0.89
   5  -7  23    1.57    0.76
  -5   7  23   -0.16    0.76
   7   5  23    1.63    0.86
   5   7  23    1.41    0.81
   7  -5  23    0.66    0.74
   7   6  23    3.94    0.96
   6  -7  23    1.97    0.81
   6   7  23    2.60    0.90
   7  -6  23    2.44    0.84
   7   7  23   -0.55    0.79
   7  -7  23   -0.95    0.68
   0   8  23   11.04    1.28
   0  -8  23   13.75    1.26
   8   0  23   12.87    1.40
   8   1  23    1.35    0.84
  -1   8  23    1.09    0.79
   1  -8  23    2.03    0.78
   8  -1  23    0.98    0.80
   1   8  23    2.71    0.84
  -1  -8  23    0.94    0.73
  -2   8  23    3.52    0.96
   2  -8  23    1.74    0.74
   8   2  23    2.32    0.92
  -2  -8  23    2.67    0.80
   2   8  23    2.49    0.90
   8  -2  23    2.24    0.85
  -3   8  23    2.79    0.90
   3  -8  23    2.57    0.81
   8   3  23    2.46    0.86
   3   8  23    2.65    0.87
   8  -3  23    2.45    0.85
  -4   8  23    3.25    0.89
   4  -8  23    3.43    0.85
   8   4  23    2.29    0.86
   4   8  23    2.96    0.95
   8  -4  23    3.88    0.94
   8   5  23    0.04    0.79
  -5   8  23    1.54    0.80
   5  -8  23    0.19    0.68
   5   8  23   -0.11    0.76
   8  -5  23    1.22    0.78
   8   6  23   -0.44    0.72
   6  -8  23    0.66    0.71
   6   8  23    0.05    0.76
   8  -6  23    0.20    0.65
   7  -8  23    0.70    0.69
   8   7  23    1.67    0.91
   7   8  23    1.49    0.89
   8  -7  23    1.86    0.79
   8  -8  23   -0.89    0.62
   8   8  23   -0.18    0.79
   0  -9  23   -0.01    0.66
   0   9  23    0.55    0.75
   9   0  23   -0.79    0.75
   1  -9  23    0.56    0.69
   9   1  23    1.56    0.84
  -1   9  23    0.96    0.78
   9  -1  23    2.13    0.90
   1   9  23    2.49    0.89
  -1  -9  23    1.86    0.74
   9   2  23    2.84    0.98
  -2   9  23    3.50    0.95
   2  -9  23    4.85    0.89
   9  -2  23    5.07    0.99
   2   9  23    3.17    0.92
  -3   9  23    2.48    0.88
   3  -9  23    0.51    0.67
   9   3  23    1.98    0.90
   3   9  23    1.45    0.81
   9  -3  23   -0.11    0.79
   4  -9  23   -0.25    0.67
   9   4  23    1.35    0.84
  -4   9  23    0.90    0.78
   4   9  23   -0.03    0.84
   9  -4  23    0.52    0.80
   5  -9  23   11.07    1.18
  -5   9  23   12.29    1.36
   9   5  23    9.37    1.27
   9  -5  23    9.30    1.19
   5   9  23    8.78    1.27
   6  -9  23    0.22    0.70
   9   6  23    0.43    0.81
   9  -6  23    1.08    0.77
   6   9  23    0.26    0.81
   7  -9  23    2.02    0.79
   9   7  23    2.60    0.95
   9  -7  23    2.47    0.85
   7   9  23    0.91    0.87
   8  -9  23    1.53    0.78
   9   8  23    0.99    0.87
   8   9  23   -0.03    0.83
   9  -8  23   -0.20    0.67
   0  10  23    0.69    0.85
   0 -10  23    0.67    0.68
  10   0  23    0.24    0.80
  -1  10  23   -0.45    0.77
   1 -10  23    2.27    0.76
  10   1  23    1.09    0.88
   1  10  23    0.88    0.82
  10  -1  23    0.54    0.76
  -2  10  23   -0.93    0.71
   2 -10  23    0.24    0.67
  10   2  23   -0.05    0.78
  10  -2  23   -0.23    0.76
   2  10  23    0.75    0.84
  -3  10  23    1.70    0.84
  10   3  23    2.04    0.90
   3 -10  23    0.26    0.68
   3  10  23    0.11    0.77
  10  -3  23    0.77    0.83
  -4  10  23    2.11    0.89
  10   4  23    2.18    0.91
   4 -10  23    2.28    0.78
   4  10  23    0.55    0.80
  10  -4  23    0.86    0.77
   5 -10  23    1.03    0.74
  10   5  23    0.54    0.83
  -5  10  23    0.59    0.79
  10  -5  23    0.01    0.74
   5  10  23   -0.09    0.80
  10   6  23    3.26    1.02
   6 -10  23    4.68    0.90
  10  -6  23    2.83    0.88
   6  10  23    3.25    1.00
   0  11  23   -0.12    0.81
  11   0  23    0.73    0.80
   0 -11  23   -0.35    0.64
   1 -11  23    0.40    0.69
  11   1  23    1.07    0.83
  -1  11  23   -1.14    0.73
   1  11  23   -0.11    0.76
  11  -1  23   -0.72    0.74
  -2  11  23    0.98    0.82
   2 -11  23   -0.28    0.65
  11   2  23    0.68    0.89
  11  -2  23   -0.19    0.76
   2  11  23   -0.53    0.75
  11   3  23    2.01    0.93
  -3  11  23    4.61    0.99
   3 -11  23    4.15    0.87
  11  -3  23    4.62    1.02
   3  11  23    2.30    0.88
   4 -11  23   -0.12    0.67
  11   4  23    1.49    0.96
  -4  11  23    0.28    0.78
  11  -4  23    0.82    0.80
   4  11  23    1.49    0.91
  12   0  23    6.63    1.15
   0  12  23    3.55    1.00
  12   1  23   -0.46    0.81
   1 -12  23   -0.45    0.63
  -1  12  23    1.02    0.84
  12  -1  23    0.41    0.83
   1  12  23    0.75    0.80
   0   0  24   12.44    1.31
   0  -1  24   11.58    1.31
   0   1  24   13.37    1.35
   1   0  24   13.43    1.39
  -1   0  24   13.91    1.41
   1  -1  24    0.59    0.76
  -1   1  24    0.35    0.73
  -1  -1  24    0.05    0.75
   1   1  24   -0.48    0.71
   0   2  24    0.28    0.77
  -2   0  24   -0.81    0.73
   0  -2  24    0.26    0.70
   2   0  24   -0.01    0.68
  -1   2  24    1.41    0.82
   2   1  24    0.53    0.78
  -2  -1  24   -0.03    0.73
   1  -2  24    0.42    0.76
  -2   1  24    1.08    0.77
   2  -1  24    0.32    0.75
   1   2  24    1.01    0.78
  -1  -2  24    1.13    0.75
   2  -2  24    2.15    0.81
  -2  -2  24    2.20    0.78
  -2   2  24    1.82    0.87
   2   2  24    2.28    0.88
   0   3  24    2.47    0.90
   3   0  24    1.56    0.83
  -3   0  24    2.93    0.89
   0  -3  24    2.94    0.88
  -1   3  24    3.44    0.92
  -3  -1  24    1.68    0.82
   1  -3  24    3.55    0.91
   3   1  24    3.37    0.90
   3  -1  24    1.23    0.79
   1   3  24    1.56    0.81
  -1  -3  24    1.43    0.82
  -3   1  24    2.87    0.90
  -2   3  24    1.36    0.79
   3   2  24    1.36    0.83
  -3  -2  24    2.30    0.84
   2  -3  24    1.60    0.84
   3  -2  24    1.29    0.82
  -2  -3  24    1.00    0.77
   2   3  24    2.20    0.88
  -3   2  24    2.06    0.86
   3   3  24    0.46    0.73
   3  -3  24    0.46    0.76
  -3  -3  24    1.40    0.79
  -3   3  24    0.24    0.72
  -4   0  24    2.37    0.86
   0   4  24    2.95    0.90
   4   0  24    1.91    0.85
   0  -4  24    2.38    0.86
  -1   4  24    7.37    1.10
   1  -4  24    6.73    1.09
  -4  -1  24    7.97    1.15
   4   1  24    8.14    1.17
  -1  -4  24    7.94    1.11
  -4   1  24    6.98    1.12
   4  -1  24    6.47    1.08
   1   4  24    7.73    1.14
  -2   4  24    4.33    0.94
   2  -4  24    4.19    0.95
  -4  -2  24    3.25    0.90
   4   2  24    3.58    0.97
  -2  -4  24    3.57    0.91
   2   4  24    4.13    0.94
  -4   2  24    3.84    0.96
   4  -2  24    3.41    0.93
   4   3  24    2.93    0.92
  -3   4  24    0.83    0.82
  -4  -3  24    1.88    0.81
   3  -4  24    2.72    0.86
   4  -3  24    2.51    0.85
   3   4  24    2.64    0.91
  -3  -4  24    2.56    0.88
  -4   3  24    2.10    0.85
   4  -4  24    2.79    0.85
  -4   4  24    2.49    0.91
   4   4  24    3.82    0.98
  -5   0  24   13.06    1.39
   0   5  24   11.60    1.31
   0  -5  24   13.34    1.32
   5   0  24   11.15    1.27
  -1   5  24    0.52    0.80
   5   1  24    0.76    0.80
   1  -5  24    2.62    0.84
  -5   1  24    0.74    0.78
  -1  -5  24    1.80    0.83
   1   5  24    1.17    0.82
   5  -1  24    1.20    0.81
   5   2  24    1.50    0.86
  -2   5  24    2.37    0.90
   2  -5  24    2.20    0.86
  -5   2  24    2.51    0.92
   2   5  24    0.57    0.80
  -2  -5  24    0.74    0.77
   5  -2  24    0.97    0.82
   5   3  24    4.00    0.97
  -3   5  24    2.56    0.96
   3  -5  24    3.39    0.92
   5  -3  24    3.77    0.90
  -5   3  24    4.00    1.00
  -3  -5  24    3.94    0.92
   3   5  24    3.81    0.98
   5   4  24    3.97    0.99
   4  -5  24    2.60    0.86
  -4   5  24    3.61    0.95
   5  -4  24    3.40    0.91
  -5   4  24    2.78    0.93
   4   5  24    3.71    0.98
  -5   5  24    0.41    0.80
   5   5  24   -1.27    0.71
   5  -5  24    0.95    0.71
   6   0  24    1.79    0.84
   0  -6  24    0.81    0.73
   0   6  24    1.04    0.80
   1  -6  24    3.97    0.91
   6   1  24    2.98    0.90
  -1   6  24    4.12    1.00
   1   6  24    7.08    1.15
   6  -1  24    3.17    0.97
  -1  -6  24    5.18    0.98
   6   2  24    1.16    0.80
   2  -6  24    0.44    0.70
  -2   6  24    0.36    0.79
   6  -2  24    0.56    0.79
  -2  -6  24    1.44    0.78
   2   6  24   -1.06    0.75
  -3   6  24    2.38    0.92
   3  -6  24    3.35    0.88
   6   3  24    2.13    0.92
   6  -3  24    2.03    0.84
   3   6  24    2.39    0.93
  -4   6  24    1.90    0.86
   4  -6  24    4.74    0.94
   6   4  24    4.02    0.97
   6  -4  24    3.00    0.93
   4   6  24    2.48    0.93
   5  -6  24    0.93    0.79
   6   5  24    1.02    0.89
  -5   6  24    1.91    0.86
   6  -5  24   -0.90    0.68
   5   6  24    0.74    0.83
   6  -6  24    2.11    0.81
   6   6  24    1.99    0.88
   0  -7  24    0.11    0.70
   7   0  24   -0.65    0.76
   0   7  24   -0.55    0.75
   7   1  24    0.67    0.85
   1  -7  24    2.72    0.82
  -1   7  24    3.96    0.95
  -1  -7  24    2.90    0.88
   1   7  24    2.15    0.89
   7  -1  24    2.50    0.88
  -2   7  24    1.30    0.83
   7   2  24    0.66    0.83
   2  -7  24    1.67    0.77
   7  -2  24   -0.66    0.70
  -2  -7  24    0.83    0.74
   2   7  24    0.17    0.78
   3  -7  24   -0.21    0.72
  -3   7  24    0.58    0.80
   7   3  24    0.30    0.80
   7  -3  24    2.24    0.89
   3   7  24    0.50    0.75
   7   4  24    0.83    0.83
   4  -7  24    1.25    0.78
  -4   7  24    1.07    0.84
   7  -4  24    1.04    0.79
   4   7  24    1.58    0.84
  -5   7  24    1.10    0.87
   7   5  24    1.60    0.92
   5  -7  24    2.70    0.88
   7  -5  24    1.52    0.80
   5   7  24    1.37    0.84
   7   6  24   -1.17    0.77
   6  -7  24    0.49    0.75
   6   7  24    1.88    0.91
   7  -6  24    0.16    0.74
   7   7  24    3.90    1.07
   7  -7  24    3.23    0.87
   0   8  24   -0.32    0.78
   0  -8  24   -0.44    0.62
   8   0  24   -0.49    0.80
   1  -8  24    3.13    0.84
  -1   8  24    3.58    0.98
   8   1  24    2.83    0.95
   1   8  24    3.08    0.96
  -1  -8  24    4.20    0.88
   8  -1  24    2.02    0.87
  -2   8  24    4.50    1.00
   8   2  24    3.87    1.04
   2  -8  24    3.63    0.88
   8  -2  24    3.45    0.97
   2   8  24    3.12    0.97
  -3   8  24    0.84    0.82
   8   3  24    0.55    0.86
   3  -8  24    1.21    0.74
   8  -3  24    1.41    0.84
   3   8  24    0.94    0.84
  -4   8  24    0.34    0.79
   4  -8  24    1.97    0.81
   8   4  24    1.12    0.90
   4   8  24    0.45    0.84
   8  -4  24    1.17    0.84
  -5   8  24    2.82    0.93
   8   5  24    1.66    0.91
   5  -8  24    2.08    0.82
   8  -5  24    1.50    0.84
   5   8  24    1.19    0.86
   0   9  24    1.01    0.90
   0  -9  24    2.19    0.81
   9   0  24    1.67    0.91
   9   1  24    5.82    1.15
  -1   9  24    7.54    1.21
   1  -9  24    6.09    1.00
  -1  -9  24    5.91    1.01
   9  -1  24    5.12    1.09
   1   9  24    4.78    1.07
   9   2  24   -0.23    0.80
  -2   9  24   -0.53    0.77
   2  -9  24   -0.69    0.69
   2   9  24    0.02    0.83
   9  -2  24    0.22    0.84
  -3   9  24   13.06    1.43
   3  -9  24   12.69    1.28
   9   3  24   14.05    1.48
   9  -3  24   13.17    1.40
   3   9  24   13.09    1.44
   9   4  24    2.21    0.97
  -4   9  24    2.56    0.94
   4  -9  24    2.75    0.86
   9  -4  24    1.55    0.82
   4   9  24    1.94    0.95
   0   0  25    2.09    0.86
   0  -1  25    1.40    0.86
   0   1  25    2.78    0.92
   1   0  25    1.96    0.86
  -1   0  25    3.13    0.91
  -1  -1  25    3.97    0.95
   1   1  25    3.81    0.96
  -1   1  25    4.40    1.02
   1  -1  25    4.68    1.04
   2   0  25    1.20    0.83
  -2   0  25    1.79    0.90
   0  -2  25    1.70    0.86
   0   2  25    2.17    0.92
   2   1  25    1.38    0.84
  -1   2  25    1.47    0.86
   1  -2  25    0.50    0.80
  -2  -1  25    0.44    0.82
  -2   1  25    0.85    0.83
  -1  -2  25    0.18    0.77
   1   2  25    0.62    0.78
   2  -1  25    0.08    0.75
   2   2  25    1.14    0.86
  -2  -2  25    0.88    0.78
   2  -2  25    1.38    0.84
  -2   2  25    2.91    0.91
   3   0  25    1.05    0.79
  -3   0  25    2.80    0.91
   0   3  25    1.17    0.88
   0  -3  25    2.11    0.87
   3   1  25   -0.31    0.76
   1  -3  25    0.36    0.77
  -3  -1  25    0.47    0.78
  -1   3  25    0.30    0.83
   3  -1  25    1.18    0.86
   1   3  25   -0.17    0.80
  -3   1  25    0.86    0.80
  -1  -3  25    1.27    0.85
   2  -3  25    6.36    1.12
   3   2  25    6.46    1.13
  -3  -2  25    3.91    0.99
  -2   3  25    3.81    1.01
  -2  -3  25    6.19    1.03
   3  -2  25    4.91    0.98
  -3   2  25    5.47    1.09
   2   3  25    4.12    0.97
  -3  -3  25   -0.21    0.75
  -3   3  25    0.35    0.83
   3  -3  25    1.21    0.79
   3   3  25    1.73    0.90
   4   0  25    0.96    0.78
   0  -4  25    1.19    0.83
   0   4  25    0.66    0.82
  -4   0  25   -0.09    0.75
  -1   4  25   -0.04    0.82
   4   1  25    1.44    0.87
  -4  -1  25    0.99    0.82
   1  -4  25   -0.18    0.72
  -4   1  25    0.92    0.80
  -1  -4  25    1.34    0.79
   4  -1  25    0.70    0.83
   1   4  25    0.78    0.83
  -4  -2  25   -0.91    0.77
  -2   4  25    0.42    0.84
   2  -4  25    0.11    0.77
   4   2  25   -0.25    0.77
  -2  -4  25   -0.46    0.71
  -4   2  25    0.71    0.78
   4  -2  25   -0.24    0.79
   2   4  25    0.23    0.77
   3  -4  25    2.02    0.87
  -3   4  25    2.68    0.91
   4   3  25    0.56    0.78
   4  -3  25    2.62    0.89
  -3  -4  25    1.26    0.78
  -4   3  25    2.12    0.92
   3   4  25    2.02    0.93
   4  -4  25    0.91    0.75
  -4   4  25    1.57    0.85
   4   4  25    0.91    0.87
   5   0  25    0.88    0.84
   0  -5  25    1.05    0.77
   0   5  25   -0.27    0.80
  -1   5  25    3.56    1.02
   1  -5  25    3.90    0.97
   5   1  25    3.90    0.98
  -1  -5  25    4.24    0.98
   5  -1  25    2.82    0.93
   1   5  25    5.57    1.12
   5   2  25    0.36    0.77
  -2   5  25    0.39    0.81
   2  -5  25    1.35    0.85
  -2  -5  25    0.03    0.78
  -5   2  25    0.88    0.85
   2   5  25    0.17    0.76
   5  -2  25    0.90    0.77
  -3   5  25    3.82    1.00
   5   3  25    2.03    0.91
   3  -5  25    3.89    0.98
  -5   3  25    3.26    0.99
   5  -3  25    3.21    0.93
  -3  -5  25    1.65    0.87
   3   5  25    3.73    0.96
   4  -5  25    0.03    0.71
  -4   5  25   -0.53    0.74
   5   4  25    1.89    0.92
   4   5  25    1.19    0.85
   5  -4  25    0.65    0.77
  -5   4  25   -0.40    0.80
   6   0  25    5.62    1.12
   0  -6  25    7.40    1.12
   0   6  25    6.68    1.16
   6   1  25    1.37    0.91
   1  -6  25    1.13    0.77
  -1   6  25    0.63    0.85
   1   6  25    0.60    0.89
  -1  -6  25   -0.54    0.73
   6  -1  25    0.43    0.83
   2  -6  25    6.79    1.10
   6   2  25    5.87    1.10
  -2   6  25    6.86    1.13
  -2  -6  25    6.40    1.05
   6  -2  25    6.60    1.14
   2   6  25    6.42    1.12
  -3   6  25    4.11    1.00
   3  -6  25    2.53    0.93
   6   3  25    2.49    0.98
   6  -3  25    3.86    0.98
   3   6  25    3.31    0.99
   0   7  25    0.68    0.82
   0  -7  25    1.25    0.80
   7   0  25    0.38    0.83
   0   0   0    0.00    0.00
;
_shelx_hkl_checksum              17428
loop_
_space_group_symop_operation_xyz
'x, y, z'
'-x+1/2, -y, z+1/2'
'-x, y+1/2, -z+1/2'
'x+1/2, -y+1/2, -z'
'z, x, y'
'z+1/2, -x+1/2, -y'
'-z+1/2, -x, y+1/2'
'-z, x+1/2, -y+1/2'
'y, z, x'
'-y, z+1/2, -x+1/2'
'y+1/2, -z+1/2, -x'
'-y+1/2, -z, x+1/2'
'y+1/4, x+3/4, -z+3/4'
'-y+1/4, -x+1/4, -z+1/4'
'y+3/4, -x+3/4, z+1/4'
'-y+3/4, x+1/4, z+3/4'
'x+1/4, z+3/4, -y+3/4'
'-x+3/4, z+1/4, y+3/4'
'-x+1/4, -z+1/4, -y+1/4'
'x+3/4, -z+3/4, y+1/4'
'z+1/4, y+3/4, -x+3/4'
'z+3/4, -y+3/4, x+1/4'
'-z+3/4, y+1/4, x+3/4'
'-z+1/4, -y+1/4, -x+1/4'
loop_
_atom_site_label
_atom_site_type_symbol
_atom_site_fract_x
_atom_site_fract_y
_atom_site_fract_z
_atom_site_U_iso_or_equiv
_atom_site_adp_type
_atom_site_occupancy
_atom_site_site_symmetry_order
_atom_site_calc_flag
_atom_site_refinement_flags_posn
_atom_site_refinement_flags_adp
_atom_site_refinement_flags_occupancy
Cu01 Cu 0.6250 0.09101(2) 0.15899(2) 0.03840(14) Uani 1 2 d S TU P
O1 O 0.38891(13) 0.17666(12) 0.29580(12) 0.0575(7) Uani 1 1 d . U .
O2 O 0.35703(13) 0.14766(11) 0.19529(13) 0.0634(7) Uani 1 1 d . U .
N1 N 0.43017(11) 0.29704(11) 0.25627(11) 0.0332(6) Uani 1 1 d . U .
N2 N 0.50838(12) 0.32815(12) 0.32280(13) 0.0370(6) Uani 1 1 d . U .
N3 N 0.46586(13) 0.38087(12) 0.31487(13) 0.0430(6) Uani 1 1 d . U .
N4 N 0.56864(14) 0.16716(13) 0.13752(14) 0.0491(7) Uani 1 1 d . U .
N5 N 0.53597(15) 0.26882(13) 0.12303(15) 0.0512(7) Uani 1 1 d . U .
H5 H 0.5375 0.3116 0.1158 0.061 Uiso 1 1 calc R U .
C1 C 0.38782(15) 0.25890(15) 0.21112(15) 0.0379(7) Uani 1 1 d . U .
H1 H 0.3435 0.2807 0.2113 0.046 Uiso 1 1 calc R U .
C2 C 0.48637(14) 0.27914(14) 0.28709(15) 0.0389(7) Uani 1 1 d . U .
H2 H 0.5069 0.2372 0.2834 0.047 Uiso 1 1 calc R U .
C3 C 0.41999(15) 0.36038(14) 0.27479(15) 0.0381(7) Uani 1 1 d . U .
H3 H 0.3839 0.3866 0.2604 0.046 Uiso 1 1 calc R U .
C4 C 0.41341(16) 0.26235(16) 0.14056(15) 0.0453(8) Uani 1 1 d . U .
H4A H 0.3824 0.2388 0.1110 0.054 Uiso 1 1 calc R U .
H4B H 0.4152 0.3091 0.1263 0.054 Uiso 1 1 calc R U .
C5 C 0.48049(16) 0.23248(16) 0.13421(15) 0.0417(7) Uani 1 1 d . U .
C6 C 0.50153(17) 0.16941(17) 0.14348(17) 0.0470(8) Uani 1 1 d . U .
H6 H 0.4739 0.1327 0.1527 0.056 Uiso 1 1 calc R U .
C7 C 0.58750(19) 0.22810(17) 0.12496(19) 0.0549(9) Uani 1 1 d . U .
H7 H 0.6320 0.2413 0.1182 0.066 Uiso 1 1 calc R U .
C8 C 0.37751(15) 0.18760(15) 0.23742(17) 0.0407(7) Uani 1 1 d . U .
loop_
_atom_site_aniso_label
_atom_site_aniso_U_11
_atom_site_aniso_U_22
_atom_site_aniso_U_33
_atom_site_aniso_U_23
_atom_site_aniso_U_13
_atom_site_aniso_U_12
Cu01 0.0413(3) 0.03695(18) 0.03695(18) 0.0052(2) 0.01185(16) 0.01185(16)
O1 0.0749(18) 0.0488(14) 0.0489(14) 0.0017(11) 0.0034(12) -0.0109(12)
O2 0.0793(18) 0.0412(13) 0.0696(16) -0.0095(12) -0.0228(14) -0.0051(12)
N1 0.0327(13) 0.0291(12) 0.0377(13) -0.0004(10) -0.0070(10) 0.0049(10)
N2 0.0367(13) 0.0326(13) 0.0415(14) 0.0068(11) -0.0089(10) -0.0005(10)
N3 0.0457(15) 0.0320(13) 0.0512(16) -0.0015(12) -0.0084(12) 0.0057(12)
N4 0.0529(16) 0.0442(15) 0.0503(16) 0.0101(12) 0.0165(12) 0.0175(13)
N5 0.0638(18) 0.0340(14) 0.0558(17) 0.0076(13) 0.0108(15) 0.0149(13)
C1 0.0313(15) 0.0356(16) 0.0469(17) -0.0080(13) -0.0105(13) 0.0090(12)
C2 0.0350(15) 0.0313(15) 0.0506(18) 0.0037(13) -0.0085(13) 0.0059(12)
C3 0.0369(16) 0.0306(15) 0.0467(17) -0.0025(13) -0.0052(13) 0.0070(12)
C4 0.0522(19) 0.0404(17) 0.0432(18) 0.0002(14) -0.0139(15) 0.0157(14)
C5 0.0503(19) 0.0416(17) 0.0333(15) 0.0002(13) -0.0016(14) 0.0113(14)
C6 0.0499(19) 0.0398(18) 0.051(2) 0.0043(14) 0.0049(15) 0.0109(15)
C7 0.056(2) 0.0465(18) 0.063(2) 0.0080(17) 0.0172(17) 0.0105(17)
C8 0.0302(15) 0.0366(16) 0.0554(19) -0.0068(14) 0.0000(14) 0.0045(13)
loop_
_atom_type_symbol
_atom_type_description
_atom_type_scat_dispersion_real
_atom_type_scat_dispersion_imag
_atom_type_scat_source
C C 0.0033 0.0016 'International Tables Vol C Tables 4.2.6.8 and 6.1.1.4'
H H 0.0000 0.0000 'International Tables Vol C Tables 4.2.6.8 and 6.1.1.4'
N N 0.0061 0.0033 'International Tables Vol C Tables 4.2.6.8 and 6.1.1.4'
O O 0.0106 0.0060 'International Tables Vol C Tables 4.2.6.8 and 6.1.1.4'
Cu Cu 0.3201 1.2651 'International Tables Vol C Tables 4.2.6.8 and 6.1.1.4'
loop_
_geom_angle_atom_site_label_1
_geom_angle_atom_site_label_2
_geom_angle_atom_site_label_3
_geom_angle
_geom_angle_site_symmetry_1
_geom_angle_site_symmetry_3
N4 Cu01 N4 89.43(15) . 19_655
N4 Cu01 N2 173.29(12) . 8_645
N4 Cu01 N2 88.87(10) 19_655 8_645
N4 Cu01 N2 88.87(10) . 21_545
N4 Cu01 N2 173.29(12) 19_655 21_545
N2 Cu01 N2 93.54(14) 8_645 21_545
C2 N1 C3 104.8(2) . .
C2 N1 C1 129.7(2) . .
C3 N1 C1 125.5(2) . .
C2 N2 N3 108.1(2) . .
C2 N2 Cu01 132.7(2) . 11_556
N3 N2 Cu01 118.91(19) . 11_556
C3 N3 N2 105.7(2) . .
C7 N4 C6 105.9(3) . .
C7 N4 Cu01 127.5(2) . .
C6 N4 Cu01 125.7(2) . .
C7 N5 C5 107.9(3) . .
N1 C1 C4 111.1(3) . .
N1 C1 C8 110.7(2) . .
C4 C1 C8 114.2(2) . .
N2 C2 N1 109.9(3) . .
N3 C3 N1 111.5(3) . .
C5 C4 C1 111.9(2) . .
C6 C5 N5 105.8(3) . .
C6 C5 C4 130.8(3) . .
N5 C5 C4 123.1(3) . .
C5 C6 N4 109.3(3) . .
N4 C7 N5 111.0(3) . .
O1 C8 O2 127.3(3) . .
O1 C8 C1 118.3(3) . .
O2 C8 C1 114.4(3) . .
loop_
_geom_bond_atom_site_label_1
_geom_bond_atom_site_label_2
_geom_bond_distance
_geom_bond_site_symmetry_2
Cu01 N4 1.968(3) .
Cu01 N4 1.968(3) 19_655
Cu01 N2 1.997(2) 8_645
Cu01 N2 1.997(2) 21_545
O1 C8 1.225(4) .
O2 C8 1.247(4) .
N1 C2 1.348(4) .
N1 C3 1.353(4) .
N1 C1 1.473(4) .
N2 C2 1.307(4) .
N2 N3 1.382(3) .
N2 Cu01 1.997(2) 11_556
N3 C3 1.302(4) .
N4 C7 1.317(4) .
N4 C6 1.366(4) .
N5 C7 1.331(4) .
N5 C5 1.363(4) .
C1 C4 1.522(5) .
C1 C8 1.554(4) .
C4 C5 1.494(4) .
C5 C6 1.360(5) .
loop_
_geom_torsion_atom_site_label_1
_geom_torsion_atom_site_label_2
_geom_torsion_atom_site_label_3
_geom_torsion_atom_site_label_4
_geom_torsion
_geom_torsion_site_symmetry_1
C2 N2 N3 C3 0.4(3) .
Cu01 N2 N3 C3 174.7(2) 11_556
C2 N1 C1 C4 -84.4(4) .
C3 N1 C1 C4 94.5(3) .
C2 N1 C1 C8 43.7(4) .
C3 N1 C1 C8 -137.5(3) .
N3 N2 C2 N1 -0.8(3) .
Cu01 N2 C2 N1 -174.0(2) 11_556
C3 N1 C2 N2 0.9(3) .
C1 N1 C2 N2 179.9(3) .
N2 N3 C3 N1 0.2(3) .
C2 N1 C3 N3 -0.6(3) .
C1 N1 C3 N3 -179.7(3) .
N1 C1 C4 C5 62.6(3) .
C8 C1 C4 C5 -63.5(3) .
C7 N5 C5 C6 0.7(4) .
C7 N5 C5 C4 175.4(3) .
C1 C4 C5 C6 63.8(5) .
C1 C4 C5 N5 -109.4(4) .
N5 C5 C6 N4 -0.5(4) .
C4 C5 C6 N4 -174.6(3) .
C7 N4 C6 C5 0.1(4) .
Cu01 N4 C6 C5 170.6(2) .
C6 N4 C7 N5 0.4(4) .
Cu01 N4 C7 N5 -169.9(2) .
C5 N5 C7 N4 -0.7(4) .
N1 C1 C8 O1 18.4(4) .
C4 C1 C8 O1 144.8(3) .
N1 C1 C8 O2 -162.6(3) .
C4 C1 C8 O2 -36.3(4) .
