#------------------------------------------------------------------------------
#$Date: 2019-11-03 12:49:59 +0200 (Sun, 03 Nov 2019) $
#$Revision: 221443 $
#$URL: file:///home/coder/svn-repositories/cod/cif/4/12/83/4128320.cif $
#------------------------------------------------------------------------------
#
# This file is available in the Crystallography Open Database (COD),
# http://www.crystallography.net/
#
# All data on this site have been placed in the public domain by the
# contributors.
#
data_4128320
loop_
_publ_author_name
'Kusaka, Shinpei'
'Kiyose, Atsushi'
'Sato, Hiroshi'
'Hijikata, Yuh'
'Hori, Akihiro'
'Ma, Yunsheng'
'Matsuda, Ryotaro'
_publ_section_title
;
 Dynamic Topochemical Reaction Tuned by Guest Molecules in the Nanospace
 of a Metal-Organic Framework.
;
_journal_issue                   40
_journal_name_full               'Journal of the American Chemical Society'
_journal_page_first              15742
_journal_page_last               15746
_journal_paper_doi               10.1021/jacs.9b07682
_journal_volume                  141
_journal_year                    2019
_chemical_formula_moiety         'C30 H26 N2 O5 Zn'
_chemical_formula_sum            'C30 H26 N2 O5 Zn'
_chemical_formula_weight         559.93
_space_group_crystal_system      triclinic
_space_group_IT_number           2
_space_group_name_Hall           '-P 1'
_space_group_name_H-M_alt        'P -1'
_symmetry_space_group_name_Hall  '-P 1'
_symmetry_space_group_name_H-M   'P -1'
_atom_sites_solution_hydrogens   geom
_atom_sites_solution_primary     direct
_atom_sites_solution_secondary   difmap
_cell_angle_alpha                77.455(5)
_cell_angle_beta                 83.372(5)
_cell_angle_gamma                83.133(5)
_cell_formula_units_Z            2
_cell_length_a                   9.0865(6)
_cell_length_b                   11.1662(6)
_cell_length_c                   13.4069(9)
_cell_measurement_reflns_used    9443
_cell_measurement_temperature    93
_cell_measurement_theta_max      29.20
_cell_measurement_theta_min      2.21
_cell_volume                     1312.66(15)
_computing_cell_refinement       'CrysAlisPro 1.171.39.9b (Rigaku OD, 2015)'
_computing_data_collection       'CrysAlisPro 1.171.39.9b (Rigaku OD, 2015)'
_computing_data_reduction        'CrysAlisPro 1.171.39.9b (Rigaku OD, 2015)'
_computing_molecular_graphics    'CrystalStructure 4.2.2'
_computing_publication_material  'CrystalStructure 4.2.2 (Rigaku, 2016)'
_computing_structure_refinement  'SHELXL Version 2014/7 (Sheldrick, 2008)'
_computing_structure_solution    'SHELXT Version 2014/5 (Sheldrick, 2014)'
_diffrn_ambient_temperature      93
_diffrn_detector_area_resol_mean 5.811
_diffrn_measured_fraction_theta_full 0.995
_diffrn_measured_fraction_theta_max 0.853
_diffrn_measurement_device_type  'Rigaku XtaLAB P200'
_diffrn_measurement_method       \w
_diffrn_radiation_type           'Mo K\a'
_diffrn_radiation_wavelength     0.71075
_diffrn_reflns_av_R_equivalents  0.1856
_diffrn_reflns_Laue_measured_fraction_full 0.995
_diffrn_reflns_Laue_measured_fraction_max 0.853
_diffrn_reflns_limit_h_max       12
_diffrn_reflns_limit_h_min       -11
_diffrn_reflns_limit_k_max       15
_diffrn_reflns_limit_k_min       -14
_diffrn_reflns_limit_l_max       16
_diffrn_reflns_limit_l_min       -18
_diffrn_reflns_number            20798
_diffrn_reflns_point_group_measured_fraction_full 0.995
_diffrn_reflns_point_group_measured_fraction_max 0.853
_diffrn_reflns_theta_full        25.242
_diffrn_reflns_theta_max         29.322
_diffrn_reflns_theta_min         2.181
_diffrn_standards_number         0
_exptl_absorpt_coefficient_mu    0.979
_exptl_absorpt_correction_T_max  1.000
_exptl_absorpt_correction_T_min  0.246
_exptl_absorpt_correction_type   multi-scan
_exptl_absorpt_process_details
;
CrysAlisPro 1.171.39.9b (Rigaku Oxford Diffraction, 2015)
Empirical absorption correction using spherical harmonics,
 implemented in SCALE3 ABSPACK scaling algorithm.
;
_exptl_crystal_colour            nONE
_exptl_crystal_density_diffrn    1.417
_exptl_crystal_density_method    'not measured'
_exptl_crystal_description       nONE
_exptl_crystal_F_000             580.00
_refine_diff_density_max         1.33
_refine_diff_density_min         -1.41
_refine_ls_extinction_method     none
_refine_ls_goodness_of_fit_ref   0.934
_refine_ls_hydrogen_treatment    constr
_refine_ls_number_parameters     345
_refine_ls_number_reflns         6143
_refine_ls_number_restraints     0
_refine_ls_R_factor_all          0.0952
_refine_ls_R_factor_gt           0.0680
_refine_ls_shift/su_max          0.001
_refine_ls_structure_factor_coef Fsqd
_refine_ls_weighting_details
'w = 1/[\s^2^(Fo^2^)+(0.1510P)^2^] where P=(Fo^2^+2Fc^2^)/3'
_refine_ls_weighting_scheme      calc
_refine_ls_wR_factor_gt          0.1768
_refine_ls_wR_factor_ref         0.2093
_reflns_Friedel_coverage         0.000
_reflns_number_gt                4744
_reflns_number_total             6143
_reflns_threshold_expression     F^2^>2.0\s(F^2^)
_cod_data_source_file            ja9b07682_si_008.cif
_cod_data_source_block           xcalibur
_cod_database_code               4128320
_shelx_res_file
;

    shelxl.res created by SHELXL-2014/7

TITL xcalibur
CELL  0.71075 9.08650 11.16620 13.40690 77.45500 83.37200 83.13300
ZERR  2 0.00060 0.00060 0.00090 0.00500 0.00500 0.00500
LATT 1
SFAC C H N O ZN
UNIT 58 52 6 10 2
L.S. 20
FMAP 2
PLAN 25
WPDB -2
HTAB
BOND $H
CONF
LIST 4
TEMP -180.0
ACTA
WGHT    0.151000
FVAR       0.29791
ZN38  5    0.391345    0.594128    0.944099    11.00000    0.01262    0.01299 =
         0.00961   -0.00038   -0.00035   -0.00378
O1    4    0.712734    0.424628    0.910574    11.00000    0.02159    0.03746 =
         0.01208   -0.00071    0.00427   -0.00308
O2    4    0.324354    0.424834    0.942659    11.00000    0.02863    0.01717 =
         0.02967    0.00223   -0.01127   -0.01291
O3    4    0.553840    0.573442    0.828696    11.00000    0.02206    0.02677 =
         0.02026   -0.00519    0.00832   -0.00173
O4    4    0.484443    0.278747    1.024701    11.00000    0.01905    0.01792 =
         0.03379   -0.00822   -0.00761   -0.00652
O6    4    1.253237    0.184743    0.661698    11.00000    0.03560    0.02727 =
         0.05056   -0.00076   -0.02074   -0.00174
N7    3    1.455595    0.243381    0.719802    11.00000    0.03339    0.02598 =
         0.02587   -0.00327   -0.00958   -0.00490
N39   3    0.232403    0.703081    0.864063    11.00000    0.01709    0.02227 =
         0.01542   -0.00482    0.00073   -0.00439
C5    1    0.260532    0.220576    0.982562    11.00000    0.01514    0.01875 =
         0.01912   -0.00406   -0.00117   -0.00638
C8    1    0.055822    0.045001    0.994725    11.00000    0.01713    0.01669 =
         0.02431   -0.00269   -0.00505   -0.00473
C9    1    0.671784    0.500374    0.833065    11.00000    0.01789    0.02393 =
         0.01171   -0.00487    0.00301   -0.00941
C10   1    0.365614    0.314576    0.982655    11.00000    0.01645    0.01739 =
         0.01306   -0.00410    0.00297   -0.00820
C12   1    0.770811    0.503046    0.735427    11.00000    0.01528    0.02829 =
         0.01443   -0.00623    0.00063   -0.00705
C13   1    0.952662    0.501163    0.549213    11.00000    0.01920    0.02702 =
         0.00931   -0.00169   -0.00075   -0.00176
C14   1    0.743605    0.591585    0.646772    11.00000    0.01970    0.02624 =
         0.01787   -0.00155    0.00041   -0.00056
AFIX  43
H14   2    0.662420    0.653312    0.649035    11.00000   -1.20000
AFIX   0
C15   1    0.832450    0.591343    0.555601    11.00000    0.01982    0.02924 =
         0.01258    0.00175    0.00022    0.00179
AFIX  43
H15   2    0.811684    0.653073    0.496624    11.00000   -1.20000
AFIX   0
C16   1    0.892010    0.415431    0.730099    11.00000    0.02238    0.03011 =
         0.01611    0.00156   -0.00172    0.00095
AFIX  43
H16   2    0.914008    0.355389    0.789835    11.00000   -1.20000
AFIX   0
C17   1    0.014869    0.853629    0.748349    11.00000    0.02630    0.03418 =
         0.02481   -0.00824   -0.00963    0.00323
C18   1    0.021466    0.168519    0.954185    11.00000    0.03664    0.02447 =
         0.04721    0.01397   -0.03026   -0.01513
AFIX  43
H18   2   -0.073457    0.195305    0.929667    11.00000   -1.20000
AFIX   0
C19   1    0.247505    0.822335    0.822232    11.00000    0.02637    0.02382 =
         0.03223    0.00312   -0.00872   -0.00773
AFIX  43
H19   2    0.335058    0.855255    0.832298    11.00000   -1.20000
AFIX   0
C20   1    0.121949    0.254416    0.948351    11.00000    0.04022    0.01959 =
         0.05001    0.01832   -0.02891   -0.01619
AFIX  43
H20   2    0.094270    0.338652    0.920023    11.00000   -1.20000
AFIX   0
C21   1    0.106042    0.659781    0.848539    11.00000    0.02632    0.02287 =
         0.05385   -0.00505   -0.01850   -0.00222
AFIX  43
H21   2    0.092058    0.575744    0.876636    11.00000   -1.20000
AFIX   0
C22   1    0.981720    0.413975    0.638975    11.00000    0.02233    0.03283 =
         0.01628    0.00177    0.00009    0.00464
AFIX  43
H22   2    1.063932    0.353030    0.637460    11.00000   -1.20000
AFIX   0
C23   1    0.296139    0.096822    1.023528    11.00000    0.01899    0.01708 =
         0.09809    0.00115   -0.02763   -0.00389
AFIX  43
H23   2    0.391145    0.070160    1.047947    11.00000   -1.20000
AFIX   0
C24   1    0.144148    0.899217    0.765948    11.00000    0.03172    0.02100 =
         0.04344    0.00767   -0.00677   -0.00706
AFIX  43
H24   2    0.160276    0.983083    0.739023    11.00000   -1.20000
AFIX   0
C25   1   -0.003491    0.732149    0.793733    11.00000    0.03355    0.03215 =
         0.05000   -0.00670   -0.02081   -0.00604
AFIX  43
H25   2   -0.092087    0.698297    0.787136    11.00000   -1.20000
AFIX   0
C26   1    1.364067    0.162679    0.709497    11.00000    0.04017    0.02227 =
         0.04348    0.00207   -0.01697   -0.00371
AFIX  43
H26   2    1.387167    0.079361    0.742670    11.00000   -1.20000
AFIX   0
C27   1    1.587855    0.204937    0.774856    11.00000    0.03385    0.03916 =
         0.03758   -0.01221   -0.01186   -0.00212
AFIX 137
H27A  2    1.676902    0.218863    0.726785    11.00000   -1.20000
H27B  2    1.589443    0.117113    0.806710    11.00000   -1.20000
H27C  2    1.586299    0.252944    0.828154    11.00000   -1.20000
AFIX   0
C28   1   -0.079210    1.035547    0.624140    11.00000    0.02647    0.03110 =
         0.03366   -0.00755   -0.00460    0.00173
AFIX  43
H28   2    0.012097    1.068061    0.626182    11.00000   -1.20000
AFIX   0
C29   1   -0.363180    1.270698    0.415206    11.00000    0.03525    0.04741 =
         0.04634    0.01106   -0.01891    0.00265
AFIX  43
H29   2   -0.420837    1.320894    0.364184    11.00000   -1.20000
AFIX   0
C30   1   -0.182266    1.111343    0.553903    11.00000    0.02629    0.03666 =
         0.02690   -0.00388   -0.00244    0.01064
C31   1   -0.098378    0.927387    0.684904    11.00000    0.02800    0.03359 =
         0.04357   -0.00323   -0.01303   -0.00292
AFIX  43
H31   2   -0.191318    0.895245    0.687761    11.00000   -1.20000
AFIX   0
C32   1   -0.229345    1.302529    0.429838    11.00000    0.05166    0.02985 =
         0.04587   -0.00539   -0.02305    0.00443
AFIX  43
H32   2   -0.196740    1.379047    0.393366    11.00000   -1.20000
AFIX   0
C33   1    1.428354    0.372887    0.673927    11.00000    0.06394    0.02810 =
         0.05025   -0.00149   -0.02729   -0.01368
AFIX 137
H33A  2    1.331041    0.388372    0.646282    11.00000   -1.20000
H33B  2    1.506189    0.395931    0.618338    11.00000   -1.20000
H33C  2    1.429383    0.422067    0.726095    11.00000   -1.20000
AFIX   0
C34   1   -0.139546    1.223518    0.498094    11.00000    0.04327    0.03493 =
         0.06035   -0.00676   -0.02534    0.00094
AFIX  43
H34   2   -0.045616    1.247203    0.506813    11.00000   -1.20000
AFIX   0
C35   1    0.195144    0.011572    1.029335    11.00000    0.02463    0.01151 =
         0.12721    0.00377   -0.03434   -0.00215
AFIX  43
H35   2    0.222563   -0.072596    1.058043    11.00000   -1.20000
AFIX   0
C36   1   -0.414773    1.165032    0.474915    11.00000    0.05358    0.07149 =
         0.12459    0.03667   -0.06003   -0.02199
AFIX  43
H36   2   -0.512762    1.146320    0.470401    11.00000   -1.20000
AFIX   0
C37   1   -0.322410    1.084563    0.542740    11.00000    0.05830    0.05139 =
         0.07642    0.02569   -0.03779   -0.01918
AFIX  43
H37   2   -0.357692    1.010126    0.581649    11.00000   -1.20000
AFIX   0
HKLF 4

REM  xcalibur
REM R1 =  0.0680 for    4744 Fo > 4sig(Fo)  and  0.0952 for all    6143 data
REM    345 parameters refined using      0 restraints

END

WGHT      0.1278      0.0000

REM Instructions for potential hydrogen bonds
HTAB C21 O2
EQIV $1 x-1, y+1, z
HTAB C24 O6_$1

REM Highest difference peak  1.330,  deepest hole -1.414,  1-sigma level  0.215
Q1    1   0.3089  0.6311  0.9000  11.00000  0.05    1.33
Q2    1  -0.2970  1.0423  0.4843  11.00000  0.05    1.12
Q3    1   0.3924  0.6571  0.8816  11.00000  0.05    1.07
Q4    1   0.4588  0.5434  0.9884  11.00000  0.05    0.96
Q5    1   0.4045  0.4397  0.8558  11.00000  0.05    0.90
Q6    1   0.5872  0.2999  1.0380  11.00000  0.05    0.85
Q7    1   0.2572  0.5633  0.9042  11.00000  0.05    0.83
Q8    1   0.4551  0.3281  0.9783  11.00000  0.05    0.83
Q9    1  -0.1593  0.6229  0.7965  11.00000  0.05    0.83
Q10   1   0.1853  0.8441  0.7940  11.00000  0.05    0.83
Q11   1   0.3788  0.5212  1.0132  11.00000  0.05    0.80
Q12   1   0.2590  0.5361  0.9274  11.00000  0.05    0.76
Q13   1  -0.3729  1.1216  0.4182  11.00000  0.05    0.74
Q14   1   0.5391  0.2223  1.0797  11.00000  0.05    0.74
Q15   1   0.1162  0.8404  0.9169  11.00000  0.05    0.73
Q16   1   0.4775  0.6376  0.7586  11.00000  0.05    0.73
Q17   1   0.4727  0.4775  0.9550  11.00000  0.05    0.72
Q18   1   0.4218  0.3252  1.0726  11.00000  0.05    0.71
Q19   1   0.1667 -0.0750  1.1187  11.00000  0.05    0.70
Q20   1   0.1785  0.2361  0.9005  11.00000  0.05    0.69
Q21   1   1.3911  0.2226  0.7401  11.00000  0.05    0.69
Q22   1   0.4685  0.9178  0.8271  11.00000  0.05    0.69
Q23   1   0.1196  0.1753  0.9387  11.00000  0.05    0.69
Q24   1   0.1965  0.2359  0.9521  11.00000  0.05    0.68
Q25   1   0.5506  0.2619  0.9506  11.00000  0.05    0.68
;
_shelx_res_checksum              3271
_shelx_hkl_file
;
   0   1   1  339.04   32.14
  -1   0  -1  174.30   17.52
  -1   0  -1  194.57   17.51
   1   0   1  177.54   16.94
   0   1  -1  162.12   15.23
   1   1   0  882.16   82.40
  -1  -1   0 1149.75  100.44
  -1  -1   0  917.70  100.76
  -1   0   1  630.97   58.92
   1   0  -1  625.28   58.40
   1   1   1  262.34   25.15
  -1  -1  -1  269.56   23.56
  -1  -1  -1  201.91   23.98
   1   1   1  278.05   25.40
   1  -1   0  151.61   14.45
  -1   1   0  145.81   13.71
   1  -1   0  187.14   16.79
   0   0   2  572.05   54.14
   0   0  -2  396.44   38.31
   0   1   2  229.31   24.48
   0  -1  -2  299.39   31.41
   0   1   2  517.19   30.22
   1  -1  -1  149.06   11.85
   1  -1  -1   97.89   11.63
  -1   1   1  165.70   14.66
  -1   1   1  140.00   14.34
  -1  -1   1  494.84   46.29
   1   1  -1  500.64   47.11
   1  -1   1 2260.26  210.77
  -1   1  -1 2279.63  214.11
  -1   1  -1 2366.34  214.61
  -1   0  -2    4.56    1.45
  -1  -1  -2   79.82    7.06
  -1  -1  -2   83.59    7.12
   1   1   2   77.13    7.32
   0   2   0    1.19    0.33
   0   2   0    0.62    0.28
   0  -2  -1   75.26    7.40
   0   2   1   63.93    6.40
   0  -1   2   93.68    8.87
   1   0  -2  412.14   37.39
  -1   0   2  474.25   44.44
   1   0  -2  336.79   38.52
   1   2   1 3458.02  323.23
  -1  -2  -1 3785.15   19.80
  -1  -2  -1 3399.51   21.11
  -1  -2   0    2.16    0.61
  -1  -2   0    1.64    1.33
   1   2   0    1.76    0.51
  -1   1   2  310.08   23.60
  -1   1   2  172.23   23.49
   1  -1  -2  241.43   20.71
   1  -1  -2  165.79   21.14
   0   2  -1   11.82    1.31
   0  -2   1   12.22    1.33
   0   2   2    0.23    1.03
   0  -2  -2   98.53    9.53
   0  -2  -2   94.38    9.94
   0   2   2   72.95    4.01
   1  -1   2   15.46    1.72
  -1   1  -2    9.57    1.51
  -2   0   0   18.50    5.88
  -1   2   0  122.63   11.69
   1  -2   0  147.07   14.56
   1  -2   0  159.53   14.61
  -1  -2  -2   36.14    1.19
  -1  -2  -2   22.28    2.92
  -1  -1   2   76.21    7.94
   1   1  -2  101.66   10.00
   1  -2  -1  168.79   10.15
  -1   2   1  186.37   19.42
   1  -2  -1  199.51   10.38
  -1   2   1  209.66   19.16
  -1   2   1  200.70   22.60
  -2   0  -1   56.27    5.67
  -2   0  -1   62.01    6.47
   2   0   1   69.52    6.66
   2   0   1   61.17    6.27
   0   1   3    0.14    1.96
   0  -1  -3    4.61    3.96
   0   0  -3  324.84   41.01
   0   0  -3  440.39   39.74
   0   0   3  530.23   50.53
   2   1   1   12.64    6.46
  -2  -1  -1    8.66    0.61
   2   1   1    9.42    1.65
   2   1   1    7.84    0.94
   2   1   1    8.29    1.49
  -2  -1  -1    6.58    1.63
  -2  -1  -1    0.40    1.38
  -2  -1  -1    0.17    0.29
   2   1   1    7.39    1.13
   2   1   1    8.58    2.00
   2   1   0    2.30    0.40
   2   1   0    2.88    1.57
  -2  -1   0   -0.15    0.61
  -2  -1   0    1.94    0.46
   1   2  -1    2.97    0.57
   1   2  -1    2.81    0.54
  -1  -2   1    3.12    0.58
   1   2  -1    3.02    0.57
   1   1   3   52.58    8.36
   1   1   3   76.05   13.08
  -1  -1  -3    0.07    0.84
   2   0  -1  106.15   10.22
   2   0  -1  174.12   14.00
  -1   2  -1    0.47    0.24
  -1   2  -1   -0.03    0.15
   1  -2   1    0.23    0.32
  -1   2  -1    0.32    0.29
  -1   0  -3    7.74    3.13
   1   0   3    9.20    4.17
   2  -1   0    3.99    1.17
  -2   1   0    2.01    2.13
  -2   1   0    1.78    0.30
   2  -1   0    0.60    3.39
   2  -1   0    1.41    0.33
   1  -2  -2   57.88    3.03
   1  -2  -2   29.49    2.99
  -1   2   2   22.27    6.39
  -1   2   2    0.05    0.69
  -2  -1  -2    0.38    4.72
  -2  -1  -2  151.77    6.98
  -2  -1  -2  211.20    2.77
   2   1   2  178.15   21.34
   2   1   2  195.05   19.69
   2   1   2  211.54   20.22
  -2  -1  -2   -0.03    0.41
   2   1   2  210.49   20.41
   2   1   2  248.48   19.95
  -2  -1  -2  142.81    8.71
  -2  -1   1   -0.08    1.41
  -2  -1   1   75.82    1.95
   2   0   2   33.90    3.35
  -2   0  -2   50.06    5.11
   2   0   2   45.94    4.27
  -2   0  -2   46.58    5.02
  -2   1  -1   42.43    3.15
  -2   1  -1   55.14    4.17
   2  -1   1   56.21    5.96
   2  -1   1   61.50    5.79
   2  -1   1   64.03    6.76
   2  -1  -1   33.94    3.58
  -2   1   1   27.72    2.65
  -2   1   1   26.28    2.78
   2  -1  -1   18.95    2.86
   0   2  -2    2.61    0.41
   0   2  -2    0.01    0.18
   0  -2   2    1.86    0.53
   0   2   3   -0.24    1.59
   0   2   3  655.10    9.42
   0  -2  -3  642.22   61.64
   1   0  -3  261.97   21.93
   1   0  -3  193.83   21.85
  -1   0   3  321.68   28.04
  -1   0   3  200.11   29.22
   1   0  -3  235.21   23.17
   0  -1   3  152.27   14.41
   0   1  -3  197.96   19.27
   1  -1  -3 9999.00  624.98
  -1   1   3 5790.35  541.13
   1  -1  -3 5427.18  622.31
   2   2   1   80.90    7.49
   2   2   1   65.48    6.44
  -2  -2  -1    0.04    0.18
  -2  -2  -1    0.04    0.48
   2   2   1   55.59    6.14
   2   2   1   72.59    6.47
  -1  -2  -3    4.28    2.80
   1   2   3    9.53    5.99
  -1  -2  -3   -0.06    0.31
   0   3   1    9.28    1.01
   0  -3  -1    8.71    1.22
   0  -3  -1    8.11    1.16
   0   3   1    7.19    0.93
  -2  -2   0    2.79    0.63
   2   2   0    2.97    1.71
   2   2   0    2.19    0.49
  -2  -2   0    0.19    0.84
   0   3   0   20.24    2.15
   0   3   0   18.46    2.10
   1   3   1  463.03   43.69
  -1  -3  -1  370.10   41.87
  -1  -3  -1  424.61   41.59
  -1  -3  -1  487.82   41.44
   2   0  -2  445.85   40.37
  -2   0   2  431.38   40.45
   2   0  -2  342.74   41.56
   1  -1   3   12.77    1.68
   1   2  -2   23.03    2.48
  -1  -2   2   15.50    2.08
  -1  -2   2   20.30    2.05
  -2  -2  -2    0.15    0.36
   2   2   2 1666.78  130.14
  -2  -2  -2    0.13    0.44
   2   2   2 1496.89  129.45
   2   2   2 1251.96  129.32
   2   2   2 1312.93  130.38
   1  -2   2  112.67   11.30
   1  -2   2  129.30   11.56
   1  -2   2  128.50   11.43
  -1   2  -2    0.07    0.16
   0   3   2    5.88    1.19
   0  -3  -2    6.37    1.27
   0   3   2    4.94    0.83
   1   3   0   23.47    2.62
  -1  -3   0   31.98    3.59
  -2   1  -2   67.19   17.86
  -2   1  -2  267.49   17.61
   2  -1   2  271.29   25.77
  -1  -1   3  225.28   22.15
   1   1  -3  335.34   31.83
   1   3   2  131.95   13.08
  -1  -3  -2   99.07   12.71
  -1  -3  -2  142.57   12.41
   2  -1  -2    1.52    1.25
  -2   1   2    1.91    0.54
  -2   1   2    1.46    1.21
  -2   1   2    2.04    1.29
  -2  -1  -3   79.82    2.62
   2   1   3   65.19    6.54
   2   1   3   62.01    5.63
  -2  -1  -3   69.70    1.85
   2   1  -2  252.72   23.91
  -2  -1   2  134.60   14.68
   2   1  -2  260.72   25.42
   2   2  -1   51.62    5.05
  -2  -2   1   48.83    2.50
  -2  -2   1    2.07    2.24
   2   2  -1   48.19    7.35
  -1   2   3    0.10    1.45
   1  -2  -3 1353.71  114.70
   1  -2  -3  969.42  115.71
  -1   2   3 1908.49   20.50
   0  -1  -4 1344.71  131.74
   0  -3   1  197.40   18.68
   2  -2   0   85.18    8.27
  -2   2   0   60.65    1.78
  -2   2   0    0.18    0.81
   2   0   3  137.60   14.93
  -2   0  -3    0.05    1.48
  -2   0  -3  150.98    2.34
  -1   3   1   43.77    2.58
  -1   3   1   35.87    2.20
   1  -3  -1   42.72    3.98
   1  -3  -1   32.14    4.11
   0   0   4  412.41   39.79
   0   0  -4  339.52   31.90
   2  -2  -1  248.66    7.29
  -2   2   1  250.94   23.76
   2  -2  -1  192.20    4.53
   1  -3   0   29.59    3.07
   1  -3   0   27.63    3.15
  -1   3   0   -0.04    0.22
  -1   3   0   24.71    1.13
   1   1   4   19.40    6.43
  -1  -1  -4   53.27   11.96
   1   3  -1    1.95    0.52
  -1  -3   1    2.37    0.55
  -1  -3   1    2.82    0.67
   1   3  -1    2.40    0.60
  -2   2  -1  132.08    9.10
   2  -2   1  245.03   23.14
  -2   2  -1  256.98    3.02
   1   0   4  127.47   15.07
   2   2   3    2.89    0.52
   2   2   3    2.73    0.66
  -2  -2  -3    0.02    0.18
  -2  -2  -3   -0.07    0.39
   2   2   3    3.01    2.27
  -2  -2  -3    0.13    0.43
   0   3   3   97.80    5.75
   0   3   3   -0.08    0.86
   0  -3  -3  195.04   12.46
   0  -3  -3  147.11   12.99
  -1   3   2  166.78   13.85
   1  -3  -2  206.49    6.17
   1  -3  -2  173.76    4.99
  -1   3   2  148.85    5.70
   0  -2   3  258.19   26.01
   0  -2   3  288.07   25.92
   0   2  -3   52.70    5.25
   0   2   4   77.14   11.07
   0  -2  -4    2.71    3.40
   0   2   4   47.45    3.99
  -1  -3  -3    0.06    0.29
   1   3   3    9.95    2.00
   1   2   4   23.50    8.80
   1   2   4   19.06    5.82
  -1  -2  -4   30.21    9.72
  -1   3  -1  390.44   37.81
  -1   3  -1  411.66   37.78
   1  -3   1  386.74   36.48
  -2  -3  -1   -0.02    0.21
   2   3   1  112.26    9.69
   2   3   1   89.00    9.17
   2   3   1   84.68   10.56
  -2  -3  -1   -0.03    0.28
  -2  -3  -1   -0.06    0.64
  -2   2   2  308.80    8.99
  -2   2   2    0.07    0.41
   2  -2  -2  240.65    7.76
   2  -2  -2  168.91    6.98
  -3   0   0   -0.30    3.14
  -1   1   4  514.82   43.77
  -1   1   4  596.19   43.44
   1  -1  -4  775.39   76.55
   2   0  -3  425.42   38.11
  -2   0   3  364.79   41.04
  -2   0   3  429.70   39.49
   2   0  -3  324.03   40.09
   2   0  -3  376.54   40.05
   3   1   1  354.66   28.22
   3   1   1  245.00   28.40
   3   1   1  277.41   26.53
   3   1   1  276.35   26.78
   3   1   1  277.56   26.87
   3   0   1  203.09   17.05
   3   0   1  170.48   16.12
  -3   0  -1    2.26    3.97
  -1   0   4  263.36   22.78
   1   0  -4  226.19   19.73
  -1   0   4  160.12   24.04
   1   0  -4  165.78   18.96
  -2  -3  -2 1243.67  104.82
   2   3   2 1650.86  159.64
  -2  -3  -2 1604.24  103.97
   2   3   2 1897.93  159.95
   2   3   2 1954.58  159.02
   2   3   2 1442.92  158.97
   3   1   0    7.51    5.16
   3   1   0    6.08    2.09
  -3  -1   0    3.68    0.86
  -3  -1   0    2.65    1.16
   3   1   0    5.34    0.65
  -2  -3   0    2.62    0.80
  -2  -3   0    0.08    0.79
   2   3   0    2.44    0.66
  -2   1  -3   -0.06    0.65
   2  -1   3  109.97   11.03
   0   1  -4    0.08    0.65
   0  -1   4   13.54    1.61
   0   1  -4   14.69    2.12
   2  -1  -3   34.97    4.97
  -2   1   3   37.04    2.23
  -2   1   3   44.13    4.43
  -1   2  -3  172.48    2.50
   1  -2   3  204.84   19.42
  -1   2  -3    0.09    0.42
  -2  -2   2   15.07    2.41
   2   2  -2   15.29    1.87
  -2  -2   2   17.48    1.41
   2   2  -2   18.89    2.38
   0   3  -2  497.63   45.78
   0  -3   2  475.74   44.63
   0   3  -2  477.95   45.77
   1   2  -3   13.23    1.60
  -1  -2   3   10.88    1.60
  -2   2  -2 1089.67  103.09
  -2   2  -2 1140.10  104.18
   2  -2   2 1298.94  102.48
   2  -2   2 1295.32  102.28
   2  -2   2  979.96  102.13
   3   0  -1  109.62   10.54
   3   0  -1  168.16   16.27
   3   1   2    5.74    2.05
  -3  -1  -2    0.03    0.27
  -3  -1  -2   15.99    7.51
   3   1   2    6.65    0.86
   3   1   2    6.79    1.28
   3   1   2    8.13    1.40
   3   1   2   12.25    7.24
   3   1   2    4.71    1.98
   3   1   2    8.93    1.87
   1  -1   4  302.83   24.88
   1  -1   4  229.12   23.71
   2   1   4   48.72   12.24
   2   1   4  109.03    9.93
  -2  -1  -4    2.20    0.57
  -2  -1  -4  112.84    5.89
  -2  -1   3   44.96    4.14
   2   1  -3   37.97    4.01
  -2  -1   3   20.99    5.12
   2   1  -3   48.96    5.55
   3   0   2  239.69   23.39
  -3   0  -2  484.90   29.67
  -3   0  -2  279.85    8.59
   3   0   2  262.76   24.03
   3   0   2  293.61   24.13
   3  -1   0  169.85   18.64
   3  -1   0  194.61   18.61
   3  -1   0  185.61   17.45
  -1   3   3  171.71   15.71
  -1   3   3   86.72   18.51
   1  -3  -3  183.96    8.15
   1  -3  -3  181.38    5.85
  -1  -3   2  237.93   22.26
   1   3  -2  221.25   20.92
   1   3  -2  218.80   20.92
  -1  -3   2  230.05   22.29
  -3  -1   1    0.26    0.90
  -3  -1   1    1.03    0.32
  -1   2   4  174.74   17.60
  -1   2   4  138.64   13.76
   1  -2  -4  100.43   10.78
   1  -2  -4   82.84   12.09
   3   2   1    1.16    0.92
   3   2   1    0.45    0.34
   3   2   1    1.05    1.34
  -3  -2  -1    0.68    0.79
  -3  -2  -1   -0.23    1.73
   3   2   1    0.48    0.53
  -3  -2  -1    0.71    0.90
   3   2   1    0.79    0.51
   3  -1   1  263.29   26.74
   3  -1   1  257.19   25.28
   3  -1   1  316.05   26.14
  -3   1  -1  272.64   27.01
   3  -1   1  265.17   25.09
   0   4   1  150.98    5.85
   0  -4  -1  158.69   15.15
   0   4   1  145.70    5.84
   0  -4  -1  156.08   15.18
   1   1  -4    0.41    0.57
  -1  -1   4   -0.07    1.14
  -2   0  -4    0.17    0.97
  -2  -3  -3    2.97    2.06
  -2  -3  -3    5.43    0.80
   2   3   3    4.65    0.92
   2   3   3    7.45    1.40
   2   3   3    3.52    1.92
  -2  -3   1    0.40    0.39
   2   3  -1    0.54    0.40
   2   3  -1    0.52    0.52
  -2  -3   1    0.69    1.32
  -1   3  -2    0.34    0.28
   1  -3   2  200.83   19.47
  -1   3  -2  208.07    3.28
   1  -3   2  220.09   19.76
   1   4   1  384.45   36.77
  -1  -4  -1  427.33   37.17
   1   4   1  389.97   36.63
  -1  -4  -1  348.27   37.32
  -3  -2   0    4.90    0.88
   3   2   0    5.69    0.90
   3   2   0    5.53    0.82
  -3  -2   0    7.56    1.90
   3   2   0    6.41    2.22
   3  -1  -1    0.06    0.52
   3  -1  -1    0.16    1.09
   3  -1  -1    0.77    0.88
  -3   1   1    0.44    3.57
   2   2   4  149.99   22.32
   2   2   4  208.26   19.40
  -2  -2  -4  102.51   10.53
  -2  -2  -4   56.55    4.13
   0  -3  -4  615.80   59.62
   0   3   4  592.99   70.31
   0   3   4  770.81   68.61
   1   3   4   11.51    6.19
   1   3   4    4.84    1.93
  -1  -3  -4    8.02    1.49
  -3  -2  -2  131.33    7.62
   3   2   2  189.66   19.93
   3   2   2  265.50   20.76
   3   2   2  294.72   29.98
   3   2   2  181.95   19.43
   3   2   2  197.83   19.60
  -3  -2  -2  163.40    8.74
   0   4   0   90.77    8.37
   0   4   0   78.87    8.28
   0   4   2    2.40    0.94
   0  -4  -2    3.05    0.88
   0  -4  -2    3.02    0.90
   0   4   2    3.05    0.71
   0   4   2    2.99    0.99
  -2   2   3   -0.16    0.93
   2  -2  -3    7.39    3.00
   2  -2  -3   19.28    2.99
   2  -2  -3    6.45    6.05
  -2   2   3   19.69    2.64
  -1  -4  -2   72.10    7.46
   1   4   2   60.75    6.54
   2  -3   0  118.97   11.63
  -2   3   0    0.79    0.37
  -2   3   0   86.18    9.13
   2  -3  -1  177.76   15.80
  -2   3   1   82.59   11.10
   2  -3  -1  209.49   16.67
  -2   3   1  150.54    6.29
  -1  -4   0   85.59    9.07
   1   4   0   73.04    7.37
  -1  -4   0  115.36    9.84
   0   1   5   39.35    7.19
   0  -1  -5   48.05   10.65
  -1  -1  -5    9.15    6.30
  -1  -1  -5    0.53    2.57
   3   1   3   15.90    1.68
   3   1   3   14.08    2.39
  -3  -1  -3   18.99    1.80
  -3  -1  -3   24.03    8.95
  -3  -1  -3   22.16    2.38
   3   1   3   12.54    2.66
   3   0  -2    2.39    2.79
   3   0  -2    0.39    0.39
   3  -1   2  275.53   26.76
   3  -1   2  280.24   28.11
  -3   1  -2  266.40   24.90
  -3   1  -2  249.74   23.99
   0   0   5   21.69    3.53
   0   0  -5   17.64    1.92
   2  -3   1  112.07   11.45
  -2   3  -1  113.84   10.76
  -2   3  -1  109.91   10.54
   2  -3   1  123.31   11.37
  -3  -2   1   70.84    8.07
   3   2  -1   60.97    5.96
  -3  -2   1   61.09    6.20
   3   2  -1   64.74    8.59
  -3   0  -3  710.09   37.90
  -3   0  -3  541.97   10.15
   3   0   3  463.50   40.20
   3   0   3  409.04   38.77
   2  -3  -2   18.90    2.66
   2  -3  -2   11.12    2.38
   2  -3  -2   26.84    7.66
   2  -3  -2   20.03    2.89
  -2   3   2    0.07    0.34
   0  -2   4   30.76    3.26
   0   2  -4   29.66    3.29
   0  -2   4   33.92    3.47
   1   0   5   51.47    7.68
   0  -2  -5   19.29    7.04
   0   2   5   11.77    2.77
   0  -2  -5   33.96    9.53
   0   2   5    5.75    3.22
   1  -4  -1  374.49   31.45
   1  -4  -1  283.95   31.42
   1  -4  -1  330.27   31.07
  -1   4   1  378.96   33.05
  -1   4   1  361.47   32.80
  -1   4   1  308.33   32.69
  -1  -2  -5   27.03    9.67
   1   2   5   11.07    6.16
   1   2   5   19.85    9.23
   2  -2   3  335.34   31.56
  -2   2  -3  241.01   22.58
  -2   2  -3  238.59   24.43
  -3  -1   2    0.72    0.33
   3   1  -2    2.12    2.28
   3   1  -2    0.56    0.46
  -3   1   2   51.95    5.22
   3  -1  -2   59.27    7.59
  -3   1   2   50.55    5.66
   0  -4   1   35.36    3.70
   0   4  -1   39.78    4.13
   1   4   3    5.56    0.85
  -1  -4  -3    6.55    1.50
   1   4   3    5.26    1.43
   0   4   3    0.07    0.91
   0   4   3   -0.08    1.02
   0   4   3   -0.04    0.49
   0  -4  -3   -0.02    0.33
   0  -4  -3    0.21    0.79
  -3  -2  -3   18.45    3.10
   3   2   3   48.39    5.82
  -3  -2  -3   -0.02    0.18
   3   2   3   57.34    5.34
   3   2   3   45.24    5.15
   3   2   3   51.94    7.20
   3   2   3   52.63    5.53
  -2   1  -4  104.25   11.70
   2  -1   4  211.30   20.70
  -2  -2   3   63.23    5.84
  -2  -2   3   42.06    6.59
   2   2  -3   72.88    6.27
   2   2  -3   50.64    5.55
   0   3  -3   89.59    8.54
   0   3  -3   85.76    8.52
   1  -4   0   40.50    4.29
  -1   4   0   39.39    4.03
  -1   4   0   35.83    3.83
   1  -4   0   42.86    4.60
   2   0  -4  696.89   71.92
   2   0  -4  848.14   74.68
  -2   0   4  707.41   83.04
  -2   0   4  902.26   81.37
   2   0  -4  675.63   74.24
   2   0  -4  808.42   71.63
   2  -1  -4  411.65   41.14
  -2   1   4  486.07   28.74
  -2   1   4  512.95   31.52
  -3   2   0  119.47    3.64
   3  -2   0  124.81   20.20
   3  -2   0  151.62   15.24
  -3   2   0   -0.10    3.13
  -1  -4   1    9.12    1.23
  -1  -4   1    8.45    1.36
   1   4  -1    7.25    1.15
  -1  -4   1    8.08    1.19
   1   4  -1    8.16    1.26
  -1   4   2  287.36   28.71
   1  -4  -2  227.01   27.51
  -1   4   2  356.64   28.89
  -1   4   2  253.20   28.79
   1  -4  -2  334.90   27.39
   1  -3  -4   -0.48    1.91
  -1   3   4    0.49    0.98
  -1   3   4    0.12    1.62
   1  -3  -4    0.85    0.98
   2   4   1  298.54   25.40
  -2  -4  -1  222.27    6.45
  -2  -4  -1  300.61    5.71
   2   4   1  236.95   25.15
  -2  -3  -4   26.52    5.11
  -2  -3  -4    0.02    0.21
   2   3   4   52.38    8.12
   2   3   4   80.11   14.49
  -2  -3   2   54.59    6.06
   2   3  -2   71.85    6.25
   2   3  -2   54.08    6.02
  -2  -3   2   57.40    5.67
  -2  -3   2   47.56    7.71
   2   3  -2   57.97    5.97
  -1   2  -4  188.22   18.34
   1  -2   4  237.08   22.53
   3  -2  -1  111.06    9.95
  -3   2   1   84.86    3.09
   3  -2  -1   78.39    8.58
  -3   2   1    0.77    2.67
   3   3   1  314.48   29.83
  -3  -3  -1  270.75   24.32
   3   3   1  385.92   28.59
   3   3   1  354.66   28.34
  -3  -3  -1  258.15   23.18
  -3  -3  -1  208.56   23.66
  -3  -3  -1  228.07   24.14
  -1   1   5  454.14   38.41
   1  -1  -5  493.75   51.55
  -1   1   5  310.26   39.06
  -2  -4  -2  581.77   54.83
  -2  -4  -2  461.42   55.51
  -2  -4  -2  569.07   55.22
   2   4   2  538.32   54.34
   2   4   2  620.66   54.61
  -2  -4  -2  648.34   54.87
   3  -2   1  300.69   29.09
  -3   2  -1  277.01   32.75
   3  -2   1  461.13   33.93
  -3   2  -1  360.64   32.04
  -1  -2   4  155.30   15.25
   1   2  -4  252.68   23.96
  -3  -3  -2   47.14    3.69
   3   3   2   66.20    7.37
   3   3   2   61.34    5.92
   3   3   2   46.79    6.11
  -3  -3  -2   51.08    2.17
  -3  -3  -2   47.88    2.76
  -1  -3   3   58.20    5.60
   1   3  -3   50.94    5.19
  -1  -3   3   49.90    5.50
  -1   0   5    2.52    2.22
   1   0  -5    3.34    2.47
   1   0  -5    5.03    1.77
  -1   0   5    7.14    1.46
   1  -3   3   93.99    9.32
  -1   3  -3   84.12    8.19
  -1   3  -3   84.03    8.13
  -2  -4   0   49.60    7.82
  -2  -4   0   74.70    7.12
   2   4   0   57.75    6.38
   2   4   0   66.00    6.38
   3   3   0   12.54    1.61
  -3  -3   0   11.61    1.73
  -3  -3   0   12.63    2.70
   3   3   0   16.40    3.65
   3   3   0   12.61    1.64
   0  -1   5   48.31    5.12
   0   1  -5   49.13    6.39
   2   1   5  134.01   12.52
   2   1   5   92.02   16.89
  -2  -1  -5  167.89   17.88
  -1   4  -1  349.19   33.75
  -1   4  -1  364.15   33.75
   1  -4   1  336.22   31.95
   2   1  -4   55.88    6.00
   2   1  -4   72.95    7.35
  -2  -1   4   63.85    6.43
   2  -3   2  425.51   34.88
  -2   3  -2    0.04    0.16
   2  -3   2  349.61   34.50
   3  -1   3  436.62   43.42
  -3   1  -3  437.01    9.32
  -3   1  -3    0.07    0.35
   2  -3  -3   98.93   10.11
  -2   3   3  100.32   10.57
   2  -3  -3  130.90   17.96
   2  -3  -3  123.73   11.12
  -2   2   4    0.09    1.22
  -2   2   4    0.87    1.61
  -2   2   4   -0.71    1.99
   2  -2  -4   -0.50    1.21
  -1   2   5  225.85   21.82
   1  -2  -5  119.44   19.87
  -1   2   5  183.42   23.66
   1  -1   5  208.77   17.04
   1  -1   5  161.56   16.14
  -1   1  -5  132.67   15.70
   3   1   4   86.90    8.44
  -3  -1  -4  118.86   11.61
  -3  -1  -4  108.82   11.84
  -3  -1  -4  143.48   22.13
   3   1   4   91.40    9.24
  -2  -2  -5   11.15    1.76
   2   2   5    3.19    3.24
   2   2   5    7.01    3.64
  -2  -2  -5   11.12    2.55
   2   2   5   10.68    8.18
  -2  -2  -5    9.81    1.57
  -2  -2  -5   15.83    9.35
  -2  -4  -3  180.63   25.52
   2   4   3  219.46   23.03
   2   4   3  242.44   22.53
  -2  -4  -3  279.52   24.39
   2   4   3  266.80   23.63
   2   4   3  216.19   22.93
   3   2  -2   16.89    2.01
  -3  -2   2   16.90    3.48
  -3  -2   2   10.13    3.31
   3   2  -2   18.19    4.60
   3   2  -2   19.22    3.02
  -3  -2   2   16.40    1.82
   1   3   5   37.89    8.90
   1   3   5   42.09   10.71
   3   0  -3   10.21    3.13
   3   0  -3    6.56    3.62
   3   0  -3   10.94    1.51
  -3   0   3    9.72    1.31
   3  -2  -2   60.94    6.27
  -3   2   2   49.95    5.16
  -3   2   2   58.55    3.48
   3  -2  -2   50.69    6.51
  -1   4   3    4.73    1.47
   1  -4  -3    4.42    1.10
  -1   4   3    4.28    3.97
   1  -4  -3    4.92    1.45
   1  -4  -3    7.95    1.56
   1  -4  -3    3.62    1.81
   0   3   5    9.38    7.20
   0  -3  -5   16.89    3.61
   0  -3  -5    5.29    4.21
   0   3   5   13.25    4.16
   0   3   5   13.95    2.38
  -2   0  -5  202.53   21.20
   2   0   5  311.01   33.80
  -1  -4  -4  415.78   40.63
   1   4   4  288.62   28.78
  -1  -4  -4  421.62   39.98
   3   3   3   84.08    8.97
   3   3   3   94.27   10.47
  -3  -3  -3   60.63   10.12
  -3  -3  -3   95.97    9.14
  -3  -3  -3   88.53    8.58
   3   3   3   69.72    9.38
  -3  -3  -3   87.70    9.52
   3   3   3  104.47    9.09
   0  -4   2   26.14    2.81
   0   4  -2   29.77    3.19
  -3   2  -2  494.39   57.93
   3  -2   2  638.37   57.91
   3  -2   2  647.45   58.12
   3  -2   2  583.28   57.94
  -3   2  -2  582.26   55.41
  -3   2  -2  688.59   56.56
   0  -4  -4    1.21    0.72
   0  -4  -4    2.12    2.01
   0   4   4    3.57    1.80
   0  -4  -4    0.19    0.39
   3  -1  -3   18.45    3.78
  -3   1   3   17.17    1.32
  -3   1   3   21.44    3.28
   3   2   4   73.47    8.76
   3   2   4   85.14    7.85
  -3  -2  -4   90.34    4.64
   3   2   4   75.86    7.80
   3   2   4   60.95   10.38
  -3  -2  -4    0.32    1.19
   3   0   4  480.24   46.98
  -3   0  -4  364.16   34.47
  -3   0  -4  413.10   35.72
  -1  -1   5   13.56    2.76
   1   1  -5   28.65    3.99
   1   1  -5   33.36    3.60
   3   3  -1    5.94    3.16
  -3  -3   1    7.25    2.26
  -3  -3   1    6.93    1.18
   3   3  -1    6.76    1.02
   3   1  -3   68.85    8.59
   3   1  -3   57.22    5.79
  -2  -4   1    1.31    1.80
   2   4  -1    1.24    0.55
   2   4  -1    1.32    0.55
  -2  -4   1    1.65    0.74
  -1  -4   2  455.99   46.20
  -1  -4   2  518.18   46.11
   1   4  -2  446.16   42.01
   1   4  -2  443.86   41.98
   4   1   1  107.36   10.83
   4   1   1  109.88   10.52
   4   1   1   95.98   13.09
   4   1   1  104.25   10.57
   2  -2   4  885.91   83.00
  -2   2  -4  724.26   67.65
   4   0   1   82.55   10.30
  -4   0  -1  212.13   28.77
   4   0   1  101.93   10.10
   4   0   1  132.78   11.49
   4   0   1  135.33   12.11
   4   0   0   33.25    3.58
  -4   0   0   -0.39    4.34
   4   1   0    7.06    0.78
   4   1   0   10.55    2.82
   4   1   0    5.32    3.17
   4   1   0    7.48    1.20
  -4  -1   0    6.01    1.39
  -4  -1   0    8.49    2.03
   4   1   0   11.18    6.07
   2  -4  -1  234.36   20.78
   2  -4  -1  185.97   21.17
  -2   4   1  222.32   20.97
  -2   4   1  196.70   25.81
  -2   4   1  214.59   21.68
  -1   4  -2  280.28   27.00
   1  -4   2  282.53   26.58
  -1   4  -2  285.41   27.18
  -1   4  -2  292.54   27.04
   1  -4   2  279.81   26.86
  -2   4   0   50.95    5.44
  -2   4   0   45.65    4.76
   2  -4   0   53.81    5.83
  -2   4   0   43.76    4.68
   2  -4   0   54.30    5.64
  -2  -3  -5    0.10    0.20
   2   3   5    7.93    3.52
  -2  -3  -5    2.84    3.26
  -2  -3   3   26.32    5.68
  -2  -3   3   38.85    3.84
  -2  -3   3   30.67    4.15
   2   3  -3   48.25    5.11
   0  -1  -6    9.80    2.29
   0  -1  -6   14.92    6.50
   0   1   6   12.97    4.69
   0   5   1  142.09   14.64
   0   5   1  159.54   14.82
   0   5   1  148.98   14.70
   0  -5  -1  170.53   16.50
   4   1   2   10.49    1.29
   4   1   2   10.66    2.06
   4   1   2   10.30    3.32
   4   1   2    9.91    1.69
  -4  -1  -2   11.85    1.68
  -4  -1  -2   16.92    8.67
   4   1   2    8.90    2.18
   4   1   2   16.73    2.97
  -1  -1  -6   50.89   10.34
  -1  -1  -6   77.42   14.70
   1   1   6   55.89   10.24
  -2  -4  -4  343.73   30.98
  -2  -4  -4  343.46   30.78
   2   4   4  340.52   30.97
   2   4   4  356.17   33.00
   2   4   4  277.70   31.63
  -1  -5  -1   25.22    3.36
   1   5   1   28.70    3.55
   1   5   1   32.91    3.53
   0  -3   4   34.92    3.79
   0  -3   4   40.45    4.04
   0   3  -4   39.26    3.96
   0   3  -4   36.43    3.97
  -2  -2   4    0.88    0.72
   2   2  -4    0.91    0.63
   2   2  -4    0.38    0.75
  -2  -2   4    0.85    1.46
  -3   3   0    8.45    1.35
  -3   3   0  398.18   10.01
   3  -3   0  418.54   39.66
  -1  -5  -2   23.97    2.99
   1   5   2   21.55    2.89
   1   5   2   21.44    2.71
   1  -3  -5   14.32    3.23
  -1   3   5   19.64    5.22
  -1   3   5   35.21    4.53
  -1   3   5   32.35    7.79
   0   5   2  135.47   11.09
   0  -5  -2   96.35    9.82
   0  -5  -2   97.96    9.80
   0   5   2   83.49   10.11
  -3   2   3    0.28    1.26
   3  -2  -3    0.53    1.86
   3  -2  -3    0.66    1.53
  -3   2   3   -0.06    0.56
  -3   2   3    1.41    0.70
  -2   3  -3  268.08   22.06
  -2   3  -3  219.87   20.40
   2  -3   3  246.36   22.55
  -2   3  -3  198.55   20.57
   2  -3   3  229.41   22.30
   3  -3  -1  114.82   10.23
   3  -3  -1  108.39   10.16
   3  -3  -1  134.47   16.90
  -3   3   1   -0.04    0.17
  -3   3   1    2.92    1.04
  -2   4   2   35.98   10.56
   2  -4  -2   69.09    6.96
   2  -4  -2   86.41    7.71
  -2   4   2   51.20    7.33
   2  -1   5  825.31   79.88
   2  -1   5  888.93   81.35
   4   0   2   23.12    2.94
  -4   0  -2   35.24   10.34
   4   0   2   19.04    2.51
  -4   0  -2    4.28    0.83
   4   0   2   18.32    1.99
  -2   3   4   48.28    7.23
  -2   3   4   66.77    7.28
   2  -3  -4   53.29    5.92
   2  -3  -4   28.82    6.17
   2  -3  -4   43.18   11.53
  -1  -2  -6   21.90    9.27
   4   2   1   89.39    7.74
   4   2   1  106.56   16.50
   4   2   1   66.14    7.78
   4   2   1   71.11    7.51
   4   2   1   73.21    9.03
  -4  -2  -1   85.36    8.03
  -4  -2  -1   52.24    7.37
   4   2   1  106.61   10.49
  -1   4   4  107.71   12.01
   1  -4  -4   89.24    9.91
   1  -4  -4  108.51   11.14
  -3  -3  -4    8.27    1.75
   3   3   4    7.31    2.78
   3   3   4    8.53    1.33
   3   3   4    6.73    1.91
   3   3   4   10.54    1.99
   3   3   4    8.51    1.16
  -3  -3  -4    6.34    1.73
   0  -2   5  117.23   10.45
   0  -2   5   97.59   10.19
   0   2  -5   82.17    9.51
   0   2  -5  116.60   10.31
  -2   1   5  939.01   87.36
   2  -1  -5 1324.74   92.73
   2  -1  -5  717.12   90.70
  -2   1   5 1055.08   85.61
   4   0  -1    0.87    0.43
   0  -2  -6    2.18    4.49
   0  -2  -6   -0.45    5.19
   0   2   6   -0.80    2.94
   0   2   6   -0.12    1.53
   0   0   6    4.70    2.00
   0   0  -6    0.83    0.34
   0   5   0  261.33   25.10
   0   5   0  267.32   25.17
   0   5   0  260.28   25.22
  -2   0   5  727.19   65.23
   2   0  -5  466.93   49.34
  -2   0   5  544.49   67.25
   2   0  -5  657.91   52.06
   3   4   1  508.46   56.72
  -3  -4  -1  485.02   45.83
  -3  -4  -1  403.42   45.68
  -3  -4  -1  478.94   46.57
   3   4   1  599.09   54.23
   3   4   1  561.83   54.36
  -3  -4  -1  521.51   45.27
  -3   1  -4    0.12    0.58
  -3   2  -3  175.65   19.96
  -3   2  -3  173.74   16.99
   3  -2   3  225.72   21.32
  -4  -1   1   83.05    8.45
   4   1  -1  180.69   23.21
  -4  -1   1  138.15   11.04
  -3  -4  -2  428.52    9.84
   3   4   2  485.11   44.95
   3   4   2  390.38   42.74
  -3  -4  -2  449.28    7.68
   3   4   2  472.11   43.36
   3   4   2  515.82   42.86
   4  -1   0  106.48   10.36
  -4   1   0    0.39    3.88
   4  -1   0   81.65    8.13
   4  -1   0  100.34    8.49
  -1  -5   0  168.09   15.43
  -1  -5   0  144.61   14.61
   1   5   0  124.65   13.09
   1   5   0  142.94   13.10
   1   0   6  150.35   16.94
   4   2   2   39.83    5.15
   4   2   2   26.36    3.08
  -4  -2  -2   30.10    3.40
   4   2   2   32.92    4.47
  -4  -2  -2   24.18    4.70
   4   2   2   29.46    3.72
   4   2   2   32.00    3.64
  -3   3  -1  361.95   34.69
   3  -3   1  355.98   33.64
  -3   3  -1  352.51   33.20
   2  -4   1  175.20   16.84
  -2   4  -1  169.58    2.55
   2  -4   1  173.31   16.61
  -2   4  -1  175.19    4.20
  -4  -2   0  234.90   18.04
  -4  -2   0  168.04   16.36
   4   2   0  185.88   19.07
   4   2   0  200.92   18.89
   4   2   0  195.73   18.67
   4  -1   1  632.68   49.47
   4  -1   1  536.96   48.20
   4  -1   1  533.76   50.39
   4  -1   1  489.11   47.84
   1  -3   4  297.80   29.55
   1  -3   4  319.50   29.40
  -1   3  -4  286.91   26.89
  -1   3  -4  282.00   27.08
  -3  -2   3   31.04    5.48
  -3  -2   3   39.87    3.78
   3   2  -3   34.89    3.86
   3   2  -3   47.58    5.18
  -1  -3   4    0.92    0.62
  -1  -3   4    1.34    0.67
  -1   2  -5   45.74    5.70
  -1   2  -5   52.63    6.54
   1  -2   5   82.51    8.28
  -1  -5  -3   74.70    8.97
  -1  -5  -3  121.30    9.69
   1   5   3   95.45   10.15
  -3  -3   2   53.87    5.15
   3   3  -2   74.38    7.97
  -3  -3   2   39.17    6.22
  -3  -3   2   42.62    6.77
  -1  -4  -5   34.84    4.53
  -1  -4  -5   38.98    3.95
  -1  -4  -5   36.42    5.29
   1   4   5   33.14    9.05
   1   4   5   22.03    4.24
   3  -3  -2  142.36   20.95
   3  -3  -2  126.21   13.68
   3  -3  -2  108.65   13.30
  -3   3   2    0.12    0.30
   0   5   3  206.83   18.38
   0   5   3  172.58   18.21
   0  -5  -3  198.75   18.42
   0  -5  -3  230.45   18.75
   0   5   3  171.77   17.63
  -2  -4   2    1.14    0.60
  -2  -4   2    2.24    2.17
   2   4  -2    1.26    0.59
  -2  -4   2    0.59    0.68
   2   4  -2    0.37    0.54
   3   1   5    0.48    2.87
   3   1   5    1.93    2.37
   3   1   5    1.23    0.74
  -3  -1  -5    0.05    0.14
  -3  -1  -5    0.62    1.02
  -3  -4   0  585.38   56.31
  -3  -4   0  610.60   55.98
   3   4   0  620.13   58.38
  -3  -4   0  558.42   57.39
   0   4  -3  101.54    9.75
   0   4  -3   98.02    9.74
   4  -1  -1  272.72   28.43
   4  -1  -1  249.66   29.43
   4  -1  -1  301.26   27.49
   4  -1  -1  292.23   29.63
   4   1   3  233.97   27.79
  -4  -1  -3  293.25   28.60
   4   1   3  281.35   26.39
   4   1   3  211.06   27.30
  -4  -1  -3  465.53   45.58
   4   1   3  299.03   26.10
  -3   0   4  639.33   57.80
   3   0  -4  497.69   53.31
   3   0  -4  545.94   50.49
  -3   0   4  576.95   54.92
   3   0  -4  504.07   53.89
   0   4   5  170.22   15.87
   0  -4  -5   68.64    7.74
   0  -4  -5  133.78    8.05
   0   4   5  130.69   17.87
   2  -2  -5  319.18   32.71
  -2   2   5  316.94   36.95
  -2   2   5  312.94   34.54
  -1  -2   5  163.55   16.40
   1   2  -5  255.64   24.28
  -1   1   6  639.94   83.38
   1  -1  -6 1034.91  103.32
  -1   1   6  827.02   82.35
   3   4   3 2044.30  168.46
  -3  -4  -3 1738.52  152.06
   3   4   3 1724.57  167.89
   3   4   3 1939.67  166.92
  -3  -4  -3 1704.20  152.48
   3   4   3 1578.45  166.93
  -3   1   4  372.57   32.07
  -3   1   4  302.21   29.32
   3  -1  -4  301.90   31.22
  -1   5   1    1.97    0.74
   1  -5  -1    2.41    0.76
   1  -5  -1    1.93    0.93
   1  -5  -1    2.40    0.59
  -1   5   1    1.92    0.79
  -3  -2  -5   33.22    3.80
   3   2   5   23.22    6.23
   3   2   5   34.47    3.42
  -3  -2  -5   36.68    4.88
  -3  -2  -5   43.29    4.18
   3   2   5   26.77    4.88
   2  -4  -3   17.98    2.95
   2  -4  -3   11.38    2.20
  -2   4   3   14.73    2.33
   2  -4  -3   18.23    2.81
  -2  -1  -6   96.78   17.18
  -2  -1  -6   56.27    8.14
  -2  -5  -2  634.49   10.28
  -2  -5  -2  674.81    8.52
   2   5   2  824.15   59.06
   2   5   2  517.25   58.02
  -2  -5  -1  156.98    8.97
  -2  -5  -1  130.20    9.52
   2   5   1  134.55   14.90
   2   5   1  173.78   15.13
   4  -1   2  552.59   56.62
  -4   1  -2    0.04    0.16
  -4   1  -2  581.70   15.18
   4  -1   2  582.04   54.52
   2   1  -5  413.81   43.17
  -2  -1   5  310.70   46.20
  -2  -1   5  501.17   44.10
   2   1  -5  547.73   44.17
  -4   0  -3   13.70    8.32
   4   0   3    8.18    1.77
  -4   0  -3    9.05    2.16
  -4   0  -3    7.77    1.32
   1  -5  -2    2.25    0.91
  -1   5   2    3.76    1.20
   1  -5  -2    2.28    1.11
  -1   5   2    2.59    1.01
  -1   5   2    2.17    1.05
   1  -5  -2    2.51    0.76
  -4  -2  -3  149.68   13.95
  -4  -2  -3  135.36   13.39
   4   2   3  138.09   15.42
   4   2   3  137.24   14.68
   4   2   3  131.02   14.35
   4   2   3  141.71   14.12
   4   2   3  177.92   15.73
   1   3   6   -0.48    4.57
   1   3   6    0.54    5.81
   0  -5   1  116.13   11.33
   0   5  -1  111.03   10.91
  -1  -4   3    6.67    1.11
  -1  -4   3    6.02    1.18
   1   4  -3    5.74    1.07
   1   4  -3    5.65    1.04
   2   2   6    3.91    3.35
  -2  -2  -6   14.12    2.24
   2   2   6    7.56    5.08
  -2  -2  -6   13.52    3.19
   1   0  -6  103.63   10.99
  -1   0   6   40.05   10.01
  -1   0   6  109.57    9.13
   4   2  -1    0.95    1.76
   4   2  -1    0.71    0.34
  -4  -2   1    0.44    1.22
  -4  -2   1    0.92    0.53
   4   0  -2  139.94   13.33
  -4   0   2   85.73    8.11
  -1   5   0  102.46    9.90
   1  -5   0  117.94   11.92
   1  -5   0  132.27   12.61
  -1   5   0   96.01    9.70
  -3   0  -5  541.83   45.23
  -3   0  -5  455.22   43.31
   0   3   6   61.72   10.59
   0  -3  -6   67.02    9.28
   0   3   6   65.17    8.15
   1  -2  -6  569.35   42.06
  -1   2   6  288.06   24.61
  -1   2   6  160.88   25.01
   1  -2  -6  196.44   37.91
  -1  -5   1  313.60   29.94
  -1  -5   1  310.09   29.54
   3  -3   2    0.07    0.39
  -3   3  -2    0.19    1.61
  -3   3  -2    2.78    1.14
   3  -3   2    0.12    0.23
   0  -1   6  105.80   10.87
   0   1  -6  108.39   12.91
   3   1  -4  481.48   47.13
  -3  -1   4  489.76   46.19
   3   1  -4  658.00   50.59
   1  -4   3  107.67   10.74
  -1   4  -3  108.37   10.49
   4   1  -2    9.97    4.02
  -4  -1   2    7.28    0.92
   4   1  -2    9.39    1.27
  -4  -3  -1  123.76   11.21
  -4  -3  -1   88.01   12.07
   4   3   1  134.39   11.79
   4   3   1  161.95   14.84
  -4  -3  -1   89.39   10.60
   4   3   1  108.24   11.54
   4   3   1  103.09   11.82
   4   3   1  136.20   12.47
  -2  -5  -3  826.81   69.73
   2   5   3  820.20   68.14
   2   5   3  640.82   67.58
  -2  -5  -3  774.36   69.10
  -2  -5  -3  723.15   69.12
  -2  -5   0    8.79    1.70
  -2  -5   0    6.49    2.51
   2   5   0    7.80    1.40
   2   5   0    8.12    1.39
   2  -4   2   23.99    2.51
  -2   4  -2   22.45    2.41
   2  -4   2   22.89    2.78
  -2  -4  -5  255.58   21.96
  -2  -4  -5  235.62   21.47
   2   4   5  288.94   26.71
   2   4   5  304.23   36.64
   2   4   5  228.04   29.11
  -2   0  -6   -0.21    1.76
   2   0   6   20.36    5.50
  -1   1  -6   84.17   11.62
   1  -1   6   94.35    9.95
   1  -1   6  139.60   11.08
  -4  -3  -2  102.03    9.87
   4   3   2  147.74   12.51
   4   3   2   81.35    9.06
  -4  -3  -2   74.18   10.88
  -4  -3  -2   65.46    9.97
   4   3   2  112.30    9.93
   4   3   2   95.86    9.58
   4   3   2  134.03   19.58
  -4  -3  -2   94.19    8.80
   4   3   2   87.33    9.57
  -1  -5  -4  122.31   12.84
   1   5   4   85.61    9.46
   1   5   4   81.89    8.41
   4  -1  -2  170.25   16.62
  -4   1   2  183.22   19.36
   4  -1  -2  174.35   18.78
  -3  -4   1   86.55   12.32
   3   4  -1  111.24   10.89
  -3  -4   1  120.03   11.16
   3  -3  -3  108.94   21.16
   3  -3  -3   98.72   14.55
   3  -3  -3  157.94   15.09
  -3   3   3  160.75   15.87
  -3   2   4    6.84    2.40
  -3   2   4   11.85    1.63
  -3   2   4    4.51    2.18
   3  -2  -4    4.56    2.05
   4  -2   0    4.49    1.62
   4  -2   0    3.82    0.72
   4  -2   0    3.79    0.65
   4  -2   0    6.66    2.02
   0  -5  -4    9.44    1.39
   0  -5  -4   11.22    2.24
   0   5   4    5.96    2.10
   0  -5  -4    6.55    2.58
   0   5   4   11.88    2.46
   1  -5  -3    1.98    1.01
   1  -5  -3    1.74    1.30
  -1   5   3    0.91    0.90
   1  -5  -3    1.64    1.06
   1  -5  -3    2.09    0.83
  -1   5   3    1.90    1.08
   3   3   5   61.03    5.83
   3   3   5   57.54    9.42
  -3  -3  -5   60.65    7.36
  -3  -3  -5   60.69    7.26
  -3  -3  -5   65.12    6.47
   3   3   5   48.57    7.23
   4   3   0  108.34   10.73
   4   3   0  109.37   10.59
  -4  -3   0   88.85    9.55
   4   3   0  103.65   10.95
  -4  -3   0   84.55   11.58
  -3  -4  -4  177.30   28.13
   3   4   4  339.17   32.07
   3   4   4  267.24   30.11
  -3  -4  -4  323.20   26.92
   2  -2   5   99.51    9.88
   1  -4  -5    5.30    2.41
  -1   4   5    9.36    1.92
   1  -4  -5    3.42    1.47
   1  -4  -5    3.50    2.72
  -1   4   5    6.26    2.73
   1  -4  -5   11.31    2.46
   4  -2   1   98.53   16.47
  -4   2  -1  124.02   13.81
   4  -2   1  114.86   11.84
   4  -2   1  144.03   12.12
   1  -5   1    2.71    0.96
   1  -5   1    2.88    0.69
  -1   5  -1    3.75    0.88
  -1   5  -1    3.10    0.67
  -1   5  -1    2.80    0.80
   2   3   6   40.25    8.21
   2   3   6   46.16    9.66
  -2  -3  -6   -0.04    0.19
   2   3   6   59.91   14.05
  -2  -3  -6   48.97    3.07
   4  -2  -1  164.18   13.85
  -4   2   1  124.88   11.83
   4  -2  -1  108.03   11.94
   2  -3   4    8.43    1.32
  -2   3  -4    5.42    1.42
   2  -3   4    9.10    1.44
  -2  -3   4    3.66    1.45
   2   3  -4    6.19    1.17
  -2  -3   4    5.85    1.10
  -2  -3   4    2.49    2.38
  -4  -1  -4  239.40    9.03
   4   1   4  196.50   19.25
  -4  -1  -4  229.24    6.73
   4   1   4  157.61   19.36
   4   1   4  198.67   17.83
  -3   2  -4    0.07    0.62
   3  -2   4    1.80    0.71
  -3   2  -4   -0.63    3.48
  -2   3   5   97.75   12.47
   2  -3  -5   55.15    6.86
   2  -3  -5   38.56    7.84
  -2   3   5  100.52   10.39
  -2   3   5   65.55   10.76
  -4   1  -3    0.03    0.24
   4  -1   3    7.49    1.96
   4  -1   3    9.27    3.33
  -4   1  -3    6.44    1.70
   1   1  -6   88.54   13.02
  -1  -1   6   48.02    6.27
   1   1  -6  147.91   12.50
  -4  -3  -3    2.57    0.73
  -4  -3  -3    3.64    1.11
  -4  -3  -3    3.04    2.44
   4   3   3    4.12    1.78
   4   3   3    3.32    1.18
   4   3   3    1.16    5.76
   4   3   3    3.49    1.06
  -4  -3  -3    2.23    2.13
   4   3   3    2.39    0.96
   4   3   3    3.33    0.71
   4   3   3    2.71    1.32
  -2   4   4   40.48    5.35
   2  -4  -4   42.49    5.27
   2  -4  -4   38.30    5.86
   4   2   4   51.97    5.35
   4   2   4   52.54    5.96
   4   2   4   53.51    6.42
  -4  -2  -4   58.96    6.50
   4   2   4   51.97    8.04
  -4  -2  -4   57.58    5.82
  -3  -3   3   39.12    6.68
   3   3  -3   63.00    6.39
   3   3  -3   52.15    5.60
  -3  -3   3   45.16    7.55
  -3  -3   3   58.29    5.50
   1  -3  -6  682.19   74.32
  -1   3   6  852.04   74.00
  -1   3   6  971.11   81.19
  -4  -2   2  110.29   10.91
  -4  -2   2  137.59   13.74
   4   2  -2  108.67   10.94
   4   2  -2  136.93   13.49
   4   2  -2  128.96   15.12
   3  -1   5    1.21    1.63
  -3   1  -5    3.59    1.59
   0  -5   2   21.98    2.51
   2   5   4  224.53   21.48
  -2  -5  -4  288.04   26.02
   2   5   4  223.43   22.78
   2   5   4  270.51   23.60
  -2  -5  -4  277.21   25.02
   2   5   4  222.05   22.15
  -2  -5  -4  277.65   25.32
   2   5  -1   14.79    1.98
  -2  -5   1   15.00    1.90
  -2  -5   1   14.01    2.19
  -2  -5   1   11.48    3.55
   2   5  -1   14.35    1.96
  -2  -4   3  183.84   17.45
   2   4  -3  170.22   16.49
  -2  -4   3  171.64   17.12
   4   0   4  143.91   18.22
  -4   0  -4  144.78   14.20
  -4   0  -4  176.60   25.81
  -4   0  -4  128.40   13.54
   4   0   4  116.63   13.37
   0   3  -5  241.59   23.15
   0  -3   5  248.84   24.99
   0  -3   5  289.47   25.29
  -2  -2   5    3.26    1.85
   2   2  -5    5.75    1.21
   2   2  -5    6.70    1.45
  -2  -2   5    7.09    1.32
  -3  -2   4  251.40   20.46
   3   2  -4  264.89   21.90
   3   2  -4  202.41   20.39
  -3  -2   4  106.09   21.50
   4   0  -3    3.30    3.60
   4   0  -3    9.48    3.07
  -4   0   3   -0.39    1.07
   4   0  -3   12.75    3.81
   4   0  -3    7.28    1.22
  -3   4   1    7.63    2.09
   3  -4  -1    7.82    1.46
  -3   4   1    7.63    1.20
   3  -4  -1    7.79    0.97
  -1  -5   2   19.45    2.37
  -1  -5   2   18.67    2.32
  -1  -5   2   21.41    2.63
   1   5  -2   19.30    2.43
   1   5  -2   19.12    2.37
   4  -2   2   32.12    3.29
  -4   2  -2   37.34    5.21
   4  -2   2   66.50    5.92
   4  -2   2   34.96    3.55
   4  -2   2   54.35    6.74
   3  -3   3   22.06    2.24
  -3   3  -3   10.31    2.90
  -3   3  -3   17.11    2.28
  -3   3  -3   17.40    3.68
   3  -3   3   20.05    1.93
   3  -3   3   15.05    1.64
   3  -4   0   93.30    9.72
  -3   4   0   68.14    6.85
   4   3  -1  200.56   20.21
  -4  -3   1  239.32   23.01
  -4  -3   1  236.15   24.83
   4   3  -1  215.81   20.01
   4   3  -1  227.20   24.38
   2  -1   6    1.60    2.50
   2  -1   6    2.21    1.55
   4  -2  -2  120.75   14.47
  -4   2   2  174.20   14.24
   4  -2  -2  174.42   15.88
  -4   2   2  137.71   14.04
   1   4   6   57.95   11.84
  -1  -4  -6   64.24    9.07
   1   4   6   74.58   14.46
  -1  -4  -6   77.87    7.90
   1   4   6   52.68    6.03
  -2   1   6  852.47   77.70
  -2   1   6  738.90   79.54
   2  -1  -6  942.62   92.65
  -1  -1  -7  100.22   17.44
  -1  -1  -7   73.07   13.61
   1   1   7   94.51   14.10
  -2   5   1  108.90   10.93
  -2   5   1  110.61   11.64
   2  -5  -1  115.80   11.30
   2  -5  -1   99.76   11.87
   0  -1  -7   26.00    3.29
   0  -1  -7   21.53    8.12
   0   1   7   24.29    5.34
   0  -4   4  114.02   11.08
   0   4  -4  101.31    9.70
   0   4  -4   95.66    9.65
  -1   5   4   77.73    8.56
  -1   5   4   55.95   12.75
   1  -5  -4   64.33    6.85
   1  -5  -4   38.18    7.52
   0   4   6  128.44   18.67
   0   4   6  176.60   23.63
   0  -4  -6  145.11   13.54
   0  -4  -6   65.37   12.85
   0   4   6  172.14   16.45
   4  -1  -3   91.69   11.54
  -4   1   3   70.08    8.94
  -4   1   3   96.11   10.51
  -4   1   3   89.54    8.32
   1  -3   5   24.52    2.91
  -1   3  -5   19.54    2.71
  -1   3  -5   20.82    2.31
  -1   3  -5   21.34    3.55
   3   5   2  118.91   12.96
  -3  -5  -2  145.34   13.58
  -3  -5  -2  134.18   14.22
  -3  -5  -2  107.83   14.30
  -3  -5  -2  153.58   13.99
   3   5   2  123.14   13.37
  -1  -2  -7   51.02   13.53
   4   1  -3  112.58   13.58
  -4  -1   3  101.55    9.77
   4   1  -3   96.31    9.48
  -3  -4   2  135.52   17.34
   3   4  -2  224.98   18.71
  -3  -4   2  165.14   15.21
   3   4  -2  173.95   18.24
  -3  -4   2  145.00   15.89
  -2   4  -3    0.02    0.50
   2  -4   3    0.48    0.61
   2  -4   3    0.15    0.28
  -2   4  -3    0.34    0.38
  -3  -1  -6    0.02    0.18
   3   1   6   40.63    9.70
   3   1   6   59.98    5.86
  -3  -1  -6   70.05    5.61
  -2   0   6   19.73    5.22
  -2   0   6   32.49    3.61
   2   0  -6   35.00    5.87
  -3  -5  -1   38.28    5.21
  -3  -5  -1   48.16    5.26
  -3  -5  -1   47.28    4.82
   3   5   1   52.43    5.44
  -3  -5  -1   43.12    5.80
   3   5   1   44.76    5.38
   0  -2   6  124.30   13.40
   0   2  -6  128.01   12.26
   0  -2   6  160.59   13.71
   0   2  -6   98.91   11.40
   3  -4  -2   41.10    6.48
   3  -4  -2   85.59    7.80
   3  -4  -2   57.00    7.03
  -3   4   2   62.21    6.50
   3  -4  -2   71.33    6.86
  -1  -5  -5   42.97    5.72
   1   5   5   27.80    4.70
  -1  -5  -5   42.72    5.07
   0   2   7   26.65    6.87
   0  -2  -7   86.45   15.08
   0  -2  -7   36.26   10.49
  -1  -3   5  113.70    9.77
  -1  -3   5   80.73    9.51
  -2   5   0   55.27    5.64
   2  -5   0   60.96    6.76
  -2   5   0   55.94    6.24
   2  -5   0   81.14    7.68
  -2   5   0   51.16    5.49
  -3  -2  -6  323.25   31.09
   3   2   6  218.34   31.17
   3   2   6  286.24   26.82
  -3  -2  -6  305.95   29.45
  -3   1   5    1.63    1.94
  -3   1   5    0.31    0.84
  -3   1   5    0.38    2.25
   3  -1  -5    0.76    2.17
   3   0  -5  274.31   25.55
   3   0  -5  216.21   24.76
   3   0  -5  218.09   20.76
  -3   0   5  291.45   31.64
  -3   0   5  307.47   29.01
   3   0  -5  196.93   21.18
   2  -5  -2    1.22    0.61
  -2   5   2    2.79    4.19
  -2   5   2    1.22    1.05
  -2   5   2    1.63    0.83
   2  -5  -2    1.47    0.97
   3  -3  -4   54.73    9.50
  -3   3   4  140.43   12.57
  -3   3   4   87.24   11.25
   3  -3  -4   82.66    9.45
   3  -3  -4   58.54   15.40
   3  -3  -4   97.15   10.46
   3  -4   1  124.99   11.31
   3  -4   1  105.18   11.36
  -3   4  -1  117.65    3.31
  -3   4  -1  136.74    6.55
  -1   5  -2   15.51    2.04
  -1   5  -2   15.91    1.95
  -1   5  -2   17.05    2.15
   1  -5   2   17.10    2.27
   1  -5   2   15.78    1.93
  -4  -3  -4    0.29    2.09
  -4  -3  -4   -0.22    0.71
   4   3   4    0.70    0.51
  -4  -3  -4    0.51    0.50
   4   3   4    0.56    0.42
   4   3   4    0.36    0.85
   4   3   4    0.35    0.64
   4   3   4    2.56    6.11
   4   3   4    0.90    1.27
   4   3   4    0.53    1.75
   0  -5  -5   41.32    4.92
   0   5   5   37.86    5.80
   0  -5  -5   14.96    4.43
   2  -2  -6  659.00   65.20
  -2   2   6  682.74   91.40
  -2   2   6 1080.50   88.81
  -2   2   6 1089.21   90.94
  -2   2   6  800.73   89.10
  -1  -4   4   10.75    1.61
   1   4  -4    9.65    1.49
   1   4  -4    9.82    1.44
  -1  -4   4   11.04    1.73
  -1   2  -6   93.90   11.42
   1  -2   6  129.71   12.81
   1  -2   6  129.36   12.32
   0   0  -7   26.98    2.73
   0   0   7   34.28    5.00
  -3  -4  -5   31.19    3.33
   3   4   5   40.58    4.74
   3   4   5   31.92    6.17
  -3  -4  -5   29.47    3.53
   3   4   5   30.11   11.01
   3   5   3  702.81   75.77
  -3  -5  -3  927.37   12.90
   3   5   3  807.76   75.35
   3   5   3  777.75   77.11
  -3  -5  -3  879.82   10.69
   3   5   3  944.23   76.34
  -4  -4  -2   37.21    3.79
  -4  -4  -2   32.00    5.07
   4   4   2   30.43    4.42
  -4  -4  -2   24.75    4.65
   4   4   2   40.21    4.67
   4   4   2   46.22    6.41
   4   4   2   44.43    4.51
  -4  -4  -2   35.73    4.50
   1   0   7  142.92   14.25
   1   0   7  101.70   12.79
  -1   0  -7   44.87   10.15
   4   4   1   83.81    8.34
  -4  -4  -1   77.84    8.21
   4   4   1   96.69    8.68
  -4  -4  -1   69.27    8.55
   4   4   1   91.49   11.29
  -4  -4  -1   59.22    7.48
   4   4   1   71.23    8.13
  -1   4  -4   19.61    2.35
  -1   4  -4   20.13    2.27
   1  -4   4   21.45    2.74
  -1  -6  -2   34.56    4.08
   1   6   2   27.86    3.56
   1   6   2   26.47    3.35
   2   4   6    1.16    6.03
   2   4   6    1.43    2.71
  -2  -4  -6    2.67    1.00
  -2  -4  -6    2.86    0.64
   1   6   1  437.37   38.75
   1   6   1  375.78   38.72
  -1  -6  -1  459.97   43.58
   3   5   0   18.03    2.24
  -3  -5   0   16.73    2.47
   3   5   0   14.94    2.30
  -3  -5   0   14.26    3.17
   0   6   1   14.36    2.29
   0   6   1   20.54    2.55
   0   6   1   15.75    2.30
   0  -6  -2  292.75   26.68
   0  -6  -2  345.27   26.87
   0   6   2  219.82   25.47
   0   6   2  332.09   26.03
  -3   0  -6    6.06    1.97
  -3   0  -6    1.17    0.39
   4  -1   4   16.23    4.45
  -4   1  -4   16.71    2.43
  -4   1  -4   20.10    3.02
   4  -3   0   28.47    3.29
   4  -3   0   34.90    8.16
  -4   3   0   15.13    3.74
  -4   3   0    0.15    0.20
   1   2  -6   75.05    7.16
  -1  -2   6   41.88    5.36
   1   2  -6   63.07    7.85
  -3   2   5   46.49    5.26
  -3   2   5   39.11    7.05
   3  -2  -5   38.43    6.29
  -2   5  -1   16.95    2.01
  -2   5  -1   12.60    1.60
   2  -5   1   16.48    2.33
   3   1  -5   66.82    7.37
   3   1  -5   93.10    9.89
  -3  -1   5   70.94    7.10
  -3  -1   5   59.54    9.32
   4  -2   3    7.43    1.01
   4  -2   3    7.04    1.14
  -4   2  -3   -0.02    0.20
  -4   2  -3    7.04    1.69
   4   1   5    7.42    3.57
  -4  -1  -5   13.21    2.03
   4   1   5   10.60    2.82
  -4  -1  -5   17.72    9.17
   4   1   5    9.12    2.30
  -4  -1  -5   15.44    2.10
  -2  -1  -7   80.73   11.00
  -2  -1  -7  109.83   19.17
   2   1   7   99.34   16.07
  -2  -5  -5  282.86   25.11
   2   5   5  271.42   24.74
  -2  -5  -5  292.41   26.06
   2   5   5  204.93   23.18
  -2  -5  -5  267.24   24.59
   2  -5  -3   35.45    4.41
  -2   5   3   15.74    7.55
  -2   5   3   28.44    4.83
   2  -5  -3   39.70    4.45
   2  -5  -3   25.65    4.60
   2   5  -2  159.15   15.82
  -2  -5   2  161.51   16.28
  -2  -5   2  169.66   16.30
   2   5  -2  166.01   15.81
   3   3   6   40.76    8.13
   3   3   6   39.07    6.32
  -3  -3  -6   54.82    4.84
  -3  -3  -6   53.23    2.54
  -3  -3  -6   56.58    2.86
   3   3   6   62.83   15.80
   2   2   7   14.47    5.57
  -2  -2  -7   53.58    7.81
  -2  -2  -7   56.22   15.03
   4   4   3   99.37   17.06
  -4  -4  -3   44.11    8.15
  -4  -4  -3   68.61    6.73
  -4  -4  -3   70.84    7.20
   4   4   3   60.15    7.56
   4   4   3   76.03    7.93
   4   4   3   61.06    6.99
   4   4   3   77.40    7.21
   4   4   3   92.18    9.59
  -4  -4  -3   64.38    8.24
   1   6   3    3.22    1.24
  -1  -6  -3    3.14    1.16
  -1   1   7   82.91    9.55
  -1   1   7  112.96    9.71
   1  -1  -7   66.28    8.84
   1  -1  -7   69.70   12.74
   4  -3  -1  128.05   13.70
   4  -3  -1  151.28   22.04
   4  -3  -1  169.85   15.40
  -4   3   1  125.69    8.61
  -4   3   1    0.05    0.14
  -4  -4   0  177.59   15.86
   4   4   0  146.65   14.37
  -4  -4   0  134.59   15.40
  -4  -4   0  128.74   13.85
   4   4   0  144.53   14.24
   4   4   0  178.38   18.99
   2   1  -6    6.40    1.70
   2   1  -6    4.16    1.76
  -2  -1   6    3.25    2.96
  -2  -1   6   10.92    1.69
  -4   2   3  132.92    2.58
   4  -2  -3  155.20   17.30
  -4   2   3  175.14    9.41
  -4  -2  -5  160.45   15.81
   4   2   5  136.17   18.42
   4   2   5  160.51   15.21
   4   2   5  146.31   16.49
  -4  -2  -5  179.39   17.01
   5   1   1    1.14    0.49
   5   1   1    1.16    1.63
   5   1   1    1.66    2.61
   5   1   1    0.92    1.30
   5   1   1    0.70    0.35
   5   1   1    0.95    0.67
  -3   4   3  139.09   13.98
   3  -4  -3   78.74   11.70
   3  -4  -3  107.01   11.83
   3  -4  -3  179.14   22.16
   3  -4  -3  155.12   12.99
   0   3   7   75.67   12.60
   0   3   7   84.42   10.13
   4   3  -2  432.69   48.68
   4   3  -2  469.01   44.11
  -4  -3   2  504.06   44.77
   4   3  -2  436.15   43.89
  -4  -3   2  478.03   41.86
  -4  -2   3  168.25   17.83
   4   2  -3  148.88   14.75
   4   2  -3  187.11   17.31
  -4  -2   3  152.16   14.75
   0  -6   0  371.32   35.25
   0   6   0  310.39   31.76
   0   6   0  347.26   31.95
   0   6   0  349.69   31.97
   2  -4  -5   61.84    7.93
   2  -4  -5   43.92    9.00
  -2   4   5   68.25   10.36
   2  -4  -5  119.70   18.13
   2  -4  -5  104.84    9.93
  -2   4   5  110.93   10.51
   1   6   0   83.09    8.06
  -1  -6   0   81.29    8.11
  -1  -6   0   76.85    8.71
   1   6   0   73.67    8.07
   0   6   3  192.66   22.08
   0   6   3  209.06   21.68
   0  -6  -3  265.22   22.55
   0  -6  -3  252.97   22.52
  -4   3  -1   22.98    5.09
  -4   3  -1   21.66    3.80
   4  -3   1   24.84    2.80
  -1   4   6   -0.70    4.27
   1  -4  -6    1.50    3.06
  -1   4   6    1.09    1.32
   1  -4  -6    0.54    1.52
  -1   4   6    0.80    2.10
   1  -4  -6    0.51    2.14
   5   0   1    0.62    0.54
   5   0   1   -0.09    1.09
   5   0   1    0.99    1.48
  -5   0  -1    0.58    5.53
   5   1   0  127.90   16.56
   5   1   0  160.17   16.20
  -5  -1   0  156.41   16.79
   5   1   0  121.96   12.82
   3  -4   2    6.27    1.14
  -3   4  -2    4.77    3.03
  -3   4  -2   -0.09    0.19
  -3   4  -2    8.15    2.16
  -1   2   7   55.85    7.43
  -1   2   7   62.48    8.44
   1  -2  -7  118.15   15.64
   1  -2  -7   33.00   11.55
   0   5  -3  186.12   17.87
   5   0   0  109.22   11.04
   5   0   0  122.90   13.08
   5   1   2   84.92    8.50
   5   1   2  114.28   11.21
   5   1   2   65.18   11.25
   5   1   2   83.02    9.16
   5   1   2   93.99    9.18
  -5  -1  -2  191.99   29.67
   5   1   2   91.68    9.71
  -3   2  -5   31.39    4.78
   3  -2   5   59.37    6.17
  -3   2  -5   33.76    7.27
   3   5   4   82.75    9.11
   3   5   4   69.91    7.78
  -3  -5  -4   85.66    7.66
  -3  -5  -4   41.65    8.55
   3   5   4   81.66    8.90
   1   0  -7   13.61    2.16
  -1   0   7   16.67    2.43
  -1   0   7    4.83    3.34
  -2   3  -5    0.79    0.35
   2  -3   5    1.28    0.80
  -2  -6  -2   69.61    4.84
  -2  -6  -2   97.79    3.55
   2   6   2   85.35    9.96
   2   6   2  111.54   10.40
   4   0   5   34.67    9.01
   4   0   5   28.85    5.16
  -4   0  -5   37.79    4.88
  -4   0  -5   49.76   13.44
  -4   0  -5   41.16    4.97
   5   2   1   37.86    4.25
   5   2   1   42.73    6.51
   5   2   1   35.09    4.54
   5   2   1   44.32    4.19
   5   2   1   54.92    7.45
  -5  -2  -1   50.51    5.62
  -5  -2  -1   25.93    4.70
   2   0   7  197.81   22.55
  -2   0  -7  184.05   22.21
  -3   3  -4   31.53    5.82
   3  -3   4   48.02    5.13
   3  -3   4   47.81    4.88
  -1  -5   3   17.27    2.11
   1   5  -3   13.82    1.92
   1   5  -3   15.46    2.00
  -1  -5   3   14.17    2.16
   2  -3  -6  251.45   26.65
  -2   3   6  448.35   40.45
  -2   3   6  340.61   41.50
   2   6   1   12.87    2.06
  -2  -6  -1   14.49    3.44
  -2  -6  -1   12.07    2.41
  -2  -6  -1   18.98    2.23
   2   6   1   15.43    2.19
   2   6   1   11.31    1.83
   1  -5  -5    0.85    0.85
   1  -5  -5    0.11    1.37
  -1   5   5    0.11    1.22
  -1   5   5   -0.58    5.01
   1  -5  -5    0.18    1.69
   1  -5  -5    0.29    0.88
   4  -3  -2  317.51   25.35
  -4   3   2    0.11    1.34
   4  -3  -2  264.85   24.57
  -4   3   2   -0.02    0.18
   0   1  -7   89.33   11.97
   0  -1   7   64.10    7.27
  -5   0  -2    0.65    6.71
   5   0   2    0.60    0.34
   5   0   2    0.40    0.84
   5   0   2    0.64    0.66
   5   0   2    0.28    1.15
   5   0   2    0.61    1.36
  -4   0   4    6.91    2.67
  -4   0   4    2.04    0.77
   4   0  -4    3.19    2.10
   4   0  -4    3.02    2.61
   4   0  -4    2.92    3.51
   4   0  -4    2.77    1.12
   3   3  -4   54.33    5.37
   3   3  -4   38.19    4.41
  -3  -3   4   45.16    4.37
  -3  -3   4   31.29    6.42
  -3  -3   4   26.95    5.43
   3   5  -1   63.92    6.86
  -3  -5   1   49.85    8.36
   3   5  -1   70.66    7.02
  -3  -5   1   75.25    7.47
  -2  -3  -7   25.95   11.13
   2   3   7    9.44    4.51
  -2  -3  -7   23.60    3.89
   2  -2   6   14.94    2.24
   5   2   2  155.33   14.86
   5   2   2  124.38   11.88
   5   2   2  113.37   11.53
   5   2   2  116.68   12.78
   5   2   2  115.17   12.10
   5   2   2  115.65   13.66
   1  -6  -1   55.18    5.33
  -1   6   1   43.60    5.03
  -1   6   1   46.88    5.11
   1  -6  -1   39.51    5.47
  -2  -3   5  254.69   21.28
  -2  -3   5  162.39   21.75
   2   3  -5  314.32   29.98
   1  -1   7  315.96   34.08
   1  -1   7  552.32   35.41
   1  -6  -2  344.16   31.09
  -1   6   2  382.91   31.53
  -1   6   2  337.49   31.50
   1  -6  -2  373.57   31.50
  -2  -6  -3    3.98    1.09
  -2  -6  -3    8.81    1.27
  -2  -6  -3    8.07    1.63
   2   6   3    7.07    1.72
  -2  -6  -3    5.62    2.04
   2   6   3    9.77    2.11
  -4   1   4   99.10    7.65
  -4   1   4   89.16    2.82
   4  -1  -4   74.25   10.03
  -4  -3  -5  123.69   11.83
   4   3   5  123.56   15.09
  -4  -3  -5  139.12   12.95
   4   3   5  123.83   11.67
   4   3   5  109.39   11.74
   4   3   5  100.62   12.77
  -2  -4   4  163.67   15.17
  -2  -4   4  141.58   15.40
   2   4  -4  161.17   15.72
   5   0  -1   28.57    2.94
   5   2   0    1.47    0.70
  -5  -2   0    2.81    1.57
   5   2   0    1.54    2.12
  -5  -2   0    0.82    1.07
   5   2   0    1.47    1.93
   5   2   0    1.03    0.64
   5   2   0    0.98    0.33
   5   2   0    2.93    5.13
   1   6   4   -0.08    0.95
   1   6   4    0.17    0.48
  -1  -6  -4   -0.07    0.84
   4   4   4   62.53    6.71
   4   4   4   70.81    6.82
   4   4   4   56.17    7.49
   4   4   4   62.16    6.84
  -4  -4  -4   69.81    7.25
  -4  -4  -4   66.17    6.57
  -4  -4  -4   68.79    8.19
   4   4   4   76.06    8.53
  -5  -1   1    4.70    1.89
   5   1  -1    4.05    2.91
   5   1  -1    4.86    0.88
   5   1  -1    5.19    5.39
  -3  -4   3   78.18    7.33
   3   4  -3   89.26    8.03
   3   4  -3   72.52    7.71
   3   4  -3   70.23    7.58
  -3  -4   3   58.67    8.07
  -3  -4   3   60.70    9.67
  -4  -4   1  176.32   16.87
   4   4  -1  137.54   14.12
  -4  -4   1  153.69   18.37
   4   4  -1  128.31   18.14
   4   4  -1  151.60   14.00
  -1   5  -3    3.88    0.88
  -1   5  -3    3.56    0.79
   1  -5   3    3.87    1.02
   1  -5   3    2.87    0.66
   3  -1   6   18.26    3.41
  -3   1  -6   15.84    3.42
   4  -3   2   17.80    2.10
   4  -3   2   17.00    1.98
  -4   3  -2   14.66    2.83
  -4   3  -2   10.10    4.42
   5  -1   0    1.16    0.54
  -5   1   0    4.29    5.78
   5  -1   0    1.93    1.43
   5  -1   0    0.91    0.26
   5  -1   0    1.91    2.03
   2  -5   2    0.19    0.63
  -2   5  -2    0.54    0.57
   2  -5   2    0.20    0.44
  -2   5  -2    0.29    0.51
   5   1   3  158.38   18.38
  -5  -1  -3  178.50   17.75
   5   1   3  159.79   16.37
   5   1   3  189.39   17.43
   5   1   3  236.72   19.47
   5   1   3  142.90   19.06
   5   1   3  209.34   17.46
  -5  -1  -3  330.85   37.10
  -5   1  -1   26.48    9.31
   5  -1   1   17.67    4.03
   5  -1   1   15.06    1.66
   5  -1   1   20.40    3.19
   5  -1   1   18.34    2.17
   0  -6   1  371.29   35.21
   0   6  -1  342.86   33.63
   0   6  -1  373.01   33.74
   0   6  -1  347.06   33.75
  -1  -5  -6  295.40   29.34
  -1  -5  -6  284.45   28.24
   1   5   6  291.92   36.61
  -2   4  -4   51.03    5.07
  -2   4  -4   45.92    4.77
   2  -4   4   60.14    6.39
   4   1  -4   87.96    8.88
   4   1  -4  107.99   12.92
   0  -6  -4   53.04    5.78
   0  -6  -4   70.74    6.98
   0   6   4   48.52    6.15
   0   6   4   51.57    6.96
   0  -6  -4   44.12    7.30
   0  -6  -4   67.43    6.69
  -1   6   0  189.37   18.47
  -1   6   0  192.83   18.63
   1  -6   0  239.78   23.78
   2  -5  -4   96.02   15.99
   2  -5  -4  186.82   16.49
   2  -5  -4  224.50   16.78
   2  -5  -4  136.70   15.49
  -2   5   4  165.93   16.95
  -1  -6   1  222.83   21.63
   1   6  -1  214.37   20.35
   1   6  -1  206.42   20.41
  -1  -6   1  217.94   21.10
   2   6   0  122.23   11.51
  -2  -6   0   96.32   13.48
   2   6   0  105.64   11.48
  -2  -6   0  118.44   11.58
  -2  -6   0  122.73   12.18
   3  -3  -5    0.73    1.50
   3  -3  -5    0.71    6.62
  -3   3   5   -0.13    1.63
  -3   3   5    1.89    1.74
   1  -3  -7  153.75   24.21
  -1   3   7  126.93   18.39
  -1   3   7  156.56   16.27
   3   2  -5   72.12    6.91
  -3  -2   5   55.59    4.99
  -3  -2   5   20.38    5.80
   3   2  -5   48.75    5.57
   1  -6  -3   85.25    8.11
  -1   6   3   53.93    6.91
  -1   6   3   49.25    7.20
   1  -6  -3   82.65    7.82
  -5  -2  -3  256.65   24.85
   5   2   3  269.35   28.35
   5   2   3  250.22   27.20
   5   2   3  279.05   27.86
   5   2   3  357.06   29.49
   5   2   3  280.59   27.25
  -1  -4  -7  174.94   19.52
   1   4   7   96.43   19.80
   1   4   7  131.10   14.10
   0  -5  -6   33.51    5.37
   0   5   6   27.72    5.42
   0  -5  -6   43.28    4.46
  -3  -4  -6    9.76    2.40
  -3  -4  -6    7.92    1.39
  -3  -4  -6    8.52    1.57
   3   4   6   11.61    4.22
   3  -4  -4  124.92   19.72
   3  -4  -4  134.74   11.75
   3  -4  -4   87.75   10.19
  -3   4   4  101.53   10.76
   1   1  -7   87.04    7.77
   1   1  -7   45.35    8.91
   5   0   3    6.54    1.59
  -5   0  -3    6.47    1.17
  -5   0  -3    9.10    8.13
   5   0   3    5.39    0.74
   5   0   3    3.79    5.04
   5   0   3    1.98    2.11
   5  -1  -1  118.18   13.90
   5  -1  -1  132.22   15.26
  -5   1   1    3.83    4.52
   5  -1  -1  136.73   12.76
   4  -2   4   47.93    5.14
  -4   2  -4   42.77    3.60
  -4   2  -4   -0.11    0.29
   4  -2   4   70.81    7.63
   0  -3   6  179.37   16.02
   0  -3   6  152.07   15.72
   0   3  -6  172.52   15.09
   0   3  -6  127.23   14.01
   2   2  -6   51.42    6.95
  -2  -2   6   32.37    6.75
   2   2  -6   93.88    7.45
  -2  -2   6   68.18    6.10
   0   4  -5    4.07    1.05
   0  -4   5    4.94    0.92
   0   4  -5    4.19    0.94
   5  -1   2    2.95    0.54
  -5   1  -2    1.22    5.57
   5  -1   2    3.25    2.71
   5  -1   2    2.86    1.23
   5  -1   2    2.72    0.97
   0  -4  -7  346.24   28.87
   0   4   7  373.56   32.06
   0   4   7  419.84   42.11
   0  -4  -7  175.10   28.50
   0   4   7  306.45   35.51
   2   6   4   11.64    2.48
  -2  -6  -4   17.81    2.74
   2   6   4   17.07    3.01
  -2  -6  -4   16.73    2.33
  -2  -6  -4   16.92    2.09
  -5  -2   1   54.13    5.90
   5   2  -1   90.82   15.51
   5   2  -1   78.82   11.14
  -5  -2   1   69.07    7.89
  -4   2   4   24.05    1.63
  -4   2   4   24.93    3.99
   4  -2  -4   19.37    4.24
  -4   3   3  194.33    9.67
   4  -3  -3  211.12   19.58
   4  -3  -3  253.85   20.77
  -4   3   3   41.93    9.44
   3   5   5   56.21    6.54
   3   5   5   56.15    7.91
  -3  -5  -5   59.80    5.52
  -3  -5  -5   22.74    6.55
  -4   1  -5   23.78    3.32
   4  -1   5   27.99    5.99
  -4   1  -5   22.97    3.45
   3  -4   3   84.90    8.09
  -3   4  -3   83.24    8.62
  -3   4  -3   96.10   10.27
   3  -4   3   76.63    7.51
  -5  -3  -1    9.37    3.88
   5   3   1   17.41    2.04
  -5  -3  -1   10.38    2.52
   5   3   1   14.83    2.07
   5   3   1   23.61    4.83
   5   3   1   18.34    3.11
   5   3   1   14.58    2.34
  -5  -3  -1   16.41    2.95
   5   3   2   50.92   12.77
   5   3   2   38.70    4.86
   5   3   2   49.48    7.07
   5   3   2   30.99    3.76
   5   3   2   37.78    4.15
  -5  -3  -2   23.50    4.32
  -5  -3  -2   22.08    5.31
   5   3   2   35.36    4.34
   2   5   6  365.67   34.05
   2   5   6  454.40   43.91
  -2  -5  -6  391.92   35.18
  -2  -5  -6  405.46   35.86
  -2  -5  -6  396.78   36.98
   3   2   7   14.47    5.58
  -3  -2  -7   29.88    4.92
  -3  -2  -7   29.58    3.50
   3   2   7   23.59    7.61
  -2  -5   3   52.44    5.42
   2   5  -3   46.03    5.00
  -2  -5   3   42.74    5.17
  -3   1   6  242.35   23.56
  -3   1   6  230.12   20.46
   3  -1  -6  152.71   22.75
   3  -1  -6  244.04   21.86
  -4  -3   3  816.98   70.13
   4   3  -3  660.38   80.63
  -4  -3   3  758.69   73.08
   4   3  -3  761.89   76.02
   2  -1   7   -0.07    1.45
   2  -1   7    0.93    2.33
   3   1   7   -4.00    6.98
  -3  -1  -7    0.90    1.45
   3   1   7    0.58    0.20
  -3  -1  -7   -0.70    6.57
  -3  -1  -7    0.61    0.55
   5   0  -2   70.93    6.94
   1  -3   6    0.57    0.39
   1  -3   6    0.72    0.84
  -1   3  -6   -0.63    1.38
  -1   3  -6    0.30    1.52
   3  -5  -1   75.41    8.08
  -3   5   1   77.04    9.38
  -3   5   1   89.60    8.32
  -3   0   6  122.12   11.85
   3   0  -6   71.22    9.10
  -3   0   6  107.98   14.16
   3   0  -6  136.25   13.51
  -1   6  -1  107.40    9.50
  -1   6  -1   79.85    9.06
   1  -6   1   95.37    9.62
   1  -6   1  100.49   10.14
  -1   6  -1   98.42    9.41
  -2   1   7  241.81   30.90
  -2   1   7  322.82   29.17
   2  -1  -7  324.41   31.37
   2  -1  -7  233.61   28.42
  -4  -5  -2   95.10   11.37
   4   5   2  128.08   16.21
  -4  -5  -2  114.85   10.54
  -4  -5  -2  112.89   11.38
   4   5   2  141.36   13.86
  -4  -5  -2   84.38   11.48
   4   5   2  131.62   13.23
   5   1  -2   32.00    8.20
   5   1  -2   30.61    3.25
  -5  -1   2   21.76    2.37
  -5  -1   2   31.14    4.76
  -1  -4   5   25.13    3.26
   1   4  -5   23.45    2.80
  -1  -4   5   30.40    3.45
   1   4  -5   23.95    2.89
  -3   5   0   39.58    4.26
  -3   5   0   31.87    8.51
  -3   5   0   39.41    5.22
   3  -5   0   45.00    5.19
   3  -5   0   43.18    4.85
   1  -4   5   24.20    2.95
  -1   4  -5   26.65    2.84
  -1   4  -5   23.20    2.98
   2   4   7    3.50    4.19
   2   4   7    3.57    3.56
   2   4   7    7.20    6.89
  -2  -4  -7    3.26    0.69
  -2  -4  -7    1.32    3.41
  -2  -4  -7    6.41    1.47
   4   2   6  219.09   25.26
  -4  -2  -6  296.67   32.11
  -4  -2  -6  352.24   31.82
   4   2   6  254.97   23.00
   4   1   6    8.59    3.60
   4   1   6    5.49    1.44
  -4  -1  -6    7.36    1.55
   4   1   6    1.91    2.74
  -4  -1  -6    5.33    1.83
  -4  -1  -6    6.19    8.16
  -4  -5  -1  115.66   11.32
  -4  -5  -1   80.10   10.21
  -4  -5  -1   88.77   10.60
   4   5   1  126.40   11.34
  -4  -5  -1  102.25    9.67
   4   5   1  101.29   11.19
   4   5   1  103.44   14.48
   3   5  -2    3.11    0.96
   3   5  -2    3.71    0.94
  -3  -5   2    2.77    0.95
   3   5  -2    5.94    1.16
  -3  -5   2    3.93    1.30
  -3  -5   2    3.10    2.31
  -5  -3   0    6.48    3.53
  -5  -3   0   12.18    2.14
   5   3   0   14.44    2.21
   5   3   0   14.97    2.01
   5   3   0   13.89    4.21
   5   3   0   14.78    1.76
   5   3   0   19.34    3.27
  -5  -3   0   14.58    3.02
  -1  -3   6   61.23    6.73
   3  -5  -2   22.99    2.56
   3  -5  -2   15.61    2.99
   3  -5  -2   24.49    3.60
  -3   5   2   20.43    3.86
  -3   5   2   23.30    2.79
  -2  -6   1  383.13   33.98
   2   6  -1  318.32   31.60
  -2  -6   1  349.57   33.36
   2   6  -1  339.97   31.54
  -2  -6   1  333.88   33.20
   1   6   5   59.51    7.75
  -1  -6  -5   99.69   11.06
  -4  -2   4   24.16    2.75
   4   2  -4   21.76    2.63
   4   2  -4   26.36    4.34
   4  -3   3   34.48    3.79
  -4   3  -3   34.97    4.49
  -4   3  -3   30.08    3.17
  -4   3  -3   27.29    6.48
  -5  -1  -4   10.45    1.81
   5   1   4   10.59    1.30
   5   1   4    6.63    2.94
  -5  -1  -4   24.61   11.34
   5   1   4    6.35    2.92
   5   1   4   14.43    2.55
  -5  -3  -3   34.62    7.82
   5   3   3   49.95    6.39
   5   3   3   58.28    6.57
   5   3   3   50.96    6.34
   5   3   3   55.95    6.50
  -5  -3  -3   61.12    6.15
   4   4   5   47.95    6.83
  -4  -4  -5   63.24    6.62
  -4  -4  -5   57.32    7.23
   4   4   5   66.20    8.55
  -4  -4  -5   56.92    5.68
   4   4   5   49.82    5.96
   4   4   5   57.34    5.73
  -1  -1  -8  136.45   20.43
  -1  -1  -8   79.11   15.21
   1   1   8  115.37   15.62
  -1  -2  -8   18.64    9.36
  -1  -2  -8   22.60    7.51
  -2   0   7   18.24    5.56
  -2   0   7   39.20    4.16
   2   0  -7   47.90    6.79
   3   6   2   81.47    9.96
  -3  -6  -2   74.83   10.11
  -3  -6  -2   96.42    9.60
  -3  -6  -2   85.60   10.12
  -3  -6  -2  101.66    9.45
   3   6   2  117.25   10.45
   1  -6  -4   75.22    7.32
  -1   6   4   64.23   12.76
   1  -6  -4   73.75    7.36
  -1   6   4   46.12    6.78
   1  -6  -4   56.74    6.47
  -1   6   4   76.46    7.41
   4   5   3   33.97    3.32
   4   5   3   28.44    3.87
   4   5   3   26.70    5.03
  -4  -5  -3   22.81    3.33
  -4  -5  -3   16.41    4.13
  -4  -5  -3   27.74    3.04
   4   5   3   22.53    3.15
  -4  -5  -3   25.35    3.74
  -2   2   7  282.67   33.16
  -2   2   7  376.68   31.55
  -2   2   7  278.74   32.03
   4   4  -2  186.28   16.33
  -4  -4   2  129.26   15.73
  -4  -4   2  105.75   15.15
  -4  -4   2  151.37   13.70
   4   4  -2  151.36   15.39
   5  -1  -2  145.56   15.04
  -5   1   2  178.57   19.39
   5  -1  -2  173.88   17.89
   0   1   8  110.23   13.20
   0  -1  -8  109.04   10.59
   0  -1  -8   94.36   17.75
  -2   4   6   -0.87    2.26
   2  -4  -6    0.72    1.34
   2  -4  -6   -0.51    2.62
  -2   4   6   -0.09    1.42
  -2   4   6    0.56    3.44
   3  -2  -6   19.49    4.83
  -3   2   6   24.61    3.39
  -3   2   6   19.74    5.32
   5   2   4  116.14   12.23
   5   2   4  105.78   11.02
   5   2   4  112.06   13.54
   5   2   4  123.15   12.58
  -5  -2  -4  125.53   12.78
   0   2  -7  215.57   22.56
   0  -2   7  317.23   24.89
   0  -2   7  212.09   24.59
   5  -2   0    4.50    1.73
   5  -2   0    3.10    1.92
   5  -2   0    1.81    0.54
   5  -2   0    2.44    0.63
  -3  -3  -7   39.93    4.51
   3   3   7   40.88    8.97
  -3  -3  -7   53.02   15.76
   3   3   7   29.96    7.64
  -3  -3  -7   40.54    2.60
   0  -2  -8    0.54    5.80
   0   2   8   -1.33    5.01
   0   2   8    0.18    2.02
   0  -2  -8    0.54    4.14
   0   6  -2   47.48    5.11
   0  -6   2   45.11    4.77
   0   5  -4    2.10    0.81
   0   5  -4    2.02    0.75
  -3  -6  -1   30.70    3.65
  -3  -6  -1   24.75    4.13
   3   6   1   26.08    3.58
   3   6   1   29.51    3.57
  -3  -6  -1   23.69    3.65
   0  -6  -5    2.07    2.04
   0  -6  -5    2.43    0.76
   0   6   5    3.97    2.11
   0   6   5    3.67    1.90
   0  -6  -5    2.79    1.61
  -4   4   0  109.31   13.74
   4  -4   0  129.10   12.87
  -4   4   0  132.27   12.38
   5  -1   3  111.56   10.82
  -5   1  -3  151.44   14.72
   5  -1   3  136.30   12.48
   5  -1   3  136.90   14.96
  -5   1  -3  119.87   12.20
   4  -4  -1   57.09    6.67
   4  -4  -1   76.37    8.13
  -4   4   1   67.18    6.57
  -4   4   1   58.49    7.63
   3   0   7   36.71    7.56
  -3   0  -7   33.67    5.65
   3   0   7   17.77    2.52
   5  -2   1   83.61    8.43
   5  -2   1   94.89    9.65
   5  -2   1   77.80    8.13
  -3  -6  -3  335.77    7.66
  -3  -6  -3  324.75    7.05
  -3  -6  -3  340.26    8.86
   3   6   3  267.38   29.06
   3   6   3  276.60   28.59
  -1  -6   2  180.78   19.37
  -1  -6   2  187.05   19.79
   1   6  -2  167.72   16.42
   1  -2   7   60.23    5.86
   1  -2   7   49.71    5.27
  -1   2  -7   26.66    5.87
  -1   5   6   60.71    8.71
   1  -5  -6   32.04    7.35
   1  -5  -6   36.43    5.98
   2  -5   3   27.43    2.99
   2  -5   3   31.28    3.51
  -2   5  -3   32.86    3.36
  -2   5  -3   29.07    3.44
  -3   5  -1   90.15    3.58
   3  -5   1   87.69    8.28
  -3   5  -1   65.40    9.35
   3  -5   1   75.83    8.58
   4   5   0   35.64    3.76
  -4  -5   0   31.25    4.10
  -4  -5   0   31.30    4.72
  -4  -5   0   35.76    5.39
   4   5   0   29.65    3.69
  -2   6   1   16.07    2.74
  -2   6   1   12.16    2.27
   2  -6  -1   17.53    2.43
  -2   6   1   18.70    2.34
   2  -6  -1   15.00    2.53
   5  -2  -1  295.64   21.61
  -5   2   1  418.94   47.12
   5  -2  -1  279.33   21.56
  -3  -1   6  132.38   12.53
   3   1  -6   89.83   11.38
   3   1  -6  117.06   11.26
  -3  -1   6   98.02   14.88
  -2   5   5  112.63   12.55
   2  -5  -5  154.64   12.39
   2  -5  -5  127.86   12.61
   4   3   6  149.62   17.88
   4   3   6  156.45   20.22
   4   3   6  167.75   15.77
  -4  -3  -6  118.99   17.01
  -4  -3  -6  190.69   16.77
  -4   0  -6  183.09   26.99
  -4   0  -6  130.90   12.60
  -4   0  -6  158.69   14.47
   5   0   4    0.19    0.23
   5   0   4    0.28    1.21
  -5   0  -4    0.74    6.45
  -5   0  -4   -0.11    1.53
  -5   0  -4    0.31    0.57
   3  -3   5    5.93    1.14
  -3   3  -5    2.46    3.00
   1   5  -4  183.39   17.26
   1   5  -4  173.28   17.35
  -1  -5   4  214.31   20.19
  -1  -5   4  202.12   20.35
   1  -4  -7  217.74   31.32
  -1   4   7  506.07   46.99
  -1   4   7  403.81   49.18
   1  -4  -7  346.04   31.27
  -1   4   7  517.90   53.77
  -2   6   2   49.13    5.32
   2  -6  -2   51.98    5.32
  -2   6   2   41.30    5.70
   2  -6  -2   62.69    6.11
  -2   6   2   47.37   10.37
  -5  -2   2   98.66    9.63
   5   2  -2   60.79    6.41
   5   2  -2   79.64   11.07
   5   2  -2   85.36    9.96
  -5  -2   2   84.51   11.41
  -2  -6  -5   36.89    4.79
   2   6   5   36.92    5.33
   2   6   5   27.29    4.55
  -2  -6  -5   34.09    4.09
  -2  -6  -5   21.04    5.39
  -2  -6  -5   34.59    3.73
  -3   2  -6    1.39    0.29
   3  -2   6    2.23    1.10
   1   0   8  594.84   51.52
   1   0   8  467.62   50.15
  -1   0  -8  153.77   22.13
   0   0  -8  151.94   14.36
   0   0   8  252.42   25.69
   4   0  -5   18.32    5.69
   4   0  -5   18.34    5.08
   4   0  -5   16.45    2.66
  -4   0   5   21.93    2.72
  -4   0   5   25.98    5.24
   4   0  -5   11.57    1.56
  -1  -3  -8   50.92   14.24
   3  -5  -3   73.85    7.22
   3  -5  -3   56.27    7.20
  -3   5   3   72.33    7.85
   3  -5  -3   38.38    7.02
   3  -5  -3   95.10    8.37
  -4   4  -1   57.79    7.81
   4  -4   1   57.51    6.06
  -5  -3   1   12.03    2.97
   5   3  -1    9.83    1.29
  -5  -3   1    7.71    1.44
   5   3  -1   10.96    1.63
   5   3  -1   12.93    4.23
  -4   1   5    0.63    1.99
  -4   1   5    1.86    0.82
  -4   1   5   -0.17    1.97
   4  -1  -5    1.02    2.11
   4  -4  -2   47.39    6.96
  -4   4   2   53.62    6.84
   4  -4  -2   61.38    7.71
   4  -4  -2   89.53    8.56
   4  -4  -2  114.93   17.06
  -4   4   2   60.60    6.02
  -2   6   0    8.28    1.77
  -2   6   0    8.46    1.44
  -2   6   0    6.17    1.20
   2  -6   0    8.77    1.47
   2  -6   0    9.21    1.93
  -2  -2  -8   11.46    8.45
  -2  -2  -8    7.79    3.12
   1  -5   4   96.54    9.93
  -1   5  -4   98.01    9.66
   4   5   4  218.11   20.84
  -4  -5  -4  187.31   18.82
   4   5   4  186.87   19.55
  -4  -5  -4  206.29   19.28
  -4  -5  -4  203.22   18.28
   4   5   4  236.66   21.64
   3   6   0   53.70    6.44
  -3  -6   0   56.74    7.96
  -3  -6   0   58.74    6.67
   3   6   0   64.71    6.43
  -2  -1  -8  239.64   28.37
   2   1   8  376.84   42.23
  -2  -1  -8  435.45   42.18
  -1  -2   7  119.04   13.01
   1   2  -7  269.85   23.08
   1   2  -7  170.07   23.89
  -4   3   4  252.97   26.79
  -4   3   4  275.98   26.23
   4  -3  -4  266.63   25.66
   4  -3  -4  322.49   27.07
   5  -2   2   12.20    4.92
   5  -2   2   17.14    2.36
  -5   2  -2   14.78    3.44
   5  -2   2   16.56    3.22
   5  -2   2   10.54    1.47
  -3  -4   4   23.16    5.63
   3   4  -4   33.63    3.69
   3   4  -4   26.08    3.33
   3   4  -4   30.24    3.54
  -3  -4   4   22.92    4.28
  -3  -4   4   29.77    3.33
   0   3   8   10.53    5.04
   0   3   8    9.49    3.04
   0  -3  -8   19.95    7.75
  -2   3  -6  119.09   11.43
   2  -3   6  145.66   14.26
   5   3   4  239.22   22.25
   5   3   4  253.15   23.99
   5   3   4  328.01   38.32
   5   3   4  328.90   25.19
   5   3   4  206.73   21.88
  -5  -3  -4  252.22   23.76
   5   3   4  247.28   22.68
   5   3   4  206.15   22.86
  -5  -3  -4  237.42   23.04
   3  -4  -5  151.84   13.89
   3  -4  -5  148.15   22.68
   3  -4  -5  101.77   11.98
  -3   4   5  116.69   12.90
  -3  -3   5    5.04    2.88
   3   3  -5   11.08    1.81
   3   3  -5   18.54    2.53
  -3  -3   5    9.01    3.68
  -3  -3   5   15.99    2.01
  -2  -1   7   58.91    5.99
   2   1  -7   65.55    6.38
   2   1  -7   39.62    6.41
  -2  -1   7   36.37    8.32
  -1   6  -2    9.05    1.45
   1  -6   2    9.13    1.36
  -1   6  -2   10.31    1.63
  -1   6  -2   10.23    1.63
   1  -6   2    8.82    1.67
   5   0  -3   25.94    5.59
   5   0  -3   29.67    3.21
   5   0  -3   21.14    6.65
  -5   0   3   17.18    2.81
  -5   0   3   19.67    1.98
   3   6   4  122.26   14.31
  -3  -6  -4  158.62   15.16
  -3  -6  -4  165.95   14.63
   3   6   4  135.04   13.82
   3   6   4  169.77   15.11
  -2   3   7   17.80    5.70
  -2   3   7   29.24    5.05
  -1   1   8    2.40    2.82
   1  -1  -8   10.07    6.02
  -1   1   8   12.74    2.91
   1  -1  -8   10.94    2.99
   2  -6  -3   89.06    8.61
   2  -6  -3   87.04    7.97
  -2   6   3   51.67    7.80
  -2   6   3   86.06    7.91
  -2   6   3   58.74   13.10
   2  -6  -3   73.75    8.17
   3   5   6   48.64    5.48
  -3  -5  -6   34.70    3.98
   3   5   6   40.16   12.74
   3   5   6   38.24    7.22
  -3  -5  -6   36.42    3.96
   5   4   2   42.97    4.43
   5   4   2   25.03    9.53
   5   4   2   30.26    4.06
   5   4   2   24.47    3.78
  -5  -4  -2   27.94    3.87
   5   4   2   33.62    6.15
  -5  -4  -2   18.50    3.90
  -5  -4  -2   17.54    4.96
   1   5   7  402.83   36.83
  -1  -5  -7    0.20    0.32
  -1  -5  -7  370.84   14.87
   1   5   7  381.11   46.92
  -2  -4   5   28.74    4.06
  -2  -4   5   31.98    3.74
   2  -4   5   45.65    4.95
  -2   4  -5   34.12    4.15
   2  -4   5   41.56    4.64
   5  -2  -2  408.35   41.26
  -5   2   2  250.06   23.45
  -5  -4  -1    7.06    2.01
  -5  -4  -1    9.47    2.27
   5   4   1    7.95    1.33
   5   4   1    8.20    1.36
   5   4   1   10.27    3.64
   5   4   1    9.16    1.94
   5   4   1    7.17    1.58
  -5  -4  -1    3.88    2.81
   4   1  -5   64.15    7.00
   4   1  -5   55.41   10.75
   4  -2   5   83.01    9.20
   4  -2   5   61.08    6.58
  -4   2  -5   42.24    5.14
  -1   2   8   12.68    3.66
  -1   2   8    4.05    4.11
   1  -2  -8    9.12    7.56
   1  -2  -8   20.88    8.11
  -1   2   8   12.49    3.84
   3  -4   4   44.96    4.97
  -3   4  -4   29.68    3.91
  -3   4  -4   33.15    5.27
   5   1  -3  176.67   19.17
   5   1  -3  125.09   12.43
   5   1  -3  151.50   17.67
  -5  -1   3  111.31   10.67
  -3   3   6   -1.17    1.99
  -3   3   6    0.19    2.01
   3  -3  -6   -0.49    1.65
   3  -3  -6    0.76    5.87
  -3   3   6    0.39    1.78
   1   7   2  249.13   24.54
   1   7   2  254.84   24.73
  -2  -3  -8   40.10    4.22
   2   3   8   19.96    6.49
  -2  -3  -8   38.50    6.55
   5  -1  -3  205.43   22.94
  -5   1   3  134.37   13.33
  -5   1   3  223.41   17.37
   2   6  -2    2.71    0.88
   2   6  -2    2.79    0.93
  -2  -6   2    1.66    0.89
  -2  -6   2    1.30    0.84
   3   4   7    6.71    7.72
  -3  -4  -7    7.44    1.64
  -3  -4  -7    8.74    2.55
  -3  -4  -7    9.11    1.63
   3   4   7    7.07    4.03
  -3   5  -2   37.22    3.82
   3  -5   2   35.94    4.15
  -2  -3   6   73.40    7.89
  -2  -3   6   53.38    8.59
   2   3  -6  112.36   11.18
  -4  -5   1  168.67   19.89
  -4  -5   1  192.38   18.52
   4   5  -1  189.46   18.31
  -4   2   5   63.35    9.42
  -4   2   5   77.08    7.64
   4  -2  -5   59.81    8.79
  -4   2   5   90.02   10.26
  -1   6   5  223.27   21.09
  -1   6   5  128.58   25.73
   1  -6  -5  106.87   17.61
   1  -6  -5  159.09   16.39
   1   7   1   43.14    5.22
   1   7   1   47.82    5.22
  -1  -7  -1   55.44    5.98
   0   5   7  819.52   97.18
   0   5   7 1059.45   94.17
   0  -5  -7 1130.63   73.15
   0  -5  -7  857.27   74.37
   0   5   7  882.80  102.18
   2  -2   7   40.69    4.72
  -2   2  -7   20.60    5.92
   0   7   2   94.94   11.28
   0  -7  -2   77.08   11.14
   0  -7  -2  132.33   11.03
   0   7   2  128.99   11.63
  -2   6  -1   77.41    7.89
   2  -6   1   86.71    9.15
  -2   6  -1   83.42    8.22
  -5  -4  -3   11.98    1.58
  -5  -4  -3    3.61    2.79
  -5  -4  -3    6.27    2.65
   5   4   3   11.27    2.07
   5   4   3    8.16    1.93
   5   4   3   16.49    8.65
   5   4   3   11.16    2.04
   5   4   3   12.65    3.58
  -4   4  -2   25.40    4.84
   4  -4   2   25.34    3.10
  -4   4  -2   25.84    4.04
   4  -4   2   27.31    2.84
  -2   0  -8   24.53    6.57
   2   0   8   38.51    6.73
   2   0   8   22.50    4.96
   5   1   5   15.25    1.80
   5   1   5   14.01    3.18
  -5  -1  -5   24.04   11.55
  -5  -1  -5   16.16    2.64
  -5  -1  -5   17.35    3.47
   5   1   5   10.19    3.04
  -1  -7  -3  142.39   14.41
   1   7   3  108.75   11.60
   0   7   1  183.24   19.12
   0  -7  -1  141.06   14.62
   0   7   1  195.12   19.25
   0   7   1  207.43   19.28
  -3   1  -7  147.21   16.77
   3  -1   7  227.82   23.93
   3  -1   7  262.51   26.18
   1   0  -8    6.12    6.64
   1   0  -8   25.98    3.09
  -1   0   8    7.55    3.99
  -1   0   8   22.96    3.06
  -5  -2  -5  228.87   21.56
  -5  -2  -5  211.40   20.61
   5   2   5  183.28   17.93
   5   2   5  196.98   18.90
   5   2   5  173.91   21.31
   5   2   5  192.92   19.60
   5  -1   4  119.57   15.08
  -5   1  -4  103.59   10.42
  -5   1  -4  106.08   11.95
  -4   3  -4   41.32    3.68
  -4   3  -4   21.89    5.87
   4  -3   4   39.17    4.50
   4  -3   4   41.88    4.20
  -4   4   3   16.25    4.41
   4  -4  -3  210.23   19.59
   4  -4  -3  252.76   30.76
   4  -4  -3  264.57   20.54
  -4   4   3  231.60    7.03
  -1  -6  -6  208.74   20.89
   1   6   6  121.03   14.29
  -1  -6  -6  210.42   21.80
  -3  -5   3   28.39    3.39
  -3  -5   3   25.00    5.78
   3   5  -3   41.29    4.14
  -3  -5   3   25.26    3.79
   3   5  -3   29.07    3.89
   4   3  -4  256.11   17.98
   4   3  -4  148.08   15.89
  -4  -3   4  163.75   14.32
  -4  -3   4  137.53   16.96
   5   4   0   25.54    3.12
   5   4   0   28.47    6.35
  -5  -4   0   18.81    4.98
   5   4   0   25.05    3.36
   5   4   0   27.28    2.96
  -5  -4   0   27.63    4.46
   5   4   0   24.99    3.86
  -5  -4   0   22.79    3.29
  -2  -5  -7  186.39   21.07
  -2  -5  -7  200.51   19.06
   2   5   7  207.92   25.15
  -2  -5  -7  202.99   19.86
   2   5   7   90.98    9.59
  -4  -4  -6   49.52    5.90
  -4  -4  -6   51.93    6.63
   4   4   6   37.52    6.47
   4   4   6   51.80    8.68
  -4   1  -6   13.40    2.68
   4  -1   6   11.44    2.96
  -2  -5   4  171.12   15.69
   2   5  -4  167.48   16.40
  -2  -5   4  143.64   15.71
   0   7   3  125.70   13.46
   0  -7  -3  155.84   13.85
   0   7   3  116.16   13.82
   0  -7  -3  150.75   13.85
   3  -5  -4  163.43   15.42
   3  -5  -4   84.38   14.58
  -3   5   4  161.85   16.41
   3  -5  -4  207.01   16.03
   3  -5  -4  130.19   14.56
  -3  -2   6    4.57    1.25
   3   2  -6    5.42    1.68
   3   2  -6    3.77    1.24
  -4  -4   3  243.48   33.23
  -4  -4   3  279.20   33.77
   4   4  -3  345.35   36.42
   4   4  -3  504.19   37.54
  -3  -6   1    8.17    2.04
   3   6  -1    5.94    1.25
  -3  -6   1    6.57    2.80
   3   6  -1    6.32    1.26
   3   6  -1    4.72    1.26
   1  -1   8   70.66    9.49
   1  -1   8  221.56   11.60
   5  -2   3   18.90    1.55
   5  -2   3   19.73    1.85
  -5   2  -3   17.46    3.46
   5  -2   3   21.99    3.95
  -1  -4  -8  149.60   17.60
   1   4   8  109.01   12.29
   1   4   8   55.64   16.86
   0   6  -3   12.57    1.79
   0  -6  -6   45.39    9.32
   0   6   6   98.31   12.10
   0  -6  -6  104.50    9.82
   5   3  -2  276.05   30.48
   5   3  -2  279.62   25.10
   5   3  -2  317.47   27.04
  -5  -3   2  356.97   33.52
  -5  -3   2  324.73   35.68
   5   3  -2  237.00   24.79
  -4  -5  -5   18.69    3.10
   4   5   5   31.46    4.53
  -4  -5  -5   23.52    3.32
   4   5   5   19.50    2.89
  -4  -5  -5   18.18    2.43
   4   5   5   27.34    4.60
  -1   3   8   44.14    6.29
   1  -3  -8   47.22   12.60
  -1   3   8   30.41    7.69
  -2  -7  -2   68.74    9.67
   2   7   2  102.57    9.82
   2   7   2   79.64    9.47
   2   7   2   88.61    9.29
  -2  -7  -2   66.41    9.32
  -1  -7   0  147.04   14.49
   1   7   0  131.38   13.38
   1   7   0  135.07   13.33
   5  -3   0    9.20    2.56
   5  -3   0    7.38    1.01
   5  -3   0    7.03    5.77
   5  -3   0    5.57    1.15
   5  -3   0    9.81    2.37
  -2   6   4   12.88    7.40
   2  -6  -4   27.47    3.55
   2  -6  -4   21.89    3.15
  -2   6   4   28.46    3.98
   0   7   0  148.61   14.02
   0   7   0  129.01   13.78
   0   7   0  142.53   13.95
   0  -7   0  146.41   14.41
   1   6  -3   17.11    2.29
   1   6  -3   15.72    2.15
  -1  -6   3   16.20    2.55
   1   6  -3   15.58    2.18
  -1  -6   3   18.21    2.34
   3   6   5   82.06    8.97
  -3  -6  -5   82.49    7.91
  -3  -6  -5   83.38    8.76
   3   6   5   63.93    8.07
   3   6   5   63.53    7.35
   5   0   5   24.70    8.00
  -5   0  -5   20.41    2.87
   5   0   5   17.74    3.82
  -5   0  -5   18.34    3.64
  -5   0  -5   26.64   11.38
   5   2  -3   24.59    2.90
   5   2  -3   24.53    6.43
  -5  -2   3   26.44    2.95
  -5  -2   3   32.43    5.51
   0  -4   6   -0.15    0.91
   0  -4   6    0.28    0.89
   0   4  -6    0.46    0.65
   0   4  -6    0.32    0.83
   0  -4   6    0.47    0.54
   0   4   8  134.59   18.64
   0  -4  -8  146.48   17.77
   0   4   8  126.16   14.39
  -2  -6  -6   57.16    5.98
   2   6   6   48.93    7.16
  -2  -6  -6   63.12    7.03
  -2  -6  -6   53.01    5.34
   2   6   6   37.38    6.11
  -4  -2  -7   69.04    7.36
  -4  -2  -7   85.44    8.03
  -4  -2  -7   74.77    9.00
   4   2   7   66.74   11.13
   4   2   7   66.18    6.17
  -2  -7  -3   18.86    1.76
   2   7   3   24.74    3.63
   2   7   3   14.13    2.72
  -2  -7  -3   16.91    2.20
  -2  -7  -1   52.34    5.66
   2   7   1   59.89    6.01
   2   7   1   46.76    5.82
  -2  -7  -1   59.47    5.71
  -2  -7  -1   44.79    6.10
   2   7   1   50.43    5.69
  -2  -7  -1   40.57    7.04
   5   3   5  210.00   19.69
   5   3   5  284.49   22.22
  -5  -3  -5  216.44   21.17
  -5  -3  -5  210.59   20.31
   5   3   5  290.42   36.96
   5   3   5  187.23   19.29
   5   3   5  179.02   20.50
   5   3   5  194.49   22.17
  -1  -7  -4  127.26    9.52
   1   7   4   98.38    9.61
  -1  -7  -4   64.99    8.23
   1   7   4   84.49   10.40
   5  -3  -1   20.62    3.03
   5  -3  -1   27.04    4.36
  -5   3   1    0.05    0.11
   5   4   4  103.07   11.09
   5   4   4  105.18   11.33
  -5  -4  -4  119.16   11.53
   5   4   4  142.22   23.62
   5   4   4  128.22   11.53
  -5  -4  -4  115.58   10.87
   5   4   4  130.78   12.62
   5   4   4   95.75   11.91
  -5  -4  -4   97.31   13.73
  -2   5  -4  150.91   14.86
  -2   5  -4  156.41   14.85
   2  -5   4  158.57   15.71
   4   1   7    7.87    4.62
  -4  -1  -7   -0.02    0.17
  -4  -1  -7   23.47    3.36
   4   1   7   17.56    2.16
   4   1   7    9.71    5.46
   5  -2  -3  295.59   31.13
  -5   2   3  266.03   25.16
  -5   3  -1   94.40   11.66
   5  -3   1  108.70   11.00
   5  -3   1  194.92   19.05
   4   2  -5   42.80    4.83
  -4  -2   5   49.92    5.27
   4   2  -5   56.68    6.78
   2  -5  -6    1.17    2.36
   2  -5  -6    3.76    2.02
   2  -5  -6    3.77    1.68
  -2   5   6    3.31    2.20
   2  -5  -6    1.88    2.38
  -3  -2  -8   56.03    7.91
  -3  -2  -8   55.65    6.13
   3   2   8   29.56    7.75
  -3  -2  -8   67.21   17.10
   0   3  -7   86.98   10.48
   0  -3   7  161.29   12.84
   0  -3   7  107.03   12.30
   0   3  -7  119.57   11.56
   2   2  -7   43.83    5.41
  -2  -2   7   18.27    4.69
  -2  -2   7   19.61    6.12
   2   2  -7   29.40    5.08
   3  -1  -7  445.54   54.33
  -3   1   7  530.91   49.55
  -3   1   7  484.59   52.36
   3  -1  -7  609.66   53.92
   2   4   8    6.47    5.89
  -2  -4  -8   -0.02    0.18
   2   4   8   10.50    9.34
  -1   7   2  223.53   20.00
  -1   7   2  177.29   19.91
  -1   7   2  202.63   20.08
   1  -7  -2  246.65   21.11
   1  -7  -2  219.09   20.69
   0   7   4   67.69    8.95
   0   7   4   68.75    8.26
   0  -7  -4   93.25    9.15
   0  -7  -4   97.53    9.12
   1  -4   6   16.30    2.35
  -1   4  -6   11.83    2.18
  -1   4  -6   13.90    3.11
  -1   4  -6   14.27    1.80
  -3  -1  -8   65.17    9.15
  -3  -1  -8   83.91   17.83
   3   1   8   66.60   13.55
  -1   7   1   46.78    5.14
   1  -7  -1   37.57    5.37
   1  -7  -1   51.52    5.16
  -1   7   1   41.10    5.01
  -2   4   7    4.00    4.63
  -2   4   7    4.57    3.26
   2  -4  -7    1.93    2.33
  -2   4   7    8.02    2.45
  -1   6  -3    3.61    0.91
  -1   6  -3    5.29    1.05
   1  -6   3    3.72    1.21
   1  -6   3    4.80    0.90
  -5  -4   1  106.34   11.12
   5   4  -1   92.87    9.13
   5   4  -1   92.06    9.42
   5   4  -1  101.00   14.37
  -5  -4   1   76.84    8.61
   1   1  -8  124.45   11.00
   1   1  -8   58.52   12.68
  -2   6  -2  277.10   25.28
   2  -6   2  253.08   24.53
  -2   6  -2  278.82   24.98
  -2   6  -2  242.18   24.89
   2  -6   2  269.06   25.10
   1   4  -6  144.70   14.22
  -1  -4   6  183.77   15.77
  -1  -4   6  137.65   15.44
  -4  -6  -2  107.67   11.45
  -4  -6  -2  111.31   11.67
  -4  -6  -2  113.68   10.74
  -4  -6  -2   83.60   11.54
   4   6   2   91.46   10.95
   4   6   2  126.25   11.25
   4   6   2  103.42   10.60
  -1   5   7   -0.22    2.39
  -1   5   7    0.41    4.36
   1  -5  -7    2.74    2.47
  -1   5   7    1.61    1.28
   1  -5  -7    1.88    1.87
   0   5  -5   50.69    5.39
   0   5  -5   50.34    5.32
   0  -5   5   53.76    5.59
  -3   0   7   94.34   14.87
  -3   0   7  138.74   12.90
   3   0  -7  147.46   17.76
   1  -3   7    4.98    0.87
   1  -3   7    7.25    1.55
  -1   3  -7    2.50    2.37
  -4   3   5   66.53    8.68
  -4   3   5   75.70    7.66
  -4   3   5   89.90   10.16
   4  -3  -5   54.47    7.89
  -4  -3  -7  236.45   20.73
   4   3   7  150.18   21.37
  -4  -3  -7  216.80   21.64
   4   3   7  179.53   16.61
  -4  -3  -7  193.67   20.02
   4   3   7  140.75   19.17
  -4   4  -3  214.81   28.19
   4  -4   3  259.42   21.92
   4  -4   3  219.45   21.26
  -4   4  -3  311.81   27.39
  -5   0   4   66.15    6.89
   5   0  -4   57.89    9.27
  -5   0   4    0.11    0.90
   5   0  -4   53.10   10.57
   5   0  -4   55.37    6.05
  -4  -5   2   53.62    7.94
   4   5  -2   89.02    8.68
  -4  -5   2   75.63    7.14
  -4  -5   2   50.33    8.39
   4   5  -2   77.23    8.16
   6   1   1   19.12    2.64
   6   1   1   27.48    5.04
   6   1   1   18.60    2.24
   6   1   1   14.23    4.70
   6   1   1   18.17    3.66
   3  -5   3  210.88   19.72
  -3   5  -3  224.77   21.94
  -3   5  -3  259.61   23.86
   3  -5   3  198.80   19.10
   2  -1   8   57.63    6.78
   2  -1   8   43.26    4.57
  -2   1  -8   11.22    4.93
   4   6   3   91.74    8.29
  -4  -6  -3   58.22    6.86
  -4  -6  -3   57.52    6.55
  -4  -6  -3   43.14    7.38
  -4  -6  -3   63.49    6.27
   4   6   3   55.89    6.64
   2   7   4   10.45    2.37
  -2  -7  -4    7.01    2.59
  -2  -7  -4    8.87    1.32
  -2  -7  -4   13.43    1.78
  -2  -7  -4   12.99    2.30
   2   7   4   16.66    3.10
  -2  -7   0  114.22   11.29
   2   7   0  102.26   10.50
   2   7   0  112.14   10.67
   2   7   0   95.64   10.60
  -2  -7   0  108.94   11.90
   5  -3  -2   42.15    5.68
  -5   3   2    0.01    0.10
   5  -3  -2   22.09    3.94
   4   6   1   66.38    8.04
  -4  -6  -1   70.28    8.32
  -4  -6  -1   79.78    7.61
  -4  -6  -1   60.27    8.12
  -4  -6  -1   78.11    9.13
   4   6   1   82.54    7.97
  -3   2   7   70.01    9.21
  -3   2   7   50.10    9.50
   3  -2  -7   37.24    7.19
  -3   2   7   58.33    6.59
   4  -4  -4  188.91   27.18
  -4   4   4  176.76    6.00
   4  -4  -4  152.45   16.31
  -4   4   4  110.44    4.59
   4  -4  -4  222.81   17.92
  -3  -3  -8  129.85   14.92
   3   3   8   75.59   12.89
  -3  -3  -8  126.57   12.97
   3   3   8   73.66   15.01
  -1   7   3   32.45    5.18
   1  -7  -3   47.50    5.14
  -1   7   3   35.28    4.91
   1  -7  -3   44.07    4.74
  -2   1   8    9.47    3.71
   2  -1  -8   14.92    4.52
   2  -1  -8   20.70    6.58
  -2   1   8   22.86    3.11
   6   1   2    0.43    1.08
   6   1   2    0.16    1.56
   6   1   2    1.11    0.83
   6   1   2    0.79    0.47
   6   1   2    0.36    0.49
   6   1   2    0.69    2.27
   5  -3   2  118.68   11.58
  -5   3  -2  135.52   15.29
  -3   4   6  138.32   14.02
  -3   4   6  101.87   13.64
   3  -4  -6   53.27   10.25
   3  -4  -6   74.80    9.22
   3  -3   6  280.85   26.84
  -3   3  -6  177.30   16.71
  -5   1   4   31.88    4.68
   5  -1  -4   33.11    6.13
  -5   1   4   -0.13    0.64
   6   0   1    0.32    1.29
  -6   0  -1    0.66    7.04
   6   0   1    0.65    2.11
   6   0   1    0.40    0.65
   6   1   0  156.35   21.02
   6   1   0  165.39   17.00
   1   7  -1  145.90   13.50
  -1  -7   1  130.99   13.42
   1   7  -1  124.71   13.44
  -1  -7   1  149.05   14.38
  -4   0  -7   48.97    6.58
   4   0   7   23.71    3.71
   0   7  -1   61.27    7.04
   0  -7   1   70.60    7.29
   0   7  -1   69.16    7.23
   0   7  -1   73.89    7.27
  -1   7   0    4.37    1.05
  -1   7   0    4.12    1.19
   1  -7   0    4.34    1.43
   1   5  -5   29.97    3.49
  -1  -5   5   31.53    3.85
  -1  -5   5   34.59    4.07
   1   5  -5   31.04    3.59
  -1  -3   7   38.04    4.89
   1   3  -7   54.06    6.62
   5   1  -4    6.23    1.21
   5   1  -4    5.59    3.58
  -5  -1   4    5.74    0.93
   6   0   0   61.12    6.47
   6   0   0   71.38    8.62
   6   0   0   61.29    5.96
   2   6  -3   88.90    9.43
   2   6  -3  101.91    9.58
  -2  -6   3  109.91   10.60
  -2  -6   3   94.50   10.49
   2   6  -3   92.03    9.55
   3  -6  -1   66.70    6.39
  -3   6   1   44.24    6.31
  -3   6   1   55.01    5.43
   3  -6  -1   45.78    6.20
   6   2   1  111.69   11.56
   6   2   1  123.19   14.37
   6   2   1  172.86   24.19
   6   2   1  111.21   10.76
   6   2   1  166.70   16.03
   6   2   1  109.71   11.07
   1  -6  -6   50.17    7.49
   1  -6  -6  119.68    8.91
   1  -6  -6   99.09    9.75
  -1   6   6   82.68    9.38
   1  -6  -6   42.91    8.94
  -1   6   6   33.76   12.61
  -2   2   8  186.51   17.68
  -2   2   8  141.30   18.42
   4  -1  -6    0.51    2.32
  -4   1   6    1.07    2.00
  -4   1   6   -0.41    2.20
  -4   1   6    0.95    0.89
   1  -5   5  300.67   29.04
  -1   5  -5  260.78   24.80
  -1   5  -5  259.23   24.87
   3   5   7   22.90    3.02
   3   5   7   14.87    5.01
  -3  -5  -7   17.68    2.50
  -3  -5  -7   17.57    2.33
   3   5   7   19.68    9.98
  -4   0   6   68.03    7.18
   4   0  -6   39.80    9.06
   4   0  -6   74.57   10.73
  -4   0   6   77.99   10.42
  -4   5   1   16.86    3.86
  -4   5   1   27.21    3.73
   4  -5  -1   14.82    2.39
  -4   5   1   21.89    2.64
   6   2   2   76.34   16.66
   6   2   2   47.85    5.24
   6   2   2   74.32    9.15
   6   2   2   52.16    5.33
   6   2   2   48.40    5.84
   6   2   2   51.63    7.69
   6   2   2   50.54    6.60
   3   6  -2   29.08    3.39
  -3  -6   2   33.97    4.26
  -3  -6   2   39.90    4.62
   3   6  -2   27.36    3.44
  -5   2  -4   47.14    5.47
   5  -2   4  101.64    9.98
   5  -2   4  100.62   10.15
  -5   2  -4  100.58    8.23
   5  -2   4  126.43   12.85
   3   0   8    5.21    4.53
  -3   0  -8    4.41    2.38
  -5   1  -5  149.30   15.31
  -5   1  -5  138.88   14.24
   5  -1   5  158.18   19.00
  -4   5   0  140.00   11.69
  -4   5   0  131.63    9.92
   4  -5   0  173.35   14.64
   4  -5   0  123.22   14.32
  -6   0  -2  216.15   33.04
   6   0   2   85.62   10.47
   6   0   2  111.89   10.75
   6   0   2   98.62   15.32
   6   0   2  134.38   13.32
   6   0   2   99.32    9.95
   6   0   2  136.20   11.80
  -5  -5  -2    0.59    1.51
  -5  -5  -2    1.87    0.78
  -5  -5  -2    1.41    1.93
   5   5   2    1.72    1.01
   5   5   2    1.87    0.95
  -5  -5  -2    2.31    1.41
   5   5   2    1.97    2.80
   5   5   2    3.23    1.08
   3  -6  -2   86.50   11.87
  -3   6   2  116.90   10.94
   3  -6  -2  113.69   11.04
  -3   6   2  102.85   12.20
  -2   0   8   14.20    4.93
  -2   0   8   31.12    3.62
   2   0  -8   37.35    5.34
   3  -5  -5   82.47   16.02
   3  -5  -5  187.57   17.70
   3  -5  -5  144.89   16.14
  -3   5   5  182.03   18.66
   3  -5  -5  248.20   18.14
   1   7   5    2.60    1.68
  -1  -7  -5    6.19    1.80
   1   7   5    3.68    1.11
  -1   4   8   91.53   15.30
   1  -4  -8  147.05   24.16
  -1   4   8  126.61   13.43
  -1  -2  -9  148.56   25.22
   1   2   9  119.86   18.18
  -1  -2  -9  162.53   22.91
  -3  -4   5   65.50    8.99
   3   4  -5   65.83    8.01
  -3  -4   5   78.14    7.68
   3   4  -5  115.03    8.76
  -3  -4   5   57.14   10.63
   3  -4   5   42.44    4.58
  -3   4  -5   33.62    5.97
   3  -4   5   43.60    4.88
   3  -6   0  117.64   12.44
   3  -6   0  121.13   11.96
  -3   6   0   79.90   15.46
  -3   6   0  114.00   11.06
  -3   6   0  110.65   12.11
  -5  -2  -6  107.10   10.94
   5   2   6   84.39   10.61
   5   2   6   86.37    8.84
  -5  -2  -6   96.91    9.72
   5   2   6   69.51   11.82
  -3   2  -7   50.81    4.95
   3  -2   7   72.78    7.73
  -3   2  -7   49.13    7.10
   2  -6  -5   33.62    4.94
   2  -6  -5   46.98    5.87
   2  -6  -5   20.42    5.45
   2  -6  -5   60.53    6.00
  -2   6   5   37.94    5.26
   4   6   4  385.71   34.15
  -4  -6  -4  357.68   31.05
  -4  -6  -4  345.26   31.66
   4   6   4  328.99   35.29
   4   6   4  329.92   32.96
  -5  -4  -5   79.09    8.29
   5   4   5   59.83    8.60
  -5  -4  -5   78.90    7.50
  -5  -4  -5   60.75    9.95
   5   4   5   80.63    7.83
   5   4   5   78.21    9.86
   5   4   5   71.42    7.79
   5   4   5   78.83   18.44
  -1  -1  -9  140.60   22.11
   1   1   9  169.10   20.01
  -1  -1  -9  106.92   18.56
  -5  -1  -6    0.74    1.16
   5   1   6    0.96    1.36
  -5  -1  -6    0.01    0.13
   5   1   6    0.27    2.49
   5   1   6    1.27    1.89
  -5  -1  -6    1.06    0.95
   5   5   1   47.72    4.74
   5   5   1   35.03    4.18
   5   5   1   31.37    4.47
   5   5   1   36.97    4.20
  -5  -5  -1   33.20    6.11
  -5  -5  -1   39.05    5.34
  -5  -5  -1   32.52    4.83
   5   5   1   40.40    7.91
   6   2   0   78.83    7.93
   6   2   0   71.72    8.19
   6   2   0   87.08   11.29
   6   2   0   96.17   12.13
  -6  -2   0   97.69    9.24
   6   2   0   99.36   17.47
  -6  -2   0   51.58    6.90
  -3  -1   7    0.44    2.17
   3   1  -7    0.44    1.29
  -3  -1   7    0.27    0.94
   3   1  -7   -1.09    2.09
   3   1  -7    1.13    1.46
  -4  -6   0   98.48   11.46
   4   6   0  107.85   10.42
   4   6   0   95.68   10.63
  -4  -6   0   91.70   10.08
  -4  -5  -6   13.30    2.59
   4   5   6   13.23    4.02
   4   5   6   20.24    3.47
  -4  -5  -6   15.10    2.83
   4  -2   6   56.07    6.07
  -4   2  -6   33.56    4.75
   0   2  -8   81.40   11.01
   0  -2   8  154.05   11.60
   0  -2   8   78.61   11.21
   4  -5  -2   59.84    8.26
   4  -5  -2   80.61    7.58
  -4   5   2   77.55    8.14
  -4   5   2   87.62    9.04
   4  -5  -2   76.92    9.05
   5   5   3    8.48    3.08
  -5  -5  -3    4.55    2.67
   5   5   3    8.53    1.89
  -5  -5  -3    2.21    2.18
   5   5   3    7.86    1.44
  -5  -5  -3    6.00    1.19
   5   5   3    4.94    1.68
   5   5   3    5.73    1.22
   4  -3   5  148.57   14.27
   4  -3   5  146.89   14.60
  -4   3  -5   80.09   14.15
  -4   3  -5  107.91   10.87
   0  -2  -9   18.26    9.07
   0   2   9    4.10    4.67
   0  -2  -9    9.25    6.30
   0   2   9    5.42    4.57
   0   2   9    4.88    3.02
   0  -2  -9   12.64    2.73
   6   1   3   30.94    3.78
   6   1   3   21.94    2.58
   6   1   3   18.34    5.06
   6   1   3   24.03    3.42
   6   1   3   22.20    3.71
   6   1   3   34.92    5.43
  -6  -1  -3   53.77   16.16
   3   7   2   29.03    3.73
  -3  -7  -2   24.02    3.78
  -3  -7  -2   30.25    3.42
   3   7   2   23.14    3.52
   5   3  -3  196.86   20.19
   5   3  -3  217.88   26.49
  -5  -3   3  207.75   20.29
  -5  -3   3  234.35   23.76
   0  -1  -9  201.29   19.01
   0   1   9  230.29   24.36
   0  -1  -9  175.80   27.25
   3   6   6   64.52    8.49
  -3  -6  -6   67.32    8.01
   3   6   6   49.61    7.28
  -3  -6  -6   71.36    6.92
   3   6   6   65.46   15.08
  -3  -6  -6   70.50    7.10
   6   1  -1  127.84   12.52
  -6  -1   1  171.67   18.80
   6   1  -1  173.72   17.72
   1   6   7  160.81   22.89
  -1  -6  -7  161.32   17.21
   1   6   7  117.35   20.31
  -1  -6  -7  150.45   15.99
   1   6   7  129.52   16.36
   1  -2   8   10.20    1.93
   1  -2   8    8.50    1.31
  -1   2  -8    3.13    4.06
   0  -7  -5  107.55    8.94
   0  -7  -5   42.12    8.61
   0  -7  -5   62.63    7.06
   0   7   5   56.42    8.89
   0  -7  -5   92.98    8.37
   0   7   5   94.34    9.41
   6   0  -1   82.36    7.97
  -1   7   4   44.85    5.11
   1  -7  -4   36.17    4.35
  -1   7   4   20.87    3.86
   1  -7  -4   34.23    4.12
   1  -7  -4   27.74    3.64
  -1  -5  -8  494.70   18.46
   1   5   8  469.81   41.74
   1   5   8  485.43   53.79
  -1  -5  -8   -0.07    0.55
   1   5   8  389.81   46.10
  -3  -3   6  131.98   10.74
  -3  -3   6   54.14   11.47
   3   3  -6  151.79   11.98
   3   3  -6   95.56   11.15
  -4   2   6    1.15    1.89
  -4   2   6    0.98    0.93
  -4   2   6    2.24    2.35
   4  -2  -6    0.85    2.06
   6   2   3  164.78   17.24
   6   2   3  151.95   15.44
   6   2   3  133.26   14.47
   6   2   3  163.79   15.40
   6   2   3  168.87   15.67
  -3  -7  -3  126.43   11.91
  -3  -7  -3   82.63   12.38
   3   7   3  108.31   13.39
  -3  -7  -3  119.11   11.47
  -3  -7  -3  130.57   11.62
   3   7   3  170.68   14.43
  -3  -7  -3   94.91   11.55
  -2   4  -6   87.47   11.38
   2  -4   6  157.87   15.18
   2  -4   6  146.94   14.83
  -2   4  -6  116.45   10.60
  -4   5  -1   27.56    3.78
   4  -5   1   26.39    3.45
  -4   5  -1   -0.01    0.13
   4  -5   1   28.08    3.19
   4   4   7  127.93   16.11
   4   4   7  148.46   18.63
  -4  -4  -7  150.94   18.83
  -4  -4  -7  204.97   18.96
  -3  -5   4   85.17   13.82
  -3  -5   4   99.91   11.53
  -3  -5   4  113.53   10.85
   3   5  -4  112.51   11.37
  -2   3  -7   74.15    7.04
   2  -3   7   88.46    9.06
  -2   3  -7   46.38    9.49
   6  -1   1   15.40    2.86
   6  -1   1   12.16    1.76
   6  -1   1   12.89    3.79
   6  -1   1    9.20    1.04
  -4  -1   6   42.39    4.67
   4   1  -6   34.49    4.72
   4   1  -6   56.54    7.68
  -4  -1   6   34.53    6.88
   5  -2  -4  296.49   31.49
  -5   2   4  260.58    4.37
  -5   2   4  365.01   15.26
  -3   3   7   36.95    5.99
   3  -3  -7   21.10    5.09
  -3   3   7   30.08    6.59
   6  -1   0   16.71    3.52
  -6   1   0   24.75    9.03
   6  -1   0   14.20    1.52
   6  -1   0   16.42    3.61
   6  -1   0   14.29    2.02
  -3  -7  -1   24.18    3.92
   3   7   1   31.16    3.85
   3   7   1   28.37    3.85
  -3  -7  -1   31.06    3.69
  -3  -7  -1   25.35    4.46
   5  -3  -3   90.24   10.38
  -5   3   3    1.22    2.28
  -5   3   3    0.02    0.17
   5  -3  -3   97.99   10.82
   1   3   9    3.04    4.61
  -1  -3  -9   23.19   11.18
   2   7   5    0.71    1.21
   2   7   5    0.10    1.70
  -2  -7  -5   -0.18    1.76
  -2  -7  -5    0.94    1.12
  -2  -7  -5    0.91    0.89
   2   7   5    0.37    0.48
  -2  -7   1  254.29   23.52
  -2  -7   1  212.38   23.27
   2   7  -1  232.26   20.71
   2   7  -1  191.54   20.66
  -1   7  -1    2.33    0.98
  -1   7  -1    2.39    1.01
   1  -7   1    3.15    0.92
   1  -7   1    3.10    1.28
  -1   7  -1    2.56    0.78
  -3   6   3   32.61    3.91
  -3   6   3   10.44    7.03
   3  -6  -3   31.08    3.43
   3  -6  -3   25.77    4.00
   3  -6  -3   19.23    3.91
   4   4  -4   90.48   10.00
  -4  -4   4   59.42   10.45
  -4  -4   4   78.05   11.38
   4   4  -4  131.81   11.08
  -4  -4   4   93.16    8.72
  -5  -4   2  471.08   42.95
  -5  -4   2  385.68   44.86
   5   4  -2  344.12   35.52
   5   4  -2  329.33   40.96
  -5  -3  -6  251.05   24.26
  -5  -3  -6  238.78   23.11
   5   3   6  220.42   27.76
   5   3   6  254.17   24.21
   5   3   6  207.49   25.66
   3   4   8   41.39    8.96
   3   4   8   54.71   16.21
  -3  -4  -8   49.95    5.47
   3   4   8   33.89    9.69
  -3  -4  -8   50.07    6.97
  -3  -4  -8   42.79    5.40
   2  -3  -8   71.96   16.94
  -2   3   8  116.14   13.56
  -2   3   8  131.47   14.36
  -2   3   8   90.93   15.12
   0   6  -4    5.70    1.21
  -2  -4   6  108.12    9.74
  -2  -4   6   73.25    9.96
  -6   0  -3   36.60   13.08
   6   0   3   22.83    2.53
   6   0   3   20.22    4.11
   6   0   3   32.54    5.28
   6   0   3   24.77    7.88
   6   0   3   27.60    3.62
   2   2   9  127.93   16.04
  -2  -2  -9  172.10   26.19
  -2  -2  -9  111.76   15.01
   2   2   9   14.92    5.96
   5  -3   3   58.13    4.77
   5  -3   3   40.48    4.16
  -5   3  -3   57.74    7.55
   0  -6  -7   98.02    8.26
   0  -6  -7   82.00    9.75
   0   6   7   61.89    9.34
  -3   6  -1  148.33   14.01
   3  -6   1  157.18   15.04
  -3   6  -1  136.99   15.28
  -3   6  -1  144.58   19.60
   3  -6   1  150.64   15.59
  -3   6  -1  146.35   14.38
  -5  -5   0   36.55    5.56
   5   5   0   40.63    4.64
  -5  -5   0   34.19    6.21
   5   5   0   41.55    4.48
  -5  -5   0   31.81    4.39
   5   5   0   42.51    8.86
   0  -5  -8  125.54   13.69
   0   5   8  138.60   12.40
   0  -5  -8  114.81   14.82
   0   5   8  102.94   15.49
   0   5   8  105.68   19.15
  -5  -2   4   50.57    5.22
  -5  -2   4   51.91    8.17
   5   2  -4   47.72    5.23
   5   2  -4   80.49    9.03
   4   3  -5  108.37   11.81
   4   3  -5  174.47   13.62
  -4  -3   5  132.52   10.84
  -4  -3   5   97.61   13.50
   6   3   2   77.78    8.97
   6   3   2   96.66    7.90
   6   3   2   64.40    7.93
  -6  -3  -2   42.55    6.61
   6   3   2  100.43   11.82
   6   3   2  105.09   19.14
   6   3   2   61.84    7.32
   6   3   1   67.52    8.02
  -6  -3  -1   85.27    8.44
  -6  -3  -1   45.10    7.17
   6   3   1   72.66    7.65
   6   3   1   76.23    7.41
   6   3   1  102.42   12.18
   6   3   1   94.51   17.90
   6   3   1   83.16    9.48
   5   0   6  118.69   15.54
  -5   0  -6  268.38   27.75
  -5   0  -6  299.01   28.32
   5   0   6  284.81   25.13
  -5   0  -6  318.67   42.25
   0  -3  -9    3.96    5.17
   0   3   9   -0.74    3.61
   0   3   9    0.36    2.02
   1   0   9  154.68   18.36
   1   0   9  209.83   19.83
   2   6   7   19.70    8.92
  -2  -6  -7   20.46    3.23
  -2  -6  -7   24.13    4.15
  -2  -6  -7   24.92    2.62
   2   6   7   13.70    3.68
  -2   6  -3  115.58   11.71
  -2   6  -3  118.80   11.44
   2  -6   3  104.34   10.30
   2  -6   3  110.12   10.96
   2   1   9   20.12    6.84
  -2  -1  -9   17.44    4.47
  -2  -1  -9   15.62    9.09
   5   5   4   27.46    3.51
   5   5   4   37.15    6.01
  -5  -5  -4   16.39    4.71
  -5  -5  -4   32.95    4.05
  -5  -5  -4   27.47    5.43
  -5  -5  -4   30.82    3.47
   5   5   4   32.17    3.59
   5   5   4   24.84    4.17
   5   5   4   40.29   12.64
   5   5   4   36.56    4.63
   1   6  -4   69.82    6.96
  -1  -6   4   65.50    7.18
  -1  -6   4   65.46    6.89
   1   6  -4   63.97    6.99
   2   5   8    0.70    0.98
   2   5   8    4.81    7.61
   2   5   8   -0.54    4.15
  -2  -5  -8    2.07    1.25
  -2  -5  -8    3.86    0.78
   6  -1   2  224.72   22.45
   6  -1   2  209.04   21.75
   6  -1   2  201.36   19.56
   6  -1   2  266.91   20.72
  -6   1  -2  293.00   40.20
   6  -1   2  199.56   18.68
  -6  -2   1   21.34    3.98
   6   2  -1   22.60    2.60
   6   2  -1   28.55    9.20
   6   2  -1   17.52    4.94
  -6  -2   1   13.79    2.24
  -2  -5   5  120.01   13.50
  -2  -5   5  144.48   13.45
   2   5  -5  129.80   12.96
   1   2  -8  193.43   20.54
  -1  -2   8  125.95   13.90
  -4   5   3    5.85    1.32
   4  -5  -3    8.97    2.11
   4  -5  -3    7.19    2.18
   4  -5  -3    4.41    1.90
   4  -5  -3   11.02    2.71
   6  -1  -1   11.58    3.22
   6  -1  -1    9.04    2.49
   6  -1  -1    7.35    1.24
  -3  -7  -4  119.30    5.95
  -3  -7  -4  111.83    4.52
  -3  -7  -4  100.99    4.46
   3   7   4   86.73   10.69
   3   7   4   90.03   10.17
  -2  -1   8   51.24   11.56
   2   1  -8  151.41   12.24
  -2  -1   8   99.92    9.37
   2   1  -8   68.37   12.68
  -4   1  -7   59.37    7.78
   4  -1   7   74.01    8.89
   0   7  -2   16.46    2.41
   0   7  -2   16.58    2.28
   0   7  -2   16.22    2.27
   0  -7   2   17.36    2.24
   4  -4   4  409.95   39.02
  -4   4  -4    0.09    0.30
  -4   4  -4  290.40   15.78
  -1  -7   2  104.06   10.83
  -1  -7   2   93.17   10.16
  -1  -7   2  112.46   10.39
  -2   7   1    4.86    1.46
  -2   7   1    5.16    1.59
   2  -7  -1    4.83    1.21
  -2   7   1    5.60    1.34
   2  -7  -1    4.10    1.44
   2  -7  -2    0.41    1.12
  -2   7   2    1.38    0.96
  -2   7   2    0.74    1.03
   2  -7  -2    1.33    1.04
  -2  -3  -9  134.74   17.11
  -2  -3  -9  223.92   31.48
   4   6   5   26.55    3.66
   4   6   5   34.30    5.07
   4   6   5   33.52    4.98
  -4  -6  -5   32.22    4.08
  -4  -6  -5   30.01    3.54
   6   3   3  190.15   18.84
   6   3   3  278.17   23.24
   6   3   3  178.16   19.30
   6   3   3  263.68   34.05
   6   3   3  172.22   19.12
   6   3   3  199.61   19.76
   5  -4   0   93.33    9.52
  -5   4   0   75.30   11.20
   4   6  -1   13.48    1.96
   4   6  -1   12.73    2.24
  -4  -6   1   13.98    2.46
  -4  -6   1   12.44    3.40
  -3  -7   0   22.47    4.57
   3   7   0   26.04    3.32
  -3  -7   0   23.90    3.52
   3   7   0   24.22    3.42
  -2  -3   7   21.83    2.90
  -2  -3   7   14.07    3.51
   2   3  -7   33.49    3.81
  -4  -5   3    0.26    1.73
   4   5  -3    1.13    0.99
   4   5  -3    1.67    1.04
  -4  -5   3    1.15    1.75
  -4  -5   3    0.70    0.80
   2  -5   5  116.46   11.89
  -2   5  -5   90.36    9.08
  -2   5  -5   95.90    9.44
   6   3   0   11.30    1.72
  -6  -3   0    5.56    1.87
   6   3   0   11.66    1.39
   6   3   0    9.60    1.92
   6   3   0   10.68    4.00
   6   3   0   15.21    8.04
   6   3   0   11.86    3.05
  -6  -3   0   10.21    2.60
   4  -4  -5  104.60   20.87
   4  -4  -5   98.58   12.00
   4  -4  -5   67.72   12.00
  -4   4   5   81.18    9.29
  -4   4   5   90.71    9.66
   6   1   4    6.05    2.42
   6   1   4    4.37    2.20
   6   1   4    3.32    1.45
  -6  -1  -4    4.56    1.23
   6   1   4    1.81    2.27
  -6  -1  -4    8.36    8.67
  -3   5  -4   99.22   11.17
   3  -5   4   97.60   10.03
  -3   5  -4   92.01    9.53
   1  -1  -9    3.55    4.68
   1  -1  -9    3.28    1.63
  -1   1   9    1.70    2.69
  -1   1   9    1.78    1.94
   5  -4  -1   13.82    3.08
  -5   4   1   10.98    1.46
  -5   4   1    6.58    3.76
   5  -4  -1    9.15    1.90
  -1   6  -4  129.79   12.65
  -1   6  -4  129.42   12.74
   1  -6   4  128.57   13.09
   3  -1   8   41.70    6.04
  -3   1  -8   21.00    4.50
   3  -1   8   56.04    8.10
   6   0  -2   53.41    5.38
  -1   2   9    1.90    2.59
  -1   2   9    2.55    2.48
   1  -2  -9    4.14    5.49
   1  -2  -9    6.82    6.35
  -1   2   9    4.84    2.61
   1  -2  -9    2.33    2.49
  -1   2   9    1.33    3.33
   6   2   4   31.65    3.75
   6   2   4   37.15    4.96
   6   2   4   40.79    4.48
   6   2   4   35.69    5.47
   6   2   4   37.12    5.63
  -6  -2  -4   35.71    4.34
   2  -2   8    7.11    0.95
   2  -2   8    9.66    1.94
  -2   2  -8    0.27    3.98
  -2   5   7   66.99    7.57
  -2   5   7   41.17    7.90
   2  -5  -7   32.51    5.91
   2  -5  -7   37.42    7.14
  -2   5   7   60.13   11.31
   4  -5   2   20.06    2.69
  -4   5  -2   23.89    3.84
  -4   5  -2    0.23    0.32
   6   1  -2   79.75    7.88
   6   1  -2   90.46   14.77
  -6  -1   2   97.41   11.99
  -2   7   0   34.95    3.73
   2  -7   0   28.42    4.00
  -2   7   0   25.87    3.46
  -1  -7  -6    8.31    2.35
   1   7   6    6.69    2.57
   1   7   6    6.01    2.55
   2  -7  -3   63.51    6.23
   2  -7  -3   50.93    5.35
  -2   7   3   48.46    5.53
  -2   7   3   40.47    5.94
  -2   7   3   40.32   10.48
  -5   4  -1   47.13    8.64
  -5   4  -1   49.16    7.16
   5  -4   1   62.10    6.61
   1  -7  -5  106.57   17.72
   1  -7  -5  218.05   17.72
   1  -7  -5  149.31   16.41
  -1   7   5  134.95   25.23
  -1   7   5  205.78   20.03
   1  -7  -5  206.19   17.58
  -4  -2  -8    6.12    1.12
   4   2   8    4.85    0.66
  -4  -2  -8    6.54    2.33
   4   2   8    1.42    4.34
   4   2   8    1.38    3.59
  -3  -2   7    0.51    1.05
   3   2  -7    1.89    1.28
   3   2  -7   -0.44    1.59
  -3  -2   7   -0.24    2.15
  -4   3   6   93.85   10.83
   4  -3  -6   59.09    8.81
  -4   3   6   76.01   10.22
  -4   3   6   80.63    8.42
  -5   0   5   36.61    5.71
  -5   0   5   11.09    3.64
   5   0  -5   29.63    7.52
   5   0  -5   21.57    5.78
   5   0  -5   20.49    3.38
   3  -6  -4   55.96    7.19
  -3   6   4   95.18   10.79
   3  -6  -4   40.84    7.42
   1   4   9    1.71    2.08
   1   4   9   -0.37    3.02
  -2   0  -9    6.12    4.33
   2   0   9   13.05    4.47
   2   0   9    5.34    2.99
   6  -1   3  318.97   28.84
   6  -1   3  227.42   24.19
  -6   1  -3  396.25   51.05
   6  -1   3  309.48   25.89
   6  -1   3  298.59   24.40
  -5   1   5  102.75    9.86
   5  -1  -5   87.88   12.38
  -5   1   5  122.36   13.23
   5   4   6  193.64   20.07
   5   4   6  149.74   17.84
  -5  -4  -6  195.87   18.04
  -5  -4  -6  174.46   16.84
   5   4   6  147.12   16.40
   5   4   6  170.61   16.19
  -5  -5   1  199.00   19.62
   5   5  -1  158.09   23.26
   5   5  -1  194.58   18.40
   5   5  -1  189.68   18.65
  -5  -5   1  162.40   17.08
   5  -2   5  199.21   19.69
   5  -2   5  244.24   22.86
  -5   2  -5  180.16   17.61
  -5   2  -5  160.12   16.31
   4   2  -6   13.90    2.27
   4   2  -6   18.39    3.42
  -4  -2   6   19.83    2.58
   3   6  -3   99.89   10.24
  -3  -6   3   89.35   10.07
  -3  -6   3   97.79    9.78
  -3  -6   3   79.79   12.62
   5  -4  -2   26.36    4.52
  -5   4   2   20.82    5.32
  -5   4   2   25.03    2.76
   5  -4  -2   27.91   10.18
   5  -4  -2   18.08    3.53
   5  -4  -2   35.94    5.05
  -4  -1  -8   88.76    8.76
  -4  -1  -8   88.80   10.83
   4   1   8   74.84    7.06
   4   1   8   91.30   16.21
   6   0   4  106.72   14.27
  -6   0  -4  143.96   14.23
   6   0   4   73.13   13.73
   6   0   4  150.53   13.36
   6   0   4  161.16   19.59
   3  -6   2  105.07   10.45
  -3   6  -2  101.31    9.84
   3  -6   2   98.62    9.83
   6  -1  -2   96.86   11.82
   6  -1  -2   81.88    9.16
   6  -1  -2   91.55   12.09
   1   0  -9  153.20   14.99
  -1   0   9  110.21   10.27
  -1   0   9   55.19   11.87
  -1   7  -2    9.93    1.63
  -1   7  -2   12.70    1.99
  -1   7  -2   12.10    1.74
   1  -7   2   11.36    2.17
   1  -7   2   12.11    1.70
  -1   7  -2   11.38    1.87
   6  -2   0   63.85    7.22
   6  -2   0   44.87    5.03
  -6   2   0   72.43   15.35
   6  -2   0   49.71    7.27
   2  -6  -6  139.29   10.71
   2  -6  -6   41.04    9.49
   2  -6  -6   65.22    8.71
   2  -6  -6  104.25   10.71
  -2   6   6   98.13   11.50
   0  -7  -6   51.78    5.95
   0   7   6   44.24    6.49
   0  -7  -6   22.83    5.84
   0  -4   7   10.13    1.68
   0  -4   7   12.19    2.18
   0  -4   7   10.25    1.99
   0   4  -7   11.03    1.66
   0   4  -7   12.21    2.71
   0   4  -7    7.14    2.01
   6  -2   1  145.02   13.74
   6  -2   1  123.02   12.20
   6  -2   1  111.41   11.78
  -6   2  -1  126.00   22.19
   3  -5  -6   28.53    4.82
   3  -5  -6   19.12    5.73
  -3   5   6   39.13    5.75
   5  -3  -4  144.86   18.23
  -5   3   4  158.73   12.82
  -5   3   4  117.25   12.23
   5  -3  -4  180.49   19.25
   5   5   5    3.64    1.78
   5   5   5    1.55    0.83
   5   5   5    3.43    2.35
   5   5   5    2.85    0.82
  -5  -5  -5    0.96    1.93
  -5  -5  -5    1.21    2.38
  -5  -5  -5    2.11    0.91
  -5  -5  -5    2.09    1.22
   5   5   5    7.58    8.65
   5   5   5    1.34    0.50
   5   5   5    1.42    1.23
   4   3   8   38.55    8.80
  -4  -3  -8   63.43    6.71
   4   3   8   47.41   10.15
  -4  -3  -8   61.06    8.33
  -4  -3  -8   66.54    6.94
   1  -3  -9    8.66    6.80
  -1   3   9    9.87    3.22
  -1   3   9   10.41    5.15
  -1   3   9    6.05    4.26
   1  -6  -7    1.34    2.70
   1  -6  -7    5.75    1.91
   1  -6  -7    4.37    2.42
  -1   6   7    6.22    2.95
   1  -6  -7    2.41    1.67
   3   7   5   35.68    5.01
   3   7   5   34.48    4.34
   3   7   5   31.17    3.42
   3   7   5   46.71    5.67
  -3  -7  -5   41.44    4.49
  -3  -7  -5   46.67    5.36
  -1   5   8  122.83   18.14
  -1   5   8  163.26   15.90
   1  -5  -8   35.99    9.86
  -1   5   8  129.83   21.41
   1  -5  -8  117.93   12.07
   0   4   9   12.56    5.51
   0  -4  -9   17.39    4.89
   0   4   9   15.60    3.45
   6   3   4   90.35    9.30
   6   3   4   85.22    9.81
   6   3   4   95.17    9.90
   6   3   4  141.38   13.10
   6   3   4   91.12   10.07
   6   3   4  133.35   24.23
  -6  -3  -4   93.19    9.85
   6   3   4   79.03    8.73
   2   6  -4  142.22   14.01
   2   6  -4  142.88   14.19
  -2  -6   4  155.83   15.09
  -2  -6   4  142.70   14.95
  -2  -7  -6   19.86    2.81
  -2  -7  -6   20.92    3.49
   2   7   6   12.92    3.17
  -2  -7   2   13.39    2.56
   2   7  -2   17.62    2.51
  -2  -7   2   18.47    2.53
   5   1  -5    7.04    1.59
   5   1  -5   13.03    4.76
   5   1  -5    6.20    4.00
  -5  -1   5    7.64    1.21
  -6  -2   2   31.93    5.18
   6   2  -2   36.74   10.04
   6   2  -2   26.86    6.77
  -6  -2   2   25.00    2.97
   6   2  -2   35.83    3.80
  -2   4   8    0.69    1.63
  -2   4   8    0.28    2.84
   5  -1   6  122.65   15.88
  -5   1  -6   98.39   11.02
  -5   1  -6  114.92   11.74
   6   3  -1    1.10    2.84
  -6  -3   1    1.16    0.82
  -6  -3   1    1.07    1.58
   6   3  -1    0.54    5.07
   6   3  -1    0.69    0.76
   6   3  -1    0.50    0.85
   3  -4  -7   43.52   13.46
  -3   4   7   42.26    7.73
  -3   4   7   56.92    7.40
   3  -4  -7   36.02    6.52
   0   1  -9   36.65   10.21
   4  -5  -4   38.66    5.70
  -4   5   4   57.48    6.87
   4  -5  -4   35.02    5.34
   1  -1   9   52.25    6.31
   0  -5   6    0.53    0.57
   0   5  -6    0.86    0.72
   0   5  -6    1.35    1.02
   4   5   7   23.11    5.33
   4   5   7   42.29    5.05
   4   5   7   37.26    7.24
  -4  -5  -7   29.96    4.27
   4   5   7   41.43   13.56
  -4  -5  -7   35.39    4.78
   2   4   9   -0.73    5.23
  -2  -4  -9    0.02    0.18
   6  -2  -1    0.83    0.57
   6  -2  -1    1.50    1.70
   6  -2  -1    1.35    1.84
   1   8   2  108.49   11.34
   1   8   2  104.72   11.19
  -5   3  -4    0.02    0.13
   5  -3   4   46.21    4.58
  -5   3  -4   44.17    4.50
   5  -3   4   44.57    4.96
   3   6   7   -0.31    1.81
   3   6   7    2.06    2.24
  -3  -6  -7    1.70    1.06
  -3  -6  -7    1.45    0.83
  -3  -6  -7   -0.57    2.96
   3   6   7   -0.70    7.01
  -6  -4  -2   67.39    8.76
  -6  -4  -2   58.39   10.34
   6   4   2  137.33   22.59
   6   4   2  113.97   11.59
   6   4   2   94.96   11.05
   6   4   2  123.59   10.73
   6   4   2  140.62   15.27
   6   4   2   90.94   10.43
   3   2   9   17.72    6.07
  -3  -2  -9   56.47    8.44
  -3  -2  -9   57.45   16.18
  -1   4  -7   48.06    7.13
   1  -4   7   76.67    7.62
   1  -4   7   76.76    8.08
  -1   4  -7   61.43    8.14
  -1   4  -7   70.74    6.53
   3   5   8   41.09    8.64
   3   5   8   53.15   15.31
  -3  -5  -8   44.76    4.78
  -3  -5  -8   43.87    4.46
   5   2   7    4.47    2.59
   5   2   7    3.79    3.31
  -5  -2  -7    6.25    1.99
   5   2   7    5.95    1.23
  -5  -2  -7   13.23   11.09
  -5  -2  -7    5.08    1.78
  -5  -2  -7    6.12    1.06
   5  -4   2  100.42   11.08
   5  -4   2  121.93   10.98
  -5   4  -2   78.46   13.38
  -5   4  -2  107.05   11.75
  -3  -7   1  144.90   14.17
   3   7  -1  114.84   12.92
  -3  -7   1  109.28   15.67
   3   7  -1  138.28   12.84
  -5  -3   4  121.89   12.27
   5   3  -4  116.46   12.00
  -5  -3   4  147.21   16.11
   5   3  -4   98.83   17.12
  -2   7  -1   66.21    7.06
  -2   7  -1   73.86    7.40
   2  -7   1   77.47    8.34
   2  -7   1   71.68    7.50
  -3   1   8   40.85    7.53
   3  -1  -8   36.35    8.07
  -3   1   8   47.68    5.34
   3  -1  -8   56.30    8.99
   5   4  -3   81.27    8.56
  -5  -4   3   84.79    8.07
  -5  -4   3   87.24   11.11
   5   4  -3   77.01    8.74
  -1  -8  -3   48.39    5.66
   1   8   3   36.70    4.95
   6   4   1   42.04    5.46
   6   4   1   56.95    6.37
   6   4   1   54.08    8.74
   6   4   1   42.96    5.02
  -6  -4  -1   30.76    5.15
  -6  -4  -1   21.52    6.38
   6   4   1   47.25    4.89
   2  -7  -4  120.83   10.71
   2  -7  -4   75.77    9.56
   2  -7  -4  119.13   10.03
   2  -7  -4   56.74   10.26
  -2   7   4  127.31   12.23
  -2   7   4   50.94   15.55
   6  -2   2  195.41   17.08
   6  -2   2  153.85   16.00
  -6   2  -2  197.27   30.30
   0   8   2   57.88    7.43
   0  -8  -2   51.62    6.61
   0   8   2   78.20    7.72
  -1  -8  -1  140.59   14.06
   1   8   1  142.85   13.84
   1   8   1  128.02   13.80
  -5  -1  -7  157.06    7.29
   5   1   7   93.50   13.96
   5   1   7   97.92   10.46
  -5  -1  -7  127.71    6.84
  -5  -1  -7  150.67   24.35
  -5   2   5  154.98   17.66
  -5   2   5  207.42   19.94
   5  -2  -5  150.11   17.89
  -5   2   5  173.53   16.57
   1   4  -7   37.43    4.53
  -1  -4   7   59.01    5.62
  -1  -4   7   51.32    5.39
  -3  -1  -9   29.54    5.64
  -3  -1  -9   29.84   12.10
   3   1   9   45.61   11.17
  -3   3  -7  148.33   14.06
   3  -3   7  202.57   19.68
   0   3  -8   38.57    6.09
   0  -3   8   41.54    5.38
   0  -3   8   62.62    5.90
   6   4   3  130.52   12.97
   6   4   3  106.20   13.12
  -6  -4  -3   61.22   10.39
  -6  -4  -3   67.72    9.55
   6   4   3  158.42   16.98
   6   4   3  150.65   25.08
   6   4   3  134.77   13.35
  -1  -5   6   31.67    3.69
   1   5  -6   25.87    3.30
  -1  -5   6   22.92    3.30
   1   5  -6   29.02    3.39
   2   2  -8   98.23   16.27
   2   2  -8  128.55   16.58
  -2  -2   8   82.51   19.21
  -2  -2   8  202.98   17.20
   4   0   8  135.03   13.66
  -4   0  -8  188.25   10.10
  -4   0  -8   -0.02    0.11
  -1   5  -6  101.05   10.26
  -1   5  -6   96.86   10.46
  -3   4  -6   28.35    2.96
   3  -4   6   36.05    4.35
   3  -4   6   35.34    4.02
   4   6   6   16.66    3.25
  -4  -6  -6   15.76    2.60
  -4  -6  -6    9.42    4.10
   4   6   6   22.06    4.34
   4   6   6   14.37    8.96
  -4   3  -6  125.29   19.28
  -4   3  -6  158.59   16.00
   4  -3   6  235.97   22.61
  -3   2   8   78.74    7.92
  -3   2   8   77.89   10.45
  -3  -3  -9  238.10   27.04
   3   3   9  132.16   19.23
  -3  -3  -9  256.95   25.00
  -3   0   8   57.58    5.96
  -3   0   8   38.24    7.84
   3   0  -8   66.61    9.38
   0  -8  -1   46.05    5.88
   0   8   1   51.61    6.00
   0   8   1   50.26    6.08
   0   8   1   54.08    6.06
   0   8   3  132.95   12.41
   0  -8  -3  127.46   11.96
   0   8   3   98.20   12.08
   0  -8  -3  127.33   12.03
   0   8   3  113.09   11.78
   6   2   5    0.67    0.52
   6   2   5    1.06    1.65
   6   2   5    0.50    1.28
   6   2   5    0.84    1.32
  -6  -2  -5   -4.08    8.35
   6   2   5   -0.19    2.51
  -6  -2  -5    0.46    0.80
   4  -1  -7   21.00    6.05
   4  -1  -7   30.98    7.73
  -4   1   7   33.63    3.98
  -4   1   7   38.51    6.94
   4   6  -2    0.14    0.81
   4   6  -2    0.31    0.70
  -4  -6   2    0.18    1.77
  -4  -6   2    0.39    1.32
  -4  -6   2    0.53    0.96
   5  -4  -3    1.65    1.64
   5  -4  -3    1.88    1.74
   5  -4  -3    1.30    1.58
  -5   4   3    0.86    0.67
  -5   4   3    1.00    0.38
   5  -4  -3    1.45    6.27
   6   0  -3  139.28   22.05
   6   0  -3  176.39   16.79
   6   1   5   42.21    4.23
  -6  -1  -5   53.92   16.92
  -6  -1  -5   43.40    5.17
   6   1   5   31.28    6.74
   6   1   5   34.58    6.28
   6   1   5   41.58    5.93
   5   3   7   53.63    9.86
   5   3   7   55.80    5.63
  -5  -3  -7   60.43    7.37
   5   3   7   46.42    7.79
  -5  -3  -7   58.19    6.07
  -5  -6  -2    0.66    1.73
   5   6   2    1.48    1.02
  -5  -6  -2    0.61    1.41
  -5  -6  -2    1.53    1.24
   5   6   2    4.07    1.09
   5   6   2    0.26    2.45
  -5  -6  -2    2.03    1.03
  -4   5  -3    0.27    1.01
   4  -5   3    0.69    0.78
   4  -5   3    0.44    0.38
  -4   5  -3   -0.42    1.97
  -4  -7  -2   47.29    6.27
  -4  -7  -2   50.42    5.46
  -4  -7  -2   53.04    6.09
   4   7   2   59.16    5.93
  -4  -7  -2   39.42    6.27
   4   7   2   44.27    5.34
   4   7   2   43.83    5.74
   1  -3   8   30.07    3.45
  -1   3  -8   14.07    4.29
   1  -3   8   34.44    4.04
  -1  -6  -8  303.22   31.36
   1   6   8  273.95   34.24
  -1  -6  -8  299.75   29.92
   1   6   8  266.37   27.53
   0   7  -3   10.50    1.70
   0   7  -3   10.69    1.75
   0  -7   3   10.91    1.64
   4   0  -7   32.58    7.28
  -4   0   7   27.01    5.94
  -4   0   7   30.57    3.66
  -2   6  -4  178.83   17.29
  -2   6  -4  177.38   17.16
   2  -6   4  178.41   17.76
   4   7   3   74.59    8.53
  -4  -7  -3   89.87    8.36
  -4  -7  -3   57.00    9.35
  -4  -7  -3   77.24    8.75
  -4  -7  -3   77.04    8.64
   4   7   3   74.99    9.07
  -2  -8  -2  197.16   25.42
  -2  -8  -2  260.30   24.29
  -2  -8  -2  194.94   24.89
   2   8   2  296.93   24.84
  -2  -8  -2  296.53   24.29
   2   8   2  227.24   24.53
   2   8   2  234.46   24.31
   5   6   3    1.87    2.88
  -5  -6  -3    2.67    1.01
   5   6   3    3.08    1.02
  -5  -6  -3   -0.15    2.04
   5   6   3    4.73    1.77
  -5  -6  -3    2.19    1.26
  -5  -6  -3    2.51    1.88
   5   6   3    4.27    1.08
   6   1  -3   26.06    2.97
   6   1  -3   26.05    7.06
  -6  -1   3   11.58    2.37
  -6  -1   3   16.26    1.76
   6   1  -3   33.16    8.26
  -4   2  -7   34.46    5.34
   4  -2   7   51.09    5.78
  -1  -7   3    3.45    1.08
  -1  -7   3    2.72    1.16
   1   7  -3    4.11    1.27
   1   7  -3    4.08    1.19
  -3  -4   6   66.32    6.39
   3   4  -6   50.64    6.63
   3   4  -6   94.82    7.30
  -3  -4   6   42.06    9.02
  -3  -4   6   42.23    7.48
   6   4   0    4.47    1.37
   6   4   0    6.31    3.85
   6   4   0    4.39    0.88
  -6  -4   0    0.52    2.78
  -6  -4   0    1.73    1.40
   6   4   0    5.45    1.99
   6   4   0    4.29    1.10
  -6  -4   0    2.89    1.82
  -6   1  -4   13.14    1.88
   6  -1   4   16.17    3.33
   6  -1   4   17.32    5.06
   6  -1   4    9.97    1.13
  -6   1  -4   12.24    3.43
   1   8   4  111.02   11.22
   1   8   4  106.58   12.10
  -1  -8  -4  150.41    5.85
  -1  -8  -4  147.12    6.41
   2   8   3    0.15    1.03
  -2  -8  -3    0.38    0.88
  -2  -8  -3    2.09    0.91
   2   8   3    2.09    1.41
  -2  -8  -3    1.22    1.47
   2   8   3    0.70    0.92
  -6   2   2   13.74    5.61
   6  -2  -2   39.65    6.66
   6  -2  -2   41.56    7.02
   4   4   8  143.58   26.70
   4   4   8  105.84   16.37
  -4  -4  -8   85.24   12.39
  -4  -4  -8  112.08   10.98
  -4  -4  -8  123.96   12.90
  -5  -6  -1    0.28    1.83
  -5  -6  -1    1.57    1.56
  -5  -6  -1    0.56    1.13
   5   6   1    1.99    0.93
   5   6   1    1.29    0.87
   1   1  -9  227.83   21.71
   3  -6  -5   39.22    6.15
  -3   6   5   55.58    6.79
   3  -6  -5   27.67    6.45
  -2   1  -9   -0.39    3.22
   2  -1   9    0.29    1.53
   3   5  -5   82.41    8.64
  -3  -5   5   48.17   10.32
  -3  -5   5   57.55    8.28
  -4  -7  -1    0.44    0.87
   4   7   1   -0.07    0.85
  -4  -7  -1    0.17    1.05
  -4  -7  -1    0.23    1.32
   4   7   1    0.14    0.90
  -4  -7  -1   -0.08    1.30
  -6   1   3  135.19   15.87
   6  -1  -3   96.60   13.23
  -4  -4   5    3.40    2.53
   4   4  -5    3.19    1.39
  -4  -4   5    3.17    1.03
  -4  -4   5    0.19    2.25
   4   4  -5    3.75    1.16
   5   2  -5  293.22   22.73
   5   2  -5  180.52   18.58
  -5  -2   5  207.72   19.97
  -4   2   7   14.93    3.97
  -4   2   7    6.34    3.33
   4  -2  -7    5.03    3.67
  -4   2   7    9.21    1.69
   1   8   0   35.55    4.38
  -1  -8   0   40.37    4.67
   1   8   0   35.57    4.35
  -4   4  -5   32.22    4.41
  -4   4  -5   63.99    9.22
   4  -4   5  110.22   11.20
   0  -6   5   42.44    4.63
   0   6  -5   39.66    4.64
   0   6  -5   45.33    4.70
   5   5  -2  280.41   30.86
   5   5  -2  330.84   30.65
  -5  -5   2  385.95   30.42
   5   5  -2  382.52   31.68
  -5  -5   2  317.07   32.58
  -2  -8  -1  148.63   13.87
  -2  -8  -1  105.45   15.52
  -2  -8  -1  154.43   13.97
   2   8   1  136.73   14.16
   2   8   1  152.33   14.41
  -2  -8  -1  117.03   14.43
   2   8   1  133.65   14.33
  -2   1   9   37.74    4.55
   2  -1  -9   33.57    6.09
  -2   1   9   20.75    5.74
   2  -1  -9   30.88    8.28
   1  -7  -6   66.52   12.52
  -1   7   6  158.37   15.56
  -1   7   6   76.94   19.64
   1  -7  -6  163.41   12.76
   1  -7  -6  175.40   13.33
   1  -7  -6   83.65   10.76
   1   3  -8   56.69    6.42
  -1  -3   8   47.75    6.25
   1   3  -8   34.86    5.56
  -1   4   9   63.69   12.75
  -1   4   9   99.78   11.24
   1  -4  -9  143.91   24.14
   0  -6  -8  221.12   20.44
   0  -6  -8  163.59   21.63
   0   6   8  160.15   18.03
   0   6   8  174.77   23.57
   6   3   5  118.80   13.19
   6   3   5  101.37   12.05
   6   3   5  100.87   10.72
   6   3   5  112.30   11.52
  -6  -3  -5  115.15   12.08
   2   6   8   71.18   14.51
   2   6   8   79.33   17.49
  -2  -6  -8   89.50    9.41
  -2  -6  -8   81.36    8.39
  -2  -6  -8   95.11   10.94
  -5   0  -7   44.25   14.10
  -5   0  -7   43.78    5.38
   5   0   7   16.04    3.59
   5   0   7   43.95    9.76
  -5   0  -7   33.84    5.11
  -3   2  -8   -0.19    1.40
   3  -2   8  168.18   16.79
   6   4   4  386.53   31.08
   6   4   4  284.53   30.13
   6   4   4  278.86   31.12
   6   4   4  304.27   30.63
   6   4   4  479.92   35.67
   6   4   4  405.05   47.16
  -6  -4  -4  179.64   30.19
  -6  -4  -4  347.27   28.71
   6   4   4  339.67   31.25
   0   8   0   10.16    1.86
   0   8   0   12.18    2.06
   0   8   0   10.05    1.97
   0  -8   0    9.88    1.74
   0  -8   0    8.89    2.22
  -2   2   9   22.13    7.39
   2  -2  -9   21.04   10.42
  -2   2   9   38.17    7.00
   2  -2  -9   34.93    7.38
   0   8   4    1.35    1.39
   0   8   4    2.24    1.11
   0  -8  -4    3.89    1.41
   0   8   4    5.49    2.09
   0  -8  -4    3.35    1.33
   0  -8  -4    1.41    1.68
  -3   6  -3  148.64   14.65
   3  -6   3  148.09   14.25
   3  -6   3  138.63   13.54
  -3   6  -3  148.73   14.48
  -4  -7  -4  114.32   11.57
  -4  -7  -4  121.13   12.18
  -4  -7  -4  131.91   11.73
   4   7   4   98.21   12.25
   4   7   4  109.50   11.72
  -4  -7  -4  112.35   12.02
  -3   0  -9    9.94    3.48
   3   0   9   20.24    6.00
   3   0   9   11.52    4.18
   6   0   5  109.26   12.10
  -6   0  -5  108.75   11.60
  -6   0  -5  124.20   13.82
   6   0   5  103.81    9.41
   6   0   5   58.48   11.92
   6   0   5  122.29   17.34
   6   0   5   62.09   11.62
   4  -4  -6  147.91   19.30
  -4   4   6  214.22   21.19
  -4   4   6  172.86   19.88
   4  -4  -6  166.35   29.44
  -6   2  -3   11.41    3.43
   6  -2   3   11.61    1.30
   6  -2   3   11.38    1.27
   6  -2   3   13.56    1.63
   1   5   9   69.40   16.10
   1   5   9   71.32   11.85
  -1  -5  -9   87.17   11.76
   1   5   9   29.17   12.66
   1   5   9   61.43    7.27
   6   3  -2    8.62    4.43
  -6  -3   2   12.30    3.35
  -6  -3   2    7.56    1.44
   6   3  -2   10.07    1.68
   6   3  -2    8.44    1.50
   4  -6  -1   72.88    9.52
  -4   6   1   75.93   10.84
   4  -6  -1  116.92   10.06
  -4   6   1   97.31    9.36
  -3  -7  -6   58.98    6.79
   3   7   6   58.48    7.50
  -3  -7  -6   57.52    5.71
   3   7   6   42.13    6.49
  -5  -6  -4    7.13    1.83
   5   6   4    7.42    3.08
  -5  -6  -4    7.07    2.43
  -5  -6  -4    4.07    2.63
  -5  -6  -4    6.81    1.47
   5   6   4    5.52    1.33
   5   6   4    7.90    2.12
  -4  -5   4   -0.05    0.71
   4   5  -4    0.15    0.87
   4   5  -4    0.23    0.91
   4   5  -4   -0.05    0.74
  -4  -5   4    0.67    2.12
  -4  -5   4   -0.29    2.08
   1   6  -5   29.67    3.49
  -1  -6   5   34.67    4.26
  -1  -6   5   32.72    3.97
   1   6  -5   29.43    3.58
   1   7   7    7.02    5.81
  -1  -7  -7    8.07    2.09
  -1  -7  -7    9.26    2.68
   1   7   7    7.10    2.85
   5   5   6   45.87    6.99
   5   5   6   39.59    6.01
   5   5   6   37.34    4.83
  -5  -5  -6   37.33    6.63
  -5  -5  -6   47.04    5.59
  -5  -5  -6   43.21    4.60
   2   8   4   30.90    5.03
  -2  -8  -4   41.28    4.35
  -2  -8  -4   45.58    5.02
   2   8   4   61.61    7.01
  -2  -8  -4   34.09    4.06
  -2   4  -7  215.34   19.75
   2  -4   7  267.58   25.73
   2  -4   7  259.44   25.34
  -2   4  -7  158.73   21.85
  -5   4  -3  145.94   21.15
   5  -4   3  183.38   17.84
  -5   4  -3  184.11   18.60
  -3   5  -5    8.16    2.17
  -3   5  -5   14.44    3.65
   3  -5   5   13.74    2.24
  -3   3   8    8.72    2.52
  -3   3   8    7.74    3.10
  -3   3   8    4.44    3.29
  -4  -1   7    8.47    3.62
   4   1  -7   16.62    3.98
   4   1  -7   11.42    2.03
  -4  -1   7   14.84    2.25
  -2   7  -2  353.48   31.03
   2  -7   2  325.90   30.42
  -2   7  -2  293.35   30.57
   2  -7   2  305.88   29.65
  -2   7  -2  336.65   30.63
   3   1  -8    6.87    3.04
  -3  -1   8    7.32    3.66
   3   1  -8   20.51    3.21
  -3  -1   8   14.68    2.31
  -4   6   0   89.63    6.78
  -4   6   0   97.05    3.68
   4  -6   0  114.95   10.59
   4  -6   0   89.57   10.63
   1  -8  -2    2.82    1.60
  -1   8   2    3.74    1.43
  -1   8   2    3.28    1.34
   1  -8  -2    4.03    1.30
  -1   8   2    3.65    1.35
   1  -7   3  161.84   15.82
  -1   7  -3  177.15   16.61
  -1   7  -3  163.47   16.79
   1  -7   3  167.27   16.52
   3   4   9   52.23   10.53
  -3  -4  -9   85.12    7.74
  -3  -4  -9   76.12    4.30
   3   4   9   37.66   11.44
  -3  -3   7  158.66   11.99
   3   3  -7  113.95   14.18
   3   3  -7  197.64   14.84
  -3  -3   7   54.50   12.39
  -4  -3   6    8.33    4.08
  -4  -3   6   30.34    3.18
   4   3  -6   41.01    4.75
   4   3  -6   25.23    3.40
   4  -6  -2   46.03    5.93
   4  -6  -2   43.90    4.43
  -4   6   2   63.76    6.37
  -4   6   2   45.84    7.79
  -2   7   5  322.74   28.09
  -2   7   5  128.69   32.58
   2  -7  -5  309.12   23.46
   2  -7  -5  233.93   22.67
  -2   0   9   39.70    4.39
  -2   0   9   15.79    5.78
   2   0  -9   40.41    5.25
   6   2  -3   16.49    2.13
  -6  -2   3   12.90    3.81
   6   2  -3   21.06    5.17
   6   2  -3   11.38    4.98
   6   2  -3   19.23    7.61
  -6  -2   3   20.08    2.49
   5   6   0   26.60    3.54
   5   6   0   31.12    3.50
  -5  -6   0   29.74    5.22
  -5  -6   0   35.78    5.38
  -5  -6   0   23.07    3.79
   1  -8  -1    0.39    1.08
  -1   8   1    2.19    1.15
  -1   8   1    0.50    0.92
   4  -5  -5  160.24   23.87
  -4   5   5   96.38   10.39
   4  -5  -5  138.75   12.36
   1   2  10   13.23    6.42
  -1  -2 -10  123.08   19.58
   1   2  10  100.02   12.46
  -1  -2 -10  114.50   21.75
   1  -6   5  156.59   15.80
  -1   6  -5  149.30   14.57
   5   4   7  116.78   11.56
   5   4   7   94.90   13.64
   5   4   7  123.48   16.13
  -5  -4  -7  139.15   13.66
  -5  -4  -7  117.40   12.11
   0   5   9  127.60   22.57
   0   5   9  117.48   17.93
   0   5   9  136.49   14.49
   0  -5  -9  129.53   16.29
   6  -3   0   35.33    5.81
   6  -3   0   33.82    3.64
   6  -3   0   30.39    3.79
   6  -3   0   44.39    5.58
   6  -3   0   25.43   10.11
  -4  -7   0   -0.08    1.14
   4   7   0    0.35    0.81
  -4  -7   0    0.94    1.50
   4   7   0   -0.30    0.85
   5  -3  -5  176.47   19.03
  -5   3   5  134.89   13.86
   5  -3  -5  136.70   17.61
  -5   3   5  155.63   14.76
  -2  -5  -9   45.05    4.66
   2   5   9   16.70    8.85
  -2  -5  -9   44.47    5.80
   2   5   9   19.91    3.69
  -2  -5  -9   45.87    5.11
   2  -3   8   68.63    6.34
   2  -3   8   52.10    5.50
  -2   3  -8   22.22    6.42
  -3  -7   2  166.75   16.99
   3   7  -2  161.87   16.53
   3   7  -2  172.47   16.51
  -3  -7   2  185.39   17.30
  -3  -7   2  126.55   19.34
   1  -8  -3    1.75    1.17
  -1   8   3    1.78    1.14
  -1   8   3    0.57    1.30
   1  -8  -3    1.61    1.34
   1  -8  -3    1.95    0.91
  -1   8   3    2.93    1.43
   3  -7  -1  155.92   19.65
   3  -7  -1  242.99   19.73
  -3   7   1  207.07   18.93
  -3   7   1  181.43   19.95
   2   5  -6  113.07   11.48
  -2  -5   6   80.46   10.34
  -2  -5   6  117.20   10.46
   6   4  -1   23.16    2.93
  -6  -4   1   25.91    4.70
   6   4  -1   29.71    7.16
  -6  -4   1   19.20    2.95
   6   4  -1   19.93    3.06
   6   4  -1   22.39    2.54
   2   8   0   61.50    6.64
  -2  -8   0   58.90    7.20
  -2  -8   0   61.25    6.55
   2   8   0   57.07    6.66
   2   8   0   58.53    6.49
  -2  -7  -7   57.67    5.97
   2   7   7   28.44    5.37
  -2  -7  -7   62.09    7.13
   2   7  -3   48.94    5.68
   2   7  -3   52.08    5.64
  -2  -7   3   54.77    6.15
   2   7  -3   53.67    5.71
  -2  -7   3   54.87    6.37
  -2  -4   7  113.67   16.19
  -2  -4   7  193.07   15.97
   0  -7  -7   -0.13    1.97
   0   7   7    0.48    1.70
   0  -7  -7   -0.50    2.60
   3  -7  -2   51.58    7.52
   3  -7  -2   81.98    7.71
  -3   7   2   53.08    7.84
  -3   7   2   68.77    6.98
  -2   5  -6   56.57    6.49
   2  -5   6   71.86    7.84
  -1  -1 -10  148.60   23.34
  -1  -1 -10  111.28   19.41
   1   1  10  198.80   22.59
   1   8   5   51.05    7.26
   1   8   5   50.87    6.19
  -1  -8  -5   83.32    9.41
  -5   2  -6   45.49    5.62
   5  -2   6   82.93    9.93
   5  -2   6   59.81    6.62
  -5   2  -6   49.90    6.28
   0  -2   9   12.76    3.16
   0   2  -9   16.50    5.24
   0  -2   9   40.68    3.88
   6  -3   1  100.99   10.29
   6  -3   1   99.55   10.08
   6  -3   1  108.68   12.59
   6  -3   1  115.55   17.09
   0   2  10   10.14    6.47
   0   2  10   25.32    6.17
   0  -2 -10   66.19    6.79
   0  -2 -10   54.51   14.16
   0  -2 -10   43.40   12.62
   4  -1   8  104.22   11.84
  -4   1  -8   63.92    6.18
  -4   1  -8   74.37    8.90
  -3  -6   4  156.98   16.95
  -3  -6   4  178.14   16.56
   3   6  -4  193.18   19.01
  -3  -6   4  132.11   19.97
  -2   3   9    3.11    2.02
   2  -3  -9    3.12    5.80
  -2   3   9    2.95    2.35
  -2   3   9    1.67    3.26
  -2   3   9   -0.74    2.91
   5  -4  -4   39.92   13.97
   5  -4  -4   67.75    8.23
  -5   4   4   61.06    5.31
   5  -4  -4   54.25    7.51
  -5   4   4   40.93    4.48
   5  -4  -4   27.75    6.36
   6  -3  -1    2.82    1.16
   6  -3  -1    3.36    0.77
   6  -3  -1    4.32    7.84
  -6   3   1    4.94    5.49
   6  -3  -1    3.51    2.04
   6  -3  -1    5.13    2.23
   1  -2   9    0.90    0.77
   1  -2   9    0.84    1.39
  -1   2  -9   -2.32    4.70
   2  -5  -8    0.36    2.34
  -2   5   8    1.16    2.67
   2  -5  -8    1.55    2.50
  -2   5   8    2.34    5.14
  -2   5   8    1.01    1.71
   2  -6  -7   56.42    7.41
   2  -6  -7   59.73    6.61
   2  -6  -7   25.09    4.95
  -2   6   7   41.83    6.65
   2  -6  -7   20.97    6.17
  -5   3  -5  271.79   26.68
   5  -3   5  318.28   31.25
   5  -3   5  331.45   30.90
  -5   3  -5  299.66   28.31
   6  -2  -3   33.07    6.45
   0  -1 -10  166.38   23.14
   0   1  10  233.33   24.54
   0  -1 -10  125.91   11.84
  -1  -3 -10   30.75    3.94
  -1  -3 -10   32.63    3.17
   1   3  10   32.52    8.30
  -5   0   6    0.81    2.04
  -5   0   6    0.34    0.88
   5   0  -6    0.65    4.02
   5   0  -6   -0.33    2.91
   4  -6   1   75.35    7.80
  -4   6  -1   41.40    4.70
   4  -6   1   81.31    8.66
  -4   6  -1   22.15    8.47
  -4   6  -1   78.55    7.47
  -4   6  -1   69.74    5.46
   3  -7   0  137.02   12.35
  -3   7   0  103.25   16.91
  -3   7   0  116.41   11.21
  -3   7   0   98.97   12.07
   3  -7   0  103.25   12.67
  -5   1   6   12.67    1.86
  -5   1   6   17.66    4.28
   5  -1  -6   10.44    4.37
   5  -1  -6   14.36    5.78
  -4   3   7   10.63    3.68
  -4   3   7   14.76    3.74
   4  -3  -7    9.96    3.84
  -4   3   7   12.96    2.13
  -1  -8   1   38.15    4.50
   1   8  -1   35.05    4.20
   1   8  -1   33.55    4.22
  -1  -8   1   44.08    5.82
  -5   5   1   60.59    9.77
   5  -5  -1   83.56    9.13
   5  -5  -1   59.51    7.31
  -5   5   1   83.53    7.98
   4  -6  -3   57.69    7.67
  -4   6   3   70.85    7.53
   4  -6  -3   38.92    7.29
   4   7   5   38.30    5.23
   4   7   5   29.52    4.61
  -4  -7  -5   36.06    4.41
  -4  -7  -5   35.03    4.06
   4   7   5   28.78    3.95
  -4  -7  -5   31.13    4.58
  -1   8   0   13.37    2.25
   1  -8   0   13.95    2.72
   1  -8   0   16.34    2.30
  -1   8   0   16.48    2.42
  -5   5   0  147.58   17.14
   5  -5   0  167.36   16.65
   0   8  -1    0.10    0.77
   0   8  -1    0.77    0.89
   0  -8   1    0.19    0.73
   0   8  -1    0.39    0.75
  -3   5   7  106.85   15.51
   3  -5  -7  124.17   12.76
  -3   5   7  132.75   13.67
  -3   5   7   99.63   13.36
   3  -5  -7  146.74   23.16
   6   5   2    8.61    1.64
   6   5   2    6.23    7.82
   6   5   2    9.89    2.06
   6   5   2    7.76    1.91
   6   5   2    7.51    3.83
  -6  -5  -2    8.62    2.26
  -6  -5  -2    5.55    3.64
  -6  -5  -2    3.62    2.47
   0  -8  -5  187.93   14.05
   0  -8  -5  115.06   12.51
   0   8   5   90.50   12.12
   0   8   5  114.53   13.54
   0  -8  -5   72.90   14.04
   0  -8  -5  175.42   14.09
   2   2  10  115.53   18.72
  -2  -2 -10   94.12   13.27
  -2  -2 -10  123.65   22.33
  -3  -8  -2    9.41    1.79
  -3  -8  -2    4.54    1.78
   3   8   2    7.93    1.87
   3   8   2    6.85    1.87
  -3  -8  -2    7.02    2.16
  -6  -4  -5  375.81   36.15
   6   4   5  306.89   34.44
  -6  -4  -5  370.08   35.37
   6   4   5  338.07   33.31
   6   4   5  377.75   35.26
   6   4   5  424.51   51.34
   6   4   5  415.80   33.95
   6   4   5  311.56   33.25
   3  -7  -3   11.12    2.92
   3  -7  -3   14.46    2.92
  -3   7   3    5.44    6.15
   3  -7  -3   21.27    3.33
   3  -7  -3   17.00    2.17
  -3   7   3    9.83    2.91
  -3   7   3   15.19    2.40
   5   6   5   54.88   15.15
   5   6   5   41.56    4.88
   5   6   5   63.71    7.97
  -5  -6  -5   49.64    5.16
  -5  -6  -5   43.25    6.55
  -5  -6  -5   50.80    5.88
   5   6   5   38.27    4.35
   5   6   5   57.50    6.47
   2   8   5   46.22    5.05
   2   8   5   45.95    6.35
  -2  -8  -5   33.26    7.16
  -2  -8  -5   69.56    6.97
   3   8   3    0.70    1.27
   3   8   3    0.08    1.07
  -3  -8  -3    0.19    0.85
  -3  -8  -3    0.39    1.23
  -3  -8  -3    0.07    1.01
  -6  -2  -6    7.51    1.81
  -6  -2  -6    5.44    8.94
   6   2   6    7.28    2.71
   6   2   6    5.12    3.35
   6   2   6    7.17    1.89
   0  -3 -10   16.82    7.91
   0   3  10    4.85    5.63
   0   3  10    5.21    3.02
   0   3  10    7.52    4.48
   0  -3 -10   18.20    9.54
   4   6   7    2.38    2.27
  -4  -6  -7   -0.89    2.44
  -4  -6  -7    0.80    1.07
   4   6   7   -0.76    6.27
   4   6   7    2.09    1.42
   4  -5   4  154.01   15.31
  -4   5  -4  111.62   13.83
  -4   5  -4  112.30   11.07
   6   0  -4   27.94    3.55
  -6   0   4   20.05    2.01
   6   0  -4   23.14    3.69
   6   0  -4   33.11    6.71
   6   0  -4   24.86    7.73
  -6   0   4   13.17    2.60
   5   4  -4  418.22   30.02
  -5  -4   4  261.93   28.88
  -5  -4   4  297.42   25.60
   5   4  -4  265.24   27.94
  -1   8   4   46.88    7.59
   1  -8  -4   66.32    7.66
  -1   8   4   54.44    7.31
   1  -8  -4   82.71    8.04
  -6  -5  -3    6.97    3.81
   6   5   3    8.06    2.12
  -6  -5  -3    3.71    2.31
   6   5   3    7.46    8.04
   6   5   3   13.04    4.15
   6   5   3   11.24    2.09
   6   5   3   14.18    2.65
   1  -6  -8    1.88    2.93
   1  -6  -8    5.39    2.24
   1  -6  -8    3.01    2.55
  -1   6   8    6.57    3.30
  -1   6   8    3.76    5.47
  -6  -1  -6  273.32   27.32
   6   1   6  199.71   22.03
  -6  -1  -6  418.69   49.72
   6   1   6  177.08   24.03
   6   1   6  247.73   23.29
   6   5   1    1.19    3.15
  -6  -5  -1    1.76    1.60
  -6  -5  -1    0.49    2.81
   6   5   1    1.73    1.09
   6   5   1    2.58    0.92
  -6  -5  -1    3.14    1.65
   6   5   1    3.48    1.53
   6   5   1    2.07    0.97
  -3  -6  -8    7.99    1.86
  -3  -6  -8    2.99    4.02
  -3  -6  -8    8.19    1.60
   3   6   8   10.37    8.21
   3   6   8    5.23    3.41
   3   6   8    4.88    2.75
  -4  -5  -8   77.14    8.10
   4   5   8   79.23   19.75
   4   5   8  106.63    9.54
   4   5   8   49.36    9.76
  -4  -5  -8   72.82    9.00
  -4  -5  -8   80.03    9.67
   4   5   8   73.10   12.05
   4   6  -3    9.62    1.71
  -4  -6   3    4.97    3.05
   4   6  -3    5.56    1.45
   4   6  -3    4.71    1.43
  -4  -6   3    5.49    1.54
  -4  -6   3    5.90    2.15
   6  -3   2   90.68    9.01
  -6   3  -2   91.32   11.87
   6  -1   5  115.61   15.32
  -6   1  -5  108.86   12.12
  -6   1  -5   92.43    9.85
  -2  -6   5  111.40   13.50
   2   6  -5  148.04   14.27
   2   6  -5  138.02   13.98
  -2  -6   5  160.43   13.78
  -5   1  -7   78.61    9.05
  -5   1  -7   77.84    8.94
   5  -1   7  101.67   12.80
   5  -1   7   74.65    9.56
   2   1  10   41.04    8.63
  -2  -1 -10   27.71   11.15
   5  -5  -2   35.65    6.10
  -5   5   2   51.72    5.20
   5  -5  -2   54.75    5.45
  -5   5   2   38.46    6.80
   5  -5  -2   47.47    6.98
  -6   3   2    3.95    4.72
   6  -3  -2    2.07    2.09
   6  -3  -2    0.79    6.11
   6  -2   4   88.81    9.45
   6  -2   4   97.41    9.25
  -6   2  -4   88.96   11.22
  -2  -3 -10  142.10   25.27
  -2  -3 -10  101.02   13.87
  -4  -2  -9    9.48    1.60
   4   2   9    2.96    4.23
  -4  -2  -9    8.54    9.66
  -4  -2  -9   13.97    3.36
   5  -5   1  197.36   19.26
  -5   5  -1  124.90   15.38
   5  -5   1  187.11   18.57
  -5  -1   6   -0.22    2.34
   5   1  -6   -0.71    3.75
   5   1  -6    1.16    3.13
   5   1  -6    0.22    1.44
   3   8   1   16.85    2.58
  -3  -8  -1   13.21    2.89
  -3  -8  -1   21.27    2.83
  -3  -8  -1   16.80    3.79
   3   8   1   20.30    2.93
   3   8   1   17.37    2.85
   1   0  10   88.77    9.70
  -1   0 -10   14.88    7.06
   1   0  10   48.59    7.57
  -2  -1   9    1.47    2.78
   2   1  -9    5.78    1.59
  -2  -1   9    5.65    1.71
   1   2  -9  142.13   16.90
   2   3  -8   94.45   11.85
  -2  -3   8   38.54    6.17
  -2  -3   8   37.21    8.28
   2   3  -8  119.77   11.14
   6   1  -4   39.00    4.38
   6   1  -4   46.05    9.03
   6   1  -4   44.81    8.67
   5   3  -5  131.42   12.33
   5   3  -5   95.58   10.11
  -5  -3   5   93.55    9.51
  -5  -3   5   97.25   12.89
   3  -1   9   29.44    3.95
   3  -1   9   41.78    6.39
  -5  -6   1  132.33   14.89
   5   6  -1  143.38   12.93
  -5  -6   1  117.31   12.66
   5   6  -1  115.38   13.00
   6  -1  -4   94.19   12.93
  -6   1   4   63.75    5.93
  -6   1   4   56.89    5.72
   5  -2  -6   13.74    4.45
  -5   2   6   15.61    3.57
  -5   2   6   21.89    4.57
  -5   2   6   14.86    2.14
   3  -6  -6   41.92    9.73
  -3   6   6  102.40   11.58
   3  -6  -6   68.03    9.40
  -3  -8  -4    9.54    1.66
  -3  -8  -4    9.14    1.55
   3   8   4   16.06    3.47
  -3  -8  -4    6.57    2.55
  -3  -8  -4   11.33    2.08
   3   8   4    7.91    2.30
  -6  -3  -6  135.20   13.51
   6   3   6  114.78   14.82
   6   3   6  150.23   13.80
   6   3   6  124.47   13.30
   6   3   6  125.76   16.40
  -6  -3  -6  149.40   14.62
   4   2  -7   -0.55    1.40
   4   2  -7    1.42    1.69
  -4  -2   7   -0.23    2.09
  -5  -2  -8    0.31    0.54
   5   2   8    0.41    0.60
   5   2   8   -0.38    3.15
  -5  -2  -8    0.73    1.27
   5   2   8   -0.35    3.56
  -5  -2  -8    0.69    1.04
   4   7  -1    4.44    1.38
  -4  -7   1    3.79    1.53
  -4  -7   1    3.64    2.46
   4   7  -1    5.96    1.35
  -3   7  -1   56.47    6.76
  -3   7  -1   52.95    5.76
  -3   7  -1   50.76    5.33
   3  -7   1   65.27    7.74
  -4  -3  -9   69.88   19.89
  -4  -3  -9   47.92    5.84
  -4  -3  -9   62.32    6.01
   4   3   9   28.45    7.68
  -4  -3  -9   54.27    7.73
   4   3   9   25.68    9.07
   0   7  -4  141.74   13.92
  -5  -5   3  190.63   22.10
   5   5  -3  317.69   23.29
   5   5  -3  199.48   21.98
  -5  -5   3  218.37   19.32
   2  -2   9  146.69   10.99
   2  -2   9   91.15    9.58
   4   1   9   47.94   11.10
   4   1   9  143.68   18.16
  -4  -1  -9  107.96   12.91
  -4  -1  -9  105.59   10.51
  -4  -1  -9  114.30   23.45
   3  -4  -8   -0.43    2.00
  -3   4   8    0.24    2.54
  -3   4   8   -1.00    2.00
  -3   4   8   -0.15    1.63
   7   1   1    7.48    1.31
   7   1   1    7.87    2.73
   7   1   1    8.48    4.52
   7   1   1   12.79    4.18
   7   1   1    7.55    1.63
   2   8  -1   98.14    9.93
   2   8  -1   83.63    9.95
  -2  -8   1  100.64   10.21
   2   8  -1  105.09   10.06
  -2  -8   1   91.23   10.00
  -2  -8   1  114.67   11.33
   6   3  -3   50.57    6.52
   6   3  -3   44.29    9.43
  -6  -3   3   40.70    7.19
  -6  -3   3   47.11    5.24
   6   3  -3   32.03    3.88
  -1   5   9   81.48   17.18
   1  -5  -9   90.45   12.85
  -1   5   9   78.85   13.86
  -1   5   9  110.90   11.71
   3   2  -8   16.94    4.10
  -3  -2   8   35.77    4.19
  -3  -2   8   20.54    6.17
   3   2  -8   27.88    4.19
  -5   4  -4   21.13    3.62
  -5   4  -4   15.33    1.68
  -5   4  -4    9.81    5.60
   5  -4   4   19.81    2.63
   6   5   4   66.45    9.05
   6   5   4   55.04    5.99
  -6  -5  -4   33.22    7.47
   6   5   4   53.99   15.40
   6   5   4   41.88    5.80
   6   5   4   37.45    5.26
   6   5   4   53.04    5.37
  -6  -5  -4   23.45    6.25
  -6  -5  -4   47.40    4.69
   6   5   4   41.59    4.96
  -1   2  10   43.89    6.45
  -1   2  10   14.23    7.03
  -1   2  10   57.95    6.36
  -1   2  10   22.84    6.07
   1  -2 -10   44.47    6.92
   1  -2 -10   61.47   13.59
   1   4  10    2.53    2.30
   1   4  10    2.78    4.03
  -1  -7   4    0.89    0.94
   1   7  -4    1.10    1.07
  -1  -7   4    1.44    0.90
  -3  -5  -9   42.05    5.02
   3   5   9   24.31    7.13
  -3  -5  -9   38.16    4.54
   3   5   9   28.42    9.88
   3   5   9   49.90   15.71
   7   1   2   13.40    3.90
   7   1   2    6.56    1.22
   7   1   2    6.00    3.95
   7   1   2    8.82    1.84
   7   1   2    9.28    2.42
   7   1   2    7.45    0.93
  -4   6  -2    8.47    5.32
  -4   6  -2   17.61    2.13
   4  -6   2   18.13    2.73
  -4   6  -2   17.49    3.79
   1  -1 -10   -1.46    5.52
  -1   1  10    2.52    2.09
  -1   1  10    0.26    2.82
   1  -1 -10    2.44    1.13
   3   7   7   12.30    8.40
  -3  -7  -7    4.09    3.30
  -3  -7  -7   11.35    1.78
   3   7   7    7.40    2.77
   3   7   7    8.50    3.25
  -3  -7  -7   10.11    2.03
  -3  -7  -7   12.03    2.84
  -2   6  -5   24.08    2.93
  -2   6  -5   25.16    3.08
   2  -6   5   23.55    3.31
  -6  -5   0   22.21    4.14
   6   5   0   23.35    2.90
   6   5   0   24.29    3.18
   6   5   0   24.92    3.54
  -6  -5   0   19.11    3.35
  -6  -5   0   14.30    5.13
   6   5   0   25.45    7.22
   6   5   0   31.75    4.14
   5   1   8   12.97    5.95
  -5  -1  -8   45.19    3.98
  -5  -1  -8   40.12    4.41
   5   1   8   31.15    3.48
  -2   7  -3  121.97   12.48
   2  -7   3  118.10   11.73
   2  -7   3  126.08   12.52
  -2   7  -3  130.91   12.09
  -2   7  -3  116.78   12.04
   3  -6   4    1.01    0.95
  -3   6  -4    4.07    2.22
  -3   6  -4    0.84    0.96
  -1   7   7   93.51   11.69
   1  -7  -7   47.62    6.69
   1  -7  -7   37.47    8.20
   1  -8   1  290.48   24.02
  -1   8  -1  227.75   19.29
  -1   8  -1  178.44   18.89
   1  -8   1  212.45   21.98
  -1   8  -1  183.56   19.24
  -6  -4   2   44.43    6.86
   6   4  -2   30.45    3.80
   6   4  -2   36.24    4.09
  -6  -4   2   35.72    4.41
  -5  -3  -8   26.42    4.46
   5   3   8   17.75    6.27
   5   3   8   24.57    2.65
  -6   0  -6   25.53    4.57
  -6   0  -6   23.29    3.33
   6   0   6   24.76    8.21
  -6   0  -6   24.95   12.25
   6   0   6   10.29    3.52
  -3   7   4    1.73    1.22
   3  -7  -4    1.80    1.16
   3  -7  -4    0.25    1.03
  -3   7   4   -0.76    5.23
   3  -7  -4    1.60    1.85
   4  -6  -4    2.58    1.68
   4  -6  -4    2.29    1.41
   4  -6  -4    5.39    2.15
   4  -6  -4    0.47    1.88
  -4   6   4    3.55    1.33
   7   1   0   92.16   10.67
   7   1   0  108.37   13.14
   7   1   0   75.05    8.19
   7   1   0   74.67    7.57
   7   1   0   71.21   12.29
  -2   4   9   35.22    8.40
  -2   4   9   53.33    7.51
   2  -4  -9   42.95   13.23
   7   0   1   38.72    5.27
   7   0   1   18.60    6.36
   7   0   1   35.84    6.47
   7   0   1   29.42    7.79
   7   0   1   27.41    3.70
   7   2   1   31.95    3.19
   7   2   1   36.36    6.54
   7   2   1   43.37    7.55
   7   2   1   25.23    4.74
   7   2   1   29.78    3.69
   7   2   1   24.56    2.54
  -2   7   6  241.42   24.78
   2  -7  -6  108.33   19.12
   2  -7  -6  175.47   18.20
   1   8   6   15.74    3.74
   1   8   6   18.43    3.85
  -1  -8  -6   23.24    3.88
   7   2   2   26.21    4.22
   7   2   2   23.85    5.44
   7   2   2   21.69    3.33
   7   2   2   22.56    2.74
   7   2   2   22.44    2.49
   0  -5   7  106.87   11.12
   0   5  -7   90.26   10.36
   0   5  -7  124.41   11.88
   0  -5   7  104.23   10.56
   0   5  -7  103.26   10.23
   5   5   7  169.81   23.10
  -5  -5  -7  188.17   22.37
  -5  -5  -7  230.92   21.24
   5   5   7  227.49   25.30
  -5  -5  -7  220.73   19.87
   4  -3   7   23.96    3.07
  -4   3  -7   16.54    3.45
  -5   5   3   22.04    2.40
   5  -5  -3   18.27    4.44
  -5   5   3   29.13    2.97
  -5   5   3   22.06    4.37
   5  -5  -3   30.34    5.11
   5  -5  -3   31.24    4.54
   0  -4   8   59.09    5.97
   0   4  -8   43.92    5.97
   0  -4   8   65.47    6.33
   0   4  -8   33.25    5.14
   2   0  10   19.62    5.22
  -2   0 -10   12.31    5.80
   2   0  10   12.15    3.83
   7   0   0   -1.43    5.14
   7   0   0    0.63    0.79
   7   0   0   -1.03    4.15
   7   0   0    0.29    1.70
   7   0   0    1.35    2.87
   7   0   0    0.94    0.58
  -3  -8   0    1.72    1.29
  -3  -8   0    1.77    1.91
  -3  -8   0    2.22    1.04
   3   8   0    1.71    1.18
   3   8   0    2.26    1.05
   3   8   0    2.22    0.95
   0   4  10    4.76    2.55
   0  -4 -10    8.08    3.68
   0   4  10    4.25    4.56
  -2   8   2   20.75    3.77
  -2   8   2   23.17    3.91
   2  -8  -2   19.57    3.93
  -2   8   2   32.61    3.80
   2  -8  -2   37.02    3.99
   3  -4   7   45.23    5.49
   3  -4   7   47.62    5.22
   7   0   2  110.44   11.43
   7   0   2  166.43   15.85
   7   0   2   78.98   15.06
   7   0   2  124.20   12.34
   7   0   2  153.10   13.53
  -7   0  -2  214.54   34.28
   7   0   2  117.20   17.04
  -5   5  -2   39.53    7.69
   5  -5   2   50.39    5.73
   5  -5   2   52.31    5.26
  -5   5  -2   47.50    6.60
   6  -3   3   30.54    3.47
  -6   3  -3   30.57    5.54
   6  -3   3   30.86    3.19
  -2  -4 -10    0.04    0.21
   4   7   6    2.71    2.09
   4   7   6    2.13    1.64
  -4  -7  -6    2.96    1.41
   4   7   6    4.94    7.15
  -4  -7  -6    1.69    2.63
  -4   4  -6   87.78   14.07
  -4   4  -6   98.08   10.89
   4  -4   6  157.29   15.63
   4  -4   6  155.56   15.21
   1  -8  -5   80.89    8.13
  -1   8   5  107.56   11.16
  -1   8   5   48.46   13.90
   1  -8  -5   92.74    8.26
  -2   8   1   54.70    5.63
   2  -8  -1   38.77    5.92
   2  -8  -1   56.94    5.65
  -2   8   1   38.68    5.49
  -2   8   1   48.91    6.10
  -6  -2   4    0.33    0.58
   6   2  -4   -0.42    2.27
  -6  -2   4   -0.19    2.00
   6   2  -4    0.50    0.80
   1   6   9  342.48   31.78
   1   6   9  291.69   42.06
   1   6   9  277.09   36.46
  -1  -6  -9  327.69   21.02
  -1  -6  -9  130.27   14.99
  -1   3  10   -0.39    3.33
  -1   3  10    0.36    1.95
  -1   3  10   -0.39    3.40
   1  -3 -10    2.10    5.40
  -1   7  -4  106.54   10.81
  -1   7  -4  108.17   10.68
   1  -7   4  112.24   11.74
  -6   2   4  232.70   18.56
   6  -2  -4  171.35   20.35
  -6   2   4  137.19   13.51
   7   1   3  148.62   12.95
   7   1   3   95.53   14.78
   7   1   3  109.25   11.36
   7   1   3  118.06   11.90
   7   1   3  159.20   15.69
   7   1   3  115.27   12.44
   4  -5  -6  107.10   12.92
   4  -5  -6  189.78   27.32
   4  -5  -6   62.00   13.00
  -4   5   6  122.16   13.26
   4  -5  -6  180.58   15.55
   7   2   0  169.19   24.43
   7   2   0  111.25   12.73
   7   2   0  127.28   12.44
   7   2   0  162.01   18.02
   7   2   0  150.84   16.96
   1   8  -2    6.92    1.57
  -1  -8   2    8.39    1.54
   1   8  -2    8.49    1.63
  -1  -8   2    7.81    2.09
  -1  -8   2   10.26    1.71
  -6   3   3    0.26    2.07
  -6   3   3   -0.03    0.08
   6  -3  -3    9.24    3.30
   1  -4   8   74.62    8.33
   1  -4   8  111.35    9.20
  -1   4  -8   59.34    9.67
  -1   4  -8   84.96    8.13
  -5   4   5  167.86   13.69
   5  -4  -5  122.97   26.90
   5  -4  -5  145.74   18.66
  -5   4   5  121.47   12.74
   0   8  -2   18.73    2.71
   0  -8   2   18.10    2.44
   0   8  -2   18.46    2.67
   0   8  -2   17.91    2.57
   3   8   5   28.44    5.13
  -3  -8  -5   46.28    5.54
  -3  -8  -5   42.75    4.66
   3   8   5   37.96    4.04
  -3  -7   3  120.17   11.94
   3   7  -3  100.60   10.80
   3   7  -3  109.57   10.74
  -3  -7   3  114.67   11.75
  -2  -8  -6    5.98    1.97
   2   8   6    2.77    1.91
  -2  -8  -6    1.33    2.41
  -2  -8  -6    4.41    1.48
  -1   5  -7  261.62   27.28
  -1   5  -7  280.38   26.79
  -1   5  -7  320.07   28.81
   1  -5   7  301.87   28.70
   3  -3   8  110.78   11.29
  -5  -6  -6    8.26    2.74
   5   6   6    8.23    1.75
   5   6   6   10.90    3.12
   5   6   6    7.46    2.34
  -5  -6  -6    9.47    2.26
  -5  -6  -6    7.43    1.59
   5   6   6    9.33    3.02
  -5  -6  -6    4.67    3.40
   7   2   3    0.73    1.10
   7   2   3    1.28    2.40
   7   2   3    0.54    0.71
   7   2   3    0.70    2.40
   7   2   3    0.10    0.54
   7   2   3    0.72    1.04
   1   7   8  107.84   13.36
   1   7   8   63.48   16.02
   1   7   8  105.41   19.21
  -1  -7  -8  117.04   12.94
  -1  -7  -8  125.99   14.24
   0  -8  -6  138.09   12.93
   0   8   6  137.43   15.43
   0  -8  -6  153.69   13.54
   0   8   6  147.56   22.79
   1   5  -7   31.08    3.64
   1   5  -7   26.50    3.58
  -1  -5   7   20.86    3.39
  -1  -5   7   36.54    3.98
   3   2  10   12.22    5.70
  -3  -2 -10   51.15    8.05
  -3  -2 -10   46.80   15.45
   3   2  10   58.28   13.00
   1   0 -10    0.51    0.62
  -1   0  10    0.29    2.69
  -1   0  10    1.52    1.49
  -4   4   7   -0.07    1.47
  -4   4   7    0.16    2.14
  -4   4   7   -0.30    1.82
   4  -4  -7    0.20    1.74
   4   4   9   96.53   17.40
  -4  -4  -9  131.89   13.41
  -4  -4  -9  139.48   15.48
   4   4   9  106.79   16.20
   2  -8  -3   14.95    3.41
   2  -8  -3   16.98    2.44
  -2   8   3   14.60    7.00
   2  -8  -3   24.28    3.27
  -2   8   3   19.88    3.05
  -2   8   3   15.78    3.27
   5   2  -6   52.61    7.01
   5   2  -6   38.03    4.69
  -5  -2   6   38.33    4.31
   4   0   9  114.99   11.28
   4   0   9  226.61   20.00
  -4   0  -9  158.13   10.89
  -4   0  -9  165.58   24.77
  -4   1   8   91.87   11.48
  -4   1   8   77.97    7.60
   4  -1  -8   81.18   13.31
   6   4   6  167.86   29.30
  -6  -4  -6  135.79   13.47
  -6  -4  -6  139.99   14.47
   6   4   6  140.69   13.16
   6   4   6  135.76   15.75
   6   4   6  117.02   14.49
   6   4   6  116.65   13.03
   3  -1  -9   74.99   11.70
   3  -1  -9   63.97   10.60
  -3   1   9   74.03    7.54
  -3   1   9   50.91    9.25
  -4   2  -8   94.66   11.59
   4  -2   8  142.33   14.42
   7   1  -1  113.70   12.24
   7   1  -1  105.24   16.80
   7   1  -1  122.54   11.69
  -3  -5   6   54.56   12.41
   3   5  -6  113.33   11.65
  -3  -5   6   79.56   10.77
  -4  -4   6    7.48    3.52
   4   4  -6   12.56    2.22
  -4  -4   6   11.58    4.27
  -4  -4   6   15.67    2.25
   4   4  -6   25.77    3.14
   4   5  -5   17.24    2.68
  -4  -5   5   11.41    4.32
   4   5  -5   14.96    2.39
  -4  -5   5    8.25    3.43
  -4  -5   5   16.53    2.38
   2   6   9   15.87    9.37
  -2  -6  -9   28.30    3.01
   2   6   9   12.32    7.05
  -2  -6  -9   25.74    3.94
  -2  -6  -9   27.57    5.26
   0   6  -6   75.66    8.11
   0   6  -6   81.65    8.14
   0  -6   6   85.98    8.73
  -5   3   6    2.40    2.21
  -5   3   6    2.03    1.01
   5  -3  -6    1.82    2.28
  -5   3   6    1.74    1.41
   5   7   2   54.19    6.34
  -5  -7  -2   54.25    7.58
  -5  -7  -2   61.17    7.50
  -5  -7  -2   66.78    6.57
  -5  -7  -2   46.20    7.46
   5   7   2   64.61    6.76
  -1  -4   8    0.48    0.94
  -1  -4   8    1.32    1.13
  -1  -4   8    0.69    1.36
   1   4  -8   -0.51    1.57
   1   4  -8    1.78    1.74
  -5   0  -8   91.00    8.02
  -5   0  -8   60.43    6.01
   5   0   8   43.51    5.75
  -5   0  -8   75.64   18.60
  -5   0  -8   74.91    8.21
  -3  -3 -10   86.58    9.64
  -3  -3 -10   92.14   11.84
   3   3  10   39.48    9.37
   7   0  -1   17.20    6.57
   7   0  -1   25.78    5.00
   7   0  -1   18.42    2.57
   7   0  -1   14.56    5.21
   7   0  -1   17.97    2.09
  -5  -7  -3    7.24    1.60
   5   7   3    8.22    2.04
  -5  -7  -3    6.33    2.23
  -5  -7  -3    5.34    1.66
   5   7   3    7.35    1.54
  -5  -7  -3    3.26    2.40
   3  -2  -9  181.28   22.75
  -3   2   9  279.55   23.44
  -3   2   9  217.66   25.98
  -3   7  -2   10.32    1.40
  -3   7  -2   10.91    1.56
   3  -7   2   11.03    1.63
   3  -7   2   11.79    2.21
  -3   5  -6    1.63    2.62
   3  -5   6    0.16    0.89
  -3   5  -6   -0.02    0.43
   1  -1  10    1.94    1.69
   0   6   9  139.56   21.24
   0   6   9  195.45   18.05
   0   6   9  136.20   24.84
   0  -6  -9  197.18   19.17
   0  -6  -9  157.25   20.40
  -2   8   0  182.73   16.41
  -2   8   0  194.13   17.34
  -2   8   0  137.20   16.10
   2  -8   0  165.08   17.04
   6   5   5   16.52    2.45
   6   5   5   14.61    3.26
  -6  -5  -5   11.76    4.60
  -6  -5  -5   11.15    4.54
   6   5   5   18.01    3.49
  -6  -5  -5   19.58    3.07
   6   5   5   19.41    2.40
   6   5   5   20.11    2.62
  -6  -5  -5   18.03    2.40
  -4   0   8   62.49   10.45
  -4   0   8   71.98    7.56
   4   0  -8  101.70   13.89
   7   3   2  346.56   30.38
   7   3   2  284.41   30.48
   7   3   2  468.43   37.58
   7   3   2  450.25   48.51
   7   3   2  351.28   32.89
   7   3   2  290.80   32.11
   7   3   2  301.77   31.25
  -2  -7  -8   69.20    8.23
  -2  -7  -8   67.89    6.93
   2   7   8   64.53   15.57
   5   4   8  138.14   17.66
  -5  -4  -8  208.49   21.81
   5   4   8  179.18   20.98
  -3  -1 -10   10.60    3.62
   3   1  10   15.40    6.68
  -3  -1 -10   13.48    9.77
  -2  -7   4   59.88    6.89
   2   7  -4   57.76    6.23
   2   7  -4   57.96    6.37
  -2  -7   4   60.57    6.90
  -3  -4   7   66.60   15.56
  -3  -4   7   87.01   14.25
   3   4  -7  130.65   15.58
   3   4  -7  206.42   16.06
   7   0   3  439.75   34.92
   7   0   3  211.92   33.72
   7   0   3  306.54   30.21
  -7   0  -3  626.19   76.06
   7   0   3  385.44   38.08
   7   0   3  446.01   32.27
   7   0   3  260.75   31.19
   7   0   3  367.45   31.71
  -7   1  -1  183.69   29.44
   7  -1   1  118.69   11.71
   7  -1   1  112.75    9.34
   7  -1   1  144.94   11.49
   7   3   1  293.42   30.72
   7   3   1  390.49   44.86
   7   3   1  314.92   29.78
   7   3   1  310.02   30.23
   7   3   1  354.49   32.89
  -6  -5   1   61.76    7.43
   6   5  -1   44.93   10.25
   6   5  -1   49.57    5.12
   6   5  -1   44.81    5.70
  -6  -5   1   34.01    4.88
   6   5  -1   49.92    5.50
  -4   2   8    7.05    3.23
  -4   2   8    5.96    1.62
  -4   2   8    7.20    3.90
   4  -2  -8    4.03    3.64
  -7   1   0  106.66   19.96
   7  -1   0   58.59    6.18
   7  -1   0   74.91    8.46
   7  -1   0   53.91    5.57
   7  -1   0   66.30    8.02
   0  -7  -8   38.82    5.13
   0   7   8   33.80    6.48
   0  -7  -8   40.01    6.02
   0   7   8   26.74    9.79
  -5  -6   2   75.68   10.82
   5   6  -2  126.29   10.81
  -5  -6   2   57.37   10.06
   5   6  -2   88.90    9.98
   6  -4   0   45.97    5.39
   6  -4   0   59.27    7.71
  -3   0   9    9.06    3.85
   3   0  -9   19.86    4.29
  -3   0   9   20.39    2.84
   0  -3   9    6.38    1.82
   0  -3   9    3.77    1.52
   0   3  -9    0.87    2.74
  -1  -6   6    0.70    1.00
  -1  -6   6    1.13    1.12
   1   6  -6    1.33    1.10
   1   6  -6    0.78    0.85
   6  -2   5    5.02    1.11
  -6   2  -5    5.21    1.11
   6  -2   5    3.79    1.09
  -6   2  -5    3.89    2.03
  -2  -2   9    0.97    3.08
   2   2  -9    2.24    1.05
   2   2  -9    0.14    2.61
  -2  -2   9    1.83    1.47
   5  -3   6   23.23    3.13
  -5   3  -6   19.00    3.22
   5  -3   6   24.05    2.86
  -5   3  -6   13.35    2.40
  -5  -7  -1    9.24    2.49
  -5  -7  -1   13.11    3.12
  -5  -7  -1   11.41    2.95
   5   7   1   13.77    2.31
   5   7   1   14.14    2.56
   6  -4  -1  171.75   16.22
   6  -4  -1  144.78   17.12
   7   3   3   95.40   20.64
   7   3   3  107.74   13.04
   7   3   3   74.76    9.12
   7   3   3   82.89    8.35
   7   3   3   83.15    9.81
   7   3   3   70.66    8.90
   4   7  -2   12.13    2.12
  -4  -7   2   11.44    2.67
  -4  -7   2   14.09    2.98
   4   7  -2   13.33    2.05
  -4  -7   2   10.77    3.90
  -7  -2   1  131.39   15.35
   7   2  -1   98.98   11.04
   7   2  -1  105.17   10.45
   7   2  -1  119.22   15.50
   7   2  -1  110.12   10.76
   1  -3   9   24.73    3.13
  -1   3  -9    9.05    4.67
   1  -3   9   15.62    2.22
   7  -1   2   69.23    7.04
   7  -1   2   54.02    7.51
  -7   1  -2  134.71   25.31
   7  -1   2  111.94    9.49
   7  -1   2   90.55    8.37
   7  -1   2  105.50   11.17
   7  -1   2  101.66   11.16
   7  -1   2   78.11    7.25
  -5  -7  -4   21.62    2.85
   5   7   4   21.49    3.16
   5   7   4   34.62    4.80
  -5  -7  -4   11.50    4.10
  -5  -7  -4   19.93    3.72
   6   2   7   89.21   11.99
   6   2   7   92.74    9.65
  -6  -2  -7  124.88   12.14
   6   2   7   81.49   13.21
  -6  -2  -7  105.23   10.64
   1  -6   6  268.66   26.35
  -1   6  -6  230.59   22.34
   2   8  -2   77.71    8.07
  -2  -8   2   86.19    9.14
   2   8  -2   72.51    8.15
  -2  -8   2   73.15    8.23
   5  -2   7   39.03    4.80
   5  -2   7   56.37    8.12
  -5   2  -7   28.09    4.16
   6  -4   1   58.59    6.30
   3  -7  -5   18.62    3.48
   3  -7  -5   23.97    3.68
  -3   7   5   28.28    4.67
   4  -6   3    1.20    0.59
   4  -6   3    1.43    0.94
  -4   6  -3   -0.60    2.93
  -4   6  -3    1.62    2.30
  -4   6  -3    0.51    1.07
   2  -8  -4   25.54    3.47
  -2   8   4   17.55    3.78
   2  -8  -4   19.73    4.40
   2  -8  -4   22.64    3.59
  -2   8   4   28.86    3.92
  -2   8   4   17.55    7.96
   1  -8   2   54.69    6.64
  -1   8  -2   54.70    6.11
  -1   8  -2   46.97    5.75
  -1   8  -2   55.46    5.78
   1  -8   2   55.62    5.89
  -1   8  -2   61.10    6.13
  -4   5  -5   -0.07    0.54
  -4   5  -5   -0.40    2.98
   4  -5   5    1.06    0.96
  -6   1  -6   53.46    6.15
   6  -1   6   70.41   10.10
  -6   1  -6   50.96   16.50
   6  -1   6   44.68    6.52
  -6   1  -6   56.66    7.59
  -5   5   4   30.88    3.47
   5  -5  -4   32.15    5.65
   5  -5  -4   20.53    5.19
   5  -5  -4   67.46   15.64
  -5   5   4   23.34    4.94
   5  -5  -4   54.82    6.91
  -3  -6   5   60.64   12.40
   3   6  -5  103.19   10.70
  -3  -6   5   79.87    9.95
   7   2   4   21.80    4.70
   7   2   4   13.63    2.39
   7   2   4   14.00    2.64
   7   2   4   10.39    2.57
   7   2   4   14.60    3.73
   7   1   4   59.33    8.23
  -7  -1  -4  145.54   29.10
   7   1   4   64.49    9.97
   7   1   4   66.81    8.12
   7   1   4   88.94   10.46
  -6   0   5   11.49    1.39
   6   0  -5    6.15    2.31
   6   0  -5   12.84    5.85
   6   0  -5   11.43    4.57
  -6   0   5   15.68    3.98
  -3  -8   1   47.23    5.89
   3   8  -1   45.62    5.90
  -3  -8   1   49.58    5.49
  -3  -8   1   42.99    7.94
   3   8  -1   55.36    5.84
  -3  -8   1   50.51    6.27
  -2   6   8   56.58   12.00
   2  -6  -8   25.39    7.70
   2  -6  -8   89.23    8.69
   2  -6  -8   66.51    9.06
   2  -6  -8   33.25    6.54
  -2   6   8   66.92    9.65
  -7  -3   0  109.33   14.45
   7   3   0  210.93   23.08
   7   3   0  177.83   17.72
   7   3   0  169.50   18.12
   7   3   0  210.62   20.60
   7   3   0  241.93   30.59
  -7  -3   0  231.15   17.42
   1   5  10   13.66    3.18
   1   5  10   11.81    5.56
  -1  -5 -10   16.07    4.70
  -4  -8  -3  108.38   11.69
  -4  -8  -3   79.15   12.31
   4   8   3   97.71   12.00
  -4  -8  -3  112.26   11.68
   4   8   3  105.18   11.53
  -4  -8  -3  122.31   11.36
  -4  -8  -2    3.68    1.70
  -4  -8  -2    3.86    1.86
   4   8   2    2.66    1.46
  -4  -8  -2    4.43    1.37
  -4  -8  -2    2.51    1.72
   4   8   2    4.08    1.53
   4   6   8   32.40    4.54
   4   6   8   32.84    6.98
  -4  -6  -8   27.61    3.39
   4   6   8   24.41   11.70
  -4  -6  -8   26.24    3.67
   4  -6  -5    5.45    2.35
  -4   6   5    9.21    2.51
   4  -6  -5    6.95    2.58
   4  -6  -5   10.92    3.10
   4  -6  -5    4.20    2.75
   7  -1  -1   24.94    3.94
   7  -1  -1   20.69    2.87
   7  -1  -1   27.52    5.08
  -1   4  10    1.49    3.71
  -1   4  10    2.20    2.27
   1  -4 -10    1.39    5.18
  -3   2  -9  103.38   13.85
   3  -2   9  160.40   16.25
   6   1   7    2.93    1.89
  -6  -1  -7    2.08    8.75
  -6  -1  -7    2.85    2.09
   6   1   7    4.02    2.74
  -6  -1  -7    3.71    1.50
   6   1   7   -1.03    9.09
   6   1   7    3.64    3.20
   4   3  -7   20.35    3.23
  -4  -3   7   28.25    3.61
   4   3  -7   38.38    4.51
  -5   5  -3   40.88    5.70
   5  -5   3   34.90    3.80
  -5   5  -3   27.83    6.90
   5  -5   3   29.29    3.06
   4   6  -4  158.45   15.23
  -4  -6   4  123.56   17.17
  -4  -6   4  154.12   14.04
   4   6  -4  145.80   14.87
  -4  -6   4  110.90   14.97
   2  -4   8   17.45    2.76
  -2   4  -8   15.74    1.99
  -2   4  -8   11.72    4.73
   6  -1  -5    1.04    2.65
  -6   1   5    1.76    2.24
   6  -1  -5    2.87    5.03
  -6   1   5    0.07    0.56
  -3   3   9   72.01    8.36
  -3   3   9   51.01   10.63
  -3   3   9   82.09   10.67
   6   3   7    0.27    3.40
   6   3   7    0.17    1.82
  -6  -3  -7    1.32    1.25
  -6  -3  -7    1.23    0.74
   6   3   7    0.49    0.86
   6   3   7    1.66    1.94
  -3  -4 -10  120.65    6.95
   3   4  10   34.48   12.63
  -3  -4 -10  111.92    9.98
   3   4  10   76.38   12.76
  -2   1 -10    2.51    4.48
   2  -1  10    5.46    2.17
   6  -4  -2   27.29   10.67
   6  -4  -2   21.73    4.38
   6  -4  -2   11.95    2.86
  -6   4   2   22.07    2.42
   4   1  -8   10.80    3.17
  -4  -1   8   20.27    2.84
   4   1  -8   26.18    4.43
  -4  -1   8   12.15    4.35
  -6  -6  -2    1.51    2.76
  -6  -6  -2    3.42    2.23
   6   6   2    2.70    1.31
  -6  -6  -2    3.08    1.66
   6   6   2    3.75    1.32
   6   6   2    0.32    3.22
   6   6   2    3.89    1.25
  -6   3  -4   18.79    4.10
   6  -3   4   19.56    2.55
   6   4  -3   46.78    5.42
   6   4  -3   43.73    5.13
  -6  -4   3   67.18    7.10
   6   4  -3   40.91   10.41
  -6  -4   3   46.37    8.54
   1   9   2   13.14    2.51
   1   9   2   11.65    2.34
  -1  -9  -2   15.09    2.52
   2  -5   7    1.19    1.16
  -2   5  -7   -1.26    2.40
   5   4  -5   62.81    6.43
   5   4  -5   36.65    4.57
  -5  -4   5   44.51    4.56
  -5  -4   5   35.44    7.10
   3   8   6   57.66    6.97
   3   8   6   33.80    5.86
  -3  -8  -6   48.08    5.19
  -3  -8  -6   54.05    6.38
  -2   8  -1   57.97    6.05
   2  -8   1   67.23    7.55
   2  -8   1   53.63    6.01
  -2   8  -1   49.56    5.70
   5  -1  -7   -0.66    2.85
  -5   1   7    0.21    2.16
  -5   1   7    0.69    1.03
  -5   1   7   -0.45    2.30
   5  -1  -7    0.38    4.40
   6   1  -5    8.47    4.81
  -6  -1   5   10.31    1.42
   6   1  -5   15.14    5.56
   6   1  -5   14.75    4.72
   6   1  -5    9.89    1.99
  -5   4  -5   78.89    5.96
  -5   4  -5   40.90    8.87
   5  -4   5   78.33    8.23
   3  -5  -8   11.22    7.84
  -3   5   8   20.25    4.12
   3  -5  -8    6.62    3.15
   3  -5  -8   14.58    4.44
  -3   5   8   12.72    4.26
  -6  -6  -3    0.36    1.23
   6   6   3    0.91    1.04
  -6  -6  -3   -0.18    2.08
   6   6   3    0.27    2.46
  -6  -6  -3    1.08    2.78
   6   6   3   -0.74    7.49
   6   6   3    0.92    0.82
   6   6   3    0.08    1.13
   6   6   3    1.28    0.92
   1   9   3   11.66    2.56
   3  -6  -7   69.13   14.96
   3  -6  -7  106.64   14.19
   3  -6  -7  230.02   17.11
   3  -6  -7  178.73   16.94
  -3   6   7  165.42   18.09
  -1  -3   9   20.79    3.95
   1   3  -9   34.06    5.72
   7   0  -2   21.92    2.53
   7   0  -2   17.24    4.65
   3   0  10   64.41    9.81
  -3   0 -10   51.47   14.72
  -3   0 -10   46.98    8.01
   3   0  10   86.67   11.74
   7   1  -2  104.76   10.27
   7   1  -2  110.73   15.02
  -7  -1   2  131.45   15.56
  -2   1  10    2.02    3.52
   2  -1 -10    6.94    5.74
  -2   1  10    9.51    2.25
   2  -1 -10    9.69    2.88
  -2   1  10    3.36    3.11
  -2  -5 -10    2.79    0.78
   2   5  10    1.63    1.78
   2   5  10    1.65    5.92
  -2  -5 -10    2.66    1.49
  -5   0   7   31.03    3.57
  -5   0   7   33.42    6.62
   5   0  -7   37.16    8.12
   5   0  -7   20.10    6.43
  -2   2  10   10.05    2.71
   2  -2 -10    9.03    6.37
   2  -2 -10    6.61    3.95
  -2   2  10    1.41    3.81
  -2   2  10    2.97    2.66
  -1   8   6  110.53   11.79
   1  -8  -6  124.33   10.40
  -1   8   6   58.04   15.99
   1  -8  -6   63.23    8.46
   1  -8  -6  123.79   10.29
   1  -8  -6   52.93   10.24
   6   3  -4   39.08    5.58
  -6  -3   4   25.14    3.12
  -6  -3   4   33.70    6.11
   6   3  -4   26.19    8.08
   6   3  -4   24.20    3.10
   4   8   4  140.64   15.81
  -4  -8  -4  170.18   15.62
  -4  -8  -4  173.44   15.22
  -4  -8  -4  139.18   14.85
   4   8   4  140.45   16.45
  -1  -8  -7    1.16    1.64
   1   8   7    1.21    1.98
   1   8   7    1.47    2.14
   4   8   1   61.68    6.68
   4   8   1   54.56    6.78
  -4  -8  -1   46.67    6.77
  -4  -8  -1   59.81    7.57
  -4  -8  -1   57.72    6.75
  -2  -5   7  146.55   12.80
   2   5  -7  138.14   13.93
  -2  -5   7   96.30   12.76
   3   3  -8    1.57    1.07
  -3  -3   8    0.52    1.33
   3   3  -8   -0.38    1.61
   3   3  -8    2.47    1.53
   0  -5 -10  141.45   17.87
   0   5  10  145.88   15.60
   0   5  10  119.67   19.09
  -6   3   4    0.02    0.14
   6  -3  -4  106.35   14.76
   6  -3  -4  133.88   15.53
  -4   3   8    2.42    1.27
   4  -3  -8    0.91    5.74
  -4   3   8    0.24    3.36
   4  -3  -8    1.35    3.04
  -4   3   8    2.58    2.39
  -2   5   9    3.92    3.47
  -2   5   9    5.97    2.34
   2  -5  -9    1.93    2.87
  -5  -7   0  141.66   16.90
  -5  -7   0  150.94   16.08
  -5  -7   0  175.81   17.85
   5   7   0  161.32   17.51
   5   7   0  181.95   17.14
   5   5  -4    8.96    1.74
  -5  -5   4    7.35    1.52
  -5  -5   4    1.97    2.97
  -5  -5   4    3.16    2.56
   5   5  -4    7.01    1.99
   7   3   4   51.55    6.06
   7   3   4   49.40    6.60
   7   3   4   72.21    9.59
   7   3   4   50.55    6.50
   7   3   4   45.92    5.94
   2  -7   4   22.66    3.29
  -2   7  -4   22.29    2.79
  -2   7  -4   22.82    2.98
   7   0   4   -0.72    6.22
   7   0   4   -0.25    2.62
   7   0   4    0.89    1.92
   7   0   4    1.27    2.22
  -7   0  -4    2.91    8.19
   7   0   4    2.01    1.51
  -6   4  -2   21.98    4.83
   6  -4   2   23.90    2.98
   3   6   9    0.55    4.10
  -3  -6  -9    1.40    1.01
   3   6   9   -1.60    8.25
  -3  -6  -9    2.30    1.32
  -3  -6  -9   -0.39    3.48
   3   6   9    3.12    3.62
   7  -1   3    0.77    3.18
   7  -1   3    1.57    1.31
   7  -1   3    0.81    0.46
   7  -1   3    0.51    1.40
  -7   1  -3    0.85    7.23
   7  -1   3    0.72    2.15
   7  -1   3    0.79    0.45
   6   6   1   34.65    3.68
   6   6   1   24.93    7.30
   6   6   1   18.62    2.86
  -6  -6  -1   23.19    3.94
   6   6   1   23.32    2.93
  -6  -6  -1   16.42    3.61
  -6  -6  -1   17.62    5.05
   6   6   1   17.67    3.17
   0  -9  -2    1.68    1.50
   0   9   2    5.03    1.65
   0   9   2    3.53    1.52
  -4  -5  -9   46.73    5.50
   4   5   9   42.03    9.31
   4   5   9   50.13   11.40
   4   5   9   45.67   15.47
  -4  -5  -9   58.37    7.43
  -4  -5  -9   45.11    6.56
   3   1  -9   14.41    2.91
  -3  -1   9   12.68    2.37
  -3  -1   9    8.01    4.19
   4   7   7    2.84    2.21
  -4  -7  -7   -0.29    2.45
   4   7   7    0.14    1.71
   4   7   7   -0.76    6.43
  -4  -7  -7   -0.44    1.32
   1   9   1   62.85    7.40
  -1  -9  -1   67.51    7.35
   1   9   1   67.10    7.42
   4  -1   9  109.89   13.62
  -4   1  -9   57.54    6.35
   4  -1   9   89.22   10.86
  -4   1  -9    0.02    0.12
   3   7   8   36.69    6.78
  -3  -7  -8   38.55    5.76
  -3  -7  -8   36.82    4.09
   3   7   8   30.14   11.68
  -3  -7  -8   37.54    4.53
   3   7   8   20.97    5.05
   2  -7  -7  121.58    9.44
   2  -7  -7   30.41    8.40
  -2   7   7   82.33   10.33
   2  -7  -7   96.66    9.81
   2  -7  -7   46.82    7.39
   5   7   5  122.40   15.25
  -5  -7  -5  137.15   12.25
  -5  -7  -5  120.97   13.31
   5   7   5  155.44   14.15
   5   7   5  111.38   12.51
   4  -7  -1   86.23   11.67
  -4   7   1  114.37   10.28
   4  -7  -1  143.48   11.94
  -4   7   1   90.46   11.77
   0   9   3    5.52    1.81
   0   9   3    5.22    1.47
   0   9   3    3.94    1.63
   0  -9  -3    2.41    1.67
   1  -6  -9    0.43    2.57
  -1   6   9   -2.05    5.94
  -1   6   9   -0.27    3.06
   1  -6  -9   -0.74    3.38
   1  -6  -9    0.97    1.80
  -1   6   9    1.25    1.55
  -2  -8  -7   35.59    4.32
  -2  -8  -7   39.53    5.31
   2   8   7   18.88    4.29
  -3   6  -5   50.37    6.83
  -3   6  -5   37.66    4.88
   3  -6   5   45.04    5.37
   2   4  -8   82.96    9.50
  -2  -4   8   79.06    6.96
  -2  -4   8   34.10    6.95
   7   4   2   23.02    3.86
   7   4   2   21.39    2.53
   7   4   2   18.83    3.19
   7   4   2   28.47    6.75
   7   4   2   18.06    2.59
  -2   3  -9   53.25   10.52
   2  -3   9  135.59   11.11
   2  -3   9   96.07   10.04
   5  -1   8   34.37    5.38
  -5   1  -8   32.10    4.87
  -1  -9  -4  117.30   12.34
   1   9   4   85.56    9.01
   1   9   4   80.87    9.85
   0   7  -5   49.20    5.34
   0  -7   5   52.15    5.65
  -4   7   2   80.44   11.86
   4  -7  -2   80.44   11.63
  -4   7   2  108.38   10.39
   4  -7  -2  110.06   12.39
  -6  -5  -6    2.04    1.34
  -6  -5  -6    0.31    3.04
   6   5   6    1.69    2.07
  -6  -5  -6    1.42    2.73
   6   5   6    1.20    1.45
   6   5   6    2.42    0.89
  -6  -5  -6    1.70    0.88
   6   5   6    1.78    0.92
   6   5   6    1.85    2.71
   6   5   6    3.60    8.00
   6   6   4    6.35    1.41
   6   6   4    8.72    8.35
   6   6   4    9.47    2.29
   6   6   4    5.23    1.92
   6   6   4    3.96    3.16
  -6  -6  -4    1.48    2.61
  -6  -6  -4    3.56    2.73
  -6  -6  -4    6.38    1.45
   6   6   4    5.25    1.29
   5   6   7   22.39    4.84
  -5  -6  -7   29.59    3.60
  -5  -6  -7   33.55    4.71
  -5  -6  -7   25.42    4.98
   5   6   7   33.11    5.93
  -2  -9  -2   10.76    2.78
  -2  -9  -2   14.27    2.15
   2   9   2   10.41    2.12
  -2  -9  -2   12.65    2.24
  -2  -9  -2   12.28    3.37
   2   9   2   14.59    2.55
   2   9   2   11.08    2.41
   2   9   3    2.17    1.31
  -2  -9  -3    4.23    1.25
  -2  -9  -3    2.06    1.52
  -2  -9  -3    2.02    1.60
   2   9   3    3.91    1.45
   2   9   3    3.34    1.67
  -2  -9  -3    2.41    1.21
  -5   2   7   52.39    8.04
   5  -2  -7   40.45    8.28
  -5   2   7   38.54    7.31
  -5   2   7   48.32    5.17
   0   8  -3   75.59    7.83
   0   8  -3   75.60    7.66
   0   8  -3   68.49    7.82
   0  -8   3   69.86    7.24
   7   3  -1  241.68   29.99
   7   3  -1  209.81   23.55
   7   3  -1  180.03   17.25
  -7  -3   1  187.38   17.40
   7   3  -1  176.86   17.50
  -7  -3   1  131.00   14.86
   7   3  -1  167.57   17.82
  -2  -6   6   71.51    8.85
   2   6  -6   92.44    9.24
  -2  -6   6   93.25    9.03
   2   6  -6   83.66    8.93
   0   9   1    2.27    1.31
   0  -9  -1    2.55    1.25
   0  -9  -1    2.32    1.57
   0   9   1    1.20    1.13
   1   8  -3   38.45    4.34
   1   8  -3   33.05    4.24
   1   8  -3   34.47    4.16
  -1  -8   3   43.84    4.76
  -1  -8   3   35.38    5.10
   5   3  -6  191.37   15.21
   5   3  -6  115.34   12.71
  -5  -3   6  124.71   12.48
  -6   0  -7   65.72   18.48
   6   0   7   26.12    5.08
  -6   0  -7   61.55    7.23
  -6   0  -7   62.42    8.14
   6   0   7   13.47    5.01
  -1   7   8   41.82   10.73
   1  -7  -8   41.19    6.54
  -1   7   8   38.57    6.89
   1  -7  -8   56.71    5.81
   0   8   7   57.20    8.11
   0  -8  -7   26.57    6.96
   0  -8  -7   68.93    7.36
   7  -2   0  187.14   22.06
   7  -2   0  242.94   21.61
  -7   2   0  271.65   37.16
   7  -2   0  188.45   19.14
  -5  -5  -8  201.84   18.88
   5   5   8  172.35   22.10
   5   5   8  131.06   19.84
   5   5   8  245.74   20.20
   5   5   8  209.27   34.28
  -5  -5  -8  140.45   19.19
   6  -2  -5    2.47    2.41
  -6   2   5    0.24    0.36
  -6   2   5    2.55    2.45
   7  -1  -2    3.28    2.68
   7  -1  -2    4.48    3.39
   7  -1  -2    6.30    1.76
   7  -2   1   12.14    2.13
   7  -2   1   10.51    2.80
  -7   2  -1   12.01    8.61
  -2   0  10   13.85    2.61
   2   0 -10   15.40    2.71
  -2   0  10    8.31    4.13
   3  -7   3   34.28    3.89
   3  -7   3   45.41    4.85
  -3   7  -3   33.05    3.72
  -3   7  -3   39.94    3.95
   6   5  -2   35.37    9.68
   6   5  -2   39.02    4.82
  -6  -5   2   42.57    5.16
   6   5  -2   43.87    5.11
  -6  -5   2   43.29    7.21
   7   4   1   65.93    7.60
   7   4   1   70.73   10.86
  -7  -4  -1   60.75    7.25
   7   4   1   72.92   16.76
   7   4   1   54.27    5.53
  -7  -4  -1   36.73    6.25
   7   4   1   51.33    6.38
   7   4   1   50.54    5.86
   7   2  -2  102.51   16.67
   7   2  -2   73.56    7.50
  -7  -2   2   86.07   11.16
   7   2  -2   73.13   12.11
   4  -7   0    2.62    1.32
   4  -7   0    2.79    1.15
  -4   7   0    3.02    1.11
  -4   7   0    2.15    0.80
  -4   7   0    2.18    1.58
   2  -3 -10    5.65    6.83
  -2   3  10   -0.19    2.55
  -2   3  10    2.80    1.94
  -2   3  10   -0.37    3.17
  -2   3  10   -1.11    3.03
   2  -8  -5   91.39    8.76
   2  -8  -5   68.52    7.83
  -2   8   5   96.58   11.39
   2  -8  -5   80.79    8.13
  -5   6   1   14.01    1.98
  -5   6   1   13.52    3.48
   5  -6  -1   11.97    2.40
  -5   6   1   10.92    3.39
   5  -6  -1   15.83    3.35
   1   7  -5    9.16    1.73
   1   7  -5    8.90    1.71
  -1  -7   5    9.87    1.82
  -1  -7   5    8.85    2.03
  -7  -4  -3    1.22    2.46
   7   4   3    0.28    1.14
   7   4   3    0.32    1.06
   7   4   3    1.01    1.03
   7   4   3    0.53    2.50
   7   4   3   -0.08    1.59
   7   4   3   -0.83    7.52
   5   1  -7    3.16    2.14
   5   1  -7    8.34    1.57
   5   1  -7   13.32    4.38
  -5  -1   7    6.17    3.51
  -1  -2 -11  294.95   35.31
   1   2  11   61.96   16.15
  -1  -2 -11  224.17   35.87
   1   2  11  272.81   20.96
  -6  -4  -7   65.70    6.95
   6   4   7   60.20    9.87
   6   4   7   62.78    6.56
  -6  -4  -7   69.88    8.11
   6   4   7   52.72    8.36
   6   4   7   82.78    9.42
   5  -4  -6    0.91    2.68
   5  -4  -6    0.95    6.79
   5  -4  -6    1.81    2.13
  -5   4   6    0.51    1.28
  -5   4   6    0.93    0.93
   5  -6   0    1.58    1.05
   5  -6   0    3.25    1.25
  -5   6   0    1.92    2.44
  -5   6   0    3.90    1.11
   7   2   5   80.82   10.31
   7   2   5   78.34    8.04
   7   2   5   76.99    9.66
  -7  -2  -5   91.07    9.69
   7   2   5   77.26    9.89
   6  -4  -3    4.95    7.52
  -6   4   3    8.13    1.16
   6  -4  -3    9.37    2.98
   6  -4  -3    2.41    1.94
   6  -4  -3    7.51    2.99
   4   8   5  100.08   13.09
   4   8   5  114.90   12.55
  -4  -8  -5  140.16   13.30
  -4  -8  -5  135.81   13.56
  -4  -8  -5  150.69   14.14
   5   2   9  108.89   24.40
   5   2   9  228.04   20.82
  -5  -2  -9  262.23   31.06
  -5  -2  -9  342.30   30.44
   0  -9  -4   24.03    3.38
   0   9   4   19.88    3.22
   0   9   4   16.71    3.65
   0  -9  -4   28.85    3.67
   2  -6   6    5.71    1.60
  -2   6  -6    6.63    1.22
  -2   6  -6    5.18    1.78
  -4  -8   0    6.78    2.00
  -4  -8   0    6.43    2.59
   4   8   0    6.35    1.56
   4   8   0    6.41    1.78
  -2  -9  -1    2.78    2.37
   2   9   1    5.12    1.63
  -2  -9  -1    3.61    1.71
   2   9   1    6.07    1.66
   2   9   1    4.91    1.49
  -2  -9  -1    6.36    1.58
  -2  -9  -4    8.63    1.84
   2   9   4    6.70    2.13
  -2  -9  -4    5.33    2.55
  -2  -9  -4    8.78    1.52
   2   9   4   10.18    2.62
   7   1   5   19.02    3.62
  -7  -1  -5   43.46   16.27
   7   1   5   15.61    1.92
   7   1   5   24.22    4.88
   7   1   5   10.30    3.91
   7   1   5   13.13    3.79
  -7  -1  -5   19.59    2.86
   6   2  -5    6.48    3.49
   6   2  -5    2.63    1.13
  -6  -2   5    2.49    0.83
  -6  -6   0    1.62    2.86
   6   6   0    6.73    1.85
   6   6   0    1.92    3.91
   6   6   0    3.78    1.23
  -6  -6   0    2.25    1.78
   6   6   0    4.36    1.15
  -6  -6   0    1.27    1.40
   6   6   0    2.86    1.39
  -5   6   2   33.27    5.40
   5  -6  -2   38.29    5.47
  -5   6   2   36.29    4.05
   5  -6  -2   25.79    4.41
   7  -2  -1   62.94    6.92
  -7   2   1  109.82   18.93
   7  -2  -1   70.53   10.14
   7  -2  -1   86.64    9.73
   3   7  -4  227.45   22.30
  -3  -7   4  200.46   21.02
  -3  -7   4  232.76   20.90
   0  -2  10   33.15    4.49
   0   2 -10    6.54    4.77
   4  -5  -7    0.21    2.50
   4  -5  -7    0.17    1.99
  -4   5   7    1.32    1.78
   4  -5  -7    3.38    7.88
   4  -7  -3  101.26   11.53
  -4   7   3  106.02   10.93
   4  -7  -3  108.99    9.88
   1   3  11   22.55    8.81
   1   3  11    6.28    5.02
  -1  -3 -11   33.19   13.22
   1  -2  10    1.19    0.96
   1  -2  10    3.47    1.82
   1   1  11  187.21   21.29
  -1  -1 -11   95.85   17.42
  -1  -1 -11  108.49   20.41
   0   2  11   -1.08    3.79
   0  -2 -11    5.77    6.25
   0  -2 -11    1.27    4.39
   0   2  11    1.52    2.85
   0   2  11    5.11    3.74
   7  -2   2   51.31    5.32
  -7   2  -2   60.31   16.15
   7  -2   2   49.76    6.27
   7  -2   2   37.91   11.08
   1   9   0    5.58    1.51
  -1  -9   0    5.78    1.47
   1   9   0    4.93    1.49
  -5  -3  -9    5.19    2.21
   5   3   9    1.85    3.76
   5   3   9    3.28    4.75
  -5  -3  -9    4.89    1.66
  -4  -2 -10   25.26   13.97
  -4  -2 -10   32.87    3.81
   4   2  10   19.93   10.21
   4   2  10    9.81    5.04
  -4  -2 -10   28.69    5.49
   1  -7   5   73.66    8.25
  -1   7  -5   71.37    7.89
  -1   7  -5   85.18    8.11
  -5  -6   3    7.80    3.48
   5   6  -3    9.62    1.93
  -5  -6   3   11.79    2.23
  -5  -6   3    6.08    3.05
   5   6  -3   13.84    2.36
   5  -5  -5   13.11    9.37
  -5   5   5    0.21    0.96
   5  -5  -5    2.74    2.99
   5  -5  -5   11.23    3.55
   5  -5  -5    5.32    2.61
  -5   5   5    4.49    1.12
  -3   4   9   69.41    9.99
  -3   4   9   80.59    8.78
  -3   4   9   91.47   13.42
  -3  -8   2   17.01    3.33
  -3  -8   2   11.61    2.42
  -3  -8   2    8.77    4.29
   3   8  -2   12.55    2.11
   3   8  -2   11.13    2.20
   7   4   0    6.25    3.97
   7   4   0    4.24    2.41
   7   4   0    6.51    1.52
   7   4   0    6.42    1.76
   7   4   0    4.09    6.39
  -7  -4   0    4.48    1.88
   7   4   0    7.99    1.12
  -7  -4   0    5.02    2.34
   3  -7  -6   77.06   10.45
  -3   7   6  107.34   12.04
   3  -7  -6  121.90   11.62
   3  -7  -6  163.52   12.42
   3  -7  -6   46.02   10.70
  -5  -1  -9   89.93   11.84
  -5  -1  -9  111.74   11.21
   5   1   9   18.84    8.26
   5   1   9   71.37    6.39
   0  -9   0   88.55    8.86
   0  -9   0   76.26    9.51
   0   9   0   75.26    8.74
   0   9   0   88.52    8.95
   0   9   0   82.64    9.01
   0  -1 -11   34.80   11.40
   0   1  11   75.59    9.87
  -4  -3 -10   43.56    5.00
   4   3  10   23.60    7.59
  -4  -3 -10   40.22    6.77
   2   2  11   -1.09    6.07
  -2  -2 -11   -0.80    7.97
  -2  -2 -11   -1.18    2.57
  -2   8  -2  203.36   20.70
  -2   8  -2  218.51   20.68
   2  -8   2  202.95   20.33
  -2   8  -2  226.52   21.10
   2  -8   2  231.58   21.43
   3   5  10   49.46   10.29
   3   5  10   26.81   11.00
  -3  -5 -10   59.38    6.75
  -3  -5 -10   65.14    7.20
  -3   8   2   67.14    9.11
  -3   8   2   83.76    8.23
   3  -8  -2   57.91    8.89
   3  -8  -2  103.80    9.08
  -6   4  -3   13.13    3.49
   6  -4   3   14.91    2.07
   6  -4   3   12.76    1.42
   7   3   5  101.30   10.98
   7   3   5   95.51   11.34
   7   3   5  108.24   11.68
  -7  -3  -5  105.74   11.23
   7   3   5   91.63    9.84
  -4  -2   8    0.99    2.51
   4   2  -8    4.33    2.11
   4   2  -8   -0.30    2.07
  -4  -2   8    3.28    1.51
   4   2  -8    3.86    1.62
   5   7  -1    4.76    1.50
   5   7  -1    5.02    1.39
  -5  -7   1    3.48    1.57
  -5  -7   1    4.25    2.59
   1  -8   3  210.56   20.83
  -1   8  -3  234.59   21.77
  -1   8  -3  217.40   21.85
  -1   8  -3  222.94   22.06
   1  -8   3  231.67   21.82
   7   4   4   26.91    4.35
   7   4   4   25.68    3.32
   7   4   4   28.59    3.88
   7   4   4   30.23    3.96
   7   4   4   42.59    7.59
   7   4   4   32.12    4.28
   7   4   4   29.62   12.89
  -3   8   1  127.89   12.12
   3  -8  -1   98.62   12.77
  -3   8   1  102.70   12.98
  -3   8   1  101.36   18.73
   3  -8  -1  139.70   12.49
  -4   7  -1    3.70    0.90
  -4   7  -1    3.52    1.22
  -4   7  -1    4.57    2.06
   4  -7   1    4.16    1.64
  -4   7  -1    6.04    2.38
  -1  -9  -5   47.45    5.82
   1   9   5   31.40    5.40
  -1  -9  -5   48.99    6.11
   1   9   5   32.45    4.48
  -4   6  -4   62.84    7.35
  -4   6  -4   67.77    6.39
   4  -6   4   85.12    9.07
  -4   6  -4   62.98    6.70
  -4   6  -4   58.56    9.86
  -4   6  -4   77.05    9.62
   5  -6   1    4.21    1.05
   5  -6   1    4.39    1.51
  -5   6  -1    3.87    2.77
  -7   1  -4   77.89   19.49
   7  -1   4   61.57    8.48
   7  -1   4   31.70    7.11
   7  -1   4   56.31    7.34
   7  -1   4   53.08    5.32
   7  -1   4   58.69    9.14
  -4  -7   3    1.34    1.17
  -4  -7   3    2.61    2.75
   4   7  -3    0.21    0.96
  -4  -7   3    1.98    1.53
   4  -4   7  196.87   18.99
  -4   4  -7   98.49   16.50
   4  -4   7  192.73   19.38
  -4   4  -7  122.67   13.36
   6   6   5   52.81   15.24
   6   6   5   46.99    7.51
  -6  -6  -5   23.10    6.49
   6   6   5   42.91    5.66
   6   6   5   34.89    4.51
  -6  -6  -5   45.15    5.34
   6   6   5   47.25    4.58
   6   6   5   32.55    5.34
  -6  -6  -5   39.26    4.52
   6   6   5   35.23    4.26
  -6  -6  -5   36.76    7.22
   0  -3 -11    2.75    6.70
   0  -3 -11    8.21    6.53
   0   3  11    1.65    3.95
   0   3  11    6.11    5.12
   0   3  11    1.99    2.71
   0  -3 -11    3.13    1.93
  -1   9   2   16.02    2.69
   1  -9  -2    8.70    2.44
  -1   9   2   14.17    2.64
  -1   9   2   12.26    2.55
   5  -5   4   68.76    7.38
  -5   5  -4   49.99   10.81
  -5   5  -4   82.21    9.21
   7   0  -3  109.66   17.24
   7   0  -3   93.41   11.65
   7   0  -3  108.84   10.60
  -1   5  10  114.63   12.80
   1  -5 -10   80.97   12.19
  -1   5  10   86.01   15.33
   1   7   9   46.03    8.49
   1   7   9   42.41   12.82
  -1  -7  -9   53.85    7.38
  -1  -7  -9   51.79    6.04
   2   8  -3   18.52    2.70
   2   8  -3   17.87    2.67
  -2  -8   3   16.55    2.69
  -2  -8   3   19.04    3.13
  -6   2  -6  113.71   11.99
   6  -2   6  215.40   19.36
  -6   2  -6  134.82   13.87
   6  -2   6  146.58   15.04
   4  -3   8    4.38    1.52
  -4   3  -8    1.69    1.86
  -4  -1 -10   41.60    4.62
  -4  -1 -10   41.45    6.78
  -4  -1 -10   47.74   15.51
   4   1  10   54.27   11.20
   4   1  10    8.51    4.74
  -2  -3 -11  130.96   17.75
  -2  -3 -11  238.84   33.31
   2   3  11  150.69   23.05
   7   1  -3   98.35    9.83
   7   1  -3  114.85   16.18
   3  -1  10  141.27   15.36
   3  -1  10  104.79   12.50
  -4   6   6   60.88    7.41
   4  -6  -6   49.71    7.75
   4  -6  -6   32.48    8.03
   1  -9  -3   11.14    2.09
   1  -9  -3    5.96    2.37
  -1   9   3    7.44    1.92
  -1   9   3    7.10    2.12
  -1   9   3    7.07    2.02
   2   3  -9    1.27    2.04
  -2  -3   9    0.35    2.99
  -2  -3   9    0.14    1.97
   5   7   6    1.47    1.98
  -5  -7  -6    0.53    2.39
   5   7   6    0.80    2.15
  -5  -7  -6    1.36    1.62
  -5  -7  -6    1.35    1.14
   5   7   6    0.72    1.04
  -5   3   7   11.32    3.49
   5  -3  -7    2.95    3.06
  -5   3   7    7.77    1.61
  -5   3   7    7.72    2.82
   7   0   5   64.25    6.30
  -7   0  -5   66.97    7.29
   7   0   5   73.13   13.14
   7   0   5   71.69    8.91
  -7   0  -5  102.12   22.64
   7   0   5   40.06    8.96
   7   0   5   50.23    9.10
   3   8   7   27.68    4.98
  -3  -8  -7   14.70    5.17
  -3  -8  -7   28.14    4.36
  -3  -8  -7   23.45    3.09
   3   8   7   15.87    3.98
   2   1  11   -1.99    4.37
   2   1  11    3.82    4.16
  -2  -1 -11    1.47    6.57
  -5   6   3   14.90    3.33
  -5   6   3   17.06    2.35
   5  -6  -3   17.65    3.83
   5  -6  -3   23.86    2.73
   5  -6  -3   13.52    3.64
   1  -9  -1   20.37    3.56
  -1   9   1   28.76    3.80
  -1   9   1   24.86    3.66
  -4   4   8   24.81    3.75
  -4   4   8   31.91    5.51
   4  -4  -8   12.99    4.52
  -4   4   8   17.37    4.93
  -3   8   3   78.83    7.71
  -3   8   3   57.50    8.51
   3  -8  -3   68.11    8.29
   3  -8  -3   88.50    8.43
   3  -8  -3   74.95    7.18
   2   9   0    0.28    1.00
  -2  -9   0    0.37    1.32
  -2  -9   0    0.37    0.92
   2   9   0   -0.19    0.91
   2   9   0    0.45    0.82
  -2  -9  -5    1.22    1.37
  -2  -9  -5    0.19    1.93
   2   9   5    0.11    1.16
   2   9   5   -0.04    0.64
  -6   3  -5    0.93    1.37
  -6   3  -5    0.61    0.54
   6  -3   5    0.81    0.85
   6  -3   5    0.58    0.68
  -2  -7  -9  261.23   25.94
  -2  -7  -9  232.00   23.03
   2   7   9  198.27   29.04
   2   7   9  141.55   24.78
  -2  -7  -9  257.56   24.27
   2   7  -5   37.40    4.46
   2   7  -5   35.82    4.24
  -2  -7   5   39.58    4.82
  -2  -7   5   34.08    4.67
   7  -2  -2    3.90    2.56
   7  -2  -2    3.64    3.06
   3  -8   0   50.96    6.30
  -3   8   0   49.37   11.32
  -3   8   0   56.76    7.33
  -3   8   0   58.24    6.37
  -2  -1  10   45.16   10.22
   2   1 -10   77.62    8.08
  -2  -1  10   68.37    7.31
   3  -4   8   13.27    2.49
   3  -4   8   13.08    2.32
   0   9   5    9.45    2.33
   0   9   5   10.45    3.10
   0  -9  -5   20.76    2.96
   0  -9  -5   12.71    1.87
   0  -9  -5   20.27    3.01
   1   6  10   87.67   19.31
  -1  -6 -10  108.05   11.42
   1   6  10   78.00   13.95
   1   6  10  106.66   10.16
  -1  -6 -10   99.56   13.58
   7   3  -2  120.15   19.68
  -7  -3   2   90.17   10.79
  -7  -3   2   75.60    8.34
   7   3  -2   98.47   10.22
   7   3  -2   98.21    9.89
   7   3  -2  107.34   16.02
  -2   4  10   99.77   11.69
  -2   4  10   72.28   10.84
  -2   4  10   69.28   12.89
   2  -4 -10   94.19   19.96
   1   2 -10    0.44    3.61
  -3  -2   9   23.70    7.08
  -3  -2   9   42.26    4.92
   3   2  -9   19.30    5.11
   3   2  -9   58.59    5.25
  -3  -9  -3   31.54    6.09
  -3  -9  -3   50.99    5.34
  -3  -9  -3   43.95    5.63
   3   9   3   42.22    5.91
   3   9   3   49.89    6.00
   0  -5   8   82.49    8.11
   0   5  -8   56.99    7.66
   0   5  -8   75.91    7.35
   0   5  -8   71.49    8.75
   0  -5   8   62.35    7.29
   7  -2   3    7.29    0.99
   7  -2   3    8.01    1.19
   7  -2   3    7.18    4.18
   7  -2   3   12.02    2.94
  -7   2  -3    9.97    8.47
   5   4   9   20.45    7.23
  -5  -4  -9   25.96    4.71
   5   4   9   13.16    5.53
   7  -1  -3   44.97    7.88
   7  -1  -3   40.83    8.13
   1   4  11   10.09    5.83
   1   4  11   12.31    3.92
   2  -2  10   51.32    6.24
   2  -2  10  116.45    8.05
   3   9   2    9.54    2.36
  -3  -9  -2    9.52    2.68
  -3  -9  -2   16.12    2.42
  -3  -9  -2    9.57    2.73
   3   9   2   15.45    2.63
   3   9   2   12.72    2.34
   1   0  11   12.92    3.56
  -1   0 -11   -0.56    4.31
  -4  -5   6   79.88   13.82
   4   5  -6  116.92   12.25
   4   5  -6  100.46   11.77
  -4  -5   6   75.30   12.47
   5   2  -7   58.71    7.56
   5   2  -7  105.28   10.13
  -5  -2   7   75.27    7.87
   4  -7  -4   14.30    2.14
   4  -7  -4    5.51    2.67
   4  -7  -4    7.83    2.41
  -4   7   4   10.84    2.25
   1  -8  -7   36.45    8.26
   1  -8  -7   42.97    6.52
   1  -8  -7  107.06    9.27
   1  -8  -7  104.22    8.86
  -1   8   7   90.70   10.41
  -1   8   7   45.42   14.85
   6  -3  -5    4.95    3.05
   6  -3  -5    2.39    2.57
  -6   3   5    1.92    0.83
  -6   3   5    3.80    1.06
  -6   1  -7   26.43   12.65
  -6   1  -7   32.45    4.36
   6  -1   7   32.18    5.39
  -6   1  -7   33.10    5.24
   6  -1   7   46.85    8.61
   0  -7  -9   45.85    7.17
   0  -7  -9   63.66    5.65
   0   7   9   43.90    8.09
   0   7   9   35.01   11.53
  -6  -2  -8   31.46    5.13
  -6  -2  -8   29.96    3.27
   6   2   8   25.42    3.16
  -6  -2  -8   27.95    4.49
   6   2   8   14.48    6.23
   6   2   8   26.48    6.57
  -5   3  -7    2.65    1.42
   5  -3   7    4.10    1.32
  -4  -4 -10   61.66    8.86
   4   4  10   30.29   10.85
   4   4  10   42.78    9.69
  -4  -4 -10   63.42    6.55
  -4  -4 -10   61.32    6.90
  -3   5  -7    1.44    0.54
   3  -5   7    1.81    1.21
  -4  -8  -6   31.19    4.56
  -4  -8  -6   30.77    3.98
  -4  -8  -6   29.98    3.98
   4   8   6   24.77    4.58
   4   8   6   34.19    5.34
  -4   5  -6   57.24    9.71
  -4   5  -6   51.78    6.75
   4  -5   6   88.92    9.47
  -6  -4   4   84.85   12.23
   6   4  -4   86.62    9.05
   6   4  -4   75.43    8.54
  -6  -4   4   88.13    9.14
  -6  -6   1  132.20   14.49
   6   6  -1  129.66   15.38
   6   6  -1  162.68   14.83
  -6  -6   1  158.83   16.78
   6   6  -1  151.02   15.13
  -4  -8   1    0.17    1.16
  -4  -8   1    1.47    2.20
   4   8  -1    0.34    0.98
   4   8  -1    0.86    0.97
   2   6  10    2.40    7.11
   2   6  10    1.45    0.92
  -2  -6 -10    1.95    1.65
  -2  -6 -10    2.49    0.78
  -2  -6 -10    3.12    2.66
   1  -9  -4    1.11    1.10
  -1   9   4    1.01    1.64
  -1   9   4    0.39    1.57
   1  -9  -4    0.31    1.74
  -1   9   4    0.28    1.11
   1  -9  -4    2.17    1.45
   6   0  -6   62.77   11.64
   6   0  -6   45.22   10.12
  -6   0   6   28.77    6.14
  -6   0   6   73.75    9.06
  -6   4   4    7.55    3.25
   6  -4  -4    8.16    3.58
   6  -4  -4   10.95    9.50
   6  -4  -4   17.25    4.18
  -6   4   4    9.63    1.46
   7   4  -1   13.33    2.14
   7   4  -1   12.36    2.42
   7   4  -1    7.00    7.47
   7   4  -1   11.24    5.29
  -7  -4   1    9.05    2.17
  -7  -4   1   14.63    3.56
   1  -5   8   58.48    6.08
  -1   5  -8   51.03    7.55
  -1   5  -8   61.44    5.69
  -5   0  -9   23.13    3.88
  -5   0  -9   13.34    1.48
   5   0   9   15.64    2.44
   1  -2 -11   46.23   11.94
   1  -2 -11   38.55    5.09
  -1   2  11   12.40    6.42
  -1   2  11   16.86    5.51
  -3  -9  -4   27.22    4.75
   3   9   4   37.53    5.81
  -3  -9  -4   48.64    3.36
   3   9   4   55.96    6.49
   2  -8  -6  107.70   10.18
  -2   8   6   22.01   12.77
  -2   8   6  114.18   10.72
   2  -8  -6   42.74    9.66
   2  -8  -6  110.72   10.00
   2  -8  -6   67.67    8.80
  -1  -9   1    5.55    1.39
   1   9  -1    4.72    1.47
   1   9  -1    6.35    1.57
  -1  -9   1    6.21    1.54
  -4  -4   7    0.40    2.47
   4   4  -7    0.42    1.09
  -4  -4   7    0.46    0.99
  -4  -4   7    1.13    2.38
   4   4  -7    0.42    1.08
   7   2  -3   32.52    9.28
   7   2  -3   30.97    6.67
  -7  -2   3   16.92    2.16
  -7  -2   3   28.03    5.03
   7   2  -3   23.75    2.94
   7   2  -3   24.15    7.16
   0  -6   7  139.14   13.81
   0   6  -7  139.08   14.34
   0   6  -7  148.23   14.33
  -1  -8  -8    7.49    2.85
  -1  -8  -8    1.46    3.17
   1   8   8    5.11    6.39
   1   8   8    7.82    3.34
  -1  -8  -8    7.67    2.12
  -6  -3  -8   45.56    5.90
   6   3   8   30.17    6.37
   6   3   8   37.84    4.04
   6   3   8   27.42    7.44
  -6  -3  -8   40.12    4.45
   3   5  -7  185.62   18.51
  -3  -5   7  112.54   16.51
  -3  -5   7   90.01   18.48
  -6   1   6    9.63    2.91
   6  -1  -6    5.76    3.85
   6  -1  -6    6.73    5.87
  -6   1   6   10.81    3.52
   0  -4   9   13.04    2.51
   0  -4   9    8.52    1.79
   0   4  -9    7.16    3.09
  -5   6  -2   18.94    4.95
   5  -6   2   28.15    3.75
   6  -5   0  190.04   17.05
   6  -5   0  127.78   14.11
  -6   5   0   95.00   14.45
  -1   9   0   69.89    6.86
  -1   9   0   50.59    6.47
   1  -9   0   57.05    7.32
   1  -9   0   61.29    6.56
   6   5   7   61.76    9.21
   6   5   7   47.23    7.99
  -6  -5  -7   53.98    5.85
  -6  -5  -7   65.42    7.17
   6   5   7   62.32    6.42
   6   5   7   47.95   17.26
  -4  -6  -9    8.00    3.03
   4   6   9    9.65    4.77
  -4  -6  -9   10.78    2.04
   4   6   9   12.87    2.43
   4   6   9   10.60    9.36
  -4  -6  -9    8.82    2.21
   3  -3   9  276.14   26.85
  -3   3  -9  216.50   20.57
   6  -5  -1  114.17   12.60
   6  -5  -1   92.93   10.74
   0  -6 -10  156.76   21.05
   0   6  10  191.19   18.38
   0  -6 -10  205.21   20.05
   0   6  10  158.48   27.08
   0   6  10  141.76   21.90
   0   4  11    0.85    2.05
   0   4  11   -1.23    3.73
   0  -4 -11    0.26    2.85
  -6  -1  -8   60.24   19.12
   6   1   8   37.04    4.57
   6   1   8   48.92   13.30
   6   1   8   20.11    6.84
  -6  -1  -8   52.39    6.84
  -6  -1  -8   57.05    7.41
   0   9  -1   30.63    3.99
   0   9  -1   31.67    4.03
   0  -9   1   29.21    4.77
   0  -9   1   31.91    3.82
   0   9  -1   27.89    3.79
   5  -4   6    2.98    1.25
  -5   4  -6    3.71    1.70
  -5   4  -6    3.14    1.21
   5  -4   6    3.53    1.15
  -1   1  11   32.65    4.57
  -1   1  11   13.13    5.47
   1  -1 -11   19.73    9.08
   1  -1 -11   30.90    3.58
  -3  -9  -1   58.28    8.51
   3   9   1   79.13    8.18
   3   9   1   68.00    8.18
   3   9   1   69.94    7.95
  -3  -9  -1   78.11    8.11
  -3  -9  -1   78.95    7.92
  -3  -9  -1   66.44    9.47
   7   4   5    0.68    2.25
   7   4   5    0.72    1.40
   7   4   5    1.37    0.80
   7   4   5    0.39    0.61
   7   4   5    1.95    8.01
   7   4   5    0.53    1.16
   7   4   5    1.06    1.34
  -4   2  -9   16.56    4.02
   4  -2   9   26.35    3.81
  -1  -5   8   14.77    2.73
   1   5  -8   12.75    2.69
  -1  -5   8   21.97    3.15
   1   5  -8   20.03    3.61
   1   5  -8   18.60    2.59
  -4  -7  -8    0.33    3.00
   4   7   8    0.42    2.21
  -4  -7  -8   -0.19    1.42
   4   7   8   -0.18    2.34
   4   7   8   -1.61    6.78
   7   5   2   11.50    1.78
   7   5   2   14.10    9.40
   7   5   2   13.94    2.79
   7   5   2    9.38    2.36
  -7  -5  -2    4.61    2.61
  -7  -5  -2    5.12    4.17
   7   5   2   13.59    5.03
  -4   1   9   87.87   11.93
  -4   1   9   87.88    8.28
   4  -1  -9  103.31   15.25
   4  -7   2   16.14    2.04
  -4   7  -2   14.11    3.29
  -4   7  -2   16.26    2.06
  -4   7  -2   22.25    4.08
   4  -7   2   15.29    2.71
  -4  -6   5  116.00   17.48
  -4  -6   5  154.95   14.37
  -4  -6   5  120.08   15.71
   4   6  -5  143.40   14.78
   4   6  -5  160.93   15.25
   3  -8  -4    7.82    2.15
  -3   8   4    2.39    5.77
   3  -8  -4   11.29    2.67
   3  -8  -4    5.40    2.52
   3  -8  -4   10.67    1.79
  -3   8   4    9.85    2.24
  -6  -5   3   12.59    5.01
  -6  -5   3   25.22    3.43
   6   5  -3   21.90    3.24
   6   5  -3   21.51    3.04
  -6  -5   3   15.87    4.73
   7   2   6   30.10    3.54
   7   2   6   32.64    6.32
  -7  -2  -6   31.91    4.31
   7   2   6   27.64    4.62
  -7  -2  -6   62.04   20.24
   7   2   6   42.49    6.73
   7   2   6   33.56    5.58
  -4   0 -10   67.34    6.86
   4   0  10  105.29   13.62
   4   0  10   66.21   10.50
  -4   0 -10   62.53    9.32
  -4   0 -10   58.96   17.28
  -1   4  -9   42.72    8.97
   1  -4   9   62.23    6.93
  -1   4  -9   70.84    6.92
   1  -4   9   78.25    7.68
  -5   2  -8    2.59    1.66
   5  -2   8    4.43    1.65
   6   3  -5   32.76    9.78
  -6  -3   5   43.85    4.95
  -6  -3   5   58.08    8.74
   6   3  -5   39.82    4.76
   7  -3   0   16.28    3.34
   7  -3   0    6.16    7.04
   7  -3   0   12.07    1.84
   7  -3   0   10.64    3.52
  -7   3   0   15.21    9.20
   7   5   3   78.09    8.06
  -7  -5  -3   23.04    6.67
   7   5   3   71.63   11.23
  -7  -5  -3   33.07    6.34
   7   5   3   72.08    7.41
   7   5   3   66.15   17.36
   7   5   3   52.20    7.70
   2   8   8   46.37   12.85
   2   8   8   18.81    4.62
  -2  -8  -8   46.17    6.82
  -2  -8  -8   44.50    5.74
  -3  -6   6   58.14   13.42
   3   6  -6  125.57   12.88
  -3  -6   6   91.64   11.58
   3  -7   4   10.65    2.17
  -3   7  -4   22.18    4.13
  -3   7  -4    9.62    1.77
   2  -6  -9   53.05    7.82
  -2   6   9   52.73    6.68
   2  -6  -9   35.71    7.58
  -2   6   9   35.85    7.66
  -2   6   9   32.25    9.87
   2   0  11    7.60    3.92
   2   0  11    0.68    2.77
  -2   0 -11    3.84    4.58
   2  -7   5   62.96    7.23
  -2   7  -5   55.53    5.87
  -2   7  -5   52.38    5.87
   1   9   6   -0.13    1.86
  -1  -9  -6    1.02    1.43
   1   9   6    0.15    1.65
  -3   8  -1    9.77    1.85
  -3   8  -1   10.84    1.56
   3  -8   1   11.96    2.68
  -3   8  -1    9.76    2.47
  -3   8  -1    6.71    1.38
  -3   6   8    0.65    3.94
   3  -6  -8    0.36    2.16
  -3   6   8    1.31    2.03
   3  -6  -8   -0.34    2.00
   3  -6  -8   -0.90    2.87
   1   6  -7   28.03    3.61
   1   6  -7   28.09    3.58
  -1  -6   7   34.19    4.21
  -1  -6   7   24.93    3.77
  -1   3  11    3.33    3.02
  -1   3  11    0.40    3.79
   1  -3 -11   -0.17    2.67
  -1   3  11   -2.37    4.26
  -1   3  11    0.60    2.13
   1  -3 -11    0.72    4.98
   6   1  -6    0.18    2.39
  -6  -1   6    0.64    0.66
   6   1  -6   -0.40    3.50
   6   1  -6    2.53    3.52
   6   1  -6   -0.84    1.83
  -6  -1   6    0.89    2.29
   7  -3   1  130.68   13.63
   7  -3   1  133.72   19.54
   7  -3   1   84.19    9.87
  -7   3  -1  147.08   25.43
   7  -3   1  124.99   10.54
   5   6   8   -0.90    8.78
  -5  -6  -8    4.61    2.73
  -5  -6  -8    4.19    1.97
   5   6   8    4.91    2.40
   5   6   8    4.22    2.67
  -5  -6  -8    0.37    3.55
   5   6   8    6.27    3.51
  -4   2   9  106.43   13.38
   4  -2  -9   92.20   14.89
  -4   2   9   99.60    9.76
  -6   5  -1    8.46    3.20
  -6   5  -1   12.61    5.76
   6  -5   1   14.05    2.35
  -3  -2 -11    1.78    8.32
  -3  -2 -11    0.22    2.14
   3   2  11   -0.40    3.64
   3   2  11   -3.12    8.11
   7   5   1   26.55    6.96
   7   5   1   25.23   10.76
  -7  -5  -1    9.88    3.14
   7   5   1   17.70    2.22
   7   5   1   14.32    2.80
   7   5   1   22.37    3.67
   7   5   1   15.22    2.41
  -7  -5  -1    6.08    4.24
  -7  -5  -1   16.91    3.46
   7   1   6   61.68    7.95
   7   1   6   33.93   11.83
   7   1   6   43.76    6.96
   7   1   6   32.99    6.23
  -7  -1  -6   44.82    5.45
  -7  -1  -6   68.81   20.74
   7   1   6   37.31    7.33
   6   6   6   19.72    3.05
  -6  -6  -6   28.22    3.92
   6   6   6   27.20   12.39
   6   6   6   31.99    6.04
   6   6   6   29.92    4.81
  -6  -6  -6   24.86    3.02
   6   6   6   22.19    4.10
  -6  -6  -6   16.09    5.06
  -1   6  -7    3.87    1.73
  -1   6  -7    6.80    2.87
   1  -6   7    5.16    1.18
  -1   6  -7    5.81    1.29
   0   8  -4   29.64    3.83
   0   8  -4   32.45    3.80
   5  -6  -4    4.88    2.69
   5  -6  -4    1.17    1.95
   5  -6  -4    2.46    1.78
  -5   6   4    1.11    0.99
  -5   6   4    3.16    1.91
   5  -6  -4    2.36    1.55
  -3  -4   8    1.74    2.43
   3   4  -8    4.23    1.29
  -3  -4   8    3.94    1.43
   3   4  -8    2.78    1.62
   5   5  -5    0.22    1.06
  -5  -5   5    3.40    2.67
  -5  -5   5    1.18    1.04
   5   5  -5    1.95    1.43
   5   5  -5    0.53    1.04
  -5  -5   5    0.46    3.19
   6  -5  -2   57.64    7.26
  -6   5   2   53.16    5.47
   6  -5  -2   37.37    4.11
   6  -5  -2   36.27    5.76
   6  -5  -2   55.78    4.84
  -4   0   9   62.12   11.10
   4   0  -9   64.14   11.16
  -4   0   9   85.21    8.65
   4   0  -9  104.81   12.15
   2  -7  -8  269.09   21.77
   2  -7  -8  119.91   18.59
   2  -7  -8   99.83   20.08
  -2   7   8  255.32   27.30
  -2   7   8  256.59   32.26
   2  -7  -8  360.08   21.49
  -5  -8  -3   65.68   10.76
   5   8   3   95.27   10.29
   5   8   3   82.86   10.75
  -5  -8  -3   90.36   10.49
  -5  -8  -3  102.38    9.60
  -5  -8  -3   87.95    9.86
   3  -1 -10   90.68   12.01
   3  -1 -10   81.47   13.50
  -3   1  10   51.01    9.40
  -3   1  10   34.79    9.77
   6  -4   4   11.41    1.87
  -6   4  -4   10.10    3.08
   7  -3  -1   47.58    5.37
   7  -3  -1   53.64    8.28
  -7   3   1   69.14   14.88
   0  -8  -8   12.89    3.44
   0  -8  -8    3.79    3.51
   0   8   8    8.17    3.33
  -1  -8   4   47.64    5.31
  -1  -8   4   43.55    5.71
   1   8  -4   44.67    5.08
  -3  -3 -11   46.82    7.97
  -3  -3 -11   57.06   17.84
   3   3  11   29.75    8.48
  -5  -8  -2   50.84    6.87
  -5  -8  -2   39.87    6.96
   5   8   2   50.14    6.56
  -5  -8  -2   49.76    6.94
   5   8   2   51.01    6.05
  -5  -8  -2   63.99    6.20
   5   8   2   58.88    6.40
   7   3   6    1.82    2.40
   7   3   6    0.96    1.23
   7   3   6    0.91    1.54
  -7  -3  -6    0.98    1.09
   7   3   6    1.01    0.77
   7   3   6    0.34    2.06
   5   4  -6    8.13    2.34
   5   4  -6    5.26    1.50
  -5  -4   6    1.91    2.85
  -5  -4   6    5.19    2.92
  -5  -4   6    5.86    1.47
  -3   2  10  162.74   19.50
   3  -2 -10  148.05   19.37
  -3   2  10  182.68   16.60
  -7   1  -5   29.31   13.82
   7  -1   5   25.62    6.32
   7  -1   5   11.45    4.14
   5   7  -2    6.10    1.35
  -5  -7   2    6.09    1.89
   5   7  -2    4.54    1.65
  -5  -7   2    4.24    2.42
  -5  -7   2    5.14    2.87
  -3  -7  -9    0.39    0.87
  -3  -7  -9    0.20    1.22
   3   7   9   -0.78    7.55
   3   7   9    1.33    2.81
   3   7   9    1.13    3.88
  -3  -7  -9    0.29    1.82
  -1  -4   9    1.05    1.53
  -1  -4   9    3.55    1.88
  -1  -4   9    4.74    1.71
   1   4  -9    3.07    2.31
   1   4  -9   -0.51    2.23
  -2  -9   1   73.20    7.53
  -2  -9   1   74.85    8.42
   2   9  -1   56.96    7.09
  -2  -9   1   61.57    7.23
   2   9  -1   68.48    7.16
   2   9  -1   64.09    7.04
  -2  -9  -6   -0.68    2.67
  -2  -9  -6    1.41    1.51
   2   9   6    0.82    1.59
   7  -2  -3    2.48    2.91
   7  -2  -3    0.21    2.45
  -6   2   6   84.76    9.32
  -6   2   6  103.99   12.04
   6  -2  -6   72.91   11.52
  -6   2   6   78.61    8.28
  -3  -9  -5    6.94    1.84
  -3  -9  -5    8.66    1.78
  -3  -9  -5    7.23    2.16
  -3  -9  -5    3.19    2.71
   3   9   5    5.38    2.16
   3   9   5    8.24    1.32
   2  -8   3    1.37    0.80
  -2   8  -3    1.27    0.75
   2  -8   3    1.01    1.32
  -2   8  -3    1.04    1.09
   7   5   4   74.08    9.77
   7   5   4  105.90    9.88
   7   5   4  102.29    9.62
   7   5   4  120.10   14.32
   7   5   4  105.19   22.05
   7   5   4   77.14    8.83
  -7  -5  -4   47.79    8.40
   7   5   4   79.54    9.41
  -6  -7  -3    8.83    3.67
  -6  -7  -3   16.59    2.45
  -6  -7  -3   10.42    3.64
  -6  -7  -3   18.42    3.17
   6   7   3   12.09    2.29
   6   7   3   22.37    2.68
   6   7   3   16.45    2.88
   6   7   3   12.17    5.21
  -6  -4  -8   66.16    7.04
  -6  -4  -8   71.02    8.40
   6   4   8   63.99    6.57
   6   4   8   81.63    9.53
   6   4   8   57.06    9.32
   6   4   8   58.42   10.60
   3  -6   6    3.80    1.46
  -3   6  -6    2.82    0.85
  -3   6  -6   -0.53    2.09
  -3   6  -6    1.41    2.71
  -3   5   9    1.63    2.19
  -3   5   9   -0.24    2.82
   6   7   2   18.18    3.03
  -6  -7  -2   18.40    3.35
  -6  -7  -2   14.05    3.62
   6   7   2   25.97    3.25
  -6  -7  -2   18.57    4.88
   1   0 -11   74.67    7.39
  -1   0  11   34.32    9.39
  -1   0  11   79.21    7.86
   3   1  11    4.58    4.16
   3   1  11   38.54    8.09
  -3  -1 -11   29.53   12.97
  -3  -1 -11   26.06    5.88
  -1   9   5   40.79   11.30
   1  -9  -5   25.37    3.64
  -1   9   5   21.05    4.14
   1  -9  -5   37.89    4.49
  -1   9   5   41.55    5.27
   1  -9  -5   17.23    4.88
   1  -9  -5   43.67    4.88
  -7   2  -4    7.88    8.56
   7  -2   4    9.00    1.42
   7  -2   4    9.04    1.10
   0  -9  -6   27.90    4.15
   0   9   6   12.81    3.85
   0  -9  -6   28.65    4.08
   0   9   6   30.56    4.84
  -5  -8  -4   18.14    2.58
   5   8   4   20.95    3.53
  -5  -8  -4   13.12    2.91
   5   8   4   12.24    2.90
  -5  -8  -4   12.18    2.28
   5   8   4   13.81    2.49
  -5   5   6    3.00    1.21
   5  -5  -6    5.71    2.75
   5  -5  -6    1.78    7.05
   5  -5  -6    6.04    3.22
  -5   5   6    5.44    1.65
   3   8  -3    2.95    1.47
   3   8  -3    3.50    1.25
  -3  -8   3    1.20    3.00
  -3  -8   3    4.99    1.73
  -3  -8   3    1.81    1.41
   7  -3   2    0.55    0.71
   5  -1  -8   14.39    6.38
  -5   1   8    7.29    1.76
  -5   1   8    9.67    3.97
   5  -1  -8    4.56    4.10
   5  -1  -8    4.33    6.69
  -5   1   8    3.35    3.22
   7   0  -4    3.31    5.47
   7   0  -4    4.96    3.68
   7   0  -4    3.48    1.16
   7   0  -4    3.30    1.71
   3   9   0  118.56   13.26
  -3  -9   0  145.84   13.72
  -3  -9   0  121.81   14.43
   3   9   0  124.29   13.60
  -3  -9   0  125.71   16.24
   3   9   0  153.54   13.65
  -5  -7  -7    0.25    1.10
   5   7   7   -0.78    2.79
   5   7   7   -0.25    1.69
  -5  -7  -7   -0.31    2.85
  -5  -7  -7    1.34    1.83
  -5  -5  -9    6.09    3.33
   5   5   9   16.77    3.41
   5   5   9    9.72    5.23
  -5  -5  -9   14.35    3.33
   5   5   9    7.96    3.52
  -4   7   5   46.04    5.86
   4  -7  -5   34.69    5.67
   4  -7  -5   23.71    5.80
  -6   0  -8   50.61    6.87
  -6   0  -8   50.90   16.64
  -6   0  -8   64.49    7.67
   6   0   8   29.80    4.97
   6   0   8   19.81    6.58
   3   0 -10    3.07    1.96
  -3   0  10    1.52    2.42
   3   0 -10    4.61    6.67
  -3   0  10    1.45    1.65
   5  -4  -7   56.18   17.96
   5  -4  -7   60.33   10.34
  -5   4   7   90.98    9.83
  -5   4   7   70.09    8.04
   3   6  10    0.08    0.98
  -3  -6 -10    1.63    1.44
   3   6  10    0.71    3.81
  -3  -6 -10    0.16    1.02
   3   6  10    1.36    5.23
   3   6  10    0.88    7.21
  -4  -3   8   14.91    2.47
   4   3  -8   20.14    2.99
   4   3  -8    7.78    2.39
  -5  -8  -1  102.56   12.26
   5   8   1  129.55   12.19
  -5  -8  -1   96.24   12.09
  -5  -8  -1  129.25   13.08
   5   8   1  102.44   12.35
   3  -7  -7   35.72    8.95
  -3   7   7   74.99    9.35
   3  -7  -7  133.90   10.64
   3  -7  -7   98.47   10.13
   3  -7  -7   46.21    7.69
  -1   9  -1   87.33    9.63
   1  -9   1  110.17   11.89
   1  -9   1  101.71   10.58
  -1   9  -1   98.73    9.90
  -1  -5 -11    0.23    2.30
   1   5  11    0.42    3.70
   1   5  11    0.13    1.55
   7   5   0    5.74    2.40
   7   5   0    4.70    4.28
  -7  -5   0    5.75    2.14
   7   5   0    4.07    1.30
   7   5   0    4.57    1.00
   7   5   0    2.08    6.17
  -7  -5   0    0.31    3.57
   7   5   0    3.51    1.47
  -7  -5   0    3.40    2.14
   5   0  -8   76.80   12.36
  -5   0   8   63.64    9.57
  -5   0   8   62.33    6.09
   1  -7  -9    4.45    2.04
  -1   7   9    3.84    3.30
  -1   7   9    6.76    6.71
   1  -7  -9    0.35    3.21
   1  -7  -9    2.52    2.73
   1  -1  11    0.60    1.91
  -2   5  -8   34.32    6.98
   2  -5   8   57.43    6.50
   2  -5   8   58.70    6.85
  -2   5  -8   44.63    4.65
   4   5  10   85.88   14.14
  -4  -5 -10   72.03   10.78
  -4  -5 -10  105.07   10.10
   4   5  10   64.77   15.18
  -4  -5 -10  103.95   12.07
   0  -7   6  276.36   26.60
   0   7  -6  270.67   26.05
  -2   9   2   68.63    9.52
   2  -9  -2   73.52   10.49
   2  -9  -2  109.82   10.14
  -2   9   2   78.41    9.81
  -5  -6   4   22.03    3.16
  -5  -6   4   14.72    4.54
  -5  -6   4   19.01    5.08
   5   6  -4   19.97    3.21
   5   6  -4   20.92    3.02
   7   1  -4    7.89    1.58
  -7  -1   4    3.43    0.99
   7   1  -4    6.82    4.89
  -6   5  -2   10.85    3.63
  -6   5  -2    6.75    5.65
   6  -5   2   14.29    1.88
   6  -5   2   14.83    2.34
   0   3 -10   -2.09    4.31
   0  -3  10   -0.43    1.53
   0  -3  10    0.99    1.80
  -7   0  -6   23.14    3.24
   7   0   6   17.10    4.57
   7   0   6   19.68    7.98
   7   0   6   11.30    4.22
   5  -5   5   53.19    6.02
  -5   5  -5   53.10    5.22
  -5   5  -5   33.86    8.26
   6   7   4    8.75    2.53
   6   7   4    8.61    4.33
   6   7   4   11.99    2.09
  -6  -7  -4   14.11    2.18
   6   7   4   17.34   10.32
  -6  -7  -4    7.11    3.34
   6   7   4   17.40    3.25
  -6  -7  -4   11.12    3.93
  -1   8  -4   11.67    2.02
   1  -8   4    8.43    2.05
  -1   8  -4   11.24    1.93
  -4   3   9    6.01    3.76
  -4   3   9    7.53    3.36
  -4   3   9    4.69    1.72
   7  -3  -2   69.28    9.99
   7  -3  -2   61.44    6.60
   7  -3  -2   90.75   10.00
  -7   3   2   87.32   15.35
   7   3  -3   26.77    3.25
  -7  -3   3   20.57    2.72
   7   3  -3   33.01    5.77
   7   3  -3   28.98    9.71
   7   3  -3   22.22    7.87
  -7  -3   3   24.47    5.06
   2   2 -10   11.86    5.57
  -2  -2  10   14.74    6.10
   2   2 -10   39.58    3.95
  -2  -2  10   39.89    4.62
  -6  -7  -1   12.77    3.13
  -6  -7  -1    8.62    2.62
   6   7   1   17.57    2.70
  -6  -7  -1   11.61    4.10
   6   7   1   13.08    2.28
   3  -3 -10   33.44   12.83
  -3   3  10   87.39   11.87
  -3   3  10   92.39    9.64
   2  -4   9   28.81    3.35
   2  -4   9   41.63    4.44
  -2   4  -9   14.52    6.49
  -2   4  -9   30.08    3.31
  -4   6  -5    5.17    3.59
  -4   6  -5   -0.07    0.50
  -4   6  -5    4.87    2.76
   4  -6   5    5.83    1.63
  -1   3 -10  108.89   15.78
   1  -3  10  258.77   18.25
   1  -3  10  139.54   17.20
  -3  -4 -11  168.86   19.13
  -3  -4 -11  157.71   16.56
   3   4  11   93.89   15.87
   7   4  -2    7.54    1.57
   7   4  -2    3.02    4.50
  -7  -4   2    4.86    2.76
  -7  -4   2    5.90    1.48
   7   4  -2    6.77    1.66
   6  -5  -3  138.30   22.21
  -6   5   3   69.89    7.05
   6  -5  -3   62.97    8.84
   6  -5  -3   37.24    7.44
   6  -5  -3  121.71   10.51
  -7   1   4   12.43    3.99
   7  -1  -4    8.00    6.39
   7  -1  -4   11.38    4.19
  -2   5  10  109.41   12.13
  -2   5  10   69.57   13.39
  -2   9   1  109.33   10.22
  -2   9   1  103.18   10.90
  -2   9   1   76.27   10.01
   2  -9  -1   80.43    9.44
   5  -2  -8   -0.33    2.93
  -5   2   8    5.19    1.52
  -5   2   8    3.36    2.84
  -5   2   8    3.26    3.23
   3  -2  10   53.86    5.21
  -3   2 -10   28.87    6.77
   3  -2  10   32.17    3.43
   6   6  -2   12.47    2.32
  -6  -6   2   13.64    4.00
   6   6  -2   17.05    2.89
  -6  -6   2    9.83    2.21
  -3   8   5   11.12    2.57
   3  -8  -5   13.92    3.15
   3  -8  -5    8.37    2.37
   3  -8  -5    3.97    2.75
  -3   8   5   -0.86    6.46
   3  -8  -5   12.46    2.36
  -2   9   3   52.43   12.77
  -2   9   3   41.91    6.46
   2  -9  -3   66.89    6.45
   2  -9  -3   34.18    6.50
  -2   9   3   58.35    6.35
  -5   6  -3  174.05   17.57
  -5   6  -3  135.32   18.51
   5  -6   3  162.67   15.25
   5  -6   3  147.53   14.34
  -1   4  11   13.06    6.04
  -1   4  11   12.04    3.73
  -1   4  11    9.53    5.29
   1  -4 -11   26.87   10.71
  -1  -7   6   48.47    5.85
   1   7  -6   41.16    4.79
   1   7  -6   42.92    4.93
  -1  -7   6   45.90    5.44
  -4  -1   9   17.28    5.60
  -4  -1   9   38.73    4.37
   4   1  -9   52.41    7.20
   3   7  -5  271.58   26.53
  -3  -7   5  268.04   22.54
  -3  -7   5  211.51   22.64
   4   8   7   13.33    3.55
  -4  -8  -7   23.54    3.86
   4   8   7   24.36    4.66
   4   8   7   20.52   10.80
  -4  -8  -7   22.55    3.21
  -2  -5 -11    5.53    0.99
   2   5  11   13.62    3.77
   3   8   8   21.31    5.35
  -3  -8  -8   34.02    3.85
  -3  -8  -8   37.53    5.51
   3   8   8   41.87   13.01
   3   8   8   38.53    6.60
  -3  -8  -8   33.85    4.34
   4   7  -4    5.10    1.58
  -4  -7   4    4.72    2.14
  -4  -7   4    5.12    1.70
  -4  -7   4    2.97    3.02
  -1   6  10  185.97   18.22
   1  -6 -10  203.46   20.67
  -1   6  10  152.54   25.47
   1  -6 -10  157.52   21.25
  -1   6  10  142.49   21.22
   6   2  -6  111.42   11.80
  -6  -2   6   81.76    8.30
   6   2  -6   68.64    7.88
   5  -1   9   17.64    3.56
  -5   1  -9   12.69    3.12
   5  -1   9    5.05    2.06
   2   5  -8   63.91    7.11
  -2  -5   8   71.91    7.06
  -2  -5   8   42.14    7.12
   4   8  -2   34.12    4.70
  -4  -8   2   43.00    5.56
   4   8  -2   38.98    4.49
  -4  -8   2   34.20    6.80
  -4  -8   2   34.37    5.14
   5   3  -7   38.93    5.17
   5   3  -7   63.54    6.89
  -5  -3   7   47.94    5.43
   4  -5  -8   46.97   14.83
  -4   5   8   44.39    6.86
  -4   5   8   30.31    5.56
   4  -5  -8   26.31    6.24
   4  -5  -8   61.85    8.85
  -2  -8   4   16.63    2.97
   2   8  -4   16.87    2.58
  -2  -8   4   16.82    2.82
  -1  -9   2   28.58    4.74
   1   9  -2   22.45    3.32
  -1  -9   2   31.97    3.71
  -1  -9   2   25.31    3.48
   1   9  -2   23.70    3.25
   4  -6  -7    3.59    2.70
  -4   6   7   -0.23    2.91
   4  -6  -7    1.46    2.68
   4  -6  -7    0.90    1.90
   4  -6  -7    1.42    3.10
  -4   6   7    0.81    1.74
   7   4   6   79.05    8.23
   7   4   6   84.18    9.92
   7   4   6   66.60    7.72
  -7  -4  -6   84.52    9.46
   7   4   6   67.02    9.23
   3  -8   2   44.48    5.37
  -3   8  -2   42.53    4.00
   3  -8   2   36.28    4.22
  -3   8  -2   30.56    3.82
   0   9  -2   30.04    3.79
   0   9  -2   34.87    4.12
   0  -9   2   32.73    3.90
   0   9  -2   29.97    4.01
   0   9  -2   28.81    3.89
   0   5  11    8.64    5.46
   0  -5 -11   19.19    5.55
   0   5  11   16.07    3.69
  -2  -6   7   16.55    3.14
  -2  -6   7   24.43    3.40
   2   6  -7   16.24    2.71
   2   6  -7   23.41    3.02
   5   8   5  145.15   18.56
   5   8   5  166.77   17.86
  -5  -8  -5  189.29   18.77
  -5  -8  -5  203.54   17.86
  -4   7  -3   -0.03    0.93
  -4   7  -3    0.34    2.94
   4  -7   3    0.68    1.16
   4  -7   3    0.53    0.54
  -4   7  -3    1.78    2.60
  -6   4   5   73.18    6.60
   6  -4  -5   52.68    9.29
   6  -4  -5   82.30   10.76
   6  -4  -5   61.83   18.74
  -6   4   5   56.21    6.05
   6  -3   6   57.19    6.38
   6  -3   6   58.65    5.96
  -6   3  -6   49.84    5.60
  -6   3  -6   61.22    7.62
   6  -2   7   10.94    2.08
  -6   2  -7    8.45    2.00
  -6   2  -7   10.91    2.82
   6  -2   7   18.07    5.20
   1  -7   6    4.23    1.63
  -1   7  -6    5.28    1.45
  -3  -3   9   45.58    4.95
   3   3  -9   22.64    5.14
  -3  -3   9   16.02    6.32
   3   3  -9   34.34    5.30
   2  -6   7    3.01    1.47
  -2   6  -7    0.60    1.80
  -7  -5  -5    5.44    3.85
   7   5   5    9.26    2.62
   7   5   5    9.31    1.65
   7   5   5    8.20    1.63
   7   5   5   17.67    5.06
   7   5   5   10.42    1.96
   7   5   5    1.86    6.72
   7   5   5    9.95    2.38
  -4   1 -10   33.36    5.30
   4  -1  10   81.64   10.76
   4  -1  10   53.75    7.56
  -4   1 -10    0.09    0.23
  -4  -9  -3   27.77    5.78
   4   9   3   42.95    5.35
  -4  -9  -3   43.23    5.33
   4   9   3   34.60    5.24
  -4  -9  -3   41.45    4.90
  -4  -9  -3   39.40    5.16
   5   1  -8   19.02    3.84
   5   1  -8   60.63    7.56
  -5  -1   8   45.43    5.30
  -5  -1   8   41.83    8.20
   7  -3   3    3.91    0.61
   7  -3   3    6.21    1.13
   3   9   6    1.68    1.82
   3   9   6    1.34    2.11
  -3  -9  -6   -0.23    2.45
  -3  -9  -6    2.06    1.16
  -3  -9  -6    2.11    1.74
  -2   1 -11   37.99    9.63
   2  -1  11   89.46   10.19
  -3   0 -11   23.95    5.55
   3   0  11   55.99    9.07
   3   0  11   43.88    7.46
  -3   0 -11   33.12   12.66
   2  -8  -7   37.84    5.54
   2  -8  -7   28.76    7.04
  -2   8   7   71.61    9.23
  -4  -9  -2   20.40    3.34
  -4  -9  -2   18.98    3.52
   4   9   2   21.75    3.29
   4   9   2   17.63    3.28
  -4  -9  -2   14.54    3.61
  -5  -8   0    9.44    3.26
  -5  -8   0    8.60    2.35
  -5  -8   0    8.56    2.86
   5   8   0    9.49    1.86
   5   8   0    8.34    2.07
  -2   9   0   81.82    9.27
  -2   9   0   73.60    8.40
  -2   9   0   81.83    8.57
   2  -9   0   77.47    7.70
   2  -9   0   61.78    8.31
  -2   2  11    3.71    2.81
  -2   2  11   10.75    2.90
  -2   2  11    2.62    4.11
   2  -2 -11    5.83    3.10
   2  -2 -11    6.58    6.50
   5  -6  -5   24.38    4.74
   5  -6  -5    8.01    3.65
   5  -6  -5   18.72    3.95
   5  -6  -5   15.28    3.92
  -5   6   5    7.77    2.12
  -5   6   5   10.30    2.54
   6  -3  -6   51.93    8.82
  -6   3   6   45.52    5.18
  -6   3   6   53.85    5.86
  -7  -2   4    0.92    0.64
  -7  -2   4    1.17    2.36
   7   2  -4    0.03    1.05
   7   2  -4    0.24    3.10
   1  -8  -8   92.64    9.71
  -1   8   8   33.99   14.15
  -1   8   8   84.85   10.19
   1  -8  -8  106.59   10.66
   1   3 -10   20.49    5.32
  -1  -3  10   14.28    3.35
  -5  -2 -10   28.24    3.78
   5   2  10   15.74   10.46
  -5  -2 -10   21.44    4.61
  -5  -2 -10   22.73   13.82
   2  -9  -4    8.24    1.69
  -2   9   4    4.94    2.02
   2  -9  -4    6.36    1.88
   2  -9  -4    9.05    2.19
  -2   9   4    7.88    2.16
  -2   9   4    7.89    6.29
   2  -9  -4    4.28    2.45
   8   1   1   18.38    6.42
   8   1   1   27.84    4.67
   8   1   1   24.02    3.48
   8   1   1   21.98    2.86
   8   1   1   30.10    6.92
  -6  -7  -5   26.74    3.38
   6   7   5   24.29    3.33
   6   7   5   23.59    4.24
   6   7   5   23.64    6.03
   6   7   5   36.80    4.78
   6   7   5   28.57   12.02
  -6  -7  -5   25.75    5.56
  -6  -7  -5   15.26    5.12
   6   7   5   21.68    2.97
   1   9   7   53.08    6.90
  -1  -9  -7   54.10    6.06
  -1  -9  -7   15.29    5.77
   1   9   7   27.21    5.96
  -2   1  11    0.26    2.19
   2  -1 -11    0.95    1.36
  -2   1  11    1.64    1.81
   2  -1 -11   -0.45    4.86
  -2   1  11    0.36    3.08
   8   1   2  156.85   14.47
   8   1   2  119.95   17.11
   8   1   2  131.16   13.34
   8   1   2  114.49   12.31
  -6  -7   0   60.34    7.92
   6   7   0   70.82    8.28
   6   7   0   75.71    8.13
  -6  -7   0   57.74    9.69
  -6  -7   0   82.61    9.52
   6   7   0   90.91    8.73
   4   9   4   70.34    9.23
  -4  -9  -4   82.67    8.62
   4   9   4   72.86    8.65
  -4  -9  -4   85.74    8.34
  -4  -9  -4   70.19    7.83
  -5  -3 -10  112.84   15.05
  -5  -3 -10  144.82   14.01
  -5  -3 -10  165.47   31.96
   5   3  10   64.16   12.44
   3   1 -10   42.00    5.43
  -3  -1  10   17.24    6.05
  -3  -1  10   35.15    4.34
   6   6   7  134.07   14.88
   6   6   7   90.07   22.76
   6   6   7  102.23   13.47
  -6  -6  -7   93.17    9.05
  -6  -6  -7  103.16   10.31
  -6  -6  -7   47.01   11.72
  -6  -6  -7   64.61   11.58
  -2  -4   9   16.36    2.73
   2   4  -9   12.56    3.14
  -2  -4   9    6.72    2.94
  -1  -1  11   27.05    7.37
  -7  -5   1   -0.31    4.10
   7   5  -1    2.88    1.33
  -7  -5   1    6.11    2.57
   7   5  -1    1.36    4.41
  -7  -5   1    3.73    1.66
   7   5  -1    3.37    1.38
   8   2   2   69.13   10.56
   8   2   2   52.39    8.58
   8   2   2   47.98    6.06
   8   2   2   44.81    5.20
   8   2   2   55.42    6.99
   8   2   1   31.75    3.83
   8   2   1   34.95    5.76
   8   2   1   31.82    4.41
   8   2   1   38.62    7.48
   8   2   1   51.58    9.00
   1  -9  -6   70.28    6.78
   1  -9  -6   59.94    6.43
  -1   9   6   26.56   11.38
  -1   9   6   83.66    9.34
   1  -9  -6   24.89    6.72
   1  -9  -6   37.27    5.15
   3   9  -1    1.71    1.32
   3   9  -1    1.62    1.00
  -3  -9   1    1.32    1.60
  -3  -9   1    1.19    1.41
   3   9  -1    1.93    1.21
  -3  -9   1    2.00    1.17
  -3  -9   1    1.22    2.75
   2  -3  10   72.64    5.83
   2  -3  10   34.32    4.24
   6   5   8    7.16    3.63
  -6  -5  -8    5.78    1.48
  -6  -5  -8    7.13    2.24
   6   5   8   11.04    3.21
   6   5   8    3.43    2.55
  -1  -7 -10   30.06    5.69
   1   7  10   10.84    8.44
  -1  -7 -10   24.81    4.12
   1   7  10   26.08    6.87
   1   7  10   21.98   10.21
  -7  -2  -7    1.54    1.29
   7   2   7    1.23    1.25
   7   2   7    1.31    2.52
  -7  -2  -7    2.46   10.08
   7   2   7    1.47    2.30
   7   2   7    2.71    3.04
   7  -2  -4   47.74    8.71
  -2  -9   2   64.43    7.56
   2   9  -2   51.63    6.26
   2   9  -2   50.93    6.14
   2   9  -2   59.07    6.27
  -2  -9   2   82.57    9.34
   2   9   7   -0.34    2.01
  -2  -9  -7   -0.22    1.41
  -2  -9  -7    0.57    1.17
   7  -3  -3   14.69    4.52
   8   1   0    0.34    4.09
   8   1   0    0.06    1.02
   8   1   0    0.59    0.76
   8   1   0   -0.30    3.32
   8   1   0    0.66    1.92
   8   1   0    0.69    0.74
   4  -4   8    5.10    1.73
  -4   4  -8    1.95    2.03
   4  -4   8    5.40    1.69
  -5   3   8   39.40    7.11
  -5   3   8   41.16    4.88
   5  -3  -8   21.53   11.72
   5  -3  -8   36.14    7.77
   8   0   1   86.76   11.44
   8   0   1   77.23    8.77
   8   0   1   57.32    6.43
   8   0   1   65.91    7.20
   8   0   1   63.53    6.15
   8   0   1   63.08   10.67
   8   0   1   45.01   10.92
  -6   5  -3   -5.15    5.98
   6  -5   3    0.79    0.93
  -6   5  -3    1.90    1.96
   6   4  -5   56.98    6.53
  -6  -4   5   58.68    6.42
   6   4  -5   87.54    8.89
  -6  -4   5   60.71    9.73
  -4  -9  -1   29.80    5.00
   4   9   1   31.00    4.69
   4   9   1   40.32    4.73
  -4  -9  -1   31.02    5.36
  -4  -9  -1   38.47    4.95
  -6   4  -5    0.03    0.10
  -6   4  -5   12.86    3.05
   6  -4   5   12.75    2.13
  -2   3  11   -0.61    2.62
   2  -3 -11    0.23    3.50
  -2   3  11    0.39    3.48
   2  -3 -11   -0.83    5.43
  -2   3  11   -2.00    2.99
  -6  -5   4   98.21   13.23
   6   5  -4  102.02   11.23
  -6  -5   4  112.58   10.12
   6   5  -4  146.40   12.87
   5   1  10   59.11   12.20
   5   1  10   10.91    5.46
  -5  -1 -10   48.37    7.11
   5  -7  -1   50.95    5.37
  -5   7   1   43.37    5.06
  -5   7   1   43.05    2.76
   5  -7  -1   31.53    5.07
  -7   2  -5    3.18    2.52
  -7   2  -5    5.50    8.75
   7  -2   5    6.32    1.22
   7  -2   5    4.50    1.01
  -3   4  10   -0.44    2.77
  -3   4  10    1.47    2.52
  -3   4  10   -0.66    4.09
  -2  -7 -10   24.96    4.05
  -2  -7 -10   26.75    3.06
   2   7  10   17.38    9.62
   2   7  10   15.34    8.48
  -2  -7 -10   25.39    5.36
  -6   1  -8    2.83    7.72
  -6   1  -8    1.69    1.42
   6  -1   8   -0.45    2.41
   6  -1   8    1.51    4.13
  -6   1  -8    1.56    1.47
   2   7  -6    0.48    0.99
   2   7  -6    1.60    1.30
  -2  -7   6    0.35    1.43
  -2  -7   6    1.31    1.27
   8   0   2   16.00    6.67
   8   0   2   15.29    2.70
   8   0   2   14.19    1.94
   8   0   2   24.48    5.70
   8   0   2    9.72    5.38
   8   0   2   18.10    3.43
  -1   9  -2   55.99    6.00
  -1   9  -2   50.38    5.63
  -1   9  -2   51.30    6.10
  -1   9  -2   48.23    5.69
   1  -9   2   59.03    7.18
   1  -9   2   51.07    5.74
   7   3   7   54.64    8.33
   7   3   7   54.41    6.61
   7   3   7   55.80    9.33
  -7  -3  -7   64.55    7.65
   8   1   3   28.10    6.65
   8   1   3   29.21    3.33
   8   1   3   27.74    3.13
   8   1   3   36.37    4.65
   8   1   3   45.75    7.66
   8   1   3   36.18    4.74
   6  -5  -4   18.34    9.86
   6  -5  -4    7.45    3.42
   6  -5  -4   13.87    4.05
  -6   5   4    7.89    1.05
   6  -5  -4   19.00    4.38
  -6   5   4   13.82    1.67
   7   1   7   24.34    6.36
   7   1   7   37.42   12.21
  -7  -1  -7   47.70   18.77
  -7  -1  -7   33.77    4.62
   7   1   7   27.88    4.84
   8   2   3   -0.15    0.78
   8   2   3   -0.39    2.39
   8   2   3    1.82    1.54
   8   2   3    0.50    0.55
   8   2   3    0.53    2.75
   8   2   3    0.34    1.30
   1   8   9   24.75    5.67
   1   8   9   12.72    8.10
   1   8   9   18.86    9.34
  -1  -8  -9   23.98    4.70
  -1  -8  -9   26.69    3.93
  -7   1  -6   -1.97    2.30
  -7   1  -6    0.23    0.76
   7  -1   6   -1.98    2.50
   7  -1   6   -0.24    3.96
  -7   1  -6    0.98    8.26
   0  -9  -7   91.68    9.09
   0   9   7   93.63   10.76
   0   9   7   49.74   14.67
   0  -9  -7   92.95    9.56
   8   0   0   74.88   11.61
   8   0   0   56.42   10.02
   8   0   0   57.52   12.40
   8   0   0   66.26    7.68
   8   0   0   73.22    6.92
   8   0   0   74.10    9.68
  -3  -5 -11  154.30    6.92
   3   5  11  108.50   17.41
  -3  -5 -11  157.44   11.43
   5   7  -3    7.53    1.90
  -5  -7   3    8.71    3.53
  -5  -7   3    8.24    2.40
   5   7  -3    7.34    1.80
  -5  -7   3    7.41    3.10
  -5   7   2  114.65   11.27
  -5   7   2  103.27   12.46
   5  -7  -2   78.03   10.06
   5  -7  -2  101.13   11.04
   4  -4  -9    3.50    3.14
  -4   4   9    8.78    3.39
  -4   4   9    3.64    3.65
  -4   4   9    9.53    2.45
  -4   8   1   13.09    2.24
  -4   8   1    9.68    3.02
   4  -8  -1   14.88    2.40
   4  -8  -1    9.41    2.50
  -4  -7  -9    6.15    1.63
   4   7   9    7.04    4.25
  -4  -7  -9    1.13    3.79
   4   7   9    3.38    8.43
  -4  -7  -9    5.92    1.76
   8   2   0  131.78   15.84
   8   2   0  178.59   18.78
   8   2   0  129.00   13.03
   8   2   0  198.85   20.71
   8   2   0  136.88   13.34
   8   2   0  126.80   13.79
  -4  -2 -11   18.05    2.59
   4   2  11   11.80    8.85
  -4  -2 -11   15.16    4.21
   4   2  11    4.52    4.51
  -4  -2 -11   19.85   12.43
  -6  -2  -9   22.42    3.95
  -6  -2  -9   24.23    4.35
  -6  -2  -9   21.33   14.65
   6   2   9   12.36    5.93
  -6  -2  -9   20.30    2.45
   6   2   9   20.86    2.52
  -7  -6  -2   11.17    3.74
   7   6   2   26.88    3.71
  -7  -6  -2    8.28    4.63
   7   6   2   28.61   12.03
   7   6   2   23.38    3.10
  -7  -6  -2   20.84    3.71
   7   6   2   32.45    8.10
   7   6   2   21.04    3.66
   4  -8  -2   23.59    4.55
  -4   8   2   30.16    5.53
  -4   8   2   17.40    9.45
  -4   8   2   32.83    4.04
   4  -8  -2   41.55    4.76
   3  -7   5    0.77    1.22
  -3   7  -5    0.47    1.22
  -3   7  -5    3.60    2.52
   5  -7   0    0.14    1.25
  -5   7   0    0.48    1.79
  -5   7   0   -0.01    0.10
   5  -7   0    1.92    1.06
  -5   7   0    2.67    2.36
  -5   7   0    1.20    0.94
   7   6   3   20.31    3.62
   7   6   3   22.51    6.61
   7   6   3   26.77   11.46
  -7  -6  -3    9.51    3.45
   7   6   3   22.33    3.16
  -7  -6  -3    6.15    4.50
   7   6   3   22.04    3.33
  -2   0  11   19.16    5.98
  -2   0  11   29.45    4.08
   2   0 -11   37.77    4.57
   4  -5   7   34.30    4.50
  -4   5  -7   17.36    6.33
  -4  -3 -11    0.30    0.86
  -4  -3 -11    0.89    1.92
  -4  -3 -11    1.09    9.66
   4   3  11   -0.87    4.16
   4  -3   9    1.48    1.46
  -4   3  -9    0.16    1.92
   4  -7  -6    3.72    3.06
  -4   7   6   14.38    3.21
   4  -7  -6   14.03    3.28
   4  -7  -6    8.95    2.96
  -5  -8  -6   54.58    5.65
   5   8   6   45.38    5.80
   5   8   6   38.65    6.40
  -5  -8  -6   49.00    6.27
  -4  -9  -5   95.56    9.89
  -4  -9  -5   98.15    9.63
  -4  -9  -5  102.21   10.29
   4   9   5   74.65   10.14
   4   9   5   79.97    9.60
   5   4  10   -0.57    4.82
   5   4  10    1.22    4.06
  -5  -4 -10    0.14    1.86
   7  -4   0  102.39   11.01
   7  -4   0   64.39    7.70
   6   3   9    2.40    3.77
   6   3   9    5.27    0.95
  -6  -3  -9    4.42    2.01
  -6  -3  -9    4.32    1.11
   6   3   9    3.24    3.53
  -2  -8  -9  151.96   15.61
  -2  -8  -9  143.72   14.49
   2   8   9  126.54   22.79
   2   8   9  102.96   19.87
  -2  -8  -9  162.44   17.18
  -5   3  -8    6.74    2.17
   5  -3   8    9.77    1.96
  -2   8  -4   42.64    4.66
  -2   8  -4   43.12    4.67
  -2   8  -4   39.06    4.90
   2  -8   4   36.05    4.85
   5  -4   7    1.09    1.10
   5  -4   7    1.20    1.17
  -5   4  -7    1.79    1.09
   6   0  -7    0.36    4.58
  -6   0   7    2.47    2.79
  -6   0   7    0.21    2.03
   6   0  -7   -0.80    3.74
   6  -1  -7   15.41    6.29
  -6   1   7   31.65    6.00
  -6   1   7   13.22    3.92
   6  -1  -7   19.98    8.09
   0   7  10   16.45    5.50
   0  -7 -10   30.71    3.99
   0  -7 -10   27.70    5.79
   0   7  10   21.76    9.95
   1   2  12    3.62    4.37
  -1  -2 -12    3.00    8.03
  -1  -2 -12    5.68    5.99
   8   3   2    5.96    2.40
   8   3   2    5.42    0.85
   8   3   2    5.91    1.82
   8   3   2    7.56    2.91
   8   3   2   12.39    4.84
   8   3   2    6.94    1.36
   4   2  -9    8.36    2.89
  -4  -2   9   21.99    3.31
  -4  -2   9   15.09    5.26
   4   2  -9   24.96    3.65
  -2   9  -1    0.66    1.21
  -2   9  -1    1.44    1.26
   2  -9   1    2.04    1.16
   2  -9   1    1.76    1.77
  -2   9  -1    2.19    1.04
   1  10   3    1.51    1.45
  -1 -10  -3    0.78    1.19
   3  -8  -6    8.37    3.69
   3  -8  -6   13.33    3.10
  -3   8   6   31.09    5.31
   5   6   9    4.57    3.46
   5   6   9    6.84    9.73
   5   6   9    9.20    2.65
   5   6   9    3.17    2.87
  -5  -6  -9    8.01    2.63
  -5  -6  -9    5.22    2.94
  -1 -10  -2   31.66    4.17
   1  10   2   24.27    3.86
  -1   5  11   53.75   12.12
   1  -5 -11   74.20   11.72
  -1   5  11   87.43   10.42
   7  -4  -1   77.21   16.10
   7  -4  -1   69.76    7.57
   7  -4  -1   50.12    7.40
  -7   4   1   82.42   16.91
  -4  -5   7    1.41    2.60
   4   5  -7   10.93    1.98
   4   5  -7    6.61    1.82
   4   5  -7    5.95    1.69
  -4  -5   7    3.09    3.59
   2  -9  -5    1.23    1.17
  -2   9   5    2.42    1.71
   2  -9  -5   -0.38    2.21
   2  -9  -5    1.63    1.63
  -2   9   5    1.49    5.36
   2  -9  -5    1.37    1.11
   7  -4   1    9.03    1.67
   7  -4   1    9.86    3.45
   8   3   1   42.69   14.20
   8   3   1   34.12    4.51
   8   3   1   42.88    8.84
   8   3   1   37.97    6.27
   8   3   1   31.68    5.53
   8   3   1   30.05    3.85
  -4   8   0    2.27    1.21
  -4   8   0    0.90    1.56
   4  -8   0    0.80    1.26
  -4   8   0    1.49    0.85
   4  -8   0    1.74    1.01
   7   6   1    7.88    5.08
  -7  -6  -1    2.69    3.61
   7   6   1    8.46    1.55
   7   6   1    7.74    1.83
  -7  -6  -1    8.48    2.69
  -7  -6  -1    5.41    2.47
   7   6   1   13.25    2.54
  -5  -7  -8   16.91    2.59
   5   7   8   17.53   11.27
   5   7   8   16.88    3.42
  -5  -7  -8   14.98    3.49
  -5  -7  -8   15.83    3.51
   5   7   8   18.65    4.76
   1   3  12   22.48    8.05
  -1  -3 -12   39.22   13.88
   1   3  12   10.47    5.83
   1   3  12   12.92    4.57
   4   6  10   70.93   17.44
   4   6  10   93.91   16.30
   4   6  10  132.94   12.61
  -4  -6 -10  108.88   12.34
  -4  -6 -10   85.91   10.58
  -4  -6 -10   97.17   10.14
   4   6  10  108.58   25.31
   8   1  -1    7.29    3.23
   8   1  -1    8.29    4.89
   8   1  -1    8.28    4.44
   8   1  -1    6.65    1.22
   8   1  -1    7.33    1.78
   0   8  -5   81.53    8.24
   0   8  -5   76.08    8.38
   0  -8   5   93.41    9.61
   7   5   6   27.72    3.50
   7   5   6   25.78    3.44
   7   5   6   22.10   12.73
   7   5   6   24.92    4.65
   7   5   6   29.02    4.81
  -7  -5  -6   31.40    4.42
   7   5   6   41.13    7.15
  -7  -5  -6   27.63    3.48
  -6  -3   6   38.26    4.39
   6   3  -6   52.01    7.05
  -6  -3   6   38.15    7.59
   6   3  -6   37.58    4.60
   4  -8  -3   62.94   10.26
  -4   8   3   97.75   10.29
   4  -8  -3   85.52   10.51
  -6  -1  -9   32.33   14.68
   6   1   9   21.73    2.85
  -6  -1  -9   31.13    3.89
  -6  -1  -9   22.32    3.39
   8   0   3   22.94    6.70
   8   0   3   25.01    2.96
  -8   0  -3   60.34   18.97
   8   0   3   28.55    3.07
   8   0   3   35.35    4.51
   8   0   3   29.22    8.12
   8   0   3   42.43    7.03
   8   0   3   27.48    2.75
   7   4  -3   18.91    2.69
   7   4  -3   28.66    4.94
  -7  -4   3   21.62    5.20
   7   4  -3   21.20    3.04
  -7  -4   3   20.39    2.92
   7   4  -3   17.72    7.74
  -5   6  -4  103.07   16.45
  -5   6  -4  150.50   15.15
   5  -6   4  135.32   13.78
   1   6  11    8.21    5.47
  -1  -6 -11   11.39    3.96
  -1  -6 -11   12.91    2.95
   1   6  11   14.21    2.94
   7   6   4   22.46    6.16
  -7  -6  -4    7.56    4.73
  -7  -6  -4    6.48    3.40
   7   6   4   10.32    2.40
   7   6   4   26.34    3.61
   7   6   4   12.91    2.17
   7   6   4   12.70    3.02
   7   6   4   17.68    2.56
   7   6   4   17.52   10.09
   2  -7   6    1.30    1.34
  -2   7  -6    1.02    0.84
  -2   7  -6    1.17    1.33
   7   0  -5   23.30    6.78
  -7   0   5    9.66    1.15
   7   0  -5   23.31    8.31
  -7   0   5    9.29    1.60
   3  -5   8    0.47    1.35
  -3   5  -8    0.50    0.46
   3  -5   8    0.32    1.32
   1  -2  11   33.42    4.81
   4   1  11   10.85    5.90
  -4  -1 -11   47.40    8.19
  -4  -1 -11   57.95    6.10
  -4  -1 -11   47.29   15.67
   4   1  11   78.23   11.91
  -5  -2   8   60.72    6.34
  -5  -2   8   40.28    8.72
   5   2  -8   51.28    5.56
   5   2  -8   30.37    5.85
   8   3   3   60.96    6.19
   8   3   3   60.60    7.54
   8   3   3   51.36    7.20
   8   3   3   60.87    8.24
   0  -2  11  129.23   13.54
   0   8   9    6.50    3.37
   0   8   9    3.55    6.25
   0  -8  -9    5.40    2.46
   0  -8  -9    5.64    3.02
  -5  -8   1    5.37    3.02
  -5  -8   1    3.35    1.63
   5   8  -1    3.79    1.60
   5   8  -1    4.56    1.38
   7  -3   4   17.63    2.37
  -7   3  -4   16.60    4.41
  -3   4  -9    1.38    0.62
  -3   4  -9   -6.88    5.79
   3  -4   9    3.89    1.76
   4   6  -6  168.22   16.17
   4   6  -6  153.50   15.69
  -4  -6   6  110.68   17.83
  -4  -6   6  105.50   15.79
  -6  -7  -6   11.45    2.48
  -6  -7  -6    8.70    1.87
  -6  -7  -6    4.07    3.56
   6   7   6    7.33    1.80
   6   7   6    8.78    9.43
  -6  -7  -6    7.23    3.52
   6   7   6   11.08    3.01
   6   7   6   10.66    3.79
   6   7   6    8.68    2.68
   5  -7  -3   37.43    5.85
  -5   7   3   55.19    7.15
  -5   7   3   56.79    6.19
   5  -7  -3   46.36    6.06
   5  -7  -3   34.49    3.51
   8   0  -1    5.29    5.52
   8   0  -1   11.24    4.17
   8   0  -1   13.66    3.95
   8   0  -1   12.40    2.26
   8   0  -1   16.16    1.88
   0   2  12   23.96    5.37
   0   2  12    5.97    5.06
   0  -2 -12   11.21    7.46
   0  -2 -12   29.60   11.22
   0   2  12   12.24    5.25
   1   8  -5   36.08    4.26
  -1  -8   5   36.70    5.08
  -1  -8   5   40.35    4.72
  -3   8  -3  148.60   14.78
  -3   8  -3  157.65   14.88
   3  -8   3  172.72   16.39
   3  -8   3  151.49   15.12
   1   1  12   62.48    9.31
  -1  -1 -12   31.85   12.28
  -1  -1 -12   42.86   11.31
  -1 -10  -4    3.80    1.89
   1  10   4    6.37    2.21
   1  10   4    6.18    1.55
   1  10   4    4.72    1.99
  -8   1  -1   28.81   12.08
   8  -1   1   19.26    3.95
   8  -1   1   17.09    2.81
   8  -1   1   22.47    4.68
   5  -5  -7   24.38    5.63
  -5   5   7   12.19    2.17
   5  -5  -7   23.30   12.09
  -5   5   7   15.87    3.02
   5  -5  -7   10.53    3.69
  -3  -8   4   18.44    3.06
  -3  -8   4   13.08    2.88
  -3  -8   4   14.05    5.34
   3   8  -4   13.24    2.30
   3   8  -4   11.80    2.29
  -6  -6   3  215.98   18.41
  -6  -6   3  182.02   21.09
   6   6  -3  285.44   21.15
   6   6  -3  175.22   19.75
   6   7  -1  164.16   17.71
  -6  -7   1  151.12   16.38
  -6  -7   1  170.75   18.52
   6   7  -1  189.83   17.52
  -4  -9   0   23.22    4.81
   4   9   0   20.99    3.25
   4   9   0   26.10    3.44
  -4  -9   0   27.25    3.40
   4   9   0   22.78    3.61
  -4  -9   0   19.76    3.87
   5  -7   1    6.94    1.34
  -5   7  -1   -0.05    0.23
  -5   7  -1    4.98    2.86
   5  -7   1    7.32    1.96
  -5   7  -1    5.61    2.59
   0  10   2   49.29    5.55
   0  10   2   33.78    5.19
   0 -10  -2   35.27    5.85
   0 -10  -2   47.16    5.32
   7   3  -4    9.31    1.78
  -7  -3   4   10.26    3.73
  -7  -3   4   10.42    1.88
   7   3  -4    6.17    6.04
   7   3  -4   10.84    6.56
   7   3  -4   14.63    3.81
   0  10   3    3.64    1.78
   0 -10  -3    1.70    1.72
   0  10   3    1.72    1.49
   0  10   3    3.31    1.36
  -2 -10  -3  229.67   18.33
   2  10   3  159.50   18.35
  -2 -10  -3  193.48   18.35
  -2 -10  -3  130.32   19.17
  -2 -10  -3  143.66   18.75
   2  10   3  163.50   18.11
   3  -6  -9    4.21    3.01
   3  -6  -9    9.47    4.25
  -3   6   9    8.32    3.56
   3  -6  -9   16.95    4.58
   2  -7  -9   13.72    4.32
   2  -7  -9   20.16    4.10
  -2   7   9   13.44    4.25
  -2   7   9    9.99    6.79
   8   2   4   80.45   10.02
   8   2   4   92.69   11.68
   8   2   4   80.66    9.03
   8   2   4  112.64   13.63
   8   2   4   92.18    9.75
  -2  -2 -12    7.07    3.75
   2   2  12   12.05    6.32
  -2  -2 -12    9.11   10.03
  -2  -6 -11   28.49    5.24
   2   6  11   16.59    2.94
  -2  -6 -11   24.65    3.43
   2   6  11   10.07    8.46
  -2  -6 -11   25.03    1.71
   7   4   7   24.75    5.42
  -7  -4  -7   26.54    3.22
  -7  -4  -7   26.63    4.17
   7   4   7   22.76    3.02
   7   4   7   21.88    4.58
   7   4   7   17.65    2.84
  -4  -4 -11   47.45    5.88
  -4  -4 -11   52.57    7.97
  -4  -4 -11   52.44    5.47
   4   4  11   28.02    8.10
   1  10   1   59.33    7.21
  -1 -10  -1   72.04    7.91
   1  10   1   62.04    7.25
   3   9   7   67.50    8.27
  -3  -9  -7   68.22    7.75
  -3  -9  -7   58.66    6.26
   3   9   7   40.82    7.08
   7  -1  -5   13.76    7.05
  -7   1   5   29.67    5.96
   7  -1  -5   18.13    5.78
   8  -1   0  101.15   10.76
   8  -1   0  100.04   11.41
   8  -1   0   80.46    9.22
   8   1   4    2.89    1.70
   8   1   4    3.56    3.10
   8   1   4    0.92    8.46
   8   1   4    4.34    2.84
   8   1   4    2.27    1.11
  -4  -8  -8   19.00    3.06
  -4  -8  -8   21.88    3.94
   4   8   8   13.21    3.87
   4   8   8   15.32   10.36
   4   8   8   19.25    4.71
  -6  -1   7    8.59    1.56
  -6  -1   7   10.69    4.24
   6   1  -7    1.86    2.27
   6   1  -7    3.85    1.09
   6   1  -7    4.68    5.16
   6  -2  -7   29.14    7.46
  -6   2   7   34.77    4.08
  -6   2   7   33.50    5.55
  -6   2   7   40.17    6.95
  -2 -10  -2   84.62    8.49
  -2 -10  -2   56.98    9.04
  -2 -10  -2   63.51    9.83
   2  10   2   87.16    8.65
   2  10   2   72.99    8.30
  -2 -10  -2   85.73    8.36
   2  10   2   61.45    8.28
   7   0   7  227.86   25.25
  -7   0  -7  382.66   37.38
   7   0   7  174.51   26.24
  -7   0  -7  398.77   39.97
   3  -1  11   89.40   10.33
  -7  -1   5    9.39    1.07
  -7  -1   5    0.65    1.22
   7   1  -5   20.39    6.38
   7   1  -5    9.78    2.24
  -5  -5   6    0.58    1.05
  -5  -5   6    2.26    2.40
  -5  -5   6   -0.48    3.44
   5   5  -6    1.11    1.26
   5   5  -6    0.85    1.28
   5   5  -6    1.39    1.55
   2   3  12  137.06   21.27
  -2  -3 -12  121.67   16.77
  -2  -3 -12  193.87   30.23
   1   9  -3   51.17    5.94
   1   9  -3   54.10    5.85
  -1  -9   3   68.35    7.16
  -1  -9   3   59.64    7.75
   1   9  -3   49.05    5.99
   0  -3 -12   26.42   10.33
   0  -3 -12   23.80    2.99
   0  -3 -12   35.87   12.39
   0   3  12   12.32    4.66
   0   3  12   12.96    6.71
   0   3  12   25.31    6.31
   8   2  -1  265.97   25.13
   8   2  -1  302.94   31.86
   8   2  -1  335.91   31.39
   8   2  -1  238.20   25.78
   8   2  -1  265.38   25.49
   5   0  10   24.48    2.72
  -5   0 -10   26.38    4.86
   5   0  10   30.52    6.25
  -4  -8   3   67.56   11.66
  -4  -8   3   97.38    9.95
  -4  -8   3   76.13    9.65
   4   8  -3   78.77    8.55
   0   9  -3   90.68    9.89
   0   9  -3   99.77    9.93
   0   9  -3   97.36    9.62
   0   9  -3   85.52    9.73
  -2   4  11   89.40    9.92
   2  -4 -11   72.66   17.85
  -2   4  11   61.43   10.16
  -2   4  11   92.95   11.47
  -2   4  11   58.40   12.32
   0   5  -9  110.47   15.63
   0   5  -9  138.76   16.77
   0  -5   9  139.66   16.19
   0  -5   9  219.91   17.41
   6   4   9    3.61    2.40
  -6  -4  -9    2.45    1.06
   6   4   9    1.36    4.12
  -6  -4  -9    3.48    2.04
   3  -7  -8    0.90    1.87
   3  -7  -8   -0.93    2.75
  -3   7   8    0.82    2.29
   3  -7  -8    2.89    2.44
   3  -7  -8    3.06    2.92
  -3   7   8    1.10    4.04
  -4   7  -4    0.85    2.93
  -4   7  -4    0.14    1.47
  -4   7  -4    1.06    0.47
  -4   7  -4    0.47    2.54
   4  -7   4    1.16    1.23
   0   1  12   28.62    7.29
   0  -1 -12   29.96   10.86
   0  -1 -12   55.43   13.67
  -7   4   2   62.97   13.37
   7  -4  -2   42.78    4.08
   7  -4  -2   52.50   15.03
   7  -4  -2   45.12    7.33
   7  -4  -2   22.95    4.71
   8   3   0   55.19    9.98
   8   3   0   58.22   15.05
   8   3   0   41.25    4.91
   8   3   0   53.61    7.77
   8   3   0   41.22    5.41
   8  -1   2   97.67    8.93
   8  -1   2   55.93    6.41
   8  -1   2   78.13   10.43
  -8   1  -2   94.69   22.01
   8  -1   2   69.55    7.54
   8  -1   2   82.64    9.87
   6  -6  -1   31.64    4.81
   6  -6  -1   41.30    6.26
  -6   6   1   24.21    6.62
  -2  -3  10    5.58    4.41
   2   3 -10    2.75    3.00
  -5   2  -9    9.77    2.70
   5  -2   9   17.41    3.02
   0  -6   8   72.75    7.97
   0   6  -8   76.23    7.39
   0  -6   8   76.56    8.55
   0   6  -8   82.27    9.15
  -4  -4   8   10.07    4.33
   4   4  -8   40.05    4.42
   4   4  -8   25.62    4.09
  -4  -4   8   31.23    3.64
   3   7  10   12.43   10.00
  -3  -7 -10   18.77    2.60
  -3  -7 -10   18.11    4.26
  -3  -7 -10   18.90    3.13
   3   7  10   19.57    6.41
   3   7  10   15.82    8.33
   7  -4   2    4.19    1.32
   7  -4   2    5.78    2.87
   6  -6   0    1.91    1.32
  -6   6   0   -2.08    4.93
   6  -6   0    1.09    1.13
   6  -6   0    3.74    2.32
   2  10   4   80.21    7.97
  -2 -10  -4   90.30    4.52
   2  10   4   62.72    8.75
  -2 -10  -4   82.18    4.98
  -7  -5   2   13.74    2.71
  -7  -5   2   22.52    4.70
   7   5  -2   19.06    2.82
   7   5  -2   16.32    2.95
   7   5  -2   16.85    7.35
   7   5  -2   17.32    2.55
   5  -5   6    7.96    1.80
  -5   5  -6    9.98    2.53
  -5   5  -6    5.36    1.29
   2  -6 -10    1.56    3.22
  -2   6  10    5.76    2.45
  -2   6  10    4.53    4.09
   2  -6 -10    2.33    2.84
  -3  -5   8   -0.50    2.44
  -3  -5   8    0.76    3.12
   3   5  -8    1.78    1.34
  -3  -5   8    1.25    1.35
  -3  -6   7   50.23    7.91
   3   6  -7   86.00    9.29
  -3  -6   7   32.79    9.57
   0  -6 -11   46.99    8.51
   0   6  11   36.05    9.54
   0  -6 -11   47.58    7.04
   0   6  11   52.52    6.66
   0  10   1   31.91    4.63
   0 -10  -1   34.78    4.20
   0 -10  -1   27.16    4.78
   0  10   1   37.63    4.73
   0  10   4   -0.90    1.68
   0 -10  -4   -0.33    1.80
   0  10   4    0.24    1.53
   0  10   4   -0.08    1.01
   3   2 -10   18.02    2.56
  -3  -2  10   13.05    2.62
   3   2 -10    3.86    3.62
  -3  -2  10    7.97    4.44
   1  -8   5   16.03    2.95
  -1   8  -5   16.04    2.40
  -1   8  -5   15.21    2.35
   6  -4  -6   -1.03    8.46
   6  -4  -6    1.91    2.38
  -6   4   6    2.50    1.29
   6  -4  -6    0.73    2.95
  -6   4   6    1.81    0.93
  -1   5  -9    3.58    3.06
  -1   5  -9    3.80    1.15
   1  -5   9    6.38    2.08
   1  -5   9    4.02    1.17
  -4   8  -1   10.92    1.60
  -4   8  -1   11.79    2.05
  -4   8  -1   13.23    3.12
   4  -8   1   10.67    2.52
  -4   8  -1    7.23    5.53
   7  -3  -4   59.36    9.89
   7   6   0   54.50    6.78
   7   6   0   61.05    7.36
  -7  -6   0   37.05    8.90
  -7  -6   0   47.15    6.69
   7   6   0   61.03    6.49
  -7  -6   0   58.79    7.58
   7   6   0   54.04   12.21
   2   1  12    2.91    4.10
  -2  -1 -12    0.77    6.47
  -2  -1 -12   -0.50    2.82
  -1  -4 -12   21.87    2.21
   1   4  12   18.21    4.85
   1   4  12   17.64    7.04
   1   4  12   16.02    9.25
   5   6  -5   34.82    4.63
  -5  -6   5   22.27    6.08
  -5  -6   5   29.36    6.68
   5   6  -5   41.17    5.07
  -5  -6   5   39.53    4.54
   5  -6  -6   22.55    6.96
  -5   6   6   33.25    3.22
  -5   6   6    1.51    1.54
   5  -6  -6   33.94    6.61
   8   3   4   94.13   11.81
   8   3   4  106.05   10.63
   8   3   4  109.25   11.28
   8   3   4   88.44   11.42
  -4  -9  -6  116.41   11.36
  -4  -9  -6  124.97   12.07
  -4  -9  -6  105.70   11.02
   4   9   6   81.72   11.81
   4   9   6  150.24   13.69
   5   4  -7    2.14    1.72
   5   4  -7    1.71    1.39
  -5  -4   7    1.53    2.55
  -5  -4   7    2.02    1.21
  -3  -9   2    5.39    2.23
  -3  -9   2    5.19    3.83
  -3  -9   2    6.07    2.00
   3   9  -2    4.35    1.57
   3   9  -2    5.77    1.58
  -4   6  -6   25.31    6.29
   4  -6   6   35.94    4.65
  -4   6  -6   32.09    5.35
  -3   6  -7   34.75    3.83
   3  -6   7   49.05    5.97
  -6   6   2   54.23   10.96
   6  -6  -2   61.53    8.42
  -6   6   2   85.58    8.24
   6  -6  -2   78.79    9.51
   3   8   9   54.38   15.24
   3   8   9   57.41    8.65
  -3  -8  -9   58.93    6.40
  -3  -8  -9   53.68    5.66
   3   8   9   31.96    6.84
  -3  -8  -9   60.19    7.81
   4  -8  -4   60.21   11.47
   4  -8  -4  141.76   12.26
  -4   8   4  107.76   11.36
   4  -8  -4  111.75   10.20
   4  -8  -4   83.36   11.21
  -5   4   8   43.45    6.90
   5  -4  -8    6.12    7.87
  -5   4   8   35.06    5.76
  -5   4   8   29.51    3.89
  -4   2 -10    1.28    2.20
   4  -2  10    0.82    1.81
   2  10   1   22.43    3.42
   2  10   1   22.36    3.64
   2  10   1   23.98    3.63
  -2 -10  -1   15.19    4.34
  -2 -10  -1   17.83    3.69
  -2 -10  -1   24.08    3.20
   8  -1  -1   99.09   10.57
   8  -1  -1  113.71   13.22
   8  -1  -1  117.25   11.50
  -6   5  -4    0.15    1.55
   6  -5   4    0.32    0.90
  -2  -1  11  160.06   14.38
  -2  -1  11   75.72   16.69
   2   1 -11  141.75   13.94
   2  -2  11   51.31    6.40
  -7  -6  -5   61.96   10.42
   7   6   5   99.48   11.05
   7   6   5  146.80   16.06
   7   6   5  139.28   12.45
   7   6   5  120.57   24.54
   7   6   5   90.62   12.04
   7   6   5  121.64   11.22
   7   6   5   97.96   10.94
  -7  -6  -5   64.03   11.27
   3  -9  -2   38.04    6.34
  -3   9   2   31.76   10.78
  -3   9   2   39.24    6.28
   3  -9  -2   57.72    6.02
  -3   9   2   50.00    5.56
   1  -9  -7   30.43    4.20
   1  -9  -7    9.17    4.16
   1  -9  -7   11.50    2.32
  -1   9   7   28.34    4.84
  -1   9   7    5.63    6.68
   1  -9  -7   32.54    4.49
  -1   6  -8   80.78   10.21
  -1   6  -8   87.97    8.31
  -1   6  -8   64.79    8.89
   1  -6   8   86.47    8.79
   3  -3  10  194.35   19.83
   3  -3  10  298.53   21.28
  -3   3 -10  108.23   23.48
  -3   3 -10  236.63   20.94
   1  10   5   39.40    5.11
  -1 -10  -5   54.83    5.22
  -1 -10  -5   25.91    3.34
   1  10   5   31.79    5.84
  -1  -6   8   19.94    3.32
   1   6  -8   17.18    2.96
  -1  -6   8   18.72    2.98
   1   6  -8   20.13    2.86
   5   5  10   22.90    8.55
   5   5  10   23.95    7.38
  -5  -5 -10   30.96    5.48
   8   0   4   64.16    6.13
  -8   0  -4  105.40   25.21
   8   0   4   45.35    7.13
   8   0   4   70.11    8.16
   8   0   4   68.93   12.20
   8   0   4   41.20    9.48
   8   0   4   92.61   10.84
   1   9   8    4.29    2.64
  -1  -9  -8    6.44    2.73
  -1  -9  -8    2.56    2.91
  -1  -9  -8    4.06    2.18
   1   5  -9    7.20    2.65
  -1  -5   9    8.59    2.31
   1   5  -9   12.15    3.32
   1   5  -9   12.83    2.19
  -1  -5   9   14.24    2.70
  -4   1  10   93.18    8.44
  -4   1  10   77.89   11.62
   4  -1 -10  119.51   16.15
   6   0   9    2.69    5.55
   6   0   9    0.65    1.37
  -6   0  -9    1.79    1.67
  -6   0  -9    2.01    9.16
  -6   0  -9    2.83    1.85
   6   0   9   -0.35    3.49
   6  -6   1    5.94    1.63
   6  -6   1    7.38    1.46
  -6   6  -1    1.68    4.91
   3  -9  -1    3.79    1.89
  -3   9   1    5.89    2.15
  -3   9   1    7.32    1.76
  -3   9   1    6.73    6.53
   3  -9  -1    8.84    1.79
   4  -6  -8   27.20    6.20
   4  -6  -8   19.05    5.03
  -4   6   8   29.60    5.19
   4   7  -5   76.15    8.41
  -4  -7   5   62.60    8.72
  -4  -7   5   53.92   10.60
  -4  -7   5   72.36    7.79
  -2  -4 -12  181.68   21.69
   8   4   2   -0.85    7.37
   8   4   2   -0.64    3.58
   8   4   2    0.56    0.56
   8   4   2    0.04    0.87
   8   4   2    0.91    1.24
   8   4   2   -0.52    1.81
   8   4   2   -0.35    2.14
  -6   5   5  126.82   12.21
   6  -5  -5  100.68   15.55
   6  -5  -5  161.66   28.31
   6  -5  -5  179.62   17.31
  -6   5   5  124.83   10.14
   8   1  -2    9.12    1.49
   8   1  -2    9.64    2.00
   8   1  -2    9.24    4.74
   5  -7  -4   68.13    9.10
  -5   7   4   70.41    7.49
   5  -7  -4   85.69    7.59
  -5   7   4   66.49    8.15
  -2   8   8  134.66   15.57
   2  -8  -8   67.03    9.32
   2  -8  -8   49.67   10.97
  -2  -8   5    1.52    1.45
   2   8  -5    0.60    1.11
   2   8  -5    0.90    1.29
  -2  -8   5    0.23    1.26
  -6  -6  -8   34.82    4.17
   6   6   8   25.08    5.72
  -6  -6  -8   41.91    5.49
   6   6   8   36.73    6.90
  -4   0 -11   87.48   11.84
  -4   0 -11  115.71   22.83
  -4   0 -11   87.08    8.97
   4   0  11  171.73   19.12
   4   0  11  121.14   16.00
  -1   0 -12   40.35   12.56
   1   0  12   83.44   10.04
  -1   0 -12   28.57    9.98
   8  -1   3   20.72    2.29
   8  -1   3   31.65    6.22
  -8   1  -3   25.04   14.26
   8  -1   3   30.55    5.87
   8  -1   3   15.40    2.73
   8  -1   3   25.83    3.90
   8  -1   3   19.69    2.14
   8  -1   3   19.50    2.38
   0  -4  10  252.60   19.11
   0  -4  10  140.90   18.45
   0   4 -10  104.33   13.74
  -4   2  10  150.50   17.90
  -4   2  10  150.42   14.17
   4  -2 -10  142.25   19.81
   8   0  -2    3.34    1.24
   8   0  -2    5.09    3.00
   8   0  -2    3.01    1.23
   8   0  -2    1.03    2.39
   1  10   0   24.36    3.64
  -1 -10   0   30.09    3.91
   1  10   0   23.39    3.58
  -6   3  -7    0.31    0.94
   6  -3   7    1.17    1.08
  -6   3  -7    1.36    1.60
   6  -3   7    1.18    1.14
   3  -9  -3   80.30   13.32
   3  -9  -3  171.16   13.56
  -3   9   3   96.52   13.99
  -3   9   3  145.12   13.28
  -7   2   5   34.08    6.58
   7  -2  -5   20.24    5.54
   2   9  -3   52.55    5.87
   2   9  -3   44.73    6.00
   2   9  -3   56.42    6.03
  -2  -9   3   54.99    7.15
  -2  -9   3   56.88    6.55
  -1   7  10    1.12    5.85
   1  -7 -10   -0.22    2.27
   1  -7 -10    0.24    1.77
  -1   7  10    0.80    2.75
   1  -7 -10    0.40    3.75
  -2  -9  -8   45.78    6.41
  -2  -9  -8   38.68    5.30
   2   9   8   21.60    4.98
   5   8   7    4.42    2.65
  -5  -8  -7    4.57    1.66
  -5  -8  -7    5.58    2.07
   5   8   7    5.06    7.51
  -5  -8  -7    1.20    3.01
   5   8   7    3.87    2.27
  -2   9  -2  109.50   10.65
   2  -9   2   88.24    9.62
   2  -9   2  123.22   11.69
  -2   9  -2  109.47   10.21
  -2   9  -2   87.27   10.20
   0   4  12    0.19    1.89
   0   4  12   -4.47    7.10
   0   4  12    0.43    3.64
   0  -4 -12   -0.55    2.91
  -3   5  10    1.14    3.31
  -3   5  10   -0.31    2.33
  -3   5  10    1.89    2.30
   7   2  -5    4.93    3.79
   7   2  -5    2.75    4.34
   7   2  -5    4.02    1.47
  -7  -2   5    2.44    0.87
   5  -7   2   18.62    3.31
  -5   7  -2   13.84    4.35
  -2 -10  -5  116.99   11.38
  -2 -10  -5  110.03   10.54
   2  10   5   75.02    9.42
   2  10   5   75.54    8.07
   8   4   3    0.93    3.20
   8   4   3   -0.21    2.00
   8   4   3    0.03    0.81
   8   4   3    0.09    1.38
   8   4   3    0.40    1.09
   8   4   3   -0.92    9.18
  -1   9  -3    7.57    1.62
   1  -9   3    6.33    1.44
   1  -9   3    9.68    2.30
  -1   9  -3    7.07    1.77
  -1   9  -3    7.61    1.83
   1  -4  10    1.11    0.78
  -1   4 -10   -1.97    4.68
  -1   4 -10    0.91    1.06
   1  -4  10    1.06    1.83
  -8  -4  -1   56.39    7.86
   8   4   1   86.30    9.54
   8   4   1   78.09    8.81
   8   4   1   84.22    8.32
   8   4   1  104.76   14.83
   8   4   1  109.66   21.59
   8   4   1  113.60   11.25
  -2   9   6    7.80    7.82
  -2   9   6   15.62    3.75
   2  -9  -6   17.10    3.24
   2  -9  -6   13.75    2.75
   2  -9  -6    8.06    2.24
   2  -9  -6    5.42    3.45
  -1   2  12   25.31    8.53
   1  -2 -12   55.58   14.62
  -1   2  12   31.17    7.49
   1  -2 -12   66.64    6.80
   0   7  -7   54.87    6.45
   0  -7   7   66.55    7.16
   0   7  -7   63.12    6.54
   3   4  -9   31.13    4.23
   3   4  -9   17.64    3.71
  -3  -4   9   10.46    4.06
  -3  -4   9   34.06    3.94
  -6  -8  -3    0.97    1.25
  -6  -8  -3   -2.58    2.40
  -6  -8  -3    1.37    1.21
  -6  -8  -3    1.90    2.27
   6   8   3    0.59    1.29
   6   8   3    1.01    0.98
   8   3  -1  119.98   13.04
   8   3  -1   89.98    9.27
   8   3  -1  110.67   15.99
   8   3  -1   91.99    9.60
  -8  -3   1  103.13   12.98
   8   3  -1   85.33    9.96
   8   3  -1  128.81   21.21
  -3  -7   6  114.74   10.24
   3   7  -6  108.12   11.36
  -3  -7   6   88.68   10.40
   3   6  11   12.52    8.32
  -3  -6 -11   44.35    5.58
  -3  -6 -11   41.74    4.89
   3   6  11   18.26    3.68
   0 -10   0  137.49   16.08
   0  10   0  142.91   15.34
   0  10   0  135.00   15.46
   0  10   0  174.07   15.59
   0 -10   0  159.14   15.27
   7  -2   6    8.29    1.62
   7  -2   6    8.75    1.59
  -7   2  -6    8.59   10.04
  -7   2  -6    5.23    2.70
  -7   2  -6    6.16    1.34
  -5   1   9   11.41    5.03
  -5   1   9   24.11    3.26
  -5   1   9   25.76    5.96
   5  -1  -9   25.34    7.70
   8   2   5    4.76    2.40
   8   2   5    3.12    0.87
   8   2   5    4.07    1.88
   8   2   5    8.68    3.53
   8   2   5    3.89    2.00
   4   0 -10    8.01    3.20
  -4   0  10    6.64    3.63
  -4   0  10    7.95    2.15
   4   0 -10    5.73    3.96
   7  -4  -3   32.28    6.47
   7  -4  -3   21.04   11.83
  -7   4   3   37.07    8.63
   1 -10  -2   51.44    7.06
  -1  10   2   67.42    7.75
  -1  10   2   49.27    7.31
  -1  10   2   76.07    7.65
   0 -10  -5    4.26    1.66
   0 -10  -5    4.62    1.82
   0  10   5    1.77    1.87
   0  10   5    2.03    1.33
   0  10   5    4.52    2.14
   0 -10  -5    2.37    0.85
   0 -10  -5    1.36    2.16
  -6  -2   7   34.39    4.04
   6   2  -7   55.49    7.21
   6   2  -7   26.50    4.29
  -6  -8  -2   28.27    5.62
   6   8   2   26.85    3.80
  -6  -8  -2   21.72    4.75
   6   8   2   31.89    4.03
  -6  -8  -2   28.10    4.39
  -6   2  -8   37.25    5.29
   6  -2   8   54.80    8.82
  -6   2  -8   27.46    4.22
   6  -2   8   42.72    5.15
   6  -3  -7  103.73   14.71
  -6   3   7  114.49   12.00
  -6   3   7  128.76   13.28
  -1  10   3   54.56    8.40
  -1  10   3   70.90    8.46
   1 -10  -3   57.45    7.98
   3  10   3   96.36   10.92
  -3 -10  -3   71.88   11.54
   3  10   3   87.57   11.22
  -3 -10  -3  116.16   10.68
  -3 -10  -3  101.70   10.63
  -3 -10  -3   94.08   10.85
   6  -6  -3   55.20    7.91
   6  -6  -3   54.57    5.27
  -6   6   3   36.75    8.33
  -6   6   3   54.22    5.54
   4   9  -1   44.47    5.15
  -4  -9   1   35.03    6.58
   4   9  -1   39.47    5.34
  -4  -9   1   34.01    5.05
   4  -5  -9   94.67   11.57
  -4   5   9   66.98   10.58
  -4   5   9   66.37    8.87
   4  -5  -9   91.42   20.19
   1  -8  -9   43.81   11.84
   1  -8  -9  170.50   13.95
  -1   8   9  156.37   18.25
  -1   8   9  142.69   23.43
  -4  -5 -11  121.64   12.85
   4   5  11   48.72   15.31
   4   5  11   99.70   15.37
  -4  -5 -11  131.23   15.20
  -3   9   0   -0.10    1.13
  -3   9   0    0.34    1.42
   3  -9   0    0.63    1.46
  -3   9   0    0.51    3.91
   7  -4   3    7.19    1.50
   7  -4   3    6.75    0.90
  -7   4  -3    5.76    2.97
   3   2  12   -1.67    4.32
  -3  -2 -12    3.21    2.93
  -3  -2 -12    5.51    7.96
   3   2  12    0.39    6.25
  -1   1  12   30.53    8.26
   1  -1 -12   64.62    6.44
  -1   1  12   18.19    8.03
   1  -1 -12   45.97   13.08
   0   9   8  110.86   13.59
   0  -9  -8  125.76   11.53
   0  -9  -8   48.59   10.95
   7   2   8   62.97    6.90
  -7  -2  -8  118.31   27.86
  -7  -2  -8   77.47    9.09
   7   2   8   51.96   10.24
   8   1   5   70.69   15.40
   8   1   5   75.94    7.67
   8   1   5   63.06   10.59
   8   1   5   81.06    9.95
   8   1   5   75.29    9.61
  -8  -1  -5  159.80   32.89
  -6   4  -6   49.74    5.32
  -6   4  -6   58.18    7.52
   6  -4   6   62.52    6.90
   8   2  -2  230.26   23.63
  -8  -2   2  336.88   35.26
   8   2  -2  242.48   22.88
   8   2  -2  250.33   29.52
   3   3  12   10.92    6.34
   3   3  12   23.78   10.42
  -3  -3 -12   35.87    7.04
  -3  -3 -12   44.17   16.68
  -1   3  12    0.43    2.07
  -1   3  12   -1.20    3.42
   1  -3 -12    0.13    2.24
  -1   3  12    2.61    2.71
   1  -3 -12    2.99    5.75
  -1   3  12    0.42    3.60
  -6  -8  -4    1.96    2.64
  -6  -8  -4    6.76    3.09
   6   8   4    6.45    1.70
   6   8   4    7.91    2.19
  -6  -8  -4    5.14    1.51
  -3 -10  -2   66.21    9.57
   3  10   2   82.59    9.30
  -3 -10  -2   85.85    8.88
   3  10   2   99.46    9.70
   3  10   2   72.90    9.50
  -3 -10  -2   93.86    9.05
  -3 -10  -2   67.51    9.78
   1   7  -7   26.87    3.64
  -1  -7   7   23.91    3.72
  -1  -7   7   34.98    4.35
   1   7  -7   29.01    3.68
  -5   0   9   25.71    6.39
   5   0  -9   40.64    8.09
  -5   0   9   24.24    3.48
  -6  -7  -7   13.18    2.30
  -6  -7  -7   15.41    3.05
   6   7   7   18.51    4.00
   6   7   7    9.63    3.05
   6   7   7   10.80    2.37
  -6  -7  -7   10.91    4.17
  -6  -7  -7    5.84    4.25
   6   7   7   17.44    4.19
  -3   2  11    3.98    3.46
  -3   2  11    1.83    3.37
   3  -2 -11    3.54    3.68
  -3   2  11    6.83    2.20
   8  -2   1  116.29   11.97
   8  -2   1   91.09   10.27
  -8   2  -1  156.56   27.53
  -3   1  11    8.06    4.89
   3  -1 -11   34.45    5.69
  -3   1  11   15.42    4.79
   3  -1 -11   23.49    7.98
   5   9   3   88.78    8.87
  -5  -9  -3   69.68    8.44
  -5  -9  -3   70.83    7.97
   5   9   3   64.81    8.75
   5   9   3   74.03    8.31
  -5  -9  -3   77.78    7.67
   7   5   7   11.61    1.82
   7   5   7   19.07    4.88
  -7  -5  -7   12.30    2.02
   7   5   7    7.28    2.74
   7   5   7   11.92    3.45
   7   5   7   10.86   10.83
  -7  -5  -7   12.81    2.75
   7   5   7    8.34    1.89
  -6  -5  -9   33.86    4.26
  -6  -5  -9   43.90    5.96
   6   5   9   36.14    7.99
   6   5   9   19.14    5.65
   8  -2   0    5.35    2.52
  -8   2   0    8.86    8.17
   8  -2   0    4.06    1.25
  -5   2   9    2.90    2.99
  -5   2   9    2.08    1.49
   5  -2  -9   -1.60    5.09
  -5   2   9   -0.26    2.73
  -2 -10   0   22.49    4.11
   2  10   0   19.67    3.39
   2  10   0   25.95    3.60
  -2 -10   0   26.57    3.49
   2  10   0   21.42    3.33
   5   8  -2    7.48    1.91
  -5  -8   2    6.54    2.70
  -5  -8   2    7.85    3.38
   5   8  -2    5.73    1.82
  -5  -8   2    8.00    2.21
   5   8  -2    8.37    1.67
  -2   0 -12    0.91    4.15
   2   0  12    0.11    2.61
  -2   0 -12    2.98    6.62
   2   0  12    5.86    3.93
  -3 -10  -4   26.99    3.38
   3  10   4   25.64    4.04
   3  10   4   14.76    3.36
  -3 -10  -4   20.47    2.89
   7   3   8    3.17    3.97
   7   3   8    5.22    3.02
  -7  -3  -8    7.39    2.04
   7   3   8    5.96    1.47
   7   3   8    8.82    3.37
  -4   7   7    5.16    2.18
   4  -7  -7    9.65    3.06
   4  -7  -7    4.87    2.75
   4  -7  -7    1.10    2.98
   4  -7  -7    4.72    2.32
   1 -10  -1   20.57    4.22
  -1  10   1   32.46    4.08
  -1  10   1   28.07    4.18
  -1  10   1   21.87    3.72
   1 -10  -1   31.12    3.79
   8  -1  -2   27.19    5.59
   8  -1  -2   27.09    6.62
   8  -1  -2   19.73    2.90
   7  -1   7   27.78    7.04
  -7   1  -7   19.95    4.36
  -7   1  -7   32.38   14.18
   7  -1   7   15.41    3.49
  -7   1  -7   18.11    2.82
  -7   3  -5   28.36    5.66
   7  -3   5   26.08    3.20
   3  -8  -7   28.88    7.90
  -3   8   7   81.21    9.98
   3  -8  -7   50.07    7.03
  -1  -4  10  113.76   10.76
   1   4 -10   65.80    9.21
  -1  -4  10  142.14   11.37
  -6  -7   2  128.25   13.05
  -6  -7   2  142.52   15.77
   6   7  -2  203.17   20.37
   2  -5   9   48.73    5.51
   2  -5   9   46.95    5.19
   2  -5   9   34.68    4.15
  -2   5  -9   18.21    6.21
  -2   5  -9   32.79    3.60
   3  -9  -4   65.33   11.97
  -3   9   4  122.93   12.99
   3  -9  -4   89.88   11.48
   8   3   5   30.06    3.81
   8   3   5   37.11    5.19
   8   3   5   39.68    4.90
   8   3   5   35.90    5.35
   8   4   4   16.48    2.88
   8   4   4   13.71    3.16
   8   4   4   20.99   12.03
   8   4   4   23.85    6.38
   8   4   4   14.01    3.29
   8   4   4   21.86    2.97
  -4   3  10    1.27    3.68
  -4   3  10   -0.22    2.32
  -4   3  10    2.55    1.56
  -1   7  -7   18.27    3.94
   1  -7   7   12.44    1.91
   1  -7   7   11.31    2.56
  -1   7  -7   10.42    2.33
   4   3  -9   13.20    3.80
   4   3  -9   24.58    3.85
  -4  -3   9   22.61    6.58
  -4  -3   9   32.84    4.18
   5   9   2   -0.07    1.25
  -5  -9  -2    0.11    1.45
  -5  -9  -2    0.65    1.58
   5   9   2   -0.27    1.34
   5   9   2   -0.46    1.04
  -5  -9  -2    0.48    1.23
  -5  -9  -2    0.74    1.63
   7   6  -1   14.47    2.48
   7   6  -1   12.96    2.64
   7   6  -1   14.42    2.00
   7   6  -1   10.50    7.03
  -7  -6   1   10.44    2.60
  -7  -6   1   18.21    4.01
  -5  -7   4    3.05    2.79
  -5  -7   4    4.41    1.63
  -5  -7   4    2.36    2.98
   5   7  -4    4.78    1.59
   5   7  -4    3.50    1.59
   6  -6   2   22.92    2.73
   6  -6   2   31.35    4.14
  -6   6  -2   26.17    5.19
  -6   6  -2   12.65    6.31
  -4   8  -2   13.86    1.90
   4  -8   2   18.60    3.27
  -4   8  -2   18.45    4.10
   4  -8   2   12.00    1.82
  -4   8  -2   13.58    3.16
   8   4   0   91.47    9.83
   8   4   0  119.36   16.75
  -8  -4   0   55.17    8.41
  -8  -4   0  113.26   10.89
   8   4   0   84.76   10.26
   8   4   0  126.75   12.36
   5   9   4   38.82    5.08
  -5  -9  -4   37.87    5.40
  -5  -9  -4   40.30    4.79
   5   9   4   33.54    5.59
  -5  -9  -4   46.31    5.00
  -1  10   4   13.36    3.00
  -1  10   4   12.97    3.55
   1 -10  -4    8.35    3.20
   1 -10  -4   21.84    3.16
  -1  10   4   18.19    3.30
  -6  -5   5   77.78    7.35
  -6  -5   5   82.66   11.32
   6   5  -5   72.52    8.44
   6   5  -5  120.57   10.33
   5   3  -8   13.18    3.06
   5   3  -8    6.51    2.27
  -5  -3   8   11.44    2.16
   7   1   8   50.93   10.52
  -7  -1  -8  180.23   32.62
   7   1   8   38.60    8.59
  -7  -1  -8  106.70   11.84
  -6  -8  -1    3.69    2.01
  -6  -8  -1    5.77    2.32
  -6  -8  -1    4.14    3.11
   6   8   1    5.67    1.63
   5  -1  10    0.48    1.04
   5  -1  10    4.71    2.64
  -5   1 -10    2.26    1.97
  -1   6  11   39.20    9.15
   1  -6 -11   36.45    7.77
  -1   6  11   46.02    6.42
   1  -6 -11   43.54    7.18
   4  -8  -5   16.99    2.63
   4  -8  -5   10.29    2.97
   4  -8  -5    6.89    3.45
  -4   8   5   15.95    2.97
  -2   5  11   94.84   16.17
  -2   5  11  135.79   14.27
  -2   5  11   95.20   14.56
   1   5  12    0.91    3.72
  -1  -5 -12    1.76    2.73
   1   5  12    0.15    1.77
   8  -2   2    6.96    1.91
   8  -2   2    4.76    0.95
  -8   2  -2    7.74    9.22
   1  10   6   34.51    5.78
  -1 -10  -6   21.86    3.58
   1  10   6   11.25    3.52
  -1 -10  -6   21.94    3.81
   7   6   6  187.69   18.77
  -7  -6  -6   70.20   15.64
   7   6   6  120.35   13.77
   7   6   6  153.87   28.77
   7   6   6  115.80   15.04
   7   6   6  162.06   15.40
  -7  -6  -6   88.20   16.27
   7   6   6  145.78   13.72
  -7  -6  -6  153.47   14.29
  -7  -6  -6  146.51   13.26
   3   1  12  109.97   12.70
  -3  -1 -12   76.20   18.85
   3   1  12   75.35    9.97
  -3  -1 -12   61.22   10.13
  -5   6  -5   -1.14    5.04
   5  -6   5    2.31    1.31
  -5   6  -5    2.64    1.70
  -2   6  -8    4.85    3.29
  -2   6  -8   -0.61    2.52
   2  -6   8   10.14    2.39
   8  -2  -1   17.75    5.02
   8  -2  -1   16.05    3.99
   8  -2  -1   14.75    2.29
   3  -8   4   -0.08    1.36
  -3   8  -4    0.10    0.58
  -3   8  -4    1.63    1.14
  -7  -4   4    2.43    1.31
   7   4  -4    1.95    1.43
   7   4  -4    2.42    1.22
  -7  -4   4    1.32    2.52
   7   4  -4   -0.40    2.68
   7   4  -4   -0.50    4.68
  -6  -4   6  111.12   15.98
   6   4  -6  106.83   12.15
  -6  -4   6  122.70   12.28
   6   4  -6  200.83   15.06
   8  -1   4  104.12    9.98
  -8   1  -4  146.62   29.78
   8  -1   4  135.15   14.63
   8  -1   4  101.77   10.29
   8  -1   4  116.26   12.55
   8  -1   4  135.92   14.69
   3  10   1   62.28    6.69
   3  10   1   54.05    6.45
   3  10   1   47.01    6.57
  -3 -10  -1   40.07    6.73
  -3 -10  -1   57.04    6.41
  -3 -10  -1   52.55    7.87
  -3 -10  -1   56.24    6.17
  -2   8  -5    3.17    1.34
  -2   8  -5    4.36    1.29
   2  -8   5    3.32    1.60
  -2  -6   8    0.87    1.35
   2   6  -8    0.10    1.35
  -2  -6   8    0.29    1.30
   2   6  -8    0.17    1.10
   3  -3 -11   25.91   12.52
  -3   3  11   61.37    6.84
   3  -3 -11   40.36    8.52
  -3   3  11   53.17    8.90
   3   4  12   28.87    8.97
  -3  -4 -12   60.59    9.57
  -3  -4 -12   66.22    7.72
  -3  -9  -8   69.96    7.34
  -3  -9  -8   63.20    6.65
  -3  -9  -8   73.02    8.39
   3   9   8   55.18   14.94
   3   9   8   65.09    8.57
   3   9   8   39.62    7.50
   4   9   7   16.71    4.09
  -4  -9  -7   18.19    2.91
  -4  -9  -7   16.93    3.47
   4   9   7   10.90    3.26
   2  -4  10   41.96    4.57
  -2   4 -10   14.12    6.72
  -2   4 -10   31.37    3.51
   2  -4  10   25.89    3.28
   3  -7   6   24.66    3.71
  -3   7  -6   20.66    4.80
  -3   7  -6   17.92    3.29
  -3   0  11   12.46    2.63
   3   0 -11   11.80    6.39
  -3   0  11    7.59    4.16
   3   0 -11   15.30    3.05
   2   5  12   21.77    5.10
  -2  -5 -12    0.02    0.15
   6   8   5   10.05    3.18
   6   8   5    0.84    7.49
  -6  -8  -5    2.23    2.63
  -6  -8  -5    4.42    2.86
  -6  -8  -5    5.27    1.60
   6   8   5    4.91    1.57
   8   0   5   19.89    6.24
   8   0   5   41.28    7.04
   8   0   5   30.24    3.17
   8   0   5   26.82    8.21
  -8   0  -5   38.32   16.69
   8   0   5   33.93    5.65
   8   0   5   24.95    5.23
  -2 -10  -6   34.14    3.97
   2  10   6   19.67    4.23
   2  10   6   22.85    3.16
  -2 -10  -6   35.33    4.93
   5   7   9   57.62    9.52
  -5  -7  -9   48.49    6.76
   5   7   9   54.82    6.86
  -5  -7  -9   58.12    7.08
   5   7   9   49.16   16.97
   2   5  -9   46.21    5.48
   2   5  -9   41.63    6.11
  -2  -5   9   51.89    5.70
  -2  -5   9   30.39    5.88
  -1 -10   1  156.54   17.18
   1  10  -1  147.56   14.53
   1  10  -1  132.39   14.34
  -1 -10   1  197.77   17.52
   3  10   5   14.51    3.23
   3  10   5    9.81    1.63
  -3 -10  -5   15.68    2.43
   3  10   5    9.06    2.65
  -3 -10  -5    4.62    2.90
   1   0 -12   63.30   14.37
  -1   0  12  104.50    9.73
  -1   0  12   38.95   11.29
   7   5  -3    2.70    1.32
   7   5  -3    4.30    2.32
  -7  -5   3    2.28    2.30
   7   5  -3    2.49    1.28
  -7  -5   3    2.18    1.31
   5   9   1    7.73    2.19
   5   9   1    9.21    2.05
  -5  -9  -1    8.66    2.57
  -5  -9  -1    8.44    2.85
  -5  -9  -1    7.70    2.53
   1   8  10    7.51    8.73
  -1  -8 -10   43.42    7.12
   1   8  10   16.99    9.96
  -1  -8 -10   36.92    5.65
   1   8  10   33.78    7.01
   4   1 -10    1.13    2.19
  -4  -1  10    3.28    1.82
  -4  -1  10    2.09    2.67
  -4  -7 -10    3.34    1.43
   4   7  10    0.91    7.87
   4   7  10    3.53    4.83
   4   7  10    2.75    3.45
  -4  -7 -10    3.64    1.53
   5  -7  -5   16.74    5.29
  -5   7   5   32.77    4.94
  -5   7   5   41.41    4.82
   5  -7  -5   32.33    5.80
   3  -9   1   39.83    4.70
   3  -9   1   44.49    5.80
  -3   9  -1   44.20    4.96
  -3   9  -1   44.86    4.46
  -3   9  -1   31.66    4.44
  -3   9  -1   41.83    5.84
  -6  -6   4   11.67    2.38
   6   6  -4   13.76    2.69
  -6  -6   4    2.47    3.41
   6   6  -4   10.55    2.11
  -6  -6   4    7.13    3.43
   1 -10   0   55.95    6.12
  -1  10   0   46.11    6.17
   1 -10   0   50.16    6.97
  -1  10   0   62.80    6.54
   3  -2  11   49.76    6.27
  -3   2 -11   32.03    7.57
  -7  -4  -8   92.28   10.26
  -7  -4  -8   85.96    8.89
   7   4   8   71.28   11.16
   7   4   8   86.47   12.67
   7   4   8   84.01    8.74
   5   1  -9   14.12    3.91
  -5  -1   9    8.19    2.17
  -5  -1   9    9.95    4.41
  -1   4  12    8.80    5.63
   1  -4 -12   27.14   10.89
  -1   4  12   12.48    3.96
  -1   4  12   12.64    5.08
   8   0  -3   22.13    3.35
   8   0  -3   17.94    3.06
   7   7   3    2.68    3.88
   7   7   3    2.02    1.10
  -7  -7  -3   -0.28    3.40
   7   7   3    1.47    1.58
   7   7   3   -0.85    6.93
   7   7   3    1.43    1.23
   7   7   3    1.80    1.22
  -7  -7  -3    0.21    2.05
   7  -3  -5    1.24    2.84
   7  -3  -5   -0.75    3.08
  -7   3   5   -0.03    0.08
  -5  -9  -5  126.00   13.65
   5   9   5  122.98   13.53
  -5  -9  -5  147.36   13.17
   5   9   5  104.25   14.12
  -6   1  -9    1.16    1.43
  -6   1  -9    3.41    1.84
  -6   1  -9    5.82    8.84
   6  -1   9    0.61    1.76
   6  -1   9    1.28    2.35
   6  -1   9    3.61    4.50
   0 -10   1   25.92    4.47
   0  10  -1   25.01    3.79
   0  10  -1   27.82    3.79
   0 -10   1   27.81    3.55
   0  10  -1   23.82    3.57
  -8  -1   3    0.59    2.59
   8   1  -3    1.11    1.02
  -1  -7 -11   44.98    6.88
   1   7  11   39.54    9.00
  -1  -7 -11   53.69    5.92
  -1  -7 -11   51.38    8.46
   1   7  11   31.76   12.69
  -2  -8 -10   54.09    8.00
   2   8  10   36.58   12.46
  -2  -8 -10   54.98    6.58
  -2  -8 -10   46.21    5.22
   2   8  10   18.16   10.14
   0  -3  11   39.11    7.27
   0  -3  11  126.82    8.74
   0   3 -11   41.30    9.21
   0  -5 -12   -0.27    2.87
   0   5  12    0.77    1.83
   0   5  12    0.88    4.00
  -5  -2 -11   28.66   15.16
  -5  -2 -11   28.39    3.63
  -5  -2 -11   20.52    2.72
  -5  -2 -11   22.36    4.72
   5   2  11   13.34   10.20
  -7   0   6   20.67    2.35
  -7   0   6   19.24    3.68
   7   0  -6   24.90    8.15
   7   0  -6   24.75    7.44
  -5   3   9    2.13    2.74
   5  -3  -9    1.01    7.30
  -5   3   9    1.63    2.61
   5  -3  -9   -0.98    3.24
  -5   3   9    1.45    1.40
  -5  -3 -11   32.18   16.51
   5   3  11   15.54    6.69
  -5  -3 -11   27.42    3.70
  -5  -3 -11   41.74    4.51
  -5  -3 -11   33.32    5.96
  -6   6   4   54.07    5.80
   6  -6  -4   65.50    7.17
   6  -6  -4   54.08    8.28
  -7  -7  -2   -1.14    3.79
  -7  -7  -2   -0.18    2.45
  -7  -7  -2    0.46    1.51
   7   7   2    0.41    3.66
   7   7   2    0.19    1.00
   7   7   2    1.07    1.19
   7   7   2    0.37    1.27
   1  -3  11   10.82    2.55
   1  -3  11    1.76    1.45
   0 -10  -6   13.23    2.70
   0  10   6   20.50    4.26
   0  10   6    4.91    2.71
   0 -10  -6   13.08    2.78
  -5   7  -3   17.69    5.15
   5  -7   3   21.39    2.46
   5  -7   3   23.84    3.42
   1  -1  12  164.20   17.13
  -2  -2  11   97.18    9.26
  -2  -2  11   39.31   11.30
   0  -9   4   18.08    2.62
   0   9  -4   14.61    2.45
   0   9  -4   14.77    2.41
   8   3  -2   84.87    8.37
   8   3  -2  102.85   18.29
   8   3  -2   98.79   15.53
   8   3  -2   81.86    8.75
  -8  -3   2  101.92   13.08
   8   3  -2   73.48    8.91
  -7  -3   5    7.72    3.73
   7   3  -5    6.42    5.82
   7   3  -5    3.38    1.40
   7   3  -5   11.24    3.47
  -7  -3   5    5.60    1.31
  -4  -8  -9    1.94    1.65
   4   8   9    3.60    3.11
  -4  -8  -9    5.06    2.39
   4   8   9    1.89    2.40
   4   8   9    4.20    7.82
   1   9  -4   43.06    4.91
   1   9  -4   39.48    4.99
  -1  -9   4   40.44    5.59
  -1  -9   4   41.03    4.92
  -4   7  -5   35.09    6.35
  -4   7  -5   40.36    7.16
   4  -7   5   43.46    5.45
  -4   7  -5   25.24    4.33
   7  -5   0   51.69    6.40
   7  -5   0   65.15    8.71
   4  -1  11  117.36   13.75
   4  -1  11   77.78   10.11
  -4   1 -11   43.24    7.40
  -7   1   6   91.71    9.21
   7  -1  -6   60.52   11.35
   7  -1  -6   76.54   14.50
  -7   1   6   49.30    1.82
   5   6  10   36.06   15.77
   5   6  10   54.10   12.56
  -5  -6 -10   49.84    6.89
  -5  -6 -10   34.23    6.60
   5   6  10   57.67    6.93
   5   6  10   35.97    9.24
   8   4   5    7.83    4.33
   8   4   5    5.01    1.94
   8   4   5    5.26    1.78
   8   4   5    4.59    1.18
   8   4   5    5.61    1.42
   8   4   5    4.61    2.01
  -7   4   4   -0.01    0.09
   7  -4  -4   87.91   13.01
   7  -4  -4  113.46   13.33
   7  -4  -4   64.31   20.05
  -4  -8   4   11.59    2.51
  -4  -8   4    6.40    4.19
   4   8  -4    9.67    2.13
  -4  -8   4   10.18    2.71
   2   7  11   -0.83    7.53
  -2  -7 -11    0.64    0.70
  -2  -7 -11   -0.98    2.69
   2   7  11   -1.84    7.33
  -2  -7 -11    0.19    1.62
   1 -10  -5    1.45    0.98
   1 -10  -5    4.88    1.85
  -1  10   5    3.67    2.20
   1 -10  -5    3.97    1.53
  -1  10   5    3.97    6.03
   1 -10  -5    0.78    2.14
  -1  10   5    2.23    1.66
  -6   5  -5   27.92    5.03
   6  -5   5   27.61    3.63
   4  -4   9   33.87    4.71
   4  -4   9   35.62    4.49
  -4   4  -9   15.86    4.09
  -2  -7   7   10.11    2.31
   2   7  -7   10.45    2.11
  -2  -7   7   11.01    2.40
   2   7  -7    8.03    1.93
   8  -2   3   -0.34    1.78
   8  -2   3    0.38    3.47
   8  -2   3    0.21    2.55
   8  -2   3    2.85    3.14
   8  -2   3    0.12    0.42
  -8   2  -3   -1.83    9.09
   8  -2   3    0.68    0.53
   8  -2   3    0.23    1.30
  -3  -9   3   20.13    3.68
   3   9  -3   15.38    2.70
  -3  -9   3    9.07    4.98
   3   9  -3   14.33    2.59
   3   9  -3   13.36    2.40
  -3  -9   3   11.41    2.85
  -6  -2 -10    4.92    1.98
  -6  -2 -10    4.45    2.50
   6   2  10    2.42    4.18
   6   2  10    2.20    0.58
  -6  -2 -10    3.24    0.88
   7  -5  -1    3.95    1.81
   7  -5  -1    6.60    2.86
   5  -4   8   24.84    3.29
   5  -4   8   26.13    3.74
  -5   4  -8   14.21    2.88
   6   3  10    7.42    5.12
  -6  -3 -10   13.68    3.38
   6   3  10    5.52    5.94
  -6  -3 -10   12.44    1.85
   3  -9  -5   15.85    2.50
   3  -9  -5   11.77    2.76
   3  -9  -5   15.75    3.20
  -3   9   5   13.86    3.01
  -3  -3  10   74.41    7.57
  -3  -3  10   32.25    9.80
   3   3 -10   38.31    8.13
   3   3 -10   88.84    7.59
   4  -5   8   29.59    4.19
  -7  -7  -4   14.56    4.67
   7   7   4   28.70    4.83
   7   7   4   42.06    4.80
  -7  -7  -4   22.46    6.03
   7   7   4   25.52    3.89
   7   7   4   38.16   13.88
   7   7   4   35.53    8.43
   7   7   4   39.41    4.29
  -6  -8   0   98.04   13.06
   6   8   0  121.57   11.38
  -6  -8   0  116.88   12.77
   6   8   0   93.12   11.80
  -6  -8   0   87.99   11.20
   8   5   2   74.69    7.82
   8   5   2   90.28   13.99
   8   5   2  104.78    9.88
   8   5   2   66.81    8.81
   3   8  -5    5.39    1.73
  -3  -8   5    4.76    1.85
  -3  -8   5    4.41    1.79
  -3  -8   5    0.37    3.74
   3   8  -5    3.44    1.51
   8   4  -1   18.99    2.68
   8   4  -1   25.87    8.02
  -8  -4   1   19.77    4.41
   8   4  -1   16.79    3.06
  -8  -4   1   13.36    2.90
   8   4  -1   24.26    4.83
   8   4  -1   19.38    2.86
   8   4  -1   28.46   11.69
   5  -5  -8   65.24   18.61
  -5   5   8   71.42    7.99
  -5   5   8   51.43    6.20
   5  -5  -8   85.50   11.15
   5  -5  -8   41.70    8.65
   7   0   8    5.09    2.55
  -7   0  -8   12.02   12.12
  -7   0  -8    8.52    2.08
  -7   0  -8    9.82    3.28
   7   0   8   13.69    7.43
  -6   1   8   27.47    6.08
  -6   1   8   23.33    3.15
   6  -1  -8   22.57    7.83
   6  -1  -8   11.45    5.83
  -6   1   8   14.63    4.80
   0   8  -6    6.69    1.70
   0  -8   6    7.58    1.63
  -7   4  -4    3.93    2.84
   7  -4   4    3.95    1.17
   2  -9   3   19.94    2.63
   2  -9   3   20.64    3.56
  -2   9  -3   23.38    2.91
  -2   9  -3   20.73    2.84
   8  -2  -2   41.51    8.03
   8  -2  -2   48.23    7.27
   8  -2  -2   34.14    4.26
   8   2   6    5.28    1.16
   8   2   6    9.76    3.68
   8   2   6    6.04    2.62
   8   2   6    5.33    2.56
   8   2   6    4.56    2.27
   5  -6  -7    0.60    2.43
   5  -6  -7   -0.36    1.76
  -5   6   7   -1.34    1.79
  -5   6   7    1.26    1.57
   5  -6  -7   -0.22    2.68
   8   5   3   76.25    7.75
   8   5   3   79.31   19.93
   8   5   3   63.70    8.62
   8   5   3   88.17   13.05
   8   5   3   57.98    8.60
  -8  -5  -3   46.42    7.99
   8   5   3  101.80    9.39
  -7  -1   6    7.45    3.22
   7   1  -6   10.35    2.86
  -7  -1   6   14.56    1.82
   7   1  -6   23.37    6.76
   7   1  -6    9.48    5.70
  -7  -1   6   19.59    5.00
   2  10  -1    3.04    1.51
   2  10  -1    1.78    1.39
  -2 -10   1    1.70    1.31
  -2 -10   1    2.20    1.65
  -2 -10   1    2.74    1.27
   2  10  -1    1.03    1.24
   1  -9  -8  104.91   10.70
   1  -9  -8  105.89   10.29
  -1   9   8   96.02   12.02
   6   0  -8    2.52    4.27
   6   0  -8    9.97    5.63
  -6   0   8    2.13    3.04
  -6   0   8    9.31    4.21
   7  -5   1    7.79    3.14
   7  -5   1    6.76    1.63
   0  -8 -10    7.17    2.70
   0   8  10    8.80    4.09
   0   8  10    4.37    6.48
   0   8  10    5.03    8.02
   0  -8 -10    5.67    3.20
   8  -1  -3  127.32   16.13
   8  -1  -3  117.84   16.81
  -6   5   6   18.37    2.40
   6  -5  -6   29.49    6.15
  -6   5   6   29.25    3.48
   6  -5  -6   19.10    5.10
   6  -5  -6   30.08   13.94
   7   7   1    5.56    1.39
  -7  -7  -1    3.34    2.40
   7   7   1    2.19    4.64
  -7  -7  -1    2.89    3.83
  -7  -7  -1    6.15    2.38
   7   7   1    7.81    1.95
   7   7   1    5.19    1.89
   2  -9  -7   54.00    6.11
   2  -9  -7   61.50    6.66
  -2   9   7   64.16    8.71
   2  -9  -7   16.12    5.67
   2  -9  -7   28.78    4.59
   5   8   8   -1.03    3.13
   5   8   8    3.51    8.00
  -5  -8  -8   -0.41    1.41
  -5  -8  -8   -0.18    1.40
  -5   3  -9    0.83    1.49
   5  -3   9    3.02    1.63
   6  -6   3   10.12    1.28
   6  -6   3   14.07    2.30
  -6   6  -3   11.17    3.26
  -6   6  -3    4.01    5.97
  -3 -10   0   63.55    6.51
   3  10   0   66.23    7.06
   3  10   0   56.92    6.87
  -3 -10   0   48.46    8.63
   3  10   0   55.55    7.09
  -3 -10   0   47.53    7.10
  -4   4  10   14.49    2.93
  -4   4  10    9.96    4.58
  -4   4  10   12.78    4.08
   1   8  -6  105.75   10.80
  -1  -8   6  115.25   12.26
  -1  -8   6  111.12   11.72
  -5  -1 -11   56.42    8.12
   5   1  11   66.51   12.16
  -5  -1 -11   53.78    5.58
  -5  -1 -11   55.29   17.34
   5   1  11   10.30    6.58
   6   3  -7  329.46   22.54
   6   3  -7  165.09   18.96
  -6  -3   7  196.45   19.25
   3   0  12   72.14   10.29
  -3   0 -12   39.28   13.86
  -3   0 -12   42.10    7.90
   3   0  12  101.00   12.72
  -6   4   7   37.07    4.26
   6  -4  -7   59.38    9.46
   6  -4  -7   33.25    7.32
  -6   4   7   42.78    5.16
   5   4  11    1.72    4.02
   5   4  11    4.30    6.53
  -5  -4 -11    7.28    1.60
  -5  -4 -11    5.84    2.85
   4   9  -2   37.55    4.41
  -4  -9   2   26.83    6.24
  -4  -9   2   34.24    4.87
  -4  -9   2   26.94    4.62
   4   9  -2   31.26    4.60
   2  -7   7    3.19    1.60
  -2   7  -7    4.49    1.12
  -2   7  -7    0.56    1.77
  -8  -2   3   84.43   11.56
   8   2  -3   66.63    7.07
   8   2  -3   99.73   12.77
   8   2  -3   71.39   12.92
   8   5   1   17.55    2.19
   8   5   1   21.51    3.93
   8   5   1   16.66    3.07
   8   5   1   22.83    7.35
  -8  -5  -1    8.82    3.26
   8   5   1   15.56    2.58
   8   5   1   12.98    9.53
  -8  -5  -1   18.07    3.79
   0   7  11   16.52    9.67
   0  -7 -11   31.73    4.74
   0  -7 -11   28.74    6.32
   0   7  11   22.78    6.80
   8   1   6   26.11    5.55
   8   1   6   33.86   12.22
   8   1   6   27.86    3.20
   8   1   6   46.59    7.33
  -8  -1  -6   51.83   19.44
   8   1   6   23.57    5.59
   8   1   6   27.86    5.60
   8   3   6   61.07    8.37
   8   3   6   60.58    7.54
   8   3   6   85.52   11.05
   8   3   6   71.92    8.54
   8   3   6   59.17    6.58
   3  -7  -9   23.26    5.86
  -3   7   9   49.25    7.58
   3  -7  -9   12.24    7.13
  -3   7   9   39.56    9.93
   7  -5  -2   33.20    3.65
   7  -5  -2   41.12    6.66
  -2  -4  10    3.64    1.72
   2   4 -10    2.06    2.32
  -2  -4  10    2.40    4.12
  -2  -4  10    1.23    2.14
  -4  -6 -11   64.25    8.64
  -4  -6 -11   48.25    6.97
   4   6  11   45.86   10.45
  -4  -6 -11   53.71    6.41
  -2   1 -12   10.72    6.09
   2  -1  12   30.45    4.80
  -2   2  12    2.10    2.77
  -2   2  12   -0.39    3.40
  -2   2  12    5.64    2.44
   2  -2 -12    3.46    7.51
   2  -2 -12    8.09    6.84
   2  -2 -12    6.79    2.54
   3  -4 -11   28.73   12.40
  -3   4  11   45.82    7.45
  -3   4  11   26.73    8.04
  -3   4  11   37.47    5.93
  -6  -1 -10  169.88    8.49
   6   1  10  124.37   11.53
  -6  -1 -10  148.97    8.75
   6   1  10   62.23   15.03
   5  -5   7    0.12    1.30
  -5   5  -7   -6.42    6.72
  -5   5  -7    1.32    1.16
  -5  -9   0   26.06    4.56
  -5  -9   0   30.57    5.49
   5   9   0   29.78    4.65
   5   9   0   36.47    4.40
   1   3 -11    9.66    5.35
   6   8   6   36.66    5.11
  -6  -8  -6   46.54    5.16
   6   8   6   39.85   14.50
  -6  -8  -6   46.77    7.20
   6   8   6   58.09    6.95
   1   9   9   -1.51    5.00
   1   9   9    1.93    2.82
  -1  -9  -9    1.01    2.99
   1   9   9    1.32    6.91
  -1  -9  -9    3.48    1.98
  -1  -9  -9    3.93    2.42
   7   6  -2   30.18    4.51
   7   6  -2   32.67    4.05
  -7  -6   2   31.60    4.53
   7   6  -2   35.37    4.38
  -7  -6   2   31.45    6.15
  -3 -10  -6  114.09   11.24
   3  10   6   79.58   12.03
   3  10   6  195.30   15.93
  -3 -10  -6  103.03   10.11
   6  -2  -8   30.86    8.41
  -6   2   8   38.20    6.93
   6  -2  -8   36.35   10.36
  -6   2   8   54.56    8.34
  -6   2   8   45.27    5.12
   3   5  12   95.43   16.46
  -3  -5 -12  156.21   16.08
  -3  -5 -12  147.12   18.40
  -2   7  10   11.24    7.01
   2  -7 -10   11.22    4.42
  -2   7  10   10.79    4.38
   2  -7 -10   13.87    3.77
  -4   8  -3   32.10    5.49
   4  -8   3   31.18    4.17
   4  -8   3   24.82    2.96
  -4   8  -3   28.04    3.25
  -4   8  -3   25.46    4.54
  -3  -1  11   36.30    9.15
  -3  -1  11   62.91    6.87
   3   1 -11   79.04    8.75
  -2  10   2    5.74    2.10
   2 -10  -2    6.04    2.30
  -2  10   2    7.27    2.05
  -2  10   2    5.49    2.09
   8   5   4    0.92    0.82
   8   5   4    1.86    3.43
   8   5   4    0.96    7.65
   8   5   4    0.31    1.39
   8   5   4    1.18    1.18
   8   5   4    0.69    1.06
   8   5   4    1.07    1.67
  -4  -6   7   23.59    7.27
   4   6  -7   44.94    5.49
  -4  -6   7   23.88    6.11
   4   6  -7   43.31    5.10
  -6  -4 -10  179.70   18.34
   6   4  10  160.50   23.61
  -6  -4 -10  226.83   20.88
   6   4  10  156.87   21.82
  -1   9  -4   11.93    2.15
  -1   9  -4   16.70    2.37
  -1   9  -4   13.05    2.40
   1  -9   4   14.53    3.01
   4  -3  10    1.60    1.71
  -4   3 -10   -0.37    2.33
   2  -3  11   30.77    3.71
   2  -3  11   13.57    2.20
  -7   2   6   59.43    7.68
   7  -2  -6   29.61    7.17
  -7   2   6    0.08    0.26
   2  -1 -12   23.41    3.40
   2  -1 -12   13.98    7.65
  -2   1  12   11.30    4.94
  -2   1  12   24.42    3.89
  -2  -9   4  153.96   16.39
   2   9  -4  154.74   15.46
  -2  -9   4  155.57   15.90
   2   9   9   68.77   16.10
   2   9   9   85.63   18.61
  -2  -9  -9   96.76   10.14
  -2  -9  -9  106.62   12.49
  -2  -9  -9  103.25   11.16
   2 -10  -3   52.45    8.75
  -2  10   3   51.62    7.99
  -2  10   3   79.29    7.98
   2 -10  -3   84.88    8.30
  -2  10   3   70.01   15.56
   6   6   9   79.93   11.83
  -6  -6  -9   80.46    8.80
  -6  -6  -9   68.68    7.15
   6   6   9  108.68   10.98
  -3   6  10   13.65    4.92
  -3   6  10   25.02    4.64
   3  -6 -10   22.96    5.55
   3  -6 -10   12.69    5.09
   4  10   3   28.51    4.09
  -4 -10  -3   27.43    4.15
   4  10   3   20.52    3.89
  -4 -10  -3   26.51    3.92
  -4 -10  -3   16.45    4.47
   4   5  -8   50.54    5.21
  -4  -5   8   23.99    7.08
  -4  -5   8   37.85    4.35
   4   5  -8   42.83    5.30
   4   5  -8   33.51    4.86
  -4  -5   8   15.62    5.19
  -1   8  -6   24.64    3.19
   1  -8   6   28.40    4.26
  -1   8  -6   23.72    3.24
  -5  -9  -6   28.43    3.78
   5   9   6   20.24    3.53
  -5  -9  -6   31.00    4.51
   5   9   6   21.69    4.30
  -5  -9  -6   25.01    4.10
   1  10   7   30.46    5.25
   1  10   7   11.52    3.97
  -1 -10  -7    5.53    3.79
  -1 -10  -7   26.10    3.96
   7   7   5   44.72    5.69
   7   7   5   43.24   15.67
  -7  -7  -5   27.13    7.52
   7   7   5   52.47    9.52
   7   7   5   45.05    5.54
   7   7   5   59.36    5.80
   7   7   5   38.62    6.56
  -7  -7  -5   35.98    8.37
  -3  -8 -10   40.21    4.42
  -3  -8 -10   51.61    7.14
  -3  -8 -10   45.71    5.26
   3   8  10   50.02    8.89
   3   8  10   29.06   10.57
   1 -10   1  102.99   12.47
  -1  10  -1  106.30   11.40
  -1  10  -1  112.15   11.57
   1 -10   1  116.55   11.52
  -4   8   6   25.06    4.14
   4  -8  -6    8.57    3.91
   4  -8  -6   19.11    3.42
   4  -8  -6   13.47    3.40
   6   7   8  142.39   15.23
  -6  -7  -8  120.50   11.19
   6   7   8  144.30   14.63
  -6  -7  -8  104.78   13.99
   8  -1   5    0.60    2.28
   8  -1   5   -0.55    1.57
   8  -1   5    0.23    3.76
   8  -1   5    1.64    0.81
   8  -1   5    0.85    2.42
   8  -1   5   -0.56    3.31
   8  -3   0   30.70    6.40
   8  -3   0   30.58    3.91
   8  -3   0   22.17   11.55
  -8   3   0   28.87   11.41
   8  -3   0   40.83    5.88
  -7  -6  -7   34.38    4.81
  -7  -6  -7   31.40    3.85
   7   6   7   24.93    5.01
   7   6   7   23.55    3.70
   7   6   7   31.84   14.09
   7   6   7   49.77    7.76
   7   6   7   30.70    5.29
   7   6   7   30.31    3.52
   4   3  12   14.64    6.63
  -4  -3 -12   22.59    5.24
  -4  -3 -12   24.20    3.38
   4   3  12   26.26   11.77
  -4  -3 -12   20.97   12.98
   5   5  -7   70.96    7.98
   5   5  -7   57.80    7.40
  -5  -5   7   44.02    8.84
  -5  -5   7   25.09    7.53
   4   2  12   14.14    6.44
   4   2  12   44.93   11.74
  -4  -2 -12   47.73   17.19
  -4  -2 -12   41.96    7.22
  -4  -2 -12   40.29    4.89
  -6  -1   8   46.33    5.10
   6   1  -8   75.81   11.35
  -6  -1   8   37.89    8.21
  -2   3  12   -0.68    2.53
  -2   3  12    0.43    2.49
  -2   3  12    0.41    3.83
   2  -3 -12   -0.21    3.46
   2  -3 -12    0.84    6.68
   4  -6   7  142.43   14.77
  -4   6  -7   83.79   13.10
  -2  10   1   18.40    3.42
   2 -10  -1   11.38    2.93
  -2  10   1   16.92    2.91
  -2  10   1   15.32    2.91
   8  -3   1   30.52    6.08
  -8   3  -1   25.43   11.70
   8  -3   1   26.05   10.01
   8  -3   1   29.82    3.95
   3  -5   9   30.38    4.41
   3  -5   9   30.08    4.10
  -3   5  -9    9.50    5.55
  -5  -6   6   16.52    2.74
  -5  -6   6   17.64    5.10
   5   6  -6   16.18    2.76
   5   6  -6   17.89    3.07
  -4 -10  -4   46.30    5.70
  -4 -10  -4   46.76    5.34
   4  10   4   31.63    5.40
   4  10   4   48.22    5.94
  -4 -10  -4   39.45    4.73
   7  -5   2    4.66    1.07
  -7   5  -2    3.88    2.93
   7  -5   2    4.26    1.41
   5   8  -3   37.48    4.81
   5   8  -3   35.84    5.05
  -5  -8   3   49.89    6.08
  -5  -8   3   35.16    6.36
  -5  -8   3   28.57    6.54
   5   8  -3   39.58    4.69
   3  -9   2    0.12    1.88
   3  -9   2    0.14    0.79
  -3   9  -2    1.25    1.10
  -3   9  -2    0.10    0.55
   4  10   2   36.47    4.66
  -4 -10  -2   29.90    4.93
   4  10   2   27.32    4.57
  -4 -10  -2   25.12    5.08
  -4 -10  -2   35.61    4.80
   2  -8  -9    9.07    2.67
  -2   8   9    6.92    3.26
   2  -8  -9    2.03    3.48
   2  -8  -9    6.12    3.10
  -2   8   9    4.32    5.83
  -1  -1  12   13.66    5.77
  -6  -7   3    3.17    3.03
  -6  -7   3    5.36    1.94
  -6  -7   3    1.76    3.06
   6   7  -3    6.35    1.86
   6   7  -3    7.04    1.97
  -7   2  -7    6.90   10.00
  -7   2  -7    1.27    1.01
   7  -2   7   10.23    4.85
  -7   2  -7    1.13    2.01
   7  -2   7    2.36    1.37
   7   5   8    2.82    2.99
   7   5   8    1.27    2.62
   7   5   8    0.18    1.85
   7   5   8    1.01    0.79
  -7  -5  -8    0.47    0.97
  -7  -5  -8    0.70    1.58
   2  10   7   48.93    7.71
  -2 -10  -7   87.41   10.40
  -3  -7 -11    1.78    1.10
   3   7  11    1.44    4.29
   3   7  11    1.61    5.52
  -3  -7 -11    3.44    2.63
  -3  -7 -11    2.89    1.68
   3   7  11    4.52    8.43
  -7   3  -6   35.72    3.97
   7  -3   6   50.27    5.08
   7  -3   6   48.12    5.52
  -7   3  -6   39.40    6.46
  -5   8   1   10.35    3.27
   5  -8  -1   11.05    2.24
  -5   8   1    4.87    0.91
   5  -8  -1    6.36    2.16
  -5   8   1    9.47    1.77
  -5   8   1    6.27    2.76
   5   2  -9   27.84    4.49
  -5  -2   9   21.83    2.98
  -5  -2   9    7.76    4.35
   5   2  -9    9.94    3.04
  -1  -6 -12    0.35    1.78
   1   6  12    1.28    4.24
   1   6  12    0.55    1.59
  -1  -6 -12   -0.47    2.44
   8   5   0   56.59    7.15
  -8  -5   0   49.56    6.87
   8   5   0   45.81    5.52
   8   5   0   45.30    6.00
  -8  -5   0   30.78    5.59
   8   5   0   50.53   11.50
   8   5   0   49.76   15.00
  -7  -7   0   20.97    4.25
   7   7   0   16.45    2.86
  -7  -7   0   16.38    3.50
   7   7   0   19.07    2.68
   7   7   0   17.23    3.27
  -7  -7   0   11.86    5.34
   8  -2   4   89.07    8.46
   8  -2   4  156.56   13.10
   8  -2   4   40.83    9.77
   8  -2   4  106.32   12.69
  -8   2  -4   85.96   21.41
  -5   8   2   40.81    4.90
   5  -8  -2   42.52    6.31
   5  -8  -2   57.10    5.85
  -5   8   2   45.08    6.32
   7   2  -6   18.58    3.10
   7   2  -6   22.60    7.03
  -7  -2   6   20.81    2.61
  -4  -2  10   12.90    4.99
   4   2 -10    7.82    4.41
   4   2 -10   39.11    4.58
  -4  -2  10   25.99    3.64
  -1   5  12   51.45    7.47
   1  -5 -12   41.84    8.51
  -1   5  12   28.63    8.87
  -1   5  12   31.13    9.23
   1  10  -2   79.92    8.81
  -1 -10   2   78.36    8.74
   1  10  -2   79.37    8.83
  -1 -10   2   90.42    9.04
   8  -3  -1   25.41    5.95
   8  -3  -1   12.46    9.96
  -8   3   1   27.95   10.55
   8  -3  -1   38.96    5.79
   8  -3  -1   22.93    3.05
   4  -6  -9   14.00    5.16
   4  -6  -9   25.96    6.30
   4  -6  -9   33.72    6.42
  -4   6   9   22.41    4.74
  -1  10   6    0.73    5.27
   1 -10  -6    0.23    2.52
  -1  10   6    0.49    1.93
   1 -10  -6    0.51    0.88
   1 -10  -6    1.16    1.43
   1 -10  -6    0.91    1.64
   5  -4  -9   36.47    8.19
  -5   4   9   49.14    7.88
   5  -4  -9   34.33   14.71
  -5   4   9   42.73    5.35
   0   9   9    7.79    6.71
   0   9   9   11.77    4.17
   0  -9  -9   18.86    4.12
   0  -9  -9    2.66    3.61
   8   0   6   11.00    4.57
   8   0   6   13.39    4.37
  -8   0  -6   21.00   13.85
   8   0   6   19.75    7.73
   8   0   6   30.38    5.86
  -2  10   4   21.52    9.91
   2 -10  -4   39.46    5.19
  -2  10   4   44.08    5.23
  -2  10   4   28.71    5.22
   2 -10  -4   51.64    5.62
   3  -4  10   24.78    2.87
  -3   4 -10   25.02    2.71
  -3   4 -10    3.92    6.11
   3  -4  10   36.33    4.28
   6  -3   8   47.15    5.22
  -6   3  -8   46.55    5.99
   6  -3   8   46.47    5.65
  -6   3  -8   31.10    4.57
   4   9   8   44.97    6.83
   4   9   8   24.28    5.63
  -4  -9  -8   46.52    5.96
  -4  -9  -8   38.34    4.73
   4   9   8   46.36   14.51
   6  -6  -5   45.73    8.53
  -6   6   5   47.75    4.36
   6  -6  -5   60.29    8.47
  -6   6   5   30.88    3.48
   4   7  -6   49.84    6.01
  -4  -7   6   54.56    5.86
  -4  -7   6   34.05    8.44
  -4  -7   6   34.06    6.55
   8   4   6   57.42    6.57
   8   4   6   68.45    8.03
   8   4   6   62.61    7.25
   8   4   6   52.74    8.07
  -3   8   8   14.91    3.79
   3  -8  -8   13.36    3.60
   3  -8  -8    8.61    2.89
   2   6  12   11.79    2.91
  -2  -6 -12   15.89    4.64
  -2  -6 -12   16.86    1.50
  -2  -6 -12   18.06    3.17
   0 -10   2   42.02    5.02
   0  10  -2   41.25    5.49
   0  10  -2   50.03    5.59
   0  10  -2   37.70    5.28
   0  10  -2   50.33    5.32
   0 -10   2   51.52    6.89
   7  -5  -3   28.60    5.84
   7  -5  -3   42.58    6.16
   7  -5  -3   14.06    4.10
  -7   5   3   26.10    8.40
   7  -5  -3   45.09   14.01
  -7   5   3   23.24    2.62
  -5   2 -10    0.14    1.66
   5  -2  10    0.50    1.78
   2   8  -6    6.04    1.76
  -2  -8   6    5.54    1.98
  -2  -8   6    4.39    1.86
   2   8  -6    6.27    1.75
   8  -2  -3  191.76   20.80
   8  -2  -3  151.74   20.97
   3  -6   8   37.84    5.08
  -3   6  -8   28.86    3.28
  -6  -8   1   28.93    4.65
  -6  -8   1   34.68    6.17
   6   8  -1   29.79    4.64
   6   8  -1   36.22    4.19
   5  -7  -6   99.71   12.99
  -5   7   6   92.51   11.50
  -5   7   6  138.69   12.16
   5  -7  -6  141.14   13.19
   8  -3   2    0.62    0.59
  -8   3  -2   -0.85    8.19
  -5   8   0   -0.58    0.64
  -5   8   0    2.34    2.79
   5  -8   0   -0.05    0.84
  -5   8   0    0.17    1.99
   5  -8   0    0.34    1.32
  -5   8   0   -0.26    0.98
   0 -10  -7   51.33    6.13
   0 -10  -7   49.45    6.28
   0  10   7   29.05   11.22
   0  10   7   61.37    8.33
  -6   4  -7   86.08   10.00
  -6   4  -7   74.12    8.07
   6  -4   7   80.10    8.91
   6  -4   7   84.13    8.39
   2  -6 -11   38.05    8.05
   2  -6 -11   45.13    7.74
  -2   6  11   41.81    6.27
  -2   6  11   33.70    8.36
  -4  -4 -12   84.70   11.48
   4   4  12   40.72   10.13
  -4  -4 -12   83.60    9.11
  -4   7   8    3.14    2.14
  -4   7   8    3.79    3.98
   4  -7  -8    6.58    3.06
   4  -7  -8    0.96    3.33
   4  -7  -8    3.44    2.55
   4  -7  -8    3.91    2.83
  -2   0  12   72.05    7.42
   2   0 -12   66.47    6.85
   2   0 -12   44.02   12.28
  -2   0  12   33.59    8.90
  -5   0 -11   24.89   13.05
   5   0  11   51.27    9.93
   5   0  11   34.01    7.06
  -5   0 -11   29.64    5.47
  -4  -1 -12   13.08   10.71
  -4  -1 -12   20.30    5.23
  -4  -1 -12   22.83    3.05
   4   1  12    9.79    5.46
   4   1  12   34.96    8.63
  -3  -6   8    0.22    1.26
   3   6  -8    0.75    1.26
  -3  -6   8    0.40    3.33
  -3  -6   8   -0.31    2.11
   3  -9  -6   21.08    3.86
   3  -9  -6   12.00    2.93
   3  -9  -6    6.77    3.68
  -3   9   6   19.59    3.86
   3  -9  -6   16.93    3.00
   8   5   5    0.47    0.82
   8   5   5    0.66    1.31
   8   5   5   -0.30    3.54
   8   5   5    3.11   10.08
   8   5   5   -0.35    1.89
   8   5   5    0.59    0.80
   8   5   5    1.21    1.47
  -8  -4   2   15.75    2.95
   8   4  -2   22.60    3.53
  -8  -4   2   24.63    4.91
   8   4  -2   23.22    3.32
   8   4  -2   14.93    7.49
   8   4  -2   22.28   10.24
   8   4  -2   24.74    3.07
   5   5  11   21.89    9.95
  -5  -5 -11   32.37    4.14
  -5  -5 -11   35.20    6.00
   5   5  11   24.13    8.13
   8   0  -4   22.41    8.12
   8   0  -4   22.79    6.86
   8   0  -4   18.83    2.42
   4  10   5    2.26    2.11
  -4 -10  -5   -0.68    2.57
   4  10   5    0.82    1.47
  -4 -10  -5    0.31    1.57
   4  10   5    1.57    1.58
  -4 -10  -5    1.69    1.46
   7   2   9   16.03    2.38
  -7  -2  -9   29.88   16.04
  -7  -2  -9   21.74    3.91
   7   2   9   11.48    5.19
   7   2   9   14.50   10.65
   4  10   1   49.72    6.09
   4  10   1   48.32    6.40
   4  10   1   53.16    6.24
  -4 -10  -1   54.91    5.94
  -4 -10  -1   38.37    6.70
  -4 -10  -1   52.68    6.55
  -4 -10  -1   43.84    6.71
   8   3  -3   20.91    3.20
   8   3  -3   30.53    5.86
  -8  -3   3   19.22    4.55
  -8  -3   3   14.05    2.26
   8   3  -3   20.35    7.76
   8   3  -3   20.36    8.97
   8   3  -3   22.95    2.88
  -5  -4   8    1.37    1.29
   5   4  -8    1.75    1.69
   5   4  -8    3.54    1.93
   2 -10   0   41.95    4.92
  -2  10   0   44.45    5.65
   2 -10   0   39.41    5.80
  -2  10   0   46.21    5.09
  -2  10   0   28.61    4.53
   5  -8  -3    2.96    2.09
   5  -8  -3    2.85    2.10
   5  -8  -3    6.87    2.37
  -5   8   3    4.80    1.50
  -5   8   3    7.41    2.57
   6   0  10    0.61    4.03
   6   0  10    0.74    3.39
  -6   0 -10    4.37    1.88
   6   0  10    2.80    1.06
  -6   0 -10   -1.03    9.38
  -6   0 -10    3.41    2.07
   0  -6   9   13.24    2.55
   0   6  -9   16.84    2.50
   0  -6   9   23.37    3.51
   0   6  -9   16.47    3.96
   0   6  -9    8.19    3.02
   7   3   9   12.56    5.28
  -7  -3  -9   15.36    3.17
   7   3   9   12.65    1.89
   7   3   9   16.07    6.06
  -7  -3  -9   14.41    1.98
  -5   7  -4  117.08   12.41
  -5   7  -4   79.12   13.03
   5  -7   4  105.86   11.29
   4   4  -9   38.78    5.01
   4   4  -9   49.97    4.88
  -4  -4   9   32.13    4.40
   3  10  -1   28.53    4.23
  -3 -10   1   31.90    7.04
   3  10  -1   32.95    4.60
  -3 -10   1   31.35    5.09
   3  10  -1   38.90    4.59
  -3 -10   1   36.92    4.84
  -6   3   8   60.51    6.59
  -6   3   8   75.61   10.16
   6  -3  -8   47.02    9.50
  -6   3   8   58.42    8.21
  -1  -2 -13    7.80    8.24
   1   2  13   -1.26    4.02
   1   2  13   16.19    5.24
  -6   7   1    2.61    1.07
   6  -7  -1    1.28    1.44
   6  -7  -1    1.41    2.00
  -6   7   1   -1.23    3.70
   6  -7  -1    1.46    1.53
  -7   1  -8    9.36   11.35
  -7   1  -8    8.40    1.94
  -7   1  -8    7.48    3.05
   7  -1   8    6.14    2.48
   7  -1   8    0.87    2.42
   8   1  -4   26.86    3.64
   8   1  -4   37.44    8.85
   4  -9  -2    1.99    1.41
   4  -9  -2    2.72    1.83
  -4   9   2    0.64    1.94
  -4   9   2    2.55    1.38
  -7   4   5   27.79    3.00
   7  -4  -5   15.02   12.00
   7  -4  -5   31.44    7.05
  -1   8  10    5.03    3.48
   1  -8 -10    3.41    2.90
   1  -8 -10    5.83    2.16
   1  -8 -10    0.76    3.48
  -1   8  10    2.25    6.15
  -3   8  -5   21.22    3.13
  -3   8  -5   29.95    5.31
   3  -8   5   27.91    4.16
   1   3  13   16.84    5.57
  -1  -3 -13   43.77   15.09
   1   3  13   14.48    6.67
  -1  -3 -13   25.28    6.81
   0  -6 -12   46.67    8.58
   0   6  12   32.25    9.62
   0   6  12   60.09    7.48
  -3  -9  -9   55.87    6.47
   3   9   9   25.88    6.38
  -3  -9  -9   69.85    8.20
   3   9   9   39.15   13.94
  -3  -9  -9   54.16    5.80
  -4   9   1    8.54    7.42
  -4   9   1   19.22    4.18
   4  -9  -1   19.28    2.80
  -4   9   1   20.25    3.01
   4  -9  -1   15.22    3.45
   3   5  -9   29.93    4.71
  -3  -5   9   10.99    4.19
  -3  -5   9   29.04    3.80
  -5  -7   5   57.43    6.52
  -5  -7   5   41.97    8.10
   5   7  -5   54.71    6.26
   5   7  -5   59.52    6.73
  -5  -7   5   46.61    9.04
  -5   6  -6  268.06   11.69
   5  -6   6  225.59   22.40
  -5   6  -6  155.97   15.07
  -7  -5   4   10.68    4.09
   7   5  -4   17.49    3.79
   7   5  -4   13.30    2.52
   7   5  -4   11.56    2.08
  -7  -5   4   14.26    2.60
   6  -7   0  140.17   11.59
   6  -7   0   81.85   11.42
  -6   7   0   71.76   11.06
  -6   7   0   70.86   10.60
   6   5  10   37.77   10.29
  -6  -5 -10   34.28    4.28
   6   5  10   52.10    7.17
  -6  -5 -10   41.95    6.08
   6   5  10   31.51    8.68
   0  -5  10    4.35    1.52
   0   5 -10    4.31    3.27
   0   5 -10    7.07    1.76
   0  -5  10    7.76    2.24
  -2   4  12    5.28    4.70
  -2   4  12    1.88    3.45
  -2   4  12   14.54    3.18
  -2   4  12    7.82    3.57
   2  -4 -12   12.42    9.23
   2  10  -2   99.06    9.91
  -2 -10   2  102.73   11.07
  -2 -10   2  107.20   12.16
   2  10  -2   81.54    9.88
   2  10  -2   92.41    9.85
  -7  -4   5   46.02    8.52
  -7  -4   5   51.18    5.76
   7   4  -5   43.96    5.37
   7   4  -5   51.75    6.02
   1  -7 -11   43.57    8.67
  -1   7  11   44.93    9.20
  -1   7  11   37.18   12.46
   1  -7 -11   62.89    8.07
   6  -7  -2    5.08    2.23
  -6   7   2   10.61    1.78
  -6   7   2    5.31    3.66
   6  -7  -2    8.50    2.92
   5   9  -1   18.73    3.47
  -5  -9   1   19.89    4.68
   5   9  -1   23.97    3.23
  -5  -9   1   16.49    3.38
  -6   2  -9    5.61    2.14
   6  -2   9   12.38    2.48
  -6   2  -9   11.87    2.95
   7   7   6   79.95   20.48
   7   7   6   61.68    7.50
  -7  -7  -6   32.95    9.12
  -7  -7  -6   47.86   10.14
   7   7   6   59.64    8.68
   7   7   6   87.69    9.08
   7   7   6   83.07   11.64
   8  -3  -2    3.05    1.05
   8  -3  -2    4.41    2.47
   8  -3  -2    5.13    3.32
   1  -2  12  150.81   15.76
   7  -4   5   29.95    3.71
  -7   4  -5   31.87    6.03
  -6   6  -4   18.19    3.96
   6  -6   4   17.53    2.77
  -6   6  -4    6.59    6.38
   3   7  -7   88.91    9.67
  -3  -7   7   41.40   11.17
  -3  -7   7   62.84    8.78
   8  -1  -4    0.25    2.89
   8  -1  -4    1.49    2.98
   8  -1  -4    0.99    5.78
   1  -6   9    4.14    1.24
  -1   6  -9    5.18    3.36
  -1   6  -9   -0.85    2.93
  -1   6  -9    4.73    1.32
  -7   3   6   12.90    1.88
   7  -3  -6   10.91    4.58
   7  -3  -6    8.31    3.98
  -4   9   3   56.50    5.99
   4  -9  -3   49.35    6.86
  -4   9   3   34.70    6.95
   4  -9  -3   31.68    6.58
   0  -2  12   29.81    4.57
  -3   1 -12   14.72    4.59
   3  -1  12   31.11    5.04
   3  10   7    8.25    3.20
  -3 -10  -7    1.68    3.01
  -3 -10  -7    6.51    1.67
   3  10   7    3.25    2.42
  -3 -10  -7    7.74    2.50
  -6  -8  -7   15.43    4.37
  -6  -8  -7   17.74    2.79
   6   8   7   12.14    2.52
   6   8   7    8.89    3.68
  -6  -8  -7   21.49    3.79
   7   1   9   24.21   10.27
  -7  -1  -9   32.56   16.63
  -7  -1  -9   28.31    4.37
  -7  -1  -9   25.46    5.17
   7   1   9   13.74    5.68
   7   1   9   20.51    3.04
   0   2  13   30.38    8.33
   0  -2 -13   49.60   13.87
   0  -2 -13   63.48   16.14
   0   2  13   14.57    8.12
   7  -5   3   15.71    2.43
  -7   5  -3    9.76    3.71
   1  -5  10   -0.53    2.01
   1  -5  10   -0.05    1.02
  -1   5 -10    0.54    0.99
  -1   5 -10   -2.01    3.98
  -2  -2 -13   53.16   16.36
   2   2  13   80.27   11.48
  -2  -2 -13   48.08    8.92
   2   2  13   44.19    9.67
  -2  -3 -13    0.26    2.97
  -2  -3 -13    3.73    9.98
   2   3  13    2.99    6.30
  -8  -2  -7   47.62    5.90
   8   2   7   39.71    7.13
   8   2   7   40.01    5.72
   8   2   7   61.36    8.66
   8   2   7   38.25    7.35
   6   5  -6   12.25    2.40
  -6  -5   6   14.73    2.50
  -6  -5   6   13.39    4.98
   6   5  -6   21.42    3.51
  -5   8  -1   68.87    9.27
  -5   8  -1   65.17    6.60
   5  -8   1   62.79    7.53
  -5   8  -1   65.03    9.00
   1   6  -9  176.81   15.98
  -1  -6   9  207.16   16.72
   1   6  -9  134.55   16.02
   1   6  -9  159.39   17.13
  -1  -6   9  124.73   15.76
   6   2  -8   30.04    5.43
  -6  -2   8   47.96    9.04
   6   2  -8   39.06    4.64
  -6  -2   8   44.48    5.14
  -4   2 -11    2.40    2.58
   4  -2  11    0.99    0.30
   4  -2  11    2.83    2.22
  -1  -1 -13   12.29    8.86
  -1  -1 -13   19.22    8.56
   1   1  13    6.08    5.25
  -2  10   5   24.99    4.15
   2 -10  -5   26.34    3.39
   2 -10  -5   13.03    4.39
   2 -10  -5   27.64    4.08
   2 -10  -5   17.18    3.12
  -2  10   5   13.37    8.83
   0  -7   8   38.94    5.26
   0   7  -8   37.29    4.46
   0   7  -8   45.94    6.27
   0   7  -8   32.02    4.69
   0  -7   8   35.44    4.52
  -4   5  10    8.88    3.00
  -4   5  10    5.36    3.93
   4  -5 -10    4.72    7.51
  -4   5  10   10.00    3.51
  -2  -3  11    2.40    3.56
   2   3 -11   -2.31    4.05
  -5  -9  -7    8.52    2.42
   5   9   7    7.28    3.11
   5   9   7    8.48    9.56
   5   9   7    6.40    2.67
  -5  -9  -7    1.76    2.92
  -5  -9  -7    8.37    2.59
  -5  -9  -7    8.30    2.05
   0  -3 -13   37.82   12.37
   0   3  13   20.14    5.83
   0   3  13   28.29    6.79
   0   3  13   11.67    6.91
   0  -3 -13   46.05   14.45
  -3   5  11   -4.51    4.21
  -3   5  11    2.12    2.48
   3  -5 -11    0.89    7.72
  -3   5  11    2.62    1.55
  -3   5  11    0.65    4.03
   2  -8   6    0.23    1.37
  -2   8  -6   -0.09    0.89
  -2   8  -6    0.09    1.27
   4  -9   0   14.73    3.03
  -4   9   0   17.51    2.69
  -4   9   0   15.43    3.70
  -4   9   0    7.02    6.51
  -4   9   0   16.34    2.16
   8   5  -1   23.82    3.83
   8   5  -1   25.14    3.28
   8   5  -1   26.66   11.63
   8   5  -1   24.14    3.45
  -8  -5   1   23.24    4.81
   8   5  -1   31.74    9.62
  -8  -5   1   17.09    3.50
   8  -3   3    4.63    1.09
  -8   3  -3    3.61    7.82
   8  -3   3    3.46    0.63
   7   4   9  118.18   16.66
   7   4   9   91.07   14.57
  -7  -4  -9  123.14   12.52
  -7  -4  -9  136.95   14.16
   7   4   9  116.16   11.62
  -2   9  -4   27.49    3.17
  -2   9  -4   21.01    2.99
   2  -9   4   24.22    4.02
   8   3   7   62.11    9.00
   8   3   7   46.80    8.28
   8   3   7   56.37    6.90
  -8  -3  -7   64.24    7.66
   1 -10   2    0.25    0.99
  -1  10  -2    0.08    1.33
  -1  10  -2    0.23    1.19
   1 -10   2    0.63    1.81
  -1  10  -2    0.11    0.99
  -1  10  -2    0.41    1.31
  -6   5  -6   -0.05    0.10
  -6   5  -6    3.36    2.16
   6  -5   6    3.83    1.44
   5   7  10   46.27    5.30
   5   7  10   28.98   14.11
   5   7  10   41.13    8.20
  -5  -7 -10   31.03    5.87
  -5  -7 -10   43.08    6.38
   5   7  10   15.98    5.65
   6   6  -5    1.05    1.39
  -6  -6   5   -0.52    2.95
   6   6  -5    0.62    1.51
  -6  -6   5    0.34    1.18
  -3  -2  11   16.87    6.33
   3   2 -11   41.49    4.86
  -3  -2  11   38.02    4.74
   3   6  12    9.55    3.24
  -3  -6 -12   25.09    3.92
  -3  -6 -12   22.42    3.31
   3   6  12   18.38    7.14
  -3   3 -11    4.44    1.01
  -3   3 -11    2.80    3.41
   3  -3  11    2.66    0.70
   3  -3  11    6.68    2.27
   7   7  -1   32.12    4.67
   7   7  -1   31.63    4.33
  -7  -7   1   31.59    4.87
  -7  -7   1   35.52    6.23
   7   7  -1   34.88    3.96
   8   2  -4   88.49    9.34
   8   2  -4  126.28   14.94
  -8  -2   4   87.68   11.97
   8   2  -4   95.43   16.38
   1   4  13    9.20    5.28
   1   4  13   16.03    8.27
   1   4  13   11.47    4.45
   6  -7   1  166.41   14.46
   6  -7   1  116.08   14.84
  -6   7  -1   94.97   13.85
  -3  -9   4    2.00    1.72
  -3  -9   4    0.79    1.68
   3   9  -4    1.81    1.55
  -3  -9   4    1.08    3.86
   4  -1 -11  136.96   16.94
  -4   1  11   84.43   12.81
  -4   1  11  118.47    9.92
   4   9  -3   76.04    8.73
  -4  -9   3   68.70    9.29
  -4  -9   3   70.24   11.90
  -4  -9   3  103.07   10.46
   1   5 -10   82.62   11.38
  -1  -5  10   79.85   11.82
   1   5 -10   58.88   10.45
  -1  -5  10  148.80   12.46
   8   1   7   26.16   11.18
   8   1   7   27.94    5.92
   8   1   7   23.80    6.02
   8   1   7   22.98    4.82
  -8  -1  -7   42.20   18.25
  -8  -1  -7   33.57    4.46
   8   1   7   44.31    7.12
   8   6   3   45.86    5.35
   8   6   3   52.30   10.66
   8   6   3   38.83    6.17
   8   6   3   59.92    6.27
   8   6   3   53.71   16.59
  -8  -6  -3   23.97    5.91
   0   1  13   17.44    5.97
   0   1  13    9.20    5.52
   0  -1 -13   18.08    9.15
   0  -1 -13   22.90   10.16
  -2   9   8   67.10    9.20
   2  -9  -8   34.35    5.78
   2  -9  -8   20.90    7.15
   2  -9  -8   77.33    7.97
   2  -9  -8   72.11    7.81
  -4   2  11  134.32   17.06
  -4   2  11  147.59   13.58
   4  -2 -11  149.92   19.98
   5  -8  -4   36.87    5.96
   5  -8  -4   25.32    5.74
   5  -8  -4   37.24    3.84
  -5   8   4   44.48    5.29
   8   6   2   58.03    6.24
  -8  -6  -2   32.14    6.03
   8   6   2   48.68    7.13
   8   6   2   58.57   17.26
   8   6   2   65.55   12.58
   8   6   2   68.77    7.36
   6  -7  -3    1.09    1.96
  -6   7   3    3.08    1.14
  -6   7   3    1.78    3.04
   6  -7  -3    2.21    1.99
   0   9  -5    7.95    1.85
   0   9  -5    7.46    1.76
   0  -9   5    7.13    1.63
   5  -1 -10  128.21   17.99
  -5   1  10   95.91    9.21
  -5   1  10   94.12   13.12
   4  10   6   29.76    5.07
  -4 -10  -6   45.12    5.76
   4  10   6   24.86    3.02
  -4 -10  -6   39.81    5.00
  -4 -10  -6   39.36    5.13
   4  -7   6   57.34    6.82
  -4   7  -6   39.62    7.55
   1   7  -8   55.18    6.13
   1   7  -8   48.81    5.98
  -1  -7   8   60.44    6.59
  -1  -7   8   42.36    5.83
   7   6  -3   15.71    2.70
  -7  -6   3   17.85    4.84
   7   6  -3   19.31    3.08
  -7  -6   3    8.88    4.85
  -7  -6   3   14.21    2.69
  -4  -5 -12   34.23    4.59
  -4  -5 -12   35.93    6.59
   4   5  12   25.77    8.52
  -4 -10   0   14.03    2.48
   4  10   0   11.81    2.66
  -4 -10   0   14.70    3.94
   4  10   0   12.48    2.37
  -4 -10   0   12.25    3.09
   4  10   0   14.42    2.64
  -3   7  -7   57.81    5.60
  -3   7  -7   36.09    6.38
   3  -7   7   67.22    7.86
  -4   8  -4    0.34    2.98
   4  -8   4    1.80    1.50
  -4   8  -4    0.82    2.71
  -4   8  -4    0.53    1.45
  -1  -9   5   28.48    3.73
  -1  -9   5   24.42    4.13
   1   9  -5   23.75    3.27
   5   8   9   -0.91    7.25
   5   8   9    2.33    2.70
  -5  -8  -9    3.01    1.94
   7  -5  -4  224.53   21.59
   7  -5  -4  187.11   32.03
  -7   5   4  109.67   10.68
   7  -5  -4  147.16   20.64
   2   1  13  142.60   17.89
  -2  -1 -13   85.04   19.43
   2   1  13  185.04   19.70
  -2  -1 -13   76.28   12.00
  -1   7  -8   39.76    5.59
   1  -7   8   50.75    5.57
  -1   7  -8   50.12    7.07
  -4  -8 -10    2.80    1.60
   4   8  10    4.81    3.74
  -4  -8 -10    5.29    1.79
   4   8  10    1.76    7.19
  -4  -8 -10    5.10    2.65
  -4  -8 -10   -0.40    3.52
  -4   0 -12   31.25    3.79
  -4   0 -12   31.12    6.26
   4   0  12   51.41    8.44
  -4   0 -12   20.63   11.77
   4   0  12   75.40   11.27
   6   4  -7   61.21    6.98
  -6  -4   7   42.40    4.88
  -6  -4   7   31.19    7.55
   6   4  -7   38.73    5.09
   1  11   3   18.19    3.51
  -1 -11  -3   19.77    3.31
   1  11   3   18.40    2.99
   1  11   3   21.22    3.64
   6  -5  -7    0.97    2.76
   6  -5  -7    2.03    8.08
  -6   5   7    0.91    1.01
  -6   5   7    0.34    1.16
   6  -5  -7    1.53    2.69
   2 -10   1    2.91    1.88
   2 -10   1    3.60    1.35
  -2  10  -1    3.11    1.36
  -2  10  -1    4.28    1.58
  -2  10  -1    4.60    1.54
   8  -1   6   -0.25    1.98
   8  -1   6    0.73    4.03
  -8   1  -6    3.27    8.94
   8  -1   6    2.02    0.94
   8  -1   6   -0.25    3.01
   3  -9   3   36.48    5.13
  -3   9  -3   31.27    3.69
   3  -9   3   34.44    3.93
  -3   9  -3   34.23    3.82
   2  -2  12  196.61   20.03
  -2   2 -12   55.95   12.46
  -2  -4 -13    5.60    3.50
   2   4  13    2.98    8.59
  -6  -9  -3   51.24    7.97
   6   9   3   64.36    7.06
  -6  -9  -3   65.99    6.62
  -6  -9  -3   55.44    6.94
   6   9   3   53.13    7.29
  -6  -9  -3   38.62    7.81
   6   9   3   54.54    6.62
  -8   2  -5   30.31   15.68
   8  -2   5   30.66    3.24
   8  -2   5   34.90    3.75
  -7  -3   6   24.84    3.20
  -7  -3   6   30.89    6.76
   7   3  -6   25.86    3.73
   7   3  -6   52.11    6.83
  -1 -10  -8    2.31    2.87
   1  10   8    0.81    2.55
  -1 -10  -8    1.96    2.02
  -4   9   4   67.73    7.72
   4  -9  -4   53.17    7.23
   4  -9  -4   55.62    5.76
  -7   0   7   24.39    2.74
  -7   0   7   15.87    4.16
  -7   0   7   30.72    6.30
   7   0  -7   18.83    7.58
   7   0  -7   37.01    9.18
  -5   2  10   28.06    7.66
  -5   2  10   51.67    8.64
   5  -2 -10   53.75   11.56
  -5   2  10   47.60    5.42
  -1   9   9  131.59   15.93
   1  -9  -9  142.78   12.61
   1  -9  -9  152.43   13.62
   4   8  -5   29.32    4.06
  -4  -8   5   33.17    4.49
  -4  -8   5   23.66    4.72
  -4  -8   5   23.14    6.76
   8   5   6    5.80    2.43
   8   5   6    7.39    1.89
   8   5   6    9.22    4.70
   8   5   6    8.89   10.14
   8   5   6    5.98    2.20
   8   5   6    6.13    1.47
   1  11   2    6.89    2.19
  -1 -11  -2    7.09    2.04
  -2  -1  12   41.07   11.44
  -2  -1  12   99.03    9.47
   2   1 -12   78.76    7.99
   7  -1  -7   26.92    8.02
  -7   1   7   31.59    5.00
   7  -1  -7   46.37   11.09
  -7   1   7   46.82    7.60
   4  -8  -7   20.63    4.53
   4  -8  -7   12.21    5.34
  -4   8   7   52.22    7.35
  -5   6   8   45.55    5.65
  -5   6   8   29.66    4.57
   5  -6  -8   65.62    8.96
   5  -6  -8   26.56    6.51
   3   4 -10   23.60    4.96
  -3  -4  10   25.65    8.77
  -3  -4  10   60.60    6.56
   3   4 -10   37.51    5.27
   8   6   4   50.24    9.85
   8   6   4   51.25    5.43
   8   6   4   51.06    5.24
   8   6   4   34.59    5.72
   8   6   4   33.76    5.18
  -8  -6  -4   24.46    6.04
   8   6   4   47.30   16.30
   8   6   4   35.43    4.73
   0   4 -11   22.54    6.90
   0  -4  11   24.65    4.73
   0  -4  11   51.91    5.48
   4   7  11   -0.04    0.56
  -4  -7 -11    1.74    1.37
   4   7  11    1.97    7.83
  -4  -7 -11    0.49    1.34
   4   7  11    2.09    4.81
   4   7  11   -0.36    3.73
   1 -10  -7   64.66    7.31
   1 -10  -7   69.47    7.60
  -1  10   7   36.46   14.08
  -1  10   7   90.01   10.82
   5   0 -10  145.96   17.78
  -5   0  10  112.90   14.81
  -5   0  10  116.00   10.51
  -2 -10  -8   28.41    4.85
   2  10   8    9.50    3.74
  -2 -10  -8   27.78    4.16
  -2 -10  -8   25.10    3.43
   7   6   8    5.71    3.29
   7   6   8    6.20    3.18
  -7  -6  -8    4.96    2.18
  -7  -6  -8    4.56    1.41
   7   6   8    2.65    2.43
   7   6   8    2.21    9.83
  -6  -9  -4   61.39    6.26
  -6  -9  -4   47.91    7.64
   6   9   4   49.76    6.26
   6   9   4   43.74    6.79
  -1 -11  -4    6.42    2.40
   1  11   4   13.78    2.46
   1  11   4   14.89    3.20
   1  11   4    7.80    2.59
  -6  -9  -2   40.13    7.09
   6   9   2   50.48    7.10
   6   9   2   64.33    6.85
   6   9   2   54.71    6.53
  -6  -9  -2   46.66    7.40
  -6  -9  -2   54.06    6.75
   1   8  11   20.29   10.30
  -1  -8 -11   19.56    5.03
  -1  -8 -11   18.98    3.68
   1   8  11   16.25    5.41
  -8  -6  -1    5.70    2.90
   8   6   1   11.70    6.78
   8   6   1   10.76    1.70
   8   6   1    8.86    2.45
  -8  -6  -1   12.95    3.37
   8   6   1   13.63    2.95
   8   6   1    9.54    2.04
   8   6   1   12.65   10.38
  -1  -2  12    0.77    3.50
   0   4  13    4.92    3.11
   0   4  13    5.84    4.57
   0   4  13    3.00    5.06
   0  -4 -13    2.92    3.34
   1  -4  11   28.70    3.90
   1  -4  11   15.78    2.88
  -1   4 -11   28.15    3.41
  -1   4 -11    7.30    6.15
   4   0 -11   43.48    9.76
   4   0 -11   66.29    8.15
  -4   0  11   65.90    6.87
  -4   0  11   33.24    8.47
   8  -2  -4   34.47    7.94
   8  -2  -4   46.85    8.29
   2  11   3   32.71    5.48
   2  11   3   49.39    5.94
  -2 -11  -3   50.06    5.38
  -2 -11  -3   36.41    5.87
  -2 -11  -3   47.40    5.52
  -2 -11  -3   29.34    6.18
   8  -3  -3  128.93   17.90
   8  -3  -3  148.19   17.14
   2   8  11   15.37    9.91
  -2  -8 -11   52.78    6.57
  -2  -8 -11   56.23    8.27
   2   8  11   38.68   13.93
  -2  -8 -11   46.10    5.19
   5   3  -9    1.94    1.69
   5   3  -9   -1.85    2.72
  -5  -3   9    0.57    1.29
  -5  -3   9    0.28    2.67
   5   3  -9    0.29    2.16
   9   1   1   22.52    2.54
   9   1   1   14.37    7.45
   9   1   1   23.96    4.54
   9   1   1   32.29    7.70
   9   1   1   24.10    7.05
   9   1   1   20.05    2.77
   9   1   1   21.59    3.46
   6   8  -2    1.24    1.48
  -6  -8   2    1.80    2.87
  -6  -8   2    1.71    2.49
  -6  -8   2    1.47    1.65
   6   8  -2    1.88    1.17
   8   4   7   34.64    5.60
  -8  -4  -7   30.85    4.53
   8   4   7   31.03    3.96
   8   4   7   23.00    3.43
   8   4   7   23.31    5.06
   9   1   2    7.69    4.72
   9   1   2   12.17    2.57
   9   1   2   12.81    2.97
   9   1   2    4.59    6.17
   9   1   2   16.45    5.67
   9   1   2   10.49    1.72
   4  -3 -11   34.20   15.13
   4  -3 -11   57.44   11.32
  -4   3  11   79.33    8.42
  -4   3  11   84.46   11.65
   4  -9   1   12.48    2.01
  -4   9  -1   14.89    2.55
  -4   9  -1    9.87    2.96
  -4   9  -1   16.42    2.02
   4  -9   1   11.80    2.73
   7   0   9    0.95    1.57
   7   0   9    1.05    3.33
  -7   0  -9    0.60    1.94
  -7   0  -9    1.14    1.44
  -7   0  -9    1.12    8.85
   7   0   9   -0.70    5.70
   0  11   3   35.66    4.98
   0 -11  -3   28.72    5.36
   0  11   3   28.34    5.05
  -2   5 -10   -0.58    4.74
  -2   5 -10    1.00    0.91
   2  -5  10    3.18    1.87
   2  -5  10    1.65    1.79
   2  -5  10    0.75    0.72
   9   2   2   15.01    2.29
   9   2   2   15.86    3.06
   9   2   2   17.74    3.58
   9   2   2   22.20    6.51
   9   2   2   21.90    5.52
  -2   6  -9   -1.90    3.88
   2  -6   9    3.95    1.93
   2  -6   9    4.03    1.07
   5  -1  11   16.13    5.85
   5  -1  11    8.02    3.20
  -5   1 -11    4.93    2.71
   6   7   9  124.34   14.63
  -6  -7  -9  116.23   12.44
   6   7   9   95.90   23.69
   6   7   9  137.82   13.39
  -6  -7  -9   77.88   13.00
  -6  -7  -9  105.12   10.80
  -2 -11  -2   31.60    6.14
  -2 -11  -2   41.31    5.01
  -2 -11  -2   29.01    5.64
   2  11   2   34.94    5.10
  -2 -11  -2   42.08    4.88
   2  11   2   44.96    5.42
   2  11   2   33.98    5.18
  -2 -11  -4   44.59    5.17
   2  11   4   37.14    4.48
   2  11   4   32.42    5.34
  -2 -11  -4   24.22    5.71
  -2 -11  -4   48.56    4.86
  -2 -11  -4   28.27    4.33
  -1   0 -13    1.41    6.59
  -1   0 -13    3.57    5.67
   1   0  13   11.42    3.43
   1  -6 -12   78.14   12.29
  -1   6  12   89.55   10.87
  -1   6  12   76.50   14.26
  -1 -10   3   28.44    4.86
   1  10  -3   25.16    3.50
  -1 -10   3   25.46    3.64
   1  10  -3   22.99    3.29
   1  10  -3   19.60    3.30
   0 -11  -2   55.06    8.46
   0  11   2   75.60    7.80
   0  11   2   62.39    7.47
   0  11   2   51.77    7.44
   0 -11  -2   74.46    7.76
   9   2   1   10.04    2.34
   9   2   1   11.13    1.73
   9   2   1   12.65    5.94
   9   2   1    8.19    4.32
   9   2   1   11.12    3.22
   9   2   1   11.87    1.94
   6  -6  -6   36.72    7.46
   6  -6  -6   47.02    7.91
  -6   6   6   31.88    3.81
  -6   6   6   51.80    4.86
   3   8  -6    3.61    1.56
   3   8  -6    3.63    1.57
  -3  -8   6   -1.61    4.07
  -3  -8   6    3.56    1.68
  -3  -8   6    3.47    1.82
  -7  -1   7    7.83    1.38
  -7  -1   7   10.08    4.03
   7   1  -7    3.81    4.59
   7   1  -7   11.22    4.99
  -7  -1   7    3.39    2.76
  -5   8  -2   50.52    7.62
  -5   8  -2   41.51    4.81
   5  -8   2   53.48    6.61
   5  -8   2   47.06    5.11
  -5   8  -2   39.45    6.47
  -5   5   9   54.90    7.66
  -5   5   9   44.36    5.72
   5  -5  -9   61.73    9.62
   5  -5  -9   55.13   16.97
   5  -5  -9   27.60    7.34
   7   8   3    3.99    1.46
  -7  -8  -3    1.06    2.67
  -7  -8  -3    2.66    1.80
   7   8   3    4.40    1.59
  -7  -8  -3    1.85    3.40
   7   8   3    2.93    1.93
   5   6  11   -1.29    5.56
   5   6  11    0.96    1.83
  -5  -6 -11    0.64    2.09
   5   6  11   -0.38    4.36
  -5  -6 -11   -1.29    2.84
  -6   4   8   38.90    5.10
   6  -4  -8   19.84   12.72
   6  -4  -8   49.81    8.68
   6  -4  -8   22.97    6.60
  -6   4   8   27.81    3.73
  -1   9  -5   10.48    2.05
  -1   9  -5    9.31    1.97
   1  -9   5   10.58    2.60
  -3  -3 -13   10.24   10.01
   3   3  13    1.89    4.49
  -3  -3 -13   10.18    4.02
   3   3  13    3.19    7.26
   6  -1  10   54.66    5.67
  -6   1 -10   50.28    6.23
   6  -1  10   18.78    3.94
  -6   1 -10   34.84    5.85
  -6   1 -10   31.94   14.54
   1  -2 -13   81.68    8.03
  -1   2  13   93.45    9.79
   1  -2 -13   75.94   17.23
  -1   2  13   48.33   10.46
   1  -2 -13   42.07   14.92
  -4  -3  10   16.43    6.42
   4   3 -10   16.12    4.45
   4   3 -10   44.62    4.53
  -4  -3  10   39.08    4.72
   0  10  -3   12.93    2.54
   0  10  -3   11.71    2.29
   0  10  -3   13.78    2.42
   1  11   1   92.87   10.83
  -1 -11  -1  109.97   11.62
   1  11   1  102.97   10.96
   8   4  -3    8.00    8.14
   8   4  -3    6.84    1.81
  -8  -4   3    5.22    3.01
   8   4  -3    8.13    6.42
   8   4  -3   10.70    3.78
  -8  -4   3    6.44    1.70
   8   4  -3    7.15    1.61
   3   2  13    2.68    5.64
   3   2  13    0.43    3.87
  -3  -2 -13    1.88    8.15
  -3  -2 -13    2.20    3.08
   3  -9  -7    5.28    2.24
  -3   9   7    8.70    3.61
   3  -9  -7    4.48    2.62
   3  -9  -7    2.35    1.94
   3  -9  -7    3.91    3.26
   6  -7   2   58.46    7.09
  -6   7  -2   37.92    8.68
   3  -2 -12   94.25   12.46
  -3   2  12   32.25   10.36
  -3   2  12   54.87   10.29
  -6  -7   4    4.53    3.80
   6   7  -4   12.37    2.43
  -6  -7   4    4.94    3.51
   6   7  -4    6.32    1.94
  -6  -7   4   11.53    3.02
  -3 -10   2    0.56    1.59
   3  10  -2    0.98    1.13
   3  10  -2    0.23    1.22
   3  10  -2    0.30    1.17
  -3 -10   2    0.08    1.68
  -3 -10   2    0.92    2.92
  -2   5  12   36.39    9.89
  -2   5  12   48.16    8.01
  -2   5  12   63.98    8.64
   5   8  -4   32.13    4.16
  -5  -8   4   25.34    6.57
  -5  -8   4   26.55    5.80
  -5  -8   4   40.82    5.30
   5   8  -4   32.14    4.33
   8  -4   0    9.78    3.72
  -8   4   0   13.32    8.90
   1   9  10   16.01    9.46
  -1  -9 -10   22.41    3.91
  -1  -9 -10   23.71    4.83
   1   9  10   20.99    5.40
   0  10   8   33.64   12.84
   0 -10  -8   56.24    6.60
   0 -10  -8   54.19    6.97
   0  10   8   48.36    7.41
  -8   0  -7    1.20   10.38
   8   0   7   -0.69    5.69
   8   0   7   -0.20    2.51
   8   0   7   -0.84    2.71
  -8   0  -7    0.63    1.01
   7   8   2   58.09    7.06
  -7  -8  -2   49.04    9.43
  -7  -8  -2   45.21    7.81
  -7  -8  -2   62.61    7.48
   7   8   2   69.10    7.17
  -7  -7  -7   51.09    5.64
   7   7   7   67.59    9.22
   7   7   7   59.28    7.48
  -7  -7  -7   40.37    8.80
   7   7   7   43.27    7.08
   7   7   7   44.67   16.18
  -7  -7  -7   58.28    6.78
   7   7   7   43.41    5.80
   0  11   4   39.70    6.59
   0 -11  -4   31.04    5.88
   0  11   4   44.67    6.06
   7  -2  -7   43.94   11.69
  -7   2   7   68.22    9.36
   7  -2  -7   33.15    8.40
  -7   2   7   41.82    5.37
   9   1   0    0.08    0.87
   9   1   0   -0.35    3.57
   9   1   0   -3.59    6.95
   9   1   0   -0.70    4.54
   9   1   0    0.89    0.78
   9   1   0    0.17    2.02
   9   1   0    0.75    1.13
  -2  -6   9   29.94    5.62
   2   6  -9   53.88    6.63
   2   6  -9   48.78    5.58
   2   6  -9   36.23    5.44
  -2  -6   9   50.69    5.74
   9   2   3   27.26    5.88
   9   2   3   31.12    7.51
   9   2   3   21.60    3.82
   9   2   3   27.79    4.14
   9   2   3   19.56    2.73
   6   9   5   75.33   10.82
  -6  -9  -5   89.61   11.28
   6   9   5   89.09   10.14
  -6  -9  -5  106.48    9.78
   2 -10  -6    4.16    2.25
   2 -10  -6    0.81    1.25
   2 -10  -6    2.84    1.55
   2 -10  -6   -0.23    2.65
  -2  10   6    2.68    5.90
  -2  10   6    4.15    2.32
   0   0 -13    5.78    7.76
   0   0 -13   -1.43    5.66
   9   0   1    3.36    1.06
   9   0   1    3.96    4.08
   9   0   1    0.39    5.29
   9   0   1    4.01    3.58
   9   0   1    5.45    2.33
   9   0   1    3.20    1.50
   9   0   1    3.27    0.76
  -7  -8  -4    5.05    3.39
   7   8   4    6.30    4.63
   7   8   4    3.95    1.41
   7   8   4    4.23    1.99
  -7  -8  -4    1.04    3.51
   7   8   4    5.79    1.97
   7   8   4    3.59    7.97
  -3   1  12    2.27    2.80
   3  -1 -12    1.13    1.77
  -3   1  12    0.55    1.86
  -3   1  12   -1.47    3.95
   3  -1 -12   -0.40    4.41
   0  -8   7   62.45    6.89
   0   8  -7   58.84    6.58
   9   1   3   14.81    5.33
   9   1   3    6.70    7.44
   9   1   3   17.61    3.31
   9   1   3   20.61    3.43
   9   1   3   14.06    2.07
   9   1   3   24.88    6.42
  -3  10   2    0.26    1.27
  -3  10   2   -1.36    5.75
   3 -10  -2    1.06    1.58
   3 -10  -2    0.50    1.25
  -3  10   2   -0.13    1.43
   7   5   9   31.55    5.64
  -7  -5  -9   28.69    4.57
   7   5   9   21.84    6.08
  -7  -5  -9   24.74    3.31
   7   5   9   16.78    4.95
   2   9  -5  109.77   11.25
  -2  -9   5  114.08   12.26
  -2  -9   5  107.30   11.90
  -8   3  -4  128.42   26.60
   8  -3   4   98.95    9.91
  -5   3  10    1.05    1.57
  -5   3  10    0.84    3.57
  -5   3  10    0.23    2.52
   5  -3 -10   -2.93    6.46
   7  -6  -1    1.22    1.55
   7  -6  -1    2.45    2.29
  -2  -9 -10  102.79   10.78
  -2  -9 -10  101.97   12.22
   2   9  10   50.38   14.65
  -2  -9 -10   88.22    9.46
   2   9  10   79.17   17.89
  -6  -9  -1  107.92   13.97
  -6  -9  -1  124.42   13.57
   6   9   1  145.18   13.37
   6   9   1  121.43   13.22
   6   9   1  116.04   13.75
  -6  -9  -1  107.18   13.36
  -1   3  13   15.72    4.68
   1  -3 -13   21.78    3.45
   1  -3 -13   21.39    9.93
  -1   3  13   12.38    4.72
  -1   3  13    6.21    5.08
   5  -4   9   75.92    8.03
   5  -4   9   72.52    8.45
  -5   4  -9   44.58    6.39
  -6   7   4    1.59    1.08
   6  -7  -4    1.54    2.13
  -6   7   4   -1.38    3.67
   6  -7  -4    1.29    2.10
   6  -7  -4    1.24    0.75
  -5   7   7   33.31    4.17
   5  -7  -7   36.15    7.07
   5  -7  -7   47.18    7.59
  -5   7   7   17.34    4.26
   7  -6   0    5.07    1.80
   7  -6   0    5.45    2.79
   1  11   5   45.98    5.93
   1  11   5   37.36    6.67
  -1 -11  -5    0.54    0.46
  -8   4  -1   -2.35    8.24
   8  -4   1   -0.19    0.73
   8  -4   1   -0.61    2.60
  -7   5  -4   71.59   10.28
   7  -5   4   80.32    8.54
   7  -3   7   10.14    1.73
   7  -3   7    8.96    1.92
  -7   3  -7    6.03    2.90
  -7   3  -7    7.20    1.47
   4   9   9   54.54    8.07
   4   9   9   28.81    6.46
  -4  -9  -9   51.78    6.47
   4   9   9   41.63   14.66
  -4  -9  -9   45.21    4.95
   1   4 -11   33.58    7.21
  -1  -4  11   33.62    7.04
  -1  -4  11   98.04    7.94
  -1  -7 -12    1.61    2.74
  -1  -7 -12    0.59    1.10
   1   7  12    0.14    0.73
   1   7  12   -0.77    4.12
  -6  -3 -11   24.44    3.18
   6   3  11   17.53    6.93
  -6  -3 -11   32.69    5.33
   6   3  11    9.93   10.78
  -6  -3 -11   31.39    4.57
   9   0   2  133.38   15.94
   9   0   2  146.35   12.67
   9   0   2   98.10   10.01
   9   0   2  120.20   14.79
   9   0   2  106.06   11.22
   9   0   2   84.11   15.40
   9   0   2   96.57    9.66
   6   6  10   11.92    3.35
   6   6  10   11.82    5.16
   6   6  10    4.09    3.23
  -6  -6 -10    9.53    2.00
  -6  -6 -10   13.53    3.43
   0   8  11   31.50    7.43
   0   8  11   23.81   10.61
   0  -8 -11   31.86    5.23
   0  -8 -11   36.18    6.55
   8   6   5   29.13    3.55
   8   6   5   22.97   13.19
  -8  -6  -5   10.88    4.99
   8   6   5   19.89    3.07
   8   6   5   27.56    6.92
   8   6   5   20.30    3.13
   8   6   5   36.91    4.76
   8   6   5   17.71    3.98
  -1  -5 -13   14.49    4.68
   1   5  13    4.79    2.87
   1   5  13    7.59    5.35
  -1  -5 -13    0.04    0.09
  -8   4   1    1.20    6.33
   8  -4  -1   -0.74    6.42
   8  -4  -1    3.43    2.95
   8  -4  -1    2.27    2.16
  -5  -9   2   21.57    4.51
  -5  -9   2   24.47    4.10
   5   9  -2   29.16    3.79
   5   9  -2   27.97    4.29
  -5  -9   2   23.36    5.40
  -6  -2 -11  106.01   10.08
   6   2  11   85.25   17.29
  -6  -2 -11   75.35    8.08
   6   2  11   37.29   10.18
  -6  -2 -11   89.50   10.57
   1  -1 -13   34.40   13.04
   1  -1 -13   47.42   13.03
  -1   1  13   91.78    9.20
   1  -1 -13   49.48    4.91
  -1   1  13   41.51   10.46
  -3  10   3   26.16    3.71
   3 -10  -3   13.84    3.79
  -3  10   3   18.57    4.22
   3 -10  -3   27.51    3.73
   8   3  -4    9.06    1.77
  -8  -3   4    8.63    3.59
   8   3  -4    5.75    6.62
   8   3  -4   13.07    4.16
  -8  -3   4    6.35    1.37
   5  10   3   11.91    2.72
   5  10   3    8.69    2.56
  -5 -10  -3    6.19    3.26
  -5 -10  -3   12.87    2.35
   5  10   3   10.63    2.32
  -5 -10  -3    9.47    2.40
  -5 -10  -3    9.30    2.89
   9   2   0    4.33    1.59
   9   2   0    5.87    1.30
   9   2   0    4.81    1.33
   9   2   0    3.06    2.37
   9   2   0    3.95    4.81
   9   2   0    6.02    4.30
   3  -7 -10   44.43    8.87
  -3   7  10   37.15    7.20
   3  -7 -10   61.68    8.71
   0  11   1   43.56    5.63
   0 -11  -1   46.73    5.33
   0 -11  -1   33.85    5.89
   0  11   1   41.88    5.69
   4  -5   9  177.53   17.96
   4  -5   9  172.39   17.38
  -6   1   9    0.39    1.50
   6  -1  -9   -0.39    5.53
  -6   1   9   -0.24    2.70
  -6   1   9    0.24    2.83
  -3  10   1    1.77    1.71
  -3  10   1    2.46    5.60
  -3  10   1    1.89    1.45
   3 -10  -1    0.34    1.70
   5  -5   8   14.77    2.83
  -5   5  -8    7.56    2.27
  -2  -7 -12    1.28    2.47
  -2  -7 -12    0.19    0.69
  -2  -7 -12   -0.39    1.75
   8   6   0    5.14    1.65
   8   6   0    5.50    1.97
   8   6   0    8.00    2.52
  -8  -6   0    3.78    2.49
   8   6   0    5.65    8.03
  -8  -6   0    6.07    2.84
   8   6   0    5.78    6.37
   8   6   0    6.11    1.25
   1   8  -7   23.27    3.42
  -1  -8   7   28.77    4.41
  -1  -8   7   30.44    4.20
   1   8  -7   26.68    3.60
   8   0  -5   44.87   10.83
   8   0  -5   33.15    8.76
  -8   0   5   48.32    8.30
   2   7  -8   27.01    3.93
   2   7  -8   34.40    4.25
  -2  -7   8   33.85    4.57
  -2  -7   8   26.08    4.38
   8   5  -2   -0.23    1.09
   8   5  -2    0.70    7.39
   8   5  -2   -0.08    1.21
   8   5  -2   -1.11    6.11
  -8  -5   2    0.08    1.21
  -8  -5   2    0.18    2.08
   8   5  -2    0.04    1.19
   5  -8  -5   50.83    7.87
  -5   8   5   59.36    6.82
   5  -8  -5   31.96    7.71
   2   0  13  146.94   16.15
  -2   0 -13   97.21   21.26
  -2   0 -13  106.86   17.82
   9   0   0   19.94    4.45
   9   0   0   20.27    6.45
   9   0   0   18.19    2.91
   9   0   0   13.34    6.84
   9   0   0   17.27    4.75
   9   0   0   18.49    2.12
   9   0   0   16.56    2.44
   9   3   2    3.78    2.55
   9   3   2    3.92    4.54
   9   3   2    1.93    0.96
   9   3   2    2.61    1.67
   9   3   2    2.42    1.58
  -2 -11  -1    3.38    2.06
   2  11   1    5.09    1.91
  -2 -11  -1    5.79    1.82
   2  11   1    7.69    2.20
   2  11   1    4.30    1.72
  -2 -11  -1    2.69    2.81
   7  -2   8   72.51    8.12
   7  -2   8  124.01   13.31
  -7   2  -8   78.41   20.66
  -7   2  -8   58.90    8.48
  -7   2  -8   57.81    6.71
  -5  -3 -12   20.47    4.97
   5   3  12   23.31   12.00
  -5  -3 -12   20.54    2.97
   5   3  12   10.38    6.13
  -5  -3 -12   30.08    3.64
   2  11   5   63.35    6.99
   2  11   5   58.78    8.25
  -2 -11  -5   92.85    8.91
  -2 -11  -5   91.30    9.37
  -5  -1  10   25.35    3.69
  -5  -1  10   13.97    5.63
   5   1 -10   35.19    5.85
   3   4  13   42.19   11.21
  -3  -4 -13   91.99   12.59
   3   4  13   82.80   16.91
  -3  -4 -13   87.94   10.09
   5  10   4  113.92   14.87
  -5 -10  -4  129.39   13.17
  -5 -10  -4  126.41   14.07
  -5 -10  -4  149.86   13.51
   5  10   4  130.70   14.38
   3  -3 -12   79.29   11.92
   3  -3 -12   39.49   15.38
  -3   3  12   67.28   11.19
  -3   3  12   44.33   11.90
   4  -9  -5   46.55    4.88
  -4   9   5   45.97    5.81
   4  -9  -5   37.02    5.89
  -5   7  -5   25.02    4.38
   5  -7   5   22.02    3.46
  -5   7  -5   15.76    6.36
   2   5  13   13.32    4.34
  -3 -10  -8   45.08    6.15
   3  10   8   50.88    6.99
  -3 -10  -8   38.84    4.56
   3  10   8   20.62    5.32
  -5  -2 -12   63.79   20.35
   5   2  12   81.21   16.57
  -5  -2 -12   63.10    9.07
  -5  -2 -12   61.45    6.49
   7  -4  -6    2.26    3.03
  -7   4   6   -0.03    0.76
   7  -4  -6    0.24    2.54
   7  -6  -2    0.37    2.16
   7  -6  -2    0.13    1.86
  -2   4 -11   19.37    2.54
   2  -4  11   27.56    3.74
  -2   4 -11    5.15    6.37
   2  -4  11   14.59    2.16
   4  10   7   25.52    5.49
  -4 -10  -7   40.55    5.08
  -4 -10  -7   41.25    5.16
  -4 -10  -7   46.96    5.93
   4  10   7   63.20    7.79
   6   0  -9   51.74    9.81
  -6   0   9   35.14    7.03
  -6   0   9   11.69    4.78
   2   5 -10   33.97    3.92
  -2  -5  10   32.66    4.28
  -2  -5  10   15.85    4.34
   2   5 -10   23.96    4.59
  -6  -8  -8   37.40    5.54
  -6  -8  -8   34.83    4.49
  -6  -8  -8   26.33    5.91
   6   8   8   32.94    5.98
   6   8   8   25.53    5.29
   4  -4  10    9.17    2.39
   4  -4  10    6.95    2.31
  -4   4 -10    3.59    2.71
  -5 -10  -2   20.60    3.96
  -5 -10  -2   23.82    3.41
   5  10   2   21.77    3.98
  -5 -10  -2   22.96    4.14
  -5 -10  -2   16.21    4.32
   5  10   2   25.65    3.83
  -2   7  -8   14.01    1.97
  -2   7  -8    5.68    2.86
  -2   7  -8   10.91    3.98
   2  -7   8   16.12    2.98
   2  -7   8   13.23    2.05
   9   3   1    0.55    2.35
   9   3   1    0.91    1.46
   9   3   1   -1.09    4.16
   9   3   1    0.16    1.87
   9   3   1    0.13    0.95
  -6  -3   8   53.21    6.03
   6   3  -8   44.14    6.54
   6   3  -8   89.85    8.89
   2  10  -3   47.04    6.02
  -2 -10   3   69.40    8.43
  -2 -10   3   49.69    6.46
   2  10  -3   55.23    6.10
   2  10  -3   48.99    6.21
   2  10  -3   52.03    5.95
   4  10  -1   37.45    5.60
  -4 -10   1   42.61    7.39
  -4 -10   1   36.69    5.57
  -4 -10   1   38.86    5.71
   4  10  -1   49.07    5.53
   4  10  -1   43.96    5.47
   7  -6   1    0.19    1.16
   7  -6   1    0.55    2.04
   7  -6   1    0.12    0.88
  -3  -1 -13   15.59    5.25
  -3  -1 -13    7.85    8.76
   3   1  13   31.66    7.61
   3   1  13   22.06    5.88
   9   3   3   71.06    8.51
   9   3   3   81.49    8.75
   9   3   3   65.84    6.72
   9   3   3   83.56    9.89
   8   1  -5   11.92    2.55
   8   1  -5   12.89    2.88
  -7  -8  -1   52.09    6.87
  -7  -8  -1   37.27    8.33
  -7  -8  -1   42.38    6.87
   7   8   1   65.12    7.14
   3   8  11    6.88    8.92
   3   8  11   14.22    5.34
   3   8  11    4.67    6.25
  -3  -8 -11   11.64    3.88
  -3  -8 -11   12.73    2.80
  -3  -8 -11   11.05    2.06
   6  -6   5   27.71    3.81
  -6   6  -5   17.61    8.22
  -6   6  -5   30.82    5.41
   5   9   8   34.59    5.96
  -5  -9  -8   30.96    4.60
  -5  -9  -8   32.42    4.20
   5   9   8   22.13   11.91
   5   9   8   21.05    4.89
  -5  -9  -8   32.01    5.03
  -7  -7   2    0.70    1.61
   7   7  -2    2.09    1.57
  -7  -7   2    3.24    2.96
   7   7  -2    2.54    1.57
   7   7  -2    5.49    2.16
   7   7  -2    3.56    1.53
  -2   8  10   28.95    6.10
   2  -8 -10   37.40    6.73
   2  -8 -10   39.55    5.40
  -4  -1  11    7.51    4.01
   4   1 -11   12.74    3.16
  -4  -1  11   10.74    2.60
   3  -8  -9   89.04    8.64
  -3   8   9   55.06   11.96
   3  -8  -9   64.85    8.59
  -3   8   9   56.77    8.17
  -1   8  -7   47.94    5.50
  -1   8  -7   43.84    5.64
   1  -8   7   49.17    5.52
   1  -8   7   50.55    6.40
   8  -1  -5    2.71    3.30
  -8   1   5    6.68    3.28
   8  -1  -5    0.51    6.86
   6  -2  -9   10.14    5.27
   6  -2  -9   16.26    7.85
  -6   2   9   24.13    3.27
  -6   2   9   16.58    4.93
  -6   2   9   23.60    5.61
   5  -3  10   77.51    8.45
  -5   3 -10   37.04    6.00
  -6  -4 -11    2.04    2.13
  -6  -4 -11    0.15    1.02
   6   4  11    0.42    3.65
   6   4  11    0.66    5.20
   9   0   3   33.63    8.66
   9   0   3   57.71    9.25
   9   0   3   45.27    5.79
   9   0   3   37.50    4.21
   9   0   3   39.23    8.59
   7   8   5    1.70    1.87
   7   8   5    1.15    1.72
   7   8   5   -0.93    7.43
   7   8   5    0.54    0.80
   7   8   5    0.97    3.46
   7   8   5    1.72    1.11
  -7  -8  -5    1.25    1.31
  -7  -8  -5   -0.26    2.75
  -7  -8  -5    0.52    3.86
   0  -9 -10    0.37    3.46
   0  -9 -10    7.98    2.82
   0   9  10    2.56    5.97
   0   9  10    4.24    3.59
   0  -9 -10    9.35    3.45
  -8   4  -2    5.08    8.76
   8  -4   2    2.65    1.11
   8  -4   2    5.66    3.05
   0 -11  -5    7.14    3.45
   0 -11  -5   10.88    1.71
   0  11   5   17.04    3.44
   0  11   5   10.09    2.53
   0  11   5   11.22    3.52
   2 -10   2    1.79    1.93
  -2  10  -2    2.92    1.51
  -2  10  -2    1.45    1.07
  -2  10  -2    1.08    1.19
   2 -10   2    1.60    1.09
  -7   4  -6   88.00   11.53
   7  -4   6  104.22   10.77
   9   2   4   66.97   11.01
   9   2   4   53.69    8.97
   9   2   4   58.27    7.40
   9   2   4   71.25    6.58
   9   2   4   46.85    7.48
   3  11   3   51.88    6.53
   3  11   3   42.98    6.65
   3  11   3   59.82    6.86
  -3 -11  -3   56.25    6.30
  -3 -11  -3   44.81    6.29
  -3 -11  -3   59.67    6.32
   3   0 -12   31.69    4.31
  -3   0  12   13.57    5.42
   3   0 -12   16.85    7.25
  -3   0  12   27.53    3.95
  -2   7  11    6.90    3.97
   2  -7 -11    8.69    4.14
   2  -7 -11    8.64    3.34
   9   1  -1   15.40    4.40
   9   1  -1   14.74    6.28
   9   1  -1    9.86    5.28
   9   1  -1    9.55    1.55
   9   1  -1   10.57    1.94
   9   1  -1    4.82    5.13
   9   1  -1   10.47    2.22
  -3  10   4   69.13   10.78
  -3  10   4   40.59   15.82
   3 -10  -4   71.00   11.85
   3 -10  -4   89.09   11.04
  -1  10  -3    0.56    1.19
  -1  10  -3    0.70    1.35
   1 -10   3    0.90    1.66
  -1  10  -3    1.12    1.04
   1 -10   3    1.37    1.03
   0   5  13    2.18    2.24
   0   5  13   -3.80    7.75
   0  -5 -13    0.86    3.02
   0   5  13    1.39    4.02
  -4  -6 -12   26.03    3.59
  -4  -6 -12   28.98    5.58
   4   6  12   15.90    6.94
   8  -4  -2   79.99   19.63
  -8   4   2   95.96   17.10
   8  -4  -2   58.71    6.54
   8  -4  -2   59.85    9.97
  -1 -11   0   33.36    4.66
   1  11   0   28.71    4.33
   1  11   0   30.72    4.47
  -1 -11   0   42.85    4.88
  -4   6  -8   52.71   11.05
   4  -6   8   93.91   10.39
   3  -2  12    1.03    2.17
  -3   2 -12   -0.33    2.82
  -6  -1 -11   27.16    4.10
   6   1  11    8.04    5.38
  -6  -1 -11   23.51    4.54
  -6  -1 -11   19.66    2.25
   6   1  11   15.98    1.67
  -5  -4 -12    4.00    2.79
  -5  -4 -12    4.75    1.43
  -5  -4 -12    3.78    1.33
   5   4  12    3.16    4.40
   7  -5  -5   41.91    8.62
   7  -5  -5   58.23   18.10
  -7   5   5   37.87    4.08
   7  -5  -5   78.36   10.00
   0  -7 -12   73.35    8.86
   0  -7 -12   63.55   10.60
   0   7  12   48.38   11.18
   0   7  12   72.75    8.00
  -4   4  11    0.97    3.93
  -4   4  11    7.04    3.63
  -4   4  11    5.42    2.19
  -7  -2   7    2.27    1.06
   7   2  -7    6.58    3.66
   7   2  -7    0.72    1.97
   9   1   4   50.15    6.53
   9   1   4   42.78    4.58
   9   1   4   44.48    8.48
   9   1   4   68.13   10.12
   9   1   4   45.67   12.13
  -1   4  13    2.20    2.36
  -1   4  13   -0.71    4.52
  -1   4  13    0.44    3.59
  -1   4  13    2.56    3.20
   1  -4 -13    1.78    2.80
   4  -7  -9   39.97    8.53
  -4   7   9   78.06    9.76
   4  -7  -9   69.16   10.36
  -4   7   9   64.98   11.46
  -3 -11  -4   52.40    5.55
   3  11   4   55.50    6.65
   3  11   4   37.96    6.24
  -3 -11  -4   41.45    5.02
  -3 -11  -4   47.06    5.64
   3 -10   0    9.48    1.92
  -3  10   0    8.78    2.65
  -3  10   0    9.08    2.17
  -3  10   0    5.06    5.30
   3 -10   0    5.98    2.24
  -3  10   0    7.15    1.69
  -5 -10  -5   93.74    8.78
  -5 -10  -5   75.15    9.16
   5  10   5   72.36    9.12
   5  10   5   70.72    9.84
  -5  -6   7   22.36    3.34
   5   6  -7   24.28    3.65
   5   6  -7   17.91    3.08
  -5  -6   7   10.53    4.64
  -5  -6   7   12.76    5.09
   4  -9   2   27.07    3.35
  -4   9  -2   39.48    6.06
   4  -9   2   32.33    4.82
  -4   9  -2   16.81    7.74
  -4   9  -2   30.59    3.42
  -4   9  -2   25.23    4.83
  -4   1 -12   -0.87    7.80
   4  -1  12    1.86    2.40
  -4   1 -12    0.43    2.49
  -4  -6   8   75.59   15.04
  -4  -6   8   76.32   13.34
   4   6  -8  107.50   12.35
   4   6  -8  147.17   13.13
   3  11   2   66.46    7.84
   3  11   2   73.13    8.05
  -3 -11  -2   73.46    7.79
  -3 -11  -2   56.61    8.49
  -3 -11  -2   81.99    8.07
   3  11   2   59.56    8.01
  -3 -11  -2   49.23    8.52
   8   5   7    1.25    2.09
   8   5   7    4.24    2.24
   8   5   7    2.62    1.16
   8   5   7    4.04    3.26
  -8  -5  -7    3.60    1.70
   8   5   7    1.64    1.08
   9   0  -1  100.19   11.77
   9   0  -1   77.55    8.84
   9   0  -1   85.99   13.84
   9   0  -1   79.31   10.14
   9   0  -1   86.35   15.16
   9   0  -1   80.55    8.28
  -1  11   3   34.45    5.96
  -1  11   3   38.81    5.84
   1 -11  -3   39.74    6.47
  -6  -9  -6   83.92   10.65
  -6  -9  -6   93.18    9.02
   6   9   6  109.84   22.85
   6   9   6   73.44    9.58
   8   2   8   73.66   12.61
   8   2   8   79.15    9.54
  -8  -2  -8   95.84   10.78
  -8  -2  -8  148.58   32.31
   8   2   8   91.27   19.63
  -6   4  -8   46.31    5.67
  -6   4  -8   49.38    6.93
   6  -4   8   56.52    5.99
   6  -4   8   52.70    6.45
   3   9  10   61.86   15.84
  -3  -9 -10   93.20   11.18
  -3  -9 -10   80.47    8.70
  -3  -9 -10   82.27    9.41
   3   9  10   88.54   12.12
   3   9  10   65.80   18.19
   9  -1   1   68.21    8.08
   9  -1   1   46.47   11.95
   9  -1   1  100.14   10.02
   9  -1   1   95.86    9.96
   9  -1   1   65.68    7.27
   9  -1   1   86.91   12.40
  -7  -5   5    8.59    2.11
   7   5  -5    9.29    2.24
  -7  -5   5    8.47    3.96
   7   5  -5    8.37    1.96
   7   5  -5   11.26    3.21
   1 -11  -2   36.41    6.02
  -1  11   2   36.32    5.31
   1 -11  -2   41.58    5.15
  -1  11   2   31.16    5.18
  -1  11   2   45.66    5.35
  -3   6  11    1.14    2.44
   3  -6 -11   -0.57    3.38
  -3   6  11    0.57    3.15
   3  -6 -11    0.23    3.03
   9   3   0   -0.55    2.58
   9   3   0    1.41    1.36
   9   3   0   -0.12    1.12
   9   3   0    0.75    3.64
   9   3   0    1.38    2.74
   9   3   0    0.33    1.11
  -6  -9   0    5.34    2.26
  -6  -9   0    3.35    2.58
  -6  -9   0    5.84    2.96
   6   9   0    5.03    1.95
   6   9   0    4.88    1.62
   5   1  12   67.23   11.69
  -5  -1 -12   59.74   18.49
  -5  -1 -12   41.29    6.96
  -5  -1 -12   41.42    4.48
   5   1  12    8.30    6.20
   3  -8   6   61.84    7.48
  -3   8  -6   52.47    6.43
  -3   8  -6   59.23    8.44
   8  -3  -4   52.53    9.49
   8  -3  -4   32.24   15.14
   8   3   8   63.46   10.29
  -8  -3  -8   67.50    8.15
   8   3   8   64.15    7.37
   8   3   8   56.02    9.59
   9   2  -1   33.19    4.23
   9   2  -1   39.93    7.08
   9   2  -1   35.96    4.72
   9   2  -1   45.40    8.65
   9   2  -1   32.64    3.80
   9   2  -1   44.06    9.36
   1   0 -13   23.14    9.65
  -1   0  13   13.68    6.19
   1   0 -13    8.43    8.02
  -1   0  13   36.27    4.82
   0 -11   0   70.13    9.61
   0  11   0   71.09    8.90
   0 -11   0   87.28    8.87
   0  11   0   89.67    9.16
  -5 -10  -1    6.23    2.22
   5  10   1    4.68    1.84
  -5 -10  -1    4.30    2.35
   5  10   1    4.58    1.82
  -5 -10  -1    4.23    2.29
   1  11   6   74.33    9.55
   1  11   6   70.65   10.83
  -1 -11  -6   53.52   11.63
  -1 -11  -6  129.49   11.31
   9   3   4   29.36    5.28
   9   3   4   31.27    4.49
   9   3   4   28.02    4.82
   9   3   4   32.69    3.62
   9   3   4   43.69    8.95
   5   5  -8   54.94    6.85
   5   5  -8   45.04    6.31
  -5  -5   8   52.66    6.10
  -5  -5   8   38.77    8.75
   1  -3  12   26.57    4.39
  -4   6  10   24.51    5.59
   4  -6 -10   11.11    4.88
  -4   6  10   19.40    4.65
   4  -6 -10   21.24    6.22
  -6   3  -9   52.83    7.36
  -6   3  -9   77.91    8.54
   6  -3   9   89.83    9.36
   0  -3  12   87.13    9.92
  -7   3   7   38.17    4.72
  -7   3   7   65.52    8.99
   7  -3  -7   56.78    9.61
   7  -3  -7   31.81    7.90
   9  -1   0   31.34    4.35
   9  -1   0   36.67    5.42
   8  -2   6  104.87   10.36
  -8   2  -6  120.70   26.80
   8  -2   6  102.12   10.74
   7  -6  -3   40.01    7.20
   7  -6  -3   70.84    9.17
  -7   6   3   67.12    6.83
   3   3 -11    2.07    3.57
  -3  -3  11    4.85    4.28
  -3  -3  11   15.83    3.11
   6   1  -9   91.80   12.46
  -6  -1   9   63.07   10.60
  -6  -1   9   57.00    6.40
   9  -1   2   17.66    7.17
   9  -1   2   34.43    4.47
   9  -1   2   36.37    7.38
   9  -1   2   34.70    6.01
   9  -1   2   26.29    3.17
  -2  -2  12   12.25    6.41
  -2  -2  12   36.05    4.73
  -5   6  -7   72.63   15.02
   5  -6   7  131.48   13.74
  -5   6  -7  101.86   10.37
  -3  -7 -12    8.89    2.53
  -3  -7 -12    8.79    1.82
   3   7  12    7.97    5.31
  -3  -7 -12    9.28    3.95
   6  -7   3  264.43   20.95
  -6   7  -3  167.00   23.96
  -6   7  -3  218.45   22.31
   6  -7   3  192.77   19.18
  -7  -3 -10   11.56    1.74
   7   3  10    8.96    1.33
   7   3  10    6.53    4.46
   7   3  10    4.36    5.16
  -7  -3 -10   11.66    2.99
   5  -8   3   60.23    6.35
   5  -8   3   77.34    7.98
  -5   8  -3   63.14    9.58
  -7  -2 -10   29.92    4.98
   7   2  10   28.32    3.20
   7   2  10   19.96   11.96
  -7  -2 -10   50.17   20.52
   7   2  10   14.96    6.81
  -7   1  -9   62.75    8.42
  -7   1  -9   56.62    7.13
   7  -1   9   89.80   11.73
   7  -1   9   77.79    7.14
  -7   1  -9   72.57   20.09
  -7   6  -2   30.55    6.28
   7  -6   2   30.33    4.05
   7  -6   2   29.02    3.22
  -2 -11   0    8.45    1.91
   2  11   0    4.75    1.68
   2  11   0    5.50    1.92
  -2 -11   0    4.52    2.16
   2  11   0    8.39    2.07
  -2 -11   0    4.23    3.46
   3  -9   4   26.83    4.29
  -3   9  -4   26.59    3.26
  -3   9  -4   24.59    3.02
  -2 -11  -6   67.31    7.87
  -2 -11  -6   59.51    6.89
   2  11   6   36.47    4.73
   2  11   6   37.21    6.22
   8   6   6    9.63    2.06
   8   6   6    8.49    9.02
   8   6   6   12.46    2.89
   8   6   6   16.33    5.66
   8   6   6   14.16    2.24
   8   6   6   10.01    3.03
  -4  -7   7   22.25    5.32
  -4  -7   7   29.58    4.06
   4   7  -7   29.09    4.16
  -4  -7   7   14.46    6.24
  -8  -2   5   -0.08    0.65
   8   2  -5   93.09   12.20
   8   2  -5   61.17    7.04
  -8  -2   5   58.16    7.48
  -1  11   4   41.42    7.16
   1 -11  -4   33.23    6.15
  -1  11   4   44.36    6.62
  -7  -4   6    9.94    2.01
   7   4  -6   15.09    4.01
   7   4  -6   11.11    2.16
  -7  -4   6    9.88    4.31
   2   8  -7   10.80    2.24
  -2  -8   7   13.23    2.89
   2   8  -7   13.72    2.46
  -2  -8   7   15.99    3.04
  -1   1 -13   42.56   12.41
   4   5  -9   52.41    6.43
  -4  -5   9   25.11    7.09
  -4  -5   9   42.57    9.61
   3  -4 -12   37.61   14.20
  -3   4  12   44.95   10.41
  -3   4  12   59.80    9.17
  -3   4  12   54.77    7.31
   2  -9   5   13.01    2.88
  -2   9  -5   10.77    2.19
  -2   9  -5   11.70    2.11
  -2   9  -5   11.43    1.91
   5  -4 -10   24.35   12.82
  -5   4  10   34.39    4.45
  -5   4  10   41.87    7.08
  -5   4  10   29.42    6.83
  -3 -11  -5   14.17    4.65
  -3 -11  -5   25.97    3.54
   3  11   5   22.73    3.17
   3  11   5   23.15    4.45
   3  11   5   33.44    4.98
  -7  -6   4   75.38    7.71
   7   6  -4   69.11    7.89
   7   6  -4   68.23    8.30
  -7  -6   4   67.70   10.43
   1 -11  -1   36.09    4.64
  -1  11   1   36.13    5.19
  -1  11   1   40.12    5.47
  -1  11   1   39.63    5.22
   1 -11  -1   35.02    5.69
  -3  -5 -13   69.42   10.61
  -3  -5 -13   72.04    8.46
   3   5  13   35.24   10.03
  -5  -7   6    1.50    2.86
  -5  -7   6    0.67    1.42
  -5  -7   6   -0.23    2.88
   5   7  -6    0.56    1.41
   5   7  -6    1.51    1.42
  -4   3 -11   -0.81    2.53
   4  -3  11    0.53    0.40
   4  -3  11    1.31    2.08
   1 -10  -8    9.75    2.96
   1 -10  -8    8.11    2.71
   1 -10  -8    2.02    2.99
  -1  10   8   10.56    3.67
  -1  10   8    2.86    6.60
   8   1   8   28.22    4.61
  -8  -1  -8   68.22   22.84
  -8  -1  -8   36.55    4.95
   8   1   8   36.10   11.58
   8   1   8   19.99    6.14
  -8   1  -7   22.13    3.10
   8  -1   7   28.16    3.79
   8  -1   7   41.10    8.06
  -8   1  -7   29.11   15.40
  -4   8  -5   62.46    6.18
  -4   8  -5   61.93    9.38
  -4   8  -5   63.83   10.72
  -4   8  -5   58.67    7.27
   4  -8   5   73.11    8.46
  -6   7   5    8.01    1.26
   6  -7  -5   15.36    4.46
   6  -7  -5   22.06    3.42
  -6   7   5    5.44    3.88
   8   6  -1    1.37    1.51
   8   6  -1   -0.54    4.75
   8   6  -1    1.52    1.32
   8   6  -1    6.11    8.18
  -8  -6   1    1.17    1.83
  -8  -6   1    1.82    2.33
   7   8   0  140.29   13.02
  -7  -8   0   66.48   12.26
   7   8   0  111.28   12.25
  -7  -8   0   80.50   10.48
  -4  -9   4   56.43    8.26
  -4  -9   4   62.61   11.41
  -4  -9   4   84.76    8.92
   9   4   2   -0.13    1.99
   9   4   2    0.38    1.47
   9   4   2    0.53    1.00
   9   4   2    0.95    1.48
   9   4   2   -1.88    8.55
   9   4   2    0.72    3.47
   9   4   2    0.52    0.42
   8  -2  -5    2.40    3.04
   8  -2  -5    1.05    5.98
   9   0   4   13.21    4.65
   9   0   4    4.67    3.95
   9   0   4   10.48    2.82
   9   0   4    4.82    1.00
   9   0   4   11.48    5.53
   9   0   4    6.11    0.81
  -9   0  -4   22.61   14.36
   3  -5  10   16.39    2.20
   3  -5  10   23.29    3.44
   3  -5  10   23.27    3.70
  -3   5 -10    2.49    5.34
  -6   3   9   62.73    9.06
  -6   3   9   46.45    5.46
   6  -3  -9   28.62    7.96
  -6   3   9   44.52    7.39
  -1 -10  -9    0.33    2.85
  -1 -10  -9    2.30    2.29
  -1 -10  -9    1.47    2.02
   1  10   9    0.18    2.69
   3  11   1   47.29    5.72
  -3 -11  -1   32.30    5.76
   3  11   1   40.63    5.80
  -3 -11  -1   43.85    5.08
   3  11   1   39.85    5.45
  -3 -11  -1   35.87    6.58
  -3 -11  -1   40.46    5.30
   2  -9  -9    0.98    2.36
   2  -9  -9   -3.91    2.82
  -2   9   9    0.32    2.47
   2  -9  -9   -0.67    3.17
  -6   5  -7   36.30    5.60
  -6   5  -7   28.63    3.44
   6  -5   7   34.33    4.55
   9   4   3    0.36    3.73
   9   4   3    0.10    1.52
   9   4   3    0.19    0.54
   9   4   3    0.73    1.27
   9   4   3   -1.45    2.50
   8  -4   3   62.95    5.59
   8  -4   3   55.04    8.11
   7   8   6   15.77    3.67
   7   8   6   13.39    1.63
   7   8   6   27.88   13.30
   7   8   6   29.83    4.70
   7   8   6   18.05    5.67
   7   8   6   14.47    2.62
  -7  -8  -6   18.12    2.76
  -7  -8  -6    4.96    3.96
  -7  -8  -6   13.39    5.22
   2   4 -11    5.71    3.65
  -2  -4  11    8.10    5.20
  -2  -4  11   17.18    3.17
   3   0  13   52.35    8.74
  -3   0 -13   17.57    5.17
  -3   0 -13   21.95   11.13
   3   0  13   29.52    5.89
  -2 -10  -9    1.67    1.73
   2  10   9   -0.70    5.02
   2  10   9    1.46    7.23
  -2 -10  -9    1.31    1.05
  -2 -10  -9    0.99    2.04
  -1   8  11    1.61    3.01
   1  -8 -11   -0.45    2.63
   1  -8 -11    0.43    1.78
  -1   8  11   -0.60    5.71
   6   8  -3   25.04    4.05
  -6  -8   3   28.46    4.35
  -6  -8   3   23.67    5.96
   6   8  -3   27.49    3.74
  -6  -8   3   21.27    6.03
   3  -6   9   46.89    6.13
  -3   6  -9   29.18    3.30
   8  -3   5   63.81    6.73
  -8   3  -5   64.64   19.59
  -2  10   7    2.65    2.53
   2 -10  -7    0.71    1.30
  -2  10   7   -1.00    6.27
   2 -10  -7    2.14    2.09
   2 -10  -7    2.43    1.82
   2 -10  -7   -0.54    2.72
  -3  10   5   18.09   12.04
   3 -10  -5   56.62    5.96
   3 -10  -5   43.73    6.45
  -3  10   5   63.56    7.23
   6   5  11   69.15   18.46
  -6  -5 -11  136.04   15.77
   6   5  11  112.29   18.52
   4  -8  -8    0.31    3.11
   4  -8  -8   -0.16    1.83
   4  -8  -8    1.66    2.39
   4  -8  -8    1.92    2.50
  -4   8   8    0.12    1.87
   9  -1  -1    3.51    2.65
   9  -1  -1    2.12    1.27
   9  -1  -1    2.35    5.28
   0 -11  -6   12.35    2.67
   0  11   6   11.38    3.14
   0  11   6    2.67    2.38
   0 -11  -6   10.19    2.50
   8   4   8   25.82    5.63
   8   4   8   20.91    3.01
   8   4   8   19.29    4.97
  -8  -4  -8   25.22    4.07
   8   4   8   31.36    6.20
   9   4   1    6.47    1.71
   9   4   1    8.67    9.78
   9   4   1    8.45    4.99
   9   4   1   12.05    3.47
   9   4   1    6.66    2.78
   9   4   1    6.75    2.23
   3   9  -5   39.57    4.85
  -3  -9   5   30.32    4.94
  -3  -9   5   39.56    5.24
   9   2   5   38.75    4.37
   9   2   5   43.07    6.30
   9   2   5   32.70    6.32
   9   2   5   41.72    4.88
   8  -4  -3    2.97    7.88
   8  -4  -3    1.32    0.78
   8  -4  -3    1.81    2.86
  -7  -4 -10   39.40    5.75
  -7  -4 -10   35.54    4.18
   7   4  10   31.45    8.67
   7   4  10   48.41    7.37
   7   4  10   30.50    9.02
   5  10   6   98.06   11.85
   5  10   6   91.00   12.58
  -5 -10  -6  125.48   11.46
  -5 -10  -6  113.42   11.96
   7   6   9    8.74    3.91
  -7  -6  -9   14.58    3.39
   7   6   9   16.21    4.88
  -7  -6  -9   12.49    2.24
   7   6   9   19.76    4.91
   9  -1   3   14.88    4.68
   9  -1   3    6.95    4.69
   9  -1   3    9.10    1.40
   9  -1   3   11.78    2.92
  -9   1  -3   27.03   15.40
   9  -1   3   13.78    4.52
  -5  -2  10   18.19    2.91
   5   2 -10   19.36    3.79
   5   2 -10    3.48    3.32
  -5  -2  10    7.35    4.37
   4   3  13    4.26    4.72
  -4  -3 -13   12.34   12.07
  -4  -3 -13   14.01    2.49
   4   3  13    6.35    8.99
  -4  -3 -13   11.50    4.05
   5   8  10    6.93    3.78
  -5  -8 -10    0.42    3.50
   5   8  10   -0.96    7.13
  -5  -8 -10    5.19    2.44
  -5  -5 -12    0.52    2.34
  -5  -5 -12    0.54    1.12
   5   5  12   -0.45    5.37
   7   7   8   52.85    9.44
   7   7   8   91.24   10.69
   7   7   8  102.13   11.84
  -7  -7  -8   79.86    8.43
   7   7   8   85.20   22.44
  -7  -7  -8   87.49    9.77
   4  -9  -6   65.01    6.49
   4  -9  -6   46.75    6.99
   4  -9  -6   61.11    7.77
  -4   9   6   65.03    7.89
   7   1  10    2.75    1.09
  -7  -1 -10    3.67    8.76
   7   1  10    0.92    7.85
  -7  -1 -10    2.08    2.32
  -7  -1 -10    4.10    2.27
   7   1  10    1.93    3.77
  -8  -7  -3    3.47    4.15
   8   7   3   13.06    9.52
   8   7   3   15.45    2.62
   8   7   3   13.13    6.14
   8   7   3   12.21    2.91
  -8  -7  -3    4.92    3.35
   8   7   3   10.08    2.10
   8   7   3   13.79    2.31
   3 -10   1    0.17    1.06
   3 -10   1    1.14    1.65
  -3  10  -1    1.08    1.60
  -3  10  -1    0.46    1.13
  -3  10  -1    0.94    1.32
   2  -2 -13    3.52    6.85
   2  -2 -13   10.64    2.34
  -2   2  13    6.76    3.56
   2  -2 -13   11.75    7.71
  -2   2  13    2.46    4.26
  -2   2  13    7.37    2.78
   9   1  -2   14.42    5.80
   9   1  -2   27.53    3.89
   9   1  -2   31.00    6.27
   9   1  -2   28.33    7.70
   9   1  -2   28.36    3.27
   5  -8  -6   40.15    6.64
   5  -8  -6   62.10    6.24
  -5   8   6   49.88    6.16
   2  -3  12    2.51    1.03
   2  -3  12   19.36    3.15
  -2   3 -12    4.26    4.82
   1   6  13   -0.46    4.80
   1   6  13   -0.13    1.93
  -1  -6 -13    0.41    0.52
  -1  -6 -13   -1.51    3.17
  -4  -2 -13   25.92   14.22
  -4  -2 -13   28.61    3.87
   4   2  13   28.18    9.06
  -4  -2 -13   28.64    6.00
   4   2  13    8.42    5.50
  -3  -1  12   27.52    7.88
   3   1 -12   59.64    6.65
  -3  -1  12   54.26    6.21
   5  -2  11   41.93    4.20
  -5   2 -11   18.42    4.32
   5  -2  11    9.65    2.37
   6   6  -6    2.21    1.54
  -6  -6   6   -0.55    2.83
   6   6  -6    6.83    2.11
  -6  -6   6    0.85    3.47
  -6  -6   6    2.45    1.59
   6   6  -6    3.24    1.62
   2  -1  13   28.86    4.96
  -2   1 -13   13.54    6.77
  -6   5   8    9.88    1.94
   6  -5  -8   14.80   11.75
  -6   5   8   15.40    2.92
   6  -5  -8   25.20    5.96
   6  -5  -8    6.31    3.94
  -6   0 -11   -0.21    1.32
  -6   0 -11   -0.81    2.40
   6   0  11    0.39    3.89
  -7   5  -5   47.50    7.73
   7  -5   5   47.53    5.52
   8   7   2    1.95    4.86
  -8  -7  -2   -0.70    4.18
  -8  -7  -2   -0.26    1.80
   8   7   2   -0.10    1.41
   8   7   2    1.90    1.63
   8   7   2   -1.79    7.36
   8   7   2    1.15    1.08
  -8  -7  -2    0.40    2.25
   9   3  -1    1.64    1.26
   9   3  -1    1.38    1.37
   9   3  -1    0.42    3.93
   9   3  -1    1.35    1.16
   9   3  -1    1.68    2.86
   2  -6 -12   39.25    8.40
  -2   6  12   38.68    9.28
  -2   6  12   48.59    7.04
   2  -8   7   25.23    4.06
  -2   8  -7   18.78    3.29
  -2   8  -7   21.20    2.87
   6   5  -7    6.61    1.77
   6   5  -7    7.55    2.42
  -6  -5   7    2.31    3.47
   6   5  -7    4.27    1.88
  -6  -5   7    5.12    1.72
   9   0  -2  151.33   16.08
   9   0  -2  120.89   12.21
   9   0  -2  122.47   12.79
   9   0  -2  104.23   11.92
   9   1   5   29.15    5.02
   9   1   5   37.03    7.09
   9   1   5   23.94    5.72
   9   1   5   25.60    9.90
   9   1   5   24.16    2.90
   9   1   5   26.37    3.66
  -3 -10   3    0.27    1.95
   3  10  -3    1.97    1.39
   3  10  -3    1.33    1.30
   3  10  -3    0.70    1.35
   3  10  -3    1.38    1.67
  -3 -10   3    1.04    3.32
  -3 -10   3   -0.36    1.80
   6  -6  -7   15.90    4.73
  -6   6   7   20.52    2.86
  -6   6   7   42.84    4.76
   6  -6  -7   43.48    7.03
   8   4  -4    1.13    1.43
   8   4  -4    0.47    1.11
   8   4  -4   -1.13    5.83
   8   4  -4   -0.58    5.99
  -8  -4   4   -0.44    2.30
   8   4  -4   -1.12    2.85
  -8  -4   4   -0.40    1.05
  -6   2 -10  125.40   13.05
  -6   2 -10  101.70   12.56
   6  -2  10  159.95   16.25
   1 -11  -5   31.81    7.24
   1 -11  -5   45.21    5.63
  -1  11   5   34.15    6.32
  -1  11   5   52.71   14.20
   5   7  11   65.68   20.43
   5   7  11   77.36    8.43
   5   7  11   48.95   13.88
  -5  -7 -11   72.31    9.13
  -5  -7 -11   50.74    8.34
   5   7  11   57.98   11.61
   0  -9   6    5.96    1.62
   0   9  -6    6.42    1.86
   0   9  -6    6.75    1.76
   4  -7   7   80.62    9.16
  -4   7  -7   46.53    9.21
  -2  -6 -13   31.37    4.99
  -2  -6 -13   25.68    3.16
  -2  -6 -13   33.36    4.43
   2   6  13   19.51    3.93
  -2  -6 -13   32.75    6.85
  -1 -11   1   28.10    3.64
   1  11  -1   20.40    3.35
   1  11  -1   20.17    3.36
  -1 -11   1   21.46    3.37
  -3   9   8    3.93    2.71
   3  -9  -8    0.92    2.86
   3  -9  -8    2.86    2.38
   3  -9  -8    0.63    1.62
   9   4   4    5.47    2.56
   9   4   4    7.24    1.99
   9   4   4    6.73    4.76
   9   4   4    4.12    2.18
   9   4   4    8.46    1.47
  -3  -6   9   -0.71    2.60
  -3  -6   9    2.15    1.63
  -3  -6   9    0.43    4.33
   3   6  -9    0.61    1.43
   9   3   5   75.37    9.47
   9   3   5   89.88    8.37
   9   3   5   67.34    7.80
   9   3   5   78.24    9.68
   5   4  -9   23.78    3.44
  -5  -4   9   14.41    2.73
   5   4  -9   19.12    3.16
  -1 -10   4   35.99    4.73
   1  10  -4   30.71    4.23
   1  10  -4   27.61    4.18
   1  10  -4   35.96    4.20
  -1 -10   4   40.17    5.64
   8   7   4   49.12    7.68
   8   7   4   79.98    7.46
   8   7   4   59.63    6.93
   8   7   4   86.34   20.83
  -8  -7  -4   41.25    9.25
   8   7   4   46.34    7.17
   8   7   4   78.86    7.36
  -8  -7  -4   34.27    7.49
   8   7   4   69.99   12.69
   5  10   0   60.33    6.38
  -5 -10   0   47.20    7.45
  -5 -10   0   44.81    6.67
   5  10   0   49.07    6.17
   5  10   0   46.53    6.52
   8   5  -3    2.28    1.41
  -8  -5   3    3.21    1.50
   8   5  -3    3.33    2.60
   8   5  -3    5.73    6.44
   8   5  -3    1.63    1.45
  -8  -5   3    1.86    2.52
   8   5  -3    1.82    1.38
  -2   1  13   23.84    3.88
   2  -1 -13   26.69    3.44
  -2   1  13   16.90    5.60
   2  -1 -13   15.56    8.41
   3  -4  11    0.28    0.61
   3  -4  11    0.26    1.85
  -3   4 -11    0.18    0.70
  -2   3  13   -0.43    3.81
  -2   3  13    0.85    2.37
  -2   3  13   -0.46    2.92
   2  -3 -13    0.85    6.12
   2  -3 -13    0.60    2.49
   0  10  -4   12.91    2.32
   0 -10   4   12.51    2.35
   0  10  -4    7.69    1.96
   0  10  -4    9.49    2.14
  -1   9  10    1.76    5.81
  -1   9  10   -0.20    3.02
   1  -9 -10    0.18    2.90
  -1   5  13    3.48    5.12
   1  -5 -13    5.74    4.24
  -1   5  13    7.11    5.49
  -1   5  13    8.74    3.50
   4  10   8   61.34    7.94
   4  10   8   30.13    6.44
   4  10   8   39.43   14.28
  -4 -10  -8   53.74    5.96
  -4 -10  -8   55.69    6.97
   1   9  -6   61.86    6.82
  -1  -9   6   64.46    7.42
  -1  -9   6   66.55    8.03
  -4  -2  11   40.65    5.13
  -4  -2  11   22.13    6.92
   4   2 -11   60.72    7.13
  -4 -10   2   36.32    5.42
   4  10  -2   35.28    4.84
  -4 -10   2   28.88    6.84
   4  10  -2   34.63    5.09
   4  10  -2   43.04    4.94
  -4 -10   2   35.19    5.39
  -1  11   0    0.70    1.49
   1 -11   0   -0.70    1.93
   1 -11   0    0.39    1.30
  -1  11   0   -0.08    1.31
  -5   0 -12    2.81    0.72
   5   0  12    2.38    3.70
   5   0  12    9.32    5.97
  -5   0 -12    4.90    9.75
  -5   0 -12    5.13    2.88
  -5  -9   3   58.96    6.82
   5   9  -3   46.39    6.13
  -5  -9   3   41.01    8.01
   5   9  -3   48.81    5.73
  -5  -9   3   35.01    6.69
  -4  -4 -13   18.07    3.00
   4   4  13    5.48   10.38
   4   4  13   11.27    6.26
  -4  -4 -13   18.30    4.83
  -3  -7   8    0.43    3.87
   3   7  -8    1.44    1.53
  -3  -7   8    1.38    1.55
  -3  -7   8    1.79    2.35
   0 -10  -9    7.25    3.04
   0 -10  -9    0.99    3.09
   0  10   9    8.25    3.64
   4   8  11    0.94    8.53
  -4  -8 -11    1.12    1.50
  -4  -8 -11    0.98    1.21
   4   8  11   -0.70    4.98
   4   8  11    0.93    3.60
  -1   7  12   76.49    8.75
  -1   7  12   51.31   11.52
   1  -7 -12   57.11   10.38
   1  -7 -12   77.47    9.67
   3  11   6   25.99    3.67
  -3 -11  -6   46.51    5.78
   3  11   6   30.17    5.38
  -3 -11  -6   41.17    4.81
  -6  -9  -7   40.22    4.64
  -6  -9  -7   42.62    6.37
   6   9   7   52.18    7.80
   9   2  -2    7.82    1.51
   9   2  -2    6.76    1.88
   9   2  -2    7.09    1.84
   7  -6  -4    0.55    2.41
  -7   6   4    4.35    1.10
   7  -6  -4    4.55    3.02
   7  -6  -4    7.92    2.23
   7  -6  -4    9.43    3.52
   5  -6  -9   26.09   12.80
  -5   6   9   23.95    4.47
  -5   6   9   19.27    3.38
   5  -6  -9   15.71    5.27
   5  -6  -9   37.62    7.11
   0 -11   1   15.37    2.63
   0 -11   1   14.30    3.39
   0  11  -1   13.48    2.67
   0  11  -1   12.17    2.81
   0  11  -1   19.36    3.01
   9   4   0   54.82    6.99
   9   4   0   56.99    6.16
   9   4   0   56.02   12.22
   9   4   0   58.73    6.48
   9   4   0   61.53   17.05
  -4  -8   6   12.92    3.82
  -4  -8   6   13.30    5.61
  -4  -8   6   20.08    3.38
   4   8  -6   23.60    3.64
   6   9  -1    0.26    1.03
   6   9  -1    0.72    1.29
  -6  -9   1   -0.20    2.26
  -6  -9   1    0.23    1.76
  -6  -7 -10   37.34    4.71
   6   7  10   21.49    6.11
   6   7  10   44.11    8.51
   6   7  10   57.28    6.99
   6   7  10   26.30   14.53
  -6  -7 -10   48.08    6.43
  -7  -3   7   11.42    2.04
   7   3  -7   11.32    2.57
   7   3  -7   21.05    4.73
  -8   0  -8    6.13   12.19
   8   0   8    1.63    2.35
  -8   0  -8    1.52    1.33
   8   0   8    0.63    3.20
   8   0   8   -1.75    6.06
  -7   6  -3   78.82   11.32
   7  -6   3   98.42    7.85
   7  -6   3   56.26    5.73
   0   6 -10    5.40    3.31
   0   6 -10    3.31    1.59
   0  -6  10    3.01    1.38
   0  -6  10    3.61    1.95
   8   7   1    7.21    2.09
  -8  -7  -1    4.17    2.38
   8   7   1    3.46    7.29
   8   7   1    2.06    4.70
  -8  -7  -1    0.18    2.43
   8   7   1    3.85    1.28
  -8  -7  -1   -0.36    4.10
   8   7   1    3.91    1.78
   2 -10   3   20.35    2.72
   2 -10   3   19.61    4.11
  -2  10  -3   21.75    2.85
  -2  10  -3   19.00    2.85
  -6  -2   9  150.22   14.78
  -6  -2   9  126.57   18.72
   6   2  -9   80.10   11.44
   6   2  -9  216.08   15.40
   4   4 -10   22.27    5.65
  -4  -4  10   50.80    6.30
   4   4 -10   38.31    5.85
  -9   2  -1   29.04   13.47
   9  -2   1   22.46    3.53
   9  -2   1   29.64    4.90
   1  11   7  152.64   13.46
  -1 -11  -7  107.42   10.31
  -1 -11  -7  104.62   10.69
   1  11   7   55.27   10.35
   4  -9   3   35.05    4.06
   4  -9   3   46.51    5.85
  -4   9  -3   41.22    6.25
  -4   9  -3   41.47    4.58
  -4   9  -3   53.40    7.43
   7  -1  -8   25.45    8.68
  -7   1   8   17.00    4.18
  -7   1   8   19.46    5.18
   7  -1  -8    6.65    5.33
  -4   5  11    2.52    3.29
  -4   5  11    7.12    2.66
  -4   5  11    6.56    3.14
   3  -7   8  130.37   13.93
  -3   7  -8  104.06   10.45
   7   0  -8    2.35    4.60
   7   0  -8   11.58    6.00
  -7   0   8    7.05    3.60
  -7   0   8    7.57    1.46
  -7   0   8    4.22    2.80
  -1  -1  13    3.07    4.40
   5  -7  -8    5.82    3.41
   5  -7  -8    4.93    3.41
  -5   7   8   -0.05    0.39
   5  -7  -8    2.76    2.71
  -5   7   8    3.87    2.12
  -5   7   8    0.16    2.31
  -7  -7   3   31.81    6.61
  -7  -7   3   34.18    4.51
   7   7  -3   33.02    5.23
   7   7  -3   35.85    4.99
   7   7  -3   36.97    4.72
   3  10   9   64.35   17.01
  -3 -10  -9   77.12    7.55
  -3 -10  -9   93.00    9.76
   3  10   9   36.69    7.95
   3  10   9   82.16    9.71
   0   6  13   19.69    7.89
   0  -6 -13   36.61    7.74
   0   6  13   31.98    5.40
   3  11   0    2.01    1.63
   3  11   0    1.61    1.53
  -3 -11   0    0.69    2.45
  -3 -11   0    2.72    1.47
   3  11   0    0.76    1.19
  -3 -11   0    1.01    1.81
   9  -2   0   18.19    2.94
   9  -2   0   25.24    4.74
  -4  -1 -13   34.48   14.07
   4   1  13   42.18    9.08
  -4  -1 -13   26.20    3.57
  -4  -1 -13   25.31    5.94
   4   1  13   31.73    6.91
   2  11  -1   46.19    5.85
  -2 -11   1   54.51    6.11
  -2 -11   1   47.31    5.68
  -2 -11   1   42.91    6.64
   2  11  -1   48.50    5.85
   2  11  -1   43.11    5.80
  -5   9   2   22.57    2.77
   5  -9  -2   36.86    4.46
  -5   9   2   19.06    5.05
   5  -9  -2   34.44    5.40
  -5   9   2   29.44    3.58
  -6  -7   5    1.62    3.35
  -6  -7   5    4.56    1.98
   6   7  -5    5.93    1.96
   6   7  -5    3.44    1.71
   6   7  -5    3.24    1.59
  -6  -7   5    1.41    3.42
  -2 -11  -7   14.26    2.51
  -2 -11  -7   15.54    3.38
   2  11   7    6.03    3.07
  -5   9   1    5.94    1.63
   5  -9  -1    3.44    1.95
  -5   9   1    3.35    2.64
   5  -9  -1    7.52    1.78
  -5   9   1    7.74    3.18
  -5   9   1    5.07    1.06
  -8  -3   5    8.35    3.65
  -8  -3   5    6.64    1.47
   8   3  -5    5.55    6.40
   8   3  -5    3.53    5.40
   8   3  -5    9.62    1.89
   8   3  -5   10.89    4.09
  -6  -8  -9   36.26    5.43
   6   8   9   25.15    5.73
  -6  -8  -9   29.74    4.00
   6   8   9   30.57   13.81
   6   8   9   25.11    4.72
  -6  -8  -9   29.39    6.09
   6   8   9   33.80    6.40
   3   5 -10   11.27    3.19
  -3  -5  10   17.41    2.99
  -3  -5  10    4.26    3.16
   4  11   3   67.16    7.37
   4  11   3   47.25    7.17
  -4 -11  -3   45.86    8.19
  -4 -11  -3   55.23    7.09
  -4 -11  -3   69.68    7.60
   9  -1  -2   80.93   17.10
   9  -1  -2  101.12   11.06
   5   8  -5   36.11    4.54
   5   8  -5   37.15    4.89
  -5  -8   5   40.78    5.06
  -5  -8   5   24.16    6.62
  -5  -8   5   21.64    5.78
   0   7  -9   38.85    6.20
   0   7  -9   28.40    5.12
   0  -7   9   36.58    4.85
   0   7  -9   43.20    4.78
   0  -7   9   44.54    5.67
  -4  -9 -10    1.17    3.93
  -4  -9 -10   10.44    3.16
   4   9  10    7.00    9.05
  -4  -9 -10    6.53    2.02
   4   9  10    7.87    4.20
   4   9  10    3.78    3.16
  -5  -9  -9    1.33    2.13
  -5  -9  -9    2.87    1.76
  -5  -9  -9   -0.73    3.51
  -5  -9  -9    1.51    1.57
   5   9   9    0.91    7.04
   5   9   9    0.83    2.33
   5   9   9    0.76    3.02
   6  -8  -1    0.71    1.43
   6  -8  -1    0.78    1.51
   6  -8  -1   -0.32    1.97
  -6   8   1    1.05    1.06
  -6   8   1   -0.39    3.53
  -1   6 -10    7.37    1.70
   1  -6  10    4.68    1.46
  -1   6 -10    3.86    3.53
  -1   9  -6   11.15    2.26
   1  -9   6   12.30    2.85
   1  -9   6   12.15    2.17
  -1   9  -6   10.97    2.15
  -4 -11  -4   32.67    4.57
   4  11   4   30.09    5.16
   4  11   4   37.34    5.25
  -4 -11  -4   20.78    5.47
  -4 -11  -4   27.16    3.58
   7   8  -1   64.01    6.60
  -7  -8   1   55.81    8.29
   7   8  -1   54.74    6.86
  -7  -8   1   48.36    6.89
   9  -1   4    1.47    0.32
   9  -1   4    1.89    2.03
   9  -1   4    2.63    0.57
   9  -1   4    8.76    4.21
  -9   1  -4    3.35   10.18
   9  -1   4    2.39    2.96
   9  -1   4    2.03    1.03
   9  -1   4   -1.01    4.67
   9  -1   4    0.43    4.03
   8   7   5   77.32   11.06
   8   7   5  116.05   10.35
  -8  -7  -5   49.18    9.68
   8   7   5   79.33    9.90
  -8  -7  -5   59.97   11.20
   8   7   5  119.33   16.32
   8   7   5  135.31   11.32
   8   7   5   90.59   10.13
   9   0   5    2.20    0.66
  -9   0  -5   -1.22   11.64
   9   0   5   -0.30    5.32
   9   0   5    2.09    0.72
   9   0   5    1.69    2.89
   9   0   5    0.99    2.34
   9   0   5    1.68    1.61
   9   0   5   -1.40    4.09
   6   4  -8    4.42    2.01
  -6  -4   8    7.18    1.80
   6   4  -8    9.69    2.84
  -6  -4   8    3.27    3.87
   7  -5  -6   32.11    6.41
  -7   5   6   21.04    2.68
   7  -5  -6   16.95    5.26
   7  -5  -6   31.50   15.06
   9  -2   2    3.45    1.70
  -9   2  -2    4.70    8.56
   9  -2   2    2.53    0.81
   9  -2   2   -1.31    6.21
   8   6   7    1.17    0.96
  -8  -6  -7    0.48    1.48
   8   6   7   -0.56    3.17
   8   6   7    0.47    1.55
   8   6   7    0.23    1.91
   8   6   7   -0.29    1.01
   8   6   7    2.27    9.03
   8   0  -6   35.80    9.88
  -8   0   6   56.71    9.36
   8   0  -6   61.92   12.37
  -6   8   2    0.70    2.97
  -6   8   2    0.94    1.01
   6  -8  -2    0.27    1.68
   6  -8  -2    0.94    1.98
   6  -8  -2    0.76    1.49
   7   5  10    9.78    3.39
  -7  -5 -10    7.84    2.81
   7   5  10    3.45    3.85
  -7  -5 -10    6.30    1.55
   2  10  -4   46.97    5.83
  -2 -10   4   51.26    7.03
  -2 -10   4   50.58    6.33
   2  10  -4   44.66    5.91
   2  10  -4   50.73    5.68
  -7   4   7    2.55    1.35
   7  -4  -7    2.51    3.10
   7  -4  -7    3.11    3.24
  -5   7  -6   27.04    2.93
  -5   7  -6   17.63    7.16
   5  -7   6   38.98    5.17
   8  -4   4   60.46    6.52
  -3   5  12   39.74    7.27
  -3   5  12   64.22    8.56
   3  -5 -12   63.82   17.73
  -3   5  12   40.62    9.62
   8  -3  -5   20.19    6.06
  -7   3  -8   78.59    8.61
   7  -3   8   89.89    9.98
  -7   3  -8   91.17   10.95
   7  -3   8   96.74    9.53
  -6   6  -6   16.75    3.76
  -6   6  -6    4.16    6.94
   6  -6   6   15.59    2.71
  -6   7  -4  119.46   13.66
   6  -7   4  129.67   13.62
  -6   7  -4   89.94   16.31
   8   5   8    9.33    3.64
   8   5   8   13.42    3.87
  -8  -5  -8   13.25    3.02
   8   5   8   13.98    2.13
   4  11   2   95.17    9.87
   4  11   2   78.78    9.93
  -4 -11  -2   96.54    9.62
   4  11   2   81.66    9.54
  -4 -11  -2   78.24   10.27
  -4 -11  -2   69.00   10.67
  -4 -11  -2   93.96   10.27
   0   5 -11    3.64    4.19
   0  -5  11   12.90    2.80
   0   5 -11    9.00    2.03
   0  -5  11   12.29    2.90
   0  -5  11    3.64    1.95
   8  -5   0    4.25    2.76
   8  -5   0    1.73    1.42
   9   4   5  111.72    9.53
   9   4   5   70.63    8.62
   9   4   5   69.12   10.06
   9   4   5  125.02   15.75
   9   4   5  104.48   10.34
  -7   0 -10    0.92    1.63
  -7   0 -10   -0.57    1.93
  -7   0 -10    4.55    9.58
   7   0  10   -1.73    5.18
   7   0  10   -0.21    1.15
   7   0  10    0.38    3.15
   2   0 -13   52.24   14.63
  -2   0  13   50.55   11.94
  -2   0  13  106.88   10.28
   2   0 -13   91.78    8.94
   4   7  12    9.36    8.27
   4   7  12   16.64    2.80
  -4  -7 -12   34.75    5.10
  -4  -7 -12   33.59    4.69
   4   7  12   26.57    7.84
  -6   8   0    3.54    3.69
   6  -8   0    5.95    1.47
  -6   8   0    2.92    2.92
   6  -8   0    2.02    1.71
   5  -9  -3   11.40    2.57
   5  -9  -3    6.81    2.55
  -5   9   3    8.47    1.93
   5  -9  -3    4.20    2.60
   2  -4 -13   32.06   12.51
  -2   4  13   29.92    6.29
  -2   4  13   15.27    6.98
  -2   4  13   30.64    5.70
   2  -4 -13   21.85    6.15
   1   6 -10   23.03    5.06
   1   6 -10   30.23    5.80
  -1  -6  10   48.85    5.49
  -1  -6  10   23.12    4.52
   3 -10  -6   31.56    3.96
   3 -10  -6   34.97    5.03
   3 -10  -6   22.16    4.15
  -3  10   6   30.39    4.95
  -1  10  -4    5.03    1.56
  -1  10  -4    5.34    1.77
  -1  10  -4    6.73    1.75
   1 -10   4    6.56    2.32
  -8  -6   2    0.19    2.16
   8   6  -2    0.39    1.29
  -8  -6   2    0.49    1.33
   8   6  -2   -0.05    1.50
   8   6  -2    0.94    1.23
  -7  -8  -7    3.18    3.98
   7   8   7    5.86    3.53
   7   8   7    9.21    3.02
  -7  -8  -7    2.71    3.70
  -7  -8  -7    9.93    2.71
  -7  -8  -7    9.97    2.14
   7   8   7    7.94    9.67
   7   8   7    6.14    2.61
   7   8   7    6.28    1.89
  -6   4   9   47.21    5.79
  -6   4   9   58.47    7.72
   6  -4  -9   50.01   10.04
   6  -4  -9   32.86   15.36
  -2  11   2    9.06    2.64
  -2  11   2    6.42    2.41
   2 -11  -2    6.23    2.69
  -2  11   2    9.79    2.38
   3   6  13   33.44    6.04
  -3  -6 -13    0.12    0.36
   3   6  13   44.99   10.74
  -3  -6 -13   66.66    5.16
   7  -2  -8   54.97   12.67
  -7   2   8   57.66    7.72
  -7   2   8   75.09   10.53
   7  -2  -8   45.62   10.47
  -8   1   6   33.30    6.87
   8  -1  -6   20.81    7.18
   8  -1  -6   27.07    9.38
  -2  11   3   27.70    5.14
   2 -11  -3   23.12    4.87
  -2  11   3   35.75   11.61
  -2  11   3   38.11    4.96
   9  -2  -1   34.93    5.85
   9  -2  -1   25.75    3.62
   9  -2  -1   28.72    7.24
  -5   9   0   21.92    2.64
  -5   9   0   20.76    4.87
  -5   9   0   30.40    5.47
   5  -9   0   19.40    3.66
  -5   9   0   27.65    3.42
  -5 -10  -7   51.85    7.05
   5  10   7   85.24    9.68
   5  10   7   43.70    7.62
  -5 -10  -7   60.94    6.73
  -5 -10  -7   71.00    7.76
   1   9  11    8.65    8.43
  -1  -9 -11    2.88    4.13
   1   9  11   13.26    4.85
  -1  -9 -11   15.34    4.36
  -1  -9 -11   13.37    3.26
  -1  -8 -12   57.73    9.39
  -1  -8 -12   57.02    7.78
   1   8  12   40.24   14.63
   1   8  12   46.35    9.72
  -1   7  -9    2.90    2.98
  -1   7  -9   -1.48    2.70
   1  -7   9    2.92    1.20
   8  -5  -1    4.15    3.03
  -8   5   1    1.93    7.00
   5  -8   4   34.67    4.92
  -5   8  -4   24.10    6.37
  -1  -7   9   41.20    5.19
  -1  -7   9   27.05    4.32
   1   7  -9   27.28    4.59
   1   7  -9   38.93    4.59
   1   7  -9   37.04    5.77
   7   1  -8    2.15    3.42
  -7  -1   8    1.32    2.67
  -7  -1   8    3.01    1.12
  -7  -1   8    3.66    3.26
   2   9  -6   21.43    3.13
  -2  -9   6   21.22    3.72
  -2  -9   6   18.31    3.42
  -1   5 -11   24.59    3.13
  -1   5 -11    4.26    5.43
   1  -5  11   29.33    3.95
   1  -5  11   15.40    2.64
  -4   2 -12   -0.22    2.55
   4  -2  12    0.66    2.10
  -4   2 -12    1.00    0.63
   8   1  -6   15.37    7.51
   8   1  -6   26.59    7.28
  -8  -1   6    0.25    0.52
  -2  -9 -11   51.52    7.75
  -2  -9 -11   41.25    4.84
  -2  -9 -11   47.62    6.25
   8  -4  -4   36.51   14.94
   8  -4  -4   31.23    7.28
   2   8  12    2.57    8.70
  -2  -8 -12    6.89    2.52
  -2  -8 -12    6.91    1.33
  -2  -8 -12    5.13    3.27
   1 -11  -6    8.82    1.79
   1 -11  -6   10.99    2.67
  -1  11   6    9.35    3.13
  -1  11   6    7.01    7.14
   1 -11  -6    9.04    2.29
   0  11   7   12.77    8.30
   0  11   7   16.79    4.32
   0 -11  -7   16.39    3.21
   0 -11  -7   16.16    3.37
  -7   4  -7    7.41    1.28
   7  -4   7   10.86    2.15
  -7   4  -7    8.83    3.18
   9   5   2    3.09    2.31
   9   5   2    1.26    1.62
   9   5   2    3.23    0.84
   9   5   2    7.42    9.04
   9   5   2    2.88    4.34
   9   5   2    1.70    1.50
   1   3  14    8.31    4.49
   1   3  14    4.23    5.29
  -1  -3 -14   12.95    5.24
  -1  -3 -14   13.80   10.77
  -3  -8   7   23.92    8.71
   3   8  -7   51.02    5.91
  -3  -8   7   36.76    6.09
   3   8  -7   44.15    5.45
  -6   7   6   13.27    1.95
  -6   7   6   22.74    2.90
   6  -7  -6   27.30    4.78
   6  -7  -6   18.30    5.04
  -1  -2 -14   -1.63    7.38
   1   2  14   -0.44    3.91
   1   2  14    7.78    4.10
   9   5   3    1.66    1.73
   9   5   3    2.59    2.07
   9   5   3    7.95   10.27
   9   5   3    4.40    4.38
   9   5   3    2.55    1.88
   9   5   3    2.28    0.89
   8  -5   1    1.04    1.07
   8  -5   1   -0.21    2.30
   9   2   6    4.09    9.75
   9   2   6    9.85    3.33
   9   2   6    9.43    2.89
   9   2   6   13.84    4.72
   9   2   6   12.14    2.75
   9   2   6    8.67    1.51
   4  11   5   14.68    3.51
   4  11   5   20.49    3.99
  -4 -11  -5   18.76    3.16
  -4 -11  -5   17.93    3.25
  -3  10  -2   20.10    3.93
  -3  10  -2   19.72    2.68
   3 -10   2   15.53    3.58
   3 -10   2   17.43    2.48
  -5   5  10   39.79    7.34
   5  -5 -10   17.84    6.41
   5  -5 -10   37.00   15.26
   5  -5 -10   54.58    9.10
  -5   5  10   42.68    5.45
   4   5  13    5.80    5.63
  -4  -5 -13    8.68    2.18
  -4  -5 -13   11.10    3.97
  -5   1  11   94.05   13.07
   5  -1 -11  127.15   16.91
  -5   1  11   95.13    9.18
   9   3  -2   10.75    6.56
   9   3  -2    9.53    1.76
   9   3  -2    9.87    2.45
  -9  -3   2   12.80    3.99
   9   3  -2    8.45    2.00
  -6  -6 -11    0.30    2.16
  -6  -6 -11   -0.06    1.15
   6   6  11    1.16    4.48
   6   6  11    1.73    2.01
   6   6  11    0.36    4.33
   6  -8  -3    0.33    1.97
   6  -8  -3    0.85    1.93
  -6   8   3    0.48    2.62
   6  -8  -3    0.78    1.86
  -6   8   3    1.25    1.10
   8   7   0    0.54    1.25
  -8  -7   0   -0.71    4.77
  -8  -7   0    0.92    1.88
   8   7   0    0.94    1.45
   8   7   0    1.27    1.01
   8   7   0    3.60    1.97
  -8  -7   0    0.60    1.88
  -3   1 -13    0.50    2.73
   3  -1  13    3.68    2.63
   9   1  -3   23.09    3.08
   9   1  -3   24.10    3.45
   9   1  -3   14.56    4.81
  -2  11   1    3.14    1.75
  -2  11   1    4.22    1.98
   2 -11  -1    2.15    1.94
  -2  11   1    4.43    1.88
   2 -11  -1    3.10    1.53
  -5   2  11   39.55    5.06
   5  -2 -11   60.75   11.82
  -5   2  11   29.67    8.00
   5   6  12   10.82    2.89
  -5  -6 -12    7.97    1.93
  -5  -6 -12    6.49    3.46
   5   6  12    6.21    5.59
  -1  11  -1   65.21    8.44
  -1  11  -1   83.58    8.34
   1 -11   1   75.80    8.03
   1 -11   1   69.96    9.11
  -1  11  -1   85.28    8.86
   9   0  -3   21.41    3.33
   9   0  -3   30.42    6.38
   9   0  -3   24.65    3.40
  -7   2  -9   62.81   19.74
   7  -2   9   86.64    9.16
  -7   2  -9   68.02    7.85
  -7   2  -9   66.67    9.06
   9   4  -1   56.61   15.91
   9   4  -1   52.24    6.49
  -9  -4   1   59.09    8.92
   9   4  -1   48.33    5.93
   9   4  -1   64.71   12.97
   9   4  -1   49.16    5.59
   9   4  -1   67.06    8.64
  -8   2  -7  137.89   13.83
   8  -2   7  177.24   17.06
  -8   2  -7  147.58   17.60
  -8   2  -7  117.95   28.45
   8  -2   7  163.64   17.40
   2 -11  -4   47.25    5.85
   2 -11  -4   58.02    6.26
  -2  11   4   35.62    6.35
  -2  11   4   59.70    6.51
  -2  11   4   33.63   11.82
   9   3   6   48.90    6.40
   9   3   6   45.05    7.04
   9   3   6   47.79    6.13
   9   3   6   45.87    5.25
   9   3   6   69.51   10.47
   1  -2  13   72.44    8.67
   2   3  14   -1.86    5.78
  -2  -3 -14    1.11    2.71
  -2  -3 -14    5.72    9.66
   9  -2   3   11.82    1.55
   9  -2   3   16.34    5.26
   9  -2   3   11.95    6.01
  -9   2  -3   14.16   12.77
   9  -2   3   14.64    3.52
  -4   2  12  104.04    9.70
   4  -2 -12  104.68   14.66
  -4   2  12   77.01   12.60
  -3   3 -12   30.14    3.34
   3  -3  12   10.73    1.68
  -3   3 -12   14.43    6.01
   3  -3  12   44.75    4.31
  -5 -10   1   50.93    7.12
   5  10  -1   51.36    7.06
   5  10  -1   55.35    6.74
   5  10  -1   63.71    6.80
  -5 -10   1   55.64    8.56
   9   5   1   53.00    6.73
  -9  -5  -1   17.22    4.27
   9   5   1   47.91   15.82
   9   5   1   44.68   10.87
   9   5   1   37.87    5.36
   9   5   1   35.72    4.70
  -4   1  12   48.40    5.51
   4  -1 -12   54.97    8.14
  -4   1  12   22.27    6.93
   9   1   6    1.74    0.76
   9   1   6   -3.74    8.96
   9   1   6    2.58    2.35
   9   1   6    1.33    2.31
   9   1   6    2.68    2.78
   9   1   6    1.53    2.06
   2   2  14   26.64    7.06
   2   2  14   36.64    7.98
  -2  -2 -14   19.50   11.84
  -2  -2 -14   20.89    6.01
  -3 -11  -7   43.30    5.61
  -3 -11  -7   36.53    4.43
   3  11   7   26.59    5.82
   3  11   7   64.75    8.46
   2   3 -12   -4.28    5.43
  -2  -3  12   -1.70    4.07
   0  -2  13  204.50   20.90
  -8   5   2    1.59    5.66
   8  -5  -2   -0.70    2.55
  -1  -5  11   96.17    8.58
  -1  -5  11   41.41    7.71
   1   5 -11   89.00    8.34
   1   5 -11   42.76    9.26
   9   5   4    7.83    2.56
   9   5   4    7.55    1.62
   9   5   4    8.75    1.63
   9   5   4    8.43    2.64
   9   5   4    8.98    5.05
   9   5   4    4.26    9.02
   9   5   4    7.92    2.07
  -6   8  -1   49.89    8.08
   6  -8   1   49.11    6.27
  -6   8  -1   43.76    8.59
   4 -10  -2   19.28    4.71
  -4  10   2   23.14    5.21
   4 -10  -2   39.00    4.44
  -4  10   2   32.93    4.24
   4  11   1   79.17    8.44
   4  11   1   69.81    8.28
  -4 -11  -1   56.83    8.80
  -4 -11  -1   73.97    8.60
  -4 -11  -1   77.82    7.93
  -4 -11  -1   59.20    8.88
   4  11   1   66.02    8.63
   8   2   9    2.61    3.07
  -8  -2  -9    8.42   11.85
  -8  -2  -9    9.46    2.49
   8   2   9    4.61    4.22
   8   2   9    4.68    1.53
   8   2   9    0.64   11.07
   8   2   9   12.37    4.21
   3  -8 -10   93.39    9.62
   3  -8 -10   72.99    9.94
  -3   8  10   66.11    9.38
  -3   8  10   56.26   12.54
  -8  -3  -9   61.17    7.67
   8   3   9   43.96    9.38
   8   3   9   52.06    5.99
   8  -3   6   65.24    6.99
  -8   3  -6   61.21    9.82
  -8   3  -6   78.63   21.59
   0   2  14   13.60    5.65
   0  -2 -14   30.28   12.30
   0   2  14   46.34    6.31
   0  -2 -14   33.94   11.74
   6  -1  11   54.82    5.92
  -6   1 -11   33.91    5.88
  -6   1 -11   42.27    5.77
   6  -1  11   26.80    3.77
   4  -9  -7   18.46    4.20
   4  -9  -7    7.40    4.16
  -4   9   7   36.06    5.37
   0  -8   8    2.69    1.36
   0   8  -8    2.12    1.72
   2 -10  -8   18.77    3.79
   2 -10  -8    5.57    3.73
   2 -10  -8    6.30    2.32
   2 -10  -8   22.29    3.87
  -2  10   8   22.55    5.08
   0   3  14   14.02    9.08
   0   3  14   28.90    7.86
   3   2 -12  100.81   10.31
  -3  -2  12   44.71   11.63
  -3  -2  12   96.97    9.56
  -3   9  -5   52.85    7.70
   3  -9   5   47.53    6.28
  -3   9  -5   43.46    5.26
  -3   9  -5   45.74    5.00
   5  -9  -4    7.24    2.69
  -5   9   4    5.13    1.72
   5  -9  -4    4.44    2.33
   5  -9  -4    2.10    2.64
   1   4  14   52.35    9.45
   1   4  14   34.62   10.63
  -5   0  11   43.94    5.18
  -5   0  11   20.76    7.05
   5   0 -11   54.27    8.43
  -5   0  11   36.24    8.05
   1  11  -2   37.37    5.12
   1  11  -2   42.80    5.03
   1  11  -2   37.93    5.19
  -1 -11   2   43.78    5.41
  -1 -11   2   49.65    5.71
  -5   5  -9   26.63    4.48
   5  -5   9   47.53    6.10
   3  -7 -11   23.27    6.48
  -3   7  11   22.09    6.01
   3  -7 -11   32.45    6.24
  -1  -1 -14    0.60    4.63
  -1  -1 -14    1.50    7.02
   7   9   3   16.99    2.86
  -7  -9  -3   11.69    2.70
  -7  -9  -3    7.82    4.06
  -7  -9  -3    7.69    3.81
   7   9   3   12.50    2.51
   1 -10  -9   31.86    5.26
  -1  10   9   11.67    9.60
   1 -10  -9   24.24    4.43
  -1  10   9   21.00    4.81
   4 -10  -1    3.63    2.18
  -4  10   1    5.32    1.42
  -4  10   1    4.89    2.58
  -4  10   1    5.68    1.88
   8   7   6   74.81    8.00
  -8  -7  -6   23.17    7.19
   8   7   6   44.65    7.45
   8   7   6   62.52    6.36
   8   7   6   52.73   17.84
   8   7   6   76.10   11.55
  -8  -7  -6   36.45    8.74
   8   7   6   45.73    6.27
  -4   0 -13   -0.45    2.66
  -4   0 -13    5.52    8.59
   4   0  13    0.51    3.20
   4   0  13    5.22    5.06
  -5  -3  10    1.19    3.08
   5   3 -10    2.94    1.96
  -5  -3  10    3.87    1.70
   5   3 -10   -0.31    2.14
   0   8  12    3.26    4.11
   0   8  12    5.80    7.89
   0  -8 -12    9.09    2.29
   0  -8 -12    7.43    3.78
   8  -2  -6   -1.07    6.83
   8  -2  -6    2.42    3.64
  -2   6 -10    5.55    4.72
   2  -6  10   18.57    2.63
   2  -6  10   29.75    4.20
   0  -9 -11    3.34    3.23
   0  -9 -11    2.15    2.20
   0   9  11    1.32    5.89
   0  -9 -11   -0.82    3.55
   0   9  11    2.75    3.52
  -7   6   5   -0.18    1.33
   7  -6  -5   44.56    9.11
   7  -6  -5   62.44    8.63
  -7   6   5   50.79    2.69
   5  -9   1   19.04    3.49
  -5   9  -1   28.21    3.27
  -5   9  -1   36.23    6.27
  -4  10   3   17.62    4.63
  -4  10   3   25.92    3.64
   4 -10  -3   21.33    4.00
   4 -10  -3   30.32    3.95
   5  -4  10   92.69   10.48
  -5   4 -10   49.33    7.16
   5  -4  10   94.61   10.00
   6  10   3   21.13    4.26
  -6 -10  -3   19.40    5.00
   6  10   3   26.00    3.89
   6  10   3   30.92    4.37
  -6 -10  -3   22.55    3.80
  -6 -10  -3   30.76    3.82
  -6 -10  -3   20.12    4.68
   8  -5   2   26.87    5.61
   8  -5   2   18.12    3.06
   8  -5   2   26.08    2.87
   5  -8  -7   12.16    5.56
   5  -8  -7   25.31    5.37
  -5   8   7   42.06    5.68
   9  -2  -2   27.96    5.50
   9  -2  -2   23.20    6.92
   9  -2  -2   21.44    3.13
  -7  -9  -4   21.10    5.95
   7   9   4   33.92    4.62
  -7  -9  -4   18.96    5.41
   7   9   4   29.83    4.23
   9   2  -3   23.14    8.53
  -9  -2   3   30.33    6.36
   9   2  -3   21.59    2.92
   9   2  -3   25.54    3.67
  -7  -5   6  110.07   11.43
   7   5  -6   93.61   10.77
  -7  -5   6  100.18   14.94
   7   5  -6  159.70   13.21
  -6 -10  -4   43.91    6.92
   6  10   4   44.48    5.75
  -6 -10  -4   52.47    5.86
   6  10   4   37.75    6.28
   6  10   4   54.87    6.41
  -6 -10  -4   51.16    5.87
   2  -8 -11   70.45    8.70
  -2   8  11   50.18    8.68
  -2   8  11   34.59   11.27
   2  -8 -11   49.20    9.35
   0  11  -2   11.15    2.31
   0 -11   2   10.33    3.09
   0  11  -2   12.10    2.40
   0  11  -2    8.87    2.09
   0 -11   2   10.77    2.08
   0  11  -2    7.55    2.20
  -6  -3 -12   15.75    3.18
  -6  -3 -12   16.30    4.11
  -6  -3 -12   31.45   16.74
   6   3  12    9.69    5.80
   6   3  12    7.29   10.31
   2   4  14    3.98    3.34
   2   4  14   10.83    8.36
  -2  -4 -14   13.38    4.83
  -3 -11   1    0.27    3.12
  -3 -11   1    0.25    1.54
  -3 -11   1   -0.12    1.77
   3  11  -1    0.69    1.32
   3  11  -1    0.41    1.38
   3  11  -1    0.08    1.23
   3   4 -11   10.22    3.94
  -3  -4  11   12.72    6.24
  -3  -4  11   25.30    3.93
  -1  -8   8   19.83    3.65
  -1  -8   8   19.15    3.33
   1   8  -8   18.51    3.04
   1   8  -8   16.83    2.89
   5  -1  12   10.58    3.34
  -5   1 -12    6.83    2.92
  -5   1 -12    6.72    9.17
  -8   1  -8    4.59    9.97
  -8   1  -8    5.24    3.17
  -8   1  -8    6.18    1.69
   8  -1   8    5.87    2.25
   8  -1   8   12.60    5.75
   8  -1   8    0.61    3.04
   8  -1   8    4.75    3.75
   9  -1  -3   57.21    6.68
   9  -1  -3   54.13   10.76
   9  -1  -3   75.18   10.44
  -7   6  -4   18.63    4.85
   7  -6   4   22.40    3.39
  -4   3  12  101.91   13.54
  -4   3  12  105.30   10.36
   4  -3 -12   95.26   15.14
   3   9  11   27.38   11.42
   3   9  11   24.40   12.00
   3   9  11   39.36    7.94
  -3  -9 -11   42.68    4.51
  -3  -9 -11   45.69    5.39
  -3  -9 -11   49.73    7.20
  -6  -9  -8    6.53    1.93
  -6  -9  -8    4.80    2.94
   6   9   8    4.69    2.96
  -6  -9  -8    0.35    3.71
  -8  -2   6   56.00    6.00
   8   2  -6   48.46    6.38
   8   2  -6   81.29   10.68
   7  -7  -1   16.69    3.15
   7  -7  -1   12.76    3.91
   7  -7  -1   12.35    3.05
   4  -7 -10   78.71    9.36
   4  -7 -10   50.95    8.78
  -4   7  10   49.92    7.80
  -1   6  13   46.24    6.67
   1  -6 -13   36.15    8.01
  -1   6  13   21.65    9.07
  -1   6  13   31.59    9.02
  -3  -8 -12    1.25    1.71
   3   8  12    1.86    8.05
  -3  -8 -12    0.20    2.39
   3   8  12    2.84    4.51
  -3  -8 -12    1.13    1.16
  -7  -9  -2   35.16    7.64
   7   9   2   60.03    6.73
  -7  -9  -2   47.11    6.13
   7   9   2   55.78    6.70
  -7  -9  -2   33.63    6.70
  -7  -6   5   73.85   13.43
   7   6  -5  140.01   11.30
  -7  -6   5  119.04   11.91
   7   6  -5   76.74    9.23
  -5   3  11    4.57    3.48
  -5   3  11    2.48    3.52
  -5   3  11    6.67    2.09
   5  -3 -11    1.23    5.57
  -7  -7  -9   30.69    4.79
   7   7   9   19.60    5.18
   7   7   9   33.27    6.25
  -7  -7  -9   25.07    3.45
   7   7   9   29.43    5.99
  -6  -8   4   22.10    6.63
  -6  -8   4   34.24    7.43
   6   8  -4   41.85    5.36
   6   8  -4   41.01    5.04
   4  11   6   19.63    4.56
   4  11   6   41.14    5.78
  -4 -11  -6   33.09    4.50
  -4 -11  -6   32.75    4.35
  -4   8  -6   53.26    9.01
   4  -8   6   58.30    7.14
   2  -5  11    2.32    1.98
   2  -5  11    1.33    0.99
  -2   5 -11   -2.38    5.48
  -2   5 -11    2.83    1.16
   2  -5  11    2.71    2.31
   6   2  12   35.76   12.23
  -6  -2 -12   30.28    5.65
   6   2  12   10.76    5.95
  -6  -2 -12   39.55   17.77
  -6  -2 -12   40.42    5.03
  -6  -2 -12   28.59    3.43
   7  -3  -8   66.23   11.87
  -7   3   8  141.08   15.07
  -7   3   8   91.50   10.72
   7  -3  -8   41.92   16.84
  -6   1  10   19.99    3.17
  -6   1  10   24.44    6.15
   6  -1 -10   22.57    7.35
  -6   1  10   10.04    4.82
   9  -1   5   45.78    4.68
   9  -1   5   24.07    7.78
   9  -1   5   65.10    9.40
   9  -1   5   24.27    5.85
   9  -1   5   62.55    9.24
   9  -1   5   48.09    4.61
  -9   1  -5   61.24   20.93
  -6  -9   2    5.27    3.44
  -6  -9   2    3.71    2.09
   6   9  -2    4.13    1.89
   6   9  -2    6.05    1.62
  -6  -9   2    7.98    3.69
   7  -7   0   13.51    2.88
   7  -7   0   12.92    3.92
   7  -7   0   16.13    2.60
   2  -2  13   76.37    9.05
  -2  11   0    0.69    1.38
   2 -11   0   -0.54    1.26
  -2  11   0    0.79    1.40
   2 -11   0    0.23    1.90
  -2  11   0    0.31    1.20
   0  -1 -14    4.22    5.94
   0   1  14    1.39    3.71
   0  -1 -14    4.78    7.45
  -4   0  12    0.36    3.48
  -4   0  12    2.14    2.06
  -4   0  12   -0.57    3.26
   4   0 -12    0.96    4.08
   4   0 -12   -1.13    2.49
  -6 -10  -2   22.04    4.81
  -6 -10  -2   26.09    4.38
   6  10   2   26.32    3.97
   6  10   2   25.36    4.52
   6  10   2   32.58    4.27
  -6 -10  -2   20.04    4.78
  -3   8  -7   53.78    8.40
  -3   8  -7   44.07    6.32
   3  -8   7   70.36    8.37
   4  -5  10   74.93    8.83
   4  -5  10   74.12    8.28
   8   1   9    1.10    1.25
  -8  -1  -9   -1.33   10.96
  -8  -1  -9    1.92    1.56
   8   1   9    1.01    3.34
   8   1   9   -2.36    8.12
  -7   5  -6   31.66    5.94
   7  -5   6   32.99    4.26
  -2  -1 -14   31.35    7.22
   2   1  14  100.89   12.64
  -2  -1 -14   31.26   13.30
   2   1  14   69.23   10.40
  -1   8  -8    7.02    2.52
   1  -8   8   10.63    1.93
  -1   8  -8   13.42    4.01
   1  -8   8   11.35    2.87
  -1 -10 -10    2.55    2.08
   1  10  10   -0.89    6.65
   1  10  10    1.64    3.17
  -1 -10 -10    1.65    2.61
   1  10  10    0.71    6.78
  -1 -10 -10   -0.73    3.26
   8   4   9   63.67   10.96
   8   4   9   96.56   11.62
   8   4   9   71.90    7.49
   8   4   9   59.68   10.45
  -8  -4  -9   82.01    9.76
   1   7  13    0.41    4.39
  -1  -7 -13    1.47    2.90
   1   7  13    0.64    1.08
  -1  -7 -13    1.10    1.37
   0  -4  12   22.94    3.70
   0  -4  12    5.03    2.34
   0   4 -12    2.75    5.19
   2 -11  -5   79.33    9.32
  -2  11   5  119.30   12.39
  -2  11   5   60.65   18.69
   2 -11  -5   52.66   10.70
  -2   9  -6   13.00    2.40
  -2   9  -6   11.16    2.21
   2  -9   6   11.94    2.89
   9   4   6   28.67    3.84
   9   4   6   35.72    4.88
   9   4   6   26.70    5.25
   9   4   6   36.85    4.66
  -4  -9   5    7.92    2.90
  -4  -9   5   10.23    2.66
   4   9  -5   10.83    2.40
  -4  -9   5    5.90    4.38
   6  -8  -4   27.54    5.12
  -6   8   4   13.20    4.39
   6  -8  -4   13.50    4.57
  -6   8   4   25.39    3.17
  -2 -10 -10   24.03    4.06
   2  10  10   16.09   10.31
   2  10  10   14.89    8.50
  -2 -10 -10   27.94    5.18
  -2 -10 -10   21.83    3.09
   7   2  -8   54.89    6.47
  -7  -2   8  107.20   14.10
   7   2  -8   53.35    7.68
  -7  -2   8   85.38    9.03
   1  -4  12   -0.40    1.36
  -1   4 -12   -2.01    6.00
  -1   4 -12    1.65    5.13
  -1   4 -12    1.09    1.34
   1  -4  12    1.09    2.41
  -4 -10  -9   15.84    2.87
   4  10   9   15.86    4.73
   4  10   9   19.84   11.44
   4  10   9   11.47    4.03
  -4 -10  -9   19.53    4.08
   1  11   8  173.70   18.34
   1  11   8   93.57   22.36
  -1 -11  -8   50.07   11.84
  -1 -11  -8  134.96   11.97
   9   5   0   58.14    7.35
   9   5   0   55.12    6.69
  -9  -5   0   34.10    6.27
  -9  -5   0   72.85    8.56
   9   5   0   78.20    8.89
   9   5   0   58.12   16.80
   9   5   0   61.11   13.36
   7  -7  -2    1.55    2.21
   7  -7  -2    4.47    2.57
   2  -7   9   13.23    3.00
   2  -7   9   12.26    1.95
  -2   7  -9   12.50    1.93
  -2   7  -9    6.79    4.10
  -2  -7 -13    1.49    0.85
  -2  -7 -13    1.85    2.76
   2   7  13    1.15    1.13
  -2  -7 -13    1.60    1.94
   0   4  14    4.63    4.64
   0   4  14   14.46    5.27
   0  -4 -14   11.01    4.89
   0   4  14   11.63    4.09
   0   4  14   -2.82    5.60
   6  -4   9   63.39    7.63
  -6   4  -9   46.20    6.25
  -6   4  -9   61.32    7.55
   6  -4   9   66.79    7.12
   2   6 -10   52.70    5.87
  -2  -6  10   32.74    6.36
   2   6 -10   36.70    6.02
   2   6 -10   45.58    6.75
  -2  -6  10   27.05    8.81
   2   7  -9   46.54    6.24
  -2  -7   9   60.33    6.63
  -2  -7   9   36.35    6.34
   2   7  -9   57.39    6.41
   4  10  -3    3.07    1.87
  -4 -10   3    4.54    2.26
  -4 -10   3    4.13    3.68
   4  10  -3    3.24    1.68
  -4 -10   3    3.65    1.91
   6   3  -9   34.57    4.49
  -6  -3   9   32.44    8.03
   6   3  -9   19.64    4.78
  -6  -3   9   42.27    5.03
   2  11  -2   19.91    3.24
   2  11  -2   17.89    3.14
   2  11  -2   18.45    3.27
  -2 -11   2   24.42    3.64
  -2 -11   2   19.17    4.08
   2  11  -2   20.35    3.26
  -4  10   0   15.31    2.22
  -4  10   0   16.75    2.77
   4 -10   0    8.54    2.71
  -4  10   0   15.56    3.79
  -2  -1  13   57.29   14.00
  -2  -1  13  125.17   11.81
   6   4  12   11.35    6.21
  -6  -4 -12   24.94    5.18
  -2   5  13   57.86   10.10
   2  -5 -13   44.92    9.09
  -2   5  13   54.36   12.65
  -2   5  13   80.72   10.79
  -2   5  13   86.29    9.52
   8   5  -4    5.53    1.79
  -8  -5   4    3.01    1.55
   8   5  -4    4.32    1.61
  -8  -5   4    5.81    3.53
   8   5  -4    9.05    3.39
   2  11   8    8.18    3.74
  -2 -11  -8   22.01    4.26
  -2 -11  -8   22.13    3.19
   4   3 -11   16.81    6.10
   4   3 -11   51.23    5.15
  -4  -3  11   20.92    7.37
  -4  -3  11   45.68    5.39
  -6   2  10    3.71    3.31
  -6   2  10    3.98    1.81
   6  -2 -10   -1.31    6.63
  -6   2  10    0.77    3.37
   9   5   5   16.50    5.87
   9   5   5   10.39    3.17
   9   5   5   16.77    3.23
   9   5   5   20.43    2.98
   9   5   5   11.56    2.18
   9   5   5   15.87    2.55
   5  -6   8   64.81    7.69
  -5   6  -8   41.36   11.13
  -5   6  -8   45.20    5.84
   6   0 -10   20.56    5.92
  -6   0  10   12.46    2.62
  -6   0  10    7.58    4.25
  -6   0  10   17.72    5.48
  -4   8   9   36.98    8.78
   4  -8  -9   39.66    6.95
  -4   8   9   36.45    5.95
   4  -8  -9   57.46    7.48
  -6 -10  -5   41.40    4.77
  -6 -10  -5   31.20    5.59
   6  10   5   27.11    4.39
   6  10   5   27.23    5.08
   4  -6   9   91.54   10.38
  -7  -9  -5    7.04    4.05
   7   9   5   11.97    2.51
  -7  -9  -5   11.96    4.83
  -7  -9  -5   16.96    2.75
   7   9   5   17.30    3.33
   7   9   5   17.06   11.37
   9   0   6    8.15    3.21
   9   0   6    3.70    3.38
   9   0   6   18.80    5.00
  -9   0  -6   12.80   12.77
   9   0   6    8.13    5.98
   4 -10  -4   -0.09    1.77
   4 -10  -4   -0.57    2.46
  -4  10   4   -0.21    1.37
   4 -10  -4   -0.34    1.56
   3  10  -4   19.80    3.55
  -3 -10   4   18.40    3.65
  -3 -10   4   17.72    6.91
  -3 -10   4   27.26    4.61
   3  10  -4   22.02    3.32
  -7  -8   2   90.71   11.45
   7   8  -2   76.84    8.92
  -7  -8   2   68.18    8.93
   7   8  -2   73.94    9.14
   2  -9 -10   17.00    4.58
  -2   9  10   12.28    4.20
  -2   9  10    9.42    6.74
   2  -9 -10    2.59    3.68
  -7  -6 -10    4.23    2.42
   7   6  10    1.73    2.71
  -7  -6 -10    3.76    1.40
   7   6  10    2.20    3.38
   7   6  10    4.72    3.04
  -4   9  -4   25.29    4.54
   4  -9   4   21.93    3.91
  -4   9  -4   15.62    6.40
  -4   9  -4   20.09    3.17
  -4   9  -4   28.75    5.66
   8  -5  -3   23.60    5.72
  -8   5   3   25.27    8.14
   8  -5  -3   16.46    2.13
   8  -5  -3   30.84   12.84
   8   4  -5    4.43    1.56
  -8  -4   5    8.09    3.64
  -8  -4   5    4.63    1.56
   8   4  -5    7.52    2.14
   8   4  -5    3.79    6.38
   8   4  -5    7.97    3.71
  -1  -2  13    0.41    3.55
   9  -3   0    2.95    3.40
   9  -3   0    5.49    2.66
  -9   3   0    5.81    7.38
  -9   2  -4   52.40   18.68
   9  -2   4   41.95    7.42
   9  -2   4   32.80    3.35
   2  -7 -12   -0.38    2.66
  -2   7  12   -0.13    1.82
  -2   7  12    0.63    3.68
   2  -7 -12   -0.55    3.26
  -7  -4   7   67.40   10.86
  -7  -4   7   57.37    6.58
   7   4  -7   51.30    6.62
   7   4  -7   96.77    9.52
   9  -3   1   99.27   18.92
  -9   3  -1  112.10   23.72
   9  -3   1   80.78   12.28
  -5  -3 -13    6.11   10.57
   5   3  13    0.94    4.68
  -5  -3 -13    0.49    0.97
  -5  -3 -13    0.99    1.15
  -5  -3 -13    0.39    2.37
   3   3  14   65.98   12.63
  -3  -3 -14   75.97   21.08
   3   3  14   18.93    7.97
  -3  -3 -14   59.82   10.15
   8  -4   5   59.98    6.54
  -8   4  -5   61.89    9.88
   5   6  -8   58.38    6.54
  -5  -6   8   26.88    7.27
  -5  -6   8   25.72    7.68
   5   6  -8   46.06    5.87
  -8  -7   1   23.26    4.82
  -8  -7   1    8.33    5.62
  -8  -7   1   17.29    3.74
   8   7  -1   18.82    3.47
   8   7  -1   18.77    3.10
  -6   5  -8   61.69    7.79
   6  -5   8   57.47    6.89
  -6   5  -8   48.48    5.82
  -7  -3 -11   55.75    5.94
   7   3  11   42.92   10.15
  -7  -3 -11   62.61    8.08
   6  -6  -8    3.11    7.72
   6  -6  -8    2.68    2.84
   6  -6  -8    4.79    3.34
  -6   6   8    0.98    1.13
  -6   6   8    1.79    1.93
   7  -7   1   49.99    5.06
   7  -7   1   35.74    5.51
  -7   7  -1   20.37    8.22
   7  -7   1   47.35    7.51
   3  -9  -9    4.47    2.87
   3  -9  -9    0.34    3.23
  -3   9   9    0.45    5.03
  -3   9   9    2.89    2.52
   3  -9  -9    0.47    2.05
   6  -8   2   75.17    7.51
   6  -8   2   71.15    8.69
  -6   8  -2   45.70    9.13
   7  -1  10   99.99    8.73
  -7   1 -10   70.25    8.65
  -7   1 -10   52.40   18.74
  -7   1 -10   77.93    9.65
   7  -1  10  111.97   13.59
  -1  11   7    1.37    2.19
  -1  11   7   -0.86    5.72
   1 -11  -7    2.68    2.05
   1 -11  -7   -0.27    2.78
   1 -11  -7    1.90    1.74
  -2  10  -4   45.71    5.76
   2 -10   4   61.08    7.89
  -2  10  -4   59.91    5.90
  -4   4 -11    0.20    2.46
   4  -4  11    2.38    2.03
   4  -4  11    1.51    0.57
  -7  -9  -1   53.91    8.44
  -7  -9  -1   69.59    8.54
   7   9   1   94.17    9.98
  -7  -9  -1   54.62   10.13
  -3   2  13    3.68    4.08
   3  -2 -13   11.36    3.39
   3  -2 -13    3.84    6.95
  -3   2  13    5.28    4.06
  -3   2  13   15.75    3.19
  -5   3 -11   31.23    5.71
   5  -3  11   59.96    7.02
  -4 -11   0   22.68    4.41
   4  11   0   23.92    4.19
   4  11   0   25.31    3.97
  -4 -11   0   20.21    4.88
   4  11   0   32.21    4.19
   3 -10  -7    9.43    4.38
   3 -10  -7   10.08    3.06
  -3  10   7   25.22    4.57
   3 -10  -7   25.15    3.67
   3 -10  -7   23.15    4.36
   8   6   8    1.79    2.44
   8   6   8    2.21    2.26
   8   6   8    4.09    3.51
   8   6   8    2.99    1.12
  -8  -6  -8    1.86    1.77
  -8  -6  -8    2.67    1.30
  -5  -9   4   46.37    8.37
  -5  -9   4   50.01    9.68
   5   9  -4   59.82    7.51
   5   9  -4   62.65    6.99
   5   9  -4   61.87    7.28
  -5  -1  11    8.71    2.59
   5   1 -11   10.06    3.60
  -5  -1  11    8.13    4.18
   3   2  14   63.54   10.53
  -3  -2 -14   64.94   10.63
  -3  -2 -14   59.97   18.89
   3   2  14  101.64   12.94
   5  10   8   40.62    7.65
  -5 -10  -8   66.52    7.17
  -5 -10  -8   55.01    7.27
   5  10   8   48.61   16.38
  -5 -10  -8   77.71    8.49
   5  10   8   79.53    9.31
   7   2  11    1.23    4.29
   7   2  11    6.84    1.01
  -7  -2 -11   13.39   13.58
  -7  -2 -11    4.85    2.66
  -7  -2 -11   11.15    3.08
  -6   3 -10  108.19   11.37
   6  -3  10  123.60   12.65
  -6   3 -10   79.10   10.32
  -5  -2 -13   67.03    7.15
   5   2  13   98.06   17.28
  -5  -2 -13   72.05   10.07
  -5  -2 -13   67.22   21.57
  -7  -8  -8   64.38   11.49
   7   8   8   69.59   20.80
   7   8   8  106.71   11.30
   7   8   8   82.65   11.79
  -7  -8  -8   83.51    8.50
   7   8   8   62.89   10.20
  -4   6  11   32.59    6.01
   4  -6 -11   51.54    9.06
  -4   6  11   52.97    7.61
  -4   6  11   41.22    7.90
   4  -6 -11   39.30    8.68
  -4  -6 -13   42.13    5.56
  -4  -6 -13   46.67    7.82
   4   6  13   32.23    9.59
  -6  -1 -12    7.51    3.11
  -6  -1 -12    9.69    2.51
   6   1  12    4.68    6.72
   5   8  11   69.48   15.93
   5   8  11   87.60   12.87
  -5  -8 -11   67.31    8.98
   5   8  11   50.08   18.48
  -1  -5 -14   16.33    5.58
   1   5  14   10.31    6.54
   1   5  14    3.92    7.80
   1   5  14   11.36    3.89
   0 -10   5    0.44    1.17
   0  10  -5    1.13    1.54
   0  10  -5    0.84    1.30
   0  10  -5    0.64    1.11
  -5  -7   7    3.28    3.51
  -5  -7   7    2.48    1.65
  -5  -7   7    0.24    2.93
   5   7  -7    4.67    1.79
   5   7  -7    4.16    1.89
  -9  -4   2    8.79    3.56
   9   4  -2   10.53    2.49
   9   4  -2   13.02    2.11
   9   4  -2   17.62    9.78
   9   4  -2    9.17    7.11
   9   4  -2   11.33    2.27
  -6 -10  -1   -0.16    2.06
   6  10   1    0.91    1.31
  -6 -10  -1   -0.29    1.69
   6  10   1   -0.21    1.38
   6  10   1    0.52    1.20
  -6 -10  -1    1.19    2.30
   1  10  -5   24.74    3.41
  -1 -10   5   22.38    3.50
   1  10  -5   22.89    3.48
  -1 -10   5   24.50    4.22
  -5   9   5   17.90    3.03
   5  -9  -5   19.46    4.09
   5  -9  -5   11.53    3.69
   5  -9  -5    7.66    3.72
   5  -9  -5   15.68    2.09
  -3  -9   6   22.04    4.14
  -3  -9   6   29.19    4.38
   3   9  -6   27.68    3.99
  -3  -9   6   19.79    7.42
   3   9  -6   27.04    3.72
   8  -5   3   86.96   11.38
   8  -5   3   73.70    8.32
  -1   0 -14   35.97   12.81
  -1   0 -14   35.24   11.23
   1   0  14   77.23    9.50
  -3   1  13    3.41    2.33
   3  -1 -13    3.95    5.46
  -3   1  13    1.16    3.36
  -3   1  13    1.61    2.77
   3  -1 -13    3.16    2.09
   1  -2 -14   92.47   19.00
  -1   2  14   59.66   11.54
   1  -2 -14   67.89   17.83
  -1   2  14   36.19   11.50
   8  -4  -5   87.18   11.25
   8  -4  -5   54.10   10.19
   8  -4  -5   37.77   17.76
   9  -3  -1    0.28    3.16
   9  -3  -1   -0.20    0.95
   9  -3  -1    1.92    8.28
   9  -3  -1    0.67    2.06
   7   7  -4   69.94    7.03
   7   7  -4   42.85    5.72
  -7  -7   4   43.61    8.23
  -7  -7   4   48.82    5.80
   0   7  13   63.94    7.34
   0  -7 -13   60.71   10.24
   0  -7 -13   64.29    8.41
   0   7  13   38.00   10.68
   8   6  -3    0.39    1.46
  -8  -6   3    1.53    2.71
  -8  -6   3   -0.16    1.37
   8   6  -3    0.13    1.39
   8   6  -3   -0.33    1.89
   8   6  -3    0.44    1.42
   7  -7  -3    3.33    2.67
   7  -7  -3   12.26    3.85
  -7   7   3   11.02    1.78
   5   4  13    3.65    8.74
  -5  -4 -13   16.24    2.52
  -5  -4 -13   14.86    4.34
   5   4  13   12.65    6.70
   5   4  13    6.55   10.69
   0  10  10   86.55   11.63
   0 -10 -10   21.06    8.12
   0  10  10   68.37   16.95
   0 -10 -10   92.06    9.44
   9  -3   2    6.33    1.08
  -9   3  -2    8.21    9.27
  -1  11  -2    4.09    1.78
   1 -11   2    8.29    2.63
  -1  11  -2    3.62    1.64
   1 -11   2    3.94    1.43
  -1  11  -2    4.10    1.55
   1   4 -12   38.15    8.87
  -1  -4  12  126.85   13.72
  -4  -6   9   31.97    9.53
   4   6  -9   65.14    8.28
   4   6  -9   87.98    8.81
  -4  -6   9   29.88    8.01
  -3  10  -3    4.70    1.49
   3 -10   3    4.24    1.21
   3 -10   3    5.64    2.81
   2   5  14   21.56    5.56
   2   5  14   36.89   12.54
   3   4  14    9.83   10.13
   3   4  14   11.59    6.59
  -3  -4 -14   17.72    3.40
  -3  -4 -14   21.75    5.60
   9   3  -3   39.45    5.28
   9   3  -3   37.62    4.90
  -9  -3   3   50.65    8.55
   9   3  -3   39.18    4.43
   9   3  -3   42.95   12.38
   9   3  -3   39.62   11.13
  -3   6  12   -0.63    3.50
   3  -6 -12   -0.24    3.47
   3  -6 -12    0.61    3.30
  -3   6  12   -0.17    2.44
   0  11   8   -0.84    6.23
   0 -11  -8    0.30    2.65
   0 -11  -8    1.53    1.84
   0 -11  -8    0.30    1.75
   0  11   8    0.20    2.94
   5  -9   2   58.38    6.22
  -5   9  -2   64.30    9.48
  -5   9  -2   62.42    8.86
   5  -9   2   61.82    7.58
  -6   7  -5   27.68    9.70
  -6   7  -5   47.56    7.07
   6  -7   5   49.35    6.09
   1  -3 -14    8.14    1.53
   1  -3 -14    8.58    7.79
  -1   3  14    8.68    3.82
  -1   3  14    4.61    3.17
  -1   3  14    3.66    4.93
  -3   3  13   24.21    3.87
   3  -3 -13   15.08    5.22
  -3   3  13    6.93    5.40
   3  -3 -13    4.71    7.55
  -3   3  13   11.04    4.50
   6  -5  -9   27.04    7.41
  -6   5   9   38.31    5.26
  -6   5   9   26.74    3.64
   6  -5  -9   53.79    9.23
   6  -5  -9   48.79   17.46
  -4  -7   8    7.16    3.89
  -4  -7   8   10.90    5.63
  -4  -7   8   13.74    2.88
   4   7  -8   12.21    2.62
   2   5 -11   15.89    4.91
  -2  -5  11   13.08    4.48
  -2  -5  11   42.48    4.96
   2   5 -11   33.69    4.26
  -4   4  12   17.93    3.32
   4  -4 -12   11.98    9.98
  -4   4  12    6.00    5.25
  -4   4  12   16.81    4.88
  -7  -4 -11   67.78    7.36
  -7  -4 -11   82.90    9.58
   7   4  11   53.32   11.22
   7   4  11   41.90   12.00
   9   2   7    4.33    2.74
   9   2   7   -1.22   11.22
   9   2   7    3.97    2.54
   9   2   7    4.93    3.45
   9   2   7    4.72    2.14
   2   8  -8   11.91    2.51
  -2  -8   8   14.89    3.04
  -2  -8   8   11.28    2.78
   2   8  -8   12.92    2.53
   3  10  10   90.73   12.09
  -3 -10 -10   99.31   11.25
  -3 -10 -10   87.26    9.73
  -3 -10 -10   77.52    8.85
   3  10  10   65.45   16.63
   3  10  10   68.42   18.61
   5   5  -9   32.89    5.70
   5   5  -9   72.16    6.43
  -5  -5   9   25.68    7.56
  -5  -5   9   45.08    5.34
   2  -4  12    1.13    0.99
   2  -4  12    2.84    2.33
  -2   4 -12    2.21    1.16
   9  -2  -3   28.45    6.06
   9  -2  -3   27.74    7.37
   9  -2  -3   26.71    3.64
   8  -3  -6   17.96    5.55
   8  -3  -6   10.57    4.72
   7  -5  -7   18.92    5.57
   7  -5  -7   26.63    6.04
  -7   5   7   15.03    2.09
   7  -5  -7   24.10   13.40
   8   8   3    4.76    8.05
   8   8   3    5.55    1.74
   8   8   3    6.89    1.81
   8   8   3    4.12    2.04
  -8  -8  -3    2.11    2.64
   8   8   3    4.53    1.50
   8   8   3    4.59    4.76
  -8  -8  -3    0.70    4.15
   3   7  13   28.77    8.74
  -3  -7 -13   36.66    5.29
   9   3   7   19.05    3.59
   9   3   7   21.75    4.26
   9   3   7   20.27    2.84
   9   3   7   35.34    7.26
   9   3   7   23.29    5.12
   0   0 -14    4.01    6.78
   0   0 -14   -0.72    6.76
   0   0  14    2.96    4.04
  -6   3  10   21.26    5.90
   6  -3 -10   26.30    9.65
  -6   3  10   35.57    6.96
  -6   3  10   32.43    4.12
  -8  -7  -7   69.38    7.63
   8   7   7   77.40    8.58
   8   7   7   75.32   11.22
   8   7   7   68.66   20.66
   8   7   7   56.73    7.02
   8   7   7   51.96    8.35
   9   0  -4   -0.54    3.22
   9   0  -4   -1.41    6.19
  -6  -8 -10   80.48    9.32
   6   8  10   83.08   10.67
  -6  -8 -10   64.78    7.44
   6   8  10   39.98    8.34
   6   8  10   50.14   17.60
   1  12   3   12.76    2.95
  -1 -12  -3   14.54    2.90
   1  12   3   12.89    2.55
   1  12   3   11.85    3.07
  -6  -1  10   51.94    9.20
  -6  -1  10   21.06    6.95
   6   1 -10   89.03   11.69
  -5  -9 -10    0.41    3.57
   5   9  10    2.86    2.92
   5   9  10    2.21    3.37
  -5  -9 -10    4.84    2.21
   3  11   8    3.79    3.25
  -3 -11  -8    0.62    2.69
  -3 -11  -8    1.37    1.94
   3  11   8    1.41    2.23
  -3 -11  -8    1.67    1.32
  -6 -10  -6   83.94    7.75
   6  10   6   65.08    9.29
  -6 -10  -6   64.87    8.86
   6  10   6   61.30    8.28
  -8   0  -9   14.98   13.39
   8   0   9   -0.52    4.26
   8   0   9    6.79    2.59
   8   0   9    3.79    3.38
  -8   0  -9    5.63    3.51
  -8   0  -9    8.90    2.24
   8   0   9   11.85    6.98
   2 -11   1   10.73    2.07
  -2  11  -1    9.89    2.71
  -2  11  -1   12.54    2.49
  -2  11  -1    8.39    2.07
  -2  11  -1   10.88    2.13
   2 -11   1    7.69    2.76
  -5   4  11    3.17    2.80
  -5   4  11    3.92    1.84
  -5   4  11    2.68    3.25
   4 -10   1   44.45    4.97
   4 -10   1   38.93    5.96
  -4  10  -1   49.09    4.92
  -4  10  -1   42.17    6.75
   9   1  -4   59.23    7.15
   9   1  -4   89.50   13.76
   5  10  -2   69.90    8.93
  -5 -10   2   69.85    8.60
  -5 -10   2   64.13    8.88
   5  10  -2   82.73    8.56
  -5 -10   2   63.03    9.96
  -6  -6   7    2.40    3.22
   6   6  -7    8.24    2.35
   6   6  -7    3.53    1.69
  -6  -6   7    2.91    3.81
  -6  -6   7    4.70    1.78
   6   6  -7    6.16    2.09
  -4  -1  12   11.17    4.83
  -4  -1  12   17.64    3.40
   4   1 -12   27.56    4.39
  -8  -5  -9   23.35    4.32
   8   5   9   27.66    6.10
  -8  -5  -9   25.47    3.26
   8   5   9   14.41    4.77
   8   5   9   37.92    6.87
   8   5   9   24.31    2.96
  -7  -9  -6    3.18    3.59
   7   9   6    8.28    3.07
   7   9   6    2.94    7.56
  -7  -9  -6    0.61    2.72
  -7  -9  -6    3.41    1.63
   7   9   6    4.43    1.69
  -6  -5 -12  103.82   12.99
   6   5  12   80.52   14.67
   5  -8   5   43.62    5.76
  -5   8  -5   44.45    6.54
  -5   8  -5   32.22    7.95
  -4 -11  -7   28.10    4.27
   4  11   7   48.11    7.31
  -4 -11  -7   28.03    4.26
  -4 -11  -7   34.32    5.08
   4  11   7   20.67    4.86
   1  -1 -14   36.59   13.37
  -1   1  14   49.81   10.98
  -1   1  14   28.85   10.32
   6  -7  -7   14.17    4.42
   6  -7  -7    7.66    3.33
  -6   7   7    8.43    2.03
   6  -7  -7    3.24    2.86
  -6   7   7    3.59    1.28
  -1   8  12    4.25    3.96
   1  -8 -12    5.91    2.50
   1  -8 -12    4.64    3.33
   8   8   4   11.20    2.19
  -8  -8  -4    4.15    3.24
  -8  -8  -4    4.81    4.55
   8   8   4    4.36    2.18
   8   8   4    4.91    7.83
   8   8   4    3.45    4.49
   8   8   4    5.48    1.65
   9   6   3   21.19    2.79
   9   6   3   19.02    7.41
   9   6   3   31.16    4.14
  -9  -6  -3   11.13    4.20
   9   6   3   19.67    3.89
   9   6   3   20.61   12.03
   9   6   3   16.99    3.72
   2   0  14   54.81    7.60
  -2   0 -14   23.99   11.68
   1  -9 -11   20.21    5.03
   1  -9 -11    4.93    4.83
  -1   9  11   14.84    4.89
  -1 -12  -4   -0.23    1.56
   1  12   4   -0.39    1.70
   1  12   4    0.10    1.82
   1  12   4   -0.16    1.01
  -2  11   6   59.17    7.36
  -2  11   6   22.39   12.28
   2 -11  -6   64.45    6.91
   2 -11  -6   53.67    5.93
   2 -11  -6   25.25    7.14
   2 -11  -6   38.05    5.61
  -5   7   9    4.28    2.36
   5  -7  -9    3.46    3.18
   5  -7  -9    7.32    3.41
   5  -7  -9    6.38    3.94
  -5   7   9    1.38    2.24
   4  -7   8   90.03   10.19
  -4   7  -8   51.16   10.42
  -8  -8  -2   21.86    4.04
  -8  -8  -2    9.86    5.70
   8   8   2   32.98    3.97
  -8  -8  -2   11.21    4.37
   8   8   2   22.42    3.21
   8   8   2   21.11   11.59
   8   8   2   15.94    3.73
   0   9  -7    9.53    2.03
   0   9  -7    8.50    2.10
   0  -9   7    8.17    1.92
  -7  -1 -11   17.48    3.72
   7   1  11   13.57    1.76
  -7  -1 -11   20.62    4.14
   7   1  11    5.70    4.81
  -7  -1 -11   14.90   13.17
  -9  -5   1   24.66    4.84
  -9  -5   1   55.58    7.41
   9   5  -1   50.99    6.29
   9   5  -1   57.05   13.82
   9   5  -1   58.43   16.36
   9   5  -1   49.47    6.74
   9   5  -1   77.06    8.78
   9   5  -1   54.70    6.06
   4 -10  -5   17.02    2.35
   4 -10  -5   21.80    3.89
   4 -10  -5    8.69    4.05
  -4  10   5   16.21    3.09
   4 -10  -5   14.78    3.52
  -5 -11  -3   28.12    3.74
   5  11   3   24.26    3.96
   5  11   3   20.47    4.02
  -5 -11  -3   18.45    4.89
  -5 -11  -3   21.61    4.26
  -5 -11  -3   19.40    3.58
  -3  -1 -14   67.32   19.09
   3   1  14  152.21   13.99
   3   1  14  117.25   10.59
  -3  -1 -14   71.09   11.30
  -8  -3   6    0.31    1.15
   8   3  -6    3.68    2.99
  -8  -3   6    1.78    3.23
   8   3  -6    0.39    4.71
   8   3  -6    0.62    1.49
   9   6   2   66.01    9.51
   9   6   2   95.17   10.00
   9   6   2   90.92   16.15
   9   6   2   95.24   21.90
   9   6   2   85.26    8.44
  -9  -6  -2   35.19    6.75
  -6  -7 -11   14.53    3.80
   6   7  11   14.02    3.64
   6   7  11   10.59    5.17
  -6  -7 -11    4.82    3.84
   6   7  11   12.28    6.78
  -6  -7 -11   10.21    2.22
   5  11   4    2.84    2.16
  -5 -11  -4    3.18    2.77
   5  11   4    3.93    2.17
  -5 -11  -4    4.92    1.80
  -5 -11  -4    3.65    2.38
   5  11   4    3.75    1.87
   0   5  14    4.35    6.06
   0   5  14   10.91    3.70
   0   5  14   15.00    6.73
   0  -5 -14    6.89    2.75
   0  -5 -14   12.65    4.96
   1  12   2   37.63    5.80
  -1 -12  -2   48.75    6.07
   1  12   2   46.88    5.92
  -9  -1  -7   -2.73   14.40
   9   1   7   -0.39    2.40
   9   1   7    0.16    2.18
   9   1   7    3.23    3.24
   9   1   7   -3.31    9.10
   9   1   7    0.66    2.47
   5   1  13   26.27    7.32
   5   1  13   47.68   10.66
  -5  -1 -13   30.29    6.10
  -2 -12  -3    5.29    2.89
  -2 -12  -3    7.20    2.24
  -2 -12  -3    6.66    1.93
   2  12   3    4.30    2.08
  -6   8   5   18.85    2.70
  -6   8   5    8.44    3.73
   6  -8  -5   19.28    4.82
   6  -8  -5   24.04    2.80
  -2   8  -8   32.62    3.79
   2  -8   8   40.04    5.63
   2  -8   8   39.72    4.58
  -2   8  -8   23.38    4.67
  -2   8  -8   27.09    6.17
  -7   7  -2   50.73    8.04
  -7   7  -2   20.84    8.88
   7  -7   2   53.60    6.51
   5   7  12   75.16   12.21
   5   7  12   25.14   11.07
  -5  -7 -12   43.13    7.94
  -5  -7 -12   83.52    9.74
   9   5   6   25.66    3.68
   9   5   6   18.59    2.86
   9   5   6   21.51    3.39
   9   5   6   16.17    3.99
   4  -1  13    1.04    2.50
  -4   1 -13    4.54    9.02
  -4   1 -13   -0.69    2.54
  -1  -9   7   19.16    3.63
  -1  -9   7   15.88    3.08
   1   9  -7   16.80    2.87
   2  12   4   20.23    4.33
   2  12   4   28.86    3.75
  -2 -12  -4   29.75    4.05
  -2 -12  -4   29.20    4.36
  -2 -12  -4   21.14    5.44
   3  -2  13    0.82    2.33
  -1  10  -5   30.44    3.72
  -1  10  -5   27.55    3.95
   1 -10   5   27.33    4.69
  -1  10  -5   25.00    3.65
   6   5  -8    5.79    2.17
   6   5  -8    9.98    2.62
   6   5  -8    3.65    1.89
  -6  -5   8    1.54    3.49
  -6  -5   8    5.71    1.83
  -2 -10   5   70.76    8.28
  -2 -10   5   57.32    7.53
   2  10  -5   64.11    7.12
  -3   0  13   22.34    6.58
   3   0 -13   47.48    5.35
  -3   0  13    9.17    5.63
   3   0 -13   22.40    8.96
   5  -6 -10  115.16   13.05
  -5   6  10   90.39   10.61
   5  -6 -10  121.52   25.15
  -5   6  10   71.84    8.57
  -4  -5  10   32.51    4.74
   4   5 -10   15.41    3.95
   4   5 -10   27.56    4.26
   9  -3  -2   20.96    6.17
   9  -3  -2   21.94    5.00
   9  -3  -2   15.87    2.45
   9  -3  -2    5.28    9.74
   4   9  11   17.66    9.30
   4   9  11   17.28   11.39
  -4  -9 -11   32.27    4.51
  -4  -9 -11   32.10    5.92
  -4  -9 -11   28.43    4.28
   4   9  11   32.41    6.98
   6  -6   7    1.63    1.33
  -6   6  -7    2.68    2.02
   9   6   4   24.94    3.73
   9   6   4   22.63    2.97
   9   6   4   18.15    2.86
   9   6   4   33.82    8.50
   9   6   4   19.41    3.39
   9   6   4   18.61    3.90
   9   6   4    7.25    9.18
  -1   4  14   -0.45    4.23
  -1   4  14    4.11    3.28
   1  -4 -14    0.20    1.65
  -1   4  14    0.22    2.62
  -1   4  14   -2.63    4.27
  -7  -9   0   79.18    9.57
  -7  -9   0   54.11   10.31
   7   9   0   92.41    9.77
  -7  -9   0   56.29    8.40
   9  -1  -4    6.37    9.08
   9  -1  -4   40.40    7.51
   9  -1  -4   28.73    7.46
   9  -1  -4   31.24   10.59
   6   7  -6   17.21    3.25
   6   7  -6   15.03    2.78
  -6  -7   6    6.74    4.94
  -6  -7   6   11.58    5.08
   6   7  -6   24.90    3.64
  -6  -7   6   17.12    3.05
   8   0  -7   62.51   12.06
  -8   0   7   59.77    9.67
   8   0  -7   33.34   10.33
   3  -6  10   42.94    5.37
  -3   6 -10   32.46    3.52
  -3   6 -10   13.13    7.54
   3  -6  10   30.43    3.64
  -4  -8 -12   29.86    4.36
   4   8  12   33.50    8.09
   4   8  12   20.20   13.04
   4   8  12   13.16    8.93
  -4  -8 -12   31.14    4.46
   7  -6  -6  102.53   11.84
   7  -6  -6   53.08   10.06
  -9   3  -3   81.78   21.76
   9  -3   3   57.38    5.65
   3  11  -2    2.16    1.60
  -3 -11   2    3.08    2.03
   3  11  -2    3.49    1.58
  -3 -11   2    1.63    3.37
  -3 -11   2    3.56    2.22
   3  11  -2    3.79    1.66
  -7   4   8   35.96    4.16
   7  -4  -8   35.28    8.72
   7  -4  -8   21.19   13.46
  -5 -11  -2   46.67    7.61
  -5 -11  -2   50.62    6.92
   5  11   2   44.27    6.58
  -5 -11  -2   47.57    6.93
   5  11   2   54.18    6.39
   0  12   3   40.25    5.80
   0 -12  -3   57.09    6.40
   0  12   3   56.61    6.42
   0 -12  -3   37.17    7.27
   0  12   3   37.89    6.14
   8  -5  -4   27.19    7.14
   8  -5  -4   45.73   16.64
   8  -5  -4   45.19    7.31
  -2 -12  -2    4.58    2.67
   2  12   2    5.54    2.11
  -2 -12  -2    7.68    2.06
   2  12   2    6.40    2.27
   2  12   2    4.36    2.18
  -2 -12  -2    4.10    2.84
  -2 -12  -2    8.48    2.15
   5  -7   7   52.44    6.56
  -5   7  -7   28.41    9.20
   1  11  -3   27.68    4.18
  -1 -11   3   33.44    5.71
  -1 -11   3   29.80    4.24
   1  11  -3   26.31    4.15
   1  11  -3   32.58    4.05
   5   8  -6    4.83    1.78
  -5  -8   6    4.38    2.06
  -5  -8   6    2.24    3.44
  -5  -8   6    1.37    3.13
   5   8  -6    3.78    1.87
  -8   1   7   83.69   12.38
   8  -1  -7   53.45   12.14
   8  -1  -7   81.81   15.11
  -4  -8   7    9.88    2.57
  -4  -8   7    3.50    3.84
  -4  -8   7    4.70    3.09
   4   8  -7    8.66    2.34
  -3  11   2    1.51    1.71
   3 -11  -2    0.30    1.89
  -3  11   2   -0.14    1.85
  -3  11   2    2.96    6.73
   9  -1   6   30.87    6.42
   9  -1   6    8.11    3.87
   9  -1   6   20.04    2.59
   9  -1   6   10.82    5.02
   9  -1   6   39.77    7.82
  -9   1  -6   13.39   12.86
   9  -1   6   25.18    2.75
  -3   5 -11    2.33    6.02
   3  -5  11   34.31    4.85
   3  -5  11   33.87    4.58
   3  -5  11   25.49    3.16
   9   4   7   50.32    5.93
   9   4   7   40.06    7.18
   9   4   7   50.78    6.64
   9   4   7   42.00    5.28
   5   5  13   57.03   12.48
  -5  -5 -13   87.18   11.06
  -5  -5 -13   70.21    8.00
   5  11   5    7.39    2.66
   5  11   5   12.38    3.16
  -5 -11  -5   11.00    3.01
  -5 -11  -5    3.82    3.33
   5  11   5    9.94    2.59
  -5 -11  -5   12.45    2.55
   4  -9  -8    6.85    2.75
   4  -9  -8    3.75    3.75
   4  -9  -8   12.34    3.39
  -4   9   8   15.86    4.47
   9   6   1   95.13   11.64
   9   6   1  110.77   24.03
   9   6   1   85.52   10.75
   9   6   1  138.58   12.49
  -9  -6  -1   61.12    9.03
   9   6   1  109.14   18.98
   9   6   1  109.91   10.31
   6  10   0    5.99    2.19
  -6 -10   0    6.48    3.00
  -6 -10   0    6.66    2.60
  -6 -10   0    7.20    3.34
   6  10   0    7.78    2.01
   4  -3  12   28.39    4.50
  -4   3 -12   15.08    4.60
   9   2  -4   73.58    8.16
   9   2  -4   74.09   15.09
  -9  -2   4   84.40   12.06
   1  12   5    5.87    2.80
   1  12   5    9.60    2.89
  -1 -12  -5    4.37    3.25
   1  12   5    7.18    1.96
   8   8   5   16.15    2.61
   8   8   5   12.29    3.51
   8   8   5   28.03    3.79
   8   8   5   21.12   12.43
  -8  -8  -5   12.58    5.73
  -8  -8  -5    5.04    3.93
   8   8   5   18.12    6.94
   8   8   5   17.66    2.95
  -3   4  13   29.90    4.74
   3  -4 -13   10.19    8.36
  -3   4  13   20.25    5.50
  -3   4  13   16.63    6.78
   3  -4 -13   18.55    6.32
  -3  11   3   16.84    4.15
   3 -11  -3    9.62    3.76
  -3  11   3   24.60    3.65
   3 -11  -3   26.85    3.64
  -7   6  -5   34.64    6.50
   7  -6   5   36.11    4.67
   6  -2  11   42.76    7.73
  -6   2 -11   92.10   11.16
   6  -2  11  131.33    9.01
   7   3  -8   61.14    8.44
  -7  -3   8   74.52    7.99
   7   3  -8  115.59   11.32
   0  12   2    3.35    1.98
   0  12   2    4.46    1.70
   0  12   2    6.00    2.14
   0 -12  -2    3.07    2.29
   0 -12  -2    4.10    1.88
   0  11  -3    0.39    1.20
   0 -11   3    0.48    1.16
   0 -11   3    1.48    2.66
   0  11  -3    0.93    1.52
   0  11  -3    1.29    1.23
   3   5  14   -6.27   10.91
   3   5  14    3.02    4.89
  -3  -5 -14    5.81    2.20
  -3  -5 -14    3.12    3.36
   0  12   4   25.17    5.16
   0 -12  -4   23.09    5.40
   0  12   4   27.57    4.57
  -7   7   4    4.66    1.28
   7  -7  -4    0.60    2.28
   7  -7  -4    2.71    2.63
  -8  -8  -1   29.60    8.65
   8   8   1   45.59    7.10
   8   8   1   54.50    6.33
  -8  -8  -1   27.72    6.13
   8  -3   7   96.18    9.86
  -8   3  -7   88.75   23.24
  -8   3  -7   83.35   11.91
   8  -3   7   93.24    9.22
   9  -2   5   42.06    7.55
   9  -2   5   31.30    3.62
   7  -1  -9   22.61    8.82
   7  -1  -9   56.74   11.49
  -7   1   9   44.08    7.67
  -7   1   9   21.24    5.54
   3   3 -12   14.04    6.04
  -3  -3  12   31.26    9.88
  -3  -3  12   78.14    8.08
   1  -9   7   14.55    2.37
  -1   9  -7   10.82    2.11
  -1   9  -7   11.10    2.40
   1  -9   7   13.25    3.17
   7   5  11   24.18    5.00
   7   5  11   12.48    6.18
  -7  -5 -11   17.13    4.05
  -7  -5 -11   17.39    2.60
   7   5  11    9.40    6.51
  -6   0 -12   17.98    3.43
   6   0  12   15.64    4.73
   6   0  12   23.77    7.66
  -6   0 -12   12.23    3.65
  -6   8  -3   13.52    6.44
   6  -8   3   38.15    5.73
  -7   4  -8   24.84    5.03
  -7   4  -8   26.73    3.31
   7  -4   8   29.02    4.06
   1  12   1   45.43    6.11
  -1 -12  -1   54.74    6.54
   2  12   5   37.94    4.76
  -2 -12  -5   53.90    6.33
   2  12   5   34.28    5.88
  -2 -12  -5   53.29    6.78
  -8   2  -8    3.34    9.40
  -8   2  -8    6.31    1.53
   8  -2   8    9.27    1.82
   8  -2   8    8.38    1.95
  -8   2  -8    3.97    3.13
   6   9   9   -0.89    3.14
  -6  -9  -9   -1.54    3.74
  -6  -9  -9    1.92    2.63
  -6  -9  -9    1.67    1.67
   6   9   9    1.96    7.54
   2 -10  -9    0.15    2.60
  -2  10   9    0.97    2.68
   2 -10  -9    1.01    3.09
   2 -10  -9   -0.54    2.39
   7  -3   9   74.03    7.71
  -7   3  -9   57.52    6.90
  -7   3  -9   64.78    8.68
   7  -3   9   70.57    8.14
  -4 -11   1   35.04    5.63
   4  11  -1   39.74    5.64
  -4 -11   1   35.02    5.48
   4  11  -1   48.22    5.49
  -4 -11   1   32.52    6.74
   4  11  -1   36.01    5.18
  -8  -1   7    2.40    2.88
   8   1  -7    0.54    5.08
   8   1  -7    2.91    4.32
   1  -3  13   57.70    7.39
  -7   0   9    1.61    1.06
   7   0  -9    3.33    4.65
  -7   0   9    2.16    3.17
  -7   0   9    0.23    2.53
  -3  11   1   17.48    9.12
  -3  11   1   27.87    5.12
   3 -11  -1   23.04    4.48
  -3  11   1   34.81    4.56
   0  -3  13   30.64    5.10
   6   9  -3   53.06    6.44
   6   9  -3   48.92    6.68
   6   9  -3   53.49    6.18
  -6  -9   3   39.89    8.33
  -6  -9   3   57.29    9.33
  -6  -9   3   52.60    6.88
   5  -8  -8   10.34    5.87
   5  -8  -8   13.68    4.33
  -5   8   8   56.31    7.99
   8   7  -2   17.43    3.03
   8   7  -2   15.78    2.77
   8   7  -2   16.19    3.30
  -8  -7   2   22.47    5.16
  -8  -7   2   13.91    3.25
   5  -2  12   10.72    2.95
  -5   2 -12    6.22    3.03
   5   2 -11   -0.92    2.34
  -5  -2  11    0.31    3.15
  -2  -2  13   41.58    5.42
  -2  -2  13   13.77    7.11
   8  -5   4   43.22    5.14
  -8   5  -4   32.24    6.91
  -2   6  13  142.96   15.36
   2  -6 -13  107.89   15.65
  -2   6  13   95.08   17.50
  -3   7  -9   55.50    5.92
   3  -7   9   80.50    9.42
   1   0 -14   27.89   10.89
  -1   0  14   59.59    6.71
  -1   0  14   18.94    7.92
  -3  -7   9    7.00    5.35
  -3  -7   9    9.17    2.40
  -3  -7   9    2.65    2.67
   3   7  -9    9.36    2.45
  -5   9   6   13.82    2.72
   5  -9  -6    5.98    3.79
   5  -9  -6   18.57    2.71
   5  -9  -6   10.31    3.56
   5   4 -10   18.50    5.05
  -5  -4  10   47.01    5.89
   5   4 -10   32.34    5.11
   9   6   5   -0.14    1.30
   9   6   5    0.10    0.86
   9   6   5   -0.35    3.03
   9   6   5   -1.10    9.02
   9   6   5   -0.39    1.98
   9   6   5    0.30    0.81
   9   6   5    1.11    1.31
   3 -11  -4   12.46    2.64
  -3  11   4    5.68    2.77
   3 -11  -4    4.95    3.11
  -3  11   4   10.67    2.52
  -3  11   4    7.29    8.13
   3 -11  -4    8.29    2.39
  -1 -11  -9   97.54    9.04
   1  11   9  105.18   13.66
  -1 -11  -9   20.73    7.95
   2  11  -3   46.60    5.89
  -2 -11   3   55.83    6.99
  -2 -11   3   61.02    8.18
   2  11  -3   50.83    5.78
   2  11  -3   42.83    5.96
  -3  -6  10    3.78    3.05
  -3  -6  10    5.07    5.33
  -3  -6  10   13.37    2.81
   3   6 -10   10.49    2.58
   3   6 -10    9.47    3.07
   1  -7 -13   67.98    9.16
  -1   7  13   46.41   10.59
   1  -7 -13   52.68   10.06
  -2 -12  -1    1.35    1.98
  -2 -12  -1    0.72    2.78
   2  12   1    0.20    1.57
   2  12   1    0.57    1.59
   2  12   1    0.75    1.52
  -2 -12  -1    0.98    1.52
  -9   0  -7   34.48   18.54
   9   0   7   38.15    8.97
   9   0   7   21.81    5.67
   9   0   7   14.45    4.86
   9   0   7   43.73    7.60
   7  -2  -9    9.61    5.97
   7  -2  -9   13.86    8.12
  -7   2   9   21.77    5.53
   1   6  14    3.35    4.76
  -1  -6 -14    3.20    3.53
   1   6  14    2.87    2.30
   2  11   9   28.22   10.86
  -2 -11  -9   44.38    5.85
  -2 -11  -9   45.16    6.60
  -2 -11  -9   38.54    4.92
   5  11   1   21.89    3.64
  -5 -11  -1   23.04    4.75
   5  11   1   26.26    3.78
  -5 -11  -1   17.86    4.26
  -5 -11  -1   22.62    4.31
   5  11   1   20.60    3.89
   6  10   7   41.63    7.59
  -6 -10  -7   56.44    6.23
   6  10   7  104.19   11.02
  -6 -10  -7   56.63    7.66
   4   3  14   -0.49    4.11
   4   3  14   -4.55    8.61
  -4  -3 -14    5.68   10.10
  -4  -3 -14    0.07    1.18
  -4  -3 -14   -0.45    2.42
   0 -12  -1   30.83    5.90
   0  12   1   48.58    5.67
   0  12   1   31.56    5.19
   0 -12  -1   42.60    5.14
   1 -10 -10    2.21    2.55
   1 -10 -10   -0.72    3.23
  -1  10  10   -0.55    2.95
  -1  10  10    1.81    6.47
   1 -10 -10    1.17    2.47
  -3   9  -6   51.48    7.73
  -3   9  -6   36.27    5.09
   3  -9   6   44.19    6.00
   8  -6   0    7.40    2.33
   8  -6   0    9.99    3.88
   8  -2  -7   19.59    8.85
   8  -2  -7   25.73    7.93
  -8   2   7   39.87    7.87
   7   8  -3    4.17    1.81
  -7  -8   3    2.71    1.87
  -7  -8   3    5.50    3.57
  -7  -8   3    2.58    3.70
   7   8  -3    6.07    2.13
   1 -11  -8   -0.11    1.85
  -1  11   8    0.99    6.20
   1 -11  -8   -0.60    2.52
   1 -11  -8   -0.45    1.94
  -1  11   8    1.18    3.11
  -2  -4  12    0.45    4.25
  -2  -4  12    5.00    2.23
   2   4 -12   -1.44    4.45
   0  12   5    0.10    1.33
   0  12   5    1.07    1.96
   0  12   5    0.17    1.94
   0 -12  -5    0.23    2.44
   1  -1  14   39.09    5.98
  -1   1 -14   10.66    7.12
   8  -6  -1    2.08    1.72
   8  -6  -1    5.85    3.38
  -5   9  -3   28.63    6.63
   5  -9   3   29.10    3.41
  -5   9  -3   31.94    5.65
   5  -9   3   43.26    6.06
  -2  -9   7   39.17    5.34
   2   9  -7   34.79    4.47
  -2  -9   7   30.44    4.91
  -2  -6 -14   33.48    5.34
  -1  -9 -12   44.43    6.62
   1   9  12   43.85    8.90
   1   9  12   28.90   12.91
  -1  -9 -12   49.10    8.05
   8   3  10   12.39    5.62
  -8  -3 -10   22.20    4.00
   8   3  10   26.50    5.49
   8   3  10   10.56   11.20
   8   3  10    5.63    5.00
   8   3  10   15.72    2.14
   2   9  12   17.45   10.90
  -2  -9 -12   69.40    8.06
  -2  -9 -12   57.05    6.42
  -2  -9 -12   70.16    9.83
   2   9  12   46.14   15.04
   6  -4 -10    6.96    4.88
   6  -4 -10   13.66   11.33
  -6   4  10   15.99    4.40
  -6   4  10   16.09    2.72
  -6   4  10   23.75    5.65
   3  12   3   31.26    5.27
  -3 -12  -3   25.81    6.04
   3  12   3   30.95    5.04
  -3 -12  -3   37.73    5.04
   3  12   3   41.96    5.46
  -3 -12  -3   41.71    5.21
   7   9   7   14.28    3.97
  -7  -9  -7    5.43    4.57
   7   9   7    7.68    2.20
  -7  -9  -7    9.46    4.54
  -7  -9  -7   10.53    2.38
   7   9   7    8.00    9.98
   4 -10   2   46.04    5.14
   4 -10   2   46.79    6.57
  -4  10  -2   45.84    6.95
  -4  10  -2   45.99    5.03
  -6  -2  10   32.62    8.34
   6   2 -10   64.28    8.89
  -6  -2  10   47.66    5.49
  -9  -4   3   23.99    5.56
   9   4  -3   23.40    3.82
   9   4  -3   23.71    3.61
   9   4  -3   24.37    3.18
   9   4  -3   28.37    6.03
   9   4  -3   24.31   10.96
   9   4  -3   22.35    9.86
   7   0  11   12.92    1.86
  -7   0 -11   14.86    3.45
  -7   0 -11   22.06   14.86
  -7   0 -11   20.17    4.07
   7   0  11   14.23    4.63
  -3 -12  -4   56.32    6.39
  -3 -12  -4   51.80    6.09
   3  12   4   57.19    6.94
   3  12   4   40.77    6.61
  -4   5  12   13.65    3.26
  -4   5  12   12.29    4.00
  -4   5  12    7.82    5.03
   8  -4   6   42.96    5.04
  -8   4  -6   43.00    7.87
   8   2  10   -0.62   10.44
  -8  -2 -10   -4.29   13.92
   8   2  10    1.66    1.05
   8   2  10    2.88    3.93
  -8  -2 -10    2.22    1.70
  -3   0 -14   25.99    6.58
  -3   0 -14   27.78   12.57
   3   0  14   54.25    7.74
  -7  -7 -10   14.78    2.62
   7   7  10   10.71    4.25
  -7  -7 -10   18.81    4.06
   7   7  10   13.39    4.32
   7   7  10   14.96    4.88
   5  11   6   31.91    6.00
   5  11   6   49.60    6.56
  -5 -11  -6   41.27    5.00
  -5 -11  -6   35.12    5.38
   4   2  14   -0.87    5.98
  -4  -2 -14    5.68    3.64
  -4  -2 -14    7.23    1.88
  -4  -2 -14    4.25   10.14
   4   2  14    0.91    3.64
   4   2  14   10.38    6.77
   6   4  -9    2.09    1.66
   6   4  -9   -0.83    2.42
   6   4  -9    0.67    2.02
  -6  -4   9    0.38    1.34
   9  -2  -4   52.74   10.73
   9  -2  -4   74.37   10.78
   9  -2  -4   46.25   12.83
   9   6   0   19.37    3.73
   9   6   0   14.71   10.52
   9   6   0   19.53    3.22
  -9  -6   0    9.68    3.47
   9   6   0   35.41    4.96
   9   6   0   25.47   10.13
  -9  -6   0   23.67    4.73
  -4 -10 -10   28.57    5.11
  -4 -10 -10   24.36    3.62
   4  10  10    9.89    4.27
   4  10  10   23.84   11.47
   4  10  10   26.40    5.96
   5   0  13    4.64    5.37
  -5   0 -13   -4.02    9.98
   5   0  13   -1.58    3.56
   5   0  13    0.84    3.98
  -5   0 -13    0.19    2.15
   3 -10  -8   24.07    3.97
   3 -10  -8    4.89    3.91
   3 -10  -8   10.53    3.04
   3 -10  -8   19.19    4.17
  -3  10   8   31.42    5.96
  -3   4 -12   31.72    3.63
   3  -4  12   46.04    6.14
  -7   7  -3   34.55    6.84
   7  -7   3   52.04    6.69
   4 -10  -6   60.82    6.09
   4 -10  -6   71.64    7.94
  -4  10   6   53.47    6.80
  -5 -10  -9   17.89    3.39
   5  10   9   10.21    9.51
  -5 -10  -9   20.51    4.24
   5  10   9   10.16    3.96
   5  10   9   21.67    4.91
  -5 -10  -9   18.46    3.27
   7  -5   7    1.20    1.15
  -7   5  -7    1.56    2.19
  -2  11  -2    1.34    1.49
   2 -11   2    0.85    1.09
   2 -11   2    0.86    1.87
  -2  11  -2    1.63    1.45
   9  -3  -3    0.96    3.48
   9  -3  -3    1.16    1.04
   9  -3  -3    0.21    2.36
  -4 -10   4   31.78    5.29
  -4 -10   4   16.33    5.98
  -4 -10   4   17.64    3.87
   4  10  -4   19.31    3.49
   7   1  -9   51.24    8.93
  -7  -1   9   29.03    3.35
  -7  -1   9   34.54    7.51
   6   6  12   -1.17    4.98
   6   6  12    1.45    5.56
  -6  -6 -12    0.50    2.45
   6   6  12   -0.13    1.78
   1  12   6    5.24    2.89
   1  12   6    2.93    1.54
  -1 -12  -6    2.31    3.07
   4   4  14   -0.49    3.85
   4   4  14   -4.67   11.18
  -4  -4 -14    0.68    2.44
  -4  -4 -14    0.90    1.33
   8   8   6   92.82   15.06
  -8  -8  -6   42.19    9.62
   8   8   6   81.67    9.83
  -8  -8  -6   59.66   10.95
   8   8   6   83.64   22.32
   8   8   6   75.61   10.98
   6   8  -5    2.01    1.76
  -6  -8   5    2.52    3.56
  -6  -8   5   -0.28    3.47
   6   8  -5    2.13    1.74
  -6  -8   5    2.12    2.05
  -4   9  -5   13.33    5.64
  -4   9  -5   10.02    2.73
  -4   9  -5   14.74    4.77
   4  -9   5   14.60    3.13
   3 -11   0   39.06    6.47
  -3  11   0   54.00    5.96
  -3  11   0   58.97    6.63
  -3  11   0   46.73    7.35
  -3  11   0   63.56   14.53
   3 -11   0   51.77    5.66
   8  -6   1   11.45    2.44
   8  -6   1   14.39    4.38
  -2   3 -13    1.54    4.20
   2  -3  13   10.40    3.19
   7  -2  10  135.44    9.56
  -7   2 -10   93.47   11.18
   7  -2  10   39.22    9.24
  -7   2 -10  122.78   12.92
  -7   2 -10   77.29   22.33
  -4  -7 -13   62.92    7.51
   4   7  13   43.90   10.62
   7   8   9   86.80   10.55
   7   8   9   69.70    9.96
   7   8   9   52.55    9.49
  -7  -8  -9   71.50    7.92
  -7  -8  -9   88.15    9.52
   9  -3   4  104.09   10.48
  -9   3  -4  122.89   27.47
   1  -5 -14   13.20    5.56
  -1   5  14    3.14    5.07
  -1   5  14   13.84    4.43
  -1   5  14   15.87    5.11
   1  -5 -14    8.42    4.07
  -1   5  14    8.79    6.25
  -1  11  -3   12.29    2.43
   1 -11   3   16.33    4.10
  -1  11  -3   15.97    2.58
  -3 -12  -2   32.96    6.60
   3  12   2   34.11    5.58
   3  12   2   49.64    5.88
  -3 -12  -2   49.76    5.95
  -3 -12  -2   45.27    5.69
   3  12   2   37.30    5.49
  -8   1  -9   24.67   14.78
  -8   1  -9   27.03    3.86
  -8   1  -9   24.20    5.68
   8  -1   9   15.88    4.59
   8  -1   9   34.33    4.18
   8  -1   9    7.90    4.85
   8  -1   9   40.00    8.44
   9   5  -2   10.41    2.38
   9   5  -2   11.06    2.70
   9   5  -2   12.70    2.24
   9   5  -2    9.29    7.35
  -9  -5   2   14.04    4.09
   9   5  -2   11.85    9.71
   2 -11  -7   20.26    3.84
   2 -11  -7   17.53    3.27
  -2  11   7   19.72    4.11
  -2  11   7    3.10    6.96
   2 -11  -7    7.86    4.22
  -4 -11  -8   31.50    4.56
   4  11   8   43.41    7.10
  -4 -11  -8   32.27    4.45
  -4 -11  -8   35.59    5.41
   4  11   8   17.95    4.85
  -2 -12  -6   18.80    3.02
   2  12   6   11.75    2.31
   2  12   6   12.09    3.72
  -2   2  14   22.44    4.02
   2  -2 -14   20.09    3.02
  -2   2  14   11.75    4.92
  -3  -1  13   32.50    9.43
  -3  -1  13   77.65    8.03
   3   1 -13   71.31    7.58
  -8  -5   5   28.40    3.96
   8   5  -5   31.21    4.49
   8   5  -5   27.72    3.86
  -8  -5   5   31.36    6.86
   8  -6  -2    7.06    3.77
  -3  -8   8   52.87    8.18
   3   8  -8   68.66    8.01
  -3  -8   8   37.29   11.07
   8   6   9    6.42    3.25
  -8  -6  -9    5.54    2.31
   8   6   9    3.28    2.83
  -8  -6  -9    5.16    1.51
   8   6   9    9.71    4.42
  -8  -8   0    9.91    3.28
  -8  -8   0    5.79    4.50
   8   8   0   11.48    2.86
   8   8   0   17.70    3.11
  -8  -8   0    8.51    3.21
   8   8   0   11.45    2.12
   0   7 -10   22.20    5.41
   0  -7  10   25.78    3.97
   0  -7  10   39.00    5.15
   0   7 -10   15.32    4.53
   4   2 -12   56.95    6.61
  -4  -2  12   49.18    6.06
  -4  -2  12   29.17    8.05
   8   7   8    8.92    4.28
   8   7   8    6.16    2.88
   8   7   8    6.49    2.87
   8   7   8    9.26   10.56
  -8  -7  -8    7.37    2.66
  -8  -7  -8    7.82    1.86
   8  -4  -6   25.04    5.96
   8  -4  -6   13.16   12.25
   8  -4  -6   15.59    5.49
  -5   5  11   33.51    7.28
  -5   5  11   37.52    5.03
   0   6 -11   -0.64    3.37
   0   6 -11    1.22    1.40
   0  -6  11    0.86    1.39
   0  -6  11    1.49    1.93
   8   4  10   23.81    7.75
   8   4  10   21.99    2.69
  -8  -4 -10   23.93    4.45
   8   4  10   15.63    5.93
   8   4  10   29.91    5.94
   3  -8 -11   62.02   10.53
   3  -8 -11   76.81   10.02
  -3   8  11   49.63    8.30
  -1  -8 -13   19.87    5.37
  -1  -8 -13   15.06    3.78
   3  12   5   45.43    7.05
  -3 -12  -5   38.60    8.63
   3  12   5   49.81    5.65
  -3 -12  -5   67.29    7.09
  -9   4   0    8.83    8.81
   9  -4   0    5.20    3.73
   1  12   0   18.06    3.48
   1  12   0   18.64    3.33
  -1 -12   0   23.89    3.57
  -2  -8 -13   -0.89    3.49
  -2  -8 -13   -0.32    1.90
   9   3  -4   27.44    5.95
   9   3  -4   15.63    8.60
   9   3  -4   17.82    3.05
   9   3  -4   21.90    9.16
   9   3  -4   15.62    2.55
   1   3 -13   15.15    8.72
  -1  -3  13   30.67    8.78
   7   6  -6   43.31    5.31
  -7  -6   6   25.62    7.08
   7   6  -6   26.09    3.87
  -7  -6   6   32.64    4.50
  -4  -4  11   77.93    9.01
   4   4 -11   27.25    5.43
  -7  -9   1   44.00    6.51
   7   9  -1   55.18    6.27
  -7  -9   1   43.76    7.51
  -1  12   3    5.22    2.53
   1 -12  -3    5.28    2.86
  -1  12   3    7.05    2.31
  -1  12   3    8.23    2.47
   8   2  -7    1.16    3.44
  -2   1 -14   20.60   10.74
  -2   1 -14   20.21    8.07
   2  -1  14   42.35    6.27
   9   5   7   21.73    3.19
   9   5   7   17.96    4.50
   9   5   7   24.14    4.05
   9   5   7   18.84    2.97
   9   5   7   32.82    7.78
  -3  10  -4   23.91    3.23
   3 -10   4   28.57    4.77
  10   2   2   40.69    9.41
  10   2   2   32.31    5.08
  10   2   2   27.39    3.27
  10   2   2   29.09    4.52
  10   2   2   24.91    3.39
  10   2   2   33.18    6.92
  -2   3  14   10.04    3.40
  -2   3  14    3.98    4.35
  -2   3  14    5.42    3.46
   2  -3 -14   10.48    2.75
   2  -3 -14    5.17    6.69
  10   1   2   13.61    2.93
  10   1   2   12.50    2.03
  10   1   2   22.14    7.40
  10   1   2   14.58    5.80
  10   1   2    7.89    6.11
  10   1   2   17.43    3.69
  -4   8  -7   13.16    5.59
   4  -8   7   25.02    4.10
   6  -8  -6   36.60    6.79
   6  -8  -6   57.07    5.66
  -6   8   6   45.35    5.49
  10   1   1   34.61    8.49
  10   1   1   30.89    4.61
  10   1   1   29.97    3.75
  10   1   1   39.82    5.85
  10   1   1   38.85    9.60
  10   1   1   14.68    6.87
   0   6  14   -0.32    2.20
   0   6  14   -7.13    8.29
   0   6  14    0.46    5.34
   0  -6 -14   -0.57    3.24
  -9   4  -1   32.12   13.63
   9  -4   1   44.08    8.07
   3 -11  -5    8.35    2.60
   3 -11  -5    5.42    2.14
  -3  11   5    3.99    8.20
  -3  11   5    5.70    2.39
   3 -11  -5    3.80    3.19
  -2 -10 -11   39.90    6.65
   2  10  11   12.62    9.62
   2  10  11   14.39    9.21
  -2 -10 -11   37.53    5.43
  -2 -10 -11   32.63    4.13
   0 -11  -9   16.45    7.21
   0  11   9   71.74    9.53
   0 -11  -9   74.37    7.75
   0  11   9   23.42   12.15
  -1 -10 -11    0.40    3.55
  -1 -10 -11   -0.19    2.72
   1  10  11   -0.73    6.97
  -2  10  -5   55.53    6.11
   2 -10   5   56.12    7.47
  -2  10  -5   52.33    6.06
   1 -12  -2   22.26    3.42
  -1  12   2   22.43    3.66
  -1  12   2   14.93    3.52
  -1  12   2   18.49    3.54
   1 -12  -2   13.89    3.93
  10   2   1   18.64    5.71
  10   2   1   19.27    4.21
  10   2   1   16.61    3.27
  10   2   1   20.01    2.46
  10   2   1   27.60    8.09
  10   2   1   16.46    2.64
   7   5  -7   70.89    7.38
  -7  -5   7   44.36    5.49
   7   5  -7   39.65    5.41
   8   6  -4   14.63    3.03
  -8  -6   4   15.04    4.92
  -8  -6   4   13.76    2.78
   8   6  -4   23.47    4.20
   8   6  -4   16.62    2.69
  -3 -10   5    8.49    5.61
  -3 -10   5   22.34    3.93
  -3 -10   5   14.44    3.39
  -1   6 -11   -1.61    4.78
   1  -6  11    1.91    1.13
  -1   6 -11    2.40    1.34
  -9  -2  -8    3.85    1.71
   9   2   8    0.23    2.77
   9   2   8    1.51    2.91
   9   2   8    2.02    1.51
   9   2   8   -0.61   10.70
   9   2   8    2.49    3.09
   3   5 -11    0.42    2.52
  -3  -5  11    0.36    1.60
  -8  -1 -10   21.70   15.40
  -8  -1 -10   23.32    3.90
   8   1  10   10.81    5.38
   8   1  10   15.69    2.47
  -3 -11  -9    5.08    1.66
  -3 -11  -9   -0.35    2.92
   3  11   9    1.37    2.76
  -3 -11  -9    6.49    2.88
   3  11   9    1.62    7.36
  -9  -3  -8    2.02    1.59
   9   3   8    0.46    2.65
   9   3   8    0.92    2.28
   9   3   8    0.36    1.60
   9   3   8    3.28    3.01
  -2   1  14   11.46    6.74
   2  -1 -14   29.96   10.11
  -2   1  14   26.58    7.12
   2  -1 -14    8.06    8.30
  -1   7 -10    3.24    3.74
  -1   7 -10    6.76    1.69
   1  -7  10    6.89    1.78
   9  -4  -1    0.54    2.98
  -9   4   1   -0.62    5.92
   9  -4  -1    2.36    8.43
   6  10  -1   22.76    3.31
  -6 -10   1   19.69    4.94
  -6 -10   1   16.46    3.77
   6  10  -1   19.48    3.73
  -1  12   4   31.16    5.14
  -1  12   4   21.21    5.05
   1 -12  -4   24.73    5.51
   5   6  13    3.12    5.47
  -5  -6 -13    6.53    1.81
  -5  -6 -13    4.35    3.34
  -3   5  13   85.27   11.22
  -3   5  13   53.09   11.98
  -3   5  13   74.57    9.59
   0  -9 -12    6.33    3.49
   0   9  12    5.72    4.24
   0   9  12    1.40    6.23
  10   2   3   46.27    6.74
  10   2   3   51.36    8.75
  10   2   3   72.22   12.21
  10   2   3   59.50    7.07
   3   9  12    2.77    6.61
   3   9  12    2.68    8.32
  -3  -9 -12    6.49    1.75
  -3  -9 -12    6.59    2.33
  -3  -9 -12    7.94    3.70
   7  -7  -5   16.09    4.88
   9   0  -5    0.44    4.44
   9   0  -5    4.66    6.21
  -4  -9   6    0.39    3.72
  -4  -9   6    0.31    2.23
  -4  -9   6    0.31    1.77
   4   9  -6    1.28    1.59
   8   4  -6    4.97    3.30
   8   4  -6    5.63    2.20
   8   4  -6    4.67    1.67
  -8  -4   6    6.15    2.17
   8  -5  -5   28.02    6.85
   8  -5  -5   36.90   15.50
   7  -3  -9   43.00   10.50
  -7   3   9   98.70   12.10
  -7   3   9   65.93    7.46
   7  -3  -9   63.73   13.70
   9   6   6   13.98    2.95
   9   6   6   16.40    6.00
   9   6   6   11.94    2.29
   9   6   6    9.09    1.97
   9   6   6    7.41    2.78
   9   6   6   14.05   12.14
   0  12   0   90.71   10.27
   0 -12   0   89.88   11.71
   0 -12   0  102.91   10.58
   1   7 -10   12.07    3.68
   1   7 -10   13.23    2.49
  -1  -7  10   16.11    3.32
  -1  -7  10    7.15    2.41
   1   7 -10    4.25    2.83
  -5 -10   3   44.44    8.50
   5  10  -3   57.81    7.30
  -5 -10   3   51.24    6.99
   4   1  14   57.66   10.45
  -4  -1 -14   25.42    3.55
   4   1  14   36.33    7.75
  -4  -1 -14   25.30    5.97
  -2   9  -7   18.82    2.80
   2  -9   7   22.79    4.06
  -2   9  -7   15.13    3.14
  -3  -6 -14   24.84    4.17
  -6   7  -6   12.68    3.42
   6  -7   6   10.81    2.40
  -6   7  -6   -1.70    7.95
  -4   8  10   20.19    4.69
   4  -8 -10   27.34    6.18
   4  -8 -10   35.53    5.93
  10   1   3   11.41    7.26
  10   1   3   10.60    5.10
  10   1   3   21.70    3.65
  10   1   3   26.05    7.24
  10   1   3   13.56    2.09
  10   1   3   16.80    3.48
  -2 -12   0   21.56    3.18
   2  12   0   18.17    3.50
  -2 -12   0   14.68    5.34
   2  12   0   19.16    3.42
  -2 -12   0   16.17    3.94
   0 -12  -6   -0.77    3.09
  -5  -9   5   28.90    6.51
   5   9  -5   35.99    4.96
  -5  -9   5   47.44    6.20
  -5  -9   5   33.07    7.98
   9   1  -5  136.52   19.78
   3  -9 -10   39.76    6.34
   3  -9 -10    4.19    4.87
  -3   9  10    6.57    9.79
  -3   9  10   36.50    6.06
   7   6  11   37.57    6.41
   7   6  11   33.58   10.52
  -7  -6 -11   26.70    3.67
   7   6  11   27.26    7.86
  -7  -6 -11   30.76    5.21
  10   1   0    2.53    4.82
  10   1   0    2.69    1.55
  10   1   0    1.46    4.77
  10   1   0    3.07    2.68
  10   1   0    2.68    1.24
  10   1   0    2.35    4.68
  -4   7  11   36.08    6.57
   4  -7 -11   58.49    8.95
  -4   7  11   21.02    5.42
   4  -7 -11   36.83    8.48
  -5 -11   0   37.53    6.20
   5  11   0   43.17    6.06
   5  11   0   49.40    5.83
  -5 -11   0   44.16    7.09
   5  11   0   41.51    5.65
   5  -5  10    2.22    1.78
  -5   5 -10    1.49    1.87
   5  -5  10    4.11    2.05
   8  -6   2   46.95    7.47
   8  -6   2   28.52    4.10
  -6   6   9   11.28    2.23
   6  -6  -9   46.94   16.69
  -6   6   9   25.39    3.77
   6  -6  -9   34.39    7.05
   6  -6  -9   14.28    5.44
   1   6 -11   19.26    5.69
   1   6 -11   39.55    4.65
  -1  -6  11   20.30    4.58
  -1  -6  11   44.19    5.41
   3  -8   8   39.84    5.71
  -3   8  -8   31.62    3.92
  -3 -12  -1    7.65    2.08
   3  12   1    4.16    1.99
  -3 -12  -1    6.24    2.77
  -3 -12  -1    2.82    2.45
   3  12   1    5.37    2.20
  10   0   1   26.07    3.44
  10   0   1   40.60    9.07
  10   0   1   29.62    4.32
  10   0   1   43.36    6.06
  10   0   1   27.26    6.00
  10   0   1   17.14    7.94
  -3   7  12    1.10    2.89
   3  -7 -12   -0.58    3.63
   3  -7 -12   -0.66    2.94
   7   7  -5    1.99    1.94
   7   7  -5   -0.05    1.46
  -7  -7   5   -0.31    1.72
  -7  -7   5   -1.00    4.07
  -7  -7   5    0.85    2.98
  10   3   2   55.41    7.16
  10   3   2   48.82    6.54
  10   3   2   58.91    8.21
  10   3   2   42.07    5.33
  -9   4  -2   16.25   11.58
   9  -4   2   17.37    5.07
   0   8  -9   -0.71    2.18
   0  -8   9   -0.39    1.79
   0  -8   9   -0.71    1.49
   0   8  -9    4.64    3.17
   2  -8 -12    1.37    2.32
   2  -8 -12   -0.25    2.74
  -2   8  12    0.54    3.39
  10   0   2   10.56    1.78
  10   0   2   14.35    6.10
  10   0   2   13.88    3.33
  10   0   2   13.19    2.91
  10   0   2   14.60    4.94
  10   0   2    9.18    6.03
   6  -9  -1    6.13    3.01
  -6   9   1    6.63    4.00
   6  -9  -1    5.16    2.43
   6  -9  -1    8.94    2.00
  -6   9   1    7.08    1.82
  -2   9  11   28.26   10.64
   2  -9 -11   10.51    6.91
  -2   9  11   49.96    8.22
   2  -9 -11   52.58    7.62
  -4  -5 -14    5.53    3.42
  -4  -5 -14    5.14    1.91
  -6   9   2   31.55    3.92
   6  -9  -2   39.14    4.66
  -6   9   2   24.32    5.96
   6  -9  -2   28.58    5.30
  -1  12   1    0.20    1.35
   1 -12  -1    0.13    1.45
   1 -12  -1   -0.58    2.46
  -1  12   1    0.42    1.37
   8  -3  -7    2.47    3.72
   8  -3  -7    1.18    9.13
  10   2   0   32.27    5.73
  10   2   0   25.03    4.07
  10   2   0   26.07    3.52
  10   2   0   30.26    8.82
  10   2   0   32.01    7.41
   8  -6  -3   -0.97    2.58
   9  -1  -5    0.54    7.96
   9  -1  -5    3.15    4.42
   9   1   8    7.35    8.02
   9   1   8   10.40    3.17
   9   1   8   12.77    4.57
  -9  -1  -8   11.35   14.42
  -9  -1  -8   13.17    2.66
   9   1   8    8.36    4.14
  10   3   3   59.41    7.68
  10   3   3   56.31    7.68
  10   3   3   59.05    8.64
  10   3   3   80.85   13.36
   0   5 -12    1.17    5.04
   0   5 -12   10.60    2.33
   0  -5  12    8.61    3.07
   0  -5  12    2.60    2.02
   0  -5  12   13.55    3.08
   0  -8 -13   19.43    5.65
   9  -2   6   74.26   10.38
  -9   2  -6   56.47   19.87
   9  -2   6   51.98    5.76
  -6   7   8   10.23    2.71
   6  -7  -8   11.67    4.35
   6  -7  -8    5.86    3.68
  -6   7   8    3.46    1.37
   6  -7  -8    4.02    2.97
  -6   8  -4   15.10    7.23
  -6   8  -4   21.40    4.68
   6  -8   4   26.86    4.19
  -5   1  12   37.60    4.78
  -5   1  12   30.60    7.51
   5  -1 -12   53.68    8.84
  -1  -1  14   -1.23    4.14
  -6   1 -12   39.55    6.33
   6  -1  12   57.67    7.43
  -5   2  12   32.04    7.31
  -5   2  12   40.01    4.85
   5  -2 -12   53.84   10.33
  -2   4  14    9.21    3.80
  -2   4  14    5.74    5.17
   2  -4 -14    7.35    3.88
   2  -4 -14   12.04    8.58
  -2   4  14    7.14    3.73
   5  11   7   35.87    6.78
   5  11   7   65.40    8.17
  -5 -11  -7   41.48    5.38
  -5 -11  -7   14.19    5.88
   3  12   6   41.28    4.92
  -3 -12  -6   67.31    6.85
   3  12   6   36.87    6.36
  -3 -12  -6   30.41    8.26
   0  10  -6    4.76    1.60
   0  10  -6    5.37    1.86
   0 -10   6    7.32    1.88
  10   3   1    4.49    4.38
  10   3   1    2.51    1.20
  10   3   1    4.10    1.33
  10   3   1    3.18    2.24
  10   3   1    3.76    1.92
  10   3   1    4.42    2.92
  -3 -11   3   19.83    6.81
   3  11  -3   21.10    3.73
  -3 -11   3   25.41    4.72
   3  11  -3   24.30    3.69
  -3 -11   3   23.45    4.18
  -4   2 -13   12.35    4.35
   4  -2  13   22.21    4.20
  -3  -8 -13   -0.21    2.86
  -3  -8 -13    0.19    1.97
   9   4   8   66.46    9.37
   9   4   8   52.78    9.58
  -9  -4  -8   71.47    8.59
   9   4   8   68.53    7.64
   7  -5  -8   -1.13    7.41
   7  -5  -8    0.59    2.84
  -7   5   8    2.46    1.26
   7  -5  -8    0.55    3.06
  -5   8  -6   13.25    3.39
  -5   8  -6    5.40    5.34
   5  -8   6   16.28    3.27
  -1 -10   6   23.95    4.24
  -1 -10   6   20.57    3.50
   1  10  -6   21.94    3.21
   1  10  -6   18.28    3.13
   4  11  -2   23.07    3.50
   4  11  -2   20.30    3.76
  -4 -11   2   20.07    4.07
   4  11  -2   23.02    3.69
  -4 -11   2   17.61    5.47
  -1   5 -12   -2.70    6.26
  -1   5 -12    1.65    1.36
   1  -5  12    2.71    2.55
   3 -11   1   88.32    8.99
  -3  11  -1  101.01   10.73
   3 -11   1   75.91   10.07
  -3  11  -1  102.23   10.14
  -3  11  -1   87.65   11.70
  10   0   0   12.44    2.09
  10   0   0   17.15    6.67
  10   0   0    7.81    6.50
  10   0   0   11.32    2.59
  10   0   0   18.46    4.04
  10   0   0   13.70    4.10
   9   6  -1    9.51    2.28
   9   6  -1    6.68    8.84
  -9  -6   1   11.53    3.96
   9   6  -1   10.60    2.71
   9   6  -1    4.99    6.87
   9   6  -1   12.19    2.29
   9   6  -1   16.01    3.77
   5  -6   9   38.97    5.44
  -5   6  -9   17.98    3.56
   9  -1   7   41.06    7.70
   9  -1   7   39.22    4.19
   9  -1   7   46.99    8.80
  -9   1  -7   42.54   18.69
   5  -4  11   85.16    9.14
  -5   4 -11   46.23    7.20
   5  -4  11   78.51    9.52
  -1  12   5   31.61   11.77
   1 -12  -5   13.59    4.64
  -1  12   5   45.07    5.43
  -1  12   5   19.52    4.38
   9  -4  -2    3.17    3.40
   9  -4  -2    1.85    8.23
   7  -6  -7   34.23    6.42
   7  -6  -7    9.98    4.23
   7  -6  -7   34.09   15.64
   5 -10  -2    7.66    2.90
  -5  10   2    2.42    2.59
  -5  10   2    7.75    1.96
   5 -10  -2    5.72    1.88
   5 -10  -2    3.68    2.34
  -3 -10 -11   57.81    6.64
  -3 -10 -11   54.87    5.71
   3  10  11   41.40   14.87
  -3 -10 -11   63.12    8.40
   3  10  11   28.79   11.77
  10   2   4   12.72    3.17
  10   2   4   10.56    4.20
  10   2   4   15.63    6.05
  10   2   4    3.07    8.53
  -6   4 -10   21.90    3.96
   6  -4  10   31.56    4.82
   6  -4  10   36.08    4.47
  -6   4 -10   31.73    4.99
   0 -10 -11    2.43    2.96
   0 -10 -11   -0.39    3.79
   0  10  11    0.68    6.15
   1   8  -9   28.54    5.16
   1   8  -9   23.87    3.52
  -1  -8   9   26.31    4.37
  -1  -8   9   22.59    3.70
   1   8  -9   19.46    3.73
  -6   5  -9   27.55    5.02
   6  -5   9   27.61    4.19
   7   2  -9   62.64    9.17
  -7  -2   9   34.71    4.29
   8   5  10   49.30    9.03
  -8  -5 -10   49.30    6.73
  -8  -5 -10   43.63    5.09
   8   5  10   60.44    8.56
   6  -9   0   41.02    6.49
  -6   9   0   45.43    7.66
  -6   9   0   32.92    7.31
   6  -9   0   55.39    5.79
   8  -5   5   25.81    3.53
  -8   5  -5   21.52    5.54
   9   7   3   71.98    8.61
   9   7   3   99.84    9.42
   9   7   3   66.57   19.98
   9   7   3   67.71    9.57
   9   7   3  106.76   17.28
   9   7   3   82.46    8.46
  -6 -10  -8   -0.36    3.38
  -6 -10  -8    7.35    2.15
  -6 -10  -8    6.58    2.99
   6  10   8    7.57    3.54
  -6 -10  -8    8.39    2.81
  -5  10   1   27.29    5.34
  -5  10   1   21.77    3.33
   5 -10  -1   17.77    3.93
   5 -10  -1   22.71    3.22
  -5  10   1   19.07    4.99
  -1 -12  -7   15.37    5.82
  -1 -12  -7   35.97    4.96
   1  12   7   15.27    4.48
  10   0   3   14.61    6.38
  10   0   3   15.25    5.77
  10   0   3   17.23    3.62
  10   0   3   17.26    2.24
  10   0   3   25.23    6.96
  -6  -3 -13   50.23    7.97
  -6  -3 -13   47.67   20.23
   6   3  13   15.14    6.78
   5   9  11    4.63    6.32
  -5  -9 -11   -2.75    4.65
  -5  -9 -11    2.77    2.09
   5   9  11    3.39    3.61
   5   9  11    0.99    8.32
  -6   9   3    0.79    2.63
   6  -9  -3    0.18    2.21
   6  -9  -3    0.47    1.76
   6  -9  -3   -0.31    1.80
  -6   9   3    1.33    1.26
   1  -8   9    0.85    1.14
  -1   8  -9    1.96    3.19
  -6  -8 -11   66.92    7.66
  -6  -8 -11   48.49    9.55
   6   8  11   88.57   13.43
   7   4  -8  108.15   13.38
  -7  -4   8  123.01   12.69
   7   4  -8  206.41   16.25
   8   8   7   90.28   13.72
  -8  -8  -7   23.70    9.21
  -8  -8  -7   51.25   11.36
   8   8   7   69.63    9.12
   2  12   7   13.79    4.18
  -2 -12  -7   39.96    5.53
  -2 -12  -7   29.88    4.24
   5   8  12   39.44   17.23
   5   8  12   26.08   10.93
  10   1   4    7.29    4.18
  10   1   4   -1.53    6.92
  10   1   4    2.77    2.06
  10   1   4    4.92    4.53
   1  11  -4   11.46    2.45
  -1 -11   4   13.62    2.73
  -1 -11   4   16.42    3.97
   1  11  -4   12.30    2.57
   1  11  -4   13.29    2.61
   2   0 -14   48.57   12.99
  -2   0  14   40.79   11.27
  -2   0  14   98.90    9.68
  -7   6  -6    2.42    2.53
   7  -6   6    3.96    1.63
  -7  -9  -8    2.95    4.28
  -7  -9  -8    9.83    3.00
   7   9   8   11.85    3.80
  -7  -9  -8    6.12    4.50
  -7  -9  -8   10.42    2.30
   5  -9  -7   65.71    9.36
  -5   9   7   92.78   10.45
   5  -9  -7   98.52    8.89
   9   7   2   26.70    3.35
   9   7   2   28.54    9.96
   9   7   2   32.59    4.44
  -9  -7  -2   10.11    4.07
   9   7   2   23.03    4.38
   9   7   2   22.18   12.53
  -5  10   3    7.74    2.06
   5 -10  -3    9.38    2.90
   5 -10  -3   13.75    2.79
   9   2  -5  133.38   15.39
   9   2  -5   85.66    9.83
   7  10   3   58.05    7.45
  -7 -10  -3   37.47    7.98
   7  10   3   72.80    7.74
  -7 -10  -3   45.58    8.77
  -7 -10  -3   60.56    6.98
  -4   2  13   38.62    8.47
   4  -2 -13   66.48    9.80
  -4   2  13   18.68    7.66
  -8  -7   3   18.30    5.01
   8   7  -3   16.91    2.99
  -8  -7   3   11.50    2.88
   8   7  -3   16.20    3.15
  -4  10  -3   26.29    5.62
  -4  10  -3   20.16    4.25
   4 -10   3   16.97    2.39
   4 -10   3   22.45    4.38
   9   7   4   41.31    5.39
   9   7   4   57.20   11.87
   9   7   4   52.02    5.53
   9   7   4   56.48   17.96
   9   7   4   65.49    6.24
   9   7   4   38.75    6.37
   9   7   4   35.37    5.70
   2  -6  11   52.55    6.38
  -2   6 -11   27.84   10.23
  -2   6 -11   65.82    6.60
   2  -6  11   86.32    8.38
   9  -3  -4    0.32    3.79
   9  -3  -4    1.17    8.07
   7  10   4   23.17    3.89
  -7 -10  -4   23.47    5.74
   7  10   4   29.76    4.24
  -7 -10  -4    9.37    4.54
   8   8  -1   59.70    7.08
  -8  -8   1   47.52    7.36
  -8  -8   1   64.41    8.81
   0 -11   4   17.07    2.86
   0  11  -4   16.09    2.69
   0  11  -4   10.66    2.44
   0  11  -4   14.76    2.76
  -6   1  11   12.25    5.12
  -6   1  11   15.82    3.07
  -6   1  11   20.18    5.84
   6  -1 -11   32.24    8.01
  -3  -9   7   49.27    7.16
  -3  -9   7   64.96    7.33
   3   9  -7   57.42    6.94
  10   3   4   81.31   13.23
  10   3   4   61.40    8.41
  10   3   4   54.90    7.88
  10   3   4   57.90    7.26
  -5  -3  11   14.97    2.92
   5   3 -11   21.08    3.37
   5   3 -11    4.32    3.79
   7   3  12    3.46    4.55
  -7  -3 -12    9.28    3.25
  10   1  -1   62.94    7.10
  10   1  -1   83.79   13.68
  10   1  -1   73.94   12.94
  10   1  -1   59.98    7.61
  10   1  -1   82.96   10.47
  -5   0  12   28.95    4.13
  -5   0  12   18.56    6.35
   5   0 -12   38.81    6.23
  -5   0  12   10.83    5.95
  -6  -2 -13   24.05    5.44
   6   2  13    6.06    5.96
  -6  -2 -13   30.39    4.53
  -6  -2 -13   26.22   15.52
  -1  -3 -15    0.88    8.02
  -1  -3 -15    3.07    3.82
   1   3  15    2.45    3.43
   1   3  15   10.96    4.88
   7  -1  11   41.55    6.21
   7  -1  11   89.35    7.77
  -7   1 -11   67.97    8.64
  -7   1 -11   58.72    7.88
  -7   1 -11   43.52   18.11
   4  -6  10   84.07    9.86
  -7   7  -4   17.10    4.71
   7  -7   4   15.76    2.99
   3  -3  13   17.32    3.72
   3 -11  -6   23.24    4.15
  -3  11   6    9.59    9.79
  -3  11   6   29.31    4.60
   3 -11  -6   27.95    3.69
   5  -3 -12   33.93    9.33
  -5   3  12   19.27    6.62
  -5   3  12   29.23    4.14
  -5   3  12   27.84    6.62
  -4   1  13    2.05    3.56
  -4   1  13    5.68    2.50
  -4   1  13    1.54    4.06
   4  -1 -13    3.64    2.26
   9  -3   5   79.79   10.91
   9  -3   5   58.33    6.37
  -9   3  -5   77.82   22.87
   4  -5  11   11.02    2.70
   4  -5  11   10.23    2.92
  -1 -12   1   32.08    4.30
   1  12  -1   26.00    4.16
   1  12  -1   28.51    4.34
   6   4  13   12.23    6.51
  -6  -4 -13   19.56    4.72
   3  -1  14    7.97    3.48
  -3   1 -14   -2.58    9.05
  -3   1 -14    4.02    3.29
  -4 -12  -4   20.07    5.42
   4  12   4   31.38    5.30
  -4 -12  -3   13.65    4.30
   4  12   3   26.58    4.57
   4  12   3   22.66    3.95
  -2   7 -10   17.36    6.17
   2  -7  10   34.05    4.22
   2  -7  10   44.56    5.74
  10   3   0    1.34    1.44
  10   3   0    2.30    1.22
  10   3   0    1.72    2.28
  10   3   0    3.86    5.05
  10   3   0    3.64    3.19
  10   3   0    1.03    1.16
  -8   0 -10   39.77    7.12
  -8   0 -10   49.59   19.74
   8   0  10   28.89    4.24
   8   0  10   38.41    6.29
  -8   0 -10   38.49    5.36
  -5   9  -4    2.73    4.18
   5  -9   4    5.31    2.09
  -4   9   9    0.85    2.51
   4  -9  -9   -0.18    2.04
   4  -9  -9    0.49    2.31
   4  -9  -9   -0.70    3.22
   1   2  15    2.32    3.62
  -1  -2 -15    3.02    3.57
  -1  -2 -15    6.73    8.37
   6  -5 -10   38.82    9.93
  -6   5  10   67.54    8.28
  -6   5  10   48.35    6.18
   6  -5 -10   94.38   12.58
   4 -10  -7   73.79    7.00
   4 -10  -7   84.74    8.84
   4 -10  -7   41.22    7.00
   4 -10  -7   19.13    7.36
  -4  10   7   68.27    8.48
   6  -2 -11   -1.95    5.96
  -6   2  11   -0.58    3.11
  -6   2  11    0.40    1.72
  -6   2  11   -0.53    2.84
  -7   8   1   11.55    6.90
   7  -8  -1   26.83    5.49
   7  -8  -1   16.70    4.26
   1   5 -12    8.65    5.87
   1   5 -12   38.09    4.47
  -1  -5  12   43.89    5.03
  -1  -5  12    8.92    3.59
   9  -4   3   46.53    8.52
  -9   4  -3   28.07   13.99
   6   3 -10   25.67    4.81
  -6  -3  10   16.33    2.90
   6   9  10    9.55    4.30
  -6  -9 -10    8.97    2.28
  -6  -9 -10    6.05    3.63
   7   2  12   -0.43    4.75
  -7  -2 -12    2.18    2.05
  -7  -2 -12    2.10    2.17
  -5   1 -13   15.77   10.99
  -5   1 -13   27.94    5.76
   5  -1  13   44.89    6.38
   5   7  -8   25.38    4.07
  -5  -7   8    8.01    4.45
  -5  -7   8   23.14    3.62
  -5  10   0   57.72    8.09
   5 -10   0   30.00    4.96
  -5  10   0   54.46    5.93
  -5   7  10   21.16    3.95
  -5   7  10   23.78    4.68
   5  -7 -10   40.58    7.15
   5  -7 -10   27.32    6.63
   8   3  -7    3.99    2.20
   8   3  -7    7.56    4.15
  -1  10  -6   31.88    4.08
   1 -10   6   32.13    4.20
   1 -10   6   35.03    5.27
  -1  10  -6   28.94    4.16
   1 -12   0   -0.54    2.15
   1 -12   0    0.67    1.42
  -7 -10  -2    8.79    2.62
   7  10   2    9.81    2.40
  -7 -10  -2    2.88    3.15
   7  10   2   14.91    2.64
   2   3  15    3.26    5.09
   2   3  15   -4.64    6.12
  -2  -3 -15    0.86    3.20
  -2  -3 -15   -0.97    9.84
  10   2  -1   47.64    8.19
  10   2  -1   43.60   10.83
  10   2  -1   68.49   10.66
  10   2  -1   45.75    5.49
  10   2  -1   46.25    6.03
  10  -1   1    0.99    2.02
  10  -1   1   -1.01    4.05
  10  -1   1   -0.03    0.82
  10  -1   1    4.39    3.00
  10  -1   1   -1.80    6.66
  10  -1   1   -0.34    1.50
  10   0  -1   50.55    5.98
  10   0  -1   56.59   12.42
  10   0  -1   52.74    6.50
  10   0  -1   69.96   12.38
  10   0  -1   70.87    9.21
  -1  -7 -14    0.78    3.15
   5   6  -9   37.50    5.28
  -5  -6   9   10.00    5.09
  -5  -6   9   36.32    4.42
  -1   6  14   33.77    9.58
  -1   6  14   30.98    8.81
   1  -6 -14   46.35    9.41
  -2  11  -3   19.13    2.84
   2 -11   3   18.52    2.65
   2 -11   3   17.99    4.24
  -2  -7 -14    5.91    2.73
  -2  -7 -14    6.89    3.57
  -7   8   2   29.43    8.57
   7  -8  -2   63.07    9.05
   7  -8  -2   36.85    7.66
  -4   3  13   61.68    6.66
   4  -3 -13   57.06   10.36
  -4   3  13   45.58    8.83
   7   4  12   53.79   11.92
  -7  -4 -12   85.37   10.95
   2   7 -10   51.11    7.83
  -2  -7  10   32.29    6.52
  -2  -7  10   67.58    7.07
   2   7 -10   61.39    7.02
   8  -6   3    7.63    2.00
  -6   0  11   27.03    3.95
  -6   0  11   31.73    7.39
   6   0 -11   52.09    8.50
   9  -2  -5   26.84    7.45
   9  -2  -5   27.76   10.20
   7  -8   0   86.41   10.83
  -7   8   0   41.00   10.14
   7  -8   0   81.41    8.13
   7  -8   0   58.66    8.72
  -7 -10  -5    5.09    1.85
   7  10   5    3.41    1.67
  -7 -10  -5    3.53    3.58
   7  10   5    4.48    2.15
  -7 -10  -5    1.99    2.97
  -3 -12   0   -0.47    3.04
   3  12   0    2.05    1.61
   3  12   0    0.70    1.53
  -3 -12   0    1.16    2.19
  -6   3 -11   37.81    5.81
   6  -3  11   65.13    7.41
  -6  -9   4   51.91   10.03
  -6  -9   4   68.85    8.34
   6   9  -4   61.60    7.39
  -8   3  -8   -0.21    2.51
   8  -3   8    0.50    1.31
  -8   3  -8    1.10    9.80
  10   4   2    4.63    2.15
  10   4   2    4.56    1.41
  10   4   2    6.62    5.21
  10   4   2    4.50    2.03
  10   4   2    2.39    2.85
  -4   0 -14    0.95    7.74
  -4   0 -14    0.24    2.87
   4   0  14    1.81    3.23
  -1   2 -14    3.84    6.26
   1  -2  14   29.77    5.02
   0 -12   1   11.30    2.30
   0  12  -1   12.87    2.60
   0  12  -1   11.06    2.53
   0 -12   1   12.12    3.26
   2  -7 -13   40.16    8.90
  -2   7  13   36.18    8.95
   2  -7 -13   62.89    8.94
  -1  11   9    1.10    7.50
   1 -11  -9   26.21    4.60
   1 -11  -9    7.62    4.65
  -1  11   9   36.13    6.30
   6  -9   1   13.89    3.09
  -6   9  -1   12.79    5.25
   6  -6   8    3.12    1.68
  -6   6  -8    4.47    2.56
  -2 -10   6   36.62    5.34
  -2 -10   6   34.58    5.54
   9   4  -4   24.72    5.40
   9   4  -4   14.63    2.96
   9   4  -4   16.79    2.55
   9   4  -4   14.53    8.57
  -9  -7  -1   25.57    4.76
   9   7   1   29.69    4.25
   9   7   1   17.77    9.05
   9   7   1   13.17   10.44
   9   7   1   17.64    3.83
  -9  -7  -1   10.20    4.03
   9   5  -3    2.32    1.40
   9   5  -3    0.70    6.85
   9   5  -3    1.93    6.39
   9   5  -3    2.72    3.04
   9   5  -3    3.16    1.78
   9   5  -3    1.83    1.61
  10  -1   2    3.50    4.15
  10  -1   2    2.17    0.91
  10  -1   2    9.59    3.72
  -2  -2 -15   16.84    5.65
  -2  -2 -15   19.29   12.22
   2   2  15   50.62    8.64
   2   2  15   23.99    6.56
  -4   6  12   -2.29    2.94
  -4   6  12   -0.54    3.40
   4  -6 -12    0.30    3.63
  -4   6  12    0.20    2.58
   4  -6 -12   -0.83    3.65
  10   4   3   27.55    8.76
  10   4   3   22.78    4.78
  10   4   3   21.59    4.12
  10   4   3   24.53    4.15
  -3  -2  13   41.84    5.96
  -4 -12  -5   38.02    4.98
   4  12   5   28.85    5.20
   4  12   5   30.74    3.70
  -4 -12  -5   19.90    6.05
   1   4  15   38.31    8.45
   1   4  15   43.16    9.54
  -4 -12  -2   36.20    6.55
   4  12   2   42.56    5.57
   4  12   2   36.81    5.78
   0 -12  -7    6.09    2.34
   0 -12  -7    0.57    3.26
   0  12   7    1.61    5.30
  -2  11   8   14.09    4.23
   2 -11  -8    4.22    3.84
   2 -11  -8   12.82    3.08
   9   0   8   32.20    5.62
   9   0   8   26.66    5.68
   9   0   8   50.79   10.34
   9   0   8   54.18    8.35
  -9   0  -8   51.54   21.92
   9   0   8   15.21    5.69
  -2   5 -12    2.26    6.43
   2  -5  12   22.83    4.24
   2  -5  12   22.52    4.15
  -2   5 -12   17.61    2.54
  -7  -9   2    1.17    1.92
  -7  -9   2    1.12    2.62
  10  -1   0   23.93    4.68
  10  -1   0   17.92    3.13
  10  -1   0   11.98    7.46
  10  -1   0   18.77    2.61
   6   7  12   13.83    8.18
   6   7  12   21.29    7.25
  -6  -7 -12   23.27    5.07
  -2  10  10    2.21    5.60
  -2  10  10    1.21    2.90
   2 -10 -10    0.73    3.66
   2 -10 -10    3.90    2.83
   9   7   5   16.34    2.83
   9   7   5   19.88    2.91
   9   7   5   18.31   12.18
   9   7   5   18.84    7.41
   9   7   5   12.61    2.42
  -9  -7  -5    6.50    4.31
   9   7   5   11.07    3.48
   3   4 -12   -1.32    4.60
  -3  -4  12    4.48    2.28
   9   6   7    1.98    1.80
   9   6   7    0.68    1.77
   9   6   7    1.09    1.05
   9   6   7    0.67    3.49
   9   6   7    0.48    1.01
   5 -10  -4    1.78    1.93
   5 -10  -4    1.24    2.37
  -5  10   4    1.75    1.47
   5 -10  -4    3.62    2.28
   2  11  -4   28.49    4.23
  -2 -11   4   48.43    7.19
  -2 -11   4   33.97    5.10
   2  11  -4   30.63    4.44
  -2 -12   1   39.02    4.64
   2  12  -1   31.79    4.71
  -2 -12   1   30.45    5.50
   2  12  -1   32.58    4.83
  -2 -12   1   22.73    7.24
   6  -9  -4    1.04    2.14
   6  -9  -4   -0.42    2.64
  -6   9   4    0.42    1.19
  -6   9   4    0.87    2.62
   6  -9  -4    0.17    2.27
   8  -6  -4    4.11    3.45
   4  11   9   29.15    6.27
  -4 -11  -9   63.61    6.94
  -4 -11  -9   69.00    8.23
   0  -2  14   15.66    3.84
  -2 -11 -10    1.86    1.28
   2  11  10    1.57    6.81
   2  11  10    0.82    5.62
  -2 -11 -10    3.51    2.56
   0   3  15   69.75    8.85
   0   3  15   30.52    8.09
  -6 -11  -4   16.71    4.08
   6  11   4   16.36    3.12
  -6 -11  -4   10.20    4.41
   6  11   4   19.10    3.56
  10   0   4   -1.49    4.31
  10   0   4   -2.89    5.03
  10   0   4   -1.86    3.95
  10   0   4    0.14    1.84
  -1   9  12    5.10    6.61
  -1   9  12    6.82    3.88
   1  -9 -12   11.12    4.45
   7  -4  -9   26.03    7.70
  -7   4   9   55.52    8.41
  -7   4   9   28.04    3.77
   7  -4  -9   25.34   13.56
   6  11   3   -0.08    1.59
   6  11   3    0.08    1.31
  -6 -11  -3    1.12    2.63
   1  11  10   53.24   15.72
  -1 -11 -10   81.12    8.39
  -1 -11 -10   11.98    7.16
  -7  -8   4    7.97    2.45
  -7  -8   4    5.91    3.95
   8   0  -8   17.00    7.32
   8   0  -8   10.96    7.00
   2   6 -11   27.09    6.28
   2   6 -11   52.99    5.77
  -2  -6  11   56.69    5.96
  -2  -6  11   16.55    5.07
  -1  12   6   29.13   12.00
   1 -12  -6   19.13    6.43
   1 -12  -6   59.17    6.33
   0   2  15   10.11    5.24
   0  -2 -15   17.03    9.36
   0   2  15   17.95    4.63
   0  -2 -15   14.60   10.12
   5  -8  -9    1.19    2.74
  -5   8   9   -2.48    3.14
   5  -8  -9    0.22    2.26
   5  -8  -9    0.39    2.92
  -5   8   9   -0.61    1.97
   4   9  12    1.93    8.59
   4   9  12   -0.82    5.88
  -4  -9 -12   -0.38    2.46
  -4  -9 -12    2.34    1.90
   8  -1  -8   30.65    9.83
   8  -1  -8   37.20   10.80
   2   4  15   22.00    8.21
   2   4  15    8.63    4.42
  -2  -4 -15   12.32    4.89
   9  -4  -3   28.07   14.02
   9  -4  -3   33.15    7.76
  10   2   5    1.63    1.92
  10   2   5    0.69    2.06
  10   2   5    0.52    0.70
  10   2   5    1.34    3.82
   6   6  -8   17.83    3.64
  -6  -6   8   17.16    3.11
   6   6  -8   28.60    4.08
   9   5   8   53.85    7.52
   9   5   8   43.43    7.91
   9   5   8   47.67    5.68
   5  -7   8   48.80    6.34
  -5   7  -8   25.85    9.74
  -3 -12  -7    3.62    3.61
  -3 -12  -7    7.73    2.11
   3  12   7    5.91    3.20
  -3 -12  -7    7.92    2.64
  10   4   1    1.72    1.62
  10   4   1    1.78    2.80
  10   4   1    3.61    5.00
  10   4   1    1.17    1.93
  10   4   1    2.20    1.22
   8   9   3    9.73    9.69
  -8  -9  -3    3.46    3.12
   8   9   3    6.86    1.94
   8   9   3    8.81    2.08
   5  11  -1   44.37    6.47
  -5 -11   1   36.22    6.01
   5  11  -1   49.53    6.29
  -5 -11   1   42.39    7.38
   5  11  -1   55.85    6.27
  -5   3 -12   15.33    4.21
   5  -3  12   26.63    4.18
   4  -7   9   33.79    5.08
   8  -4   7    7.51    1.81
  -8   4  -7    7.86    3.63
  -8   2  -9   58.66    8.75
  -8   2  -9   49.04   19.04
   8  -2   9   59.57    5.82
   8  -2   9   60.90    6.24
  -8   2  -9   50.43    6.07
   0  -9   8    3.24    1.59
   0   9  -8    1.31    1.90
  -4   0  13    6.37    5.04
   4   0 -13   20.45    3.81
  -4   0  13   16.30    3.35
  -4   0  13    5.12    4.00
   2  -5 -14   31.07    7.31
  -2   5  14   22.56    8.89
  -2   5  14   42.83    7.43
  -2   5  14   43.11    7.45
   2  -5 -14   28.91    7.75
   8   9   4    0.07    1.41
  -8  -9  -4    0.54    2.42
  -8  -9  -4    0.68    4.63
   8   9   4   -0.35    1.28
   8   9   4    1.01    7.98
  -4  -7   9   -0.46    3.11
  -4  -7   9    0.26    1.73
   4   7  -9    0.16    1.66
  -6  -7   7    7.41    2.23
   6   7  -7    7.07    2.37
  -6  -7   7    2.10    3.72
  -1  -1 -15   14.95    8.33
  -6 -10   2   30.80    5.28
   6  10  -2   40.02    4.97
  -6 -10   2   39.62    7.37
  -6  -1 -13   18.66   13.60
  -6  -1 -13   34.09    4.75
  -6  -1 -13   24.03    5.43
   6   1  13   13.67    5.61
  -2  -8   9    7.55    2.71
   2   8  -9   11.38    2.55
  -2  -8   9   12.10    3.04
  -4  -6 -14   48.58    8.41
  -4  -6 -14   46.25    5.97
  -8  -7  -9   37.76    5.78
   8   7   9   51.96    8.93
  -8  -7  -9   35.06    4.47
   8   7   9   40.41    7.19
   7  -7  -6   17.41    5.17
   6  -8  -7   53.38    8.99
  -6   8   7   80.13    8.91
   6  -8  -7   27.34    8.76
  -5  -3 -14   48.06   18.98
  -5  -3 -14   37.27    6.99
  -5 -10 -10   32.84    5.69
  -5 -10 -10   32.82    4.80
  -5 -10 -10   33.34    4.57
  -3  10   9    4.71    3.23
   3 -10  -9    2.39    3.72
   3 -10  -9    3.00    2.49
   4  -4  12   20.07    3.69
  -4   4 -12   11.72    4.17
   2 -12  -3    1.49    2.20
  -2  12   3    2.48    1.99
  -2  12   3    0.69    1.66
  -2  12   3    3.00    6.32
  -1  11  -4   33.59    5.13
   1 -11   4   50.10    7.35
  -1  11  -4   40.39    4.95
  -1  11  -4   42.18    4.80
  -6   3  11    9.20    3.91
  -6   3  11   10.78    2.40
  -6   3  11    4.49    3.94
   6  -3 -11    4.11    6.24
   7  -8  -3   25.27    5.72
  -7   8   3   28.32    8.03
   7  -8  -3   47.58    7.16
  -4  -3  12   55.40    6.98
   4   3 -12   59.43    6.73
  10   4   4   41.71    5.25
  10   4   4   42.18    6.11
  10   4   4   33.35    4.25
  10   4   4   30.27    5.41
  10   3   5   30.76    3.81
  10   3   5   33.31    5.76
  10   3   5   35.91    5.53
  -5  -8   7    8.00    4.41
  -5  -8   7   16.97    3.28
   5   8  -7   15.61    3.16
  -2  12   2    1.56    1.83
   2 -12  -2    1.68    2.06
   2 -12  -2   -0.21    1.57
  -2  12   2    1.15    1.68
   6   5  13   35.89   10.24
  -6  -5 -13   56.16    8.55
  -7   8  -1   33.48    9.93
   7  -8   1   71.20    9.26
   7  -8   1   49.49    6.85
  10   1   5    1.30    2.09
  10   1   5    0.32    3.27
  10   1   5   -3.93    7.02
  10   1   5    0.23    2.87
   6  11   5    5.50    2.71
  -6 -11  -5    1.39    3.10
  -6 -11  -5    5.41    2.72
   6  11   5    5.22    2.02
   7  -4   9   28.85    4.19
   7  -4   9   29.94    3.76
  -7   4  -9   29.51    5.53
  10  -1   3   -1.59    5.47
  10  -1   3    5.55    3.78
  10  -1   3    2.78    3.26
  -7  -1 -12   13.20    3.46
  -7  -1 -12   13.09    3.38
   7   1  12    5.98    5.05
  -1  -9   8   13.16    3.04
  -1  -9   8    7.70    2.39
  -5   6  11   40.09    5.24
  -5   6  11   38.17    7.07
   5  -6 -11   51.05    9.60
   3  -6 -13   27.22    7.23
  -3   6  13   34.85    5.96
  -3   6  13   22.99    5.89
  -3   6  13   21.57    7.36
  -7 -10  -1   28.69    5.09
   7  10   1   28.38    4.41
   7  10   1   37.30    4.54
  -7 -10  -1   23.20    5.25
  -6 -11  -2    0.81    2.38
   6  11   2    1.75    1.45
   6  11   2    1.29    1.53
  -1   4 -13    0.16    1.30
   1  -4  13    1.63    2.71
   0  -4  13    7.25    3.12
  -8  -9  -2    2.59    1.99
   8   9   2    5.15    1.85
   8   9   2    4.43    1.63
  -8  -9  -2    1.78    2.89
   4   6 -10   74.99    9.12
  -4  -6  10   20.32    6.89
   4   6 -10   73.11    8.66
  -4  -6  10   75.92    7.07
   2  -2  14   10.82    3.45
  -5  -7 -13   54.22    6.68
  -5  -7 -13   62.35    9.17
  -3  11  -2   31.62    5.42
  -3  11  -2   33.64    4.02
   3 -11   2   33.31    4.06
   3 -11   2   32.57    5.43
  -7  -8 -10   57.14    6.45
   7   8  10   66.48   10.26
  -7  -8 -10   65.26    8.16
  -2   8  -9    5.73    4.10
   2  -8   9   16.55    2.49
  -2   8  -9   14.03    2.05
   2  -8   9   17.79    3.49
  -2   8  -9    1.84    3.08
   1  -8 -13    8.83    4.30
   0  -7 -14    2.98    3.46
  -5 -11  -8   -0.34    3.40
  -5 -11  -8    1.14    2.21
  -5 -11  -8    2.94    2.32
   8  -5  -6   18.67    5.70
   8  -5  -6   18.85   12.40
   0   4  15   43.07    8.53
   0  -4 -15   42.12    9.16
   0   4  15   71.23    9.40
   0   4  15   48.94    9.38
  -5  -5  10  161.80   16.76
   5   5 -10  210.03   17.17
   5   5 -10  126.38   16.90
   5   2  14    7.20    5.99
  -5  -2 -14   26.73   15.32
  -5  -2 -14   24.14    5.57
  -5  -1  12    0.23    2.24
   5   1 -12    0.11    2.41
  10   3  -1   39.97    5.19
  10   3  -1   45.30   11.80
  10   3  -1   39.06    5.67
  10   3  -1   43.51    7.71
  10   3  -1   46.14    4.84
  10   3  -1   58.18    8.70
  -5  -4 -14    5.23    1.57
  -5  -4 -14    5.11    3.36
  10  -1  -1   21.13    9.88
  10  -1  -1   43.94    5.60
  -4  11   2   10.30    3.64
  -4  11   2   13.33    2.71
   4 -11  -2   10.62    3.38
  -4  11   2    3.58    7.63
   8   1  -8    6.44    4.80
  -5  10  -1   36.83    6.64
  -5  10  -1   32.58    6.17
   5 -10   1   33.20    5.25
   5 -10   1   36.24    4.25
  -7 -10  -6    2.83    3.49
   7  10   6    3.21    1.80
   7  10   6    4.87    2.41
  -7 -10  -6    5.18    1.88
  -7 -10  -6    1.83    3.23
   4   8  13    7.80    8.01
  -4  -8 -13   28.55    4.27
  -3  -7 -14   16.69    3.45
   2   1  15   42.43    6.97
  -2  -1 -15   21.86    6.46
   2 -12  -4   35.59    4.35
  -2  12   4   12.17    8.64
   2 -12  -4   11.76    4.69
  -2  12   4   22.20    4.73
   9   3  -5   49.63    7.89
   9   3  -5   33.64    4.38
   9   3  -5   26.70   11.19
   9   3  -5   35.71    4.89
   8  -4  -7    1.23    8.11
   8  -4  -7    2.27    3.54
  -5   4  12    1.58    2.80
   5  -4 -12   -1.67    5.52
  -5   4  12   -1.20    4.01
  -5   4  12    1.54    1.78
   9   6  -2   10.81    2.16
   9   6  -2    4.52    7.43
   9   6  -2    5.63    8.35
   9   6  -2    9.13    2.40
  -9  -6   2    8.41    3.61
  10   1  -2    5.68    4.58
  10   1  -2   14.62    6.76
  10   1  -2    8.40    2.24
  10   1  -2   10.86    2.11
  10   1  -2    9.43    3.93
   0  -1 -15    2.87    7.16
   0   1  15    0.73    3.80
   0  -1 -15    2.14    5.86
  -4 -12  -6    1.71    2.98
   4  12   6    4.60    2.58
  -4 -12  -6    8.11    2.51
   7   5  12   34.52   10.20
  -7  -5 -12   58.58    8.43
   7   5  12   29.37   11.44
   4 -11  -3   10.76    3.17
   4 -11  -3   10.69    3.68
  -4  11   3    8.38    3.48
  -4  11   3   13.74    2.71
   4 -11  -3   15.02    2.86
   4  10  11   57.04   15.47
  -4 -10 -11  104.11   10.81
  -4 -10 -11   82.45    8.31
   8  -2  -8   26.55    8.81
   8  -2  -8   37.65   11.72
  -8  -9  -5   -0.59    3.02
   8   9   5    2.86    1.90
  -8  -9  -5    2.35    4.05
   8   9   5    1.71    1.43
  -4   9  -6    4.67    2.86
  -4   9  -6   11.55    5.03
   4  -9   6   18.97    3.65
   4  12   1   14.43    3.00
   4  12   1   13.08    3.33
  -4 -12  -1   14.13    3.95
   8   6  10   11.68    4.31
  -8  -6 -10   11.78    2.13
   8   6  10    4.07    3.38
   8   6  10   16.56    5.05
  -8  -6 -10    9.98    3.17
  -3  10  -5   30.37    4.10
  -3  10  -5   37.23    6.66
   3 -10   5   30.13    4.91
  -1  10  11   20.38    9.30
   1 -10 -11   34.80    6.64
   6   1 -11   40.50    6.63
  -4   4  13   10.19    4.37
  -4   4  13   14.78    3.17
  -4   4  13    8.37    5.52
   4  -4 -13    6.21    5.89
  -7   3 -10   25.86    4.02
  -7   3 -10   27.84    5.16
   7  -3  10   32.45    4.31
   7  -3  10   36.87    4.78
   6   5  -9    6.66    2.41
   6   5  -9    3.28    2.03
  -6  -5   9    2.53    1.61
  -7  -7 -11    0.06    1.35
   7   7  11   -0.56    3.08
  -7  -7 -11    0.86    1.94
   4   8  -8   33.36    4.84
  -4  -8   8   34.31    4.72
  -4  -8   8   15.84    5.20
  -4 -10   5    0.74    3.88
   4  10  -5    0.19    1.40
  -4 -10   5    0.52    1.99
   3   3  15   20.40    7.87
  -3  -3 -15   42.37   17.30
  -3  -3 -15   42.63    8.21
   3   3  15   50.81   10.60
   1  -9   8    6.01    1.66
   1  -9   8    7.38    2.49
  -1   9  -8    4.02    2.25
  -1   9  -8    7.35    1.76
  -1   9  -8    9.85    3.81
  -3   9  -7   23.90    4.52
   3  -9   7   35.28    5.31
  -3   9  -7   30.66    6.49
  -2  -1  14   89.86    8.55
   2   1 -14   35.99   11.51
  -2  -1  14   26.33    9.41
  -9  -7   0   12.97    3.81
  -9  -7   0    5.09    3.17
   9   7   0    5.55    6.72
   9   7   0   11.52    2.55
   9   7   0   20.29    3.60
   9   7   0    8.20    9.32
  -3 -11 -10   58.18    6.04
   3  11  10   59.17   17.18
   3  11  10   58.50   15.60
  -3 -11 -10   72.43    8.50
  10   0  -2   26.12    3.91
  10   0  -2   28.21    9.37
  -4  11   1   34.45    4.66
   4 -11  -1   24.14    4.68
   7  -5   8    3.54    1.65
  -7   5  -8    6.36    2.94
  10   4   0    3.25    1.43
  10   4   0    3.29    2.84
  10   4   0    3.79    1.77
  10   4   0    3.70    2.75
  10   4   0    2.57    1.41
  10   4   0    2.03    4.84
   2 -12  -1   15.70    2.75
   2 -12  -1   12.27    3.55
  -2  12   1   14.83    3.47
  -9   4  -4   19.49   11.85
   0 -11 -10   69.12    7.74
   0 -11 -10   11.94    6.59
   0  11  10   45.29   14.59
  -1 -12  -8   14.51    6.35
   1  12   8   38.02   12.99
  -1 -12  -8   52.41    6.22
  -3   2  14    1.31    2.55
   3  -2 -14    2.62    1.87
  -3   2  14   -0.43    3.90
  -3   2  14    0.55    2.97
   9   3   9   45.73    5.65
  -9  -3  -9   52.96    6.74
   9   3   9   61.44    9.36
   9   3   9   46.23    8.61
  -2 -12  -8   45.27    6.41
  -2 -12  -8   39.63    5.06
   2  12   8   21.31    5.37
   7   3  -9  133.64   11.52
   7   3  -9   48.75    8.41
  -7  -3   9   83.37    8.94
   1   5  15   75.27   14.27
   8   8   8   35.27    5.81
  -8  -8  -8   30.26    3.89
   8   8   8   28.56    7.10
  -8  -8  -8   12.79    6.30
   9   7   6   31.84    4.83
   9   7   6   52.71    5.92
   9   7   6   53.23   10.23
   9   7   6   52.19   18.56
   9   7   6   42.49    5.00
   9   2   9   -0.49    1.53
  -9  -2  -9    0.59    1.38
   9   2   9    0.25    2.59
   9   2   9   -0.83    3.27
   8   3  11   -0.39    4.96
   8   3  11   -0.43    2.80
  -8  -3 -11    0.11    1.68
   8   3  11    0.34    0.61
   1 -12   1    0.13    2.08
   1 -12   1    0.49    1.16
  -1  12  -1   -1.18    1.77
   6  -9   2   24.00    4.03
  -6   9  -2   16.11    6.18
  -6   9  -2   24.03    5.25
   7  -1 -10    1.15    5.59
  -3  -2 -15   19.98   12.56
   3   2  15   45.42    9.21
   3   2  15   26.73    7.19
  -3  -2 -15   21.87    6.27
  10   2  -2    0.94    4.87
  10   2  -2    0.71    2.71
  10   2  -2    0.33    1.24
  10   2  -2    0.30    3.83
  10   2  -2    0.23    1.19
  -5  10   5    1.18    1.45
   5 -10  -5   -0.23    2.58
   5 -10  -5    1.85    2.13
   5 -10  -5    0.75    1.81
  -8  -5   6   11.23    2.72
   8   5  -6   15.40    3.92
   8   5  -6    8.01    2.07
   8   5  -6    9.85    2.49
   2   5  15   19.56   10.43
   8   6  -5   10.66    3.13
  -8  -6   5    3.62    1.80
   8   6  -5    5.09    1.94
   8   6  -5    6.72    1.86
   9   0  -6   13.20    7.30
   9   0  -6   30.18    9.36
  -5 -10   4   43.43    9.44
  -5 -10   4   66.13    8.38
  -3  -4 -15    8.44    2.60
  -3  -4 -15   12.17    4.51
   3   4  15    3.92    7.66
   6  -8   5    6.76    2.19
  -6   8  -5    0.39    6.57
  -6   8  -5    6.07    2.79
  -3  11   7   44.37    6.45
   3 -11  -7   40.08    4.91
   3 -11  -7   51.40    6.28
  -6  -8   6   45.86    6.27
   6   8  -6   36.46    5.15
   2   5 -12   59.79    6.22
  -2  -5  12   67.93    8.48
   2   5 -12   18.79    7.08
   9  -2   7   25.15    3.01
   9  -2   7    7.82    4.60
  -9   2  -7   35.57   17.15
  -3   3  14    2.81    2.68
   3  -3 -14    1.22    2.47
  -3   3  14    0.27    2.79
  -3   3  14    0.42    3.56
  -8  -9  -1   59.80    9.84
  -8  -9  -1   84.72    9.87
   8   9   1   93.73    9.91
   8   8  -2   52.34    6.14
   8   8  -2   50.10    6.35
  -8  -8   2   59.80    8.72
  -8  -8   2   42.52    6.62
  -8  -2 -11   20.27   15.25
  -8  -2 -11   10.31    2.86
   8   2  11    5.06    4.20
   6  11   6  121.51   11.81
   6  11   6   74.98   10.02
  -6 -11  -6   40.54    9.80
  -6 -11  -6   95.85   10.03
  -6 -10  -9    0.64    2.24
   6  10   9    0.18    2.95
  -6 -10  -9    0.39    3.64
  -6 -10  -9    0.13    2.06
  -6 -10  -9    0.52    1.68
  10   4   5   40.48    6.25
  10   4   5   35.14    4.49
  10   4   5   47.64    6.24
   4 -11  -4    0.11    1.50
   4 -11  -4   -0.63    2.59
   4 -11  -4    1.68    1.72
  -4  11   4    0.61    1.42
  -3   1  14    8.12    2.88
  -3   1  14    3.65    3.48
  -3   1  14    1.63    3.73
  -6   9   5    0.11    1.18
   6  -9  -5   -0.46    2.21
   6  -9  -5   -1.64    2.56
   9  -5   0   39.90    7.80
  -9   5   0   29.95   12.31
  -7   0  10    0.59    1.25
   7   0 -10   -0.28    3.97
  -3   6 -11   28.92    9.89
   3  -6  11   82.76    9.93
   6  11   1    6.31    1.97
  -6 -11  -1    3.71    2.38
  -6 -11  -1    3.08    2.41
   4  11  -3    4.94    1.86
  -4 -11   3    5.59    4.21
   4  11  -3    4.11    2.05
  -4 -11   3    4.80    2.49
  -2   4 -13   30.49    3.84
   2  -4  13   38.60    5.74
  -2  10  -6   56.16    8.14
  -2  10  -6   41.42    5.61
  -2  10  -6   47.27    5.51
   2 -10   6   47.25    6.65
  10   0   5    3.51    3.85
  10   0   5    7.13    5.18
  10   0   5    7.12    3.40
  10   0   5    7.86    4.41
  -1  -4  13   17.90    4.07
  -1  -4  13   21.02    4.11
   7  -8  -4    5.94    3.64
   7  -8  -4   17.89    4.58
  -6   2 -12   42.39    6.64
   6  -2  12   71.05    8.24
   9  -3  -5    9.95    4.88
   9  -3  -5   15.79   12.59
   1  12  -2   20.05    3.54
   1  12  -2   25.09    3.60
   1  12  -2   19.10    3.54
  -8   6  -4   -0.76    3.37
   8  -6   4    0.84    1.42
  -3 -12   1   25.25    4.92
  -3 -12   1   31.30    7.40
   3  12  -1   28.88    4.42
   3  12  -1   27.57    4.42
   9   1  -6   84.19   19.30
   9   1  -6  180.85   20.49
   2 -12  -5   33.97    8.15
   2 -12  -5   74.42    7.62
  -2  12   5   22.18   11.07
  10  -2   1    6.41    1.30
  10  -2   1    0.47    5.18
  -8   5  -6   10.21    4.10
   8  -5   6   10.76    2.22
  -8   1 -10   24.27    3.84
  -8   1 -10   28.42    5.75
  -8   1 -10   19.18   14.48
   8  -1  10    8.84    5.08
   8  -1  10   15.59    3.95
   9  -1  -6    1.06    7.31
   9  -1  -6    3.49    4.60
  -7   2  10   29.01    6.69
   7  -2 -10   25.77    9.38
  -8  -4 -11    6.68    2.64
   8   4  11    7.74    3.73
   8   4  11    2.15    4.42
   8   4  11    2.83    4.05
  10  -1   4   31.96    7.21
 -10   1  -4   34.03   16.79
  10  -1   4   30.18    6.37
  10  -1   4   14.01    6.81
  -7  -9  -9   89.13    9.40
  -7  -9  -9   79.02    7.88
   7   9   9  101.10   12.91
  -7   8  -2    4.84    7.09
   7  -8   2   22.82    3.82
  -5  -1 -14    3.53    3.02
  -5  -1 -14    9.74   12.17
   5   1  14    3.87    4.77
   1  -2 -15   41.51   14.27
   1  -2 -15   80.87   17.95
  -1   2  15   54.16   12.00
  -1   2  15  108.42   10.93
   9  -5  -1    5.80    3.92
  -5  -5 -14    0.81    2.91
  -5  -5 -14    3.17    1.44
   6  -7   7    1.69    1.58
  -6   7  -7   -4.52    8.37
  -6   7  -7    1.14    2.09
   9   4   9   14.73    4.72
   9   4   9   22.68    5.91
   9   4   9   11.78    4.73
   9   4   9   16.75    2.55
  -9  -4  -9   18.62    3.58
  -1   3  15   25.80    5.14
   1  -3 -15   15.08    9.17
  -1   3  15   13.46    4.94
  -9   5  -1   30.22   13.43
   9  -5   1   24.71    6.00
   4   5 -11   39.82    6.32
  -4  -5  11   73.74    8.75
  10  -2   0   -3.99    6.87
  10  -2   0    0.95    7.80
  10   5   3   -1.53    2.55
  10   5   3   -0.71    1.58
  10   5   3    0.85    3.90
  10   5   3    0.11    1.32
   9  -3   6   61.36   10.09
  -9   3  -6   43.77   17.75
  -1   0 -15   12.91    9.35
   1   0  15   10.19    3.64
  -1   0 -15    8.62    6.55
   4 -10   4   29.20    5.09
  -4  10  -4   25.15    4.68
  -4  10  -4   20.55    5.52
   4   1 -13   15.48    2.86
  -4  -1  13   11.00    3.20
  -2  -9   8   19.46    3.85
   2   9  -8   26.01    3.95
  -2  -9   8   24.95    4.28
  10   5   2    2.40    4.58
  10   5   2    1.80    1.81
  10   5   2    1.14    1.82
  10   5   2    0.64    2.71
  10   5   2    4.05   10.63
  -4  11   0   44.12    7.29
   4 -11   0   49.94    5.60
  -4  11   0   57.77    6.12
   4 -11   0   40.39    6.62
   1 -12  -7   19.42    3.34
  -1  12   7    4.59    7.33
   1 -12  -7    4.35    3.89
  -2  -9 -13   13.83    4.62
   2   9  13    9.77   10.02
   3  11  -4   58.29    6.96
   3  11  -4   49.63    6.51
  -3 -11   4   76.56    9.51
  -3 -11   4   43.43   11.08
  10   2   6    7.06    3.18
  10   2   6    8.98    2.99
  10   2   6   13.28    5.59
   3  -7  10    6.35    1.39
  -3   7 -10   -1.65    5.53
   3  -7  10   10.23    2.82
   7  -7   5    2.01    1.49
  -7   7  -5    1.80    2.19
  -1  -9 -13   34.97    7.33
   1   9  13   18.10   11.91
   9  -4  -4   28.09   13.75
   9  -4  -4   21.90    6.74
  -8  -9  -6    4.60    4.08
  -8  -9  -6   10.41    5.54
   8   9   6   19.91    3.66
   8   9   6   12.13    2.66
  -3 -10   6   41.21    5.92
  -3 -10   6   33.04    9.64
  -3 -10   6   33.31    5.40
 -10   2  -2   48.80   17.40
  10  -2   2   12.92    7.02
   9  -1   8   41.47    9.30
   9  -1   8   75.76    7.40
  -9   1  -8   54.87   21.23
   7  10   0   16.91    3.11
  -7 -10   0   14.04    4.14
  -7 -10   0   16.06    4.05
   7  10   0   20.96    3.08
  10  -1  -2   14.32    2.57
  10  -1  -2    3.66    6.86
   0 -12   2    2.56    2.28
   0  12  -2    2.81    1.83
   0  12  -2    2.02    1.55
   0 -12   2    1.82    1.31
   0  12  -2    2.27    1.68
   9   1   9    0.50    2.95
  -9  -1  -9    1.46   13.23
   9   1   9    1.32    1.49
   9   1   9    0.61    2.56
  -9  -1  -9    1.01    1.42
   7   6  -7    8.27    2.87
  -7  -6   7    5.83    2.11
   8  -6  -5   26.84    6.71
  -5   9   8   30.41    4.84
   5  -9  -8   13.71    4.03
   5  -9  -8    2.87    4.41
   6  -4 -11   17.30    8.48
  -6   4  11   29.18    6.60
  -6   4  11   26.94    3.80
  -6   0 -13    7.68   10.23
  -6   0 -13    2.33    2.27
   6   0  13    0.26    3.11
   6   0  13    0.42    3.85
  -6   0 -13    1.36    1.54
   0   5  15   -2.80    6.21
   0   5  15   11.20    5.57
   0  -5 -15    9.34    4.79
  -2 -10 -12   12.59    4.23
   2  10  12    8.11    8.85
  -2 -10 -12   10.11    1.91
   4  -8   8    2.39    1.99
  -4   8  -8   -0.30    5.09
   8  -7  -1   45.12    7.77
   8   2  -8    1.95    3.40
   3  -5  12   78.23    9.19
   3  -5  12   81.59    9.67
   0 -12  -8   32.35    9.42
   0  12   8   47.92   15.22
   0 -12  -8  100.98    9.38
  10   3   6   10.44    3.50
  10   3   6    8.45    1.64
  10   3   6    9.65    2.78
  10   3   6   15.66    6.16
   1  10  12   12.41    9.87
   1  10  12   18.02   10.21
  -1 -10 -12   46.79    8.12
  -2  12   0   16.59    2.75
   2 -12   0   13.80    3.86
  -2  12   0   13.00    3.43
   2 -12   0   22.77    3.27
   8  -7   0   58.81    9.19
  -4   1 -14    5.39    3.54
  -4   1 -14    3.73    8.90
   4  -1  14   10.98    3.79
   4 -10  -8    7.69    5.30
  -4  10   8   50.09    7.03
   4 -10  -8   22.36    4.58
  -3 -12  -8   20.38    3.17
   3  12   8   11.67    4.17
  -3 -12  -8   24.52    4.33
   7  -6  -8   33.03   14.89
   7  -6  -8   11.14    4.75
  -7   0 -12   16.19    3.85
   7   0  12   19.24    4.90
  -7   0 -12   19.06    4.04
   8   4  -7   31.47    4.71
   8   4  -7   66.88    8.01
   8   7  -4   27.25    3.99
  -8  -7   4   20.95    3.74
   8   7  -4   27.77    4.38
   7  10   7   56.32    7.18
  -7 -10  -7   40.32    7.47
  -7 -10  -7   13.05    6.25
   7  10   7   31.59    5.14
  -3  -1 -15   34.01    7.66
   3   1  15   63.50    9.28
  10   5   4    3.51    1.66
  10   5   4    4.91    2.55
  10   5   4    3.51    1.20
  10   5   4    4.83    4.47
  10   5   4    3.21    2.09
  -7   2 -11   19.76   13.87
  -7   2 -11   29.02    4.64
  -7   2 -11   27.71    5.15
   7  -2  11   39.08    5.10
  -6  -6 -13    5.02    3.06
   6   6  13    1.70    6.55
   6  -7  -9    3.27    3.94
   6  -7  -9    1.00    3.01
   6  -7  -9    0.53    2.60
   9   6   8    9.50    1.80
   9   6   8    7.62    3.40
   9   6   8    7.35    2.95
   9   6   8   12.38    5.36
   0   0  15    1.18    3.75
   0   0 -15    0.70    6.78
   0   0 -15    1.46    5.80
  -5  -9   6    2.94    2.20
   5   9  -6    1.87    1.81
  -2 -12   2    2.20    4.01
   2  12  -2    5.76    2.04
  -2 -12   2    6.14    2.55
   2  12  -2    6.80    2.17
  -4 -12  -7   50.85    5.91
  -4 -12  -7   20.66    7.01
   8  -3  -8   16.43    9.23
   8  -3  -8   12.30    5.98
   5 -10   2   27.75    4.60
  -5  10  -2   30.27    5.65
  -5  10  -2   29.46    6.47
   4  -3  13   92.63   10.45
  -4   3 -13   41.35    7.84
   4  12   0    6.58    2.38
  -4 -12   0    5.25    2.85
  -4 -12   0    4.01    2.49
   4  12   0    6.47    2.05
  -3  -7  10    5.36    3.30
   3   7 -10   11.84    3.43
  -3  -7  10   10.39    2.86
   3   7 -10   11.58    2.80
  -7  -7   6    3.09    2.01
   7   7  -6    6.39    2.49
   3  -2  14   41.03    6.13
  10   5   1    8.42    3.17
  10   5   1    7.54    9.62
  10   5   1   18.24    4.13
  10   5   1   14.22    8.05
  10   5   1   12.24    2.30
  -2   0 -15   22.27   11.66
   2   0  15   47.05    6.88
   5  -9   5    0.29    1.66
  -5   9  -5   -0.77    4.14
  -8  -1 -11   17.87   15.53
   8   1  11    6.46    5.30
  -8  -1 -11   16.17    3.48
  10   1   6   32.46   10.84
  10   1   6   59.09    9.69
  10   1   6   33.30    6.82
  10   1   6   39.39    7.19
   1  -1 -15   22.75   10.89
  -1   1  15   63.10    7.13
   1  -1 -15   32.16   11.79
  -1   1  15   22.59    7.99
   3  -8 -12  114.90   13.13
  -3   8  12   83.51   12.15
   3  -8 -12   78.74   13.26
  10   3  -2    0.12    1.23
  10   3  -2    0.53    4.93
  10   3  -2    0.29    1.16
  10   3  -2   -0.08    1.21
  -3   4  14    0.43    4.05
   3  -4 -14   -0.48    4.19
  -3   4  14    0.24    2.85
  -3   4  14    2.52    2.76
  10   4  -1   21.93    9.08
  10   4  -1   17.96    3.53
  10   4  -1   25.67    3.08
  10   4  -1   19.59    3.25
  10   4  -1   24.20    5.62
   9  -5  -2   25.12    6.54
  10  -2  -1   -6.29    6.99
  10  -2  -1    0.71    3.87
   3   5  15    3.79    9.07
  -3  -5 -15   11.64    4.57
  -3  -5 -15   16.69    3.35
   8  -7  -2    3.79    3.09
   3  -9 -11   30.49    6.62
  -3   9  11   23.25    5.48
   3  -9 -11   40.47    6.26
   1  -4 -15    2.55    3.37
  -1   4  15    6.39    3.79
  -1   4  15    6.78    4.28
  -7  -1  10    1.22    1.26
   7   1 -10    5.76    3.67
  -5   8  -7   -8.51    6.61
   5  -8   7    1.13    1.68
  -9   5  -2   10.08   10.34
   9  -5   2   12.91    4.55
  -7   6  -7    2.39    2.34
   7  -6   7    2.12    1.43
  -4  -9   7    9.49    3.74
   4   9  -7   12.64    2.84
  -4  -9   7   10.23    2.99
  -4   8  11   47.06    7.76
   4  -8 -11   54.79   10.31
   4  -8 -11   82.68   10.60
  -5 -11   2   23.88    5.91
  -5 -11   2   29.20    5.16
   5  11  -2   28.67    4.49
   5  11  -2   37.54    4.65
  -7  -5   8    4.35    1.87
   7   5  -8    3.60    2.09
   7   5  -8    6.40    2.81
  -2  11  -4   54.12    6.09
   2 -11   4   60.60    8.49
  -3   0  14   12.31    7.51
  -3   0  14   39.98    8.84
   5  -2  13   79.08    9.21
  -5   2 -13   48.84    8.00
  -5   2 -13   50.84   17.22
   6  -6 -10   23.84    6.44
   6  -6 -10   11.60    5.41
  -6   6  10   11.66    2.26
   2  -6 -14   65.65   11.70
  -2   6  14   55.97    9.45
  -2   6  14   49.67   11.70
   4 -11  -5    2.48    2.01
  -4  11   5    2.62    1.81
   4 -11  -5    1.77    2.08
   4 -11  -5    0.95    2.41
   1  -7 -14   53.85   10.01
  -5  -4  11   31.09    4.63
   5   4 -11   15.50    4.84
   5   4 -11   43.84    4.72
   9   2  -6   75.34   10.25
   9   2  -6   34.16    5.47
   1  11  -5   12.03    2.50
  -1 -11   5   13.89    3.59
   1  11  -5   10.56    2.54
  -6  -4  10   15.81    2.94
   6   4 -10   25.60    4.27
  -7  -9   3    3.26    3.24
  -7  -9   3    3.04    2.09
   7   6  12    8.33    5.17
  -7  -6 -12    9.02    1.99
   7   6  12   13.43    3.75
   7   6  12    2.63    5.31
  -7  -6 -12   15.07    3.90
   9   7  -1    9.08    2.34
  -9  -7   1   10.34    3.78
   9   7  -1    8.80    2.24
   7  -5  -9    3.39    3.82
   8  -7   1    5.18    3.69
   9   5  -4    1.34    1.40
   9   5  -4   -0.94    3.10
   9   5  -4    0.51    1.48
  -2   9  -8   18.23    4.09
  -2   9  -8   25.10    3.34
   2  -9   8   28.20    3.69
   2  -9   8   31.05    4.84
   9  -2  -6    1.16    7.08
   9  -2  -6    3.55    4.09
   0  11  -5   47.10    5.39
   0  11  -5   39.76    5.49
   0 -11   5   59.20    6.92
   0  11  -5   46.62    5.77
  -5 -12  -4    4.67    3.31
 -10   2  -3    7.54   10.94
  10  -2   3    4.63    4.03
  10  -2   3    0.41    4.85
   5   2 -12   21.46    3.83
  -5  -2  12   19.04    3.45
  10   1  -3    2.21    1.47
  10   1  -3    0.91    4.14
  -6  -2  11    8.43    2.24
   6   2 -11   10.16    3.56
  -3  -8   9   36.24    4.97
  -3  -8   9   17.35    4.92
   3   8  -9   38.18    5.29
   8   9   0   72.98    7.91
  -8  -9   0   52.12    8.30
  -8  -9   0   63.91    8.61
   7  -3 -10   15.50    7.30
  -7   3  10   31.88    4.35
   7  -3 -10   30.47   10.68
  -7   3  10   47.29    8.15
  -5 -12  -3   17.93    5.00
  -3  -9 -13    1.46    2.90
   3   9  13    0.96    8.07
  -4   5  13    1.62    2.31
  -4   5  13    0.21    2.40
  -4   5  13   -1.36    4.88
   2 -11  -9    6.82    4.95
   2 -11  -9   25.01    4.48
  -4  -7 -14   14.06    2.94
  -4  -7 -14   15.51    5.01
   3   6 -11    9.51    3.62
   3   6 -11   17.35    3.29
  -3  -6  11   19.51    3.56
  -3  -6  11    5.19    3.41
   8   5  11   30.48    8.00
   8   5  11   44.28    7.43
  -8  -5 -11   37.47    5.98
   8   5  11   24.15    8.90
  10   0  -3    4.61    1.76
  -5   5  12   19.88    5.45
  -5   5  12   17.79    5.79
  -5   5  12   24.61    3.75
  -6 -11  -7    9.65    4.91
  -6 -11  -7   26.13    4.75
   9   7   7   15.04    5.87
   9   7   7   14.81    3.55
   9   7   7   13.64    2.24
   9   7   7    8.18    2.10
  -3  -3  13   29.98    4.98
   3 -11   3   39.24    4.63
   3 -11   3   46.67    6.79
  -3  11  -3   52.06    7.43
   2 -12  -6    8.74    4.06
   0   9  13    7.54    8.24
   0  -9 -13   14.56    5.22
  -6 -11   0   36.92    6.36
  -6 -11   0   28.98    5.60
   6  11   0   36.82    4.91
  -3 -10 -12   46.88    4.77
   3  10  12   17.48   10.46
  -3 -10 -12   58.83    7.97
  10   4   6   24.24    5.14
  10   4   6   28.80    4.52
  10   4   6   25.36    3.42
   0  10  -7    1.87    1.49
   0 -10   7    1.30    1.38
   0  10  -7    1.87    1.78
  -4 -11 -10   66.94    8.03
  -4 -11 -10   52.97    6.10
   5 -10  -6    0.52    2.83
  -5  10   6    0.69    1.55
   5 -10  -6    0.13    2.40
   5 -10  -6    0.98    2.21
   9   8   3   40.45   11.07
   9   8   3   29.67   14.62
   9   8   3   41.94    5.03
  -9  -8  -3   12.05    4.61
   9   8   3   31.26    4.56
   9   5   9   26.06    6.57
   9   5   9   34.95    4.22
   9   5   9   40.27    6.77
  -9  -5  -9   41.38    5.96
   9   4  -5    7.24    3.95
   9   4  -5    8.27    1.93
   9   4  -5    8.44    2.32
   9   4  -5    3.26    6.89
   7  -7  -7   12.30    4.41
   2  -9 -12   68.93   10.69
  -2  -8 -14    0.95    3.37
  -6 -10   3   75.69    9.75
  -6 -10   3   83.80   12.25
  -1  -6 -15   21.72    6.25
   1   6  15    1.35    8.59
  -5 -11  -9   13.95    3.33
  -5 -11  -9   19.89    4.10
  -1  -8 -14    9.82    4.26
   6  -9   3   21.64    3.99
  -6   9  -3    6.44    5.52
  -6  -9 -11   35.52    4.90
  -1 -10   7    0.41    1.62
  -1 -10   7    0.55    1.88
   1  10  -7    0.76    1.21
   5  12   5    9.52    2.67
  -5 -12  -5    2.98    3.15
   4 -11   1   57.17    6.18
   4 -11   1   48.47    7.32
  -4  11  -1   52.98    7.36
  -4  11  -1   21.01    9.78
  -1  11  10    0.63    5.57
   1 -11 -10   -0.37    3.12
   1 -11 -10    1.90    2.54
   5   9  12    0.74    5.34
  -9   4  -5   16.10   11.78
   2   6  15   40.07   13.40
  -2  -6 -15   51.64    7.16
  10   5   5   23.19    4.02
  10   5   5   27.82    8.30
  10   5   5   19.25    2.80
  10   5   5   16.31    3.95
   0  10  12    6.24    8.05
   0 -10 -12   -4.00    4.50
   0 -10 -12    2.26    2.95
   9   8   4   65.46    6.73
   9   8   4   46.93    6.26
  -9  -8  -4   21.64    6.35
   9   8   4   47.12   12.36
   3  -8   9   30.93    4.94
   4  -9 -10    5.12    4.95
   4  -9 -10   18.96    4.96
  -4   9  10   17.20    4.24
  -6  -8 -12   48.29    7.53
   7  -8  -5   10.10    3.91
   7  -8  -5    2.35    3.31
  -4   7  12   28.82    6.70
   4  -7 -12   28.04    7.62
  -4   7  12   24.10    5.35
   4  -7 -12   52.74    8.70
   1  -3  14   67.25    8.44
   9   6  -3    0.77    7.52
   9   6  -3    0.50    2.41
   9   6  -3    0.88    1.53
   9   6  -3    1.23    1.41
  -4  -3 -15   66.53   21.36
  -4  -3 -15   57.88    9.78
  -1  12  -2   32.35    4.26
   1 -12   2   34.13    4.21
   1 -12   2   28.95    5.25
  10  -1   5   41.60    8.07
 -10   1  -5   58.08   22.25
  10  -1   5   51.59    8.47
  10   2  -3   -0.08    1.30
  10   2  -3    4.10    5.39
  10   2  -3    1.29    1.41
   8  -7  -3   32.77    6.89
  -5 -12  -2   41.09    7.31
   5  12   2   51.13    6.67
  10   5   0    6.87    2.27
  10   5   0    7.01    1.90
  10   5   0    8.18    1.99
  10   5   0   11.13    3.70
  10   5   0    8.78    9.90
  10   5   0   10.88    7.40
   6  -8  -8   13.85    4.44
   6  -8  -8   26.91    5.08
  -9  -8  -2    0.68    2.42
   9   8   2    2.30    1.68
   9   8   2    2.27    4.92
   9   8   2   -1.01    8.45
  -6  -9   5    2.91    3.92
   6   9  -5    6.89    2.28
  -6  -9   5    7.25    2.83
  -7   8  -3   -0.23    2.52
  -7   8  -3   -5.98    8.11
   7  -8   3    0.09    1.55
  -9   0  -9   -1.38   12.60
  -9   0  -9    0.76    1.44
   9   0   9   -3.40    3.64
   9   0   9    0.54    1.82
   0  -3  14    7.45    3.21
   0  -7  11    0.22    1.91
   0   7 -11   -0.63    3.50
   0  -7  11    0.24    1.22
   0   7 -11   -0.92    1.48
   5   0  14    7.41    4.00
  -5   0 -14    5.36    3.14
  -5   0 -14    4.11    8.91
   6  -9  -6    1.89    3.32
   6  -9  -6    4.32    3.06
   8   9   7  103.32    9.97
   8   9   7   47.93    6.93
  -8  -9  -7   28.81    9.18
  -8  -9  -7   57.04    6.27
  -5  -6 -14   41.87    7.56
  -5  -6 -14   39.43    5.12
  -2  -2  14    3.62    2.72
  -8  -7 -10    4.11    2.51
   8   7  10    4.58    3.21
  -8  -7 -10    4.04    1.56
  10   0   6   22.88    6.43
  10   0   6   40.32    7.80
 -10   0  -6   45.74   19.92
  10   0   6   32.70    8.50
  10  -2  -2   29.00   10.68
  10  -2  -2   34.00    8.95
   3  -4  13   25.82    4.70
   1  13   3    8.88    2.34
   1  13   3   10.21    3.00
  -2 -11   5   71.37    9.43
   2  11  -5   66.56    7.58
   2  11  -5   58.91    7.54
  -2  -4  13   36.46    5.65
   2   4 -13    3.69    5.19
  -4  -4 -15   39.64    5.13
  -4  -4 -15   37.08    7.44
   9  -5  -3    2.79    7.83
   9  -5  -3   -0.58    2.96
   2  -8 -13    9.64    4.72
  -7  -8   5    4.01    2.26
  -2 -11 -11   20.54    4.95
   2  11  11   10.45    9.62
   2  11  11    7.35    7.57
  -2 -11 -11   18.47    2.82
   5  -5  11    6.67    2.69
   5  -5  11    6.71    2.28
  -5   5 -11    4.35    2.44
  -1 -13  -4    7.99    3.74
   1  13   4    9.83    3.15
   1  13   4   10.36    2.54
  -2 -12  -9   26.92    4.97
  -2 -12  -9   21.24    3.31
   6  -5  10    0.34    1.61
  -2  12  -1   29.89    3.95
  -2  12  -1   29.32    5.11
   2 -12   1   27.11    3.59
   2 -12   1   20.17    4.50
   4   2  15   63.64   10.78
  -4  -2 -15   46.31    8.52
  -4  -2 -15   44.49   17.51
  10  -1  -3   19.87    3.19
  10  -1  -3   24.07    7.30
  -1 -12  -9   31.26    9.54
   1  12   9   46.49   15.05
  -1 -12  -9  100.15    9.74
  -8   3  -9    9.05   10.81
   8  -3   9    9.83    2.28
  -8   3  -9   10.05    3.67
   8  -5  -7   27.73   14.57
   8  -5  -7   27.64    7.23
  -9   5  -3   21.61   13.39
   9  -5   3   21.35    5.68
   8  -7   2   21.93    5.45
   1  11  11   29.54   13.54
  -1 -11 -11   84.18    8.85
   1  11  11   46.63   15.12
  -1 -11 -11   10.38    7.11
   5  -6  10    5.48    2.35
   1   0 -15   -0.84    5.73
   1   0 -15    1.27    6.16
  -1   0  15    0.19    2.65
  -1   0  15   -0.38    3.77
   3  -7 -13    4.28    4.18
  -3   7  13    3.03    4.00
  -3   7  13   -4.52    5.10
   3  -7 -13    2.98    3.48
  -8  -8  -9   41.83    5.36
   8   8   9   45.79    7.31
  -8  -8  -9   49.02    6.74
  -8   4  -8    0.63    2.73
   8  -4   8    0.78    1.35
  -1  11  -5   34.64    5.03
  -1  11  -5   40.48    4.75
   1 -11   5   44.08    6.66
   1 -11   5   47.65    5.63
  -1   7 -11   24.55    3.33
  -1   7 -11   12.82    5.81
  -5  -8 -13   70.33   10.28
   5   8  13   25.02   12.27
  -7 -10   1    2.20    2.60
   7  10  -1    2.51    1.46
  -7 -10   1    1.49    1.93
   9   8   5  102.30    9.74
   9   8   5   93.83    9.76
  -9  -8  -5   34.14    8.65
   9   8   5   72.37    9.39
   9   8   5   98.15   16.54
  -2 -13  -3   -0.22    2.30
   2  13   3    0.13    1.73
   2  13   3   -0.08    1.16
   2  13   4    0.08    1.04
   2  13   4   -0.14    1.78
   3 -11  -8   21.42    3.51
  -3  11   8   18.07    4.11
   3 -11  -8    3.10    3.68
  -1  10  -7   29.18    4.18
  -1  10  -7   30.11    4.13
   1 -10   7   31.30    5.03
   1 -10   7   29.47    3.95
   0   6 -12   -2.53    5.26
   0   6 -12    2.07    1.57
   0  -6  12    2.51    2.19
  -5 -10 -11    4.83    5.14
  -5 -10 -11   24.03    4.72
   1  -5 -15   -0.65    3.60
  -1   5  15   -3.83    4.96
  -3   0 -15    0.85    3.32
   3   0  15    2.75    3.11
  -3   0 -15   -1.78    8.13
   2 -10 -11    3.67    5.38
   2 -10 -11   46.61    6.80
  -3  10  10    7.63    3.40
   3 -10 -10    6.73    3.38
   3 -10 -10    0.74    3.33
  -4  -4  12   43.86    6.02
   4   4 -12    5.32    4.75
   0   8 -10    1.24    3.19
   0  -8  10    2.03    2.13
   0  -8  10    0.81    1.35
   0   8 -10   -0.18    1.43
   3  12  -2   37.08    5.28
   3  12  -2   38.98    5.44
  -3 -12   2   32.36    5.50
  -3 -12   2   27.97    7.66
   8  -6   5    4.91    1.64
  -8   6  -5    2.95    2.86
  -8   0 -11   69.65   22.95
   8   0  11   58.36    7.22
   8   0  11   15.01    7.58
  -8   0 -11   54.25    7.16
  -8   0 -11   59.04    8.82
   6  -4  11    9.90    2.48
  -6   4 -11    7.70    2.56
   6  -4  11    8.45    2.55
   1  13   2   13.11    3.33
   1  13   2   19.16    3.28
  10  -2   4    8.58    6.04
 -10   2  -4   34.95   17.01
  10  -2   4   23.82    6.15
  -5   8  10    3.08    2.86
   5  -8 -10   20.15    5.05
   5  -8 -10    4.64    3.87
  -5   8  10   12.17    3.48
   5  -8 -10   12.85    4.76
  -1   1 -15   27.41   12.05
   1  -1  15   86.89   10.42
  -1   1 -15   24.42    9.69
  -5 -12  -6   -2.11    3.79
   0  -6 -15    0.30    2.98
  -3  -8 -14    0.45    3.10
  -3  -8 -14    2.19    2.09
  -7  -4   9   32.76    4.41
   7   4  -9   15.19    4.08
   7   4  -9   46.24    5.82
  -3  12   3    0.87    6.29
   3 -12  -3    0.77    2.22
   3 -12  -3    3.20    2.02
  -3  12   3    1.51    1.95
   4   2 -13   66.87    7.38
  -4  -2  13   52.14    6.94
   1   7 -11    9.10    4.26
  -1  -7  11   11.62    3.08
   1   7 -11   12.76    2.58
  -1  -7  11    6.51    2.63
   1 -12  -8   -0.62    2.55
   1 -12  -8    0.75    1.80
  -1  12   8   -1.02    6.76
   8   3  -8   47.98    7.13
   8   3  -8   15.52    4.06
  -1   6 -12   41.96    4.73
  -1   6 -12   12.57    7.60
  -8  -8   3   41.22    7.59
   8   8  -3   71.47    7.34
   8   8  -3   42.49    6.31
  -8  -8   3   33.36    5.39
  -3   5  14   52.40    8.80
   3  -5 -14   39.48    8.96
  -3   5  14   34.31   10.42
  -3   5  14   61.18    7.89
  -3  12   2   17.83    4.21
   3 -12  -2   14.71    4.17
  -3  12   2   12.92    8.78
  10   2   7   17.40    6.09
  10   2   7   11.52    4.32
  10   2   7   12.24    3.18
   2  -3  14    1.00    2.71
   3   9  -8   38.10    5.26
  -3  -9   8   23.38    5.14
  -3  -9   8   39.57    5.38
  -5   7  11   24.02    4.10
   5  -7 -11   27.19    7.55
   5  -7 -11   49.73    8.53
  -5   7  11   25.58    5.34
   7   2 -10  134.68   16.07
  -7  -2  10   84.07    9.05
   0  -8 -14   19.97    5.96
   9  -4  -5    1.27    3.51
   9  -4  -5    4.80    9.53
  -4  11   6    1.87    1.99
   4 -11  -6    1.62    2.62
   4 -11  -6    3.80    2.51
   4 -11  -6   -0.13    1.86
  -9  -8  -1    1.90    2.09
   9   8   1    2.07    1.63
  -9  -8  -1    2.10    2.90
   9   8   1    0.98    7.26
   7  10   8    0.71    2.87
  -7 -10  -8   -2.66    3.50
  -1 -13  -5    3.28    3.02
   1  13   5    6.00    2.02
  -4 -12  -8   -0.66    2.94
  -4 -12  -8    0.65    2.37
  -4 -12  -8    0.44    1.87
  10   3   7    2.13    1.81
  10   3   7    5.23    3.91
  10   3   7    3.05    2.90
  -3  -6 -15   -0.77    1.89
  -4 -12   1    3.80    3.18
  -4 -12   1    2.65    2.38
   4  12  -1    2.31    1.85
   4  12  -1    4.43    1.79
   7   8  11    3.23    3.18
  -7  -8 -11    5.16    2.85
  -7  -8 -11    3.59    1.63
   6  -6   9    6.21    2.21
  -6   6  -9    4.08    2.53
  10   4  -2    4.41    2.06
  10   4  -2    4.50    1.92
  10   4  -2   -0.60    5.24
  10   4  -2    3.64    1.49
   3   5 -12   -1.93    4.07
  -3  -5  12    3.56    2.34
  -2 -10   7   15.75    3.66
  -2 -10   7   22.31    4.18
 -10   3  -1   45.27   16.30
  10  -3   1   41.48    8.82
  -6   5  11   15.76    2.87
  -6   5  11   29.07    6.20
   1  12  -3    2.36    1.79
   1  12  -3    4.18    1.85
  -2 -13  -2   71.60   10.13
   2  13   2   69.58    8.86
   0  13   3   10.97    2.71
   0 -13  -3    4.90    3.20
   3   1 -14   40.24   11.23
  -3  -1  14   84.56   10.00
   2  13   5    4.32    2.73
   2  13   5    3.22    1.53
  10  -3   0   43.73    9.23
   9   3  -6   12.98    4.42
   9   3  -6    7.66    7.44
   9   3  -6    7.38    2.37
  -2   2  15   23.91    6.65
  -2   2  15   41.05    5.77
  -5 -12  -1   16.89    4.43
   5  12   1   20.69    3.59
  -5  10  -3   12.90    3.71
   5 -10   3    9.08    2.88
  -5  10  -3   13.27    5.11
  -6   1 -13   26.70   14.70
  -6   1 -13   32.79    5.87
   6  -1  13   47.75    6.61
   0   1 -15   16.83    9.61
   0   1 -15    8.24    7.37
   8  -4  -8   -0.73    3.77
   8  -6  -6    4.07    3.82
  10   6   3   30.41    4.63
  10   6   3   25.46    9.10
  10   6   3   28.90   14.32
  10   6   3   23.13    4.37
  -6 -10 -10   -0.85    2.57
  -6 -10 -10   -0.41    3.62
  -1  -8  10    1.28    1.95
   1   8 -10    2.22    2.97
   1   8 -10    0.14    1.34
  -1  -8  10    0.59    1.42
   0  13   4    6.75    2.90
   0 -13  -4    2.50    2.89
   0  13   4    4.99    1.96
   1  -8  10    3.24    1.50
  -1   8 -10    3.35    3.79
   9  -3  -6    9.27    4.92
   9  -3  -6   11.88    8.39
   9  -3  -6    2.51   10.29
  -2   3  15   23.26    4.46
  -2   3  15   14.83    5.11
   5  -4  12   23.22    4.25
   5  -4  12   22.90    3.84
  -5   4 -12   10.38    3.60
  -7  -3 -13    6.31    3.02
  -7  -3 -13   25.52   18.27
   7   3  13    3.16    4.84
  -3  10  -6   32.82    6.38
  -3  10  -6   21.37    3.84
   3 -10   6   23.84    4.35
   8  -2  10    9.63    4.06
   8  -2  10   26.72    3.34
  -8   2 -10   28.02   15.03
  -8   2 -10   24.22    5.50
   7  -1  12    6.13    6.14
   7  -1  12   63.17    6.09
  -7   1 -12   42.80    6.47
  -7   1 -12   50.23    7.04
  -7   1 -12   36.45   16.71
  -3  12   4   -0.17    2.14
   3 -12  -4    1.56    1.60
   3 -12  -4   -0.66    2.74
  -3  12   4    0.97    7.48
   3  11  11   25.53   11.70
  -3 -11 -11   65.93    8.24
  -3 -11 -11   52.24    5.57
   6  -8   6    1.10    1.47
  -6   8  -6    1.39    2.15
  10   5   6   56.37    9.02
  10   5   6   78.18    8.33
  10   5   6   65.33    7.48
   0  12  -3   10.35    2.47
   0 -12   3    7.48    2.98
   0  12  -3   11.18    2.71
   7  -4 -10   27.05    8.45
  -7   4  10   63.73    9.43
  -7   4  10   40.22    5.06
   8  -1  -9   38.38   10.76
   8  -1  -9   21.50    8.91
  10   6   2   27.33    4.38
  10   6   2   28.24   14.28
  10   6   2   11.69    3.71
  10   6   2   21.20    8.75
  -8  -9   1   23.08    4.82
  -8  -9   1   27.16    5.64
  -4  -5 -15   48.19    5.97
  -4  -5 -15   38.40    7.82
  10   3  -3   14.01    8.01
  10   3  -3   10.84    2.60
  10   3  -3   10.92    2.55
  -3 -12  -9   47.99    6.50
  -3 -12  -9   41.63    4.80
   3 -12  -1   20.57    3.25
   3 -12  -1   17.54    4.38
  -3  12   1   13.13    3.64
  -3  12   1    5.92    6.82
  -1  -6  12   66.49    8.54
   1   6 -12   19.43    7.34
   1   6 -12   53.88    5.80
   2  -1  15   12.58    3.83
  -2   1 -15    2.47    7.67
   8   0  -9   38.49    9.78
   0 -13  -2   15.29    4.12
   0  13   2   18.09    3.54
  -9   2  -8    1.22   10.27
   9  -2   8    4.09    1.48
   9  -2   8   -0.75    3.54
   8   6  11    7.31    4.52
   8   6  11    9.88    6.35
   8   6  11   10.98    4.29
  -8  -6 -11    9.21    3.11
   8  -7  -4    0.75    3.22
  -9   3  -7   13.91   12.47
  -6  -7 -13   18.94    4.83
 -10   3  -2   44.78   16.71
  -4  -1 -15    2.03    8.31
  -4  -1 -15    0.50    2.86
   4   1  15    0.77    3.87
  -7  -9 -10   53.39    7.20
   7   9  10   55.96    8.90
  -7  -9 -10   46.30    5.59
  10   1   7   15.16    4.43
  10   1   7   28.93    6.71
   0 -12  -9   91.54    8.61
   0 -12  -9   20.14    7.82
   0  12   9   30.53   13.14
  -5   2  13   51.28    9.52
   5  -2 -13   73.13   11.33
  -5   2  13   58.80    6.67
  -5   2  13   30.34    9.14
   9   3  10    0.34    0.95
  -9  -3 -10    0.51    1.52
   9   3  10    2.29    3.65
  -6  -3 -14   14.63   13.58
  -6  -3 -14   17.90    4.73
   5  -7   9    7.98    2.55
  -5   7  -9   -4.04    8.75
  10   6   4    5.49    5.53
  10   6   4    1.14    9.04
  10   6   4    1.80    1.10
  10   6   4    2.92    2.03
  -4 -11   4    3.63    2.56
  -4 -11   4    1.75    3.42
  -4  -9 -13    4.42    3.33
   4   9  13   -0.96    7.38
  -6 -11  -8    2.86    3.92
  -6 -11  -8    4.72    2.74
   2 -12  -7   12.05    5.16
  -2  12   7    8.68    8.93
   2 -12  -7   31.50    4.20
  -4   9  -7   28.76    7.32
   4  -9   7   46.02    6.33
   9   7  -2   -0.85    9.10
   9   7  -2    0.29    1.40
   9   7  -2    0.15    1.52
  -7  -4 -13   37.77    6.64
   7   4  13   16.87    7.47
   0 -11 -11    1.26    2.77
   0  11  11    1.40    6.07
   0 -11 -11    2.00    4.12
  10   5  -1   10.60    9.81
  10   5  -1   20.99    4.80
  10   5  -1   13.07    2.71
  10   5  -1   12.58    2.38
  10   5  -1   10.15    7.87
   8  -5   7    1.63    1.43
  -8   5  -7    1.56    2.67
   4  -6  11   36.08    5.49
  -5  -7   9   27.50    4.04
   5   7  -9   24.40    4.11
  -5  -7   9    9.60    5.02
  -5   1  13   14.58    3.34
   5  -1 -13   17.98    4.47
  -5   1  13    4.19    4.12
  10  -3  -1   17.59    6.44
   1  13   1   47.91    6.67
  -7  -2 -13    8.88    3.31
   7   2  13    1.83    3.87
   4 -10   5    6.74    2.58
  -4  10  -5    8.84    4.46
  -4  11  -2   16.93    4.24
   4 -11   2   15.90    3.69
  -4  11  -2   11.65    7.46
   6  11  -1   79.79    8.37
   6  11  -1   67.07    8.41
  -6 -11   1   60.99    9.52
  -6 -11   1   57.47    8.33
   7  -7   6   -0.29    1.31
  -7   7  -6    0.20    2.34
   4  10  12    8.29    7.94
  -4 -10 -12    2.84    4.78
  -4 -10 -12   15.87    4.46
  -9  -2 -10   15.71    3.25
   9   2  10    5.18    4.60
   9   2  10    9.54    1.98
  -9  -8  -6    8.25    5.17
   9   8   6   31.22    9.09
   9   8   6   26.03    4.06
   9   8   6   38.14    4.88
   2  -1 -15   31.04   11.11
  -2   1  15   58.43    6.97
  -2   1  15   29.56    8.27
  10   4   7    1.07    4.03
  10   4   7    0.67    1.50
  10   4   7   -0.05    1.06
   9   0  -7   21.90    9.45
   9   0  -7   44.06   10.42
  -5 -10   5   25.81    7.64
  -5 -10   5   52.93    7.37
  -6  -4 -14   51.17    8.23
   2  12  -3    5.05    2.11
   2  12  -3    4.91    1.94
  -2 -12   3    4.46    2.40
  -2 -12   3    4.08    4.81
  -4 -10   6   28.15    4.96
  -1   9  13    1.39    9.17
   1  -9 -13    1.73    3.50
   6  -1 -12   26.38    6.87
  -6   1  12   17.99    3.46
   3  13   4    7.71    1.81
  -3 -13  -4    3.87    3.21
   3  13   4    5.59    2.58
   9   6   9   21.01    2.86
  -9  -6  -9   28.71    4.81
   9   6   9   20.47    4.76
   0  13   5   36.87    5.33
   0 -13  -5   25.29    6.22
   0  13   5   27.08    5.85
   9   7   8    0.91    3.18
   9   7   8    0.60    1.95
  -7   4 -10    6.99    3.10
   7  -4  10   10.70    2.60
   7  -4  10    9.77    2.21
   6   7  -8    8.27    2.51
  -6  -7   8    5.65    2.17
  -3 -13  -3   -0.44    2.13
   3  13   3    0.13    1.95
   6  -2 -12   11.48    6.13
  -6   2  12   11.14    2.72
   8   6  -6   33.65    5.19
   8   6  -6   24.67    4.26
   4  -2  14   41.25    6.24
  -4   2 -14   20.29    5.69
  -7  -7 -12    1.39    2.26
  -7  -7 -12    0.64    1.28
   7   7  12    1.29    5.56
  10  -2  -3   20.00    7.19
  -6  -2 -14   -1.27    9.44
  -6  -2 -14   -0.19    2.98
  -2   7 -11   14.51    6.76
   2  -7  11   45.34    6.45
  10   0  -4    7.12    6.90
  10   0  -4    6.73    2.00
  10   1  -4   15.08    7.18
   8  -2  -9   48.11   12.81
   8  -2  -9   26.33    9.21
   0  -5  13    8.66    3.20
   0   5 -13   10.58    2.42
   0  -5  13   12.23    3.25
   1  13   6   -0.40    1.52
   1  13   6   -0.78    2.76
  -1 -13  -6   -1.38    3.20
  10   6   1   49.44   13.85
  10   6   1   40.09   16.61
  10   6   1   65.21    8.14
   9  -1  -7    8.84    6.35
   9  -1  -7   18.24    8.80
   8  -7   3    0.08    1.27
  -8   7  -3    0.53    2.68
  -9  -4 -10   20.60    3.96
   9   4  10   15.81    2.33
   9   4  10   16.38    5.27
   9   4  10   25.62    5.84
   4  -5  12   50.52    6.42
  -4   5 -12   19.19    5.03
   4  -5  12   49.85    6.91
   6  -3  12   53.60    6.50
  -6   3 -12   29.54    5.31
  -2 -13  -1   25.52    5.14
   2  13   1   31.15    4.92
   2  13   1   27.02    4.72
  -5  -6  10   38.34    5.39
   5   6 -10   37.84    5.57
   5   6 -10   45.47    6.08
  -7   5  -9    2.58    2.50
   7  -5   9    1.64    1.52
  -2   4  15    1.01    3.02
  -2   4  15    2.49    3.09
   9  -5  -4   10.23   10.39
   9  -5  -4    6.47    4.63
   1 -10 -12    4.05    5.02
   1 -10 -12   20.20    5.27
  -5  10   7   19.01    3.51
   5 -10  -7   11.59    3.72
   5 -10  -7    3.85    3.79
   2  13   6    4.75    2.85
  -4  10   9   55.48    8.29
   4 -10  -9   38.77    5.53
   4 -10  -9    6.59    5.53
  -1   5 -13   13.81    2.62
   1  -5  13   14.98    3.71
   6   3 -11    0.10    2.03
  -6  -3  11   -0.08    1.53
  -5   9   9   16.17    4.26
   5  -9  -9   14.44    3.90
   5  -9  -9    4.89    3.21
   5  -9  -9    2.16    4.35
  -2   6 -12   11.58    7.94
   2  -6  12   80.81    9.93
   6   6  -9   40.79    6.11
  -6  -6   9   35.96    5.03
   6   6  -9   55.80    6.39
   6 -10  -2    7.60    2.15
  -6  10   2    7.69    1.95
   6 -10  -2    4.10    2.67
  -6  10   2    3.61    3.55
   6 -10  -2    6.42    2.86
  -5   3  13   35.71    7.66
  -5   3  13   43.29    5.33
   5  -3 -13   56.47   11.00
  -5   3  13   22.10    7.45
  -5  -8   8   -0.27    3.72
  -5  -8   8    2.98    2.09
   5   8  -8    4.24    2.09
   4  -7  10   10.60    2.86
  -5 -11   3   31.39    7.26
  -5 -11   3   40.32    6.15
   7  -8  -6    0.46    2.58
   0   9  -9   24.16    5.43
   0  -9   9   19.14    3.33
  -5 -12  -7    9.42    4.87
   4  -6 -13   -0.85    3.96
  -4   6  13    2.15    2.68
  -4   6  13    1.01    2.68
   4  -6 -13   -0.96    4.26
  -4   6  13    0.30    3.62
   9  -5   4    2.49    3.02
  -9   5  -4    3.10   10.28
   6 -10  -1   14.70    4.00
  -6  10   1   16.33    5.12
   6 -10  -1   11.91    3.40
   8   1  -9    5.24    4.26
   9   1  -7  110.45   14.65
   9   1  -7   42.08   13.78
  10  -1   6   40.50    7.81
  10  -1   6   32.41    7.27
 -10   1  -6   35.83   17.61
  10  -1   6   14.07    6.02
   3  -9   8   20.65    3.95
   3 -12  -5    2.91    3.37
  -3  12   5    6.30    8.62
   3 -12  -5   10.14    2.72
   7  11   4   12.62    2.85
   7  11   4    8.93    2.49
  -7 -11  -4    3.28    3.58
  -8  -9  -8   21.12    7.43
  -8  -9  -8   39.25    4.61
  -8  -9  -8   13.67    6.93
   8   9   8   60.74    8.75
  -3 -13  -5    7.63    3.87
   3  13   5   12.06    3.51
  -9  -8   0    3.11    2.44
   9   8   0    2.85    7.79
   9   8   0    6.31    2.40
   6  -9   4    1.03    2.03
  -6   9  -4   -1.68    6.39
  -5  -3  12   14.00    3.05
   5   3 -12   22.05    3.57
   0 -13  -1   10.03    3.39
   0  13   1    8.62    2.44
   8   5  -7   72.50    8.51
   8   5  -7   60.29    7.80
   7  11   3   21.64    3.56
   7  11   3   18.24    3.33
  -7 -11  -3    9.32    4.23
   3  11  -5   10.47    2.50
  -3 -11   5   10.07    3.46
  -3 -11   5    4.50    4.96
  -9   1  -9    2.61   10.70
   9  -1   9   -0.18    2.67
  10   6   5    2.37    1.19
  10   6   5    3.24    1.91
  10   6   5    2.86    4.07
   2  -7 -14   37.59    8.55
  -7   8  -4    3.27    2.61
   7  -8   4    3.30    2.41
   3 -12   0   37.77    4.55
   3 -12   0   26.54    5.36
  -3  12   0   29.34    5.32
  -3  12   0   24.15   10.14
  -5   0  13    9.91    3.11
  -5   0  13    2.21    3.63
   5   0 -13    9.78    3.36
  -6   0  12    9.80    2.98
   6   0 -12   16.87    4.59
 -10   3  -3   27.59   14.83
   3  13   2    1.35    1.93
  -3 -13  -2    2.42    2.41
   3  13   2    2.79    1.93
   5  -6 -12   52.61    9.99
  -5   6  12   42.73    8.47
  -5   6  12   60.89    9.08
  -5   6  12   48.27    6.17
  -2  12  -2   15.18    2.69
   2 -12   2   12.73    3.49
   2 -12   2   14.13    2.42
  -9   4  -6    4.46   10.64
  -4   2  14   11.96    5.09
  -4   2  14   12.00    6.28
  -4   2  14   25.03    4.14
  -2  -7 -15    1.03    2.62
   3 -11   4   64.18    9.11
  -1  -7 -15   16.59    5.59
   6 -10  -3   24.33    3.80
   6 -10  -3   15.52    3.98
   6 -10  -3    9.89    4.00
  -6  10   3   17.43    2.87
  -6  10   3   13.43    4.41
   2   7 -11   23.63    5.62
   2   7 -11   34.43    4.69
  -2  -7  11   15.69    4.88
  -2  -7  11   41.06    5.28
  -8 -10  -4    1.69    3.13
   8  10   4    1.70    1.43
   8  10   4    2.35    1.78
  -8  -7   5   36.15    5.27
   8   7  -5   39.45    6.11
   8   7  -5   66.77    7.20
  -2  10  -7   59.20    7.14
   2 -10   7   75.85    8.12
   2 -10   7   71.59    9.21
  -1  -9   9    0.33    1.92
  -1  -9   9    1.00    1.60
   1   9  -9    5.73    3.52
  -5   9  -6    3.30    2.20
  -5   9  -6    3.01    4.83
   5  -9   6    2.24    2.05
  -8 -10  -3    1.31    2.98
   8  10   3    7.66    2.18
   8  10   3    5.82    1.94
  10  -2   5   13.02    6.22
 -10   2  -5   37.96   18.23
  10  -2   5   37.82    7.44
  -6   7  -8    7.15    2.86
   6  -7   8    5.24    2.12
   1   1 -15   -1.64    6.32
   1   1 -15    4.49    6.98
   7   5  13   18.17    4.67
  -7  -5 -13   16.45    4.16
  -9  -1 -10   38.39   19.33
  -9  -1 -10   20.12    3.55
   9   1  10   29.02    6.82
  -6  -8   7   29.28    4.67
   6   8  -7   29.73    4.62
   7  -9  -1   33.88    6.03
  -7   9   1   23.59    8.12
   7  -9  -1   44.98    7.21
  -7  -9   4   -0.55    1.87
   7  11   5   28.93    4.69
   7  11   5   40.33    5.36
  -7 -11  -5   15.02    5.33
  -5   1 -14   37.26   16.02
  -5   1 -14   50.31    8.24
   5  -1  14   85.50   10.28
   7  -3  11    4.25    2.01
  -7   3 -11    3.09    2.43
  -7   3 -11    4.38    9.48
   7  -3  11    4.38    2.02
   8   3  12    0.84    4.24
  -8  -3 -12    6.42    2.63
  10  -3  -2    1.07    3.68
  10  -1  -4   66.15   15.02
  10  -1  -4   56.64   11.84
  10  -1  -4   62.30    7.20
   1 -12   3   22.09    4.68
  -1  12  -3   25.51    3.62
   6  -9  -7   15.40    4.29
   6  -9  -7    8.59    4.96
   5  12   0    6.61    2.14
  -5 -12   0    5.09    2.82
   2 -11   5   74.24    9.53
  -2  11  -5   69.09    7.56
  10   2  -4    1.15    1.75
  10   2  -4   -0.56    5.48
  10   2  -4    3.85    4.25
  10   2  -4    0.68    1.28
  -5  -7 -14   16.17    4.67
  -5  -7 -14   13.68    2.74
   7  -9  -2   12.45    3.91
   7  -9  -2   23.07    4.98
  -7   9   2   12.51    6.53
   4   7 -10    1.90    2.07
   4   7 -10    7.92    3.08
  -4  -7  10   -0.98    3.64
  -4  -7  10    2.31    2.08
  -6   3  12    1.01    2.86
   6  -3 -12   -2.54    6.88
  -6   3  12    2.04    1.90
   2   8 -10   23.93    3.82
   2   8 -10   20.79    4.75
  -2  -8  10   24.46    4.21
  -2  -8  10   13.21    3.95
   7   1  13    2.68    4.73
  -7  -1 -13   21.90    4.63
   7   1  13   14.90    5.85
  -6  10   0    6.36    3.39
   6 -10   0    8.90    2.80
  -6  10   0    5.58    4.19
   7  -6  -9    4.72    3.94
  -6  -5 -14   26.28    5.73
   2  -8  10   49.49    6.91
  -2   8 -10   19.89    6.46
   1  -6 -15    4.10    4.13
  -1   6  15   -4.13    5.96
  -4   1  14    2.41    3.76
  -4   1  14    2.56    2.62
   3  -3  14   21.50    4.41
  -5 -11 -10   23.03    3.86
  -5 -11 -10   23.93    4.77
  -4  -8 -14   56.73    7.09
   9   5  -5    6.84    3.62
   9   5  -5    4.06    1.90
   9   5  -5    3.50    1.63
 -10   0  -7   39.55   19.19
  10   0   7   40.97    7.95
  10   0   7   25.77    6.28
   9  -6   0   42.49    8.01
  -1   9  -9   15.94    4.93
  -1   9  -9   15.23    2.64
   1  -9   9   15.86    3.63
   1  -9   9   16.82    2.78
   1 -13  -3    6.38    3.30
  -1  13   3    8.95    2.64
   7  11   2   12.73    2.63
  -7 -11  -2    6.50    3.64
   7  11   2    9.44    2.40
  -4   3  14    3.24    4.34
   4  -3 -14    0.85    3.43
  -4   3  14    4.51    2.71
  -4   3  14    1.93    3.11
   1   5 -13    0.74    1.66
   1   5 -13   -4.68    6.79
  -1  -5  13    1.68    2.20
   9  -6  -1   34.76    7.44
   0 -13  -6   14.08    5.19
   0  13   6   20.41   10.30
   9  -2  -7   -2.32    8.92
   9  -2  -7    3.48    4.67
  -7 -10   2    2.77    3.12
  -7 -10   2    1.91    2.07
   8  10   5   -0.51    1.68
   8  10   5    0.16    1.34
  -8 -10  -5    1.79    2.92
   2 -11 -10    1.24    2.45
  -7   9   0   -4.20    6.93
   7  -9   0    2.88    2.14
   7  -9   0    4.86    3.08
   8   4  12    8.24    5.54
   8   4  12   17.37    4.86
  -8  -4 -12   15.46    3.82
   8   2  12   13.29    6.30
  -8  -2 -12   28.89    5.06
  -8  -2 -12   23.41   17.16
   1  -8 -14   30.93    7.26
   2   0 -15   33.97   11.19
  -2   0  15   57.07    7.50
  -4  -8   9   26.62    4.43
   4   8  -9   30.32    4.69
  -4  -8   9   14.13    5.37
   1  13   0    1.34    1.71
   4 -11  -7    2.30    3.30
  -4  11   7    5.71    2.38
   9   6  -4    1.34    1.70
   9   6  -4    1.95    1.49
   9   6  -4    2.32    2.51
  -5   3 -13   26.38    5.65
   5  -3  13   46.37    6.13
   8  10   2   44.52    6.01
  -8 -10  -2   29.68    6.51
   8  10   2   53.82    6.06
   5 -11  -2   14.16    2.59
   5 -11  -2    5.73    2.97
  -5  11   2   12.15    2.55
  -5  11   2    7.64    3.57
   5 -11  -2   10.01    3.40
  -1  13   4   22.30    4.38
   1 -13  -4   14.65    4.64
   7  -7  -8   11.27    4.41
   8  -1  11    0.39    3.58
  -8   1 -11    2.80    2.58
  -8   1 -11    3.66   10.29
  -8   1 -11    2.69    1.77
   8  -1  11    5.16    2.47
  -6  -1 -14    1.82    2.59
   6   1  14   -3.67    5.15
  -6  -1 -14    1.18    9.43
   3  -1  15    0.29    2.78
  -3   1 -15   -0.85    3.28
  -3   1 -15    0.88    7.66
  -4  -6 -15   17.71    3.32
  -4  -6 -15   18.02    5.41
  -6 -10   4   54.63   10.20
  -6 -10   4   61.62    8.08
  -1  -3 -16    2.54    3.58
   1   3  16    3.13    4.18
   1   3  16   13.23    5.16
  10   6   0   39.19    5.30
  10   6   0   59.91    7.17
  10   6   0   39.13    5.03
  10   6   0   51.52   17.11
  10   6   0   49.48   14.11
  -1  13   2    4.01    2.00
   1 -13  -2    4.13    2.64
  -3 -13  -6    2.91    3.48
   6  -7 -10    0.61    3.05
   6  -7 -10    3.01    3.80
  -7   6  -8   -0.37    1.98
   7  -6   8    0.08    1.33
   2  -5  13   97.50   11.33
   2  -5  13  102.41   11.79
  -9   6  -1   15.60   10.86
   9  -6   1   24.06    6.00
  -3 -10   7   31.59    5.28
   9   5  10    9.85    4.19
   9   5  10   12.34    5.09
  -9  -5 -10   10.17    2.98
   9   5  10   10.35    1.75
   2   6 -12   15.68    3.03
  -2  -6  12   17.93    3.84
   2   6 -12    7.20    4.32
  10   5   7   21.91    3.32
  10   5   7   14.76    4.29
  10   5   7   18.00    2.91
   6   5 -10   36.26    5.66
   6   5 -10   45.45    5.69
  -6  -5  10   29.61    4.37
   5 -11  -3   20.26    4.48
  -5  11   3   26.63    4.01
   5 -11  -3   13.78    4.49
  -7  -3  10   43.09    5.35
   7   3 -10   75.88   10.10
  -4 -11 -11   60.21    6.36
  -4 -11 -11   71.70    8.57
   4  11  11   47.38   14.28
  -4   0 -15    0.25    2.97
  -4   0 -15   -1.93    9.43
   4   0  15    1.54    3.08
  -3   6  14   41.38    7.22
   3  -6 -14   35.16    8.54
   7  -9  -3    2.18    2.65
   7  -9  -3    3.69    2.83
   7  -9  -3    9.98    2.86
   8  -3  -9   15.99    7.35
   8  -3  -9   15.83    9.10
   9   8   7   35.87    9.07
   9   8   7   28.43    4.50
   9   8   7   48.34    6.17
   8  -7  -5    0.53    3.33
   5 -11  -1   27.21    5.20
  -5  11   1   45.55    7.27
  -5  11   1   42.28    5.03
  10   4  -3   29.64    3.64
  10   4  -3   27.00    4.13
  10   4  -3   20.21   10.62
   9   2  -7   46.36    8.79
   4   6 -11   19.12    4.65
  -4  -6  11   30.63    4.82
   4   6 -11   29.49    4.41
  -4 -12  -9    1.09    3.03
  -4 -12  -9   10.35    3.42
  -4 -12  -9    9.08    2.69
   2   3  16   14.49    5.92
  -2  -3 -16    3.59    3.78
  -2  -3 -16    3.95    8.54
   2   3  16    3.48    3.59
   2   3  16    2.71    4.90
  -4   4 -13    3.97    3.20
   4  -4  13    5.29    2.82
   6 -10  -4    2.92    3.04
   6 -10  -4    7.45    3.23
   6 -10  -4   12.92    3.17
  -1  -2 -16    1.59    3.63
   1   2  16   -0.70    3.51
  -1  -2 -16    2.61    8.82
   7  -1 -11    5.74    5.18
  -5  -3 -15   31.00   16.07
  -5  -3 -15   18.47    5.14
  -5   4  13    1.35    2.06
  -5   4  13    1.67    2.82
   5  -4 -13   -1.18    6.47
  -5   4  13   -0.99    4.48
  -3  -4  13    0.20    2.09
  -7 -10  -9    3.99    4.57
  -7 -10  -9    3.99    3.79
   5   5 -11   68.28    8.83
  -5  -5  11  111.53   12.26
  -4 -12   2    3.34    3.25
  -4 -12   2    3.74    2.55
   4  12  -2    3.25    1.81
   2  12  10   15.37    9.40
  -2 -12 -10   38.53    6.36
  -2 -12 -10   32.86    4.36
  -1 -11   6   -0.39    1.76
   1  11  -6   -0.30    1.23
   1  11  -6    0.83    1.49
   0  11  -6   23.22    3.68
   3  13   1    8.38    2.62
  -3 -13  -1    7.21    3.17
   3  13   1    7.03    2.54
  -3  -7 -15    8.74    2.76
   2  13   0   34.28    5.06
   2  13   0   27.62    4.77
  -2 -13   0   24.46    5.07
   2  10  13    7.93    9.59
   2  10  13   11.16   10.14
  -2 -10 -13   21.83    5.47
  -5   8  -8   -4.51    7.66
   5  -8   8   -0.19    1.84
   7   6  -8    0.54    1.77
  -7  -6   8   -0.23    1.62
   7   6  -8    3.18    2.30
   7   7  -7   10.20    2.68
   7   7  -7    6.31    2.30
  -7  -7   7    4.84    2.09
   1  13   7    2.35    2.89
  -1 -13  -7    0.61    3.05
  -7 -11  -6    4.41    3.98
   7  11   6    9.56    2.60
   2  13   7    6.89    3.48
   9  -6  -2   18.45    5.64
   9   4  -6    4.78    1.91
   9   4  -6    5.86    2.22
   9   4  -6    8.45    4.12
   0  -7 -15    5.39    3.98
   1  12  10    7.50    8.05
  -1 -12 -10   22.19    4.45
  -1 -12 -10    1.89    3.95
   3  12  -3   23.93    4.12
  -3 -12   3   19.47    7.20
   3  12  -3   25.04    4.04
  -3 -12   3   24.39    4.72
  -2   5  15   12.70    4.77
   2  -5 -15    8.61    5.20
  -3  -2  14   34.12    5.47
   5   9  -7    4.68    2.14
  -5  -9   7    8.05    3.00
   1   4  16   68.33   10.64
   1   4  16   51.69    9.95
  10   5  -2   38.16    4.57
  10   5  -2   37.41   12.81
  10   5  -2   37.75    5.06
   1 -12  -9    2.37    3.08
   1 -12  -9   12.67    3.23
  -1  12   9    3.41    8.14
   0 -13   0   16.79    4.16
   8   4  -8   38.34    6.23
   8   4  -8   15.45    3.65
   8  -6   6   11.53    2.43
  -8   6  -6    9.28    4.05
  10   3   8    0.72    2.55
  10   3   8    1.87    1.59
  10   3   8    6.97    4.27
   3 -11  -9   26.28    4.44
   3 -11  -9    6.69    5.38
  -4   8  -9   -5.76    6.69
   4  -8   9   -0.20    1.86
  10   2   8   20.01    6.05
  10   2   8   15.96    3.31
  -5  -4 -15    0.65    2.70
  10   6   6   13.48    5.96
  10   6   6    8.33    1.94
  10   6   6   12.27    2.48
   3 -12  -6    2.19    3.49
  -1 -10 -13   40.80    7.58
   1  10  13   16.72   10.73
   6  -8  -9   17.98    5.31
   8   2  -9   18.29    5.30
  -8  -8 -10   11.71    3.32
  -8  -8 -10    9.30    2.17
   8   8  10    8.18    3.68
  -8  -9   2   11.73    3.44
  -8  -9   2   16.02    4.73
   9  -4  -6   28.36    7.51
   9  -4  -6   16.29   13.15
  -5  10  -4   11.56    5.18
  -5  10  -4   11.43    3.65
   5 -10   4   14.96    4.16
  -7   2  11    0.29    1.70
   7  -2 -11   -1.70    6.15
   6   1 -12   16.02    4.37
  -2  -2 -16   27.35   13.49
  -2  -2 -16   16.19    5.84
   2   2  16   32.67    6.58
   1  -2  15   16.33    3.96
   1 -11 -11    7.35    3.43
  -2  -4 -16    3.48    3.56
   2   4  16    4.98    5.90
  -1  13   5    9.21    2.87
  -1  13   5    5.01    6.89
   1 -13  -5    4.52    3.11
  -4   0  14    6.56    2.94
  -4   0  14    2.77    4.41
   7   0 -11   18.65    5.74
  -6  10  -1    5.09    3.23
   6 -10   1    3.79    2.14
  -6  10  -1    3.06    4.26
  -4  -3  13   41.31    5.92
 -10   3  -4   19.15   14.09
  10  -3   4   21.12    6.11
  -6 -12  -4   -0.26    3.38
   6  12   4   -0.09    1.52
   7  -9   1    3.95    2.10
  -7   9  -1    1.12    6.86
  -7   9  -1    3.26    3.20
  -5  -2 -15    5.94    3.64
   5   2  15   -2.76    5.88
  -5  -2 -15    7.06   10.98
   7  -5 -10    7.03    5.52
   2 -12  -8    9.09    5.17
   2 -12  -8   38.44    4.86
   3 -12   1   28.63    5.58
   3 -12   1   39.40    4.61
  -3  12  -1   42.65    6.52
  -3  12  -1   28.75   10.72
   3  -9 -12   56.68    9.62
   2   9  -9    5.31    2.11
  -2  -9   9    5.53    2.56
  -2  -9   9    3.97    2.27
   0   3  16   59.30    7.97
   0   3  16   28.74    7.83
  -5  -1  13    0.67    2.40
   5   1 -13   -0.09    2.20
  -5  -1  13   -0.74    3.44
   1 -13  -1    0.28    1.45
   1 -13  -1    0.69    1.87
  -1  13   1    1.46    1.63
   8  10   6    0.50    1.43
  -8 -10  -6   -1.34    3.13
   8  10   6   -0.60    2.01
   7  11   1    3.02    1.75
  -7 -11  -1    3.24    2.75
   7  11   1    3.33    1.73
  -2  -9 -14    7.16    4.08
   4 -11   3    9.47    3.25
  -4  11  -3    7.88    3.00
  -4  11  -3   12.65    4.49
  -6 -11  -9    1.55    3.28
  -6 -11  -9    3.33    2.42
  -6 -11  -9    4.62    2.51
  -6 -12  -3   -0.49    2.69
   6  12   3    0.55    1.53
  -4   4  14   26.69    6.42
   4  -4 -14   25.55    7.68
  -4   4  14   13.22    6.95
  -4   4  14   33.39    4.81
   5 -11  -4    4.68    3.33
   5 -11  -4    7.52    2.81
  -5  11   4   11.75    2.62
   5 -11  -4   13.64    2.98
  -6  -9 -12   44.72    6.03
   6   9  12   37.02   12.12
  -6  -9 -12   56.87    8.13
   0  -2  15   45.88    6.66
  -8  -7 -11    0.14    1.92
   8   7  11    1.01    2.99
   8  -5  -8   12.92    5.85
   8  10   1   64.36    6.89
  -8 -10  -1   47.50    6.67
   8  10   1   53.32    6.95
  -8 -10  -1   30.48    6.74
  -8   7  -4    7.02    3.79
   8  -7   4   13.38    3.06
   8   8  -4   54.27    6.13
   8   8  -4   31.75    5.18
  -8  -8   4   31.86    5.02
   9   8  -1   -1.83    8.92
   9   8  -1    0.30    1.42
  -9  -8   1    1.10    2.55
   9   8  -1    2.32    2.30
  -8  -5 -12   18.45    4.24
   8   5  12   13.66    6.30
   8   5  12   24.73    5.45
  -5 -12  -8    0.34    2.81
  -5 -12  -8   -0.76    2.71
  -1  -9 -14   58.43    9.85
  -8  -1 -12   26.40   17.21
   8   1  12   14.15    6.77
  -8  -1 -12   41.40    6.06
   8   1  12   37.77    7.51
  10  -2  -4    1.47    3.58
  10  -2  -4    0.59    8.59
  -4 -13  -4    5.32    3.45
   9  -6   2    4.62    3.64
  10   3  -4   40.31    7.23
  10   3  -4   24.55    3.99
  -5  11   0   21.02    5.17
   5 -11   0   10.99    3.18
  -5  11   0   11.98    4.16
  -6   6  11   30.79    4.07
   6  -6 -11   21.02    6.99
   0  -2 -16    4.38    6.80
   0   2  16    1.44    2.98
   0  -2 -16    2.38    8.63
   0   2  16   -0.33    3.20
  -6 -11   2   83.06   11.68
  -6 -11   2   69.81    9.67
   8  -6  -7   40.46    8.36
  -4   8  12   21.28    5.98
   4  -8 -12   80.56   10.45
   4  -8 -12   48.11    9.87
  -4   8  12   46.90    7.48
  10  -3  -3    1.19    9.49
  10  -3  -3    6.45    4.86
   6  12   5   13.91    3.13
  -6 -12  -5    7.03    4.37
  -4 -13  -3    1.61    2.55
   4  13   3    1.40    1.86
  -9   0 -10   30.87   17.97
  -9   0 -10   22.29    3.59
   9   7  -3    5.55    2.11
   9   7  -3    7.86    2.77
   9  -5  -5   26.33   14.17
   9  -5  -5    9.92    5.27
   6  -4 -12   -1.87    6.42
  -6   4  12    0.97    2.85
  -6   4  12    1.09    1.73
  -4   9  11   43.77    7.25
   4  -9 -11   75.64    9.94
   4  -9 -11   58.95   10.01
  -1   4 -14    3.25    1.71
   1  -4  14    0.76    2.75
  -4  -9   8   47.18    6.63
   4   9  -8   39.97    5.57
  -6   2 -13   11.88    3.58
  -6   2 -13   11.67   11.22
   6  -2  13   21.42    3.98
  10   4   8   -1.15    2.84
  10   4   8    1.02    3.45
  10   4   8   -0.44    1.56
   1  12  -4    0.85    1.41
  -1 -12   4    1.01    2.48
   1  12  -4    0.62    1.54
  -6  -9   6   29.87    5.33
   6   9  -6   21.59    3.80
  -7  -6 -13   30.71    5.92
   0  -4  14    2.55    2.82
   1   1  16   30.17    5.20
  -1  -1 -16    8.19    8.49
   1   1  16   10.60    5.79
   3  12  10    6.37    7.27
  -3 -12 -10    0.39    3.49
  -3 -12 -10    5.27    1.88
  -3 -12 -10    7.02    3.12
   3  -6  12   33.69    5.41
  -3   6 -12   -2.12    8.10
  -7   2 -12   14.47    3.39
  -7   2 -12   15.71   12.49
  -7   2 -12   17.20    3.96
   7  -2  12   20.79    3.68
   7  -9  -4   15.37    3.79
   7  -9  -4   10.71    4.00
  10   1   8   34.54    6.00
  10   1   8   64.02    9.83
   3  -7  11   31.78    5.17
  -3   7 -11   -1.18    7.34
  10  -4   0   46.79    9.40
  -9   5  -5   -2.16   10.52
  -3 -10 -13    6.20    3.81
   3  10  13    3.17    8.13
  -4 -13  -5   15.97    5.23
   3  -8 -13   15.70    5.63
  -6  -6 -14   -0.19    2.81
   0   4  16   50.73    8.73
   0  -4 -16   32.46    8.18
   2  -2  15   31.73    5.30
  10  -4   1   62.26   10.85
   2  11  -6   14.71    3.07
  -2 -11   6   16.70    3.96
   2  11  -6   13.18    2.84
  -7  -5   9   -0.14    1.43
   7   5  -9    2.04    2.25
   7   5  -9   -0.46    1.71
  -7  -8   6   21.75    4.44
   7   8  -6   16.31    3.35
  -1  11  -6   11.00    2.51
   1 -11   6   13.78    3.50
  -1  11  -6    9.75    2.41
   0  12  -4   10.35    2.58
   0 -12   4   17.25    4.72
   2  11  12    6.55    8.47
   2  11  12    7.34    8.86
  -2 -11 -12   16.35    4.70
   2  -9   9    7.16    2.59
  -2   9  -9    5.60    4.31
  -2   9  -9   -2.24    3.65
   2  -9   9    5.50    1.57
   7   0  13   18.46    4.73
  -7   0 -13   20.88    4.36
  -7   0 -13   21.65    4.42
   0  13   7    5.19    7.30
   0 -13  -7    0.31    3.16
   5   9  13   18.25   10.64
  -3 -13  -7   -0.32    3.42
   9   7   9    1.58    2.74
  10   7   3   39.70    5.36
  10   7   3   56.32    6.32
  10   7   3   43.99   12.21
  -5  -5 -15    3.25    3.12
   0 -10   8   28.14    4.20
   0  10  -8   29.31    4.10
   8  -8  -1   36.34    6.97
  -6 -12  -2    0.67    2.60
   9  -6  -3   11.38    5.01
   9  -3  -7    8.10    5.12
   9  -3  -7    2.41    6.70
  -8   4  -9    2.05    2.80
   8  -4   9    2.86    1.73
   9   9   3   -0.07    1.18
  -9  -9  -3   -0.26    2.55
   3   3  16    8.36    5.89
  -3  -3 -16   22.54   14.97
  -3  -3 -16   10.90    4.85
   5  12  -1   20.36    3.59
  -5 -12   1   17.37    4.30
   0  12  10   25.38   13.72
   0 -12 -10   97.47    9.38
   0 -12 -10   20.01    8.72
   9   9   4    4.60    1.82
  -9  -9  -4    0.29    2.73
   1  11  12    1.52    7.43
  -1 -11 -12    0.44    3.70
  -1 -11 -12    0.79    3.00
  -6  -8 -13   17.73    4.65
   6   8  13    5.67    7.22
   5  10  12    2.29    5.68
  -5 -10 -12    6.11    3.28
  -6 -10 -11    0.46    4.11
  -7   3  11    3.74    1.82
   7  -3 -11    4.96    6.99
   1   5  16   35.29    8.57
   1   5  16    9.74    6.63
  10   6  -1   23.29    3.44
  10   6  -1   35.76    5.46
  10   6  -1   21.47    3.65
  10   6  -1   41.09   15.29
  -2  -1 -16   26.59   12.68
  -2  -1 -16   15.40    5.74
   2   1  16   45.86    7.17
   8   9   9   25.29    5.44
  -8  -9  -9   20.45    3.32
  -8  -9  -9   21.34    4.27
  -8  -9  -9    9.11    5.69
   6 -10  -5    1.86    2.40
   6 -10  -5    1.27    2.30
   6 -10  -5   -0.74    2.55
   3 -10 -11    2.09    4.62
   3 -10 -11   18.74    4.96
   8  -8   0   22.36    5.42
  10   7   4   38.63    5.09
  10   7   4   46.26    5.68
  10   7   4   49.18   12.19
  -1 -10   8    8.93    2.95
  -1 -10   8    6.28    2.41
  10  -4  -1   55.40   10.70
  10   0  -5   -1.42    6.52
  10   0  -5    0.50    4.50
  -4 -13  -2    7.04    3.43
   7  -8  -7    0.23    2.59
 -10   2  -6   -1.27   10.40
  10  -2   6   10.96    4.85
  10  -2   6    0.34    4.41
   0 -10 -13    1.34    3.30
   2   5  16   24.89    8.89
  -3   2  15    3.36    2.80
  -3   2  15    1.75    3.43
  -5  10   8   54.30    7.15
   5 -10  -8   10.01    5.53
  -3  -9 -14    1.99    3.27
 -10   1  -7   16.44   14.98
  10  -1   7   10.25    4.84
  10  -1   7   21.78    5.97
  11   2   2   14.61    4.95
  11   2   2   16.20    3.59
  11   2   2   19.26    3.95
  11   2   2   18.57    7.45
  11   2   2   15.13    2.40
  10   7   2  101.92   26.44
  10   7   2  120.89   23.51
  10   7   2  149.21   15.28
   8  -8  -2   56.65    9.20
  -9   3  -8   -1.19   10.05
  -9   3  -8    1.04    3.28
   7   1 -11   31.36    6.31
  -8   3 -10    0.20    2.25
  -8   3 -10    2.31    8.90
   8  -3  10    1.14    1.52
  -6   0 -14   20.10    4.88
   6   0  14   29.09    5.65
  -6   0 -14   30.18   14.36
   2   5 -13   66.63    6.76
   2   5 -13   15.50    7.97
  -2  -5  13   65.60    8.42
   1  13  -1    2.24    2.02
  -7 -11  -7    8.27    4.80
  -1  13   6   42.23   14.60
   1 -13  -6   20.86    5.96
  10   1  -5   14.11    6.47
  -3  -4 -16    6.89    3.82
  -3  -4 -16    4.10    2.15
   2  -9 -13    9.93    4.57
  11   1   2    1.45    1.99
  11   1   2    0.95    3.73
  11   1   2   -3.01    4.52
   0  -1 -16    2.26    6.87
   0  -1 -16    4.31    6.55
   0   1  16    2.64    3.82
   4   5 -12    1.08    3.53
  -4  -5  12   13.45    3.22
  -3 -13   0   18.96    4.58
   3  13   0   24.13    4.42
   3  13   0   26.87    4.37
  -2  12  -3   15.24    2.68
   2 -12   3   15.69    3.87
  -2  -1  15   13.24    3.73
   2   1 -15    5.80    6.64
 -10   4  -2   40.36   15.85
  10  -4   2   33.34    7.55
  -3   3  15   -0.27    2.58
  -3   3  15   -0.28    2.97
  -6 -12  -6    7.68    4.18
  -5  -1 -15    7.75   11.43
  -5  -1 -15    1.77    2.74
   5   1  15   -2.55    4.32
  11   1   1    0.08    1.00
  11   1   1   -1.31    5.40
  11   1   1    1.01    4.41
   6  -8   7    1.23    1.66
  -6   8  -7   -3.73    8.07
  -6   8  -7    1.77    2.27
  -7  -9 -11   47.75    7.08
  -7  -9 -11   40.40    5.51
   7  -8   5   11.90    2.97
  -7   8  -5   11.69    4.22
   3   2  16   30.44    6.70
  -3  -2 -16   18.41   13.03
  -3  -2 -16   23.25    6.40
  -2 -12   4   12.64    3.76
  -2 -12   4    4.48    5.12
   2  12  -4   11.60    2.76
   2  12  -4    9.81    2.71
  11   2   1   16.15    4.06
  11   2   1   19.11    3.71
  11   2   1   15.92    2.58
  11   2   1   17.99    7.37
  11   2   1   19.29    5.80
   9   9   2   10.30    2.30
  11   2   3    2.13    7.67
  11   2   3    9.43    2.67
  11   2   3   11.19    4.14
  11   2   3   10.96    6.64
  -9  -6 -10   27.73    4.88
   9   6  10   28.47    6.20
   9   6  10   32.82    7.66
  -6   9  -5   10.28    3.71
  -6   9  -5   -0.77    6.90
   6  -9   5    9.68    2.70
   5 -11  -5   -0.51    3.19
   5 -11  -5    3.02    2.25
   5 -11  -5    1.34    1.94
  -5  11   5    0.91    1.58
   7   8  12   15.50    8.34
  -7  -8 -12   23.64    4.98
  -7  -8 -12   21.52    3.48
   1 -13   0    2.72    1.63
  -1  13   0    3.79    2.10
   1 -13   0    1.58    2.18
   0  -9 -14   17.77    5.56
   2  -4  14   17.10    4.07
   2 -10 -12   31.60    6.65
   9   9   5    8.35    2.22
  -3  -7  11   -0.43    2.90
  -3  -7  11    1.78    2.32
   3   7 -11    1.31    2.67
   3   7 -11    2.13    2.10
   9   3  -7   -1.85    4.81
   9   3  -7   -1.26    2.64
  -7   9  -2   -6.08    8.03
   7  -9   2    1.00    1.63
  -9   2  -9    9.97   12.62
   9  -2   9    1.63    1.46
   9  -2   9   -0.67    3.35
  -9   2  -9   -0.50    3.59
   7  -7   7    0.62    1.44
  -7   7  -7    0.20    2.04
  -5   8  11    8.06    3.29
   5  -8 -11   15.91    5.47
   5  -8 -11    6.54    4.33
  -4 -13  -6    2.43    3.36
  -3  -8  10   38.25    5.18
   3   8 -10   40.05    6.45
  -3  -8  10   15.20    5.19
   3   8 -10   36.95    5.37
  -4  10  -6    1.65    3.95
   4 -10   6   -0.23    2.24
   3  -5  13   75.93    9.27
   3  -5  13   81.06    9.77
  -4 -11   5   17.28    4.66
  -5  11  -1    8.95    4.20
   5 -11   1    3.92    2.40
  -5  11  -1    5.73    2.96
  11   1   3   -3.33    5.91
  11   1   3   -1.16    3.91
  11   1   3    0.83    4.49
  -3   1  15    4.86    2.83
   8  -5   8    3.99    1.77
  -8   5  -8    2.37    2.61
  -3   8 -10   12.57    6.74
   3  -8  10   29.84    4.97
   8  -4  -9    1.67    4.46
   8  10   7    6.32    2.27
   8  10   7   10.12    3.17
  -6  10  -2    8.49    5.33
  -6  10  -2   12.86    4.13
   6 -10   2   13.28    3.20
  -6  -4  11   17.09    3.15
   6   4 -11   27.01    4.37
  10  -1  -5   17.45    8.97
  10  -1  -5   12.62    6.47
  -3 -11 -12    0.90    4.27
   3  11  12    8.42    8.35
  -3 -11 -12   19.59    4.70
  -1  10  -8   25.98    3.87
   1 -10   8   24.49    3.60
   1 -10   8   27.39    4.82
  -1  10  -8   31.79    6.38
   0 -13   1   -0.30    2.18
  -1  -4  14   26.47    5.23
  -1  -4  14   37.34    5.62
   1   4 -14    5.32    6.25
  -5   5  13    1.35    2.77
  -5   5  13    1.41    1.92
   5  -5 -13   -1.27    5.81
   2  13  -1   35.91    5.34
  -2 -13   1   27.16    5.28
   2  13  -1   35.11    5.31
   9  -6   3    2.98    3.29
  10   6   7    8.82    5.00
  10   6   7    7.06    1.86
  10   6   7    8.71    2.02
  -3  10  -7    0.43    3.51
   3 -10   7    1.56    1.93
  11   3   2   22.52    4.98
  11   3   2   18.38    3.75
  11   3   2   18.09    3.89
  11   3   2   21.44    8.16
  11   3   2   15.19    2.52
  -7 -11   0    0.93    2.28
   7  11   0    1.50    1.63
   7  11   0    2.92    1.63
   8  -8   1    7.04    3.79
  -2 -13  -8   39.88    6.14
  10   7   5   33.87    9.68
  10   7   5   24.16    3.68
  10   7   5   31.81    4.21
  -4  -1  14    4.94    2.79
  -5 -11   4   23.50    4.72
   4  -7 -13   17.23    5.62
   4  -7 -13   11.68    5.60
  -4   7  13   12.07    5.02
  -4   7  13   13.60    4.17
  -4  -7 -15    5.36    2.25
  -4  -7 -15    8.89    3.89
  -9   4  -7    1.16    9.19
  -9   4  -7   -0.81    3.40
   8  10   0   38.40    4.79
  -8 -10   0   21.93    5.25
  -8 -10   0   27.50    5.20
   1  13   8   15.30    8.73
  -1 -13  -8   22.12    3.99
  -1 -13  -8    4.67    4.01
   3 -12  -7   11.78    5.00
  -4  12   2   42.04    7.18
   4 -12  -2   35.51    6.51
  -4  12   2   23.97   12.12
  11   3   3    9.31    2.57
  11   3   3    7.20    5.78
  11   3   3    5.71    2.80
  11   3   3    8.44    3.47
  -4  12   3   10.83    3.85
   4 -12  -3   12.37    4.46
   4 -12  -3   19.12    3.88
   6  -9  -8   11.13    3.85
   1  -7 -15   41.15    8.75
  -4  11   8   39.99    6.04
   4 -11  -8   11.71    5.60
  10   7   1  101.51   11.16
  10   7   1   65.94   17.56
  10   5   8   29.89    8.16
  10   5   8   17.94    2.93
   8  -8  -3   47.47    8.49
  11   1   0   27.80    8.82
  11   1   0   24.74    3.43
  11   1   0   29.13    8.12
  -2  13   3    0.75    1.85
  -2  13   3    0.82    6.92
   2 -13  -3    0.21    2.32
  -9  -3 -11    9.83    2.85
   9   3  11   16.27    5.05
   0   5  16    9.17    5.93
   0  -5 -16   15.05    5.80
   8  -7  -6    0.80    3.30
  10  -4  -2   38.82    9.02
  -6 -12  -1    9.75    3.85
  -4   3 -14   37.35    7.72
   4  -3  14   85.36   10.02
   6  -5  11    0.84    1.95
  -1   3  16   21.10    6.39
  -1   3  16   51.47    6.75
  -6  -2  12    4.40    1.91
 -10   3  -5    1.17    9.66
  10  -3   5    1.67    3.23
  11   0   1   -0.41    5.12
  11   0   1    1.27    4.36
   1 -12   4   29.20    5.77
  -1  12  -4   24.79    3.62
   4 -10 -10   -0.77    3.58
   4 -10 -10    0.49    2.80
  -4  10  10   -1.22    3.12
  11   0   2   -0.80    4.23
  11   0   2   -1.16    4.68
  -5  -4  12   42.02    5.80
   5   4 -12   56.45    6.63
  10   2  -5   42.85   14.39
  10   2  -5   80.22   11.94
  -4   1 -15   19.05   11.96
  -4   1 -15   19.12    5.65
   4  -1  15   43.24    6.60
  -2  -8 -15    0.25    3.72
  -4   5  14   18.37    3.67
   4  -5 -14   11.51    6.37
  -4   5  14    8.38    5.80
   2  -6 -15   23.44    7.21
  -2   6  15   13.41    5.43
  -5   2 -14   28.18   13.65
   5  -2  14   73.15    8.96
  -5   2 -14   35.70    6.86
  11   2   0  114.43   14.75
  11   2   0   87.89    9.87
  11   2   0  101.74   17.12
  11   2   0  100.38   11.02
   8   6  12   45.15    9.70
  -8  -6 -12   53.24    7.72
   8   0  12   24.26    4.87
   8   0  12    7.07    5.12
  -8   0 -12   23.53   14.33
  -8   0 -12   18.19    3.92
  11   3   1   21.47    4.12
  11   3   1   29.43    5.93
  11   3   1   23.39    4.82
  11   3   1   23.14    3.27
  11   3   1   22.61    8.54
  -1   2  16   56.11    6.93
  -1   2  16   24.17    7.44
  -3  11  -5   18.81    5.31
   3 -11   5   10.46    3.22
  10   0   8   38.91    7.80
 -10   0  -8   52.59   22.46
  10   0   8   20.34    5.25
  -7 -10   3   40.10    6.23
  -5  -8 -14   51.08    8.04
  -5  -8 -14   41.32    5.64
   5   8  14    7.00    7.97
   8   3  -9    7.17    4.22
  11   2   4   19.92    5.10
  11   2   4    9.62    8.97
  11   2   4   29.94    8.62
   0 -11 -12    0.43    3.79
   0 -11 -12    5.53    3.36
   0  11  12    3.52    6.58
  -3  12  -2   31.87    5.54
   3 -12   2   25.73    4.85
  -1  -8 -15    1.59    3.02
  -2  13   2   17.86    9.64
  -2  13   2   16.93    3.96
   2 -13  -2   19.57    3.36
   2 -13  -2   16.00    4.39
   4  13   1    1.10    1.63
  -4 -13  -1    0.79    2.24
  -3   4  15    7.67    3.28
  -3   4  15    0.25    2.80
  -3  -5 -16   -0.29    1.95
  -3  -5 -16   -0.79    2.77
   7  -9  -5    1.52    3.02
  -2  13   4   -0.32    2.00
   2 -13  -4   -0.23    2.75
  -2  13   4   -0.88    6.55
   5  -9 -10    7.09    3.57
   5  -9 -10    6.88    3.68
   6  -6  10    8.68    2.53
  -6   6 -10    6.56    2.82
   5  -7 -12    8.95    5.05
  -5   7  12   11.66    3.02
  -5 -10   6    0.28    2.29
   5  10  -6   -0.18    1.67
  -9  -2 -11   61.51   23.69
   9   2  11   60.38   10.12
  -9  -2 -11   47.07    6.47
   5  -6  11    2.41    2.07
   9   0  -8   22.37    7.71
   9   0  -8   12.73    7.80
   1   0  16   12.21    3.95
  -1   0 -16    6.29    8.44
  -2 -10   8   10.21    3.25
   4  -9   8   19.77    3.88
  -4   9  -8   10.98    6.24
   4 -12  -1   24.00    5.53
   4 -12  -1   41.16    4.81
  -4  12   1   28.20    5.71
  -9  -9  -1    3.32    2.43
  10   5  -3   14.26    2.87
  10   5  -3    7.85    7.63
  10   5  -3   15.11    2.51
   9   4  11    4.33    3.53
  -9  -4 -11    4.69    2.43
   3   6 -12   36.10    4.84
  -3  -6  12   42.74    6.21
   3   6 -12   17.69    5.48
   2  -8 -14    9.87    4.81
  -8   2 -11    1.49    2.29
  -8   2 -11   -3.57   11.10
   4 -12  -4   10.29    2.68
   4 -12  -4    3.20    3.23
   9  -1  -8    9.31    6.99
   9  -1  -8   19.92    8.99
  -5  -2  13    2.69    1.96
   5   2 -13    3.67    2.00
  10  -3  -4    6.27   10.30
  10  -3  -4    5.80    4.91
   9  -6  -4    0.60    3.33
  -3   2 -15    7.01    4.28
   3  -2  15   26.18    4.86
  -3   2 -15    4.43    8.82
  11   1   4    0.26    3.40
  11   1   4    2.75    5.00
  11   1   4    2.70    5.56
   3   1  16    7.41    3.97
  -3  -1 -16    3.85    8.78
  -3  -1 -16    5.47    3.99
  10   4  -4   44.96   14.91
  10   4  -4   56.73    7.10
  10   4  -4   78.78   10.31
  -9  -9  -6    5.47    4.16
   9   9   6   10.69    2.47
  11   0   0    1.32    1.15
  11   0   0    0.85    4.57
  11   0   0   -1.73    5.63
  11   3   4    5.79    5.74
  11   3   4    3.01    2.24
  11   3   4   -3.31   10.46
  11   3   4    4.96    2.71
  -5  -6 -15    8.40    4.07
  11   0   3   24.66    7.73
  11   0   3   43.67    9.72
   5  -5  12   -0.49    2.18
   5  -5  12    0.41    2.07
  -5 -11 -11    8.52    3.61
  -4 -12 -10   28.40    4.33
  -4 -12 -10   30.99    5.40
   3   9  -9   40.69    5.60
  -3  -9   9   41.51    5.61
  -3  -9   9   21.09    5.50
  -4 -10 -13    0.79    2.61
   4  10  13   -0.96    7.11
   9   8  -2   24.38    3.89
   1  -4 -16   17.33    6.07
  -1   4  16   22.51    5.42
   8   6  -7   92.58   11.02
  -4 -12   3   11.56    3.38
   4  12  -3   11.74    2.76
  -4 -12   3    5.47    4.27
  -6 -12  -7    8.69    4.72
   7   4 -10    0.55    2.50
   7   9  -5   15.51    3.24
  -7  -9   5   12.79    3.24
   8  -1 -10    4.86    5.70
  -5 -12  -9   40.20    5.87
  -5 -12  -9   29.41    5.00
   3  -7 -14    0.32    3.79
  -3   7  14   -3.92    4.63
   6  -4  12    0.85    1.99
   6  -4  12    0.71    1.96
   7  -4 -11    2.09    6.75
  -4 -10   7   29.83    5.22
   4  10  -7   27.09    4.33
  -6   5  12    5.12    2.05
  -6   5  12    6.81    3.81
  -3 -13  -8    6.46    4.05
  -5   9  -7   -0.36    5.74
   5  -9   7    7.50    2.54
  -5   9  -7    8.59    3.12
  -9   1 -10   -1.33   11.82
  -2   0 -16   -0.85    7.57
   2   0  16    1.77    3.24
  -2   0 -16   -0.61    3.97
  -3 -11   6   12.90    3.64
  -8  -9   3   31.29    5.28
   8   9  -3   31.94    4.72
   9   6  -5    2.61    1.75
   9   6  -5    4.67    2.94
  -2  11  -6   39.92    6.82
   2 -11   6   30.37    5.29
  -2  11  -6   21.33    3.66
  -3   0  15   11.88    3.57
   0   0 -16   18.08   10.13
   0   0 -16    9.42    7.58
   8   7  -6   29.54    4.85
  -8   7  -5    0.51    2.82
   9   1  -8   21.29   10.32
   9   1  -8   65.48   10.58
   8   0 -10    1.86    4.77
   2   6  16   17.13    9.87
  -1  -6 -16   30.61    7.25
   1 -13  -7    5.23    3.85
  -1  13   7    7.89    8.58
  -2  13   1   16.56    3.83
   2 -13  -1   23.76    3.52
   2 -13  -1   12.18    4.00
   1  -1 -16    2.75    6.84
  -1   1  16    7.64    3.39
  -4 -13  -7    6.26    4.12
   0  -7  12    4.11    2.61
   0   7 -12    2.97    1.63
   0   7 -12    1.60    4.64
   0 -13  -8    1.00    3.14
   0  13   8    2.83    7.50
   0 -13  -8    8.44    2.69
   6 -10  -6    2.13    2.65
   6 -10  -6    0.55    2.51
  11   3   0   91.13   11.69
  11   3   0   70.83   15.14
  11   3   0   76.08    9.18
  11   3   0   72.07    8.22
   8  -8   2    0.90    2.65
  10  -2  -5   16.27    9.55
  10  -2  -5   23.62    7.79
  10   7   6    1.46    1.34
  10   7   6    0.43    4.16
   5  -7  10    0.69    1.91
   9   5  -6   13.91    3.06
   9   5  -6   20.38    4.86
   2 -13  -5   23.26    6.06
  -2  13   5   25.85   12.85
  -3  -8 -15   14.49    4.96
   7   2 -11   84.50   11.15
   2 -12  -9    8.52    2.90
   2 -12  -9    2.09    3.28
  -7  -7 -13    0.51    2.07
   4 -11   4    5.31    3.30
  -4  11  -4    3.95    2.49
  -4  11  -4    5.31    4.04
  10   3   9    3.90    4.00
  10   3   9    0.88    1.45
  11   1  -1   11.92    6.32
  11   1  -1    7.29    1.84
  11   1  -1   12.26    6.67
  -4  -9 -14   31.12    6.54
   4   9  14    5.34    8.76
  11   4   2   14.40    3.64
  11   4   2   21.47    4.95
  11   4   2   16.57    3.75
  11   4   2   21.43    8.40
  -3  -3  14   -1.48    2.88
   0   8 -11   11.65    2.44
   0   8 -11    4.88    4.09
   0  -8  11   16.01    3.78
  -7 -11  -8    2.66    4.13
  -5  10  -5   -0.27    4.39
   5 -10   5    1.10    2.14
  11   4   3   36.04    6.04
  11   4   3   49.61   11.49
  11   4   3   43.80    6.82
   7  -5  10    1.92    1.76
  -7   5 -10    0.86    2.15
   7  -7  -9    6.50    3.98
  -6  -7 -14    4.29    3.32
   1 -12 -10    2.70    2.55
   1 -12 -10   -0.38    3.29
  -1  12  10    3.64    8.70
  -5  11   6   -1.22    8.03
   5 -11  -6   -0.27    2.68
  -5  11   6    0.32    1.61
  10   6  -2   10.83    9.13
  10   6  -2   12.01    2.40
  10   6  -2    9.49    2.44
  -6 -11 -10   -0.41    3.79
  -6 -11 -10    4.94    2.67
  -6 -11 -10    0.32    2.17
  10   7   0   48.75    6.48
  10   7   0   51.47   15.18
  10   7   0   72.12    7.82
  10   7   0   54.00    6.35
  10   7   0   38.88   15.80
  10   2   9   46.13    6.36
  10   2   9   82.30   11.22
   8  -2 -10    3.51    5.82
   8  -2 -10    6.84    7.47
   9  -5  -6   18.61   13.08
   9  -5  -6    5.52    3.91
   2 -11 -11    1.20    3.75
   2 -11 -11    1.24    2.72
   8  -8  -4   15.50    5.19
   6  10  -5    1.96    1.93
  -6 -10   5    3.09    2.66
  -3 -12   4   85.39   10.63
  -3 -12   4   63.12   13.38
   3  12  -4   79.50    9.26
   5   0  15   15.32    4.43
  -5   0 -15   10.09    3.96
  -5   0 -15    5.25    8.39
   1 -13   1    1.22    2.16
   1 -13   1    2.87    1.65
  -1  13  -1    2.22    1.94
  -1   7 -12   16.95    7.38
  -4  -3 -16   31.32   16.48
   4   3  16   19.39    7.30
  -4  -3 -16   24.81    6.24
   9  -2  -8    2.46    4.89
   9  -2  -8   -1.13    7.61
  -8   6  -7   11.24    4.13
   8  -6   7   16.59    3.02
  -2 -12 -11   11.72    3.81
  -2 -12 -11   10.02    2.17
   2  12  11    5.72    7.11
   9  -4  -7   13.67    6.10
   4 -12   0   24.14    4.97
  -4  12   0    4.90    7.13
  -4  12   0   27.34    5.19
   3  13  -1    6.35    2.33
  -3 -13   1    4.07    2.81
   1 -10 -13    2.06    3.19
  11   2  -1   47.92    9.27
  11   2  -1   40.09    5.64
  11   2  -1   39.41    4.96
  11   2  -1   40.50   11.31
  -9  -1 -11   47.17    6.37
  -9  -1 -11   55.25   22.25
   0  -8 -15   20.66    6.08
  -7   4 -11    0.16    1.85
   7  -4  11   -0.17    1.67
  -7  -3 -14    1.42   12.32
  -7  -3 -14   -0.51    2.32
  -7   1 -13   23.14    4.79
   7  -1  13   37.01    5.55
  -7   1 -13   32.95    5.28
  -6 -11   3   38.54    6.33
  -6 -11   3   42.22    8.40
   5 -11   2    7.16    2.81
  -5  11  -2    9.88    3.49
  -5  11  -2    7.06    4.42
   8   5  -8  111.35   13.08
  -7   9  -3   -3.03    7.95
   7  -9   3   11.08    2.88
  10  -4  -3    4.93    4.56
  -9   5  -6    0.85    3.16
  -9   5  -6    5.61   10.45
  11   2   5    3.69    2.71
  11   2   5    1.45    8.74
  11   2   5    4.00    4.65
   3 -11 -10    1.13    3.68
   3 -11 -10    4.93    2.99
   7  -6 -10   -0.73    3.85
  11  -1   1    2.35    5.68
  11  -1   1    1.60    4.56
   4 -12  -5   -1.02    3.18
  -1 -12 -11   56.80    8.42
  -4  -4 -16    4.98    3.46
  -9  -5 -11    2.84    2.20
   9   5  11    0.52    2.78
   6  -7   9    0.82    1.66
  -6   7  -9    0.99    2.14
  11   0  -1    8.73    1.89
  11   0  -1   11.22    6.11
  11   0  -1    4.56    5.64
  -5 -12   2   11.68    3.65
   3  -4  14   17.13    4.03
  -7  -4 -14   20.41    4.81
  -1   8 -11   18.37    6.46
  11   4   1    3.48    2.40
  11   4   1    5.28    5.47
  11   4   1    5.43    1.66
  11   4   1    3.11    3.42
  11   0   4   -0.66    4.31
  11   0   4    2.69    4.12
  11   0   4    2.21    4.38
   2 -10   8   17.62    3.86
   2 -10   8   18.94    2.89
  -6  -7   9   52.90    6.85
   6   7  -9   49.19    6.58
   3  -9   9   -0.11    1.84
  11  -1   2    2.65    5.52
  11  -1   2   14.10    6.37
   1  13  -2   -0.21    1.97
   9  -6   4    1.27    2.94
  10   4   9    2.64    3.05
  10   4   9    4.77    1.55
  10   4   9    7.73    4.59
  -8 -10  -8   -0.66    4.83
  -8 -10  -8   -1.16    3.84
  10   3  -5   24.78   11.57
  10   3  -5   39.46    5.57
  11   4   4   24.24    5.12
  11   4   4   30.50    3.81
  11   4   4   31.87    5.54
  -4 -11 -12   27.53    5.19
  -4 -11 -12   -0.92    4.49
   6  12   0    4.99    1.97
  -6 -12   0    4.89    2.93
  -8  -8 -11    8.24    3.11
  11   3   5    0.43    4.87
  11   3   5    1.14    2.02
  11   3   5    0.33    1.91
  -1  -7  12   10.02    3.15
   1   7 -12    8.17    2.35
   1   7 -12    2.50    3.94
  -5 -13  -4    9.87    4.43
   9   7  -4   53.61    6.39
   9   7  -4   30.35    4.97
   1   8 -11   -0.38    3.21
   1   8 -11   -0.44    1.70
  -1  -8  11    0.23    2.05
   1  -9 -14   16.21    5.49
   1  -3  15    1.84    3.06
  -6  10  -3   -1.17    5.03
  -6  10  -3    0.21    2.15
   6 -10   3    0.90    1.79
  -5  -7  10   10.24    2.92
   5   7 -10   11.33    2.97
   0  -6  13    3.83    2.52
   0   6 -13   -2.04    6.29
   0   6 -13    2.70    1.68
  -6   1 -14   23.98   13.66
  -6   1 -14   20.20    4.84
   6  -1  14   33.17    5.46
   4   2  16   19.09    6.26
  -4  -2 -16   13.29   12.73
  -4  -2 -16   15.36    5.13
   8   1 -10   10.65    4.64
  11  -1   0   -0.84    5.09
  11  -1   0   -0.50    6.40
  -9  -9   0    6.54    3.06
  -5   4 -13    4.03    2.87
   5  -4  13    7.30    2.79
   5  -4  13    6.56    2.72
  -4 -13   0    2.55    2.40
   4  13   0    1.70    1.80
  -7 -11   1    0.85    2.24
  -8 -10   1    8.90    3.64
  -8 -10   1    5.58    2.82
  -3   5  15   18.53    4.35
  -7  -2 -14   -0.33    2.28
  -7  -2 -14   -2.75   11.92
  -4  -4  13   23.99    4.33
  -2  -4  14   46.63    6.76
   5  13   3    2.72    1.93
  -5 -13  -3    1.73    2.95
   5   8  -9    6.73    2.45
  -5  -8   9    3.33    2.24
  11   1   5   29.71    8.07
  11   1   5   22.42    5.84
  11   1   5   19.01    7.66
 -10   2  -7   -1.32   11.96
  10  -2   7   -0.30    3.87
  10  -2   7    0.28    3.33
   7  -6   9    5.44    2.24
  -7   6  -9    5.84    2.90
  -1   6 -13    4.20    6.61
   0  -3  15   18.95    4.55
   8  -6  -8   14.47    5.54
 -10   4  -4    8.73   10.65
  -3  -6 -16    8.06    3.97
  -3  -6 -16    5.00    2.50
   6   8  -8   13.56    3.25
  -6  -8   8   14.22    3.38
   0  -6 -16    3.07    3.68
  -5 -13  -5    0.58    2.95
   1  -5 -16    2.01    3.66
  -1   5  16   -1.17    4.35
   4  -6  12   -0.33    2.08
  -2  -2  15    1.72    2.96
   9   9   7    7.93    2.25
   0 -13   2   10.82    3.44
  10   6   8   21.21    7.05
   8   8  -5   12.10    3.05
   6  -8 -10    7.36    4.26
  10   1   9   46.63    6.69
  10   1   9   74.15   10.94
  -9  -7 -10    5.80    2.58
   9   4  -7    1.42    3.46
   9   4  -7    3.14    1.93
   9   4  -7    0.42    2.04
  -8  -9 -10   25.46    4.94
   2 -13   0   13.11    2.53
   2 -13   0    5.89    3.17
  -6  -3 -15   -2.67   11.85
  -6  -3 -15   -1.00    3.13
   6  -7 -11    5.58    4.50
   6  -7 -11   13.23    5.19
  -3 -12 -11   15.35    2.71
   3  12  11    4.33    7.11
  -3 -12 -11   14.27    4.14
   4  -7  11    0.54    2.02
   6   6 -10   21.85    4.10
  -6  -6  10   23.23    3.94
   9   2  -8   21.47    5.94
  -8  -3 -13    9.61    3.29
  -2 -13   2   43.26    6.92
   2  13  -2   49.81    6.65
   2  13  -2   48.85    6.60
  11  -1   3   24.61    7.40
  11  -1   3   13.67    6.66
   0  -9  10   21.75    4.40
   0   9 -10   17.17    5.10
  -3  -5  13   16.49    3.84
   3   5 -13   -0.52    4.94
  -4  -2  14    0.19    2.73
  -2 -13  -9   38.08    6.11
  -2  13   6    8.40    9.82
   2 -13  -6    2.27    3.16
   0  11  -7    6.08    1.98
   7  -8  -8   19.57    5.49
   3 -12  -8   10.86    4.86
  10  -1   8    1.71    3.31
  10  -1   8   -4.40    3.65
 -10   1  -8   -1.41   12.21
  11   3  -1   12.46    2.56
  11   3  -1   15.56    8.72
  11   3  -1   16.94    5.06
  11   3  -1   14.47    3.17
  -6  -4 -15   20.29    5.27
   7  -9  -6    2.51    3.02
   1  12  -5    2.11    1.77
  -1 -12   5    2.68    3.09
  -1 -11   7    2.27    2.26
   2 -12   4   47.30    7.57
  -3   0 -16    7.35    9.33
   3   0  16    4.71    3.29
  -3   0 -16    2.93    3.60
  -4  -5 -16   39.17    7.82
  -1 -13  -9   23.73    4.41
  -1 -13  -9    5.58    4.43
   1  13   9    9.21    8.02
   1 -11 -12    3.50    5.42
   1 -11 -12   21.01    5.22
   8   4  13   -0.22    2.52
  -8  -4 -13   -0.15    2.09
   6  -3  13    7.62    2.75
   8  -5  -9    2.28    4.01
   5 -10  -9    1.43    4.12
  -7  -5 -14   27.38    5.60
   8  -3 -10   -3.32    8.22
   8  -3 -10   -1.43    5.28
  -1   0  16   12.07    3.79
   1   0 -16    1.97    6.68
  10  -3   6    6.51    4.33
  -5   6  13    2.08    2.10
   9  -7  -1   37.58    7.65
  10   0  -6    6.63    6.25
  10   0  -6    6.82    6.29
   0  12  -5   30.39    4.59
   9  -7   0    1.19    2.88
  -7   3 -12    0.31    1.92
   7  -3  12    0.45    1.90
   7  -3  12    1.63    2.08
  -7   3 -12   -2.24   10.68
   6  -2 -13   15.55    5.83
  -6   2  13    9.93    2.88
  -5   2  14   25.37    4.37
  -6 -12  -8    4.72    4.28
   6  -1 -13   44.48    7.78
  -6   1  13   27.26    4.52
   2  -3  15    3.79    3.28
  11   4   0   49.23    6.23
  11   4   0   71.45    9.44
  11   4   0   58.37   14.16
  -5  -6  11   63.82    7.97
   5   6 -11   59.24    7.61
   5  13   2   -0.10    1.62
  -5 -13  -2    0.23    2.34
   9  -6  -5    4.25    4.19
  -7   8  -6   18.75    4.98
   7  -8   6   21.50    3.88
  -8  -7 -12   21.02    4.56
   8   7  12   11.61    6.62
   2  -7  12   74.66    9.50
  -2   7 -12   12.57    7.58
   8  -1  12   -0.41    3.76
   8  -1  12   11.84    2.99
  -8   1 -12    5.25    2.89
  -8   1 -12    1.24    9.56
  -3 -10   8   17.86    4.00
  11   4   5    9.45    3.28
  11   4   5   11.57    6.62
  11   4   5    9.70    3.28
  -4   6  14   -0.09    2.60
   4  -6 -14   -0.33    4.13
   4  -6 -14   -4.57    4.19
  -1  -6  13    5.12    2.86
   1   6 -13   -4.56    6.15
   1   6 -13    3.02    1.98
   5  -8   9    0.50    1.80
  -5   8  -9   -3.68    8.91
  -1  -9  10    8.00    2.61
   1   9 -10   12.46    4.42
  -1  -9  10   11.78    3.35
  11   1  -2   24.55    8.00
  11   1  -2   16.23    7.43
  11   1  -2   18.53    2.96
  -8   8  -3   -0.27    3.49
  11  -1  -1    1.53    1.19
  11  -1  -1   -0.52    6.65
  -8  -2 -13   24.20    4.86
  10   7   7    1.19    1.27
  10   7   7   -0.34    1.12
  10   7   7    0.39    3.97
   0 -12 -11   31.75    5.49
   0  12  11   16.70    9.91
   0 -12 -11    5.20    5.56
   3 -12   3   20.45    4.40
  -3  12  -3   20.75    4.38
  -6  -2 -15    8.97   13.24
   6   2  15    0.22    5.91
  -6  -2 -15    4.55    3.36
  10  -5   0   23.96    6.81
  10   1  -6   38.34    9.55
  -1   1 -16   18.03   11.25
   1  -1  16   54.35    7.66
  -5   1  14   19.89    3.99
   4 -12   1   36.68    6.06
  -4  12  -1   43.59    7.14
  -5 -13  -6    0.32    3.17
   6   3 -12    1.25    1.96
  -6  -3  12   -0.47    1.57
  -4 -13  -8    0.70    2.84
  -4   5 -13    2.77    2.87
   4  -5  13    5.44    2.72
   4  -5  13    2.13    2.61
  -3  -1  15    9.38    3.56
  -7  -7   8    9.24    2.66
   7   7  -8   10.68    2.96
   1  -9  10   46.24    6.85
  -1   9 -10   25.67    6.68
   9  -3  -8   -1.34    4.38
   6  -9   6    4.98    2.33
  -6   9  -6    5.05    2.80
  -6   9  -6   -4.75    7.92
   8  -7  -7    3.42    3.44
  10   5   9    3.07    1.29
  10   5   9    6.23    4.92
  -2   3  16    9.55    4.56
  -2   3  16   16.47    3.92
  -2   2  16   18.08    4.33
  10  -5   1    8.00    4.35
  -5  -7 -15   15.76    4.81
  10  -1  -6   21.18    9.70
  10  -1  -6   12.77    7.13
   6   9  13    9.65    8.04
  -6  -9 -13   28.65    5.84
   9  -7  -2   13.59    4.85
  10   7  -1   13.78    3.02
  10   7  -1   26.49    4.42
   4 -12  -6    3.99    3.51
  11   0  -2   16.64    2.76
  11   0  -2   19.90    8.33
  11   0  -2   19.83    7.78
  10  -3  -5    4.34    7.12
  10  -3  -5   11.06    5.44
   5   9  -8   -0.19    1.80
  -5  -9   8   -1.02    2.19
   9  -7   1    0.23    2.41
  -5   3  14   31.85    4.87
   8  -8  -5    3.39    3.37
   4   1  16    1.14    3.55
  -4  -1 -16   -1.04    8.54
  -4  -1 -16   -1.29    3.28
  10   8   3   11.90    2.54
  10   8   3   16.65    3.02
  10   8   3   11.16    7.69
  10  -5  -1   33.62    8.10
  11   5   3    6.97    3.17
  11   5   3    5.07    5.99
  -4  11   9    9.58   11.89
  11   2  -2   14.51    7.86
  11   2  -2   11.91    2.40
  11   2  -2   11.86    2.80
  11   2  -2   17.32    6.11
   2  -7 -15   27.87    7.52
  -2   7  15    9.37    5.51
  11   0   5   40.63    9.03
  11   0   5   18.78    6.53
   2  -8  11   31.38    5.38
  -2   8 -11    9.76    6.19
   6  10  12   24.54   10.50
  -9   0 -11   12.81   14.19
   1 -13  -8    1.64    3.28
  -1  13   8   -2.17    8.06
   1 -13  -8    2.02    1.97
  -7  -1 -14   16.47    4.31
   7   1  14   16.64    5.85
   8   4  -9   75.92   10.18
   8  11   4   13.04    2.98
  -8 -11  -4   10.77    4.97
   8  11   4   18.62    3.33
  10   8   4    9.13    2.19
  10   8   4   17.13    2.90
  10   8   4    7.09    5.96
  -2 -10 -14   15.61    5.16
  11   5   2    5.89    3.14
  11   5   2    6.62    6.13
  -9   3  -9    0.25    2.88
  -9   3  -9   -1.22    9.08
  11   2   6    9.57    5.65
  11   2   6    8.01    2.96
  -3 -13  -9    8.21    3.11
   0   1 -16    6.52    8.42
  -6  -5 -15   62.93    9.65
  -6   3  13    5.14    2.45
   6  -3 -13    5.47    5.45
   7   6  -9    2.22    2.18
   7   6  -9    6.11    2.51
  -7  -6   9    3.07    1.82
   7  -5 -11   -2.42    4.40
  -2 -12   5    5.55    3.82
   2  12  -5    4.58    2.05
   2  12  -5    5.57    2.21
   4   8 -10   20.41    3.88
  -4  -8  10   16.23    3.74
   8  11   3   40.92    5.20
  -8 -11  -3   16.17    5.41
   8  11   3   34.47    5.09
   6   0 -13    4.10    3.15
  -6   0  13    2.47    2.40
   1 -11   7   42.76    6.62
   6   9  -7   24.15    4.17
  -6  -9   7   27.09    4.94
   4   7 -11    9.14    3.47
  -4  -7  11   11.26    3.06
  -4  -7  11    2.74    3.71
   4   7 -11    9.44    2.88
  11   3   6    1.65    4.77
  11   3   6    0.86    1.88
  11   3   6   -0.19    2.46
   4  -8  10    4.42    2.38
   2   8 -11   14.74    3.01
  -2  -8  11   14.66    3.64
   2   8 -11    7.61    3.88
  -9  -6 -11   34.62    5.71
  -1 -10 -14   30.10    6.81
  10  -4  -4    1.06    4.22
  -2   1 -16   -0.85    7.32
   2  -1  16    5.78    3.49
  -4   2 -15   23.90   13.20
  -4   2 -15   32.56    7.19
   4  -2  15   68.31    8.65
   6 -10  -7    5.04    3.26
   6 -10  -7    0.91    3.36
  11  -1   4    3.82    4.57
  11  -1   4   19.37    6.50
  -8  -5 -13   12.50    3.67
   5 -11  -7   -0.60    2.61
   4  -9 -12   44.26    8.42
  10   5  -4   34.96    5.16
  10   5  -4   47.66    7.51
  -5  -3  13    3.82    2.25
   5   3 -13    3.65    1.72
  -2  -7 -16   40.88    8.44
   2   7  16   11.98   10.10
  -7  -8   7   19.72    4.14
   7   8  -7   20.28    3.95
  11   5   4   29.06    4.97
  11   5   4   22.65    3.33
  10   8   2   26.59   10.91
  10   8   2   46.21    5.94
  -9   4  -8    2.38   10.56
  -9   4  -8   -0.54    3.34
   8   2 -10    4.72    3.99
   2   7 -12   13.96    2.95
  -2  -7  12   19.18    4.07
   2   7 -12    3.99    3.84
  -8 -11  -5   -0.31    3.10
   8  11   5    0.36    1.40
  -2 -11   7    6.02    2.89
   2  11  -7    3.87    1.88
   3  -9 -13   31.41    7.15
   9   8  -3   35.14    5.64
   9   8  -3   63.58    6.89
  -7 -11  -9   -0.95    3.20
  -7 -11  -9   -0.40    4.07
  -1  -7 -16    8.49    4.43
  -2 -11 -13   64.37    9.84
   1  -8 -15   29.01    7.35
   1 -13   2   10.34    3.52
   1 -13   2   12.80    2.50
   0   5 -14    2.29    1.74
   1  -5  14   28.23    5.18
   0 -13  -9   -0.35    2.95
   0 -13  -9    6.49    2.80
   0  13   9    3.12    7.45
  11  -2   1   10.58    7.07
   7   3 -11   23.45    4.88
  -7 -10   4    8.66    2.93
  -8   4 -10    2.32    9.23
  -8   4 -10    6.85    3.35
   8  -4  10    7.84    2.36
  -2   4  16    0.57    3.03
   7  12   4    1.03    1.47
  -7 -12  -4   -0.87    3.47
  10  -5   2    2.96    3.35
   5  10  13    0.87    6.25
  -5 -12 -10    2.85    4.42
  -5 -12 -10   10.03    3.15
  -5 -12 -10    9.02    3.50
  -2   1  16    0.98    2.96
   7  -7   8    8.65    2.58
  -7   7  -8    7.58    3.26
  -5  11  -3    4.06    2.68
  -5  11  -3   -0.47    3.73
   5 -11   3    1.38    2.07
  -6   8  -8    2.12    2.66
   6  -8   8    1.03    1.63
  10   0   9   14.32    5.41
 -10   0  -9    9.00   14.62
  -5   0  14   -1.12    2.69
  -1  12  -5    6.83    2.27
  10   8   5   18.03    2.83
  10   8   5   12.90    7.19
  10   8   5    9.81    2.40
  10   2  -6   78.73   12.32
  -5 -11   5    0.92    2.52
   7  -1 -12    8.53    4.92
   1  14   3   16.38    3.30
  -6  -5  11   43.73    5.80
   6   5 -11   64.16    7.17
   6   5 -11   48.08    7.20
  11   5   1    1.20    5.59
  11   5   1   -1.21    3.12
  11   5   1    0.48    1.35
  11   5   1    0.17    2.01
   3 -10 -12   24.69    6.14
  -5 -13  -1    2.94    2.78
   5  13   1    2.42    1.92
   1  11  13    3.14    7.81
  -1 -11 -13    0.64    3.29
  -6 -12   1    5.19    2.87
  11   1   6   67.24   11.60
  11   1   6   44.05    8.18
   7  -9   4    0.23    1.80
   4 -10   7   -0.11    1.99
   2  14   4    9.31    3.30
  11  -2   0   16.43    8.82
  10  -5  -2   14.47    5.93
  -7 -12  -3    1.06    2.88
   7  12   3    4.61    1.99
  10   6  -3   14.82    2.98
  11  -2   2   11.41    7.15
  -2  13  -1    4.24    2.55
   2 -13   1    1.08    2.29
   3  13  -2   40.27    5.78
  -3 -13   2   30.52    5.75
   5  -1  15   35.28    5.83
  -5   1 -15   13.37   11.49
  -5   1 -15   17.92    5.19
   8   1  13   20.35    6.28
  -8  -1 -13   34.68    5.74
  -3  13   3    5.71    8.48
   3 -13  -3    5.03    3.31
  -3  13   3    7.10    3.24
  -9   2 -10    2.55   11.58
  -8 -11  -2   18.72    5.37
   8  11   2   38.41    4.78
   8  11   2   28.87    4.63
  10   4  -5   11.53    2.68
  10   4  -5    9.91    4.63
  10   4  -5    6.48    7.78
   7  -2 -12    4.45    5.86
  -7   2  12    2.34    2.00
   7  12   5    4.15    2.09
  -7 -12  -5    4.40    3.87
   4  -8 -13   28.32    7.15
  -4   8  13   19.21    5.13
   2  14   3   25.93    4.94
   8  -5   9    1.76    1.66
  -8   5  -9    0.64    2.56
  -4   2  15    3.12    2.73
  -8   7  -6    6.67    3.66
   9  -7  -3   12.80    5.52
   4  13  -1    3.79    2.02
  -4 -13   1    2.71    2.46
   3  10  14    1.14    7.49
  -3 -10 -14    7.49    4.19
  -4 -11   6   19.73    4.76
   6   1  15    8.52    4.59
  -6  -1 -15    9.97    3.92
 -10   4  -5    1.15    9.41
   3 -11   6   10.60    3.23
   9  -7   2    1.24    3.19
  11   4  -1    0.39    1.52
  11   4  -1   -2.49    6.19
  11  -1  -2    7.42    7.34
   5  -3  14   19.75    4.11
  -5   3 -14    8.13    3.74
  -2  13   7    6.87    9.67
   2 -13  -7    6.55    4.11
   3 -13  -2   16.46    4.63
  -3  13   2    8.80    8.99
  -3  13   2   12.97    3.76
   1  -6 -16    0.32    3.52
  -1   6  16   -6.06    5.75
  -7  -6 -14   34.44    6.50
  -8 -10  -9    9.84    5.97
  -5 -13  -7   -0.35    2.82
   4  12  11    7.26    7.38
  -4 -12 -11   15.28    4.30
   5   9  14   19.15   11.30
   7 -10  -2    4.04    2.78
   6 -11  -2   16.64    4.66
   6 -11  -2   20.96    4.67
  -4  -9   9   47.71    6.82
   4   9  -9   40.88    5.80
   7 -10  -1    7.90    3.46
  10  -2  -6   13.98    6.85
  10  -2  -6   16.37    9.44
   2   9 -10    4.59    3.28
  -2  -9  10    0.45    2.00
   2   9 -10    1.06    1.87
  -2  -9  10    0.59    2.09
  11   4   6    2.01    2.10
  11   4   6    3.95    5.32
  -4 -12   4    2.88    2.66
   4  12  -4    3.48    1.93
  -2  -9 -15    2.92    3.60
  11   3  -2    5.34    1.90
  11   3  -2    3.00    6.32
   9   3  -8   -2.79    4.43
   3  -6 -15   27.80    7.85
  -3   6  15   46.74    7.22
  -5   4  14    4.79    2.54
  -4   3  15   15.53    3.74
   3 -13  -4   -0.48    2.71
  -3  13   4   -2.09    8.31
   7   8  13    0.76    5.21
  -8   3 -11    0.39    2.45
   8  -3  11    0.80    1.68
   7   0 -12    6.92    4.04
   1  14   2   18.93    3.60
   6   8  14    6.66    8.27
   4 -10 -11   -0.39    3.24
   6 -10   4    8.14    3.00
  -6  10  -4    2.71    5.84
  -8 -11  -6    1.69    3.50
   0 -10   9    0.17    1.83
   0  10  -9    3.85    1.70
  11   5   5   31.31    4.82
  11   5   5   27.87    8.89
  11   5   5   22.92    3.35
   6 -11  -1   12.89    3.82
   6 -11  -1    8.95    3.32
  -6  11   1   11.49    4.87
  10   8   1   13.28    3.05
  -5  -5  12   66.78    8.24
  -4  -6  12    1.25    2.08
   4   6 -12    1.15    2.09
   4   6 -12    1.68    3.04
  -8 -10   2    0.16    1.89
  -1  -9 -15    8.66    4.85
  -3 -11 -13   17.41    5.05
  -4   1  15    4.40    2.95
   4 -11   5    2.91    2.80
  -7 -11   2   18.96    4.42
   3  -3  15   25.62    4.96
   8  -4 -10   -0.91    4.90
   8  -4 -10   -2.88    7.51
   6 -11  -3   28.00    5.13
   6 -11  -3   17.03    5.06
   2 -12 -10    4.64    2.66
   2 -12 -10    2.28    3.79
   9  -5  -7   10.00    5.44
   3 -10   8    0.12    1.98
   1  13  -3   15.20    3.28
   9  10   4    0.24    1.34
  -7 -12  -2    1.22    3.03
   7   5 -10    7.50    2.78
   5  12  -3    6.94    2.36
  -5 -12   3    4.04    2.89
   2   6 -13   47.02    5.44
   2   6 -13    9.21    6.75
  -2  -6  13   53.59    7.44
   1   5 -14   16.53    3.25
   0 -10 -14   25.27    6.62
   4  -4  14   24.21    4.78
   4  -4  14   24.95    4.57
  -4   4 -14    8.18    4.22
   7 -10  -3   42.69    7.43
  11  -2   3    4.01    5.62
   1  10  -9   29.95    6.18
   0  14   3    0.58    1.40
   5  -8 -12   34.81    7.89
  -5 -11 -12    0.95    3.99
   5  11  12    8.69    7.41
   2 -10 -13   34.45    7.30
   2  -5  14   68.55    8.71
   9  10   3    5.96    1.95
  -6   4  13    1.67    2.04
   6  -4 -13   -1.75    6.93
   7  -2  13    9.43    2.91
   3  -8 -14    7.97    4.41
  -3   8  14   -2.45    5.14
  -7  10   0   -5.22    7.15
   7 -10   0    4.59    3.05
   0  -7 -16    1.75    3.88
  -9   5  -7    3.06    3.46
  -9   5  -7   -1.16    9.51
  -5  -3 -16    8.73   11.90
  -5  -3 -16    7.63    4.04
   5   3  16   -2.93    7.03
  -6 -11 -11   -0.45    4.29
   3 -13  -1   14.41    4.21
  -3  13   1   10.61    8.64
   1   1 -16   21.21   10.05
  -7 -12  -6   14.90    5.64
   7  12   6   30.57    4.82
   6   1 -13    0.84    2.52
  -6  -1  13    2.42    1.87
   9   3  12   36.17    7.51
  -9  -3 -12   21.55    4.22
   4 -12   2    1.51    2.21
  -4  12  -2    2.94    2.54
  -4  12  -2    9.21    4.55
 -10  -3 -10    0.97    1.76
  10   3  10    0.85    3.25
   5 -10   6    0.82    2.12
  11   1  -3   21.54    3.40
  -5  -4 -16   38.57    7.60
  10   8   6    0.93    1.47
  10   8   6    0.62    1.30
  -6  -6 -15   16.33    4.93
   7  -3 -12   19.95    8.65
  -7   3  12   11.13    2.65
 -10   5  -3   -2.05    9.32
  11   5   0    4.10    1.63
  11   5   0    2.58    6.03
  -6 -12  -9    4.41    4.58
  10   6   9   19.58    2.85
  10   6   9   35.32    8.62
  -6 -11   4   37.51    6.14
  10   7   8    1.88    1.22
   7  -9  -7    3.87    3.18
  -9 -10  -5    1.00    3.16
   9  10   5    0.33    1.49
   9   6  -6   48.28    7.20
   3  -1  16    2.20    3.28
  -3   1 -16   -0.91    7.65
  -3   1 -16   -0.59    3.66
   2  -9 -14    4.30    3.73
   1 -12 -11   -0.81    3.75
   1 -12 -11    0.49    2.53
  -4   0 -16    7.62    4.08
   4   0  16   17.14    4.57
  -4   0 -16   10.91    9.88
  11  -1   5    8.32    5.26
  -7  -9   6   54.16    7.66
   9   4  12    0.24    2.89
  -9  -4 -12    0.25    1.87
   4 -12  -7   -0.30    2.69
  10   2  10    2.53    3.66
   0 -11 -13   12.01    4.49
   6 -11   0    5.44    2.63
  -6  11   0    5.48    4.24
  -8 -11  -1    7.80    3.85
   2  -5 -16    2.06    4.14
  -2   5  16    1.96    3.48
  -8  -6 -13   14.01    4.06
  -3  13   5   -1.12    7.71
   3 -13  -5    0.26    2.88
   7   0  14   -1.61    3.36
  -7   0 -14    0.16    2.26
  -3  -4  14   10.32    3.19
  11   0   6   13.38    5.34
  11   0   6   28.41    7.58
   0  14   2   -0.11    1.54
   6  -2  14   11.45    3.46
  -6   2 -14    5.60    3.00
  -5 -10   7    9.73    3.26
   5  10  -7    6.72    2.53
  10  -5  -3    4.48    4.51
   9   0  -9   -1.48    5.06
   9  -1  -9   -1.13    5.61
   9  -1  -9    0.46    6.12
   9  -4  -8   11.16    8.77
   9  -4  -8   11.53    5.95
   3  12  -5   49.00    6.42
  -4 -13  -9    2.57    2.67
  -9  -2 -12   50.88    7.04
   9   2  12   71.90   11.29
 -10  -4 -10    1.78    1.89
  10   4  10    0.62    3.33
   9  -6  -6   22.74    6.61
   2  13  -3   10.71    2.86
   6 -11  -4   11.84    4.94
   6 -11  -4   29.64    5.40
   9  10   2    3.17    1.64
  10  -2   8   -0.27    3.84
  10  -2   8    2.01    3.37
 -10   2  -8    1.34   10.67
  -4   4  15   12.61    3.37
  -8   6  -8    4.51    3.61
   8  -6   8    6.89    2.19
  10   7  -2    0.54    1.58
   3 -12  -9   13.23    6.03
  -2 -13 -10    5.53    3.19
   5   2  16   -0.20    5.05
  -5  -2 -16    2.09    3.16
  -5  -2 -16    5.97   11.38
  11   2  -3   15.52    2.86
   5  -9   8    7.69    2.70
   8  -8  -6   24.31    6.44
  -5  -1  14   14.41    3.78
  10   3  -6   36.23    5.14
  10  -3   7   -0.98    4.29
  -2 -12 -12   11.22    4.12
   4  -9   9   -0.11    1.92
   9  -7  -4    6.45    4.48
  11   2   7   21.86    7.04
  11   2   7   13.60    3.52
  11   3   7   28.22    5.02
  11   3   7   47.89   10.05
  -4  -3  14    2.06    2.26
  -5 -13   0    2.36    2.62
   9   5  -7   21.31    5.06
  -1 -13 -10   32.21    5.78
   7  -7 -10    0.34    3.43
  -9  -8 -10    1.73    2.20
   7   1 -12   46.02    7.77
   3 -11 -11    3.62    3.21
   3 -11 -11   -0.83    4.10
   8   7  -7    5.03    2.64
   8  -9  -1    4.58    3.29
  -4   0  15   10.80    3.63
  -1  -2 -17    4.46    9.39
   7 -10  -4    6.52    3.44
  -9   1 -11   -0.23    3.01
   0  -9 -15   51.78    9.43
  -6 -10   6   27.84    5.62
   8  11   7    0.50    1.80
  -8 -11  -7   -1.49    3.64
   8   6  -8    8.75    3.25
  -1 -12 -12    3.87    3.21
   7 -10   1    1.03    2.67
  -7  10  -1   -2.65    7.21
   8  -9  -2   32.35    6.79
  11   6   3    3.43    5.91
  11   6   3    1.20    2.08
  11   5   6   27.09    8.97
   2 -11 -12    2.95    3.30
   2 -11 -12    0.45    3.78
   3 -12   4    2.24    2.70
  -7 -12  -1   -0.23    2.72
  -5  12   2   18.14    5.37
  -5  12   2   31.24    6.12
   5 -12  -2   15.74    4.72
   5 -12  -2   22.68    4.61
  10  -4  -5   11.86    5.44
   8   3 -10   29.63    6.00
   1 -13  -9    0.47    1.96
   1 -13  -9    0.35    2.86
   8   0  13   16.21    4.28
  -2  -2 -17   12.63   10.99
   5 -12  -3   19.63    5.27
   6  -6  11    3.98    2.22
   9   1  -9   22.37    6.67
   9  10   6   13.94    2.93
  -9 -10  -6    7.67    4.60
   4  10  14    1.09    6.11
   8  -9   0    0.65    2.73
   3 -13   0   33.74    6.08
  -3  13   0   32.18   12.10
  -3  13   0   37.90    6.50
 -11   2  -4   -1.19   10.30
  11  -2   4   -1.67    5.50
  -8   2 -12    0.18    2.15
  -9  -7 -11   30.41    5.38
   9  -2  -9   -0.54    5.37
   9  -2  -9    4.31    8.09
  -1   2 -16   24.60   11.82
   4  -7 -14   -0.33    3.57
  -4   7  14   -0.87    3.03
  11   6   2   22.43   10.30
  11   6   2   28.39    5.06
   8  -6  -9    8.85    5.00
   6  -5  12    0.30    2.08
  11   6   4    0.69    2.05
  11   6   4   -0.53    5.03
  11   6   4    0.76    1.15
  -5   7  13    3.15    2.29
   5  -7 -13    0.97    4.06
   3   8 -11    5.09    3.14
   3   8 -11    5.76    2.46
  -3  -8  11    6.01    2.82
  -9  -5 -12    3.99    2.47
   4  10  -8   27.53    4.50
  -4 -10   8   28.89    5.45
  11   4  -2   -0.35    1.49
  -7 -12  -7   15.53    6.25
  10  -1   9   14.94    5.73
 -10   1  -9   10.03   13.39
   6   0  15   38.62    6.42
  -6   0 -15   21.87    5.26
   7  -8  -9    4.45    3.81
  10   1  10    1.43    3.47
 -10  -1 -10   -1.57   13.19
   0  14   1    0.23    1.51
  -2  13  -2    7.57    3.02
  -6 -13  -4    2.86    3.48
   5 -11  -8    3.02    4.11
  -3 -13 -10   38.56    6.54
  -5  12   1   17.38    4.95
   5 -12  -1    8.70    3.39
  -5  12   1    7.32    3.55
   0  14   6    9.69    8.27
  -5   5  14    0.93    2.27
  11   1   7   49.89    9.55
  11   1   7   24.95    5.65
  11   4   7    9.24    6.30
  -3 -12 -12   35.94    6.86
   4  11  13   18.37   10.83
   6 -11   1    3.34    2.64
  -6  11  -1    4.00    4.68
  -6  -4  12    4.16    2.12
   6   4 -12    6.00    2.31
   3   7 -12   21.48    3.75
  -3  -7  12   22.89    4.49
   3   7 -12    9.21    4.25
   8  -7  -8   11.95    5.05
   2 -13  -8    2.97    3.48
  -6 -13  -5    1.25    3.51
   8  -1 -11    8.61    5.63
  10   5  10   56.16   11.02
  -6 -13  -3    9.26    4.29
   8  -9  -3   24.67    5.93
  -4  -5  13   -0.43    2.03
   7  -8   7    7.51    2.61
  10   8   7    6.70    2.02
  -6 -12   2    1.45    2.65
   3 -13  -6   -0.29    3.31
   7  -6 -11   -0.77    4.26
  -7 -11 -10   -0.87    4.07
   5 -11   4    9.07    3.31
  -5  11  -4    7.42    5.19
   5 -12  -4   14.79    4.99
   5  -6  12    0.11    2.20
  11  -3   1   12.00    7.56
   7  -4 -12    6.59    7.29
  11   5  -1    0.75    1.43
  11   5  -1    1.43    6.96
  -1  14   3   -0.14    1.74
 -10   5  -4    2.18    9.67
  11   3  -3    0.55    1.42
   7  -5  11   20.83    3.92
  -7   5 -11   16.92    4.43
  -2   2 -16    4.27    8.15
 -10   4  -6    7.18   11.90
  -3  -3 -17   10.80   12.00
   5   1  16    6.73    4.32
  -5  -1 -16    4.88    3.45
  -1  14   4    0.29    1.87
   1  12  -6    0.98    1.72
  -1  -1 -17   11.07    9.92
  11   6   1   34.81   12.33
   8   0 -11    6.07    4.33
   2   5 -14   29.65    4.70
   3   9 -10   41.85    6.67
   3   9 -10   31.95    5.03
   7  -9   5    5.48    2.87
  -7   9  -5   -4.46    9.51
   6  -7  10   34.33    5.25
  -8 -11   0    5.95    3.34
   0 -13 -10   25.21    5.09
   0  12  -6   10.68    2.69
   3  -5  14   35.11    5.66
   8  -2 -11   10.71    7.11
  11   6   5    4.31    5.73
  11   6   5    4.09    1.50
  11   6   5    4.57    2.12
   5  -7  11    0.54    2.06
   6  -5 -13    6.52    6.58
   2  -8 -15   13.63    5.35
  11  -3   2    0.99    5.81
   6  -9   7   13.13    3.21
  -1   7  16   -2.14    6.35
  -3   3  16    5.10    3.21
   7   4 -11    1.63    2.32
   1 -10 -14   -0.24    3.79
   6   2 -13    0.56    2.10
   3  13  -3   44.93    6.27
   7  -6  10   12.58    3.02
  -7   6 -10   10.21    3.86
  -1  14   2    6.73    2.77
   0 -12 -12   45.18    7.70
  -4   5  15   11.96    3.48
   9   4  -8   20.75    5.66
  -2  -1 -17   33.09   14.60
  -5  12   0    9.92    4.49
   5 -12   0    5.62    2.82
   7 -10  -5   12.28    4.35
  -6 -13  -6    0.68    3.06
   6  -4  13   -0.14    2.30
   6  -4  13    1.26    2.05
   2  -4  15   33.61    5.80
   5  -5  13    1.80    2.52
   5  -5  13    0.31    2.52
   8  -5 -10    3.04    4.50
  -7   4 -12    0.33    1.87
   7  -4  12   -0.09    1.92
  -5  -4  13    2.42    2.26
  11  -1   6   -0.31    4.24
 -11   1  -6   17.86   15.28
  -3  -2 -17   14.67   12.22
  -1  14   5   19.99   10.97
  -1  14   5   18.16    4.16
  -7  10  -2    0.41    7.50
   4 -12   3   -0.28    2.09
  -2   6  16   11.72    5.05
   5  -2  15   50.63    6.95
  -5   2 -15   19.67    5.34
   9  10   7   13.61    2.95
   2  14   0   29.50    5.15
  -3   7  15    8.63    4.44
   3  -7 -15   17.98    6.42
   9  -3  -9    3.04    5.24
   9  -3  -9    5.38    7.80
   4  -3  15   63.47    8.22
  -4   3 -15   23.24    6.19
   1 -11 -13   35.33    7.00
  11   1  -4    0.76    1.48
   6 -10   5   21.69    4.80
   9  -7  -5    8.95    4.89
  -7 -12   0    5.83    3.53
   6  -7 -12   -0.31    4.29
   7   2 -12   31.07    5.79
  -7 -11   3   16.75    4.20
  -8 -11  -8    1.17    3.39
   3 -13   1    6.91    3.38
  -3  13  -1    8.49    3.33
   1  11  -8   32.58    4.74
   5 -12  -5   18.48    5.69
   8  -9  -4   28.97    6.64
   4 -12  -8    2.32    3.31
  -7 -10   5   70.72    9.21
  -3  -6  13   36.30    5.82
   3   6 -13    6.70    5.82
   3   6 -13   36.15    4.83
  -9   4  -9   20.43    5.76
  -6  -8   9   25.44    4.51
   2  12  -6    8.62    2.42
  -6  -7  10   22.43    4.11
  11   0   7    7.27    4.07
  11   5   7   11.70    6.24
  11   5   7   10.80    2.59
  11  -2   5    0.39    4.86
 -11   2  -5   -1.29   11.74
  -5 -13   1    2.00    2.49
  -3   4  16    0.09    2.96
   4  -1  16   60.61    8.29
  -4   1 -16   31.17    7.32
   1   2 -16    8.85    8.16
   6  10  13    8.13    8.12
  -9   3 -10   -0.25    2.91
   8   1 -11   30.79    6.51
  11  -3   3    0.93    4.99
  -9  -6 -12    0.84    2.41
  -7  -3 -15    7.82    3.60
  -5  -2  14    9.02    2.82
   7  -1  14   -0.70    2.77
  10   0  10    2.30    3.14
  -7 -12  -8    1.55    3.46
  -7  -4 -15    2.42    2.92
  -1  14   1    9.29    3.00
   8  -3 -11   21.27    9.92
  11   6   0    7.44    8.03
  11   6   0   11.05    2.46
   1  -9 -15   11.52    4.84
  10   9   4   14.39    2.86
  10   9   3   10.28    2.36
   1  13  -4    6.94    2.40
  -5  -8  10   -0.33    2.02
   6 -11   2    2.55    2.40
  -6  11  -2    3.64    4.83
  11   6   6    1.32    4.88
  11   6   6    1.55    1.59
  11   2  -4   -0.22    1.48
  -8  -3 -14   28.72    5.61
   7  -9  -8   19.36    5.35
   0   7 -13   -5.13    6.60
   5  -8  10    9.07    2.95
  11   3   8   47.75   10.12
  11   3   8   32.78    5.09
   8  -8  -7    1.03    3.00
  -8  -4 -14    6.08    3.07
  -5 -12   4    2.88    2.58
   4  12  -5   52.57    6.84
  -5 -11   6    8.17    3.70
  -5  -7  11    1.15    2.11
  11   2   8   44.93    9.46
  11   2   8   27.94    4.76
   4 -11   6    0.41    2.41
   3 -13  -7    3.87    3.59
   0  13  -4   21.28    4.00
  -3   2 -16   18.05    6.03
   9  -6  -7    8.95    4.74
   7  -7   9   23.73    4.10
  10   9   5    8.79    2.23
  -7  -2 -15   22.52    5.25
   7   2  15   14.47    6.62
  -3  -1 -17    6.94   10.26
  -9   5  -8   13.43    5.31
  -9   5  -8    9.57   12.18
  -5  12  -1    5.64    4.25
   5 -12   1    1.17    2.24
  10   9   2    3.34    1.77
   1   8 -12    6.35    4.42
   1   8 -12   12.77    2.79
  -1   0 -17   14.67   10.21
  11   4  -3    3.00    1.66
   6  -8   9   17.55    3.69
   9  -8  -1   12.55    4.80
  -6  -9   8   36.75    5.83
  -6  -6  11   32.05    5.00
  11   5  -2   10.29    2.54
  -8  -2 -14   45.66    7.09
   8   2  14   22.75    7.85
  -7  -8   8   47.26    6.69
   5   0  16   72.91    9.57
  -5   0 -16   37.07    7.48
   7  -3  13    3.02    2.24
  -7   3 -13    2.82    2.37
   6  11  12    3.02    6.21
  11   4   8   -0.50    1.97
  11   4   8   -0.40    4.06
   2  13  -4    0.91    1.79
  -5  -9   9    5.52    2.58
   5  -4  14    7.55    3.21
 -10   5  -5    3.43   11.59
   3 -12 -10    8.38    5.72
  -6   1 -15   13.26    4.18
   6  -1  15   21.67    4.64
   8  -5  10    6.98    2.45
  -8   5 -10    9.40    3.73
  -2 -13 -11   20.66    4.94
   4  -9 -13   30.19    7.20
  -9   2 -11   -0.24    2.91
   7  -5 -12    0.53    6.62
  -5   6  14    5.38    2.61
   5  -6 -14    2.34    4.04
  -8   4 -11    5.76    3.02
   8  -4  11    6.11    2.40
  -8 -11   1    1.56    2.80
   1   7 -13    1.05    1.78
   1   7 -13   -4.17    5.55
 -10   3  -8   -1.30   11.49
  10  -3   8   -0.59    3.89
  -4  13   3    6.26    3.32
   4 -13  -3    6.47    3.52
  -4  -3 -17   23.31   14.81
   8   4 -10   69.62    9.25
   9  -8  -2    2.62    3.17
   5 -10   7   -1.09    2.59
  -6 -11   5   11.22    3.51
  -2   0 -17    1.76    7.39
 -10  -3 -11   24.73    4.26
  10   3  11   28.03    6.95
   3 -10 -13   20.94    5.81
  -4  13   2   14.51    4.38
   4 -13  -2   12.72    4.17
  -8  -5 -14    7.70    3.36
   7 -10  -6    0.45    2.66
  -1 -13 -11   49.99    7.80
   3  -4  15   43.86    6.53
  11   1   8   14.23    3.79
  11   1   8   19.77    6.31
  11   7   3    1.70    1.40
  11   7   3    1.95    6.07
  -6  -3 -16    4.00    3.26
   5 -12  -6    1.76    3.30
   6  -3  14    5.66    2.88
  -9 -10  -8    9.43    5.88
   7   6 -10    8.18    2.77
   8  -9  -5   16.33    5.34
  -7  10  -3   -2.67    8.04
  11   7   4    8.84    2.11
  11   7   4   11.14    2.87
  11   7   4   12.98    8.26
   0   6 -14   -0.76    6.15
  10   4  11   16.39    5.93
 -10  -4 -11   11.94    3.23
  -1  14   0   11.84    3.25
   4 -13  -4    2.01    2.92
   3  -9 -14   31.02    7.40
   1 -12 -12   55.60    8.70
   5 -11  -9   -0.36    3.49
  10   9   6    6.07    2.02
  10   2  11   22.46    6.43
  -4  -4  14    5.63    2.79
  -5  -6  12   22.23    4.20
  11   3  -4    1.58    1.51
   2  14  -1    0.12    1.97
  -6   2  14   32.63    5.01
   4  -6 -15    2.76    4.18
  -4   6  15    5.73    2.86
   9   3  -9   10.45    5.03
  11   7   2   32.88   12.44
   8   2 -11    7.81    4.22
  -2  14   3    9.80    3.39
  -2  14   3   17.12   10.02
  -6 -12   3    1.58    2.25
  -6   1  14   21.06    4.19
   4 -13  -1   19.06    4.80
   3  12  -6   18.74    3.58
  11   6  -1   44.54    5.67
  -2  14   4    2.88    6.89
  -2  14   4    0.69    2.06
  -7 -12   1   13.60    4.31
 -10   4  -7   -1.24    9.83
   8  -4 -11    4.50    8.02
   8  -4 -11   10.29    6.35
   5 -11   5    5.99    3.45
   4   8 -11   48.79    6.41
   4   8 -11   38.13    6.78
   9  -8  -3   35.28    7.68
   7   1  15   15.13    5.37
  -7  -1 -15   17.14    4.46
 -11   1  -7   26.09   17.92
  11  -1   7   10.64    5.02
  11   6   7   40.66   10.34
   3   5 -14   21.59    4.21
  -6  -2 -16    8.97    4.10
   6   2  16    8.70    5.65
  -7  -9   7   40.99    6.92
   8  -3  12   33.51    5.03
  -8   3 -12   29.54    6.03
  -2  14   2    9.37    8.36
  -2  14   2   11.15    3.46
  -5   2  15   22.48    4.32
  -8 -11  -9    1.68    3.55
  11   7   5    5.07    1.73
  11   7   5    6.71    2.12
  11   7   5    4.88    6.41
 -11   2  -6    5.45   12.71
  11  -2   6   -1.06    4.82
   9  -7  -6    0.30    3.42
   4  -5  14   -0.82    3.00
  -4   8  14   -0.37    3.46
   4  -8 -14    2.73    3.96
  -8  -1 -14   10.94    3.46
   8   1  14   12.71    5.18
  -6   3  14    5.05    2.64
  -9  -3 -13   30.12    5.25
   9   3  13   36.40    7.54
  11   5   8   10.64    2.41
   7  -9   6   33.05    5.26
  -9  -4 -13   12.58    3.57
   7   3 -12   -0.98    2.40
  -6  11  -3   -0.92    5.32
   6 -11   3   -0.13    2.02
   2   8 -12    0.61    3.29
   2   8 -12    1.68    1.90
   4   7 -12   12.90    3.37
  -4  -7  12   10.75    3.28
   4 -13  -5    4.72    3.64
   1   6 -14   -1.07    6.42
   5  -8 -13    5.86    4.27
   8  -7  -9   12.98    5.50
  -5   3  15   30.35    4.91
  -8 -12  -4   12.25    5.04
   2 -10 -14   24.07    6.46
  -2  14   5    1.04    7.74
  11   7   1   25.55   11.53
 -10  -5 -11   10.96    3.10
   7  -1 -13    2.90    3.64
   7  -7 -11    5.17    4.77
   5 -12   2   -0.14    2.26
   0 -13 -11    3.46    2.88
  -1 -12 -13    5.46    3.51
  -7   2  13    1.72    2.29
   7  -2 -13    3.05    4.72
  -6   0  14    0.78    2.70
  -5 -10   8   10.85    3.37
   0 -11 -14    0.46    3.09
  -8 -12  -5    7.90    4.50
  10   1  11    6.59    4.35
  -8 -12  -3    4.39    3.96
  -6 -10   7   12.11    3.94
   8  -6 -10   22.23    7.85
  -6  -5  12    4.14    2.30
   4 -12  -9    7.29    5.26
  -9  -2 -13   25.66    4.65
   3 -13  -8    1.33    3.25
   2   9 -11    0.17    1.91
   4 -13   0    2.27    2.34
   7  -8   8   40.74    5.80
  -2  14   1   23.76    4.79
  -2  14   1   18.02   10.51
   2   7 -13   28.93    4.25
   2   7 -13    5.59    5.45
  -2 -14  -9    3.53    2.71
   2 -11 -13   26.66    6.32
  10   9   7   13.16    2.85
   4 -11 -11    1.27    3.95
  -5  -3  14    7.58    2.75
   7   5 -11    3.50    2.35
  -1 -14  -9    4.77    2.64
   7   0 -13   29.58    6.02
   6 -10   6   24.64    4.75
 -11   3  -5   -1.27   11.55
  11  -3   5    1.63    4.21
  11   7   6   11.50    2.51
  -9  -5 -13    1.00    2.28
  -1   1 -17    7.25    8.35
  -7 -11   4    0.73    2.32
  -4   2 -16   22.96    6.37
   3  -8 -15   -1.22    3.60
  -3   8  15   -4.42    5.03
   9  -8  -4   38.68    8.56
   7  -3 -13    6.29    6.28
  -8 -12  -6    3.13    3.79
  -1  14  -1   14.83    3.63
  11   3   9   73.10   13.06
   6   1  16    8.85    4.36
  -6  -1 -16    4.13    3.02
   5 -12  -7   -0.31    2.79
   2  -9 -15    1.13    3.59
  -8 -12  -2    1.61    3.24
  -6   4  14    1.43    2.36
   6  -9   8   27.59    4.85
  -5   4  15   18.29    3.81
   5  -3  15    8.17    3.48
   8  -9  -6   15.22    5.19
   8  -8  -8   -0.56    2.76
  -5   1 -16   28.38    6.44
   5  -1  16   58.96    8.08
 -10   5  -6   54.79   20.32
   1  12  -7   10.84    2.75
  11   2   9   37.41    8.96
   1  14  -2   -0.24    2.15
  -5  -5  13   12.00    3.21
  -7 -13  -4   -0.62    3.28
  -2   1 -17    0.86    7.32
   4 -13  -6    0.61    3.08
  11   7   0    9.28    9.14
  11   4   9    0.76    3.87
   0 -12 -13   58.76    9.42
  -7   0 -15    3.53    2.80
   7   0  15    7.99    3.68
   1  13  -5   15.95    3.38
  -7 -13  -3   -0.28    3.11
   9  -6  -8    2.88    4.18
  -7 -10   6   45.27    6.88
   7 -11  -2    1.12    2.47
  11   6   8    2.14    1.51
   4  -4  15    1.16    2.96
   7 -11  -1    4.54    3.18
   6  -2  15    1.42    2.77
   5  -7 -14    6.00    4.76
   2   6 -14   -3.00    6.87
   2   6 -14   10.78    2.88
  -9   4 -10    7.43    3.84
   8  -5 -11   -2.24    4.88
   8  -5 -11   -1.74    7.19
  -3   3 -16    1.47    3.60
   7   1 -13   13.38    4.45
  -7 -12   2   40.85    7.09
   7 -11  -3   10.76    3.85
  -8 -12  -7    1.52    3.30
   7  -5  12   22.98    4.43
   7  -6  11   19.32    3.90
   2  12  -7    1.81    1.78
   8  -1 -12    6.53    5.11
  -8 -12  -1    2.00    3.03
   4  -7 -15   -0.34    4.01
  -4   7  15    1.02    2.68
 -11   2  -7   17.04   16.29
  11  -2   7    5.38    4.52
  11   7   7   34.09    4.56
   7  -4 -13    9.22    7.04
   2  13  -5   19.01    3.76
  -7 -13  -2    0.80    3.13
  -9   3 -11   21.31    5.63
  -8 -11 -10    0.91    4.17
   5 -12   3    2.41    2.43
   8  -2 -12   27.17    8.97
   6  10  14   15.98   10.34
   7 -11   0    1.02    2.55
   1 -11 -14   10.63    4.88
   9  -7  -7    0.91    3.34
   6 -11   4   -0.13    2.08
   3   8 -12   18.88    5.53
   3   8 -12   30.99    4.72
   8   0 -12    1.57    3.24
   8 -10  -2    2.43    3.05
  12   2   5   19.19    4.75
   6 -12  -1    0.54    2.34
  -1 -13 -12    0.53    2.96
  -5   5  15    1.16    2.40
  12   3   5    0.44    2.26
  11   8   3   17.30    3.08
  11   8   3   17.47    9.66
   3   9 -11    3.41    2.18
   7   9  14   -0.89    7.07
  -6   0 -16   16.32    4.80
  11  -3   6   -1.51    4.75
 -11   3  -6    1.32   11.49
  -6 -11   6    5.19    3.04
   7  -7  10    3.15    2.22
   4 -13  -7   -1.61    3.18
  -3  14   3    3.93    2.91
  -3  14   3    1.04    7.47
   8 -10  -3    0.23    2.98
  12   1   5    3.41    3.33
   7   4 -12    2.17    2.21
  -2 -14 -10   24.12    5.16
   3   7 -13   18.53    3.79
  10   3  12   59.77   10.60
  11   8   2   13.08    9.33
  -6  -8  10   16.94    3.85
   8  -3 -12    7.94    6.67
  -3  14   2   -0.98    8.43
   5 -12  -8   -0.35    3.03
  -6  12   0    2.48    4.52
   6 -12   0    2.28    2.60
 -10  -4 -12   34.61    5.60
  -1 -14 -10    3.95    2.86
   7  -9   7   11.22    3.13
   8  -9  -7    0.25    2.92
   4 -12 -10   -0.39    3.78
  -6  -7  11    5.65    2.55
   8  -5  11   12.04    3.12
   8   1 -12   12.03    4.69
   5  -5  14   -0.52    2.75
   1 -12 -13   31.73    6.82
  -8 -12  -8    0.40    3.73
 -10   6  -5   11.56   12.43
  -2  -2 -18   32.67   15.54
  10   2  12   12.26    5.03
  12   3  -1   13.39    2.68
  12   4   0    8.23    2.18
  -1   2 -17   -0.82    7.97
  -8 -12   0   -0.47    2.98
  -6  -9   9    6.73    2.84
   0 -13 -12   26.43    5.74
  -8   4 -12   30.53    6.32
   8  -4  12   32.38    5.16
   1  14  -3    0.72    2.07
   8 -10  -4   22.27    6.06
   8  -7 -10    7.86    5.10
   7  -1  15    5.64    3.28
   2   5 -15   32.18    5.12
   3 -10 -14   22.46    6.11
   4  -9 -14    4.70    3.98
  -5  -4  14   10.18    3.12
  12   2   6   33.99    5.99
  12   3   6    3.29    2.77
  11   8   6   21.64    3.51
  11   7   8   22.66    3.37
  11   3  10   64.99   12.25
  -5   2 -16    3.43    3.10
   7  -5 -13    2.02    6.67
   5 -13  -3    6.57    3.97
   5 -13  -2    5.80    3.48
   8   2  15   -3.79    6.05
  -8  -2 -15    1.15    2.34
  12   2  -2   29.86    4.26
  -7 -11   5    3.66    2.71
   6 -12   1   11.12    3.62
  -4   3 -16    7.04    4.29
  11   4  10   42.18    9.90
  -7   3 -14   10.35    3.57
  12   1   6    9.67    3.91
   5 -13  -4    9.84    4.49
   7  -8   9   11.69    3.30
   5 -13  -1   -0.40    2.58
  -5  13   1    3.03    3.70
  -2  -1 -18    2.86    8.46
  12   4   6   -1.03    2.78
   8  -6 -11    4.71    5.26
  -7 -12   3    8.76    3.64
  -5  -2  15   22.89    4.56
  -3   9  15   -7.00    5.80
  -9  -3 -14   22.53    4.65
  12   4  -1   16.62    3.09
  -8   3 -13   17.13    4.58
   8  -3  13   15.88    3.74
   8   2 -12   41.16    7.16
   8 -10  -5   11.09    4.76
   5  -4  15   19.15    4.33
  12   3  -2   14.16    2.80
   2 -11 -14   17.39    5.73
   5  -8 -14    5.26    4.38
   5 -13  -5   20.54    6.27
   0  15   1   -0.13    1.87
  12   5   0    0.07    1.58
  12   0   6   -0.75    3.53
  12   3   7   30.11    5.16
  12   2   7   23.13    4.60
  12   1  -3   29.73    4.28
   6 -12   2    3.42    2.94
  -1  15   2   20.61    4.48
  12   4   7    5.50    2.62
   0   0   0    0.00    0.00

_computing_structure_solution     'SHELXT 2014/5 (Sheldrick, 2014)'
;
_shelx_hkl_checksum              77169
loop_
_space_group_symop_id
_space_group_symop_operation_xyz
1 +X,+Y,+Z
2 -X,-Y,-Z
loop_
_atom_site_label
_atom_site_type_symbol
_atom_site_fract_x
_atom_site_fract_y
_atom_site_fract_z
_atom_site_U_iso_or_equiv
_atom_site_adp_type
_atom_site_occupancy
_atom_site_site_symmetry_order
_atom_site_calc_flag
_atom_site_refinement_flags_posn
_atom_site_refinement_flags_adp
Zn38 Zn 0.39135(4) 0.59413(3) 0.94410(3) 0.01189(17) Uani 1 1 d . .
O1 O 0.7127(3) 0.4246(3) 0.9106(2) 0.0248(6) Uani 1 1 d . .
O2 O 0.3244(3) 0.4248(2) 0.9427(2) 0.0247(6) Uani 1 1 d . .
O3 O 0.5538(3) 0.5734(2) 0.8287(2) 0.0239(6) Uani 1 1 d . .
O4 O 0.4844(3) 0.2787(2) 1.0247(2) 0.0223(6) Uani 1 1 d . .
O6 O 1.2532(3) 0.1847(3) 0.6617(3) 0.0377(8) Uani 1 1 d . .
N7 N 1.4556(4) 0.2434(3) 0.7198(3) 0.0280(8) Uani 1 1 d . .
N39 N 0.2324(3) 0.7031(3) 0.8641(3) 0.0181(6) Uani 1 1 d . .
C5 C 0.2605(4) 0.2206(3) 0.9826(3) 0.0173(7) Uani 1 1 d . .
C8 C 0.0558(4) 0.0450(3) 0.9947(3) 0.0191(8) Uani 1 1 d . .
C9 C 0.6718(4) 0.5004(3) 0.8331(3) 0.0174(7) Uani 1 1 d . .
C10 C 0.3656(4) 0.3146(3) 0.9827(3) 0.0153(7) Uani 1 1 d . .
C12 C 0.7708(4) 0.5030(3) 0.7354(3) 0.0188(7) Uani 1 1 d . .
C13 C 0.9527(4) 0.5012(3) 0.5492(3) 0.0189(7) Uani 1 1 d . .
C14 C 0.7436(4) 0.5916(3) 0.6468(3) 0.0220(8) Uani 1 1 d . .
H14 H 0.6624 0.6533 0.6490 0.026 Uiso 1 1 calc R U
C15 C 0.8324(4) 0.5913(3) 0.5556(3) 0.0220(8) Uani 1 1 d . .
H15 H 0.8117 0.6531 0.4966 0.026 Uiso 1 1 calc R U
C16 C 0.8920(4) 0.4154(3) 0.7301(3) 0.0241(8) Uani 1 1 d . .
H16 H 0.9140 0.3554 0.7898 0.029 Uiso 1 1 calc R U
C17 C 0.0149(4) 0.8536(4) 0.7483(3) 0.0280(9) Uani 1 1 d . .
C18 C 0.0215(5) 0.1685(4) 0.9542(4) 0.0363(12) Uani 1 1 d . .
H18 H -0.0735 0.1953 0.9297 0.044 Uiso 1 1 calc R U
C19 C 0.2475(4) 0.8223(3) 0.8222(4) 0.0279(9) Uani 1 1 d . .
H19 H 0.3351 0.8553 0.8323 0.034 Uiso 1 1 calc R U
C20 C 0.1219(5) 0.2544(4) 0.9484(4) 0.0374(12) Uani 1 1 d . .
H20 H 0.0943 0.3387 0.9200 0.045 Uiso 1 1 calc R U
C21 C 0.1060(4) 0.6598(4) 0.8485(4) 0.0336(11) Uani 1 1 d . .
H21 H 0.0921 0.5757 0.8766 0.040 Uiso 1 1 calc R U
C22 C 0.9817(4) 0.4140(4) 0.6390(3) 0.0256(8) Uani 1 1 d . .
H22 H 1.0639 0.3530 0.6375 0.031 Uiso 1 1 calc R U
C23 C 0.2961(5) 0.0968(4) 1.0235(5) 0.0448(15) Uani 1 1 d . .
H23 H 0.3911 0.0702 1.0479 0.054 Uiso 1 1 calc R U
C24 C 0.1441(5) 0.8992(4) 0.7659(4) 0.0336(11) Uani 1 1 d . .
H24 H 0.1603 0.9831 0.7390 0.040 Uiso 1 1 calc R U
C25 C -0.0035(5) 0.7321(4) 0.7937(4) 0.0372(11) Uani 1 1 d . .
H25 H -0.0921 0.6983 0.7871 0.045 Uiso 1 1 calc R U
C26 C 1.3641(5) 0.1627(4) 0.7095(4) 0.0356(11) Uani 1 1 d . .
H26 H 1.3872 0.0794 0.7427 0.043 Uiso 1 1 calc R U
C27 C 1.5879(5) 0.2049(4) 0.7749(4) 0.0356(10) Uani 1 1 d . .
H27A H 1.6769 0.2189 0.7268 0.043 Uiso 1 1 calc R U
H27B H 1.5894 0.1171 0.8067 0.043 Uiso 1 1 calc R U
H27C H 1.5863 0.2529 0.8282 0.043 Uiso 1 1 calc R U
C28 C -0.0792(5) 1.0355(4) 0.6241(4) 0.0305(9) Uani 1 1 d . .
H28 H 0.0121 1.0681 0.6262 0.037 Uiso 1 1 calc R U
C29 C -0.3632(5) 1.2707(5) 0.4152(5) 0.0455(13) Uani 1 1 d . .
H29 H -0.4208 1.3209 0.3642 0.055 Uiso 1 1 calc R U
C30 C -0.1823(5) 1.1113(4) 0.5539(4) 0.0315(10) Uani 1 1 d . .
C31 C -0.0984(5) 0.9274(4) 0.6849(4) 0.0350(11) Uani 1 1 d . .
H31 H -0.1913 0.8952 0.6878 0.042 Uiso 1 1 calc R U
C32 C -0.2293(6) 1.3025(4) 0.4298(4) 0.0420(12) Uani 1 1 d . .
H32 H -0.1967 1.3790 0.3934 0.050 Uiso 1 1 calc R U
C33 C 1.4284(6) 0.3729(4) 0.6739(5) 0.0459(14) Uani 1 1 d . .
H33A H 1.3310 0.3884 0.6463 0.055 Uiso 1 1 calc R U
H33B H 1.5062 0.3959 0.6183 0.055 Uiso 1 1 calc R U
H33C H 1.4294 0.4221 0.7261 0.055 Uiso 1 1 calc R U
C34 C -0.1395(6) 1.2235(4) 0.4981(5) 0.0454(13) Uani 1 1 d . .
H34 H -0.0456 1.2472 0.5068 0.054 Uiso 1 1 calc R U
C35 C 0.1951(5) 0.0116(4) 1.0293(6) 0.0550(19) Uani 1 1 d . .
H35 H 0.2226 -0.0726 1.0580 0.066 Uiso 1 1 calc R U
C36 C -0.4148(7) 1.1650(6) 0.4749(7) 0.086(3) Uani 1 1 d . .
H36 H -0.5128 1.1463 0.4704 0.104 Uiso 1 1 calc R U
C37 C -0.3224(7) 1.0846(5) 0.5427(6) 0.064(2) Uani 1 1 d . .
H37 H -0.3577 1.0101 0.5816 0.077 Uiso 1 1 calc R U
loop_
_atom_site_aniso_label
_atom_site_aniso_U_11
_atom_site_aniso_U_22
_atom_site_aniso_U_33
_atom_site_aniso_U_23
_atom_site_aniso_U_13
_atom_site_aniso_U_12
Zn38 0.0126(2) 0.0130(2) 0.0096(3) -0.00038(16) -0.00035(15) -0.00378(15)
O1 0.0216(13) 0.0375(14) 0.0121(14) -0.0007(11) 0.0043(10) -0.0031(11)
O2 0.0286(14) 0.0172(12) 0.0297(17) 0.0022(11) -0.0113(12) -0.0129(10)
O3 0.0221(13) 0.0268(13) 0.0203(15) -0.0052(11) 0.0083(11) -0.0017(10)
O4 0.0191(12) 0.0179(11) 0.0338(17) -0.0082(11) -0.0076(11) -0.0065(10)
O6 0.0356(16) 0.0273(14) 0.051(2) -0.0008(14) -0.0207(15) -0.0017(12)
N7 0.0334(18) 0.0260(16) 0.026(2) -0.0033(14) -0.0096(15) -0.0049(13)
N39 0.0171(14) 0.0223(14) 0.0154(16) -0.0048(12) 0.0007(12) -0.0044(11)
C5 0.0151(16) 0.0188(16) 0.0191(19) -0.0041(14) -0.0012(13) -0.0064(12)
C8 0.0171(17) 0.0167(15) 0.024(2) -0.0027(14) -0.0050(14) -0.0047(13)
C9 0.0179(16) 0.0239(17) 0.0117(18) -0.0049(14) 0.0030(13) -0.0094(13)
C10 0.0164(16) 0.0174(15) 0.0131(18) -0.0041(13) 0.0030(13) -0.0082(12)
C12 0.0153(16) 0.0283(18) 0.0144(19) -0.0062(14) 0.0006(13) -0.0070(13)
C13 0.0192(17) 0.0270(18) 0.0093(18) -0.0017(14) -0.0007(13) -0.0018(14)
C14 0.0197(17) 0.0262(18) 0.018(2) -0.0015(15) 0.0004(14) -0.0006(14)
C15 0.0198(17) 0.0292(18) 0.0126(19) 0.0018(14) 0.0002(14) 0.0018(14)
C16 0.0224(18) 0.0301(19) 0.016(2) 0.0016(15) -0.0017(15) 0.0009(15)
C17 0.026(2) 0.034(2) 0.025(2) -0.0082(17) -0.0096(17) 0.0032(16)
C18 0.037(2) 0.0245(19) 0.047(3) 0.0140(19) -0.030(2) -0.0151(17)
C19 0.026(2) 0.0238(18) 0.032(3) 0.0031(17) -0.0087(17) -0.0077(15)
C20 0.040(2) 0.0196(18) 0.050(3) 0.0183(18) -0.029(2) -0.0162(17)
C21 0.026(2) 0.0229(18) 0.054(3) -0.0051(19) -0.019(2) -0.0022(15)
C22 0.0223(18) 0.0328(19) 0.016(2) 0.0018(16) 0.0001(15) 0.0046(15)
C23 0.0190(19) 0.0171(17) 0.098(5) 0.001(2) -0.028(2) -0.0039(14)
C24 0.032(2) 0.0210(18) 0.043(3) 0.0077(18) -0.007(2) -0.0071(16)
C25 0.034(2) 0.032(2) 0.050(3) -0.007(2) -0.021(2) -0.0060(17)
C26 0.040(2) 0.0223(18) 0.043(3) 0.0021(18) -0.017(2) -0.0037(17)
C27 0.034(2) 0.039(2) 0.038(3) -0.012(2) -0.012(2) -0.0021(18)
C28 0.026(2) 0.031(2) 0.034(3) -0.0075(18) -0.0046(18) 0.0017(16)
C29 0.035(2) 0.047(3) 0.046(3) 0.011(2) -0.019(2) 0.003(2)
C30 0.026(2) 0.037(2) 0.027(2) -0.0039(18) -0.0024(17) 0.0106(16)
C31 0.028(2) 0.034(2) 0.044(3) -0.003(2) -0.013(2) -0.0029(17)
C32 0.052(3) 0.030(2) 0.046(3) -0.005(2) -0.023(2) 0.0044(19)
C33 0.064(3) 0.028(2) 0.050(4) -0.001(2) -0.027(3) -0.014(2)
C34 0.043(3) 0.035(2) 0.060(4) -0.007(2) -0.025(3) 0.0009(19)
C35 0.025(2) 0.0115(17) 0.127(6) 0.004(2) -0.034(3) -0.0022(15)
C36 0.054(4) 0.071(4) 0.125(8) 0.037(4) -0.060(4) -0.022(3)
C37 0.058(3) 0.051(3) 0.076(5) 0.026(3) -0.038(3) -0.019(3)
loop_
_atom_type_symbol
_atom_type_description
_atom_type_scat_dispersion_real
_atom_type_scat_dispersion_imag
_atom_type_scat_source
C C 0.0033 0.0016
;
International Tables for Crystallography
(Vol. C, Tables 4.2.6.8 and 6.1.1.4)
;
H H 0.0000 0.0000
;
International Tables for Crystallography
(Vol. C, Table 6.1.1.4)
;
N N 0.0061 0.0033
;
International Tables for Crystallography
(Vol. C, Tables 4.2.6.8 and 6.1.1.4)
;
O O 0.0106 0.0060
;
International Tables for Crystallography
(Vol. C, Tables 4.2.6.8 and 6.1.1.4)
;
Zn Zn 0.2839 1.4301
;
International Tables for Crystallography
(Vol. C, Tables 4.2.6.8 and 6.1.1.4)
;
loop_
_geom_angle_atom_site_label_1
_geom_angle_atom_site_label_2
_geom_angle_atom_site_label_3
_geom_angle
_geom_angle_site_symmetry_1
_geom_angle_site_symmetry_3
N39 Zn38 O1 100.10(12) . 2_667
N39 Zn38 O3 100.86(12) . .
O1 Zn38 O3 159.03(12) 2_667 .
N39 Zn38 O2 98.96(11) . .
O1 Zn38 O2 86.88(12) 2_667 .
O3 Zn38 O2 90.10(11) . .
N39 Zn38 O4 102.00(11) . 2_667
O1 Zn38 O4 89.30(12) 2_667 2_667
O3 Zn38 O4 86.14(11) . 2_667
O2 Zn38 O4 159.05(11) . 2_667
N39 Zn38 Zn38 172.51(8) . 2_667
O1 Zn38 Zn38 80.52(8) 2_667 2_667
O3 Zn38 Zn38 78.73(8) . 2_667
O2 Zn38 Zn38 73.60(8) . 2_667
O4 Zn38 Zn38 85.46(7) 2_667 2_667
C9 O1 Zn38 125.9(2) . 2_667
C10 O2 Zn38 135.1(2) . .
C9 O3 Zn38 128.1(2) . .
C10 O4 Zn38 119.7(2) . 2_667
C26 N7 C33 120.8(4) . .
C26 N7 C27 121.8(3) . .
C33 N7 C27 117.4(3) . .
C21 N39 C19 116.3(3) . .
C21 N39 Zn38 121.9(3) . .
C19 N39 Zn38 121.8(2) . .
C20 C5 C23 117.3(3) . .
C20 C5 C10 121.5(3) . .
C23 C5 C10 121.0(3) . .
C35 C8 C18 116.6(3) . .
C35 C8 C8 122.3(4) . 2_557
C18 C8 C8 121.0(4) . 2_557
O1 C9 O3 126.5(3) . .
O1 C9 C12 116.7(3) . .
O3 C9 C12 116.8(3) . .
O4 C10 O2 125.3(3) . .
O4 C10 C5 118.2(3) . .
O2 C10 C5 116.5(3) . .
C16 C12 C14 117.9(3) . .
C16 C12 C9 120.6(3) . .
C14 C12 C9 121.5(3) . .
C22 C13 C15 117.6(3) . .
C22 C13 C13 121.2(4) . 2_766
C15 C13 C13 121.2(4) . 2_766
C15 C14 C12 121.4(3) . .
C15 C14 H14 119.3 . .
C12 C14 H14 119.3 . .
C14 C15 C13 120.9(3) . .
C14 C15 H15 119.6 . .
C13 C15 H15 119.6 . .
C22 C16 C12 121.2(3) . .
C22 C16 H16 119.4 . .
C12 C16 H16 119.4 . .
C24 C17 C25 116.7(4) . .
C24 C17 C31 123.5(4) . .
C25 C17 C31 119.8(4) . .
C20 C18 C8 121.7(3) . .
C20 C18 H18 119.2 . .
C8 C18 H18 119.2 . .
N39 C19 C24 123.9(3) . .
N39 C19 H19 118.0 . .
C24 C19 H19 118.0 . .
C5 C20 C18 121.5(3) . .
C5 C20 H20 119.2 . .
C18 C20 H20 119.2 . .
N39 C21 C25 122.9(4) . .
N39 C21 H21 118.5 . .
C25 C21 H21 118.5 . .
C16 C22 C13 121.0(4) . .
C16 C22 H22 119.5 . .
C13 C22 H22 119.5 . .
C35 C23 C5 120.9(3) . .
C35 C23 H23 119.6 . .
C5 C23 H23 119.6 . .
C19 C24 C17 119.7(4) . .
C19 C24 H24 120.2 . .
C17 C24 H24 120.2 . .
C21 C25 C17 120.4(4) . .
C21 C25 H25 119.8 . .
C17 C25 H25 119.8 . .
O6 C26 N7 126.9(4) . .
O6 C26 H26 116.6 . .
N7 C26 H26 116.6 . .
N7 C27 H27A 109.5 . .
N7 C27 H27B 109.5 . .
H27A C27 H27B 109.5 . .
N7 C27 H27C 109.5 . .
H27A C27 H27C 109.5 . .
H27B C27 H27C 109.5 . .
C31 C28 C30 127.6(4) . .
C31 C28 H28 116.2 . .
C30 C28 H28 116.2 . .
C32 C29 C36 119.3(5) . .
C32 C29 H29 120.3 . .
C36 C29 H29 120.3 . .
C37 C30 C34 116.5(4) . .
C37 C30 C28 125.6(4) . .
C34 C30 C28 117.7(4) . .
C28 C31 C17 124.1(4) . .
C28 C31 H31 117.9 . .
C17 C31 H31 117.9 . .
C29 C32 C34 120.1(5) . .
C29 C32 H32 119.9 . .
C34 C32 H32 119.9 . .
N7 C33 H33A 109.5 . .
N7 C33 H33B 109.5 . .
H33A C33 H33B 109.5 . .
N7 C33 H33C 109.5 . .
H33A C33 H33C 109.5 . .
H33B C33 H33C 109.5 . .
C30 C34 C32 122.3(4) . .
C30 C34 H34 118.9 . .
C32 C34 H34 118.9 . .
C23 C35 C8 122.1(3) . .
C23 C35 H35 119.0 . .
C8 C35 H35 119.0 . .
C29 C36 C37 120.0(5) . .
C29 C36 H36 120.0 . .
C37 C36 H36 120.0 . .
C30 C37 C36 121.4(5) . .
C30 C37 H37 119.3 . .
C36 C37 H37 119.3 . .
loop_
_geom_bond_atom_site_label_1
_geom_bond_atom_site_label_2
_geom_bond_distance
_geom_bond_site_symmetry_2
Zn38 N39 2.022(3) .
Zn38 O1 2.044(3) 2_667
Zn38 O3 2.043(3) .
Zn38 O2 2.059(2) .
Zn38 O4 2.053(2) 2_667
Zn38 Zn38 2.9810(7) 2_667
O1 C9 1.251(4) .
O1 Zn38 2.044(3) 2_667
O2 C10 1.262(4) .
O3 C9 1.266(4) .
O4 C10 1.258(4) .
O4 Zn38 2.053(2) 2_667
O6 C26 1.227(5) .
N7 C26 1.335(5) .
N7 C33 1.447(5) .
N7 C27 1.455(5) .
N39 C21 1.352(5) .
N39 C19 1.345(5) .
C5 C20 1.372(5) .
C5 C23 1.386(5) .
C5 C10 1.501(4) .
C8 C35 1.380(5) .
C8 C18 1.380(5) .
C8 C8 1.486(6) 2_557
C9 C12 1.497(5) .
C12 C16 1.389(5) .
C12 C14 1.396(5) .
C13 C22 1.403(5) .
C13 C15 1.403(5) .
C13 C13 1.493(7) 2_766
C14 C15 1.385(6) .
C14 H14 0.9500 .
C15 H15 0.9500 .
C16 C22 1.390(6) .
C16 H16 0.9500 .
C17 C24 1.398(6) .
C17 C25 1.382(6) .
C17 C31 1.468(6) .
C18 C20 1.386(5) .
C18 H18 0.9500 .
C19 C24 1.370(6) .
C19 H19 0.9500 .
C20 H20 0.9500 .
C21 C25 1.379(6) .
C21 H21 0.9500 .
C22 H22 0.9500 .
C23 C35 1.384(5) .
C23 H23 0.9500 .
C24 H24 0.9500 .
C25 H25 0.9500 .
C26 H26 0.9500 .
C27 H27A 0.9800 .
C27 H27B 0.9800 .
C27 H27C 0.9800 .
C28 C31 1.320(6) .
C28 C30 1.466(6) .
C28 H28 0.9500 .
C29 C32 1.354(7) .
C29 C36 1.374(7) .
C29 H29 0.9500 .
C30 C37 1.374(7) .
C30 C34 1.386(6) .
C31 H31 0.9500 .
C32 C34 1.390(7) .
C32 H32 0.9500 .
C33 H33A 0.9800 .
C33 H33B 0.9800 .
C33 H33C 0.9800 .
C34 H34 0.9500 .
C35 H35 0.9500 .
C36 C37 1.407(8) .
C36 H36 0.9500 .
C37 H37 0.9500 .
loop_
_geom_torsion_atom_site_label_1
_geom_torsion_atom_site_label_2
_geom_torsion_atom_site_label_3
_geom_torsion_atom_site_label_4
_geom_torsion
_geom_torsion_site_symmetry_1
Zn38 O1 C9 O3 -5.0(5) 2_667
Zn38 O1 C9 C12 176.2(2) 2_667
Zn38 O3 C9 O1 0.2(5) .
Zn38 O3 C9 C12 178.9(2) .
Zn38 O4 C10 O2 11.4(5) 2_667
Zn38 O4 C10 C5 -166.3(3) 2_667
Zn38 O2 C10 O4 -12.6(6) .
Zn38 O2 C10 C5 165.2(3) .
C20 C5 C10 O4 172.8(4) .
C23 C5 C10 O4 -2.8(6) .
C20 C5 C10 O2 -5.1(6) .
C23 C5 C10 O2 179.2(5) .
O1 C9 C12 C16 7.2(5) .
O3 C9 C12 C16 -171.6(3) .
O1 C9 C12 C14 -173.8(3) .
O3 C9 C12 C14 7.3(5) .
C16 C12 C14 C15 1.2(5) .
C9 C12 C14 C15 -177.8(3) .
C12 C14 C15 C13 0.4(6) .
C22 C13 C15 C14 -1.8(5) .
C13 C13 C15 C14 178.9(4) 2_766
C14 C12 C16 C22 -1.4(5) .
C9 C12 C16 C22 177.6(3) .
C35 C8 C18 C20 0.2(8) .
C8 C8 C18 C20 176.9(5) 2_557
C21 N39 C19 C24 -0.3(7) .
Zn38 N39 C19 C24 178.9(4) .
C23 C5 C20 C18 -0.1(8) .
C10 C5 C20 C18 -175.9(5) .
C8 C18 C20 C5 0.1(9) .
C19 N39 C21 C25 -0.4(7) .
Zn38 N39 C21 C25 -179.6(4) .
C12 C16 C22 C13 0.0(6) .
C15 C13 C22 C16 1.6(6) .
C13 C13 C22 C16 -179.1(4) 2_766
C20 C5 C23 C35 0.0(9) .
C10 C5 C23 C35 175.8(5) .
N39 C19 C24 C17 -0.9(8) .
C25 C17 C24 C19 2.7(7) .
C31 C17 C24 C19 -176.9(5) .
N39 C21 C25 C17 2.4(9) .
C24 C17 C25 C21 -3.4(8) .
C31 C17 C25 C21 176.2(5) .
C33 N7 C26 O6 1.2(8) .
C27 N7 C26 O6 -177.2(5) .
C31 C28 C30 C37 3.3(9) .
C31 C28 C30 C34 179.1(5) .
C30 C28 C31 C17 175.9(5) .
C24 C17 C31 C28 12.2(8) .
C25 C17 C31 C28 -167.4(5) .
C36 C29 C32 C34 5.7(10) .
C37 C30 C34 C32 -3.5(9) .
C28 C30 C34 C32 -179.7(5) .
C29 C32 C34 C30 -0.6(9) .
C5 C23 C35 C8 0.2(10) .
C18 C8 C35 C23 -0.3(9) .
C8 C8 C35 C23 -177.0(6) 2_557
C32 C29 C36 C37 -6.6(13) .
C34 C30 C37 C36 2.5(11) .
C28 C30 C37 C36 178.3(7) .
C29 C36 C37 C30 2.5(14) .
