#------------------------------------------------------------------------------
#$Date: 2019-11-03 14:57:21 +0200 (Sun, 03 Nov 2019) $
#$Revision: 221691 $
#$URL: file:///home/coder/svn-repositories/cod/cif/4/12/86/4128610.cif $
#------------------------------------------------------------------------------
#
# This file is available in the Crystallography Open Database (COD),
# http://www.crystallography.net/
#
# All data on this site have been placed in the public domain by the
# contributors.
#
data_4128610
loop_
_publ_author_name
'Gilson, Sara E.'
'Li, Peng'
'Szymanowski, Jennifer E. S.'
'White, Jacob'
'Ray, Debmalya'
'Gagliardi, Laura'
'Farha, Omar K.'
'Burns, Peter C.'
_publ_section_title
;
 In Situ Formation of Unprecedented Neptunium-Oxide Wheel Clusters
 Stabilized in a Metal-Organic Framework.
;
_journal_issue                   30
_journal_name_full               'Journal of the American Chemical Society'
_journal_page_first              11842
_journal_page_last               11846
_journal_paper_doi               10.1021/jacs.9b06187
_journal_volume                  141
_journal_year                    2019
_chemical_formula_sum            'C102 H90 Br6 F6 N1.5 Np18 O78'
_chemical_formula_weight         7444.21
_space_group_crystal_system      hexagonal
_space_group_IT_number           175
_space_group_name_Hall           '-P 6'
_space_group_name_H-M_alt        'P 6/m'
_atom_sites_solution_primary     dual
_atom_sites_solution_secondary   difmap
_audit_creation_method           SHELXL-2016/6
_cell_angle_alpha                90
_cell_angle_beta                 90
_cell_angle_gamma                120
_cell_formula_units_Z            2
_cell_length_a                   20.525(3)
_cell_length_b                   20.525(3)
_cell_length_c                   18.668(3)
_cell_measurement_reflns_used    21678
_cell_measurement_temperature    273(2)
_cell_measurement_theta_max      27.490
_cell_measurement_theta_min      1.091
_cell_volume                     6810.7(18)
_computing_cell_refinement       'Bruker SAINT (Bruker, 2015)'
_computing_data_collection       'Bruker APEX-3 (Bruker, 2015)'
_computing_data_reduction        'Bruker SAINT (Bruker, 2015)'
_computing_molecular_graphics    'Bruker XP (Bruker, 2015)'
_computing_publication_material  'CIFTAB (Sheldrick, 2008)'
_computing_structure_refinement  'SHELXL-2016/6 (Sheldrick, 2016)'
_computing_structure_solution    'SHELXT 2014/5 (Sheldrick, 2014)'
_diffrn_ambient_temperature      273(2)
_diffrn_detector_area_resol_mean 8.33
_diffrn_measured_fraction_theta_full 0.970
_diffrn_measured_fraction_theta_max 0.954
_diffrn_measurement_device_type  'Bruker APEX-II'
_diffrn_measurement_method       'combination of \w and \f-scans'
_diffrn_radiation_type           MoK\a
_diffrn_radiation_wavelength     0.71073
_diffrn_reflns_av_R_equivalents  0.0458
_diffrn_reflns_av_unetI/netI     0.0404
_diffrn_reflns_Laue_measured_fraction_full 0.970
_diffrn_reflns_Laue_measured_fraction_max 0.954
_diffrn_reflns_limit_h_max       26
_diffrn_reflns_limit_h_min       -17
_diffrn_reflns_limit_k_max       26
_diffrn_reflns_limit_k_min       -26
_diffrn_reflns_limit_l_max       21
_diffrn_reflns_limit_l_min       -20
_diffrn_reflns_number            21678
_diffrn_reflns_point_group_measured_fraction_full 0.970
_diffrn_reflns_point_group_measured_fraction_max 0.954
_diffrn_reflns_theta_full        25.242
_diffrn_reflns_theta_max         27.490
_diffrn_reflns_theta_min         1.091
_diffrn_source                   'Incoatec micro-focus'
_exptl_absorpt_coefficient_mu    15.466
_exptl_absorpt_process_details   'SADABS (Krause et al., 2015)'
_exptl_crystal_colour            'emerald green'
_exptl_crystal_density_diffrn    3.630
_exptl_crystal_description       oval
_exptl_crystal_F_000             6549
_refine_diff_density_max         4.617
_refine_diff_density_min         -2.144
_refine_diff_density_rms         0.314
_refine_ls_extinction_method     none
_refine_ls_goodness_of_fit_ref   1.033
_refine_ls_hydrogen_treatment    undef
_refine_ls_matrix_type           full
_refine_ls_number_parameters     91
_refine_ls_number_reflns         5146
_refine_ls_number_restraints     0
_refine_ls_restrained_S_all      1.033
_refine_ls_R_factor_all          0.0926
_refine_ls_R_factor_gt           0.0657
_refine_ls_shift/su_max          0.041
_refine_ls_shift/su_mean         0.003
_refine_ls_structure_factor_coef Fsqd
_refine_ls_weighting_details
'w=1/[\s^2^(Fo^2^)+(0.1051P)^2^+134.2375P] where P=(Fo^2^+2Fc^2^)/3'
_refine_ls_weighting_scheme      calc
_refine_ls_wR_factor_gt          0.1739
_refine_ls_wR_factor_ref         0.1980
_reflns_Friedel_coverage         0.000
_reflns_number_gt                3866
_reflns_number_total             5146
_reflns_threshold_expression     'I > 2\s(I)'
_cod_data_source_file            ja9b06187_si_003.cif
_cod_data_source_block           test2_a_sq
_cod_original_cell_volume        6811(2)
_cod_original_formula_sum        'C102 H90 Br6 F6 N1.50 Np18 O78'
_cod_database_code               4128610
_shelx_shelxl_version_number     2016/6
_shelx_space_group_comment
;
The symmetry employed for this shelxl refinement is uniquely defined
by the following loop, which should always be used as a source of
symmetry information in preference to the above space-group names.
They are only intended as comments.
;
_shelx_res_file
;
TITL test2_a.res in P6/m
    test2_a_sq.res
    created by SHELXL-2016/6 at 22:17:01 on 23-Oct-2018
REM Old TITL test2 in P6/m

REM SHELXT solution in P6/m
REM R1 0.318,  Rweak 0.010,  Alpha 0.053,  Orientation as input
REM Formula found by SHELXT:  C60 O16 F27 Br3 Np9

CELL  0.71073  20.5254  20.5254  18.6685   90.000   90.000  120.000
ZERR    2.000   0.0031   0.0031   0.0028    0.000    0.000    0.000
LATT  1
SYMM -Y, X-Y, Z
SYMM -X+Y, -X, Z
SYMM -X, -Y, Z
SYMM Y, -X+Y, Z
SYMM X-Y, X, Z
SFAC C H O F BR NP N
UNIT 204 180 156 12 12 36 3
TEMP 0.000
L.S. 5 0   87
BOND $H
TWIN 0 1 0 1 0 0 0 0 -1
FMAP 2
PLAN 20
ABIN
ACTA
WGHT    0.105100  134.237503
BASF   0.04172
FVAR       0.07432   0.20004
NP01  6    0.165282    0.220668    0.894100    11.00000    0.04003    0.03515 =
         0.01511    0.00207    0.00309    0.01603
NP02  6    0.351983    0.251972    1.000000    10.50000    0.03824    0.05179 =
         0.01898    0.00000    0.00000    0.00601
PART   1
BR1A  5    0.388806    0.314604    0.500000    21.00000    0.05312
PART   2
BR1B  5    0.363554    0.327182    0.500000    21.00000    0.05414
PART   0
O001  3    0.164840    0.307718    0.922136    11.00000    0.04460
F001  4    0.099674    0.157469    1.000000    10.50000    0.04890
O002  3    0.164866    0.133743    0.866282    11.00000    0.03478
O003  3    0.151326    0.249344    0.769318    11.00000    0.06974
O004  3    0.392556    0.294819    0.875124    11.00000    0.06620
O005  3    0.397466    0.388810    1.000000    10.50000    0.08792
O006  3    0.251427    0.237726    1.000000    10.50000    0.03707
O007  3    0.442082    0.259846    1.000000    10.50000    0.06723
C001  1    0.353185    0.311096    0.836846    11.00000    0.05710
C002  1    0.472580    0.462362    0.564825    11.00000    0.05460
C003  1    0.384741    0.348451    0.765517    11.00000    0.06127
C004  1    0.444052    0.420314    0.635756    11.00000    0.05937
C005  1    0.447972    0.425627    0.500000    10.50000    0.05574
C006  1    0.486226    0.406383    0.679594    11.00000    0.09364
C007  1    0.370290    0.398852    0.653243    11.00000    0.08317
C008  1    0.340722    0.365598    0.722316    11.00000    0.09152
C009  1    0.459824    0.369406    0.747233    11.00000    0.07664
O008  3    0.288048    0.297390    0.852232    11.00000    0.06756

HKLF 4




REM  test2_a.res in P6/m
REM R1 =  0.0657 for    3866 Fo > 4sig(Fo)  and  0.0926 for all    5146 data
REM     91 parameters refined using      0 restraints

END

WGHT      0.1004    134.6862

REM Highest difference peak  4.617,  deepest hole -2.144,  1-sigma level  0.314
Q1    1   0.3409  0.3439  0.5000  10.50000  0.05    4.62
Q2    1   0.4184  0.3059  0.5000  10.50000  0.05    4.52
Q3    1   0.0000  0.0000  0.8932  10.16667  0.05    4.23
Q4    1   0.3841  0.2393  1.0000  10.50000  0.05    3.95
Q5    1   0.2034  0.2144  0.8950  11.00000  0.05    3.85
Q6    1   0.2086  0.2602  0.8924  11.00000  0.05    3.02
Q7    1   0.4015  0.2841  1.0000  10.50000  0.05    2.88
Q8    1   0.1213  0.2234  0.7177  11.00000  0.05    2.62
Q9    1   0.1724  0.2693  0.8945  11.00000  0.05    2.33
Q10   1   0.3516  0.2543  0.7855  11.00000  0.05    2.28
Q11   1   0.1123  0.1877  0.8898  11.00000  0.05    2.17
Q12   1   0.4533  0.2319  1.0000  10.50000  0.05    1.77
Q13   1   0.3704  0.2998  1.0000  10.50000  0.05    1.72
Q14   1   0.3683  0.4054  1.0000  10.50000  0.05    1.55
Q15   1   0.2823  0.2294  1.0000  10.50000  0.05    1.46
Q16   1   0.3325  0.2205  0.8924  11.00000  0.05    1.36
Q17   1   0.4490  0.4396  1.0000  10.50000  0.05    1.35
Q18   1   0.1643  0.2257  0.7519  11.00000  0.05    1.32
Q19   1   0.3020  0.2712  1.0000  10.50000  0.05    1.29
Q20   1   0.0000  0.0000  0.8268  10.16667  0.05    1.23
;
_shelx_res_checksum              12111
_shelx_hkl_file
;
   1   0   0 2237.78   57.09
   1  -1   0 2276.97   56.99
   0   1   0 2300.17   57.19
   1  -2   0  797.82   20.30
   1   1   0  796.62   20.30
   2  -1   0  803.62   20.30
   2   0   0  722.03   18.80
   2  -2   0  731.93   18.80
   0   2   0  758.12   18.80
   1   2   0  196.18    5.40
   2  -3   0  189.48    5.40
   3  -1   0  189.88    5.40
   2   1   0 1974.70   50.69
  -3   2   0 2070.49   50.29
   1  -3   0 2020.50   50.69
   3  -2   0 1990.60   50.69
   3   0   0    2.60    0.80
   0   3   0    3.10    0.80
   3  -3   0    2.50    0.90
   1   3   0   92.19    3.20
   3  -4   0   84.49    3.20
   4  -1   0   89.69    3.20
   2  -4   0   16.90    1.30
   2   2   0   14.90    1.30
   4  -2   0   15.10    1.30
   3   1   0  306.47    8.50
   4  -3   0  308.17    8.50
  -1   4   0  306.77    8.40
   4   0   0   19.50    1.60
   4  -4   0   19.20    1.60
   0   4   0   19.40    1.50
   1   4   0 1011.90   26.70
   4  -5   0 1027.50   26.70
   5  -1   0 1047.60   26.70
   3  -5   0  525.95   14.40
   2   3   0  532.85   14.40
   5  -2   0  551.04   14.40
   3   2   0 3275.17   81.79
   2  -5   0 3225.68   81.79
   5  -3   0 3242.78   81.69
   4   1   0 2851.31   71.99
  -1   5   0 2848.22   71.89
   5  -4   0 2859.71   71.99
   5   0   0  172.88    5.60
   0   5   0  174.58    5.50
   5  -5   0  172.98    5.80
   1   5   0  438.16   12.10
   5  -6   0  432.96   12.10
   6  -1   0  422.16   12.00
   2   4   0 1133.69   29.50
   4  -6   0 1148.89   29.50
   6  -2   0 1125.19   29.40
   3   3   0  187.58    6.00
   3  -6   0  188.88    6.00
   6  -3   0  185.98    5.90
   4   2   0 5880.21  149.49
  -2   6   0 6162.78  149.49
   6  -4   0 5845.42  149.39
   5   1   0 2985.70   78.59
  -1   6   0 3089.99   78.49
   6  -5   0 3249.67   78.69
   6   0   0    0.50    1.10
   0   6   0    0.10    1.10
   6  -6   0    0.90    1.30
   1   6   0   48.10    2.90
   6  -7   0   43.50    2.90
   7  -1   0   47.50    2.80
   5  -7   0   21.50    2.00
   2   5   0   16.60    1.80
   7  -2   0   22.10    1.90
   4  -7   0  270.57    8.10
   3   4   0  258.77    8.10
   7  -3   0  269.77    8.10
   3  -7   0   40.10    2.70
   4   3   0   35.40    2.50
   7  -4   0   43.10    2.60
   5   2   0  321.17    9.60
   7  -5   0  334.87    9.50
  -2   7   0  315.97    9.40
   6   1   0   57.59    3.10
  -1   7   0   63.89    3.10
   7  -6   0   52.39    3.30
   7   0   0  540.55   15.20
   0   7   0  556.34   15.20
   7  -7   0  531.95   15.30
   1   7   0  104.79    4.60
   7  -8   0  117.29    4.80
   8  -1   0  109.79    4.70
   6  -8   0   98.29    4.30
   2   6   0   95.29    4.20
   8  -2   0   90.09    4.10
   5  -8   0   70.59    3.50
   3   5   0   75.29    3.60
   8  -3   0   67.39    3.50
   4  -8   0  445.06   12.90
   4   4   0  458.45   13.00
   8  -4   0  458.75   12.90
   5   3   0  453.45   13.20
   3  -8   0  468.85   13.20
   8  -5   0  467.25   13.20
  -3   8   0  465.35   13.10
  -8   6   0  719.93   19.20
   6   2   0  716.23   20.00
   8  -6   0  768.22   20.20
  -2   8   0  747.83   20.00
   7   1   0  344.47   10.50
  -1   8   0  354.06   10.50
   8  -7   0  351.56   10.70
   8   0   0   26.90    2.40
   0   8   0   26.40    2.40
   8  -8   0   27.60    2.60
   8  -9   0   37.10    3.00
   1   8   0   41.40    3.30
   9  -1   0   40.80    3.30
   7  -9   0  890.11   24.40
   2   7   0  903.91   24.40
   9  -2   0  917.81   24.50
   3   6   0  472.85   13.50
   6  -9   0  459.45   13.40
   9  -3   0  458.75   13.40
   5  -9   0   11.00    1.80
   4   5   0    8.80    1.70
   9  -4   0    8.80    1.70
   5   4   0    6.80    1.60
   4  -9   0    8.50    1.60
   9  -5   0    6.70    1.70
   6   3   0  219.18    7.40
  -3   9   0  207.78    7.10
   9  -6   0  216.18    7.20
   7   2   0  196.78    6.90
  -9   7   0  200.88    6.00
   9  -7   0  201.68    7.10
  -2   9   0  184.08    6.70
   8   1   0    3.20    1.70
   9  -8   0    4.40    1.80
  -1   9   0    5.10    1.60
   9   0   0   83.59    4.40
   9  -9   0   72.09    4.50
   0   9   0   81.29    4.10
   1   9   0  393.36   12.00
   9 -10   0  388.16   12.10
  10  -1   0  381.46   12.00
   8 -10   0 1196.38   32.20
   2   8   0 1215.88   32.10
  10  -2   0 1195.78   32.10
   3   7   0 2479.25   63.89
   7 -10   0 2515.25   63.89
  10  -3   0 2446.76   63.79
   4   6   0   67.59    4.00
   6 -10   0   59.89    4.00
  10  -4   0   64.59    4.10
   5   5   0   68.59    4.10
   5 -10   0   65.59    4.00
  10  -5   0   69.89    4.00
   6   4   0   32.10    2.80
  -4  10   0   32.90    2.70
  10  -6   0   35.20    2.90
   7   3   0  254.87    8.50
  10  -7   0  243.48    8.30
  -3  10   0  240.48    8.10
   8   2   0  227.98    8.00
 -10   8   0  221.48    6.90
  10  -8   0  229.58    8.20
  -2  10   0  227.58    7.90
   9   1   0   28.20    2.90
 -10   9   0   31.20    2.40
  -1  10   0   23.40    2.60
  10  -9   0   26.80    3.10
  10   0   0  673.03   19.00
  10 -10   0  675.33   19.20
   0  10   0  643.14   18.90
  10 -11   0  577.74   16.50
   1  10   0  524.55   16.20
  11  -1   0  545.65   16.30
   9 -11   0  157.48    7.00
   2   9   0  183.78    7.00
  11  -2   0  184.38    7.20
   3   8   0  996.20   27.70
   8 -11   0 1047.80   27.80
  11  -3   0 1002.90   27.60
   7 -11   0  325.67   10.40
   4   7   0  319.07   10.50
  11  -4   0  311.17   10.40
   6 -11   0  278.77    9.60
   5   6   0  312.17    9.90
  11  -5   0  288.77    9.70
   5 -11   0  211.18    7.80
   6   5   0  223.68    7.90
  11  -6   0  214.18    7.80
   7   4   0  294.27    9.70
  11  -7   0  275.67    9.30
  -4  11   0  278.67    9.20
   8   3   0 1607.74   43.30
  -3  11   0 1674.03   43.10
  11  -8   0 1639.54   43.30
   9   2   0  908.41   24.80
 -11   9   0  874.61   23.50
  11  -9   0  884.01   24.90
  -2  11   0  896.91   24.60
  10   1   0   44.30    3.80
 -11  10   0   49.30    3.20
  -1  11   0   42.40    3.60
  11 -10   0   47.30    4.10
  11   0   0   34.10    3.40
  11 -11   0   33.60    3.50
   0  11   0   29.20    3.10
   1  11   0  125.99    6.00
  11 -12   0  105.49    6.40
  12  -1   0  135.59    6.30
   2  10   0  210.28    8.10
  10 -12   0  211.18    8.30
  12  -2   0  209.58    8.20
   9 -12   0  328.07   10.90
   3   9   0  335.27   10.90
  12  -3   0  311.37   10.80
   8 -12   0  109.79    5.60
   4   8   0  117.79    5.80
  12  -4   0  118.59    5.60
   5   7   0  311.57   10.30
   7 -12   0  304.37   10.20
  12  -5   0  298.37   10.20
   6 -12   0  494.05   14.50
   6   6   0  475.55   14.50
  12  -6   0  461.65   14.40
   7   5   0  148.39    6.70
  12  -7   0  160.28    6.60
  -5  12   0  156.38    6.50
   8   4   0  295.67    9.90
  -4  12   0  265.87    9.60
  12  -8   0  294.77    9.90
   9   3   0 1380.46   37.30
  -3  12   0 1381.36   37.10
  12  -9   0 1408.06   37.50
  10   2   0   68.89    5.00
  12 -10   0   75.69    5.60
  -2  12   0   65.49    4.60
 -12  11   0  328.17   10.00
  11   1   0  329.97   11.20
  -1  12   0  336.27   11.00
  12 -11   0  320.07   11.40
  12   0   0   36.00    3.80
 -12  12   0   40.80    3.60
   0  12   0   34.80    3.60
  12 -12   0   38.50    4.00
   1  12   0  440.26   14.20
  12 -13   0  451.25   14.70
  13  -1   0  442.06   14.40
  11 -13   0   61.89    5.40
   2  11   0   70.29    5.00
  13  -2   0   77.59    5.40
  10 -13   0  122.09    6.40
   3  10   0  124.79    6.40
  13  -3   0  136.59    6.60
   9 -13   0  485.75   14.70
   4   9   0  457.45   14.60
  13  -4   0  466.55   14.60
   5   8   0  374.06   12.40
   8 -13   0  386.06   12.40
  13  -5   0  381.16   12.50
   6   7   0    1.50    2.20
   7 -13   0    2.90    2.30
  13  -6   0    0.40    2.10
   6 -13   0    4.10    2.20
   7   6   0    8.20    2.30
  -6  13   0    5.40    2.10
  13  -7   0    0.60    2.20
   8   5   0  156.08    6.90
  -5  13   0  152.48    6.50
  13  -8   0  153.98    6.90
   9   4   0   80.09    5.20
  -4  13   0   77.19    5.00
  13  -9   0   75.59    5.30
  10   3   0   10.40    2.70
  -3  13   0   19.70    2.90
  13 -10   0   19.20    3.20
  11   2   0  425.56   13.80
  13 -11   0  415.96   14.00
  -2  13   0  426.46   13.60
 -13  12   0  217.18    7.80
  12   1   0  220.18    8.90
  13 -12   0  220.28    9.20
  -1  13   0  224.18    8.70
 -13  13   0   95.79    5.20
  13   0   0  113.79    6.80
  13 -13   0   92.39    6.60
   0  13   0  105.49    6.30
  13 -14   0  683.93   20.20
   1  13   0  640.04   19.70
  14  -1   0  639.94   19.90
   2  12   0  313.27   11.50
  12 -14   0  309.07   11.60
  14  -2   0  339.17   11.80
   3  11   0   59.99    5.00
  11 -14   0   67.79    5.10
  14  -3   0   61.69    5.40
   4  10   0   20.50    3.10
  10 -14   0   20.10    3.20
  14  -4   0   22.80    3.30
   5   9   0   16.50    2.90
   9 -14   0   23.90    3.20
  14  -5   0   26.00    3.40
   6   8   0   89.19    5.50
   8 -14   0  100.19    5.80
  14  -6   0   85.69    5.70
   7 -14   0  330.27   11.40
   7   7   0  342.17   11.50
  14  -7   0  320.87   11.40
   8   6   0   42.50    3.90
  14  -8   0   44.70    4.00
  -6  14   0   38.00    3.60
   9   5   0  373.06   12.60
  14  -9   0  385.26   12.70
  -5  14   0  358.26   12.20
  10   4   0  189.78    8.20
  -4  14   0  175.08    7.80
  14 -10   0  181.18    8.50
  11   3   0  327.87   11.60
  14 -11   0  338.07   11.90
  -3  14   0  305.17   11.10
  12   2   0  100.99    6.10
  -2  14   0  110.59    6.20
  14 -12   0  104.99    6.60
  13   1   0   45.20    4.60
  14 -13   0   48.20    4.60
  -1  14   0   47.20    4.40
  14   0   0   13.20    3.40
  14 -14   0   10.30    3.50
   0  14   0   14.30    3.30
  14 -15   0  256.57   10.80
   1  14   0  251.07   10.30
  15  -1   0  246.08   10.50
 -14  15   0  260.67   10.00
  13 -15   0  498.45   16.50
   2  13   0  484.25   16.20
  15  -2   0  517.25   16.60
  12 -15   0   13.70    3.70
   3  12   0   15.70    3.40
  15  -3   0   18.40    3.70
   4  11   0    0.50    2.40
  11 -15   0   -5.90    2.60
  15  -4   0    0.30    2.60
   5  10   0   20.70    3.40
  10 -15   0   16.80    3.20
  15  -5   0   19.00    3.30
   9 -15   0  203.28    8.70
   6   9   0  216.48    8.90
  15  -6   0  200.78    8.70
   7   8   0  378.86   13.50
   8 -15   0  441.06   13.90
  15  -7   0  420.16   13.80
   8   7   0   29.70    3.70
  15  -8   0   43.20    4.20
  -7  15   0   34.90    3.80
   9   6   0  140.29    7.40
  15  -9   0  142.99    7.30
  -6  15   0  138.19    6.90
  10   5   0   30.20    3.80
  -5  15   0   45.20    4.10
  15 -10   0   39.30    4.30
  11   4   0    4.50    2.70
  15 -11   0    4.90    2.90
  -4  15   0    7.30    2.70
  12   3   0   17.90    3.40
  -3  15   0   26.30    3.50
  15 -12   0   19.50    3.90
  13   2   0   44.00    4.60
  -2  15   0   53.59    4.70
  15 -13   0   46.60    5.00
  14   1   0  167.88    8.50
  15 -14   0  162.78    9.00
  -1  15   0  161.18    8.30
  15   0   0  168.08    8.90
  15 -15   0  130.29    8.80
   0  15   0  154.18    8.50
  15 -16   0   76.99    6.50
   1  15   0   77.99    6.20
  16  -1   0   75.99    6.30
  14 -16   0   -2.80    3.60
   2  14   0    7.00    3.40
  16  -2   0    2.30    3.40
  13 -16   0   34.60    4.70
   3  13   0   33.00    4.30
  16  -3   0   36.10    4.70
   4  12   0  245.88   10.40
  12 -16   0  270.47   10.90
  16  -4   0  249.88   10.70
   5  11   0  201.48    9.10
  11 -16   0  218.78    9.70
  16  -5   0  217.98    9.60
  10 -16   0    6.90    3.30
   6  10   0    8.00    3.00
  16  -6   0    3.20    3.00
   9 -16   0  499.25   15.90
   7   9   0  468.65   15.70
  16  -7   0  476.95   15.80
   8   8   0  216.68    9.60
  16  -8   0  224.88    9.90
  -8  16   0  255.17    9.80
   9   7   0   21.10    3.70
  16  -9   0   17.50    3.80
  -7  16   0   33.80    3.90
  10   6   0    9.80    3.20
  16 -10   0    2.10    3.20
  -6  16   0   10.50    3.10
  11   5   0  166.78    8.40
  16 -11   0  163.58    8.70
  -5  16   0  169.48    8.10
  12   4   0  306.87   11.60
  16 -12   0  285.77   11.80
  -4  16   0  303.47   11.40
  13   3   0  142.99    8.20
  16 -13   0  134.29    8.40
  -3  16   0  140.69    7.60
  14   2   0   54.19    5.40
  16 -14   0   49.40    5.50
  -2  16   0   62.89    5.60
  15   1   0  241.98   10.70
  -1  16   0  239.68   10.60
  16 -15   0  226.88   10.80
  16   0   0   71.09    6.40
   0  16   0   79.99    6.70
  16 -16   0   85.29    6.90
  16 -17   0   69.69    6.50
   1  16   0   72.99    6.30
  17  -1   0   63.49    6.20
   2  15   0  235.78   10.90
  15 -17   0  254.97   11.40
  17  -2   0  233.18   11.10
   3  14   0  169.38    9.20
  14 -17   0  166.58    9.60
  17  -3   0  174.18    9.40
   4  13   0   55.99    5.20
  13 -17   0   63.79    5.70
  17  -4   0   81.89    7.00
   5  12   0   57.79    5.30
  12 -17   0   71.89    5.90
  17  -5   0   69.89    5.90
  11 -17   0  113.49    7.70
   6  11   0  100.79    7.00
  17  -6   0  112.89    7.50
  10 -17   0   32.90    4.40
   7  10   0   32.70    4.30
  17  -7   0   36.40    4.60
   8   9   0  167.58    8.70
  17  -8   0  165.38    8.80
  -9  17   0  158.08    8.20
   9   8   0   20.00    3.90
  -8  17   0   12.90    3.40
  17  -9   0   12.30    3.70
  10   7   0   89.79    7.10
  -7  17   0   90.49    6.70
  17 -10   0   80.29    6.90
  11   6   0    7.80    3.50
  -6  17   0   16.10    3.70
  17 -11   0    5.60    3.80
  12   5   0  155.48    8.80
  17 -12   0  176.38    9.40
  -5  17   0  176.98    8.90
  13   4   0  434.66   15.20
  -4  17   0  419.76   14.90
  17 -13   0  418.96   15.60
  14   3   0   25.10    4.40
  -3  17   0   21.20    4.20
  17 -14   0   16.60    4.70
  15   2   0   71.79    6.40
  17 -15   0   63.39    6.20
  -2  17   0   71.99    6.20
  16   1   0   32.50    5.10
  17 -16   0   19.60    4.70
  -1  17   0   34.90    5.00
  17   0   0  102.49    8.60
   0  17   0  105.09    8.40
  17 -17   0   79.49    7.00
   1  17   0   59.09    6.50
  17 -18   0   62.29    6.80
  18  -1   0   66.89    6.80
   2  16   0    9.90    4.30
  16 -18   0    4.30    4.20
  18  -2   0    2.80    4.10
  15 -18   0   33.60    5.20
   3  15   0   45.70    5.30
  18  -3   0   35.90    5.10
  14 -18   0   26.20    4.80
   4  14   0   21.00    4.20
  18  -4   0   13.50    4.50
   5  13   0  184.98    9.90
  13 -18   0  188.98   10.10
  18  -5   0  199.78   10.20
   6  12   0   11.00    3.70
  12 -18   0    5.60    3.80
  18  -6   0    9.40    3.90
  11 -18   0  136.79    8.50
   7  11   0  147.99    8.60
  18  -7   0  150.28    8.70
   8  10   0  121.89    7.70
  10 -18   0  103.19    7.60
 -10  18   0  116.39    7.70
  18  -8   0  118.09    8.00
   9   9   0  136.39    8.10
  18  -9   0  130.79    8.20
  -9  18   0  134.99    8.00
  10   8   0  206.38    9.70
  -8  18   0  189.68    9.40
  18 -10   0  192.98   10.00
  11   7   0  156.18    8.70
  -7  18   0  149.09    8.50
  18 -11   0  172.38    9.60
  12   6   0   13.70    4.00
  18 -12   0   10.30    4.30
  -6  18   0    5.70    3.70
  13   5   0  214.08   10.30
  18 -13   0  224.68   11.30
  -5  18   0  215.58   10.20
  14   4   0  152.38    9.30
  18 -14   0  136.79    9.20
  -4  18   0  140.89    8.90
  15   3   0   38.60    5.40
  -3  18   0   41.20    5.30
  18 -15   0   44.20    5.60
  16   2   0    9.60    4.40
  -2  18   0    8.70    4.30
  18 -16   0    0.40    4.30
  17   1   0  193.58   11.10
  18 -17   0  197.88   11.40
  -1  18   0  216.78   11.10
  18   0   0  201.18   11.30
   0  18   0  210.88   11.20
  18 -18   0  197.18   11.60
   1  18   0   67.89    6.90
  18 -19   0   52.69    8.20
  19  -1   0   67.79    7.00
   2  17   0   19.00    5.00
  17 -19   0    8.90    5.20
  19  -2   0   16.90    5.10
   3  16   0    3.40    3.90
  16 -19   0   -0.50    4.50
  19  -3   0    5.20    4.50
  15 -19   0    7.50    4.40
   4  15   0   12.90    4.10
  19  -4   0   13.60    4.30
   5  14   0  183.68    9.90
  14 -19   0  208.18   10.70
  19  -5   0  187.18   10.50
  13 -19   0  116.59    8.80
   6  13   0  119.49    8.30
  19  -6   0  138.59    9.00
  12 -19   0   31.90    5.30
   7  12   0   34.80    5.00
  19  -7   0   29.40    5.10
   8  11   0  148.49    9.10
  11 -19   0  172.78    9.90
  19  -8   0  172.08    9.60
   9  10   0  119.59    8.10
  19  -9   0  105.39    8.20
 -10  19   0  109.69    8.40
  10   9   0   14.30    4.10
  19 -10   0    6.10    4.00
  -9  19   0    4.30    3.70
  11   8   0   11.50    4.10
  -8  19   0   17.80    4.20
  19 -11   0   11.00    4.40
  12   7   0   33.40    5.00
  19 -12   0   33.80    5.30
  -7  19   0   29.60    4.80
  13   6   0   17.50    4.50
  19 -13   0   15.90    4.90
  -6  19   0   15.80    4.10
  14   5   0    5.50    4.10
  -5  19   0    8.60    4.30
  19 -14   0    5.90    4.60
  15   4   0   56.69    6.20
  19 -15   0   51.19    6.30
  -4  19   0   67.69    6.40
  16   3   0  146.79   10.00
  -3  19   0  139.69    9.40
  19 -16   0  111.09    9.70
  17   2   0   10.30    4.80
  19 -17   0    3.10    4.70
  -2  19   0    9.90    4.80
  18   1   0   54.89    6.70
  -1  19   0   45.80    6.20
  19 -18   0   52.49   10.30
  19   0   0  110.89    9.40
   0  19   0  138.59   10.20
   1  19   0    3.10    5.20
  20  -1   0    6.40    5.50
   2  18   0   43.30    6.40
  20  -2   0   48.80    6.80
   3  17   0   67.69    6.80
  17 -20   0   45.10    7.40
  20  -3   0   65.09    7.10
   4  16   0   11.00    4.60
  16 -20   0   10.70    5.10
  20  -4   0   12.30    5.00
   5  15   0   74.99    6.90
  15 -20   0   62.29    6.50
  20  -5   0   62.79    6.70
  14 -20   0  156.08   10.30
   6  14   0  167.68   10.20
  20  -6   0  154.98    9.90
   7  13   0   24.60    5.00
  13 -20   0   23.20    5.10
  20  -7   0   16.60    4.90
  12 -20   0    6.20    4.40
   8  12   0    4.20    4.00
  20  -8   0   -2.80    4.10
   9  11   0   40.90    5.70
 -11  20   0   28.60    5.10
  20  -9   0   41.90    5.60
  10  10   0  132.99    9.00
  20 -10   0  127.39    9.30
 -10  20   0  119.69    8.80
  11   9   0  286.27   13.00
  -9  20   0  281.17   12.40
  20 -11   0  285.77   13.10
  12   8   0   21.90    5.00
  -8  20   0   23.80    5.00
  20 -12   0   26.50    5.50
  13   7   0  104.29    8.70
  -7  20   0  103.29    8.80
  20 -13   0   93.09    7.90
  14   6   0  134.89    9.40
  -6  20   0  141.19    9.60
  20 -14   0  130.49   10.60
  15   5   0  107.19    8.90
  20 -15   0   83.29    7.80
  -5  20   0  118.39    9.00
  16   4   0   34.00    6.10
  -4  20   0   39.80    6.00
  20 -16   0   42.80    6.10
  17   3   0    9.10    5.20
  -3  20   0   13.30    5.10
  18   2   0   10.50    5.50
  -2  20   0   16.60    5.50
  19   1   0   19.20    6.10
  -1  20   0    9.10    5.30
  20   0   0   11.30    6.00
   0  20   0    7.90    5.80
   1  20   0   35.00    6.70
  21  -1   0   35.30    6.90
   2  19   0   29.10    6.30
  21  -2   0   28.00    6.40
   3  18   0   61.89    7.40
  21  -3   0   75.59    7.90
   4  17   0   64.79    7.50
  21  -4   0   77.39    7.90
   5  16   0   12.70    5.20
  16 -21   0   12.90    5.50
  21  -5   0   22.70    5.70
  15 -21   0  124.09   10.30
   6  15   0  124.29   10.10
  21  -6   0  136.69   10.00
   7  14   0   10.30    5.00
  14 -21   0   14.40    5.20
  21  -7   0   21.40    5.50
  13 -21   0   -3.70    4.40
   8  13   0   -1.70    4.50
  21  -8   0   -3.40    4.40
   9  12   0    3.40    4.50
 -12  21   0    0.60    4.50
  21  -9   0    6.70    4.70
  10  11   0   66.69    7.10
 -11  21   0   57.99    6.50
  21 -10   0   69.99    6.80
  11  10   0  201.28   11.20
 -10  21   0  204.88   11.20
  21 -11   0  217.78   11.50
  12   9   0   69.89    7.20
  -9  21   0   71.69    6.90
  21 -12   0   74.89    7.40
  13   8   0   11.90    5.00
  -8  21   0   15.40    5.20
  21 -13   0   12.10    5.40
  14   7   0   17.10    5.40
  -7  21   0   23.90    5.40
  21 -14   0   27.80    6.10
  15   6   0    2.50    5.10
  -6  21   0    9.60    5.00
  21 -15   0    1.60    5.20
  16   5   0   25.30    5.80
  -5  21   0   36.10    6.10
  17   4   0   76.39    7.90
  -4  21   0   83.29    7.80
  18   3   0   12.90    6.00
  -3  21   0   10.40    5.60
  19   2   0   48.60    7.40
  -2  21   0   46.50    6.90
  20   1   0   13.90    6.40
  -1  21   0   16.80    6.10
  21   0   0   48.80    8.00
   0  21   0   50.29    7.60
   1  21   0   58.59    7.90
  22  -1   0   54.99    8.00
   2  20   0   20.50    6.50
  22  -2   0   14.00    6.40
   3  19   0   26.80    6.80
  22  -3   0   29.90    6.60
   4  18   0    6.40    5.60
  22  -4   0   -3.30    5.30
   5  17   0   32.10    6.30
  22  -5   0   27.20    6.30
   6  16   0   14.00    5.70
  22  -6   0   13.70    5.50
   7  15   0   15.00    5.60
  15 -22   0    8.70    5.90
  22  -7   0   14.90    5.60
   8  14   0  123.89   10.30
  14 -22   0  127.19   10.00
  22  -8   0  126.29   10.30
 -14  22   0   93.79    8.30
   9  13   0  167.88   10.80
 -13  22   0  148.39   10.80
  22  -9   0  182.18   11.90
  10  12   0   45.90    6.90
  22 -10   0   42.70    6.50
 -12  22   0   52.19    6.90
  11  11   0   37.70    6.30
 -11  22   0   37.00    6.40
  22 -11   0   34.80    6.30
  12  10   0   78.69    7.60
 -10  22   0   69.99    7.20
  22 -12   0   68.79    7.70
  13   9   0   12.10    5.20
  22 -13   0   14.70    5.90
  -9  22   0    5.40    5.30
  14   8   0   13.30    5.40
  22 -14   0   19.30    8.50
  -8  22   0    9.10    5.20
  15   7   0   31.50    6.30
  -7  22   0   38.90    6.50
  16   6   0  137.09   10.90
  -6  22   0  139.59   10.90
  17   5   0  150.38   11.60
  -5  22   0  150.58   11.40
  18   4   0    9.20    5.90
  -4  22   0    4.30    5.60
  19   3   0   70.49    8.30
  -3  22   0   84.89    8.50
  20   2   0   51.49    8.10
  -2  22   0   51.59    7.70
  21   1   0   16.10    6.80
  -1  22   0   12.10    6.50
  22   0   0    6.20    6.20
   0  22   0    6.50    6.40
   1  22   0   -0.20    6.40
  23  -1   0    9.30    6.60
   2  21   0   -1.90    6.00
  23  -2   0   20.10    7.00
   3  20   0   79.29    8.60
  23  -3   0   57.09    8.40
   4  19   0  185.18   12.80
  23  -4   0  168.18   12.90
   5  18   0   23.00    6.80
  23  -5   0   14.70    6.40
   6  17   0   52.59    7.60
  23  -6   0   52.49    7.50
   7  16   0   76.09    8.30
  23  -7   0   70.49    8.10
   8  15   0   21.80    6.20
  23  -8   0   15.10    6.20
   9  14   0    8.00    5.70
 -14  23   0    3.90    5.50
  23  -9   0    5.90    5.50
  10  13   0   28.50    6.30
  23 -10   0   17.50    6.00
 -13  23   0   20.90    6.00
  11  12   0    6.80    5.50
 -12  23   0    0.00    5.30
  23 -11   0   18.20    5.90
  12  11   0   21.40    5.90
  23 -12   0   24.00    6.50
 -11  23   0   10.70    5.70
  13  10   0    1.70    5.10
 -10  23   0   -1.40    5.20
  14   9   0   52.09    7.40
  -9  23   0   52.49    7.10
  15   8   0   11.10    5.80
  -8  23   0   14.70    6.10
  16   7   0   34.30    6.70
  -7  23   0   27.50    6.60
  17   6   0   84.69    8.80
  -6  23   0   86.29    8.80
  18   5   0   15.60    6.20
  -5  23   0    8.50    6.30
  19   4   0   33.80    7.30
  -4  23   0   40.50    7.40
  20   3   0   12.60    6.70
  -3  23   0   15.20    6.60
  21   2   0   65.49    8.80
  -2  23   0   60.49    8.70
  22   1   0   78.79    9.50
  -1  23   0   92.29    9.70
  23   0   0   44.80    8.30
   0  23   0   29.10    8.10
   2  22   0    6.20    7.20
  24  -2   0    7.60    7.10
   3  21   0    3.60    6.80
  24  -3   0    4.90    6.80
   4  20   0   99.29    9.60
  24  -4   0   70.59    9.00
   5  19   0   42.40    7.90
  24  -5   0   50.59    7.90
   6  18   0   16.70    6.70
  24  -6   0    2.70    6.20
   7  17   0   18.60    6.60
  24  -7   0   17.50    6.70
   8  16   0   19.60    6.80
  24  -8   0    3.90    6.40
   9  15   0  176.68   11.90
  24  -9   0  157.18   12.40
  10  14   0   77.99    8.50
  24 -10   0   70.79    8.30
  11  13   0   39.50    7.20
 -13  24   0   19.20    6.90
  12  12   0   58.49    7.80
 -12  24   0   55.29    8.00
  13  11   0   35.50    6.80
 -11  24   0   24.40    7.20
  14  10   0   47.80    7.50
 -10  24   0   33.70    7.20
  15   9   0   66.89    8.00
  -9  24   0   52.79    8.00
  16   8   0   26.70    6.70
  -8  24   0   34.10    7.30
  17   7   0    2.50    6.00
  -7  24   0    2.60    6.10
  18   6   0   21.30    6.80
  -6  24   0   16.70    7.10
  19   5   0   15.20    6.70
  -5  24   0    9.60    6.90
  20   4   0   13.10    7.30
  -4  24   0   14.50    7.10
  21   3   0   64.09    9.10
  -3  24   0   54.59    8.90
  22   2   0  110.39   10.90
  -2  24   0  106.39   10.70
   5  20   0    4.00    7.00
  25  -5   0   16.90    7.40
   6  19   0    0.60    6.40
  25  -6   0    4.70    6.80
   7  18   0   -9.10    6.00
  25  -7   0   -6.40    6.50
   8  17   0    5.10    6.60
  25  -8   0   11.20    7.00
   9  16   0   81.29    9.10
  25  -9   0   67.19   10.80
  10  15   0  169.88   13.10
  11  14   0   20.40    7.00
  12  13   0   36.40    7.50
  13  12   0   19.50    6.70
 -12  25   0   19.40    7.80
  14  11   0    0.00    6.40
 -11  25   0   -9.10    6.40
  15  10   0   33.80    7.30
 -10  25   0   27.10    7.60
  16   9   0   14.80    6.80
  -9  25   0   13.60    7.10
  17   8   0   12.90    6.90
  -8  25   0    6.50    7.10
  18   7   0    8.20    7.10
  -7  25   0    4.00    7.00
  19   6   0   -1.50    6.90
  -6  25   0   -0.10    7.30
  20   5   0   30.90    8.20
  -5  25   0   36.10    8.30
   9  17   0   -1.30    7.20
  10  16   0   32.40    8.10
  11  15   0   12.40    7.10
  12  14   0   -6.10    6.20
  13  13   0    3.20    6.40
  14  12   0   22.10    7.80
  15  11   0  105.49   10.40
 -11  26   0  131.69   15.90
  16  10   0   68.59    9.60
 -10  26   0   86.69   10.10
  17   9   0   16.80    8.10
  -9  26   0   35.60    8.60
  18   8   0   31.40   12.70
   0   0   1 8989.40  244.88
   0  -1   1 1607.84   40.50
   1   0   1 1618.54   40.40
   1   0  -1 1615.14   40.80
   0   1   1 1625.74   40.90
   1  -1   1 1655.63   41.10
   0   1   1 1641.64   41.00
   2  -1  -1  239.28    6.00
   1   1   1  224.98    6.10
   1  -2   1  220.78    6.20
   3  -2  -1  463.25   12.10
   1  -3   1  476.05   12.50
   2   1   1  471.35   12.40
   2  -2  -1  916.01   23.60
   0   2  -1  965.30   23.80
   2   0   1  907.71   23.80
   0  -2   1  952.70   23.80
   1   1  -1  229.68    6.10
   2  -1   1  220.98    6.20
  -1   2   1  229.68    5.90
   2   0  -1  940.51   23.60
   0   2   1  926.01   23.60
   2  -2   1  930.21   23.80
   3  -1  -1   57.49    2.10
   2  -3   1   55.39    2.30
   1   2   1   58.79    2.20
   4  -2  -1   68.19    2.60
   2   2   1   75.89    2.80
   2  -4   1   68.49    2.90
   5  -3  -1   55.29    2.40
   3   2   1   55.49    2.70
   2  -5   1   57.29    2.80
   4  -3  -1    8.50    1.00
   3   1   1    8.50    1.20
   1  -4   1   10.80    1.30
   0   3  -1  197.78    5.70
   3  -3  -1  191.98    5.50
  -3   3   1  202.38    5.60
   3   0   1  194.18    5.80
   1   2  -1   58.29    2.30
   2  -3  -1   60.79    2.10
   3  -1   1   57.09    2.40
   2   1  -1  476.95   12.30
  -1   3   1  465.75   12.20
   3  -2   1  464.65   12.40
   3   0  -1  188.08    5.50
   3  -3   1  195.18    5.80
   0   3   1  195.18    5.50
   4  -1  -1   62.59    2.50
   1   3   1   59.19    2.50
   3  -4   1   65.29    2.90
   5  -2  -1  413.96   11.20
   2   3   1  412.56   11.40
   3  -5   1  412.76   11.50
   6  -3  -1   17.10    1.50
   3   3   1   15.00    1.60
   3  -6   1   15.10    1.70
   7  -4  -1   10.40    1.40
   4   3   1   10.30    1.60
   3  -7   1    9.40    1.60
   6  -4  -1 2868.21   73.39
   2  -6   1 2929.51   73.69
   4   2   1 2932.21   73.59
  -1   5  -1 2844.72   71.89
   5  -4  -1 2835.92   71.69
   4   1   1 2863.31   71.99
   0   4  -1    0.40    1.00
   4  -4  -1    3.10    1.00
   4   0   1    1.80    1.00
  -4   4   1    2.10    0.90
   3  -4  -1   60.09    2.40
   1   3  -1   64.29    2.60
   4  -1   1   59.89    2.60
   2  -4  -1   69.79    2.60
   2   2  -1   71.49    2.80
   4  -2   1   67.19    2.80
   3   1  -1   10.10    1.20
   4  -3   1   10.00    1.30
  -1   4   1    9.50    1.10
   4   0  -1    1.90    1.00
   4  -4   1    1.40    1.20
   0   4   1    1.40    0.90
   5  -1  -1  751.92   20.30
   1   4   1  799.62   20.50
   4  -5   1  786.22   20.70
   6  -2  -1  705.73   18.70
   4  -6   1  715.43   19.00
   2   4   1  695.23   18.80
   7  -3  -1   93.49    3.70
   3   4   1   95.79    3.90
   4  -7   1   89.79    4.00
   8  -4  -1  463.75   13.10
   4  -8   1  475.55   13.50
   4   4   1  465.95   13.30
   9  -5  -1   31.20    2.60
   4  -9   1   29.00    2.60
   5   4   1   30.40    2.60
   8  -5  -1  198.58    6.50
   5   3   1  201.08    6.70
   3  -8   1  197.88    6.80
  -2   7  -1  599.34   16.00
   7  -5  -1  563.84   15.70
   2  -7   1  598.94   16.10
   5   2   1  565.84   16.00
  -1   6  -1 2588.24   65.69
   6  -5  -1 2601.84   65.59
   5   1   1 2574.44   65.69
   0   5  -1   64.69    3.00
   5  -5  -1   61.39    3.00
   5   0   1   63.59    3.10
  -5   5   1   71.59    2.80
   4  -5  -1  752.22   20.20
   1   4  -1  797.62   20.50
   5  -1   1  776.12   20.50
   2   3  -1  412.16   11.50
   3  -5  -1  425.76   11.30
   5  -2   1  413.76   11.50
   3   2  -1   56.59    2.60
   5  -3   1   59.69    2.90
  -2   5   1   52.09    2.40
   4   1  -1 2898.51   72.29
  -1   5   1 2856.71   72.19
   5  -4   1 2841.92   72.49
   5   0  -1   68.59    2.90
   0   5   1   66.69    3.00
   5  -5   1   60.49    3.30
   6  -1  -1  439.96   12.20
   1   5   1  431.36   12.30
   5  -6   1  456.95   12.60
   7  -2  -1  121.29    4.40
   5  -7   1  112.69    4.60
   2   5   1  125.09    4.60
   8  -3  -1   16.30    1.80
   3   5   1   17.50    2.00
   5  -8   1   14.90    1.90
   9  -4  -1   68.69    3.60
   5  -9   1   79.09    4.00
   4   5   1   71.49    3.80
  10  -5  -1    6.80    1.70
   5 -10   1    6.40    1.90
   5   5   1    6.20    1.90
  11  -6  -1  282.27    9.30
   6   5   1  290.37    9.70
   5 -11   1  286.67    9.60
  10  -6  -1  151.68    5.80
   4 -10   1  150.98    6.10
   6   4   1  154.18    6.10
  -3   9  -1  112.99    4.80
   9  -6  -1  112.99    4.60
   6   3   1  113.09    5.00
   3  -9   1  123.09    5.00
  -2   8  -1  646.44   17.70
   8  -6  -1  630.54   17.50
   6   2   1  652.23   17.80
   7  -6  -1    5.70    1.50
  -1   7  -1    7.00    1.40
   6   1   1    5.80    1.40
  -7   6   1    6.10    1.20
   6  -6  -1   17.60    1.80
   0   6  -1   21.20    1.90
  -6   6   1   23.40    1.90
   6   0   1   20.50    1.90
   5  -6  -1  441.96   12.10
   1   5  -1  439.06   12.20
   6  -1   1  426.26   12.30
   4  -6  -1  730.73   18.80
   2   4  -1  711.93   19.00
   6  -2   1  687.13   19.00
   3  -6  -1   16.70    1.50
   3   3  -1   14.80    1.60
   6  -3   1   16.50    1.70
   4   2  -1 2949.10   76.19
  -2   6   1 3171.18   75.99
   6  -4   1 2921.81   76.19
   5   1  -1 2618.84   65.69
  -1   6   1 2532.65   65.49
   6  -5   1 2615.54   65.89
   6   0  -1   20.40    1.80
   0   6   1   21.20    1.80
   6  -6   1   21.40    2.10
   7  -1  -1   41.70    2.70
   6  -7   1   42.00    3.00
   1   6   1   42.60    2.60
   8  -2  -1   97.89    4.20
   2   6   1  107.89    4.30
   6  -8   1  101.89    4.60
   9  -3  -1  125.89    4.90
   6  -9   1  116.19    5.10
   3   6   1  119.99    5.00
  10  -4  -1  132.79    5.30
   4   6   1  122.49    5.40
   6 -10   1  124.29    5.60
  11  -5  -1  413.46   12.50
   6 -11   1  404.96   12.70
   5   6   1  417.76   12.70
  12  -6  -1  292.47    9.90
   6 -12   1  311.37   10.20
   6   6   1  296.57   10.10
  13  -7  -1   10.00    2.40
   7   6   1    8.20    2.40
   6 -13   1    9.80    2.50
  12  -7  -1  165.58    6.70
   5 -12   1  163.48    6.90
   7   5   1  169.28    6.90
  -4  11  -1   10.10    2.20
  11  -7  -1   18.80    2.30
   7   4   1   15.10    2.50
  -3  10  -1  213.68    7.50
  10  -7  -1  225.48    7.50
   7   3   1  212.38    7.70
  -2   9  -1  283.07    9.30
   9  -7  -1  302.87    9.30
   7   2   1  303.97    9.50
  -1   8  -1  374.36   11.00
   8  -7  -1  373.06   11.00
   7   1   1  354.96   11.00
  -8   7   1  371.16   10.40
   0   7  -1  325.67   10.00
   7  -7  -1  333.77    9.90
  -7   7   1  346.67    9.60
   7   0   1  325.47   10.00
   6  -7  -1   40.50    2.70
   1   6  -1   41.60    2.70
   7  -1   1   45.10    2.80
   2   5  -1  118.09    4.60
   5  -7  -1  123.49    4.40
   7  -2   1  118.99    4.70
   3   4  -1   91.99    4.00
   4  -7  -1  100.59    3.80
   7  -3   1   98.99    4.10
   4   3  -1   10.40    1.50
   7  -4   1    8.60    1.60
  -3   7   1    8.50    1.30
   5   2  -1  589.14   16.10
   7  -5   1  576.54   16.20
  -2   7   1  604.34   16.00
   6   1  -1    5.50    1.40
  -1   7   1    6.30    1.30
   7  -6   1    6.60    1.60
   7   0  -1  334.17    9.90
   7  -7   1  324.07   10.20
   0   7   1  331.67    9.80
   8  -1  -1   48.70    3.10
   1   7   1   44.50    3.00
   7  -8   1   47.80    3.50
   9  -2  -1  176.48    6.50
   2   7   1  189.18    6.70
   7  -9   1  187.78    6.90
  10  -3  -1 2322.17   58.79
   7 -10   1 2247.18   59.09
   3   7   1 2279.67   58.89
  11  -4  -1  194.18    7.10
   4   7   1  175.68    7.30
   7 -11   1  198.18    7.50
  12  -5  -1  277.07    9.30
   5   7   1  263.97    9.40
   7 -12   1  271.67    9.50
  13  -6  -1   31.60    3.20
   6   7   1   30.30    3.30
   7 -13   1   23.30    3.10
  14  -7  -1  130.69    6.40
   7   7   1  124.59    6.50
   7 -14   1  150.38    6.90
  15  -8  -1   20.00    3.20
  -7  15  -1   16.40    3.00
   8   7   1    9.40    2.80
   7 -15   1   14.00    3.20
  -6  14  -1   58.09    5.00
  14  -8  -1   65.29    4.80
   8   6   1   68.79    5.00
  -5  13  -1   34.30    3.40
  13  -8  -1   38.30    3.40
   8   5   1   52.09    4.30
  12  -8  -1  263.87    9.30
  -4  12  -1  275.37    9.60
   8   4   1  291.87    9.80
  11  -8  -1  875.01   23.30
  -3  11  -1  836.62   23.20
   8   3   1  807.22   23.30
  10  -8  -1  275.77    9.20
  -2  10  -1  280.57    9.20
   8   2   1  281.77    9.30
   9  -8  -1   94.19    4.70
  -1   9  -1   99.49    4.70
  -9   8   1  101.29    4.00
   8   1   1  101.09    4.70
   8  -8  -1    1.20    1.50
   0   8  -1   -0.40    1.30
  -8   8   1    2.70    1.20
   8   0   1    2.00    1.50
   1   7  -1   50.59    3.10
   7  -8  -1   50.59    3.20
   8  -1   1   46.10    3.30
   6  -8  -1  105.59    4.30
   2   6  -1  103.69    4.50
   8  -2   1  103.99    4.50
   5  -8  -1   16.10    1.80
   3   5  -1   15.90    1.80
   8  -3   1   18.60    2.10
   4   4  -1  460.85   13.30
   4  -8  -1  467.75   13.10
   8  -4   1  466.65   13.30
   5   3  -1  195.68    6.50
   8  -5   1  186.08    6.60
  -3   8   1  197.08    6.30
   6   2  -1  639.54   17.80
   8  -6   1  641.54   18.10
  -2   8   1  666.63   17.70
   7   1  -1  359.36   10.80
   8  -7   1  351.66   11.10
  -1   8   1  368.86   10.70
   8   0  -1    1.10    1.30
   8  -8   1   -1.20    1.50
   0   8   1    2.10    1.30
   9  -1  -1   50.09    3.50
   1   8   1   55.99    3.50
   8  -9   1   47.10    3.70
  10  -2  -1  701.33   19.60
   2   8   1  700.33   19.70
   8 -10   1  709.63   20.00
  11  -3  -1  906.31   24.90
   3   8   1  889.71   24.90
   8 -11   1  928.51   25.20
  12  -4  -1  146.69    6.20
   8 -12   1  136.89    6.40
   4   8   1  143.19    6.30
  13  -5  -1  174.88    7.10
   8 -13   1  161.78    7.30
   5   8   1  155.18    7.10
  14  -6  -1   54.99    4.60
   8 -14   1   50.59    4.30
   6   8   1   42.90    3.90
  15  -7  -1  195.68    8.50
   8 -15   1  207.08    8.80
   7   8   1  206.18    8.80
  16  -8  -1  204.38    9.00
   8   8   1  191.08    9.20
   8 -16   1  220.98    9.40
  17  -9  -1   20.10    3.70
  -8  17  -1   19.60    3.80
   9   8   1   13.30    3.60
  -7  16  -1   17.30    3.40
  16  -9  -1   19.50    3.60
   9   7   1   11.60    3.50
  -6  15  -1   57.99    5.10
  15  -9  -1   49.60    4.40
   9   6   1   57.69    4.70
  -5  14  -1  323.27   11.10
  14  -9  -1  320.17   11.10
   9   5   1  314.17   11.30
  13  -9  -1   61.09    4.60
  -4  13  -1   56.89    4.30
   9   4   1   39.00    3.70
  12  -9  -1 1470.85   39.50
  -3  12  -1 1486.25   39.40
   9   3   1 1476.55   39.60
  -2  11  -1  378.66   11.50
  11  -9  -1  348.17   11.40
   9   2   1  321.17   11.30
  -1  10  -1   12.50    2.20
  10  -9  -1   14.30    2.40
 -10   9   1   13.90    1.90
   9   1   1   11.90    2.30
   0   9  -1   46.30    3.40
   9  -9  -1   45.20    3.50
  -9   9   1   51.89    3.00
   9   0   1   50.79    3.60
   1   8  -1   51.59    3.50
   8  -9  -1   45.30    3.40
   9  -1   1   58.79    3.70
   2   7  -1  181.48    6.60
   7  -9  -1  186.68    6.50
   9  -2   1  184.68    6.70
   6  -9  -1  119.19    4.90
   3   6  -1  127.19    5.20
   9  -3   1  126.49    5.20
   4   5  -1   73.59    3.90
   5  -9  -1   77.29    3.70
   9  -4   1   70.89    3.80
   5   4  -1   28.40    2.40
  -4   9   1   28.90    2.40
   9  -5   1   26.30    2.50
   6   3  -1  112.49    4.80
  -3   9   1  113.99    4.60
   9  -6   1  114.29    4.80
   7   2  -1  278.67    9.20
   9  -7   1  308.67    9.70
  -2   9   1  286.57    9.00
   8   1  -1   97.49    4.60
   9  -8   1  103.89    5.10
  -1   9   1  108.39    4.60
   9   0  -1   48.90    3.60
   9  -9   1   43.90    3.80
   0   9   1   48.30    3.40
  10  -1  -1  220.38    7.90
   1   9   1  225.88    7.80
   9 -10   1  213.48    8.10
  11  -2  -1   53.89    4.10
   2   9   1   55.29    4.30
   9 -11   1   47.00    3.90
  12  -3  -1  316.87   10.50
   3   9   1  308.47   10.50
   9 -12   1  313.77   10.80
  13  -4  -1  229.48    8.70
   4   9   1  233.88    8.90
   9 -13   1  249.88    9.20
  14  -5  -1   28.50    3.40
   5   9   1   19.30    2.90
   9 -14   1   24.20    3.40
  15  -6  -1   81.29    5.70
   6   9   1   87.69    5.90
   9 -15   1   95.19    6.10
  16  -7  -1  374.46   13.10
   9 -16   1  390.26   13.50
   7   9   1  362.16   13.10
  17  -8  -1   99.69    7.00
   8   9   1   91.09    7.20
   9 -17   1  113.99    7.40
  -9  18  -1   86.69    7.30
  18  -9  -1  104.59    7.50
   9   9   1   83.59    7.00
  -9  19  -1   10.10    3.90
  19 -10  -1    4.70    3.80
  10   9   1    0.80    3.60
  18 -10  -1  107.59    7.30
  -8  18  -1  116.09    7.80
  10   8   1  105.69    7.50
  17 -10  -1   93.19    6.70
  -7  17  -1   90.39    6.70
  10   7   1   86.79    6.70
  16 -10  -1   20.20    3.70
  -6  16  -1   20.00    3.50
  10   6   1   11.00    3.40
  -5  15  -1    4.70    2.60
  15 -10  -1    6.00    2.80
  10   5   1    3.80    2.60
  -4  14  -1  296.87   10.40
  14 -10  -1  283.97   10.40
  10   4   1  259.97   10.40
  13 -10  -1   13.40    2.80
  -3  13  -1    4.70    2.30
  10   3   1    6.00    2.30
  -2  12  -1   64.09    4.70
  12 -10  -1   71.29    5.10
  10   2   1   73.79    5.00
  -1  11  -1  111.19    5.50
  11 -10  -1   93.49    5.60
  10   1   1  101.79    5.60
 -11  10   1  112.89    4.70
  10 -10  -1  387.56   12.10
   0  10  -1  393.16   12.10
 -10  10   1  392.46   11.50
  10   0   1  379.46   12.30
   9 -10  -1  211.18    7.80
   1   9  -1  227.38    8.00
  10  -1   1  233.98    8.20
   8 -10  -1  735.33   19.80
   2   8  -1  696.83   19.90
  10  -2   1  691.03   19.90
   7 -10  -1 2248.88   58.39
   3   7  -1 2303.57   58.69
  10  -3   1 2256.57   58.59
   6 -10  -1  118.79    5.10
   4   6  -1  124.59    5.30
  10  -4   1  115.39    5.40
   5 -10  -1    6.70    1.70
   5   5  -1    6.30    1.80
  10  -5   1    6.50    2.00
   6   4  -1  156.68    6.00
  10  -6   1  144.19    6.00
  -4  10   1  147.29    5.60
   7   3  -1  207.28    7.60
  -3  10   1  214.88    7.30
  10  -7   1  220.08    7.80
   8   2  -1  292.97    9.50
  -2  10   1  287.97    9.20
  10  -8   1  286.67    9.80
   9   1  -1   11.80    2.20
  -1  10   1   13.80    2.20
  10  -9   1   11.20    2.50
  10   0  -1  395.06   12.10
  10 -10   1  378.66   12.50
   0  10   1  385.36   12.00
  11  -1  -1  169.18    7.00
   1  10   1  172.38    6.90
  10 -11   1  176.58    7.40
  12  -2  -1  229.08    8.50
   2  10   1  224.28    8.50
  10 -12   1  237.48    8.90
  13  -3  -1   60.79    4.70
   3  10   1   57.69    4.80
  10 -13   1   58.99    5.00
  14  -4  -1   43.80    3.90
  10 -14   1   38.00    4.00
   4  10   1   37.00    4.00
  15  -5  -1    1.20    2.60
  10 -15   1    2.00    2.70
   5  10   1   -1.40    2.20
  16  -6  -1   11.00    3.20
   6  10   1   11.30    3.30
  10 -16   1   10.40    3.30
  17  -7  -1   24.50    3.90
   7  10   1   19.30    3.80
  10 -17   1   32.30    4.50
  18  -8  -1   82.49    7.20
  10 -18   1   77.69    6.30
   8  10   1   61.59    5.70
  19  -9  -1   64.89    5.90
 -10  19  -1   60.69    5.80
   9  10   1   43.90    5.60
  20 -10  -1   45.00    5.50
 -10  20  -1   38.30    5.60
  10  10   1   67.59    6.50
  21 -11  -1  113.89    9.50
 -10  21  -1  107.29    9.20
  11  10   1   86.29    7.70
  20 -11  -1  179.78   10.30
  -9  20  -1  154.88    9.90
  11   9   1  164.78   10.10
  19 -11  -1   19.70    4.60
  -8  19  -1   19.40    4.50
  11   8   1   16.10    4.30
  -7  18  -1   92.09    7.00
  18 -11  -1  108.39    7.90
  11   7   1   86.39    7.10
  17 -11  -1   16.20    3.90
  -6  17  -1   14.90    3.50
  11   6   1   12.20    3.50
  16 -11  -1  140.99    8.00
  -5  16  -1  147.19    7.60
  11   5   1  122.99    7.40
  15 -11  -1    0.80    2.70
  -4  15  -1    6.70    2.70
  11   4   1    2.60    2.50
  -3  14  -1  212.18    8.50
  14 -11  -1  208.48    8.90
  11   3   1  201.08    8.80
  -2  13  -1  330.57   11.20
  13 -11  -1  320.37   11.30
  11   2   1  320.87   11.20
  -1  12  -1  120.29    5.90
  12 -11  -1  113.49    6.20
  11   1   1  126.29    6.20
   0  11  -1   11.70    2.30
  11 -11  -1    9.20    2.50
  11   0   1   14.30    2.70
 -11  11   1   14.10    2.20
  10 -11  -1  174.28    7.00
   1  10  -1  175.38    6.90
  11  -1   1  162.88    7.10
   2   9  -1   61.59    4.20
   9 -11  -1   49.90    4.00
  11  -2   1   50.09    4.30
   3   8  -1  916.91   25.10
   8 -11  -1  926.01   24.90
  11  -3   1  887.21   25.10
   7 -11  -1  179.98    7.10
   4   7  -1  198.18    7.40
  11  -4   1  206.48    7.70
   6 -11  -1  400.56   12.30
   5   6  -1  419.06   12.60
  11  -5   1  403.26   12.60
   6   5  -1  309.87   10.10
  -5  11   1  311.27    9.70
  11  -6   1  294.97   10.10
   7   4  -1   18.30    2.60
  11  -7   1   12.80    2.40
  -4  11   1   16.40    2.20
   8   3  -1  826.42   23.40
  -3  11   1  849.72   23.20
  11  -8   1  861.01   23.80
   9   2  -1  345.07   11.00
  -2  11   1  343.07   10.80
  11  -9   1  325.97   11.40
  10   1  -1  117.09    5.60
  -1  11   1   94.99    5.40
  11 -10   1  108.89    6.10
  11   0  -1   15.20    2.50
  11 -11   1   15.40    3.00
   0  11   1    7.20    2.30
  12  -1  -1   62.99    4.80
  11 -12   1   49.10    4.20
   1  11   1   63.39    4.70
  13  -2  -1   37.90    3.70
   2  11   1   36.30    3.70
  11 -13   1   38.70    4.10
  14  -3  -1   52.49    4.30
   3  11   1   44.90    4.20
  11 -14   1   47.60    4.50
  15  -4  -1    3.40    2.70
   4  11   1    0.00    2.60
  11 -15   1    1.20    2.70
  16  -5  -1  129.09    7.40
  11 -16   1  123.19    7.50
   5  11   1  107.49    6.90
  17  -6  -1   92.99    6.80
   6  11   1   88.29    7.10
  11 -17   1  101.79    7.20
  18  -7  -1  125.79    8.00
  11 -18   1  113.19    8.20
   7  11   1  121.29    7.80
  19  -8  -1   95.69    8.10
  11 -19   1   93.69    7.20
   8  11   1   86.49    7.50
 -11  20  -1    7.80    4.50
  20  -9  -1   13.60    4.40
   9  11   1    6.50    4.30
  21 -10  -1   38.80    5.80
 -11  21  -1   29.30    5.70
  10  11   1   48.20    6.40
  22 -11  -1   26.10    6.30
 -11  22  -1   19.80    5.90
  11  11   1   31.80    6.00
 -11  23  -1    3.80    5.60
  12  11   1   11.00    5.70
 -10  22  -1   63.09    7.00
  12  10   1   54.69    6.80
  -9  21  -1   43.00    5.80
  21 -12  -1   32.00    5.90
  12   9   1   22.10    5.40
  20 -12  -1   14.40    4.80
  -8  20  -1   22.30    4.90
  12   8   1   14.90    4.60
  19 -12  -1   12.00    4.40
  -7  19  -1   16.30    4.30
  12   7   1   17.30    4.30
  18 -12  -1    2.40    3.90
  -6  18  -1    6.90    3.70
  12   6   1    8.20    3.80
  -5  17  -1   99.89    7.20
  17 -12  -1   86.99    7.40
  12   5   1   84.39    6.80
  16 -12  -1  156.08    8.50
  -4  16  -1  155.08    7.80
  12   4   1  144.39    7.90
  15 -12  -1   54.79    5.00
  -3  15  -1   46.90    4.40
  12   3   1   49.80    4.60
  14 -12  -1   76.19    5.80
  -2  14  -1   69.89    5.20
  12   2   1   52.39    4.60
  -1  13  -1  240.38    9.30
  13 -12  -1  241.68    9.50
  12   1   1  238.18    9.60
   0  12  -1   38.40    3.70
  12 -12  -1   38.70    3.90
 -12  12   1   44.60    3.90
  12   0   1   38.90    4.00
   1  11  -1   64.49    4.80
  11 -12  -1   66.99    4.80
  12  -1   1   64.49    5.00
 -11  12   1   59.99    4.10
   2  10  -1  237.38    8.70
  10 -12  -1  232.28    8.60
  12  -2   1  229.48    8.80
   3   9  -1  306.77   10.40
   9 -12  -1  303.87   10.20
  12  -3   1  310.17   10.60
   4   8  -1  148.49    6.40
   8 -12  -1  136.69    6.00
  12  -4   1  142.09    6.50
   7 -12  -1  286.97    9.60
   5   7  -1  278.77    9.60
  12  -5   1  278.17    9.70
   6   6  -1  295.27   10.00
   6 -12  -1  292.17    9.70
  12  -6   1  284.77   10.00
   7   5  -1  160.78    6.70
  -5  12   1  157.68    6.30
  12  -7   1  155.68    6.60
   8   4  -1  282.87    9.70
  12  -8   1  266.57    9.70
  -4  12   1  276.77    9.30
   9   3  -1 1486.45   39.90
  -3  12   1 1524.55   39.70
  12  -9   1 1478.85   40.30
 -12  10  -1   73.09    3.60
  10   2  -1   82.09    5.20
  -2  12   1   69.89    4.80
  12 -10   1   70.39    5.50
  11   1  -1  123.29    6.20
  12 -11   1  124.89    6.60
  -1  12   1  124.49    5.90
  12   0  -1   42.80    3.80
  12 -12   1   39.20    4.10
   0  12   1   37.80    3.60
  13  -1  -1  354.86   11.90
  12 -13   1  352.66   12.40
   1  12   1  336.17   11.80
  14  -2  -1  259.37   10.00
   2  12   1  262.77   10.10
  12 -14   1  257.47   10.50
  15  -3  -1    2.50    2.70
  12 -15   1    2.00    3.10
   3  12   1   -4.30    2.70
  16  -4  -1  121.59    7.40
   4  12   1  115.89    7.40
  12 -16   1  131.59    7.90
  17  -5  -1   42.20    4.80
   5  12   1   37.20    4.60
  12 -17   1   40.80    4.90
  18  -6  -1   11.10    3.70
   6  12   1   -4.20    3.20
  12 -18   1    4.10    3.80
  19  -7  -1   14.30    4.20
  12 -19   1   10.70    4.50
   7  12   1    5.70    3.90
  20  -8  -1   -4.30    3.80
  12 -20   1    9.90    4.50
   8  12   1   -1.80    4.10
 -12  21  -1  -12.80    4.30
  21  -9  -1   -1.50    4.30
   9  12   1   -1.00    4.50
  22 -10  -1   28.90    5.70
 -12  22  -1   14.70    5.50
  10  12   1   21.60    5.80
 -12  23  -1    6.60    5.50
  11  12   1   15.10    5.80
 -12  24  -1   22.90    6.80
  12  12   1   31.90    6.90
 -12  25  -1   24.90    7.30
  13  12   1   -0.60    6.20
 -11  24  -1   10.20    6.30
  13  11   1    6.50    6.30
 -10  23  -1   -5.10    5.10
  13  10   1    9.80    5.50
  -9  22  -1    8.50    5.30
  13   9   1   -3.00    5.00
  -8  21  -1   12.40    5.00
  13   8   1   11.00    5.20
  20 -13  -1   67.39    7.00
  -7  20  -1   65.79    6.30
  13   7   1   64.49    6.70
  -6  19  -1   29.10    4.70
  19 -13  -1   16.70    4.70
  13   6   1   21.20    4.50
  -5  18  -1  183.78    9.80
  18 -13  -1  185.68   10.20
  13   5   1  188.28    9.70
  -4  17  -1  192.08    9.40
  17 -13  -1  182.58   10.00
  13   4   1  198.38    9.80
  -3  16  -1   58.09    5.00
  16 -13  -1   61.49    5.50
  13   3   1   55.39    5.30
  -2  15  -1   40.40    4.30
  15 -13  -1   41.10    4.40
  13   2   1   40.90    4.60
  14 -13  -1   39.30    4.20
  -1  14  -1   37.90    4.10
  13   1   1   31.40    4.00
   0  13  -1   17.80    3.00
  13 -13  -1   14.10    3.10
 -13  13   1   15.70    3.00
  13   0   1   20.80    3.50
  12 -13  -1  340.27   11.90
   1  12  -1  365.56   12.20
  13  -1   1  342.97   12.10
 -12  13   1  349.57   11.40
   2  11  -1   36.90    3.60
  11 -13  -1   38.80    3.80
  13  -2   1   31.50    3.60
  10 -13  -1   62.69    4.60
   3  10  -1   57.69    4.50
  13  -3   1   56.09    4.40
   4   9  -1  213.78    8.60
   9 -13  -1  232.08    8.60
  13  -4   1  231.28    8.90
   8 -13  -1  161.18    6.90
   5   8  -1  165.88    7.10
  13  -5   1  172.48    7.40
   7 -13  -1   31.30    3.20
   6   7  -1   37.10    3.50
  13  -6   1   29.60    3.40
   7   6  -1    7.50    2.20
  13  -7   1    5.90    2.50
  -6  13   1   12.70    2.20
   8   5  -1   39.50    3.70
  13  -8   1   38.90    3.70
  -5  13   1   38.40    3.30
   9   4  -1   43.00    3.80
  -4  13   1   48.20    4.20
  13  -9   1   67.99    5.10
  10   3  -1    9.40    2.50
  -3  13   1    9.00    2.30
  13 -10   1   11.10    3.00
 -13  11  -1  305.17    9.70
  11   2  -1  341.57   11.40
  -2  13   1  330.17   11.10
  13 -11   1  333.37   12.00
  12   1  -1  234.08    9.20
  -1  13   1  225.98    9.00
  13 -12   1  232.78    9.70
  13   0  -1   20.30    3.40
   0  13   1   19.20    3.10
  13 -13   1   17.20    3.70
  14  -1  -1  468.25   15.10
  13 -14   1  451.85   15.30
   1  13   1  441.16   14.80
  15  -2  -1  252.07   10.10
   2  13   1  246.68   10.10
  13 -15   1  249.08   10.80
  16  -3  -1   17.20    3.80
   3  13   1   20.50    3.90
  13 -16   1   13.60    3.90
  17  -4  -1   32.10    4.40
  13 -17   1   31.00    4.70
   4  13   1   36.40    4.80
  18  -5  -1  110.49    8.10
   5  13   1  116.39    8.30
  13 -18   1  123.59    8.50
  19  -6  -1  126.69    8.40
   6  13   1  103.79    8.10
  13 -19   1  105.49    8.40
  20  -7  -1    7.50    4.30
  13 -20   1   11.00    4.70
   7  13   1    8.20    4.50
  21  -8  -1    4.20    4.60
  13 -21   1   -3.40    4.40
   8  13   1    8.20    4.80
 -13  22  -1   62.69    7.30
  22  -9  -1   58.49    7.00
   9  13   1   74.29    7.70
 -13  23  -1   31.30    6.60
  10  13   1   26.70    6.20
 -13  24  -1    6.80    6.60
  11  13   1   10.70    6.50
 -13  25  -1   32.30    7.60
  12  13   1   12.20    6.60
 -13  26  -1   -7.90    7.20
  13  13   1   -7.80    6.20
 -12  26  -1   12.50    7.60
  14  12   1    7.70    6.80
 -11  25  -1   -2.40    6.40
  14  11   1   -2.30    6.30
 -10  24  -1   24.80    6.90
  14  10   1   29.80    7.10
  -9  23  -1   38.60    7.00
  14   9   1   43.60    6.80
  -8  22  -1    0.20    5.00
  14   8   1   -2.00    4.90
  -7  21  -1   10.70    5.00
  14   7   1    3.60    4.90
  20 -14  -1   92.59    9.70
  -6  20  -1  106.59    8.60
  14   6   1   84.39    7.70
  -5  19  -1    9.30    4.10
  19 -14  -1    8.50    4.50
  14   5   1    6.30    4.20
  18 -14  -1  108.79    8.60
  -4  18  -1  121.89    8.40
  14   4   1  113.79    8.50
  17 -14  -1    8.30    3.90
  -3  17  -1   13.90    3.70
  14   3   1   13.20    4.20
  16 -14  -1   40.40    4.80
  -2  16  -1   42.00    4.70
  14   2   1   36.40    4.90
  15 -14  -1   72.69    6.20
  -1  15  -1   75.29    6.00
  14   1   1   69.19    5.80
   0  14  -1   14.20    3.40
  14 -14  -1   10.20    3.40
 -14  14   1   10.90    3.20
  14   0   1   14.10    3.40
  13 -14  -1  423.96   14.20
   1  13  -1  445.06   14.40
 -13  14   1  409.06   13.60
  14  -1   1  448.96   14.70
  12 -14  -1  237.98    9.60
   2  12  -1  255.27    9.70
 -12  14   1  258.67    9.30
  14  -2   1  236.58   10.00
  11 -14  -1   47.20    4.20
   3  11  -1   57.19    4.80
  14  -3   1   46.20    4.40
  10 -14  -1   32.60    3.60
   4  10  -1   34.00    3.70
  14  -4   1   38.20    4.00
   5   9  -1   21.70    3.00
   9 -14  -1   22.60    3.10
  14  -5   1   24.70    3.40
   8 -14  -1   59.79    4.70
   6   8  -1   63.49    4.80
  14  -6   1   46.30    4.20
   7   7  -1  135.59    6.80
  -7  14   1  136.19    6.30
  14  -7   1  144.29    7.10
   8   6  -1   77.89    5.40
  -6  14   1   67.49    4.80
  14  -8   1   73.39    5.50
   9   5  -1  325.37   11.30
  -5  14   1  308.17   10.70
  14  -9   1  316.97   11.40
  10   4  -1  289.87   10.40
  14 -10   1  286.77   11.10
  -4  14   1  267.57   10.00
  11   3  -1  213.78    8.80
  14 -11   1  225.68    9.60
  -3  14   1  214.78    8.50
  12   2  -1   73.59    5.70
  14 -12   1   79.19    6.50
  -2  14   1   69.69    5.40
  13   1  -1   31.80    3.80
  14 -13   1   31.30    4.30
  -1  14   1   33.00    3.80
  14   0  -1    9.20    3.50
  14 -14   1   13.50    3.70
   0  14   1   14.80    3.20
  15  -1  -1  160.38    8.60
   1  14   1  155.08    8.10
  14 -15   1  163.58    8.90
  16  -2  -1   11.90    3.60
  14 -16   1    3.80    3.70
   2  14   1    6.90    3.50
  17  -3  -1  101.19    7.60
   3  14   1  104.29    7.50
  14 -17   1  104.39    8.00
  18  -4  -1   12.50    4.10
   4  14   1    7.50    3.80
  14 -18   1    9.50    4.30
  19  -5  -1  138.29    9.00
   5  14   1  153.58    9.30
  14 -19   1  121.79    9.10
  20  -6  -1   80.49    6.90
   6  14   1   82.19    7.30
  14 -20   1   81.89    7.20
  21  -7  -1    3.40    4.70
   7  14   1   -0.80    4.80
  14 -21   1    5.40    4.90
  22  -8  -1   41.60    6.50
  14 -22   1   42.20    6.60
   8  14   1   51.09    6.90
  23  -9  -1    4.80    5.50
 -14  23  -1   11.30    5.70
   9  14   1    5.30    5.40
 -14  24  -1   60.19    8.30
  10  14   1   66.59    8.10
 -14  25  -1    0.00    6.90
  11  14   1   12.90    6.90
  12  14   1   -8.30    6.30
 -11  26  -1   59.49    9.10
  15  11   1   79.89    9.80
 -10  25  -1   17.10    6.80
  15  10   1   16.90    7.10
  -9  24  -1   33.30    6.90
  15   9   1   30.90    6.90
  -8  23  -1   13.40    5.70
  15   8   1   16.40    5.80
  -7  22  -1   40.30    6.40
  15   7   1   34.30    6.40
  -6  21  -1   -0.70    4.70
  15   6   1    0.50    4.60
  -5  20  -1   59.69    6.70
  15   5   1   49.40    6.40
  -4  19  -1   62.29    6.30
  19 -15  -1   41.40    6.00
  15   4   1   47.00    6.10
  -3  18  -1   22.80    4.50
  18 -15  -1   15.80    4.50
  15   3   1   21.90    4.70
  17 -15  -1   45.20    5.40
  -2  17  -1   51.49    5.40
  15   2   1   33.10    5.10
  16 -15  -1  186.38    9.70
  -1  16  -1  199.68    9.70
  15   1   1  213.88   10.40
  15 -15  -1   98.39    7.50
   0  15  -1  101.39    7.10
  15   0   1  109.19    7.50
  14 -15  -1  176.78    8.60
   1  14  -1  164.18    8.40
 -14  15   1  142.19    7.50
  15  -1   1  147.59    8.50
   2  13  -1  239.98   10.10
  13 -15  -1  263.97   10.50
 -13  15   1  247.38    9.60
  15  -2   1  253.87   10.70
  12 -15  -1   -6.30    2.80
   3  12  -1    5.60    2.80
  15  -3   1   -1.20    3.10
   4  11  -1    0.90    2.40
  11 -15  -1   -1.20    2.50
  15  -4   1   -3.10    2.70
  10 -15  -1    1.80    2.50
   5  10  -1    1.70    2.50
  15  -5   1   -1.20    2.60
   9 -15  -1   85.89    5.70
   6   9  -1   81.89    6.00
  15  -6   1  101.89    6.30
   7   8  -1  197.38    8.60
  -8  15   1  194.68    8.00
  15  -7   1  203.48    8.80
   8   7  -1   14.80    3.10
  15  -8   1   14.70    3.20
  -7  15   1   16.10    2.90
   9   6  -1   54.59    4.80
  15  -9   1   53.49    4.70
  -6  15   1   47.00    4.10
  10   5  -1   -2.50    2.50
  -5  15   1    0.70    2.40
  15 -10   1    4.30    2.90
  11   4  -1   -0.90    2.60
  -4  15   1    1.40    2.30
  15 -11   1    3.70    3.00
  12   3  -1   49.70    4.70
  -3  15   1   51.49    4.40
  15 -12   1   41.60    4.90
  13   2  -1   38.60    4.40
  15 -13   1   42.70    4.90
  -2  15   1   39.90    4.30
  14   1  -1   77.19    6.70
  -1  15   1   75.79    5.90
  15 -14   1   60.09    5.50
  15   0  -1  103.59    7.60
   0  15   1  106.69    7.30
  15 -15   1   95.49    7.60
  16  -1  -1   60.89    5.70
  15 -16   1   45.90    5.60
   1  15   1   45.90    5.20
  17  -2  -1  130.89    8.70
   2  15   1  143.29    8.30
  15 -17   1  151.28    9.10
  18  -3  -1   36.80    5.10
  15 -18   1   45.50    5.80
   3  15   1   40.40    5.20
  19  -4  -1    1.40    4.10
  15 -19   1    2.20    4.20
   4  15   1    5.80    4.00
  20  -5  -1   44.60    5.80
  15 -20   1   39.40    5.80
   5  15   1   46.20    5.90
  21  -6  -1   48.40    6.30
  15 -21   1   49.99    6.70
   6  15   1   58.19    6.80
  22  -7  -1    2.20    5.10
  15 -22   1    2.90    5.30
   7  15   1   -0.60    4.90
  23  -8  -1   27.20    6.30
  15 -23   1   18.20    6.10
   8  15   1   10.70    5.60
 -15  24  -1   81.79    9.20
   9  15   1   99.09    9.30
  10  15   1   88.39    9.30
  11  15   1   -5.90    6.30
 -10  26  -1   42.00    9.00
  16  10   1   52.29    9.00
  -9  25  -1   10.70    7.10
  16   9   1   10.60    6.70
  -8  24  -1   14.10    6.70
  16   8   1    7.50    6.20
  -7  23  -1   16.40    6.40
  16   7   1   16.60    6.30
  -6  22  -1   72.19    7.90
  16   6   1   87.59    8.60
  -5  21  -1   13.30    5.40
  16   5   1    9.60    5.40
  -4  20  -1   25.30    5.60
  16   4   1   24.80    5.70
  -3  19  -1  123.79    9.30
  16   3   1  131.89    9.30
  -2  18  -1    8.90    4.30
  18 -16  -1    3.90    4.30
  16   2   1    4.10    4.20
  17 -16  -1   19.40    4.50
  -1  17  -1   26.70    4.80
  16   1   1   28.60    5.00
  16 -16  -1   56.29    5.70
   0  16  -1   55.29    5.50
  16   0   1   51.09    5.60
  15 -16  -1   51.79    5.30
   1  15  -1   47.00    5.20
  16  -1   1   55.99    5.70
  14 -16  -1   13.00    3.80
   2  14  -1    3.50    3.10
  16  -2   1    6.10    3.70
 -14  16   1   12.90    3.40
   3  13  -1   18.70    3.70
  13 -16  -1   18.00    4.00
 -13  16   1   17.20    3.60
  16  -3   1   18.40    3.90
  12 -16  -1  118.09    7.10
   4  12  -1  120.39    7.10
  16  -4   1  109.89    7.40
   5  11  -1  113.19    6.90
  11 -16  -1  112.79    6.80
  16  -5   1  108.99    7.50
   6  10  -1   14.60    3.30
  10 -16  -1   13.90    3.40
  16  -6   1   10.20    3.50
   9 -16  -1  389.96   13.10
   7   9  -1  369.16   13.40
  16  -7   1  376.86   13.60
   8   8  -1  200.68    8.80
  16  -8   1  194.08    9.20
  -8  16   1  195.58    8.40
   9   7  -1   26.00    3.80
  -7  16   1   18.40    3.50
  16  -9   1   22.40    4.00
  10   6  -1   13.90    3.40
  16 -10   1   16.10    3.90
  -6  16   1   13.60    3.30
  11   5  -1  128.89    7.80
  16 -11   1  137.49    8.30
  -5  16   1  134.69    7.30
  12   4  -1  139.99    7.90
  16 -12   1  145.69    8.60
  -4  16   1  160.18    7.90
  13   3  -1   52.19    5.20
  -3  16   1   68.19    5.50
  16 -13   1   60.69    5.80
  14   2  -1   39.90    4.80
  16 -14   1   36.10    5.10
  -2  16   1   40.90    4.70
  15   1  -1  211.98   10.10
  16 -15   1  195.38   10.20
  -1  16   1  181.88    9.50
  16   0  -1   50.29    5.60
   0  16   1   60.09    5.60
  16 -16   1   54.49    5.90
  17  -1  -1   44.90    5.40
  16 -17   1   44.90    5.80
   1  16   1   44.80    5.40
  18  -2  -1    1.90    3.70
  16 -18   1   -6.90    4.00
   2  16   1    3.80    4.10
  19  -3  -1    5.00    4.10
   3  16   1    1.70    3.90
  16 -19   1   -1.40    4.40
  20  -4  -1    1.40    4.50
  16 -20   1   -2.20    4.50
   4  16   1   -0.50    4.30
  21  -5  -1   -3.90    4.70
   5  16   1   10.90    5.30
  16 -21   1    4.90    5.00
  22  -6  -1    2.00    4.90
  16 -22   1   -1.60    5.20
   6  16   1    8.20    5.50
  23  -7  -1   48.40    7.30
   7  16   1   55.59    7.70
  16 -23   1   51.99    7.60
  24  -8  -1    6.70    9.10
   8  16   1   17.20    6.50
   9  16   1   55.19    8.30
  10  16   1   -0.10    6.90
  -9  26  -1   17.50    8.10
  17   9   1    0.80    8.80
  -8  25  -1   22.20    7.40
  17   8   1   14.90    7.40
  -7  24  -1    4.10    6.20
  17   7   1    6.90    6.40
  -6  23  -1   24.40    6.70
  17   6   1   26.50    6.80
  -5  22  -1   91.99    8.30
  17   5   1   60.79    7.80
  -4  21  -1   44.50    6.60
  17   4   1   49.99    7.00
  -3  20  -1   -2.50    4.70
  17   3   1   -0.90    4.70
  -2  19  -1    2.20    4.70
  17   2   1    7.90    4.70
  -1  18  -1  159.28    9.90
  17   1   1  143.29   10.10
   0  17  -1   99.29    8.30
  17 -17  -1   75.49    6.70
  17   0   1   95.19    7.50
  16 -17  -1   38.00    5.10
   1  16  -1   43.10    5.20
  17  -1   1   50.59    5.80
  15 -17  -1  135.89    8.40
   2  15  -1  129.39    8.10
  17  -2   1  127.09    8.70
   3  14  -1   96.69    7.60
  14 -17  -1   89.99    7.30
  17  -3   1   93.79    7.80
 -14  17   1  105.89    6.90
   4  13  -1   27.30    4.30
  13 -17  -1   30.40    4.40
  17  -4   1   30.00    4.80
  12 -17  -1   38.20    4.50
   5  12  -1   31.80    4.30
  17  -5   1   32.80    4.70
   6  11  -1   82.59    6.80
  11 -17  -1   81.49    6.50
  17  -6   1   82.69    7.10
  10 -17  -1   21.90    4.00
   7  10  -1   30.50    4.10
  17  -7   1   21.30    4.30
   8   9  -1  104.49    7.10
  17  -8   1   85.69    7.30
  -9  17   1   94.69    6.50
   9   8  -1   16.80    3.70
  -8  17   1   18.80    3.60
  17  -9   1    9.30    3.60
  10   7  -1  103.89    7.30
  -7  17   1   89.09    6.70
  17 -10   1   86.89    7.40
  11   6  -1   18.00    3.70
  17 -11   1   13.40    4.10
  -6  17   1   11.60    3.60
  12   5  -1  100.09    7.00
  -5  17   1   88.69    6.70
  17 -12   1   89.59    7.70
  13   4  -1  203.78    9.80
  -4  17   1  185.28    9.30
  17 -13   1  192.78   10.30
  14   3  -1   13.10    3.90
  -3  17   1    7.30    3.90
  17 -14   1    9.70    4.40
  15   2  -1   44.20    5.10
  17 -15   1   39.50    5.50
  -2  17   1   42.50    5.20
  16   1  -1   25.50    4.80
  -1  17   1   27.90    4.80
  17 -16   1   21.80    4.80
  17   0  -1   86.69    7.60
   0  17   1   93.49    8.20
  17 -17   1   80.99    7.30
  18  -1  -1   43.70    5.80
  17 -18   1   18.50    5.50
   1  17   1   37.60    5.70
  19  -2  -1   13.20    4.70
   2  17   1    2.80    4.60
  17 -19   1    2.20    4.70
  20  -3  -1   26.70    5.40
  17 -20   1   17.80    5.40
   3  17   1   13.60    5.10
  21  -4  -1   73.69    7.50
   4  17   1   71.99    7.50
  17 -21   1   74.89    7.70
  22  -5  -1   10.10    5.60
  17 -22   1    9.90    5.80
   5  17   1    7.30    5.60
  23  -6  -1   48.60    7.30
   6  17   1   42.00    7.30
  24  -7  -1    5.80    6.20
   7  17   1    3.70    6.20
   8  17   1    9.50    6.60
   9  17   1   -3.10    6.80
  -7  25  -1   -7.70    6.70
  18   7   1  -13.60    6.50
  -6  24  -1   14.30    6.90
  18   6   1   23.10    7.20
  -5  23  -1   16.10    6.50
  18   5   1    6.50    6.40
  -4  22  -1    1.10    5.70
  18   4   1   -0.10    5.80
  -3  21  -1    0.30    5.20
  18   3   1    2.30    5.40
  -2  20  -1   -2.80    4.90
  18   2   1    0.80    5.00
  -1  19  -1   29.10    5.70
  18   1   1   24.50    5.80
   0  18  -1  123.19    9.30
  18   0   1  121.69    9.60
   1  17  -1   43.00    5.50
  18  -1   1   35.60    5.90
  16 -18  -1   -1.50    4.00
   2  16  -1   -1.20    3.60
  18  -2   1   -3.00    3.90
  15 -18  -1   35.00    5.10
   3  15  -1   39.40    5.20
  18  -3   1   34.50    5.30
   4  14  -1   11.10    3.90
  14 -18  -1    9.10    4.10
  18  -4   1   10.80    4.40
 -14  18   1   17.30    4.20
   5  13  -1  123.89    7.80
  13 -18  -1  109.89    8.00
  18  -5   1  100.29    8.40
   6  12  -1    8.80    3.50
  12 -18  -1    2.90    3.60
  18  -6   1   -1.20    3.70
  11 -18  -1  107.19    7.70
   7  11  -1  128.59    8.20
  18  -7   1  129.19    8.50
   8  10  -1   85.79    6.80
 -10  18   1   83.89    6.70
  18  -8   1   74.89    6.50
   9   9  -1   89.79    7.00
  -9  18   1   87.89    6.80
  18  -9   1   92.09    7.90
  10   8  -1  121.49    7.80
  -8  18   1  107.89    7.60
  18 -10   1  110.89    8.10
  11   7  -1   97.29    7.60
  18 -11   1   96.09    8.00
  -7  18   1   87.79    7.00
  12   6  -1    2.30    3.40
  -6  18   1    0.90    3.10
  18 -12   1    3.70    4.30
  13   5  -1  183.08   10.10
  18 -13   1  180.28   10.40
  -5  18   1  191.28    9.50
  14   4  -1  118.59    8.60
  -4  18   1  116.29    8.20
  18 -14   1  115.59    8.90
  15   3  -1   17.80    4.30
  -3  18   1   25.90    4.60
  18 -15   1   18.10    4.80
  16   2  -1    4.40    4.10
  18 -16   1    3.20    4.40
  -2  18   1    5.40    4.00
  17   1  -1  143.29    9.30
  18 -17   1  115.69    9.50
  -1  18   1  145.39    9.40
  18   0  -1  151.98    9.80
   0  18   1  112.99    9.30
  18 -18   1  115.09   10.10
  19  -1  -1   18.10    5.40
  18 -19   1   15.20    5.40
   1  18   1   20.10    5.30
  20  -2  -1   15.80    5.20
   2  18   1    9.80    5.00
  18 -20   1   25.00    6.20
  21  -3  -1   64.89    7.30
  18 -21   1   57.79    7.50
   3  18   1   60.29    7.50
  22  -4  -1    4.00    5.30
   4  18   1    6.00    5.40
  23  -5  -1   15.40    6.30
   5  18   1    5.90    6.20
  24  -6  -1    4.50    6.10
   6  18   1   -1.80    6.30
   7  18   1   -1.80    6.30
  -6  25  -1   -1.10    7.70
  19   6   1   -1.10    6.90
  -5  24  -1    7.60    7.10
  19   5   1   14.50    6.90
  -4  23  -1   39.00    7.30
  19   4   1   30.70    7.00
  -3  22  -1   63.69    7.70
  19   3   1   50.59    7.80
  -2  21  -1   46.20    6.80
  19   2   1   43.40    7.20
  -1  20  -1    3.80    5.50
  19   1   1    2.70    5.30
   0  19  -1   58.79    6.90
  19   0   1   63.49    7.40
   1  18  -1   19.00    5.20
  19  -1   1   30.10    6.00
   2  17  -1   15.80    5.00
  19  -2   1   12.10    4.90
   3  16  -1    8.60    4.40
  19  -3   1   -4.20    4.30
  15 -19  -1    5.10    4.30
   4  15  -1    6.70    4.10
  19  -4   1    3.20    4.20
   5  14  -1  150.38    9.30
  14 -19  -1  132.49    8.90
  19  -5   1  143.09    9.50
   6  13  -1  122.29    8.20
  13 -19  -1   89.79    8.00
  19  -6   1  108.09    8.80
   7  12  -1   13.90    4.00
  12 -19  -1    4.60    4.10
  19  -7   1    4.10    4.40
   8  11  -1   85.89    7.20
  19  -8   1   81.99    7.10
 -11  19   1   87.99    7.30
   9  10  -1   51.49    5.70
  19  -9   1   59.69    6.20
 -10  19   1   55.99    5.50
  10   9  -1    6.90    3.80
  19 -10   1    4.30    4.10
  -9  19   1    0.00    3.50
  11   8  -1   16.30    4.30
  -8  19   1   18.70    4.30
  19 -11   1   13.30    4.80
  12   7  -1   10.00    4.10
  19 -12   1   12.60    4.90
  -7  19   1   10.20    4.10
  13   6  -1   18.10    4.40
  -6  19   1   20.20    4.50
  19 -13   1   29.30    5.50
  14   5  -1   14.20    4.30
  -5  19   1   10.10    4.20
  19 -14   1   -5.20    4.30
  15   4  -1   51.19    6.00
  19 -15   1   42.90    6.10
  -4  19   1   46.90    5.80
  16   3  -1  122.89    9.30
  -3  19   1  111.59    8.40
  19 -16   1  107.49    9.30
  17   2  -1    5.80    4.60
  -2  19   1    7.60    4.50
  19 -17   1    5.80    4.90
  18   1  -1   26.60    5.50
  -1  19   1   20.10    5.40
  19 -18   1   27.50    5.80
  19   0  -1   49.80    6.70
  19 -19   1   45.30    6.70
   0  19   1   53.29    6.70
  20  -1  -1   16.00    5.50
   1  19   1    0.60    5.00
  19 -20   1    1.90    5.90
  21  -2  -1   26.40    6.20
   2  19   1   28.20    6.30
  22  -3  -1   29.80    6.60
   3  19   1   18.90    6.40
  23  -4  -1  151.58   12.10
   4  19   1  114.59   10.20
  24  -5  -1   20.80    6.50
   5  19   1   19.80    7.00
  25  -6  -1   -8.80   10.00
   6  19   1  -18.60    6.10
  -5  25  -1   27.70    8.60
  20   5   1   26.30    8.40
  -4  24  -1    6.20    7.00
  20   4   1   15.50    7.40
  -3  23  -1   -2.50    6.00
  20   3   1   10.10    6.60
  -2  22  -1   32.50    7.10
  20   2   1   33.40    7.40
  -1  21  -1   12.00    6.10
  20   1   1   11.90    6.20
   0  20  -1   26.80    6.20
  20   0   1   29.50    6.60
   1  19  -1    3.20    5.40
  20  -1   1   11.50    5.70
   2  18  -1   23.00    5.60
  20  -2   1    3.30    5.10
   3  17  -1   18.60    5.20
  20  -3   1   23.40    5.80
   4  16  -1    6.00    4.50
  20  -4   1    5.40    4.80
  15 -20  -1   49.90    9.50
   5  15  -1   34.60    5.70
  20  -5   1   54.19    6.40
   6  14  -1   98.09    8.30
  14 -20  -1  104.39    8.90
  20  -6   1  106.69    9.00
  13 -20  -1    8.60    4.60
   7  13  -1    8.40    4.50
  20  -7   1    8.90    4.70
   8  12  -1    1.90    3.80
 -12  20   1    4.80    3.90
  20  -8   1   -2.30    4.20
   9  11  -1   11.30    4.40
 -11  20   1   13.40    4.20
  20  -9   1   13.60    4.70
  10  10  -1   41.60    6.00
  20 -10   1   46.30    5.90
 -10  20   1   48.80    5.60
  11   9  -1  155.58    9.70
  -9  20   1  160.08    9.40
  20 -11   1  164.98   10.20
  12   8  -1   12.30    4.70
  20 -12   1   12.50    5.10
  -8  20   1    5.40    4.30
  13   7  -1   64.09    6.50
  20 -13   1   60.49    7.10
  -7  20   1   58.79    6.30
  14   6  -1   77.99    7.20
  20 -14   1   95.49    8.10
  -6  20   1   84.09    7.10
  15   5  -1   48.50    6.60
  20 -15   1   51.09    6.70
  -5  20   1   48.20    6.10
  16   4  -1   38.30    6.00
  20 -16   1   31.60    6.10
  -4  20   1   34.20    5.70
  17   3  -1    6.80    5.10
  20 -17   1    4.10    5.00
  -3  20   1   14.70    5.00
  18   2  -1    2.60    5.00
  -2  20   1   -2.40    4.60
  20 -18   1   -3.30    4.90
  19   1  -1    5.50    5.10
  20 -19   1   -0.60    6.10
  -1  20   1    4.90    5.30
  20   0  -1   18.30    6.30
   0  20   1   18.90    6.00
  21  -1  -1   14.60    6.30
   1  20   1   14.60    5.90
  22  -2  -1   12.50    6.20
   2  20   1   15.20    6.30
  23  -3  -1   56.89    8.20
   3  20   1   57.39    8.00
  24  -4  -1   34.20    7.60
   4  20   1   26.10    7.50
  25  -5  -1    6.70    7.10
   5  20   1    2.80    7.00
  -3  24  -1   36.10    8.40
  21   3   1   47.10    8.70
  -2  23  -1   53.39    8.40
  21   2   1   45.20    8.50
  -1  22  -1    6.20    6.40
  21   1   1    6.60    6.70
   0  21  -1   28.10    7.00
  21   0   1   28.20    7.20
   1  20  -1   15.20    6.10
  21  -1   1   16.00    6.40
   2  19  -1   26.40    6.10
  21  -2   1   19.50    6.10
   3  18  -1   70.49    7.50
  21  -3   1   54.09    7.50
   4  17  -1   79.49    7.60
  21  -4   1   70.59    7.90
   5  16  -1    0.50    4.80
  21  -5   1    2.90    4.80
   6  15  -1   39.70    6.30
  21  -6   1   62.69    7.00
   7  14  -1   -6.90    4.30
  14 -21  -1   -5.40    6.80
  21  -7   1    1.30    5.00
   8  13  -1    1.10    4.50
 -13  21   1    7.60    4.40
  21  -8   1   -0.20    4.80
   9  12  -1   -8.00    4.20
  21  -9   1    2.50    4.80
 -12  21   1    7.10    4.30
  10  11  -1   37.60    6.20
 -11  21   1   44.70    5.90
  21 -10   1   38.00    6.00
  11  10  -1   91.09    8.10
  21 -11   1  100.49    8.40
 -10  21   1  124.19    8.90
  12   9  -1   31.70    6.00
  21 -12   1   30.40    6.10
  -9  21   1   27.40    5.40
  13   8  -1    5.40    4.90
  -8  21   1   11.80    4.90
  21 -13   1    1.40    5.40
  14   7  -1   -0.80    4.80
  21 -14   1   15.20    5.70
  -7  21   1    3.40    4.60
  15   6  -1   -7.30    4.60
  -6  21   1    0.50    4.60
  21 -15   1   -9.60    5.00
  16   5  -1    9.20    5.40
  -5  21   1   17.50    5.40
  21 -16   1   12.20    5.70
  17   4  -1   44.00    6.80
  21 -17   1   43.70    6.80
  -4  21   1   55.99    7.00
  18   3  -1   14.30    5.80
  -3  21   1   -0.70    5.20
  21 -18   1    1.00    8.10
  19   2  -1   38.50    6.80
  -2  21   1   37.20    6.80
  20   1  -1   16.80    6.40
  -1  21   1    7.20    5.80
  21   0  -1   34.80    7.30
   0  21   1   25.10    6.50
  22  -1  -1   47.10    7.70
   1  21   1   68.99    8.00
  23  -2  -1   -3.70    6.30
   2  21   1    1.90    6.40
  24  -3  -1    0.90    6.80
   3  21   1    3.80    6.90
  -1  23  -1   42.90    8.50
  22   1   1   39.70    8.40
   0  22  -1    5.10    6.70
  22   0   1   -2.50    6.50
   1  21  -1   57.69    7.90
  22  -1   1   52.99    8.00
   2  20  -1   11.60    6.30
  22  -2   1    6.20    6.30
   3  19  -1   29.80    6.40
  22  -3   1   20.10    6.70
   4  18  -1   -3.00    5.10
  22  -4   1   -4.50    5.50
   5  17  -1   14.90    5.60
  22  -5   1    0.90    5.20
   6  16  -1    8.20    5.20
  22  -6   1   -0.30    5.20
   7  15  -1    1.70    5.00
  22  -7   1    7.90    5.50
   8  14  -1   51.49    7.10
  22  -8   1   47.50    6.80
   9  13  -1   57.09    7.20
  22  -9   1   69.49    7.60
 -13  22   1   64.39    7.00
  10  12  -1   30.50    6.20
  22 -10   1   15.60    5.60
 -12  22   1    9.40    5.40
  11  11  -1   38.00    6.40
 -11  22   1   26.50    6.00
  22 -11   1   23.70    6.20
  12  10  -1   55.89    6.80
 -10  22   1   48.40    6.50
  22 -12   1   52.79    7.40
  13   9  -1    2.20    5.10
  22 -13   1   -3.30    5.70
  -9  22   1   -4.90    4.70
  14   8  -1    7.60    5.10
  -8  22   1   -7.20    4.90
  22 -14   1   -5.20    5.40
  15   7  -1   40.70    6.60
  22 -15   1   24.70    6.60
  -7  22   1   32.60    6.10
  16   6  -1   73.19    7.80
  -6  22   1   79.49    8.10
  22 -16   1   76.79    8.40
  17   5  -1   65.59    8.00
  -5  22   1   78.49    8.10
  18   4  -1    7.30    6.00
  -4  22   1    3.40    5.70
  19   3  -1   49.50    7.70
  -3  22   1   55.89    7.50
  20   2  -1   30.60    7.00
  -2  22   1   29.40    7.10
  21   1  -1   -5.20    5.90
  -1  22   1    8.00    6.60
  22   0  -1   12.70    6.50
   0  22   1    7.00    6.50
  23  -1  -1    4.90    6.50
   1  22   1    2.70    6.50
   0  23  -1   25.40    7.70
  23   0   1   12.00    7.70
   1  22  -1   -0.40    6.40
  23  -1   1    1.90    7.00
   2  21  -1   -5.60    6.00
  23  -2   1   -2.90    6.40
   3  20  -1   66.79    8.20
  23  -3   1   48.80    8.00
  23  -4   1   82.09    8.90
   5  18  -1    9.40    6.10
  23  -5   1    2.30    6.10
   6  17  -1   46.40    7.50
  23  -6   1   43.10    7.50
   7  16  -1   57.69    7.60
  23  -7   1   53.89    7.70
   8  15  -1   19.50    5.80
  23  -8   1   26.70    6.70
   9  14  -1   13.70    5.80
  23  -9   1    9.90    5.70
  10  13  -1   31.00    6.70
  23 -10   1   35.00    6.70
  11  12  -1   17.40    5.90
 -12  23   1   13.30    5.90
  23 -11   1   13.40    6.10
  12  11  -1    7.50    5.50
  23 -12   1    6.80    5.80
 -11  23   1    2.70    5.30
  13  10  -1    0.90    5.20
  23 -13   1    6.70    6.20
 -10  23   1    9.60    5.60
  14   9  -1   48.30    7.10
  -9  23   1   51.49    7.10
  23 -14   1   42.90    7.70
  15   8  -1    3.90    5.50
  -8  23   1   16.50    5.90
  23 -15   1    9.60    6.70
  16   7  -1   17.30    6.40
  -7  23   1   19.80    6.20
  17   6  -1   41.80    7.10
  -6  23   1   36.10    7.20
  18   5  -1    2.50    6.00
  -5  23   1    3.80    6.10
  19   4  -1   32.10    7.10
  -4  23   1   34.90    7.30
  20   3  -1    8.80    6.60
  -3  23   1    2.30    6.40
  21   2  -1   43.80    7.90
  -2  23   1   51.79    8.30
  22   1  -1   43.60    8.10
  -1  23   1   37.50    8.10
  23   0  -1   29.00    7.90
   0  23   1   13.20    7.60
   3  21  -1   -9.70    6.20
  24  -3   1   -9.30    6.50
   4  20  -1   22.80    7.00
  24  -4   1   32.90    7.50
   5  19  -1   26.80    7.10
  24  -5   1    9.40    6.60
   6  18  -1  -10.30    5.90
  24  -6   1   -2.40    6.50
   7  17  -1   10.20    6.30
  24  -7   1   10.50    7.20
   8  16  -1    4.70    6.00
  24  -8   1    3.90    6.40
   9  15  -1  130.39   10.60
  24  -9   1   84.39    9.30
  10  14  -1   63.59    8.00
  24 -10   1   70.79    8.50
  11  13  -1   28.10    6.60
  24 -11   1    3.40    6.50
  12  12  -1   35.80    6.90
  24 -12   1   27.60    7.60
  13  11  -1   15.90    6.30
  24 -13   1    9.80    7.10
 -11  24   1   -5.60    7.10
  14  10  -1   46.40    7.10
 -10  24   1   13.50    6.80
  15   9  -1   32.00    6.80
  -9  24   1   25.80    7.20
  16   8  -1    9.30    6.20
  -8  24   1    4.10    6.50
  17   7  -1    7.50    6.10
  -7  24   1   -2.50    6.30
  18   6  -1   29.40    7.30
  -6  24   1    7.70    6.50
  19   5  -1   10.70    6.50
  -5  24   1    5.20    6.50
  20   4  -1   11.50    7.10
  -4  24   1   12.70    7.20
  21   3  -1   36.60    8.40
  -3  24   1   42.40    8.70
   5  20  -1   -0.30    7.30
  25  -5   1    8.30    7.00
   6  19  -1   -1.20    6.50
  25  -6   1   -1.10    6.80
   7  18  -1   -5.70    6.00
  25  -7   1   -6.10    6.70
   8  17  -1   -3.00    6.50
  25  -8   1   -1.60    6.70
   9  16  -1   56.99    8.40
  25  -9   1   62.49    8.60
  10  15  -1   89.29    9.40
  25 -10   1   96.59    9.60
  11  14  -1   18.30    6.50
  25 -11   1   10.70    7.10
  12  13  -1   31.80    7.10
  25 -12   1   41.90   11.20
  13  12  -1   12.20    6.60
  14  11  -1    2.00    5.90
  15  10  -1   22.20    7.20
  16   9  -1    6.90    6.60
  -9  25   1    7.30    6.90
  17   8  -1    9.40    6.60
  -8  25   1    3.50    7.10
  18   7  -1   -3.70    6.30
  -7  25   1  -10.50    6.90
  19   6  -1   -1.30    7.00
  -6  25   1   -3.80    7.00
  20   5  -1   29.80    8.10
  -5  25   1   16.50    7.80
   9  17  -1  -10.20    7.90
  26  -9   1    4.50    7.20
  10  16  -1   -1.30    7.00
  26 -10   1    7.30    8.10
  11  15  -1   -3.40    6.50
  12  14  -1   -7.30    6.40
  13  13  -1   -7.60    6.50
  14  12  -1    6.70    7.00
  15  11  -1   48.00    8.60
  16  10  -1   42.40    8.50
  17   9  -1    8.10    7.40
   0   0   2 3758.22   94.59
   0  -1   2   52.49    1.90
   1   0   2   49.99    1.80
   1  -1   2   52.29    2.10
   0   1   2   51.69    1.70
  -1   0   2   56.29    1.70
   2  -1  -2  292.57    7.50
   1   1   2  301.27    7.90
   1  -2   2  292.57    8.10
   3  -2  -2  212.98    5.60
   2   1   2  199.78    5.90
   1  -3   2  212.98    6.20
   2   1   2  213.78    6.00
   0  -2   2  137.09    4.10
   2   0   2  133.19    4.10
   1   1  -2  296.97    7.90
   2  -1   2  297.57    8.10
  -1   2   2  299.47    7.60
   2   0  -2  131.59    3.80
   2  -2   2  144.49    4.30
   0   2   2  131.79    4.10
   0   2   2  130.49    3.80
   3  -1  -2  318.97    8.40
   1   2   2  313.27    8.60
   2  -3   2  328.77    9.00
   4  -2  -2   18.20    1.30
   2  -4   2   19.80    1.70
   2   2   2   17.60    1.50
   5  -3  -2   53.29    2.30
   3   2   2   54.89    2.70
   2  -5   2   52.59    2.80
   4  -3  -2  397.16   10.40
   3   1   2  402.76   11.00
   1  -4   2  398.46   11.10
   3  -3  -2    3.70    0.60
   3   0   2    3.70    1.00
   0  -3   2    3.40    1.00
   1   2  -2  321.17    8.80
  -2   3   2  319.37    8.40
  -2   3   2  338.47    9.00
   3  -1   2  321.77    9.00
   2   1  -2  204.48    5.90
  -1   3   2  218.58    6.20
  -1   3   2  200.38    5.70
   3  -2   2  215.58    6.20
   3   0  -2    4.80    0.80
   0   3   2    4.00    0.80
   3  -3   2    6.10    1.30
   4  -1  -2  503.65   13.30
   3  -4   2  506.95   13.80
   1   3   2  507.15   13.50
   5  -2  -2  249.48    7.00
   3  -5   2  244.58    7.60
   2   3   2  253.67    7.40
   6  -3  -2  354.66    9.60
   3  -6   2  349.77   10.20
   3   3   2  338.57    9.90
   7  -4  -2   95.19    3.60
   4   3   2   97.29    4.00
   3  -7   2   91.59    4.10
   6  -4  -2 1086.09   27.90
   4   2   2 1107.79   28.40
   2  -6   2 1069.19   28.50
   5  -4  -2  304.17    8.00
   4   1   2  283.37    8.50
   1  -5   2  280.47    8.50
   4  -4  -2    0.20    0.80
   0   4  -2    1.00    1.00
   4   0   2    1.20    0.70
   4   0   2    0.20    1.00
   1   3  -2  519.45   13.70
   3  -4  -2  490.65   13.20
  -3   4   2  508.05   13.70
   4  -1   2  521.65   13.80
   2   2  -2   22.10    1.70
   4  -2   2   17.40    1.60
  -2   4   2   15.80    1.30
   3   1  -2  410.36   11.30
  -1   4   2  430.46   11.10
   4  -3   2  416.96   11.60
   4   0  -2    1.10    0.90
   0   4   2    1.40    0.90
   4  -4   2    0.50    1.20
   5  -1  -2  468.05   12.20
   1   4   2  459.35   12.40
   4  -5   2  431.86   12.70
   6  -2  -2   86.89    3.30
   2   4   2   88.99    3.60
   4  -6   2   94.79    4.00
   7  -3  -2   53.89    2.70
   4  -7   2   54.29    3.30
   3   4   2   49.99    2.90
   8  -4  -2   58.59    3.00
   4   4   2   60.29    3.30
   4  -8   2   58.39    3.40
   9  -5  -2  130.09    4.70
   5   4   2  118.09    5.00
   4  -9   2  107.49    5.00
   8  -5  -2   53.99    2.90
   5   3   2   55.99    3.40
   3  -8   2   60.09    3.40
   7  -5  -2  297.27    8.50
   2  -7   2  291.47    9.10
   5   2   2  301.57    9.00
  -1   6  -2  440.06   12.60
   6  -5  -2  456.05   12.30
   5   1   2  454.55   12.70
   0   5  -2    3.80    1.20
   5  -5  -2    3.60    1.00
   5   0   2    1.60    1.20
   1   4  -2  432.06   12.30
   4  -5  -2  465.05   11.90
   5  -1   2  439.46   12.40
  -4   5   2  453.05   12.30
   3  -5  -2  244.18    7.00
   2   3  -2  247.48    7.30
   5  -2   2  255.67    7.50
   3   2  -2   60.99    2.70
   5  -3   2   63.19    3.00
  -2   5   2   55.99    2.40
   4   1  -2  300.67    8.50
   5  -4   2  277.37    8.80
  -1   5   2  306.67    8.30
   5   0  -2    4.00    1.10
   5  -5   2    4.50    1.40
   0   5   2    3.70    1.10
   6  -1  -2   27.70    2.10
   5  -6   2   32.30    2.70
   1   5   2   29.00    2.20
   7  -2  -2  421.76   11.90
   2   5   2  438.76   12.20
   5  -7   2  418.46   12.40
   8  -3  -2   15.50    1.70
   5  -8   2   15.70    2.10
   3   5   2   16.50    1.90
   9  -4  -2    9.00    1.60
   4   5   2    6.80    1.60
   5  -9   2    8.00    1.80
  10  -5  -2    9.90    1.80
   5 -10   2   13.40    2.30
   5   5   2    9.60    2.10
  11  -6  -2  139.59    5.70
   6   5   2  138.49    6.10
   5 -11   2  140.29    6.10
  10  -6  -2  113.69    4.60
   6   4   2  115.39    5.20
   4 -10   2  100.29    5.00
   9  -6  -2    8.90    1.50
   6   3   2    7.70    1.70
   3  -9   2    8.20    1.80
   8  -6  -2   71.69    3.30
  -2   8  -2   72.79    3.70
   2  -8   2   70.09    3.80
   6   2   2   72.99    3.70
   7  -6  -2   76.29    3.40
  -1   7  -2   81.39    3.70
   6   1   2   82.19    3.70
   6  -6  -2   62.99    2.90
   0   6  -2   65.19    3.30
  -6   6   2   61.39    3.00
   6   0   2   58.49    3.20
   1   5  -2   29.30    2.30
   5  -6  -2   27.50    2.00
   6  -1   2   26.50    2.30
  -5   6   2   28.90    2.20
   2   4  -2   91.79    3.80
   4  -6  -2   96.79    3.50
   6  -2   2   95.39    3.90
   3   3  -2  330.17    9.60
   6  -3   2  329.77    9.80
  -3   6   2  343.17    9.20
   4   2  -2 1120.89   28.40
  -2   6   2 1100.29   28.10
   6  -4   2 1055.49   28.60
   5   1  -2  458.55   12.50
  -1   6   2  442.56   12.40
   6  -5   2  455.55   13.00
   6   0  -2   60.49    3.00
   0   6   2   60.89    2.90
   6  -6   2   60.99    3.50
   7  -1  -2    8.00    1.40
   6  -7   2    9.20    1.80
   1   6   2    8.00    1.40
   8  -2  -2    9.30    1.60
   2   6   2   11.60    1.70
   6  -8   2   10.70    1.90
   9  -3  -2    9.20    1.70
   3   6   2    9.90    1.80
   6  -9   2   10.50    2.00
  10  -4  -2   31.40    2.60
   6 -10   2   36.20    3.20
   4   6   2   34.70    3.10
  11  -5  -2  126.09    5.10
   5   6   2  108.89    5.40
   6 -11   2  112.29    5.60
  12  -6  -2   53.79    3.90
   6   6   2   61.09    4.40
   6 -12   2   63.09    4.50
  13  -7  -2   78.19    4.60
   7   6   2   69.79    5.00
   6 -13   2   71.59    5.00
  12  -7  -2   99.29    4.90
   5 -12   2  103.49    5.40
   7   5   2  104.89    5.40
  11  -7  -2   12.50    2.00
   7   4   2    8.70    2.20
   4 -11   2   12.10    2.30
  10  -7  -2   29.70    2.50
  -3  10  -2   29.90    2.80
   7   3   2   29.80    2.90
   9  -7  -2   10.00    1.80
  -2   9  -2   10.00    1.80
   7   2   2   11.40    1.90
   8  -7  -2   13.20    1.80
  -1   8  -2   13.30    1.90
   7   1   2   14.00    1.90
   0   7  -2  137.49    5.30
   7  -7  -2  148.59    5.00
  -7   7   2  143.59    5.00
   7   0   2  129.79    5.40
   1   6  -2    7.30    1.50
   6  -7  -2    7.10    1.30
   7  -1   2    9.70    0.90
   7  -1   2    6.80    1.50
  -6   7   2    6.60    1.40
   2   5  -2  416.56   12.20
   5  -7  -2  427.96   11.70
   7  -2   2  434.16   12.30
   3   4  -2   52.59    2.90
   4  -7  -2   48.80    2.60
   7  -3   2   56.59    3.20
   4   3  -2   86.99    3.70
  -3   7   2   87.89    3.40
   7  -4   2   88.19    4.10
   5   2  -2  287.67    8.70
  -2   7   2  297.37    8.40
   7  -5   2  277.37    8.90
   6   1  -2   81.19    3.50
  -1   7   2   78.49    3.40
   7  -6   2   71.49    4.00
   7   0  -2  129.29    4.90
   0   7   2  131.69    4.90
   7  -7   2  139.79    5.50
   8  -1  -2  159.98    5.60
   7  -8   2  154.18    6.10
   1   7   2  157.38    5.70
   9  -2  -2    7.80    1.70
   2   7   2    5.40    1.60
   7  -9   2    8.50    2.00
  10  -3  -2  344.17   10.40
   7 -10   2  331.47   10.90
   3   7   2  338.47   10.70
  11  -4  -2  105.79    4.90
   4   7   2  107.09    5.20
   7 -11   2  101.89    5.50
  12  -5  -2   25.50    2.70
   7 -12   2   23.40    3.00
   5   7   2   19.90    2.80
  13  -6  -2   51.49    4.20
   6   7   2   56.19    4.70
   7 -13   2   53.59    4.60
  14  -7  -2   75.89    5.20
   7 -14   2   78.89    5.40
   7   7   2   75.79    5.20
  15  -8  -2   13.00    2.80
   8   7   2   11.80    3.10
   7 -15   2   19.80    3.40
  14  -8  -2    6.60    2.30
   8   6   2    4.10    2.40
   6 -14   2    2.30    2.40
  13  -8  -2   25.40    2.90
  -5  13  -2   23.20    3.00
   5 -13   2   21.00    3.20
   8   5   2   23.60    3.10
  -4  12  -2   14.80    2.80
  12  -8  -2   24.10    2.60
   8   4   2   22.50    2.90
  11  -8  -2   46.10    3.50
  -3  11  -2   42.40    3.70
   8   3   2   38.60    3.30
  10  -8  -2    6.30    1.80
  -2  10  -2    4.20    1.80
   8   2   2    2.60    1.80
  -1   9  -2  144.49    5.80
   9  -8  -2  143.89    5.60
   8   1   2  142.59    5.90
   0   8  -2   17.10    2.10
   8  -8  -2   21.50    2.10
   8   0   2   19.80    2.30
  -8   8   2   20.50    2.10
   7  -8  -2  153.38    5.40
   1   7  -2  152.28    5.80
  -7   8   2  153.28    5.50
   8  -1   2  153.78    5.80
   2   6  -2    7.60    1.60
   6  -8  -2    8.10    1.40
   8  -2   2   13.00    2.00
   5  -8  -2   16.00    1.70
   3   5  -2   13.30    1.80
   8  -3   2   11.10    1.80
   4   4  -2   58.59    3.20
  -4   8   2   58.69    2.80
   8  -4   2   61.09    3.50
   5   3  -2   55.59    3.20
  -3   8   2   50.59    2.80
   8  -5   2   57.59    3.30
   6   2  -2   69.29    3.50
   8  -6   2   74.29    4.10
  -2   8   2   69.89    3.30
   7   1  -2   11.60    1.80
   8  -7   2   17.70    2.40
  -1   8   2   12.30    1.70
   8   0  -2   19.80    2.10
   8  -8   2   17.50    2.40
   0   8   2   17.20    2.00
   9  -1  -2   28.00    2.50
   1   8   2   27.60    2.50
   8  -9   2   27.00    2.90
  10  -2  -2   73.99    4.20
   2   8   2   79.19    4.20
   8 -10   2   80.89    4.60
  11  -3  -2  399.06   12.20
   3   8   2  394.86   12.50
   8 -11   2  418.16   13.00
  12  -4  -2   14.30    2.30
   8 -12   2    9.00    2.50
   4   8   2    7.50    2.30
  13  -5  -2   75.49    4.70
   5   8   2   74.89    4.90
   8 -13   2   80.59    5.30
  14  -6  -2   -1.40    2.00
   8 -14   2    0.50    2.30
   6   8   2    5.20    2.40
  15  -7  -2    0.80    2.40
   8 -15   2    1.70    2.60
   7   8   2    0.60    2.40
  16  -8  -2   24.50    3.70
   8   8   2   20.70    3.70
   8 -16   2   19.80    3.80
  17  -9  -2    6.60    3.20
  -8  17  -2    4.00    3.10
   9   8   2   -2.20    2.90
   8 -17   2    2.10    3.30
  16  -9  -2    4.20    2.80
  -7  16  -2    0.20    2.80
   9   7   2   -1.90    2.80
  15  -9  -2    5.00    2.60
  -6  15  -2    7.40    2.70
   9   6   2    6.40    2.80
  14  -9  -2  122.89    6.20
  -5  14  -2  119.79    6.20
   9   5   2  109.79    6.10
  -4  13  -2   19.00    2.70
  13  -9  -2   24.20    3.00
   9   4   2   21.30    3.00
  -3  12  -2  441.36   13.70
  12  -9  -2  432.36   13.40
   9   3   2  429.46   13.70
  -2  11  -2   64.09    4.20
  11  -9  -2   51.89    4.00
   9   2   2   53.79    4.40
  -1  10  -2    8.10    2.10
  10  -9  -2    8.50    2.00
   9   1   2    4.80    2.10
   9  -9  -2   26.40    2.50
   0   9  -2   20.80    2.50
   9   0   2   22.00    2.70
  -9   9   2   28.80    2.60
   8  -9  -2   30.60    2.50
   1   8  -2   26.00    2.60
   9  -1   2   26.60    2.60
  -8   9   2   29.80    2.60
   7  -9  -2    5.30    1.50
   2   7  -2    5.10    1.70
   9  -2   2    5.90    1.70
   3   6  -2    6.80    1.70
   6  -9  -2    9.40    1.60
   9  -3   2    9.40    1.90
   5  -9  -2    8.30    1.60
   4   5  -2    6.70    1.70
   9  -4   2    7.60    1.80
   5   4  -2  131.19    5.10
  -4   9   2  130.89    4.70
   9  -5   2  123.49    5.30
   6   3  -2    7.50    1.70
  -3   9   2    7.20    1.50
   9  -6   2    4.90    1.70
   7   2  -2    8.70    1.80
   9  -7   2   10.80    2.20
  -2   9   2    9.70    1.60
   8   1  -2  143.59    5.70
   9  -8   2  141.19    6.20
  -1   9   2  139.99    5.40
   9   0  -2   19.50    2.40
   9  -9   2   24.50    2.90
   0   9   2   27.00    2.50
  10  -1  -2  135.99    5.60
   9 -10   2  136.69    6.20
   1   9   2  127.49    5.70
  11  -2  -2   18.40    2.40
   2   9   2   19.40    2.60
   9 -11   2   16.40    2.70
  12  -3  -2   52.59    4.00
   9 -12   2   51.99    4.60
   3   9   2   47.00    4.00
  13  -4  -2   98.19    5.40
   4   9   2   93.49    5.50
   9 -13   2  101.39    6.00
  14  -5  -2   12.00    2.70
   5   9   2    8.50    2.60
   9 -14   2   11.90    2.80
  15  -6  -2   -1.90    2.40
   9 -15   2   -0.50    2.50
   6   9   2    0.40    2.40
  16  -7  -2   40.30    4.20
   9 -16   2   35.90    4.40
   7   9   2   33.90    4.20
  17  -8  -2   96.89    6.70
   8   9   2   95.89    7.00
   9 -17   2  114.39    7.60
  -9  18  -2   17.20    4.00
  18  -9  -2   30.80    4.20
   9 -18   2   24.30    4.40
   9   9   2   22.10    4.30
  -9  19  -2    0.10    3.70
  19 -10  -2    6.80    3.70
  10   9   2   -0.60    3.70
  -8  18  -2   30.80    4.50
  18 -10  -2   32.00    4.40
  10   8   2   24.10    4.30
  17 -10  -2   16.10    3.60
  -7  17  -2   13.00    3.50
  10   7   2    8.80    3.30
  16 -10  -2   55.89    4.90
  -6  16  -2   73.09    5.90
  10   6   2   59.29    5.20
  15 -10  -2    5.20    2.90
  -5  15  -2    8.80    2.70
  10   5   2    7.10    2.90
  -4  14  -2   67.49    4.90
  14 -10  -2   61.49    5.20
  10   4   2   58.39    5.10
  13 -10  -2   22.20    3.10
  -3  13  -2   17.70    2.90
  10   3   2   12.80    2.90
  -2  12  -2   25.30    3.10
  12 -10  -2   24.40    3.10
  10   2   2   18.90    2.90
  11 -10  -2   47.00    3.90
  -1  11  -2   46.40    3.90
  10   1   2   37.70    3.60
   0  10  -2  110.09    5.30
  10 -10  -2  117.49    5.20
  10   0   2   99.79    5.50
 -10  10   2  113.39    5.00
   1   9  -2  128.69    5.70
   9 -10  -2  129.59    5.40
  10  -1   2  136.79    6.00
  -9  10   2  128.19    5.30
   2   8  -2   80.79    4.40
   8 -10  -2   78.69    4.10
  10  -2   2   77.19    4.60
  -8  10   2   70.99    4.00
   7 -10  -2  305.37    9.90
   3   7  -2  341.47   10.60
  10  -3   2  335.87   10.70
   6 -10  -2   31.80    2.60
   4   6  -2   34.00    2.90
  10  -4   2   31.30    3.00
   5   5  -2    9.80    2.00
  -5  10   2   14.10    1.80
  10  -5   2   13.00    2.30
   6   4  -2  100.09    4.90
  10  -6   2  110.69    5.20
  -4  10   2  108.69    4.50
   7   3  -2   31.00    2.90
  -3  10   2   26.60    2.40
  10  -7   2   31.90    3.10
   8   2  -2    2.50    1.70
  10  -8   2    6.80    2.20
  -2  10   2    4.20    1.60
   9   1  -2    6.20    2.00
  10  -9   2    8.30    2.30
  -1  10   2    5.00    1.70
  10   0  -2  113.89    5.30
   0  10   2  109.19    5.20
  10 -10   2  106.89    5.80
  11  -1  -2   34.20    3.20
   1  10   2   27.50    3.00
  10 -11   2   38.30    3.70
  12  -2  -2   19.10    2.70
   2  10   2   18.70    2.70
  10 -12   2   21.40    3.30
  13  -3  -2   27.10    3.20
   3  10   2   24.00    3.10
  10 -13   2   28.00    3.50
  14  -4  -2   56.69    4.70
  10 -14   2   50.29    4.60
   4  10   2   52.99    4.40
  15  -5  -2   16.20    3.20
   5  10   2   19.40    3.40
  10 -15   2   18.30    3.50
  16  -6  -2   10.70    3.10
  10 -16   2   18.10    3.70
   6  10   2    7.00    3.20
  17  -7  -2   29.00    4.00
   7  10   2   18.10    3.90
  10 -17   2   26.70    4.30
  18  -8  -2    9.20    3.70
   8  10   2    4.70    3.50
  10 -18   2    5.80    3.80
  19  -9  -2   51.09    5.40
   9  10   2   40.40    5.30
  10 -19   2   46.00    5.70
 -10  20  -2    3.60    4.20
  20 -10  -2   -1.30    3.80
  10  10   2   10.20    4.40
 -10  21  -2    4.30    4.60
  11  10   2    4.70    4.40
  -9  20  -2   47.80    5.90
  20 -11  -2   50.49    6.90
  11   9   2   47.30    5.70
  19 -11  -2   40.60    5.20
  -8  19  -2   37.70    5.20
  11   8   2   33.90    5.00
  -7  18  -2   41.80    5.00
  18 -11  -2   42.00    4.80
  11   7   2   29.10    4.60
  17 -11  -2   -0.70    3.10
  -6  17  -2    2.10    3.10
  11   6   2   -3.20    3.00
  -5  16  -2   52.49    4.80
  16 -11  -2   49.60    4.70
  11   5   2   36.40    4.30
  -4  15  -2    0.00    2.40
  15 -11  -2    1.50    2.80
  11   4   2   -2.90    2.40
  14 -11  -2   86.99    5.80
  -3  14  -2   73.49    5.50
  11   3   2   74.79    5.40
  -2  13  -2  155.98    7.20
  13 -11  -2  154.98    7.00
  11   2   2  146.29    7.10
  12 -11  -2   80.99    5.10
  -1  12  -2   88.89    5.20
  11   1   2   83.59    5.30
  11 -11  -2    9.90    2.30
   0  11  -2   10.40    2.40
  11   0   2   13.20    2.70
   1  10  -2   25.20    2.90
  10 -11  -2   32.40    3.00
  11  -1   2   28.90    3.20
 -10  11   2   36.40    3.30
   2   9  -2   20.70    2.60
   9 -11  -2   17.90    2.30
  -9  11   2   14.40    2.30
  11  -2   2   16.10    2.70
   3   8  -2  388.86   12.30
   8 -11  -2  393.06   11.90
  11  -3   2  407.26   12.60
   4   7  -2   97.79    5.00
   7 -11  -2  104.09    4.80
  11  -4   2  107.79    5.50
   5   6  -2  128.49    5.50
   6 -11  -2  109.39    5.00
  11  -5   2  113.29    5.70
   6   5  -2  144.99    6.20
  -5  11   2  151.18    5.70
  11  -6   2  149.88    6.50
   7   4  -2   11.20    2.20
  11  -7   2    6.50    2.30
  -4  11   2   12.20    2.00
   8   3  -2   37.50    3.20
  11  -8   2   43.50    3.80
  -3  11   2   36.80    3.10
   9   2  -2   57.99    4.30
  11  -9   2   60.49    4.70
  -2  11   2   50.19    3.90
  10   1  -2   39.30    3.40
  11 -10   2   41.60    3.90
  -1  11   2   40.30    3.50
  11   0  -2    6.80    2.20
  11 -11   2   11.40    2.70
   0  11   2   10.10    2.40
  12  -1  -2  204.38    8.00
  11 -12   2  200.08    8.50
   1  11   2  191.18    7.80
  13  -2  -2    9.50    2.60
  11 -13   2   11.60    3.20
   2  11   2    7.90    2.70
  14  -3  -2    9.60    2.70
   3  11   2    5.40    2.70
  11 -14   2   11.00    3.00
  15  -4  -2    9.40    3.00
   4  11   2   13.10    3.20
  11 -15   2   19.90    3.60
  16  -5  -2   59.49    5.00
   5  11   2   55.89    5.10
  11 -16   2   60.09    5.30
  17  -6  -2   19.50    3.70
  11 -17   2   16.50    3.90
   6  11   2   14.90    3.80
  18  -7  -2   26.70    4.30
   7  11   2   31.50    4.70
  11 -18   2   24.70    4.60
  19  -8  -2   45.30    5.10
  11 -19   2   51.19    5.90
   8  11   2   47.50    5.80
  20  -9  -2   13.10    4.50
   9  11   2   14.90    4.50
  11 -20   2   22.10    5.10
 -11  21  -2   -2.40    4.40
  10  11   2   -0.60    4.30
 -11  22  -2   -5.80    4.70
  11  11   2  -14.40    4.40
 -11  23  -2   13.00    6.20
  12  11   2   31.20    6.50
 -10  22  -2    7.10    5.30
  12  10   2   -0.10    4.90
  -9  21  -2    0.30    4.50
  12   9   2   -7.10    4.40
  -8  20  -2   19.40    4.90
  12   8   2    3.10    4.30
  19 -12  -2    6.10    4.00
  -7  19  -2    3.00    3.90
  12   7   2   -0.70    3.70
  -6  18  -2   16.00    4.00
  18 -12  -2   14.10    4.10
  12   6   2   17.60    4.10
  -5  17  -2   -1.40    2.90
  17 -12  -2    2.60    3.20
  12   5   2   -2.70    3.00
  16 -12  -2    5.10    3.20
  -4  16  -2    5.60    3.10
  12   4   2    3.30    3.00
  -3  15  -2   32.40    4.00
  15 -12  -2   30.70    4.00
  12   3   2   31.30    3.90
  -2  14  -2    2.20    2.40
  14 -12  -2   -2.50    2.30
  12   2   2   -2.10    2.20
  -1  13  -2   64.79    4.90
  13 -12  -2   68.69    5.10
  12   1   2   67.69    5.40
  12 -12  -2   66.39    4.80
   0  12  -2   66.69    4.90
  12   0   2   53.79    4.60
   1  11  -2  192.18    7.80
  11 -12  -2  191.98    7.60
  12  -1   2  191.18    8.00
 -11  12   2  192.78    7.40
  10 -12  -2   18.70    2.60
   2  10  -2   18.30    2.90
  12  -2   2   21.10    3.10
 -10  12   2   26.30    2.90
   9 -12  -2   47.10    3.80
   3   9  -2   48.60    4.30
  12  -3   2   48.40    4.20
   8 -12  -2    8.20    2.00
   4   8  -2   12.00    2.40
  12  -4   2    6.20    2.30
   7 -12  -2   20.80    2.50
   5   7  -2   20.20    2.70
  12  -5   2   18.40    2.80
   6   6  -2   60.39    4.10
  12  -6   2   55.39    4.40
  -6  12   2   53.99    3.50
   7   5  -2  108.99    5.40
  12  -7   2  103.09    5.40
  -5  12   2  106.09    5.00
   8   4  -2   22.90    2.90
  12  -8   2   18.50    2.90
  -4  12   2   25.70    2.60
   9   3  -2  437.06   13.60
  12  -9   2  431.66   14.10
  -3  12   2  434.06   13.20
  10   2  -2   28.60    3.10
  -2  12   2   20.80    2.80
  12 -10   2   18.80    3.20
  11   1  -2   93.29    5.40
  -1  12   2   82.39    4.90
  12 -11   2   82.69    5.80
  12   0  -2   66.79    4.90
  12 -12   2   65.49    5.60
   0  12   2   57.39    4.80
  13  -1  -2   25.00    3.30
  12 -13   2   24.30    3.70
   1  12   2   19.40    3.10
  14  -2  -2    0.60    2.60
   2  12   2   -3.20    2.40
  12 -14   2    1.90    2.70
  15  -3  -2    0.30    2.70
  12 -15   2    5.30    3.20
   3  12   2   -4.90    2.50
  16  -4  -2   57.99    5.00
  12 -16   2   64.99    5.60
   4  12   2   53.59    4.90
  17  -5  -2   -0.40    3.20
   5  12   2   -1.00    2.90
  12 -17   2    1.70    3.40
  18  -6  -2   12.00    3.90
   6  12   2    4.90    3.60
  12 -18   2   13.80    4.10
  19  -7  -2   19.20    4.20
  12 -19   2   19.90    4.70
   7  12   2   26.30    4.90
  20  -8  -2   10.90    4.60
   8  12   2   14.40    4.90
  12 -20   2   23.90    5.20
  21  -9  -2   13.30    4.90
  12 -21   2   18.90    5.40
   9  12   2    9.80    5.00
 -12  22  -2   22.30    6.20
  10  12   2   20.10    5.70
 -12  23  -2    2.10    5.40
  11  12   2   -2.50    4.90
 -12  24  -2    1.50    6.10
  12  12   2   -2.60    5.80
 -12  25  -2    2.00    6.60
  13  12   2  -13.20    6.20
 -11  24  -2    2.20    6.00
  13  11   2   -2.20    5.70
 -10  23  -2   -1.20    5.40
  13  10   2    9.10    5.60
  -9  22  -2   -0.40    4.70
  13   9   2    3.90    5.30
  -8  21  -2   13.80    5.10
  13   8   2   10.90    5.10
  -7  20  -2   17.90    5.00
  13   7   2   14.10    4.80
  -6  19  -2   -2.60    3.70
  13   6   2   -4.20    3.60
  18 -13  -2   51.49    5.50
  -5  18  -2   52.99    5.50
  13   5   2   55.49    5.60
  -4  17  -2   12.60    3.70
  17 -13  -2    8.30    3.80
  13   4   2   10.50    3.60
  16 -13  -2   10.80    3.50
  -3  16  -2   15.40    3.70
  13   3   2   10.50    3.50
  15 -13  -2  105.59    6.70
  -2  15  -2   89.79    6.60
  13   2   2  105.59    7.10
  14 -13  -2    1.40    2.60
  -1  14  -2    3.50    2.70
  13   1   2    1.30    2.70
   0  13  -2    1.50    2.30
  13 -13  -2    3.70    2.60
  13   0   2    4.40    2.70
  12 -13  -2   20.20    3.10
   1  12  -2   22.30    3.10
 -12  13   2   22.90    3.20
  13  -1   2   18.80    3.30
   2  11  -2    7.60    2.50
  11 -13  -2    3.80    2.30
 -11  13   2   12.10    2.70
  13  -2   2    5.10    2.70
  10 -13  -2   32.90    3.20
   3  10  -2   22.40    3.10
  13  -3   2   27.00    3.40
   4   9  -2   91.89    5.60
   9 -13  -2  103.99    5.20
  13  -4   2   89.39    5.60
   8 -13  -2   67.39    4.60
   5   8  -2   65.89    4.70
  13  -5   2   71.29    5.10
   6   7  -2   62.39    4.60
  13  -6   2   50.59    4.30
  -7  13   2   53.69    3.90
   7   6  -2   69.29    4.70
  13  -7   2   79.19    5.30
  -6  13   2   71.49    4.30
   8   5  -2   26.90    3.20
  -5  13   2   25.50    2.80
  13  -8   2   29.40    3.40
   9   4  -2   16.30    2.80
  -4  13   2   23.70    2.80
  13  -9   2   22.40    3.40
  10   3  -2   23.10    3.10
  13 -10   2   19.20    3.30
  -3  13   2   17.40    2.70
  11   2  -2  152.88    7.10
  13 -11   2  155.18    7.90
  -2  13   2  152.38    6.90
  12   1  -2   65.09    5.20
  -1  13   2   59.39    5.00
  13 -12   2   65.79    5.80
  13   0  -2    3.50    2.50
  13 -13   2    1.00    2.70
   0  13   2    0.00    2.30
  14  -1  -2   13.20    3.20
  13 -14   2    8.50    3.30
   1  13   2   16.50    3.10
  15  -2  -2  120.59    7.30
  13 -15   2  115.89    7.80
   2  13   2  126.09    7.30
  16  -3  -2    8.60    3.40
   3  13   2    6.90    3.30
  13 -16   2    4.70    3.60
  17  -4  -2   -0.80    2.90
  13 -17   2    4.40    3.60
   4  13   2   -3.20    2.90
  18  -5  -2  129.29    8.10
   5  13   2  132.59    8.60
  13 -18   2  127.19    8.60
  19  -6  -2    8.80    3.90
  13 -19   2    7.00    4.20
   6  13   2    5.20    4.00
  20  -7  -2   -8.30    3.80
   7  13   2   -6.70    3.90
  13 -20   2   -2.30    4.20
  21  -8  -2   -5.20    4.10
   8  13   2   -6.80    4.20
  13 -21   2    4.80    4.80
  13 -22   2   36.10    6.40
   9  13   2   37.50    6.30
 -13  23  -2    4.90    5.90
  10  13   2   -1.10    5.30
 -13  24  -2    1.90    5.90
  11  13   2   -9.90    5.60
 -13  25  -2   13.40    7.10
  12  13   2    0.20    6.10
 -13  26  -2    0.50    7.00
  13  13   2  -10.90    6.40
 -12  26  -2    0.50    7.60
  14  12   2   -1.80    6.50
 -11  25  -2   -2.40    6.60
  14  11   2   -8.70    6.30
 -10  24  -2   11.50    6.40
  14  10   2    9.50    6.30
  -9  23  -2   -4.90    5.30
  14   9   2    5.30    5.60
  -8  22  -2    5.40    4.90
  14   8   2   -0.80    5.20
  -7  21  -2  -12.80    4.50
  14   7   2   -2.20    4.60
  -6  20  -2   10.20    4.80
  14   6   2    9.20    4.80
  -5  19  -2   21.80    4.90
  14   5   2   14.90    4.60
  -4  18  -2   30.70    4.70
  14   4   2   23.40    4.80
  17 -14  -2    8.80    3.70
  -3  17  -2   10.40    3.70
  14   3   2    2.30    3.60
  -2  16  -2   11.50    3.80
  16 -14  -2   27.40    4.10
  14   2   2   23.60    4.30
  -1  15  -2   34.50    4.40
  15 -14  -2   38.40    4.30
  14   1   2   33.00    4.50
  14 -14  -2    4.10    3.00
   0  14  -2    0.30    2.80
  14   0   2    5.60    3.10
   1  13  -2   12.00    3.10
  13 -14  -2   14.40    3.10
 -13  14   2    7.40    3.20
  14  -1   2   20.40    3.60
  12 -14  -2    0.60    2.30
   2  12  -2    0.10    2.50
  14  -2   2    1.90    2.70
 -12  14   2    1.50    2.50
  11 -14  -2    6.20    2.50
   3  11  -2    7.10    2.70
 -11  14   2    4.20    2.70
  14  -3   2    3.20    2.60
   4  10  -2   54.99    4.50
  10 -14  -2   46.60    3.90
  14  -4   2   51.09    4.50
   5   9  -2   10.20    2.80
   9 -14  -2   11.00    2.60
  14  -5   2    5.10    2.50
   6   8  -2   -0.10    2.10
   8 -14  -2    2.40    2.10
  -8  14   2    1.60    1.90
  14  -6   2    0.20    2.30
   7   7  -2   74.79    5.30
  -7  14   2   74.89    4.60
  14  -7   2   84.39    5.60
   8   6  -2    5.90    2.40
  14  -8   2    1.60    2.40
  -6  14   2    3.10    2.00
   9   5  -2  123.99    6.30
  14  -9   2  132.59    7.10
  -5  14   2  116.19    5.90
  10   4  -2   61.69    5.20
  -4  14   2   64.69    4.70
  14 -10   2   68.39    5.50
  11   3  -2   81.69    5.50
  -3  14   2   67.49    5.10
  14 -11   2   77.79    6.00
  12   2  -2    1.90    2.50
  -2  14   2    2.20    2.30
  14 -12   2   -1.50    2.70
  13   1  -2    2.10    2.60
  14 -13   2    4.10    3.20
  -1  14   2    1.90    2.50
  14   0  -2    4.10    3.00
  14 -14   2   -1.70    3.10
   0  14   2    8.30    3.00
  15  -1  -2  105.59    7.20
  14 -15   2  113.79    7.80
   1  14   2   95.39    6.90
  16  -2  -2    7.70    3.40
   2  14   2    2.80    3.20
  14 -16   2    6.10    3.80
  17  -3  -2   48.40    5.10
   3  14   2   49.50    5.30
  14 -17   2   56.79    5.80
  18  -4  -2   10.90    3.80
   4  14   2    2.70    3.60
  14 -18   2    9.80    4.20
  19  -5  -2   -3.30    3.60
  14 -19   2    2.30    4.00
   5  14   2   -2.60    3.60
  20  -6  -2   -3.10    3.90
  14 -20   2   -2.50    4.10
   6  14   2   -4.30    4.00
  21  -7  -2    1.20    4.50
   7  14   2    8.50    5.00
  14 -21   2    6.50    5.10
  22  -8  -2   29.20    6.40
   8  14   2   31.80    6.20
  14 -22   2   21.80    5.80
 -14  23  -2   -0.50    5.30
  14 -23   2   -1.80    5.40
   9  14   2   -4.60    5.20
 -14  24  -2   28.40    7.20
  10  14   2   12.90    6.30
 -14  25  -2    7.90    6.70
  11  14   2   -9.90    5.60
 -14  26  -2   -3.50    7.40
  12  14   2   -6.90    6.10
 -11  26  -2   -0.20    7.70
  15  11   2    5.70    7.50
 -10  25  -2  -15.30    6.40
  15  10   2    6.90    6.50
  -9  24  -2   13.80    6.50
  15   9   2   10.00    6.20
  -8  23  -2   -3.90    5.40
  15   8   2    0.80    5.20
  -7  22  -2   23.70    6.00
  15   7   2   35.00    6.60
  -6  21  -2  -10.00    4.20
  15   6   2   -8.80    4.40
  -5  20  -2   20.10    5.20
  15   5   2   12.80    5.10
  -4  19  -2   10.70    4.50
  15   4   2   10.20    4.60
  -3  18  -2   11.70    4.10
  15   3   2   10.80    4.40
  -2  17  -2    6.90    3.50
  15   2   2    9.00    4.10
  16 -15  -2   33.00    4.30
  -1  16  -2   21.80    4.40
  15   1   2   33.50    4.90
   0  15  -2    8.90    3.60
  15 -15  -2    9.70    3.40
  15   0   2    6.10    3.60
   1  14  -2  106.49    7.00
  14 -15  -2  115.59    7.00
  15  -1   2  101.29    7.10
  13 -15  -2  121.99    7.10
   2  13  -2  127.19    7.40
 -13  15   2  111.09    6.60
  15  -2   2  117.69    7.30
   3  12  -2   -2.50    2.40
  12 -15  -2    1.80    2.70
 -12  15   2   -1.20    2.70
  15  -3   2   -3.40    2.70
   4  11  -2   12.70    3.20
  11 -15  -2   19.70    3.30
  15  -4   2   10.90    3.40
  10 -15  -2   22.00    3.30
   5  10  -2   12.10    3.10
  15  -5   2   18.20    3.50
   6   9  -2   -3.30    2.30
   9 -15  -2   -0.30    2.30
  15  -6   2   -2.00    2.60
   7   8  -2   -0.40    2.30
  15  -7   2    2.80    2.70
  -8  15   2    2.40    2.20
   8   7  -2    8.30    3.10
  -7  15   2   12.20    2.70
  15  -8   2   16.10    3.30
   9   6  -2   -1.10    2.60
  -6  15   2    6.20    2.40
  15  -9   2    9.50    3.10
  10   5  -2    1.00    2.80
  -5  15   2   11.00    2.60
  15 -10   2   11.40    3.50
  11   4  -2   -4.10    2.60
  -4  15   2    2.80    2.50
  15 -11   2    5.30    3.20
  12   3  -2   29.70    4.00
  -3  15   2   32.90    3.80
  15 -12   2   29.70    4.60
  13   2  -2   96.89    6.90
  -2  15   2  106.39    6.60
  15 -13   2  101.99    7.60
  14   1  -2   31.10    4.20
  15 -14   2   32.00    4.50
  -1  15   2   31.00    4.00
  15   0  -2   12.70    3.60
   0  15   2    4.10    3.30
  15 -15   2   17.10    4.00
  16  -1  -2    3.60    3.50
  15 -16   2    5.90    3.90
   1  15   2    1.50    3.30
  17  -2  -2   59.69    5.70
  15 -17   2   70.59    6.40
   2  15   2   54.29    5.30
  18  -3  -2   -1.20    3.40
   3  15   2   -2.10    3.50
  15 -18   2    0.20    3.90
  19  -4  -2    0.80    3.90
  15 -19   2    5.60    4.40
   4  15   2   -2.70    4.10
  20  -5  -2  -11.50    4.10
  15 -20   2    2.30    4.60
   5  15   2   -0.80    4.20
  21  -6  -2   41.80    6.20
  15 -21   2   40.20    6.40
   6  15   2   48.00    6.50
  22  -7  -2   -5.00    4.80
   7  15   2    3.30    5.20
  15 -22   2   -1.60    5.30
   8  15   2   -7.50    5.30
  15 -23   2    5.40    5.70
 -15  24  -2   26.50    7.30
   9  15   2   29.00    6.90
  15 -24   2   32.90    7.00
 -15  25  -2    2.90    6.60
  10  15   2    0.90    6.20
 -15  26  -2   -5.80    7.00
  11  15   2   -5.00    6.40
 -10  26  -2   -0.20    7.50
  16  10   2   12.00    8.20
  -9  25  -2    5.30    7.20
  16   9   2    0.80    6.60
  -8  24  -2   15.70    6.60
  16   8   2   10.50    6.60
  -7  23  -2   -3.20    5.50
  16   7   2  -13.30    5.30
  -6  22  -2    2.20    5.50
  16   6   2    4.70    5.50
  -5  21  -2   -9.90    4.80
  16   5   2    8.60    5.00
  -4  20  -2   -4.70    4.50
  16   4   2   -1.60    4.70
  -3  19  -2    6.50    4.20
  16   3   2   18.30    5.20
  -2  18  -2    9.60    4.30
  16   2   2   11.40    4.50
  -1  17  -2   42.70    5.30
  16   1   2   39.10    5.40
   0  16  -2   -0.70    3.30
  16 -16  -2    7.70    4.30
  16   0   2   -2.30    3.60
  15 -16  -2    4.10    3.30
   1  15  -2    1.20    3.40
  16  -1   2   -2.70    3.60
   2  14  -2    2.10    3.10
  14 -16  -2    7.60    3.30
 -14  16   2    5.30    3.40
  16  -2   2    6.10    3.60
   3  13  -2    0.70    3.00
  13 -16  -2    7.60    3.20
  16  -3   2    2.90    3.30
 -13  16   2   10.20    3.20
   4  12  -2   60.49    5.30
  12 -16  -2   66.29    5.10
 -12  16   2   72.89    5.90
  16  -4   2   59.79    5.60
   5  11  -2   52.59    5.00
  11 -16  -2   58.19    4.90
  16  -5   2   62.69    5.50
  10 -16  -2    7.70    3.10
   6  10  -2    7.50    3.10
  16  -6   2    7.10    3.30
   7   9  -2   35.00    4.10
  -9  16   2   36.40    3.80
  16  -7   2   34.40    4.40
   8   8  -2   16.60    3.50
  -8  16   2   22.60    3.30
  16  -8   2   16.00    3.70
   9   7  -2   -2.40    2.80
  16  -9   2    2.10    3.10
  -7  16   2    1.80    2.60
  10   6  -2   60.79    5.30
  16 -10   2   48.60    5.30
  -6  16   2   63.49    5.40
  11   5  -2   41.00    4.70
  16 -11   2   46.40    5.20
  -5  16   2   46.30    4.30
  12   4  -2    3.80    3.20
  16 -12   2   -0.30    3.40
  -4  16   2    1.30    2.70
  13   3  -2   10.80    3.50
  -3  16   2   11.80    3.30
  16 -13   2   20.00    4.30
  14   2  -2   14.60    4.00
  16 -14   2   17.50    4.30
  -2  16   2   20.20    4.00
  15   1  -2   26.10    4.70
  16 -15   2   38.30    5.20
  -1  16   2   27.60    4.30
  16   0  -2    1.40    3.50
  16 -16   2   -4.40    3.60
   0  16   2   -0.40    3.40
  17  -1  -2   28.90    4.90
   1  16   2   27.20    4.60
  16 -17   2   34.80    5.40
  18  -2  -2    5.20    4.00
  16 -18   2    5.80    4.60
   2  16   2   -1.40    3.80
  19  -3  -2   14.90    4.60
   3  16   2   15.40    4.90
  16 -19   2   16.40    4.90
  20  -4  -2   -1.60    4.50
   4  16   2   -4.00    4.30
  16 -20   2    5.20    4.80
  21  -5  -2    6.40    5.10
   5  16   2    0.90    4.90
  16 -21   2    4.30    5.30
  22  -6  -2    2.80    4.80
  16 -22   2    3.30    5.50
   6  16   2   -8.20    4.90
   7  16   2    4.90    5.90
  16 -23   2    8.70    5.90
   8  16   2  -11.50    5.80
  16 -24   2   -0.40    6.20
 -16  25  -2    5.50    6.90
   9  16   2   -2.70    6.10
  10  16   2    6.30    7.00
  -9  26  -2  -18.80    7.70
  17   9   2   -4.40   10.50
  -8  25  -2    2.00    7.10
  17   8   2   -5.60    6.70
  -7  24  -2   -1.70    6.20
  17   7   2    0.80    6.30
  -6  23  -2    1.20    5.80
  17   6   2   -1.90    5.60
  -5  22  -2    4.00    5.60
  17   5   2    5.90    5.70
  -4  21  -2   28.30    6.30
  17   4   2   36.10    6.90
  -3  20  -2   -9.00    4.50
  17   3   2   -3.20    4.70
  -2  19  -2    3.80    4.40
  17   2   2   -3.00    4.70
  -1  18  -2   11.20    4.40
  17   1   2   10.80    4.90
   0  17  -2   14.60    4.40
  17   0   2    6.10    4.30
   1  16  -2   26.40    4.70
  17  -1   2   29.90    5.20
   2  15  -2   69.29    6.00
  15 -17  -2   63.89    6.00
  17  -2   2   55.99    5.90
  14 -17  -2   49.20    4.90
   3  14  -2   48.20    5.20
 -14  17   2   55.49    5.30
  17  -3   2   46.80    5.40
  13 -17  -2    3.60    3.20
   4  13  -2    2.20    3.10
 -13  17   2    4.90    3.30
  17  -4   2   -8.30    3.30
   5  12  -2   -1.40    2.80
  12 -17  -2    3.60    3.10
  17  -5   2    1.50    3.30
 -12  17   2   -1.80    3.20
   6  11  -2    9.90    3.30
  11 -17  -2   10.30    3.30
  17  -6   2   15.20    4.00
   7  10  -2   22.80    3.90
  17  -7   2   21.20    4.30
 -10  17   2   21.10    3.60
   8   9  -2  125.79    7.60
  -9  17   2  104.79    6.70
  17  -8   2  102.09    7.40
   9   8  -2    3.80    3.10
  17  -9   2    6.30    3.70
  -8  17   2    3.80    2.90
  10   7  -2   16.70    3.80
  17 -10   2   13.70    4.10
  -7  17   2   14.60    3.30
  11   6  -2    0.20    3.00
  -6  17   2   -5.50    2.50
  17 -11   2    3.10    3.70
  12   5  -2   -0.10    3.20
  -5  17   2   -5.70    2.70
  17 -12   2   -2.20    3.50
  13   4  -2   12.80    3.90
  -4  17   2    7.60    3.40
  17 -13   2   11.60    4.40
  14   3  -2    9.40    3.80
  17 -14   2    7.10    4.20
  -3  17   2    0.40    3.40
  15   2  -2    3.60    3.70
  17 -15   2   11.90    4.40
  -2  17   2    4.20    3.60
  16   1  -2   51.09    5.60
  -1  17   2   47.70    5.40
  17 -16   2   45.10    5.90
  17   0  -2   10.00    4.20
   0  17   2    4.70    4.20
  17 -17   2    5.90    4.40
  18  -1  -2    3.30    4.20
  17 -18   2    9.00    4.80
   1  17   2    0.00    4.20
  19  -2  -2   12.60    4.90
  17 -19   2   18.10    5.30
   2  17   2    6.30    4.50
  20  -3  -2   -0.90    4.60
   3  17   2    8.80    4.90
  17 -20   2    2.30    5.00
  21  -4  -2    7.50    5.20
  17 -21   2   17.10    5.90
   4  17   2    7.50    5.50
  22  -5  -2    0.20    5.00
   5  17   2    6.00    5.50
  17 -22   2    5.40    5.60
  23  -6  -2   12.50    6.00
  17 -23   2   19.30    6.60
   6  17   2    4.70    6.40
  17 -24   2  -10.50    6.00
   7  17   2  -19.90    5.70
   8  17   2   -3.10    6.20
   9  17   2   -6.30    7.50
  -7  25  -2    2.70    7.30
  18   7   2  -16.40    6.20
  -6  24  -2    2.20    6.30
  18   6   2   -0.10    6.40
  -5  23  -2    1.10    6.00
  18   5   2   -6.90    5.90
  -4  22  -2   -4.40    5.60
  18   4   2    2.50    5.90
  -3  21  -2   -1.80    5.30
  18   3   2    2.20    5.30
  -2  20  -2   -1.70    5.10
  18   2   2    0.30    4.90
  -1  19  -2   -2.20    4.20
  18   1   2   -5.60    4.50
   0  18  -2   -1.70    4.10
  18   0   2    4.40    4.70
   1  17  -2    8.50    4.20
  18  -1   2   -3.20    4.30
   2  16  -2    2.60    3.80
  18  -2   2    0.70    4.10
   3  15  -2   -2.30    3.50
  18  -3   2    3.00    4.20
   4  14  -2   11.90    3.90
  14 -18  -2    6.10    3.60
  18  -4   2    7.80    4.20
 -14  18   2    4.30    3.90
   5  13  -2  131.59    8.50
  13 -18  -2  141.29    8.30
  18  -5   2  125.89    8.50
 -13  18   2  134.69    8.30
   6  12  -2   11.30    3.70
  12 -18  -2    8.50    3.80
  18  -6   2   10.00    4.20
   7  11  -2   22.20    4.20
 -11  18   2   26.60    4.00
  18  -7   2   21.40    4.80
   8  10  -2   10.00    3.70
  18  -8   2    7.00    4.10
 -10  18   2   10.20    3.30
   9   9  -2   26.40    4.30
  -9  18   2   27.60    4.00
  18  -9   2   28.90    4.80
  10   8  -2   25.10    4.30
  -8  18   2   33.30    4.30
  18 -10   2   25.90    4.80
  11   7  -2   27.30    4.50
  18 -11   2   34.10    5.30
  -7  18   2   18.70    3.90
  12   6  -2   10.30    3.90
  -6  18   2   13.30    3.70
  18 -12   2   17.30    4.90
  13   5  -2   53.89    5.50
  -5  18   2   60.99    5.50
  18 -13   2   44.70    5.90
  14   4  -2   28.80    4.80
  -4  18   2   22.80    4.40
  18 -14   2   33.30    5.40
  15   3  -2    8.50    3.80
  -3  18   2   12.50    4.00
  18 -15   2    7.20    4.50
  16   2  -2    6.10    4.10
  -2  18   2    5.20    4.00
  18 -16   2   16.20    4.90
  17   1  -2   22.00    5.00
  -1  18   2   19.40    5.00
  18 -17   2   16.50    5.10
  18   0  -2    1.00    4.20
  18 -18   2   -0.60    4.70
   0  18   2   -2.60    4.10
  19  -1  -2   -4.20    4.30
  18 -19   2   -3.60    4.80
   1  18   2   -9.30    4.00
  20  -2  -2   12.00    5.30
   2  18   2   14.50    5.50
  18 -20   2   13.10    5.80
  21  -3  -2    6.50    5.10
   3  18   2   -0.90    5.10
  18 -21   2    8.60    5.50
  22  -4  -2   -0.70    5.30
   4  18   2   -0.40    5.40
  18 -22   2   -3.60    5.30
  23  -5  -2   -1.60    5.70
   5  18   2  -10.10    5.50
  18 -23   2    2.10    6.00
   6  18   2   -8.10    6.20
   7  18   2   -7.00    6.40
  -6  25  -2   -3.00    7.20
  19   6   2  -14.70    6.60
  -5  24  -2   -8.00    6.30
  19   5   2   -8.80    6.20
  -4  23  -2    2.00    6.20
  19   4   2    7.90    6.60
  -3  22  -2    1.70    6.20
  19   3   2    5.40    6.20
  -2  21  -2   -2.10    5.40
  19   2   2   -9.10    5.40
  -1  20  -2   -2.00    5.00
  19   1   2    2.10    5.40
   0  19  -2   10.90    5.10
  19   0   2   15.90    5.70
   1  18  -2    1.70    4.40
  19  -1   2   -0.10    4.70
   2  17  -2   18.30    5.00
  19  -2   2   12.00    5.10
   3  16  -2   10.40    4.70
  19  -3   2   11.50    5.10
   4  15  -2   -1.60    3.90
 -15  19   2    1.80    6.40
  19  -4   2    1.00    4.40
   5  14  -2   -2.60    3.50
 -14  19   2    0.80    4.20
  19  -5   2    2.40    4.20
  13 -19  -2    1.30    3.60
   6  13  -2    8.20    3.80
 -13  19   2    1.10    3.90
  19  -6   2    4.20    4.10
   7  12  -2   20.00    4.30
  19  -7   2   14.10    4.80
 -12  19   2   22.60    4.10
   8  11  -2   35.00    5.00
  19  -8   2   28.20    5.50
 -11  19   2   42.80    4.80
   9  10  -2   40.40    5.10
  19  -9   2   40.10    5.60
 -10  19   2   37.20    4.80
  10   9  -2    1.70    3.70
  -9  19   2    1.30    3.40
  19 -10   2    1.40    4.10
  11   8  -2   40.20    5.50
  19 -11   2   37.60    5.80
  -8  19   2   35.30    4.70
  12   7  -2   -1.50    3.70
  19 -12   2   -3.30    4.30
  -7  19   2    1.00    3.30
  13   6  -2    1.60    3.60
  19 -13   2   -1.00    4.30
  -6  19   2   -2.90    3.50
  14   5  -2   13.10    4.60
  19 -14   2   15.10    5.10
  -5  19   2   14.60    4.40
  15   4  -2   10.40    4.50
  19 -15   2    4.00    4.60
  -4  19   2    5.80    4.20
  16   3  -2   16.00    4.60
  19 -16   2   14.20    5.20
  -3  19   2   18.40    4.90
  17   2  -2   10.80    4.70
  19 -17   2   -2.00    4.60
  -2  19   2    1.50    4.50
  18   1  -2   -6.30    4.40
  19 -18   2    7.20    5.00
  -1  19   2   -7.00    4.10
  19   0  -2   10.80    5.10
   0  19   2   12.00    5.10
  19 -19   2    2.80    5.20
  20  -1  -2   -2.70    4.90
  19 -20   2    2.50    5.40
   1  19   2   -1.50    4.80
  21  -2  -2   -1.00    4.80
  19 -21   2   -0.20    5.80
   2  19   2   -4.70    5.10
  22  -3  -2    9.60    5.90
   3  19   2   21.10    6.20
  19 -22   2   19.00    6.50
  23  -4  -2   16.70    6.30
   4  19   2   12.40    6.40
   5  19   2   -3.50    6.30
   6  19   2    3.20    6.80
  -5  25  -2   -3.50    7.40
  20   5   2  -15.00    8.60
  -4  24  -2    2.20    6.90
  20   4   2    3.20    7.10
  -3  23  -2    4.20    6.30
  20   3   2  -11.30    5.90
  -2  22  -2    9.50    6.30
  20   2   2    7.20    6.50
  -1  21  -2   -7.80    5.30
  20   1   2   -7.30    5.90
   0  20  -2   12.90    6.10
  20   0   2   13.70    6.10
   1  19  -2    2.20    5.10
  20  -1   2   -6.60    5.00
   2  18  -2    7.00    5.40
  20  -2   2   18.30    5.80
   3  17  -2   -5.80    4.70
  20  -3   2    0.20    5.00
   4  16  -2  -10.80    4.00
  20  -4   2  -10.20    4.20
   5  15  -2  -13.10    3.70
 -15  20   2   -7.80    5.50
  20  -5   2    4.90    4.40
   6  14  -2   -4.80    4.00
  20  -6   2   -7.30    4.00
 -14  20   2  -16.30    4.50
   7  13  -2  -11.20    3.60
 -13  20   2   -6.30    3.70
  20  -7   2    2.70    4.70
   8  12  -2   13.30    4.90
  20  -8   2   21.70    5.30
 -12  20   2   20.00    4.50
   9  11  -2   13.00    4.60
  20  -9   2   23.80    5.30
 -11  20   2   21.60    4.30
  10  10  -2   -1.30    4.10
 -10  20   2   11.00    4.00
  20 -10   2    3.50    4.50
  11   9  -2   51.09    6.20
  -9  20   2   45.60    5.40
  20 -11   2   41.00    6.10
  12   8  -2    8.40    4.70
  20 -12   2    9.80    5.00
  -8  20   2    7.20    3.90
  13   7  -2   16.30    5.00
  20 -13   2   15.30    5.40
  -7  20   2   10.60    4.40
  14   6  -2    8.60    4.70
  20 -14   2    9.60    5.20
  -6  20   2   13.10    4.70
  15   5  -2   24.40    5.30
  -5  20   2   14.80    4.90
  20 -15   2   27.60    6.00
  16   4  -2    5.00    4.70
  -4  20   2    9.50    4.60
  20 -16   2    8.20    5.20
  17   3  -2    4.10    4.70
  20 -17   2   -0.60    4.80
  -3  20   2   -2.40    4.40
  18   2  -2   -2.00    4.80
  20 -18   2    3.00    5.10
  -2  20   2   -1.50    4.70
  19   1  -2   -0.10    5.00
  -1  20   2   -4.70    5.10
  20 -19   2    0.60    5.60
  20   0  -2   16.50    6.10
   0  20   2   23.60    6.00
  20 -20   2   21.40    6.70
  21  -1  -2   -7.30    5.50
  20 -21   2   -4.70    5.60
   1  20   2    1.10    5.60
  22  -2  -2   -2.20    5.50
   2  20   2   -0.30    5.70
  23  -3  -2    8.60    6.10
   3  20   2   -3.50    6.20
  24  -4  -2   -1.00    6.60
   4  20   2   -4.20    6.40
   5  20   2   -7.20    6.90
  -3  24  -2   14.70    7.30
  21   3   2   15.10    7.70
  -2  23  -2    8.90    6.70
  21   2   2   11.60    7.20
  -1  22  -2   -5.00    5.80
  21   1   2   10.20    6.40
   0  21  -2   -3.80    6.00
  21   0   2    4.00    6.00
   1  20  -2  -10.40    5.10
  21  -1   2   -3.90    5.70
   2  19  -2  -13.50    4.90
  21  -2   2    0.70    5.60
   3  18  -2    8.70    5.30
  21  -3   2    4.20    5.90
   4  17  -2   10.90    5.30
  21  -4   2    1.90    5.40
   5  16  -2    1.60    4.80
  21  -5   2    3.60    5.00
   6  15  -2   41.00    6.30
  21  -6   2   40.00    6.60
 -15  21   2   44.80    7.60
   7  14  -2   -0.70    4.60
  21  -7   2    0.50    5.10
 -14  21   2   -2.30    5.10
   8  13  -2   -4.40    4.40
  21  -8   2    1.60    5.10
   9  12  -2    9.80    5.10
 -12  21   2    8.50    4.90
  21  -9   2    8.40    5.00
  10  11  -2  -15.00    4.40
 -11  21   2   -1.00    3.90
  21 -10   2   -1.30    4.70
  11  10  -2  -12.40    4.70
  21 -11   2    1.70    4.80
 -10  21   2   -3.00    4.00
  12   9  -2   -7.80    4.60
  21 -12   2   -5.60    4.70
  -9  21   2    3.20    4.20
  13   8  -2   -7.90    5.00
  21 -13   2    8.70    5.50
  -8  21   2    9.70    4.80
  14   7  -2  -12.50    4.40
  -7  21   2   -5.00    4.30
  21 -14   2   -7.40    4.90
  15   6  -2   -6.90    4.60
  21 -15   2  -14.20    4.90
  -6  21   2   -1.20    4.50
  16   5  -2  -15.10    4.40
  21 -16   2   -2.20    5.20
  -5  21   2   -5.60    4.40
  17   4  -2   24.80    6.00
  21 -17   2   16.30    6.00
  -4  21   2   23.90    5.90
  18   3  -2    4.50    5.60
  -3  21   2   -4.90    5.10
  21 -18   2   -2.10    5.40
  19   2  -2    1.70    5.60
  -2  21   2   -7.00    5.30
  21 -19   2    6.70    5.90
  20   1  -2   -5.90    5.80
  -1  21   2   -2.70    5.40
  21 -20   2    3.30    6.40
  21   0  -2   -1.20    5.90
   0  21   2   -0.50    5.70
  22  -1  -2   20.50    6.80
   1  21   2   21.90    6.70
  23  -2  -2    2.70    6.30
   2  21   2   -5.10    6.30
  24  -3  -2  -11.90    6.40
   3  21   2   -3.30    7.00
  -1  23  -2    3.10    7.00
  22   1   2   -0.20    7.10
   0  22  -2   -6.80    6.20
  22   0   2   -4.80    6.40
   1  21  -2   12.60    6.70
  22  -1   2   22.30    7.00
   2  20  -2   -2.50    5.50
  22  -2   2    0.30    6.10
   3  19  -2    9.30    5.90
  22  -3   2   13.40    6.60
   4  18  -2   -2.40    4.90
  22  -4   2   -3.10    5.70
   5  17  -2    4.30    5.30
  22  -5   2    9.40    5.70
   6  16  -2   -1.10    4.70
  22  -6   2   -1.80    5.40
   7  15  -2   -2.00    4.80
 -15  22   2   -2.80    6.10
  22  -7   2    0.30    5.40
   8  14  -2   30.10    6.00
 -14  22   2   31.20    6.50
  22  -8   2   11.20    5.90
   9  13  -2   36.50    6.40
  22  -9   2   39.30    6.70
  10  12  -2   17.00    5.60
  22 -10   2   21.70    6.00
  11  11  -2    0.10    4.70
  22 -11   2   -5.30    5.00
 -11  22   2   -8.40    4.80
  12  10  -2   10.90    5.40
 -10  22   2    3.40    4.90
  22 -12   2   -1.00    5.50
  13   9  -2   -2.50    4.90
  22 -13   2   -1.50    5.90
  -9  22   2   -9.90    4.60
  14   8  -2    6.30    5.00
  22 -14   2    3.80    5.70
  -8  22   2   -2.00    4.80
  15   7  -2   12.40    5.80
  -7  22   2   25.70    5.90
  22 -15   2   25.00    6.70
  16   6  -2    2.90    5.30
  22 -16   2    6.00    5.70
  -6  22   2    7.30    5.40
  17   5  -2   -2.00    5.00
  22 -17   2    7.80    6.10
  -5  22   2    5.90    5.50
  18   4  -2   -8.30    5.10
  22 -18   2   -6.30    5.50
  -4  22   2    1.40    5.50
  19   3  -2    3.70    5.70
  -3  22   2    7.80    6.10
  22 -19   2    7.10    7.70
  20   2  -2   10.40    6.30
  -2  22   2    4.30    6.20
  21   1  -2   -2.30    5.90
  -1  22   2    0.30    6.00
  22   0  -2    2.70    6.50
   0  22   2   -4.00    6.10
  23  -1  -2    1.20    6.50
   1  22   2  -13.00    6.50
   1  22  -2   -6.50    6.50
  23  -1   2   -3.90    7.10
   2  21  -2    3.90    6.30
  23  -2   2   -7.60    6.80
   3  20  -2    5.40    6.10
  23  -3   2    3.20    6.10
   4  19  -2   18.30    6.30
  23  -4   2   23.50    7.10
   5  18  -2   -1.50    5.60
  23  -5   2    0.90    6.40
   6  17  -2   16.20    6.00
  23  -6   2   10.10    6.40
   7  16  -2   13.80    6.10
  23  -7   2   -3.00    6.00
   8  15  -2    3.10    5.10
  23  -8   2   -9.70    5.40
 -15  23   2   -4.60    6.50
   9  14  -2    1.00    5.40
  23  -9   2   -0.40    5.40
 -14  23   2   -8.30    5.50
  10  13  -2   -7.20    5.00
  23 -10   2   -1.20    5.30
  11  12  -2   -5.70    4.80
  23 -11   2    2.70    5.70
  12  11  -2   42.80    6.70
  23 -12   2   41.10    7.40
  13  10  -2    4.90    5.30
  23 -13   2    8.20    6.70
 -10  23   2    8.50    8.00
  14   9  -2    0.90    4.80
  23 -14   2   -4.80    6.00
  -9  23   2    1.90    5.40
  15   8  -2   -0.70    5.30
  23 -15   2   -0.50    5.80
  -8  23   2   -0.10    5.40
  16   7  -2    2.30    5.50
  -7  23   2   -2.70    5.70
  23 -16   2   -7.50    5.70
  17   6  -2    2.50    5.70
  23 -17   2   -5.30    6.10
  -6  23   2   -5.40    5.60
  18   5  -2   -1.40    5.60
  -5  23   2   -6.60    5.70
  19   4  -2   10.00    6.20
  -4  23   2    5.00    6.20
  20   3  -2   -2.40    6.00
  -3  23   2    0.00    6.30
  21   2  -2   20.60    7.30
  -2  23   2   11.70    6.80
  22   1  -2    7.30    6.80
  -1  23   2   -3.70    6.80
   3  21  -2  -13.90    6.20
  24  -3   2  -15.50    6.60
   4  20  -2   -1.90    6.50
  24  -4   2    1.20    6.70
   5  19  -2   10.40    6.40
  24  -5   2   -5.60    6.20
   6  18  -2   -4.00    5.80
  24  -6   2   -9.00    6.20
   7  17  -2   -5.50    5.80
  24  -7   2  -13.50    5.70
   8  16  -2   -1.50    5.50
  24  -8   2   -7.90    6.10
   9  15  -2   26.00    6.80
  24  -9   2   26.80    7.40
 -15  24   2   36.30    9.50
  10  14  -2   29.40    7.00
 -14  24   2   26.50    7.40
  24 -10   2   18.00    7.00
  11  13  -2    6.90    6.00
  24 -11   2    9.50    6.80
  12  12  -2    8.40    5.80
  24 -12   2  -11.40    6.50
  13  11  -2   17.10    6.20
  24 -13   2  -11.40    6.70
  14  10  -2   10.30    6.00
  24 -14   2   -4.90    6.90
  15   9  -2    9.50    6.30
  24 -15   2    7.60    6.90
  16   8  -2    3.70    6.00
  24 -16   2    2.90    7.10
  -8  24   2   -1.60    6.10
  17   7  -2    1.60    5.90
  -7  24   2   -1.20    6.00
  18   6  -2    6.00    6.10
  -6  24   2    0.50    6.20
  19   5  -2    2.30    6.50
  -5  24   2    1.90    6.40
  20   4  -2    1.40    6.60
  -4  24   2  -11.10    6.70
  21   3  -2   10.80    7.30
  -3  24   2    1.40    7.20
   5  20  -2  -13.60    8.90
  25  -5   2  -11.60    6.60
   6  19  -2   -7.20    6.40
  25  -6   2   -1.60    6.80
   7  18  -2   -6.10    6.50
  25  -7   2   -0.10    6.90
   8  17  -2  -12.30    6.20
  25  -8   2    2.50    6.80
   9  16  -2  -11.50    6.00
  25  -9   2   -1.90    6.50
  10  15  -2   -1.20    6.10
  25 -10   2    7.10    6.80
 -15  25   2   -3.60    9.30
  11  14  -2   -9.10    5.80
 -14  25   2  -10.20    6.90
  25 -11   2   -4.90    6.60
  12  13  -2    7.80    6.40
 -13  25   2   22.00    8.00
  25 -12   2   14.40    7.60
  13  12  -2    6.00    6.30
  25 -13   2    9.90    7.70
  14  11  -2   -5.80    5.70
  25 -14   2  -15.40    7.10
  15  10  -2    3.90    6.50
  25 -15   2    4.40   12.20
  16   9  -2    5.30    6.40
  17   8  -2   -2.70    6.40
  18   7  -2   -3.60    6.20
  -7  25   2   -0.20    8.10
  19   6  -2   -0.10    6.80
  -6  25   2   -9.60    6.60
  20   5  -2   -4.80    6.80
  -5  25   2   -6.00    7.20
   9  17  -2  -10.90   10.10
  26  -9   2    7.70    7.40
  10  16  -2   -5.50    7.00
  26 -10   2    1.50    7.10
  11  15  -2  -14.90    6.60
  26 -11   2    0.80    7.20
  12  14  -2  -12.30    6.40
  26 -12   2   -3.60    7.40
 -14  26   2  -16.10    7.60
  13  13  -2  -17.30    6.30
  26 -13   2    1.90    9.40
 -13  26   2   -5.60    7.50
  14  12  -2   -5.50    6.40
  15  11  -2    2.80    7.10
  16  10  -2    6.60    7.10
  17   9  -2   -2.90    7.00
   0   0   3   37.90    1.70
   0  -1   3   95.69    3.20
  -1   1   3  100.19    2.80
   1   0   3   97.59    3.20
   0   1   3   96.19    2.90
   1  -1   3   98.69    3.40
  -1   0   3   99.49    2.90
   2  -1  -3  127.89    3.40
   1  -2   3  126.89    4.20
   1   1   3  126.49    3.90
   3  -2  -3   39.80    1.30
   1  -3   3   40.90    2.30
   2   1   3   40.90    2.10
   2   0   3   10.90    1.20
   0  -2   3   10.00    1.20
  -1   2   3  125.39    3.40
   2  -1   3  120.49    4.00
  -1  -1   3  131.49    3.90
   2   0  -3    9.60    0.80
   2  -2   3   12.40    1.40
   0   2   3    9.80    0.90
   3  -1  -3  529.25   14.00
   1   2   3  563.94   14.40
   4  -2  -3  917.31   23.00
   2   2   3  905.51   23.70
   2   2   3  899.81   23.50
   5  -3  -3  632.34   17.10
   3   2   3  683.53   17.80
   3   2   3  675.73   17.60
   4  -3  -3  337.97    8.70
   1  -4   3  327.97    9.60
   3   1   3  337.07    9.50
   0  -3   3   29.90    2.10
   3   0   3   26.90    2.00
   1   2  -3  540.75   14.70
   3  -1   3  559.14   14.90
  -2   3   3  570.94   14.10
   2   1  -3   42.70    1.90
   3  -2   3   44.40    2.50
  -1   3   3   40.20    1.70
   3   0  -3   27.10    1.60
   3  -3   3   29.00    2.30
   0   3   3   27.00    1.70
   0   3   3   29.40    2.10
   4  -1  -3  723.93   18.90
   3  -4   3  725.03   19.60
   1   3   3  757.42   19.50
   1   3   3  729.23   19.10
   5  -2  -3  179.98    5.30
   3  -5   3  184.78    6.20
   2   3   3  182.88    5.70
   6  -3  -3  395.16   10.80
   3   3   3  394.76   11.30
   3  -6   3  408.66   11.70
   7  -4  -3   18.60    1.50
   4   3   3   16.30    1.80
   3  -7   3   19.30    2.10
   6  -4  -3  336.07    9.20
   4   2   3  342.47    9.90
   2  -6   3  330.87   10.00
   5  -4  -3  341.87    9.10
   4   1   3  344.97    9.90
   4   1   3  344.07    9.50
   1  -5   3  338.37   10.00
   4  -4  -3  217.78    5.90
   4   0   3  219.38    6.70
   0  -4   3  212.48    6.70
   1   3  -3  742.03   19.00
   4  -1   3  693.63   19.10
  -3   4   3  720.13   18.20
   2   2  -3  897.31   23.40
   4  -2   3  950.10   23.80
  -2   4   3  875.81   23.00
  -2   4   3  898.71   23.80
   3   1  -3  330.57    9.10
  -1   4   3  333.17    9.60
   4  -3   3  323.87    9.60
  -1   4   3  337.77    8.90
   4   0  -3  214.38    6.20
   0   4   3  209.68    6.60
   0   4   3  213.38    6.20
   4  -4   3  208.48    6.90
   5  -1  -3   20.70    1.70
   4  -5   3   19.50    2.00
   1   4   3   22.50    1.90
   6  -2  -3   34.10    2.00
   4  -6   3   32.40    2.80
   2   4   3   33.80    2.40
   7  -3  -3  135.89    4.40
   3   4   3  127.69    4.80
   4  -7   3  128.79    5.30
   8  -4  -3   10.30    1.50
   4   4   3    8.60    1.60
   4  -8   3    7.20    1.80
   9  -5  -3  525.05   14.80
   5   4   3  560.74   15.50
   4  -9   3  533.65   15.80
   8  -5  -3  109.59    4.00
   3  -8   3  110.99    4.80
   5   3   3  110.19    4.60
   7  -5  -3  218.38    6.30
   5   2   3  209.58    7.00
   2  -7   3  205.88    7.10
   6  -5  -3  116.59    3.90
   5   1   3  115.29    4.00
   1  -6   3  117.99    4.70
   5   1   3  117.79    4.50
   0   5  -3  104.39    4.10
   5  -5  -3  108.39    3.50
   5   0   3  107.59    4.20
   4  -5  -3   22.10    1.40
   1   4  -3   17.80    1.70
   5  -1   3   20.20    1.90
   2   3  -3  184.08    5.80
   5  -2   3  188.38    6.10
  -3   5   3  185.48    5.20
  -3   5   3  177.88    6.00
   3   2  -3  673.83   17.60
  -2   5   3  640.94   17.90
  -2   5   3  675.23   17.20
   5  -3   3  664.43   17.90
   4   1  -3  317.97    9.20
   5  -4   3  317.97    9.80
  -1   5   3  348.67    9.10
   5   0  -3  114.49    3.90
   0   5   3  109.49    3.90
   5  -5   3  110.09    4.70
   6  -1  -3  138.39    4.70
   1   5   3  146.09    4.90
   5  -6   3  139.59    5.40
   7  -2  -3  825.12   21.60
   5  -7   3  799.32   22.40
   2   5   3  840.92   21.90
   8  -3  -3   73.79    3.30
   5  -8   3   74.49    4.00
   3   5   3   67.99    3.50
   9  -4  -3  105.89    4.20
   4   5   3   97.69    4.60
   5  -9   3  102.39    5.10
  10  -5  -3  302.87    9.30
   5   5   3  294.17    9.80
   5 -10   3  313.67   10.30
  11  -6  -3    2.20    1.60
   5 -11   3    5.10    2.00
   6   5   3    2.50    1.90
  10  -6  -3  515.25   14.60
   4 -10   3  514.65   15.50
   6   4   3  527.95   15.20
   9  -6  -3  219.88    7.00
   6   3   3  228.78    7.80
   3  -9   3  226.88    8.00
   8  -6  -3   30.30    2.30
   2  -8   3   27.60    2.60
   6   2   3   28.30    2.40
  -1   7  -3   74.99    3.70
   7  -6  -3   80.89    3.30
   6   1   3   79.89    3.20
   6   1   3   81.99    3.90
   6  -6  -3  294.47    8.20
   0   6  -3  286.47    8.90
   6   0   3  296.57    9.00
   1   5  -3  133.99    5.00
   5  -6  -3  145.69    4.40
   6  -1   3  138.79    5.10
   2   4  -3   31.90    2.30
   4  -6  -3   34.50    1.90
   6  -2   3   33.00    2.60
  -4   6   3   30.60    2.50
   3   3  -3  412.46   11.20
   6  -3   3  394.06   11.40
  -3   6   3  375.96   10.60
  -3   6   3  396.76   11.40
   4   2  -3  342.27   10.00
   6  -4   3  351.76   10.40
  -2   6   3  358.46    9.70
   5   1  -3  122.79    4.40
  -1   6   3  121.69    4.20
   6  -5   3  115.29    5.10
   6   0  -3  281.17    8.40
   0   6   3  297.47    8.40
   6  -6   3  273.27    9.10
   7  -1  -3   58.49    3.00
   6  -7   3   66.89    3.90
   1   6   3   58.89    3.10
   8  -2  -3   12.10    1.60
   2   6   3   12.30    1.80
   6  -8   3   16.70    2.20
   9  -3  -3  620.44   17.30
   3   6   3  647.14   17.70
   6  -9   3  634.14   18.30
  10  -4  -3  153.08    5.90
   6 -10   3  174.78    7.00
   4   6   3  162.18    6.40
  11  -5  -3    8.90    1.90
   5   6   3    9.50    2.20
   6 -11   3    8.30    2.20
  12  -6  -3   43.10    3.50
   6 -12   3   34.80    3.50
   6   6   3   43.20    3.50
  13  -7  -3  281.07    9.30
   7   6   3  266.57    9.70
   6 -13   3  258.47   10.00
  12  -7  -3   58.39    3.80
   7   5   3   60.19    4.30
   5 -12   3   52.59    4.40
  11  -7  -3  335.67   10.20
   7   4   3  327.97   10.90
   4 -11   3  336.37   11.10
  10  -7  -3   88.09    4.20
   3 -10   3   92.59    5.00
   7   3   3  105.99    4.90
   9  -7  -3   68.29    3.60
  -2   9  -3   65.09    4.00
   7   2   3   60.19    3.90
   8  -7  -3   33.00    2.60
  -1   8  -3   37.80    2.90
   7   1   3   37.20    3.10
   7  -7  -3   14.80    1.60
   0   7  -3   13.30    1.90
   7   0   3   12.10    1.80
   7   0   3   17.30    1.50
   6  -7  -3   62.19    2.80
   1   6  -3   62.29    3.40
   7  -1   3   55.69    3.40
  -6   7   3   65.09    3.30
   2   5  -3  822.92   22.10
   5  -7  -3  829.32   21.50
   7  -2   3  810.62   22.30
  -5   7   3  834.92   22.30
   3   4  -3  129.69    4.90
  -4   7   3  129.59    5.00
   7  -3   3  126.99    5.10
  -4   7   3  133.39    4.20
   4   3  -3   19.00    1.90
  -3   7   3   20.10    1.60
   7  -4   3   17.70    2.00
   5   2  -3  208.88    6.70
   7  -5   3  208.18    7.20
  -2   7   3  210.08    6.40
   6   1  -3   75.19    3.50
  -1   7   3   79.49    3.30
   7  -6   3   77.19    4.10
   7   0  -3   13.90    1.70
   7  -7   3   11.90    2.10
   0   7   3   13.10    1.70
   8  -1  -3   42.40    2.80
   1   7   3   42.50    2.90
   7  -8   3   46.40    3.70
   9  -2  -3  877.41   24.30
   2   7   3  938.71   24.60
   7  -9   3  909.71   25.20
  10  -3  -3   90.59    4.30
   3   7   3   93.09    4.50
   7 -10   3   96.79    5.10
  11  -4  -3   23.20    2.50
   4   7   3   27.20    2.90
   7 -11   3   25.90    3.00
  12  -5  -3    2.80    1.70
   5   7   3    0.80    1.80
   7 -12   3    3.60    2.20
  13  -6  -3  271.67    9.20
   6   7   3  272.07    9.80
   7 -13   3  275.67   10.10
  14  -7  -3    0.90    2.20
   7 -14   3    5.10    2.70
   7   7   3    5.50    2.40
  15  -8  -3  117.69    6.50
   8   7   3  125.39    6.70
   7 -15   3  103.19    7.20
  14  -8  -3    4.70    2.30
   8   6   3    8.00    2.60
   6 -14   3    9.00    2.90
  13  -8  -3    0.60    1.90
   8   5   3   -2.30    2.00
   5 -13   3   -0.10    2.20
  12  -8  -3   67.09    4.00
  -4  12  -3   61.09    4.50
   4 -12   3   66.29    4.70
   8   4   3   63.59    4.40
  -3  11  -3  380.86   12.10
  11  -8  -3  386.66   11.50
   8   3   3  368.86   12.00
  10  -8  -3  133.39    5.60
  -2  10  -3  147.69    6.20
   8   2   3  164.68    6.40
  -1   9  -3  801.32   22.30
   9  -8  -3  792.12   21.60
   8   1   3  814.82   22.40
   8  -8  -3  602.04   16.90
   0   8  -3  640.34   17.70
   8   0   3  634.84   17.70
   8   0   3  618.04   16.50
   1   7  -3   50.19    3.20
   7  -8  -3   47.50    2.70
   8  -1   3   48.70    3.40
  -7   8   3   42.70    3.00
   6  -8  -3   15.30    1.60
   2   6  -3   12.10    1.80
  -6   8   3   16.30    2.00
   8  -2   3   11.20    1.90
   5  -8  -3   74.19    3.20
   3   5  -3   70.59    3.70
  -5   8   3   68.19    3.70
   8  -3   3   65.59    3.70
   4   4  -3    9.70    1.70
  -4   8   3    9.40    1.30
   8  -4   3    5.60    1.60
   5   3  -3  104.49    4.40
  -3   8   3  111.39    4.00
   8  -5   3  106.49    4.70
   6   2  -3   33.10    2.60
   8  -6   3   31.60    2.90
  -2   8   3   29.80    2.30
   7   1  -3   38.60    2.90
  -1   8   3   34.80    2.60
   8  -7   3   35.50    3.20
   8   0  -3  618.74   17.10
   8  -8   3  621.44   18.00
   0   8   3  607.34   17.10
   9  -1  -3  178.48    6.60
   8  -9   3  198.78    7.60
   1   8   3  188.28    6.70
  10  -2  -3   25.80    2.50
   8 -10   3   27.80    3.20
   2   8   3   22.40    2.50
  11  -3  -3  128.19    5.50
   8 -11   3  130.79    6.30
   3   8   3  122.29    5.70
  12  -4  -3    9.30    2.10
   8 -12   3    8.20    2.40
   4   8   3    8.50    2.10
  13  -5  -3   -0.90    1.90
   5   8   3   -1.00    2.00
   8 -13   3   -0.70    2.10
  14  -6  -3   55.49    4.60
   6   8   3   62.09    5.10
   8 -14   3   44.60    4.40
  15  -7  -3  293.67   11.00
   7   8   3  322.87   11.60
   8 -15   3  331.87   12.20
  16  -8  -3    7.90    3.10
   8   8   3   12.50    3.40
   8 -16   3   13.50    3.80
  17  -9  -3    1.90    2.80
   9   8   3    0.80    3.00
   8 -17   3    1.00    3.30
  16  -9  -3    6.30    3.00
   9   7   3    4.60    3.00
   7 -16   3    1.20    3.30
  -6  15  -3   16.40    3.10
  15  -9  -3   13.20    3.00
   9   6   3   23.00    3.60
   6 -15   3   10.90    3.60
  14  -9  -3   18.60    2.90
  -5  14  -3   15.90    2.90
   9   5   3   15.30    2.90
  -4  13  -3   10.80    2.60
  13  -9  -3   15.40    2.60
   9   4   3   11.70    2.60
  -3  12  -3   33.20    3.30
  12  -9  -3   31.90    3.10
   9   3   3   24.60    3.00
  -2  11  -3  259.57    9.40
  11  -9  -3  284.97    9.10
   9   2   3  271.37    9.60
  -1  10  -3   42.80    3.40
  10  -9  -3   38.00    3.00
   9   1   3   46.50    3.80
   0   9  -3  185.48    7.10
   9  -9  -3  193.88    6.50
   9   0   3  190.68    7.20
   9   0   3  181.88    5.80
   1   8  -3  183.28    6.90
   8  -9  -3  179.58    6.30
   9  -1   3  188.48    7.20
  -8   9   3  198.38    6.90
   7  -9  -3  913.91   24.50
   2   7  -3  916.71   25.30
   9  -2   3  952.50   25.40
  -7   9   3  934.01   25.20
   6  -9  -3  633.14   17.20
   3   6  -3  627.94   17.90
  -6   9   3  648.34   18.00
   9  -3   3  638.14   18.10
   4   5  -3  103.99    4.60
   9  -4   3  101.09    4.90
  -5   9   3  103.09    4.00
   5   4  -3  537.05   15.40
  -4   9   3  538.95   14.80
   9  -5   3  544.85   15.80
   6   3  -3  233.98    7.70
  -3   9   3  214.68    7.10
   9  -6   3  236.28    8.20
   7   2  -3   63.39    3.70
   9  -7   3   60.79    4.50
  -2   9   3   59.59    3.30
   8   1  -3  769.02   21.60
   9  -8   3  814.22   22.60
  -1   9   3  790.02   21.40
   9   0  -3  182.08    6.80
   9  -9   3  202.98    7.90
   0   9   3  192.28    6.90
  10  -1  -3   20.30    2.40
   1   9   3   21.30    2.40
   9 -10   3   18.40    2.90
  11  -2  -3   15.60    2.30
   9 -11   3   20.90    3.00
   2   9   3   16.70    2.60
  12  -3  -3    3.50    2.00
   3   9   3    4.10    2.00
   9 -12   3    4.00    2.30
  13  -4  -3   19.40    2.80
   4   9   3   18.00    2.70
   9 -13   3   20.80    3.30
  14  -5  -3    5.30    2.50
   9 -14   3    1.10    2.50
   5   9   3    6.10    2.50
  15  -6  -3  177.38    7.90
   9 -15   3  184.38    8.70
   6   9   3  184.78    8.20
  16  -7  -3    4.20    2.90
   9 -16   3   -0.20    3.20
   7   9   3    1.00    2.90
  17  -8  -3   43.90    4.50
   8   9   3   40.80    4.70
   9 -17   3   46.90    5.30
  18  -9  -3   -0.30    3.10
   9 -18   3   -2.90    3.40
   9   9   3   -1.60    3.20
  -9  19  -3    1.60    3.70
  10   9   3   -4.90    3.50
  18 -10  -3   -1.50    3.10
  -8  18  -3   -1.50    3.20
  10   8   3   -1.10    3.20
  17 -10  -3    3.10    2.90
  -7  17  -3   -1.20    2.80
  10   7   3   -2.10    2.90
  16 -10  -3  202.38    8.90
  -6  16  -3  207.88    9.10
  10   6   3  197.88    9.40
  -5  15  -3   89.29    5.80
  15 -10  -3   65.89    5.00
  10   5   3   73.69    5.70
  14 -10  -3   36.00    3.70
  -4  14  -3   34.10    3.80
  10   4   3   32.40    3.70
  -3  13  -3   13.10    2.70
  13 -10  -3   12.70    2.60
  10   3   3    8.50    2.50
  12 -10  -3    1.30    2.00
  -2  12  -3    1.70    2.00
  10   2   3    0.30    1.90
  11 -10  -3   92.89    4.70
  -1  11  -3   91.29    5.20
  10   1   3   86.99    5.30
  10 -10  -3    8.40    1.90
   0  10  -3    1.00    2.10
  10   0   3    6.90    2.20
  10   0   3   10.40    1.50
   1   9  -3   20.00    2.60
   9 -10  -3   19.60    2.20
  10  -1   3   16.70    2.50
  -9  10   3   19.50    2.50
   8 -10  -3   28.40    2.40
   2   8  -3   24.40    2.80
  -8  10   3   32.30    3.10
  10  -2   3   24.10    2.80
   3   7  -3   89.69    4.90
   7 -10  -3  111.19    4.40
  -7  10   3   93.49    4.90
  10  -3   3   95.39    5.10
   4   6  -3  149.69    6.10
  -6  10   3  147.99    5.40
  10  -4   3  162.78    6.40
   5   5  -3  309.37    9.90
  10  -5   3  298.27   10.10
  -5  10   3  302.67    9.10
   6   4  -3  508.25   15.30
  10  -6   3  543.65   15.80
  -4  10   3  539.45   14.80
   7   3  -3   95.99    4.80
  -3  10   3  103.29    4.40
  10  -7   3   92.99    5.30
   8   2  -3  143.29    6.00
  -2  10   3  157.68    5.80
  10  -8   3  143.79    6.60
   9   1  -3   45.50    3.40
  -1  10   3   46.80    3.40
  10  -9   3   35.40    3.70
  10   0  -3    7.30    2.20
   0  10   3    7.00    2.00
  10 -10   3    8.20    2.60
  11  -1  -3   47.90    3.90
  10 -11   3   45.90    4.10
   1  10   3   51.49    4.00
  12  -2  -3   -0.70    2.00
  10 -12   3    0.70    2.40
   2  10   3    3.10    2.00
  13  -3  -3    0.20    2.20
  10 -13   3    8.70    2.90
   3  10   3    5.70    2.20
  14  -4  -3  255.07    9.40
  10 -14   3  240.58   10.00
   4  10   3  235.78    9.20
  15  -5  -3    2.40    2.80
   5  10   3    2.00    2.70
  10 -15   3    3.80    3.10
  16  -6  -3   23.30    3.70
   6  10   3   17.90    3.70
  10 -16   3   22.00    4.10
  17  -7  -3    3.60    3.00
  10 -17   3    4.10    3.50
   7  10   3    7.10    3.20
  18  -8  -3    2.30    3.30
   8  10   3   -3.40    3.20
  10 -18   3    2.50    3.60
  19  -9  -3    4.80    3.50
   9  10   3    1.20    3.70
  10 -19   3    4.10    4.10
 -10  20  -3   39.80    5.70
  10  10   3   40.70    5.60
 -10  21  -3  120.49   10.20
  11  10   3  144.99    9.80
  -9  20  -3    1.90    4.30
  11   9   3    6.00    4.30
  -8  19  -3   64.29    6.10
  11   8   3   52.89    5.90
  -7  18  -3    4.50    3.40
  11   7   3   -4.30    3.00
  -6  17  -3    6.20    3.40
  17 -11  -3    6.10    3.30
  11   6   3   -0.40    2.90
  16 -11  -3    1.80    3.20
  -5  16  -3    3.50    3.10
  11   5   3   10.20    3.20
  15 -11  -3   -3.00    2.60
  -4  15  -3   -1.30    2.50
  11   4   3   -3.30    2.40
  -3  14  -3    6.30    2.70
  14 -11  -3    8.50    2.80
  11   3   3    9.00    2.90
  13 -11  -3    2.30    2.20
  -2  13  -3    3.60    2.30
  11   2   3    5.40    2.60
  -1  12  -3   34.90    3.50
  12 -11  -3   32.50    3.10
  11   1   3   28.20    3.50
   0  11  -3  267.47    9.60
  11 -11  -3  265.47    8.90
  11   0   3  278.47    9.90
  11   0   3  247.38    7.80
  10 -11  -3   49.70    3.60
   1  10  -3   50.99    4.40
  11  -1   3   51.39    4.30
   9 -11  -3   20.40    2.40
   2   9  -3   19.60    2.70
  -9  11   3   24.60    2.90
  11  -2   3   18.30    2.80
   8 -11  -3  129.19    5.10
   3   8  -3  131.19    5.80
  11  -3   3  123.99    6.00
  -8  11   3  115.49    5.50
   4   7  -3   31.90    3.20
   7 -11  -3   25.80    2.40
  11  -4   3   26.50    3.00
   5   6  -3    7.40    2.10
  -6  11   3   10.60    1.70
  11  -5   3   12.10    2.40
   6   5  -3    2.70    1.80
  -5  11   3    2.40    1.40
  11  -6   3    0.90    2.00
   7   4  -3  342.37   10.80
  11  -7   3  325.57   11.10
  -4  11   3  333.07   10.20
   8   3  -3  407.16   12.30
  -3  11   3  387.56   11.80
  11  -8   3  389.16   13.00
   9   2  -3  259.67    9.20
  11  -9   3  264.57    9.90
  -2  11   3  266.47    8.80
  10   1  -3   82.59    5.00
  -1  11   3   87.49    4.80
  11 -10   3  100.79    5.90
  11   0  -3  285.67    9.60
   0  11   3  265.67    9.50
  11 -11   3  275.97   10.50
  12  -1  -3  181.38    7.60
   1  11   3  196.58    7.80
  11 -12   3  194.58    8.60
  13  -2  -3   42.50    3.80
  11 -13   3   34.70    4.20
   2  11   3   35.70    3.60
  14  -3  -3    3.00    2.60
   3  11   3    7.40    2.60
  11 -14   3    6.50    3.20
  15  -4  -3   10.90    3.30
  11 -15   3   21.40    4.00
   4  11   3   12.10    3.10
  16  -5  -3   -0.70    2.90
   5  11   3   -6.20    2.60
  11 -16   3    0.90    3.20
  17  -6  -3   -0.50    3.10
   6  11   3    1.20    3.00
  11 -17   3   -1.00    3.40
  18  -7  -3    4.10    3.40
  11 -18   3    0.80    3.60
   7  11   3   -8.20    3.10
  19  -8  -3    8.20    3.80
   8  11   3   -1.50    3.50
  11 -19   3    6.10    4.30
   9  11   3   11.90    4.50
  11 -20   3    5.60    5.20
 -11  21  -3   38.70    5.90
  10  11   3   30.40    5.70
 -11  22  -3   12.10    5.40
  11  11   3    6.70    5.20
 -11  23  -3   26.80    6.40
  12  11   3   32.20    6.50
 -10  22  -3   17.10    5.70
  12  10   3    6.30    5.30
  -9  21  -3   57.69    7.20
  12   9   3   66.29    7.10
  -8  20  -3    0.10    4.20
  12   8   3    4.30    4.30
  -7  19  -3   15.90    4.40
  12   7   3    9.80    4.20
  -6  18  -3    7.10    3.70
  12   6   3    1.10    3.50
  -5  17  -3  157.98    8.80
  17 -12  -3  168.58   10.90
  12   5   3  134.69    8.60
  -4  16  -3   89.19    6.70
  16 -12  -3   91.99    6.80
  12   4   3  102.19    6.90
  -3  15  -3   35.90    4.40
  15 -12  -3   45.10    4.50
  12   3   3   40.70    4.50
  14 -12  -3   86.19    5.70
  -2  14  -3   94.89    6.30
  12   2   3   86.69    6.30
  13 -12  -3   14.00    2.70
  -1  13  -3    6.40    2.50
  12   1   3    8.00    2.80
   0  12  -3  104.19    5.80
  12 -12  -3  113.19    5.70
  12   0   3   92.69    5.80
   1  11  -3  183.98    7.80
  11 -12  -3  184.08    7.20
  12  -1   3  189.38    8.10
   2  10  -3    0.00    2.00
  10 -12  -3    2.00    1.90
  12  -2   3   -0.20    2.10
 -10  12   3    2.20    2.00
   9 -12  -3    4.50    1.80
   3   9  -3    0.10    1.90
  12  -3   3    4.10    2.20
  -9  12   3    3.40    2.10
   4   8  -3    7.70    2.20
   8 -12  -3    8.60    2.00
  12  -4   3    3.60    2.10
  -8  12   3    8.30    2.40
   5   7  -3    3.00    1.90
  12  -5   3    1.50    2.10
  -7  12   3    4.10    1.60
   6   6  -3   37.40    3.30
  12  -6   3   45.40    3.90
  -6  12   3   41.60    3.10
   7   5  -3   61.19    4.30
  12  -7   3   46.30    4.00
  -5  12   3   50.29    3.60
   8   4  -3   58.19    4.40
  12  -8   3   63.39    5.00
  -4  12   3   61.49    3.80
   9   3  -3   31.70    3.20
  -3  12   3   33.70    3.00
  12  -9   3   31.60    3.80
  10   2  -3   -1.70    1.90
  12 -10   3    0.30    2.30
  -2  12   3   -0.50    1.80
  11   1  -3   30.10    3.30
  -1  12   3   31.40    3.20
  12 -11   3   33.00    4.00
  12   0  -3  107.19    5.90
  12 -12   3  120.29    6.80
   0  12   3  107.49    5.90
  13  -1  -3  112.79    6.20
   1  12   3  113.99    6.20
  12 -13   3  111.69    6.80
  14  -2  -3  177.28    8.10
  12 -14   3  179.58    9.00
   2  12   3  180.68    8.10
  15  -3  -3   38.50    4.30
   3  12   3   38.10    4.20
  12 -15   3   38.10    4.60
  16  -4  -3    0.80    2.70
  12 -16   3    5.20    3.60
   4  12   3   -2.70    2.80
  17  -5  -3   47.40    4.70
   5  12   3   53.89    5.20
  12 -17   3   51.39    5.50
  18  -6  -3    9.40    3.70
   6  12   3    6.20    3.70
  12 -18   3    5.10    4.10
  19  -7  -3    2.30    3.70
  12 -19   3    2.40    4.10
   7  12   3   -4.20    3.50
  20  -8  -3   30.00    5.80
  12 -20   3   36.80    6.50
   8  12   3   42.60    5.60
  12 -21   3   24.10    6.30
   9  12   3   34.40    6.00
 -12  22  -3   -1.80    4.90
  10  12   3    0.10    5.10
 -12  23  -3   -1.60    5.40
  11  12   3   -4.10    5.00
 -12  24  -3    2.10    6.00
  12  12   3  -18.20    5.50
 -12  25  -3   -4.60    6.50
  13  12   3   -4.60    6.20
 -11  24  -3    5.70    6.10
  13  11   3   -8.40    5.60
 -10  23  -3    8.20    5.80
  13  10   3   15.30    5.90
  -9  22  -3   -4.00    5.00
  13   9   3   -2.90    4.80
  -8  21  -3  -12.10    4.80
  13   8   3    7.50    5.00
  -7  20  -3   -0.80    4.20
  13   7   3   -4.10    4.10
  -6  19  -3    8.30    4.30
  13   6   3   12.20    4.30
  -5  18  -3    2.80    3.60
  13   5   3   -1.70    3.20
  -4  17  -3  132.29    8.70
  13   4   3  152.48    8.60
  -3  16  -3   26.30    4.50
  16 -13  -3   24.30    4.40
  13   3   3   32.50    4.40
  -2  15  -3  135.59    8.00
  15 -13  -3  154.78    7.80
  13   2   3  171.28    8.60
  -1  14  -3   17.00    3.50
  14 -13  -3   14.30    3.20
  13   1   3   19.60    3.50
   0  13  -3  175.38    7.90
  13 -13  -3  150.38    7.10
  13   0   3  155.78    7.70
   1  12  -3  118.29    6.50
  12 -13  -3  111.09    5.90
  13  -1   3  119.49    6.80
   2  11  -3   36.50    3.90
  11 -13  -3   33.00    3.30
  13  -2   3   40.80    4.00
 -11  13   3   43.00    4.30
   3  10  -3    3.20    2.30
  10 -13  -3    6.90    2.20
  13  -3   3    5.60    2.50
 -10  13   3    6.80    2.50
   9 -13  -3   25.30    2.80
   4   9  -3   15.40    2.70
  -9  13   3   20.50    3.00
  13  -4   3   19.10    3.10
   8 -13  -3   -1.00    1.70
   5   8  -3    3.00    2.20
  13  -5   3   -0.10    2.10
   6   7  -3  273.47    9.80
  13  -6   3  287.17   10.30
  -7  13   3  263.77    9.00
   7   6  -3  270.37    9.90
  13  -7   3  283.07   10.30
  -6  13   3  285.47    9.20
   8   5  -3   -1.90    1.90
  13  -8   3   -1.40    2.20
  -5  13   3   -0.10    1.80
   9   4  -3   17.20    2.80
  -4  13   3   12.40    2.40
  13  -9   3   15.20    3.10
  10   3  -3   15.00    2.80
  13 -10   3   17.20    3.30
  -3  13   3   15.00    2.50
  11   2  -3    6.30    2.40
  13 -11   3    1.30    2.60
  -2  13   3    4.90    2.10
  12   1  -3    4.90    2.40
  13 -12   3    8.10    3.10
  -1  13   3    4.80    2.30
  13   0  -3  160.48    7.50
  13 -13   3  156.48    8.10
   0  13   3  153.18    7.30
  14  -1  -3  132.59    7.30
  13 -14   3  142.19    8.20
   1  13   3  135.79    7.20
  15  -2  -3   11.20    3.40
   2  13   3   13.20    3.30
  13 -15   3   15.60    4.10
  16  -3  -3   -1.50    2.90
  13 -16   3    2.90    3.50
   3  13   3    0.50    2.90
  17  -4  -3   25.10    4.00
   4  13   3   23.90    4.20
  13 -17   3   25.20    4.80
  18  -5  -3   32.10    4.60
   5  13   3   34.90    4.90
  13 -18   3   33.00    5.10
  19  -6  -3   17.60    4.30
  13 -19   3   24.40    5.10
   6  13   3   19.00    4.70
  20  -7  -3    7.10    4.60
  13 -20   3   13.30    5.40
   7  13   3   29.80    5.30
   8  13   3    8.50    4.90
  13 -21   3   12.60    5.80
   9  13   3   -5.30    4.70
  13 -22   3   -7.90    5.00
 -13  23  -3   -0.80    5.50
  10  13   3   -1.80    5.30
 -13  24  -3   -1.10    6.00
  11  13   3  -10.00    5.50
 -13  25  -3  -10.30    6.30
  12  13   3  -16.50    5.90
 -13  26  -3   -8.50    7.30
  13  13   3    3.70    7.10
 -12  26  -3  -10.10    7.20
  14  12   3   -0.30    7.10
 -11  25  -3    0.20    6.50
  14  11   3   -8.50    6.20
 -10  24  -3   -4.10    5.70
  14  10   3  -13.50    5.70
  -9  23  -3   -5.10    5.30
  14   9   3    0.20    5.60
  -8  22  -3   22.30    5.80
  14   8   3   17.80    5.90
  -7  21  -3  -10.50    4.90
  14   7   3   11.70    5.20
  -6  20  -3   -4.40    4.50
  14   6   3   -1.20    4.40
  -5  19  -3   30.30    5.10
  14   5   3   27.60    5.30
  -4  18  -3    5.10    3.90
  14   4   3   11.20    4.00
  -3  17  -3   38.40    5.00
  14   3   3   36.90    5.10
  -2  16  -3   -6.60    3.20
  14   2   3    0.80    3.10
  -1  15  -3    0.00    3.20
  15 -14  -3   11.70    3.40
  14   1   3    3.70    3.20
  14 -14  -3    8.00    3.10
   0  14  -3    9.10    3.30
  14   0   3   12.50    3.40
   1  13  -3  126.89    7.30
  13 -14  -3  132.49    6.80
  14  -1   3  137.49    7.80
  12 -14  -3  186.18    7.80
   2  12  -3  186.18    8.60
  14  -2   3  187.98    8.50
 -12  14   3  185.28    8.10
  11 -14  -3    8.60    2.70
   3  11  -3    1.20    2.60
  14  -3   3   10.50    3.10
 -11  14   3    7.50    2.80
   4  10  -3  230.18    9.30
  10 -14  -3  245.58    8.80
 -10  14   3  232.88    9.40
  14  -4   3  243.38    9.80
   9 -14  -3    3.60    2.20
   5   9  -3    2.00    2.40
  14  -5   3    1.00    2.40
   6   8  -3   61.89    5.20
  -8  14   3   64.39    4.30
  14  -6   3   54.99    4.70
   7   7  -3    4.00    2.30
  14  -7   3    6.20    2.70
  -7  14   3    3.40    2.00
   8   6  -3    5.50    2.40
  14  -8   3    8.40    2.70
  -6  14   3    5.40    2.10
   9   5  -3   19.90    3.10
  -5  14   3   15.30    2.50
  14  -9   3   21.60    3.60
  10   4  -3   37.70    3.80
  -4  14   3   38.50    3.50
  14 -10   3   34.30    4.50
  11   3  -3    7.10    2.70
  -3  14   3    9.70    2.50
  14 -11   3    4.70    2.90
  12   2  -3  105.49    6.40
  14 -12   3   90.89    6.70
  -2  14   3  102.09    6.00
  13   1  -3   19.60    3.50
  -1  14   3   24.00    3.50
  14 -13   3   20.60    4.10
  14   0  -3    9.40    3.30
   0  14   3   14.30    3.30
  14 -14   3   14.10    4.00
  15  -1  -3   14.40    3.70
  14 -15   3   21.10    4.30
   1  14   3   15.30    3.60
  16  -2  -3   20.70    3.80
   2  14   3   21.00    4.00
  14 -16   3   19.90    4.50
  17  -3  -3   -2.10    3.10
  14 -17   3    4.70    4.00
   3  14   3   -2.80    3.00
  18  -4  -3   -0.70    3.30
   4  14   3    2.60    3.80
  14 -18   3    2.30    3.90
  19  -5  -3   73.69    6.50
   5  14   3   65.99    6.50
  14 -19   3   66.99    6.90
  20  -6  -3   66.49    6.80
  14 -20   3   86.69    8.00
   6  14   3  105.49    8.90
  21  -7  -3   -4.40    6.80
   7  14   3   -4.90    4.50
  14 -21   3   -2.40    4.80
   8  14   3    0.70    4.90
  14 -22   3   -3.40    5.40
   9  14   3    1.50    5.40
  14 -23   3   -3.50    5.60
 -14  24  -3    8.10    6.10
  10  14   3   -3.80    5.80
 -14  25  -3   -3.40    6.70
  11  14   3    5.70    6.30
 -14  26  -3   -9.00    7.60
  12  14   3    3.20    7.00
 -11  26  -3  -10.40    7.70
  15  11   3    1.40    7.30
 -10  25  -3   -0.20    6.60
  15  10   3    6.50    6.60
  -9  24  -3   -9.60    5.40
  15   9   3  -10.30    5.60
  -8  23  -3   -2.20    5.60
  15   8   3   -7.90    5.40
  -7  22  -3   16.20    5.80
  15   7   3   18.00    6.00
  -6  21  -3   -7.80    4.90
  15   6   3    2.70    5.10
  -5  20  -3   -9.60    4.30
  15   5   3    0.90    4.60
  -4  19  -3    7.50    4.40
  15   4   3    2.00    4.40
  -3  18  -3   -0.90    3.60
  15   3   3   -2.80    3.70
  -2  17  -3   -0.70    3.50
  15   2   3    0.80    3.70
  -1  16  -3  -10.80    3.00
  15   1   3   -4.10    3.20
   0  15  -3   -4.40    2.80
  15   0   3   -6.10    2.90
   1  14  -3   18.20    3.70
  14 -15  -3   17.40    3.40
  15  -1   3   16.50    4.00
  13 -15  -3   18.40    3.30
   2  13  -3   15.80    3.50
  15  -2   3   18.50    3.80
   3  12  -3   26.60    4.00
  12 -15  -3   41.20    3.90
  15  -3   3   43.60    4.70
 -12  15   3   42.90    4.60
   4  11  -3    5.90    3.00
  11 -15  -3   21.80    3.10
 -11  15   3   23.30    3.80
  15  -4   3   17.70    3.50
  10 -15  -3    6.80    2.60
   5  10  -3    0.60    2.70
 -10  15   3   -1.70    3.00
  15  -5   3    2.10    2.80
   6   9  -3  188.28    8.70
  15  -6   3  206.28    8.90
  -9  15   3  179.18    7.70
   7   8  -3  313.17   11.70
  15  -7   3  320.97   12.10
  -8  15   3  316.87   10.80
   8   7  -3  104.79    7.00
  15  -8   3  144.59    7.60
  -7  15   3  140.49    6.50
   9   6  -3   18.20    3.50
  -6  15   3   22.60    3.10
  15  -9   3   27.90    4.10
  10   5  -3   74.59    6.10
  15 -10   3   73.59    6.00
  -5  15   3   81.69    5.40
  11   4  -3   -2.40    2.70
  -4  15   3    0.30    2.30
  15 -11   3    0.10    3.00
  12   3  -3   38.40    4.50
  15 -12   3   40.20    5.00
  -3  15   3   39.90    4.10
  13   2  -3  154.48    8.20
  15 -13   3  153.68    8.80
  -2  15   3  153.88    7.70
  14   1  -3    1.20    3.20
  15 -14   3   12.10    3.90
  -1  15   3    7.30    3.20
  15   0  -3   -2.80    3.10
   0  15   3   -5.50    2.90
  15 -15   3    4.20    3.80
  16  -1  -3    2.40    3.30
  15 -16   3    9.90    4.30
   1  15   3    2.60    3.30
  17  -2  -3   -1.40    3.30
   2  15   3   -7.30    3.00
  15 -17   3   -4.80    3.70
  18  -3  -3   -1.40    3.50
   3  15   3   -3.10    3.50
  15 -18   3    2.60    4.20
  19  -4  -3   15.60    4.30
   4  15   3   15.00    4.80
  15 -19   3   24.10    5.70
  20  -5  -3   34.10    5.60
   5  15   3   38.90    5.90
  15 -20   3   36.80    6.30
  21  -6  -3    5.90    4.80
  15 -21   3    2.80    5.30
   6  15   3    7.90    5.20
   7  15   3   17.30    5.70
  15 -22   3   30.50    6.30
  15 -23   3   -1.60    5.50
   8  15   3  -14.10    5.00
   9  15   3   -2.50    5.90
  15 -24   3   -3.80    5.90
 -15  25  -3    9.60    6.80
  10  15   3    6.60    6.30
 -15  26  -3   20.60    8.10
  11  15   3   25.30    7.40
 -10  26  -3  -19.30    7.60
  16  10   3    7.90    9.00
  -9  25  -3    1.20    6.90
  16   9   3   10.10    6.90
  -8  24  -3   -0.50    5.90
  16   8   3   -3.30    6.10
  -7  23  -3   15.20    5.90
  16   7   3    1.60    5.90
  -6  22  -3   23.80    6.10
  16   6   3   24.50    6.40
  -5  21  -3   -5.40    5.20
  16   5   3    6.70    5.20
  -4  20  -3   -5.60    4.50
  16   4   3   -9.90    4.30
  -3  19  -3   -4.80    3.90
  16   3   3   -6.40    4.20
  -2  18  -3    4.90    4.00
  16   2   3   11.40    4.60
  -1  17  -3   31.50    4.80
  16   1   3   33.40    5.10
   0  16  -3   -1.70    3.50
  16   0   3    2.90    3.70
   1  15  -3    1.60    3.50
  16  -1   3    1.40    3.50
   2  14  -3   16.80    3.70
  16  -2   3   23.90    4.30
  13 -16  -3    1.90    2.90
   3  13  -3    0.90    2.90
  16  -3   3   -1.70    3.20
 -13  16   3    0.60    3.10
   4  12  -3    3.60    2.90
  12 -16  -3    3.70    2.80
 -12  16   3    7.10    3.30
  16  -4   3    6.70    3.40
   5  11  -3   -4.10    2.70
  11 -16  -3   -0.70    2.60
  16  -5   3   -0.50    3.00
 -11  16   3   -3.20    2.80
   6  10  -3   24.80    4.10
 -10  16   3   19.20    3.20
 -10  16   3   23.80    4.40
  16  -6   3   23.50    4.10
   7   9  -3    1.60    2.90
  -9  16   3    0.80    2.30
  16  -7   3    7.10    3.30
   8   8  -3    5.00    3.20
  -8  16   3   15.60    3.00
  16  -8   3   16.70    3.80
   9   7  -3    2.40    3.30
  16  -9   3    4.40    3.40
  -7  16   3    7.40    2.70
  10   6  -3  203.28    9.80
  -6  16   3  212.88    8.80
  16 -10   3  235.78   10.60
  11   5  -3    7.70    3.40
  16 -11   3    7.50    3.90
  -5  16   3    8.80    3.00
  12   4  -3   98.59    7.30
  16 -12   3  110.49    8.30
  -4  16   3  114.69    7.00
  13   3  -3   23.80    4.30
  -3  16   3   33.60    4.10
  16 -13   3   34.70    5.10
  14   2  -3  -10.00    3.20
  16 -14   3   -0.30    3.70
  -2  16   3   -0.20    3.00
  15   1  -3   -8.70    3.30
  -1  16   3   -2.40    3.20
  16 -15   3   -2.80    3.60
  16   0  -3   -2.10    3.40
  16 -16   3    0.40    3.80
   0  16   3   -1.90    3.20
  17  -1  -3   -4.20    3.30
   1  16   3   -4.80    3.20
  16 -17   3   14.60    4.60
  18  -2  -3   18.40    4.50
  16 -18   3   19.30    5.30
   2  16   3   15.30    4.40
  19  -3  -3   47.20    5.90
   3  16   3   49.10    6.00
  16 -19   3   54.19    6.80
  20  -4  -3   -7.80    4.20
  16 -20   3   -8.70    4.80
   4  16   3   -2.50    4.20
  21  -5  -3   -1.20    4.70
   5  16   3   -4.90    4.80
  16 -21   3    4.50    5.30
  16 -22   3   33.80    6.70
   6  16   3   34.20    6.40
   7  16   3   -7.70    5.40
  16 -23   3   -4.90    5.60
  16 -24   3    4.50    6.30
   8  16   3   -2.70    5.80
   9  16   3   13.40    6.70
  16 -25   3   11.10    7.60
 -16  26  -3   23.80    8.10
  10  16   3   22.00    7.70
  -9  26  -3  -21.60    7.40
  -8  25  -3    0.40    7.00
  17   8   3   -9.80    6.60
  -7  24  -3   -1.40    6.30
  17   7   3   -1.50    6.40
  -6  23  -3   55.69    7.90
  17   6   3   46.10    7.80
  -5  22  -3   25.80    6.60
  17   5   3   27.20    6.60
  -4  21  -3    8.50    5.90
  17   4   3   14.10    5.80
  -3  20  -3   11.80    5.20
  17   3   3    8.80    5.20
  -2  19  -3   14.30    4.80
  17   2   3   -3.40    4.70
  -1  18  -3    2.80    4.10
  17   1   3   -6.60    4.20
   0  17  -3   -0.80    3.80
  17   0   3    4.10    4.20
   1  16  -3   -2.70    3.40
  17  -1   3   -3.30    3.80
   2  15  -3   -6.30    3.10
  17  -2   3   -6.30    3.30
   3  14  -3    0.60    3.10
  17  -3   3    0.80    3.50
 -14  17   3    1.20    3.70
   4  13  -3   27.60    4.30
 -13  17   3   26.70    4.50
  17  -4   3   16.30    4.20
   5  12  -3   63.89    5.50
  12 -17  -3   48.50    4.50
  17  -5   3   55.29    5.60
 -12  17   3   50.19    5.40
   6  11  -3   -3.80    2.70
  17  -6   3    1.80    3.30
 -11  17   3   -4.70    2.40
 -11  17   3   -0.10    3.20
   7  10  -3    7.00    3.20
  17  -7   3   -0.40    3.20
 -10  17   3    9.30    2.90
   8   9  -3   39.40    4.50
  -9  17   3   42.30    4.10
  17  -8   3   46.70    5.20
   9   8  -3    2.80    3.00
  17  -9   3   -3.80    3.20
  -8  17   3   -0.30    2.70
  10   7  -3   -3.00    2.70
  -7  17   3   -0.50    2.60
  17 -10   3    4.30    3.70
  11   6  -3    2.40    3.20
  17 -11   3    2.30    3.80
  -6  17   3    5.40    3.10
  12   5  -3  154.08    8.40
  17 -12   3  152.08    9.60
  -5  17   3  156.48    8.10
  13   4  -3  148.29    8.70
  17 -13   3  161.78    9.90
  -4  17   3  150.68    8.20
  14   3  -3   36.50    5.00
  17 -14   3   47.20    5.80
  -3  17   3   47.30    5.00
  15   2  -3   -5.90    3.40
  17 -15   3    1.80    4.00
  -2  17   3   -1.30    3.40
  16   1  -3   44.90    5.30
  17 -16   3   50.59    6.20
  -1  17   3   38.30    5.10
  17   0  -3   -5.20    3.60
   0  17   3   -4.00    3.50
  17 -17   3    0.30    4.40
  18  -1  -3   13.30    4.60
  17 -18   3   10.70    5.10
   1  17   3   16.00    4.70
  19  -2  -3    8.10    4.80
  17 -19   3   17.70    5.60
   2  17   3   19.00    5.00
  20  -3  -3   -5.20    4.40
   3  17   3    5.60    4.90
  17 -20   3   -4.90    5.00
  21  -4  -3   -4.70    4.60
  17 -21   3    9.80    5.70
   4  17   3   -2.70    4.70
  22  -5  -3   -2.60    5.80
  17 -22   3   -0.90    5.60
   5  17   3  -16.00    4.80
  17 -23   3   -7.00    5.60
   6  17   3   -7.00    5.50
   7  17   3   -0.30    6.20
  17 -24   3   -5.40    6.20
  17 -25   3   -5.00    7.10
   8  17   3    0.50    6.40
 -17  26  -3   10.90    7.80
   9  17   3   11.40    8.30
  17 -26   3    5.50    8.30
  -7  25  -3   12.70    7.60
  18   7   3    8.20    7.40
  -6  24  -3    2.30    6.40
  18   6   3   -0.60    6.40
  -5  23  -3   14.40    6.50
  18   5   3   18.90    6.80
  -4  22  -3   -6.00    5.70
  18   4   3    2.10    6.00
  -3  21  -3   24.50    6.40
  18   3   3   33.30    6.70
  -2  20  -3   -4.80    4.50
  18   2   3    1.00    5.00
  -1  19  -3   61.19    6.90
  18   1   3   70.99    7.60
   0  18  -3  124.39    9.60
  18   0   3  108.19    9.30
   1  17  -3   10.00    4.40
  18  -1   3   13.50    4.90
   2  16  -3   13.40    4.40
  18  -2   3   18.00    4.90
   3  15  -3   -0.50    3.50
  18  -3   3    0.00    3.80
   4  14  -3   -1.80    3.30
 -14  18   3   -5.30    3.70
  18  -4   3    3.90    4.20
   5  13  -3   24.50    4.30
 -13  18   3   33.60    5.10
  18  -5   3   33.50    5.10
   6  12  -3    7.90    3.60
  18  -6   3    7.40    3.90
 -12  18   3    5.00    4.10
 -12  18   3   15.80    3.30
   7  11  -3    1.70    3.30
 -11  18   3   -2.90    3.40
  18  -7   3   -4.60    3.40
 -11  18   3    1.20    2.90
   8  10  -3    0.80    3.20
  18  -8   3   -1.50    3.80
 -10  18   3    1.70    3.10
   9   9  -3   -1.70    3.20
  18  -9   3    1.90    3.60
  -9  18   3    1.90    2.90
  10   8  -3   -2.50    3.10
  -8  18   3    4.90    3.10
  18 -10   3   -3.00    3.70
  11   7  -3   -0.90    3.30
  -7  18   3    0.30    2.90
  18 -11   3    0.70    3.90
  12   6  -3    7.90    3.70
  -6  18   3    5.90    3.30
  18 -12   3    8.50    4.30
  13   5  -3    2.50    3.50
  -5  18   3    3.50    3.20
  18 -13   3    7.40    4.60
  14   4  -3   15.10    4.10
  18 -14   3    1.90    4.30
  -4  18   3    6.80    3.60
  15   3  -3   -1.90    3.50
  18 -15   3    0.00    4.10
  -3  18   3    0.30    3.50
  16   2  -3   21.70    4.70
  18 -16   3   17.00    5.10
  -2  18   3   11.50    4.30
  17   1  -3    1.40    4.10
  18 -17   3    5.10    4.50
  -1  18   3   -3.40    4.00
  18   0  -3  115.99    9.10
   0  18   3  103.69    8.80
  18 -18   3  114.99   10.00
  19  -1  -3   27.80    5.90
  18 -19   3   38.40    6.60
   1  18   3   42.80    5.90
  20  -2  -3   -4.60    4.70
  18 -20   3   -8.20    5.00
   2  18   3   -7.40    4.40
  21  -3  -3   -1.00    4.60
   3  18   3   -3.10    5.10
  18 -21   3    4.20    5.80
  22  -4  -3   -5.20    4.90
  18 -22   3   -3.20    5.70
   4  18   3   -4.40    5.30
  18 -23   3    0.40    6.20
   5  18   3  -13.30    5.60
   6  18   3   -2.80    5.90
  18 -24   3   -3.40    6.40
  18 -25   3   22.20    8.60
   7  18   3   34.30    7.80
  -6  25  -3   14.90    7.50
  19   6   3    1.30    7.60
  -5  24  -3    1.60    6.50
  19   5   3    2.40    6.90
  -4  23  -3   -0.50    5.80
  19   4   3    8.00    6.50
  -3  22  -3   -9.40    5.80
  19   3   3   -3.70    5.80
  -2  21  -3  -11.30    5.40
  19   2   3   -6.10    5.50
  -1  20  -3   -3.20    4.80
  19   1   3    0.20    5.40
   0  19  -3   11.60    5.40
  19   0   3    8.80    5.30
   1  18  -3   22.30    5.80
  19  -1   3   34.40    6.10
   2  17  -3    7.30    5.00
  19  -2   3   19.50    5.40
   3  16  -3   47.10    6.10
  19  -3   3   43.30    6.20
   4  15  -3   15.90    4.80
  19  -4   3   18.00    5.30
 -15  19   3   16.30    5.10
   5  14  -3   66.89    6.30
 -14  19   3   56.19    6.40
  19  -5   3   71.39    6.90
   6  13  -3   29.80    4.80
  19  -6   3   24.60    5.10
 -13  19   3   20.10    4.90
   7  12  -3   -1.30    3.40
  19  -7   3   -0.70    4.10
 -12  19   3    6.60    4.20
   8  11  -3    2.60    3.60
 -11  19   3    4.90    3.40
  19  -8   3    2.30    4.10
 -11  19   3    4.50    4.20
   9  10  -3    3.90    3.70
  19  -9   3    0.70    4.10
 -10  19   3    5.30    3.40
  10   9  -3    5.40    3.80
  19 -10   3   -1.90    4.10
  -9  19   3    0.80    3.30
  11   8  -3   72.79    6.40
  -8  19   3   60.09    5.50
  19 -11   3   62.29    6.90
  12   7  -3   16.40    4.50
  -7  19   3   23.90    4.30
  19 -12   3   18.40    5.50
  13   6  -3    6.80    4.10
  19 -13   3   10.60    4.90
  -6  19   3    8.00    3.90
  14   5  -3   37.90    5.40
  -5  19   3   26.60    4.80
  19 -14   3   38.90    6.10
  15   4  -3    0.70    4.00
  19 -15   3   -2.30    4.40
  -4  19   3   -0.80    3.90
  16   3  -3    6.80    4.30
  19 -16   3    9.50    4.80
  -3  19   3   -0.40    4.10
  17   2  -3    2.60    4.40
  19 -17   3    1.80    4.90
  -2  19   3    2.20    4.40
  18   1  -3   60.69    6.60
  19 -18   3   50.89    7.10
  -1  19   3   52.49    6.40
  19   0  -3    3.70    4.80
  19 -19   3   30.30    6.50
   0  19   3   16.00    5.20
  20  -1  -3    5.60    5.00
   1  19   3    4.80    5.00
  19 -20   3    7.00    5.70
  21  -2  -3   -7.50    4.70
   2  19   3    1.50    5.50
  19 -21   3    2.40    5.90
  22  -3  -3    5.70    5.50
   3  19   3    0.80    5.80
  19 -22   3    3.50    6.40
   4  19   3   -4.80    5.90
  19 -23   3   -7.30    6.00
  19 -24   3   28.70    8.00
   5  19   3   33.80    7.60
   6  19   3    6.60    7.20
  -4  24  -3   -4.10    6.90
  20   4   3   -6.00    7.00
  -3  23  -3    1.40    6.30
  20   3   3   10.90    6.90
  -2  22  -3  -11.90    5.60
  20   2   3   -1.50    5.90
  -1  21  -3    2.40    5.90
  20   1   3    4.90    6.10
   0  20  -3   38.50    7.00
  20   0   3   42.80    7.10
   1  19  -3    5.40    5.10
  20  -1   3   -3.90    5.00
   2  18  -3  -10.00    4.40
  20  -2   3   -6.50    4.80
   3  17  -3  -13.60    4.70
  20  -3   3    0.10    5.10
   4  16  -3  -14.50    4.00
  20  -4   3   -8.70    4.50
   5  15  -3   38.10    6.00
  20  -5   3   37.00    6.20
 -15  20   3   35.20    6.10
   6  14  -3   83.29    7.40
 -14  20   3   87.69    8.10
  20  -6   3   87.19    7.70
   7  13  -3    8.10    4.90
 -13  20   3   12.80    5.80
  20  -7   3   18.60    5.10
   8  12  -3   41.60    6.10
  20  -8   3   46.60    6.40
 -12  20   3   36.80    6.30
   9  11  -3    5.90    4.60
  20  -9   3   21.80    5.30
  10  10  -3   27.30    5.40
  20 -10   3   39.20    6.00
 -10  20   3   26.90    4.80
  11   9  -3    2.10    4.40
  20 -11   3    4.50    5.00
  -9  20   3   10.20    3.90
  12   8  -3   -0.70    4.30
  20 -12   3    1.50    5.10
  -8  20   3    1.20    3.80
  13   7  -3   -3.40    4.30
  -7  20   3   -1.00    3.70
  20 -13   3   -2.90    4.90
  14   6  -3   -3.40    4.00
  20 -14   3    3.10    4.70
  -6  20   3    3.50    4.00
  15   5  -3   -3.60    4.10
  20 -15   3    7.10    4.80
  -5  20   3    1.10    4.10
  16   4  -3   -5.60    4.20
  20 -16   3    0.90    4.90
  -4  20   3   -9.00    3.80
  17   3  -3   11.50    5.10
  -3  20   3   11.40    5.00
  20 -17   3    9.70    5.40
  18   2  -3    0.50    4.80
  -2  20   3    0.40    4.90
  20 -18   3    1.30    5.50
  19   1  -3   -4.90    4.90
  -1  20   3    1.50    5.00
  20 -19   3   -8.90    5.30
  20   0  -3   39.30    6.80
  20 -20   3   43.90    7.60
   0  20   3   47.20    6.90
  21  -1  -3    3.60    5.50
  20 -21   3    8.10    6.30
   1  20   3   10.30    5.80
  22  -2  -3    5.70    5.70
  20 -22   3   -6.40    6.10
   2  20   3   -6.80    5.60
  23  -3  -3    3.50    6.90
  20 -23   3    1.20    6.80
   3  20   3   -2.10    6.00
   4  20   3   36.90    8.00
  -3  24  -3    7.10    7.30
  21   3   3    5.20    7.60
  -2  23  -3    0.20    6.70
  21   2   3   -3.70    6.90
  -1  22  -3    2.60    6.10
  21   1   3    1.80    6.40
   0  21  -3   -6.10    5.60
  21   0   3    4.30    6.10
   1  20  -3    5.80    5.80
  21  -1   3    7.20    5.90
   2  19  -3   -9.70    5.00
  21  -2   3   -2.50    5.50
   3  18  -3   -2.80    4.90
  21  -3   3   -2.10    5.40
   4  17  -3   -8.00    4.50
  21  -4   3    0.20    5.40
   5  16  -3    1.00    4.80
  21  -5   3   -0.80    5.10
   6  15  -3   -1.90    4.50
  21  -6   3   10.60    5.50
 -15  21   3   -0.40    5.30
   7  14  -3   -6.50    4.30
 -14  21   3   -2.00    5.00
  21  -7   3   -6.50    4.70
   8  13  -3    9.60    5.10
  21  -8   3    4.10    5.10
 -13  21   3    6.80    5.80
   9  12  -3   20.30    5.70
 -12  21   3   27.30    6.80
  21  -9   3   33.10    6.10
  10  11  -3   27.20    5.90
  21 -10   3   34.70    6.30
  11  10  -3  135.39   10.80
  21 -11   3  174.18   11.50
  12   9  -3   36.60    6.80
  21 -12   3   62.49    7.50
  -9  21   3   61.39    6.20
  13   8  -3  -10.60    5.10
  21 -13   3   -1.70    5.20
  -8  21   3    5.50    4.40
  14   7  -3    3.30    5.30
  21 -14   3   13.60    5.70
  -7  21   3    5.10    4.60
  15   6  -3  -13.10    4.40
  -6  21   3   -2.10    4.50
  21 -15   3   -0.40    5.20
  16   5  -3   -3.30    4.80
  21 -16   3    1.90    5.60
  -5  21   3    1.00    4.70
  17   4  -3   22.00    5.80
  -4  21   3   21.00    5.70
  21 -17   3   19.40    6.40
  18   3  -3   21.30    6.30
  -3  21   3   25.40    6.20
  21 -18   3   27.80    6.90
  19   2  -3   -3.50    5.30
  21 -19   3   -1.40    5.80
  -2  21   3    3.20    5.40
  20   1  -3   13.10    6.20
  21 -20   3    6.50    6.40
  -1  21   3   20.70    6.20
  21   0  -3   -6.30    5.50
   0  21   3    0.30    5.50
  21 -21   3    2.90    6.40
  22  -1  -3   -4.40    5.70
  21 -22   3   -8.00    6.70
   1  21   3    2.10    6.20
  23  -2  -3    6.60    6.40
   2  21   3  -11.80    6.30
   3  21   3    5.10    7.60
  -1  23  -3   17.60    7.30
  22   1   3   15.60    7.40
   0  22  -3   -2.10    6.40
  22   0   3    4.10    6.60
   1  21  -3    1.90    6.00
  22  -1   3   -3.90    5.90
   2  20  -3   -8.30    5.50
  22  -2   3   -4.70    6.20
   3  19  -3    3.50    5.80
  22  -3   3    2.00    6.20
   4  18  -3   -4.10    4.90
  22  -4   3    0.30    5.70
   5  17  -3   -5.30    4.70
  22  -5   3    4.20    5.70
   6  16  -3   26.90    6.20
  22  -6   3   37.70    7.00
   7  15  -3   24.20    5.90
  22  -7   3   25.30    6.50
 -15  22   3   21.20    6.30
   8  14  -3    0.10    4.80
 -14  22   3    3.70    5.60
  22  -8   3    0.00    5.30
   9  13  -3   -1.80    4.90
  22  -9   3   -1.80    5.20
 -13  22   3    3.40    5.60
  10  12  -3    1.60    4.90
  22 -10   3   -2.90    5.10
 -12  22   3    0.60    5.70
  11  11  -3   14.00    5.50
  22 -11   3   11.30    6.00
  12  10  -3   -3.50    5.10
  22 -12   3   15.30    6.20
  13   9  -3  -11.30    5.00
  22 -13   3   -2.20    5.70
  14   8  -3   24.60    6.00
  -8  22   3   16.50    5.40
  22 -14   3   26.20    6.60
  15   7  -3   20.40    5.90
  -7  22   3   12.40    5.40
  22 -15   3   21.20    6.60
  16   6  -3   18.20    5.80
  -6  22   3   33.70    6.30
  22 -16   3   18.20    6.60
  17   5  -3   27.60    6.50
  -5  22   3   29.30    6.10
  22 -17   3   34.80    7.20
  18   4  -3   -2.90    5.90
  22 -18   3    2.80    6.20
  -4  22   3    2.00    5.50
  -3  22   3   -8.10    5.30
  22 -19   3   -7.40    6.10
  20   2  -3   -7.10    5.30
  -2  22   3    3.30    5.70
  22 -20   3    0.60    6.40
  21   1  -3    2.60    6.00
  -1  22   3   -0.50    6.00
  22 -21   3   -1.60    7.10
  22   0  -3    5.40    6.30
   0  22   3  -10.10    6.30
  23  -1  -3   15.30    7.00
   1  22   3    5.60    7.50
   1  22  -3    2.10    7.10
  23  -1   3    8.10    7.70
   2  21  -3    0.40    5.90
  23  -2   3   -2.70    7.00
   3  20  -3    2.80    6.10
  23  -3   3    4.00    6.60
   4  19  -3   -1.00    5.80
  23  -4   3    8.10    6.20
   5  18  -3   -1.60    5.60
  23  -5   3   -6.70    5.70
   6  17  -3   -6.00    5.20
  23  -6   3    0.80    5.90
   7  16  -3    2.90    5.30
  23  -7   3    0.60    5.80
   8  15  -3    1.20    5.40
 -15  23   3   -5.90    5.80
  23  -8   3   -6.90    5.40
   9  14  -3    2.40    5.30
 -14  23   3    2.00    5.80
  23  -9   3   10.70    5.90
  10  13  -3   -8.30    5.10
  23 -10   3    5.20    5.70
 -13  23   3    2.20    5.80
  11  12  -3    5.20    5.50
 -12  23   3    6.30    6.00
  23 -11   3    9.90    6.10
  12  11  -3   42.00    7.00
  23 -12   3   21.40    6.70
  13  10  -3   10.10    5.60
  23 -13   3    5.60    6.40
  14   9  -3   -2.70    5.20
  23 -14   3   -3.90    6.30
  15   8  -3   -4.40    5.00
  23 -15   3    2.30    6.30
  16   7  -3   15.40    6.00
  23 -16   3   16.80    6.80
  -7  23   3    9.60    6.10
  17   6  -3   53.49    7.70
  23 -17   3   52.89    8.30
  -6  23   3   44.00    7.30
  18   5  -3    6.40    6.20
  23 -18   3   16.20    6.90
  -5  23   3   19.80    6.60
  19   4  -3   -7.20    5.80
  23 -19   3    1.00    6.60
  -4  23   3   -0.40    5.90
  20   3  -3    4.50    6.40
  -3  23   3    4.30    6.20
  23 -20   3    5.10    8.30
  21   2  -3    1.70    6.60
  -2  23   3   -5.90    6.40
  22   1  -3   17.80    7.30
  -1  23   3   11.20    7.20
   3  21  -3   12.90    7.00
  24  -3   3    3.90    7.90
   4  20  -3   37.40    7.80
  24  -4   3   35.60    8.10
   5  19  -3   32.70    7.60
  24  -5   3   30.30    7.80
   6  18  -3   -2.10    6.20
  24  -6   3   -4.30    6.20
   7  17  -3   -5.90    5.40
  24  -7   3   -1.30    6.40
   8  16  -3    4.40    6.10
  24  -8   3    3.60    6.60
   9  15  -3   -2.30    5.80
  24  -9   3   -3.30    6.10
 -15  24   3   -6.80    6.80
  10  14  -3    6.70    6.00
 -14  24   3    6.40    6.80
  24 -10   3   -4.30    6.30
  11  13  -3   -2.50    5.60
  24 -11   3   -8.90    6.20
 -13  24   3    6.90    6.60
  12  12  -3    5.50    6.10
 -12  24   3   -7.20    6.30
  24 -12   3  -12.30    6.30
  13  11  -3   -1.90    5.40
  24 -13   3   -1.80    7.00
  14  10  -3   -6.20    5.20
  24 -14   3   -8.10    6.60
  15   9  -3   -3.50    5.30
  24 -15   3   -6.10    6.50
  16   8  -3   -6.90    5.40
  24 -16   3   -4.30    6.80
  17   7  -3    6.70    6.10
  24 -17   3    5.80    6.70
  18   6  -3    6.90    6.10
  24 -18   3    4.10    7.00
  -6  24   3    6.20    8.20
  19   5  -3    6.70    6.50
  -5  24   3   -0.40    6.80
  20   4  -3    5.70    6.80
  -4  24   3   -2.50    6.60
  21   3  -3    2.60    6.70
  -3  24   3   10.30    7.20
   6  19  -3   -2.00    7.40
  25  -6   3   -3.20    7.00
   7  18  -3   25.50    7.80
  25  -7   3   37.40    8.30
   8  17  -3   -4.50    6.20
  25  -8   3    5.70    7.00
   9  16  -3   12.00    7.10
  25  -9   3   13.10    7.20
  10  15  -3    6.10    6.80
  25 -10   3    1.90    6.90
 -15  25   3    1.20    7.90
  11  14  -3   -9.60    6.40
 -14  25   3   -5.10    7.30
  25 -11   3    2.80    7.00
  12  13  -3    0.70    6.10
 -13  25   3   -9.60    6.80
  25 -12   3   -6.00    6.80
  13  12  -3    0.60    5.90
 -12  25   3    0.50    6.90
  25 -13   3   -3.70    7.10
  14  11  -3   -8.50    5.80
 -11  25   3    0.50    7.10
  25 -14   3    8.60    7.60
  15  10  -3    1.10    6.00
  25 -15   3    2.20    7.10
  16   9  -3   12.60    6.90
  25 -16   3   10.20    7.60
  17   8  -3    4.70    6.70
  25 -17   3    7.50    7.50
  18   7  -3   12.00    7.10
  19   6  -3   14.10    7.50
  26  -9   3   17.20    7.80
  10  16  -3   38.00   12.10
  26 -10   3   36.60    8.50
  11  15  -3   12.70    7.90
  26 -11   3   34.40    8.60
 -15  26   3    3.70    8.80
  12  14  -3   -9.50    6.80
 -14  26   3  -11.70    7.70
  26 -12   3    6.80    7.80
  13  13  -3  -13.40    6.70
 -13  26   3    7.00    7.80
  26 -13   3   17.40    8.40
  14  12  -3  -10.90    6.50
  26 -14   3   13.20    8.70
 -12  26   3    8.50    8.30
  15  11  -3   14.40    7.00
 -11  26   3  -18.10    7.70
  26 -15   3   10.40    8.00
  16  10  -3   -6.60    6.40
  17   9  -3  -10.10    6.70
   0   0   4  529.95   13.90
   1   0   4 1149.48   30.10
   0  -1   4 1190.68   30.20
  -1   1   4 1202.88   29.80
   0   1   4 1194.88   30.40
   1  -1   4 1224.98   30.80
  -1   0   4 1175.68   30.40
   1   1   4  109.69    3.60
   1  -2   4  109.89    3.90
  -2   1   4  105.49    3.10
   2   1   4  290.67    8.20
   1  -3   4  281.37    8.40
   0  -2   4   58.39    2.70
   2   0   4   62.79    2.70
   2  -1   4  101.89    3.70
  -1   2   4   97.59    3.00
  -1  -1   4  102.89    3.40
   2   0  -4   64.19    2.20
   0   2   4   64.09    2.30
   2  -2   4   57.59    2.90
   3  -1  -4 3255.77   82.69
   2  -3   4 3330.07   83.69
   1   2   4 3348.47   83.19
   4  -2  -4  222.98    6.00
   2   2   4  228.18    6.70
   2  -4   4  217.18    7.00
   5  -3  -4  765.72   19.30
   2  -5   4  744.43   20.40
   3   2   4  756.12   20.10
   3   1   4  797.82   20.90
   1  -4   4  782.32   21.00
   3   0   4 1437.66   36.70
   0  -3   4 1421.36   36.70
   3  -1   4 3231.08   81.29
  -1  -2   4 3218.88   81.09
  -2   3   4 3218.78   80.39
   2   1  -4  279.97    7.90
   3  -2   4  302.57    8.50
  -1   3   4  281.37    7.70
   3   0  -4 1434.16   35.80
   0   3   4 1443.26   35.80
   3  -3   4 1353.86   36.50
   4  -1  -4 1396.76   35.20
   3  -4   4 1375.86   36.10
   1   3   4 1399.26   35.50
   5  -2  -4   45.80    2.00
   2   3   4   45.90    2.50
   3  -5   4   46.90    3.00
   2   3   4   46.90    2.80
   6  -3  -4  164.98    5.00
   3   3   4  174.48    5.80
   3   3   4  168.78    5.70
   3  -6   4  162.38    6.00
   7  -4  -4   94.49    3.30
   4   3   4   92.99    4.10
   3  -7   4   93.39    4.40
   4   3   4   92.29    3.90
   6  -4  -4  340.57    9.10
   2  -6   4  327.67   10.20
   4   2   4  350.96    9.90
   4   2   4  331.27   10.00
   5  -4  -4 1440.56   35.80
   4   1   4 1449.15   36.80
   1  -5   4 1373.46   36.90
   4   0   4  312.17    9.10
   0  -4   4  306.87    9.10
   1   3  -4 1394.66   35.90
   4  -1   4 1404.06   36.10
   2   2  -4  235.68    6.70
  -2   4   4  226.18    6.10
   4  -2   4  221.58    7.10
   3   1  -4  797.82   20.30
   4  -3   4  745.73   20.90
  -1   4   4  793.82   20.10
   4   0  -4  327.27    8.80
   4  -4   4  316.17    9.70
   0   4   4  321.47    8.90
   0   4   4  313.47    9.50
   5  -1  -4   83.99    3.10
   1   4   4   89.49    3.80
   1   4   4   83.79    3.30
   4  -5   4   88.59    4.10
   6  -2  -4  220.78    6.30
   4  -6   4  208.18    7.30
   2   4   4  209.78    7.00
   2   4   4  223.78    6.80
   7  -3  -4  145.69    4.50
   3   4   4  131.49    5.00
   3   4   4  127.79    5.10
   4  -7   4  133.39    5.50
   8  -4  -4   68.09    3.00
   4   4   4   73.39    3.60
   4  -8   4   65.79    4.00
   9  -5  -4  915.21   24.00
   4  -9   4  885.71   25.20
   5   4   4  945.31   24.90
   8  -5  -4  100.39    3.60
   5   3   4   94.49    4.10
   3  -8   4   94.69    4.70
   5   3   4  103.59    4.40
   7  -5  -4   75.79    2.80
   5   2   4   71.99    3.40
   2  -7   4   76.79    3.90
   5   2   4   70.39    3.70
   6  -5  -4  355.36    9.50
   5   1   4  354.66   10.50
   1  -6   4  353.46   10.70
   5  -5  -4  631.44   15.70
   5   0   4  609.24   16.90
   0  -5   4  599.94   16.90
   1   4  -4   87.49    3.50
  -4   5   4   86.49    2.60
   5  -1   4   86.89    3.80
   2   3  -4   49.20    2.60
  -3   5   4   45.90    1.80
   5  -2   4   45.20    2.90
   3   2  -4  784.22   20.60
  -2   5   4  774.42   20.10
   5  -3   4  787.12   21.00
   4   1  -4 1335.87   35.10
  -1   5   4 1410.96   35.80
  -1   5   4 1400.26   34.90
   5  -4   4 1328.97   35.80
   5   0  -4  585.74   15.70
   5  -5   4  597.74   16.70
   0   5   4  574.54   16.30
   0   5   4  597.04   15.70
   6  -1  -4  195.18    5.90
   5  -6   4  179.18    6.80
   1   5   4  196.18    6.60
   1   5   4  197.98    6.20
   7  -2  -4 1188.08   29.50
   5  -7   4 1140.99   30.50
   2   5   4 1084.49   29.70
   8  -3  -4  171.58    5.70
   5  -8   4  183.08    6.90
   3   5   4  173.68    6.10
   9  -4  -4   58.39    3.10
   4   5   4   59.69    3.70
   5  -9   4   56.49    4.30
  10  -5  -4  297.37    9.20
   5   5   4  310.57   10.00
   5 -10   4  304.07   10.40
  11  -6  -4  124.39    5.00
   5 -11   4  126.29    6.10
   6   5   4  127.39    5.70
  10  -6  -4  742.03   19.90
   4 -10   4  746.53   21.20
   6   4   4  737.53   20.80
   9  -6  -4  561.04   15.10
   6   3   4  544.75   16.00
   6   3   4  573.84   15.70
   3  -9   4  553.24   16.40
   8  -6  -4   96.89    3.70
   6   2   4   97.09    4.00
   6   2   4   92.09    4.40
   2  -8   4  105.69    4.90
   7  -6  -4   53.39    2.50
   1  -7   4   53.29    3.40
   6   1   4   49.20    3.30
   0   6  -4  199.18    6.80
   6  -6  -4  206.28    5.80
   6   0   4  203.38    6.90
   1   5  -4  200.68    6.50
   5  -6  -4  193.48    5.50
   6  -1   4  186.28    6.60
   2   4  -4  224.58    7.00
   6  -2   4  222.28    7.20
  -4   6   4  217.38    6.10
   3   3  -4  175.28    5.70
  -3   6   4  167.38    6.00
  -3   6   4  166.98    5.00
   6  -3   4  169.08    6.10
   4   2  -4  325.97    9.60
   6  -4   4  334.47   10.20
  -2   6   4  347.07    9.30
  -2   6   4  333.87   10.20
   5   1  -4  350.66    9.90
  -1   6   4  347.87    9.70
  -1   6   4  342.97   10.50
   6  -5   4  345.17   10.80
   6   0  -4  200.48    6.30
   0   6   4  200.08    6.90
   6  -6   4  204.98    7.30
   0   6   4  194.28    6.20
   7  -1  -4  113.59    4.30
   1   6   4  115.89    4.50
   6  -7   4  126.09    5.40
   8  -2  -4   15.10    1.70
   2   6   4   16.30    1.90
   6  -8   4   12.30    2.10
   9  -3  -4 1392.66   36.80
   3   6   4 1441.16   37.40
   6  -9   4 1434.86   38.10
  10  -4  -4  645.54   18.00
   6 -10   4  671.83   19.20
   4   6   4  654.83   18.50
  11  -5  -4   11.40    2.00
   5   6   4    7.90    2.10
   6 -11   4    9.10    2.30
  12  -6  -4  167.38    6.20
   6   6   4  161.88    6.90
   6 -12   4  156.38    7.30
  13  -7  -4  259.07    8.90
   7   6   4  275.77    9.80
   6 -13   4  267.77   10.30
  12  -7  -4   10.70    2.00
   5 -12   4    8.90    2.50
   7   5   4    4.60    2.20
  11  -7  -4  177.28    6.30
   7   4   4  191.68    7.40
   4 -11   4  196.78    7.90
  10  -7  -4  391.76   11.20
   7   3   4  395.66   12.10
   3 -10   4  371.06   12.30
   9  -7  -4   98.79    4.00
   7   2   4   85.79    3.90
   2  -9   4   86.29    4.80
   7   2   4   89.49    4.60
   8  -7  -4  312.57    9.20
  -1   8  -4  332.47   10.20
   7   1   4  312.27    9.30
   7   1   4  330.47   10.20
   7  -7  -4    8.50    1.20
   0   7  -4    5.00    1.60
   7   0   4    4.20    1.60
   6  -7  -4  117.99    3.90
   1   6  -4  115.79    4.80
   7  -1   4  110.59    4.80
   2   5  -4 1130.39   30.20
  -5   7   4 1140.99   29.20
   7  -2   4 1164.08   30.50
   3   4  -4  136.69    5.10
  -4   7   4  137.59    4.30
   7  -3   4  132.59    5.30
  -4   7   4  135.59    5.40
   4   3  -4   84.39    3.80
  -3   7   4   91.79    3.30
   7  -4   4   90.59    4.20
  -3   7   4   91.49    4.20
   5   2  -4   72.69    3.40
  -2   7   4   69.99    3.00
  -2   7   4   71.29    3.80
   7  -5   4   72.19    4.00
   6   1  -4   48.80    2.80
   7  -6   4   56.19    3.70
  -1   7   4   53.29    2.80
   7   0  -4    4.90    1.30
   7  -7   4    5.80    1.90
   0   7   4    4.40    1.30
   8  -1  -4   30.80    2.50
   1   7   4   26.00    2.30
   7  -8   4   29.20    3.10
   9  -2  -4 1423.26   37.00
   2   7   4 1410.96   37.30
   7  -9   4 1438.06   38.20
  10  -3  -4 1118.49   30.80
   3   7   4 1177.28   31.30
   7 -10   4 1222.78   32.20
  11  -4  -4   33.90    2.80
   7 -11   4   33.60    3.50
   4   7   4   38.20    3.30
  12  -5  -4   69.19    4.10
   5   7   4   68.69    4.60
   7 -12   4   65.49    4.80
  13  -6  -4  248.78    8.70
   6   7   4  252.27    9.30
   7 -13   4  265.17    9.90
  14  -7  -4    5.30    2.40
   7   7   4    7.90    2.60
   7 -14   4    8.60    2.90
  15  -8  -4  230.88    9.30
   8   7   4  269.97   10.30
   7 -15   4  244.38   10.90
  14  -8  -4   13.10    2.50
   6 -14   4    9.90    3.00
   8   6   4   16.80    3.10
  13  -8  -4    2.60    2.00
   8   5   4    0.30    2.00
   5 -13   4   -0.10    2.30
  12  -8  -4  259.67    8.80
   8   4   4  273.27    9.80
   4 -12   4  287.97   10.20
  11  -8  -4 1409.86   36.20
  -3  11  -4 1382.66   37.10
   3 -11   4 1349.96   37.20
  -2  10  -4  784.42   21.90
  10  -8  -4  759.92   20.90
   8   2   4  779.02   21.90
   8   2   4  774.42   20.90
   9  -8  -4  690.33   18.10
  -1   9  -4  667.73   19.00
   8   1   4  665.73   18.00
   8   1   4  645.44   19.00
   0   8  -4 1111.29   30.40
   8  -8  -4 1158.48   29.40
   8   0   4 1125.79   30.50
   1   7  -4   29.40    2.70
   7  -8  -4   29.60    2.20
   8  -1   4   24.80    2.60
   6  -8  -4   13.40    1.40
   2   6  -4   14.70    1.90
   8  -2   4   20.60    2.30
   3   5  -4  169.58    6.20
   8  -3   4  173.88    6.50
  -5   8   4  176.58    5.40
  -5   8   4  173.48    6.50
   4   4  -4   65.89    3.60
   8  -4   4   71.79    4.00
  -4   8   4   68.39    2.90
  -4   8   4   68.99    3.80
   5   3  -4   97.79    4.30
  -3   8   4   99.29    3.80
  -3   8   4   97.39    4.60
   8  -5   4  100.19    4.70
   6   2  -4   97.49    4.20
  -2   8   4   94.19    3.90
   8  -6   4  100.29    5.00
   7   1  -4  312.77    9.50
   8  -7   4  304.17   10.40
  -1   8   4  318.57    9.30
   8   0  -4 1083.19   29.20
   0   8   4 1115.99   29.30
   8  -8   4 1125.19   30.40
   9  -1  -4   37.90    3.20
   1   8   4   45.80    3.30
   8  -9   4   41.60    3.70
  10  -2  -4  379.56   11.40
   2   8   4  383.16   11.70
   8 -10   4  381.76   12.60
  11  -3  -4   72.19    4.20
   8 -11   4   81.79    5.20
   3   8   4   82.49    4.60
  12  -4  -4   57.79    3.90
   8 -12   4   56.99    4.90
   4   8   4   55.49    4.30
  13  -5  -4   23.10    2.70
   8 -13   4   20.80    3.20
   5   8   4   18.20    2.90
  14  -6  -4  117.29    6.00
   8 -14   4  106.59    6.70
   6   8   4  139.69    6.70
  15  -7  -4  864.21   24.50
   7   8   4  864.11   25.20
   8 -15   4  881.51   25.90
  16  -8  -4  199.28    8.80
   8 -16   4  218.08   10.30
   8   8   4  198.28    9.10
  17  -9  -4   17.20    4.20
   8 -17   4   13.50    3.90
   9   8   4   12.90    3.70
  16  -9  -4    8.60    3.20
   9   7   4   24.00    3.90
   7 -16   4   17.50    4.20
  15  -9  -4   68.79    5.30
   6 -15   4   60.89    5.60
   9   6   4   85.09    6.10
  14  -9  -4   22.00    2.90
  -5  14  -4   23.40    3.30
   9   5   4   20.40    3.30
   5 -14   4   20.60    3.40
  -4  13  -4    9.70    2.50
  13  -9  -4    3.50    2.20
   9   4   4    4.10    2.20
  -3  12  -4   65.19    4.70
  12  -9  -4   64.59    4.10
   9   3   4   57.79    4.70
  11  -9  -4  663.63   18.70
  -2  11  -4  677.63   19.60
   9   2   4  676.63   19.70
   9   2   4  680.03   18.60
  -1  10  -4   41.50    3.50
  10  -9  -4   38.20    2.90
   9   1   4   46.70    2.90
   9   1   4   46.50    4.00
   9  -9  -4  501.45   13.80
   0   9  -4  485.35   14.70
   9   0   4  491.05   14.80
   8  -9  -4   37.20    2.80
   1   8  -4   45.00    3.50
   9  -1   4   36.70    3.30
   7  -9  -4 1451.05   38.00
   2   7  -4 1493.15   39.10
   9  -2   4 1500.15   39.30
   3   6  -4 1401.96   37.10
  -6   9   4 1408.06   37.30
  -6   9   4 1414.46   36.10
   9  -3   4 1400.36   37.40
   4   5  -4   59.79    3.70
  -5   9   4   55.49    2.90
   9  -4   4   55.39    4.00
  -5   9   4   64.89    3.90
   5   4  -4  948.81   25.30
  -4   9   4  908.11   25.60
  -4   9   4  934.61   24.60
   9  -5   4  961.20   25.80
   6   3  -4  553.24   15.90
   9  -6   4  573.94   16.70
  -3   9   4  563.34   15.50
   7   2  -4   96.19    4.40
   9  -7   4   81.09    5.20
  -2   9   4   89.99    4.00
   8   1  -4  670.63   18.70
   9  -8   4  671.23   19.80
  -1   9   4  673.43   18.50
   9   0  -4  469.15   14.00
   9  -9   4  503.45   15.30
   0   9   4  472.95   13.90
  10  -1  -4   12.60    2.10
   9 -10   4   10.90    2.70
   1   9   4   12.60    2.10
  11  -2  -4   40.90    3.40
   9 -11   4   44.00    4.10
   2   9   4   35.50    3.20
  12  -3  -4   15.40    2.40
   3   9   4   17.10    2.70
   9 -12   4   13.30    3.00
  13  -4  -4   88.09    5.10
   9 -13   4   87.79    6.20
   4   9   4   97.29    5.50
  14  -5  -4   18.50    3.00
   9 -14   4   13.60    3.40
   5   9   4   17.60    3.00
  15  -6  -4  475.85   15.30
   6   9   4  512.65   16.10
   9 -15   4  487.55   16.70
  16  -7  -4  244.58    9.90
   7   9   4  269.07   10.60
   9 -16   4  264.57   11.10
  17  -8  -4   49.40    4.50
   9 -17   4   50.09    5.40
   8   9   4   47.70    5.00
   9 -18   4    7.20    3.90
   9   9   4   10.70    3.80
  -9  19  -4   -4.40    3.80
   9 -19   4    9.10    4.40
  10   9   4   -6.00    3.50
  -8  18  -4   17.60    4.10
   8 -18   4    8.50    4.00
  10   8   4   14.30    3.90
  -7  17  -4   60.69    5.80
  10   7   4   80.79    6.50
  16 -10  -4  320.17   12.50
  -6  16  -4  316.47   12.20
  10   6   4  319.47   12.30
  15 -10  -4  187.68    8.30
  -5  15  -4  196.78    8.80
  10   5   4  194.28    8.70
  14 -10  -4   41.10    3.70
  -4  14  -4   41.20    4.00
  10   4   4   35.30    3.90
  13 -10  -4   24.00    3.00
  -3  13  -4   17.00    2.90
  10   3   4   17.20    3.00
  12 -10  -4   22.00    2.60
  -2  12  -4   15.00    2.80
  10   2   4   14.90    2.80
  10   2   4   19.10    2.30
  11 -10  -4   65.49    4.00
  -1  11  -4   61.59    4.80
  10   1   4   83.29    5.00
  10   1   4   69.19    3.60
  10 -10  -4   -0.20    1.60
   0  10  -4    2.80    2.20
  10   0   4    4.40    2.00
   9 -10  -4   13.40    1.90
   1   9  -4    7.80    2.10
  10  -1   4   10.70    2.40
   8 -10  -4  386.36   11.10
   2   8  -4  386.86   12.10
  10  -2   4  381.06   12.30
   7 -10  -4 1147.09   30.20
   3   7  -4 1155.38   31.20
  10  -3   4 1170.48   31.50
  -7  10   4 1156.68   31.30
   4   6  -4  693.53   19.40
  -6  10   4  659.73   18.30
  10  -4   4  701.03   19.70
  -6  10   4  677.33   19.50
   5   5  -4  305.17    9.90
  -5  10   4  302.97    9.10
  -5  10   4  311.97   10.30
  10  -5   4  302.97   10.30
   6   4  -4  757.52   21.40
  10  -6   4  796.32   22.00
  -4  10   4  763.42   20.70
   7   3  -4  399.86   12.00
  -3  10   4  386.66   11.40
  10  -7   4  379.66   12.60
   8   2  -4  785.62   21.40
  -2  10   4  762.42   21.00
  10  -8   4  759.72   22.30
   9   1  -4   42.60    3.70
  -1  10   4   47.00    3.50
  10  -9   4   37.50    4.00
  10   0  -4    2.90    1.90
  10 -10   4   -3.00    2.20
   0  10   4    2.70    1.70
  11  -1  -4  223.88    8.00
  10 -11   4  213.28    8.90
   1  10   4  217.08    8.00
  12  -2  -4   50.09    3.90
  10 -12   4   54.49    4.80
   2  10   4   49.20    4.40
  13  -3  -4   48.50    3.90
  10 -13   4   48.30    4.70
   3  10   4   63.59    4.80
  14  -4  -4  483.25   15.00
   4  10   4  495.35   15.40
  10 -14   4  472.15   16.10
  15  -5  -4   51.69    4.40
   5  10   4   44.30    4.40
  10 -15   4   50.69    5.40
  16  -6  -4  101.59    6.50
   6  10   4   90.49    6.60
  10 -16   4   99.39    7.50
  17  -7  -4   35.90    4.20
   7  10   4   38.60    4.60
  10 -17   4   36.30    5.10
  18  -8  -4   37.40    6.10
  10 -18   4   45.00    5.70
   8  10   4   42.50    5.20
  10 -19   4    1.20    4.00
   9  10   4   -3.30    3.50
  10  10   4   73.99    7.10
  10 -20   4   73.09    7.70
 -10  21  -4  470.35   18.60
  11  10   4  477.95   18.20
  -9  20  -4   45.00    5.90
  11   9   4   47.00    5.90
  -8  19  -4  102.69    8.40
  11   8   4   89.59    7.70
  -7  18  -4   21.40    4.40
  11   7   4   18.50    4.20
  -6  17  -4   -0.20    3.50
  11   6   4    2.00    3.20
  -5  16  -4    0.90    3.30
  11   5   4    2.00    3.10
  15 -11  -4    4.40    3.10
  -4  15  -4    7.90    3.10
  11   4   4    6.20    3.00
  14 -11  -4    6.90    2.70
  -3  14  -4    6.60    2.70
  11   3   4    6.50    2.80
  13 -11  -4   23.90    2.90
  -2  13  -4   24.70    3.40
  11   2   4   24.10    2.60
  11   2   4   25.00    3.50
  12 -11  -4   82.09    4.70
  -1  12  -4   88.89    5.60
  11   1   4   76.89    5.30
  11   1   4   78.49    4.00
  11 -11  -4  513.05   15.00
   0  11  -4  520.45   16.10
  11   0   4  534.65   16.30
   1  10  -4  207.38    8.20
  10 -11  -4  208.88    7.30
  11  -1   4  221.68    8.40
   9 -11  -4   36.60    3.10
   2   9  -4   37.30    3.30
  11  -2   4   35.80    3.50
   3   8  -4   76.59    4.60
   8 -11  -4   82.89    3.90
  -8  11   4   80.99    4.90
  11  -3   4   82.59    4.90
   4   7  -4   35.70    3.20
  11  -4   4   32.10    3.40
  -7  11   4   33.10    2.60
  -7  11   4   38.30    3.50
   5   6  -4   10.60    2.20
  11  -5   4    9.00    2.30
  -6  11   4   12.10    1.70
  -6  11   4    6.40    2.30
   6   5  -4  128.49    5.80
  11  -6   4  127.09    6.20
  -5  11   4  124.69    4.90
   7   4  -4  199.38    7.40
  -4  11   4  197.28    6.70
  11  -7   4  180.68    7.80
   8   3  -4 1379.16   37.60
  -3  11   4 1425.66   37.10
  11  -8   4 1442.06   38.60
   9   2  -4  671.03   19.50
  11  -9   4  680.63   20.60
  -2  11   4  704.33   19.20
  10   1  -4   56.99    4.50
  -1  11   4   74.59    4.40
  11 -10   4   76.99    5.70
  11   0  -4  552.34   16.20
  11 -11   4  540.15   17.30
   0  11   4  545.15   16.10
  12  -1  -4  276.47    9.90
  11 -12   4  307.97   11.20
   1  11   4  291.67   10.20
  13  -2  -4  129.79    6.50
   2  11   4  141.09    6.60
  11 -13   4  124.39    7.60
  14  -3  -4   12.80    3.10
   3  11   4   19.80    3.20
  11 -14   4   11.30    3.90
  15  -4  -4   93.49    6.60
   4  11   4  107.29    6.70
  11 -15   4   95.19    7.80
  16  -5  -4   -0.30    2.80
   5  11   4    0.20    2.80
  11 -16   4   -0.40    3.40
  17  -6  -4   21.10    3.80
  11 -17   4   19.50    4.30
   6  11   4   14.50    3.90
  18  -7  -4    8.30    3.60
  11 -18   4   11.00    4.40
   7  11   4   12.90    4.00
   8  11   4   15.70    4.40
  11 -19   4   10.30    4.80
   9  11   4   30.00    5.40
  11 -20   4   34.10    6.50
  11 -21   4  147.59   11.70
  10  11   4  160.28   11.10
 -11  22  -4   62.39    7.60
  11  11   4   46.70    6.70
 -11  23  -4   58.49    7.70
  12  11   4   57.79    7.50
 -10  22  -4   49.50    6.90
  12  10   4   51.59    7.00
  -9  21  -4  209.18   13.00
  12   9   4  248.18   12.40
  -8  20  -4    9.20    4.90
  12   8   4   12.30    4.80
  -7  19  -4   50.49    6.10
  12   7   4   54.59    6.00
  -6  18  -4   27.50    4.70
  12   6   4   25.70    4.60
  -5  17  -4  404.66   15.10
  12   5   4  400.66   14.80
  -4  16  -4  393.86   14.50
  12   4   4  425.76   14.80
  -3  15  -4   10.40    3.40
  12   3   4   15.00    3.40
  -2  14  -4  263.67   10.80
  14 -12  -4  292.97   10.30
  12   2   4  307.27   11.30
  13 -12  -4   53.89    4.50
  -1  13  -4   78.09    5.40
  12   1   4   63.69    5.60
   0  12  -4  106.39    6.10
  12 -12  -4  117.49    5.60
  12   0   4  113.69    6.50
   1  11  -4  296.67   10.70
  11 -12  -4  303.47    9.70
  12  -1   4  282.17   10.60
  10 -12  -4   45.20    3.80
   2  10  -4   46.70    4.00
  12  -2   4   54.29    4.40
   9 -12  -4   17.20    2.30
   3   9  -4   13.90    2.60
  -9  12   4   22.60    3.10
  12  -3   4   16.20    2.90
   4   8  -4   57.69    4.30
  -8  12   4   61.29    4.40
  12  -4   4   54.69    4.50
  -8  12   4   53.39    3.40
   5   7  -4   70.69    4.50
  -7  12   4   71.09    3.80
  12  -5   4   75.69    5.00
  -7  12   4   62.69    4.60
   6   6  -4  171.68    7.00
  12  -6   4  171.78    7.30
  -6  12   4  146.99    6.90
  -6  12   4  172.08    6.10
   7   5  -4    6.20    2.10
  12  -7   4    5.10    2.40
  -5  12   4    7.50    1.80
   8   4  -4  277.47    9.60
  -4  12   4  265.87    8.90
  12  -8   4  267.17   10.20
   9   3  -4   59.79    4.50
  12  -9   4   62.19    5.20
  -3  12   4   62.29    4.10
  10   2  -4   16.20    2.70
  12 -10   4   18.70    3.40
  -2  12   4   16.10    2.40
  11   1  -4   79.89    5.10
  12 -11   4   79.99    6.00
  -1  12   4   79.89    4.90
  12   0  -4  121.09    6.10
   0  12   4  104.19    5.80
  12 -12   4  121.49    7.10
  13  -1  -4  459.95   14.50
  12 -13   4  449.26   15.50
   1  12   4  457.55   14.50
  14  -2  -4  788.92   23.00
  12 -14   4  799.22   24.20
   2  12   4  786.12   23.00
  15  -3  -4   40.70    4.50
   3  12   4   49.99    4.70
  12 -15   4   43.80    5.40
  16  -4  -4   24.20    3.80
  12 -16   4   24.50    4.70
   4  12   4   30.30    4.10
  17  -5  -4  152.98    8.30
   5  12   4  167.28    8.80
  12 -17   4  165.58    9.80
  18  -6  -4   32.50    4.60
  12 -18   4   37.70    5.50
   6  12   4   39.80    5.00
  12 -19   4    8.00    4.50
   7  12   4   15.20    4.40
   8  12   4  142.59    9.70
  12 -20   4  104.19    9.10
  12 -21   4   58.79    7.60
   9  12   4   62.59    6.90
  10  12   4    0.30    5.00
  12 -22   4    7.20    5.80
 -12  23  -4   32.80    6.70
  11  12   4   15.00    6.10
 -12  24  -4   33.60    7.20
  12  12   4   24.50    7.00
 -12  25  -4    1.80    6.50
  13  12   4    0.80    6.30
 -11  24  -4   12.40    6.30
  13  11   4   20.10    6.90
 -10  23  -4   33.10    7.00
  13  10   4   42.70    7.20
  -9  22  -4   -9.00    5.20
  13   9   4    8.90    5.30
  -8  21  -4  -10.40    5.50
  13   8   4    9.90    4.90
  -7  20  -4    9.10    5.10
  13   7   4   16.00    4.90
  -6  19  -4   32.00    5.30
  13   6   4   25.80    4.90
  -5  18  -4   20.30    4.50
  13   5   4   18.10    4.50
  -4  17  -4  382.46   14.70
  13   4   4  381.26   14.40
  -3  16  -4  104.39    7.90
  13   3   4  124.79    8.00
  -2  15  -4  208.68    9.60
  13   2   4  221.68    9.80
  -1  14  -4   99.29    6.60
  13   1   4   97.29    6.80
  13 -13  -4  237.08    9.00
   0  13  -4  240.28    9.80
  13   0   4  250.97   10.30
   1  12  -4  454.25   14.90
  12 -13  -4  438.66   13.80
  13  -1   4  464.45   15.10
   2  11  -4  135.49    6.70
  11 -13  -4  130.79    6.00
  13  -2   4  135.39    7.10
   3  10  -4   52.99    4.70
  10 -13  -4   53.19    4.00
 -10  13   4   55.89    4.60
  13  -3   4   44.10    4.30
   9 -13  -4   87.59    4.70
   4   9  -4   92.29    5.60
  13  -4   4   95.59    6.00
  -9  13   4   82.79    5.60
   5   8  -4   19.50    2.90
  -8  13   4   14.10    2.20
  13  -5   4   18.90    3.10
  -8  13   4   22.70    3.20
   6   7  -4  257.17    9.30
  -7  13   4  256.27    8.40
  -7  13   4  243.48    9.50
  13  -6   4  250.17    9.90
   7   6  -4  266.27    9.80
  -6  13   4  280.67    9.10
  13  -7   4  273.57   10.40
   8   5  -4    2.20    2.10
  13  -8   4    0.00    2.30
  -5  13   4    1.00    1.80
   9   4  -4    6.20    2.40
  -4  13   4    6.90    2.00
  13  -9   4    8.70    3.00
  10   3  -4   19.90    3.00
  -3  13   4   19.30    2.70
  13 -10   4   21.60    3.60
  11   2  -4   22.60    3.20
  -2  13   4   27.30    3.10
  13 -11   4   28.10    4.00
  12   1  -4   80.79    5.50
  -1  13   4   65.59    5.00
  13 -12   4   57.09    5.50
  13   0  -4  250.67    9.90
   0  13   4  261.47    9.80
  13 -13   4  259.87   11.30
  14  -1  -4  586.34   18.70
   1  13   4  618.34   18.80
  13 -14   4  634.44   20.20
  15  -2  -4   42.30    4.50
   2  13   4   53.49    4.70
  13 -15   4   53.09    5.70
  16  -3  -4   13.60    3.40
  13 -16   4    3.80    3.80
   3  13   4    5.10    3.30
  17  -4  -4   67.29    5.50
  13 -17   4   75.79    6.80
   4  13   4   67.99    5.90
  18  -5  -4   23.20    4.00
   5  13   4   35.30    5.00
  13 -18   4   27.50    5.10
  19  -6  -4  173.58    9.80
  13 -19   4  181.78   11.30
   6  13   4  202.38   10.10
  13 -20   4   32.90    6.70
   7  13   4   50.19    6.10
  13 -21   4   26.80    6.50
   8  13   4   28.40    5.70
  13 -22   4    4.80    5.80
   9  13   4    4.80    5.20
 -13  23  -4   10.50    6.30
  10  13   4   16.30    5.80
  13 -23   4    8.80    6.10
 -13  24  -4   13.00    6.30
  11  13   4   -1.30    6.20
 -13  25  -4   -1.00    6.90
  12  13   4    1.40    6.20
 -13  26  -4   -3.80    8.10
  13  13   4   23.00    8.00
 -12  26  -4   17.20    8.60
  14  12   4   20.10    8.20
 -11  25  -4   12.40    7.10
  14  11   4    6.20    6.80
 -10  24  -4    0.20    6.10
  14  10   4   -5.40    5.70
  -9  23  -4   28.80    6.50
  14   9   4   23.90    6.50
  -8  22  -4   53.89    7.30
  14   8   4   57.49    7.50
  -7  21  -4    9.10    5.90
  14   7   4   23.70    5.80
  -6  20  -4   24.30    5.60
  14   6   4   22.30    5.30
  -5  19  -4   80.19    7.20
  14   5   4   69.39    6.70
  -4  18  -4   -3.90    3.50
  14   4   4    3.90    3.70
  -3  17  -4   56.59    5.90
  14   3   4   72.89    6.30
  -2  16  -4   -2.80    3.70
  14   2   4    7.00    3.70
  -1  15  -4   10.30    3.50
  14   1   4   23.20    4.10
   0  14  -4   82.19    6.80
  14   0   4   96.09    7.20
   1  13  -4  565.44   18.30
  14  -1   4  595.74   18.70
  12 -14  -4  759.32   22.10
   2  12  -4  815.22   23.50
  14  -2   4  781.32   23.50
  11 -14  -4    4.80    2.80
   3  11  -4   20.00    3.50
  14  -3   4   21.30    3.70
 -11  14   4   22.20    3.60
   4  10  -4  473.35   15.40
  10 -14  -4  469.75   14.40
 -10  14   4  488.45   15.60
  14  -4   4  485.05   15.80
   5   9  -4   13.90    3.10
  -9  14   4   15.40    3.50
  14  -5   4   13.30    3.10
  -9  14   4   21.10    2.70
   6   8  -4  127.29    6.80
  14  -6   4  126.29    7.00
  -8  14   4  128.89    5.80
  -8  14   4  125.99    6.90
   7   7  -4    6.80    2.40
  -7  14   4    6.90    2.10
  14  -7   4    8.10    2.90
   8   6  -4   12.70    2.80
  -6  14   4   14.70    2.40
  14  -8   4   10.00    3.10
   9   5  -4   24.60    3.30
  -5  14   4   26.20    3.00
  14  -9   4   16.90    3.70
  10   4  -4   36.80    3.80
  14 -10   4   40.00    4.70
  -4  14   4   40.20    3.50
  11   3  -4   11.00    2.80
  14 -11   4    4.80    3.40
  -3  14   4    8.00    2.50
  12   2  -4  303.07   10.80
  14 -12   4  281.27   11.70
  -2  14   4  270.27   10.20
  13   1  -4  114.29    6.90
  14 -13   4  104.49    8.10
  -1  14   4   94.19    6.40
  14   0  -4   90.89    6.50
  14 -14   4   79.79    6.70
   0  14   4   96.29    6.40
  15  -1  -4    2.10    3.00
  14 -15   4    0.50    3.70
   1  14   4    7.50    3.20
  16  -2  -4   45.70    4.80
   2  14   4   46.00    4.90
  14 -16   4   32.90    5.30
  17  -3  -4    1.20    3.20
   3  14   4   13.40    3.80
  14 -17   4   13.20    4.50
  18  -4  -4    4.40    3.50
   4  14   4   -1.10    3.60
  14 -18   4    5.10    4.40
  19  -5  -4  332.07   13.70
   5  14   4  358.06   14.30
  14 -19   4  360.56   15.30
  14 -20   4  299.87   14.80
   6  14   4  301.27   13.70
   7  14   4    2.80    4.70
  14 -21   4   -1.50    5.30
  14 -22   4   -0.30    5.80
   8  14   4    4.40    5.10
   9  14   4    9.00    5.90
  14 -23   4   11.40    6.40
 -14  24  -4   -1.00    6.00
  10  14   4   -1.40    5.40
  14 -24   4   -6.00    5.80
 -14  25  -4   23.70    7.90
  11  14   4   13.70    6.90
 -14  26  -4   -3.00    8.00
  12  14   4   24.60    7.50
 -11  26  -4   36.30    9.00
  15  11   4   46.60   13.30
 -10  25  -4   -2.70    6.60
  15  10   4    7.60    7.10
  -9  24  -4   -2.90    6.10
  15   9   4    5.70    6.40
  -8  23  -4    7.60    6.00
  15   8   4   22.40    6.40
  -7  22  -4   16.00    5.90
  15   7   4   31.60    6.50
  -6  21  -4   -3.10    5.10
  15   6   4   -1.30    5.00
  -5  20  -4  -10.30    4.20
  15   5   4    5.00    4.80
  -4  19  -4   16.50    4.90
  15   4   4   19.20    5.20
  -3  18  -4   10.50    4.00
  15   3   4   10.10    4.40
  -2  17  -4   13.00    4.20
  15   2   4   15.00    4.10
  -1  16  -4   22.80    4.70
  15   1   4   32.10    4.80
   0  15  -4   14.60    3.80
  15   0   4   20.80    4.10
   1  14  -4    3.90    3.10
  15  -1   4    0.90    3.00
   2  13  -4   51.79    5.20
  15  -2   4   60.09    5.40
   3  12  -4   28.30    4.20
  15  -3   4   42.90    4.80
  11 -15  -4  100.99    6.10
   4  11  -4   98.29    7.00
 -11  15   4  116.69    7.10
  15  -4   4  107.79    7.30
   5  10  -4   47.20    4.80
 -10  15   4   52.39    5.10
 -10  15   4   55.29    4.30
  15  -5   4   59.79    5.20
   6   9  -4  500.95   16.00
  -9  15   4  490.75   16.30
  -9  15   4  458.75   14.70
  15  -6   4  495.55   16.40
   7   8  -4  900.21   25.70
  15  -7   4  909.11   26.20
  -8  15   4  884.51   24.60
  -8  15   4  845.52   25.80
   8   7  -4  253.57   10.20
  15  -8   4  274.77   11.10
  -7  15   4  251.57    9.40
   9   6  -4   85.29    6.30
  15  -9   4   69.19    6.00
  -6  15   4   77.89    5.40
  10   5  -4  196.58    9.00
  15 -10   4  195.88   10.10
  -5  15   4  215.78    8.40
  11   4  -4    9.10    3.20
  15 -11   4    6.20    3.60
  -4  15   4    2.80    2.60
  12   3  -4   18.60    3.60
  15 -12   4   13.60    4.30
  -3  15   4   20.00    3.40
  13   2  -4  227.28   10.00
  -2  15   4  234.88    9.50
  15 -13   4  220.38   11.10
  14   1  -4   22.80    4.00
  15 -14   4   24.00    4.80
  -1  15   4   18.20    3.60
  15   0  -4   19.00    3.90
  15 -15   4   15.90    4.60
   0  15   4   17.90    3.70
  16  -1  -4   56.89    5.40
   1  15   4   62.39    5.60
  15 -16   4   69.69    6.80
  17  -2  -4   20.50    4.20
   2  15   4   21.30    4.30
  15 -17   4   18.90    4.80
  18  -3  -4   43.80    5.20
  15 -18   4   29.00    5.70
   3  15   4   35.90    5.10
  19  -4  -4   47.80    5.60
   4  15   4   65.69    6.70
  15 -19   4   69.29    7.40
  20  -5  -4  142.19   10.30
   5  15   4  159.38   10.20
  15 -20   4  132.59   11.30
  15 -21   4   -5.70    5.30
   6  15   4    3.60    4.70
   7  15   4   33.10    6.40
  15 -22   4   46.10    7.40
   8  15   4    8.60    5.90
  15 -23   4   -2.50    5.90
  15 -24   4   -0.80    6.40
   9  15   4    1.50    6.10
 -15  25  -4   92.49    9.70
  10  15   4   85.19    9.10
 -15  26  -4   25.00    9.00
  11  15   4   52.39    8.90
 -10  26  -4    1.30    7.80
  -9  25  -4   21.10    7.50
  16   9   4   18.10    7.30
  -8  24  -4    3.80    6.40
  16   8   4    3.60    6.20
  -7  23  -4   44.50    7.60
  16   7   4   44.80    7.70
  -6  22  -4  140.69   11.50
  16   6   4  155.18   12.10
  -5  21  -4   25.40    5.90
  16   5   4   28.40    6.50
  -4  20  -4    4.00    4.80
  16   4   4    8.80    4.80
  -3  19  -4   13.60    4.80
  16   3   4   17.50    5.30
  -2  18  -4   50.49    5.90
  16   2   4   46.30    5.90
  -1  17  -4   74.79    6.60
  16   1   4   79.69    6.90
   0  16  -4   26.70    4.70
  16   0   4   31.20    5.00
   1  15  -4   58.39    5.60
  16  -1   4   67.69    6.10
   2  14  -4   33.50    4.40
  16  -2   4   37.40    4.90
   3  13  -4    6.60    3.10
  16  -3   4    3.50    3.50
   4  12  -4   20.90    3.80
 -12  16   4   23.50    4.20
  16  -4   4   26.40    4.30
   5  11  -4   -3.00    2.90
  16  -5   4    1.30    3.00
 -11  16   4   -3.70    2.40
 -11  16   4    4.30    3.20
   6  10  -4   97.49    6.90
 -10  16   4   96.99    5.80
 -10  16   4   99.29    6.80
  16  -6   4   91.59    7.50
   7   9  -4  242.08   10.40
  -9  16   4  259.97    9.50
  16  -7   4  262.97   11.00
  -9  16   4  253.67   11.10
   8   8  -4  199.78    9.60
  16  -8   4  217.28    9.90
  -8  16   4  220.98    8.60
   9   7  -4   19.90    4.00
  16  -9   4   19.40    4.20
  -7  16   4   26.00    3.40
  10   6  -4  336.57   12.90
  16 -10   4  336.07   13.50
  -6  16   4  365.86   12.10
  11   5  -4    1.40    3.30
  16 -11   4    1.70    3.80
  -5  16   4    8.40    2.90
  12   4  -4  417.26   14.80
  -4  16   4  441.86   14.30
  16 -12   4  402.66   15.90
  13   3  -4  110.79    7.80
  -3  16   4  129.79    7.50
  16 -13   4  109.19    8.70
  14   2  -4    0.10    3.40
  -2  16   4    3.60    3.40
  16 -14   4   -2.60    4.00
  15   1  -4   25.00    4.40
  -1  16   4   26.00    4.20
  16 -15   4   37.10    5.60
  16   0  -4   25.20    4.40
  16 -16   4   29.10    5.20
   0  16   4   38.00    4.80
  17  -1  -4    5.70    3.50
  16 -17   4    6.70    4.80
   1  16   4    8.20    3.80
  18  -2  -4   55.49    5.80
  16 -18   4   62.59    7.20
   2  16   4   67.79    6.30
  19  -3  -4   66.29    6.40
  16 -19   4   62.29    7.80
   3  16   4   70.39    6.80
  20  -4  -4   -2.50    4.30
  16 -20   4  -14.50    5.20
   4  16   4    3.60    4.70
   5  16   4   15.80    5.50
  16 -21   4    4.10    5.70
  16 -22   4   58.99    8.00
   6  16   4   48.90    7.00
  16 -23   4   14.50    6.40
   7  16   4    7.90    5.80
  16 -24   4    4.60    6.90
   8  16   4   -4.40    5.80
  16 -25   4   64.29    9.50
   9  16   4   74.29    9.00
 -16  26  -4   66.99    9.80
  10  16   4   62.59    9.30
  -8  25  -4   14.70    7.10
  17   8   4   15.40    7.30
  -7  24  -4   -2.60    6.20
  17   7   4    7.70    6.60
  -6  23  -4  186.28   13.00
  17   6   4  177.88   13.10
  -5  22  -4  157.48   12.00
  17   5   4  151.38   12.00
  -4  21  -4    2.70    5.60
  17   4   4    9.50    5.70
  -3  20  -4   24.60    5.60
  17   3   4   27.70    6.10
  -2  19  -4   12.50    4.70
  17   2   4   10.60    5.30
  -1  18  -4   34.50    5.60
  17   1   4   43.40    6.20
   0  17  -4   41.40    5.60
  17   0   4   37.70    5.70
   1  16  -4   11.20    3.90
  17  -1   4    3.10    4.00
   2  15  -4   20.70    4.40
  17  -2   4   23.10    4.70
   3  14  -4    3.60    3.60
  17  -3   4   10.00    3.90
   4  13  -4   83.09    6.80
 -13  17   4   74.99    6.60
  17  -4   4   70.59    6.40
   5  12  -4  154.58    8.50
 -12  17   4  148.39    8.70
  17  -5   4  162.78    9.30
   6  11  -4   12.40    3.60
  17  -6   4   14.70    4.10
 -11  17   4   21.70    4.20
 -11  17   4   17.00    4.40
   7  10  -4   36.90    4.60
 -10  17   4   44.00    5.10
  17  -7   4   33.90    4.90
 -10  17   4   34.50    3.90
   8   9  -4   48.40    5.00
  -9  17   4   49.30    4.30
  17  -8   4   49.40    5.40
  -9  17   4   50.79    5.40
   9   8  -4    9.50    3.40
  -8  17   4   10.00    3.00
  17  -9   4    9.80    3.80
  10   7  -4   88.29    6.90
  17 -10   4   70.39    6.60
  -7  17   4   88.09    6.20
  11   6  -4    4.90    3.40
  17 -11   4    3.00    4.20
  -6  17   4    3.20    2.90
  12   5  -4  442.56   15.50
  17 -12   4  454.65   16.80
  -5  17   4  410.96   14.60
  13   4  -4  384.16   14.70
  -4  17   4  405.56   14.00
  17 -13   4  422.76   16.20
  14   3  -4   66.19    6.20
  -3  17   4   96.39    6.90
  17 -14   4   83.09    7.50
  15   2  -4   14.80    4.10
  -2  17   4   21.10    4.20
  17 -15   4   19.20    5.00
  16   1  -4   79.59    6.50
  -1  17   4   88.69    7.20
  17 -16   4   80.79    7.50
  17   0  -4   40.70    5.50
   0  17   4   37.00    5.20
  17 -17   4   28.40    6.00
  18  -1  -4   45.10    5.70
  17 -18   4   40.50    6.70
   1  17   4   42.90    5.60
  19  -2  -4   25.00    5.40
  17 -19   4   15.20    6.30
   2  17   4   38.60    5.90
  20  -3  -4   13.40    5.10
   3  17   4   23.90    5.40
  17 -20   4   10.70    6.20
   4  17   4   -5.20    4.80
  17 -21   4   -1.20    5.60
   5  17   4   12.90    5.80
  17 -22   4    6.90    6.00
  17 -23   4   16.10    6.80
   6  17   4    2.90    5.70
   7  17   4    6.80    6.30
  17 -24   4    6.70    7.10
   8  17   4   15.50    7.20
  17 -25   4   -2.10    7.50
  -7  25  -4   51.09    8.50
  18   7   4   36.80    8.20
  -6  24  -4    9.30    6.30
  18   6   4    0.60    6.50
  -5  23  -4   59.09    8.20
  18   5   4   50.59    8.30
  -4  22  -4   17.30    6.50
  18   4   4   10.90    6.40
  -3  21  -4   27.50    6.90
  18   3   4   47.10    7.10
  -2  20  -4    2.00    5.10
  18   2   4    1.00    5.10
  -1  19  -4  200.68   11.40
  18   1   4  201.48   12.30
   0  18  -4  359.46   15.20
  18   0   4  337.97   14.70
   1  17  -4   53.79    6.30
  18  -1   4   59.19    6.80
   2  16  -4   61.79    6.40
  18  -2   4   56.59    6.60
   3  15  -4   28.70    4.80
  18  -3   4   27.00    5.20
   4  14  -4   -4.20    3.20
  18  -4   4    1.80    4.00
   5  13  -4   23.20    4.50
 -13  18   4   23.10    4.80
  18  -5   4   21.90    4.70
   6  12  -4   26.70    4.60
  18  -6   4   36.50    5.40
 -12  18   4   46.00    5.70
   7  11  -4   11.30    3.90
  18  -7   4   10.90    4.40
 -11  18   4   15.00    4.40
   8  10  -4   50.79    5.30
 -10  18   4   55.59    5.10
 -10  18   4   45.90    5.60
  18  -8   4   48.90    5.80
   9   9  -4    9.20    3.70
  -9  18   4    9.10    4.40
  -9  18   4    9.30    3.30
  18  -9   4    9.80    4.20
  10   8  -4   17.30    4.10
  18 -10   4   16.60    4.70
  -8  18   4   13.20    3.40
  11   7  -4   17.90    4.10
  18 -11   4   24.40    5.20
  -7  18   4   23.50    3.80
  12   6  -4   32.80    4.90
  -6  18   4   28.90    4.20
  18 -12   4   29.90    5.50
  13   5  -4   24.70    4.50
  18 -13   4   20.00    5.20
  -5  18   4   14.80    3.80
  14   4  -4    0.10    3.40
  -4  18   4    3.10    3.30
  18 -14   4    2.50    4.20
  15   3  -4    7.00    4.00
  18 -15   4    4.50    4.70
  -3  18   4    8.30    3.90
  16   2  -4   47.50    5.60
  -2  18   4   50.49    5.60
  18 -16   4   45.40    6.50
  17   1  -4   51.39    6.00
  18 -17   4   43.30    6.80
  -1  18   4   49.99    5.70
  18   0  -4  375.76   15.40
   0  18   4  378.46   15.00
  18 -18   4  364.46   16.50
  19  -1  -4  119.19    9.80
   1  18   4  138.89    9.80
  18 -19   4  109.29    9.70
  20  -2  -4   -3.80    4.70
  18 -20   4    5.70    5.80
   2  18   4   -2.20    4.80
  21  -3  -4   16.10    5.20
  18 -21   4    9.50    6.10
   3  18   4    0.60    5.00
   4  18   4   -5.40    5.40
  18 -22   4  -10.20    5.80
   5  18   4    3.70    5.80
  18 -23   4   13.60    7.00
  18 -24   4   16.50    7.70
   6  18   4    4.60    6.40
  18 -25   4   29.60    9.20
   7  18   4   58.29    8.60
  -6  25  -4   37.10    8.20
  19   6   4   29.70   12.20
  -5  24  -4   25.70    7.20
  19   5   4   13.00    7.40
  -4  23  -4    3.30    6.20
  19   4   4    0.20    6.10
  -3  22  -4   -5.00    5.80
  19   3   4    4.60    6.10
  -2  21  -4    1.50    5.70
  19   2   4   27.90    6.80
  -1  20  -4    0.40    5.20
  19   1   4    6.10    6.00
   0  19  -4   68.19    7.40
  19   0   4   82.89    8.20
   1  18  -4   93.09    8.50
  19  -1   4  134.79   10.00
   2  17  -4   23.20    5.70
  19  -2   4   25.90    5.90
   3  16  -4   62.39    6.60
  19  -3   4   75.69    7.50
   4  15  -4   58.49    6.40
  19  -4   4   54.99    6.70
   5  14  -4  323.07   13.70
 -14  19   4  341.77   14.20
  19  -5   4  345.17   14.80
   6  13  -4  185.98   10.50
 -13  19   4  189.48   10.50
  19  -6   4  182.38   11.10
   7  12  -4    4.60    3.80
 -12  19   4   14.70    4.50
  19  -7   4   12.90    4.90
   8  11  -4   19.30    4.30
 -11  19   4   15.90    4.80
  19  -8   4   19.80    5.00
   9  10  -4    1.70    3.70
  19  -9   4    4.40    4.10
 -10  19   4   -1.10    3.90
  10   9  -4    0.10    3.50
  -9  19   4    5.70    4.20
  -9  19   4    0.60    3.30
  19 -10   4    0.20    4.10
  11   8  -4  100.39    8.40
  -8  19   4  115.39    7.70
  19 -11   4  110.79    9.60
  12   7  -4   42.90    5.70
  -7  19   4   49.30    5.10
  19 -12   4   49.90    6.70
  13   6  -4   35.50    5.50
  19 -13   4   32.00    6.00
  -6  19   4   36.10    4.80
  14   5  -4   74.79    6.80
  19 -14   4   75.59    7.80
  -5  19   4   83.79    7.30
  15   4  -4   21.50    4.90
  -4  19   4   21.30    4.70
  19 -15   4   25.20    5.70
  16   3  -4   13.70    4.70
  19 -16   4   17.20    5.70
  -3  19   4    7.70    4.30
  17   2  -4   12.80    4.70
  19 -17   4   10.00    5.60
  -2  19   4    5.80    4.40
  18   1  -4  196.98   11.20
  -1  19   4  171.88   10.70
  19 -18   4  195.18   12.60
  19   0  -4   54.99    6.80
   0  19   4   56.89    6.80
  19 -19   4   64.49    8.20
  20  -1  -4    2.50    4.90
   1  19   4   -5.00    5.10
  19 -20   4   -7.80    5.60
  21  -2  -4   12.30    5.40
   2  19   4   13.30    6.00
  19 -21   4    1.70    6.40
   3  19   4   -8.60    5.40
  19 -22   4    4.40    6.90
  19 -23   4   42.20    8.10
   4  19   4   34.10    7.20
  19 -24   4   65.49    9.40
   5  19   4   70.29    8.80
  19 -25   4   -1.20    8.20
   6  19   4   18.20    7.30
  -4  24  -4   31.20    8.10
  20   4   4   19.80    7.80
  -3  23  -4   14.60    7.00
  20   3   4   12.70    7.00
  -2  22  -4    1.30    6.40
  20   2   4   -3.90    6.00
  -1  21  -4   29.20    6.90
  20   1   4   36.90    7.30
   0  20  -4   55.19    7.50
  20   0   4   59.39    7.60
   1  19  -4   -4.50    4.90
  20  -1   4    5.60    5.70
   2  18  -4  -10.10    4.70
  20  -2   4   -7.80    5.30
   3  17  -4    6.60    5.30
  20  -3   4   16.90    5.60
   4  16  -4   -8.50    4.60
  20  -4   4    7.20    5.10
   5  15  -4  143.39    9.80
  20  -5   4  140.39   10.80
   6  14  -4  287.57   13.30
  20  -6   4  307.17   14.30
 -14  20   4  292.27   13.80
   7  13  -4   32.80    5.90
  20  -7   4   51.19    6.90
 -13  20   4   38.50    6.70
   8  12  -4  119.99    9.70
  20  -8   4  127.39   10.40
 -12  20   4  110.09    9.80
   9  11  -4   36.70    5.80
 -11  20   4   48.90    6.70
  20  -9   4   50.79    6.80
  10  10  -4  103.39    8.40
 -10  20   4  102.09    9.30
  20 -10   4   84.79    8.10
  11   9  -4   42.60    6.00
  20 -11   4   46.00    6.90
  12   8  -4   13.90    5.00
  -8  20   4    8.40    4.20
  20 -12   4    3.20    5.60
  13   7  -4   16.70    5.00
  20 -13   4    5.60    5.80
  -7  20   4   12.40    4.30
  14   6  -4   27.40    5.20
  20 -14   4   33.00    6.80
  -6  20   4   26.40    5.00
  15   5  -4    0.40    4.40
  -5  20   4    6.80    4.40
  20 -15   4   -0.20    5.10
  16   4  -4    6.20    4.70
  -4  20   4    6.20    4.50
  20 -16   4   -0.50    5.20
  17   3  -4   30.90    5.70
  -3  20   4   25.90    5.50
  20 -17   4   23.50    6.50
  18   2  -4    1.40    5.00
  20 -18   4    5.70    5.90
  -2  20   4    1.30    4.70
  19   1  -4   -4.20    4.90
  20 -19   4   -7.30    5.70
  -1  20   4   -4.40    4.80
  20   0  -4   63.09    7.50
  20 -20   4   51.69    8.30
   0  20   4   64.39    7.40
  21  -1  -4   41.90    7.00
   1  20   4   32.90    6.80
  20 -21   4   30.70    7.70
  22  -2  -4    1.00    9.70
  20 -22   4   -3.70    6.50
   2  20   4    1.40    5.90
   3  20   4   40.90    7.80
  20 -23   4   30.00    8.20
  20 -24   4  113.69   11.30
   4  20   4  119.89   10.70
  -3  24  -4   -1.90    7.30
  21   3   4   -1.70    8.90
  -2  23  -4   14.70    6.90
  21   2   4   17.70    7.50
  -1  22  -4    3.50    6.30
  21   1   4    9.30    6.50
   0  21  -4   21.90    6.30
  21   0   4   16.70    6.70
   1  20  -4   33.70    7.00
  21  -1   4   43.50    7.70
   2  19  -4    8.80    5.70
  21  -2   4    7.80    6.20
   3  18  -4    9.10    5.30
  21  -3   4    5.60    6.00
   4  17  -4  -10.10    4.90
  21  -4   4   11.70    5.70
   5  16  -4   13.90    5.30
  21  -5   4   16.00    5.80
   6  15  -4    0.50    4.60
  21  -6   4    9.90    5.60
 -15  21   4    1.30    5.60
   7  14  -4    0.70    4.70
  21  -7   4    1.90    5.00
 -14  21   4    8.50    5.50
   8  13  -4   25.10    5.60
  21  -8   4   29.90    6.10
 -13  21   4   30.80    6.70
   9  12  -4   64.59    7.10
 -12  21   4   62.99    7.80
  21  -9   4   67.39    7.60
  10  11  -4  137.49   10.10
 -11  21   4  158.28   11.00
  21 -10   4  157.18   11.80
  11  10  -4  470.55   17.90
 -10  21   4  445.26   17.90
  21 -11   4  439.06   18.10
  12   9  -4  201.08   12.10
  21 -12   4  242.18   13.90
  13   8  -4   -4.60    5.10
  21 -13   4    1.60    6.30
  14   7  -4   12.70    5.50
  21 -14   4   26.70    7.00
  -7  21   4   24.90    5.40
  15   6  -4    7.00    4.90
  -6  21   4    0.70    4.50
  21 -15   4    1.40    5.60
  16   5  -4   28.70    5.70
  21 -16   4   28.80    6.70
  -5  21   4   24.10    5.60
  17   4  -4   19.60    5.90
  21 -17   4   13.90    6.50
  -4  21   4   12.70    5.30
  18   3  -4   35.20    6.80
  -3  21   4   33.60    6.20
  21 -18   4   42.20    7.80
  19   2  -4   19.00    6.20
  21 -19   4   14.70    6.80
  -2  21   4   22.80    5.90
  20   1  -4   27.30    6.60
  21 -20   4   11.80    7.10
  -1  21   4   29.10    6.40
  21   0  -4   27.30    6.70
   0  21   4   10.10    6.20
  21 -21   4   15.10    7.30
  22  -1  -4    4.70    6.40
  21 -22   4    2.10    6.70
   1  21   4   -0.30    6.20
   2  21   4   -4.90    6.80
  21 -23   4    2.40    7.60
  21 -24   4   31.90    8.90
   3  21   4   26.90    8.30
  -1  23  -4   46.80    8.40
  22   1   4   56.59    9.20
   0  22  -4   -0.20    6.20
  22   0   4    5.50    7.10
   1  21  -4   -5.00    5.90
  22  -1   4    3.80    6.80
   2  20  -4   -2.10    5.90
  22  -2   4    4.60    6.20
   3  19  -4   -0.20    5.80
  22  -3   4    4.10    6.20
   4  18  -4   -0.30    5.30
  22  -4   4    0.10    5.60
   5  17  -4    7.40    5.40
  22  -5   4   12.50    6.20
   6  16  -4   55.69    7.30
  22  -6   4   48.90    7.60
   7  15  -4   37.80    6.40
 -15  22   4   43.00    7.30
  22  -7   4   30.40    6.70
   8  14  -4    5.90    5.20
  22  -8   4    6.70    5.80
 -14  22   4    8.70    6.00
   9  13  -4    8.80    5.20
 -13  22   4   11.20    6.10
  22  -9   4    7.30    5.90
  10  12  -4   10.80    5.20
  22 -10   4    8.60    5.90
 -12  22   4   14.90    6.10
  11  11  -4   66.19    7.70
 -11  22   4   60.29    7.90
  22 -11   4   69.59    8.20
  12  10  -4   42.30    7.10
 -10  22   4   48.50    7.90
  22 -12   4   48.90    7.70
  13   9  -4   -4.90    5.00
  22 -13   4    8.30    6.30
  -9  22   4   -4.70    5.40
  14   8  -4   59.89    7.40
  22 -14   4   67.19    8.40
  15   7  -4   19.70    5.70
  22 -15   4   32.20    7.20
  16   6  -4  138.09   10.80
  -6  22   4   94.69    9.80
  22 -16   4   92.59    9.40
  17   5  -4  100.29    9.00
  -5  22   4  131.09   10.60
  22 -17   4   87.59    9.50
  18   4  -4   10.80    6.20
  22 -18   4    3.60    6.60
  -4  22   4    6.40    5.80
  19   3  -4    0.50    5.80
  -3  22   4   -5.00    5.50
  22 -19   4    0.30    6.30
  20   2  -4   -2.00    5.70
  -2  22   4    1.90    5.90
  22 -20   4    1.60    7.00
  21   1  -4    6.60    6.20
  -1  22   4    5.90    6.00
  22 -21   4    2.30    6.80
  22   0  -4    5.60    6.40
  22 -22   4    5.10    7.50
   0  22   4    7.90    6.80
   1  22   4   23.10    7.90
  22 -23   4   24.80    9.00
   1  22  -4   12.00    7.50
  23  -1   4   25.00    8.40
   2  21  -4   -7.40    6.50
  23  -2   4    2.60    7.40
   3  20  -4   52.69    7.80
  23  -3   4   53.99    8.50
   4  19  -4   31.90    7.10
  23  -4   4   31.10    7.40
   5  18  -4   15.40    5.90
  23  -5   4   10.50    6.60
   6  17  -4    3.70    5.70
  23  -6   4    5.90    6.20
   7  16  -4   22.80    6.20
  23  -7   4   14.30    6.40
   8  15  -4    2.60    5.50
 -15  23   4   -1.40    6.40
  23  -8   4   -2.40    5.80
   9  14  -4   10.30    5.80
 -14  23   4   16.20    6.80
  23  -9   4   12.30    6.30
  10  13  -4   10.50    5.90
  23 -10   4   11.90    6.10
 -13  23   4   10.90    6.20
  11  12  -4   27.30    6.40
 -12  23   4   17.70    6.80
  23 -11   4   25.50    7.00
  12  11  -4   54.69    7.60
  23 -12   4   49.90    8.00
 -11  23   4   55.69    7.90
  13  10  -4   31.80    6.50
  23 -13   4   35.10    7.90
 -10  23   4   31.90    7.40
  14   9  -4   17.20    5.90
  23 -14   4   14.80    7.10
  -9  23   4   29.10    7.00
  15   8  -4   10.40    5.80
  23 -15   4   18.30    7.20
  16   7  -4   45.00    7.20
  23 -16   4   51.19    8.40
  17   6  -4  181.68   12.60
  23 -17   4  171.18   13.90
  18   5  -4   40.50    7.30
  23 -18   4   55.59    8.60
  19   4  -4   -4.20    5.70
  23 -19   4   -6.20    6.40
  -4  23   4    1.00    5.90
  20   3  -4    7.90    6.40
  23 -20   4    2.30    7.00
  -3  23   4   17.30    6.50
  21   2  -4    3.80    6.40
  -2  23   4    6.00    6.90
  23 -21   4    8.00    7.80
  22   1  -4   57.39    8.70
  -1  23   4   54.49    8.80
  23 -22   4   47.00   10.20
   3  21  -4   34.40   11.50
  24  -3   4   21.00    8.00
   4  20  -4  162.18   12.50
  24  -4   4  162.18   14.10
   5  19  -4   70.49    8.70
  24  -5   4   67.79    9.30
   6  18  -4   -3.20    6.10
  24  -6   4    4.80    7.10
   7  17  -4   12.50    6.50
  24  -7   4    8.00    6.90
   8  16  -4   13.30    6.40
  24  -8   4    4.60    6.60
   9  15  -4    3.90    5.80
  24  -9   4    8.70    6.70
 -15  24   4   -4.80    6.80
  10  14  -4    1.90    5.70
 -14  24   4   -2.00    6.50
  24 -10   4  -13.00    6.00
  11  13  -4   11.40    6.20
 -13  24   4    5.40    6.70
  24 -11   4    7.50    7.00
  12  12  -4   20.70    6.80
  24 -12   4   18.20    7.50
 -12  24   4   28.00    7.70
  13  11  -4   23.20    6.50
  24 -13   4   18.10    7.80
 -11  24   4    8.80    6.70
  14  10  -4   -1.40    5.90
  24 -14   4   -5.90    6.80
 -10  24   4   -5.60    5.90
  15   9  -4   -0.90    5.50
  -9  24   4   -2.90    6.20
  24 -15   4    2.50    6.70
  16   8  -4    5.90    5.80
  24 -16   4   -3.60    6.60
  17   7  -4    5.20    6.00
  24 -17   4    8.60    7.00
  18   6  -4   -4.70    5.60
  24 -18   4    8.70    7.30
  19   5  -4   23.20    6.90
  24 -19   4   14.30    7.60
  20   4  -4   28.80    7.60
  24 -20   4   22.90    8.20
  21   3  -4    4.00    6.90
  -3  24   4   -1.30   10.90
  24 -21   4   -2.10    9.60
   6  19  -4    9.20   10.70
  25  -6   4   15.10    8.00
   7  18  -4   50.79    8.90
  25  -7   4   49.20    9.20
   8  17  -4   10.30    7.40
  25  -8   4   10.00    7.70
   9  16  -4   82.19    9.40
  25  -9   4   88.29   10.10
  10  15  -4   93.99    9.70
  25 -10   4   86.49    9.90
 -15  25   4   78.59   10.50
  11  14  -4   20.30    7.20
 -14  25   4   23.50    8.10
  25 -11   4   35.80    8.10
  12  13  -4   -1.60    6.40
  25 -12   4   -4.90    7.20
 -13  25   4   11.30    7.30
  13  12  -4   -5.10    6.00
  25 -13   4   -1.20    7.50
 -12  25   4   -2.10    6.90
  14  11  -4   11.70    6.70
 -11  25   4    6.30    7.40
  25 -14   4   10.00    8.10
  15  10  -4    5.00    6.30
 -10  25   4    2.80    7.00
  25 -15   4   11.00    7.80
  16   9  -4   15.80    6.90
  -9  25   4    8.00    7.30
  25 -16   4   13.60    7.70
  17   8  -4   19.60    7.20
  -8  25   4   13.20    7.50
  25 -17   4   17.60    7.80
  18   7  -4   46.20    8.20
  25 -18   4   34.60    9.00
  19   6  -4   32.80    7.80
  25 -19   4   42.10    9.40
  26 -10   4   79.19   10.00
  11  15  -4   41.10   10.60
  26 -11   4   48.70    9.20
 -15  26   4   46.60    9.90
  12  14  -4   -3.40    7.00
  26 -12   4    6.90    8.00
 -14  26   4   11.40    8.80
  13  13  -4   14.20    7.50
 -13  26   4   24.10    8.30
  26 -13   4   30.60    9.00
  14  12  -4   19.30    7.70
  26 -14   4   21.30    9.00
 -12  26   4   28.00    9.00
  15  11  -4   32.20    7.60
 -11  26   4   46.50    9.90
  26 -15   4   60.59   10.10
  16  10  -4   15.70    7.60
 -10  26   4    9.20    8.20
  26 -16   4    5.50    8.10
   0   0   5 2380.16   60.09
   1   0   5  896.41   23.70
  -1   1   5  974.40   23.50
   0  -1   5  880.31   23.80
   0   1   5  886.31   23.20
   1  -1   5  920.31   23.60
  -1   0   5  906.01   23.20
   1   1   5   42.10    2.20
  -2   1   5   48.20    1.80
   1  -2   5   46.60    2.60
   1  -3   5  330.97    9.60
   2   1   5  325.67    9.30
  -2   2   5   11.30    1.00
   0  -2   5   13.90    1.40
   2   0   5   14.80    1.50
   2  -1   5   44.60    2.50
  -1   2   5   44.50    1.80
  -1  -1   5   45.60    2.20
  -2   0   5   13.00    1.20
   0   2   5   14.10    1.20
   2  -2   5   11.90    1.60
   3  -1  -5 1882.11   48.00
   2  -3   5 1879.91   49.00
   1   2   5 1971.00   48.50
   4  -2  -5  640.44   16.00
   2   2   5  624.74   16.80
   2  -4   5  615.44   17.20
   5  -3  -5 1745.33   44.60
   3   2   5 1843.02   45.70
   2  -5   5 1748.53   46.00
   3   1   5  729.03   19.10
   1  -4   5  698.13   19.30
   3   0   5  511.25   14.10
   0  -3   5  521.15   14.20
   3  -1   5 1856.31   48.20
  -1  -2   5 1865.61   48.00
  -2   3   5 1939.81   47.30
   2   1  -5  325.27    9.00
  -1   3   5  321.27    8.70
   3  -2   5  328.37    9.60
   3   0  -5  565.34   14.20
   3  -3   5  517.75   15.10
   0   3   5  535.65   14.20
   4  -1  -5 1729.93   43.80
   1   3   5 1727.73   44.20
   3  -4   5 1749.53   44.90
   5  -2  -5  156.38    4.50
   3  -5   5  152.78    5.70
   2   3   5  147.69    5.10
   6  -3  -5  323.07    8.80
   3   3   5  320.87    9.60
   3  -6   5  333.67   10.20
   7  -4  -5   71.89    2.70
   3  -7   5   72.69    4.00
   4   3   5   66.39    3.60
   6  -4  -5  877.11   22.50
   4   2   5  895.61   23.70
   1  -5   5 1750.52   45.50
   4   1   5 1766.42   45.30
   0  -4   5   12.70    1.60
   4   0   5   17.30    1.80
  -1  -3   5 1742.23   44.80
   4  -1   5 1748.53   44.90
   2   2  -5  604.64   16.50
  -2   4   5  638.94   15.90
   4  -2   5  618.44   17.00
   3   1  -5  722.93   18.70
   4  -3   5  700.33   19.40
  -1   4   5  708.03   18.40
   4   0  -5   15.10    1.30
   4  -4   5   10.90    1.80
   0   4   5   17.00    1.40
   5  -1  -5  135.79    4.30
   1   4   5  135.29    4.70
   4  -5   5  146.89    5.50
   6  -2  -5  390.06   10.20
   2   4   5  377.36   10.70
   4  -6   5  357.96   11.30
   2   4   5  363.46   11.20
   7  -3  -5  409.46   10.80
   4  -7   5  386.46   12.20
   3   4   5  392.16   11.50
   3   4   5  392.76   11.80
   8  -4  -5   26.20    2.10
   4  -8   5   27.10    2.90
   4   4   5   30.70    2.70
   4   4   5   27.40    2.50
   9  -5  -5  901.61   24.10
   5   4   5  903.41   25.20
   5   4   5  931.71   25.10
   4  -9   5  976.70   25.90
   8  -5  -5  111.79    3.70
   3  -8   5  109.69    5.20
   5   3   5  108.19    4.80
   5   3   5  102.99    4.50
   7  -5  -5  136.09    4.10
   5   2   5  129.59    5.20
   2  -7   5  129.89    5.40
   5   1   5  556.24   15.50
   1  -6   5  549.65   15.70
   0  -5   5  630.84   17.20
   5   0   5  602.84   17.00
   1   4  -5  134.69    4.90
   5  -1   5  138.09    5.20
   2   3  -5  164.68    5.30
  -3   5   5  149.88    4.30
   5  -2   5  149.29    5.60
   3   2  -5 1708.93   44.10
   5  -3   5 1722.53   44.70
  -2   5   5 1742.93   43.50
   4   1  -5 1746.63   45.50
   5  -4   5 1779.82   46.50
  -1   5   5 1829.52   45.30
   5   0  -5  620.24   16.30
   0   5   5  606.04   17.20
   0   5   5  617.24   16.40
   5  -5   5  610.84   17.50
   6  -1  -5   49.40    2.50
   1   5   5   48.70    2.70
   5  -6   5   50.39    3.50
   1   5   5   46.40    3.20
   7  -2  -5 1988.00   50.29
   2   5   5 1981.00   50.79
   2   5   5 1987.10   51.29
   5  -7   5 1959.00   51.59
   8  -3  -5  140.89    4.80
   3   5   5  139.39    5.40
   5  -8   5  151.78    6.20
   3   5   5  144.19    5.80
   9  -4  -5  136.99    4.70
   4   5   5  126.69    5.50
   5  -9   5  124.09    5.90
   4   5   5  123.99    5.40
  10  -5  -5  445.96   12.70
   5   5   5  449.56   13.60
   5 -10   5  444.56   14.30
   5   5   5  467.05   13.70
  11  -6  -5   67.09    3.60
   6   5   5   66.89    4.20
   5 -11   5   71.29    4.80
   6   5   5   71.99    4.50
  10  -6  -5  976.40   25.60
   6   4   5  965.60   26.50
   6   4   5 1009.40   26.80
   4 -10   5  961.10   27.20
   9  -6  -5  515.15   13.90
   6   3   5  494.65   14.70
   3  -9   5  529.35   15.50
   6   3   5  518.55   15.20
   8  -6  -5   28.80    2.10
   2  -8   5   31.90    2.90
   6   2   5   27.00    2.60
   7  -6  -5   73.09    2.60
   6   1   5   60.59    3.70
   1  -7   5   69.29    4.00
   0   6  -5  267.67    8.40
   0  -6   5  258.87    8.50
   6   0   5  262.37    8.50
   1   5  -5   49.40    2.90
   6  -1   5   47.80    3.30
   2   4  -5  360.36   10.70
   6  -2   5  375.36   11.10
  -4   6   5  373.86    9.70
   3   3  -5  329.77    9.60
   6  -3   5  315.07   10.10
  -3   6   5  335.27    8.80
   4   2  -5  910.91   24.40
  -2   6   5  950.00   23.90
   6  -4   5  917.21   25.10
   5   1  -5  524.75   14.60
   6  -5   5  561.64   15.80
  -1   6   5  531.55   14.40
  -1   6   5  532.55   15.50
   6   0  -5  249.18    7.60
   6  -6   5  264.67    8.90
   0   6   5  255.87    8.60
   0   6   5  258.57    7.70
   7  -1  -5  267.37    8.10
   1   6   5  270.47    9.00
   1   6   5  277.57    8.30
   6  -7   5  274.57    9.40
   8  -2  -5    6.30    1.40
   2   6   5    8.30    1.70
   6  -8   5    9.60    2.10
   2   6   5    8.40    2.00
   9  -3  -5 1581.14   41.10
   3   6   5 1606.44   42.10
   6  -9   5 1593.94   42.50
   3   6   5 1604.44   41.70
  10  -4  -5  556.74   15.20
   4   6   5  554.94   16.20
   4   6   5  564.04   16.00
   6 -10   5  518.85   16.60
  11  -5  -5   14.00    2.00
   6 -11   5   14.10    2.70
   5   6   5   17.70    2.50
  12  -6  -5  180.78    6.40
   6   6   5  178.68    7.40
   6 -12   5  178.08    7.80
  13  -7  -5  414.66   12.50
   7   6   5  414.76   13.40
   6 -13   5  424.36   14.00
  12  -7  -5    8.80    1.80
   5 -12   5    7.80    2.60
   7   5   5    8.10    2.20
   7   5   5    8.50    2.40
  11  -7  -5  344.57   10.20
   4 -11   5  360.46   12.00
   7   4   5  349.17   11.40
   7   4   5  348.97   11.00
  10  -7  -5  283.97    8.50
   7   3   5  281.07    9.10
   3 -10   5  271.17    9.90
   7   3   5  284.87    9.70
   9  -7  -5  138.19    4.80
   7   2   5  121.99    5.90
   2  -9   5  144.79    6.10
   8  -7  -5  269.07    7.70
   1  -8   5  271.57    9.20
   7   1   5  267.17    9.00
   7  -7  -5   99.69    3.40
   0   7  -5  106.29    4.70
   7   0   5  100.09    4.70
   1   6  -5  259.17    8.50
   7  -1   5  263.37    8.70
   2   5  -5 1921.01   50.39
  -5   7   5 1980.20   49.30
   7  -2   5 1969.70   50.79
   3   4  -5  406.16   11.70
  -4   7   5  394.76   10.70
   7  -3   5  404.96   12.20
   4   3  -5   71.89    3.50
   7  -4   5   68.39    3.90
  -3   7   5   80.89    4.20
  -3   7   5   76.99    2.90
   5   2  -5  123.39    4.70
  -2   7   5  128.49    4.30
   7  -5   5  123.69    5.50
   6   1  -5   66.89    3.30
  -1   7   5   64.29    3.00
  -1   7   5   64.49    3.80
   7  -6   5   69.59    4.20
   7   0  -5  101.89    4.10
   0   7   5   94.99    4.00
   7  -7   5   94.89    5.00
   0   7   5  101.89    4.80
   8  -1  -5   21.90    2.00
   1   7   5   14.00    2.00
   1   7   5   18.10    2.40
   7  -8   5   16.90    2.60
   9  -2  -5 1888.01   48.90
   7  -9   5 1911.51   50.29
   2   7   5 1895.41   49.30
   2   7   5 1922.81   49.90
  10  -3  -5  798.22   21.50
   3   7   5  778.92   22.00
   7 -10   5  818.02   23.10
  11  -4  -5   76.59    4.00
   7 -11   5   91.19    5.40
   4   7   5   82.19    4.70
  12  -5  -5   39.90    3.30
   7 -12   5   38.90    3.90
   5   7   5   40.50    3.60
  13  -6  -5  430.16   13.10
   6   7   5  433.86   14.00
   7 -13   5  456.35   14.70
  14  -7  -5   33.90    3.10
   7 -14   5   29.80    3.90
   7   7   5   23.30    3.50
  15  -8  -5  293.47   10.40
   8   7   5  306.57   11.40
   7 -15   5  270.07   11.70
  14  -8  -5   13.80    2.40
   6 -14   5   11.60    3.10
   8   6   5   14.20    3.10
  13  -8  -5   26.00    2.70
   8   5   5   29.60    3.50
   8   5   5   28.00    3.10
   5 -13   5   21.80    3.40
  12  -8  -5  277.77    8.70
   8   4   5  263.57    9.10
   4 -12   5  265.17   10.00
   8   4   5  261.97    9.60
  11  -8  -5 1734.83   45.60
   8   3   5 1767.32   46.80
   3 -11   5 1813.92   47.20
   8   3   5 1762.12   46.10
  10  -8  -5  603.34   16.90
  -2  10  -5  643.74   18.30
   8   2   5  637.94   18.20
   2 -10   5  600.74   18.30
   9  -8  -5  679.53   17.80
  -1   9  -5  662.83   19.10
   8   1   5  661.43   19.10
   8  -8  -5 1247.58   32.30
   0   8  -5 1247.08   33.70
   8   0   5 1285.37   33.80
   7  -8  -5   16.40    1.50
   1   7  -5   16.00    2.20
   8  -1   5   13.90    2.30
   2   6  -5   11.00    1.80
  -6   8   5    7.90    1.00
   8  -2   5    7.10    1.90
   3   5  -5  135.39    5.50
   8  -3   5  149.29    6.00
  -5   8   5  146.99    4.50
   4   4  -5   24.60    2.30
   8  -4   5   26.70    2.70
  -4   8   5   28.50    2.90
  -4   8   5   28.80    2.00
   5   3  -5  107.29    4.50
  -3   8   5  104.49    5.10
  -3   8   5  108.49    4.00
   8  -5   5  117.49    5.20
   6   2  -5   25.50    2.20
  -2   8   5   33.70    3.10
  -2   8   5   28.50    2.30
   8  -6   5   28.40    3.00
   7   1  -5  252.47    8.20
  -1   8   5  259.67    9.00
  -1   8   5  265.77    8.10
   8  -7   5  264.97    9.40
   8   0  -5 1256.37   33.10
   8  -8   5 1292.47   34.50
   0   8   5 1273.47   33.20
   0   8   5 1230.98   34.00
   9  -1  -5  124.29    5.00
   8  -9   5  122.89    6.30
   1   8   5  111.79    5.10
  10  -2  -5  452.95   13.20
   2   8   5  460.55   13.60
   8 -10   5  459.15   14.70
  11  -3  -5  106.59    4.90
   8 -11   5  111.49    6.30
   3   8   5  105.89    5.10
  12  -4  -5   31.60    2.80
   4   8   5   33.70    3.20
   8 -12   5   31.30    3.70
  13  -5  -5  103.99    5.10
   8 -13   5  108.99    6.30
   5   8   5  100.29    5.80
  14  -6  -5  168.48    6.90
   8 -14   5  148.69    7.80
   6   8   5  162.68    7.80
  15  -7  -5  938.71   26.30
   8 -15   5  951.40   28.00
   7   8   5  954.70   27.20
   8   8   5  178.78    9.00
   8 -16   5  181.08    9.40
   8 -17   5    2.50    3.50
   9   8   5    2.20    3.10
   9   7   5   30.30    4.20
   7 -16   5   24.40    4.50
   9   6   5  134.29    7.60
   6 -15   5  139.79    8.00
  14  -9  -5   33.50    3.40
   9   5   5   30.80    3.70
   5 -14   5   28.90    4.00
   9   5   5   33.80    3.40
  13  -9  -5   39.90    3.30
   9   4   5   44.80    4.00
   9   4   5   40.90    3.80
   4 -13   5   38.40    4.20
  12  -9  -5   83.69    4.40
  -3  12  -5   70.49    5.00
   9   3   5   72.09    4.30
   9   3   5   78.69    5.30
  11  -9  -5  958.50   25.70
  -2  11  -5  982.20   27.10
   9   2   5  941.31   26.00
   9   2   5  987.20   27.00
  10  -9  -5   73.29    3.80
   9   1   5   85.89    5.20
   0   9  -5  460.45   14.00
   9  -9  -5  458.25   12.60
   9   0   5  445.06   14.00
   1   8  -5  123.49    5.70
   8  -9  -5  107.59    4.20
   9  -1   5  121.79    5.80
   2   7  -5 1930.81   50.59
   9  -2   5 1953.40   50.89
   3   6  -5 1624.84   43.80
  -6   9   5 1617.34   42.60
   9  -3   5 1789.72   44.40
   4   5  -5  126.09    5.20
  -5   9   5  122.99    4.30
   9  -4   5  118.79    5.80
  -5   9   5  126.19    5.80
   5   4  -5  913.21   25.20
   9  -5   5  936.11   25.80
  -4   9   5  941.21   24.40
  -4   9   5  935.01   25.80
   6   3  -5  526.75   14.90
  -3   9   5  517.75   15.50
  -3   9   5  509.45   14.30
   9  -6   5  518.65   15.80
   7   2  -5  138.49    5.50
  -2   9   5  133.39    5.10
   9  -7   5  136.89    6.80
  -2   9   5  139.69    6.10
   8   1  -5  690.83   19.40
  -1   9   5  698.53   19.20
  -1   9   5  701.43   20.30
   9  -8   5  717.73   20.80
   9   0  -5  454.85   13.20
   0   9   5  435.66   13.20
   9  -9   5  466.55   14.70
  10  -1  -5   10.10    2.00
   1   9   5    5.70    1.80
   9 -10   5    4.70    2.50
  11  -2  -5   60.39    3.90
   2   9   5   53.49    4.00
   9 -11   5   64.99    5.30
  12  -3  -5   10.00    2.20
   3   9   5   11.00    2.40
   9 -12   5   13.30    3.30
  13  -4  -5  248.68    8.70
   4   9   5  253.77    9.30
   9 -13   5  231.68    9.80
  14  -5  -5    8.50    2.50
   9 -14   5    8.80    3.30
   5   9   5    9.40    2.80
  15  -6  -5  613.44   18.10
   9 -15   5  613.94   19.80
   6   9   5  606.04   18.90
  16  -7  -5  223.28    9.30
   9 -16   5  229.58   10.50
   7   9   5  221.78    9.90
   9 -17   5   15.90    4.10
   8   9   5   12.70    3.80
   9 -18   5   15.00    4.60
   9   9   5   17.60    4.30
  10   9   5    8.80    4.10
   9 -19   5    3.30    4.30
  10   8   5   40.50    5.20
   8 -18   5   41.00    5.60
   7 -17   5   46.20    5.30
  10   7   5   42.60    5.00
  -6  16  -5  324.47   12.70
  10   6   5  330.27   12.50
   6 -16   5  347.37   13.00
  -5  15  -5  241.78   10.30
  10   5   5  254.17   10.50
  10   5   5  251.27    9.30
  -4  14  -5   42.80    4.30
  10   4   5   34.80    4.00
  10   4   5   36.50    3.50
  -3  13  -5   33.80    3.70
  13 -10  -5   36.00    3.30
  10   3   5   31.50    3.10
  10   3   5   31.70    3.60
  -2  12  -5   11.00    2.60
  12 -10  -5    8.00    2.00
  10   2   5    7.80    2.50
  10   2   5   10.30    2.00
  11 -10  -5   81.29    4.20
  -1  11  -5   84.69    5.50
  10   1   5   87.39    5.50
   0  10  -5   32.50    3.40
  10 -10  -5   29.70    2.50
  10   0   5   38.40    3.70
   9 -10  -5    5.40    1.50
   1   9  -5    4.10    2.10
  10  -1   5   11.30    2.50
   8 -10  -5  451.85   12.70
   2   8  -5  450.65   14.00
  10  -2   5  475.75   14.40
   3   7  -5  794.92   21.90
  10  -3   5  789.72   22.10
  -7  10   5  748.63   20.40
   4   6  -5  547.75   16.20
  10  -4   5  553.04   16.70
  -6  10   5  547.05   15.00
  -6  10   5  575.54   16.80
   5   5  -5  436.46   13.30
  -5  10   5  437.76   12.30
  -5  10   5  455.25   13.90
  10  -5   5  437.66   13.90
   6   4  -5 1003.80   27.70
  10  -6   5 1010.80   28.30
  -4  10   5 1036.50   28.40
  -4  10   5 1044.80   27.00
   7   3  -5  279.37    9.20
  10  -7   5  290.17   10.30
  -3  10   5  274.37    8.60
  -3  10   5  260.87    9.60
   8   2  -5  626.44   17.20
  -2  10   5  580.34   16.70
  -2  10   5  605.64   17.90
  10  -8   5  586.94   18.20
   9   1  -5   97.79    4.70
  -1  10   5   83.79    4.50
  10  -9   5   68.49    5.80
  10   0  -5   35.30    3.10
  10 -10   5   27.70    3.80
   0  10   5   36.10    3.00
  11  -1  -5  326.87   10.60
  10 -11   5  320.77   11.90
   1  10   5  335.87   10.80
  12  -2  -5    9.20    2.30
  10 -12   5   10.10    3.20
   2  10   5   12.00    2.60
  13  -3  -5  141.39    6.30
   3  10   5  125.59    6.50
  10 -13   5  134.29    7.50
  14  -4  -5  483.45   14.80
  10 -14   5  482.35   16.40
   4  10   5  475.45   15.40
  15  -5  -5   30.90    3.60
   5  10   5   27.50    3.70
  10 -15   5   14.70    4.10
  16  -6  -5   77.79    5.80
  10 -16   5   71.89    6.30
   6  10   5   68.49    6.10
  10 -17   5   21.20    4.50
   7  10   5   22.00    4.20
  10 -18   5   56.19    6.20
   8  10   5   53.29    5.50
  10 -19   5   17.30    5.00
   9  10   5    2.50    4.10
  10  10   5  131.49    9.40
  10 -20   5  133.19   10.80
 -10  21  -5  436.96   17.90
  11  10   5  416.76   17.30
  -9  20  -5  123.79    9.90
  11   9   5  112.49    9.30
  -8  19  -5  119.49    9.30
  11   8   5  116.09    8.80
  -7  18  -5   29.10    5.00
  11   7   5   37.30    5.20
  -6  17  -5  -11.90    3.60
  11   6   5   10.70    3.70
  -5  16  -5   -3.10    3.30
  11   5   5   10.50    3.40
  -4  15  -5    4.30    3.00
  11   4   5    3.40    2.90
  -3  14  -5    9.10    2.90
  11   3   5    7.20    2.80
  -2  13  -5   43.30    4.10
  11   2   5   42.30    4.10
  -1  12  -5  151.68    7.20
  12 -11  -5  158.18    6.30
  11   1   5  152.78    7.20
   0  11  -5  702.83   20.80
  11 -11  -5  707.13   19.30
  11   0   5  706.33   20.80
   1  10  -5  342.47   11.20
  10 -11  -5  305.07    9.70
  11  -1   5  318.37   11.10
   9 -11  -5   59.99    3.40
   2   9  -5   61.19    4.50
  11  -2   5   51.39    4.20
   3   8  -5  101.99    5.40
  11  -3   5  100.79    5.70
  -8  11   5  104.59    4.10
   4   7  -5   83.99    4.90
  -7  11   5   80.69    3.60
  11  -4   5   77.69    5.00
  -7  11   5   93.69    5.30
   5   6  -5   14.50    2.40
  -6  11   5   14.90    1.80
  11  -5   5   16.30    2.80
  -6  11   5   15.90    2.80
   6   5  -5   68.19    4.40
  -5  11   5   73.49    4.80
  11  -6   5   67.89    5.00
  -5  11   5   76.49    3.60
   7   4  -5  368.26   11.50
  -4  11   5  367.26   10.70
  11  -7   5  333.97   12.00
  -4  11   5  357.56   12.00
   8   3  -5 1766.62   46.70
  -3  11   5 1763.02   46.20
  11  -8   5 1794.22   48.00
  -3  11   5 1808.72   47.60
   9   2  -5  987.90   26.70
  -2  11   5  954.20   26.20
  11  -9   5  982.30   28.00
  10   1  -5   83.69    4.90
  11 -10   5   86.79    6.00
  -1  11   5   87.59    4.70
  11   0  -5  688.53   19.60
  11 -11   5  665.03   20.90
   0  11   5  694.73   19.60
  12  -1  -5  248.38    8.90
   1  11   5  233.88    9.00
  11 -12   5  242.08   10.20
  13  -2  -5   82.39    5.60
   2  11   5  103.19    5.80
  11 -13   5   87.49    6.80
  14  -3  -5    8.50    2.90
  11 -14   5   10.60    3.90
   3  11   5    7.10    3.10
  15  -4  -5  103.99    6.30
   4  11   5   90.49    6.20
  11 -15   5   82.39    6.80
  16  -5  -5   22.90    3.50
   5  11   5   24.30    3.80
  11 -16   5   20.70    4.30
  17  -6  -5   26.00    4.00
   6  11   5   27.90    4.40
  11 -17   5   20.10    4.40
   7  11   5   19.80    4.40
  11 -18   5   23.50    5.10
  11 -19   5   65.59    6.90
   8  11   5   56.59    6.00
   9  11   5   27.40    5.40
  11 -20   5   23.70    6.10
  11 -21   5  134.59   11.80
  10  11   5  137.39   10.10
 -11  22  -5   42.10    7.00
  11  11   5   66.59    7.60
 -11  23  -5   30.00    6.70
  12  11   5   43.10    7.40
 -10  22  -5   58.49    7.40
  12  10   5   64.49    7.50
  -9  21  -5  197.58   12.70
  12   9   5  219.58   12.50
  -8  20  -5   12.70    5.00
  12   8   5    2.20    4.60
  -7  19  -5   63.39    6.50
  12   7   5   67.09    6.60
  -6  18  -5   12.00    4.10
  12   6   5   15.20    4.40
  -5  17  -5  485.65   16.80
  12   5   5  455.15   16.60
  -4  16  -5  515.45   17.20
  12   4   5  488.85   16.90
  -3  15  -5   11.00    3.50
  12   3   5   14.20    3.70
  -2  14  -5  292.07   11.10
  12   2   5  277.97   11.10
  -1  13  -5   48.20    4.50
  12   1   5   47.80    4.50
   0  12  -5   72.59    5.40
  12   0   5   79.59    5.70
   1  11  -5  225.28    9.20
  11 -12  -5  230.58    7.90
  12  -1   5  244.08    9.40
   2  10  -5   13.40    2.80
  10 -12  -5    9.80    2.10
  12  -2   5    6.90    2.80
   3   9  -5   16.80    2.70
  12  -3   5    4.70    2.50
   4   8  -5   28.40    3.20
  -8  12   5   34.30    2.80
  -8  12   5   32.50    3.70
  12  -4   5   27.40    3.40
   5   7  -5   40.10    3.50
  12  -5   5   32.60    3.60
  -7  12   5   42.20    3.00
  -7  12   5   35.40    3.80
   6   6  -5  190.38    7.40
  -6  12   5  177.08    7.70
  -6  12   5  178.28    6.30
  12  -6   5  191.38    8.00
   7   5  -5    8.50    2.30
  -5  12   5    5.90    1.80
  -5  12   5    9.10    2.50
  12  -7   5    7.50    2.80
   8   4  -5  266.17    9.50
  12  -8   5  276.17   10.50
  -4  12   5  281.67   10.20
  -4  12   5  271.37    8.90
   9   3  -5   75.49    4.90
  12  -9   5   79.89    6.00
  -3  12   5   78.29    4.50
  10   2  -5   10.40    2.40
  12 -10   5    8.80    3.00
  -2  12   5    6.20    2.00
  11   1  -5  163.48    7.10
  -1  12   5  154.08    6.60
  12 -11   5  149.29    7.90
  12   0  -5   73.79    5.30
   0  12   5   81.29    5.20
  12 -12   5   76.79    6.20
  13  -1  -5  490.45   15.10
  12 -13   5  478.85   16.60
   1  12   5  475.45   15.10
  14  -2  -5  848.32   24.10
   2  12   5  827.32   24.10
  12 -14   5  823.82   25.50
  15  -3  -5   90.09    6.30
  12 -15   5   90.59    7.30
   3  12   5  108.19    6.90
  16  -4  -5   52.49    4.70
   4  12   5   49.60    4.90
  12 -16   5   44.80    5.50
  17  -5  -5  146.19    7.90
   5  12   5  173.78    9.00
  12 -17   5  157.88    9.70
  12 -18   5   17.50    4.80
   6  12   5   14.50    4.10
   7  12   5   -6.40    3.90
  12 -19   5   -3.80    4.40
   8  12   5   67.09    7.00
  12 -20   5   56.69    7.60
   9  12   5   84.59    7.70
  12 -21   5   79.99    8.60
  10  12   5    0.10    5.10
  12 -22   5    6.50    5.90
 -12  23  -5    9.20    6.20
  11  12   5   13.00    6.00
 -12  24  -5   41.40    7.40
  12  12   5   36.50    7.60
 -12  25  -5   -1.50    6.70
  13  12   5    3.30    6.50
 -11  24  -5   34.60    7.40
  13  11   5   37.20    7.30
 -10  23  -5   30.70    6.70
  13  10   5   20.40    6.50
  -9  22  -5    0.20    5.80
  13   9   5   12.60    5.70
  -8  21  -5   -8.20    4.90
  13   8   5   10.40    5.50
  -7  20  -5   11.40    5.00
  13   7   5    9.30    5.10
  -6  19  -5   36.10    5.50
  13   6   5   29.40    5.20
  -5  18  -5   13.20    4.20
  13   5   5    8.10    4.00
  -4  17  -5  463.95   16.80
  13   4   5  486.35   17.00
  -3  16  -5  189.68    9.90
  13   3   5  169.58    9.50
  -2  15  -5  203.68    9.60
  13   2   5  196.38    9.90
  -1  14  -5  105.69    7.30
  13   1   5  108.59    7.50
   0  13  -5  339.17   12.50
  13   0   5  334.97   12.60
   1  12  -5  494.15   16.00
  13  -1   5  497.05   16.10
   2  11  -5   93.19    5.90
  13  -2   5   95.29    6.20
  10 -13  -5  132.39    5.60
   3  10  -5  133.99    6.70
  13  -3   5  125.59    6.90
   4   9  -5  245.38    9.30
  -9  13   5  238.48    7.80
  13  -4   5  231.58    9.40
  -9  13   5  232.08    9.60
   5   8  -5  100.49    5.80
  -8  13   5  104.39    6.20
  -8  13   5   97.79    4.60
  13  -5   5   95.69    6.30
   6   7  -5  435.36   14.10
  -7  13   5  430.46   14.40
  -7  13   5  459.65   13.00
  13  -6   5  441.26   14.70
   7   6  -5  444.46   14.00
  13  -7   5  434.76   14.40
  -6  13   5  432.76   12.80
  -6  13   5  427.36   14.30
   8   5  -5   30.00    3.40
  -5  13   5   23.50    3.40
  -5  13   5   31.50    2.90
  13  -8   5   21.20    3.50
   9   4  -5   38.70    3.70
  -4  13   5   45.40    3.80
  13  -9   5   47.40    4.80
  10   3  -5   35.20    3.60
  13 -10   5   33.10    4.20
  -3  13   5   36.40    3.30
  11   2  -5   50.49    4.20
  13 -11   5   47.80    4.90
  -2  13   5   54.09    4.50
  12   1  -5   60.79    5.00
  13 -12   5   41.20    4.90
  -1  13   5   45.20    3.90
  13   0  -5  355.66   12.30
  13 -13   5  333.17   13.50
   0  13   5  374.56   12.40
  14  -1  -5  638.04   19.60
  13 -14   5  663.03   21.40
   1  13   5  661.23   19.80
  15  -2  -5   95.69    6.70
   2  13   5  101.49    6.50
  13 -15   5  108.69    8.20
  16  -3  -5   18.70    3.60
   3  13   5   15.60    3.60
  13 -16   5   17.70    4.70
  17  -4  -5  110.39    7.40
   4  13   5  116.09    7.80
  13 -17   5  111.89    9.00
  18  -5  -5    7.30    3.90
  13 -18   5   17.80    4.80
   5  13   5   12.10    4.10
  13 -19   5  169.98   11.00
   6  13   5  143.39    9.30
  13 -20   5   60.99    7.80
   7  13   5   78.69    7.50
   8  13   5   27.90    5.70
  13 -21   5   32.10    6.70
   9  13   5   26.30    6.10
  13 -22   5   23.10    6.70
  10  13   5   -2.90    5.60
  13 -23   5    0.10    6.00
 -13  24  -5   12.90    6.60
  11  13   5   11.00    6.20
 -13  25  -5   -2.10    6.80
  12  13   5  -10.00    6.30
 -13  26  -5   -5.90    8.00
  13  13   5   13.40   11.00
 -12  26  -5   26.90    8.70
 -11  25  -5   10.20    6.80
  14  11   5   23.90    7.50
 -10  24  -5   11.20    6.50
  14  10   5   15.90    6.90
  -9  23  -5   20.40    6.70
  14   9   5   17.20    6.50
  -8  22  -5   53.79    7.30
  14   8   5   74.89    8.00
  -7  21  -5   39.70    6.70
  14   7   5   48.50    6.90
  -6  20  -5   31.20    5.60
  14   6   5   24.50    5.60
  -5  19  -5   70.59    6.80
  14   5   5   74.79    7.20
  -4  18  -5    3.10    4.00
  14   4   5   -1.20    3.60
  -3  17  -5   54.99    5.70
  14   3   5   67.89    6.10
  -2  16  -5   -3.00    3.60
  14   2   5    2.40    3.70
  -1  15  -5   32.60    4.40
  14   1   5   50.69    5.40
   0  14  -5   50.49    5.00
  14   0   5   55.99    5.40
   1  13  -5  647.84   19.90
  14  -1   5  615.54   20.00
   2  12  -5  791.82   23.80
  14  -2   5  812.22   24.30
   3  11  -5   14.00    3.30
  14  -3   5    0.20    3.30
   4  10  -5  485.35   15.70
  14  -4   5  464.55   16.10
 -10  14   5  499.05   14.30
   5   9  -5    6.70    2.80
  -9  14   5    2.50    2.20
  -9  14   5    0.20    3.10
  14  -5   5    1.70    3.00
   6   8  -5  174.68    7.90
  -8  14   5  160.38    8.00
  14  -6   5  158.18    8.30
  -8  14   5  168.58    6.70
   7   7  -5   29.30    3.40
  -7  14   5   23.50    3.60
  14  -7   5   24.90    3.80
  -7  14   5   21.60    2.60
   8   6  -5   14.90    3.00
  -6  14   5   11.80    2.50
  -6  14   5   14.50    3.20
  14  -8   5    9.10    3.20
   9   5  -5   33.30    3.70
  -5  14   5   31.20    3.30
  14  -9   5   26.50    4.30
  -5  14   5   28.50    3.80
  10   4  -5   37.90    3.90
  14 -10   5   26.60    4.40
  -4  14   5   31.50    3.30
  11   3  -5   11.70    2.90
  14 -11   5    1.30    3.40
  -3  14   5    8.70    2.60
  12   2  -5  295.77   10.90
  -2  14   5  292.77   10.50
  14 -12   5  282.57   12.40
  13   1  -5  111.19    6.90
  -1  14   5  113.19    6.90
  14 -13   5   95.99    8.40
  14   0  -5   69.69    5.90
  14 -14   5   53.89    5.90
   0  14   5   56.29    4.90
  15  -1  -5    0.70    2.90
  14 -15   5    1.30    4.00
   1  14   5    7.10    3.10
  16  -2  -5   61.49    5.30
  14 -16   5   57.29    6.40
   2  14   5   58.79    5.40
  17  -3  -5   30.30    4.40
   3  14   5   28.90    4.60
  14 -17   5   33.30    5.70
  18  -4  -5   12.90    3.90
  14 -18   5   17.40    5.10
   4  14   5   15.50    4.30
  14 -19   5  275.57   13.60
   5  14   5  299.97   13.00
  14 -20   5  390.56   17.10
   6  14   5  381.26   15.50
  14 -21   5   11.60    5.70
   7  14   5    6.30    4.90
   8  14   5   16.70    5.80
  14 -22   5   15.10    6.60
  14 -23   5    4.10    6.10
   9  14   5    1.50    5.40
  14 -24   5   -7.60    6.10
  10  14   5  -11.90    5.70
 -14  25  -5   15.90    7.70
  11  14   5   16.90    7.10
 -14  26  -5   -7.50    7.70
  12  14   5   15.00    9.20
 -10  25  -5   18.00    7.10
  15  10   5   15.60    7.10
  -9  24  -5   10.80    6.30
  15   9   5   16.60    6.60
  -8  23  -5    1.10    5.90
  15   8   5   11.60    6.30
  -7  22  -5    9.20    6.10
  15   7   5   23.00    6.30
  -6  21  -5   -5.80    4.90
  15   6   5   -1.70    4.90
  -5  20  -5   -3.00    4.40
  15   5   5    6.40    5.00
  -4  19  -5   27.60    5.40
  15   4   5   32.00    5.70
  -3  18  -5   25.70    5.10
  15   3   5   18.80    4.90
  -2  17  -5   22.30    4.60
  15   2   5   23.40    4.70
  -1  16  -5   30.70    4.80
  15   1   5   32.00    4.80
   0  15  -5   26.90    4.20
  15   0   5   26.20    4.50
   1  14  -5    2.50    3.10
  15  -1   5    5.80    3.30
   2  13  -5   94.39    6.60
  15  -2   5   92.79    7.00
   3  12  -5   93.19    7.00
  15  -3   5  100.79    7.20
   4  11  -5   79.59    6.30
  15  -4   5   94.39    6.90
   5  10  -5   24.10    3.70
 -10  15   5   22.10    4.30
  15  -5   5   27.80    4.50
 -10  15   5   24.70    3.60
   6   9  -5  657.03   19.70
  -9  15   5  636.84   20.30
  -9  15   5  631.04   18.30
  15  -6   5  624.94   20.30
   7   8  -5  978.00   27.80
  -8  15   5  965.20   28.30
  15  -7   5  962.70   28.50
  -8  15   5  974.90   26.60
   8   7  -5  295.67   11.20
  15  -8   5  280.17   11.70
  -7  15   5  306.87   11.70
  -7  15   5  279.17   10.10
   9   6  -5  152.18    7.70
  -6  15   5  137.59    6.90
  15  -9   5  137.89    9.00
  -6  15   5  152.18    8.00
  10   5  -5  262.97   10.20
  15 -10   5  247.58   11.50
  -5  15   5  260.67    9.60
  11   4  -5    9.00    3.10
  -4  15   5    2.20    2.70
  15 -11   5   -4.50    3.40
  12   3  -5   15.50    3.50
  15 -12   5   13.90    4.50
  -3  15   5   15.50    3.40
  13   2  -5  223.08    9.60
  15 -13   5  194.68   10.60
  -2  15   5  210.98    9.30
  14   1  -5   44.70    4.70
  15 -14   5   37.90    5.70
  -1  15   5   61.29    5.10
  15   0  -5   22.60    3.90
  15 -15   5    8.40    4.80
   0  15   5   25.00    4.00
  16  -1  -5   57.39    5.30
  15 -16   5   58.79    6.80
   1  15   5   55.29    5.30
  17  -2  -5   48.40    5.20
   2  15   5   41.70    4.90
  15 -17   5   32.60    5.70
  18  -3  -5   13.80    3.90
  15 -18   5    7.90    5.20
   3  15   5   12.20    4.20
  15 -19   5   62.79    7.90
   4  15   5   64.29    6.60
  15 -20   5  136.19   11.70
   5  15   5  173.08   10.70
  15 -21   5   -6.00    5.30
   6  15   5    1.80    4.70
   7  15   5   68.29    7.60
  15 -22   5   60.29    8.00
  15 -23   5    3.90    6.40
   8  15   5   -1.90    5.50
  15 -24   5    2.60    6.50
   9  15   5    8.60    6.40
  10  15   5   83.49    9.60
  15 -25   5   93.99   10.20
  -9  25  -5   16.40    7.30
  16   9   5   11.00    7.30
  -8  24  -5    7.40    6.40
  16   8   5    5.60    6.60
  -7  23  -5   45.20    7.60
  16   7   5   68.99    8.40
  -6  22  -5  184.18   12.60
  16   6   5  186.98   12.10
  -5  21  -5   40.60    6.80
  16   5   5   29.80    6.40
  -4  20  -5    9.60    4.80
  16   4   5    8.50    5.10
  -3  19  -5   11.10    4.60
  16   3   5   11.70    4.90
  -2  18  -5   36.40    5.60
  16   2   5   29.40    5.40
  -1  17  -5   66.69    6.40
  16   1   5   60.99    6.50
   0  16  -5   21.70    4.20
  16   0   5   22.80    4.70
   1  15  -5   52.69    5.40
  16  -1   5   57.29    5.80
   2  14  -5   53.29    5.20
  16  -2   5   58.89    5.80
   3  13  -5   12.20    3.70
  16  -3   5   22.90    4.30
   4  12  -5   44.70    4.80
  16  -4   5   48.60    5.20
   5  11  -5   24.30    4.00
  16  -5   5   20.80    4.10
 -11  16   5   26.50    4.60
   6  10  -5   62.59    5.50
 -10  16   5   78.89    6.80
  16  -6   5   55.49    5.50
   7   9  -5  222.18   10.00
  -9  16   5  219.68    8.60
  16  -7   5  228.48   10.70
  -9  16   5  237.28   10.40
   8   8  -5  164.58    8.40
  16  -8   5  163.68    9.30
  -8  16   5  176.98    7.60
  -8  16   5  175.38    9.10
   9   7  -5   29.40    4.10
  -7  16   5   30.60    4.60
  -7  16   5   28.70    3.50
  16  -9   5   24.90    4.70
  10   6  -5  336.97   12.70
  -6  16   5  330.87   11.70
  -6  16   5  350.16   13.50
  16 -10   5  368.66   14.30
  11   5  -5    5.70    3.40
  -5  16   5    7.20    2.90
  16 -11   5    8.90    4.20
  12   4  -5  531.95   17.10
  16 -12   5  495.05   18.20
  -4  16   5  515.95   16.30
  13   3  -5  184.58    9.20
  16 -13   5  184.88   11.10
  -3  16   5  153.58    8.50
  14   2  -5    8.40    3.70
  16 -14   5   -8.10    4.20
  -2  16   5    2.00    3.20
  15   1  -5   47.70    5.10
  -1  16   5   40.90    4.80
  16 -15   5   30.70    5.80
  16   0  -5   25.10    4.40
   0  16   5   22.50    4.20
  16 -16   5   23.00    5.30
  17  -1  -5   -0.60    3.60
  16 -17   5    2.80    4.70
   1  16   5    2.10    3.60
  18  -2  -5   38.70    5.30
   2  16   5   45.80    5.70
  16 -18   5   46.70    6.90
  19  -3  -5  101.89    8.80
  16 -19   5   74.49    8.50
   3  16   5   73.79    7.10
   4  16   5    4.60    4.70
  16 -20   5  -14.70    5.50
   5  16   5    0.70    4.70
  16 -21   5    9.70    5.90
   6  16   5  110.39    9.60
  16 -22   5   86.59    9.20
  16 -23   5   10.50    6.70
   7  16   5    9.30    5.80
   8  16   5   12.30    6.40
  16 -24   5    0.90    7.00
  16 -25   5   98.79   10.80
   9  16   5   88.99    9.50
  -8  25  -5    8.30    7.10
  17   8   5   21.30    7.70
  -7  24  -5    9.80    6.40
  17   7   5    4.80    6.30
  -6  23  -5  224.28   13.60
  17   6   5  209.38   13.70
  -5  22  -5  196.58   13.00
  17   5   5  190.78   12.40
  -4  21  -5   17.00    5.90
  17   4   5   11.80    6.10
  -3  20  -5   35.50    6.20
  17   3   5   44.50    7.10
  -2  19  -5    6.80    4.80
  17   2   5    8.50    5.10
  -1  18  -5   55.19    6.30
  17   1   5   46.30    6.60
   0  17  -5   23.90    4.90
  17   0   5   20.90    5.10
   1  16  -5    3.80    3.80
  17  -1   5    2.80    3.90
   2  15  -5   44.60    5.40
  17  -2   5   40.30    5.40
   3  14  -5   32.00    4.80
  17  -3   5   38.00    5.20
   4  13  -5  105.59    7.50
  17  -4   5   94.89    7.70
   5  12  -5  161.88    8.80
  17  -5   5  168.98    9.70
   6  11  -5   25.00    4.10
 -11  17   5   24.40    4.60
  17  -6   5   23.70    4.60
   7  10  -5   26.80    4.30
 -10  17   5   31.20    5.00
  17  -7   5   25.90    4.70
   8   9  -5   10.90    3.60
  -9  17   5   15.20    4.20
  17  -8   5   12.20    4.00
   9   8  -5    4.80    3.20
  -8  17   5    2.70    3.70
  17  -9   5    4.10    3.70
  -8  17   5    3.10    2.80
  10   7  -5   53.09    5.10
  -7  17   5   53.29    5.60
  -7  17   5   42.70    4.30
  17 -10   5   48.30    6.00
  11   6  -5   12.50    3.90
  17 -11   5    8.80    4.70
  -6  17   5   14.30    3.40
  -6  17   5    7.40    3.80
  12   5  -5  491.55   17.00
  17 -12   5  515.95   18.50
  -5  17   5  483.55   15.90
  13   4  -5  494.65   17.30
  -4  17   5  503.15   16.60
  17 -13   5  535.65   19.20
  14   3  -5   68.29    6.00
  -3  17   5   78.89    6.60
  17 -14   5   75.89    7.40
  15   2  -5   21.20    4.20
  17 -15   5   22.10    5.30
  -2  17   5   27.50    4.30
  16   1  -5   63.49    5.80
  -1  17   5   57.59    5.60
  17 -16   5   64.49    7.00
  17   0  -5   22.10    4.70
   0  17   5   28.50    4.70
  17 -17   5   21.80    5.80
  18  -1  -5   65.49    6.30
  17 -18   5   67.19    7.90
   1  17   5   76.89    7.00
  19  -2  -5   32.10    5.50
  17 -19   5   27.60    7.10
   2  17   5   20.30    5.50
  17 -20   5   32.70    7.50
   3  17   5   51.19    6.60
  17 -21   5   -1.20    6.10
   4  17   5    6.20    5.40
  17 -22   5   14.30    6.90
   5  17   5   14.70    6.00
   6  17   5    6.70    6.00
  17 -23   5    7.90    6.80
  17 -24   5    0.70    6.70
   7  17   5    1.00    6.50
   8  17   5    9.00    7.00
  17 -25   5    7.80    8.30
  -7  25  -5   57.49    9.30
  18   7   5   42.60   10.70
  -6  24  -5   10.00    6.70
  18   6   5    4.60    6.90
  -5  23  -5   57.89    7.80
  18   5   5   53.29    8.30
  -4  22  -5   15.40    6.20
  18   4   5   14.40    6.60
  -3  21  -5   53.29    7.40
  18   3   5   44.80    7.70
  -2  20  -5    7.40    4.90
  18   2   5   -0.50    5.60
  -1  19  -5  214.78   12.30
  18   1   5  202.48   12.50
   0  18  -5  392.16   16.20
  18   0   5  427.76   17.00
   1  17  -5   65.89    6.90
  18  -1   5  117.79   10.20
   2  16  -5   33.00    5.40
  18  -2   5   39.20    6.30
   3  15  -5   12.50    4.40
  18  -3   5   15.00    4.80
   4  14  -5   12.30    4.30
  18  -4   5    7.40    4.30
   5  13  -5   13.50    4.10
  18  -5   5   10.30    4.20
   6  12  -5   16.10    4.20
 -12  18   5   21.30    5.00
  18  -6   5   14.90    4.40
   7  11  -5   25.80    4.60
 -11  18   5   30.40    5.20
  18  -7   5   26.30    5.10
   8  10  -5   54.39    5.70
  18  -8   5   51.99    6.00
 -10  18   5   64.39    6.60
   9   9  -5   16.80    4.10
  -9  18   5   20.70    4.90
  18  -9   5   14.90    4.50
  10   8  -5   45.20    5.40
  -8  18   5   42.90    5.60
  18 -10   5   42.40    5.90
  11   7  -5   35.90    4.90
  -7  18   5   31.90    5.30
  18 -11   5   48.50    6.30
  -7  18   5   39.50    4.40
  12   6  -5   13.80    4.00
  -6  18   5   18.50    3.90
  18 -12   5   17.30    5.10
  13   5  -5   11.70    4.00
  -5  18   5    8.90    3.70
  18 -13   5   19.20    5.30
  14   4  -5    6.60    3.80
  18 -14   5    6.20    4.90
  -4  18   5    3.40    3.50
  15   3  -5   32.00    5.10
  18 -15   5   30.80    5.90
  -3  18   5   27.30    4.60
  16   2  -5   39.30    5.50
  -2  18   5   39.00    5.20
  18 -16   5   33.10    6.40
  17   1  -5   40.60    5.80
  18 -17   5   47.90    7.10
  -1  18   5   49.00    5.80
  18   0  -5  440.96   17.00
   0  18   5  433.26   16.50
  18 -18   5  451.75   18.60
  19  -1  -5  164.68   10.70
   1  18   5  184.38   11.10
  18 -19   5  175.18   12.90
  20  -2  -5   -2.30    4.90
  18 -20   5  -11.50    5.60
   2  18   5    5.00    5.00
  18 -21   5   -1.10    6.10
   3  18   5    7.50    5.60
   4  18   5    1.20    5.60
  18 -22   5   -7.70    6.00
  18 -23   5    7.50    6.90
   5  18   5    8.50    6.30
  18 -24   5    1.90    7.20
   6  18   5    6.60    7.10
   7  18   5   53.69    8.60
  18 -25   5   36.70    9.10
  -5  24  -5   24.00    7.10
  19   5   5   15.80    7.60
  -4  23  -5    0.70    5.80
  19   4   5    0.40    6.30
  -3  22  -5   -6.50    5.50
  19   3   5    3.50    6.30
  -2  21  -5    7.90    6.20
  19   2   5   23.90    7.00
  -1  20  -5   -0.70    5.20
  19   1   5    0.00    5.60
   0  19  -5  125.29    9.90
  19   0   5  119.09   10.10
   1  18  -5  170.78   10.90
  19  -1   5  152.78   11.20
   2  17  -5   31.30    6.00
  19  -2   5   16.20    6.10
   3  16  -5  109.89    9.40
  19  -3   5   69.49    7.80
   4  15  -5   47.20    6.00
  19  -4   5   61.59    7.10
   5  14  -5  326.67   14.10
  19  -5   5  303.77   13.90
   6  13  -5  140.79    9.20
  19  -6   5  145.89   10.70
   7  12  -5   11.00    4.10
 -12  19   5    6.00    4.70
  19  -7   5   -1.60    4.70
   8  11  -5   61.29    6.10
  19  -8   5   55.49    6.70
 -11  19   5   68.79    7.10
   9  10  -5    4.60    3.90
  19  -9   5    7.80    4.70
 -10  19   5   13.40    4.60
  10   9  -5   12.10    4.30
  -9  19   5   12.40    4.70
  19 -10   5   -0.60    4.70
  11   8  -5  115.69    8.80
  -8  19   5  119.39    9.20
  19 -11   5   98.79    8.60
  12   7  -5   75.19    6.70
  -7  19   5   63.29    7.20
  19 -12   5   59.39    7.40
  -7  19   5   50.09    7.80
  13   6  -5   35.80    5.50
  19 -13   5   33.00    6.70
  -6  19   5   34.50    4.80
  14   5  -5   77.99    6.90
  -5  19   5   76.79    6.30
  19 -14   5   65.79    7.90
  15   4  -5   37.60    5.50
  19 -15   5   32.80    6.60
  -4  19   5   32.00    4.90
  16   3  -5   19.10    4.90
  -3  19   5   19.30    4.60
  19 -16   5   11.30    5.80
  17   2  -5   11.30    4.80
  -2  19   5    7.70    4.40
  19 -17   5    9.60    5.90
  18   1  -5  216.88   11.70
  19 -18   5  200.98   13.30
  -1  19   5  214.68   11.60
  19   0  -5  111.99    9.50
   0  19   5   97.39    8.30
  19 -19   5   91.09    9.40
  20  -1  -5    5.70    5.00
   1  19   5    0.40    5.20
  19 -20   5    1.40    6.40
  19 -21   5    6.40    6.80
   2  19   5   14.40    6.00
   3  19   5   -1.60    5.60
  19 -22   5  -11.50    6.20
  19 -23   5   25.20    7.90
   4  19   5   40.60    7.70
   5  19   5  101.39   10.00
  19 -24   5   92.89   10.80
  -4  24  -5   34.10    7.80
  20   4   5   21.00    8.20
  -3  23  -5   15.50    6.90
  20   3   5   10.10    7.00
  -2  22  -5    2.50    5.90
  20   2   5    2.30    6.10
  -1  21  -5   44.50    7.50
  20   1   5   40.40    7.60
   0  20  -5   81.89    8.50
  20   0   5   84.99    9.00
   1  19  -5   10.10    5.20
  20  -1   5    4.70    6.00
   2  18  -5   -1.00    5.10
  20  -2   5    3.70    5.50
   3  17  -5   48.60    6.60
  20  -3   5   45.00    7.10
   4  16  -5    0.70    5.00
  20  -4   5    3.30    5.10
   5  15  -5  186.28   11.20
  20  -5   5  162.48   11.60
   6  14  -5  358.16   15.40
  20  -6   5  369.26   16.30
   7  13  -5  104.79    9.00
 -13  20   5  111.39   10.10
  20  -7   5   81.09    8.50
   8  12  -5   52.99    6.30
 -12  20   5   60.99    7.50
  20  -8   5   69.09    7.80
   9  11  -5   31.40    5.30
  20  -9   5   22.30    6.20
 -11  20   5   18.10    5.80
  10  10  -5  169.28   10.40
 -10  20   5  140.89   10.20
  20 -10   5  132.99   11.30
  11   9  -5  127.59    9.00
  20 -11   5   83.99    8.70
  -9  20   5  105.59    9.30
  12   8  -5   11.40    4.70
  -8  20   5    8.90    5.10
  20 -12   5  -10.80    5.70
  13   7  -5    6.60    4.70
  20 -13   5   -0.10    6.00
  -7  20   5   12.50    5.50
  14   6  -5   31.30    5.60
  20 -14   5    9.80    6.30
  15   5  -5    0.00    4.30
  -5  20   5    4.20    4.30
  20 -15   5   -4.60    5.60
  16   4  -5    1.50    4.60
  -4  20   5   10.70    4.70
  20 -16   5   -2.70    5.60
  17   3  -5   39.20    6.10
  -3  20   5   39.10    5.80
  20 -17   5   36.20    7.40
  18   2  -5    9.90    5.10
  -2  20   5    2.70    4.90
  20 -18   5   -4.50    6.10
  19   1  -5    1.20    5.00
  20 -19   5  -13.40    6.00
  -1  20   5    7.60    5.10
  20   0  -5   73.39    7.80
  20 -20   5   61.19    8.90
   0  20   5   80.99    8.10
   1  20   5   52.89    7.50
  20 -21   5   32.70    8.10
  20 -22   5   -4.70    6.50
   2  20   5    4.10    6.20
  20 -23   5   22.60    8.30
   3  20   5   43.20    8.10
  20 -24   5  186.68   15.50
   4  20   5  196.98   14.40
  -2  23  -5    6.00    7.10
  21   2   5   10.60    7.10
  -1  22  -5   11.30    6.80
  21   1   5    7.10    6.70
   0  21  -5   17.20    6.80
  21   0   5   15.40    7.10
   1  20  -5   30.50    6.70
  21  -1   5   32.50    7.40
   2  19  -5    1.50    5.60
  21  -2   5    8.20    6.00
   3  18  -5    8.80    5.60
  21  -3   5    5.30    5.80
   4  17  -5    1.40    5.40
  21  -4   5    3.50    5.80
   5  16  -5    0.30    5.10
  21  -5   5   12.00    5.70
   6  15  -5   -0.80    4.80
  21  -6   5   -0.90    5.10
   7  14  -5    7.20    4.90
  21  -7   5    5.90    5.50
   8  13  -5   40.10    6.10
  21  -8   5   37.80    6.50
 -13  21   5   29.70    6.70
   9  12  -5   81.49    7.80
 -12  21   5   81.19    8.80
  21  -9   5  131.79   10.80
  10  11  -5  124.29   10.50
  21 -10   5  133.19   10.90
 -11  21   5  120.89   10.50
  11  10  -5  423.36   16.90
 -10  21   5  430.16   17.60
  21 -11   5  430.86   18.60
  12   9  -5  223.18   12.60
  21 -12   5  194.48   13.20
  -9  21   5  209.18   13.00
  13   8  -5    2.50    5.10
  21 -13   5    1.70    6.60
  -8  21   5    1.90    5.40
  14   7  -5   46.50    6.50
  -7  21   5   37.10    6.80
  21 -14   5   35.80    8.00
  15   6  -5    4.60    4.80
  21 -15   5   -5.20    6.00
  16   5  -5   43.90    6.30
  21 -16   5   25.40    7.00
  17   4  -5   12.10    5.60
  21 -17   5   21.70    7.00
  -4  21   5   18.90    5.60
  18   3  -5   52.89    7.10
  -3  21   5   48.80    6.80
  21 -18   5   24.50    7.50
  19   2  -5   24.60    6.10
  -2  21   5   21.50    6.40
  21 -19   5   18.90    7.20
  20   1  -5   50.69    7.30
  -1  21   5   46.30    7.10
  21 -20   5   33.50    8.50
  21   0  -5   30.10    8.10
  21 -21   5   29.40    7.80
   0  21   5   19.40    6.60
  21 -22   5   -3.00    6.90
   1  21   5    0.20    6.30
  21 -23   5   -7.60    7.80
   2  21   5    2.20    6.90
  22   1   5   84.79   12.60
   0  22  -5   -5.40    6.60
  22   0   5   10.00    7.30
   1  21  -5   10.90    6.60
  22  -1   5    2.40    6.50
   2  20  -5  -14.60    5.60
  22  -2   5   -0.70    6.40
   3  19  -5   -0.40    5.60
  22  -3   5   12.70    6.30
   4  18  -5    1.30    5.20
  22  -4   5   -6.20    5.70
   5  17  -5   16.90    6.00
  22  -5   5   19.90    6.60
   6  16  -5   87.99    8.30
  22  -6   5   95.49    9.20
   7  15  -5   57.69    7.30
  22  -7   5   59.79    8.20
   8  14  -5   21.30    5.90
 -14  22   5   35.30    7.20
  22  -8   5   29.80    7.00
   9  13  -5   20.40    5.70
  22  -9   5   27.40    6.60
 -13  22   5   32.80    6.90
  10  12  -5    4.40    4.90
 -12  22   5   10.40    6.00
  22 -10   5   -5.00    5.60
  11  11  -5   53.59    7.10
 -11  22   5   65.79    8.30
  22 -11   5   54.99    7.90
  12  10  -5   61.19    7.60
 -10  22   5   82.69    8.90
  22 -12   5   67.59    8.80
  13   9  -5    3.70    5.20
  -9  22   5    5.10    6.20
  22 -13   5    1.30    6.50
  14   8  -5   62.19    7.30
  22 -14   5   49.99    8.30
  -8  22   5   67.79    8.30
  15   7  -5   18.80    5.80
  -7  22   5   29.80    7.00
  22 -15   5   28.70    7.60
  16   6  -5  172.58   11.80
  -6  22   5  163.78   11.90
  22 -16   5  167.48   13.60
  17   5  -5  187.68   12.50
  22 -17   5  213.78   14.70
  18   4  -5   14.80    5.80
  22 -18   5   17.90    7.20
  19   3  -5   -1.00    5.50
  22 -19   5   -3.00    6.50
  -3  22   5   -2.80    5.80
  20   2  -5    4.40    5.70
  22 -20   5    2.60    6.90
  -2  22   5    4.30    6.00
  21   1  -5   11.70    6.50
  22 -21   5   -3.00    7.10
  -1  22   5   -1.60    6.30
   0  22   5   14.20    7.20
  22 -22   5   -8.00    7.40
   1  22   5   23.70    8.20
  22 -23   5   34.20    9.30
  23  -1   5   14.80    9.20
   2  21  -5   14.30    7.10
  23  -2   5    5.70    7.40
   3  20  -5   32.30    7.90
  23  -3   5   31.50    8.00
   4  19  -5   29.30    7.30
  23  -4   5   44.70    8.00
   5  18  -5   20.50    6.40
  23  -5   5   15.60    6.70
   6  17  -5   10.00    5.90
  23  -6   5    1.10    6.10
   7  16  -5   13.60    5.90
  23  -7   5   10.60    6.60
   8  15  -5   -5.90    5.10
  23  -8   5    3.90    6.30
   9  14  -5    2.40    5.50
 -14  23   5    8.40    6.60
  23  -9   5   14.80    6.40
  10  13  -5    2.80    5.40
  23 -10   5    6.80    6.40
 -13  23   5    5.50    6.50
  11  12  -5   11.40    6.00
 -12  23   5   16.30    7.20
  23 -11   5   17.00    7.00
  12  11  -5   41.60    7.00
 -11  23   5   36.40    7.70
  23 -12   5   42.00    8.00
  13  10  -5   30.20    6.90
  23 -13   5   28.20    7.90
 -10  23   5   32.10    7.30
  14   9  -5   33.80    6.90
  -9  23   5   30.80    7.20
  23 -14   5   28.10    7.60
  15   8  -5    6.10    5.60
  23 -15   5    1.70    6.80
  -8  23   5   16.30    6.60
  16   7  -5   49.60    7.40
  23 -16   5   45.40    8.60
  -7  23   5   59.19    8.70
  17   6  -5  199.78   12.90
  -6  23   5  176.98   13.20
  23 -17   5  230.88   15.70
  18   5  -5   43.40    7.20
  -5  23   5   44.00    8.60
  23 -18   5   59.49    9.10
  19   4  -5    3.90    6.00
  23 -19   5   -5.00    6.90
  20   3  -5   12.20    6.40
  23 -20   5    5.40    7.50
  21   2  -5   12.50    6.80
  23 -21   5   -0.50    7.80
  23 -22   5   65.79   10.30
  -1  23   5   73.49    9.90
   4  20  -5  208.98   15.60
  24  -4   5  219.68   15.40
   5  19  -5  146.59   12.70
  24  -5   5   98.59   10.80
   6  18  -5    3.00    6.60
  24  -6   5    7.30    7.30
   7  17  -5   14.50    6.50
  24  -7   5    9.40    7.20
   8  16  -5    7.90    6.00
  24  -8   5    4.00    6.70
   9  15  -5    7.80    6.20
  24  -9   5   24.00    7.20
  10  14  -5    0.30    5.80
  24 -10   5    2.00    6.70
 -14  24   5   -0.30    6.90
  11  13  -5    9.40    6.40
 -13  24   5   15.40    7.20
  24 -11   5   16.80    7.60
  12  12  -5   43.40    7.60
 -12  24   5   52.19    8.70
  24 -12   5   39.50    8.60
  13  11  -5   32.20    7.20
 -11  24   5   37.80    8.20
  24 -13   5   42.60    8.80
  14  10  -5   -0.70    5.80
  24 -14   5    4.30    7.40
 -10  24   5   12.30    6.90
  15   9  -5    1.00    5.80
  24 -15   5    3.90    7.20
  -9  24   5    9.50    7.00
  16   8  -5    7.40    5.50
  24 -16   5    0.10    7.00
  -8  24   5   -2.90    6.50
  17   7  -5    6.30    6.10
  24 -17   5    4.80    7.00
  -7  24   5   10.10    7.20
  18   6  -5   -3.30    5.70
  -6  24   5    1.20    6.80
  24 -18   5    0.00    7.20
  19   5  -5   23.50    7.10
  24 -19   5    7.00    8.00
  -5  24   5   22.70    8.20
  20   4  -5   32.90    7.70
  24 -20   5   22.60    8.60
  -4  24   5   22.80    8.60
   7  18  -5   55.49    9.30
  25  -7   5   49.90    9.70
   8  17  -5   18.30    7.30
  25  -8   5   21.00    8.40
   9  16  -5   92.39    9.70
  25  -9   5   81.59   10.30
  10  15  -5   97.39    9.90
  25 -10   5   89.09   10.50
  11  14  -5   24.10    7.30
 -14  25   5   17.10    7.90
  25 -11   5    8.40    8.20
  12  13  -5    3.00    6.60
 -13  25   5   -0.70    7.00
  25 -12   5  -16.30    7.30
  13  12  -5   -2.60    6.30
 -12  25   5   10.30    7.60
  25 -13   5   -3.10    8.00
  14  11  -5    8.70    6.60
 -11  25   5    9.60    7.40
  25 -14   5    7.80    8.20
  15  10  -5    1.70    6.20
 -10  25   5   13.10    7.50
  25 -15   5   -4.70    7.40
  16   9  -5   10.30    6.50
  25 -16   5   22.20    8.60
  -9  25   5   25.00    7.90
  17   8  -5   12.40    6.90
  25 -17   5    8.50    7.80
  -8  25   5   18.10    8.00
  18   7  -5   58.49    8.70
  25 -18   5   35.60    9.20
  -7  25   5   52.09    9.80
  12  14  -5    6.70    9.30
 -14  26   5   14.90    8.80
  26 -12   5   -1.30    8.40
  13  13  -5    9.80    7.50
 -13  26   5   18.60    8.80
  26 -13   5   17.50    9.00
  14  12  -5   41.80    8.70
  26 -14   5   36.70    9.90
 -12  26   5   27.60    9.60
   0   0   6  190.08    5.90
  -1   1   6  531.45   13.70
   0  -1   6  516.45   14.00
   1   0   6  502.95   14.00
  -1   0   6  513.15   13.60
   1  -1   6  519.55   14.10
   0   1   6  505.45   13.70
  -2   1   6  272.87    7.60
   1   1   6  288.57    8.10
   1  -2   6  281.17    8.40
   3  -2  -6  150.28    4.10
   1  -3   6  150.48    5.30
   2   1   6  142.99    5.00
   2   0   6    3.50    1.10
   0  -2   6    2.90    1.10
  -2   2   6    3.40    0.70
  -1  -1   6  293.77    8.20
   2  -1   6  287.87    8.50
  -1   2   6  271.47    7.70
   0   2   6    2.40    0.90
  -2   0   6    4.40    0.90
   2  -2   6    3.40    1.20
   3  -1  -6 2181.08   54.39
   2  -3   6 2170.48   55.49
   1   2   6 2145.09   54.89
   4  -2  -6   13.30    1.00
   2  -4   6    8.40    1.70
   2   2   6   10.80    1.40
   3   2   6 1162.98   30.00
   2  -5   6 1126.39   30.40
   3   1   6 1126.39   28.70
   1  -4   6 1064.79   28.90
   0  -3   6 1175.48   31.40
   3   0   6 1230.18   31.40
   3  -1   6 2243.38   55.79
  -1  -2   6 2207.28   55.59
  -2   3   6 2108.69   54.79
  -2  -1   6  150.18    4.80
   3  -2   6  148.49    5.40
  -1   3   6  138.49    4.30
   3   0  -6 1190.28   30.60
   0   3   6 1225.18   30.80
   3  -3   6 1183.68   31.70
   4  -1  -6 1535.35   38.30
   3  -4   6 1479.85   39.50
   1   3   6 1516.15   38.70
   5  -2  -6  122.69    3.70
   2   3   6  121.49    4.40
   3  -5   6  117.39    5.10
   6  -3  -6  150.78    4.30
   3   3   6  144.39    5.30
   3  -6   6  146.29    5.80
   7  -4  -6   61.79    2.30
   3  -7   6   58.29    4.00
   4   3   6   62.09    3.40
   2  -6   6  199.68    7.10
   4   2   6  197.88    6.70
   4   1   6 1059.49   28.10
   1  -5   6 1066.39   28.40
   4   0   6   74.09    3.50
   0  -4   6   75.29    3.60
   4  -1   6 1544.95   39.80
  -1  -3   6 1522.15   39.60
   2   2  -6   14.60    1.40
   4  -2   6   14.50    1.80
  -2   4   6   13.40    1.00
   3   1  -6 1109.59   28.10
   4  -3   6 1070.09   29.00
  -1   4   6 1079.39   27.80
   4   0  -6   76.09    2.80
   0   4   6   69.69    2.90
   4  -4   6   63.09    3.90
   5  -1  -6   69.89    2.70
   4  -5   6   69.99    3.80
   1   4   6   61.09    3.00
   6  -2  -6  109.89    3.60
   2   4   6  109.59    4.30
   4  -6   6  102.69    5.00
   7  -3  -6  195.98    5.80
   3   4   6  199.98    6.70
   4  -7   6  195.48    7.50
   8  -4  -6   10.50    1.30
   4   4   6    6.30    1.70
   4  -8   6    8.30    2.10
   9  -5  -6  573.14   15.30
   5   4   6  601.14   16.70
   4  -9   6  549.25   17.00
   8  -5  -6   31.90    1.80
   3  -8   6   21.00    2.60
   5   3   6   24.40    2.50
   2  -7   6   92.79    4.70
   5   2   6   90.69    4.30
   5   1   6  105.69    4.60
   1  -6   6  106.59    4.70
   5   0   6  333.67   10.20
   0  -5   6  334.57   10.20
   5  -1   6   64.89    3.50
  -1  -4   6   67.09    3.50
   2   3  -6  127.09    4.50
   5  -2   6  117.49    4.90
  -3   5   6  119.09    3.50
   3   2  -6 1113.59   29.50
   5  -3   6 1145.99   30.30
  -2   5   6 1146.89   28.90
   4   1  -6 1029.20   27.70
  -1   5   6 1103.89   27.60
   5  -4   6 1076.09   28.90
   5   0  -6  331.07    9.30
   5  -5   6  326.07   10.60
   0   5   6  326.27    9.30
   6  -1  -6  194.98    5.80
   5  -6   6  185.08    7.10
   1   5   6  189.18    6.20
   7  -2  -6 1565.44   40.20
   2   5   6 1563.64   40.80
   5  -7   6 1600.84   41.80
   8  -3  -6  101.39    3.80
   5  -8   6  113.39    5.40
   3   5   6   95.49    4.50
   3   5   6   98.19    4.90
   9  -4  -6   42.30    2.50
   4   5   6   31.90    3.00
   4   5   6   39.30    3.50
   5  -9   6   39.00    3.60
  10  -5  -6  135.79    5.00
   5   5   6  148.29    6.10
   5 -10   6  141.09    6.60
   5   5   6  150.48    6.10
  11  -6  -6   27.20    2.20
   5 -11   6   26.00    3.30
   6   5   6   30.20    3.20
   6   5   6   20.60    2.70
  10  -6  -6  336.07    9.40
   4 -10   6  327.87   11.30
   6   4   6  330.57   10.80
   6   4   6  319.47   10.60
   9  -6  -6  194.88    5.80
   3  -9   6  207.28    7.80
   6   3   6  181.18    7.30
   8  -6  -6   10.60    1.20
   2  -8   6   12.60    2.20
   6   2   6    6.40    1.90
   1  -7   6   31.60    3.00
   6   1   6   28.60    2.60
   0  -6   6   98.89    4.60
   6   0   6   96.69    4.60
   1   5  -6  174.08    6.30
   6  -1   6  188.78    6.60
   2   4  -6  117.09    4.50
  -4   6   6  106.99    3.30
   6  -2   6  116.29    4.90
   3   3  -6  137.09    5.20
   6  -3   6  148.89    5.80
  -3   6   6  156.78    4.40
   4   2  -6  190.48    6.30
   6  -4   6  202.78    7.30
  -2   6   6  200.68    5.90
   5   1  -6  106.19    4.00
   6  -5   6  103.69    5.00
  -1   6   6  108.49    3.90
   6   0  -6   96.59    3.80
   6  -6   6   91.69    5.00
   0   6   6   97.99    3.80
   7  -1  -6  192.28    6.10
   1   6   6  188.68    7.20
   6  -7   6  194.88    7.50
   1   6   6  199.58    6.50
   8  -2  -6   51.89    2.70
   2   6   6   37.90    3.50
   2   6   6   45.00    3.20
   6  -8   6   39.60    3.50
   9  -3  -6  675.03   17.90
   3   6   6  647.54   19.10
   6  -9   6  675.63   19.60
   3   6   6  660.33   18.60
  10  -4  -6  344.17   10.10
   6 -10   6  364.46   12.00
   4   6   6  344.07   11.30
   4   6   6  331.77   10.80
  11  -5  -6   14.90    2.00
   6 -11   6   16.60    2.70
   5   6   6   15.30    2.60
   5   6   6   12.00    2.20
  12  -6  -6   73.49    4.00
   6   6   6   78.89    4.90
   6 -12   6   81.99    5.50
   6   6   6   78.59    5.00
  13  -7  -6  201.78    7.20
   7   6   6  195.58    8.00
   7   6   6  198.48    8.30
   6 -13   6  210.18    8.90
  12  -7  -6    9.10    1.80
   5 -12   6    9.00    2.60
   7   5   6   10.80    2.60
   7   5   6    5.40    2.30
  11  -7  -6   88.79    3.70
   7   4   6   79.49    4.70
   4 -11   6   83.39    5.30
   7   4   6   86.99    5.00
  10  -7  -6  169.48    5.60
   3 -10   6  159.28    7.20
   7   3   6  171.48    7.00
   9  -7  -6   63.89    2.80
   7   2   6   44.60    4.00
   2  -9   6   61.09    4.30
   8  -7  -6  445.96   11.80
   1  -8   6  445.16   13.80
   7   1   6  457.45   13.70
   0   7  -6   29.80    2.70
   7   0   6   34.80    3.10
   1   6  -6  188.18    6.60
   7  -1   6  180.08    6.90
   2   5  -6 1496.35   39.90
   7  -2   6 1576.04   40.40
  -5   7   6 1517.15   38.50
   3   4  -6  205.38    6.80
  -4   7   6  192.98    5.70
   7  -3   6  207.98    7.50
   4   3  -6   63.49    3.30
   7  -4   6   66.49    4.00
  -3   7   6   61.29    2.60
   5   2  -6   94.29    4.00
  -2   7   6   87.59    3.50
   7  -5   6   98.79    5.00
   6   1  -6   27.90    2.40
   7  -6   6   33.30    3.30
  -1   7   6   29.50    2.30
   7   0  -6   31.70    2.50
   0   7   6   25.50    2.90
   7  -7   6   25.40    2.90
   0   7   6   30.70    2.50
   8  -1  -6  118.19    4.50
   1   7   6  109.09    4.70
   1   7   6  116.39    5.50
   7  -8   6  113.39    5.80
   9  -2  -6  766.72   20.80
   7  -9   6  788.62   22.50
   2   7   6  765.02   21.30
   2   7   6  786.82   22.10
  10  -3  -6  321.27    9.90
   7 -10   6  358.96   11.80
   3   7   6  333.67   11.10
   3   7   6  312.47   10.40
  11  -4  -6   15.40    2.00
   7 -11   6   13.70    2.90
   4   7   6   15.20    2.70
   4   7   6   12.90    2.40
  12  -5  -6   43.00    3.30
   5   7   6   45.40    4.30
   7 -12   6   42.00    4.10
   5   7   6   51.29    4.00
  13  -6  -6  179.28    6.70
   7 -13   6  176.58    8.20
   6   7   6  165.88    7.60
   6   7   6  185.28    7.80
   7 -14   6    7.50    3.00
   7   7   6    1.80    2.70
   7   7   6   10.60    3.00
   8   7   6  158.78    7.60
   7 -15   6  150.18    8.30
   8   7   6  138.49    8.10
   8   6   6    6.20    3.00
   8   6   6   17.30    3.10
   6 -14   6   13.80    3.40
   8   5   6    1.80    2.10
   8   5   6    3.60    2.40
   5 -13   6    2.50    2.60
  12  -8  -6  108.39    5.10
   8   4   6  101.19    5.90
   8   4   6  107.99    5.30
   4 -12   6  105.99    6.20
  11  -8  -6  718.03   19.70
   3 -11   6  762.42   21.70
   8   3   6  734.23   21.30
  10  -8  -6  533.85   14.70
   8   2   6  551.74   16.40
   2 -10   6  543.65   16.70
  -1   9  -6  345.57   11.30
   9  -8  -6  356.46    9.60
   8   1   6  328.17   11.20
   0   8  -6  548.05   16.20
   8  -8  -6  557.14   14.50
   8   0   6  555.44   16.40
   1   7  -6  123.89    5.30
  -7   8   6  112.59    3.60
   8  -1   6  109.59    5.50
   2   6  -6   53.59    3.40
   8  -2   6   48.50    3.80
  -6   8   6   47.10    2.10
   3   5  -6  102.39    4.70
   8  -3   6  105.39    5.10
  -5   8   6  109.49    3.50
   4   4  -6   10.30    1.80
   8  -4   6    7.40    2.00
  -4   8   6   10.60    1.20
   5   3  -6   32.90    2.70
   8  -5   6   30.20    3.00
  -3   8   6   29.50    2.10
   6   2  -6   10.60    1.70
  -2   8   6    8.30    1.40
   8  -6   6   10.80    2.50
  -2   8   6    8.90    2.30
   7   1  -6  453.75   12.70
   8  -7   6  434.46   14.00
  -1   8   6  443.36   12.50
  -1   8   6  422.46   13.60
   8   0  -6  544.95   15.30
   0   8   6  527.45   16.40
   0   8   6  550.34   15.40
   8  -8   6  560.24   16.90
   9  -1  -6   26.80    2.50
   1   8   6   27.40    2.60
   8  -9   6   28.80    3.40
   1   8   6   33.50    3.50
  10  -2  -6  147.39    5.80
   2   8   6  163.18    6.90
   8 -10   6  163.58    7.50
   2   8   6  157.98    6.20
  11  -3  -6   48.20    3.50
   8 -11   6   46.40    4.30
   3   8   6   46.90    4.40
   3   8   6   41.00    3.50
  12  -4  -6   19.90    2.40
   4   8   6   17.50    2.70
   8 -12   6   19.40    3.30
   4   8   6   18.40    3.10
  13  -5  -6    1.00    1.80
   8 -13   6    1.20    2.50
   5   8   6    1.10    2.20
   5   8   6    1.60    2.20
  14  -6  -6   81.19    4.80
   6   8   6   65.89    5.60
   6   8   6   67.29    5.30
   8 -14   6   69.99    6.10
   7   8   6  467.35   15.20
   8 -15   6  460.85   16.30
   7   8   6  465.65   15.50
   8 -16   6   93.39    7.60
   8   8   6   94.39    7.00
   8   8   6   90.59    6.40
   8 -17   6    1.20    3.70
   9   8   6    2.50    3.10
   9   8   6   -1.30    3.20
   7 -16   6    7.60    3.70
   9   7   6    4.20    3.00
   9   7   6   10.40    3.10
   9   6   6   28.20    4.10
   6 -15   6   32.90    4.50
   9   6   6   36.00    4.00
   9   5   6    6.30    2.60
   9   5   6    6.60    2.90
   5 -14   6    9.60    3.00
   9   4   6   22.90    3.30
   9   4   6   31.30    3.30
   4 -13   6   19.60    3.40
  -3  12  -6    3.40    2.50
   9   3   6    3.60    2.30
   3 -12   6    6.30    2.60
  11  -9  -6  472.35   14.40
  -2  11  -6  489.75   15.30
   9   2   6  493.05   15.20
  10  -9  -6   53.09    3.10
  -1  10  -6   63.29    4.50
   9   1   6   60.09    4.70
   0   9  -6  201.88    7.90
   9  -9  -6  208.28    6.20
   9   0   6  199.38    7.90
   1   8  -6   27.50    2.90
   9  -1   6   26.80    3.30
   2   7  -6  824.62   21.80
   9  -2   6  745.03   21.90
  -7   9   6  755.82   20.00
   3   6  -6  670.93   18.70
   9  -3   6  637.04   19.00
  -6   9   6  658.43   17.20
   4   5  -6   40.00    3.10
  -5   9   6   32.40    2.20
   9  -4   6   33.10    3.30
   5   4  -6  605.04   16.80
   9  -5   6  599.24   17.40
  -4   9   6  560.64   15.70
   6   3  -6  194.28    6.70
  -3   9   6  174.88    6.00
  -3   9   6  182.08    7.50
   9  -6   6  183.28    7.70
   7   2  -6   61.69    3.60
  -2   9   6   55.49    3.20
  -2   9   6   57.79    4.30
   9  -7   6   56.19    4.70
   8   1  -6  368.76   11.00
   9  -8   6  362.76   12.40
  -1   9   6  353.26   11.90
  -1   9   6  360.56   10.80
   9   0  -6  201.48    7.20
   0   9   6  207.78    8.30
   9  -9   6  221.58    8.90
   0   9   6  211.48    7.40
  10  -1  -6   15.30    2.10
   9 -10   6    9.20    2.70
   1   9   6   17.40    3.00
   1   9   6   14.40    2.20
  11  -2  -6   54.09    3.80
   2   9   6   53.59    4.50
   9 -11   6   52.49    4.60
   2   9   6   55.99    4.10
  12  -3  -6    9.10    2.10
   9 -12   6   10.90    3.00
   3   9   6    9.10    2.40
   3   9   6    5.70    2.60
  13  -4  -6   29.30    3.00
   9 -13   6   25.50    3.80
   4   9   6   24.30    3.20
   4   9   6   25.90    3.60
  14  -5  -6    2.10    2.20
   5   9   6    4.40    2.80
   9 -14   6    2.20    3.00
   5   9   6   -3.60    2.60
   6   9   6  293.87   11.30
   6   9   6  299.27   11.20
   9 -15   6  296.57   12.00
   9 -16   6  110.69    8.00
   7   9   6   92.29    7.10
   7   9   6   94.89    6.40
   8   9   6   39.60    5.10
   8   9   6   31.00    4.50
   9 -17   6   39.00    5.10
   9 -18   6    4.60    4.20
   9   9   6    6.00    3.60
   9   9   6   13.10    4.00
  10   9   6   -3.20    4.00
   9 -19   6    9.90    4.60
  10   9   6   -2.20    3.30
  10   8   6   12.60    3.80
  10   8   6   19.30    4.30
   8 -18   6   17.30    4.70
  10   7   6   22.40    3.90
   7 -17   6   21.10    4.50
  10   7   6   24.90    4.40
  10   6   6  202.78    9.30
   6 -16   6  194.78    9.70
  10   6   6  186.68    8.50
  -5  15  -6  129.39    7.60
   5 -15   6  125.99    7.90
  10   5   6  123.49    6.80
  10   5   6  121.39    7.60
  -4  14  -6   47.90    4.70
  10   4   6   41.90    4.70
  10   4   6   44.40    4.40
  -3  13  -6   82.79    5.70
  10   3   6   87.99    5.80
  -2  12  -6    5.30    2.40
  10   2   6    0.40    2.20
  -1  11  -6    9.80    2.50
  10   1   6   15.60    2.90
   0  10  -6   17.20    2.80
  10 -10  -6   13.20    2.10
  10   0   6   21.50    3.10
   9 -10  -6   13.30    1.60
   1   9  -6   15.50    2.50
  10  -1   6    9.40    2.50
   2   8  -6  166.98    7.00
  -8  10   6  161.38    5.20
  10  -2   6  166.48    7.10
   3   7  -6  326.37   10.50
  10  -3   6  315.87   10.90
  -7  10   6  313.87    9.00
   4   6  -6  344.57   11.00
  10  -4   6  334.87   11.50
  -6  10   6  346.17    9.70
   5   5  -6  137.39    5.90
  10  -5   6  133.39    6.40
  -5  10   6  138.79    4.80
   6   4  -6  323.77   10.60
  10  -6   6  347.87   11.60
  -4  10   6  332.57   11.50
  -4  10   6  344.77    9.90
   7   3  -6  163.48    6.40
  10  -7   6  176.68    7.80
  -3  10   6  146.19    7.10
  -3  10   6  169.08    5.80
   8   2  -6  552.24   15.80
  10  -8   6  537.75   17.10
  -2  10   6  551.44   16.80
  -2  10   6  538.35   15.40
   9   1  -6   63.89    4.10
  -1  10   6   52.79    3.90
  -1  10   6   65.99    4.70
  10  -9   6   59.69    5.20
  10   0  -6   17.40    2.40
   0  10   6   24.10    3.40
  10 -10   6   14.60    3.20
   0  10   6   13.60    2.20
  11  -1  -6   67.39    4.40
   1  10   6   66.39    5.00
  10 -11   6   55.79    4.80
   1  10   6   64.49    4.40
  12  -2  -6   57.29    4.20
   2  10   6   58.19    5.20
   2  10   6   46.10    3.80
  10 -12   6   45.80    4.70
  13  -3  -6   47.30    3.70
   3  10   6   45.90    4.00
   3  10   6   44.30    4.50
  10 -13   6   36.10    4.60
  14  -4  -6  298.27   10.30
  10 -14   6  320.87   12.40
   4  10   6  284.37   11.00
  15  -5  -6   15.20    3.00
   5  10   6   14.30    3.40
  10 -15   6   14.30    4.10
  10 -16   6   59.79    5.80
   6  10   6   72.89    6.10
  10 -17   6   15.20    4.30
   7  10   6   12.10    3.80
  10 -18   6   33.90    5.50
   8  10   6   32.70    5.10
   8  10   6   34.00    5.10
  10 -19   6    3.70    4.40
   9  10   6   -2.20    3.90
   9  10   6    2.90    3.70
  10 -20   6   28.80    6.00
  10  10   6   21.80    5.60
  10  10   6   26.70    5.10
 -10  21  -6  224.08   13.20
  11  10   6  230.28   12.10
  -9  20  -6    8.60    4.80
  11   9   6    5.40    4.90
  -8  19  -6   50.09    6.10
  11   8   6   53.69    6.00
  -7  18  -6    5.80    4.10
  11   7   6   18.70    4.30
  -6  17  -6  -14.80    3.50
  11   6   6    1.50    3.40
  -5  16  -6   -3.30    3.30
  11   5   6    6.20    3.40
  -4  15  -6   13.70    3.60
  11   4   6   12.30    3.60
  -3  14  -6   -2.10    2.50
  11   3   6    0.40    2.60
  -2  13  -6    6.00    2.60
  11   2   6    1.80    2.50
  -1  12  -6   22.60    3.50
  11   1   6   23.50    3.30
   0  11  -6  270.47   10.30
  11   0   6  280.87   10.30
   1  10  -6   61.89    4.80
  11  -1   6   69.39    5.10
   2   9  -6   69.09    4.70
  11  -2   6   52.49    4.70
  -9  11   6   58.89    3.00
   3   8  -6   37.60    3.40
  -8  11   6   41.60    2.60
  11  -3   6   38.30    3.70
   4   7  -6   13.60    2.40
  11  -4   6   16.70    2.90
  -7  11   6   14.70    1.70
   5   6  -6   11.10    2.30
  -6  11   6   15.80    1.70
  11  -5   6   15.00    2.90
   6   5  -6   23.20    2.70
  -5  11   6   29.30    3.40
  11  -6   6   23.30    3.10
  -5  11   6   28.30    2.20
   7   4  -6   91.69    4.90
  11  -7   6   90.29    5.90
  -4  11   6   81.59    5.50
  -4  11   6   86.49    4.10
   8   3  -6  720.53   20.50
  11  -8   6  729.73   21.80
  -3  11   6  723.83   21.40
  -3  11   6  719.83   19.80
   9   2  -6  481.45   14.70
  11  -9   6  506.55   16.20
  -2  11   6  495.35   15.70
  -2  11   6  483.75   14.30
  10   1  -6   12.10    2.40
  -1  11   6    9.20    2.70
  11 -10   6   13.90    3.10
  -1  11   6   11.80    2.20
  11   0  -6  282.47    9.70
   0  11   6  281.57   10.70
   0  11   6  275.27    9.50
  11 -11   6  275.77   11.00
  12  -1  -6  296.67   10.20
  11 -12   6  321.47   12.00
   1  11   6  286.57   11.10
   1  11   6  299.57   10.30
  13  -2  -6   31.80    3.40
  11 -13   6   25.40    4.20
   2  11   6   25.60    3.30
  14  -3  -6   11.30    2.70
  11 -14   6    6.90    3.70
   3  11   6    6.80    3.20
  15  -4  -6   96.29    6.20
  11 -15   6   88.39    7.50
   4  11   6  108.49    6.90
   5  11   6   -1.40    2.80
  11 -16   6    1.40    3.50
   6  11   6   12.50    3.90
  11 -17   6    5.20    4.00
   7  11   6   17.90    4.20
  11 -18   6   14.90    4.80
   8  11   6   -1.40    4.30
  11 -19   6    7.70    4.70
   8  11   6    2.60    3.90
  11 -20   6   42.30    6.50
   9  11   6   38.90    6.10
   9  11   6   38.70    5.70
  10  11   6   43.30    6.50
  10  11   6   36.50    8.00
  11 -21   6   42.50    6.90
 -11  22  -6   19.60    6.50
  11  11   6   34.20    6.60
 -11  23  -6   57.99    7.80
  12  11   6   61.09    7.80
 -10  22  -6   38.70    6.70
  12  10   6   30.30    6.30
  -9  21  -6  150.18   11.20
  12   9   6  143.99   11.20
  -8  20  -6   12.50    4.80
  12   8   6  -11.00    4.70
  -7  19  -6   12.30    4.60
  12   7   6   20.30    5.00
  -6  18  -6    9.00    4.10
  12   6   6   13.70    4.30
  -5  17  -6  243.08   11.70
  12   5   6  251.87   11.50
  -4  16  -6  295.17   12.20
  12   4   6  273.77   11.60
  -3  15  -6    1.00    3.10
  12   3   6    9.70    3.70
  -2  14  -6  148.59    7.70
  12   2   6  146.49    8.10
  -1  13  -6   18.10    3.40
  12   1   6   16.80    3.50
   0  12  -6   61.29    5.20
  12   0   6   60.29    5.10
   1  11  -6  309.37   11.40
  12  -1   6  316.17   11.60
   2  10  -6   53.99    4.70
  12  -2   6   45.90    4.50
   3   9  -6   14.80    2.70
  -9  12   6   11.00    1.70
  12  -3   6    6.40    2.60
   4   8  -6   19.40    2.90
  12  -4   6   11.20    2.90
  -8  12   6   19.70    2.00
   5   7  -6   45.80    3.80
  -7  12   6   47.70    3.10
  12  -5   6   43.70    4.30
   6   6  -6   66.69    4.60
  -6  12   6   78.19    3.80
  -6  12   6   63.59    5.40
  12  -6   6   79.69    5.40
   7   5  -6    8.60    2.30
  -5  12   6    8.70    1.90
  12  -7   6    7.20    2.80
  -5  12   6    8.80    2.70
   8   4  -6  102.59    5.50
  -4  12   6  101.29    4.80
  12  -8   6   92.59    6.20
  -4  12   6  101.39    5.90
   9   3  -6    2.60    2.10
  -3  12   6    5.30    1.90
  -3  12   6    4.20    2.40
  12  -9   6    5.20    2.80
  10   2  -6    4.10    2.30
  -2  12   6    4.80    2.60
  -2  12   6    4.80    2.00
  12 -10   6    4.10    2.80
  11   1  -6   15.80    2.80
  12 -11   6   17.40    3.60
  -1  12   6   19.10    3.40
  -1  12   6   20.70    2.80
  12   0  -6   59.49    4.80
   0  12   6   63.39    4.90
  12 -12   6   73.09    6.40
   0  12   6   69.29    5.60
  13  -1  -6  245.78    9.20
   1  12   6  235.58    9.30
  12 -13   6  223.58   10.60
  14  -2  -6  442.46   14.20
  12 -14   6  429.96   16.00
   2  12   6  431.36   14.40
  15  -3  -6   20.20    3.50
  12 -15   6   13.90    4.40
   3  12   6   23.30    3.80
  16  -4  -6   18.90    3.60
   4  12   6   13.60    3.50
  12 -16   6   14.50    4.30
   5  12   6   73.49    5.90
  12 -17   6   49.99    6.00
   6  12   6   22.60    4.50
  12 -18   6   21.20    4.90
   7  12   6   28.40    5.50
  12 -19   6   31.10    5.80
   8  12   6   49.00    6.60
  12 -20   6   48.20    7.10
   9  12   6   64.39    7.10
  12 -21   6   68.89    8.10
   9  12   6   71.39    7.60
  12 -22   6    8.50    5.60
  10  12   6    9.50    5.70
 -12  23  -6    7.00    6.20
  11  12   6   19.40    6.50
 -12  24  -6   12.20    6.30
  12  12   6   15.90    6.70
 -12  25  -6   12.70    7.00
  13  12   6   -9.00    6.70
 -11  24  -6   11.90    6.20
  13  11   6   -3.80    5.90
 -10  23  -6   23.60    6.30
  13  10   6   30.60    6.80
  -9  22  -6   -6.90    5.30
  13   9   6    4.40    5.30
  -8  21  -6   12.10    5.30
  13   8   6   -2.30    5.20
  -7  20  -6    2.80    4.50
  13   7   6   -8.40    4.70
  -6  19  -6   13.90    4.90
  13   6   6    3.10    4.50
  -5  18  -6    8.70    4.10
  13   5   6    7.60    4.00
  -4  17  -6  173.08    9.80
  13   4   6  151.98    9.10
  -3  16  -6   52.99    5.30
  13   3   6   57.39    6.00
  -2  15  -6  171.98    8.80
  13   2   6  124.29    8.20
  -1  14  -6   86.99    6.60
  13   1   6   69.19    6.00
   0  13  -6  165.78    8.60
  13   0   6  172.98    8.80
   1  12  -6  258.27   10.10
  13  -1   6  242.28   10.50
   2  11  -6   24.40    3.60
  13  -2   6   25.10    3.80
   3  10  -6   42.30    4.00
  13  -3   6   45.40    4.40
   4   9  -6   23.90    3.30
  -9  13   6   24.00    3.50
  13  -4   6   23.40    3.50
   5   8  -6   -2.40    2.00
  -8  13   6   -0.60    1.50
  13  -5   6   -0.40    2.30
   6   7  -6  184.08    7.70
  -7  13   6  167.28    8.00
  -7  13   6  173.28    6.30
  13  -6   6  164.08    8.20
   7   6  -6  199.98    8.30
  13  -7   6  207.58    9.10
  -6  13   6  184.98    8.60
  -6  13   6  211.68    7.20
   8   5  -6   -0.10    2.10
  13  -8   6    0.80    2.90
  -5  13   6    0.60    1.80
  -5  13   6   -0.20    2.50
   9   4  -6   23.70    3.20
  -4  13   6   28.30    3.90
  -4  13   6   29.90    2.90
  13  -9   6   26.00    4.00
  10   3  -6   82.59    5.50
  -3  13   6   89.09    5.10
  13 -10   6  100.09    6.70
  -3  13   6   75.99    6.00
  11   2  -6   -0.70    2.30
  13 -11   6    3.20    3.10
  -2  13   6    2.90    2.80
  -2  13   6    2.30    2.20
  12   1  -6   17.50    3.20
  -1  13   6   11.30    3.40
  13 -12   6   10.60    3.80
  -1  13   6   10.30    2.70
  13   0  -6  198.78    8.40
   0  13   6  180.98    8.20
  13 -13   6  189.68    9.70
  14  -1  -6  380.86   12.80
   1  13   6  354.66   12.70
  13 -14   6  382.56   14.80
  15  -2  -6   16.10    3.40
   2  13   6   19.80    3.70
  13 -15   6   19.10    4.70
  16  -3  -6    6.70    3.20
  13 -16   6    4.90    4.10
   3  13   6    3.30    3.00
  13 -17   6   37.20    5.80
   4  13   6   29.00    4.50
   5  13   6   39.90    5.20
  13 -18   6   46.20    6.20
   6  13   6  101.19    8.90
  13 -19   6  113.59    9.80
   7  13   6   33.00    5.90
  13 -20   6   41.30    7.00
  13 -21   6   38.90    6.80
   8  13   6   38.00    6.10
   8  13   6   32.70    6.20
   9  13   6   -9.20    4.90
   9  13   6   -4.70    4.80
  13 -22   6   -0.90    5.70
  13 -23   6   10.80    6.50
  10  13   6    3.30    5.60
 -13  24  -6    1.90    6.10
  11  13   6   -7.90    5.90
 -13  25  -6   -3.00    6.50
  12  13   6   -6.60    6.70
 -11  25  -6    0.90    6.70
  14  11   6   10.30    7.10
 -10  24  -6   -0.30    6.00
  14  10   6   -0.70    6.00
  -9  23  -6   14.40    6.60
  14   9   6    9.10    6.20
  -8  22  -6   37.40    6.70
  14   8   6   38.50    6.70
  -7  21  -6   16.20    5.60
  14   7   6    6.60    5.30
  -6  20  -6   17.10    5.10
  14   6   6    5.20    5.10
  -5  19  -6   49.80    6.20
  14   5   6   55.99    6.80
  -4  18  -6    9.10    4.20
  14   4   6    9.20    4.40
  -3  17  -6   34.00    5.10
  14   3   6   35.10    5.10
  -2  16  -6   -0.30    3.30
  14   2   6   -1.30    3.70
  -1  15  -6   12.20    3.70
  14   1   6   -3.10    3.60
   0  14  -6   26.20    4.10
  14   0   6   28.60    4.60
   1  13  -6  390.36   13.70
  14  -1   6  357.46   13.80
   2  12  -6  435.36   14.80
  14  -2   6  431.66   15.40
   3  11  -6   11.60    3.10
  14  -3   6    6.30    3.50
   4  10  -6  304.27   11.20
  14  -4   6  294.17   11.90
   5   9  -6    0.50    2.50
  14  -5   6   -5.30    2.90
   6   8  -6   90.09    5.70
  14  -6   6   76.99    6.00
  -8  14   6   65.09    4.20
  -8  14   6   62.99    6.00
   7   7  -6    7.50    2.70
  14  -7   6    4.60    3.20
  -7  14   6    6.80    2.20
  -7  14   6    4.80    3.00
   8   6  -6   15.20    3.00
  -6  14   6   11.10    3.40
  -6  14   6    7.60    2.40
  14  -8   6   10.30    3.70
   9   5  -6    6.70    2.60
  -5  14   6    3.70    2.40
  14  -9   6    1.70    3.30
  -5  14   6    6.90    2.90
  10   4  -6   40.20    4.00
  -4  14   6   48.10    4.90
  14 -10   6   43.90    5.10
  -4  14   6   46.80    3.90
  11   3  -6   -2.20    2.40
  -3  14   6    0.90    2.60
  -3  14   6    0.20    2.20
  14 -11   6   -7.70    2.90
  12   2  -6  165.58    7.70
  14 -12   6  136.39    9.00
  -2  14   6  131.09    6.90
  -2  14   6  152.18    8.10
  13   1  -6   89.09    6.20
  -1  14   6   96.69    6.90
  -1  14   6   87.99    6.30
  14 -13   6   69.99    6.70
  14   0  -6   30.20    3.90
   0  14   6   27.50    4.00
  14 -14   6   24.90    4.90
  15  -1  -6   18.60    3.60
  14 -15   6   29.80    5.20
   1  14   6   25.10    3.80
  16  -2  -6   76.49    6.60
   2  14   6   63.89    5.50
  14 -16   6   66.39    6.80
  17  -3  -6    3.80    3.30
   3  14   6    2.10    3.40
  14 -17   6    2.50    4.30
  14 -18   6    3.10    4.60
   4  14   6   -0.40    3.80
   5  14   6  148.89    9.50
  14 -19   6  166.18   11.40
   6  14   6  168.68   10.80
  14 -20   6  170.58   12.00
   7  14   6    3.80    4.80
  14 -21   6   -1.30    5.40
  14 -22   6   -1.90    5.70
   8  14   6   -6.70    4.70
   8  14   6   -5.60    5.10
   9  14   6    4.10    5.80
   9  14   6   -9.50    5.30
  14 -23   6   13.30    6.90
  14 -24   6    1.70    6.60
  10  14   6   -0.10    6.10
 -14  25  -6    1.30    7.00
  11  14   6   -6.80    6.90
 -10  25  -6    0.70    6.40
  15  10   6   -0.40    6.80
  -9  24  -6    5.10    6.30
  15   9   6   -4.90    6.00
  -8  23  -6    8.20    6.10
  15   8   6    8.30    6.20
  -7  22  -6   15.70    6.10
  15   7   6   25.20    6.40
  -6  21  -6    5.50    5.30
  15   6   6    6.40    5.30
  -5  20  -6    0.40    4.50
  15   5   6   -0.40    4.90
  -4  19  -6    7.40    4.60
  15   4   6    4.40    4.60
  -3  18  -6    1.30    4.10
  15   3   6    1.40    4.30
  -2  17  -6   -3.20    3.50
  15   2   6    3.00    3.80
  -1  16  -6    7.20    3.50
  15   1   6    9.90    4.10
   0  15  -6   -1.00    3.10
  15   0   6   -1.80    3.50
   1  14  -6   19.30    3.80
  15  -1   6   21.40    4.30
   2  13  -6   16.30    3.60
  15  -2   6   18.60    4.10
   3  12  -6   21.20    3.80
  15  -3   6   19.60    4.00
   4  11  -6  102.69    6.70
  15  -4   6   90.89    7.40
   5  10  -6   18.00    3.60
  15  -5   6   10.10    3.80
   6   9  -6  301.77   11.20
  -9  15   6  270.67   11.90
  15  -6   6  308.37   12.40
   7   8  -6  473.05   15.60
  -8  15   6  448.46   16.10
  15  -7   6  484.95   16.40
   8   7  -6  161.98    8.00
  -7  15   6  160.08    8.60
  -7  15   6  150.38    6.80
  15  -8   6  152.48    9.00
   9   6  -6   31.90    4.00
  -6  15   6   28.20    3.50
  -6  15   6   29.30    4.50
  15  -9   6   19.60    4.60
  10   5  -6  153.48    7.60
  15 -10   6  113.89    8.80
  -5  15   6  125.09    6.70
  -5  15   6  126.79    7.80
  11   4  -6   17.00    3.50
  15 -11   6    9.10    4.10
  -4  15   6   10.10    3.00
  -4  15   6   13.00    3.60
  12   3  -6    8.00    3.20
  -3  15   6   10.30    3.60
  15 -12   6    5.40    4.10
  -3  15   6    6.20    2.90
  13   2  -6  169.48    8.50
  -2  15   6  145.49    8.60
  15 -13   6  158.68   10.00
  -2  15   6  139.69    7.90
  14   1  -6    9.40    3.40
  15 -14   6    6.30    4.20
  -1  15   6    5.40    3.20
  15   0  -6    3.30    3.10
  15 -15   6   -7.10    3.90
   0  15   6    3.10    3.20
  16  -1  -6   22.80    4.10
   1  15   6   20.10    4.00
  15 -16   6   25.70    5.40
  17  -2  -6   -0.20    3.30
   2  15   6   -0.80    3.40
  15 -17   6   -3.10    4.60
  15 -18   6   -1.40    4.90
   3  15   6    7.00    4.20
   4  15   6   44.60    6.00
  15 -19   6   40.20    7.20
  15 -20   6   84.69    8.60
   5  15   6   86.69    7.60
  15 -21   6   15.20    6.40
   6  15   6   12.60    5.20
  15 -22   6   19.40    6.50
   7  15   6   10.10    5.60
  15 -23   6    2.10    6.20
   8  15   6   -4.80    5.30
   8  15   6   -3.30    5.30
   9  15   6   -2.20    6.10
   9  15   6  -10.50    6.10
  15 -24   6    9.30    6.90
  15 -25   6   53.69    9.20
  10  15   6   46.80    8.60
  -9  25  -6   13.70    7.20
  16   9   6    4.00    7.30
  -8  24  -6    4.80    6.40
  16   8   6    4.50    6.20
  -7  23  -6   18.60    6.80
  16   7   6   19.90    6.80
  -6  22  -6   55.89    7.60
  16   6   6   71.09    8.40
  -5  21  -6   15.60    5.70
  16   5   6   18.20    6.00
  -4  20  -6    2.40    4.70
  16   4   6    3.30    5.10
  -3  19  -6    8.70    4.60
  16   3   6   11.50    5.10
  -2  18  -6   33.50    5.40
  16   2   6   28.70    5.60
  -1  17  -6   63.49    6.30
  16   1   6   61.79    6.50
   0  16  -6   18.50    4.30
  16   0   6   23.60    4.80
   1  15  -6   15.90    4.10
  16  -1   6   16.40    4.30
   2  14  -6   62.39    5.90
  16  -2   6   57.99    6.00
   3  13  -6    6.10    3.30
  16  -3   6    3.90    3.60
   4  12  -6   17.70    3.90
  16  -4   6   14.60    4.00
   5  11  -6    0.70    3.10
  16  -5   6   -3.20    3.00
   6  10  -6   78.49    6.40
  16  -6   6   67.29    6.10
   7   9  -6  102.59    6.80
  -9  16   6  107.99    7.70
  16  -7   6   91.09    7.40
   8   8  -6   86.49    6.60
  -8  16   6   94.99    7.50
  16  -8   6   90.39    7.70
   9   7  -6    5.60    3.10
  -7  16   6    4.80    2.90
  16  -9   6    7.00    3.90
  -7  16   6    8.90    3.80
  10   6  -6  195.98    9.30
  -6  16   6  204.58   10.00
  -6  16   6  200.28    8.30
  11   5  -6    9.40    3.40
  -5  16   6    1.60    2.80
  -5  16   6    2.30    3.50
  16 -11   6    3.50    3.70
  12   4  -6  299.57   11.60
  -4  16   6  291.47   10.80
  16 -12   6  288.57   13.00
  -4  16   6  263.77   11.90
  13   3  -6   52.89    5.20
  -3  16   6   44.50    4.80
  16 -13   6   54.59    6.40
  -3  16   6   50.49    5.60
  14   2  -6    5.60    3.40
  16 -14   6    4.70    4.30
  -2  16   6   -2.70    3.20
  -2  16   6    8.30    4.10
  15   1  -6   10.60    3.60
  -1  16   6    9.40    3.40
  16 -15   6    5.80    4.50
  16   0  -6   20.00    4.20
   0  16   6   20.90    4.20
  16 -16   6   11.20    4.90
  17  -1  -6   10.20    4.00
  16 -17   6    2.60    4.90
   1  16   6    8.10    4.00
  18  -2  -6   25.20    5.10
  16 -18   6   40.20    6.90
   2  16   6   37.30    5.50
  16 -19   6   61.69    8.20
   3  16   6   68.09    7.10
   4  16   6   -2.10    4.70
  16 -20   6  -11.70    5.60
  16 -21   6   23.00    6.50
   5  16   6   20.80    5.80
   6  16   6   40.80    6.80
  16 -22   6   29.10    7.20
   7  16   6   -0.40    5.80
   7  16   6   -0.20    5.60
  16 -23   6    2.20    6.10
   8  16   6    3.70    6.50
   8  16   6  -14.70    5.80
  16 -24   6   -0.30    6.40
   9  16   6   45.00   12.50
  16 -25   6   55.19    9.50
   9  16   6   54.39    8.60
  -8  25  -6   10.40    7.40
  17   8   6    7.70    7.80
  -7  24  -6    3.80    6.40
  17   7   6   -7.20    6.40
  -6  23  -6   80.59    8.90
  17   6   6   87.99    9.20
  -5  22  -6   64.09    7.60
  17   5   6   67.19    8.40
  -4  21  -6   11.30    5.50
  17   4   6   15.40    6.20
  -3  20  -6   19.10    5.70
  17   3   6   20.10    6.20
  -2  19  -6    4.80    4.70
  17   2   6    2.80    5.10
  -1  18  -6   11.90    4.90
  17   1   6   12.20    5.00
   0  17  -6   10.90    4.30
  17   0   6   13.40    4.90
   1  16  -6    5.50    4.10
  17  -1   6    5.10    4.30
   2  15  -6   -4.60    3.30
  17  -2   6   -2.50    4.00
   3  14  -6    0.20    3.30
  17  -3   6   -1.20    3.70
   4  13  -6   28.30    4.70
  17  -4   6   32.80    5.00
   5  12  -6   65.49    5.90
  17  -5   6   61.49    6.20
   6  11  -6    6.50    3.70
  17  -6   6    7.80    4.00
   7  10  -6   17.70    4.10
 -10  17   6   17.10    4.60
  17  -7   6   11.80    4.20
   8   9  -6   30.80    4.40
  17  -8   6   48.60    5.60
  -9  17   6   50.89    5.90
   9   8  -6    1.20    3.20
  -8  17   6    3.50    3.90
  17  -9   6   -1.50    3.80
  10   7  -6   18.30    4.00
  17 -10   6   18.70    4.50
  -7  17   6   24.40    4.90
  11   6  -6   -1.60    3.50
  -6  17   6   -3.00    3.50
  17 -11   6    2.60    4.50
  -6  17   6   -0.70    2.90
  12   5  -6  263.67   11.40
  -5  17   6  247.58   10.40
  17 -12   6  268.27   13.10
  -5  17   6  264.77   12.10
  13   4  -6  173.68    9.40
  -4  17   6  173.88    8.80
  17 -13   6  183.88   10.90
  -4  17   6  188.58   10.50
  14   3  -6   45.80    5.10
  -3  17   6   42.20    6.10
  -3  17   6   39.60    4.70
  17 -14   6   42.80    6.30
  15   2  -6    0.20    3.50
  17 -15   6   -4.60    4.20
  -2  17   6   -2.00    3.90
  -2  17   6    1.60    3.40
  16   1  -6   63.69    6.00
  -1  17   6   83.49    7.20
  17 -16   6   70.79    7.60
  17   0  -6   12.30    4.50
  17 -17   6   12.40    5.50
   0  17   6   19.90    4.60
  18  -1  -6   28.30    5.10
  17 -18   6   22.10    6.30
   1  17   6   21.90    5.20
  17 -19   6   15.50    6.40
   2  17   6   15.10    5.30
   3  17   6    9.70    5.20
  17 -20   6   15.30    6.70
   4  17   6    3.90    5.40
  17 -21   6    5.20    6.30
   5  17   6    5.30    5.70
  17 -22   6   -2.50    6.20
  17 -23   6   -7.10    6.40
   6  17   6    4.00    5.90
   6  17   6    2.90    6.10
   7  17   6   -6.60    6.40
   7  17   6   -5.10    6.70
  17 -24   6    5.90    7.10
   8  17   6   -4.90    7.00
  17 -25   6    0.50    7.90
   8  17   6   15.90    7.40
  -7  25  -6   34.40    8.90
  -6  24  -6   -2.50    6.20
  18   6   6    7.70    6.60
  -5  23  -6   36.70    7.30
  18   5   6   24.80    7.30
  -4  22  -6   14.60    6.20
  18   4   6    4.90    6.40
  -3  21  -6   24.10    6.20
  18   3   6   13.70    6.90
  -2  20  -6    7.90    5.30
  18   2   6   -4.80    5.50
  -1  19  -6   82.59    8.00
  18   1   6  110.69    9.70
   0  18  -6  208.38   12.20
  18   0   6  233.68   12.80
   1  17  -6   32.40    5.70
  18  -1   6   27.70    6.30
   2  16  -6   29.60    5.50
  18  -2   6   30.30    5.90
   3  15  -6    3.20    4.20
  18  -3   6    3.60    4.50
   4  14  -6   -2.50    3.80
  18  -4   6   -6.80    3.90
   5  13  -6   39.70    5.30
  18  -5   6   38.80    5.60
   6  12  -6   20.00    4.50
  18  -6   6   17.90    4.60
   7  11  -6   18.40    4.40
  18  -7   6   21.00    4.80
 -11  18   6   19.80    4.90
   8  10  -6   30.10    4.90
 -10  18   6   49.99    6.20
  18  -8   6   44.60    5.90
   9   9  -6    6.20    3.70
  18  -9   6    7.10    4.40
  -9  18   6   10.40    4.70
  10   8  -6   14.00    4.20
  -8  18   6   15.50    4.70
  18 -10   6   19.40    5.10
  11   7  -6   11.40    4.20
  -7  18   6   13.10    4.70
  18 -11   6   18.40    5.30
  12   6  -6   15.20    4.30
  -6  18   6   19.10    5.00
  18 -12   6    8.70    5.00
  13   5  -6    1.10    3.70
  18 -13   6    2.20    4.80
  -5  18   6    2.50    3.40
  -5  18   6   -2.70    3.90
  14   4  -6    5.00    3.90
  -4  18   6    1.20    4.40
  18 -14   6    2.20    4.60
  -4  18   6    7.80    3.70
  15   3  -6   -1.50    3.90
  18 -15   6   -0.50    5.10
  -3  18   6   -0.90    3.50
  -3  18   6   -5.20    4.20
  16   2  -6   32.60    5.30
  18 -16   6   29.90    6.40
  -2  18   6   26.70    5.70
  -2  18   6   31.40    4.90
  17   1  -6    8.10    4.60
  -1  18   6   23.80    4.90
  18 -17   6    1.50    5.40
  18   0  -6  205.68   11.10
  18 -18   6  203.68   13.30
   0  18   6  199.98   11.10
  18 -19   6   47.10    8.00
   1  18   6   60.59    7.00
   2  18   6   -2.10    5.00
  18 -20   6   -8.80    6.00
  18 -21   6    4.30    6.70
   3  18   6    4.30    5.40
  18 -22   6  -15.70    5.80
   4  18   6   -0.40    5.40
   5  18   6    2.20    6.20
  18 -23   6    9.60    7.00
   5  18   6   -1.50    6.30
   6  18   6    1.60    7.00
   6  18   6  -13.70    6.80
  18 -24   6    6.20    7.70
   7  18   6   29.00    8.30
   7  18   6   17.70    7.90
  18 -25   6   19.00    8.40
  -5  24  -6   10.00    6.90
  19   5   6   14.20    7.70
  -4  23  -6   -5.40    5.70
  19   4   6    1.10    6.70
  -3  22  -6   -3.00    5.60
  19   3   6   -7.30    5.90
  -2  21  -6    4.10    5.60
  19   2   6    4.20    6.50
  -1  20  -6    4.10    5.60
  19   1   6   -4.90    5.60
   0  19  -6   29.60    6.20
  19   0   6   39.60    7.20
   1  18  -6   56.49    7.10
  19  -1   6   53.59    7.60
   2  17  -6   32.70    6.10
  19  -2   6    8.50    6.00
   3  16  -6   71.69    7.20
  19  -3   6   49.50    7.40
   4  15  -6   36.60    6.00
  19  -4   6   41.40    6.80
   5  14  -6  165.98   10.10
  19  -5   6  140.69   10.40
   6  13  -6  107.19    9.00
  19  -6   6  108.89    8.80
   7  12  -6   32.90    5.20
  19  -7   6   29.50    6.20
   8  11  -6    4.90    4.00
  19  -8   6   -4.40    4.50
 -11  19   6    6.60    4.90
   9  10  -6   -2.90    3.90
  19  -9   6   -0.90    4.60
 -10  19   6    1.00    4.50
  10   9  -6   -1.30    3.80
  -9  19   6   -3.60    4.20
  19 -10   6  -10.80    4.50
  11   8  -6   58.89    6.20
  19 -11   6   45.90    7.00
  -8  19   6   58.49    6.90
  12   7  -6   24.20    5.10
  19 -12   6    7.90    5.80
  -7  19   6   23.80    5.70
  13   6  -6   11.90    4.40
  19 -13   6   12.20    5.90
  -6  19   6   17.20    5.40
  14   5  -6   54.79    6.10
  19 -14   6   39.20    7.10
  -5  19   6   44.80    6.60
  15   4  -6   16.30    4.50
  -4  19   6    4.60    5.40
  -4  19   6   13.60    4.20
  19 -15   6    2.90    5.60
  16   3  -6    9.50    4.50
  19 -16   6    3.40    5.80
  -3  19   6   10.90    5.70
  -3  19   6   12.70    4.40
  17   2  -6    2.10    4.50
  -2  19   6   10.30    5.50
  19 -17   6   -4.60    5.30
  -2  19   6    4.90    4.40
  18   1  -6  114.59    9.40
  19 -18   6   88.59    9.30
  -1  19   6  106.09    9.30
  19   0  -6   33.30    5.90
  19 -19   6   41.80    7.80
   0  19   6   31.10    5.90
   1  19   6   -9.70    4.70
  19 -20   6   -9.80    6.20
   2  19   6    2.40    5.60
  19 -21   6   -3.00    6.50
   3  19   6   -5.80    6.30
  19 -22   6    0.50    6.80
   3  19   6    4.90    5.90
   4  19   6    2.30    7.10
  19 -23   6    8.90    7.30
   4  19   6   19.10    6.90
   5  19   6   23.70    8.70
  19 -24   6   39.80    9.00
   5  19   6   31.40    8.20
  -4  24  -6   16.50    9.20
  -3  23  -6   -0.50    6.30
  20   3   6   -3.40    6.90
  -2  22  -6   -4.90    5.50
  20   2   6    0.90    6.40
  -1  21  -6   10.20    6.20
  20   1   6   12.40    6.60
   0  20  -6   48.30    7.50
  20   0   6   42.90    7.60
   1  19  -6    0.60    5.40
  20  -1   6  -13.00    5.40
   2  18  -6   -1.30    5.10
  20  -2   6    5.60    5.80
   3  17  -6    7.40    5.30
  20  -3   6   18.40    6.20
   4  16  -6    6.40    5.00
  20  -4   6   -2.40    5.10
   5  15  -6   74.79    7.30
  20  -5   6   83.29    8.30
   6  14  -6  169.68   10.40
  20  -6   6  172.88   11.80
   7  13  -6   46.60    6.20
  20  -7   6   34.80    6.90
   8  12  -6   56.49    6.50
 -12  20   6   44.40    7.50
  20  -8   6   32.70    7.00
   9  11  -6   36.90    5.70
 -11  20   6   24.00    7.10
  20  -9   6   41.60    7.00
  10  10  -6   26.70    5.30
 -10  20   6    6.90    6.20
  20 -10   6   14.60    6.30
  11   9  -6   16.80    4.80
  -9  20   6    3.80    5.70
  20 -11   6   -1.10    6.10
  12   8  -6   11.70    4.90
  -8  20   6    7.70    5.50
  20 -12   6  -10.70    6.00
  13   7  -6    8.10    4.80
  20 -13   6   -9.90    5.80
  -7  20   6   11.50    5.40
  14   6  -6    7.50    4.80
  -6  20   6   16.70    5.60
  20 -14   6   -8.00    6.00
  15   5  -6   -5.40    3.90
  20 -15   6  -12.20    5.40
  -5  20   6   -1.70    5.00
  16   4  -6    7.40    4.80
  20 -16   6   -7.30    6.00
  -4  20   6   -0.70    5.30
  17   3  -6   18.00    5.40
  20 -17   6   15.00    6.80
  -3  20   6   18.00    5.60
  -3  20   6   23.30    6.60
  18   2  -6   -0.90    4.90
  -2  20   6   -3.00    5.50
  -2  20   6   -7.90    4.70
  20 -18   6   -8.00    6.00
  19   1  -6    1.60    5.00
  20 -19   6   -0.50    6.20
  -1  20   6   -1.40    5.10
  -1  20   6   -9.20    5.20
   0  20   6   51.99    7.20
   0  20   6   48.50    8.40
  20 -20   6   40.50    8.20
   1  20   6   12.00    7.20
  20 -21   6    8.90    7.30
   1  20   6   19.60    6.40
   2  20   6    3.00    5.90
  20 -22   6    4.30    7.10
   2  20   6  -12.70    6.00
  20 -23   6   11.20    7.80
   3  20   6   14.70    7.70
   3  20   6   19.00    7.10
  20 -24   6   61.79    9.70
   4  20   6   37.80    9.50
   4  20   6   63.49    9.30
  -2  23  -6   -2.60    7.00
  21   2   6    4.90    7.50
  -1  22  -6    7.00    6.80
  21   1   6    5.20    7.20
   0  21  -6    2.90    6.30
  21   0   6    6.30    6.60
   1  20  -6   18.30    6.40
  21  -1   6   19.00    6.90
   2  19  -6    4.70    5.60
  21  -2   6    0.20    6.20
   3  18  -6    4.10    5.20
  21  -3   6   -1.60    5.80
   4  17  -6   -1.40    5.30
  21  -4   6   -2.10    5.20
   5  16  -6   21.70    5.90
  21  -5   6   22.50    6.50
   6  15  -6   19.50    5.50
  21  -6   6   14.60    6.10
   7  14  -6    4.60    4.70
  21  -7   6   -3.70    5.20
   8  13  -6   39.60    6.10
  21  -8   6   30.60    6.40
   9  12  -6   61.29    6.90
  21  -9   6   85.29    8.40
 -12  21   6   56.59    8.10
  10  11  -6   42.00    6.50
  21 -10   6   53.59    7.60
 -11  21   6   30.50    7.60
  11  10  -6  218.68   12.40
 -10  21   6  219.08   13.10
  21 -11   6  235.18   13.50
  12   9  -6  164.08   11.00
  -9  21   6  152.38   11.80
  21 -12   6  148.99   12.90
  13   8  -6   18.70    5.40
  21 -13   6   -1.10    6.70
  -8  21   6   14.10    6.00
  14   7  -6   19.30    5.60
  -7  21   6   13.70    6.40
  21 -14   6    7.10    7.10
  15   6  -6   -5.60    4.50
  -6  21   6    4.50    6.00
  21 -15   6    0.10    6.10
  16   5  -6   13.40    5.40
  -5  21   6   10.80    6.30
  21 -16   6   11.30    6.60
  17   4  -6   13.70    5.70
  -4  21   6   19.90    6.70
  21 -17   6   12.00    7.00
  18   3  -6   29.00    6.10
  -3  21   6   31.20    7.10
  21 -18   6   20.00    7.40
  19   2  -6   10.30    5.40
  -2  21   6   17.80    9.70
  21 -19   6   -1.80    6.70
  -2  21   6   -0.30    6.20
  -1  21   6   17.70    7.20
  -1  21   6   25.30    6.60
  21 -20   6    3.30    7.20
   0  21   6    2.10    6.10
  21 -21   6   -1.10    7.10
   0  21   6    1.80    6.60
  21 -22   6    4.30    7.20
   1  21   6   -6.10    6.40
   1  21   6   -2.00    6.70
   2  21   6   -7.70    7.00
  21 -23   6    6.30    8.00
   2  21   6   -5.70    7.30
   0  22  -6   -2.20    6.70
  22   0   6    0.60    7.40
   1  21  -6  -15.00    6.00
  22  -1   6   10.50    7.30
   2  20  -6    1.00    6.00
  22  -2   6    6.10    6.60
   3  19  -6    3.50    6.00
  22  -3   6    4.80    6.40
   4  18  -6   -6.20    5.50
  22  -4   6    2.00    6.00
   5  17  -6    4.00    5.40
  22  -5   6    2.70    5.80
   6  16  -6   22.60    6.20
  22  -6   6   31.20    7.10
   7  15  -6    9.10    5.60
  22  -7   6   24.00    6.90
   8  14  -6    0.30    5.00
  22  -8   6   -3.10    5.90
   9  13  -6    5.70    4.90
  22  -9   6   -1.00    5.80
  10  12  -6   11.50    5.50
 -12  22   6    5.50    6.30
  22 -10   6    6.60    6.10
  11  11  -6   43.20    6.60
  22 -11   6   45.50    7.90
 -11  22   6   37.60    7.30
  12  10  -6   43.60    6.70
  22 -12   6   42.80    7.90
 -10  22   6   41.80    7.60
  13   9  -6    7.60    5.50
  22 -13   6    3.20    6.20
  -9  22   6    6.70    5.90
  14   8  -6   41.30    6.70
  22 -14   6   40.50    8.00
  -8  22   6   45.60    8.00
  15   7  -6    6.20    5.30
  22 -15   6   23.90    7.40
  -7  22   6   14.40    6.80
  16   6  -6   63.29    7.50
  22 -16   6   50.79    8.20
  -6  22   6   54.69    8.50
  17   5  -6   57.59    7.20
  22 -17   6   72.49    9.50
  -5  22   6   59.69    8.70
  18   4  -6   12.70    5.90
  22 -18   6   10.20    7.20
  -4  22   6   11.80    6.70
  19   3  -6   -3.00    5.50
  -3  22   6   -4.10    6.10
  22 -19   6   -6.10    6.80
  20   2  -6   -0.80    6.00
  -2  22   6  -13.60    6.40
  22 -20   6   -6.50    6.90
  -1  22   6    1.20    7.00
  22 -21   6    5.90    7.40
   0  22   6  -11.80    8.00
   0  22   6   -6.30    6.90
  22 -22   6    2.00    7.90
   2  21  -6   -0.50    7.20
  23  -2   6    5.40    7.50
   3  20  -6    5.20    7.10
  23  -3   6   28.30    7.80
   4  19  -6   -1.80    6.20
  23  -4   6   17.70    7.20
   5  18  -6    8.40    6.10
  23  -5   6   11.40    6.70
   6  17  -6   -2.20    5.50
  23  -6   6   14.80    6.90
   7  16  -6    4.20    5.60
  23  -7   6    4.20    6.50
   8  15  -6   -2.40    5.20
  23  -8   6    2.20    6.30
   9  14  -6   -2.40    5.20
  23  -9   6    4.70    6.30
  10  13  -6    1.10    5.60
 -13  23   6    4.20    6.60
  23 -10   6    6.20    6.70
  11  12  -6   15.20    6.00
 -12  23   6   16.90    7.00
  23 -11   6   17.00    7.10
  12  11  -6   40.60    7.20
  23 -12   6   53.79    8.70
 -11  23   6   56.59    8.60
  13  10  -6   27.30    7.00
  23 -13   6   36.00    8.60
 -10  23   6   33.00    8.00
  14   9  -6    4.40    5.60
  -9  23   6   12.80    6.40
  23 -14   6   13.00    7.50
  15   8  -6   -0.70    5.70
  23 -15   6    9.00    7.20
  -8  23   6    6.30    6.40
  16   7  -6   12.80    5.90
  -7  23   6   26.50    7.60
  23 -16   6   30.60    7.90
  17   6  -6   82.79    8.50
  23 -17   6   83.59   10.00
  -6  23   6   84.19   10.00
  18   5  -6   33.70    6.80
  -5  23   6   24.30    7.90
  23 -18   6   37.10    8.60
  19   4  -6   -6.90    5.80
  -4  23   6  -17.10    6.50
  23 -19   6    5.20    7.30
  20   3  -6   16.20    6.60
  23 -20   6   13.20    7.60
  -3  23   6    5.60    7.10
  -2  23   6   -4.50    7.70
  23 -21   6    6.00    8.10
  24  -4   6   63.49   10.40
   5  19  -6   32.60    7.90
  24  -5   6   23.40    8.20
   6  18  -6   -2.40    6.20
  24  -6   6   -7.40    6.80
   7  17  -6   -0.50    6.10
  24  -7   6  -13.50    6.80
   8  16  -6   -2.70    5.90
  24  -8   6    5.60    6.70
   9  15  -6   -4.20    5.70
  24  -9   6   -5.40    6.40
  10  14  -6   -7.20    5.80
  24 -10   6    6.00    6.80
  11  13  -6   -2.90    5.70
 -13  24   6    1.90    7.30
  24 -11   6   -5.60    7.00
  12  12  -6    7.40    6.40
 -12  24   6   17.50    7.70
  24 -12   6    4.00    7.30
  13  11  -6   12.00    6.60
  24 -13   6    3.60    7.70
 -11  24   6   12.40    6.90
  14  10  -6    1.40    6.20
 -10  24   6    5.00    7.10
  24 -14   6   -2.10    7.30
  15   9  -6    1.40    5.90
  -9  24   6    1.80    6.80
  24 -15   6   -6.60    6.70
  16   8  -6    1.50    5.50
  24 -16   6    7.30    7.40
  -8  24   6    2.30    6.70
  17   7  -6    4.40    6.10
  24 -17   6   -7.10    7.00
  -7  24   6    0.10    6.70
  18   6  -6    5.00    6.50
  -6  24   6    0.60    7.20
  24 -18   6   -9.50    7.40
  19   5  -6    8.20    6.50
  24 -19   6  -11.70    7.40
  -5  24   6   17.40    8.10
  20   4  -6   16.90    7.40
  24 -20   6    6.80    8.30
  25  -7   6   31.90    9.20
   8  17  -6   -0.60    6.90
  25  -8   6   -3.60    7.80
   9  16  -6   40.00    8.00
  25  -9   6   34.20    8.90
  10  15  -6   57.79    8.50
  25 -10   6   35.70    9.20
  11  14  -6    6.90    6.80
  25 -11   6    4.10    8.30
  12  13  -6  -15.00    6.10
 -13  25   6    1.30    7.60
  25 -12   6  -23.00    7.50
  13  12  -6  -10.90    6.50
 -12  25   6   -1.40    7.70
  25 -13   6  -17.80    8.10
  14  11  -6    1.60    6.70
 -11  25   6    4.90    7.60
  25 -14   6   -0.40    8.50
  15  10  -6    0.70    6.50
  25 -15   6    3.70    8.30
 -10  25   6    4.40    7.50
  16   9  -6    4.30    6.40
  -9  25   6   15.40    8.00
  25 -16   6   -8.10    7.90
  17   8  -6   13.20    6.90
  -8  25   6   22.40    8.20
  25 -17   6    6.20    8.20
  18   7  -6   38.50    8.00
  25 -18   6   21.10    9.20
  -7  25   6   31.60   12.50
   0   0   7  978.50   25.60
   0  -1   7   25.90    2.10
  -1   1   7   32.10    1.90
   1   0   7   30.80    2.30
  -1   0   7   31.70    2.00
   0   1   7   31.70    2.10
   1  -1   7   31.30    2.40
  -2   1   7   39.20    1.90
   1   1   7   35.00    2.20
   1  -2   7   39.20    2.60
   2   1   7   59.49    3.00
   1  -3   7   68.69    3.40
  -3   2   7   63.49    2.20
   2   0   7   31.10    2.30
   0  -2   7   37.20    2.50
  -2   2   7   37.60    1.80
   2  -1   7   42.60    2.70
  -1   2   7   37.30    2.00
  -1  -1   7   38.50    2.40
  -2   0   7   37.00    2.10
   2  -2   7   40.40    2.80
   0   2   7   36.00    2.10
   1   2   7  318.77    9.00
   2  -3   7  306.07    9.60
   4  -2  -7   11.20    0.90
   2  -4   7    9.80    1.80
   2   2   7   12.00    1.50
   2  -5   7  630.94   17.80
   3   2   7  626.54   17.30
   3   1   7  346.27   10.20
   1  -4   7  343.87   10.50
   0  -3   7   43.20    2.80
   3   0   7   48.50    2.90
  -2   3   7  290.37    8.10
  -1  -2   7  300.47    8.90
   3  -1   7  316.07    9.30
   3  -2   7   63.19    3.60
  -1   3   7   66.29    2.60
  -2  -1   7   63.29    2.90
   3   0  -7   50.19    2.30
   0   3   7   52.09    2.40
   3  -3   7   43.00    3.10
   4  -1  -7  345.67    9.40
   3  -4   7  353.26   10.80
   1   3   7  346.67    9.90
   5  -2  -7  225.88    6.30
   2   3   7  229.28    7.20
   3  -5   7  225.48    7.90
   6  -3  -7   74.49    2.50
   3  -6   7   81.89    4.30
   3   3   7   69.39    3.60
   4   3   7    7.30    1.60
   3  -7   7    5.60    1.80
   2  -6   7  142.39    5.70
   4   2   7  130.59    5.20
   1  -5   7    7.40    1.70
   4   1   7    5.50    1.50
   0  -4   7    4.00    1.40
   4   0   7    4.40    1.40
   4  -1   7  333.67   10.10
  -1  -3   7  332.57    9.90
  -2  -2   7    9.90    1.50
  -2   4   7   11.90    1.00
   4  -2   7   14.80    2.00
   3   1  -7  342.37    9.60
   4  -3   7  334.17   10.50
  -1   4   7  334.77    9.30
   4   0  -7    7.10    1.10
   4  -4   7    8.00    1.90
   0   4   7    7.40    1.20
   5  -1  -7   89.29    3.20
   4  -5   7   96.19    4.60
   1   4   7   89.19    3.70
   6  -2  -7   50.69    2.30
   4  -6   7   53.09    3.80
   2   4   7   48.60    3.00
   7  -3  -7   97.69    3.30
   4  -7   7   92.19    5.10
   3   4   7   96.09    4.30
   8  -4  -7   60.59    2.50
   4  -8   7   57.39    4.30
   4   4   7   56.59    3.70
   9  -5  -7   82.79    3.10
   4  -9   7   78.39    5.00
   5   4   7   81.89    4.50
   3  -8   7   14.10    2.30
   5   3   7   13.70    2.10
   2  -7   7  136.79    5.90
   5   2   7  129.89    5.50
   1  -6   7  294.07    9.50
   5   1   7  277.47    9.10
   0  -5   7  119.49    5.10
   5   0   7  127.59    5.10
  -1  -4   7   91.09    4.20
   5  -1   7   91.29    4.30
   2   3  -7  226.38    7.20
  -3   5   7  233.38    6.20
   5  -2   7  226.48    7.70
   3   2  -7  635.74   17.30
  -2   5   7  654.83   16.70
   5  -3   7  632.24   18.20
   4   1  -7    7.10    1.20
  -1   5   7    7.80    1.10
   5  -4   7    5.40    1.80
   5   0  -7  122.69    4.20
   5  -5   7  116.59    5.50
   0   5   7  118.49    4.30
   6  -1  -7   35.70    2.20
   1   5   7   34.80    2.50
   5  -6   7   32.50    3.10
   7  -2  -7  660.23   17.70
   2   5   7  693.13   18.50
   5  -7   7  665.53   19.50
   8  -3  -7   17.10    1.60
   5  -8   7   13.50    2.50
   3   5   7   15.70    2.10
   9  -4  -7  109.39    3.90
   4   5   7  101.59    4.90
   5  -9   7  109.09    5.70
  10  -5  -7   41.10    2.60
   5 -10   7   43.80    3.90
   5   5   7   50.59    3.80
  11  -6  -7   14.70    1.90
   5 -11   7   15.70    3.00
   6   5   7   19.50    2.80
  10  -6  -7  272.17    7.80
   4 -10   7  269.87   10.00
   6   4   7  271.57    9.40
   9  -6  -7   26.60    1.80
   3  -9   7   22.00    3.00
   6   3   7   19.80    2.60
   6   2   7  114.09    5.30
   2  -8   7  120.99    5.70
   6   1   7    8.70    1.90
   1  -7   7    5.20    1.90
   6   0   7   65.39    3.90
   0  -6   7   68.49    4.10
   1   5  -7   30.90    2.60
   6  -1   7   32.20    2.80
  -1  -5   7   38.40    3.10
   2   4  -7   49.99    3.10
   6  -2   7   58.49    3.60
   3   3  -7   73.29    3.50
   6  -3   7   72.59    4.10
  -3   6   7   78.19    2.70
   4   2  -7  137.39    5.10
  -2   6   7  147.39    4.60
   6  -4   7  144.69    6.20
   5   1  -7  285.67    8.40
  -1   6   7  281.57    8.20
   6  -5   7  275.97    9.70
   6   0  -7   66.19    3.10
   0   6   7   66.49    3.20
   6  -6   7   65.39    4.40
   7  -1  -7    9.70    1.40
   6  -7   7   12.00    2.30
   1   6   7   10.50    1.70
   8  -2  -7   40.60    2.60
   2   6   7   41.40    3.10
   6  -8   7   44.90    3.80
   9  -3  -7   94.09    3.80
   3   6   7   90.39    4.50
   6  -9   7   90.69    5.60
  10  -4  -7   31.20    2.60
   4   6   7   27.50    2.90
   6 -10   7   30.50    3.40
  11  -5  -7   55.79    3.20
   6 -11   7   50.69    4.40
   5   6   7   54.89    4.50
   5   6   7   56.89    4.20
   6   6   7    0.10    2.30
   6   6   7    3.20    2.00
   6 -12   7   -0.10    2.30
   7   6   7   91.19    5.80
   6 -13   7   94.89    6.30
   7   6   7   99.19    6.00
   7   5   7   49.80    4.10
   5 -12   7   48.00    4.50
   7   4   7   51.79    4.20
   4 -11   7   45.30    4.20
   7   3   7   14.20    2.50
   3 -10   7   10.90    2.60
   7   2   7   50.09    3.90
   2  -9   7   51.49    4.20
   7   1   7    4.20    1.90
   1  -8   7    7.60    2.10
   7   0   7   29.30    3.00
   0  -7   7   39.30    3.30
   1   6  -7   10.50    1.90
   7  -1   7   10.10    2.10
   2   5  -7  676.33   19.00
   7  -2   7  686.93   19.40
   3   4  -7   94.79    4.30
  -4   7   7   95.49    3.10
   7  -3   7   96.49    4.90
   4   3  -7    5.20    1.50
  -3   7   7    7.60    1.10
   7  -4   7    5.50    2.00
   5   2  -7  128.09    5.00
  -2   7   7  134.09    4.50
   7  -5   7  134.89    6.20
   6   1  -7    5.10    1.50
  -1   7   7    8.50    1.40
   7  -6   7    8.40    2.20
   7   0  -7   35.70    2.70
   7  -7   7   39.20    3.60
   0   7   7   33.20    2.60
   8  -1  -7   45.80    3.00
   7  -8   7   42.50    3.80
   1   7   7   43.40    3.20
   9  -2  -7  137.09    5.10
   2   7   7  132.49    6.40
   7  -9   7  140.69    6.70
   2   7   7  138.99    5.70
  10  -3  -7   61.09    3.40
   3   7   7   60.09    4.10
   7 -10   7   57.99    4.80
   3   7   7   60.39    4.50
  11  -4  -7    7.40    1.80
   4   7   7   18.40    3.00
   7 -11   7   13.30    3.00
   4   7   7   12.40    2.30
  12  -5  -7   27.60    2.60
   7 -12   7   25.00    3.50
   5   7   7   23.20    3.00
   5   7   7   25.50    3.40
   6   7   7  120.79    6.60
   6   7   7  133.79    6.80
   7 -13   7  128.99    7.10
   7   7   7    4.00    3.00
   7 -14   7    7.40    3.30
   7   7   7    0.40    2.60
   8   7   7   30.90    4.10
   8   7   7   29.80    4.10
   7 -15   7   30.90    4.50
   6 -14   7    7.50    3.10
   8   6   7    5.80    2.90
   8   6   7    7.00    2.90
   8   5   7   -0.60    2.30
   5 -13   7    0.10    2.50
   4 -12   7    8.40    2.80
   8   4   7    6.20    2.50
   8   3   7   24.80    3.10
   3 -11   7   29.90    3.60
   2 -10   7   64.99    4.80
   8   2   7   53.09    4.30
   1  -9   7  279.07   10.10
   8   1   7  286.37    9.80
   0   8  -7  267.07    9.20
   8   0   7  259.07    9.30
   1   7  -7   48.10    3.70
   8  -1   7   47.70    4.00
   2   6  -7   44.10    3.40
   8  -2   7   39.30    3.40
   3   5  -7   11.50    2.00
  -5   8   7   17.40    1.40
   8  -3   7   16.50    2.60
   4   4  -7   51.59    3.50
  -4   8   7   59.19    2.50
   8  -4   7   54.19    4.20
   5   3  -7   19.70    2.10
   8  -5   7   16.00    2.70
  -3   8   7   16.10    1.50
   6   2  -7  113.59    4.70
   8  -6   7  115.39    6.10
  -2   8   7  116.19    4.30
   7   1  -7    2.10    1.40
   8  -7   7    3.50    2.20
  -1   8   7    3.90    1.40
   8   0  -7  264.77    8.10
   0   8   7  249.48    8.10
   8  -8   7  232.38    9.50
   9  -1  -7   77.79    3.90
   1   8   7   78.89    5.10
   8  -9   7   76.79    5.40
   1   8   7   76.69    4.20
  10  -2  -7    6.70    1.80
   2   8   7    8.60    2.00
   8 -10   7    7.60    2.60
   2   8   7    9.90    2.50
  11  -3  -7  125.49    5.40
   8 -11   7  133.29    7.10
   3   8   7  139.79    6.80
   3   8   7  115.29    5.70
  12  -4  -7   24.40    2.60
   4   8   7   19.80    2.90
   4   8   7   32.40    3.80
   8 -12   7   23.70    3.60
   8 -13   7    7.50    3.00
   5   8   7   -0.20    2.50
   5   8   7    3.20    2.40
   8 -14   7    6.60    2.90
   6   8   7    5.00    3.10
   6   8   7    7.20    3.10
   8 -15   7   41.90    4.90
   7   8   7   35.60    4.50
   7   8   7   35.80    4.30
   8   8   7    2.30    3.10
   8 -16   7    4.10    3.40
   8   8   7    1.40    2.90
   9   8   7    0.20    3.10
   9   8   7   -3.30    2.90
   8 -17   7   -0.20    3.80
   9   7   7   -1.80    2.60
   9   7   7   -0.20    2.90
   7 -16   7    1.40    3.40
   9   6   7    6.00    3.10
   9   6   7    0.80    2.90
   6 -15   7    1.70    3.00
   9   5   7   19.00    3.60
   5 -14   7   17.10    3.60
   9   4   7   45.20    4.40
   4 -13   7   65.49    5.50
   9   3   7  240.68    9.50
   3 -12   7  243.58    9.80
  -2  11  -7   69.99    5.30
   9   2   7   79.79    5.20
  -1  10  -7   56.29    4.40
   9   1   7   41.10    3.90
   0   9  -7   66.89    4.50
   9   0   7   55.09    4.50
   1   8  -7   81.99    4.80
   9  -1   7   70.19    4.90
   2   7  -7  144.19    6.10
  -7   9   7  146.09    4.30
   9  -2   7  133.49    6.30
   3   6  -7   93.09    4.80
   9  -3   7   95.29    5.20
  -6   9   7   95.69    3.30
   4   5  -7  101.89    4.90
  -5   9   7  110.59    3.80
   9  -4   7  116.39    5.80
   5   4  -7   84.09    4.30
   9  -5   7   82.89    5.10
  -4   9   7   85.49    3.40
   6   3  -7   23.50    2.40
  -3   9   7   23.10    2.00
   9  -6   7   24.70    3.30
   7   2  -7   47.90    3.30
  -2   9   7   42.50    2.90
   9  -7   7   54.49    4.50
   8   1  -7  285.17    9.00
  -1   9   7  269.87    8.70
   9  -8   7  283.47   10.60
  -1   9   7  279.27   10.20
   9   0  -7   61.69    3.70
   0   9   7   49.80    3.60
   0   9   7   65.99    4.80
   9  -9   7   52.89    4.60
  10  -1  -7   73.69    4.00
   1   9   7   65.69    5.00
   9 -10   7   66.49    5.20
   1   9   7   64.79    4.10
  11  -2  -7   13.30    2.20
   2   9   7    8.80    2.30
   2   9   7   11.20    2.90
   9 -11   7    8.10    2.80
  12  -3  -7   62.69    4.30
   3   9   7   55.69    4.50
   9 -12   7   69.49    5.70
   3   9   7   64.99    5.20
  13  -4  -7    1.50    2.00
   4   9   7    2.30    2.40
   4   9   7    3.20    2.80
   9 -13   7    3.00    2.80
   9 -14   7    6.60    3.30
   5   9   7   -0.40    2.70
   5   9   7    7.20    3.10
   6   9   7   44.80    4.90
   6   9   7   36.80    4.30
   9 -15   7   34.50    4.60
   7   9   7    2.70    3.10
   9 -16   7   -1.70    3.20
   7   9   7    3.00    3.10
   8   9   7   49.20    5.40
   8   9   7   44.90    5.30
   9 -17   7   56.49    6.20
   9   9   7    0.70    3.60
   9   9   7    7.60    3.70
   9 -18   7   -0.40    4.20
  10   9   7    3.70    4.30
   9 -19   7   -2.50    4.60
  10   9   7   -2.80    3.90
   8 -18   7    9.80    4.50
  10   8   7    6.30    4.10
  10   8   7    4.70    3.60
  10   7   7    2.40    3.00
  10   7   7   -1.10    3.20
   7 -17   7   -2.80    3.50
  10   6   7   49.50    4.90
  10   6   7   49.70    5.10
   6 -16   7   49.40    5.50
   5 -15   7   27.70    4.20
  10   5   7   28.20    4.10
  -4  14  -7   34.40    4.20
   4 -14   7   31.70    4.30
  10   4   7   41.10    4.40
  -3  13  -7   14.70    3.10
  10   3   7   10.80    3.10
  -2  12  -7    0.30    2.40
  10   2   7    4.40    2.50
  -1  11  -7   95.09    5.90
  10   1   7  103.69    6.10
   0  10  -7   21.00    2.90
  10   0   7   17.90    3.10
   1   9  -7   65.99    4.70
  10  -1   7   70.49    5.10
   2   8  -7    7.20    2.20
  10  -2   7    5.40    2.30
  -8  10   7    7.80    1.50
   3   7  -7   62.19    4.20
  -7  10   7   60.89    2.70
  10  -3   7   60.79    4.60
   4   6  -7   28.40    2.90
  -6  10   7   29.30    2.20
  10  -4   7   30.90    3.40
   5   5  -7   42.30    3.60
  10  -5   7   41.40    3.80
  -5  10   7   48.00    2.60
   6   4  -7  280.37    9.30
  -4  10   7  280.37    8.40
  10  -6   7  277.07   10.30
   7   3  -7   16.00    2.30
  -3  10   7   14.10    1.80
  10  -7   7   15.70    3.10
   8   2  -7   51.49    3.70
  10  -8   7   49.80    4.40
  -2  10   7   50.79    3.30
  -2  10   7   49.00    4.60
   9   1  -7   49.70    3.60
  -1  10   7   48.10    3.50
  -1  10   7   45.80    4.50
  10  -9   7   47.10    4.50
  10   0  -7   21.60    2.60
  10 -10   7   15.50    3.20
   0  10   7   22.20    3.40
   0  10   7   24.70    2.60
  11  -1  -7   12.00    2.30
   1  10   7   12.20    3.20
  10 -11   7   12.30    3.10
   1  10   7   14.40    2.50
  12  -2  -7   23.20    2.90
   2  10   7   30.40    3.30
   2  10   7   25.00    3.70
  10 -12   7   31.10    4.10
  13  -3  -7    3.60    2.30
   3  10   7    4.10    2.60
  10 -13   7   10.40    3.40
   3  10   7    4.50    2.90
  14  -4  -7  108.89    6.90
  10 -14   7  129.29    8.00
   4  10   7  120.59    7.30
   4  10   7  100.79    6.70
   5  10   7    2.00    3.10
   5  10   7    0.50    2.80
  10 -15   7    6.10    3.40
   6  10   7   17.60    3.70
  10 -16   7   11.90    3.80
   6  10   7   12.00    3.80
   7  10   7   20.60    4.50
  10 -17   7   29.50    5.10
   7  10   7   24.80    4.50
   8  10   7   -4.70    3.40
   8  10   7    0.00    3.60
  10 -18   7    3.20    4.20
   9  10   7   -4.00    4.30
   9  10   7   -1.30    3.60
  10 -19   7   -1.40    4.80
  10 -20   7   -2.20    4.80
  10  10   7  -13.00    4.40
 -10  21  -7   13.50    5.40
  11  10   7   11.40    5.50
  10 -21   7   14.70    6.00
  -9  20  -7    5.70    4.70
  11   9   7    4.10    4.80
   9 -20   7    7.50    5.00
  -8  19  -7   44.70    6.00
  11   8   7   36.60    5.70
   8 -19   7   33.80    6.10
  -7  18  -7    2.70    3.80
  11   7   7    6.10    4.00
  -6  17  -7   -1.30    3.40
  11   6   7   -0.90    3.30
  -5  16  -7    4.50    3.80
  11   5   7    7.50    3.50
  -4  15  -7   -2.30    2.90
  11   4   7   -5.30    2.70
  -3  14  -7   25.70    3.90
  11   3   7   18.60    3.70
  -2  13  -7   26.20    3.80
  11   2   7   24.70    3.80
  -1  12  -7    3.60    2.70
  11   1   7    2.70    2.50
   0  11  -7  131.49    6.70
  11   0   7  127.89    6.80
   1  10  -7   13.80    2.80
  11  -1   7   15.10    2.90
   2   9  -7    6.20    2.40
  11  -2   7    9.60    2.80
   3   8  -7  124.29    6.10
  11  -3   7  130.19    6.60
   4   7  -7   13.40    2.50
  -7  11   7   11.30    1.50
  11  -4   7   10.80    2.70
   5   6  -7   56.59    4.20
  11  -5   7   64.49    4.90
  -6  11   7   61.29    3.10
   6   5  -7   15.20    2.40
  -5  11   7   14.90    1.80
  11  -6   7   14.40    2.90
   7   4  -7   45.50    3.80
  11  -7   7   38.10    4.00
  -4  11   7   42.90    3.00
   8   3  -7   22.90    2.70
  11  -8   7   40.30    4.30
  -3  11   7   25.20    2.40
  -3  11   7   30.60    3.80
   9   2  -7   73.99    4.60
  11  -9   7   83.09    6.10
  -2  11   7   73.19    4.30
  -2  11   7   82.79    5.50
  10   1  -7  104.89    5.30
  -1  11   7   97.09    6.10
  -1  11   7  101.89    5.00
  11 -10   7   96.49    6.50
  11   0  -7  120.19    6.00
   0  11   7  140.99    6.10
  11 -11   7  109.49    7.10
   0  11   7  120.89    6.90
  12  -1  -7   60.29    4.90
  11 -12   7   64.39    5.60
   1  11   7   67.29    4.80
   1  11   7   80.39    6.10
  13  -2  -7    0.40    2.20
   2  11   7   -2.90    2.70
   2  11   7    0.00    2.30
  11 -13   7   -0.90    2.70
  14  -3  -7   18.40    3.00
   3  11   7    4.30    3.10
  11 -14   7   16.20    4.10
   3  11   7   11.10    3.50
  11 -15   7   16.10    4.10
   4  11   7   18.10    4.10
   4  11   7   12.40    3.30
   5  11   7   13.90    3.90
   5  11   7   11.40    3.30
  11 -16   7    8.20    3.90
   6  11   7   -1.30    3.50
  11 -17   7   -6.90    3.80
   6  11   7    1.10    3.40
   7  11   7    7.00    3.90
   7  11   7   11.90    4.20
  11 -18   7   11.60    4.80
   8  11   7   -1.40    4.40
  11 -19   7    4.90    5.00
   8  11   7    3.60    4.20
  11 -20   7   12.40    5.70
   9  11   7    9.30    5.10
   9  11   7   12.90    4.90
  10  11   7   -6.20    4.60
  11 -21   7    0.60    5.60
 -11  22  -7   -2.70    5.20
  11  11   7   -3.60    4.90
  11 -22   7    3.60    6.10
 -11  23  -7   21.50    6.50
  12  11   7   22.30    6.60
 -10  22  -7    0.80    5.60
  12  10   7   -5.40    5.20
  -9  21  -7   17.60    5.70
  12   9   7   18.00    5.80
  -8  20  -7    3.90    4.50
  12   8   7  -17.20    3.90
  -7  19  -7    7.20    4.20
  12   7   7   -6.00    4.00
  -6  18  -7    9.60    4.40
  12   6   7   10.80    4.20
  -5  17  -7   19.10    4.40
  12   5   7   16.90    4.20
  -4  16  -7   40.60    4.90
  12   4   7   43.90    5.10
  -3  15  -7    7.70    3.40
  12   3   7    9.40    3.60
  -2  14  -7    5.90    3.00
  12   2   7    5.10    3.20
  -1  13  -7   44.20    4.50
  12   1   7   44.70    4.80
   0  12  -7   23.90    3.50
  12   0   7   28.70    3.80
   1  11  -7   66.49    5.70
  12  -1   7   69.59    5.80
   2  10  -7   30.70    3.60
  12  -2   7   22.10    3.50
   3   9  -7   67.39    5.00
  12  -3   7   61.19    5.20
   4   8  -7   23.50    3.10
  12  -4   7   27.60    3.70
   5   7  -7   26.60    3.30
  -7  12   7   25.40    2.20
  12  -5   7   22.70    3.50
   6   6  -7    1.00    2.20
  -6  12   7    1.70    1.60
  12  -6   7    0.50    2.30
   7   5  -7   54.39    4.20
  12  -7   7   51.19    4.70
  -5  12   7   52.09    3.50
   8   4  -7    7.90    2.30
  -4  12   7   12.50    3.20
  -4  12   7    9.10    1.90
  12  -8   7    7.60    3.10
   9   3  -7  244.48    9.00
  -3  12   7  262.37    8.50
  12  -9   7  239.78   10.40
  -3  12   7  253.27   10.20
  10   2  -7    0.20    2.30
  -2  12   7    3.40    2.00
  12 -10   7    4.90    2.90
  -2  12   7    0.70    2.60
  11   1  -7    3.30    2.50
  -1  12   7    2.50    2.80
  12 -11   7    4.10    3.10
  -1  12   7    2.60    2.10
  12   0  -7   24.00    3.30
   0  12   7   24.90    3.20
  12 -12   7   23.70    4.00
   0  12   7   36.90    4.70
  13  -1  -7    0.10    2.50
   1  12   7    1.90    2.50
  12 -13   7    7.80    3.40
   1  12   7    1.80    3.30
  14  -2  -7   14.80    3.20
   2  12   7   10.70    3.20
   2  12   7   11.60    3.70
  12 -14   7   10.20    3.80
  15  -3  -7   -1.10    3.20
   3  12   7    6.80    3.50
   3  12   7   -0.90    2.70
  12 -15   7   -1.40    3.40
   4  12   7    4.70    3.30
  12 -16   7    1.70    3.90
   4  12   7    3.80    3.60
   5  12   7    4.60    4.10
  12 -17   7   10.80    4.40
   5  12   7    7.70    3.60
   6  12   7   -1.80    3.80
   6  12   7    3.20    3.70
  12 -18   7   -1.50    4.10
  12 -19   7   17.30    5.50
   7  12   7   -1.00    4.50
   7  12   7    2.60    4.50
   8  12   7   14.00    5.20
  12 -20   7   17.10    5.40
   8  12   7    8.80    5.20
   9  12   7   19.50    5.40
  12 -21   7   29.30    6.60
   9  12   7   24.30    6.00
  12 -22   7   -0.20    5.90
  10  12   7   -3.60    4.90
 -12  23  -7    0.70    5.80
  12 -23   7   -2.10    6.10
  11  12   7    2.90    5.60
 -12  24  -7    1.20    6.30
  12  12   7   -5.00    6.00
 -12  25  -7    6.50    6.90
  13  12   7   -7.90    6.80
 -11  24  -7   -1.20    6.10
  13  11   7   -6.20    5.70
 -10  23  -7    9.70    6.10
  13  10   7   10.40    6.00
  -9  22  -7   -5.10    5.10
  13   9   7   -1.30    5.20
  -8  21  -7    4.70    5.30
  13   8   7   -0.60    5.30
  -7  20  -7    4.80    4.60
  13   7   7   -7.20    4.90
  -6  19  -7    2.40    4.10
  13   6   7   -8.60    4.10
  -5  18  -7   30.90    5.10
  13   5   7   13.70    4.80
  -4  17  -7    0.60    3.70
  13   4   7    0.80    3.70
  -3  16  -7   10.90    3.70
  13   3   7    1.00    3.60
  -2  15  -7  115.19    7.90
  13   2   7   95.19    7.80
  -1  14  -7    8.70    3.40
  13   1   7   -3.40    3.10
   0  13  -7   39.50    4.70
  13   0   7   33.20    4.50
   1  12  -7    2.80    2.90
  13  -1   7    1.00    2.90
   2  11  -7   -0.40    2.50
  13  -2   7   -2.20    2.60
   3  10  -7    6.80    2.70
  13  -3   7    7.10    2.80
   4   9  -7    3.60    2.50
  13  -4   7    5.00    2.80
   5   8  -7    2.10    2.50
  13  -5   7    0.70    2.60
   6   7  -7  131.89    6.60
  13  -6   7  130.29    7.20
   7   6  -7   81.29    5.60
  13  -7   7  105.29    6.80
  -6  13   7  100.09    4.80
   8   5  -7    0.30    2.20
  -5  13   7   -2.00    1.70
  -5  13   7   -0.90    2.50
  13  -8   7   -2.60    2.70
   9   4  -7   45.20    4.10
  -4  13   7   59.39    5.40
  -4  13   7   50.59    4.20
  13  -9   7   47.80    5.00
  10   3  -7   15.10    3.00
  13 -10   7   13.10    3.60
  -3  13   7   17.30    2.60
  -3  13   7   21.80    4.00
  11   2  -7   24.70    3.40
  -2  13   7   27.90    4.20
  -2  13   7   22.40    3.00
  13 -11   7   17.20    3.90
  12   1  -7   48.70    4.40
  13 -12   7   46.40    5.30
  -1  13   7   53.99    5.40
  -1  13   7   46.90    4.00
  13   0  -7   42.20    4.30
   0  13   7   37.90    4.00
  13 -13   7   47.10    5.30
   0  13   7   33.70    4.70
  14  -1  -7    5.10    2.80
  13 -14   7    3.20    3.70
   1  13   7    4.30    2.90
   1  13   7    2.90    3.40
  15  -2  -7   17.60    3.50
   2  13   7   24.70    4.70
  13 -15   7   23.20    4.80
   2  13   7   18.60    3.60
   3  13   7    2.70    3.00
   3  13   7   -5.40    3.40
  13 -16   7   -3.20    3.80
  13 -17   7    6.10    4.60
   4  13   7   -0.30    3.90
   4  13   7    4.80    3.60
   5  13   7   16.70    4.50
   5  13   7   39.10    6.00
  13 -18   7   34.70    5.80
   6  13   7   -5.50    4.20
  13 -19   7    3.00    4.90
   6  13   7   -7.70    4.00
   7  13   7    4.70    4.90
  13 -20   7   22.00    6.20
   7  13   7    2.20    4.60
   8  13   7   -0.80    4.50
   8  13   7    5.90    5.20
  13 -21   7    0.60    5.50
  13 -22   7   -6.00    6.00
   9  13   7    0.70    5.00
   9  13   7   -4.00    5.20
  10  13   7   -4.50    5.60
  13 -23   7   -7.90    5.90
 -13  24  -7    1.40    6.00
  11  13   7   -2.60    6.00
  13 -24   7   -6.70    6.80
 -13  25  -7    2.60    6.70
  12  13   7   -7.40    7.00
 -11  25  -7    4.90    7.20
  14  11   7   -3.50    6.80
 -10  24  -7    0.10    6.20
  14  10   7    0.40    6.20
  -9  23  -7   -4.30    5.60
  14   9   7    2.80    5.90
  -8  22  -7    6.00    5.80
  14   8   7    3.50    5.50
  -7  21  -7   -1.50    5.00
  14   7   7   -3.90    4.80
  -6  20  -7    6.30    4.90
  14   6   7   -1.10    5.10
  -5  19  -7   14.00    4.90
  14   5   7    3.00    4.70
  -4  18  -7   22.90    5.00
  14   4   7   16.20    4.80
  -3  17  -7    1.50    3.80
  14   3   7    8.40    4.10
  -2  16  -7   18.30    4.30
  14   2   7   12.50    4.40
  -1  15  -7    1.20    3.30
  14   1   7   -4.30    3.40
   0  14  -7   -0.90    3.10
  14   0   7   -6.70    3.10
   1  13  -7    3.80    3.10
  14  -1   7    1.40    3.30
   2  12  -7   18.30    3.70
  14  -2   7    6.00    3.50
   3  11  -7   11.30    3.30
  14  -3   7    4.30    3.30
   4  10  -7  108.09    6.60
  14  -4   7  108.99    7.30
   5   9  -7    3.50    2.70
  14  -5   7   -4.70    2.90
   6   8  -7    7.50    2.90
  14  -6   7    6.00    3.30
   7   7  -7    1.80    2.60
  14  -7   7   -0.40    3.10
   8   6  -7    6.10    2.80
  -6  14   7    6.20    2.40
  -6  14   7    7.00    3.30
  14  -8   7    2.00    3.20
   9   5  -7   15.80    3.10
  -5  14   7   20.30    2.80
  -5  14   7   13.20    3.50
  14  -9   7   12.90    3.90
  10   4  -7   34.60    3.90
  -4  14   7   42.70    3.70
  -4  14   7   37.70    4.70
  14 -10   7   37.70    4.90
  11   3  -7   24.10    3.60
  14 -11   7   25.80    4.40
  -3  14   7   26.40    4.50
  -3  14   7   25.10    3.30
  12   2  -7    8.50    3.00
  -2  14   7    4.50    2.70
  14 -12   7    2.60    3.30
  -2  14   7    0.30    3.30
  13   1  -7    6.30    3.00
  -1  14   7    4.20    2.80
  14 -13   7    3.70    3.60
  -1  14   7    5.70    3.30
  14   0  -7    3.00    3.00
   0  14   7   -4.70    2.70
  14 -14   7    3.00    3.80
   0  14   7    2.80    3.60
  15  -1  -7   45.10    4.60
  14 -15   7   45.40    5.70
   1  14   7   51.99    5.00
   1  14   7   42.50    6.00
  16  -2  -7   20.70    5.40
   2  14   7   11.00    4.90
   2  14   7   34.40    4.40
  14 -16   7   30.80    5.60
   3  14   7    4.70    4.40
  14 -17   7    9.60    4.70
   3  14   7   11.40    3.80
   4  14   7    4.50    3.90
  14 -18   7    9.00    5.00
   4  14   7   -2.30    4.20
   5  14   7   -9.00    4.30
   5  14   7   -6.30    4.70
  14 -19   7    4.50    5.00
  14 -20   7   15.70    5.80
   6  14   7   10.90    4.90
   6  14   7    1.50    5.20
  14 -21   7   -3.80    5.60
   7  14   7   -4.70    4.90
   7  14   7   -2.10    4.80
   8  14   7  -12.70    4.80
   8  14   7    1.70    5.30
  14 -22   7   -5.70    5.70
   9  14   7  -10.30    5.30
  14 -23   7   -7.00    5.90
   9  14   7   -3.20    5.70
  14 -24   7    4.20    7.00
  10  14   7   -1.00    6.50
 -14  25  -7    0.60    7.00
  11  14   7   -8.80    6.70
 -10  25  -7   -3.20    6.70
  15  10   7    0.40    7.10
  -9  24  -7    4.90    6.50
  15   9   7    5.50    6.50
  -8  23  -7   -3.60    5.30
  15   8   7   -5.90    5.20
  -7  22  -7    8.10    5.80
  15   7   7    3.10    5.80
  -6  21  -7    4.50    5.00
  15   6   7    6.00    5.40
  -5  20  -7    2.10    4.70
  15   5   7    1.90    5.20
  -4  19  -7   -1.30    4.40
  15   4   7   -8.40    4.10
  -3  18  -7   -8.60    3.90
  15   3   7   -2.20    4.20
  -2  17  -7   -5.40    3.60
  15   2   7   -2.50    3.80
  -1  16  -7   20.60    4.70
  15   1   7   19.00    4.50
   0  15  -7    1.50    3.40
  15   0   7   -0.50    3.60
   1  14  -7   47.90    5.30
  15  -1   7   44.60    5.50
   2  13  -7   20.70    3.90
  15  -2   7   18.00    4.20
   3  12  -7   -2.00    2.90
  15  -3   7    1.10    3.20
   4  11  -7   12.70    3.40
  15  -4   7   13.90    3.70
   5  10  -7   -0.60    2.80
  15  -5   7    2.20    3.30
   6   9  -7   40.70    4.40
  15  -6   7   38.60    5.00
   7   8  -7   37.20    4.20
  15  -7   7   40.60    5.00
   8   7  -7   32.50    4.10
  -7  15   7   26.00    4.60
  15  -8   7   29.80    4.70
   9   6  -7    2.60    2.80
  -6  15   7    2.00    3.70
  15  -9   7    0.80    3.60
  10   5  -7   30.40    4.00
  15 -10   7   28.50    4.90
  -5  15   7   32.70    5.00
  -5  15   7   35.60    3.60
  11   4  -7   -0.80    2.70
  -4  15   7   -3.60    3.10
  -4  15   7   -0.80    2.50
  15 -11   7    1.10    3.60
  12   3  -7   16.40    3.50
  -3  15   7    6.30    3.00
  -3  15   7    7.90    3.80
  15 -12   7    6.50    4.10
  13   2  -7  104.39    7.00
  -2  15   7  128.49    8.10
  15 -13   7  119.99    9.10
  -2  15   7   89.09    6.80
  14   1  -7    7.40    3.30
  -1  15   7   -3.20    2.80
  -1  15   7   -0.30    3.30
  15 -14   7   -2.80    3.50
  15   0  -7    3.80    3.30
   0  15   7   -3.10    3.40
   0  15   7   -3.20    3.10
  15 -15   7    1.00    4.10
  16  -1  -7   -1.20    3.20
   1  15   7    0.30    4.20
   1  15   7   -0.30    3.20
  15 -16   7    2.80    4.20
   2  15   7   11.40    4.70
  15 -17   7    5.90    4.60
   2  15   7   12.80    4.00
   3  15   7    4.50    4.10
   3  15   7   -2.70    4.60
  15 -18   7    8.50    5.20
   4  15   7   -5.80    4.70
   4  15   7  -13.20    4.30
  15 -19   7    2.80    5.50
   5  15   7   -6.40    4.40
   5  15   7   -8.60    4.90
  15 -20   7    5.10    5.60
   6  15   7   -2.70    5.30
  15 -21   7   29.50    6.80
   6  15   7   16.60    5.50
   7  15   7   13.30    5.80
  15 -22   7    2.90    6.30
   7  15   7    8.20    5.80
  15 -23   7   12.70    6.90
   8  15   7    8.00    5.90
   8  15   7   -4.70    5.60
   9  15   7   -4.90    6.30
   9  15   7   -7.90    8.50
  15 -24   7   -1.80    6.90
  10  15   7  -10.30    7.10
  15 -25   7   -6.30    7.40
  -9  25  -7    0.00    7.10
  16   9   7   -3.10    7.60
  -8  24  -7   -5.80    6.30
  16   8   7    2.80    6.70
  -7  23  -7    0.00    6.20
  16   7   7  -11.30    5.80
  -6  22  -7   -5.30    5.80
  16   6   7    2.10    5.90
  -5  21  -7    3.80    5.50
  16   5   7   -2.90    5.20
  -4  20  -7  -12.10    4.40
  16   4   7   -5.00    4.80
  -3  19  -7    3.60    4.70
  16   3   7    5.20    5.10
  -2  18  -7   -1.50    4.20
  16   2   7    7.80    5.00
  -1  17  -7   31.90    5.50
  16   1   7   40.60    5.90
   0  16  -7   -1.90    3.70
  16   0   7   -2.50    3.90
   1  15  -7   -3.40    3.30
  16  -1   7    2.80    3.90
   2  14  -7   24.80    4.60
  16  -2   7   27.10    4.90
   3  13  -7   -4.80    3.20
  16  -3   7    0.20    3.30
   4  12  -7   -0.10    3.40
  16  -4   7    6.00    3.70
   5  11  -7    4.80    3.50
  16  -5   7    8.90    3.80
   6  10  -7   13.40    3.70
  16  -6   7   16.90    4.10
   7   9  -7    3.30    3.20
  16  -7   7    2.90    3.40
   8   8  -7    0.90    2.80
  -8  16   7    8.10    3.80
  16  -8   7    0.10    3.20
   9   7  -7   -1.90    2.80
  16  -9   7    2.20    3.70
  -7  16   7   -3.30    3.40
  10   6  -7   52.29    5.10
  -6  16   7   62.69    6.20
  16 -10   7   55.69    6.30
  11   5  -7    8.10    3.50
  -5  16   7   -5.40    3.80
  16 -11   7   10.10    4.20
  12   4  -7   42.90    4.80
  -4  16   7   35.20    5.50
  -4  16   7   50.49    4.50
  16 -12   7   49.10    6.20
  13   3  -7    7.10    3.30
  16 -13   7    9.60    4.40
  -3  16   7    4.10    3.20
  -3  16   7    8.50    4.10
  14   2  -7   20.80    4.00
  -2  16   7   17.40    3.80
  16 -14   7   13.20    4.80
  -2  16   7   22.40    5.00
  15   1  -7   25.60    4.30
  -1  16   7   26.20    5.40
  -1  16   7   21.40    3.90
  16 -15   7   33.20    5.80
  16   0  -7    7.30    3.70
   0  16   7    5.60    3.60
  16 -16   7    9.90    5.00
   0  16   7   -1.90    4.30
  16 -17   7   14.10    5.70
   1  16   7   18.50    4.30
   1  16   7   11.00    5.00
  16 -18   7    1.90    5.40
   2  16   7   -4.80    4.60
   2  16   7   -4.60    3.90
   3  16   7    6.00    4.90
  16 -19   7   17.40    6.10
   3  16   7   20.40    6.10
   4  16   7   -1.30    4.70
  16 -20   7    3.20    5.80
   4  16   7    1.60    4.80
   5  16   7   -2.10    5.10
  16 -21   7    9.50    6.00
   5  16   7    3.60    5.50
  16 -22   7   18.80    6.80
   6  16   7   10.00    5.60
   6  16   7    9.60    6.30
  16 -23   7    1.90    6.40
   7  16   7    8.60    6.40
   7  16   7    7.70    6.00
   8  16   7  -15.00    6.30
  16 -24   7   -6.10    7.00
   8  16   7   -7.40    6.10
  16 -25   7   -9.50    7.40
   9  16   7  -20.60    6.90
  -7  24  -7   -7.10    6.10
  17   7   7   -7.60    6.40
  -6  23  -7   -0.10    6.10
  17   6   7   11.80    6.60
  -5  22  -7   -3.80    5.50
  17   5   7   -0.90    5.90
  -4  21  -7   17.70    5.70
  17   4   7   12.30    6.40
  -3  20  -7    2.40    4.70
  17   3   7    0.50    5.50
  -2  19  -7   -2.60    4.60
  17   2   7    2.50    5.20
  -1  18  -7    8.50    4.70
  17   1   7    4.90    4.90
   0  17  -7    4.90    4.50
  17   0   7    8.40    4.70
   1  16  -7    3.60    4.00
  17  -1   7   16.80    5.00
   2  15  -7    5.30    4.10
  17  -2   7    2.00    4.30
   3  14  -7    8.80    4.20
  17  -3   7   10.10    4.30
   4  13  -7   -3.50    3.40
  17  -4   7   -1.10    3.70
   5  12  -7    8.60    4.00
  17  -5   7   11.10    4.40
   6  11  -7   -2.70    3.40
  17  -6   7    1.70    3.70
   7  10  -7   21.90    4.50
  17  -7   7   27.30    4.80
   8   9  -7   46.70    5.20
  17  -8   7   48.80    5.90
   9   8  -7   -1.30    3.20
  -8  17   7    2.50    3.90
  17  -9   7   -1.20    3.90
  10   7  -7   -2.40    3.30
  17 -10   7   -0.60    4.00
  -7  17   7    0.90    3.70
  11   6  -7   -8.30    3.10
  -6  17   7   -6.30    3.70
  17 -11   7   -1.10    4.20
  12   5  -7   10.10    3.90
  -5  17   7   16.50    4.80
  17 -12   7   23.30    5.30
  13   4  -7    0.50    3.50
  -4  17   7   -0.30    4.00
  17 -13   7    5.10    4.50
  -4  17   7    2.00    4.10
  14   3  -7    1.50    3.50
  17 -14   7   10.30    4.80
  -3  17   7    5.20    3.30
  -3  17   7    7.90    4.40
  15   2  -7   -8.10    3.40
  17 -15   7    2.30    4.80
  -2  17   7   -3.90    3.90
  -2  17   7   -3.00    3.30
  16   1  -7   28.20    4.80
  17 -16   7   39.20    6.50
  -1  17   7   28.00    6.00
  -1  17   7   32.70    4.70
  17   0  -7    6.70    4.30
  17 -17   7   10.70    5.70
   0  17   7   -3.10    4.70
   0  17   7   10.20    4.20
  17 -18   7   -3.10    5.50
   1  17   7    1.10    4.30
   1  17   7   -2.80    4.80
  17 -19   7   19.00    6.70
   2  17   7   29.40    6.40
   2  17   7    5.20    5.00
   3  17   7   -2.80    4.70
   3  17   7   -0.10    5.10
  17 -20   7    8.90    5.90
   4  17   7    9.50    5.90
  17 -21   7   -2.60    6.00
   4  17   7    2.60    5.30
   5  17   7   -8.20    5.90
  17 -22   7   -2.40    6.40
   5  17   7    5.00    5.70
   6  17   7    5.30    6.30
   6  17   7    9.20    6.10
  17 -23   7   10.00    7.30
  17 -24   7   -1.60    7.30
   7  17   7  -16.80    6.20
   7  17   7  -17.00    6.70
  -6  24  -7    2.00    6.40
  18   6   7    9.60    7.30
  -5  23  -7   -0.10    5.80
  18   5   7   11.10    6.90
  -4  22  -7   -3.70    5.50
  18   4   7    3.80    6.60
  -3  21  -7    5.20    5.80
  18   3   7    4.70    6.20
  -2  20  -7   -0.30    5.00
  18   2   7   -7.40    5.20
  -1  19  -7   -0.80    4.90
  18   1   7    7.80    5.80
   0  18  -7   13.30    5.20
  18   0   7    5.90    5.30
   1  17  -7   -3.80    4.50
  18  -1   7   -2.70    4.80
   2  16  -7   -1.20    4.40
  18  -2   7   -6.00    4.60
   3  15  -7   -0.50    4.20
  18  -3   7    5.90    4.70
   4  14  -7    2.70    4.20
  18  -4   7   -1.10    4.30
   5  13  -7   21.60    4.90
  18  -5   7   24.70    5.20
   6  12  -7   -3.20    3.60
  18  -6   7    4.50    4.40
   7  11  -7    5.50    4.20
  18  -7   7   10.80    4.50
   8  10  -7   -5.80    3.30
  18  -8   7   -1.40    3.90
   9   9  -7    1.00    3.50
  -9  18   7    2.70    4.50
  18  -9   7    5.70    4.60
  10   8  -7    0.90    3.60
  18 -10   7   10.90    5.00
  -8  18   7    2.30    4.50
  11   7  -7   -2.90    3.50
  18 -11   7    5.10    4.80
  -7  18   7    1.40    4.40
  12   6  -7    1.90    3.90
  -6  18   7   17.40    5.10
  18 -12   7   10.50    5.10
  13   5  -7   18.10    4.70
  18 -13   7   17.20    5.70
  -5  18   7    5.00    4.70
  14   4  -7   18.50    4.70
  -4  18   7   19.60    5.70
  18 -14   7   34.10    6.30
  15   3  -7   -2.40    3.70
  -3  18   7   -7.30    4.40
  18 -15   7   -6.80    4.80
  -3  18   7   -2.60    4.40
  16   2  -7   -2.40    4.00
  -2  18   7    8.10    4.20
  18 -16   7   -1.20    5.30
  -2  18   7    4.60    5.10
  17   1  -7    8.10    4.30
  -1  18   7    3.70    5.10
  18 -17   7    7.20    5.50
  -1  18   7   10.00    4.30
   0  18   7    5.30    5.90
  18 -18   7   12.60    6.20
   0  18   7    8.30    4.80
  18 -19   7   10.50    6.40
   1  18   7   -2.50    5.60
   1  18   7    1.50    4.90
   2  18   7   -0.60    4.80
   2  18   7   -6.10    5.50
  18 -20   7    0.80    6.20
   3  18   7    4.70    5.50
  18 -21   7    3.70    6.70
   3  18   7   -2.40    5.80
  18 -22   7    2.80    6.80
   4  18   7  -13.40    5.80
   4  18   7    2.80    5.40
   5  18   7    4.00    6.40
   5  18   7   -5.70    6.10
  18 -23   7   -0.80    7.10
   6  18   7   -9.30    6.70
   6  18   7  -13.90    6.30
  18 -24   7   -3.00    7.50
  -5  24  -7   -1.80    6.60
  -4  23  -7    1.70    6.20
  19   4   7   -6.50    6.20
  -3  22  -7    7.20    6.30
  19   3   7    5.20    6.70
  -2  21  -7   -1.70    5.40
  19   2   7   -9.00    5.80
  -1  20  -7    2.90    5.40
  19   1   7  -16.30    5.40
   0  19  -7   -5.00    5.10
  19   0   7  -13.50    5.40
   1  18  -7   12.80    5.60
  19  -1   7   -1.50    5.60
   2  17  -7   15.90    5.50
  19  -2   7   10.30    6.10
   3  16  -7   15.70    5.20
  19  -3   7    7.10    5.60
   4  15  -7    0.60    4.40
  19  -4   7  -11.90    4.90
   5  14  -7   -0.40    4.40
  19  -5   7   -6.60    5.10
   6  13  -7    5.20    4.50
  19  -6   7    4.70    5.30
   7  12  -7    6.70    4.50
  19  -7   7   -2.50    4.80
   8  11  -7   -1.70    3.80
  19  -8   7    3.90    5.00
   9  10  -7    5.40    4.20
  19  -9   7   -1.10    5.00
  10   9  -7   -1.70    3.70
  -9  19   7    0.20    4.80
  19 -10   7   -2.40    5.10
  11   8  -7   44.80    5.70
  19 -11   7   43.60    6.90
  -8  19   7   35.20    6.40
  12   7  -7   -1.20    3.80
  19 -12   7   -5.10    5.30
  -7  19   7    8.70    5.10
  13   6  -7   -2.50    4.00
  -6  19   7   -2.90    4.50
  19 -13   7   -8.60    5.20
  14   5  -7    9.90    4.40
  19 -14   7    5.00    5.90
  -5  19   7    7.30    5.20
  15   4  -7   -5.50    3.90
  19 -15   7   -7.40    5.30
  -4  19   7   -9.50    4.50
  16   3  -7    0.10    4.30
  -3  19   7    7.90    5.40
  19 -16   7    1.30    5.60
  17   2  -7    1.80    4.40
  19 -17   7    0.20    5.70
  -2  19   7   -8.40    5.00
  18   1  -7   13.30    7.00
  -1  19   7    6.80    4.90
  19 -18   7   13.20    6.40
  -1  19   7   -2.50    5.90
  19 -19   7   -5.80    6.10
   0  19   7  -13.80    5.40
   0  19   7   -1.90    5.00
   1  19   7   -9.30    5.90
   1  19   7   -7.40    5.30
  19 -20   7   -1.40    6.20
  19 -21   7   -2.40    6.20
   2  19   7   -2.60    5.50
   2  19   7   -8.10    5.70
  19 -22   7   14.90    7.50
   3  19   7   16.20    6.70
   3  19   7    3.60    6.90
  19 -23   7   10.00    7.60
   4  19   7   -5.70    6.80
   4  19   7    2.80    6.50
   5  19   7  -11.80    7.00
  19 -24   7   -8.50    7.50
   5  19   7  -15.60    7.20
  -3  23  -7    4.70    6.80
  20   3   7    0.80    7.10
  -2  22  -7   -2.20    6.00
  20   2   7   -2.30    6.30
  -1  21  -7  -11.50    5.40
  20   1   7   -3.10    6.20
   0  20  -7   36.50    6.90
  20   0   7   36.00    7.60
   1  19  -7   -5.20    5.20
  20  -1   7   -9.10    5.80
   2  18  -7   -4.80    5.20
  20  -2   7   -2.80    5.60
   3  17  -7   -0.50    5.10
  20  -3   7   -3.90    5.30
   4  16  -7   -6.30    4.50
  20  -4   7   -6.40    5.10
   5  15  -7    6.20    4.80
  20  -5   7  -11.70    5.10
   6  14  -7    3.00    4.80
  20  -6   7   -1.90    5.40
   7  13  -7    1.10    4.40
  20  -7   7   -2.10    5.60
   8  12  -7   14.70    5.10
  20  -8   7    8.20    5.70
   9  11  -7   13.80    5.00
  20  -9   7    9.40    6.00
  10  10  -7   -5.20    4.10
  20 -10   7  -14.60    4.90
  11   9  -7    5.60    4.60
  20 -11   7    5.80    6.10
  -9  20   7  -11.20    5.50
  12   8  -7  -10.20    4.20
  -8  20   7    4.90    5.40
  20 -12   7    0.70    6.20
  13   7  -7   -1.60    4.70
  20 -13   7   -5.30    5.80
  -7  20   7    7.00    5.50
  14   6  -7    7.90    4.70
  20 -14   7    9.30    6.30
  -6  20   7   11.40    5.50
  15   5  -7   -5.20    4.30
  -5  20   7    2.60    5.10
  20 -15   7    4.50    6.00
  16   4  -7   -6.10    4.40
  20 -16   7   -7.20    5.60
  -4  20   7    5.30    5.50
  17   3  -7    1.50    4.60
  20 -17   7    8.30    6.20
  -3  20   7   -5.30    5.40
  18   2  -7   -4.90    4.50
  -2  20   7   -2.50    5.90
  20 -18   7    0.90    6.20
  20 -19   7    6.40    6.90
  -1  20   7   -3.90    5.70
   0  20   7   33.00    7.10
  20 -20   7   32.40    7.80
   0  20   7   31.00    7.70
   1  20   7  -15.20    5.70
  20 -21   7    2.70    7.10
   1  20   7   -8.40    5.50
  20 -22   7   -1.50    6.90
   2  20   7   -1.10    6.10
   2  20   7   -1.90    6.80
   3  20   7   -4.70    6.70
   3  20   7  -25.60    6.70
  20 -23   7    0.20    7.60
  -1  22  -7   -1.40    6.70
  21   1   7    0.60    7.40
   0  21  -7   -3.80    6.40
  21   0   7   -3.40    6.50
   1  20  -7   -3.90    5.80
  21  -1   7   -8.50    5.90
   2  19  -7   -4.30    5.50
  21  -2   7   -3.20    6.00
   3  18  -7    6.70    5.70
  21  -3   7   -3.20    5.80
   4  17  -7    5.50    5.60
  21  -4   7    4.80    6.00
   5  16  -7    3.70    5.20
  21  -5   7   -1.80    5.40
   6  15  -7   16.20    5.60
  21  -6   7   21.50    6.40
   7  14  -7   -9.70    4.40
  21  -7   7    2.00    5.50
   8  13  -7    2.80    4.80
  21  -8   7    5.40    5.50
   9  12  -7   15.60    5.20
  21  -9   7   27.20    6.50
  10  11  -7    5.10    4.70
  21 -10   7   -0.10    5.50
  11  10  -7   14.00    5.50
 -10  21   7    0.50    6.60
  21 -11   7   12.20    6.50
  12   9  -7   21.80    5.50
  -9  21   7   15.20    6.80
  21 -12   7   33.20    7.60
  13   8  -7    6.20    5.20
  21 -13   7    7.10    6.30
  -8  21   7    4.00    5.90
  14   7  -7   -8.70    4.50
  21 -14   7   -9.80    6.00
  -7  21   7  -15.40    5.40
  15   6  -7   -0.80    4.80
  -6  21   7  -10.20    5.60
  21 -15   7   -3.90    5.70
  16   5  -7   -8.20    4.60
  21 -16   7   -5.90    6.00
  -5  21   7   -1.80    5.80
  17   4  -7   16.40    5.60
  -4  21   7   23.70    7.10
  21 -17   7   29.80    7.50
  18   3  -7   12.30    5.30
  -3  21   7    9.90    6.20
  21 -18   7    2.90    6.80
  21 -19   7   -5.10    6.10
  -2  21   7   -6.00    6.00
  -1  21   7   10.20    6.60
  21 -20   7    8.00    7.20
  21 -21   7    1.00    7.40
   0  21   7   -6.30    6.60
  21 -22   7    4.20    7.90
   1  21   7    4.00    7.50
   2  21   7   -4.90    7.40
   2  21   7  -11.10    7.20
  21 -23   7    0.30    7.90
   1  21  -7   -1.60    6.30
  22  -1   7   -3.50    7.20
   2  20  -7  -14.30    5.70
  22  -2   7   -0.90    6.40
   3  19  -7   13.20    6.20
  22  -3   7   21.10    7.20
   4  18  -7   -9.50    5.40
  22  -4   7   -0.60    6.30
   5  17  -7   -4.10    5.30
  22  -5   7   -0.40    6.30
   6  16  -7    7.60    5.80
  22  -6   7   14.50    6.50
   7  15  -7    7.00    5.50
  22  -7   7   16.80    6.60
   8  14  -7    4.70    5.50
  22  -8   7   -0.10    5.70
   9  13  -7   -5.50    4.70
  22  -9   7    0.30    5.90
  10  12  -7   -2.00    5.00
  22 -10   7    0.00    6.20
  11  11  -7   -4.30    4.90
  22 -11   7   -5.00    6.20
 -11  22   7   -6.00    5.70
  12  10  -7   -9.20    4.60
 -10  22   7   -2.50    5.80
  22 -12   7   -6.20    6.20
  13   9  -7   -0.80    5.40
  -9  22   7   -2.50    5.80
  22 -13   7   -0.40    6.60
  14   8  -7    3.40    5.30
  22 -14   7    5.50    7.10
  -8  22   7    6.80    6.30
  15   7  -7   17.90    6.00
  -7  22   7    1.60    6.90
  22 -15   7   28.70    7.50
  16   6  -7    2.50    5.10
  -6  22   7  -16.90    6.40
  22 -16   7    9.50    6.60
  17   5  -7   -2.10    5.30
  22 -17   7   16.00    7.40
  -5  22   7  -15.40    6.10
  18   4  -7   -9.00    5.10
  22 -18   7   -4.00    6.70
  -4  22   7   -6.70    6.30
  -3  22   7   10.70    6.80
  22 -19   7    9.00    7.30
  -2  22   7   -4.90    6.60
  22 -20   7   -2.50    7.40
  22 -21   7   -3.80    7.50
  -1  22   7    1.30    7.40
  22 -22   7   -1.70    7.80
   0  22   7   -4.50    8.60
   3  20  -7   -5.70    6.70
  23  -3   7   -6.60    6.90
   4  19  -7    7.30    6.80
  23  -4   7   12.20    7.30
   5  18  -7   -2.40    6.00
  23  -5   7    4.40    6.70
   6  17  -7    3.80    6.10
  23  -6   7    2.70    6.80
   7  16  -7    4.00    5.90
  23  -7   7    3.70    6.40
   8  15  -7    2.00    5.60
  23  -8   7    7.40    6.50
   9  14  -7   -9.90    5.00
  23  -9   7    4.10    6.30
  10  13  -7    3.40    5.60
  23 -10   7    8.60    6.60
  11  12  -7   -1.20    5.60
  23 -11   7    3.20    7.20
  12  11  -7   16.30    6.40
  23 -12   7   24.20    7.60
 -11  23   7   16.80    7.40
  13  10  -7   -4.50    6.00
 -10  23   7    6.80    6.90
  23 -13   7    6.00    7.30
  14   9  -7  -11.00    5.20
  23 -14   7  -12.30    6.50
  -9  23   7   -3.40    6.30
  15   8  -7   -6.50    5.40
  -8  23   7   -0.20    6.50
  23 -15   7   -8.00    6.30
  16   7  -7   -0.60    5.50
  -7  23   7   -4.40    6.90
  23 -16   7   14.20    7.30
  17   6  -7   -1.70    5.80
  23 -17   7    5.00    7.20
  -6  23   7    2.90    7.00
  18   5  -7   -1.80    5.80
  -5  23   7   -1.80    6.80
  23 -18   7    4.00    7.00
  19   4  -7   -1.20    6.30
  23 -19   7   13.80    8.00
  -4  23   7   -3.50    6.70
  -3  23   7    1.60    7.30
  23 -20   7   -6.40    7.40
  23 -21   7    0.80    8.20
   5  19  -7   -3.70    8.10
  24  -5   7   -4.80    7.60
   6  18  -7   -8.20    6.10
  24  -6   7   -7.50    7.20
   7  17  -7   -6.10    6.10
  24  -7   7   -2.10    7.20
   8  16  -7   -8.30    5.90
  24  -8   7   -7.90    6.60
   9  15  -7    0.20    5.90
  24  -9   7   -8.70    6.80
  10  14  -7    0.10    6.10
  24 -10   7    4.80    7.30
  11  13  -7   -9.50    5.60
  24 -11   7   -9.40    6.90
  12  12  -7   -4.30    5.90
  24 -12   7   -1.10    7.30
  13  11  -7   -7.00    6.10
 -11  24   7   -3.60    6.70
  24 -13   7    4.50    7.90
  14  10  -7   -0.70    5.80
 -10  24   7   -3.50    6.70
  24 -14   7   -4.90    7.50
  15   9  -7   -2.10    5.90
  -9  24   7    0.60    6.80
  24 -15   7   12.80    8.00
  16   8  -7   -6.10    5.80
  24 -16   7    7.40    7.40
  -8  24   7   -3.40    7.40
  17   7  -7   -9.60    5.70
  24 -17   7  -10.10    7.00
  -7  24   7  -17.00    7.00
  18   6  -7    2.80    6.30
  -6  24   7    2.00    7.60
  24 -18   7   -2.40    7.90
  19   5  -7    3.30    6.60
  24 -19   7   -3.10    7.70
  -5  24   7   -7.50    9.60
   9  16  -7   -0.10    6.40
  25  -9   7   -8.80    7.80
  10  15  -7   -9.60    6.20
  25 -10   7   -9.30    7.80
  11  14  -7   -1.30    6.30
  25 -11   7   -1.30    8.60
  12  13  -7   -6.10    6.80
  25 -12   7  -25.30    7.80
  13  12  -7   -5.40    7.10
  25 -13   7   -2.00    8.90
  14  11  -7   -5.50    6.50
 -11  25   7   -6.90    7.80
  25 -14   7   10.00    9.10
  15  10  -7   -1.50    6.40
  25 -15   7  -12.70    7.80
 -10  25   7  -13.40    7.10
  16   9  -7    2.90    6.40
  -9  25   7    4.70    7.90
  25 -16   7  -14.30    7.90
   0   0   8 9999.00  251.97
   1   0   8  601.04   16.30
   0  -1   8  585.44   16.20
  -1   1   8  590.14   15.90
   0   1   8  597.54   16.00
  -1   0   8  581.24   15.90
   1  -1   8  592.94   16.40
   1  -2   8  394.16   11.50
  -2   1   8  387.66   10.70
   1   1   8  395.76   11.20
   2   1   8  603.84   16.10
   1  -3   8  576.14   16.40
  -3   2   8  573.44   15.20
  -2   2   8  254.37    7.10
   2   0   8  245.78    7.90
   0  -2   8  250.37    7.90
   2  -1   8  404.96   11.70
  -1   2   8  400.26   11.00
  -1  -1   8  389.96   11.30
   2  -2   8  254.47    8.40
  -2   0   8  268.87    7.70
   0   2   8  256.87    7.60
   2  -3   8  123.79    5.20
  -3   1   8  133.89    4.20
   1   2   8  130.99    4.60
   4  -2  -8  142.29    4.20
   2   2   8  141.89    5.10
   2  -4   8  134.79    5.60
   3   2   8  217.18    7.10
   2  -5   8  209.38    7.60
   1  -4   8  211.18    7.50
   3   1   8  226.38    7.30
  -3   3   8   19.90    1.30
   0  -3   8   20.00    2.10
   3   0   8   21.60    2.10
   3  -1   8  132.09    5.20
  -1  -2   8  127.49    4.80
  -2   3   8  127.39    4.10
  -2  -1   8  572.84   15.90
   3  -2   8  597.14   16.70
  -1   3   8  589.24   15.50
   3   0  -8   24.70    1.80
   3  -3   8   20.70    2.30
   0   3   8   22.00    1.70
   4  -1  -8   25.20    1.70
   3  -4   8   26.00    2.60
   1   3   8   26.70    2.10
   5  -2  -8  226.28    6.50
   3  -5   8  231.98    8.20
   2   3   8  243.98    7.50
   3   3   8    3.20    1.50
   3  -6   8    3.40    1.80
   3  -7   8   24.50    2.90
   4   3   8   28.60    2.60
   4   2   8 1748.23   45.80
   2  -6   8 1777.92   46.40
   4   1   8  918.91   24.60
   1  -5   8  899.31   24.90
   0  -4   8   43.20    3.10
   4   0   8   40.60    3.00
  -1  -3   8   24.10    2.20
   4  -1   8   25.40    2.40
   4  -2   8  142.19    5.70
  -2   4   8  142.79    4.30
  -2  -2   8  139.39    5.10
   3   1  -8  205.48    6.50
   4  -3   8  210.28    7.60
  -1   4   8  222.78    6.30
   4   0  -8   41.60    2.30
   4  -4   8   45.20    3.40
   0   4   8   36.90    2.30
   5  -1  -8  333.27    9.50
   4  -5   8  355.96   11.20
   1   4   8  342.47   10.00
   6  -2  -8  238.78    6.80
   4  -6   8  243.08    8.60
   2   4   8  237.18    7.70
   7  -3  -8   70.59    2.70
   3   4   8   71.69    3.80
   4  -7   8   62.79    4.50
   8  -4  -8  270.37    7.50
   4   4   8  276.27    9.00
   4  -8   8  273.87    9.80
   5   4   8    4.80    1.80
   4  -9   8    4.10    2.10
   3  -8   8  207.68    8.20
   5   3   8  214.48    7.60
   5   2   8  247.58    8.50
   2  -7   8  263.77    9.10
   1  -6   8 1021.50   27.60
   5   1   8  990.50   27.20
   0  -5   8   30.60    2.70
   5   0   8   26.30    2.60
   5  -1   8  330.57   10.70
  -1  -4   8  356.16   10.60
   2   3  -8  227.48    7.40
  -2  -3   8  225.28    7.50
  -3   5   8  240.68    6.40
   5  -2   8  231.98    8.00
   3   2  -8  208.98    6.70
   5  -3   8  207.38    7.60
  -2   5   8  210.38    6.10
   4   1  -8  946.01   24.40
  -1   5   8  923.41   24.10
   5  -4   8  910.01   25.70
   5   0  -8   32.10    2.10
   5  -5   8   31.10    3.20
   0   5   8   28.40    2.30
   6  -1  -8   62.79    2.90
   1   5   8   62.59    3.30
   5  -6   8   67.89    4.50
   7  -2  -8  125.39    4.40
   2   5   8  133.29    5.10
   5  -7   8  138.79    6.20
   8  -3  -8   15.50    1.50
   5  -8   8   14.10    2.70
   3   5   8   14.10    2.10
   9  -4  -8   35.60    2.30
   4   5   8   34.80    3.00
   5  -9   8   35.30    3.50
   5 -10   8    3.50    2.20
   5   5   8    5.00    1.90
   6   5   8  103.89    5.50
   5 -11   8   92.69    6.10
   6   4   8   64.29    4.40
   4 -10   8   60.19    4.90
   6   3   8   48.60    3.70
   3  -9   8   56.29    4.40
   6   2   8  209.28    7.70
   2  -8   8  214.68    8.20
   6   1   8   29.90    3.00
   1  -7   8   28.50    3.00
   0  -6   8   85.09    4.80
   6   0   8  109.49    5.00
   6  -1   8   74.89    4.20
  -1  -5   8   62.39    3.90
   2   4  -8  237.28    7.70
   6  -2   8  231.48    8.20
   3   3  -8    4.20    1.40
   6  -3   8    5.40    1.90
  -3   6   8    6.40    0.90
   4   2  -8 1734.73   45.60
   6  -4   8 1822.92   46.90
  -2   6   8 1756.52   45.00
   5   1  -8  992.40   26.00
   6  -5   8  990.30   27.50
  -1   6   8  971.10   25.70
   6   0  -8   95.39    3.90
   0   6   8  101.09    4.00
   6  -6   8   91.99    5.30
   7  -1  -8   66.99    3.10
   1   6   8   64.29    3.50
   6  -7   8   65.99    4.60
   8  -2  -8   27.40    2.30
   6  -8   8   30.90    3.50
   2   6   8   28.90    2.60
   9  -3  -8   37.50    2.60
   6  -9   8   38.40    3.80
   3   6   8   42.70    3.40
  10  -4  -8    5.70    1.50
   6 -10   8    5.70    2.50
   4   6   8    3.80    1.90
   5   6   8  133.89    6.10
   6 -11   8  125.29    7.20
   6   6   8  144.49    6.90
   6 -12   8  151.78    7.60
   7   6   8   -1.20    2.20
   6 -13   8   -1.40    2.80
   7   5   8   74.89    5.30
   5 -12   8   76.29    6.10
   4 -11   8   53.69    4.60
   7   4   8   48.80    4.00
   7   3   8   56.59    4.30
   3 -10   8   63.99    5.00
   2  -9   8   53.59    4.40
   7   2   8   59.69    4.10
   1  -8   8   64.29    4.60
   7   1   8   61.09    4.30
   0  -7   8  296.47   10.00
   7   0   8  281.37    9.80
   1   6  -8   71.99    4.10
   7  -1   8   71.19    4.40
   2   5  -8  130.79    5.50
   7  -2   8  135.99    6.00
   3   4  -8   65.49    3.60
  -4   7   8   70.19    2.50
   7  -3   8   63.09    4.20
   4   3  -8   28.80    2.40
   7  -4   8   28.80    3.10
  -3   7   8   25.50    1.90
   5   2  -8  240.78    8.00
   7  -5   8  269.47    9.50
  -2   7   8  258.27    7.50
   6   1  -8   31.30    2.50
   7  -6   8   26.80    3.10
  -1   7   8   28.30    2.30
   7   0  -8  285.17    8.80
   0   7   8  293.77    8.90
   7  -7   8  300.77   10.60
   8  -1  -8   27.30    2.20
   1   7   8   27.40    2.50
   7  -8   8   25.50    3.30
   9  -2  -8  170.48    6.00
   7  -9   8  189.18    8.00
   2   7   8  175.38    6.50
  10  -3  -8  790.42   21.60
   3   7   8  817.32   22.50
   7 -10   8  820.02   23.90
   4   7   8  105.19    5.40
   7 -11   8  103.89    6.70
   7 -12   8   53.89    5.00
   5   7   8   51.69    4.50
   6   7   8   -4.30    2.10
   7 -13   8    1.00    2.80
   7 -14   8  115.09    7.50
   7   7   8  121.99    7.00
   8   7   8    2.60    3.00
   7 -15   8    2.90    3.40
   6 -14   8    5.50    3.30
   8   6   8    2.00    2.80
   5 -13   8   56.99    5.10
   8   5   8   55.09    4.70
   8   4   8  112.19    6.50
   4 -12   8  118.89    7.30
   8   3   8  307.97   11.00
   3 -11   8  324.97   11.70
   2 -10   8   17.70    3.00
   8   2   8   14.10    2.60
   8   1   8   42.50    3.70
   1  -9   8   38.60    3.70
   0   8  -8    4.30    2.00
   8   0   8    2.70    1.90
   1   7  -8   23.70    2.70
   8  -1   8   21.20    2.80
   2   6  -8   31.70    2.90
   8  -2   8   25.20    3.00
   3   5  -8   14.50    2.20
   8  -3   8   13.40    2.50
  -5   8   8   16.50    1.40
   4   4  -8  266.37    8.70
   8  -4   8  268.37    9.50
  -4   8   8  257.47    7.40
   5   3  -8  214.78    7.30
   8  -5   8  210.58    8.40
  -3   8   8  209.18    6.40
   6   2  -8  218.68    7.20
   8  -6   8  204.78    8.40
  -2   8   8  207.68    6.70
   7   1  -8   57.69    3.60
   8  -7   8   76.49    5.10
  -1   8   8   63.19    3.40
   8   0  -8    1.80    1.50
   0   8   8    1.30    1.50
   8  -8   8   -0.10    2.10
   9  -1  -8    2.90    1.50
   8  -9   8    2.50    2.30
   1   8   8    3.20    1.70
  10  -2  -8  230.38    7.60
   2   8   8  227.48    8.20
   8 -10   8  236.48    9.50
  11  -3  -8  331.67   10.20
   8 -11   8  345.97   12.50
   3   8   8  317.67   10.90
   4   8   8   46.60    3.90
   8 -12   8   39.10    4.50
   5   8   8  152.68    7.60
   5   8   8  146.69    7.10
   8 -13   8  142.59    8.00
   6   8   8   21.60    4.00
   6   8   8   26.90    3.70
   8 -14   8   24.60    4.10
   7   8   8   53.39    5.10
   7   8   8   49.20    5.10
   8 -15   8   48.20    5.30
   8   8   8   74.19    6.50
   8 -16   8   67.49    6.30
   8   8   8   88.69    7.20
   9   8   8   13.20    3.90
   8 -17   8    7.90    4.40
   9   7   8    7.70    3.40
   7 -16   8    1.00    3.70
   9   6   8   46.60    4.80
   6 -15   8   38.10    5.00
   9   5   8   92.59    6.60
   5 -14   8   82.09    7.00
   4 -13   8   33.90    4.20
   9   4   8   21.50    3.50
   3 -12   8  668.73   20.70
   9   3   8  677.83   20.30
   2 -11   8  131.39    7.20
   9   2   8  129.99    6.60
  -1  10  -8   25.20    3.10
   9   1   8   25.10    3.30
   0   9  -8    1.80    2.00
   9   0   8   -0.30    1.90
   1   8  -8    3.40    1.90
   9  -1   8    4.60    2.30
   2   7  -8  183.48    7.30
   9  -2   8  183.98    7.70
   3   6  -8   37.20    3.20
   9  -3   8   40.10    3.80
  -6   9   8   43.10    2.00
   4   5  -8   33.60    3.00
   9  -4   8   32.20    3.40
  -5   9   8   35.70    2.00
   5   4  -8    1.20    1.60
   9  -5   8    2.00    2.10
  -4   9   8    4.40    1.10
   6   3  -8   41.90    3.40
  -3   9   8   50.49    2.80
   9  -6   8   49.10    4.40
   7   2  -8   57.59    3.70
   9  -7   8   61.39    4.90
  -2   9   8   54.89    3.20
   8   1  -8   45.00    3.40
   9  -8   8   37.00    4.10
  -1   9   8   43.40    3.10
   9   0  -8    1.20    1.60
   0   9   8   -0.40    1.50
   9  -9   8    0.30    2.20
  10  -1  -8  145.09    5.90
   1   9   8  153.08    6.10
   9 -10   8  142.09    7.50
  11  -2  -8   73.19    4.40
   2   9   8   77.59    4.90
   9 -11   8   79.39    6.30
  12  -3  -8  115.29    5.50
   3   9   8  110.89    5.80
   3   9   8  111.59    6.70
   9 -12   8  109.79    7.10
   4   9   8  145.39    8.00
   9 -13   8  153.08    8.30
   4   9   8  150.48    7.20
   5   9   8    6.90    3.20
   5   9   8    2.20    2.80
   9 -14   8    6.80    3.40
   6   9   8   25.80    4.30
   9 -15   8   19.00    4.00
   6   9   8   22.40    3.80
   7   9   8  161.18    8.60
   9 -16   8  161.08    9.40
   7   9   8  149.79    8.70
   8   9   8  116.19    8.00
   8   9   8  119.49    8.20
   9 -17   8  119.79    9.40
   9 -18   8   68.29    7.30
   9   9   8   60.99    6.10
   9   9   8   73.99    6.80
  10   9   8   -6.20    4.10
   9 -19   8   -5.30    4.60
  10   8   8   97.19    8.40
   8 -18   8   89.39    7.70
   7 -17   8   22.90    5.20
  10   7   8   34.50    4.90
   6 -16   8   49.20    5.80
  10   6   8   52.49    5.50
  10   5   8    9.30    3.40
   5 -15   8    7.40    3.60
  10   4   8   66.59    5.40
   4 -14   8   56.39    5.40
  -3  13  -8   16.60    3.40
  10   3   8   10.50    3.20
  -2  12  -8   29.60    3.90
  10   2   8   22.60    3.60
  -1  11  -8   46.50    4.30
  10   1   8   47.30    4.30
   0  10  -8  239.78    9.20
  10   0   8  227.68    9.30
   1   9  -8  152.38    6.90
  10  -1   8  165.68    7.40
   2   8  -8  239.38    8.90
  10  -2   8  235.48    9.30
   3   7  -8  811.82   23.50
  10  -3   8  851.81   24.10
   4   6  -8    3.60    2.00
  10  -4   8    8.20    2.70
   5   5  -8    6.40    1.90
  -5  10   8    6.30    1.30
  10  -5   8    1.60    2.30
   6   4  -8   67.89    4.10
  -4  10   8   61.39    3.20
  10  -6   8   75.29    5.40
   7   3  -8   59.89    4.10
  -3  10   8   57.89    3.20
  10  -7   8   63.19    5.40
   8   2  -8   20.90    2.50
  10  -8   8   18.90    3.30
  -2  10   8   17.60    2.10
   9   1  -8   26.10    2.80
  10  -9   8   20.70    3.50
  -1  10   8   27.20    2.60
  10   0  -8  227.68    8.00
   0  10   8  221.98    8.00
  10 -10   8  219.28    9.80
  11  -1  -8  116.49    5.60
   1  10   8  124.19    7.00
   1  10   8  117.99    5.80
  10 -11   8  118.79    7.30
  12  -2  -8   65.99    4.70
   2  10   8   72.19    4.90
  10 -12   8   76.19    6.20
   2  10   8   74.69    5.90
   3  10   8   31.80    4.50
  10 -13   8   29.10    4.40
   3  10   8   38.10    3.80
   4  10   8   31.10    4.00
  10 -14   8   38.30    5.00
   4  10   8   45.60    5.10
  10 -15   8   -1.50    3.40
   5  10   8    4.80    2.90
   5  10   8    2.00    3.20
  10 -16   8    2.90    4.00
   6  10   8   12.60    3.90
   6  10   8    4.90    3.30
  10 -17   8   31.30    5.70
   7  10   8   38.80    5.20
   7  10   8   32.50    4.80
   8  10   8   37.20    5.20
  10 -18   8   28.60    5.60
   8  10   8   33.60    5.10
  10 -19   8   53.59    7.30
   9  10   8   43.60    5.90
   9  10   8   45.00    6.20
  10 -20   8   33.60    6.60
  10  10   8   38.10    6.40
  10 -21   8   14.70    6.60
  11  10   8   26.60    5.90
   9 -20   8   93.49    8.90
  11   9   8   97.59    8.40
  11   8   8   12.60    4.80
   8 -19   8    8.20    5.30
  -7  18  -8   73.69    7.00
  11   7   8   72.19    6.70
   7 -18   8   60.59    7.10
  -6  17  -8   13.00    4.10
  11   6   8    2.60    3.70
   6 -17   8    1.60    4.10
  -5  16  -8  104.99    7.50
  11   5   8   85.39    7.40
  -4  15  -8   28.50    4.40
  11   4   8   28.80    4.30
  -3  14  -8  122.59    7.40
  11   3   8  114.59    7.30
  -2  13  -8  177.38    8.30
  11   2   8  156.28    8.20
  -1  12  -8  112.19    7.00
  11   1   8  109.99    6.70
   0  11  -8   -1.60    2.40
  11   0   8   -1.50    2.30
   1  10  -8  129.59    6.90
  11  -1   8  127.49    6.90
   2   9  -8   72.69    5.20
  11  -2   8   72.09    5.60
   3   8  -8  340.37   11.50
  11  -3   8  330.07   12.00
   4   7  -8   94.69    5.70
  11  -4   8  108.49    6.30
   5   6  -8  133.69    6.40
  11  -5   8  147.99    7.20
   6   5  -8  102.89    5.40
  11  -6   8  112.69    6.40
  -5  11   8   96.19    4.10
   7   4  -8   43.90    3.60
  -4  11   8   54.19    3.30
  11  -7   8   47.80    4.80
   8   3  -8  316.97   10.30
  -3  11   8  303.07    9.50
  11  -8   8  304.47   11.60
   9   2  -8  129.59    6.10
  11  -9   8  137.49    7.70
  -2  11   8  142.89    5.70
  10   1  -8   49.40    4.30
  -1  11   8   53.29    4.00
  -1  11   8   54.89    5.20
  11 -10   8   52.09    5.20
  11   0  -8   -3.10    2.00
   0  11   8   -2.50    2.60
   0  11   8    1.30    2.00
  11 -11   8   -0.80    2.60
  12  -1  -8  114.49    6.10
  11 -12   8  118.49    7.50
   1  11   8  120.09    6.10
   1  11   8  120.19    7.20
  13  -2  -8   11.30    2.70
   2  11   8   11.80    3.60
   2  11   8    6.00    2.60
  11 -13   8   13.60    4.00
   3  11   8   31.50    3.80
  11 -14   8   27.10    4.60
   3  11   8   32.30    4.40
   4  11   8    1.20    2.80
   4  11   8    0.70    3.10
  11 -15   8    3.30    3.70
   5  11   8  114.69    7.60
  11 -16   8  115.29    8.80
   5  11   8  134.29    8.50
  11 -17   8   28.20    5.30
   6  11   8   29.60    4.60
   6  11   8   34.90    5.30
   7  11   8   49.40    5.80
   7  11   8   54.59    6.10
  11 -18   8   45.00    6.50
   8  11   8   55.19    6.50
   8  11   8   59.59    6.70
  11 -19   8   66.09    7.70
   9  11   8   13.60    5.20
   9  11   8   19.70    5.30
  11 -20   8   14.80    6.30
  10  11   8   16.70    5.50
  11 -21   8   16.70    6.40
  11  11   8    1.40    5.30
  11 -22   8    0.60    6.20
 -11  23  -8   15.30    6.20
  12  11   8   18.70    6.40
 -10  22  -8   21.30    6.20
  12  10   8   11.50    5.60
  -9  21  -8   12.30    5.50
  12   9   8   -0.10    5.00
  -8  20  -8   15.60    5.40
  12   8   8   12.10    5.30
  -7  19  -8   10.90    4.90
  12   7   8   -1.20    4.20
  -6  18  -8    5.10    4.20
  12   6   8    1.90    4.20
  -5  17  -8   24.00    4.80
  12   5   8   24.40    4.70
  -4  16  -8   61.09    5.90
  12   4   8   73.29    6.20
  -3  15  -8    1.40    3.10
  12   3   8   -2.30    3.10
  -2  14  -8   14.40    3.70
  12   2   8    6.20    3.40
  -1  13  -8   67.49    5.90
  12   1   8   66.99    5.60
   0  12  -8   23.60    3.80
  12   0   8   21.10    3.90
   1  11  -8  121.39    7.20
  12  -1   8  129.79    7.30
   2  10  -8   63.79    5.50
  12  -2   8   66.19    5.50
   3   9  -8  112.49    6.50
  12  -3   8  117.09    6.80
   4   8  -8   46.00    4.10
  12  -4   8   44.50    4.50
   5   7  -8   50.79    4.30
  12  -5   8   63.89    5.50
   6   6  -8  128.79    6.60
  12  -6   8  146.59    7.60
   7   5  -8   73.69    5.10
  -5  12   8   73.29    4.30
  12  -7   8   72.59    6.00
   8   4  -8  124.59    6.10
  -4  12   8  114.59    5.10
  12  -8   8  112.29    7.30
   9   3  -8  659.73   19.80
  -3  12   8  691.93   19.10
  12  -9   8  694.73   21.60
  10   2  -8   22.50    3.40
  12 -10   8   25.60    4.10
  -2  12   8   30.90    4.30
  -2  12   8   29.00    2.90
  11   1  -8  102.69    6.20
  -1  12   8  117.49    5.70
  -1  12   8  120.29    7.30
  12 -11   8  108.29    7.70
  12   0  -8   20.70    3.30
   0  12   8   33.50    4.70
   0  12   8   31.50    3.50
  12 -12   8   30.90    4.50
  13  -1  -8   61.49    5.30
   1  12   8   57.99    5.70
   1  12   8   68.89    5.50
  12 -13   8   72.69    6.30
   2  12   8   36.80    5.00
  12 -14   8   35.70    5.20
   2  12   8   38.10    4.20
  12 -15   8    4.10    4.00
   3  12   8    2.10    2.90
   3  12   8    6.80    3.90
  12 -16   8   93.19    7.80
   4  12   8   94.19    7.10
   4  12   8  101.59    7.60
   5  12   8   12.40    4.80
  12 -17   8   14.60    5.00
   5  12   8   15.90    4.10
   6  12   8    8.40    4.50
  12 -18   8   11.60    5.10
   6  12   8   14.50    4.30
  12 -19   8   24.60    6.10
   7  12   8   19.80    5.40
   7  12   8   21.70    5.30
  12 -20   8    1.50    5.50
   8  12   8    4.60    4.90
   8  12   8    6.20    5.00
  12 -21   8    1.10    5.90
   9  12   8    9.80    5.10
   9  12   8    9.50    5.30
  10  12   8   28.50    6.30
  12 -22   8    4.20    6.50
  11  12   8    1.40    5.80
  12 -23   8   -9.40    6.30
 -12  24  -8   29.60    7.40
  12  12   8   12.50    6.80
 -12  25  -8    7.60    7.40
  13  12   8    6.90    7.50
 -11  24  -8   13.30    6.60
  13  11   8   13.30    7.00
 -10  23  -8    2.30    5.70
  13  10   8    1.00    5.80
  -9  22  -8    5.80    5.60
  13   9   8   -3.00    5.10
  -8  21  -8    9.50    5.40
  13   8   8    7.90    5.20
  -7  20  -8   35.00    6.30
  13   7   8   41.10    6.60
  -6  19  -8   18.40    5.00
  13   6   8    2.80    4.80
  -5  18  -8   85.29    7.60
  13   5   8   80.19    7.30
  -4  17  -8   57.79    6.20
  13   4   8   70.69    6.60
  -3  16  -8   39.50    5.10
  13   3   8   51.59    5.70
  -2  15  -8   35.60    4.80
  13   2   8   36.40    5.00
  -1  14  -8    9.40    3.50
  13   1   8    5.40    3.50
   0  13  -8   -4.60    2.80
  13   0   8   -4.50    3.00
   1  12  -8   62.89    5.50
  13  -1   8   80.69    6.70
   2  11  -8   12.00    3.30
  13  -2   8    5.10    3.00
   3  10  -8   29.30    3.90
  13  -3   8   31.40    4.10
   4   9  -8  148.89    7.30
  13  -4   8  147.99    8.10
   5   8  -8  155.58    7.60
  13  -5   8  158.28    8.10
   6   7  -8   -3.30    2.10
  13  -6   8   -0.30    2.70
   7   6  -8   -3.60    2.20
  13  -7   8    2.70    2.80
   8   5  -8   52.89    4.40
  13  -8   8   56.39    5.40
   9   4  -8   29.40    3.50
  13  -9   8   29.60    4.30
  -4  13   8   28.00    2.90
  10   3  -8   11.80    2.90
  13 -10   8   23.60    4.40
  -3  13   8   22.20    4.10
  -3  13   8   13.60    2.60
  11   2  -8  147.29    7.30
  -2  13   8  159.18    8.70
  13 -11   8  157.68    9.10
  -2  13   8  170.68    7.10
  12   1  -8   57.59    4.70
  13 -12   8   67.59    6.10
  -1  13   8   62.29    5.20
  -1  13   8   59.89    5.80
  13   0  -8   -0.40    2.70
   0  13   8   -0.30    3.20
   0  13   8    2.30    2.70
  13 -13   8    7.10    3.70
  14  -1  -8  137.39    7.60
   1  13   8  154.38    9.00
  13 -14   8  173.18    9.60
   1  13   8  151.68    7.80
  13 -15   8  230.78   11.70
   2  13   8  192.68   10.40
   2  13   8  201.38    9.20
   3  13   8    8.00    4.30
   3  13   8    8.10    3.60
  13 -16   8    4.30    4.70
   4  13   8   10.70    4.50
   4  13   8   18.70    4.00
  13 -17   8   26.90    5.60
   5  13   8  117.79    8.80
   5  13   8  115.89    8.60
  13 -18   8   92.59    8.60
   6  13   8    9.00    5.30
  13 -19   8   21.50    6.10
   6  13   8   11.10    5.00
  13 -20   8    3.80    5.60
   7  13   8   -6.10    4.40
   7  13   8   -0.80    4.50
  13 -21   8   -4.60    5.90
   8  13   8   -4.90    4.90
   8  13   8   -4.70    4.40
   9  13   8   59.79    7.50
  13 -22   8   59.49    8.80
   9  13   8   62.49    7.80
  10  13   8    5.30    5.90
  13 -23   8    6.00    6.70
  11  13   8   16.40    6.90
  13 -24   8    3.60    7.60
 -13  25  -8   18.80    7.50
  12  13   8   17.90    7.40
 -11  25  -8   -9.70    6.90
  14  11   8   -4.40    6.90
 -10  24  -8   24.10    7.20
  14  10   8   20.50    7.30
  -9  23  -8    7.80    6.30
  14   9   8   19.20    6.60
  -8  22  -8   -9.80    5.30
  14   8   8    0.90    5.40
  -7  21  -8   -0.20    5.30
  14   7   8    7.30    5.60
  -6  20  -8   51.69    7.20
  14   6   8   55.39    7.20
  -5  19  -8   10.00    4.80
  14   5   8   -3.60    4.60
  -4  18  -8   79.49    7.40
  14   4   8   75.99    7.40
  -3  17  -8    5.30    4.40
  14   3   8    1.70    4.20
  -2  16  -8    9.60    4.10
  14   2   8   14.20    4.30
  -1  15  -8   45.60    5.40
  14   1   8   46.30    5.60
   0  14  -8   -4.50    3.00
  14   0   8    0.20    3.50
   1  13  -8  139.79    8.00
  14  -1   8  134.99    8.40
   2  12  -8   33.70    4.50
  14  -2   8   44.90    5.00
   3  11  -8   29.40    4.20
  14  -3   8   28.20    4.20
   4  10  -8   36.70    4.30
  14  -4   8   35.90    4.80
   5   9  -8    0.30    2.80
  14  -5   8    7.40    3.30
   6   8  -8   20.90    3.60
  14  -6   8   23.40    4.10
   7   7  -8  134.39    7.20
  14  -7   8  116.79    7.60
   8   6  -8    7.70    2.80
  14  -8   8    9.70    3.80
   9   5  -8   85.09    5.90
  14  -9   8   73.09    6.40
  10   4  -8   64.89    5.50
  -4  14   8   66.89    6.40
  14 -10   8   52.59    5.60
  -4  14   8   66.19    5.90
  11   3  -8  115.19    7.10
  -3  14   8  113.69    8.00
  14 -11   8  132.69    8.90
  -3  14   8  121.79    6.30
  12   2  -8    6.90    3.20
  14 -12   8    9.40    3.80
  -2  14   8    8.30    2.80
  -2  14   8    0.20    3.40
  13   1  -8    9.60    3.40
  -1  14   8    7.20    3.70
  -1  14   8    2.10    2.80
  14 -13   8    7.60    4.00
  14   0  -8   -0.20    2.90
  14 -14   8    3.70    4.00
   0  14   8    4.80    3.70
   0  14   8   -2.50    2.80
   1  14   8  123.19    9.00
  14 -15   8  149.99    9.70
   1  14   8  133.69    7.70
   2  14   8    9.30    3.40
  14 -16   8    3.00    4.60
   2  14   8    4.40    4.60
  14 -17   8   87.79    8.10
   3  14   8   95.69    8.30
   3  14   8   96.09    7.70
  14 -18   8    6.70    5.00
   4  14   8    9.60    4.90
   4  14   8    3.10    4.00
   5  14   8   21.30    5.40
   5  14   8   17.70    6.00
  14 -19   8   37.00    6.60
   6  14   8   24.80    5.70
   6  14   8   21.40    6.00
  14 -20   8   28.40    6.80
   7  14   8    6.60    5.50
  14 -21   8    7.90    6.50
   7  14   8    2.00    5.10
   8  14   8   42.80    7.20
  14 -22   8   47.80    8.10
   8  14   8   41.30    7.20
   9  14   8   -4.00    5.70
  14 -23   8    2.60    6.70
  10  14   8   26.20    7.30
  14 -24   8   36.90    8.80
 -14  25  -8    4.80    7.10
  11  14   8   -1.70    7.20
  14 -25   8  -11.30    7.60
  -9  24  -8   14.90    6.80
  15   9   8   13.90    7.10
  -8  23  -8    2.90    6.20
  15   8   8   -3.00    6.00
  -7  22  -8   27.30    6.70
  15   7   8   29.80    6.70
  -6  21  -8   -5.50    4.90
  15   6   8    2.10    5.30
  -5  20  -8   25.00    6.40
  15   5   8   30.80    6.50
  -4  19  -8   13.70    5.00
  15   4   8    1.20    5.10
  -3  18  -8    0.30    4.30
  15   3   8    7.90    4.90
  -2  17  -8   28.20    5.50
  15   2   8   38.80    5.70
  -1  16  -8   71.09    6.80
  15   1   8   99.09    8.50
   0  15  -8   44.10    5.30
  15   0   8   52.59    6.10
   1  14  -8  132.79    8.80
  15  -1   8  150.08    9.10
   2  13  -8  190.08   10.00
  15  -2   8  222.98   10.80
   3  12  -8   -3.50    3.20
  15  -3   8    2.70    3.40
   4  11  -8    2.00    3.20
  15  -4   8   -5.20    3.10
   5  10  -8    3.60    3.10
  15  -5   8    4.00    3.50
   6   9  -8   24.30    4.00
  15  -6   8   23.50    4.20
   7   8  -8   55.89    5.10
  15  -7   8   58.19    5.80
   8   7  -8    1.80    2.90
  15  -8   8    2.70    3.50
   9   6  -8   42.10    4.50
  15  -9   8   41.80    5.50
  10   5  -8    4.70    3.00
  15 -10   8   10.40    4.10
  -5  15   8    3.50    3.60
  11   4  -8   32.60    4.20
  -4  15   8   34.30    5.40
  15 -11   8   40.30    5.40
  12   3  -8   -0.60    2.80
  -3  15   8    1.10    3.60
  15 -12   8    0.10    3.60
  -3  15   8   -1.60    2.50
  13   2  -8   31.60    4.20
  15 -13   8   35.00    5.40
  -2  15   8   36.00    5.40
  -2  15   8   30.10    3.90
  14   1  -8   55.89    5.10
  -1  15   8   44.10    5.70
  15 -14   8   42.50    6.00
  -1  15   8   51.89    4.70
  15   0  -8   46.80    5.00
   0  15   8   44.30    4.70
  15 -15   8   52.59    6.70
   0  15   8   54.59    6.60
   1  15   8   18.30    4.00
   1  15   8   24.10    5.30
  15 -16   8    9.60    4.90
  15 -17   8  115.19   10.00
   2  15   8  112.29    8.20
   2  15   8  131.39    9.30
   3  15   8   11.70    4.60
  15 -18   8    9.40    5.40
   3  15   8   14.90    5.60
   4  15   8   -4.10    4.60
  15 -19   8    0.20    5.20
   4  15   8   -7.50    4.30
   5  15   8    6.60    4.90
   5  15   8   15.80    5.80
  15 -20   8   21.70    6.90
  15 -21   8   59.59    8.20
   6  15   8   51.69    7.70
   6  15   8   53.29    7.20
   7  15   8    2.60    5.50
   7  15   8   10.70    6.10
  15 -22   8   -1.30    6.50
  15 -23   8    9.90    7.30
   8  15   8   10.90    6.60
   8  15   8    5.50    5.90
  15 -24   8   37.60    8.80
   9  15   8   32.40    8.10
  15 -25   8   34.10    9.30
  -8  24  -8    2.20    6.80
  16   8   8   22.40    7.30
  -7  23  -8    1.90    6.10
  16   7   8    2.50    6.10
  -6  22  -8   31.10    7.10
  16   6   8   35.80    7.10
  -5  21  -8   -9.10    5.20
  16   5   8    6.30    5.90
  -4  20  -8   -5.60    5.20
  16   4   8    8.20    5.60
  -3  19  -8   35.30    6.20
  16   3   8   34.80    6.30
  -2  18  -8    0.70    4.30
  16   2   8    7.40    4.90
  -1  17  -8    9.80    4.80
  16   1   8   19.60    5.30
   0  16  -8    9.70    4.70
  16   0   8   13.50    4.80
   1  15  -8    9.70    4.30
  16  -1   8   10.90    4.50
   2  14  -8   -0.50    3.60
  16  -2   8    2.30    3.80
   3  13  -8    4.30    3.80
  16  -3   8    6.60    3.80
   4  12  -8   87.59    7.40
  16  -4   8   95.59    8.30
   5  11  -8  126.09    8.20
  16  -5   8  125.29    9.00
   6  10  -8    6.40    3.60
  16  -6   8    9.60    4.10
   7   9  -8  160.08    9.00
  16  -7   8  188.98   10.10
   8   8  -8   68.29    5.80
  16  -8   8   78.09    6.80
   9   7  -8    2.60    3.30
  16  -9   8    3.80    3.80
  10   6  -8   40.40    4.70
  16 -10   8   43.40    6.20
  -6  16   8   52.19    6.40
  11   5  -8   89.79    6.80
  -5  16   8   64.69    6.80
  16 -11   8   67.69    6.70
  12   4  -8   67.79    5.60
  -4  16   8   66.79    7.10
  16 -12   8   60.99    6.80
  13   3  -8   43.30    4.80
  -3  16   8   42.50    5.80
  16 -13   8   49.60    6.40
  14   2  -8   15.90    3.90
  -2  16   8   13.60    4.70
  16 -14   8   13.90    5.20
  -2  16   8   15.50    3.70
  15   1  -8   84.69    7.40
  -1  16   8   77.19    7.70
  -1  16   8   97.79    7.30
  16 -15   8   96.99    8.50
  16 -16   8   13.30    5.70
   0  16   8   17.50    4.10
   0  16   8    8.90    5.30
   1  16   8   31.50    4.90
   1  16   8   47.30    6.70
  16 -17   8   34.40    6.80
  16 -18   8   -9.00    5.10
   2  16   8   -5.30    3.90
   2  16   8   -0.50    5.20
  16 -19   8   11.20    6.30
   3  16   8  -10.40    4.30
   3  16   8    2.90    5.20
   4  16   8   -0.60    4.80
   4  16   8    6.10    5.20
  16 -20   8    4.90    6.00
   5  16   8    3.90    5.50
  16 -21   8   13.50    6.60
   5  16   8   14.60    5.60
   6  16   8    1.70    5.70
   6  16   8    5.30    5.80
  16 -22   8   -7.00    6.50
  16 -23   8   16.30    7.60
   7  16   8   23.70    7.00
   7  16   8   25.80    7.00
   8  16   8   -3.00    6.30
  16 -24   8   -6.70    7.30
   8  16   8  -12.90    6.90
  -7  24  -8   -8.50    6.40
  17   7   8   -8.60    6.50
  -6  23  -8    8.10    6.20
  17   6   8   18.50    7.10
  -5  22  -8   21.10    6.60
  17   5   8   37.40    7.60
  -4  21  -8   23.90    6.50
  17   4   8   24.60    6.80
  -3  20  -8   -9.40    4.60
  17   3   8    4.00    5.50
  -2  19  -8   -4.60    4.60
  17   2   8    3.90    5.20
  -1  18  -8   67.19    7.40
  17   1   8   65.09    7.70
   0  17  -8   14.00    5.00
  17   0   8   18.10    5.60
   1  16  -8   33.70    5.50
  17  -1   8   27.20    5.60
   2  15  -8  125.59    9.30
  17  -2   8  121.69    9.60
   3  14  -8  116.79    8.90
  17  -3   8  116.19    9.30
   4  13  -8    7.70    4.10
  17  -4   8   22.70    4.80
   5  12  -8    9.20    4.20
  17  -5   8    9.00    4.50
   6  11  -8   37.80    5.40
  17  -6   8   37.00    5.70
   7  10  -8   32.10    4.80
  17  -7   8   32.70    5.40
   8   9  -8  107.99    7.80
  17  -8   8  140.59    9.70
   9   8  -8   14.40    4.20
  17  -9   8   15.40    4.90
  10   7  -8   26.20    4.50
  17 -10   8   35.40    5.80
  11   6  -8    4.10    3.60
  -6  17   8    6.30    4.30
  17 -11   8    1.30    4.20
  12   5  -8   29.50    4.60
  -5  17   8   36.00    6.00
  17 -12   8   34.20    6.10
  13   4  -8   74.59    6.30
  -4  17   8   69.89    7.40
  17 -13   8   64.69    7.40
  14   3  -8   -1.00    3.80
  -3  17   8    2.30    4.40
  17 -14   8    6.20    5.20
  15   2  -8   32.60    5.10
  17 -15   8   50.89    7.20
  -2  17   8   47.80    6.80
  16   1  -8    6.80    5.70
  -1  17   8   23.90    6.00
  -1  17   8   15.50    4.20
  17 -16   8   18.20    6.10
   0  17   8   19.10    5.90
  17 -17   8   16.60    5.90
   0  17   8   19.50    4.70
   1  17   8    9.40    5.70
  17 -18   8   18.00    6.50
   1  17   8   12.00    4.70
   2  17   8   10.50    5.90
   2  17   8   10.70    5.00
  17 -19   8    7.30    6.20
  17 -20   8    7.70    6.40
   3  17   8   18.30    5.50
   3  17   8   11.40    5.90
   4  17   8   22.60    6.00
  17 -21   8   25.80    7.50
   4  17   8   26.30    6.80
   5  17   8   15.80    6.00
   5  17   8    7.60    6.60
  17 -22   8   12.70    7.00
   6  17   8   30.60    7.50
  17 -23   8   39.30    8.60
   6  17   8   23.60    7.10
   7  17   8   -1.00    6.90
   7  17   8   -9.20    6.50
  17 -24   8   -5.50    7.40
  -6  24  -8    4.20    9.20
  18   6   8    5.90    9.70
  -5  23  -8   -8.60    5.90
  18   5   8    1.70    6.60
  -4  22  -8    3.70    6.00
  18   4   8    2.30    6.30
  -3  21  -8   -2.60    5.10
  18   3   8   -3.70    6.00
  -2  20  -8    6.00    5.30
  18   2   8    1.50    5.90
  -1  19  -8    1.00    5.10
  18   1   8    4.10    5.50
   0  18  -8   31.40    6.20
  18   0   8   36.80    6.90
   1  17  -8   19.60    5.60
  18  -1   8   23.20    6.00
   2  16  -8   -0.10    4.40
  18  -2   8   -4.90    4.40
   3  15  -8   17.30    4.90
  18  -3   8   21.60    5.40
   4  14  -8    8.00    4.40
  18  -4   8   14.50    5.20
   5  13  -8  111.59    8.90
  18  -5   8  106.09    9.10
   6  12  -8   10.30    4.30
  18  -6   8   -0.30    4.50
   7  11  -8   57.69    6.10
  18  -7   8   57.69    6.70
   8  10  -8   30.10    5.10
  18  -8   8   39.00    6.00
   9   9  -8   62.49    6.00
  18  -9   8   75.39    7.60
  10   8  -8   76.49    6.60
  18 -10   8  106.99    8.90
  11   7  -8   62.79    6.20
  -7  18   8   84.99    8.20
  18 -11   8   62.29    7.60
  12   6  -8   -2.00    3.80
  -6  18   8    6.20    4.80
  18 -12   8    8.60    5.20
  13   5  -8   77.99    6.90
  -5  18   8   90.19    8.80
  18 -13   8   87.09    8.70
  14   4  -8   65.99    6.30
  18 -14   8   70.39    8.00
  -4  18   8   68.99    8.20
  15   3  -8    4.90    4.20
  -3  18   8    5.40    5.30
  18 -15   8    9.50    5.80
  16   2  -8   -1.70    4.20
  18 -16   8    6.40    5.70
  -2  18   8   13.90    5.60
  18 -17   8   74.69    8.40
  -1  18   8   56.79    7.80
  18 -18   8   52.49    7.90
   0  18   8   39.70    7.80
   0  18   8   35.20    6.20
   1  18   8    0.80    4.80
  18 -19   8    9.80    6.40
   1  18   8    6.10    6.20
   2  18   8   15.50    5.80
   2  18   8   12.70    6.30
  18 -20   8   17.50    7.20
   3  18   8   17.80    7.00
  18 -21   8   25.90    7.70
   3  18   8   23.10    6.60
   4  18   8    1.70    5.80
  18 -22   8    7.80    6.90
   4  18   8   -0.10    6.00
  18 -23   8    2.40    7.20
   5  18   8   -0.10    6.50
   5  18   8    8.00    6.50
  18 -24   8    0.20    8.20
   6  18   8  -22.10    6.70
   6  18   8   -8.70    6.70
  -4  23  -8   16.50    6.90
  19   4   8   21.70    7.50
  -3  22  -8   26.40    6.90
  19   3   8   28.60    7.80
  -2  21  -8   13.20    6.20
  19   2   8   15.70    7.10
  -1  20  -8   23.00    6.10
  19   1   8   -5.70    6.40
   0  19  -8   22.50    6.20
  19   0   8   25.40    6.80
   1  18  -8    5.20    5.40
  19  -1   8   11.20    6.10
   2  17  -8    7.90    5.50
  19  -2   8    9.60    5.70
   3  16  -8    4.60    4.70
  19  -3   8   -5.20    4.70
   4  15  -8   -2.50    4.70
  19  -4   8   -8.90    4.70
   5  14  -8   32.20    5.90
  19  -5   8   25.70    6.20
   6  13  -8   26.00    5.50
  19  -6   8   20.50    5.90
   7  12  -8   22.40    5.10
  19  -7   8   25.80    6.20
   8  11  -8   55.79    6.20
  19  -8   8   52.89    7.10
   9  10  -8   46.00    6.10
  19  -9   8   56.49    7.40
  10   9  -8    0.60    3.90
  19 -10   8    2.40    5.60
  11   8  -8   13.00    4.60
  19 -11   8   17.40    6.20
  12   7  -8    7.10    4.30
  -7  19   8    7.20    5.00
  19 -12   8   -0.10    5.70
  13   6  -8    9.80    4.50
  -6  19   8   11.50    5.50
  19 -13   8    3.30    5.40
  14   5  -8    5.60    4.40
  -5  19   8   13.30    5.40
  19 -14   8   -1.60    5.60
  15   4  -8   12.90    4.70
  -4  19   8   13.10    5.80
  19 -15   8   12.00    6.30
  16   3  -8   24.10    5.40
  -3  19   8   41.10    7.20
  19 -16   8   43.10    7.40
  -2  19   8    5.00    5.80
  19 -17   8   10.40    6.30
  -1  19   8    6.10    6.20
  19 -18   8   13.70    6.60
   0  19   8   32.80    7.60
  19 -19   8   38.30    8.00
  19 -20   8   -1.90    6.60
   1  19   8  -10.60    5.70
   2  19   8   13.80    7.00
   2  19   8   11.00    6.00
  19 -21   8    8.40    6.90
   3  19   8   20.50    7.50
   3  19   8   13.80    6.60
  19 -22   8   14.10    7.70
  19 -23   8   55.89    9.60
   4  19   8   54.19    8.30
   4  19   8   43.00    9.00
  20   3   8   -4.30   11.50
  -2  22  -8   15.00    7.10
  20   2   8   13.50    7.10
  -1  21  -8   10.50    6.60
  20   1   8   13.10    6.90
   0  20  -8    4.70    6.00
  20   0   8   11.50    6.70
   1  19  -8    4.10    5.70
  20  -1   8   -2.00    6.30
   2  18  -8    7.70    5.90
  20  -2   8   14.40    6.50
   3  17  -8    6.80    5.70
  20  -3   8   20.00    6.50
   4  16  -8   -6.40    4.60
  20  -4   8   -2.90    5.40
   5  15  -8   18.00    5.60
  20  -5   8    6.90    6.10
   6  14  -8   20.00    5.60
  20  -6   8   36.00    7.00
   7  13  -8   -3.40    4.60
  20  -7   8  -10.80    4.90
   8  12  -8    4.00    4.80
  20  -8   8   -4.20    5.30
   9  11  -8   19.10    5.20
  20  -9   8   26.90    6.70
  10  10  -8   31.30    5.60
  20 -10   8   30.10    7.30
  11   9  -8   82.19    7.50
  20 -11   8   90.39    9.40
  12   8  -8   12.50    5.10
  -8  20   8   26.50    6.60
  20 -12   8    6.00    6.30
  13   7  -8   32.50    6.00
  20 -13   8   40.00    7.30
  -7  20   8   53.39    7.60
  14   6  -8   52.99    6.80
  -6  20   8   60.29    8.20
  20 -14   8   59.89    8.40
  15   5  -8   41.60    6.20
  20 -15   8   25.40    7.00
  -5  20   8   34.90    6.90
  16   4  -8    2.30    4.70
  20 -16   8   16.50    6.60
  -4  20   8    0.80    6.00
  17   3  -8    0.10    5.30
  20 -17   8   -2.00    6.00
  -3  20   8    0.30    6.00
  -2  20   8    1.90    5.80
  20 -18   8    5.90    6.30
  -1  20   8    5.20    6.30
  20 -19   8   12.90    7.00
   0  20   8    2.50    6.80
  20 -20   8    4.70    7.00
   1  20   8    0.20    6.60
  20 -21   8    7.70    7.60
  20 -22   8    1.00    7.80
   2  20   8    7.70    7.00
   3  20   8   18.80   12.40
   3  20   8   10.40    8.00
  20 -23   8   43.70    9.60
  -1  22  -8    1.60    8.20
  21   1   8   -8.40    8.60
   0  21  -8    3.20    6.80
  21   0   8    9.40    7.40
   1  20  -8    3.10    5.90
  21  -1   8    3.30    6.50
   2  19  -8   11.50    6.60
  21  -2   8    9.10    6.60
   3  18  -8   18.90    6.40
  21  -3   8   23.70    7.00
   4  17  -8   24.90    6.70
  21  -4   8   16.20    6.90
   5  16  -8    4.80    5.40
  21  -5   8    5.40    6.10
   6  15  -8   63.09    7.40
  21  -6   8   61.99    8.40
   7  14  -8    1.90    5.20
  21  -7   8   14.40    6.20
   8  13  -8   -8.40    4.40
  21  -8   8    4.30    5.90
   9  12  -8   -1.10    4.50
  21  -9   8    5.50    5.80
  10  11  -8   10.00    5.10
  21 -10   8   20.80    6.80
  11  10  -8   22.00    5.90
  21 -11   8   39.00    7.80
  12   9  -8   -2.50    5.00
  21 -12   8    6.90    6.70
  13   8  -8    0.90    5.20
  -8  21   8   13.90    6.50
  21 -13   8   18.60    7.20
  14   7  -8    5.50    5.40
  21 -14   8    7.60    6.40
  -7  21   8   -4.20    6.10
  15   6  -8    0.60    5.00
  21 -15   8   -2.70    5.90
  -6  21   8   -7.20    6.20
  16   5  -8    4.90    4.90
  -5  21   8   -4.00    6.30
  21 -16   8    3.30    6.40
  17   4  -8   23.60    5.80
  21 -17   8   26.20    7.60
  -4  21   8   29.90    7.60
  21 -18   8   -0.10    6.90
  -3  21   8    6.00    6.20
  21 -19   8   28.00    7.90
  -2  21   8   19.70    7.40
  -1  21   8    8.20    6.70
  21 -20   8    3.70    7.10
  21 -21   8   13.60    8.10
   0  21   8   14.80    7.40
  21 -22   8   34.20    9.00
   1  21   8   24.80    8.20
   1  21  -8   33.60    8.40
  22  -1   8   28.20    9.60
   2  20  -8    4.20    6.50
  22  -2   8   -3.60    6.80
   3  19  -8   16.50    6.70
  22  -3   8   27.70    7.60
   4  18  -8    8.00    6.10
  22  -4   8    6.90    6.40
   5  17  -8    6.60    6.20
  22  -5   8   18.60    7.10
   6  16  -8   -6.50    5.40
  22  -6   8    3.90    6.50
   7  15  -8    2.40    5.50
  22  -7   8    8.80    6.60
   8  14  -8   36.60    6.80
  22  -8   8   48.10    7.70
   9  13  -8   56.59    7.60
  22  -9   8   70.79    8.90
  10  12  -8   19.60    5.90
  22 -10   8   14.90    7.20
  11  11  -8    9.50    5.60
  22 -11   8    0.80    6.80
  12  10  -8   14.50    5.80
  22 -12   8   24.60    7.50
  13   9  -8    3.60    5.50
  22 -13   8    6.30    7.10
  14   8  -8   -3.20    5.10
  -8  22   8   -0.60    6.00
  22 -14   8   -1.10    6.50
  15   7  -8   22.80    6.20
  22 -15   8   29.00    8.00
  -7  22   8   21.30    8.00
  16   6  -8   36.90    6.30
  -6  22   8   19.30    8.10
  22 -16   8   36.80    8.20
  17   5  -8   23.80    6.50
  -5  22   8   17.10    7.80
  22 -17   8   39.80    8.40
  -4  22   8   -2.60    6.80
  22 -18   8   -1.30    6.80
  -3  22   8   32.50    8.30
  22 -19   8   32.80    8.60
  22 -20   8   16.50    8.10
  -2  22   8   15.50    7.70
  -1  22   8   -0.90    7.50
  22 -21   8    4.10    8.00
  23  -3   8   20.80   12.00
   4  19  -8   47.10    8.30
  23  -4   8   54.59    9.00
   5  18  -8    7.20    6.60
  23  -5   8   19.70    7.40
   6  17  -8   22.10    6.60
  23  -6   8   36.80    8.20
   7  16  -8   26.60    7.00
  23  -7   8   27.60    7.60
   8  15  -8   -7.20    5.50
  23  -8   8   20.50    7.00
   9  14  -8   -0.50    5.60
  23  -9   8    3.50    6.50
  10  13  -8    1.90    5.60
  23 -10   8   12.80    6.90
  11  12  -8   -4.10    5.70
  23 -11   8   10.60    7.30
  12  11  -8   13.80    6.70
  23 -12   8   30.80    8.50
  13  10  -8    3.50    6.20
  23 -13   8   -1.10    7.20
  14   9  -8    7.80    6.40
  -9  23   8   19.70    7.40
  23 -14   8   23.20    7.80
  15   8  -8   -7.00    5.60
  -8  23   8    1.70    6.40
  23 -15   8   16.40    7.60
  16   7  -8   -4.00    5.50
  23 -16   8    4.30    7.30
  -7  23   8   -6.90    7.00
  17   6  -8   -1.40    5.80
  23 -17   8   -4.40    7.30
  -6  23   8    1.30    7.30
  18   5  -8   -4.00    9.90
  -5  23   8    6.40    7.20
  23 -18   8    1.70    7.70
  23 -19   8   15.80    8.50
  -4  23   8   14.90    8.10
  23 -20   8   -6.50    7.60
  -3  23   8   -3.30   11.10
   6  18  -8   -1.90    6.70
  24  -6   8   -2.80    8.10
   7  17  -8   -3.40    6.40
  24  -7   8   -9.90    7.00
   8  16  -8    2.20    6.20
  24  -8   8   12.00    7.50
   9  15  -8   41.60    7.90
  24  -9   8   42.20    9.00
  10  14  -8   23.40    7.00
  24 -10   8   33.80    8.60
  11  13  -8    9.20    6.50
  24 -11   8    7.80    8.30
  12  12  -8   14.50    6.80
  24 -12   8   -4.50    7.90
  13  11  -8    7.60    6.60
  24 -13   8    5.20    8.30
  14  10  -8   29.50    7.40
  24 -14   8   30.20    9.00
  15   9  -8   28.30    7.40
  -9  24   8   46.10    8.80
  24 -15   8   43.00    9.50
  16   8  -8    9.70    6.50
  24 -16   8   20.40    8.30
  -8  24   8   13.70    7.40
  17   7  -8   -3.00    6.10
  24 -17   8   -6.60    7.60
  -7  24   8   -6.90    7.40
  18   6  -8    1.70    6.50
  24 -18   8    5.80    8.60
  -6  24   8   -4.30   10.50
  11  14  -8   -3.80    6.70
  25 -11   8  -10.20    8.40
  12  13  -8   20.70    7.80
  25 -12   8    2.00    8.90
  13  12  -8    8.70    7.60
  25 -13   8   15.90    9.60
  14  11  -8  -12.80    6.40
  25 -14   8   -1.30    8.40
   0   0   9 7547.94  189.28
  -1   1   9 1080.09   27.50
   1   0   9 1060.09   27.90
   0  -1   9 1015.50   27.80
   0   1   9 1056.69   27.40
  -1   0   9 1007.70   27.20
   1  -1   9 1058.89   27.80
  -2   1   9   88.49    3.40
   1   1   9   84.99    3.80
   1  -2   9   90.49    4.20
  -3   2   9  614.24   16.40
   1  -3   9  632.14   17.70
   2   1   9  636.94   17.30
  -2   2   9  301.07    8.60
   0  -2   9  313.67    9.50
   2   0   9  303.27    9.40
  -1  -1   9   87.39    3.90
   2  -1   9   83.49    4.20
  -1   2   9   92.69    3.60
   2  -2   9  314.87    9.90
  -2   0   9  319.67    9.10
   0   2   9  303.97    9.10
  -3   1   9  130.89    4.40
   1   2   9  135.99    4.80
   2  -3   9  124.29    5.40
   4  -2  -9   -0.20    0.70
   2   2   9   -0.30    1.20
   2  -4   9    1.10    1.50
   2  -5   9  254.07    8.70
   3   2   9  246.08    8.10
   1  -4   9   14.40    2.10
   3   1   9   10.70    1.90
   0  -3   9  433.96   12.40
   3   0   9  401.96   12.20
  -3   3   9  410.86   11.00
  -2   3   9  143.79    4.50
   3  -1   9  128.19    5.40
  -1  -2   9  131.39    5.10
   3  -2   9  610.74   18.00
  -2  -1   9  646.04   17.30
  -1   3   9  647.34   17.00
   0   3   9  407.86   11.50
   3  -3   9  411.96   12.60
  -3   0   9  415.96   11.50
   4  -1  -9   13.10    1.30
   1   3   9   14.10    1.70
   3  -4   9   15.90    2.20
   5  -2  -9  156.38    4.60
   3  -5   9  145.09    6.30
   2   3   9  156.18    5.60
   3  -6   9   24.80    3.00
   3   3   9   23.60    2.40
   3  -7   9   13.10    2.40
   4   3   9    9.10    2.00
   4   2   9 2457.75   63.79
   2  -6   9 2499.75   64.39
   4   1   9 2100.59   52.99
   1  -5   9 1988.80   53.19
   0  -4   9    8.70    1.80
   4   0   9    6.40    1.80
  -1  -3   9   12.00    1.80
   4  -1   9   12.30    2.00
  -3   4   9   14.80    1.30
  -2  -2   9    0.50    1.20
   4  -2   9   -0.60    1.40
  -2   4   9    1.10    0.90
   3   1  -9    9.60    1.50
  -1   4   9   10.60    1.40
   4  -3   9   15.20    2.30
   4   0  -9   11.40    1.40
   0   4   9    9.20    1.40
   4  -4   9   10.60    2.10
   5  -1  -9  428.66   11.80
   1   4   9  433.36   12.40
   4  -5   9  435.96   13.50
   6  -2  -9  492.45   13.50
   2   4   9  504.95   14.40
   4  -6   9  532.25   15.60
   7  -3  -9  125.59    4.00
   4  -7   9  126.89    6.10
   3   4   9  125.19    5.30
   4   4   9  546.95   16.10
   4  -8   9  564.04   17.00
   4  -9   9   84.29    5.30
   5   4   9   85.29    4.70
   3  -8   9  238.18    9.20
   5   3   9  255.77    8.70
   5   2   9  598.14   17.60
   2  -7   9  630.54   18.20
   5   1   9 2488.55   65.09
   1  -6   9 2567.44   65.59
   5   0   9  170.98    6.60
   0  -5   9  160.68    6.50
   5  -1   9  413.06   12.60
  -1  -4   9  417.06   12.50
  -2  -3   9  150.78    5.70
  -3   5   9  146.79    4.40
   5  -2   9  148.59    6.20
   3   2  -9  240.88    7.70
   5  -3   9  240.58    8.70
  -2   5   9  245.78    7.00
   4   1  -9 2026.10   51.89
  -1   5   9 1970.70   51.59
   5  -4   9 2093.99   53.39
   5   0  -9  170.68    5.40
   5  -5   9  148.59    6.80
   0   5   9  156.28    5.50
   6  -1  -9  551.84   15.20
   5  -6   9  579.24   17.20
   1   5   9  571.74   15.80
   7  -2  -9   36.90    2.30
   5  -7   9   46.00    4.10
   2   5   9   40.70    3.10
   8  -3  -9   23.60    1.70
   5  -8   9   19.10    3.00
   3   5   9   19.20    2.30
   4   5   9   85.99    4.70
   5  -9   9   92.49    5.70
   5 -10   9   -4.20    2.10
   5   5   9   -3.30    1.60
   6   5   9  162.08    7.10
   5 -11   9  166.58    8.00
   6   4   9   80.09    4.90
   4 -10   9   75.99    5.60
   3  -9   9  149.49    7.20
   6   3   9  154.18    6.60
   6   2   9  455.35   14.00
   2  -8   9  456.95   14.50
   1  -7   9   45.60    3.90
   6   1   9   47.70    3.80
   6   0   9  111.29    5.30
   0  -6   9   96.59    5.30
  -1  -5   9  545.65   16.30
   6  -1   9  577.14   16.60
   2   4  -9  513.15   14.60
   6  -2   9  494.35   15.10
   3   3  -9   29.50    2.50
   6  -3   9   26.60    3.00
  -3   6   9   25.70    1.70
   4   2  -9 2342.67   60.19
   6  -4   9 2400.06   61.59
  -2   6   9 2322.47   59.49
   5   1  -9 2536.85   64.09
  -1   6   9 2484.25   63.79
   6  -5   9 2524.15   65.69
   6   0  -9   96.09    4.00
   6  -6   9  101.89    5.70
   0   6   9   99.99    4.10
   7  -1  -9  157.78    5.50
   6  -7   9  173.18    7.40
   1   6   9  168.08    6.00
   8  -2  -9  115.39    4.30
   6  -8   9  121.09    6.20
   2   6   9  110.29    5.00
   9  -3  -9  219.78    7.70
   3   6   9  195.78    7.50
   6  -9   9  219.78    8.90
   4   6   9  149.79    6.50
   6 -10   9  149.79    7.70
   5   6   9  181.98    7.40
   6 -11   9  164.68    8.40
   6   6   9  325.77   11.40
   6 -12   9  325.57   12.40
   6 -13   9   -1.10    2.70
   7   6   9    2.40    2.60
   5 -12   9  219.58    9.80
   7   5   9  219.28    8.90
   7   4   9   27.00    3.30
   4 -11   9   28.80    3.90
   3 -10   9  185.28    8.20
   7   3   9  182.78    7.60
   7   2   9  178.48    7.50
   2  -9   9  194.48    8.10
   7   1   9  285.77    9.90
   1  -8   9  277.37   10.10
   0  -7   9  495.35   15.10
   7   0   9  491.85   15.00
   1   6  -9  157.98    6.50
   7  -1   9  174.58    7.00
   2   5  -9   44.10    3.40
   7  -2   9   39.80    3.50
   3   4  -9  120.49    5.20
   7  -3   9  128.69    6.00
   4   3  -9   10.50    1.90
   7  -4   9    5.50    2.30
  -3   7   9   11.10    1.30
   5   2  -9  595.94   17.40
   7  -5   9  663.53   19.10
  -2   7   9  636.44   16.90
   6   1  -9   39.80    3.00
  -1   7   9   48.70    2.90
   7  -6   9   51.19    4.40
   7   0  -9  483.55   13.80
   7  -7   9  489.95   15.80
   0   7   9  507.15   14.10
   8  -1  -9   45.40    3.00
   1   7   9   49.00    3.30
   7  -8   9   52.09    4.50
   9  -2  -9  319.77    9.50
   7  -9   9  308.17   11.50
   2   7   9  324.17   10.20
   7 -10   9 1697.03   46.00
   3   7   9 1683.53   44.50
   4   7   9  195.18    7.80
   7 -11   9  197.78    9.30
   7 -12   9  283.47   11.50
   5   7   9  287.37   10.30
   7 -13   9    1.80    2.90
   6   7   9    5.20    2.60
   7 -14   9   63.29    5.80
   7   7   9   74.19    6.00
   8   7   9   23.70    4.10
   7 -15   9   21.70    4.50
   8   6   9   94.39    6.70
   6 -14   9  110.29    7.50
   8   5   9   44.30    4.40
   5 -13   9   45.10    4.90
   8   4   9  230.48    9.30
   4 -12   9  227.68   10.20
   3 -11   9  840.72   25.00
   8   3   9  857.21   24.50
   8   2   9  267.57    9.80
   2 -10   9  253.57   10.00
   8   1   9   39.10    3.80
   1  -9   9   32.10    3.60
   0   8  -9    2.60    2.00
   0  -8   9   -0.20    1.90
   8   0   9    1.10    1.90
   1   7  -9   37.90    3.40
   8  -1   9   51.49    4.20
   2   6  -9  120.69    5.50
   8  -2   9  119.29    6.00
   3   5  -9   22.90    2.60
   8  -3   9   21.30    2.90
   4   4  -9  536.05   15.70
   8  -4   9  556.14   16.80
  -4   8   9  542.05   14.30
   5   3  -9  245.38    8.20
  -3   8   9  247.28    7.30
   8  -5   9  244.28    9.60
   6   2  -9  456.25   13.40
   8  -6   9  465.25   15.00
  -2   8   9  456.45   12.80
   7   1  -9  263.47    8.50
   8  -7   9  270.87   10.40
  -1   8   9  269.37    8.40
   8   0  -9    1.20    1.50
   8  -8   9   -1.90    2.20
   0   8   9    1.20    1.40
   9  -1  -9    5.70    1.70
   1   8   9    4.10    1.70
   8  -9   9    2.90    2.40
  10  -2  -9  604.74   17.00
   8 -10   9  640.24   19.60
   2   8   9  602.74   17.70
   8 -11   9  697.83   21.20
   3   8   9  656.43   19.50
   8 -12   9  101.49    7.40
   4   8   9  134.99    6.50
   8 -13   9  134.79    8.10
   5   8   9  131.09    6.90
   6   8   9   72.89    5.90
   8 -14   9   55.59    5.70
   7   8   9  307.57   11.90
   8 -15   9  307.57   13.10
   8 -16   9  244.38   12.00
   8   8   9  262.87   11.30
   8 -17   9   16.00    5.30
   9   8   9   29.30    4.80
   7 -16   9   19.40    5.00
   9   7   9   26.20    4.50
   6 -15   9   35.90    5.10
   9   6   9   35.00    4.70
   9   5   9  313.97   12.10
   5 -14   9  320.37   13.00
   4 -13   9   57.29    5.30
   9   4   9   52.49    4.80
   3 -12   9 1126.49   32.80
   9   3   9 1176.98   32.30
   9   2   9  368.86   12.70
   2 -11   9  359.86   13.00
  -1  10  -9   13.40    2.90
   9   1   9   15.10    3.20
   0   9  -9   52.59    4.60
   9   0   9   49.99    4.20
   1   8  -9    2.50    2.10
   9  -1   9    2.40    2.10
   2   7  -9  340.27   11.30
   9  -2   9  335.67   11.70
   3   6  -9  214.88    8.10
   9  -3   9  220.58    8.80
   4   5  -9   92.19    4.80
   9  -4   9   85.89    5.40
   5   4  -9   92.79    4.70
  -4   9   9   80.29    3.30
   9  -5   9   81.19    5.70
   6   3  -9  145.29    6.10
   9  -6   9  164.48    7.60
  -3   9   9  154.18    5.30
   7   2  -9  184.78    6.80
   9  -7   9  186.38    8.50
  -2   9   9  177.78    6.20
   8   1  -9   33.60    2.80
  -1   9   9   37.20    2.80
   9  -8   9   37.40    4.20
   9   0  -9   50.09    3.70
   9  -9   9   48.70    4.80
   0   9   9   49.40    3.60
  10  -1  -9  215.58    7.40
   1   9   9  212.68    7.80
   9 -10   9  199.28    9.40
   2   9   9   62.29    4.70
   9 -11   9   42.80    4.80
   3   9   9  298.87   10.40
   9 -12   9  289.77   11.90
   4   9   9  180.28    8.00
   9 -13   9  178.98    9.20
   5   9   9   18.50    3.30
   9 -14   9   22.50    4.50
   9 -15   9  158.18    9.10
   6   9   9  131.19    7.80
   9 -16   9  517.85   18.60
   7   9   9  490.05   17.00
   9 -17   9   81.09    7.70
   8   9   9   75.79    6.40
   9   9   9   99.89    8.70
   9 -18   9   90.29    8.30
   9 -19   9   -8.50    5.00
  10   9   9    5.90    4.50
   8 -18   9  205.18   11.70
  10   8   9  153.08    9.70
  10   7   9  143.29    8.70
   7 -17   9  131.39   10.00
   6 -16   9   11.70    4.40
  10   6   9   19.90    4.10
  10   5   9   17.10    3.70
   5 -15   9   24.00    4.50
   4 -14   9  330.77   13.30
  10   4   9  354.46   12.90
  -3  13  -9   10.60    3.50
   3 -13   9    9.20    3.40
  10   3   9   14.70    3.60
  -2  12  -9   51.59    4.80
  10   2   9   51.19    4.80
  -1  11  -9  121.39    6.90
  10   1   9  136.79    7.20
   0  10  -9  380.76   13.20
  10   0   9  407.66   13.60
   1   9  -9  206.38    8.30
  10  -1   9  199.58    8.60
   2   8  -9  601.94   17.90
  10  -2   9  588.14   18.40
   3   7  -9 1750.02   46.40
  10  -3   9 1751.62   47.10
   4   6  -9  156.58    6.80
  10  -4   9  159.28    7.60
   5   5  -9    0.40    1.70
  10  -5   9   -4.20    2.20
   6   4  -9   89.09    4.70
  10  -6   9   72.19    5.70
  -4  10   9   90.39    4.20
   7   3  -9  179.88    6.90
  10  -7   9  184.98    8.50
  -3  10   9  182.08    6.30
   8   2  -9  271.47    9.10
  10  -8   9  269.77   11.00
  -2  10   9  260.17    8.50
   9   1  -9   18.30    2.50
  -1  10   9   13.60    2.30
  10  -9   9    3.30    2.90
  10   0  -9  377.76   11.80
   0  10   9  389.26   12.00
  10 -10   9  377.86   14.00
  11  -1  -9  167.28    6.80
   1  10   9  171.38    7.00
  10 -11   9  145.29    8.60
   2  10   9  179.58    7.70
  10 -12   9  180.18    9.40
  10 -13   9   54.49    5.70
   3  10   9   58.29    4.80
  10 -14   9   17.10    4.30
   4  10   9   28.50    3.70
  10 -15   9   -3.10    3.50
   5  10   9    1.30    2.80
   6  10   9   13.90    3.80
  10 -16   9    4.80    4.40
   7  10   9   29.10    4.70
  10 -17   9   34.70    6.00
  10 -18   9   88.89    8.40
   8  10   9  108.79    8.60
   9  10   9   48.20    6.10
  10 -19   9   41.30    7.10
  10  10   9   47.80    6.50
  10 -20   9   44.10    7.40
  10 -21   9  146.89   12.00
  11  10   9   98.09    8.80
   9 -20   9  168.48   12.40
  11   9   9  171.68   11.10
   8 -19   9   12.20    5.50
  11   8   9   17.30    5.00
   7 -18   9   93.09    8.50
  11   7   9  107.29    8.90
  -6  17  -9   10.10    4.30
   6 -17   9    7.20    4.80
  11   6   9    7.30    4.00
  -5  16  -9  140.69    9.30
  11   5   9  145.79    8.90
  -4  15  -9    3.50    3.50
  11   4   9   12.60    3.80
  -3  14  -9  271.07   11.60
  11   3   9  283.97   11.60
  -2  13  -9  170.98    9.00
  11   2   9  189.78    9.20
  -1  12  -9  101.49    6.70
  11   1   9   98.59    6.80
   0  11  -9   13.20    3.20
  11   0   9   15.70    3.30
   1  10  -9  175.38    8.10
  11  -1   9  158.48    7.90
   2   9  -9   67.79    5.50
  11  -2   9   74.29    6.00
   3   8  -9  679.23   19.90
  11  -3   9  656.13   20.40
   4   7  -9  197.98    8.40
  11  -4   9  213.68    9.10
   5   6  -9  170.88    7.30
  11  -5   9  165.98    8.20
   6   5  -9  164.08    7.00
  11  -6   9  162.18    8.10
   7   4  -9   31.80    3.20
  11  -7   9   29.00    4.40
   8   3  -9  832.82   23.60
  -3  11   9  838.92   22.90
  11  -8   9  876.41   25.70
   9   2  -9  375.16   12.00
  -2  11   9  367.06   11.50
  11  -9   9  373.96   14.00
  10   1  -9  136.59    6.40
  11 -10   9  118.59    8.10
  -1  11   9  137.09    6.00
  11   0  -9   15.70    2.80
   0  11   9   15.30    2.70
  11 -11   9   11.00    3.60
  12  -1  -9   39.10    5.40
  11 -12   9   29.60    4.50
   1  11   9   41.70    3.80
   2  11   9   27.90    3.60
  11 -13   9   21.80    4.40
   3  11   9   27.90    3.90
  11 -14   9   33.20    5.40
   4  11   9   20.30    3.80
  11 -15   9    9.30    4.20
   5  11   9  171.38    8.80
   5  11   9  168.08    9.30
  11 -16   9  134.59    9.90
   6  11   9   86.19    7.50
   6  11   9   77.29    7.30
  11 -17   9   71.79    7.50
   7  11   9  124.29    8.90
  11 -18   9  110.19    9.80
   8  11   9   89.89    7.70
  11 -19   9   84.69    8.40
   9  11   9   18.50    5.40
  11 -20   9    6.90    5.80
  11 -21   9   32.90    7.10
  10  11   9   39.60    6.60
  11 -22   9   26.70    7.50
  11  11   9   27.90    6.50
 -11  23  -9    0.00    5.70
  12  11   9   17.00    6.40
 -10  22  -9   61.29    8.00
  12  10   9   62.89    7.80
  -9  21  -9   49.40    7.20
  12   9   9   47.80    6.70
  -8  20  -9   18.00    5.90
  12   8   9   19.80    5.30
  -7  19  -9   17.50    5.30
  12   7   9    7.00    4.90
  -6  18  -9   -0.10    4.50
  12   6   9    4.90    4.50
  -5  17  -9  132.39    9.70
  12   5   9  136.69    8.90
  -4  16  -9  206.88   10.90
  12   4   9  215.68   10.80
  -3  15  -9   31.70    4.60
  12   3   9   33.80    4.70
  -2  14  -9   97.99    7.50
  12   2   9  112.59    7.90
  -1  13  -9  146.49    8.60
  12   1   9  169.18    9.00
   0  12  -9   35.70    4.40
  12   0   9   24.80    4.10
   1  11  -9   41.00    4.40
  12  -1   9   36.40    4.50
   2  10  -9  207.48    8.90
  12  -2   9  169.48    8.90
   3   9  -9  298.17   10.90
  12  -3   9  291.17   11.60
   4   8  -9  118.49    6.60
  12  -4   9  141.99    7.60
   5   7  -9  275.17   10.40
  12  -5   9  294.57   11.20
   6   6  -9  322.07   11.30
  12  -6   9  331.97   12.40
   7   5  -9  219.78    8.60
  12  -7   9  219.58    9.90
   8   4  -9  233.18    9.00
  12  -8   9  225.58   10.60
   9   3  -9 1181.38   32.10
  12  -9   9 1174.58   34.10
  -3  12   9 1169.78   31.70
  10   2  -9   49.20    4.20
  12 -10   9   51.39    5.60
  -2  12   9   58.19    4.40
  11   1  -9   89.49    5.70
  12 -11   9   99.99    7.40
  -1  12   9   95.39    5.50
  12   0  -9   34.30    3.70
   0  12   9   34.20    3.60
  12 -12   9   37.80    5.20
  12 -13   9  271.77   12.60
   1  12   9  280.07   10.20
  12 -14   9  243.38   12.00
   2  12   9  258.27   10.30
   2  12   9  250.97   11.40
  12 -15   9    3.30    4.30
   3  12   9   13.70    4.30
   3  12   9    4.40    3.20
  12 -16   9  143.79   10.20
   4  12   9  156.48    9.60
   4  12   9  153.08    8.50
   5  12   9   31.30    4.70
   5  12   9   44.00    6.10
  12 -17   9   37.90    6.20
  12 -18   9    4.40    4.70
   6  12   9    5.50    4.50
   6  12   9    7.00    4.30
  12 -19   9    9.10    6.10
   7  12   9   10.10    5.00
   7  12   9   18.60    5.10
  12 -20   9   -3.00    5.70
   8  12   9    0.70    4.40
   8  12   9    0.00    4.50
   9  12   9   -2.00    5.00
  12 -21   9   -2.70    5.80
  12 -22   9   13.60    7.00
  10  12   9   29.50    6.40
  12 -23   9    5.80    7.30
  11  12   9    7.30    6.10
 -12  24  -9   34.20    7.50
  12  12   9   21.30    7.30
 -11  24  -9    9.30    6.80
  13  11   9   13.70    7.10
 -10  23  -9   -0.50    5.70
  13  10   9    4.80    5.70
  -9  22  -9    4.00    5.80
  13   9   9   11.50    6.00
  -8  21  -9   10.00    5.80
  13   8   9   16.50    5.80
  -7  20  -9   88.19    8.60
  13   7   9  116.29   10.10
  -6  19  -9   19.20    5.50
  13   6   9   23.00    5.50
  -5  18  -9  171.08   11.00
  13   5   9  162.68   10.50
  -4  17  -9  245.58   12.30
  13   4   9  235.18   11.90
  -3  16  -9   77.19    7.20
  13   3   9  105.69    8.30
  -2  15  -9   36.40    5.20
  13   2   9   47.20    5.50
  -1  14  -9   39.90    5.10
  13   1   9   56.89    5.70
   0  13  -9   18.00    4.30
  13   0   9   22.70    4.20
   1  12  -9  268.67   11.30
  13  -1   9  274.57   11.40
   2  11  -9   23.50    3.80
  13  -2   9   23.00    4.10
   3  10  -9   50.29    4.80
  13  -3   9   53.39    5.20
   4   9  -9  166.28    8.20
  13  -4   9  183.88    9.20
   5   8  -9  138.79    7.20
  13  -5   9  138.89    7.80
   6   7  -9    2.80    2.60
  13  -6   9    5.50    3.00
   7   6  -9    2.60    2.50
  13  -7   9    5.00    3.30
   8   5  -9   61.49    4.80
  13  -8   9   48.20    5.50
   9   4  -9   69.79    5.40
  13  -9   9   63.29    6.00
  10   3  -9    8.20    2.90
  13 -10   9    7.70    3.60
  11   2  -9  168.58    7.80
  -2  13   9  170.78    7.20
  13 -11   9  174.88    9.60
  12   1  -9  144.09    7.40
  13 -12   9  161.48    9.80
  -1  13   9  157.38    7.20
  13   0  -9   16.80    5.50
  13 -13   9   28.10    5.00
   0  13   9   26.00    4.50
   0  13   9   27.80    3.70
   1  13   9  410.16   16.00
  13 -14   9  459.35   17.10
   1  13   9  427.66   14.40
   2  13   9  327.77   12.30
   2  13   9  310.77   13.60
  13 -15   9  326.57   14.70
   3  13   9   33.30    4.60
   3  13   9   22.10    5.30
  13 -16   9   24.50    5.80
  13 -17   9   33.60    6.70
   4  13   9   28.70    4.80
   4  13   9   30.60    5.90
   5  13   9  116.09    8.80
  13 -18   9   95.59    8.90
   5  13   9  115.19    9.30
  13 -19   9  124.59   10.70
   6  13   9  119.29    9.70
   6  13   9  128.29   10.30
   7  13   9   19.80    5.70
   7  13   9   18.60    5.40
  13 -20   9    7.00    6.10
   8  13   9   17.30    5.40
  13 -21   9    0.40    5.90
   8  13   9   10.20    5.30
  13 -22   9   86.89    9.80
   9  13   9   82.29    8.40
  10  13   9   27.40    7.10
  13 -23   9   24.00    7.90
  11  13   9   15.10    7.30
  13 -24   9   13.40    8.00
 -10  24  -9   22.80    7.40
  14  10   9   26.00    7.80
  -9  23  -9   53.79    8.30
  14   9   9   51.59    7.90
  -8  22  -9  -13.40    5.70
  14   8   9    5.90    5.60
  -7  21  -9   19.80    6.00
  14   7   9   10.60    5.60
  -6  20  -9  120.99   10.40
  14   6   9  137.99   10.20
  -5  19  -9   15.80    5.60
  14   5   9    9.90    5.20
  -4  18  -9   71.19    7.40
  14   4   9   80.79    7.60
  -3  17  -9    3.50    4.50
  14   3   9    8.30    4.50
  -2  16  -9   37.80    5.70
  14   2   9   29.60    5.40
  -1  15  -9   69.09    6.50
  14   1   9   90.49    7.70
   0  14  -9    9.20    3.80
  14   0   9   12.80    4.30
   1  13  -9  437.76   15.70
  14  -1   9  442.26   16.10
   2  12  -9  249.78   10.90
  14  -2   9  261.37   11.30
   3  11  -9   26.20    4.20
  14  -3   9   22.80    4.50
   4  10  -9   26.30    3.90
  14  -4   9   13.70    3.90
   5   9  -9   20.20    3.60
  14  -5   9   21.80    4.20
   6   8  -9   68.99    5.90
  14  -6   9   60.59    5.70
   7   7  -9   88.49    6.20
  14  -7   9   73.09    6.30
   8   6  -9  104.39    6.40
  14  -8   9   70.49    6.40
   9   5  -9  321.47   11.50
  14  -9   9  310.67   13.20
  10   4  -9  347.27   12.20
  14 -10   9  334.37   14.20
  11   3  -9  259.47   10.30
  14 -11   9  261.57   12.30
  12   2  -9   85.09    6.50
  14 -12   9  106.19    8.70
  13   1  -9   54.99    4.90
  14 -13   9   63.59    6.70
  -1  14   9   47.00    4.40
  -1  14   9   52.09    6.10
   0  14   9   10.80    3.30
   0  14   9   12.40    4.50
  14 -14   9    7.20    4.60
   1  14   9  176.48    8.90
  14 -15   9  185.88   11.70
   1  14   9  201.08   11.20
   2  14   9    7.20    4.70
   2  14   9    0.50    3.20
  14 -16   9    1.60    5.00
   3  14   9  112.59    9.10
   3  14   9  112.79    8.20
  14 -17   9   97.39    9.00
   4  14   9   16.20    5.40
  14 -18   9    3.10    5.50
   4  14   9    5.30    4.30
   5  14   9  162.58   10.50
   5  14   9  174.98   11.10
  14 -19   9  187.08   12.10
   6  14   9  124.29   10.80
   6  14   9  141.09   10.40
  14 -20   9  134.89   11.40
   7  14   9    8.50    5.90
   7  14   9    9.10    5.50
  14 -21   9   -0.50    6.20
  14 -22   9   54.19    8.50
   8  14   9   51.29    7.90
   8  14   9   63.19    7.80
  14 -23   9    1.70    7.10
   9  14   9    4.70    6.30
  10  14   9   59.19    8.90
  14 -24   9   59.49    9.70
  -9  24  -9   29.80    7.70
  15   9   9   30.50    7.80
  -8  23  -9   16.30    6.90
  15   8   9   16.30    6.90
  -7  22  -9   34.40    7.30
  15   7   9   62.59    8.20
  -6  21  -9    8.70    5.50
  15   6   9    1.50    5.50
  -5  20  -9   63.29    7.90
  15   5   9   72.59    8.00
  -4  19  -9   26.30    6.10
  15   4   9   33.70    6.60
  -3  18  -9   16.30    5.70
  15   3   9   19.20    5.50
  -2  17  -9   42.00    6.50
  15   2   9   48.50    6.50
  -1  16  -9  166.38   10.20
  15   1   9  168.98   10.70
   0  15  -9   70.79    6.60
  15   0   9   62.69    6.50
   1  14  -9  178.48    9.90
  15  -1   9  164.88    9.80
   2  13  -9  324.57   13.30
  15  -2   9  316.17   13.60
   3  12  -9    3.30    3.60
  15  -3   9    0.00    3.80
   4  11  -9   15.50    4.00
  15  -4   9   14.40    4.30
   5  10  -9    1.90    2.90
  15  -5   9   -3.00    3.40
   6   9  -9  141.89    8.10
  15  -6   9  140.89    8.80
   7   8  -9  345.17   12.60
  15  -7   9  319.07   13.30
   8   7  -9   29.30    4.10
  15  -8   9   29.50    5.30
   9   6  -9   34.20    4.20
  15  -9   9   21.10    4.80
  10   5  -9   17.50    3.50
  15 -10   9   30.00    5.10
  11   4  -9    6.50    3.20
  15 -11   9   11.30    4.30
  12   3  -9   31.60    4.10
  15 -12   9   29.70    5.20
  13   2  -9   37.80    4.50
  -2  15   9   37.40    5.40
  15 -13   9   27.40    5.60
  -1  15   9   68.49    7.00
  15 -14   9   62.69    7.10
  -1  15   9   67.39    7.00
  15 -15   9   61.59    7.20
   0  15   9   57.49    5.20
   0  15   9   64.29    7.20
   1  15   9   60.49    5.50
   1  15   9   60.59    7.10
  15 -16   9   45.50    7.20
   2  15   9  155.08    9.10
   2  15   9  160.78   10.90
  15 -17   9  149.09   11.90
  15 -18   9   53.79    7.40
   3  15   9   55.69    5.90
   3  15   9   48.10    6.90
   4  15   9    3.80    4.90
   4  15   9   13.80    5.50
  15 -19   9    5.80    6.20
   5  15   9   75.99    8.40
  15 -20   9   67.59    8.70
   5  15   9   63.29    7.10
   6  15   9   47.70    7.70
   6  15   9   50.99    7.20
  15 -21   9   69.09    8.90
   7  15   9    9.30    6.20
   7  15   9    6.10    6.10
  15 -22   9    0.80    7.10
   8  15   9   23.40    7.30
   8  15   9   28.20    7.30
  15 -23   9    7.70    6.90
   9  15   9   76.79    9.50
  15 -24   9   82.99   10.90
  -8  24  -9    9.80    7.30
  16   8   9   12.60    7.40
  -7  23  -9   33.40    7.80
  16   7   9   15.20    6.90
  -6  22  -9   97.29    9.60
  16   6   9  103.09    9.70
  -5  21  -9   22.00    6.50
  16   5   9   20.70    6.40
  -4  20  -9   30.20    6.50
  16   4   9   51.89    7.20
  -3  19  -9   79.29    8.10
  16   3   9   90.69    8.50
  -2  18  -9    3.10    4.90
  16   2   9    0.90    5.10
  -1  17  -9    0.10    4.30
  16   1   9    6.30    5.00
   0  16  -9   61.09    6.60
  16   0   9   60.39    6.90
   1  15  -9   53.39    6.30
  16  -1   9   56.39    6.60
   2  14  -9    7.10    4.10
  16  -2   9    2.70    4.00
   3  13  -9   29.50    4.90
  16  -3   9   23.60    5.10
   4  12  -9  154.08    9.50
  16  -4   9  170.88    9.90
   5  11  -9  186.98    9.80
  16  -5   9  172.28   10.10
   6  10  -9   15.30    3.90
  16  -6   9   10.20    4.40
   7   9  -9  502.45   17.00
  16  -7   9  487.85   18.10
   8   8  -9  266.47   11.20
  16  -8   9  240.08   12.60
   9   7  -9   26.20    4.20
  16  -9   9   25.70    5.40
  10   6  -9   20.10    3.80
  16 -10   9   12.10    4.90
  11   5  -9  153.88    8.30
  16 -11   9  130.39   10.40
  12   4  -9  213.98    9.90
  16 -12   9  193.58   12.20
  13   3  -9   98.69    7.50
  16 -13   9   72.69    7.80
  -3  16   9  104.19    8.40
  14   2  -9   39.90    5.00
  16 -14   9   31.20    6.30
  -2  16   9   37.20    5.80
  16 -15   9  164.08   12.00
  -1  16   9  175.38   10.80
  16 -16   9   69.89    8.20
   0  16   9   74.49    8.20
   1  16   9   33.00    5.20
   1  16   9   24.50    6.00
  16 -17   9   26.60    6.70
   2  16   9    0.10    4.30
  16 -18   9    6.80    6.10
   2  16   9    6.70    5.60
   3  16   9    5.20    5.20
   3  16   9    5.10    4.50
  16 -19   9  -12.40    5.70
   4  16   9    3.70    5.50
   4  16   9    3.60    5.10
  16 -20   9   -1.50    6.20
  16 -21   9   10.50    6.90
   5  16   9    8.80    6.00
   5  16   9    3.40    5.70
   6  16   9   20.10    6.40
  16 -22   9    7.70    7.50
   6  16   9   14.70    6.50
  16 -23   9   53.99    9.40
   7  16   9   59.59    8.60
   7  16   9   58.49    8.20
   8  16   9    9.50    7.20
   8  16   9    8.20    7.10
  16 -24   9   -1.10    7.70
  17   7   9    0.00   10.80
  -6  23  -9   35.40    7.50
  17   6   9   40.30    8.00
  -5  22  -9   76.39    8.90
  17   5   9  104.39    9.80
  -4  21  -9   52.59    7.30
  17   4   9   46.30    7.50
  -3  20  -9   12.70    5.70
  17   3   9   11.40    6.10
  -2  19  -9    1.50    5.10
  17   2   9    1.80    5.60
  -1  18  -9  137.29   10.40
  17   1   9  138.69   11.20
   0  17  -9   76.19    7.60
  17   0   9   86.29    8.10
   1  16  -9   28.70    5.60
  17  -1   9   26.10    5.80
   2  15  -9  151.58   10.10
  17  -2   9  138.29    9.80
   3  14  -9  118.69    9.10
  17  -3   9  117.29    9.30
   4  13  -9   31.10    5.30
  17  -4   9   23.70    5.40
   5  12  -9   43.70    5.60
  17  -5   9   35.80    5.70
   6  11  -9   80.89    6.80
  17  -6   9   68.79    7.00
   7  10  -9   25.50    4.70
  17  -7   9   30.10    5.50
   8   9  -9   89.69    7.90
  17  -8   9  105.19    8.90
   9   8  -9   22.10    4.50
  17  -9   9   30.30    5.80
  10   7  -9  145.19    8.90
  17 -10   9  163.08   11.40
  11   6  -9   13.40    3.90
  17 -11   9    3.80    4.80
  12   5  -9  138.89    8.50
  17 -12   9  130.89   10.70
  13   4  -9  242.38   10.90
  -4  17   9  226.48   12.00
  17 -13   9  247.38   13.80
  14   3  -9   10.00    4.30
  -3  17   9   17.90    5.30
  17 -14   9    8.40    5.80
  17 -15   9   43.50    7.30
  -2  17   9   45.70    6.80
  17 -16   9    4.00    5.40
  -1  17   9    4.20    5.20
  17 -17   9   66.49    8.50
   0  17   9   71.99    8.40
  17 -18   9   40.20    8.00
   1  17   9   57.19    7.80
   2  17   9   11.80    5.80
   2  17   9    6.20    5.10
  17 -19   9    5.60    6.80
   3  17   9   25.60    6.70
   3  17   9   29.60    6.00
  17 -20   9   28.40    7.80
   4  17   9   84.69    8.40
  17 -21   9   75.69    9.70
   4  17   9   85.29    9.40
   5  17   9   26.30    6.80
   5  17   9   17.20    7.00
  17 -22   9    9.80    7.50
   6  17   9   37.40    8.40
   6  17   9   50.69    8.40
  17 -23   9   44.30    9.20
  17 -24   9  -10.50    7.80
   7  17   9    1.70    7.60
   7  17   9   -1.90    7.00
  -5  23  -9    3.60    6.40
  18   5   9   18.30    7.50
  -4  22  -9   -0.70    5.90
  18   4   9   15.90    6.90
  -3  21  -9   10.10    6.00
  18   3   9    5.60    6.60
  -2  20  -9    8.30    5.90
  18   2   9    1.40    6.20
  -1  19  -9   41.60    7.00
  18   1   9   58.49    8.00
   0  18  -9  152.78   10.90
  18   0   9  176.98   12.10
   1  17  -9   62.89    7.10
  18  -1   9   56.99    7.70
   2  16  -9    5.80    4.50
  18  -2   9   10.40    5.40
   3  15  -9   48.60    6.60
  18  -3   9   66.09    7.40
   4  14  -9   12.60    4.90
  18  -4   9   14.20    5.20
   5  13  -9  119.39    9.40
  18  -5   9  120.79    9.70
   6  12  -9    5.10    4.20
  18  -6   9    4.60    5.00
   7  11  -9  125.39    9.10
  18  -7   9  118.29   10.10
   8  10  -9  106.69    8.40
  18  -8   9   80.89    7.90
   9   9  -9  109.69    8.40
  18  -9   9  113.99    9.50
  10   8  -9  179.78   10.00
  18 -10   9  174.88   11.70
  11   7  -9  116.39    8.50
  18 -11   9  104.99    9.50
  12   6  -9    8.60    4.20
  18 -12   9   -5.50    5.10
  13   5  -9  146.99    9.40
  18 -13   9  170.48   12.70
  14   4  -9   71.09    6.60
  18 -14   9   79.19    8.50
  -4  18   9   69.69    7.80
  15   3  -9   22.50    5.40
  -3  18   9   32.30    6.40
  18 -15   9   22.30    6.60
  18 -16   9    5.70    6.00
  -2  18   9    8.90    5.60
  18 -17   9  146.39   12.70
  -1  18   9  142.39   11.10
  18 -18   9  175.28   13.50
   0  18   9  162.58   11.70
   1  18   9   46.40    7.70
  18 -19   9   38.70    8.20
   2  18   9   25.30    7.00
  18 -20   9   31.90    8.10
   3  18   9   82.09   10.50
   3  18   9   67.79    8.80
  18 -21   9   89.09   10.20
   4  18   9    5.00    6.20
   4  18   9    6.60    6.60
  18 -22   9    0.70    7.40
   5  18   9   10.00    7.10
   5  18   9   24.50    7.70
  18 -23   9   20.90    8.60
  19   4   9   24.90   11.50
  -3  22  -9   52.09    8.00
  19   3   9   56.19    8.90
  -2  21  -9   49.40    7.90
  19   2   9   50.19    8.20
  -1  20  -9   11.50    5.70
  19   1   9   14.90    6.60
   0  19  -9   82.29    8.40
  19   0   9   72.29    8.70
   1  18  -9   22.20    6.20
  19  -1   9   35.90    7.00
   2  17  -9    1.20    5.10
  19  -2   9    2.30    5.70
   3  16  -9    3.20    4.90
  19  -3   9    7.40    5.50
   4  15  -9    7.00    5.00
  19  -4   9    8.10    5.60
   5  14  -9  188.68   11.30
  19  -5   9  166.78   11.90
   6  13  -9  123.29    9.50
  19  -6   9  150.28   10.60
   7  12  -9   12.80    4.90
  19  -7   9    9.20    5.40
   8  11  -9   76.69    7.10
  19  -8   9   91.09    8.80
   9  10  -9   39.90    5.80
  19  -9   9   51.39    7.50
  10   9  -9    1.80    4.20
  19 -10   9    6.60    5.70
  11   8  -9   19.60    4.90
  19 -11   9   18.20    6.40
  12   7  -9    6.70    4.40
  19 -12   9   16.40    6.40
  13   6  -9   16.80    4.90
  19 -13   9   16.20    6.40
  14   5  -9   19.00    4.90
  -5  19   9   21.60    5.80
  19 -14   9   18.10    6.50
  15   4  -9   30.20    5.60
  19 -15   9   37.90    7.70
  -4  19   9   35.50    6.70
  -3  19   9   91.59    9.30
  19 -16   9   82.29    9.40
  19 -17   9    0.80    6.30
  -2  19   9    9.70    6.10
  -1  19   9   55.49    8.20
  19 -18   9   61.49    8.90
   0  19   9   74.89    9.60
  19 -19   9   67.39    9.30
  19 -20   9    8.90    7.00
   1  19   9    9.60    6.40
   2  19   9   32.60    7.50
  19 -21   9   22.50    7.90
  19 -22   9   34.60    9.00
   3  19   9   28.90    7.90
   4  19   9   84.89   10.60
  19 -23   9  120.79   12.10
  -2  22  -9   28.70    7.50
  20   2   9   34.20    9.10
  -1  21  -9    8.30    6.40
  20   1   9   12.30    7.20
   0  20  -9    8.00    6.10
  20   0   9    7.10    6.90
   1  19  -9   11.60    6.10
  20  -1   9   12.90    6.50
   2  18  -9   20.10    6.40
  20  -2   9   26.40    7.00
   3  17  -9   21.50    6.10
  20  -3   9   17.60    6.90
   4  16  -9    6.00    5.30
  20  -4   9    4.80    5.90
   5  15  -9   68.29    7.60
  20  -5   9   77.99    8.70
   6  14  -9  130.19   10.00
  20  -6   9  128.49   11.30
   7  13  -9   14.30    5.40
  20  -7   9    8.90    6.00
   8  12  -9   -2.60    4.50
  20  -8   9  -10.10    5.00
   9  11  -9    9.40    4.90
  20  -9   9   15.50    6.30
  10  10  -9   50.29    6.50
  20 -10   9   56.09    8.30
  11   9  -9  179.58   10.90
  20 -11   9  179.68   12.90
  12   8  -9    9.70    4.90
  20 -12   9   14.60    6.80
  13   7  -9  110.49    9.60
  20 -13   9   97.39   10.30
  14   6  -9  132.89   10.00
  20 -14   9  114.59   10.80
  15   5  -9   73.49    7.20
  20 -15   9   74.89    9.40
  -5  20   9   61.19    8.10
  -4  20   9   48.10    8.20
  20 -16   9   52.09    8.30
  20 -17   9   16.00    7.10
  -3  20   9   15.90    7.10
  -2  20   9    3.60    6.20
  20 -18   9    0.00    6.50
  20 -19   9   12.00    7.60
  -1  20   9    6.90    6.80
   0  20   9   22.30    7.20
  20 -20   9    4.40    7.80
  20 -21   9   22.10    8.60
   1  20   9   34.70    8.00
   2  20   9   21.10    7.70
  20 -22   9    4.70    8.40
   0  21  -9   24.30    7.80
  21   0   9   30.80    8.40
   1  20  -9   16.20    7.20
  21  -1   9   30.40    7.50
   2  19  -9   30.30    7.10
  21  -2   9   28.40    7.50
   3  18  -9   60.69    8.10
  21  -3   9   67.59    8.80
   4  17  -9   63.69    8.00
  21  -4   9   80.49    9.30
   5  16  -9    9.80    5.70
  21  -5   9    9.60    6.70
   6  15  -9   57.99    7.50
  21  -6   9   66.69    8.50
   7  14  -9    3.20    5.20
  21  -7   9   12.10    6.10
   8  13  -9    2.10    5.10
  21  -8   9   13.80    6.40
   9  12  -9    0.90    4.90
  21  -9   9    8.60    6.50
  10  11  -9   33.10    6.10
  21 -10   9   33.80    7.90
  11  10  -9  125.09   10.10
  21 -11   9  108.79   10.50
  12   9  -9   50.79    6.80
  21 -12   9   62.79    9.00
  13   8  -9   11.00    5.50
  21 -13   9    8.40    6.80
  14   7  -9   15.50    5.70
  21 -14   9   10.10    6.90
  15   6  -9    8.40    5.30
  21 -15   9    3.50    6.40
  16   5  -9   18.80    6.00
  -5  21   9   11.10    6.80
  21 -16   9   33.40    8.00
  -4  21   9   47.20    8.10
  21 -17   9   37.70    8.20
  21 -18   9   12.80    7.70
  -3  21   9    9.90    6.80
  21 -19   9   43.90    9.00
  -2  21   9   33.40    8.10
  21 -20   9    6.20    8.20
  -1  21   9   11.90    7.10
  21 -21   9   20.60    9.00
   0  21   9   26.10    8.30
   2  20  -9   13.70    7.00
  22  -2   9   16.90    8.50
   3  19  -9   30.40    7.40
  22  -3   9   32.20    7.90
   4  18  -9   10.30    6.60
  22  -4   9    7.40    6.80
   5  17  -9   15.40    6.60
  22  -5   9   26.00    7.50
   6  16  -9    5.60    6.00
  22  -6   9   13.40    6.90
   7  15  -9   -4.00    5.10
  22  -7   9    3.90    6.50
   8  14  -9   36.60    6.80
  22  -8   9   47.30    8.20
   9  13  -9   74.89    8.10
  22  -9   9   80.29    9.40
  10  12  -9   17.10    5.80
  22 -10   9   26.20    7.90
  11  11  -9   27.00    6.40
  22 -11   9   31.30    8.30
  12  10  -9   64.59    7.70
  22 -12   9   55.99    9.50
  13   9  -9    3.70    5.60
  22 -13   9   10.50    7.50
  14   8  -9    0.20    5.50
  22 -14   9   13.00    7.50
  15   7  -9   40.60    6.90
  22 -15   9   47.40    9.00
  16   6  -9   85.79    8.40
  -6  22   9   85.79    9.90
  22 -16   9   99.29   10.70
  -5  22   9   96.09   10.60
  22 -17   9  110.59   11.40
  22 -18   9    2.20    7.90
  -4  22   9    7.70    6.90
  22 -19   9   62.99   10.20
  -3  22   9   72.59   10.00
  -2  22   9   23.60    8.40
  22 -20   9   22.60    9.00
   4  19  -9  117.89   12.80
   5  18  -9    9.90    6.90
  23  -5   9   10.30    7.80
   6  17  -9   43.60    8.00
  23  -6   9   44.40    8.80
   7  16  -9   66.59    8.30
  23  -7   9   58.69    8.90
   8  15  -9   23.10    6.70
  23  -8   9   14.80    7.40
   9  14  -9   13.40    6.20
  23  -9   9    7.00    7.30
  10  13  -9   24.20    6.50
  23 -10   9   42.20    8.50
  11  12  -9    5.00    6.00
  23 -11   9   20.00    7.90
  12  11  -9    5.20    6.00
  23 -12   9   12.30    8.00
  13  10  -9    2.70    6.20
  23 -13   9    2.50    7.30
  14   9  -9   45.30    7.60
  23 -14   9   45.70    9.40
  15   8  -9    9.90    6.50
  23 -15   9    7.80    8.00
  16   7  -9    8.50    6.10
  23 -16   9   23.90    8.50
  -6  23   9   45.40    8.70
  23 -17   9   52.79   10.00
  -5  23   9   12.80    7.40
  23 -18   9   12.60    8.40
  23 -19   9   19.20    8.80
   7  17  -9   10.60    7.10
   8  16  -9    9.00    6.90
  24  -8   9   12.40    8.20
   9  15  -9   57.79    8.60
  24  -9   9   87.39   10.40
  10  14  -9   66.79    8.60
  24 -10   9   54.09   10.00
  11  13  -9   16.70    6.80
  24 -11   9   29.90    9.20
  12  12  -9   35.20    7.70
  24 -12   9   34.90   10.00
  13  11  -9   25.90    7.40
  24 -13   9    8.20    9.00
  14  10  -9   37.20    7.90
  24 -14   9   21.40    9.30
  15   9  -9   31.80    7.30
  24 -15   9   40.90    9.70
  16   8  -9   -1.10    6.40
  24 -16   9   10.50    8.10
  24 -17   9   14.70    9.00
   0   0  10 6511.35  163.58
   0  -1  10  860.31   22.80
  -1   1  10  854.81   22.40
   1   0  10  806.62   22.80
  -1   0  10  842.32   23.00
   1  -1  10  884.01   23.60
   0   1  10  868.81   23.20
  -2   1  10  133.89    4.60
   1  -2  10  129.29    5.40
   1   1  10  132.39    5.20
   1  -3  10  510.15   14.90
   2   1  10  512.55   14.60
  -3   2  10  508.25   13.70
   2   0  10  385.76   11.70
   0  -2  10  381.86   11.50
  -2   2  10  383.56   10.70
  -1   2  10  130.79    4.70
   2  -1  10  121.49    5.30
  -1  -1  10  127.69    4.90
  -2   0  10  378.16   10.90
   0   2  10  375.26   11.10
   2  -2  10  392.66   11.90
   1   2  10   44.20    2.90
   2  -3  10   42.00    3.40
  -3   1  10   44.90    2.40
   4  -2 -10   45.20    2.10
   2   2  10   41.50    3.00
   2  -4  10   45.50    3.60
   3   2  10  328.27   10.20
   2  -5  10  322.77   10.70
   4  -3 -10   23.10    1.40
   1  -4  10   22.50    2.50
   3   1  10   22.90    2.50
   0  -3  10   95.29    4.50
  -3   3  10   91.69    3.20
   3   0  10   83.29    4.30
   3  -1  10   43.90    3.50
  -2   3  10   42.80    2.40
  -1  -2  10   43.70    3.10
  -1   3  10  500.75   13.90
  -2  -1  10  514.75   14.20
   3  -2  10  491.85   14.90
   0   3  10   82.59    3.60
  -3   0  10   81.89    3.60
   3  -3  10   89.99    4.70
   4  -1 -10    2.80    1.00
   3  -4  10    1.20    1.60
   1   3  10    0.90    1.30
   5  -2 -10  280.17    7.70
   2   3  10  273.27    8.70
   3  -5  10  266.47    9.50
   3  -6  10   -1.30    1.90
   3   3  10    3.30    1.60
   4   3  10   19.50    2.50
   3  -7  10   19.90    2.90
   2  -6  10 2825.82   72.29
   4   2  10 2753.12   71.59
   1  -5  10 1812.12   48.00
   4   1  10 1837.02   47.70
   0  -4  10    2.30    1.60
   4   0  10   -2.70    1.50
  -1  -3  10    2.80    1.50
   4  -1  10   -1.30    1.50
  -3   4  10    2.30    0.90
  -2  -2  10   45.60    3.00
   4  -2  10   38.60    3.40
  -2   4  10   42.20    2.40
   3   1 -10   19.30    2.00
   4  -3  10   20.20    2.70
  -1   4  10   19.60    1.80
   4   0 -10    2.10    1.10
   4  -4  10    0.10    1.70
   0   4  10   -1.10    1.10
   5  -1 -10  491.85   13.40
   4  -5  10  507.55   15.40
   1   4  10  490.35   14.00
   6  -2 -10  496.55   13.40
   4  -6  10  522.95   15.80
   2   4  10  497.75   14.50
   3   4  10  228.58    8.00
   4  -7  10  230.18    8.90
   4  -8  10  380.16   12.70
   4   4  10  374.86   11.80
   4  -9  10   17.40    3.00
   5   4  10   16.80    2.60
   5   3  10  200.18    7.60
   3  -8  10  194.08    8.20
   5   2  10  416.36   12.70
   2  -7  10  401.86   13.20
   5   1  10 1938.71   50.69
   1  -6  10 1940.21   51.09
   5   0  10   93.49    5.00
   0  -5  10   94.69    4.90
  -1  -4  10  502.95   14.90
   5  -1  10  504.65   15.10
  -2  -3  10  271.97    8.80
  -3   5  10  269.37    7.60
   5  -2  10  271.97    9.50
   3   2 -10  312.37    9.50
   5  -3  10  309.97   10.60
  -2   5  10  306.67    8.70
   4   1 -10 1773.22   46.30
   5  -4  10 1840.62   48.00
  -1   5  10 1798.22   46.10
   5   0 -10  104.19    4.10
   5  -5  10   90.59    5.70
   0   5  10  103.69    4.20
   6  -1 -10  205.98    6.50
   1   5  10  217.18    7.20
   5  -6  10  220.68    8.60
   7  -2 -10   25.10    2.10
   5  -7  10   25.10    3.20
   2   5  10   24.50    2.40
   3   5  10   13.30    2.20
   5  -8  10   11.40    2.70
   4   5  10    0.70    2.00
   5  -9  10    5.40    2.50
   5   5  10    6.70    2.30
   5 -10  10    9.10    2.80
   6   5  10  160.58    7.30
   5 -11  10  167.08    8.30
   4 -10  10   19.40    3.30
   6   4  10   18.50    2.90
   6   3  10   77.29    4.90
   3  -9  10   78.89    5.30
   6   2  10  229.58    8.50
   2  -8  10  221.68    8.80
   6   1  10   57.19    4.20
   1  -7  10   53.29    4.30
   0  -6  10   53.69    4.30
   6   0  10   64.49    4.30
   6  -1  10  231.28    8.40
  -1  -5  10  224.48    8.20
   2   4 -10  500.15   14.70
   6  -2  10  508.45   15.40
   3   3 -10   -0.60    1.40
  -3   6  10    2.90    1.00
   6  -3  10    0.80    2.00
   4   2 -10 2623.54   68.59
  -2   6  10 2633.64   67.89
   6  -4  10 2818.92   70.19
   5   1 -10 1900.91   49.20
  -1   6  10 1937.91   48.90
   6  -5  10 1898.51   50.99
   6   0 -10   56.59    3.10
   6  -6  10   56.59    4.90
   0   6  10   60.89    3.30
   7  -1 -10  168.88    5.60
   1   6  10  164.38    6.10
   6  -7  10  160.58    7.40
   6  -8  10   36.30    4.00
   2   6  10   25.80    2.70
   6  -9  10  241.38    9.70
   3   6  10  221.68    8.20
   6 -10  10   48.80    4.70
   4   6  10   53.79    4.40
   5   6  10  145.29    6.70
   6 -11  10  132.99    7.80
   6 -12  10  272.47   11.00
   6   6  10  259.27   10.00
   7   6  10   11.60    3.00
   6 -13  10    7.60    3.40
   5 -12  10  132.69    7.90
   7   5  10  126.39    6.80
   4 -11  10   50.89    4.90
   7   4  10   41.40    4.10
   7   3  10  121.49    6.30
   3 -10  10  122.59    6.80
   2  -9  10   59.29    5.00
   7   2  10   65.79    4.80
   1  -8  10  203.08    8.20
   7   1  10  187.48    7.70
   7   0  10  677.23   19.90
   0  -7  10  681.63   20.00
  -1  -6  10  167.68    7.00
   7  -1  10  168.88    7.20
   2   5 -10   26.80    2.70
   7  -2  10   22.30    2.90
   3   4 -10  230.28    8.00
   7  -3  10  229.58    8.90
   4   3 -10   25.00    2.50
   7  -4  10   20.00    3.20
  -3   7  10   23.20    2.00
   5   2 -10  400.56   12.10
  -2   7  10  398.36   11.40
   7  -5  10  438.96   13.90
   6   1 -10   54.39    3.40
   7  -6  10   48.80    4.40
  -1   7  10   59.89    3.20
   7   0 -10  672.43   18.40
   7  -7  10  676.73   20.50
   0   7  10  672.63   18.50
   8  -1 -10  110.79    4.50
   7  -8  10  104.29    6.40
   1   7  10  110.89    5.00
   7  -9  10  306.97   11.70
   2   7  10  325.57   10.40
   3   7  10 1290.47   34.00
   7 -10  10 1231.48   35.50
   4   7  10  254.47    9.40
   7 -11  10  253.67   10.70
   5   7  10   99.79    6.10
   7 -12  10  109.09    7.40
   6   7  10    0.40    2.50
   7 -13  10    0.10    2.90
   7 -14  10  130.29    8.30
   7   7  10  134.39    7.50
   8   7  10   30.90    4.70
   7 -15  10   31.10    4.90
   8   6  10   33.80    4.30
   6 -14  10   39.20    4.90
   8   5  10   90.69    6.50
   5 -13  10   94.79    7.30
   8   4  10  194.38    8.80
   4 -12  10  204.88    9.70
   8   3  10  735.13   21.90
   3 -11  10  746.13   22.60
   8   2  10  163.18    7.80
   2 -10  10  185.08    8.20
   8   1  10   23.20    3.30
   1  -9  10   26.10    3.50
   0  -8  10   35.00    3.60
   8   0  10   35.50    3.70
   1   7 -10  106.19    5.70
   8  -1  10  108.99    5.90
   2   6 -10   32.80    3.10
   8  -2  10   30.60    3.40
   3   5 -10   12.10    2.10
   8  -3  10   12.40    2.60
   4   4 -10  396.96   12.10
   8  -4  10  381.06   13.10
   5   3 -10  198.58    7.10
   8  -5  10  193.98    8.60
  -3   8  10  196.18    6.40
   6   2 -10  217.18    7.40
   8  -6  10  207.28    8.90
  -2   8  10  212.88    6.80
   7   1 -10  187.98    6.70
   8  -7  10  202.08    8.80
  -1   8  10  184.78    6.50
   8   0 -10   38.30    3.10
   0   8  10   34.50    2.80
   8  -8  10   33.50    3.90
   9  -1 -10    6.40    2.30
   8  -9  10   -0.30    2.50
   1   8  10    5.20    1.90
   2   8  10  404.06   13.00
   8 -10  10  444.86   15.10
   3   8  10  597.14   17.90
   8 -11  10  612.94   19.70
   4   8  10   47.80    4.10
   8 -12  10   55.89    5.50
   8 -13  10  175.18    9.30
   5   8  10  176.08    8.10
   6   8  10   76.99    6.20
   8 -14  10   82.59    7.00
   7   8  10  274.97   11.30
   8 -15  10  246.78   12.10
   8   8  10  211.38   10.30
   8 -16  10  195.38   11.30
   8 -17  10   10.80    5.00
   9   8  10   16.80    4.30
   7 -16  10   22.20    5.10
   9   7  10   23.00    4.40
   6 -15  10   66.39    6.50
   9   6  10   60.19    5.80
   5 -14  10  321.97   13.10
   9   5  10  303.87   12.10
   9   4  10   22.20    3.80
   4 -13  10   27.90    4.20
   3 -12  10  948.41   28.30
   9   3  10  973.80   27.70
   2 -11  10  424.76   14.50
   9   2  10  410.46   14.20
  -1  10 -10    6.00    2.90
   1 -10  10   13.20    3.00
   9   1  10    2.70    2.80
   0   9 -10    9.60    2.60
   9   0  10    1.30    2.50
   1   8 -10    4.20    2.30
   9  -1  10    2.30    2.40
   2   7 -10  337.77   11.50
   9  -2  10  346.67   12.10
   3   6 -10  256.37    9.00
   9  -3  10  238.48    9.50
   4   5 -10    7.10    2.10
   9  -4  10    0.90    2.40
   5   4 -10   20.50    2.60
   9  -5  10   15.90    3.30
   6   3 -10   77.89    4.40
   9  -6  10   78.89    5.90
   7   2 -10   64.09    4.00
  -2   9  10   61.59    3.50
   9  -7  10   57.99    5.10
   8   1 -10   25.30    2.60
   9  -8  10   20.50    3.40
  -1   9  10   25.30    2.50
   9   0 -10   13.00    2.20
   9  -9  10   15.20    3.40
   0   9  10   12.60    2.30
   9 -10  10  179.08    8.80
   1   9  10  169.58    6.90
   2   9  10   56.69    4.50
   9 -11  10   45.10    5.00
   3   9  10  157.98    7.30
   9 -12  10  177.48    9.10
   4   9  10  298.07   10.80
   9 -13  10  289.07   12.30
   9 -14  10   15.50    4.10
   5   9  10   20.10    3.50
   6   9  10  140.69    8.20
   9 -15  10  142.79    9.00
   7   9  10  348.07   13.50
   9 -16  10  349.37   14.60
   8   9  10  143.29    9.00
   9 -17  10  112.99    9.50
   9   9  10   81.79    7.30
   9 -18  10   79.69    7.90
  10   9  10    5.50    4.60
   9 -19  10    2.60    5.40
   8 -18  10  138.59   10.20
  10   8  10  145.99    9.80
  10   7  10   69.69    6.50
   7 -17  10   81.19    7.60
   6 -16  10    8.50    4.20
  10   6  10   11.90    4.00
   5 -15  10   18.80    4.40
  10   5  10   19.40    4.20
  10   4  10  219.08   10.20
   4 -14  10  206.98   10.30
   3 -13  10    7.70    3.40
  10   3  10   11.60    3.50
  -2  12 -10   55.09    5.10
  10   2  10   58.69    5.30
  -1  11 -10   54.59    4.70
  10   1  10   45.20    4.70
   0  10 -10  337.17   11.90
  10   0  10  315.57   11.90
   1   9 -10  173.28    7.70
  10  -1  10  147.49    7.90
   2   8 -10  418.56   13.50
  10  -2  10  401.56   13.90
   3   7 -10 1335.37   36.00
  10  -3  10 1307.87   36.50
   4   6 -10   54.89    4.40
  10  -4  10   49.80    4.70
   5   5 -10   13.50    2.40
  10  -5  10    6.90    3.20
   6   4 -10   25.60    2.90
  10  -6  10   16.90    3.60
   7   3 -10  129.69    5.80
  10  -7  10  131.39    7.30
   8   2 -10  172.58    6.70
  -2  10  10  156.68    6.20
  10  -8  10  153.58    8.30
   9   1 -10   12.10    2.40
  10  -9  10   12.20    3.40
  -1  10  10    7.70    2.30
  10   0 -10  322.37   10.50
  10 -10  10  314.27   12.70
   0  10  10  322.97   10.50
  10 -11  10  189.28    9.70
   1  10  10  182.18    7.40
  10 -12  10  109.89    7.70
   2  10  10  106.69    6.00
  10 -13  10  141.99    9.20
   3  10  10  149.88    7.40
  10 -14  10   10.50    4.00
   4  10  10   10.90    3.20
  10 -15  10    3.10    4.00
   5  10  10    2.90    3.10
  10 -16  10    1.60    4.20
   6  10  10    5.10    3.50
  10 -17  10   27.00    5.60
   7  10  10   28.10    4.90
  10 -18  10   65.49    7.50
   8  10  10   70.39    6.80
   9  10  10   84.29    7.50
  10 -19  10   82.59    8.70
  10 -20  10   63.49    8.20
  10  10  10   65.99    7.30
  10 -21  10   88.09    9.10
  11  10  10   82.59    8.10
   9 -20  10  188.48   12.50
  11   9  10  206.98   11.90
  11   8  10   21.70    5.40
   8 -19  10   11.60    5.60
   7 -18  10  119.89    9.70
  11   7  10   95.79    8.30
  11   6  10    4.10    4.20
   6 -17  10   11.20    4.70
  -5  16 -10  118.79    9.20
  11   5  10  122.29    8.60
   5 -16  10  111.49    9.10
  -4  15 -10    4.90    3.80
  11   4  10   10.30    3.60
  -3  14 -10  217.28   10.50
  11   3  10  210.78   10.20
  -2  13 -10  332.87   13.00
  11   2  10  330.47   12.90
  -1  12 -10  142.49    8.10
  11   1  10  126.39    7.90
   0  11 -10   30.90    4.00
  11   0  10   26.90    4.00
   1  10 -10  197.48    8.70
  11  -1  10  180.28    8.70
   2   9 -10   67.69    5.20
  11  -2  10   54.69    5.00
   3   8 -10  603.44   18.20
  11  -3  10  577.14   18.80
   4   7 -10  255.17    9.80
  11  -4  10  269.87   10.80
   5   6 -10  141.69    6.60
  11  -5  10  133.19    7.80
   6   5 -10  170.98    7.40
  11  -6  10  183.48    9.00
   7   4 -10   53.99    4.60
  11  -7  10   37.80    4.80
   8   3 -10  732.63   21.00
  11  -8  10  735.63   23.00
   9   2 -10  416.06   12.90
  11  -9  10  398.06   15.10
  10   1 -10   65.19    4.70
  11 -10  10   51.39    5.60
  -1  11  10   54.79    4.40
  11 -11  10   30.20    4.50
   0  11  10   29.00    3.30
  11 -12  10   73.29    6.70
   1  11  10   92.39    5.80
  11 -13  10   12.90    4.30
   2  11  10   17.90    3.30
  11 -14  10   16.10    4.60
   3  11  10   13.90    3.40
  11 -15  10    3.10    4.30
   4  11  10    3.50    3.20
   5  11  10  169.48    9.00
  11 -16  10  165.28   10.60
  11 -17  10   70.19    7.50
   6  11  10   69.79    6.20
   7  11  10  108.79    8.80
  11 -18  10  103.69    9.10
   8  11  10  128.89   10.00
  11 -19  10  147.29   11.70
  11 -20  10   16.50    6.30
   9  11  10   16.10    5.30
  10  11  10   25.70    5.90
  11 -21  10   27.90    7.30
  11 -22  10   28.80    7.40
  11  11  10   16.60    6.30
 -11  23 -10   10.60    6.60
  12  11  10    3.40    6.40
 -10  22 -10   44.30    7.60
  12  10  10   45.50    7.20
  -9  21 -10   33.10    6.80
  12   9  10   26.60    6.20
  -8  20 -10   26.70    6.40
  12   8  10   28.90    6.00
  -7  19 -10   11.70    5.40
  12   7  10   24.00    5.60
  -6  18 -10    3.60    4.90
  12   6  10   10.30    4.80
  -5  17 -10  126.59   10.10
  12   5  10  116.89    9.30
  -4  16 -10  162.78   10.30
  12   4  10  174.18   10.00
  -3  15 -10   33.90    5.00
  12   3  10   37.60    5.20
  -2  14 -10   54.09    5.60
  12   2  10   47.10    5.40
  -1  13 -10  154.68    8.70
  12   1  10  172.88    9.30
   0  12 -10   47.60    5.00
  12   0  10   51.79    5.30
   1  11 -10   78.49    6.20
  12  -1  10   90.79    7.20
   2  10 -10   95.99    6.60
  12  -2  10   87.19    6.90
   3   9 -10  186.38    8.30
  12  -3  10  156.28    8.60
   4   8 -10   49.99    4.50
  12  -4  10   58.39    5.30
   5   7 -10  110.79    6.40
  12  -5  10  113.49    7.50
   6   6 -10  259.57    9.80
  12  -6  10  256.37   11.20
   7   5 -10  141.69    6.90
  12  -7  10  118.79    8.00
   8   4 -10  202.28    8.30
  12  -8  10  219.98   10.20
   9   3 -10  962.40   26.90
  12  -9  10  960.00   29.00
  10   2 -10   61.29    5.20
  12 -10  10   57.69    5.90
  11   1 -10  117.89    6.40
  -1  12  10  119.79    7.70
  12 -11  10  114.09    8.40
   0  12  10   56.39    4.50
  12 -12  10   45.80    5.60
  12 -13  10  241.18   12.10
   1  12  10  247.58    9.80
   2  12  10  209.98    9.30
  12 -14  10  212.78   11.60
  12 -15  10   12.50    5.00
   3  12  10   15.10    3.80
  12 -16  10  146.59   10.80
   4  12  10  163.98    8.80
  12 -17  10   33.10    6.30
   5  12  10   34.10    5.00
  12 -18  10    9.20    5.30
   6  12  10    8.40    4.40
  12 -19  10   19.90    6.50
   7  12  10   23.20    5.40
  12 -20  10   -1.80    5.30
   8  12  10   -3.20    4.60
   9  12  10   -2.80    5.10
  12 -21  10    1.90    6.20
  12 -22  10   24.20    7.20
  10  12  10   33.60    6.80
  12 -23  10    0.20    6.80
  11  12  10    4.90    6.20
 -12  24 -10   43.10    9.10
  12  12  10   30.80    7.90
 -11  24 -10   11.50    7.90
  13  11  10   26.30    7.70
 -10  23 -10   -2.80    6.20
  13  10  10    7.70    6.40
  -9  22 -10   10.80    6.30
  13   9  10    6.10    5.70
  -8  21 -10   12.10    5.70
  13   8  10   16.90    5.80
  -7  20 -10   55.29    7.70
  13   7  10   64.19    7.30
  -6  19 -10   21.20    5.90
  13   6  10   20.10    5.50
  -5  18 -10  142.09   10.60
  13   5  10  148.69   10.00
  -4  17 -10  261.47   13.20
  13   4  10  263.97   12.60
  -3  16 -10  121.19    9.40
  13   3  10  113.29    9.10
  -2  15 -10   55.09    5.90
  13   2  10   53.89    6.10
  -1  14 -10   28.30    4.70
  13   1  10   21.40    4.60
   0  13 -10   16.80    4.00
  13   0  10   22.70    4.40
   1  12 -10  268.17   11.40
  13  -1  10  252.77   11.50
   2  11 -10   28.30    4.20
  13  -2  10   22.20    4.30
   3  10 -10  151.28    8.00
  13  -3  10  146.99    8.80
   4   9 -10  299.17   11.50
  13  -4  10  307.57   12.50
   5   8 -10  189.58    8.50
  13  -5  10  182.48    9.60
   6   7 -10   -1.90    2.60
  13  -6  10   -2.00    3.00
   7   6 -10    9.80    3.00
  13  -7  10    8.20    3.40
   8   5 -10   87.89    5.90
  13  -8  10   98.19    8.00
   9   4 -10   27.40    3.40
  13  -9  10   23.70    4.40
  10   3 -10   10.10    3.00
  13 -10  10    5.80    3.90
  11   2 -10  304.67   11.00
  13 -11  10  299.97   13.40
  13 -12  10  144.09    9.50
   0  13  10   20.80    3.60
  13 -13  10    5.80    4.20
   1  13  10  318.17   12.10
  13 -14  10  351.26   14.80
   2  13  10  315.37   12.30
  13 -15  10  330.57   14.60
   3  13  10   37.30    4.70
  13 -16  10   18.60    5.70
   4  13  10   40.30    5.20
  13 -17  10   40.00    6.70
   5  13  10  179.88   10.70
  13 -18  10  174.08   12.30
  13 -19  10   85.49    8.80
   6  13  10  105.89    9.20
   7  13  10   24.50    5.90
  13 -20  10   12.80    6.50
   8  13  10    5.20    5.40
  13 -21  10   -1.80    6.10
  13 -22  10   82.19    9.80
   9  13  10   96.49    8.90
  13 -23  10   15.50    7.50
  10  13  10   10.20    6.60
  11  13  10   11.90    7.10
  13 -24  10   21.40    8.60
 -10  24 -10   27.30    9.40
  14  10  10   28.70    7.70
  -9  23 -10   18.80    6.80
  14   9  10   27.30    7.20
  -8  22 -10    5.60    6.20
  14   8  10    7.10    5.80
  -7  21 -10   19.00    6.20
  14   7  10   27.20    6.40
  -6  20 -10   65.39    7.80
  14   6  10   68.09    7.70
  -5  19 -10    2.40    5.10
  14   5  10   -1.90    4.90
  -4  18 -10   47.80    6.50
  14   4  10   58.29    6.80
  -3  17 -10   17.50    5.00
  14   3  10    6.90    4.80
  -2  16 -10   35.60    5.60
  14   2  10   40.10    6.00
  -1  15 -10   99.29    8.50
  14   1  10  103.89    8.90
   0  14 -10   12.80    4.00
  14   0  10    6.50    4.10
   1  13 -10  327.17   13.50
  14  -1  10  337.67   13.80
   2  12 -10  234.98   10.70
  14  -2  10  212.48   10.80
   3  11 -10   23.80    4.10
  14  -3  10   13.80    4.10
   4  10 -10   10.80    3.40
  14  -4  10   10.00    4.00
   5   9 -10   22.10    3.70
  14  -5  10   10.70    3.80
   6   8 -10   75.59    6.20
  14  -6  10   66.69    6.20
   7   7 -10  144.49    7.60
  14  -7  10  132.29    8.70
   8   6 -10   44.00    4.40
  14  -8  10   33.10    5.40
   9   5 -10  322.57   11.60
  14  -9  10  286.97   13.20
  10   4 -10  214.48    9.40
  14 -10  10  235.88   11.90
  11   3 -10  211.48    9.10
  14 -11  10  198.58   11.10
  12   2 -10   54.69    4.80
  14 -12  10   46.70    6.20
  14 -13  10   22.60    5.10
  14 -14  10    2.50    4.50
  14 -15  10  193.08   11.70
   1  14  10  176.08    9.00
   2  14  10    4.60    3.50
  14 -16  10   -2.90    4.80
  14 -17  10  144.59   11.60
   3  14  10  134.79    8.90
   4  14  10   18.20    4.80
  14 -18  10   13.00    6.10
  14 -19  10  136.69   11.20
   5  14  10  122.19    9.70
   6  14  10  128.59   10.50
  14 -20  10   95.89    9.80
  14 -21  10    6.40    6.80
   7  14  10   15.30    5.60
   8  14  10   63.69    7.80
  14 -22  10   80.79    9.60
   9  14  10   -0.80    6.00
  14 -23  10    9.20    7.40
  14 -24  10   38.90   10.20
  10  14  10   52.19    8.60
  15   9  10   37.70    8.40
  -8  23 -10   13.10    6.90
  15   8  10    2.80    6.40
  -7  22 -10   35.90    7.50
  15   7  10   52.29    8.10
  -6  21 -10    5.30    5.60
  15   6  10    4.80    5.90
  -5  20 -10   54.89    7.40
  15   5  10   56.89    7.40
  -4  19 -10   57.59    7.40
  15   4  10   71.19    8.00
  -3  18 -10   33.20    6.10
  15   3  10   37.40    6.30
  -2  17 -10   53.69    7.00
  15   2  10   56.39    7.10
  -1  16 -10  135.49    9.50
  15   1  10  141.39    9.80
   0  15 -10   67.49    6.50
  15   0  10   45.90    6.30
   1  14 -10  195.48   10.20
  15  -1  10  186.98   10.50
   2  13 -10  322.37   13.30
  15  -2  10  339.57   14.30
   3  12 -10   16.20    4.10
  15  -3  10   12.00    5.10
   4  11 -10    6.20    3.40
  15  -4  10   -1.30    3.90
   5  10 -10    4.20    3.30
  15  -5  10   -3.90    3.60
   6   9 -10  150.38    8.50
  15  -6  10  152.08    9.80
   7   8 -10  260.37   10.80
  15  -7  10  252.97   12.00
   8   7 -10   32.30    4.20
  15  -8  10   19.10    4.80
   9   6 -10   76.89    6.20
  15  -9  10   49.50    6.70
  10   5 -10   18.00    3.70
  15 -10  10    1.00    4.10
  11   4 -10    2.20    3.10
  15 -11  10    2.00    4.10
  12   3 -10   40.30    4.60
  15 -12  10   36.60    6.00
  15 -13  10   65.49    7.40
  15 -14  10   88.79    8.40
  15 -15  10   56.39    7.40
  15 -16  10   48.70    7.40
   2  15  10  161.58   10.10
  15 -17  10  167.98   12.40
  15 -18  10   31.10    7.00
   3  15  10   27.90    5.20
  15 -19  10   -3.00    5.90
   4  15  10    7.20    5.00
  15 -20  10   44.30    8.20
   5  15  10   54.79    7.00
  15 -21  10   79.09    9.40
   6  15  10   73.19    8.00
  15 -22  10   -8.50    6.60
   7  15  10   15.20    6.10
  15 -23  10    1.50    7.40
   8  15  10    6.80    6.70
   9  15  10   71.09    9.00
  15 -24  10   91.09   13.70
  -7  23 -10   11.40    7.00
  16   7  10   21.30    7.50
  -6  22 -10   97.09    9.70
  16   6  10   95.79    9.70
  -5  21 -10   21.40    6.50
  16   5  10   18.00    6.90
  -4  20 -10   19.50    6.20
  16   4  10   34.30    6.80
  -3  19 -10   89.69    8.70
  16   3  10   95.59    9.00
  -2  18 -10    0.70    5.00
  16   2  10    5.00    5.40
  -1  17 -10    9.40    5.00
  16   1  10   12.60    5.60
   0  16 -10   26.50    5.40
  16   0  10   33.20    6.00
   1  15 -10   39.30    5.80
  16  -1  10   42.00    6.10
   2  14 -10   -0.10    3.80
  16  -2  10    8.50    4.80
   3  13 -10   28.70    4.90
  16  -3  10   33.70    5.90
   4  12 -10  175.78   10.00
  16  -4  10  174.58   10.90
   5  11 -10  176.88    9.70
  16  -5  10  171.08   10.80
   6  10 -10    6.20    3.40
  16  -6  10    4.10    4.50
   7   9 -10  368.16   13.80
  16  -7  10  352.56   15.20
   8   8 -10  188.88    9.80
  16  -8  10  216.38   11.70
   9   7 -10   17.90    3.90
  16  -9  10   17.00    5.70
  10   6 -10   15.60    3.70
  16 -10  10   -1.60    4.70
  11   5 -10  128.09    8.10
  16 -11  10  119.99   10.00
  12   4 -10  167.98    9.10
  16 -12  10  164.08   11.30
  13   3 -10  113.09    9.70
  16 -13  10   91.69    8.60
  16 -14  10   23.30    6.30
  16 -15  10  143.79   11.80
  16 -16  10   29.90    6.50
  16 -17  10   35.70    7.60
  16 -18  10   -8.60    5.70
  16 -19  10  -10.30    5.60
   3  16  10    1.70    6.20
  16 -20  10    7.90    6.60
   4  16  10    6.30    5.20
  16 -21  10   11.90    7.40
   5  16  10   15.00    6.30
   6  16  10   19.40    6.80
  16 -22  10   -2.10    7.10
  16 -23  10   45.30    9.30
   7  16  10   44.80    7.80
  -6  23 -10   43.40    8.70
  17   6  10   47.50    8.40
  -5  22 -10   79.79    9.00
  17   5  10   92.79    9.50
  -4  21 -10   30.30    6.70
  17   4  10   29.90    7.40
  -3  20 -10   14.70    6.10
  17   3  10   11.60    6.30
  -2  19 -10   -0.50    5.30
  17   2  10    9.40    6.00
  -1  18 -10   87.09    8.40
  17   1  10   87.39    8.60
   0  17 -10   61.39    7.10
  17   0  10   58.99    7.50
   1  16 -10   24.70    5.50
  17  -1  10   28.10    6.20
   2  15 -10  182.28   11.10
  17  -2  10  208.98   12.10
   3  14 -10  170.68   10.00
  17  -3  10  143.79   10.90
   4  13 -10   44.00    5.80
  17  -4  10   47.70    6.70
   5  12 -10   27.70    5.10
  17  -5  10   35.10    5.90
   6  11 -10   60.69    6.20
  17  -6  10   72.19    7.30
   7  10 -10   23.60    4.60
  17  -7  10   19.00    5.30
   8   9 -10  118.89    8.50
  17  -8  10  121.29    9.80
   9   8 -10   13.40    4.20
  17  -9  10   15.30    5.40
  10   7 -10   71.79    6.30
  17 -10  10   71.79    7.80
  11   6 -10   11.40    3.90
  17 -11  10    4.30    5.20
  12   5 -10  134.79    8.50
  17 -12  10  100.39    9.30
  13   4 -10  234.48   11.30
  17 -13  10  263.37   14.40
  17 -14  10    7.90    5.70
  17 -15  10   51.29    7.50
  17 -16  10    8.90    5.90
  17 -17  10   54.69    8.30
  17 -18  10   50.99    8.60
  17 -19  10    1.60    6.70
  17 -20  10   57.09    9.00
  17 -21  10   57.79    9.10
   5  17  10   39.00    8.30
  17 -22  10   30.90    8.50
  17 -23  10   51.79    9.80
   6  17  10   37.00    8.00
  18   5  10   23.40   10.00
  -4  22 -10    1.80    5.90
  18   4  10   15.20    7.30
  -3  21 -10    9.20    6.00
  18   3  10    9.90    6.50
  -2  20 -10    2.80    5.70
  18   2  10   10.40    6.30
  -1  19 -10   30.80    6.80
  18   1  10   45.70    7.40
   0  18 -10  156.48   11.80
  18   0  10  178.38   11.80
   1  17 -10   49.50    6.80
  18  -1  10   53.09    7.70
   2  16 -10   -1.00    4.70
  18  -2  10   -3.90    5.20
   3  15 -10   25.50    5.50
  18  -3  10   33.00    6.70
   4  14 -10   14.60    5.20
  18  -4  10   15.30    5.40
   5  13 -10  160.58   10.10
  18  -5  10  174.18   11.70
   6  12 -10   15.10    4.90
  18  -6  10    7.30    5.40
   7  11 -10  108.59    8.90
  18  -7  10   97.19    8.60
   8  10 -10   65.39    6.40
  18  -8  10   78.99    8.30
   9   9 -10  102.89    8.30
  18  -9  10   84.79    9.20
  10   8 -10  138.99    9.10
  18 -10  10  126.29   10.50
  11   7 -10   94.99    8.00
  18 -11  10   86.69    8.90
  12   6 -10    3.80    4.20
  18 -12  10    1.70    5.60
  13   5 -10  155.38    9.90
  18 -13  10  157.58   12.10
  18 -14  10   57.99    8.00
  18 -15  10   44.40    7.70
  18 -16  10   -2.40    6.10
  18 -17  10  112.89   10.80
  18 -18  10  170.58   13.90
  18 -19  10   44.20    8.60
  18 -20  10   24.10    7.70
  18 -21  10   45.40    9.00
  18 -22  10   -0.60    7.70
  18 -23  10   20.90    8.90
  -3  22 -10   42.70    8.40
  19   3  10   44.60    8.80
  -2  21 -10   32.20    7.00
  19   2  10   43.00    8.10
  -1  20 -10    3.90    5.50
  19   1  10   15.20    6.90
   0  19 -10   74.19    8.30
  19   0  10   91.09    9.40
   1  18 -10   55.79    7.40
  19  -1  10   51.49    8.00
   2  17 -10    7.40    5.50
  19  -2  10    1.00    5.90
   3  16 -10   -3.80    4.90
  19  -3  10    0.60    5.80
   4  15 -10    5.50    5.10
  19  -4  10    0.70    5.50
   5  14 -10  139.89   10.40
  19  -5  10  149.69   11.60
   6  13 -10  116.39   10.00
  19  -6  10  126.79   11.10
   7  12 -10   27.20    5.50
  19  -7  10   21.50    6.00
   8  11 -10  132.69    9.70
  19  -8  10  117.69    9.90
   9  10 -10   75.69    7.00
  19  -9  10   88.19    9.20
  10   9 -10    6.10    4.40
  19 -10  10    8.80    6.20
  11   8 -10   18.90    4.70
  19 -11  10   10.30    6.30
  12   7 -10   12.60    4.70
  19 -12  10   18.70    6.70
  13   6 -10   16.10    4.90
  19 -13  10   25.00    7.50
  14   5 -10   12.80    4.90
  19 -14  10    5.90    6.60
  19 -15  10   62.19    9.20
  19 -16  10   85.69    9.80
  19 -17  10   -2.30    6.40
  19 -18  10   39.60    8.40
  19 -19  10   80.89   10.10
  19 -20  10    0.50    7.50
  19 -21  10   14.40    8.00
  19 -22  10   23.40    8.70
  -1  21 -10   14.60    6.90
  20   1  10   19.80    8.00
   0  20 -10    2.50    6.20
  20   0  10    9.10    7.10
   1  19 -10    4.30    5.80
  20  -1  10    6.10    6.60
   2  18 -10   41.50    7.40
  20  -2  10   32.20    7.30
   3  17 -10   52.99    7.50
  20  -3  10   54.29    8.40
   4  16 -10    6.30    5.40
  20  -4  10    9.50    6.40
   5  15 -10   54.59    7.40
  20  -5  10   48.00    7.60
   6  14 -10  135.29   10.60
  20  -6  10  105.49    9.60
   7  13 -10   11.80    5.20
  20  -7  10   21.00    6.50
   8  12 -10   -9.70    4.30
  20  -8  10    0.90    5.90
   9  11 -10   16.70    5.30
  20  -9  10   14.90    6.60
  10  10 -10   57.09    6.70
  20 -10  10   76.09    9.10
  11   9 -10  189.28   11.50
  20 -11  10  207.38   13.80
  12   8 -10   33.50    5.70
  20 -12  10   32.40    7.90
  13   7 -10   70.89    7.30
  20 -13  10   73.09    9.70
  14   6 -10   70.69    7.20
  20 -14  10   87.49   10.00
  20 -15  10   45.70    8.30
  20 -16  10   25.60    7.70
  20 -17  10   17.70    7.30
  20 -18  10    0.20    6.70
  20 -19  10    0.00    7.40
  20 -20  10    0.60    7.50
  20 -21  10   -2.70    7.90
   1  20 -10   17.20    7.20
  21  -1  10   12.40    7.40
   2  19 -10   17.70    7.00
  21  -2  10   19.20    7.40
   3  18 -10   40.40    7.60
  21  -3  10   30.10    7.70
   4  17 -10   53.59    7.80
  21  -4  10   68.89    9.20
   5  16 -10   11.40    5.80
  21  -5  10    4.10    6.70
   6  15 -10   65.99    7.90
  21  -6  10   70.69    8.90
   7  14 -10    3.50    5.50
  21  -7  10   15.20    6.90
   8  13 -10    0.30    5.10
  21  -8  10   -2.50    6.60
   9  12 -10    2.60    4.90
  21  -9  10   -5.20    6.40
  10  11 -10   22.40    5.60
  21 -10  10   19.30    7.40
  11  10 -10   82.89    7.90
  21 -11  10   88.49   10.00
  12   9 -10   22.30    5.70
  21 -12  10   36.00    8.10
  13   8 -10   23.50    5.90
  21 -13  10   18.10    7.90
  14   7 -10   24.80    6.10
  21 -14  10    9.90    7.60
  21 -15  10    2.20    7.00
  21 -16  10   18.50    7.80
  21 -17  10   28.10    8.40
  21 -18  10    1.50    7.50
  21 -19  10   35.90    9.00
  21 -20  10   -3.90    8.00
  21 -21  10   27.20   10.00
   3  19 -10   28.60    7.80
  22  -3  10   22.70    8.00
   4  18 -10    6.40    6.70
  22  -4  10   12.50    7.30
   5  17 -10   28.30    7.40
  22  -5  10   23.50    7.80
   6  16 -10   14.00    6.80
  22  -6  10   12.60    6.90
   7  15 -10   11.70    6.10
  22  -7  10   16.60    7.40
   8  14 -10   59.79    7.80
  22  -8  10   71.49    9.40
   9  13 -10   79.89    8.40
  22  -9  10  105.99   10.60
  10  12 -10   23.10    6.20
  22 -10  10   32.40    8.30
  11  11 -10   21.50    6.10
  22 -11  10    9.80    7.90
  12  10 -10   49.00    7.30
  22 -12  10   57.39    9.60
  13   9 -10    6.50    5.80
  22 -13  10    8.00    7.50
  14   8 -10   -1.20    5.80
  22 -14  10    5.30    7.80
  15   7 -10   41.40    8.50
  22 -15  10   32.40    8.70
  22 -16  10   99.29   11.20
  22 -17  10  100.29   11.40
  22 -18  10   -4.70    8.00
  22 -19  10   31.60    9.30
   5  18 -10   12.50    7.50
   6  17 -10   33.70    7.50
  23  -6  10   39.60    9.20
   7  16 -10   45.30    8.00
  23  -7  10   39.70    8.80
   8  15 -10    1.70    6.20
  23  -8  10    1.00    7.40
   9  14 -10    3.50    6.20
  23  -9  10  -12.10    7.10
  10  13 -10   20.30    6.20
  23 -10  10    8.60    8.00
  11  12 -10   -4.30    5.60
  23 -11  10    1.10    8.00
  12  11 -10   10.40    6.40
  23 -12  10   12.50    8.50
  13  10 -10    4.60    6.40
  23 -13  10    2.20    7.90
  14   9 -10   19.40    7.00
  23 -14  10   28.40    9.10
  15   8 -10    1.50    6.20
  23 -15  10   10.30    8.60
  23 -16  10   13.50    8.50
  23 -17  10   34.80    9.80
  23 -18  10   -6.40    8.30
   9  15 -10   69.29    8.80
  10  14 -10   53.49    8.10
  24 -10  10   58.59   13.00
  11  13 -10   23.80    7.20
  24 -11  10   12.10    9.40
  12  12 -10   33.30    7.60
  24 -12  10   31.60   10.30
  13  11 -10   34.60    7.60
  24 -13  10   28.10   10.10
  14  10 -10   41.20    8.30
  24 -14  10   26.10   10.30
  15   9 -10   34.70    7.90
  24 -15  10   29.90   11.80
   0   0  11 1816.92   47.10
  -1   1  11  203.08    6.70
   0  -1  11  202.88    7.10
   1   0  11  201.18    7.20
   0   1  11  209.38    7.00
  -1   0  11  196.98    6.80
   1  -1  11  211.98    7.30
   1  -2  11   78.99    4.20
  -2   1  11   80.39    3.50
   1   1  11   77.49    4.00
  -3   2  11  111.99    4.00
   2   1  11  112.79    4.90
   1  -3  11  110.99    5.10
   2   0  11  185.78    6.90
  -2   2  11  179.98    5.90
   0  -2  11  190.28    6.80
   2  -1  11   77.79    4.30
  -1  -1  11   77.79    3.90
  -1   2  11   81.69    3.60
  -2   0  11  181.48    6.10
   2  -2  11  179.68    6.90
   0   2  11  170.08    6.10
   2  -3  11    5.80    1.80
  -3   1  11    5.90    1.30
   1   2  11    7.30    1.60
   4  -2 -11   26.20    1.80
   2   2  11   26.50    2.50
   2  -4  11   33.10    3.10
   3   2  11    8.20    1.90
   2  -5  11    5.30    1.90
   1  -4  11   19.80    2.50
   3   1  11   20.20    2.40
  -3   3  11   45.90    2.40
   3   0  11   49.20    3.60
   0  -3  11   45.70    3.40
  -1  -2  11    8.70    1.80
  -2   3  11    9.10    1.40
   3  -1  11    7.50    1.90
  -1   3  11   96.59    4.20
   3  -2  11  110.69    5.30
  -2  -1  11  113.59    4.50
  -3   0  11   46.00    2.80
   0   3  11   38.20    2.80
   3  -3  11   42.30    3.70
   4  -1 -11   37.60    2.30
   1   3  11   37.20    2.90
   3  -4  11   37.50    3.40
   3  -5  11   17.80    2.60
   2   3  11   20.60    2.30
   3   3  11   49.60    3.60
   3  -6  11   49.20    4.30
   3  -7  11    2.30    2.00
   4   3  11    4.00    1.80
   2  -6  11  655.63   19.40
   4   2  11  654.33   18.80
   1  -5  11  437.76   13.70
   4   1  11  438.96   13.40
   0  -4  11    2.00    1.70
   4   0  11    0.50    1.70
   4  -1  11   39.40    3.50
  -3   4  11   37.80    2.10
  -1  -3  11   42.10    3.30
  -2  -2  11   31.80    2.70
   4  -2  11   27.30    3.00
  -2   4  11   26.20    2.20
  -1   4  11   18.90    1.90
   4  -3  11   22.50    2.80
  -3  -1  11   18.40    2.00
   4   0 -11    1.30    1.20
   4  -4  11    2.70    1.90
   0   4  11    1.80    1.30
   5  -1 -11  183.78    5.80
   1   4  11  180.68    6.40
   4  -5  11  180.98    7.60
   2   4  11  171.48    6.40
   4  -6  11  177.58    7.60
   3   4  11   29.20    2.80
   4  -7  11   27.60    3.40
   4  -8  11  183.88    8.00
   4   4  11  166.08    6.90
   5   4  11    7.60    2.40
   4  -9  11    8.00    2.70
   5   3  11   49.30    4.00
   3  -8  11   36.60    3.90
   2  -7  11  334.47   11.60
   5   2  11  346.67   11.30
   5   1  11  945.11   25.70
   1  -6  11  896.91   25.80
   0  -5  11   31.00    3.10
   5   0  11   27.60    3.00
  -1  -4  11  192.98    7.10
   5  -1  11  178.68    7.40
  -2  -3  11   22.50    2.40
   5  -2  11   20.50    2.90
   3   2 -11    6.10    1.60
   5  -3  11    2.70    2.10
  -2   5  11    3.20    1.30
   4   1 -11  452.25   12.40
   5  -4  11  412.36   13.80
  -1   5  11  420.36   12.10
   5   0 -11   31.30    2.50
   5  -5  11   23.70    3.10
   0   5  11   31.40    2.50
   6  -1 -11  288.87    8.70
   1   5  11  291.77    9.10
   5  -6  11  272.77   10.40
   2   5  11   59.79    3.80
   5  -7  11   57.89    4.90
   5  -8  11   -0.40    2.10
   3   5  11    2.20    1.90
   4   5  11   35.20    3.60
   5  -9  11   33.10    3.90
   5 -10  11   17.80    3.30
   5   5  11   17.40    3.00
   6   5  11  127.59    6.80
   5 -11  11  123.09    7.40
   4 -10  11   72.39    5.70
   6   4  11   72.59    5.20
   3  -9  11    5.50    2.50
   6   3  11    7.80    2.30
   2  -8  11  187.18    8.20
   6   2  11  194.88    7.70
   6   1  11   18.10    2.70
   1  -7  11   21.40    2.90
   0  -6  11   56.69    4.30
   6   0  11   48.40    4.20
   6  -1  11  287.57   10.00
  -1  -5  11  278.77    9.70
   2   4 -11  170.58    6.50
  -2  -4  11  162.88    6.60
   6  -2  11  173.68    7.30
   3   3 -11   49.10    3.40
   6  -3  11   46.10    4.10
   4   2 -11  627.34   17.60
  -2   6  11  632.94   16.90
   6  -4  11  629.44   19.10
   5   1 -11  907.21   24.10
   6  -5  11  882.01   25.90
  -1   6  11  911.51   23.90
   6   0 -11   53.49    3.10
   0   6  11   49.90    3.20
   6  -6  11   44.40    4.20
   1   6  11   57.79    3.70
   6  -7  11   49.80    4.60
   6  -8  11   33.00    3.80
   2   6  11   37.60    3.20
   6  -9  11   13.60    3.10
   3   6  11    6.90    2.30
   6 -10  11   41.10    4.50
   4   6  11   35.70    3.70
   5   6  11   77.59    5.40
   6 -11  11   82.19    6.60
   6   6  11   67.39    5.70
   6 -12  11   77.19    6.50
   6 -13  11   18.70    4.00
   7   6  11   23.00    3.70
   7   5  11   82.49    6.10
   5 -12  11   72.89    6.20
   4 -11  11   21.20    3.80
   7   4  11   23.20    3.50
   3 -10  11   37.60    4.10
   7   3  11   42.50    4.30
   2  -9  11   21.70    3.30
   7   2  11   19.80    3.10
   7   1  11  136.29    6.50
   1  -8  11  118.29    6.50
   7   0  11  210.68    8.40
   0  -7  11  214.28    8.50
   7  -1  11   61.69    4.50
  -1  -6  11   47.30    4.20
   2   5 -11   66.89    4.20
   7  -2  11   65.99    4.80
   3   4 -11   31.20    2.90
   7  -3  11   29.00    3.50
   4   3 -11    6.50    1.80
   7  -4  11    2.90    2.30
   5   2 -11  340.07   10.50
   7  -5  11  345.47   12.20
   6   1 -11   23.60    2.30
  -1   7  11   21.50    2.20
   7  -6  11   18.60    3.10
   7   0 -11  206.98    6.90
   7  -7  11  208.78    9.10
   0   7  11  206.78    7.10
   1   7  11   83.89    4.50
   7  -8  11   87.59    5.90
   2   7  11    0.00    1.80
   7  -9  11    4.10    2.70
   7 -10  11  561.54   18.70
   3   7  11  587.64   17.10
   7 -11  11   69.89    5.90
   4   7  11   77.19    5.10
   7 -12  11   80.89    6.80
   5   7  11   81.19    5.60
   7 -13  11   25.70    4.20
   6   7  11   26.00    3.60
   7 -14  11   62.69    6.20
   7   7  11   53.29    5.10
   7 -15  11    4.50    3.80
   8   7  11   -2.60    3.30
   8   6  11   30.30    4.40
   6 -14  11   31.20    4.80
   5 -13  11   34.40    4.60
   8   5  11   34.00    4.30
   8   4  11   55.59    5.10
   4 -12  11   57.89    5.50
   3 -11  11  136.49    7.90
   8   3  11  139.99    7.40
   8   2  11   57.99    4.80
   2 -10  11   50.49    4.80
   1  -9  11  152.28    7.50
   8   1  11  155.98    7.40
   8   0  11    4.60    2.40
   0  -8  11   -0.10    2.20
   1   7 -11   71.79    5.00
   8  -1  11   73.49    5.30
   2   6 -11   36.50    3.40
   8  -2  11   46.10    4.20
   3   5 -11    4.10    1.90
   8  -3  11    1.00    2.20
   4   4 -11  189.88    7.20
   8  -4  11  190.28    8.30
   5   3 -11   48.50    3.80
   8  -5  11   43.60    4.40
   6   2 -11  188.18    6.90
   8  -6  11  198.28    8.80
   7   1 -11  120.59    5.20
  -1   8  11  121.29    5.00
   8  -7  11  123.89    6.90
   0   8  11    3.80    1.80
   8  -8  11    6.20    2.90
   8  -9  11   44.00    4.70
   1   8  11   45.60    3.50
   2   8  11  188.68    7.50
   8 -10  11  196.88    9.50
   8 -11  11  395.06   14.50
   3   8  11  380.96   12.60
   4   8  11   40.90    4.00
   8 -12  11   41.10    5.00
   5   8  11   33.40    4.00
   8 -13  11   32.50    4.80
   8 -14  11   14.80    4.00
   6   8  11   13.10    3.30
   8 -15  11   44.30    5.70
   7   8  11   46.30    5.10
   8 -16  11   74.99    7.30
   8   8  11   88.09    7.60
   8 -17  11    6.30    4.50
   9   8  11    7.90    4.20
   7 -16  11   10.10    4.50
   9   7  11   11.80    4.30
   9   6  11   12.60    4.00
   6 -15  11   20.90    4.50
   5 -14  11  197.08   10.10
   9   5  11  196.68    9.70
   4 -13  11   10.50    3.70
   9   4  11    6.40    3.50
   9   3  11  518.85   17.20
   3 -12  11  552.74   18.10
   2 -11  11  109.19    6.90
   9   2  11  106.39    6.80
   9   1  11   -2.10    2.70
   1 -10  11    2.50    2.60
   0   9 -11    4.30    2.40
   9   0  11   -2.50    2.50
   1   8 -11   39.70    3.90
   9  -1  11   42.40    4.30
   2   7 -11    2.30    2.10
   9  -2  11   -0.10    2.30
   3   6 -11    9.70    2.30
   9  -3  11   10.50    2.90
   4   5 -11   31.10    3.20
   9  -4  11   24.20    3.70
   5   4 -11   12.00    2.40
   9  -5  11    7.60    3.00
   6   3 -11   11.90    2.20
   9  -6  11    2.80    2.60
   7   2 -11   22.20    2.70
   9  -7  11   24.70    4.00
   8   1 -11  162.58    6.40
   9  -8  11  170.78    8.70
   9  -9  11    6.70    3.00
   0   9  11    3.10    2.10
   9 -10  11   52.89    5.30
   1   9  11   73.09    4.70
   9 -11  11    9.10    3.50
   2   9  11    9.20    2.60
   3   9  11  115.79    6.40
   9 -12  11  121.89    8.30
   9 -13  11   99.99    7.70
   4   9  11   85.19    6.00
   5   9  11   12.50    3.30
   9 -14  11    9.70    4.00
   9 -15  11   11.90    4.50
   6   9  11   12.20    3.60
   9 -16  11  164.58   10.30
   7   9  11  162.28    9.40
   9 -17  11   59.29    7.20
   8   9  11   56.49    5.90
   9 -18  11   48.50    6.80
   9   9  11   39.30    5.90
  10   9  11    2.70    4.40
   9 -19  11   -6.50    4.60
   8 -18  11   40.30    6.60
  10   8  11   41.60    5.90
  10   7  11   39.40    5.60
   7 -17  11   40.50    6.10
  10   6  11   20.60    4.70
   6 -16  11   33.20    5.50
   5 -15  11   -2.40    3.40
  10   5  11   -4.50    3.20
  10   4  11  122.19    8.30
   4 -14  11  119.79    8.50
  10   3  11    2.70    3.30
   3 -13  11    0.40    3.10
  -2  12 -11   29.10    4.40
  10   2  11   39.60    4.80
  -1  11 -11   46.50    4.80
  10   1  11   61.29    5.60
   0  10 -11  212.38    9.00
  10   0  11  188.48    9.30
   1   9 -11   60.59    5.20
  10  -1  11   46.90    4.80
   2   8 -11  180.58    7.80
  10  -2  11  164.78    8.50
   3   7 -11  575.04   17.90
  10  -3  11  609.94   18.80
   4   6 -11   42.80    3.80
  10  -4  11   40.60    4.60
   5   5 -11   21.50    3.00
  10  -5  11   13.00    3.60
   6   4 -11   78.19    4.80
  10  -6  11   77.09    6.30
   7   3 -11   41.20    3.50
  10  -7  11   38.40    4.80
   8   2 -11   60.89    4.40
  10  -8  11   63.09    5.60
  10  -9  11   -1.80    2.70
  10 -10  11  181.18    9.30
   0  10  11  194.88    7.50
  10 -11  11   50.19    5.40
   1  10  11   41.00    3.70
  10 -12  11  112.49    7.90
   2  10  11  108.49    6.20
   3  10  11   35.20    4.10
  10 -13  11   44.20    5.60
  10 -14  11   15.60    4.20
   4  10  11   11.00    3.30
   5  10  11   -2.00    2.90
  10 -15  11    3.00    3.90
   6  10  11    3.30    3.60
  10 -16  11   -3.80    3.80
   7  10  11    4.60    3.90
  10 -17  11   17.90    5.30
  10 -18  11   28.10    6.10
   8  10  11   29.80    5.40
   9  10  11   23.10    5.40
  10 -19  11   36.10    6.60
  10 -20  11   -2.00    5.30
  10  10  11    5.30    5.00
  11  10  11   12.60    5.80
  10 -21  11    7.00    6.50
  11   9  11   46.00    6.70
   9 -20  11   47.50    7.50
  11   8  11   21.80    5.40
   8 -19  11   28.30    6.30
   7 -18  11   33.00    6.20
  11   7  11   33.70    5.70
   6 -17  11    4.70    4.70
  11   6  11   -0.80    4.30
  -5  16 -11   47.20    6.10
   5 -16  11   57.39    6.60
  11   5  11   47.30    5.80
  -4  15 -11   -3.80    3.50
  11   4  11    1.00    3.60
  -3  14 -11   81.09    7.20
  11   3  11   82.69    7.10
  -2  13 -11  155.78    9.00
  11   2  11  161.68    8.80
  -1  12 -11   28.00    4.30
  11   1  11   34.80    4.70
   0  11 -11    1.70    2.70
  11   0  11   -0.80    3.00
   1  10 -11   49.00    4.70
  11  -1  11   59.09    5.50
   2   9 -11   10.10    2.90
  11  -2  11    5.70    3.10
   3   8 -11  416.96   13.80
  11  -3  11  397.46   14.30
   4   7 -11   77.39    5.50
  11  -4  11   69.29    5.70
   5   6 -11   80.09    5.20
  11  -5  11   69.29    6.20
   6   5 -11  127.89    6.40
  11  -6  11  125.49    7.70
   7   4 -11   19.20    3.10
  11  -7  11   19.70    4.00
   8   3 -11  139.99    6.50
  11  -8  11  121.79    8.10
   9   2 -11  124.19    6.00
  11  -9  11   93.89    7.70
  11 -10  11   34.40    4.90
  11 -11  11   -2.80    3.00
   1  11  11   66.59    5.20
  11 -12  11   52.19    5.90
  11 -13  11   10.10    4.10
   2  11  11   14.70    3.30
  11 -14  11   17.70    4.80
   3  11  11   12.60    3.50
   4  11  11   -4.20    3.00
  11 -15  11   -3.30    3.70
   5  11  11   41.70    5.00
  11 -16  11   47.20    6.60
   6  11  11   28.90    4.90
  11 -17  11   27.60    5.80
   7  11  11   52.09    6.10
  11 -18  11   49.70    7.30
  11 -19  11   39.50    7.10
   8  11  11   27.40    5.60
  11 -20  11    5.00    5.60
   9  11  11    1.50    4.80
  11 -21  11   -0.50    6.00
  10  11  11    0.80    5.20
  11  11  11    1.70    6.10
  11 -22  11    5.10    6.70
 -11  23 -11   17.00    7.10
  12  11  11   -2.80    6.60
 -10  22 -11    2.90    6.20
  12  10  11    1.60    5.90
  -9  21 -11   12.50    5.80
  12   9  11    8.20    5.60
  -8  20 -11    8.40    5.60
  12   8  11    0.20    5.00
  -7  19 -11   -0.30    4.90
  12   7  11   -4.50    4.70
  -6  18 -11   -3.80    4.50
  12   6  11   -1.80    4.40
  -5  17 -11   11.20    4.80
  12   5  11   10.40    4.60
  -4  16 -11   46.30    6.10
  12   4  11   35.50    5.70
  -3  15 -11   42.40    5.60
  12   3  11   52.69    6.10
  -2  14 -11    9.00    3.80
  12   2  11    6.60    3.90
  -1  13 -11  102.39    7.50
  12   1  11   99.59    8.00
   0  12 -11   31.50    4.60
  12   0  11   29.90    4.60
   1  11 -11   82.79    6.50
  12  -1  11   73.39    6.30
   2  10 -11  111.69    7.00
  12  -2  11  103.69    7.80
   3   9 -11  120.69    7.10
  12  -3  11  117.99    7.70
   4   8 -11   47.90    4.40
  12  -4  11   42.50    4.90
   5   7 -11   80.79    5.70
  12  -5  11   89.79    7.10
   6   6 -11   68.59    5.20
  12  -6  11   64.99    6.00
   7   5 -11   69.79    5.50
  12  -7  11   72.09    6.30
   8   4 -11   55.19    4.50
  12  -8  11   50.39    5.60
   9   3 -11  498.65   15.80
  12  -9  11  541.75   18.60
  10   2 -11   27.10    5.20
  12 -10  11   32.30    5.10
  12 -11  11   32.00    4.90
  12 -12  11   25.10    4.70
  12 -13  11   61.49    6.60
  12 -14  11   32.70    5.60
   2  12  11   29.80    4.10
  12 -15  11    0.40    4.20
   3  12  11    0.80    3.20
  12 -16  11   54.09    6.90
   4  12  11   58.29    5.70
  12 -17  11    2.90    4.50
   5  12  11   -0.50    3.70
  12 -18  11    0.70    4.90
   6  12  11    2.30    4.40
   7  12  11    1.90    4.60
  12 -19  11   -0.40    5.30
   8  12  11    6.00    5.20
  12 -20  11   -5.90    5.40
  12 -21  11   14.80    6.60
   9  12  11    1.20    5.30
  12 -22  11    7.00    7.10
  10  12  11   19.40    6.50
  12 -23  11   12.70    7.40
  11  12  11    3.00    6.60
 -10  23 -11    1.70    6.60
  13  10  11   -2.80    6.30
  -9  22 -11    6.90    6.20
  13   9  11   -4.60    5.50
  -8  21 -11    5.00    5.50
  13   8  11    3.80    5.70
  -7  20 -11   32.40    6.60
  13   7  11   26.30    6.50
  -6  19 -11    0.70    4.90
  13   6  11    3.70    5.10
  -5  18 -11   65.89    7.20
  13   5  11   77.69    7.50
  -4  17 -11   38.10    6.10
  13   4  11   34.70    5.90
  -3  16 -11   18.70    5.10
  13   3  11   21.70    5.30
  -2  15 -11   57.09    6.10
  13   2  11   47.60    6.10
  -1  14 -11    7.80    3.90
  13   1  11    3.20    4.00
   0  13 -11    4.60    3.40
  13   0  11   -0.90    3.50
   1  12 -11   74.79    6.40
  13  -1  11   82.59    6.90
   2  11 -11   16.40    3.90
  13  -2  11   14.30    4.10
   3  10 -11   46.10    4.70
  13  -3  11   46.90    5.50
   4   9 -11   89.69    6.50
  13  -4  11   89.29    7.70
   5   8 -11   40.40    4.30
  13  -5  11   30.30    4.60
   6   7 -11   30.70    3.90
  13  -6  11   27.90    4.60
   7   6 -11   19.80    3.50
  13  -7  11   20.70    4.50
   8   5 -11   42.50    4.30
  13  -8  11   27.00    4.70
   9   4 -11   14.10    3.00
  13  -9  11   12.70    4.10
  10   3 -11    6.20    2.90
  13 -10  11    6.30    3.90
  13 -11  11  139.59    9.60
  13 -12  11   76.19    7.10
  13 -13  11   -2.20    3.90
  13 -14  11   67.39    7.00
  13 -15  11   73.69    7.70
   3  13  11    9.90    3.80
  13 -16  11   18.00    5.60
  13 -17  11    6.10    5.00
   4  13  11    2.70    4.10
  13 -18  11   85.19    8.60
   5  13  11   78.69    6.90
  13 -19  11   39.50    7.10
   6  13  11   32.00    5.80
  13 -20  11    4.90    6.00
   7  13  11   -5.20    4.80
   8  13  11   -3.70    5.20
  13 -21  11    1.70    6.00
   9  13  11   26.30    6.90
  13 -22  11   28.80    7.60
  10  13  11    4.80    6.60
  13 -23  11    7.90    7.40
  -9  23 -11    2.40    6.40
  14   9  11    5.90    6.70
  -8  22 -11    3.20    5.70
  14   8  11   -0.90    6.10
  -7  21 -11   -3.20    5.50
  14   7  11   -1.20    5.60
  -6  20 -11   22.40    6.40
  14   6  11   27.30    6.40
  -5  19 -11   15.90    5.90
  14   5  11    2.30    5.10
  -4  18 -11   29.20    5.90
  14   4  11   28.60    6.10
  -3  17 -11    3.60    4.60
  14   3  11   -3.60    4.60
  -2  16 -11   16.00    4.90
  14   2  11   13.40    5.20
  -1  15 -11   14.30    4.50
  14   1  11   10.80    4.70
   0  14 -11    0.40    3.80
  14   0  11   -4.70    3.80
   1  13 -11   76.29    6.70
  14  -1  11   81.89    7.00
   2  12 -11   40.50    4.80
  14  -2  11   37.10    5.40
   3  11 -11   14.70    3.90
  14  -3  11   17.10    4.60
   4  10 -11   15.70    3.70
  14  -4  11   17.10    4.50
   5   9 -11    8.10    3.20
  14  -5  11   10.80    4.30
   6   8 -11    7.10    3.10
  14  -6  11    6.80    3.90
   7   7 -11   61.89    5.30
  14  -7  11   43.70    5.80
   8   6 -11   26.90    4.00
  14  -8  11   29.80    5.30
   9   5 -11  194.68    8.80
  14  -9  11  187.88   10.50
  10   4 -11  125.39    7.30
  14 -10  11  113.89    9.10
  14 -11  11   75.49    7.40
  14 -12  11    3.70    4.50
  14 -13  11   13.60    4.80
  14 -14  11    2.40    4.80
  14 -15  11   59.99    7.40
  14 -16  11   12.60    5.60
  14 -17  11   41.80    7.10
  14 -18  11    1.50    5.30
   4  14  11    2.40    4.20
   5  14  11   39.50    6.10
  14 -19  11   38.20    7.20
  14 -20  11   25.20    6.90
   6  14  11   17.80    5.80
  14 -21  11    4.50    6.60
   7  14  11   -0.10    5.40
  14 -22  11   14.50    7.20
   8  14  11   18.00    6.50
   9  14  11    3.30    6.50
  14 -23  11   -1.40    7.10
  -8  23 -11    0.90    6.90
  15   8  11   -3.60    6.70
  -7  22 -11   18.10    6.80
  15   7  11   18.50    6.80
  -6  21 -11   -1.60    5.60
  15   6  11    0.50    5.80
  -5  20 -11   17.90    6.00
  15   5  11   18.90    6.30
  -4  19 -11   22.60    6.00
  15   4  11   22.60    6.20
  -3  18 -11   22.00    5.80
  15   3  11    8.20    5.40
  -2  17 -11   19.70    5.40
  15   2  11    5.10    5.00
  -1  16 -11   52.89    6.40
  15   1  11   48.30    6.60
   0  15 -11   27.30    5.30
  15   0  11   29.60    5.90
   1  14 -11   68.29    6.60
  15  -1  11   65.79    7.00
   2  13 -11  104.59    8.40
  15  -2  11   85.49    7.70
   3  12 -11    5.40    3.80
  15  -3  11   -2.30    4.10
   4  11 -11   -3.40    3.10
  15  -4  11   -6.70    3.80
   5  10 -11   -2.80    3.10
  15  -5  11   -9.40    3.70
   6   9 -11    5.80    3.60
  15  -6  11    6.50    4.80
   7   8 -11   52.99    5.20
  15  -7  11   43.60    6.00
   8   7 -11    4.50    3.20
  15  -8  11    1.70    4.40
   9   6 -11   20.00    3.80
  15  -9  11   11.60    4.90
  10   5 -11    4.40    3.10
  15 -10  11   -2.00    4.10
  11   4 -11   -5.90    2.80
  15 -11  11   -5.00    4.30
  15 -12  11   47.90    6.80
  15 -13  11   57.09    7.20
  15 -14  11   17.70    5.60
  15 -15  11   39.70    6.90
  15 -16  11   10.30    5.80
  15 -17  11   47.20    7.50
  15 -18  11   16.40    6.70
  15 -19  11   -2.20    6.10
  15 -20  11   11.00    6.70
   5  15  11    7.30    5.80
  15 -21  11   36.90    8.00
   6  15  11   27.00    6.40
   7  15  11    1.30    6.00
  15 -22  11   -2.40    6.70
   8  15  11    3.40    6.40
  15 -23  11   14.10    7.70
  16   7  11   -9.00    6.60
  -6  22 -11   13.40    6.70
  16   6  11   12.90    7.00
  -5  21 -11    7.50    6.20
  16   5  11   10.10    6.60
  -4  20 -11   12.90    5.70
  16   4  11   13.00    6.50
  -3  19 -11   55.09    7.50
  16   3  11   66.49    8.10
  -2  18 -11    2.30    5.20
  16   2  11    9.40    5.50
  -1  17 -11   11.40    5.30
  16   1  11   15.90    5.90
   0  16 -11    5.60    4.80
  16   0  11   12.40    5.40
   1  15 -11   11.90    4.90
  16  -1  11   14.80    5.30
   2  14 -11    0.30    4.10
  16  -2  11   -2.30    4.40
   3  13 -11    7.10    4.20
  16  -3  11    3.90    4.60
   4  12 -11   50.79    6.00
  16  -4  11   55.09    6.60
   5  11 -11   50.49    5.70
  16  -5  11   48.60    6.50
   6  10 -11   -2.00    3.60
  16  -6  11    4.40    4.60
   7   9 -11  162.98    9.30
  16  -7  11  161.08   10.90
   8   8 -11  101.79    7.70
  16  -8  11   82.19    8.10
   9   7 -11    9.90    3.70
  16  -9  11    1.10    5.10
  10   6 -11   29.10    4.40
  16 -10  11   22.20    6.00
  11   5 -11   58.39    5.50
  16 -11  11   51.09    7.10
  16 -12  11   44.70    7.00
  16 -13  11   22.40    6.00
  16 -14  11   10.00    5.60
  16 -15  11   56.69    7.80
  16 -16  11    5.30    5.70
  16 -17  11   10.80    6.30
  16 -18  11   -6.30    5.90
  16 -19  11   14.50    6.80
  16 -20  11    1.60    6.50
  16 -21  11   -9.80    6.10
  16 -22  11    2.30    7.20
   7  16  11   20.90    8.30
  16 -23  11   16.70    9.40
  -5  22 -11   16.80    6.90
  17   5  11   14.50    7.40
  -4  21 -11   30.10    7.10
  17   4  11   27.50    7.50
  -3  20 -11   -0.40    5.40
  17   3  11   -6.90    6.00
  -2  19 -11    3.30    5.50
  17   2  11   13.40    6.20
  -1  18 -11   37.50    6.80
  17   1  11   39.90    7.00
   0  17 -11   38.90    6.60
  17   0  11   34.20    6.90
   1  16 -11   11.60    5.20
  17  -1  11   16.80    5.80
   2  15 -11   54.19    6.60
  17  -2  11   48.30    7.10
   3  14 -11   41.80    6.00
  17  -3  11   43.00    6.50
   4  13 -11    0.80    4.10
  17  -4  11    2.70    4.90
   5  12 -11   -0.90    4.30
  17  -5  11   -1.00    4.80
   6  11 -11   36.80    5.60
  17  -6  11   29.80    6.10
   7  10 -11   10.40    4.30
  17  -7  11    6.70    4.80
   8   9 -11   55.09    5.90
  17  -8  11   56.19    7.30
   9   8 -11    4.60    4.00
  17  -9  11    3.70    5.30
  10   7 -11   38.50    5.30
  17 -10  11   37.00    6.90
  11   6 -11    0.30    3.70
  17 -11  11    0.90    5.00
  12   5 -11   13.30    4.70
  17 -12  11    9.60    5.90
  17 -13  11   27.90    6.60
  17 -14  11    3.60    5.70
  17 -15  11   24.40    6.70
  17 -16  11   15.10    6.50
  17 -17  11   23.70    7.20
  17 -18  11   12.90    6.80
  17 -19  11   13.10    7.00
  17 -20  11   14.50    7.10
  17 -21  11   44.70    8.50
  17 -22  11   14.20    7.70
  -4  22 -11    2.40    6.60
  18   4  11   -0.90    6.90
  -3  21 -11   -2.00    6.00
  18   3  11    7.50    6.70
  -2  20 -11    0.50    5.60
  18   2  11   -0.70    6.30
  -1  19 -11   -2.00    5.40
  18   1  11   -7.10    5.50
   0  18 -11   25.00    6.30
  18   0  11   21.80    6.80
   1  17 -11   20.10    5.90
  18  -1  11   18.30    6.60
   2  16 -11  -12.60    4.50
  18  -2  11  -11.10    5.20
   3  15 -11    5.30    4.80
  18  -3  11   11.70    6.00
   4  14 -11   -0.10    4.50
  18  -4  11    7.90    5.70
   5  13 -11   82.79    7.50
  18  -5  11   78.29    8.10
   6  12 -11    5.50    4.50
  18  -6  11   -1.20    5.00
   7  11 -11   54.09    6.50
  18  -7  11   57.49    7.60
   8  10 -11   30.80    5.30
  18  -8  11   25.80    6.70
   9   9 -11   39.50    5.50
  18  -9  11   36.30    7.30
  10   8 -11   39.40    5.40
  18 -10  11   26.70    7.00
  11   7 -11   26.80    5.00
  18 -11  11   26.20    7.00
  12   6 -11   -1.80    4.00
  18 -12  11   -6.00    5.50
  18 -13  11   80.69    9.00
  18 -14  11   32.40    7.40
  18 -15  11    9.40    6.40
  18 -16  11   -2.40    6.30
  18 -17  11   61.09    8.90
  18 -18  11   23.80    7.50
  18 -19  11    4.00    6.80
  18 -20  11    1.50    7.10
  18 -21  11   23.20    8.00
  18 -22  11   -4.40    7.40
  -2  21 -11    5.50    6.20
  19   2  11    5.00    7.00
  -1  20 -11   11.80    6.10
  19   1  11    6.60    6.50
   0  19 -11   15.60    6.00
  19   0  11    3.80    6.70
   1  18 -11    7.90    5.80
  19  -1  11    4.80    6.20
   2  17 -11    7.40    5.50
  19  -2  11    4.60    6.40
   3  16 -11   13.70    5.70
  19  -3  11   13.20    6.40
   4  15 -11   -2.70    4.90
  19  -4  11   -4.00    5.70
   5  14 -11   29.20    6.00
  19  -5  11   37.80    7.00
   6  13 -11   34.50    6.30
  19  -6  11   44.90    7.30
   7  12 -11    1.10    4.70
  19  -7  11    5.60    5.90
   8  11 -11   35.90    5.80
  19  -8  11   39.50    7.40
   9  10 -11   32.10    5.60
  19  -9  11   18.50    6.80
  10   9 -11    1.50    4.30
  19 -10  11   -3.90    5.90
  11   8 -11   35.60    5.40
  19 -11  11   21.00    7.00
  12   7 -11    5.90    4.50
  19 -12  11   -0.60    6.10
  19 -13  11    0.80    6.30
  19 -14  11    7.90    6.40
  19 -15  11    8.50    6.70
  19 -16  11   58.39    8.80
  19 -17  11    4.60    6.60
  19 -18  11   11.20    7.30
  19 -19  11   20.50    8.00
  19 -20  11   -4.10    7.40
  19 -21  11   -4.20    7.50
   0  20 -11    3.80    6.30
  20   0  11    7.40    7.20
   1  19 -11    8.10    6.10
  20  -1  11    7.60    7.10
   2  18 -11   13.20    6.50
  20  -2  11   -0.20    6.30
   3  17 -11   12.20    6.50
  20  -3  11    6.40    6.70
   4  16 -11    0.90    5.60
  20  -4  11   -4.70    6.10
   5  15 -11    7.10    5.70
  20  -5  11    8.50    6.50
   6  14 -11   14.40    5.90
  20  -6  11   24.90    6.80
   7  13 -11    4.30    5.30
  20  -7  11  -11.20    5.60
   8  12 -11   -1.00    4.70
  20  -8  11   -1.50    5.90
   9  11 -11   -3.50    4.40
  20  -9  11   -3.30    6.20
  10  10 -11    3.80    4.70
  20 -10  11   -3.00    6.40
  11   9 -11   49.20    6.30
  20 -11  11   44.10    8.40
  12   8 -11    7.30    4.80
  20 -12  11    5.60    6.50
  13   7 -11   34.70    6.10
  20 -13  11   44.30    8.80
  20 -14  11   25.60    7.80
  20 -15  11   14.60    7.30
  20 -16  11    7.90    7.10
  20 -17  11    4.70    7.00
  20 -18  11    7.70    7.30
  20 -19  11   -2.90    7.50
  20 -20  11    0.60    7.90
  20 -21  11   -0.20   11.50
   1  20 -11   17.30   10.40
   2  19 -11    4.00    6.60
  21  -2  11    0.00    7.10
   3  18 -11   18.20    7.00
  21  -3  11   30.40    7.80
   4  17 -11   28.50    7.20
  21  -4  11   21.90    7.60
   5  16 -11   -1.30    5.90
  21  -5  11   -4.40    6.50
   6  15 -11   25.00    6.70
  21  -6  11   31.70    7.60
   7  14 -11    0.50    5.50
  21  -7  11   -8.40    6.50
   8  13 -11   -5.20    5.20
  21  -8  11   -3.50    6.40
   9  12 -11    3.50    5.10
  21  -9  11    2.50    6.90
  10  11 -11   -1.70    5.00
  21 -10  11   -2.70    7.00
  11  10 -11   12.40    5.40
  21 -11  11    9.80    7.80
  12   9 -11    3.80    5.20
  21 -12  11   -4.70    6.50
  13   8 -11   -7.60    4.90
  21 -13  11   12.10    7.60
  21 -14  11    1.90    7.00
  21 -15  11   -3.20    6.50
  21 -16  11    2.00    7.60
  21 -17  11   28.90    8.80
  21 -18  11    1.90    7.60
  21 -19  11    0.40    8.10
  21 -20  11  -14.00    9.20
   4  18 -11   -7.30    6.10
  22  -4  11   11.40    9.80
   5  17 -11    7.00    6.90
  22  -5  11    4.60    7.10
   6  16 -11  -11.10    5.90
  22  -6  11   14.90    7.30
   7  15 -11   -3.30    5.80
  22  -7  11   -7.00    6.40
   8  14 -11   16.00    6.40
  22  -8  11   14.30    7.40
   9  13 -11   14.00    6.20
  22  -9  11   37.30    8.80
  10  12 -11    4.20    5.90
  22 -10  11   10.70    7.60
  11  11 -11   -3.40    5.30
  22 -11  11   -2.90    7.60
  12  10 -11   14.90    6.00
  22 -12  11    0.00    7.80
  13   9 -11   -5.10    5.80
  22 -13  11    2.80    7.50
  22 -14  11    3.90    7.90
  22 -15  11   25.40    8.50
  22 -16  11    8.70    8.50
  22 -17  11   10.80    8.20
  22 -18  11   -3.20    8.20
   7  16 -11   20.40    7.10
   8  15 -11   -1.00    6.20
  23  -8  11   -1.30    8.30
   9  14 -11   -6.90    5.90
  23  -9  11   -9.50    7.90
  10  13 -11    4.40    6.00
  23 -10  11    1.70    8.00
  11  12 -11   -0.50    5.80
  23 -11  11  -15.50    7.70
  12  11 -11   14.40    6.60
  23 -12  11    2.70    8.30
  13  10 -11   -1.40    6.40
  23 -13  11    6.20    8.40
  14   9 -11    9.10    9.40
  23 -14  11    5.90    8.60
  23 -15  11   -1.70    7.60
  23 -16  11    9.10    9.80
   0   0  12 1021.80   27.50
   0  -1  12    8.00    1.80
   1   0  12    7.00    1.80
  -1   1  12    9.00    1.60
   1  -1  12    9.60    2.00
   0   1  12    9.50    1.80
  -1   0  12    9.30    1.70
   1  -2  12  218.38    7.80
   1   1  12  210.78    7.50
  -2   1  12  207.78    6.90
  -3   2  12   53.89    2.90
   2   1  12   52.09    3.70
   1  -3  12   49.00    3.70
   2   0  12   40.00    3.50
  -2   2  12   40.30    2.70
   0  -2  12   39.30    3.30
   2  -1  12  224.88    8.00
  -1  -1  12  215.88    7.50
  -1   2  12  214.18    7.10
   2  -2  12   42.70    3.60
   0   2  12   40.90    3.10
  -2   0  12   42.30    3.00
   1   2  12  338.17   10.90
  -3   1  12  355.66   10.30
   2  -3  12  365.26   11.60
   2   2  12   54.19    3.70
   2  -4  12   51.19    4.00
   3   2  12    8.70    2.00
   2  -5  12   11.00    2.40
   1  -4  12  119.09    5.70
   3   1  12  128.19    5.60
   3   0  12  117.79    5.70
   0  -3  12  130.49    5.60
  -2   3  12  355.46   10.40
  -1  -2  12  366.96   11.20
   3  -1  12  362.56   11.70
  -2  -1  12   50.89    3.30
  -1   3  12   53.19    3.30
   3  -2  12   54.89    4.10
  -3   0  12  126.69    5.00
   0   3  12  121.19    5.10
   3  -3  12  130.59    6.00
   1   3  12  313.27   10.10
   3  -4  12  342.17   11.20
   3  -5  12   14.40    2.60
   2   3  12   21.80    2.40
   3  -6  12   39.50    3.80
   3   3  12   35.10    3.10
   3  -7  12   18.10    3.00
   4   3  12   16.50    2.60
   2  -6  12   75.19    4.90
   4   2  12   72.19    4.50
   4   1  12   13.60    2.40
   1  -5  12   18.90    2.70
   4   0  12   37.10    3.30
   0  -4  12   39.40    3.40
  -1  -3  12  327.17   10.50
   4  -1  12  321.57   11.00
   4  -2  12   49.30    4.10
  -2  -2  12   47.00    3.40
  -1   4  12  113.69    4.70
   4  -3  12  125.79    6.10
  -3  -1  12  124.99    5.00
   4   0 -12   39.70    2.70
   0   4  12   38.40    3.00
   4  -4  12   37.60    3.60
   1   4  12   48.40    3.40
   4  -5  12   51.89    4.30
   2   4  12   17.60    2.40
   4  -6  12   15.20    2.80
   4  -7  12    3.10    2.10
   3   4  12    0.90    1.80
   4  -8  12    3.80    2.40
   4   4  12    4.60    2.10
   4  -9  12  106.99    6.50
   5   4  12  115.39    6.10
   5   3  12   12.40    2.60
   3  -8  12   11.50    2.70
   2  -7  12   24.00    3.10
   5   2  12   16.70    2.70
   5   1  12   39.00    3.60
   1  -6  12   44.00    3.90
   5   0  12   63.19    4.50
   0  -5  12   66.59    4.50
   5  -1  12   45.70    3.90
  -1  -4  12   48.00    3.80
   5  -2  12   14.80    2.70
  -2  -3  12   17.30    2.40
   3   2 -12   12.30    2.00
   5  -3  12    6.50    2.30
   4   1 -12   15.50    2.00
   5  -4  12   19.10    2.90
  -1   5  12   16.00    1.90
   5   0 -12   65.19    4.30
   5  -5  12   61.09    4.70
   0   5  12   58.69    3.50
   5  -6  12    2.40    2.20
   1   5  12    5.40    1.80
   2   5  12  203.38    7.30
   5  -7  12  189.58    8.50
   5  -8  12   15.10    3.10
   3   5  12   12.00    2.40
   5  -9  12    9.20    2.90
   4   5  12    5.30    2.40
   5 -10  12   33.30    4.20
   5   5  12   31.90    3.70
   6   5  12    2.50    2.60
   5 -11  12    3.00    2.90
   6   4  12  145.39    7.20
   4 -10  12  152.08    8.10
   3  -9  12   38.60    4.30
   6   3  12   37.40    3.70
   6   2  12    9.50    2.50
   2  -8  12   13.70    2.90
   1  -7  12   15.30    2.80
   6   1  12   16.60    2.80
   0  -6  12   23.50    3.00
   6   0  12   24.40    3.10
   6  -1  12    2.70    2.10
  -1  -5  12    5.00    2.00
  -2  -4  12   17.70    2.60
   6  -2  12   20.30    3.00
   3   3 -12   37.80    3.20
   6  -3  12   27.10    3.40
   4   2 -12   77.69    4.00
   6  -4  12   66.69    5.10
   5   1 -12   41.80    3.20
   6  -5  12   44.90    4.20
   0   6  12   28.80    2.50
   6  -6  12   20.50    3.20
   1   6  12   16.60    2.30
   6  -7  12   20.00    3.30
   2   6  12    2.00    1.90
   6  -8  12    1.10    2.30
   6  -9  12  130.79    7.50
   3   6  12  123.39    6.10
   6 -10  12   39.60    4.60
   4   6  12   38.00    3.80
   6 -11  12   52.19    5.30
   5   6  12   52.39    4.50
   6 -12  12   -3.90    2.50
   6   6  12    1.20    2.50
   6 -13  12   70.49    6.60
   7   6  12   70.89    6.20
   7   5  12   14.70    3.40
   5 -12  12    8.00    3.40
   7   4  12   26.70    3.80
   4 -11  12   22.10    4.00
   3 -10  12   13.00    3.40
   7   3  12   19.50    3.30
   2  -9  12   11.00    2.90
   7   2  12    7.40    2.60
   7   1  12   16.00    2.90
   1  -8  12   17.50    3.10
   0  -7  12   42.70    3.90
   7   0  12   41.90    4.00
   7  -1  12   20.50    3.10
  -1  -6  12   19.30    3.00
   2   5 -12  189.48    7.60
   7  -2  12  215.18    8.60
   3   4 -12    2.30    1.70
   7  -3  12    1.00    2.30
   4   3 -12   19.30    2.40
   7  -4  12   14.70    2.90
   5   2 -12   22.90    2.60
   7  -5  12   18.60    3.20
   6   1 -12   16.20    2.30
   7  -6  12   14.70    3.00
   0   7  12   39.50    3.40
   7  -7  12   42.20    4.30
   1   7  12   44.80    3.50
   7  -8  12   42.70    4.60
   2   7  12  130.19    6.10
   7  -9  12  138.29    7.60
   3   7  12    3.30    2.30
   7 -10  12    6.90    3.10
   7 -11  12   11.70    3.50
   4   7  12   13.50    2.90
   7 -12  12    3.70    3.20
   5   7  12    5.30    2.70
   6   7  12   66.59    5.40
   7 -13  12   67.29    6.30
   7   7  12   39.10    4.70
   7 -14  12   48.30    5.80
   7 -15  12   26.40    5.40
   8   7  12   22.40    4.40
   8   6  12    0.30    3.20
   6 -14  12    5.30    3.70
   5 -13  12   17.40    4.10
   8   5  12   12.60    3.60
   8   4  12   18.00    3.70
   4 -12  12   17.20    3.90
   3 -11  12   42.20    4.90
   8   3  12   60.89    5.10
   8   2  12   44.70    4.40
   2 -10  12   35.60    4.30
   8   1  12  137.29    7.20
   1  -9  12  134.39    7.30
   8   0  12  118.09    6.60
   0  -8  12  126.19    6.80
   1   7 -12   43.20    4.00
   8  -1  12   38.30    4.00
   2   6 -12    3.00    2.00
   8  -2  12    1.70    2.30
   3   5 -12   13.40    2.50
   8  -3  12   13.00    3.00
   4   4 -12    5.00    2.00
   8  -4  12    8.50    2.80
   5   3 -12   12.00    2.30
   8  -5  12   11.80    3.00
   6   2 -12   12.60    2.20
   8  -6  12   22.40    3.70
   8  -7  12   11.10    3.10
   8  -8  12  100.19    6.80
   8  -9  12   11.50    3.30
   1   8  12    6.70    2.10
   8 -10  12    8.50    3.20
   2   8  12    7.80    2.50
   8 -11  12  101.19    7.50
   3   8  12   99.39    5.80
   4   8  12    3.50    2.60
   8 -12  12    6.20    3.40
   5   8  12    4.00    2.80
   8 -13  12    6.60    3.60
   8 -14  12    7.30    3.70
   6   8  12    0.30    3.00
   8 -15  12   30.80    5.50
   7   8  12   34.70    4.70
   8   8  12   -0.80    3.50
   8 -16  12   -3.80    4.30
   8 -17  12    1.10    4.60
   9   8  12   -0.40    4.00
   9   7  12   -2.90    3.70
   7 -16  12   -3.90    4.60
   6 -15  12    1.00    4.10
   9   6  12   -0.60    3.50
   9   5  12   18.30    4.30
   5 -14  12   18.40    4.50
   9   4  12    0.10    3.20
   4 -13  12   -0.30    3.20
   9   3  12   46.60    5.00
   3 -12  12   39.70    5.10
   2 -11  12    1.40    3.00
   9   2  12    0.70    2.80
   9   1  12    1.90    3.00
   1 -10  12    2.30    2.80
   0   9 -12   36.00    4.00
   9   0  12   30.40    4.10
   1   8 -12    4.00    2.60
   9  -1  12    9.50    3.00
   2   7 -12  141.09    6.80
   9  -2  12  141.59    7.50
   3   6 -12  130.79    6.20
   9  -3  12  116.29    7.00
   4   5 -12    8.00    2.40
   9  -4  12    1.20    2.60
   5   4 -12  116.29    5.70
   9  -5  12  113.59    7.20
   6   3 -12   36.40    3.20
   9  -6  12   29.60    4.20
   7   2 -12   12.90    2.40
   9  -7  12    3.90    3.00
   9  -8  12  148.49    8.20
   9  -9  12   47.90    5.20
   9 -10  12   48.00    5.20
   2   9  12    5.50    2.50
   9 -11  12    4.50    3.30
   9 -12  12   10.50    3.70
   3   9  12   14.20    3.00
   9 -13  12    8.90    3.90
   4   9  12    1.90    2.70
   9 -14  12   -1.40    3.50
   5   9  12   -0.20    2.90
   9 -15  12   40.70    5.80
   6   9  12   43.00    4.90
   9 -16  12   -1.50    4.30
   7   9  12   -1.30    3.70
   9 -17  12   41.00    6.50
   8   9  12   32.20    5.20
   9   9  12   -3.90    4.20
   9 -18  12   -1.80    4.70
  10   9  12   -1.00    4.50
   9 -19  12   -8.00    4.80
   8 -18  12    0.30    5.00
  10   8  12   -2.10    4.30
  10   7  12   -3.70    4.20
   7 -17  12    0.10    4.70
   6 -16  12   59.49    7.10
  10   6  12   72.79    6.60
   5 -15  12   28.40    5.20
  10   5  12   25.10    4.70
  10   4  12    9.60    3.90
   4 -14  12   15.60    4.20
  10   3  12    6.40    3.50
   3 -13  12    2.30    3.30
  -2  12 -12   -2.10    3.00
   2 -12  12   -0.50    3.00
  10   2  12    1.80    3.20
  -1  11 -12    6.30    3.10
  10   1  12    4.80    3.20
   0  10 -12   31.20    4.00
  10   0  12   25.80    4.30
   1   9 -12   42.10    4.20
  10  -1  12   41.40    4.60
   2   8 -12    8.20    2.80
  10  -2  12    8.90    3.30
   3   7 -12    2.40    2.30
  10  -3  12    2.90    2.90
   4   6 -12   36.60    3.80
  10  -4  12   38.20    4.60
   5   5 -12   32.30    3.50
  10  -5  12   30.60    4.40
   6   4 -12  140.89    6.60
  10  -6  12  153.98    8.40
   7   3 -12   21.50    2.90
  10  -7  12   18.10    3.80
  10  -8  12   47.50    5.20
  10  -9  12   -3.20    2.90
  10 -10  12   35.20    4.90
  10 -11  12    0.80    3.20
   2  10  12   -1.10    2.70
  10 -12  12    1.40    3.50
   3  10  12   -0.90    2.70
  10 -13  12   -1.00    3.50
  10 -14  12  105.49    8.30
   4  10  12   93.89    6.90
   5  10  12   25.10    4.30
  10 -15  12   19.90    5.20
   6  10  12   20.80    4.40
  10 -16  12   18.70    5.20
  10 -17  12   16.30    5.40
   7  10  12    8.90    4.30
   8  10  12   -8.30    4.00
  10 -18  12   -7.80    4.50
   9  10  12    6.60    5.00
  10 -19  12   15.10    5.90
  10  10  12   -2.00    4.90
  10 -20  12    2.00    5.80
  10 -21  12   17.20    7.30
  11  10  12   21.30    6.40
   9 -20  12    5.30    5.90
  11   9  12   -5.60    4.80
  11   8  12   28.90    6.00
   8 -19  12   29.50    6.50
  11   7  12    1.50    4.40
   7 -18  12   -4.30    4.80
   6 -17  12   -5.60    4.40
  11   6  12  -11.00    3.70
  11   5  12   16.50    4.80
   5 -16  12    7.70    5.00
  -4  15 -12    1.70    3.90
  11   4  12    1.00    4.00
  -3  14 -12   14.20    4.30
  11   3  12   13.50    4.10
  -2  13 -12   36.80    4.90
  11   2  12   29.30    4.60
  -1  12 -12   20.20    4.00
  11   1  12   16.00    4.10
   0  11 -12   61.29    5.50
  11   0  12   64.29    6.00
   1  10 -12    1.70    2.80
  11  -1  12   -0.70    2.80
   2   9 -12    4.80    2.70
  11  -2  12    8.60    3.40
   3   8 -12   97.79    6.20
  11  -3  12   99.59    7.20
   4   7 -12   12.00    3.00
  11  -4  12   13.40    3.50
   5   6 -12   50.59    4.40
  11  -5  12   48.20    5.30
   6   5 -12    5.80    2.60
  11  -6  12    1.40    3.10
   7   4 -12   21.30    3.20
  11  -7  12   13.30    3.70
   8   3 -12   59.89    4.60
  11  -8  12   59.59    5.80
  11  -9  12    1.30    3.20
  11 -10  12   11.50    4.00
  11 -11  12   64.59    6.10
  11 -12  12  138.09    9.40
  11 -13  12    1.00    3.90
   3  11  12   -2.80    3.00
  11 -14  12    3.40    4.10
  11 -15  12   27.20    5.50
   4  11  12   18.40    3.90
   5  11  12   15.50    4.10
  11 -16  12   12.20    5.20
  11 -17  12    2.70    4.50
   6  11  12   -5.10    3.70
  11 -18  12    3.30    5.50
   7  11  12   -3.40    4.10
   8  11  12    1.60    4.60
  11 -19  12    9.40    5.70
  11 -20  12   16.70    6.40
   9  11  12   12.70    5.40
  11 -21  12   -7.70    6.20
  10  11  12    7.40    5.70
  11  11  12   -5.90    5.70
  11 -22  12   -5.70    6.50
  12  11  12    7.70    7.20
 -10  22 -12   -3.10    6.10
  12  10  12   -3.30    6.20
  -9  21 -12   14.60    6.40
  12   9  12    9.50    6.20
  -8  20 -12    6.40    5.50
  12   8  12   -1.90    5.20
  -7  19 -12    8.80    5.30
  12   7  12   -2.40    4.70
  -6  18 -12   -1.90    4.70
  12   6  12   14.60    5.40
  -5  17 -12   38.80    6.10
  12   5  12   26.30    5.50
  -4  16 -12   14.30    4.80
  12   4  12   13.30    4.70
  -3  15 -12    8.30    4.30
  12   3  12    9.70    4.30
  -2  14 -12   27.30    4.80
  12   2  12   21.80    4.80
  -1  13 -12    5.00    3.60
  12   1  12    5.40    3.80
   0  12 -12   37.00    4.80
  12   0  12   29.90    4.70
   1  11 -12  133.99    8.00
  12  -1  12  137.99    8.50
   2  10 -12    0.90    2.90
  12  -2  12    1.30    3.10
   3   9 -12   11.20    3.30
  12  -3  12   20.60    4.20
   4   8 -12    3.40    2.80
  12  -4  12    0.60    3.20
   5   7 -12    7.10    2.90
  12  -5  12    0.80    3.20
   6   6 -12   -1.90    2.40
  12  -6  12    2.10    3.40
   7   5 -12   13.50    3.20
  12  -7  12   15.30    4.10
   8   4 -12   10.40    3.00
  12  -8  12   23.50    4.50
  12  -9  12   55.69    6.20
  12 -10  12    3.50    3.50
  12 -11  12   12.90    4.10
  12 -12  12   38.70    5.70
  12 -13  12   13.60    4.70
  12 -14  12   77.09    7.60
  12 -15  12    5.70    4.70
  12 -16  12   20.90    5.50
   4  12  12   17.80    4.50
   5  12  12    5.30    4.20
  12 -17  12    8.90    5.30
  12 -18  12   15.40    5.80
   6  12  12    8.30    4.60
   7  12  12   -0.60    4.40
  12 -19  12    3.10    5.60
   8  12  12   18.50    5.70
  12 -20  12   11.50    6.60
  12 -21  12   11.50    7.00
   9  12  12   11.10    5.90
  10  12  12    4.40    6.20
  12 -22  12    9.60    7.30
  11  12  12   -7.20    6.20
  13  10  12  -11.70    6.60
  -9  22 -12   -0.90    6.10
  13   9  12   -8.90    6.10
  -8  21 -12   -0.90    5.80
  13   8  12    0.10    5.80
  -7  20 -12    0.70    5.40
  13   7  12   -6.60    4.90
  -6  19 -12    0.80    5.00
  13   6  12   -5.50    5.10
  -5  18 -12    4.70    5.20
  13   5  12    0.90    5.00
  -4  17 -12   13.90    5.10
  13   4  12   11.40    4.90
  -3  16 -12    1.60    4.30
  13   3  12    0.20    4.10
  -2  15 -12   73.09    7.00
  13   2  12   63.79    6.70
  -1  14 -12   13.00    4.30
  13   1  12   18.30    4.80
   0  13 -12   17.70    4.20
  13   0  12   17.70    4.70
   1  12 -12   14.10    3.90
  13  -1  12    4.00    3.90
   2  11 -12   -0.80    3.20
  13  -2  12    5.30    3.70
   3  10 -12   -5.40    2.80
  13  -3  12    1.10    3.40
   4   9 -12    6.60    3.10
  13  -4  12    1.00    3.50
   5   8 -12    7.40    2.90
  13  -5  12    6.70    3.60
   6   7 -12   69.49    5.80
  13  -6  12   62.69    6.40
   7   6 -12   71.69    6.10
  13  -7  12   69.49    6.70
   8   5 -12   10.10    3.40
  13  -8  12   11.70    4.20
   9   4 -12    2.00    2.70
  13  -9  12    4.00    3.70
  13 -10  12    3.20    3.70
  13 -11  12   27.90    5.40
  13 -12  12    0.70    3.70
  13 -13  12   14.90    4.90
  13 -14  12   30.50    5.90
  13 -15  12    8.80    5.10
  13 -16  12   -2.70    4.60
  13 -17  12   -0.10    4.90
  13 -18  12   48.50    7.30
   5  13  12   51.89   10.00
  13 -19  12    5.60    5.60
   6  13  12    5.70    4.80
  13 -20  12    1.10    6.20
   7  13  12   -0.80    5.10
  13 -21  12    3.80    6.60
   8  13  12    3.00    5.60
   9  13  12    1.50    6.20
  13 -22  12   -4.00    6.70
  10  13  12  -13.50    6.30
  -8  22 -12    2.50    6.20
  14   8  12    7.10    6.40
  -7  21 -12    2.30    5.60
  14   7  12   -0.70    5.60
  -6  20 -12   -1.50    5.00
  14   6  12   -6.70    5.20
  -5  19 -12   23.60    6.00
  14   5  12    8.50    6.00
  -4  18 -12    6.50    5.40
  14   4  12    5.10    5.20
  -3  17 -12   10.80    5.50
  14   3  12    9.50    5.10
  -2  16 -12   10.20    5.00
  14   2  12    0.40    4.70
  -1  15 -12    7.00    4.50
  14   1  12    4.00    4.40
   0  14 -12   11.80    4.40
  14   0  12    6.10    4.60
   1  13 -12   26.30    5.00
  14  -1  12   24.70    5.30
   2  12 -12   64.79    6.20
  14  -2  12   81.59    7.40
   3  11 -12    2.60    3.60
  14  -3  12   -0.40    3.60
   4  10 -12  106.89    7.50
  14  -4  12  102.29    8.20
   5   9 -12    3.80    3.20
  14  -5  12    4.50    4.10
   6   8 -12    4.60    3.10
  14  -6  12    3.30    4.00
   7   7 -12   39.90    4.60
  14  -7  12   34.10    5.50
   8   6 -12   -0.20    3.10
  14  -8  12    1.30    3.90
   9   5 -12   21.30    3.80
  14  -9  12   22.60    5.20
  14 -10  12    5.20    4.40
  14 -11  12   12.90    4.70
  14 -12  12   17.00    5.10
  14 -13  12   18.40    5.20
  14 -14  12   11.10    5.30
  14 -15  12   26.00    6.10
  14 -16  12   15.90    5.90
  14 -17  12   -0.30    5.20
  14 -18  12   -0.90    5.50
  14 -19  12   14.00    6.30
  14 -20  12   14.50    6.90
   7  14  12   -7.80    5.60
  14 -21  12  -11.30    6.20
  14 -22  12   -5.00    6.60
   8  14  12   -4.30    6.00
  -7  22 -12   11.80    6.90
  15   7  12    8.30    7.00
  -6  21 -12    2.10    6.40
  15   6  12   -4.80    5.50
  -5  20 -12    5.70    5.70
  15   5  12    6.00    5.90
  -4  19 -12   -3.50    4.80
  15   4  12    3.00    5.50
  -3  18 -12    4.30    5.00
  15   3  12   -4.20    4.80
  -2  17 -12  -10.80    4.60
  15   2  12   -9.90    4.70
  -1  16 -12   -3.80    4.30
  15   1  12    0.00    5.00
   0  15 -12   -6.00    4.10
  15   0  12   -5.50    4.30
   1  14 -12   23.50    5.20
  15  -1  12   27.40    5.90
   2  13 -12   17.00    4.70
  15  -2  12   13.70    5.20
   3  12 -12    8.30    4.30
  15  -3  12   12.00    5.00
   4  11 -12   29.80    4.80
  15  -4  12   12.20    4.90
   5  10 -12   15.30    4.20
  15  -5  12   20.90    5.10
   6   9 -12   34.40    4.80
  15  -6  12   39.90    6.10
   7   8 -12   36.90    4.80
  15  -7  12   33.90    5.90
   8   7 -12   16.60    4.00
  15  -8  12   24.40    5.60
   9   6 -12   -0.30    3.00
  15  -9  12    2.50    4.40
  10   5 -12   20.30    4.90
  15 -10  12   24.50    5.70
  15 -11  12   -5.40    4.10
  15 -12  12   16.90    5.30
  15 -13  12   80.49    8.40
  15 -14  12    6.10    5.20
  15 -15  12    1.10    5.00
  15 -16  12   -1.20    4.90
  15 -17  12    2.60    5.50
  15 -18  12   -7.60    5.40
  15 -19  12   -1.70    6.10
  15 -20  12   27.50    7.30
  15 -21  12   -2.00    6.70
  15 -22  12   -0.10    7.00
  -6  22 -12   -1.20    6.90
  16   6  12   -9.20    6.80
  -5  21 -12   -5.40    5.90
  16   5  12   -3.10    6.00
  -4  20 -12   -1.80    5.40
  16   4  12   -4.00    5.70
  -3  19 -12   -5.50    5.10
  16   3  12    9.30    6.00
  -2  18 -12    6.80    5.40
  16   2  12    0.30    5.40
  -1  17 -12   37.00    6.60
  16   1  12   49.40    7.20
   0  16 -12   -6.90    4.60
  16   0  12    4.40    5.30
   1  15 -12  -10.70    4.00
  16  -1  12   -1.60    4.50
   2  14 -12    6.60    4.60
  16  -2  12    9.20    5.30
   3  13 -12   -0.10    4.00
  16  -3  12   -3.10    4.50
   4  12 -12   15.20    4.80
  16  -4  12   18.90    5.40
   5  11 -12    6.30    4.20
  16  -5  12   22.00    5.50
   6  10 -12   20.80    4.60
  16  -6  12   27.50    5.90
   7   9 -12   -2.70    3.80
  16  -7  12   -2.30    4.50
   8   8 -12   -3.60    3.70
  16  -8  12   -2.10    4.50
   9   7 -12   -8.70    3.30
  16  -9  12   -4.80    4.60
  10   6 -12   64.09    5.90
  16 -10  12   66.29    7.70
  16 -11  12   13.00    5.40
  16 -12  12   17.60    5.80
  16 -13  12    1.90    5.10
  16 -14  12    9.00    5.60
  16 -15  12   -1.90    5.20
  16 -16  12   -3.00    5.40
  16 -17  12   11.10    6.30
  16 -18  12    6.80    6.50
  16 -19  12   11.50    6.40
  16 -20  12    4.60    6.90
  16 -21  12   -0.30    6.80
  16 -22  12   -0.30    7.20
  17   5  12   -3.40    6.70
  -4  21 -12    1.20    6.50
  17   4  12   11.50    7.00
  -3  20 -12    7.60    5.90
  17   3  12    2.10    6.60
  -2  19 -12    6.70    5.70
  17   2  12    1.80    6.00
  -1  18 -12   -4.20    5.00
  17   1  12   -8.60    5.20
   0  17 -12   -3.80    5.00
  17   0  12    1.90    5.50
   1  16 -12    7.60    5.20
  17  -1  12   -4.00    5.20
   2  15 -12    1.20    4.60
  17  -2  12    2.30    5.40
   3  14 -12    4.40    4.60
  17  -3  12    2.00    5.30
   4  13 -12   -0.60    4.30
  17  -4  12   -3.00    4.90
   5  12 -12    5.70    4.50
  17  -5  12    6.00    5.10
   6  11 -12   -3.70    3.90
  17  -6  12   -4.80    4.70
   7  10 -12    7.30    4.30
  17  -7  12   11.80    5.50
   8   9 -12   46.30    5.80
  17  -8  12   36.80    7.00
   9   8 -12   -3.70    3.80
  17  -9  12   -0.30    5.20
  10   7 -12   -9.30    3.60
  17 -10  12   -6.00    4.80
  17 -11  12   -4.10    5.10
  17 -12  12   38.10    7.10
  17 -13  12   21.70    6.20
  17 -14  12   18.50    6.40
  17 -15  12    2.30    5.60
  17 -16  12   51.59    8.10
  17 -17  12   -3.00    5.70
  17 -18  12   -3.80    5.80
  17 -19  12    4.70    6.60
  17 -20  12  -10.80    6.20
  17 -21  12    6.20    7.10
  -3  21 -12   -3.90    6.30
  18   3  12   -0.20    6.80
  -2  20 -12   -5.00    5.90
  18   2  12   -7.70    6.30
  -1  19 -12   17.90    6.70
  18   1  12    7.00    6.60
   0  18 -12   19.30    6.30
  18   0  12   24.10    6.90
   1  17 -12    1.70    5.50
  18  -1  12   -6.90    5.40
   2  16 -12    4.00    5.40
  18  -2  12   17.30    6.40
   3  15 -12   -3.80    4.60
  18  -3  12   -3.00    5.50
   4  14 -12   -0.50    4.80
  18  -4  12   -3.80    5.10
   5  13 -12   49.10    6.50
  18  -5  12   49.70    7.50
   6  12 -12   16.60    5.20
  18  -6  12   18.00    6.10
   7  11 -12   -4.00    4.20
  18  -7  12   -4.30    5.20
   8  10 -12   -1.20    4.20
  18  -8  12  -15.60    4.90
   9   9 -12    0.60    4.00
  18  -9  12   -6.90    5.50
  10   8 -12   -4.90    3.90
  18 -10  12    6.00    5.90
  11   7 -12    3.10    4.10
  18 -11  12   -8.20    5.20
  18 -12  12   11.00    6.40
  18 -13  12   17.90    6.40
  18 -14  12    8.70    6.40
  18 -15  12   -4.50    5.90
  18 -16  12   10.00    6.90
  18 -17  12    0.10    6.50
  18 -18  12   20.40    7.60
  18 -19  12   10.40    7.30
  18 -20  12   18.00    7.80
  18 -21  12    4.90    7.50
  -1  20 -12   -1.10    6.00
  19   1  12   -5.50    6.60
   0  19 -12    6.60    6.40
  19   0  12   -3.60    6.30
   1  18 -12    4.70    5.70
  19  -1  12   16.20    7.20
   2  17 -12    8.80    5.90
  19  -2  12   14.20    6.80
   3  16 -12   13.20    6.00
  19  -3  12   17.10    6.90
   4  15 -12    6.00    5.30
  19  -4  12    9.50    6.20
   5  14 -12   16.70    5.60
  19  -5  12    8.40    6.10
   6  13 -12    2.60    5.00
  19  -6  12    1.10    5.60
   7  12 -12   -5.30    4.50
  19  -7  12    2.00    5.80
   8  11 -12   -3.10    4.40
  19  -8  12    1.10    6.00
   9  10 -12   14.00    5.00
  19  -9  12   14.10    6.60
  10   9 -12   -0.40    4.30
  19 -10  12    2.80    5.90
  11   8 -12   27.90    5.40
  19 -11  12   34.80    7.70
  19 -12  12    3.40    6.30
  19 -13  12    3.90    6.50
  19 -14  12   13.90    6.80
  19 -15  12   -5.30    6.20
  19 -16  12   -5.30    6.40
  19 -17  12   -2.00    6.70
  19 -18  12   24.60    7.90
  19 -19  12    8.70    7.50
  19 -20  12    3.90    7.50
   0  20 -12   14.60    8.60
   1  19 -12    0.20    6.00
  20  -1  12  -10.60    6.40
   2  18 -12   -6.90    5.90
  20  -2  12    3.40    6.80
   3  17 -12   -7.60    5.80
  20  -3  12   -7.30    6.30
   4  16 -12   -3.00    5.70
  20  -4  12   -2.10    6.40
   5  15 -12   12.70    6.00
  20  -5  12   15.60    6.80
   6  14 -12   11.90    5.90
  20  -6  12    9.60    6.50
   7  13 -12    1.70    5.30
  20  -7  12    5.00    6.40
   8  12 -12   30.90    6.00
  20  -8  12   33.60    7.90
   9  11 -12   16.50    5.40
  20  -9  12   18.90    7.10
  10  10 -12    7.00    4.90
  20 -10  12   -8.80    6.40
  11   9 -12    4.10    4.60
  20 -11  12   13.90    7.20
  20 -12  12   -4.00    6.30
  20 -13  12   -2.20    6.90
  20 -14  12   -3.40    6.60
  20 -15  12   -4.00    6.70
  20 -16  12   -0.40    6.90
  20 -17  12    4.30    7.30
  20 -18  12   -4.10    6.90
  20 -19  12    6.80    7.90
   3  18 -12  -10.30    6.10
  21  -3  12    0.60    6.90
   4  17 -12   -9.40    5.80
  21  -4  12    4.00    7.20
   5  16 -12   -5.40    5.80
  21  -5  12    6.60    7.00
   6  15 -12    0.70    6.00
  21  -6  12    4.10    6.90
   7  14 -12   -4.80    5.60
  21  -7  12  -16.00    6.40
   8  13 -12   -0.90    5.60
  21  -8  12    3.50    7.10
   9  12 -12    1.60    5.40
  21  -9  12    9.10    7.40
  10  11 -12   -1.20    5.40
  21 -10  12   -0.60    7.10
  11  10 -12   19.80    5.80
  21 -11  12   27.10    8.50
  12   9 -12    6.10    5.90
  21 -12  12   30.00    8.30
  21 -13  12   -3.50    7.30
  21 -14  12   -7.00    6.60
  21 -15  12    1.00    7.20
  21 -16  12    7.20    7.70
  21 -17  12    3.80    7.70
  21 -18  12    6.60    7.70
   5  17 -12   -3.60    6.40
   6  16 -12   -4.80    6.40
  22  -6  12    5.60    7.70
   7  15 -12   -4.00    6.10
  22  -7  12    8.30    7.20
   8  14 -12   -1.20    5.90
  22  -8  12    5.60    7.70
   9  13 -12   -5.80    5.60
  22  -9  12   -3.80    7.10
  10  12 -12    3.30    6.00
  22 -10  12    3.10    7.70
  11  11 -12  -13.70    5.20
  22 -11  12   11.90    8.30
  12  10 -12   -7.90    5.60
  22 -12  12   -3.60    7.30
  22 -13  12    3.30    7.60
  22 -14  12   -0.60    7.80
  22 -15  12   22.70    8.80
  22 -16  12    3.30    7.90
  10  13 -12   -0.30    6.00
  11  12 -12    2.00    5.90
  23 -11  12  -14.50   13.50
  12  11 -12   16.20    7.00
  23 -12  12    8.40   14.70
   0   0  13   86.79    4.40
   1   0  13  143.49    6.00
   0  -1  13  143.89    5.90
  -1   1  13  138.89    5.50
   0   1  13  145.99    5.80
  -1   0  13  138.79    5.60
   1  -1  13  144.79    6.10
  -2   1  13   26.60    2.40
   1   1  13   26.50    2.80
   1  -2  13   23.80    2.70
   1  -3  13   60.99    4.30
   2   1  13   66.49    4.30
   2   0  13   15.30    2.40
   0  -2  13   14.50    2.30
  -1  -1  13   24.20    2.60
   2  -1  13   22.60    2.80
  -1   2  13   26.30    2.40
   2  -2  13   13.60    2.50
   0   2  13   14.00    2.20
  -2   0  13   15.60    2.10
   2  -3  13  495.75   15.40
   1   2  13  513.35   14.90
   2   2  13  152.88    6.40
   2  -4  13  152.68    6.90
   2  -5  13  431.16   13.90
   3   2  13  429.26   13.30
   3   1  13  151.68    6.50
   1  -4  13  148.09    6.70
   0  -3  13  131.19    5.90
   3   0  13  129.49    6.10
   3  -1  13  526.55   16.20
  -1  -2  13  533.05   15.60
   3  -2  13   61.79    4.50
  -2  -1  13   58.39    3.70
   0   3  13  117.49    5.20
   3  -3  13  116.39    5.90
  -3   0  13  124.39    5.00
   3  -4  13  648.44   19.20
   1   3  13  632.44   18.20
   3  -5  13   27.10    3.30
   2   3  13   28.40    2.90
   3  -6  13  122.49    6.40
   3   3  13  120.89    5.70
   3  -7  13   28.40    3.70
   4   3  13   32.80    3.40
   4   2  13  215.48    8.30
   2  -6  13  224.68    8.90
   1  -5  13  487.05   15.00
   4   1  13  458.65   14.60
   0  -4  13   28.80    3.20
   4   0  13   29.20    3.30
   4  -1  13  676.43   19.30
  -1  -3  13  618.54   18.60
  -2  -2  13  155.28    6.30
   4  -2  13  165.68    7.30
  -3  -1  13  148.79    6.00
   4  -3  13  163.58    7.20
   0   4  13   30.00    2.80
   4  -4  13   21.00    3.10
   1   4  13   31.60    2.80
   4  -5  13   26.60    3.30
   4  -6  13   40.30    4.00
   2   4  13   44.40    3.60
   4  -7  13  128.99    7.00
   3   4  13  134.49    6.10
   4  -8  13    1.20    2.40
   4   4  13    1.50    2.10
   5   4  13  355.36   12.10
   4  -9  13  360.06   13.20
   5   3  13   20.70    3.00
   3  -8  13   24.00    3.50
   5   2  13   36.80    3.70
   2  -7  13   47.80    4.40
   5   1  13   56.89    4.70
   1  -6  13   69.49    5.00
   5   0  13  271.27    9.80
   0  -5  13  259.97    9.60
   5  -1  13   33.60    3.60
  -1  -4  13   26.90    3.00
   5  -2  13   22.80    3.10
  -2  -3  13   26.90    3.00
   3   2 -13  427.76   12.80
   5  -3  13  429.56   14.30
   5  -4  13  464.85   15.20
   5  -5  13  278.37   10.60
   1   5  13   12.20    2.20
   5  -6  13   15.70    3.00
   5  -7  13  669.13   20.50
   2   5  13  660.33   19.00
   5  -8  13   45.60    4.70
   3   5  13   51.49    4.20
   5  -9  13   37.50    4.40
   4   5  13   38.90    3.70
   5   5  13  132.29    7.10
   5 -10  13  153.98    8.40
   5 -11  13   23.40    4.20
   6   5  13   26.80    3.70
   6   4  13  398.86   13.40
   4 -10  13  390.86   14.50
   6   3  13  192.58    8.40
   3  -9  13  198.08    9.20
   2  -8  13   -0.60    2.30
   6   2  13   -1.20    2.20
   1  -7  13   14.30    2.90
   6   1  13   23.70    3.20
   6   0  13   45.10    4.10
   0  -6  13   34.30    3.70
  -1  -5  13   10.10    2.50
   6  -1  13   11.80    2.70
  -2  -4  13   43.60    3.70
   6  -2  13   47.30    4.50
   3   3 -13  116.29    5.30
   6  -3  13  120.59    6.70
   4   2 -13  214.18    7.60
   6  -4  13  216.78    9.20
   6  -5  13   67.59    5.40
   6  -6  13   53.29    4.90
   6  -7  13  165.38    8.10
   2   6  13    3.40    2.00
   6  -8  13    3.50    2.60
   3   6  13  507.65   15.70
   6  -9  13  525.15   17.50
   6 -10  13  224.78   10.40
   4   6  13  222.28    8.90
   6 -11  13   41.10    5.10
   5   6  13   45.00    4.40
   6 -12  13   41.90    5.20
   6   6  13   44.80    4.60
   7   6  13  213.38    9.90
   6 -13  13  229.68   11.30
   5 -12  13   -0.70    3.20
   7   5  13    3.30    3.00
   7   4  13  138.29    7.50
   4 -11  13  146.09    8.70
   3 -10  13   67.79    5.90
   7   3  13   87.99    6.00
   7   2  13   34.90    4.00
   2  -9  13   38.70    4.40
   7   1  13   57.39    4.80
   1  -8  13   50.39    4.60
   7   0  13   35.80    4.00
   0  -7  13   27.70    3.60
  -1  -6  13  161.58    7.50
   7  -1  13  162.98    7.70
   2   5 -13  646.14   18.90
   7  -2  13  650.53   19.90
   3   4 -13  138.79    6.00
   7  -3  13  107.79    6.80
   4   3 -13   32.60    3.10
   7  -4  13   29.60    3.90
   7  -5  13   44.40    4.60
   7  -6  13   17.40    3.20
   7  -7  13   30.00    4.00
   7  -8  13    7.40    3.10
   7  -9  13  607.24   20.50
   2   7  13  672.93   19.20
   3   7  13  171.48    7.60
   7 -10  13  175.08    9.30
   7 -11  13   18.30    4.10
   4   7  13   17.40    3.30
   5   7  13    2.10    2.80
   7 -12  13    0.70    3.20
   6   7  13  235.58   10.40
   7 -13  13  245.58   11.60
   7   7  13    4.90    3.40
   7 -14  13    2.10    3.70
   7 -15  13  127.29   10.40
   8   7  13  147.79    9.40
   8   6  13   -0.40    3.30
   6 -14  13   -0.30    3.50
   5 -13  13   -1.40    3.70
   8   5  13    6.00    3.40
   8   4  13   76.99    6.70
   4 -12  13   95.89    7.60
   8   3  13  514.55   16.90
   3 -11  13  522.15   17.80
   8   2  13  185.18    8.80
   2 -10  13  184.48    9.30
   8   1  13  224.58    9.80
   1  -9  13  256.97   10.30
   0  -8  13  353.86   13.00
   8   0  13  369.46   12.90
   1   7 -13    3.30    2.30
   8  -1  13    3.50    2.70
   2   6 -13    1.60    2.10
   8  -2  13    5.90    2.60
   3   5 -13   53.19    4.20
   8  -3  13   52.59    5.00
   4   4 -13    0.40    2.00
   8  -4  13    2.50    2.70
   5   3 -13   16.50    2.60
   8  -5  13   16.80    3.50
   8  -6  13    1.30    2.60
   8  -7  13   51.19    5.10
   8  -8  13  321.77   12.60
   8  -9  13   47.70    5.30
   8 -10  13  135.19    8.40
   3   8  13   45.60    4.20
   8 -11  13   42.00    5.30
   8 -12  13    6.50    3.60
   4   8  13    6.20    2.90
   5   8  13    3.60    3.00
   8 -13  13    6.50    3.90
   8 -14  13   48.90    6.10
   6   8  13   53.39    5.20
   7   8  13  437.96   15.50
   8 -15  13  395.46   16.70
   8 -16  13   66.59    7.70
   8   8  13   72.29    6.60
   9   8  13    5.40    4.30
   8 -17  13  -12.60    4.50
   7 -16  13   -5.60    4.80
   9   7  13    9.40    4.50
   6 -15  13   26.30    5.80
   9   6  13   43.10    5.60
   9   5  13    2.20    3.70
   5 -14  13    4.00    4.00
   4 -13  13    4.10    3.80
   9   4  13   -0.60    3.10
   3 -12  13   13.90    3.90
   9   3  13    7.70    3.40
   9   2  13  279.77   11.40
   2 -11  13  268.97   11.80
   1 -10  13    9.40    3.60
   9   1  13   16.30    3.60
   0   9 -13  117.49    7.00
   9   0  13  105.29    7.00
   1   8 -13   53.49    4.60
   9  -1  13   46.50    4.90
   2   7 -13  615.04   19.00
   9  -2  13  639.54   19.80
   3   6 -13  508.75   16.00
   9  -3  13  515.25   17.10
   4   5 -13   34.80    3.60
   9  -4  13   36.70    4.60
   5   4 -13  368.76   11.90
   9  -5  13  354.46   13.60
   6   3 -13  206.38   10.30
   9  -6  13  209.68   10.00
   9  -7  13   35.90    4.80
   9  -8  13  240.88   11.10
   9  -9  13  105.19    7.40
   9 -10  13   10.30    3.80
   9 -11  13   17.70    4.30
   9 -12  13   -5.90    3.20
   9 -13  13   44.90    5.80
   4   9  13   42.00    4.60
   9 -14  13   -2.60    3.70
   5   9  13    3.90    3.30
   6   9  13  248.58   11.30
   9 -15  13  254.47   12.80
   9 -16  13   81.79    8.10
   7   9  13   65.59    6.40
   9 -17  13    6.40    5.30
   8   9  13    4.30    4.40
   9 -18  13    6.40    5.40
   9   9  13    2.90    4.60
  10   9  13    0.90    5.00
   9 -19  13   -3.30    5.40
   8 -18  13    6.60    5.60
  10   8  13    7.50    4.90
   7 -17  13   15.90    5.60
  10   7  13   14.50    5.10
   6 -16  13  117.79   10.10
  10   6  13  146.09    9.80
   5 -15  13  106.69    9.40
  10   5  13  121.39    8.90
   4 -14  13   13.00    4.50
  10   4  13   15.50    4.40
   3 -13  13   -1.60    3.40
  10   3  13    4.30    3.50
  -2  12 -13    6.40    3.40
   2 -12  13    1.80    3.40
  10   2  13    1.90    3.30
  -1  11 -13   37.20    4.70
  10   1  13   29.10    4.50
   0  10 -13    5.00    2.90
  10   0  13    2.40    3.10
   1   9 -13   12.40    3.20
  10  -1  13   12.60    3.50
   2   8 -13  106.99    6.80
  10  -2  13  127.29    7.70
   3   7 -13  152.98    7.70
  10  -3  13  165.58    8.70
   4   6 -13  208.18    8.90
  10  -4  13  233.28   10.40
   5   5 -13  139.09    6.90
  10  -5  13  140.99    8.60
   6   4 -13  391.16   13.00
  10  -6  13  429.46   15.30
  10  -7  13   86.89    7.40
  10  -8  13  177.98    9.70
  10  -9  13   18.40    4.30
  10 -10  13    6.60    3.80
  10 -11  13   86.89    7.50
  10 -12  13   -0.50    3.70
  10 -13  13   32.80    5.50
  10 -14  13  262.97   12.70
  10 -15  13    4.10    5.00
   5  10  13   13.40    3.90
  10 -16  13   24.00    5.90
   6  10  13   26.60    4.80
   7  10  13    5.80    4.20
  10 -17  13    5.10    5.30
   8  10  13   18.20    5.20
  10 -18  13   15.90    6.20
   9  10  13   -3.80    4.70
  10 -19  13    2.50    5.80
  10 -20  13   43.10    8.00
  10  10  13   38.30    6.80
  10 -21  13  128.59   11.90
  11  10  13  178.28   12.60
  11   9  13   22.90    6.20
   9 -20  13   21.40    7.10
   8 -19  13   48.10    7.70
  11   8  13   47.30    6.80
   7 -18  13    8.50    5.50
  11   7  13   12.20    5.20
  11   6  13    8.20    4.80
   6 -17  13   -1.10    5.00
  11   5  13    1.60    4.00
   5 -16  13   -9.20    4.70
  -4  15 -13    1.20    4.00
  11   4  13    2.70    4.00
   4 -15  13   -0.30    4.20
  -3  14 -13    6.80    4.00
  11   3  13   -4.80    3.40
  -2  13 -13    2.90    3.60
  11   2  13   -0.30    3.50
  -1  12 -13   29.10    4.50
  11   1  13   32.10    4.90
   0  11 -13  240.88   10.70
  11   0  13  228.48   10.90
   1  10 -13   91.19    6.90
  11  -1  13  103.69    7.80
   2   9 -13   15.70    3.40
  11  -2  13   20.60    4.10
   3   8 -13   38.10    4.30
  11  -3  13   46.20    5.30
   4   7 -13   15.60    3.40
  11  -4  13   23.00    4.20
   5   6 -13   38.40    4.20
  11  -5  13   47.30    5.40
   6   5 -13   15.30    3.20
  11  -6  13   24.30    4.50
  11  -7  13  155.28    9.20
  11  -8  13  561.04   19.60
  11  -9  13  283.87   12.80
  11 -10  13   30.90    5.00
  11 -11  13  234.48   11.70
  11 -12  13  117.09    9.20
  11 -13  13   41.90    6.00
  11 -14  13    6.30    4.80
  11 -15  13   47.20    6.80
  11 -16  13    4.90    4.90
   6  11  13    0.90    4.10
  11 -17  13    1.50    4.80
  11 -18  13    2.50    5.50
   7  11  13    2.40    4.50
   8  11  13    6.70    5.20
  11 -19  13   16.90    6.60
   9  11  13   15.60    6.00
  11 -20  13   18.70    7.00
  10  11  13   33.70    7.00
  11 -21  13   25.80    8.20
  11  11  13    6.00    6.80
  11 -22  13   16.80    7.90
 -10  22 -13   23.10    7.00
  10 -22  13   11.20    7.80
  12  10  13   15.70    7.00
  -9  21 -13   72.19    8.70
  12   9  13   67.99    8.30
  -8  20 -13    9.40    5.60
  12   8  13   -0.90    5.20
  -7  19 -13   19.60    6.00
  12   7  13    6.70    5.50
  -6  18 -13    8.40    5.10
  12   6  13   15.40    5.70
  -5  17 -13  232.08   12.90
  12   5  13  229.28   12.50
  -4  16 -13  195.28   11.30
  12   4  13  187.48   10.70
  -3  15 -13   19.40    5.10
  12   3  13   13.50    4.70
  -2  14 -13  104.39    9.00
  12   2  13  118.79    9.10
  -1  13 -13   10.70    4.10
  12   1  13   10.00    4.20
   0  12 -13   52.09    5.70
  12   0  13   56.49    6.00
   1  11 -13  100.59    7.60
  12  -1  13  109.29    8.50
   2  10 -13    2.40    3.20
  12  -2  13    3.80    3.60
   3   9 -13   -0.40    2.90
  12  -3  13   -2.20    3.20
   4   8 -13    2.20    3.00
  12  -4  13    3.50    3.40
   5   7 -13   -5.40    2.60
  12  -5  13   -3.30    3.10
   6   6 -13   48.60    4.60
  12  -6  13   48.10    5.70
   7   5 -13    4.90    2.80
  12  -7  13    4.80    3.70
  12  -8  13  103.49    8.60
  12  -9  13   11.20    4.20
  12 -10  13    3.80    3.90
  12 -11  13   29.80    5.20
  12 -12  13   55.99    6.90
  12 -13  13  132.79   10.30
  12 -14  13  232.28   12.60
  12 -15  13   43.10    6.70
  12 -16  13    7.50    5.40
  12 -17  13   50.49    7.30
  12 -18  13    1.70    5.50
   7  12  13    0.80    6.10
  12 -19  13   -0.80    6.00
   8  12  13   37.50    6.60
  12 -20  13   30.20    7.80
  12 -21  13   24.10    8.00
   9  12  13   27.90    6.80
  10  12  13    5.50    6.50
  12 -22  13   -9.50    7.40
  -9  22 -13    5.90    6.70
  13   9  13   -8.50    6.00
  -8  21 -13    4.30    6.40
  13   8  13    4.80    6.30
  -7  20 -13    3.30    5.60
  13   7  13    5.70    5.80
  -6  19 -13    7.80    5.50
  13   6  13   11.30    5.70
  -5  18 -13    1.60    4.90
  13   5  13    2.60    5.20
  -4  17 -13  199.18   12.40
  13   4  13  195.98   11.90
  -3  16 -13   75.59    7.60
  13   3  13   68.59    7.20
  -2  15 -13  110.59    9.30
  13   2  13   71.89    7.20
  -1  14 -13   31.70    5.50
  13   1  13   29.20    5.60
   0  13 -13  119.79    8.90
  13   0  13  120.19    9.50
   1  12 -13  138.69    8.90
  13  -1  13  125.09    9.10
   2  11 -13   37.60    5.20
  13  -2  13   45.60    5.70
   3  10 -13   30.30    4.60
  13  -3  13   31.30    5.10
   4   9 -13   43.70    4.80
  13  -4  13   40.00    5.50
   5   8 -13    6.90    3.20
  13  -5  13    5.40    4.00
   6   7 -13  227.68   10.00
  13  -6  13  253.17   11.90
   7   6 -13  198.78    9.40
  13  -7  13  243.88   12.00
  13  -8  13   10.80    4.40
  13  -9  13   12.40    4.60
  13 -10  13    5.50    4.10
  13 -11  13   -0.20    4.00
  13 -12  13    7.50    4.50
  13 -13  13   99.89    8.80
  13 -14  13  221.78   12.70
  13 -15  13   36.30    6.70
  13 -16  13    0.10    5.00
  13 -17  13   36.10    6.80
  13 -18  13   15.50    5.90
  13 -19  13   33.40    7.50
  13 -20  13   22.90    7.70
  13 -21  13    9.80    7.40
  13 -22  13   -3.40    7.30
   9  13  13   -4.70    7.30
  -8  22 -13   24.70    9.80
  14   8  13   14.70    7.30
  -7  21 -13   15.10    6.80
  14   7  13   12.20    6.60
  -6  20 -13    8.70    6.00
  14   6  13    8.20    6.10
  -5  19 -13   29.70    6.60
  14   5  13   33.70    6.60
  -4  18 -13    7.30    5.40
  14   4  13    1.80    5.40
  -3  17 -13   16.40    6.10
  14   3  13   36.90    6.40
  -2  16 -13    2.20    4.80
  14   2  13    0.00    4.70
  -1  15 -13    6.50    4.80
  14   1  13   10.10    5.00
   0  14 -13   16.70    4.90
  14   0  13   14.30    5.10
   1  13 -13  192.58   10.90
  14  -1  13  209.58   11.80
   2  12 -13  258.27   12.30
  14  -2  13  269.97   13.00
   3  11 -13    6.10    3.90
  14  -3  13    6.40    4.40
   4  10 -13  286.87   12.40
  14  -4  13  306.17   13.40
   5   9 -13    5.00    3.40
  14  -5  13   10.10    4.30
   6   8 -13   55.49    5.30
  14  -6  13   63.29    7.00
   7   7 -13    3.40    3.20
  14  -7  13    6.60    4.60
   8   6 -13   -0.10    3.20
  14  -8  13   -3.00    3.90
  14  -9  13   -4.40    4.20
  14 -10  13   11.20    4.90
  14 -11  13   -3.40    4.30
  14 -12  13   92.39    8.40
  14 -13  13   28.00    6.00
  14 -14  13   13.70    5.70
  14 -15  13   -6.10    5.00
  14 -16  13   30.50    6.80
  14 -17  13   13.00    5.90
  14 -18  13   -2.20    5.70
  14 -19  13  108.79   10.40
  14 -20  13  125.89   11.50
  14 -21  13   -6.20    7.00
  14 -22  13   -4.70   12.30
  -6  21 -13   -4.80    6.10
  15   6  13   -1.40    6.40
  -5  20 -13   -5.50    5.50
  15   5  13   -1.90    5.70
  -4  19 -13    2.60    5.60
  15   4  13    4.60    5.80
  -3  18 -13   -0.50    4.90
  15   3  13    0.50    5.40
  -2  17 -13    3.10    5.40
  15   2  13   10.10    5.40
  -1  16 -13   -4.70    4.80
  15   1  13    9.60    5.30
   0  15 -13   -3.50    4.30
  15   0  13   -8.40    4.50
   1  14 -13   -3.20    4.40
  15  -1  13    1.20    4.80
   2  13 -13   32.70    5.60
  15  -2  13   35.60    6.20
   3  12 -13   46.10    6.00
  15  -3  13   51.89    6.70
   4  11 -13   39.80    5.50
  15  -4  13   39.80    6.10
   5  10 -13   16.30    4.50
  15  -5  13   15.60    5.20
   6   9 -13  283.17   12.10
  15  -6  13  282.37   14.30
   7   8 -13  457.15   15.80
  15  -7  13  407.86   17.70
   8   7 -13  137.79    8.80
  15  -8  13  127.49   11.10
  15  -9  13   39.70    6.80
  15 -10  13  122.19   10.50
  15 -11  13    0.50    4.70
  15 -12  13   20.60    6.00
  15 -13  13   98.99    9.40
  15 -14  13   13.50    5.80
  15 -15  13   -6.90    5.20
  15 -16  13    7.60    5.90
  15 -17  13   10.60    6.20
  15 -18  13   -0.30    5.70
  15 -19  13   27.30    7.60
  15 -20  13   55.49    9.20
  15 -21  13    2.10    7.10
  -5  21 -13    2.70    6.70
  16   5  13    9.40    6.70
  -4  20 -13    0.80    5.80
  16   4  13   -2.60    6.00
  -3  19 -13   -8.20    5.40
  16   3  13   -6.90    5.20
  -2  18 -13   14.30    5.80
  16   2  13   15.80    6.20
  -1  17 -13   42.80    7.20
  16   1  13   57.99    7.80
   0  16 -13   -8.60    4.70
  16   0  13   -3.30    5.00
   1  15 -13   13.10    5.00
  16  -1  13    2.50    5.40
   2  14 -13   20.30    5.40
  16  -2  13   25.80    6.00
   3  13 -13    3.40    4.70
  16  -3  13    8.20    5.00
   4  12 -13   -0.10    4.60
  16  -4  13   14.40    5.20
   5  11 -13    0.10    4.10
  16  -5  13    8.10    5.00
   6  10 -13   20.40    4.90
  16  -6  13   26.40    6.00
   7   9 -13   85.49    7.10
  16  -7  13   94.29    8.70
   8   8 -13   69.09    6.50
  16  -8  13   75.69    8.30
   9   7 -13    3.90    4.30
  16  -9  13   11.80    5.40
  16 -10  13  179.98   12.10
  16 -11  13   -0.30    5.00
  16 -12  13  181.88   12.30
  16 -13  13   76.49    8.50
  16 -14  13    2.20    5.70
  16 -15  13    9.20    6.10
  16 -16  13    1.80    6.10
  16 -17  13   13.30    6.40
  16 -18  13   35.00    7.70
  16 -19  13   32.10    8.00
  16 -20  13  -10.80    6.50
  16 -21  13   -5.70    7.20
  -4  21 -13   14.20    9.00
  17   4  13   19.80    7.50
  -3  20 -13   10.90    6.80
  17   3  13   15.80    7.20
  -2  19 -13    9.60    6.00
  17   2  13    5.80    6.50
  -1  18 -13    8.40    5.70
  17   1  13   16.10    6.50
   0  17 -13    8.50    5.70
  17   0  13   15.60    6.20
   1  16 -13   -3.80    5.10
  17  -1  13    0.30    5.80
   2  15 -13    5.20    5.00
  17  -2  13    7.60    5.70
   3  14 -13   16.90    5.30
  17  -3  13    5.90    5.50
   4  13 -13   32.10    5.80
  17  -4  13   33.80    6.70
   5  12 -13   49.00    6.40
  17  -5  13   46.90    7.20
   6  11 -13   -0.60    4.20
  17  -6  13    5.20    5.40
   7  10 -13    1.60    4.20
  17  -7  13   11.10    5.80
   8   9 -13    7.90    4.70
  17  -8  13    7.90    5.90
   9   8 -13  -10.20    3.70
  17  -9  13   -0.20    5.40
  17 -10  13   17.70    6.20
  17 -11  13    6.40    5.90
  17 -12  13  209.88   13.50
  17 -13  13  212.28   14.30
  17 -14  13   26.90    7.00
  17 -15  13    9.20    6.40
  17 -16  13   58.09    8.60
  17 -17  13   11.70    6.70
  17 -18  13   44.40    8.30
  17 -19  13   20.50    7.80
  17 -20  13   12.70    7.90
  -2  20 -13    8.00    6.10
  18   2  13   -0.10    6.80
  -1  19 -13   84.99    9.30
  18   1  13   97.49   10.20
   0  18 -13  196.98   13.50
  18   0  13  189.98   13.80
   1  17 -13   33.20    7.00
  18  -1  13   35.50    7.50
   2  16 -13   20.50    5.90
  18  -2  13   21.20    6.60
   3  15 -13    6.60    5.00
  18  -3  13    7.50    5.90
   4  14 -13   -3.80    4.50
  18  -4  13    8.80    5.80
   5  13 -13    6.40    4.70
  18  -5  13    8.60    5.90
   6  12 -13   -0.30    4.60
  18  -6  13    4.60    5.60
   7  11 -13   -6.40    4.40
  18  -7  13   -2.40    5.60
   8  10 -13    8.70    4.80
  18  -8  13   13.10    6.60
   9   9 -13    1.80    4.40
  18  -9  13    0.30    6.00
  18 -10  13   10.20    6.50
  18 -11  13   11.40    6.50
  18 -12  13   14.70    6.60
  18 -13  13   17.20    6.60
  18 -14  13    4.70    6.40
  18 -15  13    7.00    6.80
  18 -16  13   35.10    7.90
  18 -17  13    1.30    6.70
  18 -18  13  180.68   14.90
  18 -19  13   53.49    9.20
  18 -20  13   -6.40    7.10
   0  19 -13   25.20    7.10
  19   0  13   44.50    8.40
   1  18 -13   46.40    7.70
  19  -1  13   48.00    8.60
   2  17 -13   14.50    6.20
  19  -2  13   23.40    7.30
   3  16 -13   39.40    6.90
  19  -3  13   38.80    7.90
   4  15 -13   28.30    6.50
  19  -4  13   42.90    7.50
   5  14 -13  136.29   10.90
  19  -5  13  111.59   10.20
   6  13 -13   45.00    6.60
  19  -6  13   45.90    7.90
   7  12 -13    4.60    4.90
  19  -7  13    4.20    6.20
   8  11 -13   11.70    5.20
  19  -8  13   12.60    6.80
   9  10 -13   -7.30    4.40
  19  -9  13   -2.90    6.20
  10   9 -13   -0.80    4.70
  19 -10  13   -1.90    6.20
  19 -11  13   40.90    8.30
  19 -12  13    6.30    7.20
  19 -13  13   11.40    7.20
  19 -14  13   17.40    7.40
  19 -15  13    5.30    6.90
  19 -16  13   -1.90    6.80
  19 -17  13    4.10    7.20
  19 -18  13   96.99   11.00
  19 -19  13   40.20    9.20
   2  18 -13  -13.90    5.70
  20  -2  13   -8.70    6.70
   3  17 -13   10.70    6.70
  20  -3  13    2.00    6.70
   4  16 -13   -0.60    5.70
  20  -4  13    3.60    6.50
   5  15 -13   64.59    7.90
  20  -5  13   68.69    9.20
   6  14 -13  158.28   12.20
  20  -6  13  179.58   13.90
   7  13 -13   16.40    6.30
  20  -7  13   27.60    7.70
   8  12 -13   49.50    7.20
  20  -8  13   42.10    8.40
   9  11 -13   12.60    5.50
  20  -9  13   15.60    7.60
  10  10 -13   41.70    6.50
  20 -10  13   41.50    8.50
  20 -11  13   19.90    7.90
  20 -12  13   -1.00    7.00
  20 -13  13  -15.10    6.70
  20 -14  13    6.80    7.40
  20 -15  13    3.90    7.40
  20 -16  13    9.40    7.60
  20 -17  13   10.50    7.70
  20 -18  13    0.70    7.70
   4  17 -13   -8.00    6.40
  21  -4  13    5.50   12.00
   5  16 -13    0.50    6.20
  21  -5  13    7.40    7.10
   6  15 -13   -5.80    5.70
  21  -6  13   -7.10    6.30
   7  14 -13   -2.50    5.90
  21  -7  13    2.10    7.10
   8  13 -13   -1.60    5.60
  21  -8  13    5.30    7.50
   9  12 -13   27.10    6.70
  21  -9  13   49.90    9.50
  10  11 -13   40.90    7.20
  21 -10  13   41.80    9.20
  21 -11  13  133.59   12.30
  21 -12  13   79.59   10.70
  21 -13  13    0.10    7.90
  21 -14  13   24.60    8.10
  21 -15  13   -1.30    7.60
  21 -16  13    5.80    8.10
  21 -17  13   16.70   10.70
   8  14 -13   -2.80    6.20
   9  13 -13   -5.60    5.90
  22  -9  13    0.70    8.60
  10  12 -13   -2.10    5.90
  22 -10  13    1.70    8.30
  11  11 -13   12.80    9.80
  22 -11  13   13.50    8.50
  22 -12  13   17.80    8.60
  22 -13  13    8.80    8.70
  22 -14  13   28.60   11.40
   0   0  14   17.90    2.50
   1   0  14  319.07   10.60
   0  -1  14  321.37   10.50
  -1   0  14  317.27   10.00
   0   1  14  296.67   10.00
   1  -1  14  313.07   10.40
   1  -2  14   95.79    5.10
   1   1  14   80.89    4.90
   2   1  14  101.19    5.50
   1  -3  14   94.09    5.40
   0  -2  14   12.20    2.40
   2   0  14    6.30    2.20
  -1  -1  14   89.99    4.70
   2  -1  14   86.99    5.10
   2  -2  14    5.40    2.20
   2  -3  14  907.11   25.70
   1   2  14  906.41   25.10
   2   2  14  131.79    6.20
   2  -4  14  129.69    6.50
   3   2  14  485.25   15.30
   2  -5  14  518.45   16.00
   3   1  14  400.06   13.30
   1  -4  14  431.56   13.60
   3   0  14  448.56   14.30
   0  -3  14  445.56   14.00
   3  -1  14  892.21   25.60
  -1  -2  14  909.91   25.00
   3  -2  14   97.59    5.70
  -2  -1  14   93.49    4.80
   3  -3  14  426.06   13.90
   3  -4  14  731.03   21.60
   2   3  14   32.20    3.30
   3  -5  14   31.20    3.70
   3  -6  14  109.69    6.40
   3   3  14  115.99    5.90
   4   3  14   71.79    5.00
   3  -7  14   67.69    5.60
   4   2  14  338.97   11.40
   2  -6  14  329.87   11.90
   4   1  14 1014.20   28.10
   1  -5  14  988.00   28.20
   4   0  14   91.69    5.70
   0  -4  14   81.99    5.30
   4  -1  14  711.33   21.20
  -1  -3  14  719.83   20.60
   4  -2  14  135.79    6.80
  -2  -2  14  128.39    5.90
   4  -3  14  392.86   13.30
   4  -4  14   93.59    5.90
   4  -5  14   61.39    5.10
   4  -6  14  197.68    8.80
   2   4  14  192.18    7.60
   3   4  14  126.39    6.20
   4  -7  14  139.59    7.40
   4  -8  14   58.29    5.20
   4   4  14   64.69    5.00
   4  -9  14  625.64   20.20
   5   4  14  635.94   19.10
   5   3  14   42.70    4.10
   3  -8  14   45.10    4.60
   2  -7  14   93.99    6.00
   5   2  14   75.79    5.40
   5   1  14  327.27   11.20
   1  -6  14  303.87   11.40
   0  -5  14  334.07   11.40
   5   0  14  311.17   11.40
  -1  -4  14   64.89    4.70
   5  -1  14   69.79    5.30
  -2  -3  14   30.90    3.20
   5  -2  14   37.30    4.00
   5  -3  14  504.55   16.40
   5  -4  14  952.90   27.60
   5  -5  14  342.77   12.50
   5  -6  14  148.49    7.70
   5  -7  14  843.02   25.10
   5  -8  14   58.39    5.40
   3   5  14   45.60    4.00
   5  -9  14   40.30    4.90
   4   5  14   44.60    4.20
   5 -10  14  114.09    8.00
   5   5  14  118.49    6.70
   6   5  14   29.20    4.00
   5 -11  14   23.60    4.40
   6   4  14  301.57   11.40
   4 -10  14  306.67   12.50
   3  -9  14  180.78    9.10
   6   3  14  177.98    8.30
   6   2  14    7.70    2.80
   2  -8  14   10.70    3.00
   1  -7  14   26.10    3.60
   6   1  14   25.60    3.50
   6   0  14    9.80    2.90
   0  -6  14    6.30    2.60
   6  -1  14  142.89    7.30
  -1  -5  14  141.49    6.90
   6  -2  14  187.78    8.60
  -2  -4  14  200.98    8.00
   3   3 -14  105.49    5.20
   6  -3  14  104.69    6.60
   6  -4  14  341.07   12.50
   6  -5  14  313.77   11.90
   6  -6  14   11.30    3.10
   6  -7  14  180.28    8.80
   6  -8  14   16.20    3.60
   6  -9  14  646.84   20.80
   4   6  14  401.66   13.10
   6 -10  14  374.16   14.70
   5   6  14    4.50    2.80
   6 -11  14   -5.20    2.80
   6   6  14  145.59    8.00
   6 -12  14  138.59    9.00
   7   6  14  294.07   12.00
   6 -13  14  289.87   13.20
   5 -12  14    8.50    3.90
   7   5  14   -1.30    3.10
   7   4  14   98.79    6.80
   4 -11  14   94.69    7.70
   3 -10  14  201.08    9.90
   7   3  14  209.38    9.20
   2  -9  14   42.90    4.80
   7   2  14   42.50    4.50
   1  -8  14  218.08    9.60
   7   1  14  237.98    9.70
   0  -7  14  114.89    6.80
   7   0  14  121.99    6.90
   7  -1  14  189.08    8.70
  -1  -6  14  183.48    8.30
   2   5 -14  849.41   24.20
   7  -2  14  859.01   25.40
   3   4 -14  140.39    6.40
   7  -3  14  130.19    7.50
   7  -4  14   61.99    5.30
   7  -5  14   84.69    6.40
   7  -6  14   24.10    3.90
   7  -7  14  126.09    7.50
   7  -8  14   18.30    3.90
   7  -9  14  682.03   22.00
   7 -10  14  535.95   18.60
   7 -11  14   40.70    5.20
   4   7  14   49.40    6.50
   7 -12  14   26.70    4.70
   5   7  14   19.70    3.80
   7 -13  14  174.48   10.20
   6   7  14  160.38    8.90
   7   7  14    1.10    3.80
   7 -14  14   10.90    4.60
   8   7  14  209.18   10.90
   7 -15  14  179.48   12.00
   6 -14  14   43.70    6.00
   8   6  14   33.90    5.20
   8   5  14    5.80    3.50
   5 -13  14    7.70    4.00
   4 -12  14  149.29    9.10
   8   4  14  141.79    8.50
   3 -11  14  793.12   24.80
   8   3  14  793.12   24.10
   2 -10  14  412.76   15.30
   8   2  14  436.56   14.90
   8   1  14  206.58    9.70
   1  -9  14  224.48    9.90
   0  -8  14  495.75   16.50
   8   0  14  506.45   16.60
   1   7 -14   23.70    3.60
   8  -1  14   20.30    3.60
   2   6 -14    9.60    2.70
   8  -2  14   11.50    3.30
   3   5 -14   52.79    4.30
   8  -3  14   51.99    5.10
   4   4 -14   68.79    4.90
   8  -4  14   57.79    5.50
   8  -5  14   54.59    5.40
   8  -6  14   11.70    3.40
   8  -7  14  215.68   10.20
   8  -8  14  505.75   17.60
   8  -9  14   33.00    5.10
   8 -10  14  251.07   11.70
   8 -11  14   47.20    5.50
   8 -12  14    5.20    3.70
   5   8  14    1.70    4.20
   8 -13  14    2.60    3.80
   8 -14  14   85.49    7.80
   6   8  14   96.19    7.60
   8 -15  14  640.64   22.80
   7   8  14  631.34   20.90
   8   8  14  165.68   10.20
   8 -16  14  156.98   11.90
   8 -17  14   20.00    5.90
   9   8  14   13.30    5.10
   9   7  14   11.90    4.70
   7 -16  14    6.40    5.70
   9   6  14   56.99    6.20
   6 -15  14   41.40    6.70
   5 -14  14   21.50    5.00
   9   5  14   25.10    4.90
   4 -13  14    7.20    4.00
   9   4  14    6.60    3.70
   3 -12  14   53.29    5.80
   9   3  14   68.49    6.10
   9   2  14  393.36   14.30
   2 -11  14  369.66   14.40
   9   1  14   25.10    4.10
   1 -10  14   19.40    4.10
   0   9 -14  219.98    9.60
   9   0  14  214.58    9.90
   1   8 -14   31.80    3.90
   9  -1  14   36.90    4.60
   2   7 -14  667.53   20.10
   9  -2  14  658.33   20.90
   3   6 -14  675.33   19.80
   9  -3  14  645.54   21.10
   4   5 -14   45.90    4.20
   9  -4  14   29.80    4.70
   9  -5  14  637.24   20.90
   9  -6  14  171.18    9.50
   9  -7  14   39.20    5.20
   9  -8  14  225.98   10.90
   9  -9  14  215.28   10.90
   9 -10  14    8.90    4.10
   9 -11  14   25.50    4.90
   9 -12  14   22.90    4.90
   9 -13  14   56.09    6.40
   9 -14  14    1.70    4.20
   9 -15  14  350.46   16.00
   9 -16  14  217.58   13.30
   7   9  14  209.18   11.30
   9 -17  14   27.10    6.40
   8   9  14   17.50    5.00
   9 -18  14   20.10    6.50
   9   9  14    8.80    5.20
   9 -19  14   -0.10    5.80
  10   9  14    1.80    5.60
   8 -18  14   26.00    6.60
  10   8  14   38.90    6.30
  10   7  14   53.79    6.70
   7 -17  14   51.59    7.30
   6 -16  14  167.58   12.00
  10   6  14  165.88   10.60
   5 -15  14   92.29    8.20
  10   5  14  117.49    9.20
  10   4  14   51.29    5.90
   4 -14  14   49.99    6.20
  10   3  14   25.30    4.70
   3 -13  14   23.60    4.80
  -2  12 -14    9.00    3.80
   2 -12  14    8.40    4.00
  10   2  14    8.70    3.70
  -1  11 -14   12.90    3.90
  10   1  14   13.30    3.80
   0  10 -14   22.70    4.00
  10   0  14   25.70    4.30
   1   9 -14    4.40    3.00
  10  -1  14   10.70    3.60
   2   8 -14  266.07   10.90
  10  -2  14  277.17   11.70
   3   7 -14  521.75   16.70
  10  -3  14  519.55   17.80
   4   6 -14  386.96   13.30
  10  -4  14  388.56   14.70
   5   5 -14  125.69    7.00
  10  -5  14  126.99    8.20
  10  -6  14  304.67   13.00
  10  -7  14  214.88   10.80
  10  -8  14  468.55   17.30
  10  -9  14   20.10    4.40
  10 -10  14   25.40    4.90
  10 -11  14  100.19    8.30
  10 -12  14   32.90    5.50
  10 -13  14   64.69    7.00
  10 -14  14  284.27   13.60
  10 -15  14   15.50    5.70
  10 -16  14   58.79    7.50
  10 -17  14   10.90    5.80
  10 -18  14   36.50    7.10
   8  10  14   46.00    6.30
   9  10  14    4.50    5.20
  10 -19  14   -1.20    5.70
  10  10  14   48.00    7.20
  10 -20  14   48.00    8.50
  11  10  14  265.47   14.90
  10 -21  14  257.17   16.80
   9 -20  14   24.20    7.30
  11   9  14   43.00    7.20
   8 -19  14   44.10    7.70
  11   8  14   37.10    6.90
  11   7  14   15.90    5.70
   7 -18  14   14.90    6.10
  11   6  14    7.40    4.90
   6 -17  14    9.00    5.50
  11   5  14   13.40    5.00
   5 -16  14    4.40    5.40
  -4  15 -14    1.60    4.40
  11   4  14    4.90    4.60
  -3  14 -14   14.20    4.90
  11   3  14   23.20    4.90
  -2  13 -14    9.10    4.30
  11   2  14   16.20    4.50
  -1  12 -14   17.00    4.30
  11   1  14   29.80    4.90
   0  11 -14  253.47   11.50
  11   0  14  269.27   12.00
   1  10 -14  110.19    7.40
  11  -1  14  100.29    8.10
   2   9 -14   21.00    3.90
  11  -2  14   26.10    4.60
   3   8 -14   53.99    5.20
  11  -3  14   56.09    5.80
   4   7 -14   49.60    4.90
  11  -4  14   50.59    5.70
   5   6 -14   -2.50    2.60
  11  -5  14    0.30    3.50
  11  -6  14   28.10    4.80
  11  -7  14   98.29    8.50
  11  -8  14  877.01   27.60
  11  -9  14  404.16   15.90
  11 -10  14   15.10    4.50
  11 -11  14  254.77   12.60
  11 -12  14  150.08   10.00
  11 -13  14   33.10    5.90
  11 -14  14    5.00    5.10
  11 -15  14   87.69    8.70
  11 -16  14   10.60    5.50
  11 -17  14   15.70    6.00
  11 -18  14    9.10    6.10
  11 -19  14   19.80    6.70
   9  11  14   43.90   11.10
  11 -20  14   22.90    7.80
  10  11  14   44.10    7.70
  11 -21  14   54.99    9.40
  -9  21 -14  153.48   13.30
  12   9  14  164.88   13.00
  -8  20 -14   18.30    6.30
  12   8  14    2.90    6.30
  -7  19 -14   22.40    6.30
  12   7  14   27.40    6.50
  -6  18 -14   28.30    6.30
  12   6  14   14.40    6.00
  -5  17 -14  329.47   15.80
  12   5  14  332.37   15.10
  -4  16 -14  322.27   14.80
  12   4  14  324.37   14.60
  -3  15 -14    3.90    4.40
  12   3  14    4.50    4.50
  -2  14 -14  162.58   10.50
  12   2  14  181.08   10.90
  -1  13 -14   30.60    5.20
  12   1  14   25.40    5.20
   0  12 -14   32.90    5.20
  12   0  14   39.50    5.80
   1  11 -14  132.99    8.60
  12  -1  14  163.28    9.80
   2  10 -14   33.40    4.70
  12  -2  14   35.60    5.20
   3   9 -14   29.90    4.40
  12  -3  14   33.70    5.30
   4   8 -14   12.80    3.60
  12  -4  14    7.80    4.00
   5   7 -14   36.70    4.30
  12  -5  14   36.40    5.30
   6   6 -14  134.99    7.80
  12  -6  14  140.69    9.60
  12  -7  14    4.10    4.00
  12  -8  14  151.48   10.40
  12  -9  14   52.69    6.30
  12 -10  14    7.30    4.30
  12 -11  14   30.60    5.50
  12 -12  14   36.80    5.90
  12 -13  14  252.57   13.60
  12 -14  14  473.75   19.30
  12 -15  14   23.70    6.30
  12 -16  14   25.50    6.10
  12 -17  14   93.09    9.20
  12 -18  14   10.60    6.30
  12 -19  14    2.00    6.10
  12 -20  14   55.79    9.20
  12 -21  14   46.30    9.40
  -8  21 -14    1.50    6.80
  13   8  14   10.20    6.70
  -7  20 -14    7.90    6.20
  13   7  14   21.80    6.90
  -6  19 -14   33.00    6.80
  13   6  14   26.20    6.60
  -5  18 -14   17.40    5.70
  13   5  14   11.30    5.80
  -4  17 -14  286.47   14.90
  13   4  14  301.27   14.40
  -3  16 -14   83.59    8.50
  13   3  14   94.79    8.50
  -2  15 -14   96.09    8.30
  13   2  14   83.39    8.00
  -1  14 -14   68.49    7.10
  13   1  14   61.29    7.20
   0  13 -14  141.69    9.90
  13   0  14  156.98   10.70
   1  12 -14  244.38   11.80
  13  -1  14  255.17   12.60
   2  11 -14   39.80    5.40
  13  -2  14   48.60    6.10
   3  10 -14   48.10    5.60
  13  -3  14   43.60    6.20
   4   9 -14   58.59    5.50
  13  -4  14   51.59    6.20
   5   8 -14    7.30    3.40
  13  -5  14   -2.90    4.00
   6   7 -14  178.48    8.60
  13  -6  14  163.98   11.10
  13  -7  14  284.87   13.30
  13  -8  14    5.60    4.60
  13  -9  14    5.00    4.30
  13 -10  14   33.60    6.00
  13 -11  14    0.10    4.30
  13 -12  14   22.40    5.70
  13 -13  14  107.19    9.20
  13 -14  14  400.86   17.80
  13 -15  14   44.80    7.40
  13 -16  14    1.20    5.40
  13 -17  14   47.10    7.70
  13 -18  14    8.40    6.10
  13 -19  14  120.09   11.00
  13 -20  14   32.90    8.50
  13 -21  14   24.60    8.20
  -7  21 -14   15.20    7.40
  14   7  14   20.30    7.40
  -6  20 -14   29.70    7.10
  14   6  14   18.60    6.90
  -5  19 -14   46.00    7.50
  14   5  14   47.60    7.60
  -4  18 -14   -2.90    5.10
  14   4  14   -3.30    5.20
  -3  17 -14   41.70    7.20
  14   3  14   38.80    6.50
  -2  16 -14   -2.10    4.80
  14   2  14    1.90    5.10
  -1  15 -14    9.90    5.10
  14   1  14   11.20    5.50
   0  14 -14   37.20    6.10
  14   0  14   47.60    6.60
   1  13 -14  406.76   16.10
  14  -1  14  399.66   16.30
   2  12 -14  490.85   18.10
  14  -2  14  507.75   18.80
   3  11 -14   19.60    4.60
  14  -3  14   12.20    5.20
   4  10 -14  281.47   12.30
  14  -4  14  290.57   13.50
   5   9 -14   15.40    3.90
  14  -5  14    9.30    5.00
   6   8 -14  110.89    7.90
  14  -6  14   91.19    8.40
   7   7 -14   11.20    5.70
  14  -7  14   14.30    5.40
  14  -8  14   23.60    5.80
  14  -9  14   24.60    6.10
  14 -10  14   50.79    7.10
  14 -11  14   15.10    5.80
  14 -12  14  151.08   11.60
  14 -13  14   62.69    8.20
  14 -14  14   43.80    7.50
  14 -15  14   -6.60    5.10
  14 -16  14   30.40    7.30
  14 -17  14   15.50    6.40
  14 -18  14    1.70    6.00
  14 -19  14  234.98   15.10
  14 -20  14  228.68   16.10
  14 -21  14   -3.50    8.50
  -6  21 -14   -7.70    7.50
  15   6  14    2.90    6.70
  -5  20 -14   -1.80    6.00
  15   5  14    4.90    6.50
  -4  19 -14   18.40    6.70
  15   4  14   28.70    6.90
  -3  18 -14   19.00    6.20
  15   3  14    9.70    5.90
  -2  17 -14   18.80    5.90
  15   2  14   27.60    6.60
  -1  16 -14   23.40    6.20
  15   1  14   32.00    6.70
   0  15 -14    4.40    4.70
  15   0  14    9.20    5.40
   1  14 -14  -11.10    4.10
  15  -1  14    7.80    4.90
   2  13 -14   45.30    6.20
  15  -2  14   49.60    6.80
   3  12 -14   29.80    5.60
  15  -3  14   38.20    6.30
   4  11 -14  108.09    8.80
  15  -4  14  112.19    9.40
   5  10 -14   29.10    5.00
  15  -5  14   27.60    6.00
   6   9 -14  364.66   14.50
  15  -6  14  365.26   16.10
   7   8 -14  613.04   20.80
  15  -7  14  688.63   23.90
  15  -8  14  200.98   13.20
  15  -9  14   48.00    7.60
  15 -10  14   99.49    9.40
  15 -11  14   -0.60    5.00
  15 -12  14   -1.60    5.10
  15 -13  14   84.79    9.20
  15 -14  14    7.20    6.10
  15 -15  14   -1.20    5.90
  15 -16  14   25.40    7.00
  15 -17  14   22.10    7.00
  15 -18  14   18.30    7.10
  15 -19  14   29.10    8.50
  15 -20  14   98.29   11.00
  -4  20 -14    7.50    6.40
  16   4  14    7.40    6.70
  -3  19 -14   18.50    6.50
  16   3  14   19.60    7.00
  -2  18 -14   32.10    6.70
  16   2  14   39.20    7.60
  -1  17 -14   57.39    7.80
  16   1  14   50.89    7.60
   0  16 -14   13.30    5.80
  16   0  14   21.90    6.30
   1  15 -14   25.20    5.90
  16  -1  14   29.80    6.50
   2  14 -14   24.20    5.80
  16  -2  14   34.80    6.60
   3  13 -14   11.70    5.10
  16  -3  14    7.70    5.40
   4  12 -14   17.00    5.00
  16  -4  14   20.40    5.90
   5  11 -14    6.00    4.60
  16  -5  14   23.50    5.80
   6  10 -14   63.79    6.60
  16  -6  14   52.19    7.30
   7   9 -14  203.28   10.80
  16  -8  14  175.98   12.20
  16  -9  14   13.00    5.90
  16 -10  14  189.78   13.40
  16 -11  14   14.50    6.20
  16 -12  14  332.27   17.00
  16 -13  14   87.79    9.40
  16 -14  14   -4.50    5.70
  16 -15  14   30.30    7.40
  16 -16  14   12.80    6.70
  16 -17  14    3.80    6.30
  16 -18  14   25.00    7.90
  16 -19  14   41.90    9.10
  16 -20  14   -2.90    7.10
  -3  20 -14   22.00    7.20
  17   3  14   22.40    7.60
  -2  19 -14    6.80    6.30
  17   2  14   11.60    6.80
  -1  18 -14   35.60    7.20
  17   1  14   38.60    7.70
   0  17 -14   25.10    6.60
  17   0  14   28.70    7.10
   1  16 -14   11.40    5.60
  17  -1  14   10.10    6.00
   2  15 -14   18.40    5.80
  17  -2  14   11.00    5.70
   3  14 -14   18.00    5.50
  17  -3  14   19.90    6.50
   4  13 -14   39.40    6.20
  17  -4  14   56.79    7.70
   5  12 -14   89.09    7.90
  17  -5  14   83.99    8.90
   6  11 -14   17.60    5.10
  17  -6  14   16.60    6.00
   7  10 -14    8.20    4.80
  17  -7  14    3.70    5.80
   8   9 -14    7.80    5.30
  17  -8  14   18.70    6.70
  17  -9  14   12.40    6.20
  17 -10  14   39.80    7.50
  17 -11  14   -1.00    6.20
  17 -12  14  340.57   17.00
  17 -13  14  307.87   16.40
  17 -14  14   39.40    7.90
  17 -15  14   19.90    6.90
  17 -16  14   66.39    9.40
  17 -17  14   14.30    7.30
  17 -18  14   46.10    9.00
  17 -19  14   17.50    8.10
  -1  19 -14  112.19   10.40
  18   1  14  125.89   11.40
   0  18 -14  326.87   16.60
  18   0  14  282.07   16.60
   1  17 -14   66.89    8.10
  18  -1  14   61.99    9.10
   2  16 -14   34.50    6.80
  18  -2  14   28.80    7.50
   3  15 -14   18.20    6.10
  18  -3  14   21.10    6.80
   4  14 -14   -0.50    5.00
  18  -4  14    7.10    6.00
   5  13 -14    7.40    5.20
  18  -5  14   12.10    6.30
   6  12 -14   10.60    5.20
  18  -6  14    6.90    6.00
   7  11 -14   17.30    5.40
  18  -7  14   13.90    6.70
   8  10 -14   33.60    5.80
  18  -8  14   38.40    7.90
  18  -9  14   16.10    6.90
  18 -10  14   31.40    7.40
  18 -11  14   13.40    6.80
  18 -12  14   27.10    7.60
  18 -13  14   18.50    7.40
  18 -14  14   -2.30    6.30
  18 -15  14    8.10    6.90
  18 -16  14   34.40    8.30
  18 -17  14   35.40    8.80
  18 -18  14  306.47   18.30
  18 -19  14   78.59   12.10
   1  18 -14   82.59    9.00
  19  -1  14   74.49    9.60
   2  17 -14   19.40    6.80
  19  -2  14   23.40    7.70
   3  16 -14   56.89    8.00
  19  -3  14   55.49    9.00
   4  15 -14   41.20    7.10
  19  -4  14   46.60    8.40
   5  14 -14  228.48   13.60
  19  -5  14  243.68   14.60
   6  13 -14  168.18   11.80
  19  -6  14  108.39   10.50
   7  12 -14    9.50    5.40
  19  -7  14   10.30    6.90
   8  11 -14   13.30    5.50
  19  -8  14   16.20    7.40
  19  -9  14  -10.00    6.30
  19 -10  14   -6.40    6.50
  19 -11  14   45.30    8.80
  19 -12  14   26.20    8.30
  19 -13  14   21.80    7.90
  19 -14  14   64.99    9.80
  19 -15  14    9.60    7.70
  19 -16  14    3.70    7.70
  19 -17  14    8.40    7.70
  19 -18  14  134.09   14.00
   3  17 -14   19.80    7.30
  20  -3  14   27.90    9.30
   4  16 -14    6.60    6.40
  20  -4  14    4.20    6.80
   5  15 -14   97.19    9.40
  20  -5  14  162.28   13.90
   6  14 -14  251.97   14.50
  20  -6  14  279.07   16.50
   7  13 -14   39.80    7.30
  20  -7  14   59.69    9.40
   8  12 -14   67.39    8.00
  20  -8  14   70.19    9.80
   9  11 -14   33.00    7.90
  20  -9  14   47.00    9.40
  20 -10  14   59.39    9.90
  20 -11  14   30.00    8.90
  20 -12  14   -5.60    7.50
  20 -13  14    4.30    7.90
  20 -14  14   25.50    8.90
  20 -15  14   -6.80    7.50
  20 -16  14    0.40    7.60
   6  15 -14   -0.30    6.40
   7  14 -14   -6.70    6.00
  21  -7  14    3.00    8.40
   8  13 -14   13.40    6.50
  21  -8  14   36.30    8.80
   9  12 -14   49.50    7.70
  21  -9  14   57.69    9.60
  21 -10  14   66.79   10.50
  21 -11  14  272.37   17.30
  21 -12  14  123.89   12.60
  21 -13  14    2.70    8.30
  21 -14  14   14.90    8.80
   0  -1  15  195.98    8.40
   1   0  15  178.98    7.60
   1  -1  15  178.98    7.40
   1  -2  15    4.40    2.10
   1  -3  15  103.19    5.80
   2   1  15  104.29    5.80
   0  -2  15    0.70    2.00
   2   0  15    1.20    2.10
   2  -1  15    3.90    2.20
   2  -2  15   -0.90    1.90
   2  -3  15  602.04   18.20
   2  -4  15  126.29    6.70
   3   2  15  607.24   18.50
   2  -5  15  626.84   19.10
   1  -4  15  199.38    8.30
   3   1  15  206.58    8.50
   0  -3  15  109.69    5.90
   3   0  15  106.19    6.10
  -1  -2  15  627.84   21.40
   3  -1  15  611.94   18.70
   3  -2  15  101.09    5.90
   3  -3  15  100.69    5.90
   3  -4  15  636.64   19.50
   3  -5  15   45.40    4.40
   3  -6  15  164.78    7.90
   3   3  15  142.99   10.00
   3  -7  15   27.80    3.80
   4   3  15   23.70    3.40
   2  -6  15  421.76   14.20
   4   2  15  407.36   13.70
   4   1  15  522.15   17.00
   1  -5  15  567.94   17.20
   4   0  15   75.09    5.60
   0  -4  15   75.79    5.30
   4  -1  15  610.84   18.70
  -1  -3  15  593.74   17.90
   4  -2  15  112.69    6.40
   4  -3  15  219.18    9.20
   4  -4  15   67.09    5.50
   4  -5  15   46.50    4.60
   4  -6  15  146.19    7.70
   4  -7  15  142.99    7.80
   4  -8  15   32.20    4.30
   4   4  15   25.50    3.80
   4  -9  15  392.56   14.10
   5   4  15  345.27   12.60
   3  -8  15   59.29    5.40
   5   3  15   62.39    5.00
   2  -7  15   52.39    4.90
   5   2  15   61.29    4.90
   5   1  15   59.99    5.00
   1  -6  15   72.09    5.60
   5   0  15  267.47   10.60
   0  -5  15  271.47   10.20
   5  -1  15   40.70    4.30
  -1  -4  15   46.30    4.00
   5  -2  15   49.50    4.70
   5  -3  15  616.14   19.30
   5  -4  15  573.94   18.30
   5  -5  15  282.67   11.10
   5  -6  15   44.30    4.70
   5  -7  15  763.72   23.40
   5  -8  15   45.80    5.10
   5  -9  15   48.30    5.30
   5   5  15  121.99    7.30
   5 -10  15  124.59    8.30
   5 -11  15    8.10    3.80
   6   5  15    6.10    3.20
   6   4  15  249.68   10.20
   4 -10  15  247.08   11.30
   3  -9  15  157.88    8.80
   6   3  15  166.88    8.10
   6   2  15    0.30    2.50
   2  -8  15    2.20    2.80
   1  -7  15   15.40    3.20
   6   1  15    9.90    3.00
   0  -6  15   20.60    3.40
   6   0  15   23.50    3.70
  -1  -5  15   43.90    4.20
   6  -1  15   44.00    4.60
   6  -2  15  149.59    7.80
   6  -3  15  162.18    8.30
   6  -4  15  392.96   14.10
   6  -5  15   65.29    5.50
   6  -6  15   26.30    4.10
   6  -7  15  137.09    8.10
   6  -8  15    9.30    3.30
   6  -9  15  545.65   18.60
   6 -10  15  176.18    9.70
   6 -11  15    4.90    3.60
   6   6  15  118.99    7.60
   6 -12  15  111.49    8.60
   7   6  15  198.48   10.30
   6 -13  15  243.08   12.00
   5 -12  15    3.30    3.70
   7   5  15    2.20    3.40
   4 -11  15  199.58   10.30
   7   4  15  203.28    9.70
   3 -10  15   97.49    7.50
   7   3  15  105.19    7.10
   7   2  15   41.20    4.60
   2  -9  15   40.70    4.80
   1  -8  15  150.78    8.10
   7   1  15  149.09    8.00
   0  -7  15   50.49    4.80
   7   0  15   62.09    5.30
   7  -1  15  147.99    8.10
  -1  -6  15  153.38    7.70
   2   5 -15  756.62   21.80
   7  -2  15  735.13   22.90
   7  -3  15  133.69    7.90
   7  -4  15   23.70    4.10
   7  -5  15   58.99    5.40
   7  -6  15    2.60    3.00
   7  -7  15   57.49    5.60
   7  -8  15    7.30    3.50
   7  -9  15  620.94   20.60
   7 -10  15  256.97   11.80
   7 -11  15   44.80    5.50
   7 -12  15    8.50    3.90
   7 -13  15  173.98   10.50
   7 -14  15   11.70    4.70
   7   7  15    5.70    4.20
   7 -15  15  153.38   11.30
   8   7  15  140.09   10.00
   6 -14  15   10.60    4.80
   8   6  15    5.50    4.20
   8   5  15   20.30    4.60
   5 -13  15   31.40    5.40
   8   4  15   74.29    6.20
   4 -12  15   57.39    6.20
   8   3  15  487.55   16.90
   3 -11  15  500.35   17.70
   2 -10  15  239.58   11.10
   8   2  15  258.17   10.80
   1  -9  15  289.67   11.60
   8   1  15  257.37   11.20
   8   0  15  381.56   14.30
   0  -8  15  416.66   14.50
   1   7 -15    7.10    3.10
   8  -1  15    6.60    3.50
   2   6 -15    1.90    2.70
   8  -2  15    4.80    3.40
   3   5 -15   38.60    5.30
   8  -3  15   45.90    5.20
   8  -4  15   25.30    4.40
   8  -5  15   45.30    5.10
   8  -6  15   -0.60    2.90
   8  -7  15  150.28    8.80
   8  -8  15  418.76   15.70
   8  -9  15   89.09    7.60
   8 -10  15  114.09    8.40
   8 -11  15   26.80    5.00
   8 -12  15    3.20    3.80
   8 -13  15    8.10    4.00
   8 -14  15   83.49    8.00
   8 -15  15  462.85   19.00
   8 -16  15   90.19    8.90
   8   8  15   96.49   10.00
   9   8  15   -1.40    4.70
   8 -17  15   -1.60    5.10
   9   7  15    4.30    4.40
   7 -16  15    8.30    5.50
   9   6  15   34.30    5.40
   6 -15  15   30.90    6.00
   5 -14  15   17.70    5.00
   9   5  15   19.40    4.80
   9   4  15   17.30    4.60
   4 -13  15   22.40    5.00
   9   3  15    6.40    3.80
   3 -12  15    3.90    3.70
   9   2  15  340.77   13.70
   2 -11  15  376.96   14.40
   1 -10  15   25.20    4.50
   9   1  15   21.50    4.20
   0   9 -15  109.69    7.20
   9   0  15  110.89    7.80
   1   8 -15  108.29    6.90
   9  -1  15   81.29    7.10
   2   7 -15  653.83   19.80
   9  -2  15  628.84   20.70
   3   6 -15  541.85   17.40
   9  -3  15  589.94   19.30
   9  -4  15   39.40    5.20
   9  -5  15  341.47   13.80
   9  -6  15  140.19    8.90
   9  -7  15   38.10    5.30
   9  -8  15  281.37   12.30
   9  -9  15  111.69    8.50
   9 -10  15   -0.40    3.70
   9 -11  15   27.30    5.00
   9 -12  15    6.80    4.10
   9 -13  15   57.99    6.70
   9 -14  15   -0.30    4.30
   9 -15  15  239.98   13.50
   9 -16  15   91.59    9.00
   9 -17  15   15.80    6.00
   9 -18  15   23.60    6.70
  10   9  15   -2.90    5.70
   9 -19  15    1.60    5.90
   8 -18  15   23.90    6.50
  10   8  15   26.20    6.30
  10   7  15   14.10    5.30
   7 -17  15   26.80    6.30
  10   6  15  124.59    9.80
   6 -16  15   94.09    9.00
   5 -15  15   92.19    8.40
  10   5  15  112.79    9.30
  10   4  15   11.70    4.70
   4 -14  15   17.40    5.00
  10   3  15   31.50    5.40
   3 -13  15   28.90    5.20
  -2  12 -15    3.30    4.00
  10   2  15    0.90    3.60
  -1  11 -15   27.50    4.70
  10   1  15   47.50    5.50
   0  10 -15   20.30    4.10
  10   0  15   21.50    4.40
   1   9 -15    4.30    3.20
  10  -1  15    8.60    3.70
   2   8 -15  107.59    7.20
  10  -2  15  102.09    7.80
   3   7 -15  252.77   10.40
  10  -3  15  265.07   11.80
  10  -4  15  171.08    9.80
  10  -5  15  136.29    8.90
  10  -6  15  272.07   12.40
  10  -7  15  108.49    8.40
  10  -8  15  255.27   12.20
  10  -9  15   20.60    4.80
  10 -10  15   13.50    4.50
  10 -11  15   93.09    8.10
  10 -12  15   10.50    4.60
  10 -13  15   50.59    6.50
  10 -14  15  201.88   12.10
  10 -15  15   13.50    5.50
  10 -16  15   22.00    6.00
  10 -17  15    3.20    5.50
  10 -18  15   24.10    6.70
  10 -19  15   -3.80    5.90
  10 -20  15   25.30    7.70
  11   9  15   11.20    6.80
   9 -20  15   19.10    7.30
  11   8  15   34.20    7.20
   8 -19  15   24.30    6.90
   7 -18  15    8.10    5.90
  11   7  15   10.20    5.70
  11   6  15    3.30    5.20
   6 -17  15    3.00    5.30
  -5  16 -15   -3.30    4.90
  11   5  15    6.90    4.80
   5 -16  15    5.70    5.20
  -4  15 -15    6.60    4.90
  11   4  15   -0.80    4.60
  -3  14 -15   11.90    4.90
  11   3  15    0.40    4.40
  -2  13 -15    8.00    4.40
  11   2  15   12.40    4.90
  -1  12 -15   16.00    4.40
  11   1  15   17.60    4.80
   0  11 -15  215.28   10.70
  11   0  15  223.28   11.30
   1  10 -15  117.69    7.90
  11  -1  15  116.69    9.00
   2   9 -15   30.20    4.30
  11  -2  15   19.80    4.50
   3   8 -15   28.90    4.20
  11  -3  15   25.30    4.80
   4   7 -15   39.20    4.60
  11  -4  15   44.30    5.90
  11  -5  15    6.10    3.80
  11  -6  15    9.30    4.10
  11  -7  15  187.68   10.80
  11  -8  15  491.75   18.40
  11  -9  15  397.96   16.10
  11 -10  15   19.80    5.10
  11 -11  15  201.48   11.70
  11 -12  15   62.29    7.40
  11 -13  15   26.30    5.70
  11 -14  15   -2.80    4.40
  11 -15  15   47.50    7.30
  11 -16  15    8.60    5.50
  11 -17  15    0.60    5.40
  11 -18  15    4.30    5.90
  11 -19  15   12.50    6.80
  11 -20  15   18.70    7.60
  -8  20 -15    9.20    6.10
  12   8  15  -10.00    6.20
  -7  19 -15   19.20    6.60
  12   7  15   22.40    6.70
  -6  18 -15   11.70    5.80
  12   6  15    7.20    5.70
  -5  17 -15  212.68   13.30
  12   5  15  190.88   12.20
  -4  16 -15  241.78   13.60
  12   4  15  236.78   13.00
  -3  15 -15    7.60    5.00
  12   3  15    4.70    5.30
  -2  14 -15   87.99    7.80
  12   2  15   86.09    8.10
  -1  13 -15    3.80    4.50
  12   1  15   11.30    4.80
   0  12 -15   22.70    5.00
  12   0  15   29.30    5.50
   1  11 -15   70.29    6.30
  12  -1  15   70.39    7.00
   2  10 -15   11.80    3.90
  12  -2  15    7.20    4.40
   3   9 -15    6.80    3.60
  12  -3  15    9.10    4.30
   4   8 -15    2.60    3.20
  12  -4  15    1.10    3.90
  12  -5  15   10.80    4.60
  12  -6  15  111.79    8.90
  12  -7  15    5.10    4.10
  12  -8  15   67.99    7.20
  12  -9  15    2.80    4.40
  12 -10  15    2.00    4.40
  12 -11  15   19.90    5.40
  12 -12  15   21.20    5.70
  12 -13  15  136.39   10.60
  12 -14  15  252.57   13.70
  12 -15  15    9.10    5.30
  12 -16  15   26.50    6.60
  12 -17  15   56.29    7.80
  12 -18  15    2.70    6.00
  12 -19  15    9.50    6.80
  12 -20  15   37.70    8.60
  -7  20 -15   12.50    6.70
  13   7  15    3.60    6.50
  -6  19 -15   -1.60    5.90
  13   6  15    7.00    6.20
  -5  18 -15    7.80    5.90
  13   5  15    5.50    5.80
  -4  17 -15  241.08   13.90
  13   4  15  239.68   13.50
  -3  16 -15   88.39    8.40
  13   3  15   69.49    8.10
  -2  15 -15   79.09    7.80
  13   2  15   56.59    7.60
  -1  14 -15   37.80    6.10
  13   1  15   33.50    6.60
   0  13 -15  129.39    9.60
  13   0  15  114.89   10.10
   1  12 -15  159.38    9.70
  13  -1  15  139.79   10.50
   2  11 -15   22.90    4.80
  13  -2  15   27.00    5.70
   3  10 -15   49.80    5.60
  13  -3  15   46.60    6.50
   4   9 -15   55.09    5.60
  13  -4  15   58.29    6.80
   5   8 -15    9.40    3.60
  13  -5  15    3.80    4.80
  13  -6  15  179.68   11.70
  13  -7  15  213.28   12.50
  13  -8  15   14.70    5.30
  13  -9  15    8.80    5.00
  13 -10  15   13.20    5.30
  13 -11  15    0.60    4.80
  13 -12  15    1.00    4.80
  13 -13  15  105.59    9.30
  13 -14  15  236.08   13.90
  13 -15  15   27.50    6.70
  13 -16  15    8.10    5.80
  13 -17  15   42.40    7.80
  13 -18  15    4.00    6.00
  13 -19  15   72.19    9.40
  13 -20  15   38.30    9.10
  -6  20 -15   12.70    6.70
  14   6  15    6.70    6.70
  -5  19 -15   47.80    7.70
  14   5  15   36.80    7.50
  -4  18 -15    8.50    5.80
  14   4  15   -0.30    5.70
  -3  17 -15   22.20    6.50
  14   3  15   28.80    6.70
  -2  16 -15    1.40    5.20
  14   2  15    6.00    5.60
  -1  15 -15   19.00    5.60
  14   1  15   21.40    6.10
   0  14 -15   10.20    5.00
  14   0  15   14.20    5.60
   1  13 -15  244.68   12.40
  14  -1  15  240.18   13.10
   2  12 -15  271.57   13.00
  14  -2  15  295.37   14.20
   3  11 -15   13.60    4.50
  14  -3  15    1.60    4.90
   4  10 -15  221.78   10.90
  14  -4  15  184.28   11.80
   5   9 -15    9.20    4.10
  14  -5  15    1.00    4.90
  14  -6  15   70.69    8.10
  14  -7  15    7.20    5.20
  14  -8  15   -2.90    4.90
  14  -9  15   15.90    5.90
  14 -10  15   26.00    6.20
  14 -11  15    0.30    5.20
  14 -12  15   80.49    8.80
  14 -13  15   22.50    6.40
  14 -14  15   15.70    6.20
  14 -15  15   -7.20    5.20
  14 -16  15   25.10    6.90
  14 -17  15   10.40    6.40
  14 -18  15    6.80    6.60
  14 -19  15  122.19   11.60
  14 -20  15  120.39   13.00
  -5  20 -15    0.70    6.40
  15   5  15   -2.20    6.70
  -4  19 -15   20.80    6.90
  15   4  15   19.20    7.00
  -3  18 -15   17.10    5.90
  15   3  15    5.20    6.60
  -2  17 -15    9.60    5.70
  15   2  15   12.30    6.40
  -1  16 -15   10.90    5.60
  15   1  15   16.60    6.10
   0  15 -15   -6.60    4.50
  15   0  15    3.60    5.40
   1  14 -15   -3.90    4.30
  15  -1  15    2.00    4.90
   2  13 -15   26.80    5.40
  15  -2  15   32.30    6.50
   3  12 -15   20.40    5.20
  15  -3  15   18.20    5.60
   4  11 -15   47.70    6.00
  15  -4  15   56.99    7.30
   5  10 -15    7.10    4.30
  15  -5  15   17.20    5.60
   6   9 -15  233.98   14.50
  15  -7  15  470.45   19.70
  15  -8  15  156.88   12.50
  15  -9  15   29.40    6.90
  15 -10  15   74.49    8.50
  15 -11  15   -4.80    4.90
  15 -12  15   10.10    5.50
  15 -13  15   80.89    9.40
  15 -14  15   10.20    6.60
  15 -15  15   -1.20    6.10
  15 -16  15   11.00    6.70
  15 -17  15    2.10    6.40
  15 -18  15   -8.00    6.30
  15 -19  15   22.70    7.70
  -3  19 -15   10.50    6.50
  16   3  15    1.40    6.70
  -2  18 -15   29.60    6.90
  16   2  15   21.00    7.40
  -1  17 -15   40.70    7.20
  16   1  15   39.40    7.60
   0  16 -15   11.40    5.80
  16   0  15    8.90    6.20
   1  15 -15   28.60    6.10
  16  -1  15   16.20    6.20
   2  14 -15   24.20    5.80
  16  -2  15   32.10    6.80
   3  13 -15    2.70    4.80
  16  -3  15   11.50    5.80
   4  12 -15   29.60    5.50
  16  -4  15   29.40    6.30
   5  11 -15   13.20    4.90
  16  -5  15   18.40    6.00
   6  10 -15   30.70    5.40
  16  -6  15   23.80    6.30
  16  -7  15   86.49    9.30
  16  -8  15   91.99    9.30
  16  -9  15   13.70    6.20
  16 -10  15  100.99    9.80
  16 -11  15   -5.40    5.20
  16 -12  15  235.98   15.10
  16 -13  15   68.19    8.80
  16 -14  15    6.50    6.30
  16 -15  15    6.40    6.60
  16 -16  15    8.90    6.80
  16 -17  15   -4.80    6.40
  16 -18  15   -0.20    6.80
  16 -19  15   44.50    9.20
  -2  19 -15   -7.80    6.30
  17   2  15   -4.60    7.00
  -1  18 -15    9.90    6.80
  17   1  15   23.30    7.70
   0  17 -15   13.00    6.10
  17   0  15   13.80    6.60
   1  16 -15   -0.40    5.50
  17  -1  15    5.80    6.00
   2  15 -15   12.80    5.70
  17  -2  15   22.30    6.40
   3  14 -15    9.90    5.40
  17  -3  15   16.70    6.60
   4  13 -15   36.00    6.20
  17  -4  15   40.20    7.40
   5  12 -15   63.69    7.00
  17  -5  15   69.99    8.40
   6  11 -15    5.90    4.80
  17  -6  15   -0.90    5.70
  17  -7  15    6.00    6.20
  17  -8  15   13.40    6.40
  17  -9  15    2.00    5.90
  17 -10  15   23.40    6.90
  17 -11  15    5.90    6.00
  17 -12  15  257.47   16.10
  17 -13  15  247.38   15.20
  17 -14  15   31.70    7.80
  17 -15  15   10.30    6.80
  17 -16  15   39.00    8.60
  17 -17  15   -0.70    6.90
  17 -18  15   31.80    8.40
   0  18 -15  215.48   14.80
  18   0  15  196.38   15.10
   1  17 -15   51.59    8.10
  18  -1  15   28.60    8.00
   2  16 -15   17.90    6.10
  18  -2  15   -3.80    6.80
   3  15 -15   16.20    6.10
  18  -3  15    6.00    6.80
   4  14 -15    1.90    5.30
  18  -4  15   -3.90    6.40
   5  13 -15    1.70    5.20
  18  -5  15   -2.00    6.20
   6  12 -15    2.10    5.10
  18  -6  15   -2.90    6.10
   7  11 -15    7.30    6.60
  18  -7  15    9.80    6.50
  18  -8  15   21.50    7.20
  18  -9  15    1.90    6.40
  18 -10  15   31.80    7.80
  18 -11  15    5.70    6.80
  18 -12  15    3.60    6.70
  18 -13  15    9.60    7.10
  18 -14  15    2.10    6.80
  18 -15  15   21.00    8.10
  18 -16  15   11.80    7.80
  18 -17  15    5.10    7.80
   2  17 -15   20.40    6.80
  19  -2  15    7.80    7.60
   3  16 -15   33.50    7.40
  19  -3  15   27.60    7.90
   4  15 -15   28.90    7.10
  19  -4  15   19.40    7.80
   5  14 -15  134.99   11.80
  19  -5  15  121.69   11.20
   6  13 -15   75.99    8.10
  19  -6  15   80.99   10.30
   7  12 -15    2.90    5.90
  19  -7  15  -13.90    6.40
  19  -8  15    4.20    7.40
  19  -9  15  -17.50    6.60
  19 -10  15  -17.10    6.80
  19 -11  15   36.60    9.20
  19 -12  15   28.30    8.40
  19 -13  15   17.30    8.20
  19 -14  15   46.90    9.50
  19 -15  15   10.90    8.00
  19 -16  15   -6.50    7.80
   5  15 -15   63.49    8.50
  20  -5  15   52.09   11.50
   6  14 -15  173.68   13.50
  20  -6  15  180.38   15.60
   7  13 -15   29.00    7.00
  20  -7  15   42.40    8.90
  20  -8  15   48.10    9.50
  20  -9  15   30.80    8.90
  20 -10  15   54.29    9.90
  20 -11  15   26.10    8.60
  20 -12  15   -4.60    7.80
  20 -13  15    6.70    8.00
  20 -14  15   -2.00    8.60
   1  -3  16   29.50    3.50
   2  -2  16    0.50    2.20
   2  -3  16  417.46   14.00
   2  -4  16   29.30    3.80
   2  -5  16  114.99    6.80
   1  -4  16  182.78    8.20
   3   0  16   76.29    6.80
   3  -1  16  389.96   13.20
   3  -2  16   27.90    3.60
   3  -3  16   77.89    5.70
   3  -4  16  214.88    9.10
   3  -5  16   47.70    4.80
   3  -6  16  102.89    6.70
   3  -7  16   27.40    4.00
   2  -6  16    5.20    2.90
   1  -5  16   75.09    5.70
   4   1  16   63.79    5.30
   0  -4  16   26.00    3.50
   4   0  16   32.10    3.90
   4  -1  16  231.68    9.60
   4  -2  16   36.20    4.10
   4  -3  16  181.98    8.50
   4  -4  16   29.60    3.90
   4  -5  16    7.50    2.80
   4  -6  16   23.10    3.80
   4  -7  16   24.00    3.90
   4  -8  16   -0.50    2.70
   4  -9  16  167.18    9.20
   3  -8  16    2.00    2.90
   5   2  16   28.50    4.00
   2  -7  16   26.70    4.00
   1  -6  16    3.60    2.60
   5   1  16    2.00    2.70
   0  -5  16   72.69    5.50
   5   0  16   67.39    5.90
   5  -1  16    7.20    3.00
   5  -2  16   45.40    4.60
   5  -3  16  103.09    6.70
   5  -4  16   68.79    5.80
   5  -5  16   72.29    5.90
   5  -6  16   39.30    4.50
   5  -7  16  346.07   13.30
   5  -8  16   11.10    3.40
   5  -9  16   10.20    3.60
   5 -10  16   15.30    3.90
   5 -11  16    0.00    3.40
   4 -10  16   92.89    7.70
   3  -9  16   26.80    4.50
   6   3  16   39.90    4.50
   6   2  16   -3.10    2.60
   2  -8  16    1.00    2.70
   6   1  16    2.40    2.90
   1  -7  16    5.60    2.90
   0  -6  16   17.60    3.30
   6   0  16   22.20    3.80
   6  -1  16   44.40    4.80
  -1  -5  16   41.70    4.30
   6  -2  16   17.80    3.60
   6  -3  16  100.09    6.90
   6  -4  16    6.30    3.00
   6  -5  16    1.00    2.70
   6  -6  16   24.30    4.00
   6  -7  16   31.70    4.50
   6  -8  16    2.20    3.10
   6  -9  16  112.09    7.80
   6 -10  16  112.19    8.20
   6 -11  16   14.00    4.20
   6 -12  16   12.10    4.30
   6 -13  16   58.29    6.80
   5 -12  16    2.90    3.70
   7   4  16   16.30    3.90
   4 -11  16   13.30    4.10
   7   3  16   52.59    5.30
   3 -10  16   53.49    5.70
   7   2  16    8.50    3.50
   2  -9  16    5.70    3.30
   1  -8  16   40.20    4.70
   7   1  16   33.80    4.50
   0  -7  16    0.90    2.70
   7   0  16   -2.00    2.80
   7  -1  16   35.50    4.70
  -1  -6  16   37.30    4.30
   7  -2  16  359.06   13.70
   7  -3  16   26.40    4.30
   7  -4  16   24.60    4.20
   7  -5  16   23.50    4.20
   7  -6  16    5.60    3.20
   7  -7  16    4.00    3.10
   7  -8  16   11.90    3.70
   7  -9  16   88.49    7.60
   7 -10  16   21.30    4.40
   7 -11  16   -3.40    3.40
   7 -12  16   -1.80    3.50
   7 -13  16   39.50    5.90
   7 -14  16    5.50    4.80
   7 -15  16   49.99    6.90
   6 -14  16   -3.70    4.20
   5 -13  16    0.80    3.90
   8   5  16   -4.70    3.90
   4 -12  16    0.10    3.80
   8   4  16    4.50    3.90
   3 -11  16   99.29    8.00
   8   3  16   79.19    6.50
   8   2  16  118.59    8.00
   2 -10  16   98.09    7.70
   1  -9  16   79.89    6.90
   8   1  16   74.29    6.30
   0  -8  16  109.69    7.30
   8   0  16  100.69    7.70
   1   7 -16   13.60    3.30
   8  -1  16   18.50    4.20
   8  -2  16   -2.60    3.00
   8  -3  16    5.40    3.40
   8  -4  16   -0.20    3.10
   8  -5  16    0.40    3.00
   8  -6  16    2.20    3.20
   8  -7  16   32.50    4.70
   8  -8  16   92.29    7.70
   8  -9  16   11.10    3.90
   8 -10  16   10.70    4.20
   8 -11  16   28.60    5.00
   8 -12  16   -3.20    3.40
   8 -13  16   -1.70    3.90
   8 -14  16   16.40    5.00
   8 -15  16  102.99    9.20
   8 -16  16   20.60    5.90
   8 -17  16    1.00    5.60
   7 -16  16    6.70    5.40
   6 -15  16    7.10    4.90
   9   6  16    6.70    4.80
   9   5  16   -4.30    4.10
   5 -14  16   -0.10    4.30
   4 -13  16   13.60    4.70
   9   4  16    7.70    4.40
   3 -12  16   19.80    4.60
   9   3  16   10.90    4.20
   9   2  16   37.00    5.20
   2 -11  16   38.70    5.30
  -1  10 -16   17.00    4.10
   1 -10  16   15.70    4.20
   9   1  16   16.10    4.20
   0   9 -16   52.09    5.30
   9   0  16   48.00    5.50
   1   8 -16    9.30    3.30
   9  -1  16    2.80    3.50
   2   7 -16  107.39    6.90
   9  -2  16   98.29    7.90
   9  -3  16  118.19    8.30
   9  -4  16    8.80    3.80
   9  -5  16  151.98    9.30
   9  -6  16   35.10    5.10
   9  -7  16    5.30    3.70
   9  -8  16   91.89    8.00
   9  -9  16   49.20    5.80
   9 -10  16   16.00    4.60
   9 -11  16    9.20    4.30
   9 -12  16   -3.30    3.60
   9 -13  16    2.10    4.20
   9 -14  16    1.20    4.30
   9 -15  16   49.70    7.20
   9 -16  16   10.10    5.80
   9 -17  16   37.80    7.10
   9 -18  16    6.90    6.30
   9 -19  16    8.00    6.60
   8 -18  16   -3.80    5.30
  10   7  16    1.10    6.70
   7 -17  16    4.20    5.40
  10   6  16   63.99    7.00
   6 -16  16   58.39    7.50
   5 -15  16   16.60    5.30
  10   5  16   24.80    5.60
   4 -14  16    5.70    4.60
  10   4  16   -0.30    4.30
   3 -13  16   11.40    4.60
  10   3  16    7.90    4.60
  -2  12 -16   -5.00    3.40
  10   2  16   -1.20    3.70
  -1  11 -16   13.80    4.30
  10   1  16   19.60    4.50
   0  10 -16   -3.50    3.10
  10   0  16   -3.00    3.60
   1   9 -16   18.30    4.00
  10  -1  16   18.50    4.30
   2   8 -16   13.90    3.60
  10  -2  16   15.90    4.20
  10  -3  16   26.00    4.90
  10  -4  16   94.99    8.00
  10  -5  16   18.90    4.60
  10  -6  16  102.69    8.40
  10  -7  16   44.60    5.80
  10  -8  16  106.49    8.60
  10  -9  16   17.30    4.70
  10 -10  16    1.70    3.70
  10 -11  16   11.10    4.60
  10 -12  16    2.40    4.10
  10 -13  16   -0.10    4.00
  10 -14  16  110.09    9.70
  10 -15  16   14.20    5.60
  10 -16  16    5.20    5.30
  10 -17  16   14.50    6.40
  10 -18  16    2.80    5.90
  10 -19  16   -5.40    6.40
  10 -20  16   -0.30   10.90
   9 -20  16    1.90   11.10
   8 -19  16   10.60    6.90
  11   7  16   -4.00    5.70
   7 -18  16   -7.30    5.60
  11   6  16   -9.50    5.00
   6 -17  16   -6.40    5.10
  -5  16 -16   -6.60    5.00
   5 -16  16   -0.90    5.00
  11   5  16    4.30    5.20
  -4  15 -16    2.50    4.80
  11   4  16    6.40    5.10
  -3  14 -16   -3.10    4.50
  11   3  16    0.10    4.40
  -2  13 -16   -0.50    4.20
  11   2  16    0.30    4.40
  -1  12 -16    8.70    4.20
  11   1  16    1.60    4.10
   0  11 -16   66.29    6.30
  11   0  16   72.29    7.10
   1  10 -16   18.20    4.20
  11  -1  16   11.00    4.50
   2   9 -16   10.30    3.50
  11  -2  16    3.60    4.00
   3   8 -16   21.00    5.00
  11  -3  16   38.70    5.60
  11  -4  16   -3.80    3.70
  11  -5  16   14.40    4.60
  11  -6  16    1.10    3.80
  11  -7  16   14.70    4.50
  11  -8  16   84.39    7.70
  11  -9  16   39.40    5.80
  11 -10  16   25.40    5.50
  11 -11  16   73.29    7.70
  11 -12  16   67.39    7.60
  11 -13  16   21.30    5.50
  11 -14  16    0.10    4.60
  11 -15  16   27.70    6.20
  11 -16  16   -7.40    4.60
  11 -17  16   -1.70    5.30
  11 -18  16    1.10    6.30
  11 -19  16   -6.00    6.20
  -7  19 -16   12.40    6.30
  12   7  16   -0.80    6.20
  -6  18 -16   11.20    5.70
  12   6  16    1.60    5.90
  -5  17 -16   41.30    7.20
  12   5  16   41.70    7.20
  -4  16 -16   38.40    6.80
  12   4  16   44.10    7.10
  -3  15 -16    6.40    5.10
  12   3  16   -2.60    5.10
  -2  14 -16   34.10    6.00
  12   2  16   21.00    5.60
  -1  13 -16    1.80    4.40
  12   1  16    0.80    4.70
   0  12 -16   18.20    4.80
  12   0  16   21.20    5.30
   1  11 -16   63.29    6.40
  12  -1  16   79.09    7.50
   2  10 -16    3.90    3.70
  12  -2  16    0.20    4.00
   3   9 -16    1.60    3.50
  12  -3  16   -5.00    3.90
  12  -4  16   -4.30    4.00
  12  -5  16    2.30    4.20
  12  -6  16   10.90    4.60
  12  -7  16    0.90    4.30
  12  -8  16    5.60    4.50
  12  -9  16   20.60    5.40
  12 -10  16   -0.30    4.20
  12 -11  16    1.00    4.50
  12 -12  16   29.30    6.20
  12 -13  16   16.90    5.50
  12 -14  16   70.39    8.00
  12 -15  16   -1.30    4.70
  12 -16  16    0.40    5.20
  12 -17  16   15.20    6.40
  12 -18  16  -12.60    5.60
  12 -19  16   -5.70    6.70
  -6  19 -16    6.00    6.30
  13   6  16    5.80    7.00
  -5  18 -16   -1.60    5.40
  13   5  16   -6.00    5.90
  -4  17 -16   42.60    7.10
  13   4  16   33.10    7.10
  -3  16 -16   17.20    5.80
  13   3  16   10.10    6.00
  -2  15 -16   46.10    6.90
  13   2  16   38.80    7.10
  -1  14 -16    7.90    4.80
  13   1  16   -7.80    4.80
   0  13 -16   25.80    5.30
  13   0  16   24.00    6.10
   1  12 -16   26.30    5.10
  13  -1  16   34.80    6.40
   2  11 -16   16.80    4.70
  13  -2  16    5.50    4.90
   3  10 -16   -4.00    3.70
  13  -3  16   -1.40    4.50
  13  -4  16   -3.70    4.40
  13  -5  16   -0.50    4.80
  13  -6  16   39.00    6.70
  13  -7  16   65.59    7.70
  13  -8  16   -4.80    4.30
  13  -9  16   10.40    5.00
  13 -10  16    0.60    4.70
  13 -11  16    3.90    4.70
  13 -12  16    0.40    4.90
  13 -13  16    5.30    5.60
  13 -14  16   26.80    6.20
  13 -15  16    4.50    5.40
  13 -16  16   -3.70    5.10
  13 -17  16    5.30    5.90
  13 -18  16    8.10    6.20
  13 -19  16   12.20    7.40
  -5  19 -16   21.70    7.00
  14   5  16   27.60    7.80
  -4  18 -16   12.50    6.30
  14   4  16   11.90    6.80
  -3  17 -16   16.50    6.20
  14   3  16    9.00    6.50
  -2  16 -16    0.00    4.90
  14   2  16    3.30    5.70
  -1  15 -16    3.70    4.90
  14   1  16    1.70    5.50
   0  14 -16    6.40    4.90
  14   0  16    7.90    5.70
   1  13 -16   32.30    5.90
  14  -1  16   40.10    6.70
   2  12 -16   79.59    7.50
  14  -2  16   74.99    8.10
   3  11 -16    0.40    4.20
  14  -3  16   -2.00    4.50
   4  10 -16   70.29    6.80
  14  -4  16   84.89    8.50
  14  -5  16  -10.30    4.70
  14  -6  16    9.90    5.60
  14  -7  16    1.00    4.90
  14  -8  16   -9.70    4.30
  14  -9  16   -4.90    4.10
  14 -10  16    0.40    5.00
  14 -11  16    2.80    5.20
  14 -12  16   23.70    6.20
  14 -13  16   18.50    6.00
  14 -14  16    5.10    5.90
  14 -15  16   13.00    6.20
  14 -16  16   13.90    6.50
  14 -17  16    1.30    5.90
  14 -18  16    3.70    6.60
  14 -19  16   30.10    8.60
  -3  18 -16    5.30    6.00
  15   3  16   -8.50    6.40
  -2  17 -16   -2.80    5.10
  15   2  16   -6.20    5.90
  -1  16 -16    5.30    5.40
  15   1  16   -5.80    5.70
   0  15 -16    0.40    4.80
  15   0  16    1.20    5.50
   1  14 -16   19.20    5.70
  15  -1  16    7.00    5.60
   2  13 -16   -3.00    4.60
  15  -2  16    2.40    5.30
   3  12 -16    2.00    4.70
  15  -3  16    1.40    5.00
   4  11 -16   23.00    5.20
  15  -4  16   25.70    6.10
  15  -5  16   22.10    5.90
  15  -6  16   53.19    7.60
  15  -7  16  105.69    9.60
  15  -8  16   51.49    7.90
  15  -9  16   -1.40    5.50
  15 -10  16   15.40    5.90
  15 -11  16   -0.30    4.90
  15 -12  16    4.30    5.50
  15 -13  16   39.80    7.30
  15 -14  16   -1.20    5.60
  15 -15  16   -3.70    5.80
  15 -16  16    5.50    6.40
  15 -17  16   -4.80    6.20
  15 -18  16    9.40    7.10
  -2  18 -16    8.20    6.70
  16   2  16   11.60    7.20
  -1  17 -16   12.40    6.50
  16   1  16   15.10    7.10
   0  16 -16   -6.30    5.30
  16   0  16   -4.80    5.70
   1  15 -16   -2.40    5.10
  16  -1  16    0.30    5.60
   2  14 -16   10.70    5.60
  16  -2  16    9.40    6.10
   3  13 -16    1.90    4.90
  16  -3  16    5.80    5.90
   4  12 -16   -3.20    4.40
  16  -4  16    2.30    5.30
  16  -5  16   -7.50    5.00
  16  -6  16   17.90    6.40
  16  -7  16    9.90    5.90
  16  -8  16   23.50    6.60
  16  -9  16    3.20    5.70
  16 -10  16   78.89    9.20
  16 -11  16    3.90    6.00
  16 -12  16   39.30    7.60
  16 -13  16   17.20    6.40
  16 -14  16   -6.90    5.70
  16 -15  16   -5.70    6.30
  16 -16  16   -4.50    6.20
  16 -17  16  -10.00    6.50
  16 -18  16    3.90    8.90
   0  17 -16    1.70    6.00
  17   0  16    3.60    6.80
   1  16 -16   -2.00    5.90
  17  -1  16   -4.00    6.10
   2  15 -16   -3.90    5.40
  17  -2  16   -2.70    5.80
   3  14 -16   -5.60    4.90
  17  -3  16   -6.80    5.80
   4  13 -16   -0.70    5.20
  17  -4  16    0.40    6.00
   5  12 -16   10.00    5.50
  17  -5  16   18.40    6.60
  17  -6  16    0.30    5.70
  17  -7  16   22.50    7.30
  17  -8  16   37.90    7.70
  17  -9  16   -0.40    5.90
  17 -10  16   -0.30    6.10
  17 -11  16    1.80    6.10
  17 -12  16   49.60    8.40
  17 -13  16   34.80    7.70
  17 -14  16    4.70    7.00
  17 -15  16   -9.70    6.00
  17 -16  16   16.60    7.60
  17 -17  16    7.80    7.80
   2  16 -16   -0.50    5.90
  18  -2  16  -12.10    6.50
   3  15 -16   -5.00    5.60
  18  -3  16  -19.90    6.30
   4  14 -16   -6.30    5.40
  18  -4  16   -8.40    6.50
   5  13 -16    3.70    5.80
  18  -5  16    5.80    7.10
  18  -6  16    9.70    7.00
  18  -7  16   -5.60    6.60
  18  -8  16  -10.50    6.10
  18  -9  16   -7.20    6.20
  18 -10  16   -7.70    6.40
  18 -11  16   -9.40    6.00
  18 -12  16    7.40    7.20
  18 -13  16   -1.40    7.00
  18 -14  16   -2.70    6.70
  18 -15  16   -8.90    6.70
  18 -16  16    1.70    8.50
   5  14 -16   27.80    7.20
  19  -5  16   25.20    8.30
  19  -6  16    6.50    7.50
  19  -7  16  -12.70    7.10
  19  -8  16  -15.00    7.20
  19  -9  16   -9.30    6.90
  19 -10  16    1.00    7.30
  19 -11  16   12.80    8.30
  19 -12  16    8.50    7.70
  19 -13  16   -3.60    7.20
  19 -14  16   21.40    8.70
   2  -4  17    2.00    3.00
   2  -5  17    1.50    2.60
   3  -3  17    6.00    2.90
   3  -4  17   42.50    4.50
   3  -5  17   10.30    3.20
   3  -6  17    5.10    3.20
   3  -7  17    3.40    3.00
   2  -6  17  299.57   11.80
   4  -2  17    2.60    2.70
   4  -3  17   46.90    4.80
   4  -4  17   10.60    3.10
   4  -5  17   63.79    5.60
   4  -6  17   43.10    4.80
   4  -7  17    9.80    3.40
   4  -8  17   80.69    7.10
   4  -9  17    7.90    3.80
   3  -8  17   14.00    3.80
   2  -7  17  101.69    7.40
   1  -6  17  276.77   11.10
   5  -1  17   71.49    6.20
   5  -2  17    7.40    3.20
   5  -3  17    4.00    2.80
   5  -4  17  121.49    7.60
   5  -5  17    0.80    2.80
   5  -6  17   42.10    4.90
   5  -7  17   77.79    6.50
   5  -8  17    1.20    3.10
   5  -9  17   24.30    4.40
   5 -10  17   12.00    4.10
   5 -11  17   11.10    4.50
   4 -10  17   53.39    5.90
   3  -9  17    5.50    3.50
   2  -8  17   51.09    5.30
   1  -7  17   12.40    3.60
   6   0  17   37.20    4.60
   6  -1  17   39.70    4.80
   6  -2  17   45.70    5.10
   6  -3  17    5.50    3.20
   6  -4  17  299.67   12.10
   6  -5  17  275.27   11.70
   6  -6  17   43.10    5.30
   6  -7  17   14.10    3.70
   6  -8  17   10.00    3.70
   6  -9  17    1.60    3.40
   6 -10  17    2.50    3.60
   6 -11  17   31.80    5.30
   6 -12  17   22.00    5.10
   6 -13  17    7.00    4.80
   5 -12  17   20.10    5.10
   4 -11  17    6.80    4.00
   3 -10  17    7.00    3.80
   2  -9  17   22.10    4.40
   7   2  17   25.00    6.50
   1  -8  17   14.10    3.90
   7   1  17   14.40    4.00
   0  -7  17   68.69    6.10
   7   0  17   87.09    6.90
   7  -1  17   11.10    3.70
   7  -2  17   75.99    6.50
   7  -3  17    3.80    3.30
   7  -4  17    1.70    3.30
   7  -5  17  118.99    7.90
   7  -6  17   11.70    3.70
   7  -7  17   70.89    6.50
   7  -8  17   11.40    3.80
   7  -9  17   -2.50    3.40
   7 -10  17  158.58    9.70
   7 -11  17   21.70    4.90
   7 -12  17   33.10    5.60
   7 -13  17    8.00    5.00
   7 -14  17    2.40    5.00
   7 -15  17    9.70    5.50
   6 -14  17   10.70    5.20
   5 -13  17    5.10    4.70
   4 -12  17   17.40    5.00
   3 -11  17   29.70    5.30
   2 -10  17    1.80    3.60
   8   2  17    1.50    3.70
   1  -9  17   52.59    5.80
   8   1  17   53.29    5.70
   0   8 -17   28.40    4.30
   8   0  17   28.20    4.70
   8  -1  17   12.60    4.10
   8  -2  17    3.80    3.60
   8  -3  17    6.40    3.40
   8  -4  17   76.89    6.70
   8  -5  17    9.60    3.80
   8  -6  17   58.59    6.00
   8  -7  17   14.60    4.20
   8  -8  17   24.40    4.60
   8  -9  17    0.00    3.70
   8 -10  17   53.79    6.20
   8 -11  17  131.89    9.10
   8 -12  17   -0.80    4.00
   8 -13  17   19.20    5.30
   8 -14  17   -1.20    4.60
   8 -15  17    3.20    5.20
   8 -16  17   24.60    6.60
   8 -17  17    3.20    5.90
   7 -16  17   -1.10    5.20
   6 -15  17    0.00    4.80
   5 -14  17   42.10    6.50
   4 -13  17   10.90    4.80
   3 -12  17  213.18   11.70
   9   3  17  214.48   11.10
   2 -11  17    1.00    3.90
   9   2  17   11.90    4.40
  -1  10 -17   10.60    4.00
   9   1  17    8.70    4.10
   0   9 -17    7.00    3.40
   9   0  17    2.40    3.70
   9  -1  17    3.10    3.70
   9  -2  17   -2.10    3.40
   9  -3  17    2.30    3.60
   9  -4  17   26.40    4.80
   9  -5  17    5.50    3.70
   9  -6  17    4.50    3.70
   9  -7  17   33.30    5.20
   9  -8  17   37.60    5.60
   9  -9  17   -1.60    3.60
   9 -10  17   30.40    5.30
   9 -11  17   -1.40    3.70
   9 -12  17   33.10    5.80
   9 -13  17   17.20    5.20
   9 -14  17    4.10    4.60
   9 -15  17   -2.40    5.00
   9 -16  17   45.20    7.50
   9 -17  17   32.40    7.20
   9 -18  17    2.40    6.60
   8 -18  17   20.40    7.20
   7 -17  17    8.80    6.30
   6 -16  17   45.80    7.40
   5 -15  17   -0.50    5.00
   4 -14  17   42.90    6.60
  10   4  17   37.40    6.10
  -3  13 -17   10.60    4.70
   3 -13  17   -1.30    4.50
  10   3  17    5.10    4.50
  -2  12 -17   11.30    4.50
  10   2  17   16.20    4.80
  -1  11 -17   34.10    5.40
  10   1  17   35.50    5.60
   0  10 -17   53.89    5.70
  10   0  17   59.69    6.40
   1   9 -17   29.70    4.60
  10  -1  17   29.10    5.20
  10  -2  17   41.90    5.90
  10  -3  17  157.28   10.00
  10  -4  17   -1.90    3.70
  10  -5  17    3.40    4.00
  10  -6  17   58.39    6.50
  10  -7  17    4.70    4.00
  10  -8  17    7.70    4.20
  10  -9  17   10.40    4.40
  10 -10  17   62.89    6.90
  10 -11  17    5.30    4.60
  10 -12  17   26.30    5.50
  10 -13  17    4.50    4.50
  10 -14  17   28.80    6.10
  10 -15  17    0.50    4.60
  10 -16  17   -0.80    5.20
  10 -17  17   10.90    6.60
  10 -18  17    9.80    6.90
   7 -18  17   -1.80    6.20
  -6  17 -17    2.30    5.30
   6 -17  17   -1.30    5.90
  -5  16 -17   31.00    6.60
  11   5  17   26.00    7.00
  -4  15 -17    7.40    5.20
  11   4  17    1.80    5.10
  -3  14 -17   50.39    6.80
  11   3  17   34.50    6.20
  -2  13 -17   36.70    6.00
  11   2  17   31.10    5.90
  -1  12 -17    5.40    4.50
  11   1  17    5.30    4.60
   0  11 -17    4.40    4.00
  11   0  17    3.20    4.50
   1  10 -17   12.90    4.30
  11  -1  17   10.30    4.50
  11  -2  17    4.10    4.20
  11  -3  17  132.09   10.10
  11  -4  17   18.20    4.90
  11  -5  17   29.00    5.40
  11  -6  17   12.10    4.80
  11  -7  17    5.20    4.20
  11  -8  17   31.80    5.70
  11  -9  17    8.90    4.50
  11 -10  17   27.40    5.70
  11 -11  17    7.00    4.80
  11 -12  17   26.40    5.80
  11 -13  17    3.50    4.80
  11 -14  17    1.00    4.70
  11 -15  17   -0.30    4.90
  11 -16  17   18.20    6.40
  11 -17  17    0.80    6.10
  11 -18  17    6.30    7.10
  -6  18 -17   -4.30    5.50
  -5  17 -17    4.50    5.60
  12   5  17   -3.60    6.00
  -4  16 -17    5.70    5.90
  12   4  17    3.10    5.80
  -3  15 -17    2.10    4.80
  12   3  17    1.60    5.40
  -2  14 -17    3.40    5.10
  12   2  17   -4.80    4.60
  -1  13 -17   13.20    5.20
  12   1  17   12.10    5.30
   0  12 -17    9.50    5.00
  12   0  17   14.40    5.40
   1  11 -17   33.90    5.30
  12  -1  17   30.20    5.80
   2  10 -17   30.20    6.50
  12  -2  17   26.10    5.70
  12  -3  17   31.70    6.00
  12  -4  17   12.60    5.20
  12  -5  17   28.50    5.80
  12  -6  17   15.90    5.10
  12  -7  17   21.40    5.50
  12  -8  17   21.80    5.70
  12  -9  17  192.98   11.60
  12 -10  17    7.20    4.80
  12 -11  17    4.50    4.80
  12 -12  17   20.90    5.90
  12 -13  17    7.10    5.10
  12 -14  17   -0.40    4.90
  12 -15  17   -5.00    4.80
  12 -16  17   16.30    6.30
  12 -17  17   -2.10    5.70
  12 -18  17   -5.20    6.30
  -5  18 -17   36.50    7.60
  13   5  17   21.90    7.60
  -4  17 -17    1.80    6.10
  13   4  17    6.70    6.40
  -3  16 -17    6.10    5.70
  13   3  17   -0.20    5.60
  -2  15 -17   13.70    5.60
  13   2  17   25.40    6.50
  -1  14 -17   -3.50    4.60
  13   1  17    5.30    5.30
   0  13 -17   -3.00    4.50
  13   0  17   -6.00    5.00
   1  12 -17    5.20    4.80
  13  -1  17    5.50    5.40
   2  11 -17    1.50    4.20
  13  -2  17    1.50    5.10
  13  -3  17    1.30    5.00
  13  -4  17   17.50    6.00
  13  -5  17   15.20    5.70
  13  -6  17   10.80    5.30
  13  -7  17    2.70    4.90
  13  -8  17    2.10    4.60
  13  -9  17   16.20    5.50
  13 -10  17   15.30    5.50
  13 -11  17   33.00    6.50
  13 -12  17   20.40    6.10
  13 -13  17    4.40    5.20
  13 -14  17   19.90    6.40
  13 -15  17   31.40    6.90
  13 -16  17    3.20    5.90
  13 -17  17    8.20    6.50
  13 -18  17   21.10    7.50
  -4  18 -17   28.40    7.20
  14   4  17   31.40    8.20
  -3  17 -17   -3.20    5.80
  14   3  17    3.20    6.40
  -2  16 -17    7.90    5.80
  14   2  17    7.20    5.90
  -1  15 -17    0.10    4.90
  14   1  17    4.50    5.70
   0  14 -17   -5.90    4.80
  14   0  17    3.40    5.50
   1  13 -17   22.60    5.60
  14  -1  17   19.60    6.20
   2  12 -17   -7.10    4.50
  14  -2  17   -1.90    5.10
  14  -3  17    6.00    5.40
  14  -4  17   37.10    6.90
  14  -5  17   -2.10    5.20
  14  -6  17    0.30    5.10
  14  -7  17   10.60    5.50
  14  -8  17   14.40    5.70
  14  -9  17   44.80    7.10
  14 -10  17   49.70    7.30
  14 -11  17   49.70    7.40
  14 -12  17   -0.20    5.10
  14 -13  17   -0.20    5.60
  14 -14  17   -5.60    5.30
  14 -15  17   48.80    8.20
  14 -16  17   16.70    6.60
  14 -17  17   11.90    6.70
  14 -18  17    6.50   11.00
  -2  17 -17    3.40    5.90
  15   2  17    3.10    6.50
  -1  16 -17   10.70    6.10
  15   1  17   25.00    7.20
   0  15 -17    0.60    5.50
  15   0  17    3.80    6.10
   1  14 -17   36.30    6.80
  15  -1  17   41.50    7.50
   2  13 -17   34.50    6.50
  15  -2  17   38.20    7.00
   3  12 -17   -2.00    5.30
  15  -3  17    3.90    5.50
  15  -4  17    1.70    5.10
  15  -5  17   -1.10    5.20
  15  -6  17    1.60    5.40
  15  -7  17    7.70    5.60
  15  -8  17    7.20    5.80
  15  -9  17    4.90    5.40
  15 -10  17    0.10    5.50
  15 -11  17   12.20    6.20
  15 -12  17    0.80    5.50
  15 -13  17   10.70    6.50
  15 -14  17    0.40    6.10
  15 -15  17   12.50    6.70
  15 -16  17   -7.50    6.20
  15 -17  17   17.80    7.10
   0  16 -17  -10.60    5.60
  16   0  17    6.20    6.50
   1  15 -17   -2.30    5.60
  16  -1  17    3.40    6.50
   2  14 -17   -1.40    5.40
  16  -2  17    3.70    6.20
   3  13 -17   -6.50    5.30
  16  -3  17    1.40    5.80
  16  -4  17   11.90    6.20
  16  -5  17   15.70    6.70
  16  -6  17   -3.00    5.70
  16  -7  17   51.99    8.10
  16  -8  17   19.50    6.50
  16  -9  17    4.00    6.00
  16 -10  17   38.10    7.70
  16 -11  17   31.90    7.50
  16 -12  17    1.00    6.10
  16 -13  17    8.30    6.30
  16 -14  17   -0.10    6.30
  16 -15  17   12.10    7.40
  16 -16  17    4.70    6.80
   2  15 -17   11.00    6.40
  17  -2  17   15.60    7.50
   3  14 -17   10.20    6.10
  17  -3  17   20.80    6.90
  17  -4  17    2.90    6.60
  17  -5  17    1.40    6.00
  17  -6  17    6.80    7.00
  17  -7  17    7.60    6.70
  17  -8  17   28.20    7.50
  17  -9  17    5.50    6.50
  17 -10  17   10.20    6.70
  17 -11  17    6.20    6.90
  17 -12  17    0.80    6.50
  17 -13  17   -2.50    6.50
  17 -14  17    3.90    7.00
  17 -15  17    5.10    7.40
  18  -4  17   -8.30    6.90
  18  -5  17   19.60    7.90
  18  -6  17  -19.70    6.50
  18  -7  17    0.40    7.30
  18  -8  17   -2.50    7.00
  18  -9  17   19.70    7.70
  18 -10  17    8.30    7.30
  18 -11  17   11.20    7.30
  18 -12  17   -7.70    6.80
  18 -13  17   23.10    7.90
  18 -14  17   34.30   11.20
   3  -6  18    0.00    3.20
   3  -7  18    4.50    3.60
   4  -5  18  191.18    9.60
   4  -6  18  151.18    8.60
   4  -7  18   71.79    6.30
   4  -8  18  130.29    8.60
   4  -9  18   14.30    4.30
   3  -8  18   88.19    7.20
   2  -7  18  109.99    9.90
   5  -4  18  502.35   17.20
   5  -5  18   17.10    4.10
   5  -6  18   82.19    6.90
   5  -7  18    7.00    3.60
   5  -8  18    0.00    3.60
   5  -9  18    7.60    3.90
   5 -10  18    2.20    3.90
   5 -11  18   40.30    6.10
   4 -10  18    5.30    4.20
   3  -9  18   27.30    4.80
   2  -8  18   68.39    6.30
   6  -3  18    1.30    3.30
   6  -4  18  944.21   28.40
   6  -5  18  597.74   19.90
   6  -6  18   11.60    4.00
   6  -7  18   67.89    6.40
   6  -8  18    8.20    3.90
   6  -9  18   54.59    6.10
   6 -10  18   21.30    4.80
   6 -11  18   33.20    5.80
   6 -12  18  105.49    9.00
   6 -13  18    5.50    5.00
   5 -12  18   34.30    6.20
   4 -11  18   18.40    5.10
   3 -10  18   40.00    5.60
   2  -9  18   14.90    4.40
   7  -1  18   66.39    9.80
   7  -2  18    1.50    3.50
   7  -3  18   71.69    6.50
   7  -4  18    8.00    3.80
   7  -5  18  133.49    8.80
   7  -6  18   21.70    4.50
   7  -7  18  236.98   11.70
   7  -8  18   49.99    6.10
   7  -9  18  116.29    9.00
   7 -10  18  482.35   18.10
   7 -11  18   94.09    8.10
   7 -12  18   45.10    6.70
   7 -13  18  -10.60    4.40
   7 -14  18   52.59    7.50
   7 -15  18   10.40    6.00
   6 -14  18   27.10    6.50
   5 -13  18   34.30    6.50
   4 -12  18   68.89    7.60
   3 -11  18  247.38   12.40
   2 -10  18   33.50    5.50
   1  -9  18    1.70    3.90
   8   0  18    4.00    5.30
   8  -1  18   49.40    5.90
   8  -2  18    9.70    4.00
   8  -3  18    3.80    3.80
   8  -4  18  144.29    9.50
   8  -5  18   93.49    8.00
   8  -6  18   70.19    6.70
   8  -7  18   53.29    6.10
   8  -8  18    2.20    3.80
   8  -9  18    6.90    4.20
   8 -10  18  167.78   10.70
   8 -11  18  253.47   12.90
   8 -12  18   13.80    5.20
   8 -13  18   55.89    7.30
   8 -14  18   22.80    6.20
   8 -15  18  113.79   10.00
   8 -16  18   74.79    9.00
   8 -17  18   -2.10    6.20
   7 -16  18   -4.40    5.90
   6 -15  18   18.70    6.30
   5 -14  18  109.09    9.40
   4 -13  18   14.50    5.40
   3 -12  18  370.56   16.10
   2 -11  18  134.69   10.00
  -1  10 -18    5.20    3.90
   9   1  18   -2.30    4.80
   9   0  18    2.40    4.00
   9  -1  18    3.60    4.20
   9  -2  18  108.99    8.70
   9  -3  18   56.49    6.30
   9  -4  18    4.50    4.00
   9  -5  18   10.90    4.40
   9  -6  18   25.00    5.00
   9  -7  18   30.20    5.40
   9  -8  18    8.80    4.30
   9  -9  18   -5.40    3.90
   9 -10  18   55.49    6.70
   9 -11  18   20.00    5.40
   9 -12  18   74.89    7.80
   9 -13  18   83.39    8.20
   9 -14  18    5.10    5.10
   9 -15  18   48.40    7.70
   9 -16  18  176.78   13.20
   9 -17  18   50.79    8.70
   7 -17  18   21.50    7.30
   6 -16  18   -6.80    5.80
   5 -15  18    4.30    5.70
   4 -14  18   65.89    7.90
  -3  13 -18   10.20    4.90
  -2  12 -18   29.50    5.50
  -1  11 -18   14.70    4.60
  10   1  18   20.90    5.10
  10   0  18  133.49   10.20
  10  -1  18   68.59    7.10
  10  -2  18  189.08   11.60
  10  -3  18  503.05   19.00
  10  -4  18   33.90    5.80
  10  -5  18    2.00    4.20
  10  -6  18    9.50    4.50
  10  -7  18   40.60    5.90
  10  -8  18   32.00    5.70
  10  -9  18   -0.90    4.30
  10 -10  18  124.29   10.40
  10 -11  18   70.29    7.80
  10 -12  18   43.70    6.50
  10 -13  18   60.39    7.60
  10 -14  18    1.30    5.20
  10 -15  18   -5.10    5.10
  10 -16  18   -3.00    6.00
  10 -17  18   15.60    7.30
  -6  17 -18    0.80    5.80
  -5  16 -18   41.00    7.20
  -4  15 -18    8.10    5.30
  -3  14 -18  107.19    9.10
  -2  13 -18  101.29    8.80
  11   2  18   98.59    8.60
  -1  12 -18   28.40    6.10
  11   1  18   37.60    6.30
   0  11 -18    2.90    4.70
  11   0  18    6.60    5.00
  11  -1  18   60.09    7.00
  11  -2  18   19.40    5.60
  11  -3  18  270.47   13.90
  11  -4  18   96.69    8.60
  11  -5  18   41.10    6.40
  11  -6  18   46.40    6.60
  11  -7  18   35.10    6.20
  11  -8  18  250.97   13.20
  11  -9  18  142.29   11.10
  11 -10  18    7.90    5.30
  11 -11  18    6.10    5.20
  11 -12  18   23.20    6.00
  11 -13  18    1.70    4.90
  11 -14  18    8.10    5.40
  11 -15  18   -5.20    5.30
  11 -16  18   66.39    8.90
  11 -17  18   27.50    7.80
  -5  17 -18   45.10    7.70
  -4  16 -18   64.29    8.40
  -3  15 -18   10.60    5.90
  12   3  18   12.10    6.20
  -2  14 -18   24.00    6.40
  12   2  18   22.20    6.30
  -1  13 -18   50.29    7.00
  12   1  18   48.50    7.20
   0  12 -18    5.90    5.30
  12   0  18    8.10    5.20
  12  -1  18   32.20    6.40
  12  -2  18   49.30    7.00
  12  -3  18   84.09    8.60
  12  -4  18   16.70    5.60
  12  -5  18   47.80    6.80
  12  -6  18  105.39    9.20
  12  -7  18   43.90    6.80
  12  -8  18   70.59    8.00
  12  -9  18  409.06   17.60
  12 -10  18   39.40    6.80
  12 -11  18   37.90    6.80
  12 -12  18    9.50    5.60
  12 -13  18   73.39    8.40
  12 -14  18   38.50    7.00
  12 -15  18    0.40    5.60
  12 -16  18   41.30    7.90
  12 -17  18    3.80    6.60
  -4  17 -18  108.19   10.20
  -3  16 -18   42.00    7.70
  13   3  18   38.10    7.50
  -2  15 -18   17.60    6.40
  13   2  18   31.60    7.00
  -1  14 -18    6.70    5.50
  13   1  18   10.80    6.20
   0  13 -18    0.90    5.10
  13   0  18    5.50    5.80
  13  -1  18   74.09    8.20
  13  -2  18    0.80    5.00
  13  -3  18   52.99    7.60
  13  -4  18   91.79    9.20
  13  -5  18   45.30    7.30
  13  -6  18    0.90    5.20
  13  -7  18    5.30    5.30
  13  -8  18   35.40    6.70
  13  -9  18    8.20    5.40
  13 -10  18    8.80    5.40
  13 -11  18  101.59    9.60
  13 -12  18   53.09    7.90
  13 -13  18    1.90    5.60
  13 -14  18   95.99    9.80
  13 -15  18  159.78   13.20
  13 -16  18    4.20    6.50
  13 -17  18   13.60    7.20
  -2  16 -18   21.50    6.90
  14   2  18   18.60    7.00
  -1  15 -18   27.70    6.50
  14   1  18   37.30    7.50
   0  14 -18   -0.90    5.20
  14   0  18    9.20    6.20
   1  13 -18  105.29    9.80
  14  -1  18  137.89   12.00
  14  -2  18   57.59    7.90
  14  -3  18    8.80    5.80
  14  -4  18    7.90    5.90
  14  -5  18    2.40    5.40
  14  -6  18   21.30    6.20
  14  -7  18   46.10    7.40
  14  -8  18   20.30    6.00
  14  -9  18  152.98   12.60
  14 -10  18   76.49    8.60
  14 -11  18   89.19    9.50
  14 -12  18   23.30    6.80
  14 -13  18    3.30    6.00
  14 -14  18    0.50    6.00
  14 -15  18   84.49    9.70
  14 -16  18   -0.90    6.30
   0  15 -18   15.80    6.40
  15   0  18   33.60    7.80
   1  14 -18   79.09    8.70
  15  -1  18   84.09    9.20
  15  -2  18  155.08   13.30
  15  -3  18    4.70    6.10
  15  -4  18    6.70    6.30
  15  -5  18   -4.10    5.70
  15  -6  18   54.49    8.10
  15  -7  18  107.29   10.00
  15  -8  18    7.10    6.10
  15  -9  18   20.20    6.80
  15 -10  18    0.90    5.70
  15 -11  18   -2.00    5.80
  15 -12  18    3.50    6.40
  15 -13  18   28.00    7.30
  15 -14  18   25.70    7.90
  15 -15  18    4.10    6.90
  16  -2  18    3.10    6.60
  16  -3  18   18.10    7.10
  16  -4  18   62.49    9.00
  16  -5  18   70.79    9.30
  16  -6  18   12.00    6.90
  16  -7  18  173.98   14.50
  16  -8  18   81.19    9.70
  16  -9  18   18.80    6.80
  16 -10  18   11.90    6.90
  16 -11  18   31.30    7.60
  16 -12  18   39.70    8.20
  16 -13  18   43.60    8.50
  16 -14  18   22.50    8.00
  17  -4  18   16.70    7.50
  17  -5  18   24.80    8.10
  17  -6  18   33.00    8.00
  17  -7  18   24.90    7.60
  17  -8  18   69.79    9.50
  17  -9  18    4.10    6.80
  17 -10  18   32.90    8.10
  17 -11  18    4.90    7.10
  17 -12  18   42.30    8.80
  17 -13  18   99.69   11.30
   4  -8  19  187.38   11.20
   4  -9  19   37.60    5.80
   5  -7  19    9.00    4.10
   5  -8  19    5.80    4.00
   5  -9  19   22.30    5.10
   5 -10  19    0.00    4.30
   5 -11  19   75.59    7.70
   4 -10  19   12.00    4.80
   6  -6  19   31.70    5.20
   6  -7  19   55.49    6.20
   6  -8  19   14.70    4.60
   6  -9  19  113.39    9.40
   6 -10  19   68.99    7.20
   6 -11  19   55.69    7.10
   6 -12  19  132.39   11.40
   6 -13  19    6.10    5.30
   5 -12  19   63.69    7.70
   4 -11  19   11.00    5.30
   3 -10  19   72.49    7.10
   7  -5  19  231.28   11.70
   7  -6  19   12.10    4.30
   7  -7  19  186.28   10.90
   7  -8  19   42.80    6.10
   7  -9  19   93.59    7.90
   7 -10  19  684.83   23.50
   7 -11  19  118.59   10.20
   7 -12  19   66.59    7.70
   7 -13  19    0.40    5.40
   7 -14  19   51.99    7.70
   7 -15  19   21.90    7.10
   6 -14  19   29.00    6.70
   5 -13  19   41.60    7.00
   4 -12  19   86.49    8.40
   3 -11  19  315.17   14.70
   8  -3  19    8.90    6.60
   8  -4  19  196.08   11.10
   8  -5  19  115.59    9.20
   8  -6  19  132.49    9.80
   8  -7  19  123.59    9.70
   8  -8  19   12.30    4.80
   8  -9  19   -1.30    4.40
   8 -10  19  198.98   11.70
   8 -11  19  282.97   14.20
   8 -12  19   36.20    6.50
   8 -13  19   35.40    6.90
   8 -14  19   32.00    7.00
   8 -15  19  185.88   13.60
   8 -16  19  110.69   10.70
   7 -16  19    8.40    6.60
   6 -15  19   26.90    6.80
   5 -14  19  167.98   12.40
   4 -13  19   10.40    5.70
   3 -12  19  449.06   18.20
   9  -2  19   99.99   10.30
   9  -3  19   91.19    8.10
   9  -4  19   20.50    5.20
   9  -5  19   33.40    5.80
   9  -6  19   35.40    5.80
   9  -7  19   21.10    5.20
   9  -8  19   12.00    5.00
   9  -9  19    1.20    4.60
   9 -10  19   35.30    6.30
   9 -11  19   17.70    5.40
   9 -12  19   97.59    8.90
   9 -13  19   90.69    8.80
   9 -14  19   -0.90    5.60
   9 -15  19   43.30    8.20
   9 -16  19  242.18   15.70
   6 -16  19   -6.60    5.80
   5 -15  19   -1.60    5.70
  -4  14 -19  102.89    9.10
  -3  13 -19    6.70    5.20
  -2  12 -19   29.90    6.50
  10  -1  19   46.90    8.80
  10  -2  19  227.28   13.00
  10  -3  19  687.13   23.70
  10  -4  19   86.49    8.40
  10  -5  19   -6.70    4.30
  10  -6  19    5.00    4.80
  10  -7  19   71.89    7.50
  10  -8  19  106.79    9.10
  10  -9  19   -0.90    4.80
  10 -10  19  123.09   10.70
  10 -11  19   69.89    8.10
  10 -12  19   71.89    8.00
  10 -13  19   42.70    7.10
  10 -14  19    0.00    5.80
  10 -15  19   -6.10    5.70
  10 -16  19    4.10    7.00
  -5  16 -19   32.80    7.30
  -4  15 -19   -4.50    5.40
  -3  14 -19  113.09    9.90
  -2  13 -19  139.79   11.30
  11  -1  19   73.99    8.10
  11  -2  19   30.20    6.30
  11  -3  19  288.37   14.60
  11  -4  19  105.49    9.20
  11  -5  19   56.39    7.30
  11  -6  19   78.69    8.10
  11  -7  19    8.60    5.30
  11  -8  19  320.87   15.40
  11  -9  19  172.68   12.10
  11 -10  19   13.10    5.90
  11 -11  19    6.10    5.40
  11 -12  19   12.60    5.90
  11 -13  19   15.10    5.80
  11 -14  19    9.50    6.10
  11 -15  19    5.50    6.30
  11 -16  19   60.49    9.10
  -3  15 -19   14.90    6.30
  -2  14 -19   30.40    6.90
  12   0  19    8.00    5.80
  12  -1  19   19.10    6.10
  12  -2  19   80.99    9.00
  12  -3  19  120.29   10.00
  12  -4  19   24.30    6.20
  12  -5  19   72.39    8.40
  12  -6  19  138.19   11.80
  12  -7  19   56.99    7.80
  12  -8  19   96.69    9.10
  12  -9  19  464.85   19.40
  12 -10  19   36.70    7.00
  12 -11  19   39.40    7.30
  12 -12  19    6.30    5.80
  12 -13  19   91.39    9.40
  12 -14  19  101.49    9.80
  12 -15  19    2.80    6.30
  -2  15 -19   18.40    6.60
  -1  14 -19    3.90    6.10
  13   1  19    9.40    6.60
  13   0  19    0.70    6.00
  13  -1  19  101.89    9.60
  13  -2  19   22.80    7.00
  13  -3  19   49.80    7.80
  13  -4  19  101.59    9.60
  13  -5  19   46.80    7.30
  13  -6  19   -2.10    5.30
  13  -7  19   11.00    5.90
  13  -8  19   33.40    6.70
  13  -9  19   14.00    6.00
  13 -10  19    9.60    6.10
  13 -11  19  115.19   10.40
  13 -12  19   75.99    9.40
  13 -13  19   -5.80    5.90
  13 -14  19  173.98   13.80
  13 -15  19   72.59    9.00
  14   0  19    7.90    6.60
  14  -1  19  180.68   13.90
  14  -2  19  104.19   10.10
  14  -3  19    9.50    6.80
  14  -4  19   -7.30    5.70
  14  -5  19    8.90    6.10
  14  -6  19   35.40    7.40
  14  -7  19   57.69    8.10
  14  -8  19   36.60    7.70
  14  -9  19  159.38   13.50
  14 -10  19   92.59    9.80
  14 -11  19   85.99    9.80
  14 -12  19   32.70    7.80
  14 -13  19    4.00    6.40
  14 -14  19    1.90    6.70
  15  -2  19  117.29   10.90
  15  -3  19    0.80    6.60
  15  -4  19    6.20    6.80
  15  -5  19   -4.10    6.20
  15  -6  19   55.49    8.90
  15  -7  19  188.08   14.80
  15  -8  19   23.40    7.30
  15  -9  19   25.80    7.50
  15 -10  19    3.40    6.40
  15 -11  19   -5.50    6.00
  15 -12  19   12.90    7.00
  15 -13  19   16.40    7.70
  16  -5  19   55.19    9.00
  16  -6  19    8.40    7.20
  16  -7  19  225.78   16.40
  16  -8  19  126.99   11.60
  16  -9  19    3.30    6.80
  16 -10  19    1.60    6.80
  16 -11  19   52.19    8.90
   5 -11  20   39.20    6.40
   6  -9  20   43.30    6.60
   6 -10  20   33.80    6.20
   6 -11  20   44.20    6.90
   6 -12  20   77.79    8.50
   6 -13  20    9.40    5.90
   5 -12  20   40.50    7.00
   7  -8  20   25.70    5.60
   7  -9  20   31.60    5.80
   7 -10  20  350.66   15.60
   7 -11  20   57.29    7.40
   7 -12  20   34.00    6.80
   7 -13  20   -6.30    5.40
   7 -14  20   57.29    8.20
   7 -15  20   15.00    6.70
   6 -14  20   20.60    6.60
   5 -13  20   36.70    6.90
   4 -12  20   27.50    6.90
   8  -7  20   38.70    6.10
   8  -8  20   -2.00    4.50
   8  -9  20   -3.90    4.40
   8 -10  20  102.59    8.90
   8 -11  20  155.78   11.80
   8 -12  20    9.00    5.50
   8 -13  20   21.00    6.40
   8 -14  20   28.60    7.10
   8 -15  20   75.29    9.50
   5 -14  20   58.89    8.20
   4 -13  20    9.10    6.10
   9  -6  20   23.30    5.60
   9  -7  20    8.70    5.00
   9  -8  20    7.20    5.10
   9  -9  20   -3.30    4.60
   9 -10  20   35.40    6.60
   9 -11  20   11.80    5.50
   9 -12  20   68.29    8.10
   9 -13  20   56.29    7.90
   9 -14  20    6.10    6.20
  -4  14 -20   48.30    7.60
  10  -5  20   -0.80    5.00
  10  -6  20   15.70    5.50
  10  -7  20   31.20    6.40
  10  -8  20   29.10    6.10
  10  -9  20   -4.40    4.90
  10 -10  20   85.69    8.90
  10 -11  20   41.50    7.10
  10 -12  20   22.20    6.30
  10 -13  20   14.20    6.20
  10 -14  20    7.10    6.00
  11  -4  20   62.99    7.70
  11  -5  20   37.70    6.70
  11  -6  20   45.00    7.20
  11  -7  20   12.40    5.60
  11  -8  20  142.89   11.70
  11  -9  20   89.69    9.00
  11 -10  20   -1.70    5.50
  11 -11  20    1.60    5.60
  11 -12  20   41.40    7.20
  11 -13  20   -0.30    5.60
  11 -14  20    9.10    6.40
  12  -3  20   60.89    8.10
  12  -4  20   11.80    6.10
  12  -5  20   41.00    7.20
  12  -6  20   76.29    8.70
  12  -7  20   35.20    7.00
  12  -8  20   28.20    6.80
  12  -9  20  279.27   15.30
  12 -10  20   15.10    6.40
  12 -11  20   33.50    7.30
  12 -12  20    4.90    6.20
  12 -13  20   34.00    7.40
  13  -2  20    4.30    6.70
  13  -3  20   25.90    7.30
  13  -4  20   74.69    9.00
  13  -5  20   36.20    7.40
  13  -6  20   -5.40    5.50
  13  -7  20   -3.70    5.70
  13  -8  20   34.10    7.30
  13  -9  20    8.10    6.40
  13 -10  20   -0.80    5.90
  13 -11  20   74.29    9.30
  13 -12  20   36.10    8.00
  13 -13  20   -0.70    6.50
  14  -3  20    2.70    6.70
  14  -4  20    4.00    6.40
  14  -5  20    0.60    6.30
  14  -6  20   22.00    7.30
  14  -7  20   52.69    8.30
  14  -8  20    9.60    6.50
  14  -9  20   71.29    9.10
  14 -10  20   41.70    8.40
  14 -11  20   51.39    8.60
  15  -7  20   81.29    9.90
  15  -8  20    0.50    6.80
   6 -13  21   14.80    9.20
   7 -12  21    7.90    6.30
   7 -13  21   30.40    7.20
   8 -10  21    4.40    7.40
   8 -11  21   48.80    7.20
   8 -12  21    6.30    5.80
   8 -13  21    6.40    6.40
   9  -9  21    5.00    6.10
   9 -10  21   26.50    6.20
   9 -11  21    6.00    5.70
   9 -12  21   21.80    6.50
  10  -8  21   -2.60    5.40
  10  -9  21   -1.00    5.20
  10 -10  21   22.20    6.40
  10 -11  21   -4.10    5.20
  10 -12  21    8.10    6.00
  11  -7  21   -1.60    5.50
  11  -8  21    5.90    5.70
  11  -9  21   -3.70    5.40
  11 -10  21   10.40    6.20
  11 -11  21    7.70    6.10
  12  -6  21    4.30    6.20
  12  -7  21   18.00    6.40
  12  -8  21   -1.40    5.80
  12  -9  21   69.49    8.80
  12 -10  21   -0.50    6.00
  13  -5  21   -1.20    7.10
  13  -6  21   21.90    7.20
  13  -7  21   19.50    7.00
  13  -8  21    1.50    6.10
   0   0   0    0.00    0.00

_computing_structure_solution     'SHELXT 2014/5 (Sheldrick, 2014)'
;
_shelx_hkl_checksum              90336
_shelx_fab_file
;
    0    1    0    -56.74      0.00
   -1    2    0    283.58      0.00
    0    2    0   -122.56      0.00
   -2    3    0    -96.46      0.00
   -1    3    0    129.00      0.00
    0    3    0    -69.48      0.00
   -3    4    0     86.15      0.00
   -2    4    0     92.16      0.00
   -1    4    0    -49.74      0.00
    0    4    0     35.47      0.00
   -4    5    0     69.22      0.00
   -3    5    0     18.82      0.00
   -2    5    0    100.43      0.00
   -1    5    0      3.45      0.00
    0    5    0     -8.74      0.00
   -5    6    0    -26.55      0.00
   -4    6    0    -33.69      0.00
   -3    6    0     56.06      0.00
   -2    6    0     35.80      0.00
   -1    6    0    -21.79      0.00
    0    6    0     35.97      0.00
   -6    7    0      3.22      0.00
   -5    7    0     36.73      0.00
   -4    7    0     12.86      0.00
   -3    7    0    -21.26      0.00
   -2    7    0    -26.36      0.00
   -1    7    0     19.51      0.00
    0    7    0      8.73      0.00
   -7    8    0     11.52      0.00
   -6    8    0     -3.58      0.00
   -5    8    0    -27.58      0.00
   -4    8    0     32.28      0.00
   -3    8    0     27.07      0.00
   -2    8    0     19.51      0.00
   -1    8    0    -11.62      0.00
    0    8    0     -8.60      0.00
   -8    9    0     23.38      0.00
   -7    9    0      5.14      0.00
   -6    9    0     -5.70      0.00
   -5    9    0     -3.80      0.00
   -4    9    0     14.28      0.00
   -3    9    0      0.42      0.00
   -2    9    0     -3.36      0.00
   -1    9    0     24.48      0.00
    0    9    0      4.73      0.00
   -9   10    0     -1.34      0.00
   -8   10    0      5.37      0.00
   -7   10    0     11.69      0.00
   -6   10    0     -7.76      0.00
   -5   10    0     19.71      0.00
   -4   10    0     14.37      0.00
   -3   10    0     25.59      0.00
   -2   10    0      4.87      0.00
   -1   10    0     -7.19      0.00
    0   10    0     -9.99      0.00
  -10   11    0     -9.60      0.00
   -9   11    0    -17.11      0.00
   -8   11    0     18.67      0.00
   -7   11    0     -4.14      0.00
   -6   11    0      6.24      0.00
   -5   11    0     27.96      0.00
   -4   11    0      2.09      0.00
   -3   11    0     17.66      0.00
   -2   11    0    -12.88      0.00
   -1   11    0     10.26      0.00
    0   11    0      5.61      0.00
  -11   12    0     -4.48      0.00
  -10   12    0     19.12      0.00
   -9   12    0      0.54      0.00
   -8   12    0     -6.26      0.00
   -7   12    0     -3.62      0.00
   -6   12    0     17.76      0.00
   -5   12    0     15.05      0.00
   -4   12    0    -10.69      0.00
   -3   12    0     -5.21      0.00
   -2   12    0      3.20      0.00
   -1   12    0     11.48      0.00
    0   12    0      5.39      0.00
  -12   13    0      3.91      0.00
  -11   13    0     -0.67      0.00
  -10   13    0     -1.45      0.00
   -9   13    0      2.70      0.00
   -8   13    0      2.78      0.00
   -7   13    0     -3.06      0.00
   -6   13    0      2.79      0.00
   -5   13    0     -9.12      0.00
   -4   13    0     17.14      0.00
   -3   13    0      3.86      0.00
   -2   13    0     -1.64      0.00
   -1   13    0      3.32      0.00
    0   13    0      3.54      0.00
  -13   14    0      5.96      0.00
  -12   14    0      4.41      0.00
  -11   14    0      5.60      0.00
  -10   14    0      7.16      0.00
   -9   14    0    -16.45      0.00
   -8   14    0      1.07      0.00
   -7   14    0      4.54      0.00
   -6   14    0      0.63      0.00
   -5   14    0      7.05      0.00
   -4   14    0      3.12      0.00
   -3   14    0     -5.15      0.00
   -2   14    0     -0.53      0.00
   -1   14    0     -5.87      0.00
    0   14    0     11.47      0.00
  -14   15    0      3.71      0.00
  -13   15    0      3.74      0.00
  -12   15    0     -3.21      0.00
  -11   15    0     -2.30      0.00
  -10   15    0     -7.18      0.00
   -9   15    0      9.80      0.00
   -8   15    0     -5.46      0.00
   -7   15    0     13.43      0.00
   -6   15    0    -16.29      0.00
   -5   15    0      0.54      0.00
   -4   15    0      4.68      0.00
   -3   15    0     10.57      0.00
   -2   15    0     22.55      0.00
   -1   15    0      0.05      0.00
    0   15    0      0.02      0.00
  -15   16    0     -2.72      0.00
  -14   16    0      1.85      0.00
  -13   16    0     -6.94      0.00
  -12   16    0     -1.59      0.00
  -11   16    0      4.31      0.00
  -10   16    0    -19.76      0.00
   -9   16    0      9.68      0.00
   -8   16    0      6.31      0.00
   -7   16    0    -29.20      0.00
   -6   16    0     -7.92      0.00
   -5   16    0     14.78      0.00
   -4   16    0      5.55      0.00
   -3   16    0      3.73      0.00
   -2   16    0     -4.28      0.00
   -1   16    0      5.39      0.00
    0   16    0     -0.77      0.00
  -16   17    0     -3.10      0.00
  -15   17    0     -4.95      0.00
  -14   17    0     -2.68      0.00
  -13   17    0      4.10      0.00
  -12   17    0      4.23      0.00
  -11   17    0     -6.42      0.00
  -10   17    0     10.92      0.00
   -9   17    0     -6.54      0.00
   -8   17    0    -11.82      0.00
   -7   17    0     10.92      0.00
   -6   17    0     -4.49      0.00
   -5   17    0     13.74      0.00
   -4   17    0     -8.10      0.00
   -3   17    0     15.40      0.00
   -2   17    0     -5.91      0.00
   -1   17    0      0.70      0.00
    0   17    0     -2.83      0.00
  -17   18    0      2.01      0.00
  -16   18    0      0.02      0.00
  -15   18    0     -2.89      0.00
  -14   18    0      5.60      0.00
  -13   18    0      0.30      0.00
  -12   18    0     12.10      0.00
  -11   18    0    -11.50      0.00
  -10   18    0     -8.01      0.00
   -9   18    0     12.51      0.00
   -8   18    0     -1.26      0.00
   -7   18    0     -0.53      0.00
   -6   18    0     10.92      0.00
   -5   18    0     -3.51      0.00
   -4   18    0     -1.98      0.00
   -3   18    0     -4.12      0.00
   -2   18    0     -5.77      0.00
   -1   18    0      4.71      0.00
    0   18    0      2.93      0.00
  -18   19    0     -4.10      0.00
  -17   19    0     -2.34      0.00
  -16   19    0      1.93      0.00
  -15   19    0      6.42      0.00
  -14   19    0     -3.21      0.00
  -13   19    0      1.14      0.00
  -12   19    0      4.99      0.00
  -11   19    0     -0.03      0.00
  -10   19    0      8.10      0.00
   -9   19    0    -10.69      0.00
   -8   19    0      2.46      0.00
   -7   19    0      4.81      0.00
   -6   19    0      5.65      0.00
   -5   19    0     -6.86      0.00
   -4   19    0      3.03      0.00
   -3   19    0      5.26      0.00
   -2   19    0     -3.49      0.00
   -1   19    0     -5.95      0.00
    0   19    0     -6.49      0.00
  -19   20    0      6.63      0.00
  -18   20    0     -1.99      0.00
  -17   20    0      6.24      0.00
  -16   20    0      3.05      0.00
  -15   20    0      1.15      0.00
  -14   20    0      9.98      0.00
  -13   20    0     -2.91      0.00
  -12   20    0      0.40      0.00
  -11   20    0      7.73      0.00
  -10   20    0    -12.40      0.00
   -9   20    0      6.36      0.00
   -8   20    0      0.46      0.00
   -7   20    0      0.29      0.00
   -6   20    0     -4.03      0.00
   -5   20    0     -6.59      0.00
   -4   20    0      2.77      0.00
   -3   20    0     -3.35      0.00
   -2   20    0     -5.31      0.00
   -1   20    0      5.03      0.00
    0   20    0     -2.91      0.00
  -20   21    0     -3.84      0.00
  -19   21    0      2.94      0.00
  -18   21    0     -9.58      0.00
  -17   21    0     -1.59      0.00
  -16   21    0     13.13      0.00
  -15   21    0     13.36      0.00
  -14   21    0     -1.04      0.00
  -13   21    0     18.54      0.00
  -12   21    0    -21.45      0.00
  -11   21    0      8.24      0.00
  -10   21    0      1.57      0.00
   -9   21    0      0.70      0.00
   -8   21    0     -6.11      0.00
   -7   21    0      3.39      0.00
   -6   21    0     10.65      0.00
   -5   21    0      3.81      0.00
   -4   21    0      4.42      0.00
   -3   21    0    -19.51      0.00
   -2   21    0     -0.12      0.00
   -1   21    0      3.46      0.00
    0   21    0      1.51      0.00
  -21   22    0     -0.88      0.00
  -20   22    0     -8.42      0.00
  -19   22    0      2.86      0.00
  -18   22    0      7.85      0.00
  -17   22    0      8.89      0.00
  -16   22    0      0.39      0.00
  -15   22    0     18.21      0.00
  -14   22    0      0.42      0.00
  -13   22    0      0.15      0.00
  -12   22    0      5.63      0.00
  -11   22    0      8.64      0.00
  -10   22    0     -1.88      0.00
   -9   22    0     -7.75      0.00
   -8   22    0     -4.26      0.00
   -7   22    0      0.99      0.00
   -6   22    0      2.71      0.00
   -5   22    0      7.38      0.00
   -4   22    0      4.13      0.00
   -3   22    0     -3.03      0.00
   -2   22    0     -2.91      0.00
   -1   22    0     -9.22      0.00
    0   22    0     -3.38      0.00
  -22   23    0    -10.58      0.00
  -21   23    0    -10.53      0.00
  -20   23    0      2.55      0.00
  -19   23    0      3.16      0.00
  -18   23    0      1.57      0.00
  -17   23    0      2.34      0.00
  -16   23    0      2.32      0.00
  -15   23    0     -9.60      0.00
  -14   23    0      1.90      0.00
  -13   23    0      5.86      0.00
  -12   23    0     -0.60      0.00
  -11   23    0      3.08      0.00
  -10   23    0     -0.26      0.00
   -9   23    0      3.16      0.00
   -8   23    0     -4.24      0.00
   -7   23    0      7.12      0.00
   -6   23    0     -2.04      0.00
   -5   23    0      8.26      0.00
   -4   23    0      0.34      0.00
   -3   23    0     -4.11      0.00
   -2   23    0      6.27      0.00
   -1   23    0     -0.71      0.00
    0   23    0     -0.80      0.00
  -22   24    0     -1.16      0.00
  -21   24    0      4.17      0.00
  -20   24    0      7.40      0.00
  -19   24    0     -3.63      0.00
  -18   24    0     19.72      0.00
  -17   24    0     -4.12      0.00
  -16   24    0      8.76      0.00
  -15   24    0     12.40      0.00
  -14   24    0      3.46      0.00
  -13   24    0    -10.14      0.00
  -12   24    0      0.63      0.00
  -11   24    0      1.11      0.00
  -10   24    0      5.54      0.00
   -9   24    0     -6.07      0.00
   -8   24    0     -3.31      0.00
   -7   24    0      3.72      0.00
   -6   24    0     -2.76      0.00
   -5   24    0     -6.20      0.00
   -4   24    0     -0.38      0.00
   -3   24    0     12.14      0.00
   -2   24    0     -1.11      0.00
  -20   25    0      9.17      0.00
  -19   25    0     14.60      0.00
  -18   25    0      0.47      0.00
  -17   25    0      2.40      0.00
  -16   25    0     -2.71      0.00
  -15   25    0      6.84      0.00
  -14   25    0     14.57      0.00
  -13   25    0      0.80      0.00
  -12   25    0      3.89      0.00
  -11   25    0     -3.08      0.00
  -10   25    0     -0.33      0.00
   -9   25    0     17.33      0.00
   -8   25    0      4.60      0.00
   -7   25    0    -17.47      0.00
   -6   25    0      4.36      0.00
   -5   25    0      4.40      0.00
  -17   26    0      0.22      0.00
  -16   26    0     15.09      0.00
  -15   26    0      2.70      0.00
  -14   26    0      6.30      0.00
  -13   26    0      6.41      0.00
  -12   26    0      1.36      0.00
  -11   26    0      6.53      0.00
  -10   26    0     -0.91      0.00
   -9   26    0    -23.15      0.00
   -8   26    0      7.99      0.00
    0    0    1   -188.15      0.00
    0    1    1   -137.90      0.00
   -1    2    1     -5.01      0.00
   -1    3    1     64.15      0.00
    0    2    1    121.47      0.00
   -2    3    1     -4.17      0.00
   -2    4    1    -39.36      0.00
   -2    5    1    -47.15      0.00
   -1    4    1      3.06      0.00
    0    3    1     28.66      0.00
   -3    4    1     31.81      0.00
   -3    5    1    -33.69      0.00
   -3    6    1     -6.51      0.00
   -3    7    1     -5.08      0.00
   -2    6    1     38.83      0.00
   -1    5    1     34.15      0.00
    0    4    1     -6.34      0.00
   -4    5    1     30.81      0.00
   -4    6    1     -5.55      0.00
   -4    7    1     26.91      0.00
   -4    8    1      8.22      0.00
   -4    9    1     -2.02      0.00
   -3    8    1      4.43      0.00
   -2    7    1      5.10      0.00
   -1    6    1     -3.60      0.00
    0    5    1      5.84      0.00
   -5    6    1     -5.77      0.00
   -5    7    1     17.63      0.00
   -5    8    1     18.13      0.00
   -5    9    1      1.60      0.00
   -5   10    1      0.97      0.00
   -5   11    1      2.83      0.00
   -4   10    1    -10.55      0.00
   -3    9    1      0.83      0.00
   -2    8    1     24.33      0.00
   -1    7    1     10.93      0.00
    0    6    1     24.63      0.00
   -6    7    1     15.01      0.00
   -6    8    1     -5.06      0.00
   -6    9    1     10.90      0.00
   -6   10    1      6.10      0.00
   -6   11    1     -2.04      0.00
   -6   12    1     -8.40      0.00
   -6   13    1      7.33      0.00
   -5   12    1      5.70      0.00
   -4   11    1    -23.49      0.00
   -3   10    1     16.47      0.00
   -2    9    1    -20.58      0.00
   -1    8    1      3.80      0.00
    0    7    1     -1.77      0.00
   -7    8    1     -7.72      0.00
   -7    9    1      4.32      0.00
   -7   10    1      1.20      0.00
   -7   11    1     -2.31      0.00
   -7   12    1      8.42      0.00
   -7   13    1     -7.26      0.00
   -7   14    1     -0.97      0.00
   -7   15    1     14.21      0.00
   -6   14    1      4.63      0.00
   -5   13    1     -6.16      0.00
   -4   12    1      5.04      0.00
   -3   11    1     10.87      0.00
   -2   10    1     -0.34      0.00
   -1    9    1     16.60      0.00
    0    8    1    -11.84      0.00
   -8    9    1     -1.63      0.00
   -8   10    1     -7.25      0.00
   -8   11    1      5.06      0.00
   -8   12    1     -3.20      0.00
   -8   13    1      8.73      0.00
   -8   14    1      4.65      0.00
   -8   15    1     -1.31      0.00
   -8   16    1     -2.39      0.00
   -8   17    1      2.73      0.00
   -7   16    1     21.54      0.00
   -6   15    1      4.13      0.00
   -5   14    1     -3.54      0.00
   -4   13    1     13.80      0.00
   -3   12    1      1.18      0.00
   -2   11    1     -0.50      0.00
   -1   10    1    -14.32      0.00
    0    9    1      7.42      0.00
   -9   10    1      1.94      0.00
   -9   11    1     -8.67      0.00
   -9   12    1     -8.61      0.00
   -9   13    1      4.12      0.00
   -9   14    1      4.67      0.00
   -9   15    1     15.01      0.00
   -9   16    1     -4.55      0.00
   -9   17    1      3.47      0.00
   -9   18    1      1.21      0.00
   -9   19    1      7.51      0.00
   -8   18    1      6.14      0.00
   -7   17    1      8.11      0.00
   -6   16    1      4.19      0.00
   -5   15    1      7.53      0.00
   -4   14    1      2.54      0.00
   -3   13    1      2.23      0.00
   -2   12    1      3.44      0.00
   -1   11    1     18.86      0.00
    0   10    1     -0.46      0.00
  -10   11    1     12.19      0.00
  -10   12    1     15.96      0.00
  -10   13    1     -3.63      0.00
  -10   14    1      5.96      0.00
  -10   15    1     -3.31      0.00
  -10   16    1      6.90      0.00
  -10   17    1     14.53      0.00
  -10   18    1      1.36      0.00
  -10   19    1      4.35      0.00
  -10   20    1     -2.89      0.00
  -10   21    1      3.52      0.00
   -9   20    1      4.35      0.00
   -8   19    1      3.63      0.00
   -7   18    1     -3.33      0.00
   -6   17    1      2.75      0.00
   -5   16    1      3.12      0.00
   -4   15    1     -6.70      0.00
   -3   14    1      2.65      0.00
   -2   13    1      2.40      0.00
   -1   12    1     -2.41      0.00
    0   11    1     -2.61      0.00
  -11   12    1     -0.83      0.00
  -11   13    1     -0.54      0.00
  -11   14    1      0.24      0.00
  -11   15    1      5.93      0.00
  -11   16    1     12.23      0.00
  -11   17    1      1.65      0.00
  -11   18    1      1.38      0.00
  -11   19    1      3.47      0.00
  -11   20    1      7.12      0.00
  -11   21    1      7.92      0.00
  -11   22    1     -2.91      0.00
  -11   23    1      1.14      0.00
  -10   22    1     -4.22      0.00
   -9   21    1      0.36      0.00
   -8   20    1      7.50      0.00
   -7   19    1     -2.25      0.00
   -6   18    1      2.30      0.00
   -5   17    1     -1.76      0.00
   -4   16    1     -0.37      0.00
   -3   15    1      0.90      0.00
   -2   14    1      3.69      0.00
   -1   13    1      6.74      0.00
    0   12    1     -0.30      0.00
  -12   13    1      2.54      0.00
  -12   14    1      6.28      0.00
  -12   15    1      7.23      0.00
  -12   16    1      0.06      0.00
  -12   17    1      0.93      0.00
  -12   18    1      3.16      0.00
  -12   19    1      4.26      0.00
  -12   20    1     -0.36      0.00
  -12   21    1     -2.03      0.00
  -12   22    1     -4.70      0.00
  -12   23    1      2.54      0.00
  -12   24    1      1.07      0.00
  -12   25    1      1.69      0.00
  -11   24    1      4.00      0.00
  -10   23    1     -7.72      0.00
   -9   22    1     12.73      0.00
   -8   21    1     -1.22      0.00
   -7   20    1      1.74      0.00
   -6   19    1     -4.26      0.00
   -5   18    1      5.26      0.00
   -4   17    1      1.93      0.00
   -3   16    1     -7.90      0.00
   -2   15    1      7.48      0.00
   -1   14    1     -9.61      0.00
    0   13    1      5.08      0.00
  -13   14    1      0.71      0.00
  -13   15    1      0.28      0.00
  -13   16    1      4.68      0.00
  -13   17    1     -0.76      0.00
  -13   18    1     -2.08      0.00
  -13   19    1      0.67      0.00
  -13   20    1      4.25      0.00
  -13   21    1      7.80      0.00
  -13   22    1      7.73      0.00
  -13   23    1      6.06      0.00
  -13   24    1     -4.97      0.00
  -13   25    1     -1.17      0.00
  -13   26    1      0.33      0.00
  -12   26    1     -1.39      0.00
  -11   25    1      0.45      0.00
  -10   24    1     -4.26      0.00
   -9   23    1      6.51      0.00
   -8   22    1      1.28      0.00
   -7   21    1      7.52      0.00
   -6   20    1      0.54      0.00
   -5   19    1     11.80      0.00
   -4   18    1     -0.58      0.00
   -3   17    1      7.59      0.00
   -2   16    1     -4.43      0.00
   -1   15    1     -0.70      0.00
    0   14    1      5.26      0.00
  -14   15    1     -0.67      0.00
  -14   16    1      4.51      0.00
  -14   17    1      3.65      0.00
  -14   18    1      7.65      0.00
  -14   19    1      2.46      0.00
  -14   20    1      2.93      0.00
  -14   21    1    -10.62      0.00
  -14   22    1      2.70      0.00
  -14   23    1     -3.33      0.00
  -14   24    1      2.03      0.00
  -14   25    1      2.96      0.00
  -14   26    1      3.31      0.00
  -11   26    1      0.78      0.00
  -10   25    1      4.73      0.00
   -9   24    1     -6.28      0.00
   -8   23    1     -1.65      0.00
   -7   22    1     -8.16      0.00
   -6   21    1      1.98      0.00
   -5   20    1     -0.51      0.00
   -4   19    1      1.07      0.00
   -3   18    1      2.58      0.00
   -2   17    1      1.38      0.00
   -1   16    1      1.15      0.00
    0   15    1      0.28      0.00
  -15   16    1      2.95      0.00
  -15   17    1      6.85      0.00
  -15   18    1     -5.04      0.00
  -15   19    1     -0.10      0.00
  -15   20    1      0.45      0.00
  -15   21    1      4.71      0.00
  -15   22    1     -0.50      0.00
  -15   23    1     -3.87      0.00
  -15   24    1     -3.49      0.00
  -15   25    1      1.21      0.00
  -15   26    1    -10.63      0.00
  -10   26    1      4.73      0.00
   -9   25    1      5.29      0.00
   -8   24    1     -0.22      0.00
   -7   23    1      5.05      0.00
   -6   22    1     -2.84      0.00
   -5   21    1     -8.01      0.00
   -4   20    1      1.19      0.00
   -3   19    1      1.40      0.00
   -2   18    1    -10.68      0.00
   -1   17    1      4.95      0.00
    0   16    1      2.08      0.00
  -16   17    1      1.47      0.00
  -16   18    1      9.43      0.00
  -16   19    1      0.32      0.00
  -16   20    1      0.89      0.00
  -16   21    1    -14.38      0.00
  -16   22    1     -5.57      0.00
  -16   23    1      0.11      0.00
  -16   24    1     13.25      0.00
  -16   25    1      0.62      0.00
  -16   26    1     -9.96      0.00
   -9   26    1     -6.71      0.00
   -8   25    1     -6.03      0.00
   -7   24    1      3.65      0.00
   -6   23    1     -0.24      0.00
   -5   22    1      1.50      0.00
   -4   21    1      2.36      0.00
   -3   20    1     -4.13      0.00
   -2   19    1      2.14      0.00
   -1   18    1      8.48      0.00
    0   17    1     -4.06      0.00
  -17   18    1      3.61      0.00
  -17   19    1     -0.53      0.00
  -17   20    1      1.03      0.00
  -17   21    1      0.99      0.00
  -17   22    1      3.53      0.00
  -17   23    1     -4.75      0.00
  -17   24    1      2.59      0.00
  -17   25    1    -10.08      0.00
  -17   26    1      4.64      0.00
   -7   25    1      3.74      0.00
   -6   24    1     -0.67      0.00
   -5   23    1     -1.03      0.00
   -4   22    1     -6.00      0.00
   -3   21    1      5.30      0.00
   -2   20    1      7.69      0.00
   -1   19    1     -3.25      0.00
    0   18    1      3.16      0.00
  -18   19    1      3.11      0.00
  -18   20    1     -2.85      0.00
  -18   21    1     -0.54      0.00
  -18   22    1     -2.80      0.00
  -18   23    1      2.18      0.00
  -18   24    1      2.34      0.00
  -18   25    1     -7.83      0.00
   -6   25    1     13.78      0.00
   -5   24    1     -5.37      0.00
   -4   23    1      2.04      0.00
   -3   22    1      3.30      0.00
   -2   21    1      5.09      0.00
   -1   20    1     -2.03      0.00
    0   19    1     -0.06      0.00
  -19   20    1      5.89      0.00
  -19   21    1     -1.06      0.00
  -19   22    1      4.69      0.00
  -19   23    1     -1.95      0.00
  -19   24    1     -6.74      0.00
  -19   25    1     -8.48      0.00
   -5   25    1     -6.07      0.00
   -4   24    1     -0.98      0.00
   -3   23    1     -7.06      0.00
   -2   22    1      1.37      0.00
   -1   21    1     -6.48      0.00
    0   20    1     -4.34      0.00
  -20   21    1     -2.59      0.00
  -20   22    1     -2.27      0.00
  -20   23    1     -0.40      0.00
  -20   24    1      1.03      0.00
  -20   25    1     -0.14      0.00
   -3   24    1      5.82      0.00
   -2   23    1     -3.30      0.00
   -1   22    1     -4.59      0.00
    0   21    1     -0.10      0.00
  -21   22    1      4.91      0.00
  -21   23    1      6.72      0.00
  -21   24    1     -3.39      0.00
   -1   23    1      8.44      0.00
    0   22    1      5.03      0.00
  -22   23    1      2.86      0.00
    0   23    1     -0.25      0.00
    0    0    2     37.76      0.00
    0    1    2    -41.53      0.00
   -1    2    2    -25.47      0.00
   -1    3    2      1.31      0.00
    0    2    2     16.73      0.00
   -2    3    2    -45.42      0.00
   -2    4    2    -66.49      0.00
   -2    5    2     -0.56      0.00
   -1    4    2     12.72      0.00
    0    3    2    -38.07      0.00
   -3    4    2     20.84      0.00
   -3    5    2     10.33      0.00
   -3    6    2    -24.33      0.00
   -3    7    2    -31.90      0.00
   -2    6    2     12.67      0.00
   -1    5    2      5.72      0.00
    0    4    2    -10.70      0.00
   -4    5    2     -0.21      0.00
   -4    6    2     -0.87      0.00
   -4    7    2     -4.83      0.00
   -4    8    2    -10.37      0.00
   -4    9    2    -28.47      0.00
   -3    8    2    -14.53      0.00
   -2    7    2    -16.44      0.00
   -1    6    2    -13.23      0.00
    0    5    2    -19.16      0.00
   -5    6    2    -19.38      0.00
   -5    7    2     -6.81      0.00
   -5    8    2    -14.98      0.00
   -5    9    2      2.82      0.00
   -5   10    2      7.00      0.00
   -5   11    2    -18.21      0.00
   -4   10    2     -7.71      0.00
   -3    9    2      6.04      0.00
   -2    8    2      2.53      0.00
   -1    7    2    -21.08      0.00
    0    6    2    -11.14      0.00
   -6    7    2     -4.09      0.00
   -6    8    2    -14.37      0.00
   -6    9    2      3.45      0.00
   -6   10    2    -12.23      0.00
   -6   11    2     -1.74      0.00
   -6   12    2     -6.40      0.00
   -6   13    2      6.07      0.00
   -5   12    2      2.11      0.00
   -4   11    2     -3.85      0.00
   -3   10    2    -18.75      0.00
   -2    9    2     -0.85      0.00
   -1    8    2     -7.07      0.00
    0    7    2     -4.57      0.00
   -7    8    2     13.74      0.00
   -7    9    2     -1.32      0.00
   -7   10    2     -3.41      0.00
   -7   11    2     -2.93      0.00
   -7   12    2     -2.60      0.00
   -7   13    2     -1.26      0.00
   -7   14    2      1.38      0.00
   -7   15    2     -0.56      0.00
   -6   14    2     -3.24      0.00
   -5   13    2      6.44      0.00
   -4   12    2      1.22      0.00
   -3   11    2     17.51      0.00
   -2   10    2     -9.00      0.00
   -1    9    2      0.93      0.00
    0    8    2      5.48      0.00
   -8    9    2    -15.62      0.00
   -8   10    2     -2.82      0.00
   -8   11    2      6.11      0.00
   -8   12    2      6.98      0.00
   -8   13    2      6.99      0.00
   -8   14    2     -0.21      0.00
   -8   15    2    -10.81      0.00
   -8   16    2     -0.99      0.00
   -8   17    2     10.65      0.00
   -7   16    2      3.83      0.00
   -6   15    2      5.21      0.00
   -5   14    2      4.04      0.00
   -4   13    2     -1.31      0.00
   -3   12    2     -4.84      0.00
   -2   11    2     -4.59      0.00
   -1   10    2     20.81      0.00
    0    9    2      1.82      0.00
   -9   10    2     13.35      0.00
   -9   11    2     -7.83      0.00
   -9   12    2     -1.83      0.00
   -9   13    2      6.81      0.00
   -9   14    2      1.43      0.00
   -9   15    2     -0.62      0.00
   -9   16    2      0.42      0.00
   -9   17    2      6.50      0.00
   -9   18    2      3.92      0.00
   -9   19    2     -1.57      0.00
   -8   18    2      0.15      0.00
   -7   17    2      2.33      0.00
   -6   16    2      0.73      0.00
   -5   15    2      8.45      0.00
   -4   14    2     -3.46      0.00
   -3   13    2     -0.95      0.00
   -2   12    2     -0.19      0.00
   -1   11    2     -4.39      0.00
    0   10    2      4.56      0.00
  -10   11    2     -3.94      0.00
  -10   12    2      4.55      0.00
  -10   13    2     -2.73      0.00
  -10   14    2     -7.10      0.00
  -10   15    2      2.16      0.00
  -10   16    2      1.33      0.00
  -10   17    2     -0.92      0.00
  -10   18    2      2.42      0.00
  -10   19    2     -2.14      0.00
  -10   20    2      1.87      0.00
  -10   21    2      3.09      0.00
   -9   20    2      2.85      0.00
   -8   19    2      1.65      0.00
   -7   18    2      1.86      0.00
   -6   17    2      0.48      0.00
   -5   16    2     -1.93      0.00
   -4   15    2      4.14      0.00
   -3   14    2      5.74      0.00
   -2   13    2      2.84      0.00
   -1   12    2     -6.03      0.00
    0   11    2     -4.75      0.00
  -11   12    2      4.02      0.00
  -11   13    2    -15.98      0.00
  -11   14    2      1.34      0.00
  -11   15    2     -0.39      0.00
  -11   16    2      2.69      0.00
  -11   17    2      1.37      0.00
  -11   18    2      5.13      0.00
  -11   19    2      2.63      0.00
  -11   20    2      0.14      0.00
  -11   21    2     -1.27      0.00
  -11   22    2      4.50      0.00
  -11   23    2      9.21      0.00
  -10   22    2     -4.13      0.00
   -9   21    2     -1.03      0.00
   -8   20    2      1.07      0.00
   -7   19    2      7.14      0.00
   -6   18    2      0.95      0.00
   -5   17    2     -2.17      0.00
   -4   16    2      8.06      0.00
   -3   15    2      3.61      0.00
   -2   14    2      5.73      0.00
   -1   13    2      3.17      0.00
    0   12    2     -2.34      0.00
  -12   13    2     -2.32      0.00
  -12   14    2     -0.67      0.00
  -12   15    2     -1.43      0.00
  -12   16    2      5.06      0.00
  -12   17    2      5.71      0.00
  -12   18    2     -7.42      0.00
  -12   19    2      4.22      0.00
  -12   20    2      0.46      0.00
  -12   21    2      0.10      0.00
  -12   22    2     -0.02      0.00
  -12   23    2     -9.72      0.00
  -12   24    2      8.65      0.00
  -12   25    2      5.27      0.00
  -11   24    2     -4.12      0.00
  -10   23    2      8.35      0.00
   -9   22    2      8.19      0.00
   -8   21    2      1.98      0.00
   -7   20    2     -3.13      0.00
   -6   19    2      6.61      0.00
   -5   18    2      5.90      0.00
   -4   17    2      1.06      0.00
   -3   16    2     -1.90      0.00
   -2   15    2     -2.92      0.00
   -1   14    2      4.98      0.00
    0   13    2      1.43      0.00
  -13   14    2     -8.39      0.00
  -13   15    2      6.70      0.00
  -13   16    2      8.37      0.00
  -13   17    2      0.73      0.00
  -13   18    2      3.00      0.00
  -13   19    2      4.76      0.00
  -13   20    2     -2.70      0.00
  -13   21    2     -3.25      0.00
  -13   22    2     -1.42      0.00
  -13   23    2      6.20      0.00
  -13   24    2      3.95      0.00
  -13   25    2     -2.99      0.00
  -13   26    2     -9.95      0.00
  -12   26    2    -11.24      0.00
  -11   25    2     -0.95      0.00
  -10   24    2     -0.05      0.00
   -9   23    2      9.38      0.00
   -8   22    2     -1.21      0.00
   -7   21    2      4.99      0.00
   -6   20    2      7.96      0.00
   -5   19    2     -1.77      0.00
   -4   18    2      1.74      0.00
   -3   17    2      6.64      0.00
   -2   16    2      2.70      0.00
   -1   15    2      0.46      0.00
    0   14    2      6.33      0.00
  -14   15    2     -6.06      0.00
  -14   16    2      3.27      0.00
  -14   17    2      0.53      0.00
  -14   18    2     10.18      0.00
  -14   19    2     -4.13      0.00
  -14   20    2     -5.95      0.00
  -14   21    2     -2.58      0.00
  -14   22    2      0.15      0.00
  -14   23    2     -2.65      0.00
  -14   24    2     -3.36      0.00
  -14   25    2     -2.02      0.00
  -14   26    2     -3.88      0.00
  -11   26    2     -9.61      0.00
  -10   25    2     -5.43      0.00
   -9   24    2      3.36      0.00
   -8   23    2      5.92      0.00
   -7   22    2      2.99      0.00
   -6   21    2      1.45      0.00
   -5   20    2      2.76      0.00
   -4   19    2      2.57      0.00
   -3   18    2      2.48      0.00
   -2   17    2      8.10      0.00
   -1   16    2      7.11      0.00
    0   15    2      4.51      0.00
  -15   16    2      6.06      0.00
  -15   17    2      8.03      0.00
  -15   18    2      4.64      0.00
  -15   19    2      0.85      0.00
  -15   20    2      0.57      0.00
  -15   21    2      1.08      0.00
  -15   22    2      0.76      0.00
  -15   23    2      1.62      0.00
  -15   24    2     -0.63      0.00
  -15   25    2    -11.90      0.00
  -15   26    2     -2.50      0.00
  -10   26    2     -2.24      0.00
   -9   25    2     -0.54      0.00
   -8   24    2     -0.54      0.00
   -7   23    2      3.16      0.00
   -6   22    2     -1.56      0.00
   -5   21    2      2.11      0.00
   -4   20    2      2.65      0.00
   -3   19    2      8.77      0.00
   -2   18    2      8.11      0.00
   -1   17    2      6.20      0.00
    0   16    2      3.06      0.00
  -16   17    2      3.69      0.00
  -16   18    2     -1.48      0.00
  -16   19    2     -5.04      0.00
  -16   20    2      9.43      0.00
  -16   21    2      0.54      0.00
  -16   22    2      8.26      0.00
  -16   23    2      4.81      0.00
  -16   24    2     -5.99      0.00
  -16   25    2     -0.58      0.00
  -16   26    2      5.64      0.00
   -9   26    2      0.29      0.00
   -8   25    2      2.77      0.00
   -7   24    2      0.60      0.00
   -6   23    2    -10.25      0.00
   -5   22    2     -5.07      0.00
   -4   21    2      3.19      0.00
   -3   20    2      6.73      0.00
   -2   19    2      1.51      0.00
   -1   18    2      3.96      0.00
    0   17    2     -2.82      0.00
  -17   18    2     -1.32      0.00
  -17   19    2      3.99      0.00
  -17   20    2     11.81      0.00
  -17   21    2      2.73      0.00
  -17   22    2     -0.85      0.00
  -17   23    2     -5.01      0.00
  -17   24    2      4.81      0.00
  -17   25    2      3.46      0.00
  -17   26    2      0.71      0.00
   -7   25    2     -5.60      0.00
   -6   24    2     -1.77      0.00
   -5   23    2      0.86      0.00
   -4   22    2      4.37      0.00
   -3   21    2     -9.91      0.00
   -2   20    2      5.51      0.00
   -1   19    2     -0.26      0.00
    0   18    2     -9.68      0.00
  -18   19    2      0.39      0.00
  -18   20    2     -1.41      0.00
  -18   21    2      7.45      0.00
  -18   22    2     -1.28      0.00
  -18   23    2      1.72      0.00
  -18   24    2      1.26      0.00
  -18   25    2     -6.40      0.00
   -6   25    2     -5.20      0.00
   -5   24    2      8.54      0.00
   -4   23    2      2.21      0.00
   -3   22    2      1.97      0.00
   -2   21    2      7.50      0.00
   -1   20    2     -7.92      0.00
    0   19    2      5.82      0.00
  -19   20    2      3.03      0.00
  -19   21    2      2.19      0.00
  -19   22    2      2.61      0.00
  -19   23    2     -5.30      0.00
  -19   24    2     -5.08      0.00
  -19   25    2      0.43      0.00
   -5   25    2     11.05      0.00
   -4   24    2     -1.59      0.00
   -3   23    2      6.12      0.00
   -2   22    2     -4.78      0.00
   -1   21    2     11.12      0.00
    0   20    2      2.18      0.00
  -20   21    2      3.02      0.00
  -20   22    2      6.56      0.00
  -20   23    2      1.03      0.00
  -20   24    2      0.88      0.00
  -20   25    2      1.27      0.00
   -3   24    2      1.31      0.00
   -2   23    2      3.78      0.00
   -1   22    2      3.18      0.00
    0   21    2      6.39      0.00
  -21   22    2     -3.33      0.00
  -21   23    2      2.37      0.00
  -21   24    2     -2.76      0.00
   -1   23    2     -3.25      0.00
    0   22    2      3.34      0.00
  -22   23    2     -1.46      0.00
    0    0    3     22.60      0.00
    0    1    3    100.01      0.00
   -1    2    3    -53.13      0.00
   -1    3    3    -59.72      0.00
    0    2    3    -47.22      0.00
   -2    3    3    -21.53      0.00
   -2    4    3     69.55      0.00
   -2    5    3     -3.01      0.00
   -1    4    3      2.68      0.00
    0    3    3     11.42      0.00
   -3    4    3     -3.59      0.00
   -3    5    3     36.03      0.00
   -3    6    3    -10.84      0.00
   -3    7    3     19.86      0.00
   -2    6    3    -14.39      0.00
   -1    5    3     27.22      0.00
    0    4    3    -68.93      0.00
   -4    5    3      6.29      0.00
   -4    6    3     13.99      0.00
   -4    7    3      0.14      0.00
   -4    8    3      1.79      0.00
   -4    9    3     -7.95      0.00
   -3    8    3    -16.67      0.00
   -2    7    3     14.45      0.00
   -1    6    3     -2.43      0.00
    0    5    3    -24.77      0.00
   -5    6    3     -2.38      0.00
   -5    7    3    -26.34      0.00
   -5    8    3     13.06      0.00
   -5    9    3    -11.00      0.00
   -5   10    3      6.66      0.00
   -5   11    3     13.17      0.00
   -4   10    3     -0.47      0.00
   -3    9    3     22.43      0.00
   -2    8    3      7.48      0.00
   -1    7    3    -25.04      0.00
    0    6    3     17.90      0.00
   -6    7    3     22.44      0.00
   -6    8    3    -20.74      0.00
   -6    9    3    -14.70      0.00
   -6   10    3    -10.30      0.00
   -6   11    3      1.63      0.00
   -6   12    3      1.32      0.00
   -6   13    3      0.87      0.00
   -5   12    3    -10.70      0.00
   -4   11    3      0.43      0.00
   -3   10    3      1.52      0.00
   -2    9    3    -27.19      0.00
   -1    8    3      0.32      0.00
    0    7    3      9.87      0.00
   -7    8    3      4.82      0.00
   -7    9    3     12.42      0.00
   -7   10    3      7.08      0.00
   -7   11    3    -10.74      0.00
   -7   12    3     12.57      0.00
   -7   13    3     -5.14      0.00
   -7   14    3      8.59      0.00
   -7   15    3     -8.36      0.00
   -6   14    3     -8.72      0.00
   -5   13    3     -9.83      0.00
   -4   12    3     -3.51      0.00
   -3   11    3     -7.64      0.00
   -2   10    3    -12.01      0.00
   -1    9    3     -3.71      0.00
    0    8    3     -1.50      0.00
   -8    9    3    -14.59      0.00
   -8   10    3     10.31      0.00
   -8   11    3     13.00      0.00
   -8   12    3     -7.94      0.00
   -8   13    3    -15.89      0.00
   -8   14    3     -2.50      0.00
   -8   15    3     11.39      0.00
   -8   16    3      1.00      0.00
   -8   17    3     -2.70      0.00
   -7   16    3    -11.52      0.00
   -6   15    3     -0.61      0.00
   -5   14    3     -4.60      0.00
   -4   13    3     -6.38      0.00
   -3   12    3    -22.89      0.00
   -2   11    3      1.17      0.00
   -1   10    3    -12.56      0.00
    0    9    3     -3.22      0.00
   -9   10    3      0.54      0.00
   -9   11    3     17.00      0.00
   -9   12    3     -4.31      0.00
   -9   13    3      1.78      0.00
   -9   14    3     -6.66      0.00
   -9   15    3     -1.98      0.00
   -9   16    3      4.76      0.00
   -9   17    3     -0.38      0.00
   -9   18    3      0.12      0.00
   -9   19    3     -3.45      0.00
   -8   18    3     -5.71      0.00
   -7   17    3     -7.27      0.00
   -6   16    3     -6.48      0.00
   -5   15    3     -0.51      0.00
   -4   14    3     -6.16      0.00
   -3   13    3      3.73      0.00
   -2   12    3     -5.13      0.00
   -1   11    3      1.34      0.00
    0   10    3     -9.16      0.00
  -10   11    3     -8.28      0.00
  -10   12    3      2.13      0.00
  -10   13    3      2.47      0.00
  -10   14    3      9.90      0.00
  -10   15    3     -0.33      0.00
  -10   16    3     -3.17      0.00
  -10   17    3     -4.95      0.00
  -10   18    3     -3.45      0.00
  -10   19    3      1.94      0.00
  -10   20    3      5.54      0.00
  -10   21    3      3.72      0.00
   -9   20    3     -4.34      0.00
   -8   19    3      7.19      0.00
   -7   18    3      1.44      0.00
   -6   17    3      3.35      0.00
   -5   16    3     -4.99      0.00
   -4   15    3      0.79      0.00
   -3   14    3    -13.24      0.00
   -2   13    3     -3.57      0.00
   -1   12    3      4.45      0.00
    0   11    3    -11.22      0.00
  -11   12    3      7.31      0.00
  -11   13    3      3.39      0.00
  -11   14    3      8.65      0.00
  -11   15    3     -5.96      0.00
  -11   16    3     -0.66      0.00
  -11   17    3     -5.09      0.00
  -11   18    3     -0.42      0.00
  -11   19    3      1.48      0.00
  -11   20    3      0.70      0.00
  -11   21    3      3.13      0.00
  -11   22    3      4.74      0.00
  -11   23    3      4.18      0.00
  -10   22    3     -6.04      0.00
   -9   21    3      2.41      0.00
   -8   20    3     -1.63      0.00
   -7   19    3     -3.03      0.00
   -6   18    3      0.69      0.00
   -5   17    3      0.42      0.00
   -4   16    3      2.31      0.00
   -3   15    3     -5.82      0.00
   -2   14    3     -1.71      0.00
   -1   13    3    -16.33      0.00
    0   12    3      3.86      0.00
  -12   13    3      4.48      0.00
  -12   14    3     -4.75      0.00
  -12   15    3      1.13      0.00
  -12   16    3    -18.15      0.00
  -12   17    3     -0.17      0.00
  -12   18    3      2.29      0.00
  -12   19    3     -0.62      0.00
  -12   20    3     -1.56      0.00
  -12   21    3      2.87      0.00
  -12   22    3      7.02      0.00
  -12   23    3     -6.12      0.00
  -12   24    3     -9.69      0.00
  -12   25    3      3.24      0.00
  -11   24    3     -9.58      0.00
  -10   23    3     -0.48      0.00
   -9   22    3      1.00      0.00
   -8   21    3     -5.37      0.00
   -7   20    3      1.62      0.00
   -6   19    3     -4.46      0.00
   -5   18    3      3.60      0.00
   -4   17    3     -2.61      0.00
   -3   16    3      7.18      0.00
   -2   15    3     -7.98      0.00
   -1   14    3      1.09      0.00
    0   13    3     -8.84      0.00
  -13   14    3      3.11      0.00
  -13   15    3    -10.22      0.00
  -13   16    3     -0.45      0.00
  -13   17    3     -3.40      0.00
  -13   18    3      2.05      0.00
  -13   19    3      2.92      0.00
  -13   20    3      2.17      0.00
  -13   21    3      3.04      0.00
  -13   22    3      0.35      0.00
  -13   23    3     -5.34      0.00
  -13   24    3      2.51      0.00
  -13   25    3     -5.46      0.00
  -13   26    3     -0.20      0.00
  -12   26    3      2.84      0.00
  -11   25    3      2.49      0.00
  -10   24    3     -2.34      0.00
   -9   23    3     -8.10      0.00
   -8   22    3     -2.06      0.00
   -7   21    3     -2.60      0.00
   -6   20    3      1.49      0.00
   -5   19    3     -4.80      0.00
   -4   18    3      0.41      0.00
   -3   17    3      1.04      0.00
   -2   16    3      7.65      0.00
   -1   15    3     -2.31      0.00
    0   14    3     -2.24      0.00
  -14   15    3     -5.69      0.00
  -14   16    3     -4.59      0.00
  -14   17    3    -17.54      0.00
  -14   18    3      1.35      0.00
  -14   19    3     -0.14      0.00
  -14   20    3     -0.27      0.00
  -14   21    3      7.23      0.00
  -14   22    3     -3.07      0.00
  -14   23    3      4.45      0.00
  -14   24    3     -2.39      0.00
  -14   25    3      3.99      0.00
  -14   26    3      3.59      0.00
  -11   26    3      7.93      0.00
  -10   25    3      3.98      0.00
   -9   24    3     -1.22      0.00
   -8   23    3     -7.99      0.00
   -7   22    3      3.16      0.00
   -6   21    3      0.49      0.00
   -5   20    3     -2.48      0.00
   -4   19    3      1.98      0.00
   -3   18    3     -6.18      0.00
   -2   17    3     -7.63      0.00
   -1   16    3     -2.75      0.00
    0   15    3      4.81      0.00
  -15   16    3      0.62      0.00
  -15   17    3     -5.43      0.00
  -15   18    3     -1.96      0.00
  -15   19    3     -7.26      0.00
  -15   20    3      5.01      0.00
  -15   21    3     -0.20      0.00
  -15   22    3      2.06      0.00
  -15   23    3     -1.02      0.00
  -15   24    3      2.82      0.00
  -15   25    3      8.79      0.00
  -15   26    3     -1.72      0.00
  -10   26    3     -3.41      0.00
   -9   25    3     -0.21      0.00
   -8   24    3      0.07      0.00
   -7   23    3      4.53      0.00
   -6   22    3      2.22      0.00
   -5   21    3      5.78      0.00
   -4   20    3     -1.94      0.00
   -3   19    3     -2.08      0.00
   -2   18    3      0.88      0.00
   -1   17    3     -7.13      0.00
    0   16    3    -13.96      0.00
  -16   17    3     -3.77      0.00
  -16   18    3      0.45      0.00
  -16   19    3     -1.02      0.00
  -16   20    3     -2.40      0.00
  -16   21    3     -6.08      0.00
  -16   22    3     -1.01      0.00
  -16   23    3    -14.26      0.00
  -16   24    3     -1.24      0.00
  -16   25    3      1.45      0.00
  -16   26    3      2.21      0.00
   -9   26    3     -2.91      0.00
   -8   25    3     -6.04      0.00
   -7   24    3     -1.22      0.00
   -6   23    3      6.10      0.00
   -5   22    3      7.69      0.00
   -4   21    3      6.22      0.00
   -3   20    3     -2.86      0.00
   -2   19    3     -3.05      0.00
   -1   18    3     -1.23      0.00
    0   17    3     15.64      0.00
  -17   18    3      3.38      0.00
  -17   19    3      0.54      0.00
  -17   20    3    -13.82      0.00
  -17   21    3      5.17      0.00
  -17   22    3     -2.44      0.00
  -17   23    3     -2.49      0.00
  -17   24    3     -0.94      0.00
  -17   25    3     -9.23      0.00
  -17   26    3     -5.56      0.00
   -7   25    3      5.76      0.00
   -6   24    3     -0.61      0.00
   -5   23    3      2.09      0.00
   -4   22    3     -1.73      0.00
   -3   21    3      4.42      0.00
   -2   20    3     -0.31      0.00
   -1   19    3      6.34      0.00
    0   18    3      3.90      0.00
  -18   19    3     -1.04      0.00
  -18   20    3      2.28      0.00
  -18   21    3     -5.32      0.00
  -18   22    3     -7.90      0.00
  -18   23    3      7.03      0.00
  -18   24    3      2.90      0.00
  -18   25    3      4.10      0.00
   -6   25    3     -3.73      0.00
   -5   24    3     -5.20      0.00
   -4   23    3      0.13      0.00
   -3   22    3     -1.06      0.00
   -2   21    3     -0.80      0.00
   -1   20    3      1.95      0.00
    0   19    3      9.31      0.00
  -19   20    3      1.99      0.00
  -19   21    3     -7.18      0.00
  -19   22    3     -0.48      0.00
  -19   23    3      3.06      0.00
  -19   24    3      4.22      0.00
  -19   25    3      4.81      0.00
   -4   24    3    -11.37      0.00
   -3   23    3      0.83      0.00
   -2   22    3     -0.64      0.00
   -1   21    3     -1.27      0.00
    0   20    3     -4.28      0.00
  -20   21    3     -0.67      0.00
  -20   22    3     -5.59      0.00
  -20   23    3      9.88      0.00
  -20   24    3     -2.88      0.00
   -3   24    3      6.97      0.00
   -2   23    3     -0.43      0.00
   -1   22    3     -0.02      0.00
    0   21    3     -6.24      0.00
  -21   22    3      0.82      0.00
  -21   23    3     -2.06      0.00
  -21   24    3     -1.85      0.00
   -1   23    3     -0.30      0.00
    0   22    3      2.32      0.00
  -22   23    3     -2.45      0.00
    0    0    4   -132.31      0.00
    0    1    4     -7.00      0.00
   -1    2    4     55.07      0.00
   -1    3    4     66.68      0.00
    0    2    4     43.04      0.00
   -2    3    4     32.72      0.00
   -2    4    4    -18.09      0.00
   -2    5    4    -44.57      0.00
   -1    4    4    -13.94      0.00
    0    3    4     75.65      0.00
   -3    4    4    -30.77      0.00
   -3    5    4    -20.33      0.00
   -3    6    4    -23.39      0.00
   -3    7    4     10.09      0.00
   -2    6    4     22.02      0.00
   -1    5    4     28.12      0.00
    0    4    4      8.34      0.00
   -4    5    4     32.93      0.00
   -4    6    4    -15.56      0.00
   -4    7    4     24.02      0.00
   -4    8    4     10.27      0.00
   -4    9    4    -16.45      0.00
   -3    8    4     17.50      0.00
   -2    7    4     -2.35      0.00
   -1    6    4     18.18      0.00
    0    5    4     -0.35      0.00
   -5    6    4     13.64      0.00
   -5    7    4    -11.27      0.00
   -5    8    4     35.32      0.00
   -5    9    4     28.35      0.00
   -5   10    4      8.68      0.00
   -5   11    4    -10.41      0.00
   -4   10    4     14.47      0.00
   -3    9    4      2.98      0.00
   -2    8    4      4.32      0.00
   -1    7    4     10.51      0.00
    0    6    4     -1.37      0.00
   -6    7    4      4.14      0.00
   -6    8    4     -5.71      0.00
   -6    9    4      2.80      0.00
   -6   10    4     -4.12      0.00
   -6   11    4      5.63      0.00
   -6   12    4     -6.00      0.00
   -6   13    4     -3.49      0.00
   -5   12    4    -11.67      0.00
   -4   11    4      2.86      0.00
   -3   10    4    -24.32      0.00
   -2    9    4     32.14      0.00
   -1    8    4     -9.36      0.00
    0    7    4     -5.21      0.00
   -7    8    4     -8.92      0.00
   -7    9    4      1.90      0.00
   -7   10    4      2.61      0.00
   -7   11    4      3.84      0.00
   -7   12    4     -5.01      0.00
   -7   13    4     -5.42      0.00
   -7   14    4      4.49      0.00
   -7   15    4    -10.83      0.00
   -6   14    4     -1.45      0.00
   -5   13    4     13.14      0.00
   -4   12    4      6.71      0.00
   -3   11    4     20.24      0.00
   -2   10    4     -6.28      0.00
   -1    9    4     -9.52      0.00
    0    8    4      8.82      0.00
   -8    9    4    -33.24      0.00
   -8   10    4      0.08      0.00
   -8   11    4    -38.78      0.00
   -8   12    4     -4.71      0.00
   -8   13    4      9.13      0.00
   -8   14    4     -4.41      0.00
   -8   15    4      3.36      0.00
   -8   16    4      0.03      0.00
   -8   17    4     -1.07      0.00
   -7   16    4     11.64      0.00
   -6   15    4      8.83      0.00
   -5   14    4    -13.41      0.00
   -4   13    4     -4.72      0.00
   -3   12    4      1.14      0.00
   -2   11    4     -4.04      0.00
   -1   10    4     13.34      0.00
    0    9    4     15.97      0.00
   -9   10    4     -9.93      0.00
   -9   11    4    -27.57      0.00
   -9   12    4     10.43      0.00
   -9   13    4    -14.31      0.00
   -9   14    4      1.37      0.00
   -9   15    4     -5.29      0.00
   -9   16    4     -0.06      0.00
   -9   17    4     -5.20      0.00
   -9   18    4     -2.10      0.00
   -9   19    4      3.15      0.00
   -8   18    4      3.74      0.00
   -7   17    4      2.37      0.00
   -6   16    4     -5.45      0.00
   -5   15    4      2.87      0.00
   -4   14    4      6.42      0.00
   -3   13    4      4.10      0.00
   -2   12    4      1.32      0.00
   -1   11    4    -15.71      0.00
    0   10    4    -16.97      0.00
  -10   11    4     -2.07      0.00
  -10   12    4    -18.61      0.00
  -10   13    4     -7.87      0.00
  -10   14    4     -7.44      0.00
  -10   15    4     -2.11      0.00
  -10   16    4     -2.59      0.00
  -10   17    4      2.17      0.00
  -10   18    4      1.38      0.00
  -10   19    4      5.42      0.00
  -10   20    4      3.28      0.00
  -10   21    4     -4.30      0.00
   -9   20    4     -2.13      0.00
   -8   19    4      2.15      0.00
   -7   18    4      3.23      0.00
   -6   17    4     13.32      0.00
   -5   16    4      0.58      0.00
   -4   15    4     -2.80      0.00
   -3   14    4     -3.43      0.00
   -2   13    4      3.20      0.00
   -1   12    4      0.12      0.00
    0   11    4      9.97      0.00
  -11   12    4     -2.70      0.00
  -11   13    4     -1.36      0.00
  -11   14    4    -12.49      0.00
  -11   15    4     -4.15      0.00
  -11   16    4      4.71      0.00
  -11   17    4      2.47      0.00
  -11   18    4     -0.33      0.00
  -11   19    4     -3.32      0.00
  -11   20    4     -1.58      0.00
  -11   21    4    -13.17      0.00
  -11   22    4      5.89      0.00
  -11   23    4    -10.68      0.00
  -10   22    4     -2.98      0.00
   -9   21    4      1.78      0.00
   -8   20    4     11.09      0.00
   -7   19    4     -4.10      0.00
   -6   18    4     -1.23      0.00
   -5   17    4      1.01      0.00
   -4   16    4      4.93      0.00
   -3   15    4      3.49      0.00
   -2   14    4      1.68      0.00
   -1   13    4      2.26      0.00
    0   12    4     -4.75      0.00
  -12   13    4     -0.01      0.00
  -12   14    4     -1.02      0.00
  -12   15    4     -1.76      0.00
  -12   16    4      2.92      0.00
  -12   17    4     -1.60      0.00
  -12   18    4     -3.89      0.00
  -12   19    4     -1.09      0.00
  -12   20    4     -1.46      0.00
  -12   21    4      1.60      0.00
  -12   22    4     -5.68      0.00
  -12   23    4     -0.19      0.00
  -12   24    4      1.66      0.00
  -12   25    4      3.75      0.00
  -11   24    4      4.28      0.00
  -10   23    4     -3.16      0.00
   -9   22    4     -1.83      0.00
   -8   21    4      7.67      0.00
   -7   20    4     -1.19      0.00
   -6   19    4      2.76      0.00
   -5   18    4      1.92      0.00
   -4   17    4     -6.71      0.00
   -3   16    4      0.24      0.00
   -2   15    4     -5.70      0.00
   -1   14    4      9.58      0.00
    0   13    4     -6.44      0.00
  -13   14    4      6.23      0.00
  -13   15    4     -1.87      0.00
  -13   16    4      9.64      0.00
  -13   17    4     -2.12      0.00
  -13   18    4     -5.63      0.00
  -13   19    4      0.10      0.00
  -13   20    4      2.63      0.00
  -13   21    4      0.69      0.00
  -13   22    4     -7.42      0.00
  -13   23    4      1.59      0.00
  -13   24    4      4.37      0.00
  -13   25    4     -0.71      0.00
  -13   26    4     -3.39      0.00
  -12   26    4     -6.78      0.00
  -11   25    4     -2.98      0.00
  -10   24    4     -5.99      0.00
   -9   23    4      5.49      0.00
   -8   22    4     -4.68      0.00
   -7   21    4     -2.37      0.00
   -6   20    4      2.29      0.00
   -5   19    4     -1.74      0.00
   -4   18    4      2.04      0.00
   -3   17    4     -4.07      0.00
   -2   16    4     -3.53      0.00
   -1   15    4    -10.38      0.00
    0   14    4     -0.36      0.00
  -14   15    4     -0.44      0.00
  -14   16    4     -3.30      0.00
  -14   17    4      3.81      0.00
  -14   18    4     -4.33      0.00
  -14   19    4      1.23      0.00
  -14   20    4     -6.33      0.00
  -14   21    4      2.98      0.00
  -14   22    4     -0.85      0.00
  -14   23    4     -2.35      0.00
  -14   24    4     -5.19      0.00
  -14   25    4     -6.12      0.00
  -14   26    4      8.80      0.00
  -11   26    4     -1.87      0.00
  -10   25    4      4.20      0.00
   -9   24    4     -5.09      0.00
   -8   23    4     -3.52      0.00
   -7   22    4     -1.18      0.00
   -6   21    4     -2.17      0.00
   -5   20    4     -1.98      0.00
   -4   19    4      2.90      0.00
   -3   18    4      0.43      0.00
   -2   17    4     -2.21      0.00
   -1   16    4     -0.12      0.00
    0   15    4     -3.03      0.00
  -15   16    4     -0.08      0.00
  -15   17    4      2.85      0.00
  -15   18    4     10.69      0.00
  -15   19    4     -1.47      0.00
  -15   20    4      0.50      0.00
  -15   21    4      0.16      0.00
  -15   22    4     -0.20      0.00
  -15   23    4     -3.31      0.00
  -15   24    4      8.65      0.00
  -15   25    4     -4.25      0.00
  -15   26    4     -8.05      0.00
  -10   26    4     -3.19      0.00
   -9   25    4     -2.95      0.00
   -8   24    4     -4.94      0.00
   -7   23    4      0.64      0.00
   -6   22    4     -2.53      0.00
   -5   21    4     -1.96      0.00
   -4   20    4     -1.04      0.00
   -3   19    4      1.25      0.00
   -2   18    4     -0.51      0.00
   -1   17    4     -2.12      0.00
    0   16    4      2.37      0.00
  -16   17    4    -10.87      0.00
  -16   18    4     -2.79      0.00
  -16   19    4     -7.29      0.00
  -16   20    4      8.43      0.00
  -16   21    4      3.27      0.00
  -16   22    4     -5.96      0.00
  -16   23    4      4.98      0.00
  -16   24    4      0.23      0.00
  -16   25    4     -6.02      0.00
  -16   26    4     -1.82      0.00
   -8   25    4     -3.86      0.00
   -7   24    4      1.98      0.00
   -6   23    4     -4.97      0.00
   -5   22    4     -3.59      0.00
   -4   21    4      1.32      0.00
   -3   20    4     -7.36      0.00
   -2   19    4     -1.32      0.00
   -1   18    4      1.45      0.00
    0   17    4      0.04      0.00
  -17   18    4      3.64      0.00
  -17   19    4      6.90      0.00
  -17   20    4     -4.43      0.00
  -17   21    4     -4.53      0.00
  -17   22    4     -1.41      0.00
  -17   23    4     16.34      0.00
  -17   24    4     -5.05      0.00
  -17   25    4      7.38      0.00
   -7   25    4      0.55      0.00
   -6   24    4     -2.44      0.00
   -5   23    4      4.00      0.00
   -4   22    4     -7.27      0.00
   -3   21    4     -3.64      0.00
   -2   20    4      0.28      0.00
   -1   19    4      1.07      0.00
    0   18    4    -13.91      0.00
  -18   19    4     -6.11      0.00
  -18   20    4      0.54      0.00
  -18   21    4      9.00      0.00
  -18   22    4     -1.55      0.00
  -18   23    4     -6.46      0.00
  -18   24    4     -9.57      0.00
  -18   25    4      3.21      0.00
   -6   25    4      1.47      0.00
   -5   24    4      3.97      0.00
   -4   23    4     -0.54      0.00
   -3   22    4     -4.28      0.00
   -2   21    4      0.05      0.00
   -1   20    4     -5.85      0.00
    0   19    4      0.73      0.00
  -19   20    4      1.29      0.00
  -19   21    4     -8.74      0.00
  -19   22    4     -0.53      0.00
  -19   23    4      3.62      0.00
  -19   24    4      2.50      0.00
  -19   25    4    -17.23      0.00
   -4   24    4     -0.72      0.00
   -3   23    4      0.45      0.00
   -2   22    4     -1.51      0.00
   -1   21    4     -3.94      0.00
    0   20    4     -4.96      0.00
  -20   21    4      1.78      0.00
  -20   22    4      3.26      0.00
  -20   23    4     -4.85      0.00
  -20   24    4     -9.38      0.00
   -3   24    4     -0.66      0.00
   -2   23    4     -9.28      0.00
   -1   22    4     -5.35      0.00
    0   21    4      4.26      0.00
  -21   22    4     -6.05      0.00
  -21   23    4     -9.72      0.00
  -21   24    4     -6.46      0.00
   -1   23    4     -2.04      0.00
    0   22    4     -1.66      0.00
  -22   23    4      1.46      0.00
    0    0    5    -39.72      0.00
    0    1    5     46.44      0.00
   -1    2    5    -34.84      0.00
   -1    3    5     -0.56      0.00
    0    2    5    -25.73      0.00
   -2    3    5     -2.32      0.00
   -2    4    5     30.87      0.00
   -2    5    5     11.25      0.00
   -1    4    5    -10.18      0.00
    0    3    5     12.19      0.00
   -3    4    5    -15.70      0.00
   -3    5    5     48.92      0.00
   -3    6    5     17.40      0.00
   -3    7    5     -8.66      0.00
   -2    6    5     23.91      0.00
   -1    5    5     24.74      0.00
    0    4    5     11.14      0.00
   -4    5    5     45.24      0.00
   -4    6    5      2.33      0.00
   -4    7    5    -11.68      0.00
   -4    8    5     -9.81      0.00
   -4    9    5    -12.99      0.00
   -3    8    5      4.04      0.00
   -2    7    5    -34.13      0.00
   -1    6    5     -5.45      0.00
    0    5    5    -24.48      0.00
   -5    6    5     10.89      0.00
   -5    7    5     -1.78      0.00
   -5    8    5      9.92      0.00
   -5    9    5    -42.50      0.00
   -5   10    5      5.89      0.00
   -5   11    5      2.70      0.00
   -4   10    5      6.94      0.00
   -3    9    5      8.65      0.00
   -2    8    5     -5.79      0.00
   -1    7    5     14.67      0.00
    0    6    5    -19.57      0.00
   -6    7    5     14.70      0.00
   -6    8    5    -12.40      0.00
   -6    9    5     -4.71      0.00
   -6   10    5    -15.40      0.00
   -6   11    5     -5.26      0.00
   -6   12    5     -5.54      0.00
   -6   13    5      6.76      0.00
   -5   12    5      4.86      0.00
   -4   11    5      0.89      0.00
   -3   10    5    -25.59      0.00
   -2    9    5     33.32      0.00
   -1    8    5    -32.29      0.00
    0    7    5      9.96      0.00
   -7    8    5     -5.04      0.00
   -7    9    5      1.19      0.00
   -7   10    5     21.86      0.00
   -7   11    5      2.41      0.00
   -7   12    5     -0.35      0.00
   -7   13    5      3.92      0.00
   -7   14    5     -7.62      0.00
   -7   15    5    -12.73      0.00
   -6   14    5     16.75      0.00
   -5   13    5     12.62      0.00
   -4   12    5     -4.93      0.00
   -3   11    5     12.35      0.00
   -2   10    5      3.66      0.00
   -1    9    5    -15.21      0.00
    0    8    5     12.52      0.00
   -8    9    5     17.95      0.00
   -8   10    5      9.12      0.00
   -8   11    5    -47.80      0.00
   -8   12    5     25.02      0.00
   -8   13    5      5.21      0.00
   -8   14    5     -1.24      0.00
   -8   15    5     -0.83      0.00
   -8   16    5      0.49      0.00
   -8   17    5      5.22      0.00
   -7   16    5     15.49      0.00
   -6   15    5     13.52      0.00
   -5   14    5     -6.10      0.00
   -4   13    5      4.54      0.00
   -3   12    5      1.77      0.00
   -2   11    5      0.85      0.00
   -1   10    5      7.21      0.00
    0    9    5      4.89      0.00
   -9   10    5    -13.00      0.00
   -9   11    5     52.40      0.00
   -9   12    5     11.70      0.00
   -9   13    5    -14.82      0.00
   -9   14    5      5.20      0.00
   -9   15    5     -1.44      0.00
   -9   16    5      6.08      0.00
   -9   17    5      1.44      0.00
   -9   18    5     -3.05      0.00
   -9   19    5     -4.33      0.00
   -8   18    5      8.64      0.00
   -7   17    5      4.10      0.00
   -6   16    5     -8.37      0.00
   -5   15    5      3.50      0.00
   -4   14    5     16.02      0.00
   -3   13    5      6.64      0.00
   -2   12    5      1.70      0.00
   -1   11    5      6.93      0.00
    0   10    5      8.70      0.00
  -10   11    5      6.90      0.00
  -10   12    5    -19.33      0.00
  -10   13    5      9.28      0.00
  -10   14    5      1.52      0.00
  -10   15    5     16.36      0.00
  -10   16    5     -5.06      0.00
  -10   17    5      5.62      0.00
  -10   18    5      2.79      0.00
  -10   19    5     -0.30      0.00
  -10   20    5      3.43      0.00
  -10   21    5      1.61      0.00
   -9   20    5     -4.77      0.00
   -8   19    5      2.05      0.00
   -7   18    5     -0.18      0.00
   -6   17    5     -4.31      0.00
   -5   16    5     -4.73      0.00
   -4   15    5      0.51      0.00
   -3   14    5     -3.95      0.00
   -2   13    5      0.05      0.00
   -1   12    5      0.09      0.00
    0   11    5      8.86      0.00
  -11   12    5     -0.75      0.00
  -11   13    5     -9.25      0.00
  -11   14    5     16.89      0.00
  -11   15    5     -2.97      0.00
  -11   16    5     -3.52      0.00
  -11   17    5      2.25      0.00
  -11   18    5      4.87      0.00
  -11   19    5      4.64      0.00
  -11   20    5      5.39      0.00
  -11   21    5    -15.40      0.00
  -11   22    5      6.38      0.00
  -11   23    5      2.07      0.00
  -10   22    5     -3.63      0.00
   -9   21    5      2.55      0.00
   -8   20    5     -6.98      0.00
   -7   19    5     -8.91      0.00
   -6   18    5     -0.41      0.00
   -5   17    5      2.01      0.00
   -4   16    5     -3.78      0.00
   -3   15    5      0.19      0.00
   -2   14    5      0.53      0.00
   -1   13    5      5.60      0.00
    0   12    5    -11.51      0.00
  -12   13    5     10.62      0.00
  -12   14    5     -6.34      0.00
  -12   15    5     -1.24      0.00
  -12   16    5     10.00      0.00
  -12   17    5      4.38      0.00
  -12   18    5      2.19      0.00
  -12   19    5     -1.00      0.00
  -12   20    5     -9.11      0.00
  -12   21    5      8.95      0.00
  -12   22    5     13.78      0.00
  -12   23    5     -4.91      0.00
  -12   24    5     -5.86      0.00
  -12   25    5      8.17      0.00
  -11   24    5     -0.98      0.00
  -10   23    5      7.56      0.00
   -9   22    5    -10.02      0.00
   -8   21    5     -4.63      0.00
   -7   20    5      3.34      0.00
   -6   19    5      5.92      0.00
   -5   18    5      3.81      0.00
   -4   17    5     -2.94      0.00
   -3   16    5     -0.14      0.00
   -2   15    5     -2.35      0.00
   -1   14    5     12.23      0.00
    0   13    5     -8.80      0.00
  -13   14    5      1.11      0.00
  -13   15    5      4.78      0.00
  -13   16    5      4.14      0.00
  -13   17    5     -2.58      0.00
  -13   18    5      4.15      0.00
  -13   19    5      5.43      0.00
  -13   20    5     -2.46      0.00
  -13   21    5      1.66      0.00
  -13   22    5     -2.89      0.00
  -13   23    5     -1.76      0.00
  -13   24    5      6.45      0.00
  -13   25    5     -6.70      0.00
  -13   26    5     -1.89      0.00
  -12   26    5    -12.00      0.00
  -11   25    5     -7.59      0.00
  -10   24    5      1.81      0.00
   -9   23    5      0.72      0.00
   -8   22    5      3.11      0.00
   -7   21    5     -7.49      0.00
   -6   20    5      7.64      0.00
   -5   19    5      3.77      0.00
   -4   18    5     -4.43      0.00
   -3   17    5      1.58      0.00
   -2   16    5     16.28      0.00
   -1   15    5     -1.80      0.00
    0   14    5     -2.44      0.00
  -14   15    5      8.08      0.00
  -14   16    5      2.68      0.00
  -14   17    5     -0.89      0.00
  -14   18    5     -4.92      0.00
  -14   19    5      5.49      0.00
  -14   20    5     -9.37      0.00
  -14   21    5      1.81      0.00
  -14   22    5      2.03      0.00
  -14   23    5      3.35      0.00
  -14   24    5     -4.68      0.00
  -14   25    5     -6.02      0.00
  -14   26    5      2.47      0.00
  -10   25    5    -12.47      0.00
   -9   24    5      1.08      0.00
   -8   23    5     -3.04      0.00
   -7   22    5      8.45      0.00
   -6   21    5      2.33      0.00
   -5   20    5     -3.48      0.00
   -4   19    5     -1.37      0.00
   -3   18    5      7.51      0.00
   -2   17    5     -1.39      0.00
   -1   16    5     -2.78      0.00
    0   15    5      7.68      0.00
  -15   16    5      3.47      0.00
  -15   17    5     -2.97      0.00
  -15   18    5      8.72      0.00
  -15   19    5     -0.14      0.00
  -15   20    5      1.53      0.00
  -15   21    5      3.33      0.00
  -15   22    5      0.24      0.00
  -15   23    5     -2.25      0.00
  -15   24    5     -0.44      0.00
  -15   25    5      0.40      0.00
   -9   25    5      6.56      0.00
   -8   24    5      6.68      0.00
   -7   23    5     -4.45      0.00
   -6   22    5    -11.48      0.00
   -5   21    5     -6.11      0.00
   -4   20    5     -2.15      0.00
   -3   19    5      6.48      0.00
   -2   18    5     -1.85      0.00
   -1   17    5      2.83      0.00
    0   16    5      1.66      0.00
  -16   17    5      0.04      0.00
  -16   18    5      2.52      0.00
  -16   19    5     -6.80      0.00
  -16   20    5      1.75      0.00
  -16   21    5     -2.58      0.00
  -16   22    5     -0.86      0.00
  -16   23    5      7.74      0.00
  -16   24    5     -3.31      0.00
  -16   25    5     -6.96      0.00
   -8   25    5     -3.40      0.00
   -7   24    5     -9.22      0.00
   -6   23    5      2.48      0.00
   -5   22    5    -10.96      0.00
   -4   21    5      8.23      0.00
   -3   20    5     -7.33      0.00
   -2   19    5     -4.02      0.00
   -1   18    5     -2.80      0.00
    0   17    5      4.19      0.00
  -17   18    5     -2.06      0.00
  -17   19    5      3.07      0.00
  -17   20    5     -1.01      0.00
  -17   21    5      4.57      0.00
  -17   22    5     -3.05      0.00
  -17   23    5      6.21      0.00
  -17   24    5     -1.95      0.00
  -17   25    5      7.93      0.00
   -7   25    5      3.95      0.00
   -6   24    5    -13.44      0.00
   -5   23    5      0.24      0.00
   -4   22    5     -6.31      0.00
   -3   21    5      4.94      0.00
   -2   20    5     -1.12      0.00
   -1   19    5     -1.21      0.00
    0   18    5     -8.62      0.00
  -18   19    5     -6.33      0.00
  -18   20    5      0.99      0.00
  -18   21    5      6.59      0.00
  -18   22    5     -2.62      0.00
  -18   23    5     -4.32      0.00
  -18   24    5     -1.93      0.00
  -18   25    5     -1.61      0.00
   -5   24    5      0.24      0.00
   -4   23    5      2.15      0.00
   -3   22    5     -2.16      0.00
   -2   21    5      1.94      0.00
   -1   20    5     -3.77      0.00
    0   19    5     -3.49      0.00
  -19   20    5      2.97      0.00
  -19   21    5     -4.69      0.00
  -19   22    5     -2.62      0.00
  -19   23    5     -0.81      0.00
  -19   24    5      2.29      0.00
   -4   24    5     -2.98      0.00
   -3   23    5     -4.75      0.00
   -2   22    5      9.09      0.00
   -1   21    5      0.37      0.00
    0   20    5     -1.79      0.00
  -20   21    5      0.66      0.00
  -20   22    5      4.29      0.00
  -20   23    5      1.48      0.00
  -20   24    5    -16.42      0.00
   -2   23    5     -4.23      0.00
   -1   22    5     -0.16      0.00
    0   21    5     -4.47      0.00
  -21   22    5     -4.74      0.00
  -21   23    5      6.34      0.00
   -1   23    5     -0.12      0.00
    0   22    5      3.24      0.00
  -22   23    5      1.34      0.00
    0    0    6     50.99      0.00
    0    1    6     -6.96      0.00
   -1    2    6    -18.75      0.00
   -1    3    6     48.69      0.00
    0    2    6    -28.74      0.00
   -2    3    6      2.54      0.00
   -2    4    6      4.30      0.00
   -2    5    6     17.21      0.00
   -1    4    6    -27.35      0.00
    0    3    6    -25.64      0.00
   -3    4    6     -5.31      0.00
   -3    5    6    -24.64      0.00
   -3    6    6    -18.12      0.00
   -3    7    6      1.46      0.00
   -2    6    6     -2.64      0.00
   -1    5    6    -23.18      0.00
    0    4    6     12.74      0.00
   -4    5    6    -17.35      0.00
   -4    6    6    -20.31      0.00
   -4    7    6     -7.85      0.00
   -4    8    6      5.99      0.00
   -4    9    6      2.76      0.00
   -3    8    6      7.54      0.00
   -2    7    6    -35.01      0.00
   -1    6    6     15.67      0.00
    0    5    6    -16.02      0.00
   -5    6    6     -9.70      0.00
   -5    7    6    -11.72      0.00
   -5    8    6     17.30      0.00
   -5    9    6    -12.09      0.00
   -5   10    6     13.21      0.00
   -5   11    6     10.45      0.00
   -4   10    6     -9.08      0.00
   -3    9    6    -14.38      0.00
   -2    8    6     -4.42      0.00
   -1    7    6     21.34      0.00
    0    6    6      1.33      0.00
   -6    7    6      0.30      0.00
   -6    8    6    -15.85      0.00
   -6    9    6    -14.67      0.00
   -6   10    6     21.34      0.00
   -6   11    6     -8.60      0.00
   -6   12    6      5.50      0.00
   -6   13    6     -0.47      0.00
   -5   12    6     -6.89      0.00
   -4   11    6      7.60      0.00
   -3   10    6    -18.49      0.00
   -2    9    6     24.96      0.00
   -1    8    6    -10.66      0.00
    0    7    6      6.48      0.00
   -7    8    6      1.87      0.00
   -7    9    6     12.43      0.00
   -7   10    6      1.16      0.00
   -7   11    6      0.90      0.00
   -7   12    6      0.06      0.00
   -7   13    6     -0.06      0.00
   -7   14    6     11.24      0.00
   -7   15    6     -1.56      0.00
   -6   14    6     -1.03      0.00
   -5   13    6     -2.56      0.00
   -4   12    6      0.20      0.00
   -3   11    6      5.94      0.00
   -2   10    6      5.79      0.00
   -1    9    6     -5.96      0.00
    0    8    6      3.44      0.00
   -8    9    6     -8.64      0.00
   -8   10    6     -3.07      0.00
   -8   11    6     21.64      0.00
   -8   12    6     -9.59      0.00
   -8   13    6     -4.36      0.00
   -8   14    6     -1.98      0.00
   -8   15    6     10.47      0.00
   -8   16    6      5.45      0.00
   -8   17    6     -5.62      0.00
   -7   16    6    -12.20      0.00
   -6   15    6      7.56      0.00
   -5   14    6     -8.18      0.00
   -4   13    6     -6.80      0.00
   -3   12    6      3.35      0.00
   -2   11    6      0.46      0.00
   -1   10    6     -0.19      0.00
    0    9    6      2.49      0.00
   -9   10    6     -1.16      0.00
   -9   11    6     -8.75      0.00
   -9   12    6     14.77      0.00
   -9   13    6      6.96      0.00
   -9   14    6      1.36      0.00
   -9   15    6     -5.34      0.00
   -9   16    6      6.34      0.00
   -9   17    6      0.75      0.00
   -9   18    6     -2.62      0.00
   -9   19    6     -3.40      0.00
   -8   18    6     -1.39      0.00
   -7   17    6      0.29      0.00
   -6   16    6     -8.09      0.00
   -5   15    6     -1.75      0.00
   -4   14    6     10.36      0.00
   -3   13    6      7.19      0.00
   -2   12    6     -7.24      0.00
   -1   11    6     -9.63      0.00
    0   10    6     -0.60      0.00
  -10   11    6    -12.22      0.00
  -10   12    6     11.26      0.00
  -10   13    6     -1.59      0.00
  -10   14    6     -4.14      0.00
  -10   15    6      8.72      0.00
  -10   16    6     -0.74      0.00
  -10   17    6     -0.34      0.00
  -10   18    6     -3.93      0.00
  -10   19    6      6.51      0.00
  -10   20    6      3.48      0.00
  -10   21    6     -2.37      0.00
   -9   20    6      0.62      0.00
   -8   19    6     -1.83      0.00
   -7   18    6     -0.32      0.00
   -6   17    6     -4.07      0.00
   -5   16    6     24.61      0.00
   -4   15    6      3.64      0.00
   -3   14    6     -6.05      0.00
   -2   13    6     -3.03      0.00
   -1   12    6     17.46      0.00
    0   11    6      7.12      0.00
  -11   12    6      0.50      0.00
  -11   13    6     14.21      0.00
  -11   14    6     11.61      0.00
  -11   15    6     -3.95      0.00
  -11   16    6     -8.09      0.00
  -11   17    6      1.13      0.00
  -11   18    6     -0.94      0.00
  -11   19    6      1.71      0.00
  -11   20    6     -1.39      0.00
  -11   21    6     -6.62      0.00
  -11   22    6      4.30      0.00
  -11   23    6     -2.67      0.00
  -10   22    6     -2.89      0.00
   -9   21    6      0.42      0.00
   -8   20    6      7.44      0.00
   -7   19    6     -4.07      0.00
   -6   18    6      4.69      0.00
   -5   17    6     -0.96      0.00
   -4   16    6      1.40      0.00
   -3   15    6      8.53      0.00
   -2   14    6      9.31      0.00
   -1   13    6      6.32      0.00
    0   12    6     -1.21      0.00
  -12   13    6     11.59      0.00
  -12   14    6     -7.97      0.00
  -12   15    6     -2.04      0.00
  -12   16    6      5.78      0.00
  -12   17    6      5.75      0.00
  -12   18    6     -1.67      0.00
  -12   19    6      1.63      0.00
  -12   20    6     -2.65      0.00
  -12   21    6      3.62      0.00
  -12   22    6     -5.39      0.00
  -12   23    6     -5.34      0.00
  -12   24    6      0.09      0.00
  -12   25    6     -5.36      0.00
  -11   24    6     -5.02      0.00
  -10   23    6      1.04      0.00
   -9   22    6      2.60      0.00
   -8   21    6      2.97      0.00
   -7   20    6     -2.84      0.00
   -6   19    6     -0.35      0.00
   -5   18    6     -1.72      0.00
   -4   17    6      6.04      0.00
   -3   16    6      4.05      0.00
   -2   15    6     -0.12      0.00
   -1   14    6      0.00      0.00
    0   13    6     -1.72      0.00
  -13   14    6      2.73      0.00
  -13   15    6     -5.71      0.00
  -13   16    6      2.27      0.00
  -13   17    6      5.00      0.00
  -13   18    6      5.73      0.00
  -13   19    6      1.18      0.00
  -13   20    6      2.43      0.00
  -13   21    6      3.33      0.00
  -13   22    6     -6.93      0.00
  -13   23    6     -1.05      0.00
  -13   24    6     -5.57      0.00
  -13   25    6     -6.61      0.00
  -11   25    6      2.42      0.00
  -10   24    6     -3.16      0.00
   -9   23    6     -2.98      0.00
   -8   22    6      2.34      0.00
   -7   21    6     -3.17      0.00
   -6   20    6     -9.33      0.00
   -5   19    6     -5.70      0.00
   -4   18    6     -2.31      0.00
   -3   17    6      3.99      0.00
   -2   16    6      1.65      0.00
   -1   15    6      4.23      0.00
    0   14    6      0.07      0.00
  -14   15    6      0.49      0.00
  -14   16    6     -1.76      0.00
  -14   17    6      2.46      0.00
  -14   18    6     -0.07      0.00
  -14   19    6      2.62      0.00
  -14   20    6     -0.86      0.00
  -14   21    6     -0.30      0.00
  -14   22    6     -2.38      0.00
  -14   23    6     -2.70      0.00
  -14   24    6      5.28      0.00
  -14   25    6     13.70      0.00
  -10   25    6      6.73      0.00
   -9   24    6      3.47      0.00
   -8   23    6     -8.10      0.00
   -7   22    6      0.32      0.00
   -6   21    6      1.07      0.00
   -5   20    6      0.57      0.00
   -4   19    6      2.50      0.00
   -3   18    6     -0.74      0.00
   -2   17    6     -6.20      0.00
   -1   16    6      4.43      0.00
    0   15    6     -2.66      0.00
  -15   16    6      1.96      0.00
  -15   17    6      2.14      0.00
  -15   18    6      7.97      0.00
  -15   19    6      0.18      0.00
  -15   20    6     -3.21      0.00
  -15   21    6      4.84      0.00
  -15   22    6     -5.32      0.00
  -15   23    6     -5.22      0.00
  -15   24    6     12.40      0.00
  -15   25    6     -0.58      0.00
   -9   25    6     -4.21      0.00
   -8   24    6     -5.36      0.00
   -7   23    6      2.87      0.00
   -6   22    6      1.93      0.00
   -5   21    6      2.42      0.00
   -4   20    6     -1.89      0.00
   -3   19    6     -0.66      0.00
   -2   18    6      0.57      0.00
   -1   17    6      0.77      0.00
    0   16    6      5.00      0.00
  -16   17    6     -3.20      0.00
  -16   18    6      2.25      0.00
  -16   19    6     -3.02      0.00
  -16   20    6      5.02      0.00
  -16   21    6      1.23      0.00
  -16   22    6     -9.54      0.00
  -16   23    6     -0.31      0.00
  -16   24    6     -3.03      0.00
  -16   25    6     -4.81      0.00
   -8   25    6     -0.05      0.00
   -7   24    6      0.81      0.00
   -6   23    6      4.97      0.00
   -5   22    6     -1.62      0.00
   -4   21    6      9.24      0.00
   -3   20    6     -4.22      0.00
   -2   19    6     -0.32      0.00
   -1   18    6      0.47      0.00
    0   17    6      5.76      0.00
  -17   18    6      6.92      0.00
  -17   19    6      1.19      0.00
  -17   20    6     -0.41      0.00
  -17   21    6     -2.21      0.00
  -17   22    6      2.40      0.00
  -17   23    6     -6.03      0.00
  -17   24    6     -7.71      0.00
  -17   25    6      2.94      0.00
   -7   25    6      5.24      0.00
   -6   24    6     -2.98      0.00
   -5   23    6      3.36      0.00
   -4   22    6     -6.42      0.00
   -3   21    6     -0.70      0.00
   -2   20    6      1.40      0.00
   -1   19    6      7.99      0.00
    0   18    6     -4.07      0.00
  -18   19    6      1.15      0.00
  -18   20    6      0.60      0.00
  -18   21    6     -0.85      0.00
  -18   22    6     -2.52      0.00
  -18   23    6      2.68      0.00
  -18   24    6     -4.68      0.00
  -18   25    6      0.26      0.00
   -5   24    6     -0.56      0.00
   -4   23    6     -1.76      0.00
   -3   22    6     -1.98      0.00
   -2   21    6     -8.01      0.00
   -1   20    6     -7.92      0.00
    0   19    6      5.67      0.00
  -19   20    6     -1.25      0.00
  -19   21    6    -10.20      0.00
  -19   22    6     -3.76      0.00
  -19   23    6      6.23      0.00
  -19   24    6      2.73      0.00
   -4   24    6      1.94      0.00
   -3   23    6     -4.74      0.00
   -2   22    6     -2.21      0.00
   -1   21    6     -3.56      0.00
    0   20    6      0.39      0.00
  -20   21    6      2.64      0.00
  -20   22    6     -1.58      0.00
  -20   23    6      1.77      0.00
  -20   24    6      4.43      0.00
   -2   23    6      4.08      0.00
   -1   22    6     -3.64      0.00
    0   21    6     -6.46      0.00
  -21   22    6     -2.29      0.00
  -21   23    6     -3.23      0.00
    0   22    6      5.50      0.00
    0    0    7    -38.71      0.00
    0    1    7     -6.41      0.00
   -1    2    7     19.69      0.00
   -1    3    7    -24.14      0.00
    0    2    7     10.52      0.00
   -2    3    7    -10.15      0.00
   -2    4    7    -18.94      0.00
   -2    5    7    -19.19      0.00
   -1    4    7    -19.06      0.00
    0    3    7      9.82      0.00
   -3    4    7    -22.68      0.00
   -3    5    7    -14.62      0.00
   -3    6    7     11.67      0.00
   -3    7    7      4.19      0.00
   -2    6    7      9.01      0.00
   -1    5    7      2.54      0.00
    0    4    7      7.13      0.00
   -4    5    7      8.37      0.00
   -4    6    7     13.47      0.00
   -4    7    7     -2.17      0.00
   -4    8    7      2.02      0.00
   -4    9    7     -2.92      0.00
   -3    8    7      5.73      0.00
   -2    7    7     21.23      0.00
   -1    6    7      0.44      0.00
    0    5    7     -4.65      0.00
   -5    6    7      3.65      0.00
   -5    7    7      8.44      0.00
   -5    8    7      8.69      0.00
   -5    9    7     -3.93      0.00
   -5   10    7     12.03      0.00
   -5   11    7    -10.22      0.00
   -4   10    7     -0.89      0.00
   -3    9    7      2.56      0.00
   -2    8    7     -0.46      0.00
   -1    7    7     -2.50      0.00
    0    6    7      0.01      0.00
   -6    7    7     -0.75      0.00
   -6    8    7     -0.40      0.00
   -6    9    7      5.33      0.00
   -6   10    7     -2.66      0.00
   -6   11    7     -5.20      0.00
   -6   12    7     -1.12      0.00
   -6   13    7      1.21      0.00
   -5   12    7     -7.62      0.00
   -4   11    7     12.29      0.00
   -3   10    7    -10.88      0.00
   -2    9    7     -9.53      0.00
   -1    8    7      0.10      0.00
    0    7    7    -13.93      0.00
   -7    8    7      1.24      0.00
   -7    9    7     -5.88      0.00
   -7   10    7     -3.86      0.00
   -7   11    7      0.55      0.00
   -7   12    7      0.98      0.00
   -7   13    7     -0.49      0.00
   -7   14    7     -5.95      0.00
   -7   15    7      2.77      0.00
   -6   14    7      0.02      0.00
   -5   13    7     -3.62      0.00
   -4   12    7     -1.29      0.00
   -3   11    7     -7.59      0.00
   -2   10    7     -8.27      0.00
   -1    9    7     -7.02      0.00
    0    8    7      0.37      0.00
   -8    9    7     -8.74      0.00
   -8   10    7     -9.36      0.00
   -8   11    7    -10.18      0.00
   -8   12    7      1.03      0.00
   -8   13    7      6.12      0.00
   -8   14    7      1.53      0.00
   -8   15    7      1.70      0.00
   -8   16    7     -8.36      0.00
   -8   17    7      0.77      0.00
   -7   16    7     13.53      0.00
   -6   15    7     -6.47      0.00
   -5   14    7     -1.35      0.00
   -4   13    7     -6.94      0.00
   -3   12    7      6.14      0.00
   -2   11    7     -9.34      0.00
   -1   10    7     -3.05      0.00
    0    9    7      7.25      0.00
   -9   10    7     -3.46      0.00
   -9   11    7     -4.67      0.00
   -9   12    7     -3.24      0.00
   -9   13    7     -7.31      0.00
   -9   14    7      3.14      0.00
   -9   15    7     -4.48      0.00
   -9   16    7     -2.62      0.00
   -9   17    7      2.66      0.00
   -9   18    7      4.02      0.00
   -9   19    7     -1.93      0.00
   -8   18    7      2.09      0.00
   -7   17    7      4.26      0.00
   -6   16    7      3.34      0.00
   -5   15    7     -0.20      0.00
   -4   14    7     -7.87      0.00
   -3   13    7     -6.19      0.00
   -2   12    7      1.77      0.00
   -1   11    7      3.70      0.00
    0   10    7      3.70      0.00
  -10   11    7     14.16      0.00
  -10   12    7     -7.70      0.00
  -10   13    7     -9.06      0.00
  -10   14    7     -6.94      0.00
  -10   15    7      5.84      0.00
  -10   16    7     -0.88      0.00
  -10   17    7      1.72      0.00
  -10   18    7     -2.17      0.00
  -10   19    7      4.60      0.00
  -10   20    7      2.22      0.00
  -10   21    7      6.71      0.00
   -9   20    7      3.52      0.00
   -8   19    7      5.27      0.00
   -7   18    7     -1.07      0.00
   -6   17    7      3.63      0.00
   -5   16    7     -2.72      0.00
   -4   15    7     -3.65      0.00
   -3   14    7      0.58      0.00
   -2   13    7     -3.96      0.00
   -1   12    7    -13.83      0.00
    0   11    7     -3.18      0.00
  -11   12    7     -5.03      0.00
  -11   13    7     -0.54      0.00
  -11   14    7     -2.62      0.00
  -11   15    7     -0.12      0.00
  -11   16    7      4.90      0.00
  -11   17    7      9.26      0.00
  -11   18    7     -2.67      0.00
  -11   19    7      4.61      0.00
  -11   20    7     -4.51      0.00
  -11   21    7     15.54      0.00
  -11   22    7      0.53      0.00
  -11   23    7      7.03      0.00
  -10   22    7      1.06      0.00
   -9   21    7     -1.30      0.00
   -8   20    7      2.35      0.00
   -7   19    7      0.78      0.00
   -6   18    7      3.67      0.00
   -5   17    7     -2.78      0.00
   -4   16    7     -3.52      0.00
   -3   15    7     -0.35      0.00
   -2   14    7      0.57      0.00
   -1   13    7      1.59      0.00
    0   12    7      0.40      0.00
  -12   13    7      4.88      0.00
  -12   14    7     -2.31      0.00
  -12   15    7      3.26      0.00
  -12   16    7      3.83      0.00
  -12   17    7     -8.93      0.00
  -12   18    7     -0.46      0.00
  -12   19    7      4.67      0.00
  -12   20    7      3.89      0.00
  -12   21    7      1.97      0.00
  -12   22    7      5.12      0.00
  -12   23    7      6.76      0.00
  -12   24    7      4.60      0.00
  -12   25    7      8.54      0.00
  -11   24    7     -2.13      0.00
  -10   23    7     -3.48      0.00
   -9   22    7      7.16      0.00
   -8   21    7     -1.16      0.00
   -7   20    7      8.85      0.00
   -6   19    7     -1.83      0.00
   -5   18    7      5.83      0.00
   -4   17    7      0.34      0.00
   -3   16    7      3.29      0.00
   -2   15    7     -7.43      0.00
   -1   14    7     -0.20      0.00
    0   13    7     -4.99      0.00
  -13   14    7     10.53      0.00
  -13   15    7      5.23      0.00
  -13   16    7     -0.03      0.00
  -13   17    7     -4.46      0.00
  -13   18    7      0.81      0.00
  -13   19    7      5.98      0.00
  -13   20    7      7.68      0.00
  -13   21    7      2.38      0.00
  -13   22    7      2.92      0.00
  -13   23    7     -1.61      0.00
  -13   24    7      0.51      0.00
  -13   25    7      6.96      0.00
  -11   25    7     -1.48      0.00
  -10   24    7      6.07      0.00
   -9   23    7      2.93      0.00
   -8   22    7      0.55      0.00
   -7   21    7     -7.07      0.00
   -6   20    7      0.97      0.00
   -5   19    7      0.77      0.00
   -4   18    7      1.83      0.00
   -3   17    7      0.52      0.00
   -2   16    7      2.15      0.00
   -1   15    7      3.43      0.00
    0   14    7      1.53      0.00
  -14   15    7      6.58      0.00
  -14   16    7      7.69      0.00
  -14   17    7     -3.89      0.00
  -14   18    7     -0.88      0.00
  -14   19    7      6.59      0.00
  -14   20    7      4.97      0.00
  -14   21    7      2.18      0.00
  -14   22    7      3.08      0.00
  -14   23    7      8.87      0.00
  -14   24    7     -5.75      0.00
  -14   25    7     -0.52      0.00
  -10   25    7     -3.31      0.00
   -9   24    7      3.34      0.00
   -8   23    7     -4.82      0.00
   -7   22    7      5.04      0.00
   -6   21    7     10.27      0.00
   -5   20    7      1.95      0.00
   -4   19    7     -2.93      0.00
   -3   18    7     -0.65      0.00
   -2   17    7      3.05      0.00
   -1   16    7     -8.87      0.00
    0   15    7      4.75      0.00
  -15   16    7     -7.77      0.00
  -15   17    7      1.93      0.00
  -15   18    7      7.66      0.00
  -15   19    7      6.54      0.00
  -15   20    7      3.59      0.00
  -15   21    7      0.30      0.00
  -15   22    7      7.14      0.00
  -15   23    7     -1.90      0.00
  -15   24    7     -8.70      0.00
  -15   25    7      0.77      0.00
   -9   25    7     -7.05      0.00
   -8   24    7      1.95      0.00
   -7   23    7      3.76      0.00
   -6   22    7      0.19      0.00
   -5   21    7      0.02      0.00
   -4   20    7     -1.60      0.00
   -3   19    7      5.96      0.00
   -2   18    7     -2.19      0.00
   -1   17    7      4.83      0.00
    0   16    7      1.67      0.00
  -16   17    7      2.60      0.00
  -16   18    7      2.16      0.00
  -16   19    7     -3.00      0.00
  -16   20    7     -2.50      0.00
  -16   21    7      0.66      0.00
  -16   22    7      6.66      0.00
  -16   23    7      0.88      0.00
  -16   24    7      8.96      0.00
  -16   25    7     -3.24      0.00
   -7   24    7      3.09      0.00
   -6   23    7      8.88      0.00
   -5   22    7      4.48      0.00
   -4   21    7      2.73      0.00
   -3   20    7     -5.54      0.00
   -2   19    7      3.52      0.00
   -1   18    7      6.55      0.00
    0   17    7     -3.23      0.00
  -17   18    7      7.11      0.00
  -17   19    7     -3.55      0.00
  -17   20    7      2.34      0.00
  -17   21    7      2.44      0.00
  -17   22    7     -3.45      0.00
  -17   23    7      3.62      0.00
  -17   24    7      4.51      0.00
   -6   24    7     -4.53      0.00
   -5   23    7      6.00      0.00
   -4   22    7      0.22      0.00
   -3   21    7      0.57      0.00
   -2   20    7      3.65      0.00
   -1   19    7      7.13      0.00
    0   18    7      4.84      0.00
  -18   19    7      7.16      0.00
  -18   20    7      8.81      0.00
  -18   21    7      3.00      0.00
  -18   22    7     -1.96      0.00
  -18   23    7      2.53      0.00
  -18   24    7      1.38      0.00
   -5   24    7     -0.43      0.00
   -4   23    7      5.53      0.00
   -3   22    7     -1.88      0.00
   -2   21    7      9.08      0.00
   -1   20    7      2.99      0.00
    0   19    7      7.34      0.00
  -19   20    7     -0.70      0.00
  -19   21    7      2.87      0.00
  -19   22    7      3.93      0.00
  -19   23    7      0.01      0.00
  -19   24    7      3.42      0.00
   -3   23    7      1.94      0.00
   -2   22    7      5.87      0.00
   -1   21    7      4.88      0.00
    0   20    7     12.21      0.00
  -20   21    7      5.87      0.00
  -20   22    7      2.49      0.00
  -20   23    7     -1.85      0.00
   -1   22    7      8.19      0.00
    0   21    7     -1.62      0.00
  -21   22    7      7.88      0.00
  -21   23    7      2.82      0.00
    0   22    7      7.84      0.00
   -2   23    7     -7.55      0.00
    0    0    8     50.20      0.00
    0    1    8    -14.69      0.00
   -1    2    8      1.74      0.00
   -1    3    8     12.01      0.00
    0    2    8     -2.88      0.00
   -2    3    8     -4.24      0.00
   -2    4    8     -0.44      0.00
   -2    5    8     13.89      0.00
   -1    4    8      9.65      0.00
    0    3    8     -8.29      0.00
   -3    4    8     21.23      0.00
   -3    5    8      6.63      0.00
   -3    6    8     -4.86      0.00
   -3    7    8    -28.16      0.00
   -2    6    8      5.08      0.00
   -1    5    8      0.32      0.00
    0    4    8      4.73      0.00
   -4    5    8     12.84      0.00
   -4    6    8      1.65      0.00
   -4    7    8     -4.09      0.00
   -4    8    8     -4.41      0.00
   -4    9    8      2.51      0.00
   -3    8    8      4.22      0.00
   -2    7    8     -8.90      0.00
   -1    6    8    -19.53      0.00
    0    5    8     -0.05      0.00
   -5    6    8    -17.83      0.00
   -5    7    8      5.63      0.00
   -5    8    8      2.72      0.00
   -5    9    8     -3.73      0.00
   -5   10    8    -11.03      0.00
   -5   11    8     -8.94      0.00
   -4   10    8     -4.05      0.00
   -3    9    8     12.24      0.00
   -2    8    8      5.22      0.00
   -1    7    8    -12.11      0.00
    0    6    8      6.16      0.00
   -6    7    8      0.31      0.00
   -6    8    8     -2.08      0.00
   -6    9    8     -1.09      0.00
   -6   10    8      0.47      0.00
   -6   11    8     -0.29      0.00
   -6   12    8     -1.18      0.00
   -6   13    8      5.01      0.00
   -5   12    8      1.28      0.00
   -4   11    8      0.61      0.00
   -3   10    8     17.63      0.00
   -2    9    8     -4.43      0.00
   -1    8    8     -0.99      0.00
    0    7    8      3.80      0.00
   -7    8    8      2.11      0.00
   -7    9    8      7.17      0.00
   -7   10    8     -6.35      0.00
   -7   11    8    -13.63      0.00
   -7   12    8      4.60      0.00
   -7   13    8      0.46      0.00
   -7   14    8     -5.94      0.00
   -7   15    8     -1.00      0.00
   -6   14    8     -4.88      0.00
   -5   13    8      4.00      0.00
   -4   12    8     -3.19      0.00
   -3   11    8     -5.92      0.00
   -2   10    8     11.93      0.00
   -1    9    8      9.78      0.00
    0    8    8    -14.36      0.00
   -8    9    8      6.49      0.00
   -8   10    8      3.73      0.00
   -8   11    8     14.04      0.00
   -8   12    8     -4.65      0.00
   -8   13    8     -2.34      0.00
   -8   14    8     -3.65      0.00
   -8   15    8     -5.40      0.00
   -8   16    8      2.82      0.00
   -8   17    8     -2.86      0.00
   -7   16    8    -12.02      0.00
   -6   15    8     -0.13      0.00
   -5   14    8     14.81      0.00
   -4   13    8      1.90      0.00
   -3   12    8      1.73      0.00
   -2   11    8     -2.17      0.00
   -1   10    8     -5.49      0.00
    0    9    8     -4.42      0.00
   -9   10    8     -1.23      0.00
   -9   11    8    -10.63      0.00
   -9   12    8     -7.58      0.00
   -9   13    8      3.74      0.00
   -9   14    8      5.50      0.00
   -9   15    8      1.96      0.00
   -9   16    8     -1.19      0.00
   -9   17    8      4.68      0.00
   -9   18    8      4.40      0.00
   -9   19    8      1.89      0.00
   -8   18    8     -0.36      0.00
   -7   17    8     10.72      0.00
   -6   16    8     -1.41      0.00
   -5   15    8     -5.31      0.00
   -4   14    8      3.29      0.00
   -3   13    8     -6.41      0.00
   -2   12    8      5.08      0.00
   -1   11    8      3.95      0.00
    0   10    8     -1.46      0.00
  -10   11    8      0.30      0.00
  -10   12    8     -0.28      0.00
  -10   13    8      4.06      0.00
  -10   14    8      1.30      0.00
  -10   15    8     -5.35      0.00
  -10   16    8     -2.56      0.00
  -10   17    8      9.17      0.00
  -10   18    8     -4.92      0.00
  -10   19    8      0.27      0.00
  -10   20    8     -4.28      0.00
  -10   21    8     -3.52      0.00
   -9   20    8      1.50      0.00
   -8   19    8      0.37      0.00
   -7   18    8      2.85      0.00
   -6   17    8     -8.48      0.00
   -5   16    8      3.24      0.00
   -4   15    8      1.66      0.00
   -3   14    8      3.97      0.00
   -2   13    8     -4.33      0.00
   -1   12    8      0.08      0.00
    0   11    8    -10.38      0.00
  -11   12    8     -6.31      0.00
  -11   13    8      1.78      0.00
  -11   14    8     -1.74      0.00
  -11   15    8      4.47      0.00
  -11   16    8     -2.97      0.00
  -11   17    8      0.52      0.00
  -11   18    8     -5.75      0.00
  -11   19    8      4.14      0.00
  -11   20    8      0.70      0.00
  -11   21    8     -0.70      0.00
  -11   22    8     -5.54      0.00
  -11   23    8      3.98      0.00
  -10   22    8     -2.31      0.00
   -9   21    8     -5.36      0.00
   -8   20    8      3.32      0.00
   -7   19    8     -2.81      0.00
   -6   18    8      5.24      0.00
   -5   17    8     -2.93      0.00
   -4   16    8     -0.44      0.00
   -3   15    8     -9.00      0.00
   -2   14    8     -0.39      0.00
   -1   13    8     10.43      0.00
    0   12    8      2.16      0.00
  -12   13    8     -6.95      0.00
  -12   14    8      3.27      0.00
  -12   15    8     -4.86      0.00
  -12   16    8      3.23      0.00
  -12   17    8     -4.20      0.00
  -12   18    8      2.67      0.00
  -12   19    8      1.83      0.00
  -12   20    8     -8.66      0.00
  -12   21    8     -3.00      0.00
  -12   22    8     -1.95      0.00
  -12   23    8      1.42      0.00
  -12   24    8      2.84      0.00
  -12   25    8     -0.90      0.00
  -11   24    8     -1.35      0.00
  -10   23    8     -4.15      0.00
   -9   22    8     -2.15      0.00
   -8   21    8     -3.50      0.00
   -7   20    8      3.82      0.00
   -6   19    8      4.58      0.00
   -5   18    8      9.05      0.00
   -4   17    8     -5.82      0.00
   -3   16    8     -2.92      0.00
   -2   15    8      7.11      0.00
   -1   14    8    -11.11      0.00
    0   13    8     -0.42      0.00
  -13   14    8     -9.39      0.00
  -13   15    8     -5.62      0.00
  -13   16    8      1.64      0.00
  -13   17    8      0.51      0.00
  -13   18    8      0.14      0.00
  -13   19    8     -4.48      0.00
  -13   20    8     -7.26      0.00
  -13   21    8      4.99      0.00
  -13   22    8      0.21      0.00
  -13   23    8      0.82      0.00
  -13   24    8     -1.59      0.00
  -13   25    8     -1.95      0.00
  -11   25    8     -0.37      0.00
  -10   24    8     -3.48      0.00
   -9   23    8     -1.34      0.00
   -8   22    8     -3.42      0.00
   -7   21    8      5.58      0.00
   -6   20    8      1.49      0.00
   -5   19    8      7.21      0.00
   -4   18    8     -5.93      0.00
   -3   17    8     13.15      0.00
   -2   16    8     -3.41      0.00
   -1   15    8      0.06      0.00
    0   14    8      0.82      0.00
  -14   15    8     -3.89      0.00
  -14   16    8     -0.43      0.00
  -14   17    8     -1.49      0.00
  -14   18    8      2.71      0.00
  -14   19    8    -12.97      0.00
  -14   20    8     -4.44      0.00
  -14   21    8     -6.56      0.00
  -14   22    8      5.40      0.00
  -14   23    8      5.04      0.00
  -14   24    8      3.36      0.00
  -14   25    8      4.43      0.00
   -9   24    8      4.04      0.00
   -8   23    8      0.74      0.00
   -7   22    8      0.48      0.00
   -6   21    8     -1.05      0.00
   -5   20    8      1.45      0.00
   -4   19    8     11.38      0.00
   -3   18    8      3.75      0.00
   -2   17    8     -2.26      0.00
   -1   16    8      3.27      0.00
    0   15    8     -0.20      0.00
  -15   16    8     -5.10      0.00
  -15   17    8      0.49      0.00
  -15   18    8     -2.49      0.00
  -15   19    8     -4.41      0.00
  -15   20    8     -0.96      0.00
  -15   21    8      2.42      0.00
  -15   22    8     -2.09      0.00
  -15   23    8     -1.78      0.00
  -15   24    8      2.44      0.00
  -15   25    8      3.31      0.00
   -8   24    8     -0.67      0.00
   -7   23    8    -10.91      0.00
   -6   22    8     -7.67      0.00
   -5   21    8    -10.70      0.00
   -4   20    8      9.91      0.00
   -3   19    8      0.45      0.00
   -2   18    8      4.51      0.00
   -1   17    8      2.51      0.00
    0   16    8      7.57      0.00
  -16   17    8      4.08      0.00
  -16   18    8     -0.21      0.00
  -16   19    8     -4.13      0.00
  -16   20    8      2.39      0.00
  -16   21    8     12.67      0.00
  -16   22    8      6.38      0.00
  -16   23    8      0.97      0.00
  -16   24    8      0.74      0.00
   -7   24    8     -4.55      0.00
   -6   23    8     -9.86      0.00
   -5   22    8     -6.16      0.00
   -4   21    8      1.38      0.00
   -3   20    8      3.75      0.00
   -2   19    8     -2.30      0.00
   -1   18    8      3.10      0.00
    0   17    8     -3.71      0.00
  -17   18    8     -0.55      0.00
  -17   19    8     -0.98      0.00
  -17   20    8      5.76      0.00
  -17   21    8      0.98      0.00
  -17   22    8     -0.07      0.00
  -17   23    8     -0.94      0.00
  -17   24    8      7.98      0.00
   -6   24    8     -9.82      0.00
   -5   23    8     -2.02      0.00
   -4   22    8      0.25      0.00
   -3   21    8      8.62      0.00
   -2   20    8      0.16      0.00
   -1   19    8     -6.31      0.00
    0   18    8    -10.25      0.00
  -18   19    8     -5.87      0.00
  -18   20    8      7.37      0.00
  -18   21    8     -2.87      0.00
  -18   22    8      4.58      0.00
  -18   23    8      5.48      0.00
  -18   24    8     -5.31      0.00
   -4   23    8     -4.40      0.00
   -3   22    8     -4.60      0.00
   -2   21    8      4.84      0.00
   -1   20    8      1.77      0.00
    0   19    8     -5.33      0.00
  -19   20    8      1.80      0.00
  -19   21    8     -8.25      0.00
  -19   22    8      7.84      0.00
  -19   23    8     -5.58      0.00
   -3   23    8      4.28      0.00
   -2   22    8      5.85      0.00
   -1   21    8     -8.57      0.00
    0   20    8     -8.83      0.00
  -20   21    8      3.86      0.00
  -20   22    8      2.91      0.00
  -20   23    8      6.85      0.00
   -1   22    8     -0.74      0.00
    0   21    8     -1.14      0.00
  -21   22    8     -2.18      0.00
    0    0    9     48.16      0.00
    0    1    9    -23.71      0.00
   -1    2    9     12.55      0.00
   -1    3    9     11.35      0.00
    0    2    9     -1.96      0.00
   -2    3    9      2.04      0.00
   -2    4    9      3.90      0.00
   -2    5    9      6.64      0.00
   -1    4    9      7.81      0.00
    0    3    9     -4.15      0.00
   -3    4    9     11.42      0.00
   -3    5    9      1.57      0.00
   -3    6    9     -3.80      0.00
   -3    7    9      7.57      0.00
   -2    6    9     -0.52      0.00
   -1    5    9     -9.50      0.00
    0    4    9    -14.12      0.00
   -4    5    9     -4.35      0.00
   -4    6    9     -7.83      0.00
   -4    7    9     11.94      0.00
   -4    8    9      8.48      0.00
   -4    9    9     -7.01      0.00
   -3    8    9     -6.94      0.00
   -2    7    9      1.57      0.00
   -1    6    9      1.06      0.00
    0    5    9      6.46      0.00
   -5    6    9     -9.92      0.00
   -5    7    9      4.70      0.00
   -5    8    9    -22.26      0.00
   -5    9    9      6.10      0.00
   -5   10    9      7.94      0.00
   -5   11    9      7.20      0.00
   -4   10    9     -5.13      0.00
   -3    9    9    -25.30      0.00
   -2    8    9      5.87      0.00
   -1    7    9     -7.93      0.00
    0    6    9     22.26      0.00
   -6    7    9     -3.70      0.00
   -6    8    9    -14.30      0.00
   -6    9    9      6.06      0.00
   -6   10    9     -2.15      0.00
   -6   11    9      5.55      0.00
   -6   12    9      2.91      0.00
   -6   13    9      6.88      0.00
   -5   12    9     -3.32      0.00
   -4   11    9     -7.62      0.00
   -3   10    9      4.91      0.00
   -2    9    9    -23.65      0.00
   -1    8    9     11.05      0.00
    0    7    9      7.69      0.00
   -7    8    9     -0.62      0.00
   -7    9    9     -2.72      0.00
   -7   10    9     -0.25      0.00
   -7   11    9     -2.03      0.00
   -7   12    9      3.57      0.00
   -7   13    9    -12.89      0.00
   -7   14    9     -1.65      0.00
   -7   15    9     16.86      0.00
   -6   14    9      3.06      0.00
   -5   13    9     -8.10      0.00
   -4   12    9     -0.87      0.00
   -3   11    9     -5.28      0.00
   -2   10    9     -5.72      0.00
   -1    9    9     12.37      0.00
    0    8    9     -4.53      0.00
   -8    9    9      2.69      0.00
   -8   10    9      2.22      0.00
   -8   11    9     16.11      0.00
   -8   12    9     -8.10      0.00
   -8   13    9     -1.64      0.00
   -8   14    9      4.28      0.00
   -8   15    9      7.60      0.00
   -8   16    9      3.20      0.00
   -8   17    9      1.15      0.00
   -7   16    9     11.92      0.00
   -6   15    9     -4.75      0.00
   -5   14    9     -0.67      0.00
   -4   13    9     -1.10      0.00
   -3   12    9      4.57      0.00
   -2   11    9     -1.42      0.00
   -1   10    9     -8.40      0.00
    0    9    9      2.32      0.00
   -9   10    9     -0.08      0.00
   -9   11    9     -5.42      0.00
   -9   12    9     -4.78      0.00
   -9   13    9      6.75      0.00
   -9   14    9     -7.30      0.00
   -9   15    9     12.02      0.00
   -9   16    9     -4.05      0.00
   -9   17    9      3.67      0.00
   -9   18    9     -0.42      0.00
   -9   19    9      6.83      0.00
   -8   18    9      1.19      0.00
   -7   17    9      3.31      0.00
   -6   16    9      2.83      0.00
   -5   15    9      1.67      0.00
   -4   14    9      5.57      0.00
   -3   13    9     -2.17      0.00
   -2   12    9      4.72      0.00
   -1   11    9     -0.69      0.00
    0   10    9    -11.79      0.00
  -10   11    9      4.14      0.00
  -10   12    9     18.40      0.00
  -10   13    9     -3.68      0.00
  -10   14    9     11.81      0.00
  -10   15    9    -10.16      0.00
  -10   16    9      1.26      0.00
  -10   17    9      7.43      0.00
  -10   18    9     -1.37      0.00
  -10   19    9      4.57      0.00
  -10   20    9     -5.98      0.00
  -10   21    9      5.21      0.00
   -9   20    9     -2.03      0.00
   -8   19    9     -0.83      0.00
   -7   18    9      0.78      0.00
   -6   17    9     -0.44      0.00
   -5   16    9      2.13      0.00
   -4   15    9     -0.73      0.00
   -3   14    9      4.10      0.00
   -2   13    9      6.18      0.00
   -1   12    9     -2.09      0.00
    0   11    9     -1.40      0.00
  -11   12    9     -4.27      0.00
  -11   13    9      1.88      0.00
  -11   14    9     -3.96      0.00
  -11   15    9     -1.47      0.00
  -11   16    9      8.47      0.00
  -11   17    9     -4.02      0.00
  -11   18    9     -1.55      0.00
  -11   19    9      8.39      0.00
  -11   20    9      7.57      0.00
  -11   21    9      2.75      0.00
  -11   22    9     -3.11      0.00
  -11   23    9      2.85      0.00
  -10   22    9     -2.07      0.00
   -9   21    9      0.67      0.00
   -8   20    9      9.65      0.00
   -7   19    9     -2.14      0.00
   -6   18    9     -4.72      0.00
   -5   17    9      7.53      0.00
   -4   16    9      4.48      0.00
   -3   15    9      5.53      0.00
   -2   14    9     -4.78      0.00
   -1   13    9     -1.84      0.00
    0   12    9      1.88      0.00
  -12   13    9     -1.76      0.00
  -12   14    9     -2.34      0.00
  -12   15    9      2.78      0.00
  -12   16    9     -0.63      0.00
  -12   17    9      1.49      0.00
  -12   18    9     10.65      0.00
  -12   19    9      1.73      0.00
  -12   20    9     -0.87      0.00
  -12   21    9      1.39      0.00
  -12   22    9     -3.96      0.00
  -12   23    9      0.99      0.00
  -12   24    9     -2.77      0.00
  -11   24    9     -3.32      0.00
  -10   23    9      2.16      0.00
   -9   22    9     23.81      0.00
   -8   21    9     -6.97      0.00
   -7   20    9     -8.91      0.00
   -6   19    9     -5.18      0.00
   -5   18    9      6.62      0.00
   -4   17    9     -4.24      0.00
   -3   16    9     -5.40      0.00
   -2   15    9     10.34      0.00
   -1   14    9     -6.53      0.00
    0   13    9      1.96      0.00
  -13   14    9     -3.29      0.00
  -13   15    9      4.19      0.00
  -13   16    9     -5.93      0.00
  -13   17    9      5.42      0.00
  -13   18    9     -2.84      0.00
  -13   19    9      4.09      0.00
  -13   20    9      4.06      0.00
  -13   21    9      5.88      0.00
  -13   22    9     -0.43      0.00
  -13   23    9      2.39      0.00
  -13   24    9     -6.22      0.00
  -10   24    9      4.56      0.00
   -9   23    9      0.87      0.00
   -8   22    9     -0.44      0.00
   -7   21    9      3.31      0.00
   -6   20    9      3.38      0.00
   -5   19    9    -17.77      0.00
   -4   18    9     -8.52      0.00
   -3   17    9      5.92      0.00
   -2   16    9     -2.23      0.00
   -1   15    9      1.29      0.00
    0   14    9      6.56      0.00
  -14   15    9     -1.64      0.00
  -14   16    9     10.16      0.00
  -14   17    9     -2.50      0.00
  -14   18    9     13.61      0.00
  -14   19    9      1.51      0.00
  -14   20    9      1.88      0.00
  -14   21    9     -1.68      0.00
  -14   22    9      5.13      0.00
  -14   23    9     -7.00      0.00
  -14   24    9      2.08      0.00
   -9   24    9     -6.74      0.00
   -8   23    9     -0.77      0.00
   -7   22    9     -0.34      0.00
   -6   21    9      1.99      0.00
   -5   20    9     -6.10      0.00
   -4   19    9      0.54      0.00
   -3   18    9     -5.57      0.00
   -2   17    9     -1.83      0.00
   -1   16    9      2.33      0.00
    0   15    9      0.55      0.00
  -15   16    9     -1.92      0.00
  -15   17    9     -1.95      0.00
  -15   18    9     -3.06      0.00
  -15   19    9     -0.66      0.00
  -15   20    9      4.88      0.00
  -15   21    9      2.97      0.00
  -15   22    9     -3.04      0.00
  -15   23    9     -3.51      0.00
  -15   24    9     -2.44      0.00
   -8   24    9      0.89      0.00
   -7   23    9     10.71      0.00
   -6   22    9     -1.52      0.00
   -5   21    9      3.20      0.00
   -4   20    9     -8.35      0.00
   -3   19    9      6.65      0.00
   -2   18    9     -5.38      0.00
   -1   17    9     -5.73      0.00
    0   16    9      0.59      0.00
  -16   17    9      3.51      0.00
  -16   18    9      3.03      0.00
  -16   19    9     12.08      0.00
  -16   20    9     -0.89      0.00
  -16   21    9    -14.38      0.00
  -16   22    9     -8.19      0.00
  -16   23    9      0.36      0.00
  -16   24    9      9.36      0.00
   -7   24    9     10.14      0.00
   -6   23    9      2.76      0.00
   -5   22    9      3.99      0.00
   -4   21    9      3.00      0.00
   -3   20    9     -0.71      0.00
   -2   19    9     -6.00      0.00
   -1   18    9      7.99      0.00
    0   17    9     -5.81      0.00
  -17   18    9      0.94      0.00
  -17   19    9     -2.25      0.00
  -17   20    9      3.82      0.00
  -17   21    9     -1.67      0.00
  -17   22    9     -4.61      0.00
  -17   23    9     -4.81      0.00
  -17   24    9      2.36      0.00
   -5   23    9     -0.01      0.00
   -4   22    9      8.63      0.00
   -3   21    9    -15.13      0.00
   -2   20    9      0.29      0.00
   -1   19    9     -2.59      0.00
    0   18    9      9.42      0.00
  -18   19    9      3.30      0.00
  -18   20    9     -0.36      0.00
  -18   21    9     -3.74      0.00
  -18   22    9     -0.87      0.00
  -18   23    9      9.66      0.00
   -4   23    9     -6.96      0.00
   -3   22    9      0.17      0.00
   -2   21    9      0.51      0.00
   -1   20    9      7.75      0.00
    0   19    9     -5.64      0.00
  -19   20    9      4.88      0.00
  -19   21    9     -2.63      0.00
  -19   22    9      4.80      0.00
  -19   23    9     -4.09      0.00
   -2   22    9     -4.57      0.00
   -1   21    9      0.51      0.00
    0   20    9      0.97      0.00
  -20   21    9     -1.38      0.00
  -20   22    9     -7.96      0.00
    0   21    9      0.12      0.00
    0    0   10     82.78      0.00
    0    1   10     -3.91      0.00
   -1    2   10     23.64      0.00
   -1    3   10      0.63      0.00
    0    2   10      9.41      0.00
   -2    3   10    -24.77      0.00
   -2    4   10    -30.44      0.00
   -2    5   10      5.19      0.00
   -1    4   10      0.62      0.00
    0    3   10     -8.36      0.00
   -3    4   10     15.95      0.00
   -3    5   10    -11.43      0.00
   -3    6   10     -3.52      0.00
   -3    7   10    -14.81      0.00
   -2    6   10     12.07      0.00
   -1    5   10     13.24      0.00
    0    4   10    -13.16      0.00
   -4    5   10      2.77      0.00
   -4    6   10    -12.24      0.00
   -4    7   10      9.88      0.00
   -4    8   10     -2.15      0.00
   -4    9   10     -0.28      0.00
   -3    8   10      6.01      0.00
   -2    7   10      8.51      0.00
   -1    6   10     -6.61      0.00
    0    5   10      4.94      0.00
   -5    6   10    -21.77      0.00
   -5    7   10     25.00      0.00
   -5    8   10    -18.13      0.00
   -5    9   10      3.57      0.00
   -5   10   10     -0.95      0.00
   -5   11   10      2.76      0.00
   -4   10   10      4.06      0.00
   -3    9   10      1.69      0.00
   -2    8   10     10.38      0.00
   -1    7   10    -10.59      0.00
    0    6   10      5.45      0.00
   -6    7   10     -2.66      0.00
   -6    8   10      6.56      0.00
   -6    9   10      4.56      0.00
   -6   10   10     -5.58      0.00
   -6   11   10     -5.17      0.00
   -6   12   10      3.87      0.00
   -6   13   10      2.54      0.00
   -5   12   10      6.24      0.00
   -4   11   10     -2.67      0.00
   -3   10   10     18.85      0.00
   -2    9   10     -5.88      0.00
   -1    8   10     -3.05      0.00
    0    7   10     -8.81      0.00
   -7    8   10      0.26      0.00
   -7    9   10     -3.79      0.00
   -7   10   10     -6.72      0.00
   -7   11   10      5.20      0.00
   -7   12   10     -1.31      0.00
   -7   13   10     -1.94      0.00
   -7   14   10      4.46      0.00
   -7   15   10      9.32      0.00
   -6   14   10      0.18      0.00
   -5   13   10     -4.32      0.00
   -4   12   10     10.05      0.00
   -3   11   10     10.37      0.00
   -2   10   10     -7.76      0.00
   -1    9   10      2.24      0.00
    0    8   10    -11.28      0.00
   -8    9   10     -3.11      0.00
   -8   10   10     -8.85      0.00
   -8   11   10      9.44      0.00
   -8   12   10      1.81      0.00
   -8   13   10     13.26      0.00
   -8   14   10      7.38      0.00
   -8   15   10     -9.85      0.00
   -8   16   10      0.56      0.00
   -8   17   10     -2.59      0.00
   -7   16   10    -23.37      0.00
   -6   15   10     -0.26      0.00
   -5   14   10      2.51      0.00
   -4   13   10     13.58      0.00
   -3   12   10     -5.06      0.00
   -2   11   10      0.55      0.00
   -1   10   10     11.72      0.00
    0    9   10      6.97      0.00
   -9   10   10      1.95      0.00
   -9   11   10     -7.83      0.00
   -9   12   10     -4.38      0.00
   -9   13   10      7.77      0.00
   -9   14   10    -13.07      0.00
   -9   15   10      5.84      0.00
   -9   16   10     -3.14      0.00
   -9   17   10     -1.07      0.00
   -9   18   10      4.49      0.00
   -9   19   10     -6.96      0.00
   -8   18   10     -6.06      0.00
   -7   17   10     13.59      0.00
   -6   16   10      7.25      0.00
   -5   15   10     -0.04      0.00
   -4   14   10     -6.92      0.00
   -3   13   10     -4.22      0.00
   -2   12   10     -0.82      0.00
   -1   11   10      3.62      0.00
    0   10   10      7.07      0.00
  -10   11   10      3.08      0.00
  -10   12   10      8.62      0.00
  -10   13   10    -13.42      0.00
  -10   14   10      8.64      0.00
  -10   15   10     -5.31      0.00
  -10   16   10      6.88      0.00
  -10   17   10      7.67      0.00
  -10   18   10     -6.32      0.00
  -10   19   10      2.71      0.00
  -10   20   10     -1.59      0.00
  -10   21   10      2.17      0.00
   -9   20   10      2.94      0.00
   -8   19   10      0.16      0.00
   -7   18   10     -2.32      0.00
   -6   17   10    -11.95      0.00
   -5   16   10      6.59      0.00
   -4   15   10      3.99      0.00
   -3   14   10      2.90      0.00
   -2   13   10     -2.51      0.00
   -1   12   10     -0.40      0.00
    0   11   10     10.44      0.00
  -11   12   10     -1.74      0.00
  -11   13   10      1.49      0.00
  -11   14   10     -3.39      0.00
  -11   15   10      0.92      0.00
  -11   16   10      6.05      0.00
  -11   17   10     -6.17      0.00
  -11   18   10     -5.14      0.00
  -11   19   10      1.00      0.00
  -11   20   10      5.79      0.00
  -11   21   10      6.54      0.00
  -11   22   10      8.85      0.00
  -11   23   10     -7.61      0.00
  -10   22   10     -0.61      0.00
   -9   21   10      1.62      0.00
   -8   20   10      1.71      0.00
   -7   19   10     -1.22      0.00
   -6   18   10      4.19      0.00
   -5   17   10     -4.59      0.00
   -4   16   10      4.97      0.00
   -3   15   10      1.18      0.00
   -2   14   10      3.05      0.00
   -1   13   10      2.12      0.00
    0   12   10      2.81      0.00
  -12   13   10      2.32      0.00
  -12   14   10      5.32      0.00
  -12   15   10     11.15      0.00
  -12   16   10      1.69      0.00
  -12   17   10      0.11      0.00
  -12   18   10      4.70      0.00
  -12   19   10      6.17      0.00
  -12   20   10     -9.38      0.00
  -12   21   10     -7.85      0.00
  -12   22   10      4.06      0.00
  -12   23   10      7.54      0.00
  -12   24   10     -2.85      0.00
  -11   24   10     -0.09      0.00
  -10   23   10    -11.21      0.00
   -9   22   10    -12.83      0.00
   -8   21   10     -0.99      0.00
   -7   20   10      2.64      0.00
   -6   19   10     -3.13      0.00
   -5   18   10      2.55      0.00
   -4   17   10      6.81      0.00
   -3   16   10     -3.45      0.00
   -2   15   10     14.15      0.00
   -1   14   10     -2.22      0.00
    0   13   10      9.84      0.00
  -13   14   10      5.31      0.00
  -13   15   10      6.49      0.00
  -13   16   10     -6.57      0.00
  -13   17   10     -2.15      0.00
  -13   18   10     -0.68      0.00
  -13   19   10      5.39      0.00
  -13   20   10      0.78      0.00
  -13   21   10      4.55      0.00
  -13   22   10      1.08      0.00
  -13   23   10     -4.55      0.00
  -13   24   10     -6.49      0.00
  -10   24   10     -3.22      0.00
   -9   23   10      5.38      0.00
   -8   22   10     -9.97      0.00
   -7   21   10     -8.84      0.00
   -6   20   10     -0.40      0.00
   -5   19   10     16.00      0.00
   -4   18   10     -5.78      0.00
   -3   17   10     12.78      0.00
   -2   16   10     -5.03      0.00
   -1   15   10     -3.21      0.00
    0   14   10      9.50      0.00
  -14   15   10      0.66      0.00
  -14   16   10      7.17      0.00
  -14   17   10      1.18      0.00
  -14   18   10      8.63      0.00
  -14   19   10     -0.38      0.00
  -14   20   10     10.43      0.00
  -14   21   10     -1.22      0.00
  -14   22   10     -0.53      0.00
  -14   23   10     -5.38      0.00
  -14   24   10      5.82      0.00
   -9   24   10     -3.68      0.00
   -8   23   10     -3.49      0.00
   -7   22   10      2.36      0.00
   -6   21   10     13.40      0.00
   -5   20   10     -5.11      0.00
   -4   19   10     -4.12      0.00
   -3   18   10      3.16      0.00
   -2   17   10     -4.05      0.00
   -1   16   10      3.66      0.00
    0   15   10      0.41      0.00
  -15   16   10     -1.64      0.00
  -15   17   10      1.43      0.00
  -15   18   10     -4.02      0.00
  -15   19   10      3.13      0.00
  -15   20   10      2.84      0.00
  -15   21   10      6.06      0.00
  -15   22   10     -0.80      0.00
  -15   23   10      5.72      0.00
  -15   24   10      4.09      0.00
   -7   23   10      2.34      0.00
   -6   22   10      1.33      0.00
   -5   21   10     -0.48      0.00
   -4   20   10      3.74      0.00
   -3   19   10     -4.37      0.00
   -2   18   10      1.45      0.00
   -1   17   10      1.19      0.00
    0   16   10     -0.89      0.00
  -16   17   10      7.27      0.00
  -16   18   10      5.29      0.00
  -16   19   10     -4.48      0.00
  -16   20   10     -4.18      0.00
  -16   21   10     16.38      0.00
  -16   22   10      3.86      0.00
  -16   23   10      0.15      0.00
   -6   23   10      1.54      0.00
   -5   22   10      2.71      0.00
   -4   21   10     -3.80      0.00
   -3   20   10     -0.68      0.00
   -2   19   10     -0.19      0.00
   -1   18   10      8.05      0.00
    0   17   10     -3.73      0.00
  -17   18   10     -2.90      0.00
  -17   19   10     -7.02      0.00
  -17   20   10      7.02      0.00
  -17   21   10     -1.51      0.00
  -17   22   10      0.82      0.00
  -17   23   10      6.33      0.00
   -5   23   10      1.23      0.00
   -4   22   10      6.47      0.00
   -3   21   10    -11.76      0.00
   -2   20   10     -1.28      0.00
   -1   19   10      0.35      0.00
    0   18   10      5.39      0.00
  -18   19   10      2.90      0.00
  -18   20   10     -4.99      0.00
  -18   21   10     -3.66      0.00
  -18   22   10      8.73      0.00
  -18   23   10      6.72      0.00
   -3   22   10      2.49      0.00
   -2   21   10     -3.49      0.00
   -1   20   10      0.49      0.00
    0   19   10     -0.49      0.00
  -19   20   10      5.25      0.00
  -19   21   10     -3.66      0.00
  -19   22   10      9.46      0.00
   -1   21   10      1.78      0.00
    0   20   10     -2.89      0.00
  -20   21   10      6.95      0.00
    0   21   10      3.40      0.00
    0    0   11    -29.33      0.00
    0    1   11    -14.21      0.00
   -1    2   11     -3.04      0.00
   -1    3   11     -0.29      0.00
    0    2   11      6.43      0.00
   -2    3   11     15.73      0.00
   -2    4   11     -0.93      0.00
   -2    5   11     -9.10      0.00
   -1    4   11      4.61      0.00
    0    3   11      1.75      0.00
   -3    4   11      6.78      0.00
   -3    5   11     10.38      0.00
   -3    6   11      0.63      0.00
   -3    7   11     -4.95      0.00
   -2    6   11    -14.75      0.00
   -1    5   11     -6.44      0.00
    0    4   11     -4.43      0.00
   -4    5   11      6.10      0.00
   -4    6   11     -1.82      0.00
   -4    7   11      3.49      0.00
   -4    8   11      2.57      0.00
   -4    9   11      2.43      0.00
   -3    8   11      3.31      0.00
   -2    7   11     -1.45      0.00
   -1    6   11     -7.98      0.00
    0    5   11      7.35      0.00
   -5    6   11     -4.84      0.00
   -5    7   11      7.43      0.00
   -5    8   11    -14.73      0.00
   -5    9   11     12.17      0.00
   -5   10   11     -8.32      0.00
   -5   11   11      3.12      0.00
   -4   10   11     -3.66      0.00
   -3    9   11     -1.53      0.00
   -2    8   11     12.71      0.00
   -1    7   11     -1.29      0.00
    0    6   11      0.95      0.00
   -6    7   11      1.71      0.00
   -6    8   11     -2.62      0.00
   -6    9   11      8.16      0.00
   -6   10   11     -4.12      0.00
   -6   11   11      3.09      0.00
   -6   12   11      5.23      0.00
   -6   13   11     -2.86      0.00
   -5   12   11      0.95      0.00
   -4   11   11    -11.00      0.00
   -3   10   11     21.54      0.00
   -2    9   11      0.20      0.00
   -1    8   11      2.18      0.00
    0    7   11     -1.29      0.00
   -7    8   11      0.32      0.00
   -7    9   11      6.70      0.00
   -7   10   11     -0.59      0.00
   -7   11   11     -0.63      0.00
   -7   12   11     -1.00      0.00
   -7   13   11     -2.50      0.00
   -7   14   11      0.34      0.00
   -7   15   11     -2.75      0.00
   -6   14   11     -1.12      0.00
   -5   13   11      1.98      0.00
   -4   12   11      1.80      0.00
   -3   11   11     -4.50      0.00
   -2   10   11     -3.50      0.00
   -1    9   11      4.19      0.00
    0    8   11      2.05      0.00
   -8    9   11      2.23      0.00
   -8   10   11      2.97      0.00
   -8   11   11     -5.61      0.00
   -8   12   11     -8.10      0.00
   -8   13   11      2.82      0.00
   -8   14   11      3.42      0.00
   -8   15   11     -9.95      0.00
   -8   16   11      3.89      0.00
   -8   17   11      3.69      0.00
   -7   16   11     -9.54      0.00
   -6   15   11      3.57      0.00
   -5   14   11      2.02      0.00
   -4   13   11      7.21      0.00
   -3   12   11     -3.37      0.00
   -2   11   11      4.31      0.00
   -1   10   11     -2.08      0.00
    0    9   11     -0.41      0.00
   -9   10   11     -1.80      0.00
   -9   11   11     -5.16      0.00
   -9   12   11     -7.17      0.00
   -9   13   11      5.03      0.00
   -9   14   11     -7.30      0.00
   -9   15   11      3.66      0.00
   -9   16   11     -2.63      0.00
   -9   17   11     -2.71      0.00
   -9   18   11     -2.20      0.00
   -9   19   11     -0.60      0.00
   -8   18   11     -1.86      0.00
   -7   17   11      5.60      0.00
   -6   16   11      2.00      0.00
   -5   15   11      1.67      0.00
   -4   14   11     -4.09      0.00
   -3   13   11      1.29      0.00
   -2   12   11      6.73      0.00
   -1   11   11      8.02      0.00
    0   10   11    -11.43      0.00
  -10   11   11      2.22      0.00
  -10   12   11      2.26      0.00
  -10   13   11     -0.21      0.00
  -10   14   11      5.07      0.00
  -10   15   11     -2.26      0.00
  -10   16   11      7.42      0.00
  -10   17   11      1.37      0.00
  -10   18   11      0.63      0.00
  -10   19   11     -1.74      0.00
  -10   20   11     -3.28      0.00
  -10   21   11     -9.89      0.00
   -9   20   11     -0.11      0.00
   -8   19   11      1.43      0.00
   -7   18   11     -1.97      0.00
   -6   17   11      2.84      0.00
   -5   16   11     -1.06      0.00
   -4   15   11      2.57      0.00
   -3   14   11      2.06      0.00
   -2   13   11      5.27      0.00
   -1   12   11      2.96      0.00
    0   11   11     -5.09      0.00
  -11   12   11     -1.29      0.00
  -11   13   11      6.59      0.00
  -11   14   11     -2.04      0.00
  -11   15   11      3.64      0.00
  -11   16   11      0.24      0.00
  -11   17   11     -4.56      0.00
  -11   18   11     -1.40      0.00
  -11   19   11      2.99      0.00
  -11   20   11      3.18      0.00
  -11   21   11    -13.93      0.00
  -11   22   11     -2.66      0.00
  -11   23   11      5.10      0.00
  -10   22   11     -6.01      0.00
   -9   21   11      0.76      0.00
   -8   20   11     -0.97      0.00
   -7   19   11      1.66      0.00
   -6   18   11      7.30      0.00
   -5   17   11     -4.18      0.00
   -4   16   11     -3.52      0.00
   -3   15   11     -1.93      0.00
   -2   14   11      0.14      0.00
   -1   13   11      0.20      0.00
    0   12   11     -0.97      0.00
  -12   13   11     -2.86      0.00
  -12   14   11      0.71      0.00
  -12   15   11      2.81      0.00
  -12   16   11      4.36      0.00
  -12   17   11     10.35      0.00
  -12   18   11     -1.65      0.00
  -12   19   11      2.98      0.00
  -12   20   11     -5.58      0.00
  -12   21   11      5.16      0.00
  -12   22   11     -4.27      0.00
  -12   23   11     -2.61      0.00
  -10   23   11      9.38      0.00
   -9   22   11      3.06      0.00
   -8   21   11      1.89      0.00
   -7   20   11      2.76      0.00
   -6   19   11      2.46      0.00
   -5   18   11      4.82      0.00
   -4   17   11     -2.60      0.00
   -3   16   11     -6.54      0.00
   -2   15   11     -0.77      0.00
   -1   14   11    -12.78      0.00
    0   13   11      8.66      0.00
  -13   14   11     -8.15      0.00
  -13   15   11     -0.59      0.00
  -13   16   11     -1.71      0.00
  -13   17   11      5.44      0.00
  -13   18   11      2.76      0.00
  -13   19   11     -7.14      0.00
  -13   20   11     -0.57      0.00
  -13   21   11      7.35      0.00
  -13   22   11      0.67      0.00
  -13   23   11      3.29      0.00
   -9   23   11      7.55      0.00
   -8   22   11      8.08      0.00
   -7   21   11      4.48      0.00
   -6   20   11     -0.02      0.00
   -5   19   11      4.61      0.00
   -4   18   11     -3.35      0.00
   -3   17   11     -1.17      0.00
   -2   16   11      1.73      0.00
   -1   15   11      0.96      0.00
    0   14   11      1.55      0.00
  -14   15   11     -2.21      0.00
  -14   16   11      1.23      0.00
  -14   17   11      6.72      0.00
  -14   18   11      7.62      0.00
  -14   19   11     -3.54      0.00
  -14   20   11      1.72      0.00
  -14   21   11     -3.31      0.00
  -14   22   11      2.07      0.00
  -14   23   11     -1.27      0.00
   -8   23   11     -0.05      0.00
   -7   22   11      3.64      0.00
   -6   21   11     -3.84      0.00
   -5   20   11     -2.20      0.00
   -4   19   11      6.03      0.00
   -3   18   11      0.31      0.00
   -2   17   11      5.65      0.00
   -1   16   11      4.83      0.00
    0   15   11     -6.43      0.00
  -15   16   11      2.86      0.00
  -15   17   11      5.01      0.00
  -15   18   11      0.59      0.00
  -15   19   11     -3.31      0.00
  -15   20   11     -3.48      0.00
  -15   21   11      5.47      0.00
  -15   22   11      9.03      0.00
  -15   23   11     -3.03      0.00
   -7   23   11     -2.48      0.00
   -6   22   11     -7.89      0.00
   -5   21   11     -1.00      0.00
   -4   20   11      5.70      0.00
   -3   19   11      4.38      0.00
   -2   18   11     -6.76      0.00
   -1   17   11      2.30      0.00
    0   16   11      4.93      0.00
  -16   17   11     -2.05      0.00
  -16   18   11     -0.31      0.00
  -16   19   11     15.18      0.00
  -16   20   11      7.75      0.00
  -16   21   11      3.11      0.00
  -16   22   11     -5.96      0.00
  -16   23   11      2.22      0.00
   -5   22   11     -6.19      0.00
   -4   21   11      3.68      0.00
   -3   20   11     12.92      0.00
   -2   19   11     -6.25      0.00
   -1   18   11      2.08      0.00
    0   17   11     -2.50      0.00
  -17   18   11      3.91      0.00
  -17   19   11      2.82      0.00
  -17   20   11      4.31      0.00
  -17   21   11      0.02      0.00
  -17   22   11      4.10      0.00
   -4   22   11      4.68      0.00
   -3   21   11      6.48      0.00
   -2   20   11      6.61      0.00
   -1   19   11     -4.77      0.00
    0   18   11      1.58      0.00
  -18   19   11      4.32      0.00
  -18   20   11     10.54      0.00
  -18   21   11     -0.55      0.00
  -18   22   11     -3.50      0.00
   -2   21   11     12.35      0.00
   -1   20   11      6.79      0.00
    0   19   11     -3.66      0.00
  -19   20   11      5.51      0.00
  -19   21   11      7.34      0.00
    0   20   11     -2.88      0.00
  -20   21   11     -1.62      0.00
   -1   21   11      6.66      0.00
    0    0   12     17.74      0.00
    0    1   12     -5.32      0.00
   -1    2   12     -6.06      0.00
   -1    3   12     -9.26      0.00
    0    2   12    -19.25      0.00
   -2    3   12     -8.57      0.00
   -2    4   12      1.19      0.00
   -2    5   12      5.97      0.00
   -1    4   12      4.02      0.00
    0    3   12     -6.41      0.00
   -3    4   12     -2.26      0.00
   -3    5   12      3.25      0.00
   -3    6   12      2.56      0.00
   -3    7   12      3.56      0.00
   -2    6   12     -1.91      0.00
   -1    5   12      3.41      0.00
    0    4   12    -10.53      0.00
   -4    5   12     -4.09      0.00
   -4    6   12     -0.53      0.00
   -4    7   12     10.41      0.00
   -4    8   12     -1.24      0.00
   -4    9   12     -6.17      0.00
   -3    8   12     -5.94      0.00
   -2    7   12      7.60      0.00
   -1    6   12     -0.19      0.00
    0    5   12     -0.10      0.00
   -5    6   12     -1.75      0.00
   -5    7   12    -10.85      0.00
   -5    8   12     -3.05      0.00
   -5    9   12     14.67      0.00
   -5   10   12      6.02      0.00
   -5   11   12     -3.16      0.00
   -4   10   12     -4.81      0.00
   -3    9   12     -4.44      0.00
   -2    8   12     -8.07      0.00
   -1    7   12     -4.27      0.00
    0    6   12      5.32      0.00
   -6    7   12      2.83      0.00
   -6    8   12     -5.38      0.00
   -6    9   12     -6.45      0.00
   -6   10   12     -3.84      0.00
   -6   11   12     10.55      0.00
   -6   12   12      2.35      0.00
   -6   13   12     -5.51      0.00
   -5   12   12     -4.39      0.00
   -4   11   12     -1.45      0.00
   -3   10   12     -2.21      0.00
   -2    9   12     -8.41      0.00
   -1    8   12     10.03      0.00
    0    7   12      0.40      0.00
   -7    8   12      0.02      0.00
   -7    9   12      0.22      0.00
   -7   10   12      0.21      0.00
   -7   11   12      1.68      0.00
   -7   12   12    -10.24      0.00
   -7   13   12      1.57      0.00
   -7   14   12      0.14      0.00
   -7   15   12      7.61      0.00
   -6   14   12      0.37      0.00
   -5   13   12     -6.98      0.00
   -4   12   12     -1.91      0.00
   -3   11   12     -6.05      0.00
   -2   10   12     -2.78      0.00
   -1    9   12      2.46      0.00
    0    8   12      9.20      0.00
   -8    9   12     -4.50      0.00
   -8   10   12     11.84      0.00
   -8   11   12      0.58      0.00
   -8   12   12      5.39      0.00
   -8   13   12     -4.98      0.00
   -8   14   12      1.69      0.00
   -8   15   12      2.54      0.00
   -8   16   12     11.93      0.00
   -8   17   12      6.71      0.00
   -7   16   12      3.39      0.00
   -6   15   12     -0.80      0.00
   -5   14   12     -2.78      0.00
   -4   13   12      0.33      0.00
   -3   12   12      0.32      0.00
   -2   11   12     -5.17      0.00
   -1   10   12      0.16      0.00
    0    9   12      4.67      0.00
   -9   10   12      0.24      0.00
   -9   11   12      4.63      0.00
   -9   12   12      8.40      0.00
   -9   13   12      3.67      0.00
   -9   14   12     10.70      0.00
   -9   15   12     -4.73      0.00
   -9   16   12      1.84      0.00
   -9   17   12      0.41      0.00
   -9   18   12      9.26      0.00
   -9   19   12      2.31      0.00
   -8   18   12      2.29      0.00
   -7   17   12      4.15      0.00
   -6   16   12     -5.22      0.00
   -5   15   12     -0.86      0.00
   -4   14   12    -10.41      0.00
   -3   13   12     -2.90      0.00
   -2   12   12     -3.78      0.00
   -1   11   12      0.54      0.00
    0   10   12     -9.20      0.00
  -10   11   12      9.43      0.00
  -10   12   12      0.85      0.00
  -10   13   12      6.31      0.00
  -10   14   12      2.39      0.00
  -10   15   12      2.55      0.00
  -10   16   12      1.23      0.00
  -10   17   12      4.19      0.00
  -10   18   12     -1.75      0.00
  -10   19   12      2.85      0.00
  -10   20   12      8.72      0.00
  -10   21   12      7.52      0.00
   -9   20   12      8.81      0.00
   -8   19   12      3.04      0.00
   -7   18   12     -2.43      0.00
   -6   17   12      4.26      0.00
   -5   16   12     -6.82      0.00
   -4   15   12     -3.88      0.00
   -3   14   12     -3.78      0.00
   -2   13   12      1.65      0.00
   -1   12   12     -8.61      0.00
    0   11   12     -5.66      0.00
  -11   12   12     -2.04      0.00
  -11   13   12     -1.27      0.00
  -11   14   12     -0.13      0.00
  -11   15   12      4.11      0.00
  -11   16   12     -5.95      0.00
  -11   17   12      5.89      0.00
  -11   18   12      7.95      0.00
  -11   19   12     -1.45      0.00
  -11   20   12      0.47      0.00
  -11   21   12      9.14      0.00
  -11   22   12      5.14      0.00
  -11   23   12      4.62      0.00
  -10   22   12     15.82      0.00
   -9   21   12     -5.73      0.00
   -8   20   12     -1.30      0.00
   -7   19   12      2.40      0.00
   -6   18   12      1.86      0.00
   -5   17   12     -6.23      0.00
   -4   16   12      4.29      0.00
   -3   15   12     -5.01      0.00
   -2   14   12      1.80      0.00
   -1   13   12     -2.85      0.00
    0   12   12     -1.93      0.00
  -12   13   12     -1.42      0.00
  -12   14   12     -2.46      0.00
  -12   15   12     -2.61      0.00
  -12   16   12     -3.07      0.00
  -12   17   12     -2.99      0.00
  -12   18   12      4.87      0.00
  -12   19   12     12.25      0.00
  -12   20   12      0.65      0.00
  -12   21   12      2.00      0.00
  -12   22   12      1.91      0.00
  -12   23   12      3.85      0.00
  -10   23   12    -11.06      0.00
   -9   22   12      0.30      0.00
   -8   21   12     13.92      0.00
   -7   20   12      6.13      0.00
   -6   19   12     -9.52      0.00
   -5   18   12      4.86      0.00
   -4   17   12      1.63      0.00
   -3   16   12     -0.73      0.00
   -2   15   12      0.01      0.00
   -1   14   12      3.71      0.00
    0   13   12     -6.41      0.00
  -13   14   12     -0.06      0.00
  -13   15   12      2.48      0.00
  -13   16   12      6.25      0.00
  -13   17   12    -13.25      0.00
  -13   18   12      5.84      0.00
  -13   19   12     -2.30      0.00
  -13   20   12     -1.70      0.00
  -13   21   12      4.29      0.00
  -13   22   12     13.45      0.00
  -13   23   12     -5.42      0.00
   -8   22   12     -9.26      0.00
   -7   21   12     -3.62      0.00
   -6   20   12      2.74      0.00
   -5   19   12      0.53      0.00
   -4   18   12      0.15      0.00
   -3   17   12      5.74      0.00
   -2   16   12      3.00      0.00
   -1   15   12     -4.31      0.00
    0   14   12      2.20      0.00
  -14   15   12     -1.45      0.00
  -14   16   12     -1.78      0.00
  -14   17   12      1.68      0.00
  -14   18   12     -3.03      0.00
  -14   19   12      3.07      0.00
  -14   20   12      1.70      0.00
  -14   21   12     -2.94      0.00
  -14   22   12      0.09      0.00
   -7   22   12      0.04      0.00
   -6   21   12     11.17      0.00
   -5   20   12     -7.28      0.00
   -4   19   12      2.30      0.00
   -3   18   12      5.33      0.00
   -2   17   12     -6.56      0.00
   -1   16   12      1.44      0.00
    0   15   12     11.16      0.00
  -15   16   12      2.22      0.00
  -15   17   12      2.95      0.00
  -15   18   12     -4.64      0.00
  -15   19   12      6.13      0.00
  -15   20   12     -4.66      0.00
  -15   21   12     -6.94      0.00
  -15   22   12     -2.29      0.00
   -6   22   12      5.00      0.00
   -5   21   12      2.78      0.00
   -4   20   12      1.24      0.00
   -3   19   12      4.70      0.00
   -2   18   12      5.19      0.00
   -1   17   12      6.65      0.00
    0   16   12      0.30      0.00
  -16   17   12      2.64      0.00
  -16   18   12      2.24      0.00
  -16   19   12     -7.77      0.00
  -16   20   12      0.33      0.00
  -16   21   12     -1.73      0.00
  -16   22   12     -6.28      0.00
   -5   22   12      8.99      0.00
   -4   21   12     -8.74      0.00
   -3   20   12     -0.39      0.00
   -2   19   12      5.56      0.00
   -1   18   12      3.58      0.00
    0   17   12      1.58      0.00
  -17   18   12      2.12      0.00
  -17   19   12     -1.57      0.00
  -17   20   12      0.18      0.00
  -17   21   12     -3.08      0.00
   -3   21   12    -12.12      0.00
   -2   20   12      1.52      0.00
   -1   19   12      2.21      0.00
    0   18   12     -0.10      0.00
  -18   19   12     -4.68      0.00
  -18   20   12     -6.72      0.00
  -18   21   12      3.72      0.00
   -1   20   12     -2.45      0.00
    0   19   12      1.07      0.00
  -19   20   12      2.58      0.00
    0   20   12     -1.51      0.00
  -17   22   12     -1.23      0.00
    0    0   13     -9.91      0.00
    0    1   13      5.20      0.00
   -1    2   13      0.35      0.00
   -1    3   13     16.01      0.00
    0    2   13     -4.87      0.00
   -2    3   13      4.63      0.00
   -2    4   13    -12.96      0.00
   -2    5   13     -5.42      0.00
   -1    4   13     -9.03      0.00
    0    3   13      6.25      0.00
   -3    4   13    -16.37      0.00
   -3    5   13     -2.75      0.00
   -3    6   13     -9.66      0.00
   -3    7   13     -9.19      0.00
   -2    6   13     14.19      0.00
   -1    5   13      9.87      0.00
    0    4   13      3.27      0.00
   -4    5   13     17.53      0.00
   -4    6   13    -16.91      0.00
   -4    7   13      3.78      0.00
   -4    8   13    -11.81      0.00
   -4    9   13      4.14      0.00
   -3    8   13     -5.89      0.00
   -2    7   13    -17.02      0.00
   -1    6   13      2.28      0.00
    0    5   13    -10.65      0.00
   -5    6   13     -6.34      0.00
   -5    7   13      6.10      0.00
   -5    8   13     10.40      0.00
   -5    9   13    -14.40      0.00
   -5   10   13      2.04      0.00
   -5   11   13     -8.51      0.00
   -4   10   13     -8.38      0.00
   -3    9   13      8.58      0.00
   -2    8   13     11.39      0.00
   -1    7   13     -9.92      0.00
    0    6   13     -3.53      0.00
   -6    7   13     11.69      0.00
   -6    8   13      8.48      0.00
   -6    9   13     -7.29      0.00
   -6   10   13      0.68      0.00
   -6   11   13    -11.78      0.00
   -6   12   13     -3.05      0.00
   -6   13   13      0.55      0.00
   -5   12   13     -0.75      0.00
   -4   11   13      6.92      0.00
   -3   10   13     -4.04      0.00
   -2    9   13    -27.72      0.00
   -1    8   13    -16.71      0.00
    0    7   13      5.44      0.00
   -7    8   13     -8.95      0.00
   -7    9   13      6.57      0.00
   -7   10   13      1.69      0.00
   -7   11   13     -0.27      0.00
   -7   12   13      1.64      0.00
   -7   13   13      0.85      0.00
   -7   14   13     14.99      0.00
   -7   15   13    -12.81      0.00
   -6   14   13     -3.26      0.00
   -5   13   13     -3.49      0.00
   -4   12   13      0.72      0.00
   -3   11   13     -0.28      0.00
   -2   10   13     -0.06      0.00
   -1    9   13     -3.46      0.00
    0    8   13    -22.09      0.00
   -8    9   13     -4.92      0.00
   -8   10   13     -4.48      0.00
   -8   11   13     17.77      0.00
   -8   12   13     11.91      0.00
   -8   13   13     -3.51      0.00
   -8   14   13     -1.63      0.00
   -8   15   13     -3.62      0.00
   -8   16   13     -2.13      0.00
   -8   17   13     -7.19      0.00
   -7   16   13     -4.22      0.00
   -6   15   13      8.66      0.00
   -5   14   13     -5.04      0.00
   -4   13   13     -6.39      0.00
   -3   12   13     -5.12      0.00
   -2   11   13     -8.70      0.00
   -1   10   13     -0.18      0.00
    0    9   13     -2.26      0.00
   -9   10   13      2.20      0.00
   -9   11   13     -9.06      0.00
   -9   12   13      0.42      0.00
   -9   13   13     -5.24      0.00
   -9   14   13      1.40      0.00
   -9   15   13     -0.31      0.00
   -9   16   13      4.02      0.00
   -9   17   13     -3.97      0.00
   -9   18   13      0.30      0.00
   -9   19   13     -3.13      0.00
   -8   18   13     -3.23      0.00
   -7   17   13     -6.02      0.00
   -6   16   13     -9.29      0.00
   -5   15   13      3.81      0.00
   -4   14   13     13.86      0.00
   -3   13   13     -2.92      0.00
   -2   12   13     -2.00      0.00
   -1   11   13     -3.68      0.00
    0   10   13      0.59      0.00
  -10   11   13      4.55      0.00
  -10   12   13     -2.12      0.00
  -10   13   13    -12.14      0.00
  -10   14   13    -15.20      0.00
  -10   15   13      2.27      0.00
  -10   16   13     -0.54      0.00
  -10   17   13     -3.69      0.00
  -10   18   13      1.18      0.00
  -10   19   13      1.60      0.00
  -10   20   13      3.42      0.00
  -10   21   13     -0.66      0.00
   -9   20   13     -3.67      0.00
   -8   19   13      0.18      0.00
   -7   18   13      4.38      0.00
   -6   17   13     -1.59      0.00
   -5   16   13     14.86      0.00
   -4   15   13      2.55      0.00
   -3   14   13     -5.10      0.00
   -2   13   13     -4.35      0.00
   -1   12   13     -4.64      0.00
    0   11   13      8.47      0.00
  -11   12   13     -6.99      0.00
  -11   13   13     -1.55      0.00
  -11   14   13      6.57      0.00
  -11   15   13     -1.99      0.00
  -11   16   13     -1.13      0.00
  -11   17   13     -6.16      0.00
  -11   18   13     -6.35      0.00
  -11   19   13     -1.75      0.00
  -11   20   13      1.00      0.00
  -11   21   13     -5.21      0.00
  -11   22   13      7.50      0.00
  -10   22   13     -3.71      0.00
   -9   21   13     -0.52      0.00
   -8   20   13      4.51      0.00
   -7   19   13    -10.24      0.00
   -6   18   13      0.13      0.00
   -5   17   13     -1.79      0.00
   -4   16   13      0.44      0.00
   -3   15   13      4.48      0.00
   -2   14   13      0.37      0.00
   -1   13   13      0.25      0.00
    0   12   13      0.80      0.00
  -12   13   13      9.66      0.00
  -12   14   13     -3.23      0.00
  -12   15   13     -6.12      0.00
  -12   16   13      3.26      0.00
  -12   17   13     -0.06      0.00
  -12   18   13    -12.03      0.00
  -12   19   13     -5.12      0.00
  -12   20   13      1.66      0.00
  -12   21   13     -0.41      0.00
  -12   22   13      0.39      0.00
   -9   22   13     -1.77      0.00
   -8   21   13     -7.74      0.00
   -7   20   13     -3.67      0.00
   -6   19   13      2.21      0.00
   -5   18   13     -2.59      0.00
   -4   17   13     -5.61      0.00
   -3   16   13      4.57      0.00
   -2   15   13     -3.14      0.00
   -1   14   13      0.80      0.00
    0   13   13     -3.44      0.00
  -13   14   13      2.74      0.00
  -13   15   13      2.92      0.00
  -13   16   13      4.04      0.00
  -13   17   13     -6.06      0.00
  -13   18   13     -4.15      0.00
  -13   19   13      3.41      0.00
  -13   20   13      2.09      0.00
  -13   21   13     -8.92      0.00
  -13   22   13    -10.56      0.00
   -8   22   13      2.72      0.00
   -7   21   13     -1.95      0.00
   -6   20   13     -4.98      0.00
   -5   19   13     -7.14      0.00
   -4   18   13     -0.36      0.00
   -3   17   13     -1.29      0.00
   -2   16   13     -0.49      0.00
   -1   15   13     -6.24      0.00
    0   14   13      2.31      0.00
  -14   15   13     -6.42      0.00
  -14   16   13     -9.90      0.00
  -14   17   13     -2.04      0.00
  -14   18   13     -0.55      0.00
  -14   19   13      3.99      0.00
  -14   20   13     -3.66      0.00
  -14   21   13      7.82      0.00
  -14   22   13    -11.25      0.00
   -6   21   13     -1.05      0.00
   -5   20   13      2.20      0.00
   -4   19   13     -3.23      0.00
   -3   18   13     -7.97      0.00
   -2   17   13     -8.59      0.00
   -1   16   13     -2.19      0.00
    0   15   13     -6.04      0.00
  -15   16   13     -2.76      0.00
  -15   17   13     -7.19      0.00
  -15   18   13      2.37      0.00
  -15   19   13     -8.96      0.00
  -15   20   13      6.30      0.00
  -15   21   13      2.18      0.00
   -5   21   13      0.90      0.00
   -4   20   13     -1.62      0.00
   -3   19   13     -4.90      0.00
   -2   18   13     -3.33      0.00
   -1   17   13     -5.36      0.00
    0   16   13    -11.72      0.00
  -16   17   13     -9.19      0.00
  -16   18   13      1.74      0.00
  -16   19   13    -12.42      0.00
  -16   20   13      1.46      0.00
  -16   21   13     -3.74      0.00
   -4   21   13      5.84      0.00
   -3   20   13     -6.04      0.00
   -2   19   13     -3.97      0.00
   -1   18   13     -0.70      0.00
    0   17   13      4.11      0.00
  -17   18   13      0.64      0.00
  -17   19   13      4.48      0.00
  -17   20   13     -8.43      0.00
   -2   20   13      3.78      0.00
   -1   19   13      2.62      0.00
    0   18   13     -5.95      0.00
  -18   19   13      1.59      0.00
  -18   20   13     -2.25      0.00
    0   19   13      3.57      0.00
  -17   21   13     -0.07      0.00
    0    0   14     -1.10      0.00
    0    1   14     13.32      0.00
   -1    2   14     -1.85      0.00
   -1    3   14     29.09      0.00
    0    2   14     -0.60      0.00
   -2    3   14     -1.81      0.00
   -2    4   14      2.91      0.00
   -2    5   14     -3.49      0.00
   -1    4   14    -18.81      0.00
    0    3   14      7.98      0.00
   -3    4   14     -5.64      0.00
   -3    5   14      2.73      0.00
   -3    6   14      0.63      0.00
   -3    7   14      8.00      0.00
   -2    6   14     13.79      0.00
   -1    5   14      4.79      0.00
    0    4   14     -7.42      0.00
   -4    5   14     42.09      0.00
   -4    6   14    -15.03      0.00
   -4    7   14      0.90      0.00
   -4    8   14      5.47      0.00
   -4    9   14     -4.45      0.00
   -3    8   14      7.88      0.00
   -2    7   14     -9.16      0.00
   -1    6   14      0.53      0.00
    0    5   14    -18.40      0.00
   -5    6   14     -4.22      0.00
   -5    7   14     -2.34      0.00
   -5    8   14     13.59      0.00
   -5    9   14    -31.75      0.00
   -5   10   14     12.75      0.00
   -5   11   14      1.08      0.00
   -4   10   14      0.83      0.00
   -3    9   14      6.61      0.00
   -2    8   14      9.47      0.00
   -1    7   14     14.02      0.00
    0    6   14      5.01      0.00
   -6    7   14     -6.49      0.00
   -6    8   14    -20.03      0.00
   -6    9   14      6.24      0.00
   -6   10   14      4.78      0.00
   -6   11   14      7.67      0.00
   -6   12   14     -4.32      0.00
   -6   13   14      2.85      0.00
   -5   12   14     15.47      0.00
   -4   11   14     -4.61      0.00
   -3   10   14    -19.64      0.00
   -2    9   14     26.23      0.00
   -1    8   14     -0.85      0.00
    0    7   14      5.01      0.00
   -7    8   14    -15.18      0.00
   -7    9   14      8.63      0.00
   -7   10   14    -15.19      0.00
   -7   11   14     -0.82      0.00
   -7   12   14     -6.10      0.00
   -7   13   14      0.84      0.00
   -7   14   14    -13.86      0.00
   -7   15   14     -5.93      0.00
   -6   14   14     10.05      0.00
   -5   13   14     -3.29      0.00
   -4   12   14      1.45      0.00
   -3   11   14      9.72      0.00
   -2   10   14     11.33      0.00
   -1    9   14      4.12      0.00
    0    8   14     12.60      0.00
   -8    9   14      6.85      0.00
   -8   10   14     -1.11      0.00
   -8   11   14    -44.76      0.00
   -8   12   14     -3.78      0.00
   -8   13   14     -5.05      0.00
   -8   14   14     -1.78      0.00
   -8   15   14      0.04      0.00
   -8   16   14    -10.03      0.00
   -8   17   14     -1.76      0.00
   -7   16   14     19.23      0.00
   -6   15   14     -1.73      0.00
   -5   14   14     -4.97      0.00
   -4   13   14     -3.53      0.00
   -3   12   14      2.17      0.00
   -2   11   14     -4.17      0.00
   -1   10   14      6.96      0.00
    0    9   14     -3.20      0.00
   -9   10   14     -8.25      0.00
   -9   11   14    -24.09      0.00
   -9   12   14      4.25      0.00
   -9   13   14    -10.70      0.00
   -9   14   14      9.04      0.00
   -9   15   14     -8.21      0.00
   -9   16   14      5.69      0.00
   -9   17   14      1.61      0.00
   -9   18   14     -4.18      0.00
   -9   19   14     -3.92      0.00
   -8   18   14      4.13      0.00
   -7   17   14      0.00      0.00
   -6   16   14     -3.62      0.00
   -5   15   14    -10.04      0.00
   -4   14   14      3.19      0.00
   -3   13   14      2.86      0.00
   -2   12   14      3.34      0.00
   -1   11   14     -8.23      0.00
    0   10   14     -7.53      0.00
  -10   11   14      4.67      0.00
  -10   12   14     -5.69      0.00
  -10   13   14      3.31      0.00
  -10   14   14     -4.93      0.00
  -10   15   14      1.68      0.00
  -10   16   14     -6.55      0.00
  -10   17   14      2.42      0.00
  -10   18   14      1.57      0.00
  -10   19   14      1.84      0.00
  -10   20   14     -1.34      0.00
  -10   21   14     -7.99      0.00
   -9   20   14      0.54      0.00
   -8   19   14     -7.11      0.00
   -7   18   14      7.87      0.00
   -6   17   14     -9.00      0.00
   -5   16   14     -0.83      0.00
   -4   15   14     -4.63      0.00
   -3   14   14     -6.05      0.00
   -2   13   14     -0.77      0.00
   -1   12   14      5.86      0.00
    0   11   14      4.10      0.00
  -11   12   14     -8.12      0.00
  -11   13   14      3.36      0.00
  -11   14   14     16.02      0.00
  -11   15   14     -8.79      0.00
  -11   16   14      1.96      0.00
  -11   17   14      4.26      0.00
  -11   18   14      3.85      0.00
  -11   19   14     -2.12      0.00
  -11   20   14      2.30      0.00
  -11   21   14    -13.01      0.00
   -9   21   14     -4.31      0.00
   -8   20   14     11.38      0.00
   -7   19   14     -8.18      0.00
   -6   18   14     -2.74      0.00
   -5   17   14     -0.75      0.00
   -4   16   14     -4.44      0.00
   -3   15   14     -3.64      0.00
   -2   14   14      1.22      0.00
   -1   13   14      2.63      0.00
    0   12   14     -3.33      0.00
  -12   13   14      2.59      0.00
  -12   14   14     -7.85      0.00
  -12   15   14    -14.43      0.00
  -12   16   14      6.23      0.00
  -12   17   14      8.49      0.00
  -12   18   14      2.95      0.00
  -12   19   14     -0.92      0.00
  -12   20   14     -1.77      0.00
  -12   21   14      0.93      0.00
   -8   21   14     -1.56      0.00
   -7   20   14     -3.12      0.00
   -6   19   14      6.13      0.00
   -5   18   14      7.19      0.00
   -4   17   14     -8.43      0.00
   -3   16   14     -1.11      0.00
   -2   15   14     -6.55      0.00
   -1   14   14      2.74      0.00
    0   13   14     -5.40      0.00
  -13   14   14     -7.16      0.00
  -13   15   14     -2.54      0.00
  -13   16   14      3.33      0.00
  -13   17   14     -3.96      0.00
  -13   18   14      1.76      0.00
  -13   19   14     -0.26      0.00
  -13   20   14     -5.12      0.00
  -13   21   14      5.57      0.00
   -7   21   14      0.87      0.00
   -6   20   14      1.64      0.00
   -5   19   14      0.87      0.00
   -4   18   14     -6.11      0.00
   -3   17   14     -1.28      0.00
   -2   16   14     10.42      0.00
   -1   15   14     -3.85      0.00
    0   14   14     -4.59      0.00
  -14   15   14     12.21      0.00
  -14   16   14     -4.01      0.00
  -14   17   14     -3.39      0.00
  -14   18   14     -6.15      0.00
  -14   19   14     -3.40      0.00
  -14   20   14     -8.32      0.00
  -14   21   14      6.55      0.00
   -6   21   14      0.74      0.00
   -5   20   14     -4.62      0.00
   -4   19   14      0.67      0.00
   -3   18   14      1.10      0.00
   -2   17   14     -3.01      0.00
   -1   16   14      3.18      0.00
    0   15   14      0.92      0.00
  -15   16   14      5.72      0.00
  -15   17   14      1.16      0.00
  -15   18   14      7.57      0.00
  -15   19   14      1.00      0.00
  -15   20   14     -1.06      0.00
   -4   20   14      0.28      0.00
   -3   19   14      3.36      0.00
   -2   18   14      0.34      0.00
   -1   17   14     -3.23      0.00
    0   16   14     -1.08      0.00
  -16   17   14    -11.50      0.00
  -16   18   14      1.91      0.00
  -16   19   14     -2.11      0.00
  -16   20   14      7.83      0.00
   -3   20   14     -5.11      0.00
   -2   19   14    -13.57      0.00
   -1   18   14     -1.62      0.00
    0   17   14      8.95      0.00
  -17   18   14     -3.55      0.00
  -17   19   14      1.12      0.00
   -1   19   14     -1.36      0.00
    0   18   14    -16.78      0.00
  -18   19   14     -5.31      0.00
  -17   20   14      1.58      0.00
  -15   21   14     -4.20      0.00
    0    1   15      6.69      0.00
   -1    2   15     -4.76      0.00
   -1    3   15     21.81      0.00
    0    2   15     -5.89      0.00
   -2    3   15      4.52      0.00
   -2    4   15      8.72      0.00
   -2    5   15      6.54      0.00
   -1    4   15     -1.79      0.00
    0    3   15      6.77      0.00
   -3    4   15     -3.65      0.00
   -3    5   15     15.42      0.00
   -3    6   15    -10.18      0.00
   -3    7   15     -3.28      0.00
   -2    6   15      3.95      0.00
   -1    5   15      8.09      0.00
    0    4   15     -1.32      0.00
   -4    5   15     14.92      0.00
   -4    6   15     -8.65      0.00
   -4    7   15      8.22      0.00
   -4    8   15      4.07      0.00
   -4    9   15      4.40      0.00
   -3    8   15    -10.50      0.00
   -2    7   15    -19.97      0.00
   -1    6   15     -0.63      0.00
    0    5   15    -18.80      0.00
   -5    6   15     -3.27      0.00
   -5    7   15     -4.63      0.00
   -5    8   15     12.31      0.00
   -5    9   15      1.19      0.00
   -5   10   15     10.57      0.00
   -5   11   15     -5.73      0.00
   -4   10   15      2.23      0.00
   -3    9   15      2.46      0.00
   -2    8   15      6.39      0.00
   -1    7   15    -18.43      0.00
    0    6   15      8.02      0.00
   -6    7   15      6.99      0.00
   -6    8   15    -12.59      0.00
   -6    9   15     -4.82      0.00
   -6   10   15      8.69      0.00
   -6   11   15     -8.81      0.00
   -6   12   15     -3.93      0.00
   -6   13   15      1.36      0.00
   -5   12   15    -11.10      0.00
   -4   11   15      2.91      0.00
   -3   10   15     -4.58      0.00
   -2    9   15    -16.57      0.00
   -1    8   15     -4.78      0.00
    0    7   15     13.64      0.00
   -7    8   15     -1.71      0.00
   -7    9   15      5.83      0.00
   -7   10   15      4.27      0.00
   -7   11   15     -6.19      0.00
   -7   12   15     11.33      0.00
   -7   13   15     -1.13      0.00
   -7   14   15     -1.98      0.00
   -7   15   15     -8.35      0.00
   -6   14   15      3.64      0.00
   -5   13   15     -0.01      0.00
   -4   12   15      0.18      0.00
   -3   11   15      0.22      0.00
   -2   10   15      2.89      0.00
   -1    9   15      4.84      0.00
    0    8   15     -5.69      0.00
   -8    9   15     -0.57      0.00
   -8   10   15      8.06      0.00
   -8   11   15     23.68      0.00
   -8   12   15     13.40      0.00
   -8   13   15     -7.43      0.00
   -8   14   15      0.96      0.00
   -8   15   15      6.51      0.00
   -8   16   15     -1.79      0.00
   -8   17   15     -9.98      0.00
   -7   16   15     12.43      0.00
   -6   15   15      0.97      0.00
   -5   14   15      4.58      0.00
   -4   13   15     -2.98      0.00
   -3   12   15      3.18      0.00
   -2   11   15      2.60      0.00
   -1   10   15     -3.65      0.00
    0    9   15      0.34      0.00
   -9   10   15      2.07      0.00
   -9   11   15     30.85      0.00
   -9   12   15      7.67      0.00
   -9   13   15      0.13      0.00
   -9   14   15      7.68      0.00
   -9   15   15      0.86      0.00
   -9   16   15      0.99      0.00
   -9   17   15     -0.17      0.00
   -9   18   15     -6.23      0.00
   -9   19   15    -11.88      0.00
   -8   18   15      8.21      0.00
   -7   17   15     -1.09      0.00
   -6   16   15     -9.38      0.00
   -5   15   15     -2.08      0.00
   -4   14   15     13.35      0.00
   -3   13   15     -0.85      0.00
   -2   12   15     11.37      0.00
   -1   11   15     -2.15      0.00
    0   10   15     -0.58      0.00
  -10   11   15      2.66      0.00
  -10   12   15      3.25      0.00
  -10   13   15      6.39      0.00
  -10   14   15      1.65      0.00
  -10   15   15      3.76      0.00
  -10   16   15     -6.54      0.00
  -10   17   15     -3.09      0.00
  -10   18   15     -3.56      0.00
  -10   19   15     -6.25      0.00
  -10   20   15     -1.64      0.00
   -9   20   15      1.88      0.00
   -8   19   15     -5.26      0.00
   -7   18   15     -1.98      0.00
   -6   17   15     -0.21      0.00
   -5   16   15      8.49      0.00
   -4   15   15     -6.70      0.00
   -3   14   15     -7.70      0.00
   -2   13   15      3.54      0.00
   -1   12   15     -5.08      0.00
    0   11   15      1.29      0.00
  -11   12   15     -6.24      0.00
  -11   13   15     -6.10      0.00
  -11   14   15      8.35      0.00
  -11   15   15     -3.18      0.00
  -11   16   15     -0.14      0.00
  -11   17   15     -3.80      0.00
  -11   18   15      2.56      0.00
  -11   19   15     -6.39      0.00
  -11   20   15      1.30      0.00
   -8   20   15     -7.62      0.00
   -7   19   15     -2.92      0.00
   -6   18   15      6.11      0.00
   -5   17   15     -2.99      0.00
   -4   16   15     -3.14      0.00
   -3   15   15     -2.19      0.00
   -2   14   15     -5.19      0.00
   -1   13   15      2.94      0.00
    0   12   15     -1.36      0.00
  -12   13   15      5.32      0.00
  -12   14   15     -6.65      0.00
  -12   15   15      5.73      0.00
  -12   16   15      2.15      0.00
  -12   17   15      0.34      0.00
  -12   18   15     -5.33      0.00
  -12   19   15      0.96      0.00
  -12   20   15     -1.87      0.00
   -7   20   15      5.83      0.00
   -6   19   15     -6.95      0.00
   -5   18   15     -0.95      0.00
   -4   17   15     -2.81      0.00
   -3   16   15      4.68      0.00
   -2   15   15     -4.08      0.00
   -1   14   15      2.49      0.00
    0   13   15     -6.79      0.00
  -13   14   15     -2.72      0.00
  -13   15   15      7.23      0.00
  -13   16   15      5.50      0.00
  -13   17   15      2.33      0.00
  -13   18   15     -2.47      0.00
  -13   19   15      7.77      0.00
  -13   20   15     -3.12      0.00
   -6   20   15      0.39      0.00
   -5   19   15      1.95      0.00
   -4   18   15     -2.15      0.00
   -3   17   15      0.98      0.00
   -2   16   15    -10.37      0.00
   -1   15   15     -3.62      0.00
    0   14   15      5.25      0.00
  -14   15   15     -0.41      0.00
  -14   16   15     -2.93      0.00
  -14   17   15      1.66      0.00
  -14   18   15      4.49      0.00
  -14   19   15      6.22      0.00
  -14   20   15     -5.81      0.00
   -5   20   15     -6.47      0.00
   -4   19   15      3.24      0.00
   -3   18   15      4.29      0.00
   -2   17   15     -6.62      0.00
   -1   16   15      2.32      0.00
    0   15   15     -8.89      0.00
  -15   16   15      2.50      0.00
  -15   17   15      3.45      0.00
  -15   18   15      8.43      0.00
  -15   19   15     -4.66      0.00
   -3   19   15     -3.74      0.00
   -2   18   15      3.34      0.00
   -1   17   15     -0.41      0.00
    0   16   15      4.06      0.00
  -16   17   15      1.76      0.00
  -16   18   15     -3.11      0.00
  -16   19   15     -5.62      0.00
   -2   19   15      7.74      0.00
   -1   18   15     -0.90      0.00
    0   17   15      5.68      0.00
  -17   18   15      2.86      0.00
    0   18   15     -5.35      0.00
  -17   19   15      7.25      0.00
  -15   20   15      3.74      0.00
   -1    3   16    -15.91      0.00
    0    2   16     -1.31      0.00
   -2    3   16     -4.07      0.00
   -2    4   16     -8.44      0.00
   -2    5   16    -13.63      0.00
   -1    4   16      2.17      0.00
    0    3   16      9.64      0.00
   -3    4   16     -8.23      0.00
   -3    5   16     -9.77      0.00
   -3    6   16     -7.76      0.00
   -3    7   16      2.59      0.00
   -2    6   16      2.69      0.00
   -1    5   16     14.91      0.00
    0    4   16      0.88      0.00
   -4    5   16     -2.36      0.00
   -4    6   16      3.20      0.00
   -4    7   16     -0.35      0.00
   -4    8   16     -1.71      0.00
   -4    9   16    -10.63      0.00
   -3    8   16     -1.79      0.00
   -2    7   16     23.22      0.00
   -1    6   16      8.69      0.00
    0    5   16      3.01      0.00
   -5    6   16      4.76      0.00
   -5    7   16      6.44      0.00
   -5    8   16      2.48      0.00
   -5    9   16     -6.54      0.00
   -5   10   16     -2.69      0.00
   -5   11   16     -0.80      0.00
   -4   10   16      3.06      0.00
   -3    9   16     13.52      0.00
   -2    8   16      8.46      0.00
   -1    7   16     -5.80      0.00
    0    6   16      6.13      0.00
   -6    7   16      3.64      0.00
   -6    8   16      7.06      0.00
   -6    9   16      5.97      0.00
   -6   10   16     -3.66      0.00
   -6   11   16     -2.76      0.00
   -6   12   16      2.41      0.00
   -6   13   16      2.43      0.00
   -5   12   16     -1.03      0.00
   -4   11   16      9.56      0.00
   -3   10   16      4.77      0.00
   -2    9   16     -5.81      0.00
   -1    8   16     -3.02      0.00
    0    7   16     -4.37      0.00
   -7    8   16      3.24      0.00
   -7    9   16      9.31      0.00
   -7   10   16     -2.93      0.00
   -7   11   16      5.49      0.00
   -7   12   16      3.91      0.00
   -7   13   16      0.30      0.00
   -7   14   16      8.43      0.00
   -7   15   16      0.32      0.00
   -6   14   16     -4.79      0.00
   -5   13   16     -4.68      0.00
   -4   12   16      8.87      0.00
   -3   11   16     -1.89      0.00
   -2   10   16     -1.32      0.00
   -1    9   16     -2.83      0.00
    0    8   16      0.44      0.00
   -8    9   16     -2.84      0.00
   -8   10   16     -2.90      0.00
   -8   11   16     -3.87      0.00
   -8   12   16     -5.24      0.00
   -8   13   16      5.93      0.00
   -8   14   16      5.75      0.00
   -8   15   16     -1.07      0.00
   -8   16   16      0.72      0.00
   -8   17   16     -1.86      0.00
   -7   16   16    -12.87      0.00
   -6   15   16     -3.39      0.00
   -5   14   16     -7.11      0.00
   -4   13   16     -5.98      0.00
   -3   12   16    -11.18      0.00
   -2   11   16     -1.76      0.00
   -1   10   16     -0.03      0.00
    0    9   16      4.99      0.00
   -9   10   16     -3.44      0.00
   -9   11   16    -12.88      0.00
   -9   12   16     -3.54      0.00
   -9   13   16      2.78      0.00
   -9   14   16    -10.31      0.00
   -9   15   16     -0.48      0.00
   -9   16   16      0.04      0.00
   -9   17   16      6.83      0.00
   -9   18   16     11.89      0.00
   -9   19   16     10.62      0.00
   -8   18   16      0.45      0.00
   -7   17   16    -10.02      0.00
   -6   16   16      2.52      0.00
   -5   15   16     -1.36      0.00
   -4   14   16     -4.53      0.00
   -3   13   16     -8.18      0.00
   -2   12   16     -5.36      0.00
   -1   11   16      1.05      0.00
    0   10   16      6.95      0.00
  -10   11   16      2.52      0.00
  -10   12   16     -4.22      0.00
  -10   13   16    -14.44      0.00
  -10   14   16     -0.92      0.00
  -10   15   16      4.47      0.00
  -10   16   16      2.37      0.00
  -10   17   16      6.59      0.00
  -10   18   16     -1.51      0.00
  -10   19   16      3.35      0.00
  -10   20   16     10.56      0.00
   -9   20   16      0.13      0.00
   -8   19   16     -3.60      0.00
   -7   18   16      7.65      0.00
   -6   17   16     -7.17      0.00
   -5   16   16      1.89      0.00
   -4   15   16      0.38      0.00
   -3   14   16      6.72      0.00
   -2   13   16     -0.68      0.00
   -1   12   16     -7.71      0.00
    0   11   16      4.88      0.00
  -11   12   16     -0.94      0.00
  -11   13   16      4.32      0.00
  -11   14   16      1.33      0.00
  -11   15   16      0.21      0.00
  -11   16   16     10.46      0.00
  -11   17   16     -1.28      0.00
  -11   18   16     -5.53      0.00
  -11   19   16      0.92      0.00
   -7   19   16     -0.98      0.00
   -6   18   16     -4.69      0.00
   -5   17   16     -3.77      0.00
   -4   16   16      5.05      0.00
   -3   15   16      7.49      0.00
   -2   14   16      4.12      0.00
   -1   13   16     -8.02      0.00
    0   12   16      3.50      0.00
  -12   13   16     12.88      0.00
  -12   14   16      1.83      0.00
  -12   15   16      3.51      0.00
  -12   16   16     -7.27      0.00
  -12   17   16      1.15      0.00
  -12   18   16     -1.67      0.00
  -12   19   16     11.38      0.00
   -6   19   16     -6.05      0.00
   -5   18   16      1.15      0.00
   -4   17   16      1.84      0.00
   -3   16   16      1.11      0.00
   -2   15   16     -3.55      0.00
   -1   14   16      2.78      0.00
    0   13   16     -0.42      0.00
  -13   14   16      1.48      0.00
  -13   15   16     -0.36      0.00
  -13   16   16      4.25      0.00
  -13   17   16     -5.73      0.00
  -13   18   16      0.60      0.00
  -13   19   16      8.71      0.00
   -5   19   16      3.66      0.00
   -4   18   16     -4.82      0.00
   -3   17   16      1.54      0.00
   -2   16   16      6.45      0.00
   -1   15   16      2.33      0.00
    0   14   16     -4.12      0.00
  -14   15   16      2.42      0.00
  -14   16   16     -0.82      0.00
  -14   17   16     -3.63      0.00
  -14   18   16      5.66      0.00
  -14   19   16      0.63      0.00
   -3   18   16     -1.16      0.00
   -2   17   16     -3.98      0.00
   -1   16   16      1.23      0.00
    0   15   16      4.06      0.00
  -15   16   16     -9.80      0.00
  -15   17   16      2.61      0.00
  -15   18   16      2.75      0.00
   -2   18   16      1.20      0.00
   -1   17   16      0.10      0.00
    0   16   16     -8.94      0.00
  -16   17   16      7.23      0.00
  -16   18   16     -9.21      0.00
    0   17   16     -1.61      0.00
   -2    4   17      2.05      0.00
   -2    5   17      5.17      0.00
    0    3   17     -9.12      0.00
   -3    4   17      1.62      0.00
   -3    5   17     13.78      0.00
   -3    6   17     11.76      0.00
   -3    7   17     -5.14      0.00
   -2    6   17      5.75      0.00
   -1    4   17     -8.67      0.00
    0    4   17    -10.15      0.00
   -4    5   17      9.58      0.00
   -4    6   17      4.09      0.00
   -4    7   17      1.47      0.00
   -4    8   17     -0.34      0.00
   -4    9   17      1.87      0.00
   -3    8   17      0.90      0.00
   -2    7   17     -4.58      0.00
   -1    6   17    -13.08      0.00
   -1    5   17      2.67      0.00
    0    5   17     -9.52      0.00
   -5    6   17     -8.68      0.00
   -5    7   17     -0.81      0.00
   -5    8   17     -3.00      0.00
   -5    9   17      7.12      0.00
   -5   10   17      0.63      0.00
   -5   11   17      1.16      0.00
   -4   10   17     -3.27      0.00
   -3    9   17     -4.55      0.00
   -2    8   17     -1.81      0.00
   -1    7   17      0.93      0.00
    0    6   17      5.78      0.00
   -6    7   17     -3.78      0.00
   -6    8   17     -8.81      0.00
   -6    9   17     -2.93      0.00
   -6   10   17      8.76      0.00
   -6   11   17      8.33      0.00
   -6   12   17     -1.91      0.00
   -6   13   17     -2.24      0.00
   -5   12   17      3.60      0.00
   -4   11   17    -11.59      0.00
   -3   10   17    -16.70      0.00
   -2    9   17      2.02      0.00
   -1    8   17      6.93      0.00
    0    7   17      4.91      0.00
   -7    8   17      0.97      0.00
   -7    9   17     -0.01      0.00
   -7   10   17     -0.97      0.00
   -7   11   17     -4.01      0.00
   -7   12   17     -2.15      0.00
   -7   13   17     -1.77      0.00
   -7   14   17     -5.43      0.00
   -7   15   17     -1.84      0.00
   -6   14   17     -0.07      0.00
   -5   13   17      6.73      0.00
   -4   12   17     -4.36      0.00
   -3   11   17     -1.02      0.00
   -2   10   17      7.40      0.00
   -1    9   17      0.35      0.00
    0    8   17      2.59      0.00
   -8    9   17      2.84      0.00
   -8   10   17     -2.91      0.00
   -8   11   17     -2.57      0.00
   -8   12   17     -0.75      0.00
   -8   13   17     -4.36      0.00
   -8   14   17     -5.62      0.00
   -8   15   17      5.48      0.00
   -8   16   17      4.18      0.00
   -8   17   17      2.55      0.00
   -7   16   17      6.13      0.00
   -6   15   17     11.85      0.00
   -5   14   17     -1.71      0.00
   -4   13   17      3.10      0.00
   -3   12   17      1.09      0.00
   -2   11   17     -5.08      0.00
   -1   10   17     -1.54      0.00
    0    9   17      5.04      0.00
   -9   10   17     -5.41      0.00
   -9   11   17     12.11      0.00
   -9   12   17     -4.71      0.00
   -9   13   17      2.02      0.00
   -9   14   17      9.41      0.00
   -9   15   17      1.72      0.00
   -9   16   17     -6.98      0.00
   -9   17   17      1.09      0.00
   -9   18   17     -3.83      0.00
   -8   18   17     -5.57      0.00
   -7   17   17      8.50      0.00
   -6   16   17      6.43      0.00
   -5   15   17     -4.53      0.00
   -4   14   17      3.28      0.00
   -3   13   17      5.50      0.00
   -2   12   17      5.88      0.00
   -1   11   17     -0.73      0.00
    0   10   17     -3.31      0.00
  -10   11   17     -2.31      0.00
  -10   12   17      2.44      0.00
  -10   13   17     15.28      0.00
  -10   14   17      4.40      0.00
  -10   15   17     -5.67      0.00
  -10   16   17      1.82      0.00
  -10   17   17     -0.17      0.00
  -10   18   17      3.66      0.00
   -7   18   17      1.91      0.00
   -6   17   17     -2.24      0.00
   -5   16   17     -2.16      0.00
   -4   15   17     -1.13      0.00
   -3   14   17     -4.91      0.00
   -2   13   17     -1.92      0.00
   -1   12   17      2.09      0.00
    0   11   17     -3.03      0.00
  -11   12   17      0.09      0.00
  -11   13   17      2.49      0.00
  -11   14   17     -5.11      0.00
  -11   15   17      0.07      0.00
  -11   16   17     -5.03      0.00
  -11   17   17      7.98      0.00
  -11   18   17     12.02      0.00
   -6   18   17      3.53      0.00
   -5   17   17      2.48      0.00
   -4   16   17     -5.31      0.00
   -3   15   17     -7.62      0.00
   -2   14   17      3.24      0.00
   -1   13   17      4.15      0.00
    0   12   17     -1.94      0.00
  -12   13   17     -3.14      0.00
  -12   14   17     -9.21      0.00
  -12   15   17     -1.31      0.00
  -12   16   17      2.05      0.00
  -12   17   17      8.56      0.00
  -12   18   17     -5.22      0.00
   -5   18   17      0.88      0.00
   -4   17   17     -2.02      0.00
   -3   16   17     -2.97      0.00
   -2   15   17     -3.55      0.00
   -1   14   17     -4.24      0.00
    0   13   17      6.09      0.00
  -13   14   17     -3.87      0.00
  -13   15   17     -1.86      0.00
  -13   16   17     -1.96      0.00
  -13   17   17     -2.80      0.00
  -13   18   17      3.61      0.00
   -4   18   17      2.38      0.00
   -3   17   17     -2.77      0.00
   -2   16   17     -1.91      0.00
   -1   15   17      4.07      0.00
    0   14   17      1.16      0.00
  -14   15   17      3.50      0.00
  -14   16   17      0.58      0.00
  -14   17   17      2.89      0.00
  -14   18   17     -5.44      0.00
   -2   17   17      5.42      0.00
   -1   16   17      5.17      0.00
    0   15   17     -0.74      0.00
  -15   16   17      0.66      0.00
  -15   17   17      3.90      0.00
    0   16   17      6.74      0.00
   -3    6   18    -10.69      0.00
   -3    7   18      5.01      0.00
   -4    5   18     -2.46      0.00
   -4    6   18     -3.61      0.00
   -4    7   18      3.41      0.00
   -4    8   18      4.30      0.00
   -4    9   18     10.34      0.00
   -3    8   18     -3.60      0.00
   -2    7   18     -3.28      0.00
   -1    5   18     -1.86      0.00
    0    5   18      4.57      0.00
   -5    6   18     -7.50      0.00
   -5    7   18      8.86      0.00
   -5    8   18      6.19      0.00
   -5    9   18      1.93      0.00
   -5   10   18     -1.18      0.00
   -5   11   18      4.16      0.00
   -4   10   18      1.42      0.00
   -3    9   18      2.61      0.00
   -2    8   18     11.16      0.00
   -2    6   18     -7.39      0.00
   -1    6   18     -7.19      0.00
    0    6   18     12.09      0.00
   -6    7   18      4.14      0.00
   -6    8   18     -0.16      0.00
   -6    9   18      0.69      0.00
   -6   10   18     -4.49      0.00
   -6   11   18      4.29      0.00
   -6   12   18     -0.82      0.00
   -6   13   18      0.73      0.00
   -5   12   18      4.87      0.00
   -4   11   18      0.32      0.00
   -3   10   18     13.76      0.00
   -2    9   18     -7.16      0.00
   -1    7   18     -3.93      0.00
    0    7   18     -2.53      0.00
   -7    8   18     -0.13      0.00
   -7    9   18      2.74      0.00
   -7   10   18      5.01      0.00
   -7   11   18     -2.37      0.00
   -7   12   18      1.24      0.00
   -7   13   18      2.62      0.00
   -7   14   18      5.16      0.00
   -7   15   18      5.96      0.00
   -6   14   18     -0.80      0.00
   -5   13   18     -2.56      0.00
   -4   12   18      0.87      0.00
   -3   11   18      7.53      0.00
   -2   10   18      4.97      0.00
   -1    9   18      0.77      0.00
    0    8   18     -7.27      0.00
   -1    8   18      1.28      0.00
   -8    9   18     -1.76      0.00
   -8   10   18      1.67      0.00
   -8   11   18     10.72      0.00
   -8   12   18      2.21      0.00
   -8   13   18      7.07      0.00
   -8   14   18      1.29      0.00
   -8   15   18     -2.77      0.00
   -8   16   18      1.26      0.00
   -8   17   18      8.62      0.00
   -7   16   18    -14.72      0.00
   -6   15   18      3.52      0.00
   -5   14   18     -1.27      0.00
   -4   13   18      7.18      0.00
   -3   12   18     -3.07      0.00
   -2   11   18     -0.50      0.00
   -1   10   18     -3.75      0.00
    0    9   18      1.53      0.00
   -9   10   18     -3.17      0.00
   -9   11   18      2.04      0.00
   -9   12   18     -4.05      0.00
   -9   13   18      6.91      0.00
   -9   14   18     -5.28      0.00
   -9   15   18      6.23      0.00
   -9   16   18      0.52      0.00
   -9   17   18      0.39      0.00
   -7   17   18      7.12      0.00
   -6   16   18      1.52      0.00
   -5   15   18      4.52      0.00
   -4   14   18     -4.04      0.00
   -3   13   18      2.40      0.00
   -2   12   18      0.86      0.00
   -1   11   18      2.95      0.00
    0   10   18     -1.17      0.00
  -10   11   18     -0.71      0.00
  -10   12   18      8.16      0.00
  -10   13   18    -10.16      0.00
  -10   14   18     -0.11      0.00
  -10   15   18     -4.27      0.00
  -10   16   18      2.53      0.00
  -10   17   18      3.38      0.00
   -6   17   18      2.10      0.00
   -5   16   18     -2.88      0.00
   -4   15   18     -0.30      0.00
   -3   14   18     -0.57      0.00
   -2   13   18     -6.04      0.00
   -1   12   18      4.08      0.00
    0   11   18      2.54      0.00
  -11   12   18     -3.63      0.00
  -11   13   18     -2.39      0.00
  -11   14   18      7.02      0.00
  -11   15   18      0.55      0.00
  -11   16   18      0.10      0.00
  -11   17   18     -6.35      0.00
   -5   17   18     -4.63      0.00
   -4   16   18      6.98      0.00
   -3   15   18     -0.49      0.00
   -2   14   18     -0.37      0.00
   -1   13   18      2.15      0.00
    0   12   18     -5.07      0.00
  -12   13   18      3.66      0.00
  -12   14   18     -2.24      0.00
  -12   15   18      3.37      0.00
  -12   16   18      5.84      0.00
  -12   17   18     -5.57      0.00
   -4   17   18      0.03      0.00
   -3   16   18     -2.55      0.00
   -2   15   18      7.48      0.00
   -1   14   18     -4.57      0.00
    0   13   18     -3.14      0.00
  -13   14   18     -1.78      0.00
  -13   15   18     10.46      0.00
  -13   16   18     -3.88      0.00
  -13   17   18     -2.64      0.00
   -2   16   18     -0.04      0.00
   -1   15   18     -4.05      0.00
    0   14   18      2.73      0.00
  -14   15   18     -0.47      0.00
  -14   16   18     -3.70      0.00
    0   15   18     -4.16      0.00
   -4    8   19      0.84      0.00
   -4    9   19      1.12      0.00
   -5    7   19    -10.03      0.00
   -5    8   19     -0.69      0.00
   -5    9   19     -2.07      0.00
   -5   10   19      5.55      0.00
   -5   11   19      2.99      0.00
   -4   10   19     -2.41      0.00
    0    6   19     -3.20      0.00
   -6    7   19      6.50      0.00
   -6    8   19      6.52      0.00
   -6    9   19      0.95      0.00
   -6   10   19     -4.56      0.00
   -6   11   19      0.57      0.00
   -6   12   19      6.33      0.00
   -6   13   19      4.06      0.00
   -5   12   19      4.39      0.00
   -4   11   19     -2.46      0.00
   -3   10   19     13.11      0.00
   -2    7   19      5.42      0.00
   -1    7   19     -2.56      0.00
    0    7   19      4.76      0.00
   -7    8   19     -2.11      0.00
   -7    9   19      8.89      0.00
   -7   10   19      3.58      0.00
   -7   11   19      2.71      0.00
   -7   12   19      4.37      0.00
   -7   13   19     -1.67      0.00
   -7   14   19      6.41      0.00
   -7   15   19      6.74      0.00
   -6   14   19      3.30      0.00
   -5   13   19      0.62      0.00
   -4   12   19      3.58      0.00
   -3   11   19      6.92      0.00
   -3    8   19     -5.27      0.00
   -2    8   19     13.00      0.00
   -1    8   19     -0.30      0.00
    0    8   19      0.14      0.00
   -8    9   19      4.36      0.00
   -8   10   19      1.39      0.00
   -8   11   19      8.18      0.00
   -8   12   19      0.00      0.00
   -8   13   19      1.65      0.00
   -8   14   19      1.04      0.00
   -8   15   19      0.43      0.00
   -8   16   19     -1.09      0.00
   -7   16   19     -8.63      0.00
   -6   15   19      1.72      0.00
   -5   14   19     -2.25      0.00
   -4   13   19      6.43      0.00
   -3   12   19     -2.04      0.00
   -3    9   19      0.62      0.00
   -2    9   19     -6.23      0.00
   -1    9   19      1.68      0.00
    0    9   19     17.10      0.00
   -9   10   19      5.91      0.00
   -9   11   19    -11.58      0.00
   -9   12   19     -4.90      0.00
   -9   13   19      5.72      0.00
   -9   14   19      1.52      0.00
   -9   15   19     -2.42      0.00
   -9   16   19      3.10      0.00
   -6   16   19     -5.93      0.00
   -5   15   19     11.46      0.00
   -4   14   19     -6.83      0.00
   -3   13   19     11.56      0.00
   -2   12   19     -4.99      0.00
   -2   10   19      4.32      0.00
   -1   10   19      0.21      0.00
    0   10   19     -1.15      0.00
  -10   11   19      4.61      0.00
  -10   12   19      7.62      0.00
  -10   13   19     -4.40      0.00
  -10   14   19      2.15      0.00
  -10   15   19      0.17      0.00
  -10   16   19      6.44      0.00
   -5   16   19     -0.25      0.00
   -4   15   19      5.16      0.00
   -3   14   19      6.12      0.00
   -2   13   19     -1.27      0.00
   -2   11   19      0.65      0.00
   -1   11   19      5.43      0.00
    0   11   19      3.10      0.00
  -11   12   19     -1.68      0.00
  -11   13   19      8.12      0.00
  -11   14   19     -5.90      0.00
  -11   15   19      5.94      0.00
  -11   16   19      0.25      0.00
   -3   15   19     -0.71      0.00
   -2   14   19     -1.68      0.00
    0   12   19      2.11      0.00
   -1   12   19      2.94      0.00
  -12   13   19      0.63      0.00
  -12   14   19      2.22      0.00
  -12   15   19      1.58      0.00
   -2   15   19      5.14      0.00
   -1   14   19      4.48      0.00
    0   13   19     -9.64      0.00
   -1   13   19      3.95      0.00
  -13   14   19      9.33      0.00
  -13   15   19    -10.70      0.00
    0   14   19      1.86      0.00
   -5   11   20      4.34      0.00
   -6    9   20      4.42      0.00
   -6   10   20     -0.36      0.00
   -6   11   20      4.05      0.00
   -6   12   20      0.66      0.00
   -6   13   20     -1.63      0.00
   -5   12   20      1.31      0.00
   -7    8   20      5.08      0.00
   -7    9   20     -4.13      0.00
   -7   10   20      3.96      0.00
   -7   11   20     -1.30      0.00
   -7   12   20      0.44      0.00
   -7   13   20    -10.43      0.00
   -7   14   20     -1.59      0.00
   -7   15   20      6.48      0.00
   -6   14   20     -4.01      0.00
   -5   13   20      4.76      0.00
   -4   12   20     -7.08      0.00
   -1    8   20      6.60      0.00
    0    8   20     12.61      0.00
   -8    9   20     -6.37      0.00
   -8   10   20      1.40      0.00
   -8   11   20     -0.81      0.00
   -8   12   20     -2.72      0.00
   -8   13   20      1.04      0.00
   -8   14   20      6.08      0.00
   -8   15   20     -3.41      0.00
   -5   14   20     -1.46      0.00
   -4   13   20      9.03      0.00
   -3    9   20     -5.82      0.00
   -2    9   20      2.62      0.00
   -1    9   20     -5.42      0.00
    0    9   20      9.61      0.00
   -9   10   20      1.38      0.00
   -9   11   20      8.66      0.00
   -9   12   20     -0.18      0.00
   -9   13   20      5.14      0.00
   -9   14   20     -4.16      0.00
   -4   14   20     -1.91      0.00
   -5   10   20      4.39      0.00
   -4   10   20      0.99      0.00
   -3   10   20     10.24      0.00
   -2   10   20      0.94      0.00
   -1   10   20     -0.22      0.00
    0   10   20     -6.80      0.00
  -10   11   20      2.10      0.00
  -10   12   20      7.08      0.00
  -10   13   20      3.52      0.00
  -10   14   20      3.41      0.00
   -4   11   20     -5.00      0.00
   -3   11   20      0.84      0.00
   -2   11   20     -6.88      0.00
   -1   11   20     19.27      0.00
    0   11   20     -5.38      0.00
  -11   12   20      2.65      0.00
  -11   13   20     -9.91      0.00
  -11   14   20     -1.23      0.00
   -3   12   20     13.61      0.00
   -2   12   20      0.04      0.00
   -1   12   20      0.20      0.00
    0   12   20     -1.57      0.00
  -12   13   20     -1.39      0.00
   -3   13   20     -5.51      0.00
   -2   13   20      6.58      0.00
   -1   13   20      6.18      0.00
    0   13   20      1.73      0.00
   -3   14   20      3.50      0.00
   -6   13   21      2.47      0.00
   -7   12   21      5.52      0.00
   -7   13   21      4.21      0.00
   -8   10   21      0.82      0.00
   -8   11   21      4.96      0.00
   -8   12   21      2.01      0.00
   -8   13   21      3.10      0.00
    0    9   21     -1.66      0.00
   -9   10   21      1.18      0.00
   -9   11   21     -3.64      0.00
   -9   12   21     -0.86      0.00
   -2   10   21      1.28      0.00
   -1   10   21      8.11      0.00
    0   10   21     -4.81      0.00
  -10   11   21      7.78      0.00
  -10   12   21     -2.08      0.00
   -4   11   21     11.87      0.00
   -3   11   21      3.65      0.00
   -2   11   21     -5.52      0.00
   -1   11   21      5.42      0.00
    0   11   21     -3.58      0.00
   -6   12   21      8.62      0.00
   -5   12   21      4.02      0.00
   -4   12   21    -11.85      0.00
   -3   12   21      4.54      0.00
   -2   12   21     -5.28      0.00
   -5   13   21      6.94      0.00
  -18   26    0      4.88      0.00
  -22   24    1      3.04      0.00
   -2   24    1     -8.89      0.00
  -18   26    1      7.64      0.00
   -8   26    1     13.98      0.00
    0   23    2     -8.28      0.00
  -22   24    2     -1.54      0.00
   -2   24    2     -5.68      0.00
  -18   26    2      3.56      0.00
   -8   26    2     -1.94      0.00
    0   23    3      0.17      0.00
  -20   25    3      3.42      0.00
   -5   25    3     -4.72      0.00
  -20   25    4      5.53      0.00
   -5   25    4      2.78      0.00
  -17   26    4     -2.64      0.00
   -9   26    4      0.47      0.00
  -21   24    5      5.24      0.00
   -3   24    5      1.75      0.00
  -19   25    5     -0.71      0.00
   -6   25    5     -5.89      0.00
  -16   26    5      5.54      0.00
  -15   26    5     -2.84      0.00
  -11   26    5     -0.36      0.00
  -10   26    5     -5.90      0.00
  -22   23    6    -10.77      0.00
   -1   23    6     -3.35      0.00
  -13   26    6      5.58      0.00
  -17   25    7     -5.67      0.00
   -8   25    7      1.28      0.00
  -19   24    8     -4.45      0.00
   -5   24    8      6.16      0.00
  -16   25    8     -2.38      0.00
  -10   25    8     -1.25      0.00
   -9   25    8      2.85      0.00
  -21   22    9     -0.11      0.00
   -1   22    9     -4.34      0.00
  -20   22   10      5.43      0.00
   -2   22   10     -7.30      0.00
  -16   24   10     -4.65      0.00
   -8   24   10      1.21      0.00
  -19   22   11      2.78      0.00
   -3   22   11      4.92      0.00
  -17   23   11      5.25      0.00
   -6   23   11     -5.68      0.00
  -19   21   12     -6.71      0.00
   -2   21   12     -0.55      0.00
  -15   23   12      4.46      0.00
  -14   23   12      3.62      0.00
   -9   23   12      6.49      0.00
   -8   23   12     -2.02      0.00
  -19   20   13      4.56      0.00
   -1   20   13     -4.32      0.00
  -15   22   13      0.37      0.00
   -7   22   13     -0.06      0.00
    0   19   14      2.02      0.00
  -16   21   14     -5.13      0.00
   -5   21   14     -9.24      0.00
    0    0   15      3.36      0.00
  -12   21   15     -5.68      0.00
  -11   21   15     -1.25      0.00
  -10   21   15      0.65      0.00
   -9   21   15      4.50      0.00
    0    0   16     -9.74      0.00
    0    1   16     -2.38      0.00
   -1    2   16      3.58      0.00
  -17   18   16      3.87      0.00
   -1   18   16     -3.10      0.00
  -15   19   16     -1.14      0.00
   -4   19   16     -2.18      0.00
  -12   20   16      3.37      0.00
  -11   20   16     11.43      0.00
   -8   20   16      3.53      0.00
    0    0   17    -15.38      0.00
    0    1   17     -3.97      0.00
   -1    2   17     -9.49      0.00
    0    2   17     -1.27      0.00
   -2    3   17    -11.52      0.00
   -1    3   17    -10.98      0.00
  -16   17   17     -1.84      0.00
   -1   17   17      1.08      0.00
  -12   19   17     -2.81      0.00
  -11   19   17      0.29      0.00
  -10   19   17     -2.10      0.00
   -9   19   17      0.41      0.00
   -8   19   17      0.33      0.00
   -7   19   17      4.24      0.00
    0    0   18     38.74      0.00
    0    1   18    -15.53      0.00
   -1    2   18     11.45      0.00
    0    2   18      9.52      0.00
   -2    3   18     -3.29      0.00
   -1    3   18     24.17      0.00
    0    3   18      1.88      0.00
   -3    4   18     14.66      0.00
   -2    4   18      3.28      0.00
   -1    4   18      3.02      0.00
    0    4   18     -6.22      0.00
   -3    5   18    -21.28      0.00
   -2    5   18     -2.02      0.00
  -15   16   18     -3.30      0.00
   -1   16   18     -5.93      0.00
  -10   18   18     -6.83      0.00
   -9   18   18      1.93      0.00
   -8   18   18      0.63      0.00
    0    0   19     94.93      0.00
    0    1   19    -10.38      0.00
   -1    2   19     13.19      0.00
    0    2   19      1.36      0.00
   -2    3   19     -7.50      0.00
   -1    3   19     22.09      0.00
    0    3   19    -11.40      0.00
   -3    4   19     16.68      0.00
   -2    4   19     -8.81      0.00
   -1    4   19     -7.62      0.00
    0    4   19     16.37      0.00
   -4    5   19      6.58      0.00
   -3    5   19      8.34      0.00
   -2    5   19      8.52      0.00
   -1    5   19     15.62      0.00
    0    5   19      7.68      0.00
   -5    6   19      6.44      0.00
   -4    6   19     -1.02      0.00
   -3    6   19      4.75      0.00
   -2    6   19     11.81      0.00
   -1    6   19     11.61      0.00
   -4    7   19      9.50      0.00
   -3    7   19      0.42      0.00
  -14   15   19     -8.30      0.00
   -1   15   19     -8.55      0.00
  -12   16   19     -6.08      0.00
   -4   16   19     12.49      0.00
    0    0   20      7.43      0.00
    0    1   20     -8.94      0.00
   -1    2   20     -3.01      0.00
    0    2   20      8.19      0.00
   -2    3   20     -7.73      0.00
   -1    3   20      4.46      0.00
    0    3   20     -9.60      0.00
   -3    4   20      6.65      0.00
   -2    4   20     -0.68      0.00
   -1    4   20      2.13      0.00
    0    4   20     -8.40      0.00
   -4    5   20     -1.40      0.00
   -3    5   20     10.93      0.00
   -2    5   20      6.42      0.00
   -1    5   20     -0.71      0.00
    0    5   20     -6.12      0.00
   -5    6   20      2.45      0.00
   -4    6   20      6.75      0.00
   -3    6   20      5.11      0.00
   -2    6   20      4.70      0.00
   -1    6   20     -6.31      0.00
    0    6   20      0.93      0.00
   -6    7   20     10.76      0.00
   -5    7   20      3.25      0.00
   -4    7   20      3.51      0.00
   -3    7   20      2.45      0.00
   -2    7   20      1.67      0.00
   -1    7   20      8.71      0.00
    0    7   20     -2.78      0.00
   -6    8   20     -4.42      0.00
   -5    8   20      0.70      0.00
   -4    8   20     -3.89      0.00
   -3    8   20      1.75      0.00
   -2    8   20      9.88      0.00
   -5    9   20      5.95      0.00
   -4    9   20     11.98      0.00
  -12   14   20      5.32      0.00
   -2   14   20     -4.48      0.00
  -10   15   20     -4.18      0.00
   -9   15   20      3.86      0.00
   -6   15   20     -1.07      0.00
   -5   15   20      2.07      0.00
    0    0   21    -13.56      0.00
    0    1   21     -5.92      0.00
   -1    2   21     -0.06      0.00
    0    2   21      9.24      0.00
   -2    3   21     -3.43      0.00
   -1    3   21     -0.25      0.00
    0    3   21      8.80      0.00
   -3    4   21      3.43      0.00
   -2    4   21     -1.82      0.00
   -1    4   21      3.66      0.00
    0    4   21     -1.81      0.00
   -4    5   21     -3.22      0.00
   -3    5   21    -13.60      0.00
   -2    5   21    -16.47      0.00
   -1    5   21      3.53      0.00
    0    5   21      5.48      0.00
   -5    6   21      3.24      0.00
   -4    6   21     -1.60      0.00
   -3    6   21     -9.44      0.00
   -2    6   21     -3.79      0.00
   -1    6   21     -6.52      0.00
    0    6   21     -0.90      0.00
   -6    7   21      2.54      0.00
   -5    7   21     -4.64      0.00
   -4    7   21      3.66      0.00
   -3    7   21     -4.78      0.00
   -2    7   21      1.47      0.00
   -1    7   21      0.84      0.00
    0    7   21     -1.36      0.00
   -7    8   21     -2.87      0.00
   -6    8   21     -0.96      0.00
   -5    8   21      6.37      0.00
   -4    8   21      2.97      0.00
   -3    8   21      7.74      0.00
   -2    8   21     -9.42      0.00
   -1    8   21     -3.76      0.00
    0    8   21      4.24      0.00
   -8    9   21     -9.40      0.00
   -7    9   21      7.41      0.00
   -6    9   21      5.42      0.00
   -5    9   21      0.73      0.00
   -4    9   21     -9.19      0.00
   -3    9   21      0.33      0.00
   -2    9   21      5.63      0.00
   -1    9   21      0.35      0.00
   -7   10   21     -3.68      0.00
   -6   10   21     -0.03      0.00
   -5   10   21      6.07      0.00
   -4   10   21     -0.55      0.00
   -3   10   21    -11.93      0.00
   -7   11   21      4.66      0.00
   -6   11   21     -6.91      0.00
   -5   11   21     -9.18      0.00
  -11   12   21      3.30      0.00
   -1   12   21     -5.22      0.00
  -10   13   21     -1.00      0.00
   -9   13   21     -2.87      0.00
   -4   13   21     -5.90      0.00
   -3   13   21     -3.41      0.00
    0    0   22     -3.11      0.00
    0    1   22      3.91      0.00
   -1    2   22     -7.32      0.00
    0    2   22     -5.36      0.00
   -2    3   22     -6.43      0.00
   -1    3   22    -17.66      0.00
    0    3   22    -10.89      0.00
   -3    4   22      2.90      0.00
   -2    4   22      2.05      0.00
   -1    4   22     -0.92      0.00
    0    4   22     -7.65      0.00
   -4    5   22     -7.89      0.00
   -3    5   22      3.40      0.00
   -2    5   22      5.43      0.00
   -1    5   22      4.58      0.00
    0    5   22     -3.55      0.00
   -5    6   22     -1.28      0.00
   -4    6   22      1.86      0.00
   -3    6   22      5.15      0.00
   -2    6   22      0.37      0.00
   -1    6   22     -2.05      0.00
    0    6   22      5.96      0.00
   -6    7   22     -8.28      0.00
   -5    7   22     -1.81      0.00
   -4    7   22      2.39      0.00
   -3    7   22     -0.26      0.00
   -2    7   22      5.03      0.00
   -1    7   22     -5.26      0.00
    0    7   22     -0.30      0.00
   -7    8   22      5.98      0.00
   -6    8   22      1.49      0.00
   -5    8   22     -3.96      0.00
   -4    8   22     -3.99      0.00
   -3    8   22     -2.76      0.00
   -2    8   22      1.91      0.00
   -1    8   22     -2.23      0.00
    0    8   22     -0.70      0.00
   -8    9   22      3.29      0.00
   -7    9   22      6.74      0.00
   -6    9   22     -2.16      0.00
   -5    9   22     -0.57      0.00
   -4    9   22      2.33      0.00
   -3    9   22      5.99      0.00
   -2    9   22     -2.96      0.00
   -1    9   22      1.96      0.00
    0    9   22     -6.43      0.00
   -9   10   22      7.65      0.00
   -8   10   22     -1.70      0.00
   -7   10   22     -1.10      0.00
   -6   10   22     -1.03      0.00
   -5   10   22      4.84      0.00
   -4   10   22     -2.57      0.00
   -3   10   22      8.21      0.00
   -2   10   22     -4.23      0.00
   -1   10   22     -5.31      0.00
    0   10   22      0.39      0.00
   -8   11   22      2.53      0.00
   -7   11   22      0.86      0.00
   -6   11   22      2.17      0.00
   -5   11   22     -0.74      0.00
   -4   11   22      1.42      0.00
   -3   11   22     -1.73      0.00
    0    0    0      0.00      0.00
# SQUEEZE RESULTS (Version = 230318)
# Note: Data are Listed for all Voids in the P1 Unit Cell
# i.e. Centre of Gravity, Solvent Accessible Volume,
# Recovered number of Electrons in the Void and
# Details about the Squeezed Material
loop_
  _platon_squeeze_void_nr
  _platon_squeeze_void_average_x
  _platon_squeeze_void_average_y
  _platon_squeeze_void_average_z
  _platon_squeeze_void_volume
  _platon_squeeze_void_count_electrons
  _platon_squeeze_void_content
   1 -0.014 -0.009 -0.028      3876       933 ' '
_platon_squeeze_void_probe_radius                  1.20
_platon_squeeze_details
)
TITL test2_a.res in P6/m
CELL   20.5250   20.5250   18.6690     90.00     90.00    120.00
SPGR P6/m
# Solvent Accessible Volume =      3870
# Electrons Found in S.A.V. =       932
# Note: Atoms in Void are Labelled as Cxxx and Qxxx for all Others
Q101 0.341 0.344 0.499 !       6.38 eA-3
C102 1.000 1.000 0.109 !       5.80 eA-3
Q103 0.862 0.328-0.001 !       4.54 eA-3
Q104 0.376 0.406-0.002 !       4.21 eA-3
Q105 0.116 0.406 0.504 !       3.93 eA-3
Q106 0.938 0.200 0.113 !       3.63 eA-3
C107 1.000 0.998 0.203 !       3.45 eA-3
Q108 0.782 0.988 0.893 !       3.27 eA-3
Q109 0.890 0.669 0.107 !       3.26 eA-3
Q110 0.149 0.344-0.002 !       3.18 eA-3
Q111 0.702 0.578-0.003 !       3.15 eA-3
Q112 0.549 0.780 0.106 !       3.01 eA-3
Q113 0.720 0.125 0.001 !       2.99 eA-3
C114 0.402 0.839 0.106 !       2.95 eA-3
Q115 0.030 0.906 0.007 !       2.93 eA-3
C116 1.000 1.000 0.000 !       2.92 eA-3
Q117 0.904 0.359 0.000 !       2.87 eA-3
Q118 0.825 0.939 0.110 !       2.85 eA-3
C119 0.666 0.480 0.113 !       2.84 eA-3
C120 0.485 0.816 0.893 !       2.84 eA-3
Q121 0.053 0.829 0.316 !       2.83 eA-3
C122 0.159 0.649 0.912 !       2.74 eA-3
Q123 0.873 0.131 0.656 !       2.61 eA-3
Q124 0.109 0.846 0.892 !       2.54 eA-3
C125 0.169 0.347 0.341 !       2.54 eA-3
Q126 0.267 0.078-0.004 !       2.52 eA-3
Q127 0.390 0.250 0.000 !       2.51 eA-3
C128 0.377 0.562 0.891 !       2.51 eA-3
Q129 0.902 0.127 0.279 !       2.47 eA-3
Q130 0.796 0.234 0.001 !       2.44 eA-3
C131 1.000 0.990 0.266 !       2.37 eA-3
Q132 0.455 0.234-0.006 !       2.24 eA-3
C133 0.902 0.182 0.384 !       2.22 eA-3
C134 0.734 0.530 0.850 !       2.21 eA-3
C135 0.855 0.732 0.596 !       2.20 eA-3
Q136 0.997 0.724 0.894 !       2.19 eA-3
C137 0.737 0.540 0.218 !       2.18 eA-3
Q138 0.887 0.875 0.113 !       2.12 eA-3
C139 0.780 0.450 0.104 !       2.11 eA-3
C140 0.681 0.484 0.496 !       2.05 eA-3
C141 0.668 0.328 0.008 !       2.04 eA-3
Q142 0.051 0.329 0.102 !       2.04 eA-3
Q143 0.380 0.986 0.113 !       2.04 eA-3
C144 0.625 0.476 0.113 !       2.00 eA-3
C145 0.160 0.686 0.137 !       1.98 eA-3
C146 0.281 0.501 0.795 !       1.92 eA-3
C147 1.000 1.000 0.578 !       1.90 eA-3
C148 0.640 0.359 0.001 !       1.88 eA-3
Q149 0.496 0.434 0.113 !       1.87 eA-3
Q150 0.103 0.358 0.216 !       1.85 eA-3
C151 0.808 0.072 0.362 !       1.84 eA-3
C152 0.626 0.469 0.505 !       1.83 eA-3
Q153 0.169 0.342 0.109 !       1.82 eA-3
Q154 0.841 0.091 0.219 !       1.76 eA-3
Q155 0.159 0.904 0.219 !       1.76 eA-3
Q156 1.000 0.626 0.348 !       1.75 eA-3
C157 0.940 0.774 0.406 !       1.74 eA-3
Q158 0.935 0.903 0.225 !       1.73 eA-3
C159 0.160 0.311 0.382 !       1.71 eA-3
Q160 0.026 0.935 0.218 !       1.70 eA-3
Q161 0.120 0.175 0.307 !       1.70 eA-3
Q162 0.454 0.122 0.064 !       1.70 eA-3
C163 0.537 0.250 0.501 !       1.70 eA-3
Q164 0.687 0.558 0.215 !       1.69 eA-3
Q165 0.298 0.313-0.006 !       1.68 eA-3
Q166 1.005 0.565 0.015 !       1.68 eA-3
C167 0.760 0.391 0.502 !       1.68 eA-3
Q168 0.095 0.250 0.005 !       1.67 eA-3
C169 0.109 0.141 0.494 !       1.64 eA-3
C170 0.483 0.919 0.109 !       1.63 eA-3
Q171 0.848 0.923 0.302 !       1.59 eA-3
C172 0.726 0.336 0.316 !       1.58 eA-3
Q173 0.058 0.133 0.124 !       1.56 eA-3
Q174 0.060 0.156 0.002 !       1.56 eA-3
Q175 0.172 0.015 0.123 !       1.55 eA-3
Q176 0.779 0.113 0.311 !       1.55 eA-3
C177 0.271 0.566 0.530 !       1.54 eA-3
C178 0.070 0.860 0.403 !       1.53 eA-3
C179 1.000 1.005 0.047 !       1.50 eA-3
C180 0.967 0.890 0.392 !       1.50 eA-3
C181 0.472 0.756 0.418 !       1.50 eA-3
Q182 0.843 0.838 0.702 !       1.50 eA-3
C183 0.543 0.812 0.508 !       1.50 eA-3
C184 0.334 0.671 0.240 !       1.49 eA-3
Q185 0.753 0.751 0.483 !       1.49 eA-3
C186 0.867 0.937 0.500 !       1.48 eA-3
C187 0.279 0.626 0.216 !       1.48 eA-3
Q188 0.950 0.089 0.716 !       1.47 eA-3
Q189 0.475 0.500-0.005 !       1.47 eA-3
C190 0.289 0.216 0.374 !       1.46 eA-3
Q191 0.515 0.177 0.314 !       1.46 eA-3
C192 0.666 0.273 0.422 !       1.44 eA-3
Q193 0.629 0.109 0.001 !       1.44 eA-3
Q194 0.191 0.842 0.219 !       1.43 eA-3
C195 0.636 0.359 0.503 !       1.43 eA-3
Q196 0.048 0.281 0.001 !       1.42 eA-3
C197 0.652 0.316 0.286 !       1.42 eA-3
Q198 0.186 0.375 0.502 !       1.42 eA-3
Q199 0.049 0.212 0.795 !       1.38 eA-3
)
;
_shelx_fab_checksum              13286
loop_
_space_group_symop_operation_xyz
'x, y, z'
'-y, x-y, z'
'-x+y, -x, z'
'-x, -y, z'
'y, -x+y, z'
'x-y, x, z'
'-x, -y, -z'
'y, -x+y, -z'
'x-y, x, -z'
'x, y, -z'
'-y, x-y, -z'
'-x+y, -x, -z'
loop_
_atom_site_label
_atom_site_type_symbol
_atom_site_fract_x
_atom_site_fract_y
_atom_site_fract_z
_atom_site_U_iso_or_equiv
_atom_site_adp_type
_atom_site_occupancy
_atom_site_site_symmetry_order
_atom_site_calc_flag
_atom_site_refinement_flags_posn
_atom_site_refinement_flags_adp
_atom_site_refinement_flags_occupancy
_atom_site_disorder_assembly
_atom_site_disorder_group
Np01 Np 0.16528(3) 0.22067(3) 0.89410(3) 0.03133(18) Uani 1 1 d . . . . .
Np02 Np 0.35198(5) 0.25197(5) 1.000000 0.0437(3) Uani 1 2 d S T P . .
Br1A Br 0.3888(4) 0.3146(4) 0.500000 0.0531(18) Uiso 0.400(6) 2 d S . P A 1
Br1B Br 0.3636(4) 0.3272(4) 0.500000 0.0541(19) Uiso 0.400(6) 2 d S . P A 2
O001 O 0.1648(6) 0.3077(6) 0.9221(6) 0.045(2) Uiso 1 1 d . . . . .
F001 F 0.0997(7) 0.1575(7) 1.000000 0.049(3) Uiso 1 2 d S . P . .
O002 O 0.1649(5) 0.1337(5) 0.8663(5) 0.0348(19) Uiso 1 1 d . . . . .
O003 O 0.1513(7) 0.2493(7) 0.7693(8) 0.070(3) Uiso 1 1 d . . . . .
O004 O 0.3926(7) 0.2948(7) 0.8751(8) 0.066(3) Uiso 1 1 d . . . . .
O005 O 0.3975(13) 0.3888(13) 1.000000 0.088(6) Uiso 1 2 d S . P . .
O006 O 0.2514(7) 0.2377(7) 1.000000 0.037(3) Uiso 1 2 d S . P . .
O007 O 0.4421(10) 0.2598(10) 1.000000 0.067(5) Uiso 1 2 d S . P . .
C001 C 0.3532(10) 0.3111(10) 0.8368(10) 0.057(4) Uiso 1 1 d . . . . .
C002 C 0.4726(9) 0.4624(9) 0.5648(9) 0.055(4) Uiso 1 1 d . . . . .
C003 C 0.3847(10) 0.3485(10) 0.7655(10) 0.061(4) Uiso 1 1 d . . . . .
C004 C 0.4441(10) 0.4203(10) 0.6358(11) 0.059(4) Uiso 1 1 d . . . . .
C005 C 0.4480(14) 0.4256(14) 0.500000 0.056(6) Uiso 1 2 d S . P . .
C006 C 0.4862(15) 0.4064(14) 0.6796(15) 0.094(7) Uiso 1 1 d . . . . .
C007 C 0.3703(13) 0.3989(13) 0.6532(13) 0.083(6) Uiso 1 1 d . . . . .
C008 C 0.3407(14) 0.3656(14) 0.7223(14) 0.092(7) Uiso 1 1 d . . . . .
C009 C 0.4598(12) 0.3694(12) 0.7472(13) 0.077(6) Uiso 1 1 d . . . . .
O008 O 0.2880(7) 0.2974(7) 0.8522(7) 0.068(3) Uiso 1 1 d . . . . .
loop_
_atom_site_aniso_label
_atom_site_aniso_U_11
_atom_site_aniso_U_22
_atom_site_aniso_U_33
_atom_site_aniso_U_23
_atom_site_aniso_U_13
_atom_site_aniso_U_12
Np01 0.0400(3) 0.0351(3) 0.0151(3) 0.00207(18) 0.00309(19) 0.0160(2)
Np02 0.0382(4) 0.0518(5) 0.0190(4) 0.000 0.000 0.0060(4)
loop_
_atom_type_symbol
_atom_type_description
_atom_type_scat_dispersion_real
_atom_type_scat_dispersion_imag
_atom_type_scat_source
C C 0.0033 0.0016 'International Tables Vol C Tables 4.2.6.8 and 6.1.1.4'
H H 0.0000 0.0000 'International Tables Vol C Tables 4.2.6.8 and 6.1.1.4'
O O 0.0106 0.0060 'International Tables Vol C Tables 4.2.6.8 and 6.1.1.4'
F F 0.0171 0.0103 'International Tables Vol C Tables 4.2.6.8 and 6.1.1.4'
Br Br -0.2901 2.4595 'International Tables Vol C Tables 4.2.6.8 and 6.1.1.4'
Np Np -11.4937 4.1493 'International Tables Vol C Tables 4.2.6.8 and 6.1.1.4'
N N 0.0061 0.0033 'International Tables Vol C Tables 4.2.6.8 and 6.1.1.4'
loop_
_geom_angle_atom_site_label_1
_geom_angle_atom_site_label_2
_geom_angle_atom_site_label_3
_geom_angle
_geom_angle_site_symmetry_1
_geom_angle_site_symmetry_3
O002 Np01 O001 179.5(4) . .
O002 Np01 O008 92.3(4) . .
O001 Np01 O008 88.2(4) . .
O002 Np01 F001 88.8(4) . .
O001 Np01 F001 91.0(4) . .
O008 Np01 F001 140.4(4) . .
O002 Np01 O003 91.1(4) . .
O001 Np01 O003 88.8(4) . .
O008 Np01 O003 74.8(4) . .
F001 Np01 O003 144.8(4) . .
O002 Np01 O002 91.6(5) . 6
O001 Np01 O002 88.0(4) . 6
O008 Np01 O002 145.5(4) . 6
F001 Np01 O002 74.0(3) . 6
O003 Np01 O002 70.9(4) . 6
O002 Np01 O006 91.1(4) . .
O001 Np01 O006 89.2(4) . .
O008 Np01 O006 74.2(4) . .
F001 Np01 O006 66.2(3) . .
O003 Np01 O006 148.9(4) . .
O002 Np01 O006 140.0(3) 6 .
O002 Np01 Np01 106.3(3) . 10_557
O001 Np01 Np01 73.7(3) . 10_557
O008 Np01 Np01 109.5(3) . 10_557
F001 Np01 Np01 33.8(2) . 10_557
O003 Np01 Np01 161.6(3) . 10_557
O002 Np01 Np01 102.2(2) 6 10_557
O006 Np01 Np01 39.4(2) . 10_557
O002 Np01 Np02 80.7(3) . .
O001 Np01 Np02 99.7(3) . .
O008 Np01 Np02 56.2(3) . .
F001 Np01 Np02 85.1(3) . .
O003 Np01 Np02 129.6(3) . .
O002 Np01 Np02 157.8(2) 6 .
O006 Np01 Np02 21.6(2) . .
Np01 Np01 Np02 60.918(10) 10_557 .
O002 Np01 Np02 158.2(3) . 9_557
O001 Np01 Np02 21.5(3) . 9_557
O008 Np01 Np02 108.5(3) . 9_557
F001 Np01 Np02 70.9(3) . 9_557
O003 Np01 Np02 100.7(3) . 9_557
O002 Np01 Np02 75.4(2) 6 9_557
O006 Np01 Np02 88.2(3) . 9_557
Np01 Np01 Np02 60.952(10) 10_557 9_557
Np02 Np01 Np02 104.789(14) . 9_557
O002 Np01 Np01 105.2(3) . 6
O001 Np01 Np01 74.4(3) . 6
O008 Np01 Np01 149.2(3) . 6
F001 Np01 Np01 66.5(3) . 6
O003 Np01 Np01 79.7(3) . 6
O002 Np01 Np01 16.1(2) 6 6
O006 Np01 Np01 129.3(2) . 6
Np01 Np01 Np01 90.000(1) 10_557 6
Np02 Np01 Np01 150.536(10) . 6
Np02 Np01 Np01 59.852(18) 9_557 6
O002 Np01 Np01 21.5(3) . 5
O001 Np01 Np01 158.8(3) . 5
O008 Np01 Np01 84.6(3) . 5
F001 Np01 Np01 82.2(3) . 5
O003 Np01 Np01 108.3(3) . 5
O002 Np01 Np01 109.0(2) 6 5
O006 Np01 Np01 69.7(3) . 5
Np01 Np01 Np01 89.999(1) 10_557 5
Np02 Np01 Np01 59.956(17) . 5
Np02 Np01 Np01 150.551(10) 9_557 5
Np01 Np01 Np01 120.0 6 5
O007 Np02 O006 177.0(7) . .
O007 Np02 O001 88.7(5) . 5
O006 Np02 O001 88.9(4) . 5
O007 Np02 O001 88.7(5) . 8_557
O006 Np02 O001 88.9(4) . 8_557
O001 Np02 O001 73.4(5) 5 8_557
O007 Np02 O005 96.4(8) . .
O006 Np02 O005 86.6(7) . .
O001 Np02 O005 143.0(3) 5 .
O001 Np02 O005 143.0(3) 8_557 .
O007 Np02 O004 79.5(4) . .
O006 Np02 O004 101.4(3) . .
O001 Np02 O004 70.7(4) 5 .
O001 Np02 O004 142.3(4) 8_557 .
O005 Np02 O004 74.3(3) . .
O007 Np02 O004 79.5(4) . 10_557
O006 Np02 O004 101.4(3) . 10_557
O001 Np02 O004 142.3(4) 5 10_557
O001 Np02 O004 70.7(4) 8_557 10_557
O005 Np02 O004 74.3(3) . 10_557
O004 Np02 O004 139.6(6) . 10_557
O007 Np02 Np01 150.61(8) . 10_557
O006 Np02 Np01 29.12(2) . 10_557
O001 Np02 Np01 104.8(2) 5 10_557
O001 Np02 Np01 71.1(2) 8_557 10_557
O005 Np02 Np01 88.3(5) . 10_557
O004 Np02 Np01 129.4(3) . 10_557
O004 Np02 Np01 73.9(3) 10_557 10_557
O007 Np02 Np01 150.61(9) . .
O006 Np02 Np01 29.12(2) . .
O001 Np02 Np01 71.1(2) 5 .
O001 Np02 Np01 104.8(2) 8_557 .
O005 Np02 Np01 88.3(5) . .
O004 Np02 Np01 73.9(3) . .
O004 Np02 Np01 129.4(3) 10_557 .
Np01 Np02 Np01 58.16(2) 10_557 .
O007 Np02 Np01 103.5(5) . 5
O006 Np02 Np01 73.9(3) . 5
O001 Np02 Np01 16.3(2) 5 5
O001 Np02 Np01 67.7(2) 8_557 5
O005 Np02 Np01 144.2(3) . 5
O004 Np02 Np01 80.4(3) . 5
O004 Np02 Np01 138.2(3) 10_557 5
Np01 Np02 Np01 88.56(2) 10_557 5
Np01 Np02 Np01 60.193(16) . 5
O007 Np02 Np01 103.5(5) . 8_557
O006 Np02 Np01 73.9(3) . 8_557
O001 Np02 Np01 67.7(2) 5 8_557
O001 Np02 Np01 16.3(2) 8_557 8_557
O005 Np02 Np01 144.2(3) . 8_557
O004 Np02 Np01 138.2(3) . 8_557
O004 Np02 Np01 80.4(3) 10_557 8_557
Np01 Np02 Np01 60.193(16) 10_557 8_557
Np01 Np02 Np01 88.56(2) . 8_557
Np01 Np02 Np01 58.09(2) 5 8_557
Np01 O001 Np02 142.2(5) . 9_557
Np01 F001 Np01 112.4(5) 10_557 .
Np01 O002 Np01 142.5(5) . 5
C001 O004 Np02 119.1(12) . .
Np02 O006 Np01 129.3(2) . 10_557
Np02 O006 Np01 129.3(2) . .
Np01 O006 Np01 101.3(4) 10_557 .
O004 C001 O008 124.8(18) . .
O004 C001 C003 118.1(16) . .
O008 C001 C003 117.0(16) . .
C005 C002 C002 118.7(12) . 4_665
C005 C002 C004 121.2(16) . .
C002 C002 C004 119.9(10) 4_665 .
C008 C003 C009 122(2) . .
C008 C003 C001 118.3(18) . .
C009 C003 C001 119.4(18) . .
C006 C004 C007 121(2) . .
C006 C004 C002 123.4(19) . .
C007 C004 C002 115.6(17) . .
C002 C005 C002 122(2) . 10_556
C002 C005 Br1B 118.2(12) . .
C002 C005 Br1B 118.2(12) 10_556 .
C002 C005 Br1A 118.4(12) . .
C002 C005 Br1A 118.4(12) 10_556 .
C004 C006 C009 123(2) . .
C004 C007 C008 120(2) . .
C003 C008 C007 118(2) . .
C003 C009 C006 116(2) . .
C001 O008 Np01 153.7(12) . .
loop_
_geom_bond_atom_site_label_1
_geom_bond_atom_site_label_2
_geom_bond_distance
_geom_bond_site_symmetry_2
Np01 O002 1.854(9) .
Np01 O001 1.866(10) .
Np01 O008 2.339(13) .
Np01 F001 2.379(7) .
Np01 O003 2.454(14) .
Np01 O002 2.452(9) 6
Np01 O006 2.557(8) .
Np01 Np01 3.9539(11) 10_557
Np01 Np02 4.0675(10) .
Np01 Np02 4.0717(10) 9_557
Np01 Np01 4.0814(8) 6
Np01 Np01 4.0815(8) 5
Np02 O007 1.774(18) .
Np02 O006 1.934(13) .
Np02 O001 2.433(10) 5
Np02 O001 2.433(10) 8_557
Np02 O005 2.48(2) .
Np02 O004 2.484(14) .
Np02 O004 2.484(14) 10_557
Br1A C005 1.97(3) .
Br1B C005 1.89(3) .
O004 C001 1.24(2) .
C001 O008 1.25(2) .
C001 C003 1.51(3) .
C002 C005 1.38(2) .
C002 C002 1.38(3) 4_665
C002 C004 1.53(3) .
C003 C008 1.38(3) .
C003 C009 1.42(3) .
C004 C006 1.32(3) .
C004 C007 1.39(3) .
C006 C009 1.43(3) .
C007 C008 1.44(3) .
