#------------------------------------------------------------------------------
#$Date: 2019-11-03 10:52:24 +0200 (Sun, 03 Nov 2019) $
#$Revision: 221193 $
#$URL: file:///home/coder/svn-repositories/cod/cif/4/12/80/4128062.cif $
#------------------------------------------------------------------------------
#
# This file is available in the Crystallography Open Database (COD),
# http://www.crystallography.net/
#
# All data on this site have been placed in the public domain by the
# contributors.
#
data_4128062
loop_
_publ_author_name
'Castillo-Blas, Celia'
'L\'opez-Salas, Nieves'
'Guti\'errez, Mar\'ia C'
'Puente-Orench, In\'es'
'Guti\'errez-Puebla, Enrique'
'Ferrer, M. Luisa'
'Monge, M \'Angeles'
'G\'andara, Felipe'
_publ_section_title
;
 Encoding Metal-Cation Arrangements in Metal-Organic Frameworks for
 Programming the Composition of Electrocatalytically Active Multimetal
 Oxides.
;
_journal_issue                   4
_journal_name_full               'Journal of the American Chemical Society'
_journal_page_first              1766
_journal_page_last               1774
_journal_paper_doi               10.1021/jacs.8b12860
_journal_volume                  141
_journal_year                    2019
_chemical_formula_moiety         'C17 H8 Ca0.21 Co0.12 F6 Mn0.29 O4 Zn0.38'
_chemical_formula_sum            'C17 H8 Ca0.21 Co0.12 F6 Mn0.29 O4 Zn0.38'
_chemical_formula_weight         446.47
_space_group_crystal_system      hexagonal
_space_group_IT_number           179
_space_group_name_Hall           'P 65 2 (0 0 1)'
_space_group_name_H-M_alt        'P 65 2 2'
_symmetry_space_group_name_Hall  'P 65 2 (0 0 1)'
_symmetry_space_group_name_H-M   'P 65 2 2'
_atom_sites_solution_hydrogens   geom
_atom_sites_solution_primary     direct
_audit_creation_date             2018-05-16
_audit_creation_method
;
Olex2 1.2
(compiled 2018.04.26 svn.r3504 for OlexSys, GUI svn.r5492)
;
_cell_angle_alpha                90
_cell_angle_beta                 90
_cell_angle_gamma                120
_cell_formula_units_Z            12
_cell_length_a                   21.2824(18)
_cell_length_b                   21.2824(18)
_cell_length_c                   15.3210(14)
_cell_measurement_reflns_used    9867
_cell_measurement_temperature    296(2)
_cell_measurement_theta_max      65.538
_cell_measurement_theta_min      2.397
_cell_volume                     6009.8(9)
_computing_cell_refinement       'SAINT v8.37A (Bruker, 2015)'
_computing_data_reduction        'SAINT v8.37A (Bruker, 2015)'
_computing_molecular_graphics    'Olex2 (Dolomanov et al., 2009)'
_computing_publication_material  'Olex2 (Dolomanov et al., 2009)'
_computing_structure_refinement  'XL (Sheldrick, 2008)'
_computing_structure_solution    'XS (Sheldrick, 2008)'
_diffrn_ambient_temperature      296.15
_diffrn_measured_fraction_theta_full 0.978
_diffrn_measured_fraction_theta_max 0.978
_diffrn_measurement_device_type  'Vantec 500'
_diffrn_measurement_method       '\f and \w scans'
_diffrn_radiation_type           CuK\a
_diffrn_radiation_wavelength     1.54178
_diffrn_reflns_av_R_equivalents  0.0663
_diffrn_reflns_av_unetI/netI     0.0336
_diffrn_reflns_Laue_measured_fraction_full 0.978
_diffrn_reflns_Laue_measured_fraction_max 0.978
_diffrn_reflns_limit_h_max       15
_diffrn_reflns_limit_h_min       -25
_diffrn_reflns_limit_k_max       25
_diffrn_reflns_limit_k_min       -19
_diffrn_reflns_limit_l_max       18
_diffrn_reflns_limit_l_min       -18
_diffrn_reflns_number            30147
_diffrn_reflns_point_group_measured_fraction_full 0.967
_diffrn_reflns_point_group_measured_fraction_max 0.967
_diffrn_reflns_theta_full        65.539
_diffrn_reflns_theta_max         65.539
_diffrn_reflns_theta_min         3.752
_diffrn_standards_number         0
_exptl_absorpt_coefficient_mu    4.248
_exptl_absorpt_correction_T_max  0.7526
_exptl_absorpt_correction_T_min  0.4654
_exptl_absorpt_correction_type   multi-scan
_exptl_absorpt_process_details
'SADABS-2014/5 (Bruker,2014/5) was used for absorption correction. wR2(int) was 0.1697 before and 0.1026 after correction. The Ratio of minimum to maximum transmission is 0.6184. The \l/2 correction factor is Not present.'
_exptl_crystal_colour            blue
_exptl_crystal_colour_primary    blue
_exptl_crystal_density_diffrn    1.480
_exptl_crystal_description       needle
_exptl_crystal_F_000             2665
_exptl_crystal_size_max          0.1
_exptl_crystal_size_mid          0.04
_exptl_crystal_size_min          0.04
_refine_diff_density_max         1.913
_refine_diff_density_min         -2.002
_refine_diff_density_rms         0.338
_refine_ls_abs_structure_details
;
 Flack x determined using 1208 quotients [(I+)-(I-)]/[(I+)+(I-)]
 (Parsons, Flack and Wagner, Acta Cryst. B69 (2013) 249-259).
;
_refine_ls_abs_structure_Flack   -0.044(12)
_refine_ls_extinction_method     none
_refine_ls_goodness_of_fit_ref   1.655
_refine_ls_hydrogen_treatment    constr
_refine_ls_matrix_type           full
_refine_ls_number_parameters     258
_refine_ls_number_reflns         3351
_refine_ls_number_restraints     0
_refine_ls_restrained_S_all      1.655
_refine_ls_R_factor_all          0.1396
_refine_ls_R_factor_gt           0.1315
_refine_ls_shift/su_max          0.000
_refine_ls_shift/su_mean         0.000
_refine_ls_structure_factor_coef Fsqd
_refine_ls_weighting_details
'w=1/[\s^2^(Fo^2^)+(0.2000P)^2^] where P=(Fo^2^+2Fc^2^)/3'
_refine_ls_weighting_scheme      calc
_refine_ls_wR_factor_gt          0.3060
_refine_ls_wR_factor_ref         0.3335
_reflns_Friedel_coverage         0.679
_reflns_Friedel_fraction_full    0.952
_reflns_Friedel_fraction_max     0.952
_reflns_number_gt                3156
_reflns_number_total             3351
_reflns_threshold_expression     'I > 2\s(I)'
_iucr_refine_instructions_details
;

    1.res created by SHELXL-2014/7

TITL 1 in P6522 #179
REM reset to P6522 #179
CELL 1.54178 21.2824 21.2824 15.321 90 90 120
ZERR 12 0.0018 0.0018 0.0014 0 0 0
LATT -1
SYMM -Y+X,+X,0.833+Z
SYMM -Y,+X-Y,0.667+Z
SYMM -X,-Y,0.5+Z
SYMM +Y-X,-X,0.333+Z
SYMM +Y,-X+Y,0.167+Z
SYMM -Y+X,-Y,-Z
SYMM -X,-X+Y,0.333-Z
SYMM +Y,+X,0.667-Z
SYMM -Y,-X,0.167-Z
SYMM +Y-X,+Y,0.5-Z
SYMM +X,+X-Y,0.833-Z
SFAC C H Ca Co F Mn O Zn
UNIT 204 96 2.56 1.4 72 3.44 48 4.6
EADP Mn2 Ca2
EADP Zn1 Co1
 
L.S. 20
PLAN  20
TEMP 23
fmap 2
acta
REM <olex2.extras>
REM <HklSrc "%.\\1.hkl">
REM </olex2.extras>
 
WGHT    0.200000
FVAR       0.08799   0.57345   0.76750
PART 1
ZN1   8    0.281868    0.718132    0.083333    30.50000    0.01653    0.01653 =
         0.02154    0.00304    0.00304    0.01029
PART 0
MN2   6    0.351538    0.675769   -0.083333    20.50000    0.01409    0.00965 =
         0.02141   -0.00399    0.00000    0.00704
O1    7    0.255461    0.626042    0.021976    11.00000    0.01714    0.01295 =
         0.02531   -0.00050    0.00286    0.00359
O2    7    0.424684    0.735306    0.022979    11.00000    0.01988    0.02768 =
         0.03233   -0.00895   -0.01014    0.00744
O3    7    0.342038    0.770427   -0.104559    11.00000    0.04066    0.01829 =
         0.06292    0.00615   -0.00076    0.01827
F4    5    0.095878    0.296510   -0.177910    11.00000    0.04349    0.06533 =
         0.10375   -0.03159   -0.01751    0.03660
C5    1    0.318214    0.804622   -0.068494    11.00000    0.02212    0.01637 =
         0.05597    0.00245   -0.00780    0.00624
F6    5    0.016070    0.187612   -0.140401    11.00000    0.07036    0.03955 =
         0.15492   -0.04671   -0.06481    0.03695
O7    7    0.297955    0.798317    0.008045    11.00000    0.06270    0.03675 =
         0.04151    0.01684    0.00276    0.03189
C8    1    0.104043    0.422105   -0.076216    11.00000    0.02966    0.02564 =
         0.04687    0.00847   -0.01070    0.01209
AFIX  43
H8    2    0.085526    0.416969   -0.132391    11.00000   -1.20000
AFIX   0
F9    5   -0.048656    0.262832    0.069560    11.00000    0.05408    0.06384 =
         0.06498    0.02335   -0.00751    0.00468
C10   1    0.239689    0.570355    0.070755    11.00000    0.01235    0.01787 =
         0.02916   -0.00665   -0.00471    0.00931
F11   5    0.110586    0.252430   -0.061370    11.00000    0.05925    0.06248 =
         0.15791   -0.03339   -0.06855    0.04286
C12   1    0.162543    0.434962    0.087238    11.00000    0.03366    0.02462 =
         0.04634    0.01589   -0.00448    0.01003
AFIX  43
H12   2    0.183391    0.439438    0.141895    11.00000   -1.20000
AFIX   0
F13   5    0.009682    0.206060    0.056574    11.00000    0.07269    0.02971 =
         0.12078    0.02002   -0.06456    0.00024
C14   1    0.019793    0.286335   -0.061004    11.00000    0.03049    0.02462 =
         0.06483    0.00055   -0.02013    0.01093
C15   1    0.314390    0.863931   -0.118820    11.00000    0.02442    0.01068 =
         0.04738    0.00384   -0.00199    0.00330
C16   1    0.185431    0.497042    0.034935    11.00000    0.02013    0.00976 =
         0.03018    0.00363   -0.00361    0.00382
F17   5   -0.084658    0.175195   -0.023676    11.00000    0.05095    0.03532 =
         0.11225    0.01243   -0.04307   -0.01987
C18   1    0.332342    0.933010   -0.249650    11.00000    0.03407    0.02291 =
         0.03435    0.01050   -0.00078    0.00761
AFIX  43
H18   2    0.349985    0.944370   -0.306410    11.00000   -1.20000
AFIX   0
C19   1    0.111457    0.369913    0.059553    11.00000    0.03050    0.02645 =
         0.05592    0.01314   -0.00756    0.01332
AFIX  43
H19   2    0.097351    0.329605    0.095088    11.00000   -1.20000
AFIX   0
C20   1    0.061175    0.255009   -0.112914    11.00000    0.03899    0.03377 =
         0.12509   -0.02926   -0.05293    0.02202
C22   1    0.282090    0.901161   -0.080886    11.00000    0.03580    0.02576 =
         0.03802    0.01314    0.01247    0.01282
AFIX  43
H22   2    0.267172    0.892412   -0.022926    11.00000   -1.20000
AFIX   0
C23   1    0.155676    0.488840   -0.047103    11.00000    0.01821    0.02286 =
         0.03411    0.00363   -0.00866    0.00303
AFIX  43
H23   2    0.170931    0.529164   -0.082949    11.00000   -1.20000
AFIX   0
C24   1   -0.025488    0.232367    0.009648    11.00000    0.04580    0.01870 =
         0.08243    0.01680   -0.03648   -0.01375
C25   1    0.340466    0.881795   -0.201524    11.00000    0.03539    0.01701 =
         0.05528    0.00201    0.00631    0.01044
AFIX  43
H25   2    0.364150    0.859505   -0.226522    11.00000   -1.20000
AFIX   0
C26   1    0.078803    0.361242   -0.021732    11.00000    0.01646    0.01598 =
         0.06086    0.01061   -0.00887    0.00384
C27   1    0.272448    0.950067   -0.128470    11.00000    0.02181    0.02616 =
         0.05899    0.00504    0.00612    0.00617
AFIX  43
H27   2    0.248461    0.972122   -0.103671    11.00000   -1.20000
AFIX   0
C28   1   -0.033223    0.297673   -0.121429    11.00000    0.01947    0.01661 =
         0.05331    0.00206   -0.01551   -0.00094
PART 2
CA2   3    0.348257    0.674128   -0.083333   -20.50000    0.01409    0.00965 =
         0.02141   -0.00399    0.00000    0.00704
CO1   4    0.281325    0.718675    0.083333   -30.50000    0.01653    0.01653 =
         0.02154    0.00304    0.00304    0.01029
HKLF 4
 
REM  1 in P6522 #179
REM R1 =  0.1315 for    3156 Fo > 4sig(Fo)  and  0.1396 for all    3351 data
REM    258 parameters refined using      0 restraints
 
END  
     
WGHT      0.2000      0.0000 

REM Highest difference peak  1.913,  deepest hole -2.002,  1-sigma level  0.338
Q1    1   0.2806  0.7210  0.0260  11.00000  0.05    1.91
Q2    1   0.4527  0.9661 -0.4714  11.00000  0.05    1.62
Q3    1   0.4923  0.9906 -0.0471  11.00000  0.05    1.53
Q4    1   0.4578  0.9430  0.0510  11.00000  0.05    0.96
Q5    1   0.0128  0.4972 -0.1282  11.00000  0.05    0.94
Q6    1   0.4583  0.9685 -0.3715  11.00000  0.05    0.94
Q7    1   0.3617  0.6634 -0.1416  11.00000  0.05    0.92
Q8    1   0.4464  0.9422 -0.1345  11.00000  0.05    0.86
Q9    1   0.4296  0.9601 -0.0138  11.00000  0.05    0.84
Q10   1   0.4587  1.0294 -0.4370  11.00000  0.05    0.81
Q11   1   0.0000  0.0445  0.1667  10.50000  0.05    0.79
Q12   1   0.4437  0.9074 -0.0602  11.00000  0.05    0.78
Q13   1   0.4329  0.9956 -0.2073  11.00000  0.05    0.78
Q14   1   0.2166  0.6010  0.0617  11.00000  0.05    0.76
Q15   1   0.3273  0.8330  0.0679  11.00000  0.05    0.75
Q16   1   0.3701  0.7718 -0.1627  11.00000  0.05    0.75
Q17   1   0.1921  0.5031  0.0814  11.00000  0.05    0.75
Q18   1   0.4564  0.9452 -0.2471  11.00000  0.05    0.74
Q19   1   0.3516  0.8600 -0.3336  11.00000  0.05    0.73
Q20   1   0.1754  0.4973 -0.0179  11.00000  0.05    0.73

  REM The information below was added by Olex2.
  REM
  REM R1 = 0.1315 for 3156 Fo > 4sig(Fo) and 0.1396 for all 30193 data
  REM n/a parameters refined using n/a restraints
  REM Highest difference peak 1.91, deepest hole -2.00
  REM Mean Shift 0, Max Shift 0.000.

  REM +++ Tabular Listing of Refinement Information +++
  REM R1_all = 0.1396
  REM R1_gt = 0.1315
  REM wR_ref = 0.3335
  REM GOOF = 1.655
  REM Shift_max = 0.000
  REM Shift_mean = 0
  REM Reflections_all = 30193
  REM Reflections_gt = 3156
  REM Parameters = n/a
  REM Hole = -2.00
  REM Peak = 1.91
  REM Flack = -0.044(12)

  
;
_cod_data_source_file            Zn0.37Mn0.28Co0.13Ca0.22(hfipbb).cif
_cod_data_source_block           1
_cod_original_cell_volume        6009.8(12)
_cod_database_code               4128062
_shelx_shelxl_version_number     2014/7
_shelx_space_group_comment
;
The symmetry employed for this shelxl refinement is uniquely defined
by the following loop, which should always be used as a source of
symmetry information in preference to the above space-group names.
They are only intended as comments.
;
_olex2_refinement_description
;
1. Fixed Uiso
 At 1.2 times of:
  All C(H) groups
2. Uiso/Uaniso restraints and constraints
Uanis(Mn2) = Uanis(Ca2)
Uanis(Zn1) = Uanis(Co1)
3. Others
 Sof(Ca2)=0.5*(1-FVAR(2))
 Sof(Mn2)=0.5*FVAR(2)
 Sof(Co1)=0.5*(1-FVAR(3))
 Sof(Zn1)=0.5*FVAR(3)
4.a Aromatic/amide H refined with riding coordinates:
 C8(H8), C12(H12), C18(H18), C19(H19), C22(H22), C23(H23), C25(H25), C27(H27)
;
_olex2_submission_special_instructions 'No special instructions were received'
loop_
_space_group_symop_operation_xyz
'x, y, z'
'x-y, x, z+5/6'
'-y, x-y, z+2/3'
'-x, -y, z+1/2'
'-x+y, -x, z+1/3'
'y, -x+y, z+1/6'
'x-y, -y, -z'
'-x, -x+y, -z+1/3'
'y, x, -z+2/3'
'-y, -x, -z+1/6'
'-x+y, y, -z+1/2'
'x, x-y, -z+5/6'
loop_
_atom_site_label
_atom_site_type_symbol
_atom_site_fract_x
_atom_site_fract_y
_atom_site_fract_z
_atom_site_U_iso_or_equiv
_atom_site_adp_type
_atom_site_occupancy
_atom_site_site_symmetry_order
_atom_site_calc_flag
_atom_site_refinement_flags_posn
_atom_site_refinement_flags_adp
_atom_site_refinement_flags_occupancy
_atom_site_disorder_assembly
_atom_site_disorder_group
Zn1 Zn 0.2819(2) 0.7181(2) 0.0833 0.0173(8) Uani 0.77(3) 2 d S T P A 1
Mn2 Mn 0.3515(18) 0.6758(9) -0.0833 0.0146(12) Uani 0.57(5) 2 d S T P A .
O1 O 0.2555(4) 0.6260(4) 0.0220(4) 0.0202(15) Uani 1 1 d . . . . .
O2 O 0.4247(4) 0.7353(4) 0.0230(5) 0.0286(18) Uani 1 1 d . . . . .
O3 O 0.3420(5) 0.7704(4) -0.1046(6) 0.039(2) Uani 1 1 d . . . . .
F4 F 0.0959(5) 0.2965(6) -0.1779(8) 0.067(3) Uani 1 1 d . . . . .
C5 C 0.3182(7) 0.8046(6) -0.0685(9) 0.033(3) Uani 1 1 d . . . . .
F6 F 0.0161(7) 0.1876(6) -0.1404(9) 0.084(4) Uani 1 1 d . . . . .
O7 O 0.2980(6) 0.7983(5) 0.0080(6) 0.044(2) Uani 1 1 d . . . . .
C8 C 0.1040(7) 0.4221(7) -0.0762(8) 0.035(3) Uani 1 1 d . . . . .
H8 H 0.0855 0.4170 -0.1324 0.042 Uiso 1 1 calc R . . . .
F9 F -0.0487(6) 0.2628(7) 0.0696(7) 0.072(3) Uani 1 1 d . . . . .
C10 C 0.2397(5) 0.5704(5) 0.0708(6) 0.019(2) Uani 1 1 d . . . . .
F11 F 0.1106(6) 0.2524(6) -0.0614(9) 0.088(5) Uani 1 1 d . . . . .
C12 C 0.1625(7) 0.4350(7) 0.0872(9) 0.037(3) Uani 1 1 d . . . . .
H12 H 0.1834 0.4394 0.1419 0.044 Uiso 1 1 calc R . . . .
F13 F 0.0097(7) 0.2061(5) 0.0566(8) 0.086(4) Uani 1 1 d . . . . .
C14 C 0.0198(7) 0.2863(7) -0.0610(10) 0.041(3) Uani 1 1 d . . . . .
C15 C 0.3144(7) 0.8639(6) -0.1188(8) 0.030(2) Uani 1 1 d . . . . .
C16 C 0.1854(6) 0.4970(5) 0.0349(6) 0.022(2) Uani 1 1 d . . . . .
F17 F -0.0847(6) 0.1752(6) -0.0237(8) 0.085(4) Uani 1 1 d . . . . .
C18 C 0.3323(7) 0.9330(6) -0.2496(8) 0.033(3) Uani 1 1 d . . . . .
H18 H 0.3500 0.9444 -0.3064 0.040 Uiso 1 1 calc R . . . .
C19 C 0.1115(7) 0.3699(7) 0.0596(9) 0.038(3) Uani 1 1 d . . . . .
H19 H 0.0974 0.3296 0.0951 0.046 Uiso 1 1 calc R . . . .
C20 C 0.0612(9) 0.2550(9) -0.1129(16) 0.064(6) Uani 1 1 d . . . . .
C22 C 0.2821(7) 0.9012(7) -0.0809(8) 0.034(3) Uani 1 1 d . . . . .
H22 H 0.2672 0.8924 -0.0229 0.041 Uiso 1 1 calc R . . . .
C23 C 0.1557(6) 0.4888(6) -0.0471(7) 0.028(2) Uani 1 1 d . . . . .
H23 H 0.1709 0.5292 -0.0829 0.034 Uiso 1 1 calc R . . . .
C24 C -0.0255(9) 0.2324(8) 0.0096(13) 0.062(6) Uani 1 1 d . . . . .
C25 C 0.3405(7) 0.8818(7) -0.2015(9) 0.037(3) Uani 1 1 d . . . . .
H25 H 0.3642 0.8595 -0.2265 0.044 Uiso 1 1 calc R . . . .
C26 C 0.0788(6) 0.3612(6) -0.0217(9) 0.033(3) Uani 1 1 d . . . . .
C27 C 0.2724(7) 0.9501(7) -0.1285(9) 0.038(3) Uani 1 1 d . . . . .
H27 H 0.2485 0.9721 -0.1037 0.046 Uiso 1 1 calc R . . . .
C28 C -0.0332(7) 0.2977(7) -0.1214(9) 0.034(3) Uani 1 1 d . . . . .
Ca2 Ca 0.348(3) 0.6741(15) -0.0833 0.0146(12) Uani 0.43(5) 2 d S T P A 2
Co1 Co 0.2813(10) 0.7187(10) 0.0833 0.0173(8) Uani 0.23(3) 2 d S T P A 2
loop_
_atom_site_aniso_label
_atom_site_aniso_U_11
_atom_site_aniso_U_22
_atom_site_aniso_U_33
_atom_site_aniso_U_23
_atom_site_aniso_U_13
_atom_site_aniso_U_12
Zn1 0.0165(10) 0.0165(10) 0.0215(10) 0.0030(6) 0.0030(6) 0.0103(9)
Mn2 0.014(3) 0.0097(12) 0.0214(13) -0.0040(7) 0.000 0.0070(14)
O1 0.017(3) 0.013(3) 0.025(3) 0.000(3) 0.003(3) 0.004(3)
O2 0.020(4) 0.028(4) 0.032(4) -0.009(3) -0.010(3) 0.007(3)
O3 0.041(5) 0.018(4) 0.063(5) 0.006(4) -0.001(4) 0.018(4)
F4 0.043(5) 0.065(7) 0.104(8) -0.032(6) -0.018(6) 0.037(5)
C5 0.022(5) 0.016(5) 0.056(7) 0.002(5) -0.008(5) 0.006(5)
F6 0.070(7) 0.040(5) 0.155(11) -0.047(7) -0.065(8) 0.037(5)
O7 0.063(7) 0.037(5) 0.042(4) 0.017(4) 0.003(4) 0.032(5)
C8 0.030(6) 0.026(6) 0.047(7) 0.008(5) -0.011(6) 0.012(5)
F9 0.054(6) 0.064(7) 0.065(6) 0.023(6) -0.008(5) 0.005(5)
C10 0.012(4) 0.018(5) 0.029(5) -0.007(4) -0.005(4) 0.009(4)
F11 0.059(6) 0.062(7) 0.158(13) -0.033(7) -0.069(8) 0.043(5)
C12 0.034(7) 0.025(6) 0.046(6) 0.016(5) -0.004(5) 0.010(5)
F13 0.073(7) 0.030(4) 0.121(9) 0.020(5) -0.065(7) 0.000(5)
C14 0.030(7) 0.025(6) 0.065(8) 0.001(6) -0.020(6) 0.011(6)
C15 0.024(6) 0.011(5) 0.047(6) 0.004(5) -0.002(5) 0.003(4)
C16 0.020(5) 0.010(5) 0.030(5) 0.004(4) -0.004(4) 0.004(4)
F17 0.051(6) 0.035(5) 0.112(9) 0.012(5) -0.043(6) -0.020(4)
C18 0.034(6) 0.023(6) 0.034(6) 0.011(5) -0.001(5) 0.008(5)
C19 0.030(7) 0.026(6) 0.056(7) 0.013(5) -0.008(6) 0.013(5)
C20 0.039(9) 0.034(8) 0.125(16) -0.029(10) -0.053(10) 0.022(7)
C22 0.036(7) 0.026(6) 0.038(6) 0.013(5) 0.012(5) 0.013(5)
C23 0.018(5) 0.023(6) 0.034(5) 0.004(4) -0.009(4) 0.003(5)
C24 0.046(9) 0.019(7) 0.082(12) 0.017(7) -0.036(9) -0.014(6)
C25 0.035(7) 0.017(5) 0.055(7) 0.002(5) 0.006(6) 0.010(5)
C26 0.016(5) 0.016(6) 0.061(7) 0.011(5) -0.009(5) 0.004(5)
C27 0.022(6) 0.026(7) 0.059(7) 0.005(6) 0.006(6) 0.006(5)
C28 0.019(6) 0.017(5) 0.053(7) 0.002(5) -0.016(5) -0.001(5)
Ca2 0.014(3) 0.0097(12) 0.0214(13) -0.0040(7) 0.000 0.0070(14)
Co1 0.0165(10) 0.0165(10) 0.0215(10) 0.0030(6) 0.0030(6) 0.0103(9)
loop_
_atom_type_symbol
_atom_type_description
_atom_type_scat_dispersion_real
_atom_type_scat_dispersion_imag
_atom_type_scat_source
C C 0.0181 0.0091 'International Tables Vol C Tables 4.2.6.8 and 6.1.1.4'
H H 0.0000 0.0000 'International Tables Vol C Tables 4.2.6.8 and 6.1.1.4'
Ca Ca 0.3641 1.2855 'International Tables Vol C Tables 4.2.6.8 and 6.1.1.4'
Co Co -2.3653 3.6143 'International Tables Vol C Tables 4.2.6.8 and 6.1.1.4'
F F 0.0727 0.0534 'International Tables Vol C Tables 4.2.6.8 and 6.1.1.4'
Mn Mn -0.5299 2.8052 'International Tables Vol C Tables 4.2.6.8 and 6.1.1.4'
O O 0.0492 0.0322 'International Tables Vol C Tables 4.2.6.8 and 6.1.1.4'
Zn Zn -1.5491 0.6778 'International Tables Vol C Tables 4.2.6.8 and 6.1.1.4'
loop_
_geom_angle_atom_site_label_1
_geom_angle_atom_site_label_2
_geom_angle_atom_site_label_3
_geom_angle
_geom_angle_site_symmetry_1
_geom_angle_site_symmetry_3
O1 Zn1 O1 104.8(6) . 10_665
O7 Zn1 O1 115.1(4) . .
O7 Zn1 O1 108.5(4) 10_665 .
O7 Zn1 O1 115.1(4) 10_665 10_665
O7 Zn1 O1 108.5(4) . 10_665
O7 Zn1 O7 105.1(7) . 10_665
O1 Mn2 O1 84.7(11) . 12_564
O2 Mn2 O1 87.5(3) . .
O2 Mn2 O1 87.5(3) 12_564 12_564
O2 Mn2 O1 164.0(7) 12_564 .
O2 Mn2 O1 164.0(7) . 12_564
O2 Mn2 O2 103.2(14) . 12_564
O3 Mn2 O1 79.8(7) . 12_564
O3 Mn2 O1 93.2(8) 12_564 12_564
O3 Mn2 O1 79.8(7) 12_564 .
O3 Mn2 O1 93.2(8) . .
O3 Mn2 O2 86.7(6) . .
O3 Mn2 O2 99.1(7) . 12_564
O3 Mn2 O2 99.1(6) 12_564 .
O3 Mn2 O2 86.7(6) 12_564 12_564
O3 Mn2 O3 170.6(18) . 12_564
Zn1 O1 Mn2 97.2(4) . .
C10 O1 Zn1 116.5(6) . .
C10 O1 Mn2 124.5(6) . .
C10 O1 Ca2 124.8(7) . .
C10 O1 Co1 116.7(7) . .
Ca2 O1 Mn2 1.0(14) . .
Co1 O1 Mn2 97.3(5) . .
Co1 O1 Ca2 97.8(6) . .
Mn2 O2 Ca2 1.2(17) . .
C10 O2 Mn2 145.4(10) 10_665 .
C10 O2 Ca2 144.2(13) 10_665 .
C5 O3 Mn2 139.5(10) . .
C5 O3 Ca2 138.7(11) . .
Ca2 O3 Mn2 2(2) . .
O3 C5 O7 126.7(12) . .
O3 C5 C15 118.8(12) . .
O3 C5 Ca2 26.6(7) . .
O7 C5 C15 114.4(12) . .
O7 C5 Ca2 100.7(8) . .
C15 C5 Ca2 144.6(9) . .
C5 O7 Zn1 123.9(9) . .
C5 O7 Co1 124.3(11) . .
C23 C8 C26 120.3(11) . .
O1 C10 C16 116.8(8) . .
O2 C10 O1 123.2(9) 10_665 .
O2 C10 C16 119.9(9) 10_665 .
C19 C12 C16 120.9(12) . .
C20 C14 C26 107.0(10) . .
C20 C14 C28 111.6(12) . .
C24 C14 C20 108.6(15) . .
C24 C14 C26 112.1(12) . .
C24 C14 C28 107.7(11) . .
C28 C14 C26 109.9(10) . .
C22 C15 C5 120.2(11) . .
C25 C15 C5 121.5(12) . .
C25 C15 C22 118.3(11) . .
C12 C16 C10 119.4(10) . .
C23 C16 C10 122.0(9) . .
C23 C16 C12 118.6(10) . .
C28 C18 C25 119.3(11) 9_564 .
C12 C19 C26 121.1(11) . .
F4 C20 F6 110.5(18) . .
F4 C20 F11 106.9(15) . .
F4 C20 C14 110.7(12) . .
F6 C20 F11 107.5(13) . .
F6 C20 C14 111.3(15) . .
F11 C20 C14 109.8(16) . .
C27 C22 C15 120.6(12) . .
C8 C23 C16 120.6(10) . .
F9 C24 C14 111.5(13) . .
F13 C24 F9 104.4(14) . .
F13 C24 C14 114.9(16) . .
F17 C24 F9 107.0(17) . .
F17 C24 F13 107.0(12) . .
F17 C24 C14 111.6(15) . .
C15 C25 C18 121.2(12) . .
C8 C26 C14 116.8(11) . .
C19 C26 C8 118.3(11) . .
C19 C26 C14 124.6(11) . .
C28 C27 C22 120.6(13) 9_564 .
C18 C28 C14 116.1(11) 9_454 .
C27 C28 C14 124.0(13) 9_454 .
C27 C28 C18 119.9(11) 9_454 9_454
O1 Ca2 O1 86.7(18) . 12_564
O1 Ca2 C5 80.7(8) . .
O1 Ca2 C5 84.7(9) 12_564 .
O1 Ca2 C5 84.6(9) . 12_564
O1 Ca2 C5 80.7(8) 12_564 12_564
O1 Ca2 Co1 104.6(16) . 3_664
O1 Ca2 Co1 37.0(3) 12_564 3_664
O1 Ca2 Co1 104.6(16) 12_564 .
O1 Ca2 Co1 37.0(3) . .
O2 Ca2 O1 165.2(10) . 12_564
O2 Ca2 O1 165.2(10) 12_564 .
O2 Ca2 O1 87.8(3) . .
O2 Ca2 O1 87.8(3) 12_564 12_564
O2 Ca2 O2 101(2) . 12_564
O2 Ca2 C5 80.9(4) . .
O2 Ca2 C5 80.9(4) 12_564 12_564
O2 Ca2 C5 112.5(8) . 12_564
O2 Ca2 C5 112.5(8) 12_564 .
O2 Ca2 Co1 63.5(4) . .
O2 Ca2 Co1 157.6(15) 12_564 .
O2 Ca2 Co1 63.5(4) 12_564 3_664
O2 Ca2 Co1 157.6(15) . 3_664
O3 Ca2 O1 80.9(10) . 12_564
O3 Ca2 O1 94.6(12) . .
O3 Ca2 O1 94.6(12) 12_564 12_564
O3 Ca2 O1 80.9(10) 12_564 .
O3 Ca2 O2 98.1(10) 12_564 .
O3 Ca2 O2 85.8(8) . .
O3 Ca2 O2 85.8(9) 12_564 12_564
O3 Ca2 O2 98.1(10) . 12_564
O3 Ca2 O3 174(3) . 12_564
O3 Ca2 C5 14.7(5) 12_564 12_564
O3 Ca2 C5 161.6(17) . 12_564
O3 Ca2 C5 161.6(17) 12_564 .
O3 Ca2 C5 14.6(5) . .
O3 Ca2 Co1 111.1(9) . 3_664
O3 Ca2 Co1 66.4(7) 12_564 3_664
O3 Ca2 Co1 66.4(7) . .
O3 Ca2 Co1 111.1(9) 12_564 .
C5 Ca2 C5 160(2) . 12_564
C5 Ca2 Co1 51.8(6) . .
C5 Ca2 Co1 119.1(10) . 3_664
C5 Ca2 Co1 51.8(6) 12_564 3_664
C5 Ca2 Co1 119.1(10) 12_564 .
Co1 Ca2 Co1 135.9(18) . 3_664
O1 Co1 O1 103.9(17) . 10_665
O1 Co1 Ca2 45.1(8) . .
O1 Co1 Ca2 86.3(13) . 5_565
O1 Co1 Ca2 45.1(8) 10_665 5_565
O1 Co1 Ca2 86.3(13) 10_665 .
O7 Co1 O1 108.5(4) . 10_665
O7 Co1 O1 115.1(4) . .
O7 Co1 O1 108.5(4) 10_665 .
O7 Co1 O1 115.1(4) 10_665 10_665
O7 Co1 O7 106.1(18) 10_665 .
O7 Co1 Ca2 151.5(9) 10_665 .
O7 Co1 Ca2 151.5(9) . 5_565
O7 Co1 Ca2 82.7(5) . .
O7 Co1 Ca2 82.7(5) 10_665 5_565
Ca2 Co1 Ca2 102.6(12) . 5_565
loop_
_geom_bond_atom_site_label_1
_geom_bond_atom_site_label_2
_geom_bond_distance
_geom_bond_site_symmetry_2
Zn1 O1 1.985(9) .
Zn1 O1 1.985(9) 10_665
Zn1 O7 1.943(10) .
Zn1 O7 1.943(10) 10_665
Mn2 O1 2.40(2) .
Mn2 O1 2.40(2) 12_564
Mn2 O2 2.17(2) .
Mn2 O2 2.17(2) 12_564
Mn2 O3 2.148(8) 12_564
Mn2 O3 2.148(8) .
O1 C10 1.295(13) .
O1 Ca2 2.35(4) .
O1 Co1 2.00(2) .
O2 C10 1.219(12) 10_665
O2 Ca2 2.21(4) .
O3 C5 1.209(17) .
O3 Ca2 2.144(8) .
F4 C20 1.29(3) .
C5 O7 1.233(17) .
C5 C15 1.516(15) .
C5 Ca2 3.154(16) .
F6 C20 1.334(18) .
O7 Co1 1.93(2) .
C8 C23 1.365(17) .
C8 C26 1.403(17) .
F9 C24 1.35(2) .
C10 O2 1.219(12) 10_665
C10 C16 1.506(13) .
F11 C20 1.338(17) .
C12 C16 1.408(15) .
C12 C19 1.332(19) .
F13 C24 1.345(18) .
C14 C20 1.56(2) .
C14 C24 1.52(2) .
C14 C26 1.574(17) .
C14 C28 1.569(16) .
C15 C22 1.408(19) .
C15 C25 1.359(17) .
C16 C23 1.379(14) .
F17 C24 1.340(16) .
C18 C25 1.396(18) .
C18 C28 1.39(2) 9_564
C19 C26 1.393(18) .
C22 C27 1.368(19) .
C27 C28 1.363(18) 9_564
C28 C18 1.39(2) 9_454
C28 C27 1.363(18) 9_454
Ca2 O1 2.35(4) 12_564
Ca2 O2 2.21(3) 12_564
Ca2 O3 2.144(8) 12_564
Ca2 C5 3.154(15) 12_564
Ca2 Co1 3.29(3) .
Ca2 Co1 3.29(3) 3_664
Co1 O1 2.00(2) 10_665
Co1 O7 1.93(2) 10_665
Co1 Ca2 3.29(3) 5_565
loop_
_refln_index_h
_refln_index_k
_refln_index_l
_refln_F_squared_meas
_refln_F_squared_sigma
2 -1 0 77.38 5.2
2 -1 0 77.68 5.2
1 1 0 62.88 5.2
1 -2 0 61.43 5.19
-1 2 0 82.28 5.21
2 -2 0 87.84 6.17
-2 2 0 83.78 6.16
2 -3 0 192.24 14.6
3 -2 0 209.14 14.61
-2 3 0 214.57 14.64
-1 3 0 218.29 14.63
1 -3 0 207.53 14.64
3 -1 0 170.45 14.6
-3 1 0 213 14.6
3 -3 0 326.06 23.38
-3 0 0 361.74 23.41
-3 3 0 294.06 23.37
3 -3 0 322.62 23.41
4 -2 0 94.28 7.28
-2 4 0 104.86 7.31
2 -4 0 89.66 7.25
2 -4 0 113.27 7.33
2 -4 0 87.65 7.26
4 -2 0 101.21 7.28
-4 2 0 117.73 7.27
2 2 0 99.52 7.28
4 -1 0 5.33 0.55
4 -1 0 7.22 0.58
4 -3 0 6.49 0.58
-4 1 0 7.41 0.69
3 -4 0 6.55 0.56
3 -4 0 5.55 0.53
4 -3 0 7.21 0.58
-1 4 0 6.26 0.61
-3 4 0 5.49 0.52
-4 3 0 7.64 0.7
-3 -1 0 7.2 0.66
4 -3 0 6.37 0.57
-1 -3 0 6.53 0.61
-1 -3 0 7.41 0.61
3 1 0 6.06 0.56
1 -4 0 5.99 0.53
-4 1 0 6.55 0.55
0 -4 0 420.4 28.27
4 -4 0 389.24 28.26
-4 4 0 408.48 28.22
-4 0 0 414.5 28.27
4 -4 0 342.47 28.23
4 -4 0 394.79 28.23
4 0 0 385.86 28.24
5 -2 0 13.71 1.13
-3 5 0 16.61 1.21
2 -5 0 13.5 1.1
3 -5 0 12.85 1.1
-2 5 0 13.38 1.16
2 3 0 13.19 1.13
-3 5 0 13.23 1.06
-5 3 0 17.36 1.25
3 2 0 14.69 1.14
5 -3 0 15.52 1.14
5 -2 0 15.24 1.15
-3 -2 0 15.98 1.2
3 -5 0 14.25 1.09
5 -3 0 14.51 1.14
-5 2 0 14.95 1.11
2 -5 0 12.54 1.06
-1 -4 0 494.26 31.8
-4 5 0 394.67 31.73
4 -5 0 428.95 31.75
-5 4 0 483.96 31.82
5 -1 0 441.8 31.77
-5 1 0 445.31 31.74
-4 -1 0 489.24 31.8
-1 -4 0 417.05 31.77
1 -5 0 496.07 31.81
-1 5 0 426.6 31.78
-5 4 0 387.52 31.74
5 -4 0 449.63 31.76
5 -4 0 402.03 31.76
-5 1 0 475.63 31.81
4 -5 0 478.97 31.81
4 -5 0 374.28 31.75
-5 5 0 718.96 45.96
5 0 0 543.66 45.89
5 -5 0 633.92 45.93
-5 0 0 691.06 45.94
0 -5 0 658.48 45.93
5 -5 0 538.96 45.88
-5 5 0 667.64 45.87
5 -5 0 668.99 45.89
-6 3 0 396.21 29.04
6 -3 0 374.3 29.06
3 -6 0 352.82 29.02
-3 6 0 379.55 29.1
3 3 0 382.96 29.06
3 -6 0 459.74 29.13
-3 -3 0 451.44 29.11
-6 3 0 450.98 29.13
6 -3 0 397.04 29.07
-4 -2 0 149.12 9.99
4 -6 0 133.47 9.91
-6 4 0 144.32 10
4 -6 0 120.23 9.92
6 -2 0 140.25 9.95
-4 6 0 136.71 10
2 -6 0 131.48 9.93
4 2 0 122.77 9.94
4 -6 0 151.97 10.01
-6 2 0 141.03 9.92
2 -6 0 154.27 10.01
-2 -4 0 142.76 9.98
6 -2 0 136.71 9.95
-6 4 0 154.74 9.93
-6 2 0 145.41 10
-2 -4 0 129.75 9.94
-2 6 0 122.54 9.96
6 -4 0 139.63 9.94
6 -4 0 139.66 9.95
-4 6 0 119.59 9.89
-1 -5 0 48.02 3.51
1 -6 0 48.82 3.54
6 -1 0 47.47 3.47
-6 1 0 46.82 3.44
-1 -5 0 45.11 3.5
6 -1 0 43.12 3.48
-6 5 0 53.6 3.46
6 -5 0 51.07 3.48
-5 -1 0 46.59 3.52
-6 5 0 49.31 3.55
-5 6 0 54.05 3.58
-5 6 0 43.76 3.43
-5 -1 0 39.91 3.42
6 -5 0 50.23 3.5
6 -5 0 40.19 3.46
1 -6 0 42.48 3.45
5 -6 0 48.91 3.46
5 -6 0 49.57 3.54
5 1 0 45.41 3.48
-6 1 0 51.62 3.55
5 -6 0 46.2 3.47
-6 0 0 61.31 4.49
6 0 0 63.95 4.46
6 -6 0 63.42 4.43
-6 0 0 54.24 4.39
0 -6 0 52.17 4.4
0 -6 0 57.1 4.47
-6 6 0 56.72 4.39
6 -6 0 60.82 4.43
6 -6 0 67.32 4.49
-6 6 0 68.55 4.54
-4 -3 0 37.94 2.69
-3 -4 0 36.97 2.68
-4 7 0 33.58 2.67
7 -3 0 34.76 2.62
4 3 0 34.69 2.61
7 -4 0 33.33 2.6
4 -7 0 32.91 2.54
4 -7 0 38.96 2.7
7 -3 0 31.61 2.59
3 -7 0 33.05 2.52
-7 3 0 37.76 2.71
-3 7 0 33.09 2.66
4 -7 0 33.41 2.55
-7 3 0 33.89 2.57
3 -7 0 34.68 2.54
3 -7 0 31.66 2.57
4 -7 0 33.08 2.58
-7 4 0 34.73 2.58
-7 4 0 39.55 2.72
-4 -3 0 33.15 2.52
3 -7 0 37.72 2.69
7 -4 0 33.78 2.61
-2 7 0 4.85 0.68
7 -5 0 5.23 0.55
-2 -5 0 5.01 0.65
-7 2 0 4.93 0.78
2 -7 0 5.25 0.46
5 -7 0 5.34 0.57
7 -5 0 5.73 0.64
2 -7 0 6.27 0.77
2 -7 0 4.59 0.55
7 -2 0 4.2 0.61
7 -5 0 5.42 0.61
-7 5 0 5.36 0.61
-7 2 0 5.34 0.58
-5 -2 0 4.65 0.48
-5 -2 0 4.67 0.75
-2 -5 0 5.33 0.72
5 -7 0 5.85 0.75
-5 7 0 4.78 0.48
7 -2 0 4.75 0.59
5 -7 0 5.45 0.62
-5 7 0 5.66 0.82
-7 5 0 5.27 0.74
5 2 0 4.9 0.59
6 1 0 29.79 2.64
-6 -1 0 34.77 2.71
1 -7 0 33.04 2.54
-7 6 0 38.44 2.76
-7 1 0 34.66 2.6
6 -7 0 37.03 2.62
-7 1 0 34.36 2.7
-1 -6 0 33.43 2.67
-6 -1 0 33.02 2.58
1 -7 0 32.04 2.6
-1 -6 0 32.78 2.61
7 -6 0 36.22 2.67
-6 7 0 37.04 2.76
-6 7 0 32.1 2.58
6 -7 0 39.8 2.73
6 -7 0 36.08 2.65
-1 -6 0 36.65 2.69
7 -1 0 39.21 2.68
-7 6 0 34.9 2.61
7 -6 0 34.18 2.64
7 -1 0 35.6 2.64
7 -6 0 35.12 2.64
1 -7 0 37.19 2.72
7 -7 0 103.99 7.59
-7 0 0 107.71 7.65
7 -7 0 119.08 7.66
0 -7 0 101.28 7.63
7 0 0 106.67 7.6
0 -7 0 88.94 7.55
-7 0 0 99.53 7.54
-7 7 0 112.66 7.69
7 -7 0 107.56 7.58
-7 7 0 96.84 7.54
-8 4 0 214.36 14.51
4 -8 0 193.01 14.47
4 -8 0 183.48 14.5
4 4 0 192.74 14.53
8 -4 0 191.74 14.54
-4 -4 0 212.54 14.59
4 -8 0 217.43 14.61
4 -8 0 213.25 14.49
-4 -4 0 197.26 14.45
-8 4 0 215.48 14.62
8 -4 0 192.05 14.53
-4 8 0 194.62 14.59
-3 8 0 32.55 2.74
-5 -3 0 38.07 2.79
5 -8 0 40.3 2.79
3 -8 0 29.54 2.63
-8 5 0 37.79 2.67
5 -8 0 34.46 2.63
-8 3 0 35.94 2.78
3 -8 0 37.93 2.78
-8 5 0 39.01 2.82
5 -8 0 33.76 2.64
5 -8 0 32.74 2.66
8 -3 0 34.87 2.69
8 -3 0 35.64 2.7
8 -5 0 34.6 2.7
-5 8 0 35.16 2.79
8 -5 0 31.21 2.68
-8 3 0 37.32 2.66
-5 -3 0 37.58 2.61
-3 -5 0 31.54 2.57
3 -8 0 38.43 2.62
-3 -5 0 38.96 2.78
5 3 0 35.61 2.7
2 -8 0 1.03 0.4
8 -2 0 1.36 0.41
8 -6 0 1.35 0.43
-2 -6 0 1.45 0.34
6 -8 0 1.29 0.29
-6 -2 0 1 0.27
-8 6 0 1.26 0.37
6 -8 0 1.53 0.42
-6 8 0 1.78 0.62
6 -8 0 0.98 0.38
-8 2 0 1.65 0.61
8 -6 0 0.77 0.24
-2 -6 0 0.76 0.48
6 -8 0 0.77 0.33
6 2 0 0.69 0.37
8 -2 0 1.11 0.4
2 -8 0 1.09 0.27
-6 8 0 0.72 0.23
2 -8 0 1 0.23
-8 2 0 1.02 0.35
8 -6 0 1.17 0.37
-8 1 0 31.47 2.4
-1 -7 0 30.64 2.5
-7 -1 0 28.41 2.37
7 -8 0 32.47 2.42
8 -1 0 34.24 2.49
-8 1 0 32.96 2.55
1 -8 0 31.14 2.32
1 -8 0 33.87 2.53
7 -8 0 36.35 2.55
-7 8 0 31.72 2.37
-7 8 0 33.55 2.58
8 -1 0 27.46 2.42
8 -7 0 32.87 2.49
8 -7 0 32.81 2.44
-8 7 0 34.49 2.59
-8 7 0 31.85 2.4
-7 -1 0 31.66 2.54
-1 -7 0 29.78 2.48
7 1 0 30.32 2.47
8 -7 0 30.45 2.45
7 -8 0 31.78 2.45
-8 0 0 210.94 15.74
-8 0 0 200.98 15.74
8 -8 0 220.99 15.8
-8 8 0 228.49 15.89
8 0 0 209.4 15.81
0 -8 0 215.49 15.83
8 -8 0 229.05 15.78
-8 0 0 226.1 15.87
8 -8 0 244.24 15.87
-8 8 0 224.65 15.75
0 -8 0 197.1 15.68
-5 9 0 0.95 0.58
5 -9 0 0.48 0.27
5 -9 0 1.05 0.41
-5 -4 0 0.65 0.56
9 -4 0 0.66 0.43
5 -9 0 0.86 0.29
5 -9 0 0.5 0.32
9 -4 0 0.66 0.45
-9 5 0 0.24 0.38
-5 -4 0 0.53 0.23
4 -9 0 0.27 0.15
4 -9 0 0.72 0.4
4 -9 0 0.3 0.24
-4 -5 0 0.53 0.19
9 -5 0 0.8 0.44
-4 9 0 1.54 0.61
5 4 0 0.84 0.41
-9 4 0 1.54 0.39
9 -5 0 1 0.45
-4 -5 0 0.79 0.61
9 -6 0 20.8 1.61
-9 6 0 21.56 1.78
9 -3 0 19.98 1.64
-3 -6 0 19.97 1.7
6 -9 0 18.77 1.68
9 -3 0 21.03 1.63
-9 6 0 19.72 1.54
3 -9 0 19.47 1.71
-6 -3 0 19.22 1.46
-3 9 0 18.09 1.67
-9 3 0 18.95 1.53
-6 9 0 15.09 1.69
6 -9 0 17.71 1.51
9 -6 0 17.71 1.55
3 -9 0 19.42 1.46
6 -9 0 18.77 1.5
6 3 0 18.85 1.61
-3 -6 0 17.02 1.39
-6 -3 0 20.2 1.73
-9 3 0 17.99 1.73
9 -2 0 0.68 0.44
-7 -2 0 0.87 0.21
2 -9 0 1.33 0.49
7 -9 0 1.35 0.48
-2 -7 0 1.96 0.61
7 -9 0 1.33 0.4
-7 9 0 1.82 0.72
7 -9 0 1.26 0.43
-2 -7 0 0.95 0.31
-7 -2 0 2.07 0.69
9 -7 0 1.71 0.51
2 -9 0 1.68 0.28
-7 -2 0 1.14 0.33
-7 9 0 0.99 0.28
-9 2 0 2.03 0.72
-9 7 0 2.51 0.77
-2 -7 0 1.55 0.17
7 2 0 1.36 0.45
9 -7 0 1.57 0.46
-9 7 0 0.75 0.4
-8 -1 0 0.24 0.25
8 -9 0 0.41 0.42
9 -1 0 0.91 0.49
-9 8 0 -0.07 0.67
8 -9 0 0.43 0.41
-9 8 0 1.22 0.41
9 -8 0 0.98 0.47
9 -1 0 0.4 0.33
-8 -1 0 0.36 0.3
-9 1 0 0.1 0.66
-9 1 0 0.24 0.38
1 -9 0 0.04 0.18
9 -8 0 0.71 0.33
8 -9 0 0.99 0.45
-9 1 0 0.4 0.3
8 1 0 0.53 0.48
-1 -8 0 0.44 0.56
-1 -8 0 0.46 0.13
-1 -8 0 0.12 0.22
8 -9 0 0.53 0.28
9 -8 0 0.65 0.48
-8 9 0 0.07 0.31
1 -9 0 0.72 0.21
-8 9 0 0.35 0.59
-8 -1 0 0.17 0.65
1 -9 0 -0.02 0.43
-1 -8 0 0.24 0.38
0 -9 0 2.27 0.67
-9 0 0 1.92 0.39
0 -9 0 2.16 0.32
-9 9 0 3.01 0.47
0 -9 0 2.27 0.54
-9 0 0 3.86 0.86
9 -9 0 2.45 0.57
-9 9 0 4.05 0.89
9 -9 0 3.4 0.81
-9 0 0 1.98 0.42
5 -10 0 509.72 34.24
5 -10 0 469.19 34.36
-10 5 0 494.3 34.39
-5 -5 0 461.95 34.19
-5 -5 0 471.05 34.36
-10 5 0 480.8 34.26
-5 10 0 470.18 34.38
10 -5 0 451.59 34.3
10 -5 0 484.7 34.31
6 -10 0 29.04 2.35
10 -6 0 30.38 2.48
10 -6 0 29.09 2.45
10 -4 0 32.1 2.51
6 -10 0 36.88 2.62
-6 -4 0 30.85 2.32
4 -10 0 32.26 2.58
-4 -6 0 29.67 2.28
4 -10 0 32.58 2.35
10 -4 0 33.32 2.5
-10 6 0 33.33 2.65
-10 4 0 29.88 2.41
6 4 0 28.8 2.47
-4 -6 0 31.07 2.57
-6 -4 0 31.71 2.59
-6 10 0 32.69 2.61
6 -10 0 29.57 2.38
-10 4 0 31.35 2.63
-4 10 0 29.3 2.58
-10 6 0 32.95 2.42
-10 3 0 10.45 1.04
-10 3 0 11.47 1.36
-3 -7 0 10.43 1.24
-7 -3 0 10.29 1.28
-7 -3 0 10.61 0.93
-10 7 0 10.99 1.3
-7 10 0 8.91 1.29
-3 -7 0 9.86 0.8
10 -7 0 10.89 1.13
-3 -7 0 9.74 0.8
7 3 0 11.5 1.16
10 -7 0 10.92 1.15
7 -10 0 10.85 1.25
7 -10 0 9.87 0.99
3 -10 0 11.22 0.91
3 -10 0 10.09 1.29
10 -3 0 9.42 1.11
-10 7 0 10.64 1.05
10 -3 0 12.31 1.15
-8 -2 0 13.28 1.44
2 -10 0 13.56 1
10 -2 0 10.82 1.15
10 -2 0 13.57 1.28
8 -10 0 10.55 1.15
8 -10 0 14.49 1.39
-10 8 0 12.5 1.49
10 -8 0 13.18 1.28
8 -10 0 12.66 1.15
-10 2 0 12.82 1.46
2 -10 0 12.13 1.38
-10 8 0 10.71 1.12
8 2 0 12.3 1.29
-2 -8 0 12.28 0.92
8 -10 0 11.34 1.15
-8 -2 0 12.22 1.05
-2 -8 0 11.46 1.31
10 -8 0 12.8 1.25
-8 10 0 12.88 1.42
-10 2 0 11.21 1.16
9 -10 0 48.23 3.43
-10 1 0 44.62 3.38
10 -9 0 52.03 3.47
-10 1 0 49.19 3.62
9 -10 0 50.92 3.57
-1 -9 0 40.23 3.26
9 -10 0 45.73 3.45
-9 10 0 43.02 3.34
9 1 0 45.15 3.49
-9 -1 0 43.56 3.36
-10 1 0 45.11 3.38
-1 -9 0 40.99 3.51
1 -10 0 44.13 3.55
-9 -1 0 46.86 3.6
-1 -9 0 39.76 3.46
-10 9 0 45.94 3.63
10 -9 0 46.36 3.47
-9 10 0 43.17 3.61
10 -1 0 50.28 3.52
-10 9 0 46.77 3.38
1 -10 0 45.59 3.29
9 -10 0 38.19 3.38
0 -10 0 18.43 1.41
-10 0 0 19.11 1.55
10 -10 0 16.31 1.68
10 0 0 19.69 1.77
0 -10 0 19.33 1.78
-10 0 0 19.51 1.88
-10 10 0 19.86 1.54
-10 10 0 18.13 1.89
0 -10 0 18.03 1.74
10 -10 0 20.02 1.69
11 -6 0 5.46 0.86
-11 5 0 5.22 1.03
-5 11 0 6.71 1.16
-11 5 0 5.7 0.88
-6 11 0 5.53 1.15
5 -11 0 7.29 1.17
-11 6 0 7.7 1.18
5 -11 0 6.04 0.71
11 -6 0 5.14 0.97
-6 -5 0 5.2 1
6 -11 0 5.88 0.72
11 -5 0 6.61 0.99
-11 6 0 5.2 0.87
11 -5 0 5.08 1
-6 -5 0 5.15 0.58
-5 -6 0 5.02 0.55
-5 -6 0 5.35 1
-11 4 0 168.15 12.01
-11 7 0 177.66 12.02
7 4 0 145.79 12.06
-4 -7 0 167.94 12.13
-7 -4 0 163.74 11.95
-11 7 0 182.06 12.22
-4 -7 0 160.23 11.91
4 -11 0 170.07 11.96
11 -4 0 163.68 12.07
7 -11 0 159.4 12.14
-11 4 0 161.35 12.16
4 -11 0 169.65 12.14
-7 11 0 173.53 12.2
11 -7 0 172.8 12.08
11 -7 0 157.85 12.05
-7 -4 0 152.43 12.12
11 -4 0 175.19 12.1
11 -8 0 22.18 1.81
-11 8 0 22.57 2.1
-11 8 0 20.07 1.73
8 3 0 20.63 1.84
-11 3 0 19.86 1.74
-3 -8 0 20.05 1.55
-8 -3 0 20.51 1.64
-11 3 0 21.45 2.05
3 -11 0 22.75 1.63
3 -11 0 20.92 1.97
8 -11 0 19.88 1.7
11 -8 0 22.8 1.88
8 -11 0 23.71 1.98
-3 -8 0 18.77 1.92
-8 11 0 19.21 1.99
-8 -3 0 20.39 2
11 -3 0 22.63 1.92
11 -3 0 19.25 1.78
9 -11 0 79.88 5.96
-2 -9 0 69.69 5.81
2 -11 0 81.02 5.85
11 -9 0 90.24 6.02
-11 2 0 85.12 6.16
11 -9 0 82.7 6.03
-9 -2 0 85.01 6.14
-9 -2 0 72.15 5.89
2 -11 0 79.45 6.09
-11 2 0 84.28 5.95
-11 9 0 79.51 6.17
-2 -9 0 70.89 6.05
-11 9 0 78.14 5.94
-9 11 0 81.38 6.15
9 -11 0 82.03 5.95
9 2 0 88.22 6.07
9 -11 0 87.06 6.11
-11 10 0 137.32 9.66
1 -11 0 135.09 9.58
10 -11 0 138.52 9.7
-11 1 0 137.85 9.86
-1 -10 0 134.04 9.78
1 -11 0 127.01 9.78
-11 1 0 135.2 9.67
-10 -1 0 128.94 9.64
1 -11 0 127.7 9.78
-10 -1 0 141.05 9.86
11 -1 0 146.91 9.8
-11 1 0 117.39 9.64
-11 10 0 124.19 9.86
-10 11 0 137.89 9.88
-1 -10 0 123.39 9.56
11 -10 0 139.51 9.73
11 -10 0 131.18 9.74
11 0 0 77.8 5.69
0 -11 0 75.29 5.43
-11 11 0 66.44 5.75
11 -11 0 83.7 5.61
-11 0 0 75.68 5.54
0 -11 0 71.05 5.66
-11 0 0 75.56 5.77
-6 -6 0 237.38 18.15
6 -12 0 242.72 17.99
-12 6 0 268.9 18.04
-6 -6 0 244.93 17.94
-12 6 0 248.23 18.2
12 -6 0 228.18 18.08
6 -12 0 278.81 18.2
12 -6 0 240.78 18.09
-6 12 0 258.81 18.23
-12 5 0 40.41 3.39
-7 -5 0 37.76 3.32
-5 -7 0 38.81 2.97
-7 12 0 41.63 3.39
5 -12 0 42.43 3.34
12 -5 0 41.26 3.26
5 -12 0 40.31 3.04
-12 7 0 43.17 3.43
-12 7 0 43.23 3.14
7 -12 0 42.77 3.36
12 -7 0 39.9 3.2
-12 5 0 44.25 3.15
-5 12 0 37.01 3.31
-5 -7 0 38.28 3.3
-7 -5 0 38.96 3
12 -5 0 40.62 3.21
12 -7 0 40.82 3.23
12 -4 0 164.64 10.9
-4 -8 0 141.58 10.66
-8 -4 0 141.68 10.92
-12 8 0 165.53 10.8
12 -8 0 146.75 10.86
-12 4 0 141.55 10.96
4 -12 0 155.3 10.93
8 -12 0 134.15 10.91
-4 -8 0 127.51 10.87
-8 -4 0 145.08 10.71
-8 12 0 161.67 11.02
-12 4 0 157.11 10.79
4 -12 0 149.16 10.71
12 -8 0 147.23 10.84
-9 -3 0 17.84 1.48
-9 -3 0 19.72 1.95
9 -12 0 16.62 1.51
3 -12 0 20.79 1.87
-9 12 0 18.31 1.92
-12 3 0 19.85 1.63
-3 -9 0 16.62 1.77
9 -12 0 20.1 1.63
-12 9 0 18.41 1.59
12 -9 0 18.61 1.73
3 -12 0 18.74 1.45
-3 -9 0 17.02 1.36
-12 3 0 18.27 1.99
-12 9 0 18.16 2.02
9 -12 0 18.24 1.8
9 3 0 17.43 1.69
10 2 0 2.7 0.68
-10 12 0 2.46 0.93
2 -12 0 1.58 0.59
-12 2 0 2.94 0.64
-10 -2 0 2.52 0.47
12 -10 0 3.67 0.72
10 -12 0 2.64 0.59
10 -12 0 1.39 0.49
-12 10 0 2.13 0.48
12 -2 0 3.36 0.83
-2 -10 0 1.43 0.67
-12 10 0 3.29 1.06
-12 2 0 2.86 1.01
12 -10 0 1.83 0.59
-12 2 0 1.83 0.47
-10 -2 0 1.67 0.88
10 -12 0 2.51 0.54
-12 11 0 14.07 1.73
1 -12 0 14.31 1.12
-11 -1 0 14.14 1.29
-12 1 0 14.32 1.34
-11 -1 0 15.91 1.73
-12 1 0 16.38 1.78
11 1 0 13.74 1.46
12 -1 0 13.04 1.52
11 -12 0 15.37 1.35
-11 12 0 14.13 1.65
1 -12 0 11.42 1.39
0 -12 0 40.7 2.99
-12 0 0 42.01 3.42
12 0 0 40.39 3.29
-12 0 0 45.29 3.16
-12 12 0 36.36 3.38
12 -12 0 40.48 3.17
-6 -7 0 128.32 9.04
-13 6 0 128.18 9.38
13 -7 0 123.79 9.22
-7 -6 0 127.77 9.05
13 -6 0 125.34 9.24
13 -7 0 118.82 9.23
6 -13 0 129.4 9.09
-7 13 0 115.48 9.34
6 -13 0 125.32 9.32
7 -13 0 130.64 9.34
13 -6 0 108.14 9.19
-13 6 0 137.35 9.17
-7 -6 0 113.54 9.27
-13 7 0 138.74 9.17
-13 7 0 128.59 9.39
5 -13 0 318.84 21.77
-13 5 0 295.7 21.79
13 -5 0 332.81 21.72
13 -8 0 282.15 21.67
-13 5 0 288.69 21.6
-8 13 0 260.53 21.78
-13 8 0 338.7 21.86
-8 -5 0 258.73 21.71
-5 -8 0 311.3 21.5
8 -13 0 306.45 21.59
-8 -5 0 318.49 21.53
8 -13 0 261.44 21.72
5 -13 0 320.03 21.55
9 -13 0 11.46 1.46
4 -13 0 13.24 1.1
13 -9 0 11.6 1.35
13 -4 0 14.1 1.49
13 -9 0 14.94 1.45
-13 9 0 11.09 1.21
-9 13 0 11.32 1.51
4 -13 0 11.63 1.58
-13 9 0 12.74 1.76
-9 -4 0 13.35 1.14
-9 -4 0 10.58 1.55
-4 -9 0 11.78 0.99
9 -13 0 14 1.3
-13 4 0 13.57 1.28
-13 4 0 11.19 1.65
3 -13 0 103.77 7.94
10 -13 0 116.1 7.84
13 -3 0 110.02 7.94
-13 3 0 115.67 8.07
3 -13 0 110.33 7.71
-13 10 0 108.9 8.07
-10 -3 0 95.11 7.96
-3 -10 0 96.35 7.66
-10 -3 0 99.47 7.74
13 -10 0 110.23 7.88
-11 -2 0 21.26 1.65
-13 2 0 16.49 1.63
-11 -2 0 17.39 1.91
13 -2 0 20.7 1.86
2 -13 0 22.4 1.54
11 -13 0 19.09 1.7
-13 11 0 17.12 1.99
-13 2 0 22.22 2.09
-12 -1 0 7.8 1.25
-13 1 0 9.46 1.31
13 -1 0 8.88 1.17
-13 12 0 8.51 1.34
13 -12 0 9.73 1.04
-14 7 0 34.04 2.5
7 -14 0 33.06 2.72
-14 7 0 26.42 2.77
-7 -7 0 32 2.32
14 -7 0 27.37 2.56
-14 6 0 62.83 5.32
14 -6 0 68.91 5.44
-6 -8 0 75.39 5.2
-8 -6 0 77.56 5.23
8 -14 0 64.47 5.48
6 -14 0 78.87 5.55
8 -14 0 69.48 5.29
-14 8 0 66.05 5.59
-14 6 0 72.48 5.6
-14 8 0 78.34 5.35
-14 5 0 4.46 1.08
-14 5 0 5.8 0.86
9 -14 0 4.8 0.98
14 -5 0 6.93 1.08
5 -14 0 6.63 1.23
-14 9 0 6.28 1.36
-5 -9 0 6.12 0.63
9 -14 0 6.94 0.96
-14 9 0 6.39 0.88
-9 -5 0 6.84 0.78
14 -9 0 5.91 0.96
14 -10 0 72.92 6.1
4 -14 0 87.28 5.97
-14 10 0 81.17 6.34
10 -14 0 85.14 6.09
14 -4 0 77.67 6.17
-14 4 0 81.62 6.29
-4 -10 0 79.02 5.9
-10 -4 0 89.3 6
-11 -3 0 0.07 0.7
-14 11 0 1.27 0.83
-14 3 0 1.75 0.79
-11 -3 0 2.18 0.49
14 -3 0 1.14 0.58
11 -14 0 2.63 0.62
14 -11 0 2.46 0.61
14 -12 0 7.97 0.99
-14 2 0 10.36 0.95
-14 1 0 0.42 0.39
-13 -1 0 0.82 0.52
1 -14 0 0.8 0.31
-14 0 0 3.76 0.78
-15 8 0 21.51 2.11
-15 7 0 23.57 1.81
7 -15 0 23.36 2.03
8 -15 0 17.49 1.94
-15 9 0 51.5 4
15 -6 0 44.11 3.8
-15 9 0 43.08 3.66
6 -15 0 49.6 3.88
-15 6 0 55.64 3.99
15 -5 0 4.25 0.83
12 -15 0 0.11 0.36
-12 -3 0 -0.09 0.46
-15 0 0 0.58 0.33
8 -16 0 75.82 6.04
-8 -8 0 88.36 5.99
9 -16 0 11.67 1.28
7 -16 0 13.67 1.26
-7 -9 0 11.91 1.1
-9 -7 0 13.3 1.18
6 -16 0 7.11 0.9
-6 -10 0 5.72 0.69
10 -16 0 6.75 0.99
-10 -6 0 6.96 0.88
11 -16 0 12.61 1.4
-11 -5 0 16.52 1.4
5 -16 0 14.6 1.31
-12 -4 0 0.27 0.5
12 -16 0 -0.04 0.36
4 -16 0 0.43 0.42
-13 -3 0 8.37 1.04
3 -16 0 8.06 0.85
-16 1 0 1.42 0.41
-15 16 0 0.75 0.46
-15 -1 0 0.92 0.33
-15 -1 0 -0.29 0.43
-16 0 0 16.3 1.67
-16 16 0 22.72 1.81
-8 -9 0 5.02 0.71
8 -17 0 5.03 0.88
-9 -8 0 5.68 0.81
9 -17 0 4.25 0.88
-7 -10 0 0.96 0.36
10 -17 0 1.06 0.55
7 -17 0 1.3 0.55
-10 -7 0 1.19 0.52
-17 13 0 3.29 0.63
4 -17 0 4.84 0.64
-13 -4 0 4.71 0.83
-13 17 0 3.88 0.66
-17 4 0 4.12 0.63
-14 17 0 3.09 0.47
-14 -3 0 3.06 0.62
-14 17 0 0.15 0.62
3 -17 0 1.81 0.36
-15 17 0 23.84 2.03
-17 16 0 2.55 0.86
-16 -1 0 1.86 0.55
-17 1 0 3.61 0.81
-16 17 0 2.84 0.74
-16 17 0 2.14 0.49
-17 0 0 87.78 6.23
-17 17 0 79.15 6.31
-9 -9 0 22.85 1.73
-9 18 0 21.95 1.95
9 -18 0 21.06 1.84
-18 10 0 35.76 2.76
-10 18 0 32.55 2.68
10 -18 0 28.58 2.58
8 -18 0 36.29 2.62
-8 18 0 32.89 2.64
-7 18 0 2.38 0.53
7 -18 0 3.74 0.76
-18 7 0 2.27 0.5
-11 18 0 2.26 0.57
-11 18 0 2.99 0.49
11 -18 0 1.44 0.44
-18 11 0 3.47 0.6
-18 12 0 1.2 0.7
-12 18 0 1.01 0.54
6 -18 0 0.65 0.44
-12 18 0 0.18 0.43
-12 -6 0 0.55 0.48
-18 12 0 0.67 0.78
-6 18 0 -0.18 0.4
-18 6 0 0.34 0.59
-13 -5 0 1.44 0.45
-18 5 0 3.77 0.83
-18 13 0 1.79 0.75
-18 13 0 3.67 0.89
-13 18 0 3.36 0.67
5 -18 0 1.53 0.35
-14 18 0 4.7 0.75
-18 3 0 0.4 0.86
-15 18 0 0.56 0.63
-18 15 0 -0.53 0.6
-15 -3 0 0.38 0.3
-15 18 0 1.05 0.62
-18 15 0 0.04 0.91
-15 -3 0 -0.05 0.31
-18 2 0 10.86 1.72
-16 18 0 8.37 1.2
-16 18 0 8.82 1.27
-16 -2 0 7.68 1.16
-18 16 0 8.72 1.24
-18 17 0 0.27 0.4
-17 -1 0 0.57 0.72
-18 1 0 1.48 0.82
-18 17 0 0.08 0.93
-17 18 0 1.1 0.66
-17 18 0 0.67 0.95
-18 17 0 -0.38 0.4
-18 18 0 21.5 2.35
-18 18 0 22.87 2
-18 0 0 24.47 2.24
9 -19 0 0.06 0.32
-10 19 0 0.87 0.84
-19 9 0 0.21 0.5
-10 -9 0 0.04 0.22
-19 10 0 0.65 0.64
-19 10 0 -0.42 0.34
-9 19 0 0.56 0.82
10 -19 0 -0.05 0.29
-9 -10 0 -0.08 0.28
-10 19 0 0.65 0.47
-19 9 0 -0.32 0.45
-19 10 0 0.46 0.81
-19 9 0 -0.03 0.67
-9 19 0 0.34 0.39
-11 -8 0 3.16 0.49
8 -19 0 4.06 0.58
-12 19 0 25.11 2.44
-19 7 0 25.99 2.34
-19 12 0 30.07 2.72
-12 19 0 29.06 2.33
-7 19 0 22.04 2.35
-19 12 0 29.26 2.51
-6 19 0 6.38 0.95
-13 19 0 10.33 1.36
-19 13 0 9.42 1.66
-13 19 0 9.14 1.44
-19 14 0 1 0.91
-14 19 0 1.36 0.77
-19 14 0 2.02 1
-5 19 0 0.42 0.51
-14 19 0 0.67 0.5
-14 19 0 1.1 0.66
-19 5 0 1.54 0.92
-19 15 0 27.11 2.71
-19 15 0 30.95 2.66
-15 19 0 24.11 2.37
-19 4 0 32.67 2.66
-15 19 0 25.32 2.39
-19 16 0 4.01 1.02
-19 16 0 3.75 0.96
-16 19 0 4.35 0.98
-16 19 0 3.91 0.75
-16 -3 0 2.72 0.59
-17 -2 0 7.2 1.32
-19 2 0 7.55 1.05
-17 19 0 7.04 1.21
-19 17 0 8.83 1.21
-19 17 0 5.47 0.99
-17 19 0 7.58 1.2
-18 19 0 39.19 3.04
-19 18 0 33.57 2.94
-19 1 0 40.11 3.11
-19 18 0 36.59 3.22
-18 -1 0 41.07 3.11
-18 19 0 39.43 3.31
-19 0 0 0.77 0.69
-19 19 0 0 0.9
-19 19 0 0.47 0.61
-20 10 0 56.55 4.57
-10 20 0 64.05 4.77
-20 10 0 61.99 4.77
-10 20 0 58.36 4.56
-20 10 0 62.21 4.73
-20 11 0 27.05 2.5
-20 9 0 22.84 2.15
-20 11 0 27.88 2.47
-11 20 0 22.36 2.11
-20 9 0 23.64 2.17
-11 20 0 24.35 2.39
-9 20 0 23.89 2.38
-20 9 0 22.09 2.36
-9 20 0 21.71 2.01
-20 11 0 20.47 2
-20 8 0 0.83 0.75
-20 12 0 1.61 0.96
-20 8 0 0.87 0.74
-8 20 0 0.79 0.87
-20 8 0 0.41 0.53
-20 12 0 1.36 0.99
-12 20 0 1.59 0.73
-20 12 0 0.02 0.39
-8 20 0 0.47 0.43
-12 20 0 2.44 0.94
-20 7 0 2.39 0.83
-20 13 0 3.62 1.03
-7 20 0 2.19 0.87
-20 13 0 4.16 1.11
-13 20 0 2.86 0.83
-13 20 0 4.38 1
-14 20 0 1.39 0.93
-20 14 0 2.61 1
-14 20 0 1.96 0.77
-20 14 0 3.32 1.02
-6 20 0 1.47 0.77
-20 6 0 2.28 0.92
-14 20 0 0.71 0.54
-15 20 0 13.43 1.84
-15 20 0 15.17 1.66
-20 5 0 16.78 1.97
-20 15 0 17.06 2.08
-20 15 0 17.49 1.98
-5 20 0 12.58 1.63
-15 20 0 14.35 1.64
-20 4 0 -0.79 0.47
-16 20 0 0.27 0.71
-20 4 0 0.4 0.83
-20 16 0 1.04 0.94
-4 20 0 -0.02 0.49
-16 20 0 -0.49 0.86
-20 16 0 -0.12 0.95
-16 20 0 -0.27 0.54
-16 -4 0 -0.03 0.38
-20 3 0 7.85 1.03
-17 -3 0 9.41 1.25
-20 17 0 10.11 1.77
-20 17 0 9.62 1.75
-20 3 0 11.09 1.61
-17 20 0 9.96 1.35
-17 20 0 9.92 1.72
-18 -2 0 1.12 0.63
-20 2 0 0.01 0.71
-20 18 0 0.13 0.31
-20 2 0 -1.13 0.67
-18 20 0 0.16 0.9
-18 20 0 0.5 0.65
-20 18 0 -0.19 0.68
-20 18 0 1.3 0.9
-19 20 0 32.81 2.52
-20 1 0 32.88 2.55
-19 -1 0 32.08 2.54
-20 1 0 28.82 2.55
-20 19 0 31.29 2.69
-20 19 0 28.3 2.42
-19 20 0 31.48 2.74
-20 20 0 22.78 2.18
-20 20 0 24.54 1.98
-20 0 0 21.5 2.03
-20 0 0 24.37 2
-10 21 0 -0.01 0.69
-10 21 0 -0.18 0.91
-21 11 0 0.48 0.89
-21 11 0 -0.59 0.67
-21 11 0 0.01 0.97
-21 10 0 0.35 0.85
-11 21 0 -0.37 0.68
-21 10 0 -0.05 0.93
-11 21 0 -0.02 0.9
-21 10 0 -0.83 0.69
-21 9 0 0.42 0.79
-12 21 0 0.05 0.69
-21 12 0 0.27 0.93
-9 21 0 -0.81 0.63
-21 9 0 0.46 0.71
-21 9 0 0.46 0.8
-9 21 0 0.13 0.83
-12 21 0 0.52 0.9
-21 12 0 -0.62 0.59
-21 12 0 1.69 0.98
-21 8 0 1.24 0.75
-21 13 0 0.62 0.47
-13 21 0 2.52 0.94
-21 8 0 2.21 0.75
-21 13 0 2.49 0.98
-21 8 0 1.3 0.57
-8 21 0 1.53 0.87
-8 21 0 1.34 0.52
-21 13 0 2.3 1.02
-13 21 0 1.53 0.69
-21 7 0 13.65 1.41
-6 21 0 2.41 0.86
-21 15 0 1.45 0.92
-21 15 0 2.23 0.94
-15 21 0 1.17 0.92
-15 21 0 0.64 0.54
-15 21 0 1.87 0.73
-21 6 0 1.76 0.84
-21 16 0 18.83 2.16
-21 5 0 18.61 1.89
-5 21 0 14.78 1.71
-16 21 0 15.54 1.72
-21 16 0 17.49 1.97
-16 21 0 15.82 1.79
-16 21 0 13.91 1.82
-21 17 0 1.42 0.85
-17 21 0 1.88 0.67
-21 4 0 1.87 0.73
-4 21 0 0.07 0.44
-17 21 0 -0.24 0.44
-17 -4 0 0.9 0.37
-21 4 0 0.39 0.48
-21 17 0 2.17 0.89
-17 21 0 1.81 0.88
-18 21 0 17.4 1.88
-21 18 0 16.59 1.91
-18 21 0 18.18 1.61
-21 3 0 17.47 1.73
-21 3 0 13.53 1.59
-18 -3 0 14.48 1.47
-21 18 0 16.94 1.95
-19 -2 0 8.59 1.05
-21 19 0 5.9 1.12
-19 21 0 9.71 1.16
-21 2 0 6.81 1.11
-21 2 0 10.18 1.29
-21 19 0 6.98 1.04
-19 21 0 8.52 1.4
-20 21 0 0.64 0.54
-20 21 0 1.02 0.7
-21 20 0 0.75 0.69
-21 20 0 0.08 0.26
-21 1 0 0.44 0.51
-20 -1 0 0.89 0.49
-20 -1 0 0.78 0.52
-21 1 0 1.33 0.56
-21 0 0 22.66 1.78
-21 0 0 21.25 1.82
-21 21 0 21.23 1.91
-11 22 0 35.85 2.82
-22 11 0 33.18 3.02
-22 11 0 31.15 2.82
-11 22 0 34 3
-22 11 0 37.17 3.02
-22 12 0 0.3 0.65
-22 10 0 1.93 0.86
-22 12 0 1.93 0.9
-22 12 0 1.42 0.93
-22 10 0 1.02 0.7
-12 22 0 1.43 0.91
-12 22 0 0.56 0.69
-22 10 0 1.61 0.8
-10 22 0 1.49 0.89
-10 22 0 1.44 0.74
-22 9 0 1.56 0.75
-9 22 0 1.11 0.83
-22 9 0 1.37 0.72
-22 13 0 1 0.55
-22 13 0 2 0.92
-9 22 0 1.27 0.63
-13 22 0 1.86 0.69
-22 9 0 1.48 0.65
-22 13 0 3.04 0.96
-13 22 0 2.34 0.93
-22 14 0 -0.09 0.31
-22 14 0 0.47 0.86
-8 22 0 -0.26 0.34
-22 8 0 0.17 0.6
-8 22 0 -0.28 0.83
-14 22 0 0.12 0.9
-14 22 0 0.1 0.64
-22 14 0 0.72 0.9
-22 8 0 -0.12 0.38
-22 8 0 0.41 0.66
-22 15 0 1.83 0.9
-15 22 0 0.02 0.42
-15 22 0 1.42 0.66
-22 7 0 0.76 0.7
-15 22 0 0.99 0.92
-22 15 0 1.28 0.88
-7 22 0 0.72 0.86
-22 6 0 4.85 0.82
-16 22 0 2.98 0.94
-6 22 0 3.72 0.89
-22 16 0 3.48 0.92
-16 22 0 3.76 0.73
-22 16 0 3.02 0.9
-17 -5 0 -0.16 0.2
-22 5 0 -0.41 0.25
-17 22 0 0.2 0.58
-22 17 0 0 0.79
-17 22 0 0.24 0.6
-17 22 0 0.05 0.52
-22 17 0 0.67 0.79
-5 22 0 0.03 0.48
-22 5 0 0.43 0.66
-18 22 0 0.65 0.58
-22 18 0 0.33 0.78
-22 4 0 0.84 0.61
-18 22 0 0.29 0.65
-22 18 0 0.72 0.78
-19 -3 0 0.27 0.55
-19 22 0 1.15 0.55
-22 19 0 -0.34 0.52
-22 19 0 -0.46 0.73
-19 22 0 -0.19 0.6
-19 -3 0 -0.14 0.24
-22 3 0 0.33 0.55
-22 3 0 -0.49 0.35
-22 20 0 7.02 1.17
-22 2 0 8.93 1.02
-20 22 0 8.02 1.13
-20 -2 0 8.67 1.04
-22 2 0 5.43 0.85
-20 22 0 9.65 1.01
-22 1 0 8.74 0.94
-21 -1 0 9.85 1.01
-22 21 0 10.89 1.19
-21 22 0 10.18 1.09
-22 1 0 9.71 0.97
-23 11 0 12.08 1.62
-12 23 0 13.19 1.7
-11 23 0 12.71 1.77
-23 12 0 15.1 1.65
-12 23 0 12.73 1.45
-23 11 0 11.71 1.48
-11 23 0 12.85 1.51
-23 11 0 11.91 1.62
-23 12 0 13.01 1.78
-23 12 0 11.15 1.4
-10 23 0 1.52 0.63
-23 13 0 3.24 0.86
-23 10 0 2.31 0.64
-13 23 0 3.27 0.9
-23 13 0 1.77 0.56
-10 23 0 2.42 0.81
-23 13 0 2.41 0.87
-13 23 0 2.17 0.67
-23 10 0 1.41 0.71
-23 10 0 2.65 0.69
-9 23 0 0 0.36
-23 14 0 0.75 0.82
-23 9 0 0.19 0.33
-14 23 0 0.67 0.61
-23 9 0 0.14 0.61
-23 9 0 0.19 0.63
-23 14 0 1.88 0.84
-9 23 0 0.56 0.8
-14 23 0 1 0.83
-23 14 0 0.3 0.32
-23 15 0 1.68 0.82
-23 8 0 0.88 0.63
-23 15 0 2.06 0.87
-15 23 0 1.17 0.84
-8 23 0 0.7 0.79
-15 23 0 1.45 0.65
-7 23 0 1.94 0.79
-23 16 0 3.88 0.84
-23 7 0 3.11 0.72
-16 23 0 2.35 0.86
-23 16 0 3.44 0.84
-16 23 0 3.59 0.68
-23 17 0 0.84 0.75
-23 17 0 0.72 0.74
-17 23 0 0.89 0.51
-17 23 0 0.8 0.58
-6 23 0 -0.19 0.44
-23 6 0 1.05 0.61
-17 23 0 -0.01 0.49
-18 23 0 1.73 0.58
-23 18 0 1.43 0.72
-23 5 0 1.76 0.58
-18 -5 0 2.8 0.59
-23 18 0 2.24 0.77
-19 -4 0 1.56 0.52
-23 4 0 1.31 0.5
-23 19 0 0.48 0.48
-19 23 0 1.63 0.52
-23 19 0 1.77 0.69
-23 3 0 5.31 0.79
-20 -3 0 5.72 0.84
-20 23 0 4.39 0.74
-23 20 0 5.54 0.76
-12 24 0 0.28 0.56
-24 12 0 0.22 0.47
-24 12 0 1.12 0.61
-24 12 0 0.91 0.65
-12 24 0 0.18 0.81
-24 13 0 0.32 0.37
-13 24 0 0.12 0.57
-24 13 0 0.82 0.67
-11 24 0 0.27 0.45
-24 11 0 0.24 0.53
-11 24 0 0.86 0.81
-24 13 0 1.08 0.7
-13 24 0 0.74 0.77
-24 11 0 0.88 0.62
-24 11 0 0.45 0.36
-14 24 0 0.2 0.55
-10 24 0 -0.05 0.25
-14 24 0 0.99 0.78
-24 14 0 0.25 0.68
-24 10 0 0.33 0.54
-24 14 0 -0.02 0.21
-24 14 0 0.47 0.69
-10 24 0 0.19 0.73
-14 -10 0 0.06 0.24
-24 10 0 0 0.43
-24 10 0 -0.02 0.5
-24 9 0 -0.19 0.24
-9 24 0 -0.96 0.67
-15 24 0 -0.71 0.73
-24 15 0 0.59 0.72
-24 15 0 0.31 0.69
-15 24 0 0.05 0.5
-15 -9 0 0.26 0.42
-24 9 0 -0.18 0.5
-24 16 0 0.28 0.69
-8 24 0 -0.48 0.6
-24 16 0 0.87 0.72
-24 8 0 0.03 0.47
-16 -8 0 0.63 0.5
-16 24 0 0.05 0.65
-16 24 0 0.27 0.55
-24 7 0 0.5 0.53
-7 24 0 0.57 0.36
-17 24 0 0.49 0.52
-24 17 0 0.67 0.69
-24 17 0 0.78 0.66
-17 -7 0 0.6 0.45
-17 24 0 0.83 0.36
-24 6 0 3.31 0.58
-18 24 0 4.32 0.6
-24 18 0 4.04 0.72
-24 18 0 3.06 0.7
-18 -6 0 4.54 0.8
-13 25 0 3.46 0.75
-25 12 0 1.37 0.32
-25 13 0 1.76 0.58
-12 25 0 3.4 0.78
-13 25 0 2.25 0.43
-25 12 0 2.01 0.51
-14 25 0 14.39 1.43
-11 25 0 15.17 1.44
-25 11 0 11.22 1.13
-25 14 0 13.9 1.42
-25 14 0 10.51 1.13
-14 25 0 12.63 1.18
0 0 1 0.52 0.11
0 0 -1 0.38 0.07
0 0 -1 0.53 0.07
1 -1 -1 6.59 0.45
0 -1 1 5.79 0.44
0 1 1 5.25 0.44
-1 0 1 5.09 0.44
1 0 1 6.23 0.45
1 0 1 5.13 0.44
1 -1 1 5.97 0.44
0 -1 1 5.09 0.45
-1 0 -1 5.38 0.43
-1 1 1 5.27 0.44
-1 1 1 6.38 0.43
0 1 -1 6.16 0.43
-1 0 1 6.06 0.45
-1 1 -1 5.49 0.43
-1 0 1 5.98 0.43
1 1 1 86.02 6.31
-1 2 1 77.34 6.29
1 -2 -1 103.06 6.3
-1 -1 1 78.8 6.31
2 -1 -1 94.1 6.31
-1 -1 -1 75.45 6.3
2 -1 1 97.01 6.31
-1 2 -1 100.71 6.3
2 -1 1 77.12 6.31
-2 2 1 4.67 0.43
-2 0 1 4.82 0.4
-2 2 -1 4.88 0.4
0 -2 1 4.26 0.44
-2 0 -1 4.4 0.4
2 -2 -1 5.71 0.43
2 0 -1 5.5 0.42
2 -2 -1 5.13 0.43
2 0 -1 5.74 0.42
0 -2 1 5.71 0.4
-2 0 1 5.57 0.47
2 -2 1 5.06 0.43
2 -2 1 4.62 0.42
0 2 1 5.48 0.44
2 0 1 4.76 0.45
-2 0 -1 5.3 0.44
-3 1 1 141.8 9.54
2 -3 1 129.87 9.54
3 -1 1 133.34 9.55
2 -3 1 123.54 9.56
3 -2 -1 138.07 9.55
-1 -2 1 117.77 9.54
-2 -1 -1 133.66 9.55
-1 3 -1 141.94 9.57
3 -1 1 123.78 9.54
1 -3 -1 130.95 9.55
-2 3 1 146.09 9.57
2 1 1 152.72 10.21
1 -3 1 138.31 10.18
3 -2 1 138.02 10.19
1 -3 1 149.75 10.22
-2 -1 1 151.84 10.22
-2 3 -1 120.75 10.17
2 -3 -1 129.59 10.18
-2 3 -1 154 10.22
-3 2 1 144.87 10.22
-3 1 -1 149.18 10.19
3 -2 1 113.49 10.18
2 -3 -1 150.09 10.2
-3 2 1 151.71 10.19
-3 3 -1 13.15 1.07
3 0 -1 12.86 1
-3 0 1 12.17 0.97
-3 3 1 14.32 1.05
3 -3 1 11.9 1.01
0 -3 1 12.6 1.03
-3 3 -1 12.18 0.98
-3 3 1 14.2 0.98
0 -3 1 11.61 0.95
-3 0 -1 11.8 0.97
3 -3 1 13.03 1
3 0 -1 12.42 0.98
-3 0 1 15.07 1.06
3 0 1 13.33 1.01
3 -3 -1 13.54 1
-3 0 -1 12.77 1.04
0 -3 -1 14.32 1.01
3 -3 -1 12.86 1
-2 4 1 165.23 12.82
-4 2 -1 192.18 12.81
-4 2 1 192.21 12.85
4 -2 -1 175.24 12.82
-2 4 -1 181.04 12.84
4 -2 1 159.88 12.81
2 -4 1 168.1 12.79
2 -4 1 191.4 12.85
2 -4 -1 153.47 12.78
-4 2 1 184.68 12.8
2 -4 -1 176.63 12.82
2 2 1 192.51 12.83
-4 2 -1 189.83 12.85
-2 -2 -1 173.74 12.82
-1 -3 1 32.7 2.48
4 -3 -1 30.77 2.47
-4 3 -1 36.79 2.54
-1 -3 1 36.8 2.52
3 1 -1 30.74 2.46
4 -1 1 32.51 2.48
3 -4 1 34.97 2.51
4 -3 -1 33.11 2.47
-3 4 1 30.91 2.44
-1 4 -1 33.97 2.5
4 -1 1 29.95 2.46
1 -4 -1 34.53 2.48
3 -4 1 32.35 2.45
-3 4 1 35.87 2.52
-4 1 1 33.53 2.45
-4 3 -1 38.58 2.46
4 -3 1 30.16 2.41
-4 3 1 38.01 2.41
-4 1 -1 36 2.47
3 1 1 34.06 2.44
3 -4 -1 31.92 2.4
4 -1 -1 36.24 2.43
1 -4 1 31.18 2.38
-4 3 1 35.06 2.48
-3 4 -1 36.27 2.48
3 -4 -1 30.15 2.41
4 -1 -1 29.18 2.42
-3 4 -1 29.05 2.39
-1 4 1 27.78 2.42
-1 -3 -1 36.84 2.44
1 -4 1 33.36 2.46
4 -3 1 33.9 2.42
4 -3 1 28.62 2.41
-4 1 -1 35.18 2.41
4 0 -1 61.33 4.54
4 -4 -1 60.58 4.54
4 0 1 59.56 4.55
4 -4 -1 66.06 4.54
4 -4 1 54.9 4.52
-4 0 -1 61.11 4.57
-4 4 1 62.11 4.58
0 -4 -1 71.83 4.56
-4 4 -1 69.07 4.6
0 -4 1 63.94 4.57
4 -4 1 60.23 4.56
-4 0 1 55.39 4.51
-4 4 1 60.25 4.52
-4 0 1 67.13 4.59
-4 0 -1 57.3 4.51
-4 4 -1 68.77 4.52
4 -4 1 63.72 4.54
-5 3 -1 76.31 4.95
-3 -2 -1 70.12 4.98
5 -2 1 67.82 4.96
-5 2 1 76.09 5.02
-3 5 1 66.95 4.99
2 -5 -1 63.65 4.96
5 -3 -1 69.83 4.96
-5 2 1 68.85 4.94
-5 3 -1 73.71 5.01
-2 -3 1 58.56 4.95
5 -2 1 62.03 4.96
3 -5 1 65.33 4.93
5 -3 -1 63.61 4.96
3 2 -1 61.24 4.95
-2 -3 1 73.16 5.01
-2 5 -1 75.94 5.01
-5 3 1 85.77 5.61
-2 -3 -1 81.22 5.57
2 -5 1 81.26 5.59
-3 5 -1 66.52 5.5
3 -5 -1 68.3 5.51
-5 2 -1 85.87 5.61
-3 -2 1 85.94 5.6
3 -5 -1 76.46 5.54
5 -2 -1 67.64 5.54
3 2 1 83.4 5.57
2 -5 1 74.73 5.51
-5 2 -1 80.49 5.53
5 -3 1 73.83 5.54
-2 5 1 65.1 5.55
5 -3 1 71.34 5.54
-3 5 -1 79.38 5.59
5 -2 -1 74.76 5.55
-5 3 1 74.77 5.52
4 -5 1 44.68 3.27
-5 1 1 45.28 3.26
1 -5 -1 47.52 3.29
-4 -1 -1 43.48 3.31
-1 -4 1 44.46 3.3
-5 4 -1 46.29 3.35
5 -4 -1 43.89 3.28
5 -4 -1 45.86 3.28
-4 5 1 43.07 3.25
-1 5 -1 43.98 3.32
5 -1 1 42.68 3.29
-4 5 1 47.15 3.35
4 1 -1 40.77 3.28
4 -5 1 43.32 3.32
-1 -4 1 49.01 3.34
-5 1 -1 50.46 3.5
5 -4 1 42.3 3.43
-1 5 1 41.06 3.44
5 -4 1 42.81 3.44
-4 -1 1 50.34 3.5
4 1 1 51.44 3.47
4 -5 -1 43.45 3.42
5 -1 -1 46.3 3.44
5 -4 1 47.36 3.44
5 -1 -1 46.73 3.45
-5 1 -1 48.38 3.42
4 -5 -1 45.66 3.44
-5 4 1 50.48 3.51
-4 5 -1 40.6 3.4
1 -5 1 40.77 3.38
-5 4 1 52.14 3.43
-1 -4 -1 47.59 3.46
1 -5 1 46.45 3.49
-4 5 -1 54.2 3.53
-1 -4 -1 51.74 3.46
-5 0 1 47.86 4
5 0 -1 51.21 3.96
0 -5 -1 60.23 3.99
5 -5 -1 56.89 3.96
-5 5 -1 55.85 3.94
5 -5 -1 56.71 3.98
5 0 1 52.02 3.98
-5 5 1 53.76 3.94
5 0 -1 52.49 3.98
-5 5 -1 62.48 4.06
0 -5 1 55.19 4.01
5 -5 1 51.77 3.96
-5 5 1 55.59 4.03
-5 0 1 49.77 3.93
-5 0 -1 54.35 4.02
5 -5 1 56.45 4.01
5 -5 1 52.22 3.96
-5 0 -1 52.59 3.94
3 -6 1 31.42 2.36
3 3 -1 30.57 2.26
6 -3 1 28.42 2.29
3 -6 -1 33.15 2.29
-3 6 1 29.5 2.31
-3 -3 1 33.94 2.36
3 -6 -1 26.51 2.33
-3 -3 -1 31.19 2.31
3 -6 -1 27.11 2.21
-6 3 1 32.35 2.25
3 -6 1 28.3 2.23
6 -3 -1 30.01 2.28
6 -3 1 28.94 2.28
-3 6 -1 32.88 2.35
-6 3 -1 31 2.27
-6 3 -1 32.54 2.35
6 -3 -1 28.76 2.27
-4 -2 -1 24.6 2
-2 -4 1 28.67 2.04
4 -6 1 29.31 2.05
-4 6 1 22.6 1.88
2 -6 -1 27.24 1.96
6 -4 -1 24.11 1.95
-6 4 -1 28.42 1.95
-6 4 -1 25.88 2.05
6 -2 1 24.01 1.95
-2 -4 1 23.62 1.96
-4 6 1 27.17 2.04
4 -6 1 25.57 1.92
-6 2 1 26.75 1.93
6 -2 1 24.95 1.97
-6 2 1 29.01 2.05
2 -6 -1 22.28 2.02
6 -4 -1 27.58 1.96
4 2 -1 21.74 1.94
-2 6 -1 27.38 2.03
-4 6 -1 28.26 2.35
-4 6 -1 35.15 2.5
-6 2 -1 31.52 2.39
4 -6 -1 26.99 2.46
6 -2 -1 33.23 2.42
-2 6 1 26.63 2.41
2 -6 1 32.82 2.48
4 -6 -1 31.75 2.4
4 -6 -1 32.98 2.37
6 -4 1 33.74 2.42
-2 -4 -1 32.35 2.44
-4 -2 1 36.49 2.5
-6 4 1 34.66 2.39
6 -2 -1 32.85 2.42
-6 2 -1 33.64 2.5
-6 4 1 35.07 2.5
2 -6 1 31.77 2.34
6 -4 1 30.07 2.41
4 2 1 32.41 2.43
-5 6 1 11.85 1.08
-6 1 1 11.52 1.03
-5 -1 -1 10.35 1.03
6 -1 1 10.86 0.99
-6 5 -1 11.58 1.06
-1 -5 1 10.93 0.99
-5 6 1 10.82 0.88
6 -1 1 10.2 0.93
-1 -5 1 11.89 1.04
5 -6 1 9.2 0.9
1 -6 -1 10.67 0.95
5 -6 1 10.74 0.92
6 -5 -1 11.21 0.96
5 -6 1 10.63 1.02
-6 1 1 11.49 0.91
5 1 -1 10.42 0.96
-6 5 -1 12.36 0.93
6 -5 -1 11.84 1.01
6 -5 -1 11.39 0.95
1 -6 -1 11.63 1.06
-6 1 -1 12.04 1.14
6 -1 -1 11.3 1.03
1 -6 1 12.28 1.14
-6 5 1 11.46 1.14
6 -5 1 12.47 1.05
6 -5 1 12.59 1.06
-5 6 -1 15.09 1.22
5 1 1 11.78 1.08
-1 -5 -1 12.74 1.1
-6 1 -1 11.99 1.01
6 -1 -1 14.07 1.09
-1 -5 -1 13.08 1.09
6 -5 1 11.66 1.04
5 -6 -1 13.58 1.02
-5 -1 1 12.17 0.98
5 -6 -1 13.81 1.06
5 -6 -1 14.02 1.15
-5 -1 1 12.93 1.16
-1 -5 -1 12.36 1.06
-5 6 -1 10.9 0.98
1 -6 1 11 0.94
-6 5 1 13.36 1.01
-6 0 -1 19.55 1.64
0 -6 -1 23.23 1.76
-6 6 1 24.03 1.8
6 -6 1 22.27 1.68
-6 0 -1 23.8 1.78
0 -6 -1 22.45 1.69
6 -6 -1 20.5 1.7
0 -6 1 20.36 1.76
6 0 -1 21.24 1.71
-6 6 -1 20.27 1.64
-6 6 -1 24.46 1.8
-6 0 1 23.51 1.78
0 -6 1 18.88 1.58
6 -6 -1 22.5 1.67
6 0 1 21.58 1.7
6 -6 1 20.5 1.73
-6 0 1 20.22 1.64
6 -6 1 20.74 1.67
-6 6 1 23.24 1.65
-7 3 1 92.36 6.26
4 3 -1 82.05 6.17
3 -7 -1 91.05 6.25
4 -7 1 77.8 6.13
7 -3 1 82.23 6.18
7 -4 -1 83.48 6.18
-4 7 1 72 6.21
-3 -4 1 81.6 6.11
3 -7 -1 87.94 6.18
7 -3 1 75.87 6.18
-3 -4 1 87.79 6.24
-7 3 1 86.57 6.15
3 -7 -1 86.74 6.13
-3 7 -1 88.53 6.24
-7 4 -1 90.51 6.16
7 -4 -1 83.7 6.18
4 -7 1 90.94 6.25
-4 -3 -1 91.61 6.22
-4 -3 -1 74.48 6.1
-7 4 -1 90.39 6.26
3 -7 1 101.58 7.28
4 3 1 84.08 7.33
-4 7 -1 101.15 7.4
4 -7 -1 102.05 7.3
4 -7 -1 110.93 7.41
-7 3 -1 106.05 7.32
-3 -4 -1 109.97 7.38
7 -3 -1 100.78 7.34
-3 7 1 90.72 7.36
3 -7 1 97.69 7.29
-7 4 1 104.26 7.31
4 -7 -1 101.53 7.33
-7 3 -1 109.15 7.42
-4 -3 1 97.62 7.28
7 -4 1 97.14 7.33
7 -4 1 97.66 7.34
3 -7 1 102.06 7.4
-4 -3 1 103.41 7.39
-7 4 1 109.93 7.42
4 -7 -1 93.69 7.28
7 -3 -1 101.1 7.34
7 -2 1 76.1 5.34
-2 -5 1 77.8 5.39
-2 -5 1 68.86 5.34
2 -7 -1 79.83 5.41
-5 -2 -1 77.15 5.38
-7 5 -1 70.86 5.4
-5 7 1 75.81 5.41
7 -5 -1 61.11 5.33
-7 2 1 68.39 5.29
-5 7 1 61.73 5.26
7 -5 -1 71.6 5.33
7 -2 1 75.46 5.35
5 -7 1 73.49 5.3
2 -7 -1 70.54 5.26
-2 7 -1 71.25 5.38
2 -7 -1 78.08 5.33
5 -7 1 78.25 5.4
-7 2 1 79.66 5.41
-7 5 -1 82.4 5.31
5 -7 1 61.7 5.29
7 -5 -1 72.55 5.32
-2 -5 1 73.63 5.25
-5 -2 -1 72.67 5.27
7 -2 -1 73.03 5.11
2 -7 1 69.82 5.04
-2 -5 -1 57.95 5.1
-5 -2 1 74.27 5.17
-7 5 1 71.75 5.18
5 -7 -1 65.19 5.09
2 -7 1 72.71 5.17
5 -7 -1 70.52 5.06
-2 7 1 63.18 5.11
7 -5 1 66.14 5.09
-7 2 -1 76.7 5.18
-5 7 -1 63.28 5.04
-5 -2 1 63.53 5.04
5 2 1 66.82 5.11
7 -5 1 74.22 5.11
5 -7 -1 66.41 5.16
7 -2 -1 70.92 5.11
-5 7 -1 76.01 5.19
-7 2 -1 71.3 5.07
-2 -5 -1 76.33 5.14
-7 5 1 74.4 5.07
1 -7 -1 19.08 1.63
-6 -1 -1 22.92 1.84
1 -7 -1 21.72 1.74
-6 -1 -1 22.21 1.69
1 -7 -1 21.6 1.84
7 -6 -1 22.96 1.77
-6 7 1 22.55 1.7
-6 7 1 22.55 1.87
-7 6 -1 23.55 1.86
-7 1 1 23.03 1.84
7 -1 1 19.81 1.73
-1 -6 1 22.01 1.81
7 -6 -1 23.54 1.83
-7 1 1 21.65 1.72
6 -7 1 22.32 1.73
-1 -6 1 24.52 1.84
7 -1 1 24.97 1.81
6 -7 1 22.47 1.83
6 -7 1 22.18 1.73
7 -6 -1 24.17 1.76
-6 -1 -1 18.95 1.68
-1 -6 1 23.58 1.64
-7 6 -1 23.71 1.73
6 1 -1 23.61 1.78
-7 6 1 26.28 1.92
-1 -6 -1 24.95 1.96
7 -1 -1 24.09 1.98
-1 -6 -1 24.83 2.01
-6 7 -1 28 2.08
-7 1 -1 26.01 2.06
-7 6 1 25.66 2.07
7 -6 1 24.31 1.96
7 -1 -1 25.61 1.97
6 -7 -1 25.18 1.94
-1 -6 -1 26.84 2.01
7 -6 1 26.1 1.96
6 -7 -1 27.85 2.06
-6 -1 1 25.24 2.03
6 1 1 25.75 1.97
1 -7 1 25.42 1.87
1 -7 1 25.67 2.05
6 -7 -1 25.68 1.98
-7 1 -1 23.36 1.92
-6 7 -1 23.39 1.89
-6 -1 1 23.04 1.9
7 -6 1 25.39 1.98
-7 0 1 40.35 3.17
-7 0 -1 38.54 3.17
7 -7 -1 44.37 3.21
0 -7 -1 42.13 3.22
-7 7 -1 47.06 3.35
-7 7 -1 40 3.18
-7 7 1 43.27 3.19
7 -7 1 39.89 3.27
-7 7 1 44.48 3.34
7 -7 -1 48.16 3.33
-7 0 -1 44.51 3.31
7 -7 -1 44.68 3.25
7 0 -1 45.19 3.26
7 -7 1 42.67 3.22
-7 0 -1 40.46 3.18
0 -7 -1 42.16 3.3
7 -7 1 42.47 3.2
0 -7 1 44.3 3.3
-7 0 1 45.6 3.32
7 0 1 43.23 3.24
0 -7 1 43.88 3.13
-4 8 1 36.88 3.04
-4 8 -1 42.16 3.09
8 -4 -1 37.67 2.98
8 -4 -1 39.56 3
4 -8 1 42.09 2.94
4 4 -1 35.74 2.96
-8 4 -1 40.43 2.96
4 -8 1 41.56 3.08
8 -4 1 37.88 2.99
4 -8 -1 40.02 3.08
-4 -4 1 40.33 3.06
-4 -4 -1 41.36 3.05
-4 -4 1 39.83 2.89
-4 -4 -1 36.56 2.87
4 -8 -1 41.62 2.99
8 -4 1 39.6 3
-8 4 1 45.03 3.12
4 -8 -1 41.59 2.93
4 -8 1 39.08 2.92
-8 4 -1 40.62 3.09
4 -8 -1 37.18 2.89
-8 4 1 37.28 2.94
-5 -3 -1 11.17 0.91
5 -8 1 10.59 0.97
3 -8 -1 11.3 0.93
-8 5 -1 11.23 1.02
3 -8 -1 12.14 1.21
8 -3 1 10.71 1.07
8 -3 1 11.55 1.07
5 -8 1 11.02 0.97
5 -8 1 12.65 1.18
8 -5 -1 11.38 1.06
-8 3 1 12.11 1.17
-5 8 1 10.41 1.16
-3 8 -1 12.17 1.15
5 3 -1 11.14 1.05
3 -8 -1 12.94 1.06
-5 -3 -1 11.23 1.19
-3 -5 1 12.01 0.89
8 -5 -1 11.26 1.05
-8 5 -1 11.78 1.23
-8 3 1 11.59 1
-3 -5 1 11.16 1.18
-3 -5 -1 16.34 1.4
8 -3 -1 15.67 1.32
5 -8 -1 17.88 1.46
5 -8 -1 15.39 1.22
-5 8 -1 13.53 1.17
-5 -3 1 16.43 1.42
8 -5 1 15.97 1.34
5 -8 -1 16.6 1.33
-8 3 -1 13.77 1.28
-8 5 1 15.36 1.26
8 -3 -1 16.86 1.31
-3 8 1 14.8 1.37
5 3 1 14.24 1.32
3 -8 1 15.78 1.43
-8 5 1 14.84 1.44
-5 8 -1 17.12 1.46
3 -8 1 13.4 1.17
-8 3 -1 16.25 1.48
3 -8 1 16.69 1.23
-5 -3 1 15.24 1.2
8 -5 1 14.68 1.32
-2 -6 1 19.66 1.77
2 -8 -1 21.26 1.63
6 -8 1 21.19 1.84
-6 -2 -1 22.43 1.85
-8 2 1 22.81 1.71
-8 6 -1 23.83 1.73
8 -2 1 21.38 1.77
-2 -6 1 21.93 1.83
2 -8 -1 21.36 1.74
6 2 -1 22.35 1.77
-8 2 1 23.68 1.88
-6 8 1 19.05 1.64
-6 8 1 23.11 1.9
-2 -6 1 23.97 1.62
2 -8 -1 22.57 1.88
-6 -2 -1 22.6 1.67
8 -2 1 21.72 1.8
8 -6 -1 18.51 1.74
6 -8 1 22.98 1.71
8 -6 -1 22.04 1.77
8 -6 -1 22.31 1.75
-8 6 -1 23.66 1.92
2 -8 1 30.27 2.35
8 -6 1 27.44 2.25
8 -6 1 31.66 2.27
-6 -2 1 31.11 2.37
-2 -6 -1 24.02 2.26
6 2 1 27.15 2.25
-2 -6 -1 29.66 2.3
-8 2 -1 30.3 2.37
6 -8 -1 26.65 2.2
-8 6 1 30.96 2.21
-6 8 -1 33.02 2.4
-6 8 -1 27.64 2.17
8 -2 -1 32.33 2.28
-8 2 -1 27.66 2.21
6 -8 -1 28.08 2.2
-6 -2 1 29.92 2.18
-2 -6 -1 26.5 2.25
6 -8 -1 27.35 2.34
6 -8 -1 31.05 2.27
-8 6 1 30.35 2.37
8 -2 -1 30.84 2.27
7 1 -1 10.38 1.01
1 -8 -1 9.96 1.14
1 -8 -1 8.84 0.9
-1 -7 1 9.42 1.04
8 -7 -1 10.5 1.04
-7 -1 -1 8.14 0.79
7 -8 1 9.88 0.9
-1 -7 1 9.94 1.07
-7 8 1 9.31 1.11
8 -1 1 9.09 1
-7 8 1 9.61 0.85
-1 -7 1 9.63 0.74
-7 -1 -1 8.34 0.82
8 -7 -1 9.05 0.97
-8 7 -1 8.87 0.86
-8 7 -1 9.61 1.15
7 -8 1 9.05 0.9
-8 1 1 10.08 0.88
-8 1 1 9.78 1.06
1 -8 -1 9.1 0.73
-7 -1 -1 10.2 1.1
8 -7 -1 10.08 0.94
-1 -7 -1 11.66 1.18
8 -7 1 12.85 1.1
8 -7 1 11.45 1.11
-8 1 -1 11.76 1.25
-1 -7 -1 11.04 1.07
-1 -7 -1 11.81 1.15
-8 7 1 13.79 1.28
-8 1 -1 11.48 1.05
-7 -1 1 9.88 0.97
-8 1 -1 11.14 0.98
1 -8 1 12.62 0.94
7 -8 -1 9.72 0.98
-7 -1 1 10.83 0.98
-7 8 -1 11.08 0.98
7 -8 -1 12.21 1.07
7 1 1 12.91 1.11
-7 -1 1 11.71 1.19
8 -1 -1 12 1.08
8 -1 -1 12.4 1.14
1 -8 1 11.88 1.22
-7 8 -1 13.88 1.26
7 -8 -1 13.04 1.26
-8 7 1 12.22 1.03
7 -8 -1 13.27 1.16
8 -7 1 10.39 1.1
8 0 1 15.15 1.3
-8 0 -1 13.74 1.18
0 -8 1 13.66 1.09
8 -8 1 14.77 1.26
0 -8 1 14 1.36
-8 0 -1 14.32 1.17
8 0 -1 14.17 1.28
-8 0 -1 15.04 1.42
8 -8 -1 14.51 1.24
0 -8 -1 12.78 1.21
-8 8 -1 14.79 1.47
-8 0 1 14.16 1.18
0 -8 -1 13.1 1.3
-8 8 1 14.08 1.18
-8 8 -1 13.41 1.18
-8 0 1 14.79 1.44
0 -8 -1 13.81 1.38
8 -8 1 14.34 1.36
-8 8 1 14.92 1.45
8 -8 -1 15.44 1.31
-8 0 1 11.79 1.16
8 -8 -1 16.07 1.4
8 -8 1 13.72 1.24
-5 9 1 43.97 3.28
-9 5 -1 41.19 3.3
5 -9 1 41.41 3.11
5 4 -1 39.9 3.17
4 -9 -1 42 3.17
4 -9 -1 44.92 3.1
-9 5 -1 41.72 3.15
-4 9 -1 42.11 3.29
-5 -4 -1 42.27 3.26
-4 -5 1 43.48 3.07
4 -9 -1 42.56 3.28
9 -5 -1 39.58 3.17
9 -4 1 41.78 3.2
-4 -5 1 42.61 3.26
-9 4 1 46 3.33
-9 4 1 43.18 3.14
-5 -4 -1 40.21 3.06
5 -9 1 38.61 3.12
9 -5 -1 40.74 3.17
5 -9 1 43.58 3.29
9 -4 1 41.6 3.21
5 -9 -1 58.42 4.24
-9 4 -1 57.51 4.12
4 -9 1 59.96 4.09
9 -4 -1 53.21 4.14
-5 -4 1 58.44 4.25
9 -5 1 51.35 4.16
-9 5 1 58.01 4.1
-4 9 1 49.42 4.2
-5 9 -1 53.26 4.24
-4 -5 -1 58.29 4.22
5 -9 -1 54.53 4.14
5 -9 -1 52.09 4.05
-5 -4 1 57.41 4.05
9 -4 -1 58.84 4.16
-9 4 -1 58.98 4.27
-9 5 1 63.5 4.29
4 -9 1 50.35 4.05
-4 -5 -1 51.04 4.02
4 -9 1 58.15 4.24
9 -5 1 52.2 4.15
-6 -3 -1 38.35 2.71
9 -6 -1 37.09 2.81
6 -9 1 33.62 2.9
-9 6 -1 39.2 2.78
-3 9 -1 30.87 2.86
-6 9 1 37.62 2.94
-9 3 1 37.68 2.77
3 -9 -1 35.45 2.91
6 3 -1 38.75 2.83
-6 -3 -1 35.93 2.88
9 -6 -1 36.1 2.82
-9 3 1 38.59 2.95
3 -9 -1 37.75 2.71
3 -9 -1 37.55 2.79
9 -3 1 38.39 2.84
6 -9 1 32.48 2.75
-3 -6 1 37.6 2.68
6 -9 1 36.09 2.75
-9 6 -1 38.2 2.96
-3 -6 1 36.09 2.9
9 -3 1 38.11 2.83
-6 -3 1 27.06 2.17
-9 3 -1 25.48 2.18
-6 -3 1 26.15 1.92
9 -3 -1 27.08 2.06
-6 9 -1 25.59 2.14
9 -3 -1 26.81 2.03
-9 6 1 25.99 2.17
-3 9 1 21.14 2.06
-9 3 -1 24.3 1.99
6 3 1 21.19 2
6 -9 -1 25.96 1.95
9 -6 1 23.51 2.02
9 -6 1 25.25 2.05
6 -9 -1 25.11 1.96
3 -9 1 26.12 2.14
6 -9 -1 25.26 2.12
-3 -6 -1 25.01 2.12
3 -9 1 27.12 1.93
6 -9 -1 27.8 2.04
-9 6 1 25.91 1.98
-7 9 1 96.11 7.02
9 -2 1 95.27 6.92
2 -9 -1 81.19 6.87
2 -9 -1 93.52 6.99
-2 -7 1 93.7 6.79
-9 2 1 98.54 6.87
-9 2 1 92.39 6.98
-2 -7 1 83.76 6.91
7 -9 1 90.28 6.88
-9 7 -1 96.55 7.02
-7 -2 -1 102.43 6.84
7 -9 1 93.01 6.87
2 -9 -1 94.06 6.81
7 2 -1 96.66 6.94
9 -7 -1 90.29 6.9
9 -7 -1 92.81 6.92
7 -9 1 101.75 7.01
-9 7 -1 102.56 6.88
-2 -7 1 92.29 6.96
9 -2 1 99.02 6.94
-7 -2 -1 97.47 6.98
-7 -2 1 99.46 6.82
7 -9 -1 96.95 6.68
2 -9 1 91.75 6.79
7 -9 -1 81.47 6.72
-9 7 1 90.81 6.67
9 -7 1 94.8 6.71
9 -7 1 91.84 6.72
7 2 1 88.5 6.74
-9 2 -1 92.53 6.68
9 -2 -1 99.84 6.74
-7 9 -1 102.36 6.85
2 -9 1 96.87 6.63
9 -2 -1 100.37 6.76
7 -9 -1 96.98 6.8
-2 -7 -1 86.94 6.75
-7 -2 1 84.91 6.64
-2 -7 -1 79.48 6.69
-9 7 1 86.13 6.81
-9 2 -1 91.47 6.81
-7 9 -1 84.89 6.63
7 -9 -1 87.99 6.68
-9 8 -1 28.14 2.2
9 -8 -1 28.92 2.3
-9 1 1 25.09 2.18
1 -9 -1 27.58 2.1
8 1 -1 30.55 2.32
8 -9 1 25.34 2.22
-8 9 1 26.1 2.17
-9 1 1 28.81 2.21
8 -9 1 30.72 2.4
-1 -8 1 27.32 2.1
1 -9 -1 28.24 2.35
8 -9 1 29.53 2.23
-8 9 1 28.49 2.43
9 -1 1 31.28 2.31
-1 -8 1 29.31 2.32
-1 -8 1 30.37 2.37
-8 -1 -1 29.13 2.39
9 -8 -1 29.8 2.26
9 -8 -1 29.42 2.31
-8 -1 -1 27.04 2.17
-9 1 1 30.71 2.41
-9 8 -1 32.33 2.48
-9 1 -1 23.16 1.9
-1 -8 -1 22.29 2.01
-9 8 1 22.01 2.11
8 1 1 24.31 2.03
9 -8 1 25.46 1.98
9 -8 1 24.25 1.99
-1 -8 -1 21.79 1.92
-8 -1 1 23.29 1.88
8 -9 -1 27.56 2.03
-8 -1 1 22.15 1.86
-8 -1 1 25.32 2.14
9 -8 1 26.48 1.98
-9 1 -1 24.46 1.91
-8 9 -1 28.45 2.23
8 -9 -1 22.29 1.9
-8 9 -1 24.17 1.88
8 -9 -1 27.96 2.13
1 -9 1 25.95 1.83
-9 8 1 23.39 1.9
9 -1 -1 21.38 1.93
-9 1 -1 25.88 2.13
1 -9 1 23.54 2.09
-1 -8 -1 23.82 2.01
8 -9 -1 28.21 1.95
9 -1 -1 24.79 2.03
9 -9 -1 0.98 0.52
-9 9 1 0.55 0.39
0 -9 1 1.4 0.5
-9 0 -1 1.04 0.73
-9 0 -1 0.59 0.36
-9 9 1 0.74 0.72
9 -9 -1 0.52 0.42
-9 0 -1 0.47 0.33
9 -9 -1 -0.03 0.46
9 0 1 0.03 0.5
0 -9 -1 0.24 0.28
0 -9 1 0.58 0.23
9 -9 1 0.41 0.41
-9 0 1 0.88 0.36
-9 9 -1 1.68 0.81
-9 0 1 0.52 0.35
0 -9 1 1.07 0.64
9 -9 -1 0.31 0.21
-9 9 -1 0.87 0.38
0 -9 -1 0.27 0.44
-9 0 1 1.45 0.77
0 -9 -1 0.48 0.54
9 -9 1 0.71 0.46
9 -9 1 0.42 0.4
9 0 -1 0.93 0.57
-10 5 1 233.99 15.24
5 -10 -1 191.37 15.08
-5 -5 -1 210.99 15.16
-5 -5 1 212.49 15.19
-5 10 1 215.88 15.19
10 -5 -1 199.54 15.1
-5 10 -1 205.49 15.21
-5 -5 1 209.56 15.01
-10 5 -1 217.63 15.21
-10 5 -1 201.88 15.06
10 -5 1 211.25 15.12
5 -10 1 212.48 15.19
-5 -5 -1 202.76 14.99
10 -5 1 207.38 15.12
5 -10 1 218.29 15.05
10 -5 -1 213.05 15.12
5 -10 -1 214.94 15.18
5 -10 1 177.12 15.02
-10 5 1 213.71 15.06
-4 10 -1 25.95 2.16
6 -10 1 22.76 1.91
10 -6 -1 21.98 1.95
10 -4 1 25.8 2.05
10 -6 -1 23.88 2.01
4 -10 -1 20.41 1.92
4 -10 -1 26.5 2.13
6 -10 1 28.02 2.17
-10 4 1 24.04 1.93
4 -10 -1 26.64 1.87
-6 10 1 25.77 2.18
-10 4 1 25.16 2.21
6 -10 1 24.07 1.89
-6 -4 -1 24.38 1.83
6 4 -1 21.12 1.98
-4 -6 1 24.83 2.14
-10 6 -1 26.39 1.96
-6 -4 -1 23.15 2.1
10 -4 1 23.14 2.02
-4 -6 1 24.36 1.82
-10 6 -1 26.9 2.21
4 -10 1 26.38 2.25
-10 6 1 27.67 2.29
10 -4 -1 26.42 2.14
-4 -6 -1 25.97 2.2
-6 10 -1 24.76 2.26
-4 -6 -1 23.89 1.9
6 -10 -1 24.98 1.97
-4 10 1 25.37 2.19
10 -4 -1 25.14 2.13
10 -6 1 26.33 2.15
-6 -4 1 27.98 2.29
-10 6 1 27.29 2.06
6 -10 -1 26.85 2.08
-10 4 -1 24.81 2.06
4 -10 1 27.94 2.01
6 -10 -1 28.68 2.23
6 -10 -1 25.58 2.03
-10 4 -1 26.45 2.28
10 -6 1 22.78 2.1
-6 -4 1 26.71 1.97
-10 7 -1 129.74 8.99
-3 -7 1 115.68 8.92
-7 -3 -1 124.21 8.76
7 -10 1 112.62 8.81
-7 -3 -1 120.04 8.92
-10 3 1 116.22 8.8
10 -7 -1 123.58 8.87
-10 3 1 130.81 8.98
10 -7 -1 124.17 8.86
10 -3 1 123.1 8.89
7 -10 1 115.68 8.93
-3 -7 1 122.7 8.73
3 -10 -1 121.33 8.92
-7 10 1 121.28 8.97
3 -10 -1 124 8.75
7 3 -1 115.11 8.87
7 -10 1 124.53 8.8
-10 7 -1 121.6 8.82
10 -3 1 120 8.87
7 3 1 117.81 9.17
-7 -3 1 138.08 9.27
10 -3 -1 125.18 9.17
-7 10 -1 136.13 9.3
7 -10 -1 119.53 9.22
3 -10 1 133.83 9.07
10 -7 1 123.14 9.16
-7 -3 1 132.61 9.07
3 -10 1 129.49 9.24
-10 7 1 134.35 9.11
-10 7 1 126.12 9.27
-10 3 -1 133.77 9.27
7 -10 -1 110.7 9.14
7 -10 -1 123.83 9.08
-3 -7 -1 120.12 9.19
10 -3 -1 111.02 9.16
10 -7 1 125.9 9.15
-10 3 -1 133.46 9.12
7 -10 -1 125.32 9.11
-3 -7 -1 111.02 9.12
-2 -8 1 65.92 5.19
-8 -2 -1 71.26 5.25
-8 -2 -1 69.68 5.43
8 -10 1 72.43 5.44
2 -10 -1 70.52 5.2
-10 2 1 74.35 5.47
8 -10 1 69.84 5.3
-10 8 -1 77.45 5.52
2 -10 -1 68.7 5.4
-10 8 -1 64.42 5.27
-2 -8 1 70.97 5.4
8 -10 1 76.75 5.3
10 -2 1 72.24 5.38
8 2 -1 63.07 5.36
-8 10 1 76.51 5.48
10 -8 -1 79.51 5.34
-10 2 1 75.09 5.29
10 -8 -1 77.6 5.37
-10 8 1 74.02 5.56
2 -10 1 77.33 5.71
10 -2 -1 73.94 5.63
8 -10 -1 76.27 5.59
-2 -8 -1 66.92 5.65
2 -10 1 77.63 5.51
10 -8 1 75.53 5.63
8 -10 -1 80.49 5.66
-10 2 -1 77.74 5.58
-10 8 1 70.72 5.73
-8 -2 1 72.04 5.54
-10 2 -1 64.61 5.55
8 -10 -1 80.9 5.72
8 2 1 75.5 5.66
-10 2 -1 76.4 5.74
10 -8 1 84.46 5.64
-8 10 -1 78.34 5.77
10 -2 -1 79.83 5.68
-8 -2 1 77.66 5.74
8 -10 -1 79.25 5.58
-10 1 1 13.91 1.18
1 -10 -1 13.12 1.41
9 -10 1 13.59 1.42
-10 1 1 12.11 1.15
-1 -9 1 12.03 1.01
-10 9 -1 12.49 1.17
-9 -1 -1 12.12 1.13
-9 -1 -1 11.92 1.52
-1 -9 1 12.76 1.33
-9 10 1 10.52 1.06
10 -9 -1 14.26 1.36
-1 -9 1 13.44 1.45
9 1 -1 15.16 1.37
-9 10 1 12.95 1.52
-10 9 -1 13.62 1.61
9 -10 1 12.35 1.23
10 -9 -1 13.59 1.27
-10 1 1 14.8 1.54
1 -10 -1 12.25 1.3
1 -10 -1 12.28 0.99
10 -1 1 14.23 1.45
-1 -9 -1 8.6 1.11
9 -10 -1 11.08 1.07
-10 1 -1 9.38 1.01
-9 -1 1 9.86 1.36
1 -10 1 9.96 0.86
-10 1 -1 10.8 1.37
9 -10 -1 11.11 1.22
9 -10 -1 9.55 0.98
1 -10 1 9.15 1.32
-10 1 -1 9.98 1
-10 9 1 9.74 1.35
10 -9 1 11.98 1.16
-10 9 1 11.08 1.04
-9 -1 1 9.64 0.96
10 -1 -1 11.24 1.23
-1 -9 -1 9.41 1.13
9 -10 -1 11.82 1.27
-9 10 -1 9.66 0.93
10 -9 1 9.55 1.09
9 1 1 10.12 1.13
-9 10 -1 11.84 1.49
-10 10 1 74.85 5.93
0 -10 -1 75.65 6.06
0 -10 1 86.5 6.12
10 -10 -1 70.8 6.06
-10 0 1 81.7 5.96
10 -10 -1 88.41 6.07
10 -10 -1 88.03 6.01
-10 0 -1 82.97 5.95
-10 0 1 90.82 6.18
0 -10 -1 69.48 6.02
10 -10 1 88.97 6.01
0 -10 1 80.94 6.08
-10 0 -1 80.87 6.14
-10 10 1 82.31 6.18
10 0 -1 92.45 6.11
0 -10 1 80.85 5.88
-10 10 -1 78.61 5.94
-10 0 1 70.2 5.93
6 -11 1 29.37 2.42
11 -5 1 26.4 2.24
-6 -5 -1 25 2.37
-11 6 -1 27.74 2.19
-11 5 1 28.35 2.17
-11 5 1 30.28 2.49
5 -11 -1 28.86 2.38
-6 -5 -1 26.41 2.04
11 -6 -1 27.9 2.28
-5 -6 1 27.58 2.04
6 -11 1 25.64 2.13
-6 11 1 28.71 2.39
-11 6 -1 25.35 2.42
11 -6 -1 27.72 2.25
-5 -6 1 26.4 2.39
11 -5 1 28.93 2.32
-5 11 -1 25.44 2.4
5 -11 1 23.9 2.08
11 -6 1 17.84 1.84
-11 5 -1 22.16 2.1
-11 6 1 22.95 1.83
-5 11 1 24.66 2.02
-5 -6 -1 20.37 1.65
-11 5 -1 22.31 1.83
11 -5 -1 23.12 1.9
5 -11 1 22.51 1.76
6 -11 -1 22.67 1.77
-6 11 -1 21.99 2.09
11 -6 1 20.51 1.9
6 -11 -1 25.7 2.07
-11 6 1 22.24 2.11
11 -5 -1 21.21 1.87
-6 -5 1 21.94 1.69
-5 -6 -1 19.99 1.98
-6 -5 1 23.62 2.1
11 -7 -1 51.85 3.98
-7 11 1 50.65 4.1
11 -4 1 55.35 4.04
-4 -7 1 49.89 4.07
-11 4 1 50.51 3.91
4 -11 -1 52.44 4.07
-11 7 -1 57.44 3.94
-7 -4 -1 53.63 3.83
7 -11 1 49.49 3.9
11 -7 -1 52.44 3.99
-11 4 1 56.45 4.16
-7 -4 -1 51.18 4.07
11 -4 1 56.94 4.02
-4 -7 1 51.96 3.81
-11 7 -1 55.69 4.16
7 -11 1 53.01 4.1
7 -11 1 50.16 3.87
7 4 -1 44.01 3.95
-7 -4 1 47.84 3.57
7 -11 -1 42.51 3.31
11 -7 1 43.06 3.41
11 -4 -1 45.98 3.45
-11 4 -1 45.84 3.56
11 -7 1 40.98 3.42
11 -4 -1 43.79 3.43
-7 -4 1 44.95 3.27
4 -11 1 45.84 3.55
-7 11 -1 42.02 3.56
7 -11 -1 37.05 3.34
4 -11 1 47.24 3.29
-4 -7 -1 42.87 3.46
-11 7 1 48.88 3.37
7 -11 -1 42.02 3.48
-11 4 -1 48.15 3.37
-4 -7 -1 42.63 3.2
-11 7 1 44.78 3.58
3 -11 -1 31.11 2.58
-11 3 1 31.42 2.67
8 -11 1 32.44 2.64
-11 8 -1 33.79 2.42
11 -8 -1 32.85 2.53
-3 -8 1 26.71 2.55
8 -11 1 29.67 2.41
11 -8 -1 35.09 2.51
3 -11 -1 30.16 2.29
8 3 -1 31.57 2.5
-8 11 1 24.97 2.58
8 -11 1 30.01 2.39
-8 -3 -1 32.33 2.32
-3 -8 1 27.68 2.25
-11 3 1 32.01 2.41
11 -3 1 32.22 2.57
-11 8 -1 30.24 2.64
-8 -3 -1 27.94 2.6
8 -11 -1 29.79 2.65
-8 -3 1 36.55 2.86
8 3 1 31.33 2.67
8 -11 -1 33.77 2.6
-11 3 -1 32.16 2.83
3 -11 1 36.49 2.52
8 -11 -1 37.98 2.8
-3 -8 -1 31.81 2.72
11 -3 -1 32.52 2.66
3 -11 1 33.11 2.81
-8 -3 1 33.53 2.53
11 -8 1 34.68 2.73
-11 8 1 31.52 2.58
-8 11 -1 31.62 2.83
-11 8 1 31.84 2.82
8 -11 -1 34.44 2.56
-11 3 -1 37.14 2.63
-11 2 1 182.51 12.69
2 -11 -1 168.3 12.41
-11 2 1 175.79 12.5
11 -9 -1 169.44 12.57
-2 -9 1 157.57 12.6
9 -11 1 171.55 12.51
11 -9 -1 193.05 12.56
2 -11 -1 169.43 12.62
11 -2 1 196.07 12.63
9 -11 1 178.74 12.67
-9 -2 -1 173.58 12.65
-9 -2 -1 155.98 12.45
-11 9 -1 192.26 12.73
-11 9 -1 149.12 12.48
-9 11 1 161.28 12.66
-2 -9 1 156.97 12.4
9 2 -1 186.07 12.62
11 -9 1 150.55 11.14
-11 2 -1 146.83 11.08
-9 -2 1 166.71 11.27
9 -11 -1 143.82 11.13
9 -11 -1 158.92 11.1
9 2 1 138.39 11.15
9 -11 -1 161.99 11.09
2 -11 1 157.74 11.22
2 -11 1 158.42 11.01
-11 9 1 137.08 11.25
11 -9 1 170.04 11.15
-9 -2 1 142.13 11.04
-11 2 -1 148.51 11.23
11 -2 -1 169.95 11.21
-11 9 1 144.51 11.07
-11 2 -1 130.68 11.06
-9 11 -1 167.68 11.3
9 -11 -1 158.2 11.23
1 -11 -1 86.8 6.54
-10 -1 -1 86.22 6.37
-1 -10 1 84.7 6.3
10 -11 1 95.92 6.44
1 -11 -1 84.31 6.29
-11 1 1 84.26 6.4
-10 11 1 80.65 6.6
11 -10 -1 90.26 6.5
-11 10 -1 90.41 6.39
-11 1 1 84.97 6.39
11 -10 -1 92.72 6.46
-1 -10 1 81.66 6.53
10 1 -1 97.11 6.55
-11 1 1 86.1 6.61
-10 -1 -1 82.77 6.57
1 -11 1 90.01 6.59
-11 10 1 82.44 6.65
-10 -1 1 85.2 6.65
11 -1 -1 94.74 6.81
-10 11 -1 99.76 6.93
-11 1 -1 86.48 6.66
-10 -1 1 99.3 6.92
1 -11 1 92.47 6.84
11 -10 1 98.08 6.73
10 -11 -1 95.11 6.7
10 1 1 87.49 6.79
10 -11 -1 79.81 6.73
-11 1 -1 94.16 6.88
-11 10 1 92.83 6.9
1 -11 1 89.86 6.81
-11 11 -1 22.62 2.28
-11 11 1 24.52 2.19
11 -11 1 23.87 1.9
0 -11 -1 19.71 1.63
11 0 -1 23.33 2
11 0 1 24.79 2.08
-11 0 -1 20.45 1.82
11 -11 -1 19.52 1.89
-11 0 -1 20.18 2.13
11 -11 -1 24.04 1.92
0 -11 1 21.29 1.68
-11 0 1 24.33 2.23
-11 0 1 21.44 1.83
0 -11 1 23 2.11
12 -6 -1 30.01 2.55
6 -12 -1 33.46 2.67
12 -6 1 31.08 2.53
-6 -6 1 28.74 2.3
-12 6 1 32.36 2.46
-12 6 -1 31.19 2.74
-6 12 -1 32.12 2.75
-6 -6 -1 26.51 2.58
-6 -6 1 28.99 2.68
-6 12 1 27.73 2.58
12 -6 1 32.97 2.59
-12 6 -1 32.04 2.46
12 -6 -1 26.7 2.5
-6 -6 -1 30.14 2.28
6 -12 1 35.08 2.73
6 -12 -1 32.3 2.37
6 -12 1 30.48 2.38
-12 6 1 32.57 2.77
-5 -7 1 34.89 2.64
-7 -5 -1 35.65 2.65
7 -12 1 40.17 3.08
12 -7 -1 38.47 2.9
5 -12 -1 37.47 3
-12 7 -1 39 2.82
7 -12 1 34.67 2.75
-7 12 1 37.05 2.99
-12 5 1 38.25 3.1
12 -7 -1 34.22 2.85
-7 -5 -1 29.38 2.89
-12 7 -1 38.22 3.11
-5 12 -1 34.69 3.04
12 -5 1 32.32 2.82
-12 5 1 36.66 2.79
12 -5 1 35.6 2.88
-5 -7 1 32.04 2.96
-7 12 -1 30.98 2.82
12 -7 1 31.14 2.6
12 -5 -1 29.81 2.59
-5 -7 -1 29.55 2.63
5 -12 1 35.53 2.8
5 -12 1 34.41 2.46
-5 12 1 26.22 2.6
-12 7 1 30.41 2.8
-5 -7 -1 31.12 2.35
-12 5 -1 33.01 2.82
7 -12 -1 29.6 2.46
-7 -5 1 31.86 2.41
12 -5 -1 35.07 2.68
7 -12 -1 35.59 2.76
-12 5 -1 31.27 2.53
12 -7 1 34.98 2.68
-7 -5 1 31.82 2.79
-12 7 1 34.33 2.57
8 -12 1 29.46 2.2
-4 -8 1 25.49 2.03
-12 4 1 28.78 2.56
-8 -4 -1 24.06 2.39
12 -8 -1 27.31 2.32
-8 -4 -1 27.31 2.08
-12 8 -1 30.57 2.58
8 -12 1 26.07 2.44
-12 4 1 27.74 2.2
-8 12 1 26.27 2.41
-4 -8 1 22.85 2.41
12 -8 -1 30.46 2.33
4 -12 -1 26.15 2.43
-12 8 -1 29.58 2.24
-8 -4 1 18.96 1.46
-12 4 -1 16.36 1.9
4 -12 1 18.67 1.47
8 -12 -1 17.02 1.53
-12 8 1 17.26 1.59
12 -8 1 17.75 1.69
12 -4 -1 17.72 1.62
4 -12 1 18.12 1.91
8 -12 -1 18.69 1.8
-4 -8 -1 16.54 1.33
-12 4 -1 18.2 1.59
-12 8 1 17.88 1.92
-8 -4 1 20.1 1.91
-8 12 -1 18.6 1.92
12 -8 1 17.56 1.71
-3 -9 1 46.17 3.63
3 -12 -1 47.92 3.96
-9 -3 -1 50.63 3.7
-12 3 1 52.08 4.06
-12 9 -1 49.79 3.76
9 -12 1 41.85 3.72
12 -9 -1 56.18 3.88
-3 -9 1 49.38 3.95
12 -9 -1 47.39 3.86
9 -12 1 55.41 4
-9 -3 -1 45.79 3.95
-12 3 1 51.47 3.78
-12 9 -1 57.9 4.14
9 -12 -1 41.11 3.13
9 -12 -1 38.97 3.28
12 -3 -1 46.39 3.28
-12 9 1 39.65 3.09
9 3 1 35.68 3.2
-9 -3 1 42.07 3.39
-12 3 -1 41.43 3.38
-12 3 -1 43.5 3.13
3 -12 1 44.01 3.02
-12 9 1 36.26 3.34
-9 -3 1 38.57 3.04
12 -9 1 38.65 3.18
-9 12 -1 37.46 3.37
3 -12 1 44.64 3.38
-12 10 -1 29.19 2.73
-10 -2 -1 28.94 2.28
10 -12 1 32.87 2.37
-12 2 1 24.15 2.3
-12 2 1 32.06 2.73
-10 -2 -1 28.88 2.59
12 -10 -1 30.92 2.48
-2 -10 1 29.24 2.55
-12 10 -1 30.65 2.31
2 -12 -1 28.96 2.55
-2 -10 1 28.93 2.19
10 -12 1 30.39 2.37
12 -2 -1 39.36 2.97
-10 -2 1 33.69 2.72
10 -12 -1 35.68 2.8
2 -12 1 33.52 2.98
2 -12 1 37.23 2.67
12 -10 1 37.85 2.9
10 -12 -1 33.16 2.74
-12 10 1 35.34 3.05
-10 -2 1 40.44 3.12
-12 2 -1 37.15 3.08
10 2 1 37.35 2.92
-12 10 1 34.58 2.74
-10 12 -1 30.04 3.03
12 -11 -1 37.68 2.77
-11 -1 -1 32.56 2.91
11 1 -1 29.71 2.78
-11 12 1 29.86 2.87
-11 -1 -1 36.52 2.64
-12 1 1 37.97 2.69
11 -12 1 33.69 2.7
-1 -11 1 31.96 2.82
-1 -11 1 36.28 2.53
-12 1 -1 26.67 2.11
11 1 1 25.17 2.22
11 -12 -1 23.44 2.1
-11 -1 1 26 2.08
1 -12 1 27.09 1.97
12 -11 1 27.53 2.21
12 -1 -1 26.05 2.26
-12 11 1 24.08 2.37
-11 12 -1 26.37 2.45
-11 -1 1 27.03 2.46
1 -12 1 25.67 2.34
-12 1 -1 25.56 2.39
-12 0 -1 82.44 5.95
-12 12 -1 90.31 6.27
12 -12 1 81.19 5.99
12 0 1 69.82 6.07
0 -12 1 87.45 5.85
-12 0 1 82.36 6.22
12 -12 -1 70.97 5.96
-12 0 1 81.44 5.96
7 -13 1 3.32 0.73
6 -13 -1 4.33 0.68
13 -6 1 2.94 0.77
13 -7 -1 2.69 0.69
7 -13 1 4 0.85
-6 -7 1 3.24 0.54
6 -13 -1 2.87 0.72
-13 6 1 3.66 1.07
-7 -6 -1 3.23 0.52
13 -6 1 1.88 0.62
-6 13 -1 3.75 1.02
-13 6 1 3.77 0.69
-13 7 -1 3.86 1.16
13 -7 -1 2.59 0.65
-7 -6 -1 1.84 0.67
-6 -7 1 4.48 1.03
-13 7 -1 3.61 0.7
-7 -6 1 3.27 0.58
7 -13 -1 4.31 0.7
-13 6 -1 4.25 0.75
-6 -7 -1 3.65 0.5
-13 7 1 4.81 1.18
13 -6 -1 2.51 0.66
6 -13 1 5.55 1.36
-7 13 -1 2.64 0.96
-13 7 1 3.37 0.69
-7 -6 1 5.3 1.08
-13 6 -1 2.45 1.04
13 -7 1 3.21 0.79
13 -6 -1 3.97 0.86
13 -7 1 3.88 0.77
7 -13 -1 6.06 1.25
6 -13 1 4.24 0.69
-5 -8 1 53.59 4.1
5 -13 -1 54.74 4.14
-13 5 1 59.85 4.54
8 -13 1 51.19 4.43
13 -8 -1 55 4.34
13 -8 -1 52.3 4.29
-13 5 1 58.31 4.25
-5 -8 1 50.69 4.39
5 -13 -1 58.85 4.45
-8 -5 -1 56.99 4.12
8 -13 1 56.71 4.22
13 -5 1 59.95 4.39
-13 8 -1 59.79 4.26
-13 8 -1 60.17 4.56
-13 8 1 52.88 3.69
13 -8 1 44.72 3.75
5 -13 1 50.31 3.6
-13 5 -1 42.07 3.88
8 -13 -1 40.63 3.81
-5 -8 -1 50.01 3.5
-13 8 1 46.82 3.94
13 -5 -1 52.33 3.83
-13 5 -1 50.37 3.68
-8 -5 1 50.36 3.57
13 -8 1 46.28 3.74
-8 13 -1 45.02 3.93
8 -13 -1 45.51 3.63
5 -13 1 56.2 3.97
-8 -5 1 48.19 3.89
4 -13 -1 12.37 1.63
-13 4 1 15.28 1.82
9 -13 1 11.68 1.56
13 -4 1 14.55 1.58
13 -9 -1 16.72 1.53
-13 9 -1 13.67 1.85
13 -9 -1 13.47 1.45
-4 -9 1 12.26 1.52
-13 9 -1 11.5 1.27
-9 -4 -1 14.26 1.17
-4 -9 1 12.15 1.08
-13 4 1 14.85 1.33
9 -13 -1 9.22 1.36
13 -4 -1 13.14 1.49
4 -13 1 12 1.04
-9 -4 1 11.48 1.58
-13 9 1 11.22 1.54
-13 9 1 9.61 1.12
9 -13 -1 11.74 1.18
-9 13 -1 11.77 1.56
-9 -4 1 11.36 1.06
4 -13 1 11.83 1.55
13 -9 1 12.96 1.35
-13 4 -1 10.16 1.54
-13 4 -1 10.3 1.15
-13 10 -1 14.47 1.41
3 -13 -1 16.98 1.7
13 -10 -1 13.83 1.55
-3 -10 1 16.83 1.29
-10 -3 -1 17 1.38
-13 10 -1 20.01 2.06
-3 -10 1 13.84 1.62
13 -10 -1 19.85 1.68
10 -13 1 18.5 1.57
-13 3 1 14.26 1.43
-13 3 1 17.92 1.96
-13 3 -1 16.22 1.81
3 -13 1 15.8 1.71
-10 -3 1 16.42 1.82
3 -13 1 17.17 1.34
13 -3 -1 18.06 1.71
-10 -3 1 15.39 1.38
10 -13 -1 15.68 1.51
-10 13 -1 16.84 1.82
-13 10 1 12.86 1.73
-2 -11 1 26.67 2.2
-11 -2 -1 21.52 2.21
2 -13 -1 27.08 2.18
13 -2 -1 31.19 2.27
11 2 1 25.47 2.19
2 -13 1 22.91 2.18
-13 11 1 25.71 2.35
2 -13 1 22.88 2.25
-13 12 -1 19.29 2.04
-12 -1 -1 21.46 1.67
-13 1 1 19.27 1.68
13 -1 1 17.04 1.82
-13 1 1 20.06 2.02
-13 12 1 5.4 1.23
-13 1 -1 7.02 1.21
12 1 1 9.34 1.07
13 -1 -1 7.61 1.05
-13 13 -1 1.99 0.84
-13 0 1 2.04 0.8
-14 7 -1 9.85 1.18
-14 7 -1 10.38 1.59
-14 7 1 9.2 1.54
-7 -7 -1 9.59 0.91
14 -7 -1 9.87 1.31
7 -14 1 9.98 1.05
7 -14 -1 10.95 1.47
7 -14 1 10.22 1.55
-14 7 1 11.07 1.19
-7 -7 1 9.53 0.95
7 -14 -1 10.15 1.03
-8 -6 -1 53.22 3.59
14 -6 1 45.82 3.81
-6 -8 1 51.02 3.58
8 -14 1 48.97 3.94
-14 8 -1 47.7 4
-14 8 -1 49.16 3.72
-14 6 1 48.29 3.73
14 -8 -1 41.49 3.77
6 -14 -1 50.82 3.63
6 -14 -1 45.61 3.91
-14 6 1 51.48 4.02
8 -14 -1 40.43 3.3
8 -14 -1 39.04 3.51
6 -14 1 47.01 3.3
-8 -6 1 44.99 3.25
-14 6 -1 45.08 3.36
-14 8 1 36.04 3.58
-6 -8 -1 46.94 3.2
14 -6 -1 44 3.5
6 -14 1 46.7 3.63
-14 8 1 42.73 3.35
-14 6 -1 44.72 3.65
-14 9 -1 12.84 1.77
14 -5 1 12.25 1.47
5 -14 -1 14.08 1.61
-14 5 1 15.07 1.74
-14 9 -1 11.15 1.26
14 -9 -1 13.72 1.4
-9 -5 -1 14.27 1.19
-5 -9 1 13.11 1.11
5 -14 -1 15.17 1.2
-5 -9 -1 14.13 1
14 -9 1 10.91 1.28
-14 5 -1 10.91 1.57
9 -14 -1 15.27 1.29
14 -5 -1 13.83 1.4
-14 9 1 9.73 1.54
-14 5 -1 10.13 1.17
5 -14 1 14.82 1.62
-14 9 1 11.97 1.2
4 -14 -1 134.63 8.66
-14 4 1 106.58 8.94
10 -14 1 136.32 8.8
14 -10 -1 113.9 8.8
14 -4 1 104.02 8.83
-14 10 -1 110.01 8.98
-4 -10 1 129.51 8.62
14 -4 -1 84.59 6.33
-14 4 -1 82.92 6.4
-3 -11 1 21.86 1.54
-14 3 1 16.47 1.96
-11 -3 -1 22.27 1.66
11 -14 1 20.56 1.74
-14 11 -1 17.7 2.03
14 -11 -1 17.7 1.74
-14 3 -1 7.15 1.19
-11 14 -1 6.44 1.22
-11 -3 1 8.83 1.2
14 -2 1 2.22 0.62
-14 12 -1 3.31 0.94
-14 2 1 4.25 0.94
14 -12 -1 2.24 0.52
-14 2 1 2.34 0.53
12 -14 -1 7.96 0.86
14 -12 1 5.26 0.86
-1 -13 1 11.14 0.94
-13 -1 -1 10.56 1.19
1 -14 1 10.23 0.89
-13 -1 1 8.86 1.09
-14 1 -1 8.09 1.01
0 -14 1 0.3 0.33
-14 0 -1 0.18 0.44
-14 0 1 0.35 0.42
-15 8 -1 6.88 0.79
-15 7 1 5.71 1.18
8 -15 1 4.61 1.01
7 -15 -1 4.27 0.97
-15 7 1 6.03 0.8
-15 8 1 3.31 0.92
-15 8 1 4.05 0.72
15 -7 -1 2.74 0.69
-15 7 -1 4.95 0.73
7 -15 1 4.67 1.02
-15 7 -1 5.08 1.12
-15 6 1 0.89 0.81
9 -15 1 3.52 0.69
-15 9 -1 2.14 0.77
-9 -6 1 0.95 1.24
15 -6 -1 0.74 0.51
-15 9 1 0.63 0.39
-15 6 -1 0.11 0.39
6 -15 1 0.86 0.49
-15 6 -1 0.96 0.72
9 -15 -1 -0.01 0.42
-15 9 1 -0.09 0.75
-12 -3 -1 19.64 1.7
3 -15 -1 20.91 1.58
-3 -12 1 19.35 1.55
3 -15 1 19.86 1.57
-12 -3 1 18.29 1.65
2 -15 -1 100.59 6.76
-13 -2 -1 90.82 6.87
-2 -13 1 89.34 6.76
-13 -2 1 88.6 6.92
2 -15 1 99.48 6.84
-1 -14 1 2.52 0.45
-14 -1 -1 2.57 0.59
-14 -1 1 4.52 0.78
1 -15 1 5.07 0.64
-15 0 -1 20.68 1.7
-8 -8 -1 1.65 0.42
-8 -8 1 2.1 0.49
8 -16 -1 2.42 0.56
-7 -9 1 15.1 1.35
-9 -7 -1 18.3 1.4
7 -16 -1 15.89 1.47
9 -16 1 15.73 1.54
-9 -7 1 16.28 1.38
9 -16 -1 13.35 1.42
-7 -9 -1 15.63 1.24
10 -16 1 13.87 1.48
-10 -6 -1 16.8 1.38
6 -16 -1 15.36 1.37
-6 -10 1 14.79 1.27
10 -16 -1 14.82 1.43
-10 -6 1 15.69 1.35
-6 -10 -1 12.76 1.11
-11 -5 -1 50.26 3.34
11 -16 1 36.55 3.37
-5 -11 1 42.17 3.23
5 -16 -1 45.98 3.29
11 -16 -1 31.95 2.79
-11 -5 1 38.15 2.75
-12 -4 -1 111.49 8.08
-4 -12 1 104.25 7.98
4 -16 -1 116.19 8.02
-12 -4 1 110.07 8.3
4 -16 1 117.09 8.25
-13 -3 -1 0.89 0.53
3 -16 -1 1.28 0.36
-13 -3 1 1.92 0.56
3 -16 1 2.19 0.47
-16 2 -1 9.68 1.02
-15 -1 -1 12.01 1.1
-15 16 -1 16.87 1.36
-16 16 -1 14.06 1.11
-16 0 1 10.75 1.17
-9 -8 -1 22.63 1.73
-8 -9 1 22.03 1.73
8 -17 -1 21.63 1.84
9 -17 1 19.12 1.84
8 -17 1 17.79 1.68
-9 -8 1 19.43 1.6
9 -17 -1 17.08 1.66
-8 -9 -1 20.66 1.51
-10 -7 -1 9.15 0.98
7 -17 -1 8.97 1.03
-7 -10 1 8.2 0.89
10 -17 1 7.83 1.08
7 -17 1 6.41 0.96
-10 -7 1 6.29 0.94
10 -17 -1 5.76 0.97
-7 -10 -1 5.23 0.56
11 -17 1 2.15 0.51
6 -17 1 4.91 0.87
-11 -6 1 4.42 0.91
11 -17 -1 3.05 0.64
-17 12 -1 -0.44 0.42
-12 -5 -1 1.3 0.56
-17 12 -1 0.64 0.46
12 -17 1 0.23 0.32
-17 5 1 0.27 0.35
-12 17 1 0.37 0.3
12 -17 -1 -0.27 0.32
-17 12 1 -0.06 0.39
-17 5 -1 -0.35 0.32
-17 12 1 -0.71 0.41
-12 -5 1 0.23 0.5
-12 17 -1 0.41 0.31
-17 13 -1 0.66 0.52
-13 -4 -1 1 0.5
-13 17 1 0.5 0.34
-17 4 1 0.38 0.47
4 -17 -1 1.15 0.32
-13 17 -1 2.67 0.47
-17 4 -1 2.17 0.55
-17 13 1 2.75 0.58
-13 -4 1 2.72 0.58
-14 17 1 0.52 0.35
-17 3 1 1.16 0.56
-17 14 -1 1.17 0.66
-14 17 1 0.54 0.5
-14 -3 -1 1.09 0.43
-17 3 -1 4.63 0.75
-14 -3 1 2.14 0.48
-14 17 -1 3.35 0.55
-17 14 1 4.23 0.76
-15 17 1 2.67 0.44
-16 17 1 59.6 4.52
-17 1 1 56.1 4.4
-17 16 -1 56.32 4.47
-16 -1 -1 59.35 4.4
-17 1 -1 83.69 5.46
-16 17 -1 64.03 5.29
-17 16 1 80.97 5.53
-16 17 -1 59.67 5.36
-17 17 -1 11.84 1.35
-17 17 -1 11.35 1.7
-17 17 1 13.48 1.8
-17 0 -1 13.62 1.72
-17 0 1 11.86 1.5
9 -18 -1 8.1 0.99
-18 9 -1 6.22 1.03
-18 9 1 5.67 1.11
-9 -9 1 8.53 0.9
9 -18 1 8.24 0.98
-9 18 1 10.68 1.21
-9 18 -1 10.42 1.19
-9 -9 -1 8.29 0.77
-8 18 -1 9.66 1.15
-8 -10 1 9.4 0.89
-18 10 -1 9.3 1.18
-10 18 1 10.4 1.25
-10 18 1 8.29 0.95
10 -18 1 8.47 0.99
8 -18 -1 11.06 1.1
-18 10 -1 9.76 1.31
-8 -10 -1 3.26 0.37
-10 18 -1 3.66 0.57
-11 -7 -1 19.1 1.61
-11 18 1 19.05 1.67
-18 11 -1 20.7 1.98
-18 11 -1 21.26 1.84
-18 7 1 18.45 1.71
-11 18 1 16.34 1.7
7 -18 -1 18.71 1.62
-18 7 -1 8.96 0.96
-18 11 1 7.78 1.03
11 -18 -1 10.21 0.96
-12 18 1 7.47 1.07
-18 12 -1 7.82 1.5
-18 12 -1 7.59 1.35
6 -18 -1 6.26 0.77
-18 6 1 7.15 1.22
-12 -6 -1 6.36 0.89
-12 18 -1 2.96 0.57
-18 6 -1 2.45 0.6
-12 18 -1 2.18 0.52
-6 18 1 1.43 0.5
6 -18 1 2.47 0.54
-12 -6 1 2.99 0.59
-18 12 1 3.5 0.85
-18 12 1 2.72 0.62
-13 18 1 32.45 2.65
-18 13 -1 34.53 2.88
-18 5 1 36.12 2.83
-18 13 -1 30.33 2.85
-13 -5 1 18.3 1.55
5 -18 1 18.35 1.49
-14 -4 -1 0.58 0.3
-18 4 1 1.78 0.8
-18 14 -1 2.03 0.91
-18 14 -1 0.94 0.74
-14 18 1 1.23 0.53
-14 18 1 1.7 0.6
-14 18 1 -0.18 0.61
-4 18 -1 -0.32 0.55
-18 14 1 2.06 0.68
-18 15 -1 39.49 3.43
-18 15 -1 49.49 3.54
-15 18 1 41.27 3.44
-15 18 1 41.34 3.3
-18 15 1 59.75 4.6
-15 18 -1 57.77 4.45
-18 16 -1 6.32 1.29
-18 16 -1 8.73 1.6
-16 18 1 10.26 1.66
-16 18 1 9.21 1.24
-18 2 1 10.43 1.51
-16 -2 -1 10.41 1.42
-18 16 1 10.63 1.33
-16 18 -1 8.97 1.36
-16 18 -1 8.02 1.44
-18 2 -1 10.6 1.76
-18 1 1 10.62 1.52
-18 17 -1 9.45 1.28
-17 18 1 10.26 1.78
-17 -1 -1 10.91 1.48
-17 18 1 8.15 1.22
-18 17 -1 9.33 1.21
-17 -1 1 7.16 1.24
-18 1 -1 9.33 1.61
-17 18 -1 8.31 1.3
-18 17 1 8.1 1.24
-17 18 -1 5.59 1.12
-18 18 -1 51.73 3.99
-18 0 1 55.27 4.06
-18 18 -1 54.7 4.18
-18 18 1 45.07 3.91
-18 18 1 50.37 4.2
-18 0 -1 57.01 4.11
-9 19 -1 5.32 0.98
-19 10 -1 6.72 1.01
-19 10 -1 4.53 0.94
-19 9 1 4.77 0.94
-19 9 1 3.65 0.71
-10 19 1 5.6 0.75
-10 19 1 5.02 1
-9 19 1 5.3 0.85
-19 9 -1 4.5 0.8
-10 19 -1 3.86 0.57
9 -19 1 2.33 0.5
-19 10 1 5.29 0.91
-19 10 1 2.66 0.59
-19 9 -1 3.25 0.53
-19 8 1 30.95 3.02
-19 11 -1 41.74 3.29
-19 11 -1 41.2 3.22
-8 19 -1 32.24 3.06
-19 8 1 38.75 3.02
-11 19 1 39 2.96
-11 19 1 38.66 3.17
-11 19 -1 26.96 2.05
-19 11 1 26.67 2.16
-19 8 -1 20.5 2.07
-19 8 -1 23.12 2.04
-19 8 -1 23.87 2.07
-19 7 1 14.95 1.45
-12 -7 1 5.77 0.64
-7 19 1 6.64 0.71
-19 7 -1 4.76 0.83
7 -19 1 5.17 0.61
-6 19 -1 4.79 0.77
-13 19 -1 5.59 0.87
-19 13 1 5.8 1
-19 6 -1 4.88 0.88
-6 19 1 4.01 0.8
-13 19 -1 4.6 0.9
-5 19 -1 1.13 0.52
-14 19 1 1.47 0.67
-14 19 1 2.24 0.74
-19 14 -1 2.22 1.04
-19 5 1 2.67 0.94
-19 14 -1 1.65 0.91
-14 19 1 1.8 0.71
-5 19 1 -0.07 0.54
-19 14 1 0.06 0.89
-19 14 1 0.5 0.88
-19 5 -1 -0.27 0.91
-14 19 -1 0.39 0.74
-14 19 -1 -0.8 0.66
-19 15 -1 3.05 0.97
-19 15 -1 3.99 1.06
-15 19 1 5.6 1.02
-15 -4 -1 3.94 0.62
-15 19 1 4.5 0.79
-15 19 -1 3.2 0.77
-15 19 -1 0.56 0.52
-4 19 1 0.88 0.48
-15 19 -1 1.29 0.5
-19 15 1 1.95 0.89
-16 19 1 42.34 3.27
-16 19 1 42.75 3.5
-16 -3 -1 41.06 3.28
-19 16 -1 41.73 3.44
-19 3 1 35.53 3.27
-19 16 -1 40.12 3.48
-19 3 1 47.46 3.44
-16 19 -1 53.04 4.12
-16 19 -1 51.16 4.22
-19 16 1 55.32 4.33
-19 16 1 49.51 4.29
-19 3 -1 61.94 4.29
-19 2 1 12.51 1.61
-19 17 -1 8.98 1.64
-17 19 1 10.27 1.75
-17 19 1 10.86 1.33
-19 17 -1 9.47 1.29
-19 17 -1 8.65 1.13
-17 -2 -1 12.45 1.51
-19 17 1 5.98 1.36
-17 19 -1 9.15 1.36
-17 19 -1 8.31 1.24
-19 17 1 10.54 1.28
-17 -2 1 7.23 1.13
-19 2 -1 10.44 1.64
-19 1 1 1.96 0.74
-18 19 1 1.59 0.67
-18 19 1 1.06 0.88
-18 -1 -1 2.3 0.76
-19 18 -1 1.45 0.65
-19 18 -1 0.63 0.91
-19 1 1 0.38 0.68
-18 -1 1 1.9 0.66
-18 19 -1 2.17 0.71
-19 1 -1 1.86 0.8
-19 18 1 0.83 0.94
-18 19 -1 0.85 0.97
-19 0 -1 5.8 0.87
-19 19 -1 4.66 0.8
-19 0 1 4.81 0.86
-19 19 1 5.21 0.98
-19 19 -1 6.48 1.1
-19 19 1 5.78 1.01
-19 0 1 6.96 1.23
-10 20 1 9.76 1.35
-20 10 -1 11.9 1.82
-10 20 -1 11.05 1.8
-20 10 1 12.44 1.84
-20 10 1 8.68 1.4
-20 10 -1 8.22 1.22
-10 20 1 9.71 1.31
-20 10 1 9.69 1.47
-20 10 -1 13.57 1.87
-10 20 -1 10.93 1.28
-20 9 1 2.6 0.89
-11 20 1 2.92 0.76
-9 20 -1 3.25 0.98
-11 20 1 3.77 1.01
-20 9 1 3.04 0.78
-20 11 -1 3.07 0.98
-20 11 -1 3.79 1.06
-11 20 -1 4 0.99
-20 11 1 5.38 1.09
-9 20 1 2.85 0.72
-9 20 1 4.45 1.08
-20 11 1 2.6 0.72
-20 9 -1 2.87 0.85
-20 9 -1 3.33 0.76
-20 9 -1 3.96 1.02
-20 11 1 4.27 0.94
-11 20 -1 3.08 0.75
-8 20 -1 14.98 1.89
-20 12 -1 20.97 2.23
-12 20 1 16.7 1.79
-20 12 -1 18.05 2.17
-20 8 1 16.84 1.85
-20 8 1 14.26 1.85
-12 20 1 15.86 2.06
-20 8 -1 15.6 1.82
-8 20 1 13.85 1.48
-20 8 -1 13.87 1.72
-20 12 1 17.75 1.97
-12 20 -1 16.39 1.63
-12 20 -1 15.7 1.94
-20 8 -1 13.16 1.71
-20 12 1 18.1 2.17
-8 20 1 14.89 1.83
-20 12 1 12.53 1.52
-13 20 1 14.08 1.7
-7 20 -1 11.96 1.81
-20 7 1 16.45 1.95
-20 13 -1 18.29 2.23
-20 13 -1 16.05 2.1
-13 20 1 13.55 1.95
-20 7 -1 12.49 1.67
-20 7 -1 11.35 1.45
-13 20 -1 12.12 1.57
-20 13 1 13.44 1.87
-7 20 1 12.34 1.73
-13 20 -1 12.21 1.78
-20 6 1 18.96 1.99
-20 14 -1 15.83 2.01
-14 20 1 16.52 1.73
-6 20 -1 12.41 1.77
-14 20 1 13.43 1.69
-14 20 1 15.46 2
-20 14 -1 18.32 2.25
-20 14 1 13.82 1.96
-6 20 1 11.36 1.61
-14 20 -1 12.38 1.77
-20 14 1 11.95 1.83
-14 20 -1 11.11 1.62
-20 6 -1 11.63 1.65
-20 5 1 80.99 5.49
-20 15 -1 75.56 5.61
-20 15 -1 77.93 5.54
-15 20 1 68.68 5.36
-15 20 1 73.3 5.51
-15 20 1 66.52 5.45
-5 20 -1 59.69 5.37
-20 15 1 75.3 5.83
-20 15 1 80.92 5.76
-5 20 1 68.99 5.68
-15 20 -1 78.77 5.64
-15 20 -1 73.8 5.73
-16 -4 -1 17.76 1.69
-20 4 1 21.39 1.97
-20 4 1 13.7 1.65
-20 16 -1 19.14 2.13
-20 16 -1 19.75 2.24
-16 20 1 17.2 2.08
-16 20 1 17.2 1.79
-16 20 -1 11.54 1.52
-16 20 -1 11.22 1.45
-20 4 -1 16.47 1.82
-20 16 1 15.58 2
-20 16 1 15.58 1.87
-16 20 -1 13.7 1.61
-20 3 1 -0.42 0.65
-17 -3 -1 1.48 0.65
-20 17 -1 0.49 0.32
-20 17 -1 1.05 0.88
-17 20 1 1.06 0.66
-20 17 -1 0.53 0.84
-20 3 1 0.75 0.77
-17 20 1 0.51 0.91
-20 17 1 0.67 0.82
-3 20 1 0.41 0.53
-17 20 -1 -0.3 0.42
-17 20 -1 1.7 0.69
-17 -3 1 0.43 0.35
-20 3 -1 1.05 0.8
-20 17 1 0.69 0.88
-17 20 -1 0.85 0.84
-20 18 -1 32.55 2.72
-20 2 1 37.79 2.89
-20 18 -1 33.26 2.98
-20 18 -1 34.29 2.96
-18 20 1 36.01 2.82
-18 -2 -1 37.41 2.84
-18 20 1 34.33 2.96
-20 2 1 34.71 2.86
-20 18 1 36.78 3.06
-18 20 -1 36.48 2.81
-18 -2 1 28.69 2.69
-18 20 -1 35.53 3
-20 2 -1 37.76 2.92
-20 19 -1 7.15 1.07
-20 19 -1 6.86 1.1
-19 20 1 4.74 0.96
-19 20 1 6.84 1.05
-19 -1 -1 8.47 1.27
-20 1 1 5.08 0.84
-20 1 1 6.96 1.25
-20 1 -1 7.27 1.23
-19 20 -1 6.9 1.18
-19 -1 1 6.18 1.07
-19 20 -1 4.36 0.98
-20 19 1 5.19 0.96
-19 -1 1 4.69 0.8
-20 20 -1 1.03 0.79
-20 20 -1 2.28 0.61
-20 20 1 1.14 0.44
-20 0 1 1.73 0.59
-20 0 1 1.92 0.6
-20 20 1 0.68 0.73
-20 0 -1 2.57 0.62
-21 11 -1 8.95 1.73
-21 10 1 8.1 1.33
-21 11 -1 8.44 1.23
-21 11 -1 5.91 0.89
-21 10 1 5.79 0.95
-11 21 1 9.6 1.2
-11 21 1 7.1 1.27
-10 21 -1 7.84 1.29
-21 10 1 8.73 1.72
-21 10 -1 5.98 1.02
-21 11 1 4.76 0.88
-10 21 1 6.19 0.88
-21 10 -1 7.46 1.2
-11 21 -1 6.55 0.9
-10 21 1 5.66 1.1
-21 11 1 5.49 1.04
-11 21 -1 7.15 1.11
-21 11 1 4 1.02
-21 10 -1 5.75 0.87
-21 9 1 36.51 3.09
-9 21 -1 36.59 3.17
-21 12 -1 43.11 3.32
-12 21 1 37.5 3.24
-21 12 -1 40.55 3.34
-9 21 -1 34.17 2.93
-21 9 1 35.32 3.16
-12 21 1 37.5 3.02
-21 9 -1 28.61 2.72
-12 21 -1 30.29 2.77
-9 21 1 29.23 2.74
-21 12 1 27.63 2.54
-12 21 -1 31.66 2.56
-21 12 1 31.52 2.79
-21 12 1 31.01 2.88
-9 21 1 28.29 2.55
-21 9 -1 34.2 2.83
-21 9 -1 29.48 2.58
-8 21 -1 9.94 1.61
-21 8 1 8.06 1.5
-21 13 -1 10.29 1.82
-21 8 1 10.32 1.57
-13 21 1 9.61 1.47
-13 21 1 9.8 1.3
-21 13 -1 12.75 2.04
-21 8 -1 10.5 1.54
-21 13 1 12.57 2.07
-21 8 -1 8.11 1.51
-8 21 1 9.4 1.32
-8 21 1 9.02 1.23
-21 13 1 8.56 1.34
-13 21 -1 11.17 1.72
-21 13 1 12.65 1.8
-21 8 -1 10.55 1.62
-13 21 -1 10.2 1.44
-14 21 1 17.55 2.18
-21 7 1 20.31 2.02
-21 14 -1 19.23 2.14
-14 21 1 18.24 1.84
-14 21 1 14.73 1.77
-7 21 -1 18.61 2
-14 21 -1 12.11 1.49
-7 21 1 11.34 1.58
-7 21 1 7.42 1.06
-21 7 -1 11.43 1.59
-21 14 1 11.81 1.76
-21 14 1 13.35 1.95
-21 14 1 8.17 1.17
-21 7 -1 9.49 1.31
-14 21 -1 13.15 1.71
-21 15 -1 6.53 1.11
-21 6 1 4.56 0.91
-15 21 1 4.36 1.08
-21 15 -1 5.69 1.03
-6 21 -1 5.17 0.97
-15 21 1 3.89 0.96
-15 21 1 5.78 0.85
-21 15 1 10.18 1.74
-6 21 1 10.79 1.58
-15 21 -1 11.31 1.76
-15 21 -1 10.17 1.52
-21 6 -1 10.3 1.57
-21 15 1 11.56 1.96
-16 -5 -1 5.46 0.88
-5 21 -1 4.79 0.87
-21 16 -1 5.36 1.01
-21 16 -1 9.36 1.71
-16 21 1 7.21 1.19
-16 21 1 6.12 1.05
-21 5 1 8.83 1.47
-16 21 1 5.62 0.97
-21 16 1 6.27 1.04
-16 21 -1 4.48 0.81
-5 21 1 2.98 0.85
-21 5 -1 5.09 0.89
-16 21 -1 4.22 0.91
-21 16 1 4.01 0.98
-21 4 1 21.07 1.96
-21 17 -1 19.98 2.02
-21 4 1 15.57 1.74
-21 17 -1 21.16 2.21
-17 21 1 16.99 2.07
-17 21 1 19.16 1.76
-17 -4 -1 17.96 1.68
-17 21 -1 7.45 0.97
-4 21 1 5.86 0.93
-21 4 -1 8.37 0.87
-21 3 1 5.65 0.81
-21 3 1 8.26 1.32
-21 18 -1 8.18 1.6
-21 18 -1 5.66 0.95
-18 21 1 5.51 0.98
-18 21 -1 14.87 1.46
-21 3 -1 10.35 1.33
-21 18 1 12.43 1.72
-18 -3 1 15.13 1.51
-21 3 -1 14.2 1.59
-21 18 1 13.84 1.77
-18 21 -1 12.15 1.61
-21 19 -1 1.68 0.8
-19 21 1 1.75 0.78
-19 -2 -1 2.28 0.59
-19 21 1 2.61 0.61
-21 2 1 0.89 0.56
-21 2 1 2.54 0.62
-19 21 -1 0.66 0.76
-21 2 -1 0.01 0.53
-19 -2 1 1.87 0.64
-19 -2 1 0.85 0.36
-21 19 1 1.76 0.8
-21 19 1 0.2 0.44
-21 2 -1 2.1 0.63
-19 21 -1 1.85 0.61
-21 1 1 3.83 0.61
-21 1 1 2.97 0.6
-20 21 1 2.78 0.56
-20 21 1 3.48 0.74
-21 20 -1 3.75 0.79
-21 20 -1 2.96 0.51
-20 -1 -1 5 0.9
-20 -1 -1 4.3 0.63
-21 20 1 4.63 0.78
-20 -1 1 4.41 0.77
-20 -1 1 5.54 0.96
-21 1 -1 7.28 1.05
-20 21 -1 6.99 1.05
-21 1 -1 4.81 0.68
-20 21 -1 4.39 0.85
-21 0 -1 7.71 0.95
-21 0 1 6.56 0.99
-21 0 -1 6.81 0.9
-21 21 -1 7.8 0.86
-21 21 -1 7.3 1.18
-21 21 1 6.39 1.15
-21 0 1 6.64 0.83
-22 11 -1 27.56 2.48
-22 11 1 22.39 2.17
-22 11 1 24.51 2.27
-11 22 1 24.31 2.43
-11 22 1 24.61 2.18
-22 11 -1 21.99 2.13
-22 11 1 24.27 2.43
-11 22 -1 23.71 2.15
-11 22 -1 24.84 2.39
-22 11 -1 25.41 2.43
-22 12 -1 2.97 0.63
-12 22 1 4.53 1
-12 22 1 3.91 0.76
-22 10 1 4.52 0.82
-10 22 -1 6.26 1
-22 10 1 3.33 0.68
-22 12 -1 4.45 0.95
-22 12 -1 5.87 1.06
-10 22 -1 2.96 0.75
-22 10 1 3.33 0.86
-22 12 1 2.05 0.73
-12 22 -1 2.38 0.92
-10 22 1 3.01 0.95
-12 22 -1 2.26 0.73
-22 12 1 2.25 0.93
-22 10 -1 2.19 0.98
-10 22 1 1.68 0.74
-22 12 1 2.89 0.92
-22 10 -1 1.46 0.72
-22 10 -1 1.83 0.8
-22 9 1 25.43 2.51
-9 22 -1 26.84 2.51
-22 13 -1 29.43 2.68
-13 22 1 28.32 2.38
-13 22 1 29.34 2.66
-22 13 -1 30.81 2.65
-22 9 1 28.28 2.46
-9 22 1 20.4 2.11
-13 22 -1 22.43 2.26
-13 22 -1 21.49 1.98
-22 13 1 21.28 1.98
-22 9 -1 20.18 2.01
-22 9 -1 18.38 2.14
-22 13 1 23.43 2.33
-22 13 1 25.01 2.29
-9 22 1 22.8 2.02
-22 9 -1 23.73 2.23
-22 8 1 0.57 0.65
-8 22 -1 0.94 0.83
-14 22 1 0.09 0.43
-22 14 -1 1.44 0.89
-22 14 -1 2.3 0.97
-14 22 1 0.94 0.68
-14 22 1 1.52 0.93
-22 8 1 1.66 0.77
-8 22 1 0.57 0.53
-22 8 -1 -0.15 0.65
-8 22 1 -0.41 0.8
-14 22 -1 -0.11 0.86
-22 14 1 -0.39 0.52
-22 14 1 -0.35 0.86
-22 8 -1 -0.42 0.54
-14 22 -1 0.44 0.63
-22 14 1 1.24 0.94
-22 8 -1 0.58 0.69
-22 7 1 16.5 1.77
-15 22 1 13.96 1.55
-7 22 -1 14.63 1.83
-15 22 1 12.21 1.53
-22 15 -1 15.27 1.81
-22 15 -1 17.71 2.13
-15 22 1 14.95 1.94
-22 15 1 12.83 1.73
-22 7 -1 10.68 1.48
-22 15 1 13.2 1.9
-15 22 -1 11.73 1.73
-7 22 1 11.77 1.65
-15 22 -1 10.33 1.41
-22 16 -1 20.03 2.04
-6 22 -1 20.78 2.01
-16 22 1 17.37 1.98
-16 22 1 18.91 1.85
-22 6 1 21.11 1.93
-16 22 1 20.31 2.09
-22 16 -1 20.61 2.16
-16 22 -1 18.52 1.76
-22 16 1 17.8 2.12
-22 16 1 17.98 2
-6 22 1 16.25 1.88
-22 6 -1 17.95 1.82
-16 22 -1 17.51 1.9
-22 5 1 4 0.74
-22 17 -1 5.1 0.92
-22 17 -1 4.1 0.92
-17 22 1 3.43 0.7
-17 22 1 3.39 0.88
-17 22 -1 8.22 1.2
-22 5 -1 7.24 1.27
-17 22 -1 5.7 1.1
-17 -5 1 8.98 1.21
-22 17 1 7.74 1.08
-22 17 1 8.76 1.64
-18 -4 -1 6.61 0.86
-22 4 1 9.25 1.18
-18 22 1 6.38 0.98
-22 18 -1 8.34 1.45
-22 4 1 6.29 0.91
-22 18 -1 8.16 1.53
-22 18 1 7.66 1.09
-18 -4 1 9.82 1.24
-22 4 -1 8.49 1.25
-18 22 -1 9.67 1.24
-22 18 1 7.9 1.56
-22 19 -1 4.31 0.76
-19 22 1 5.84 0.97
-22 3 1 6.75 1.04
-19 22 1 4.72 0.8
-22 19 -1 4.59 0.83
-19 -3 -1 4.73 0.78
-22 19 1 4.17 0.8
-22 19 1 1.89 0.55
-19 22 -1 2.54 0.56
-19 22 -1 3.07 0.63
-22 3 -1 4.19 0.65
-19 -3 1 3.24 0.63
-20 -2 -1 3.47 0.56
-20 22 1 3.68 0.71
-22 20 -1 3.88 0.72
-22 2 1 5.41 0.87
-20 22 1 4.34 0.72
-22 2 1 3.12 0.53
-20 -2 -1 4.13 0.71
-20 22 -1 6.31 0.98
-22 20 1 9.05 1.28
-22 2 -1 9.1 1.09
-20 22 -1 8.54 1.02
-20 -2 1 9.51 1.11
-21 -1 -1 4.9 0.68
-22 21 -1 5.22 0.95
-21 22 1 5.49 0.96
-22 1 1 4.97 0.74
-21 -1 -1 5.4 0.79
-22 1 1 4.86 0.65
-21 22 -1 4.14 0.7
-21 22 -1 5.17 0.69
-22 1 -1 5.72 0.79
-21 -1 1 5.55 0.8
-22 21 1 5.35 0.98
-23 11 1 14.34 1.62
-23 11 1 16.13 1.84
-12 23 1 15.32 1.55
-11 23 -1 15.66 1.59
-12 23 1 16.12 1.8
-23 12 -1 13.32 1.46
-23 12 -1 16.76 1.78
-11 23 -1 17.29 1.84
-23 12 -1 16.7 1.89
-23 11 1 12.61 1.45
-23 11 -1 15.41 1.79
-23 12 1 14.73 1.78
-11 23 1 14.38 1.51
-11 23 1 13.66 1.75
-23 11 -1 12.68 1.5
-12 23 -1 14.51 1.55
-23 11 -1 14.05 1.75
-23 12 1 13.3 1.51
-23 12 1 13.49 1.67
-12 23 -1 15.48 1.75
-10 23 -1 25.29 2.34
-23 13 -1 32 2.68
-13 23 1 30.16 2.44
-10 23 -1 31.17 2.59
-13 23 1 31 2.62
-23 10 1 29.91 2.5
-23 10 1 26.61 2.58
-23 13 -1 34.64 2.67
-23 10 -1 22.98 2.13
-10 23 1 24.7 2.12
-10 23 1 24.83 2.26
-23 10 -1 22.78 2.22
-23 13 1 24.62 2.41
-23 13 1 26.34 2.29
-13 23 -1 25.71 2.1
-23 13 1 21.52 2.08
-13 23 -1 27.12 2.31
-23 10 -1 24.94 2.27
-14 23 1 7.07 1.08
-23 9 1 6 1.21
-23 9 1 7.81 1.28
-23 14 -1 7.92 1.44
-23 14 -1 9.13 1.7
-14 23 1 7.65 1.17
-9 23 -1 6.93 1.04
-14 23 -1 3.99 0.91
-23 14 1 4.81 0.92
-23 14 1 4.41 0.91
-23 14 1 2.37 0.58
-23 9 -1 2.83 0.68
-23 9 -1 3.32 0.7
-9 23 1 4.13 0.88
-9 23 1 3.52 0.63
-14 23 -1 3.15 0.7
-23 15 -1 26.14 2.33
-15 23 1 20.76 1.96
-23 15 -1 22.49 2.17
-23 8 1 23.15 2.07
-15 23 1 21.65 2.23
-8 23 -1 22.3 2.16
-23 15 1 26.39 2.36
-23 8 -1 19.51 1.99
-8 23 1 22.08 2.15
-23 15 1 23.92 2.14
-15 23 -1 23.93 2.21
-15 -8 1 21.97 1.96
-15 23 -1 20.14 1.94
-23 7 1 4.2 0.75
-23 16 -1 5.1 0.89
-23 16 -1 7.16 1.5
-16 23 1 3.67 0.87
-16 23 1 3.52 0.68
-7 23 -1 2.27 0.8
-16 -7 1 3.31 0.65
-23 16 1 2.56 0.83
-16 23 -1 2.45 0.66
-23 16 1 3.21 0.81
-16 23 -1 3.96 0.9
-7 23 1 1.58 0.76
-23 7 -1 2.46 0.62
-23 17 -1 21.13 1.86
-17 23 1 14.11 1.57
-23 17 -1 20.69 1.95
-17 23 1 20.41 1.7
-17 23 -1 13.49 1.55
-17 -6 1 17.96 1.57
-23 17 1 17.39 1.91
-17 23 -1 17.17 1.6
-23 17 1 17.92 1.77
-23 6 -1 16.14 1.62
-23 5 1 9.07 1.2
-18 23 1 6.86 1.05
-23 18 -1 9.32 1.46
-23 18 -1 9.16 1.37
-18 23 1 9.19 1.08
-23 5 -1 3.54 0.65
-23 18 1 3.2 0.77
-18 -5 1 5.62 0.96
-23 18 1 5.01 0.86
-18 23 -1 4.15 0.65
-23 19 -1 4.04 0.7
-23 19 -1 5.62 0.78
-19 23 1 4.77 0.87
-19 23 1 6.51 0.88
-19 -4 -1 6.76 0.94
-23 4 1 6.91 0.93
-23 19 1 10.47 1.31
-19 23 -1 10.49 1.11
-19 -4 1 9.46 1.09
-23 4 -1 9.39 1.11
-20 -3 -1 7.41 0.9
-20 23 1 5.73 0.73
-23 20 -1 6.65 1.04
-23 3 1 7.22 0.82
-20 23 1 5.07 0.84
-20 -3 1 6.34 0.88
-23 20 1 7.23 1.11
-20 23 -1 6.38 0.86
-23 3 -1 6.5 0.87
-24 12 1 27.04 2.32
-24 12 1 29.06 2.51
-12 24 1 31.5 2.52
-12 24 -1 27.86 2.31
-24 12 -1 30.17 2.47
-12 24 1 29.97 2.33
-12 24 -1 32.34 2.56
-24 12 -1 26.28 2.47
-24 13 -1 3.21 0.75
-13 24 1 2.92 0.62
-24 11 1 2.91 0.69
-11 24 -1 3.95 0.85
-13 24 1 2.08 0.79
-24 13 -1 4.06 0.79
-24 11 1 1.71 0.6
-24 11 -1 1.9 0.64
-13 24 -1 1.8 0.61
-24 13 1 1.92 0.52
-24 13 1 3.05 0.74
-11 24 1 1.6 0.56
-11 24 1 2.81 0.83
-24 13 1 2.44 0.61
-24 11 -1 1.5 0.52
-13 24 -1 2.95 0.82
-24 11 -1 1.98 0.62
-14 24 1 8 1.1
-24 10 1 6.38 1.07
-10 24 -1 9.05 1.37
-24 14 -1 9.87 1.43
-24 14 -1 8.93 1.27
-14 24 1 9.05 1.4
-24 10 1 8.43 1.13
-24 10 -1 5.28 0.88
-10 24 1 6.59 0.92
-24 10 -1 6.2 0.97
-10 24 1 5.14 0.75
-24 10 -1 4.34 0.74
-14 24 -1 6.35 1.04
-14 24 -1 8.53 1.34
-24 14 1 4.78 0.73
-24 14 1 8.39 1.4
-9 24 -1 19.39 1.88
-15 24 1 18.42 1.84
-24 9 1 16.25 1.69
-15 24 1 19.54 1.73
-24 15 -1 20.52 1.87
-24 15 -1 21.03 1.96
-15 -9 1 8.64 0.85
-16 24 1 3.44 0.61
-24 16 -1 3.02 0.8
-24 8 1 3.69 0.65
-16 24 1 2.5 0.71
-24 16 -1 2.51 0.74
-8 24 -1 1.78 0.66
-24 16 1 1.91 0.7
-24 16 1 2.46 0.71
-24 8 -1 1.31 0.51
-16 24 -1 1.34 0.53
-16 24 -1 1.47 0.69
-16 -8 1 1.89 0.49
-24 7 1 15.63 1.43
-17 24 1 14.8 1.38
-24 17 -1 13.43 1.6
-24 17 -1 14.76 1.56
-17 -7 1 13.26 1.32
-17 24 -1 15.76 1.43
-24 7 -1 13.11 1.35
-24 17 1 16.72 1.53
-24 17 1 16.22 1.65
-18 -6 -1 1.57 0.51
-24 6 1 1.58 0.5
-24 18 -1 1.39 0.66
-18 24 1 1.61 0.51
-24 18 -1 1.45 0.62
-24 6 -1 1.14 0.51
-24 18 1 1.5 0.62
-18 -6 1 1.75 0.44
-18 24 -1 1.59 0.52
-24 18 1 1.25 0.57
-25 12 1 3.13 0.57
-25 13 -1 4.03 0.73
-13 25 1 4.21 0.71
-13 25 1 4.56 0.79
-25 12 1 2.46 0.47
-25 13 -1 2.8 0.6
-12 25 -1 4.56 0.8
-25 13 1 1.9 0.57
-13 25 -1 0.54 0.26
-25 12 -1 1.34 0.47
-12 25 1 2.43 0.73
-13 25 -1 2.47 0.72
-25 13 1 1.05 0.29
-25 12 -1 0.7 0.29
-12 25 1 1.62 0.34
-25 11 1 2.63 0.53
1 -1 2 209.53 15.49
-1 1 2 225.74 15.51
-1 0 -2 186.89 15.48
1 -1 2 227.31 15.51
-1 0 2 212.71 15.51
0 -1 2 231.47 15.49
-1 0 2 210.8 15.49
-1 1 2 217.89 15.48
-1 1 -2 239.35 15.48
0 1 2 219.6 15.51
1 0 -2 208.09 15.48
0 1 -2 201.69 15.48
1 -2 -2 243.87 17.85
-1 -1 2 240.23 17.88
1 -2 2 267.95 17.88
2 -1 2 213.34 17.86
1 -2 -2 220.84 17.87
2 -1 -2 243.99 17.86
-1 2 2 281.41 17.88
-1 2 2 230.68 17.84
-1 2 -2 264.75 17.85
-1 -1 2 226.08 17.87
1 1 2 273.22 17.88
-2 1 2 281.68 17.85
0 2 2 196.42 13.97
2 -2 -2 199.51 13.96
-2 2 2 213.61 13.94
0 -2 -2 196.69 13.97
2 -2 2 220.21 13.96
-2 2 2 162.17 13.96
2 0 2 219.04 13.97
0 -2 2 168.23 13.96
0 -2 2 213.33 13.95
-2 0 -2 173.5 13.94
-2 2 -2 205.69 13.94
-2 0 2 202.85 13.94
-2 2 -2 200.82 13.97
2 -2 -2 173.45 13.95
0 2 -2 184.68 13.93
-2 0 2 182.27 13.97
2 -2 2 196.83 13.97
2 0 2 189.18 13.96
2 -3 2 199.85 13.93
-3 1 2 193.9 13.93
-1 3 -2 170.25 13.88
1 -3 -2 206.1 13.93
-1 3 -2 210.15 13.94
-2 3 2 201.17 13.93
-3 1 2 196.12 13.9
3 -1 2 192.51 13.92
-3 2 -2 203.38 13.94
3 -2 -2 199.52 13.91
3 -1 2 180.58 13.91
3 -1 2 205.68 13.92
3 -2 -2 206.34 13.92
1 -3 -2 166.09 13.88
-1 -2 2 182.35 13.92
-3 2 -2 214.55 13.9
1 2 2 170.41 13.91
-2 3 2 173.95 13.89
2 -3 2 206.74 13.91
1 -3 2 176.37 12.94
2 1 2 154.05 12.91
2 -3 -2 174.95 12.91
2 -3 -2 203.8 12.94
-3 1 -2 186.38 12.91
1 -3 2 195.45 12.91
3 -1 -2 163.51 12.92
-2 -1 2 155.13 12.92
3 -2 2 161.4 12.92
3 -2 2 191.38 12.93
-2 3 -2 188.34 12.9
3 -2 2 158.75 12.91
-3 1 -2 191.47 12.94
-3 2 2 187.19 12.94
-2 3 -2 183.15 12.94
-3 2 2 196.14 12.91
-1 3 2 170.97 12.93
-2 -1 2 198.66 12.96
0 -3 2 399.16 28.43
0 3 2 426.73 28.47
-3 0 2 385.23 28.48
3 -3 2 401.64 28.47
3 -3 -2 346.74 28.44
-3 3 2 373.12 28.46
-3 3 2 422.33 28.44
0 -3 -2 405.07 28.47
0 -3 2 438.21 28.48
-3 0 -2 369.04 28.46
4 -2 2 286.47 23.67
4 -2 -2 296.65 23.68
4 -2 2 297.56 23.67
-4 2 2 348.5 23.66
-2 4 2 331.45 23.7
2 -4 2 344.82 23.67
2 -4 -2 291.35 23.65
-2 4 -2 297.24 23.64
-4 2 2 360.81 23.71
4 -2 -2 367.61 23.68
-2 4 -2 348.68 23.71
-4 2 -2 367.16 23.71
2 -4 -2 322.01 23.69
2 -4 2 359.22 23.71
3 -4 2 229.3 15.79
-4 3 -2 236.21 15.84
3 1 -2 187.11 15.79
4 -3 -2 206.65 15.8
-3 -1 -2 212.53 15.8
-1 -3 2 202.06 15.81
-1 4 -2 235.57 15.84
1 3 2 204.05 15.8
1 -4 -2 249.53 15.82
-4 1 2 218.16 15.78
3 -4 2 240.78 15.83
-4 1 2 228.91 15.83
-1 4 -2 191.13 15.76
4 -3 -2 224.64 15.8
-3 4 2 224.79 15.77
4 -1 2 236.98 15.81
-3 4 2 222.23 15.82
4 -1 2 207.53 15.8
-4 1 -2 244.46 15.96
-4 1 -2 228.45 15.91
-3 -1 2 196.03 15.9
-4 3 2 227.87 15.91
3 -4 -2 247.28 15.94
-1 4 2 216.43 15.95
4 -1 -2 199.88 15.92
1 -4 2 218.07 15.91
3 1 2 242.43 15.95
1 -4 2 219.77 15.95
-4 3 2 190.4 15.92
4 -1 -2 183.73 15.92
-4 3 2 243.51 15.97
4 -3 2 246.62 15.94
-3 4 -2 229.21 15.96
-3 4 -2 216.5 15.9
3 -4 -2 218.15 15.91
4 -4 2 52.95 3.89
-4 0 -2 53.09 3.92
4 0 -2 53.03 3.9
0 -4 2 49.28 3.92
4 -4 -2 57.6 3.89
4 -4 2 45.98 3.91
-4 0 2 51.99 3.87
-4 4 2 51.51 3.91
4 0 -2 52.96 3.9
-4 4 -2 58.92 3.88
-4 4 -2 55.07 3.96
0 4 2 48.97 3.91
4 -4 -2 58.15 3.91
0 -4 2 51.06 3.86
-4 4 2 56.8 3.94
-4 0 -2 54.3 3.87
4 0 2 55.52 3.92
-4 0 2 57.82 3.95
-4 4 2 49.88 3.87
-5 2 2 241.33 16.14
-2 -3 2 255.79 16.21
2 -5 -2 200.79 16.11
-3 -2 -2 215.01 16.15
3 -5 2 245.33 16.2
-5 2 2 241.72 16.2
3 -5 2 236.77 16.14
-3 5 2 199.95 16.11
-5 3 -2 244.19 16.14
5 -2 2 232.03 16.16
5 -3 -2 240.4 16.16
5 -2 2 222.96 16.16
-2 5 -2 225.51 16.19
-2 -3 2 202.67 16.15
-3 5 2 206.38 16.16
5 -3 -2 198.79 16.15
-5 3 -2 244.54 16.2
-2 5 -2 190.7 16.11
3 -5 -2 241.75 15.46
5 -3 2 206.54 15.43
3 -5 -2 218.59 15.41
5 -2 -2 207.28 15.44
-5 2 -2 235.57 15.48
-3 -2 2 181.01 15.4
5 -3 2 206.98 15.44
2 -5 2 223.67 15.41
-5 3 2 228.98 15.49
5 -2 -2 205.84 15.44
-3 5 -2 191.76 15.4
-2 -3 -2 195.58 15.43
-5 3 2 219.4 15.42
-3 5 -2 225.74 15.48
2 -5 2 231.34 15.48
-4 5 2 148.83 11.29
4 1 -2 151.29 11.25
1 -5 -2 170.04 11.28
-5 4 -2 158.65 11.24
4 -5 2 157.51 11.29
-4 -1 -2 144.26 11.26
-5 1 2 160.84 11.3
-5 4 -2 169.47 11.32
-1 -4 2 153.29 11.27
5 -4 -2 151.85 11.25
-1 -4 2 167.45 11.3
-4 5 2 158.27 11.22
4 -5 2 157.86 11.24
-5 1 2 153.91 11.23
-1 5 -2 152.54 11.29
5 -4 -2 157.85 11.27
5 -1 2 155.17 11.26
5 -1 2 142.19 11.25
1 -5 2 148.12 9.92
5 -1 -2 121.57 9.88
-5 1 -2 144.72 9.86
4 1 2 148.01 9.9
4 -5 -2 146.57 9.89
5 -4 2 130.8 9.87
-4 -1 2 134.44 9.84
5 -4 2 137.87 9.87
4 -5 -2 133.36 9.85
-1 -4 -2 116.16 9.86
-5 1 -2 145.66 9.92
-4 5 -2 125.77 9.84
-1 -4 -2 137.41 9.9
-5 4 2 140.56 9.85
1 -5 2 133.55 9.84
-5 4 2 149.23 9.93
5 -1 -2 129.6 9.87
-4 -1 2 139.06 9.92
-4 5 -2 138.91 9.92
5 -5 -2 551.54 37.83
-5 0 2 505.79 37.81
5 -5 2 466.08 37.85
-5 5 2 557.43 37.81
5 0 2 510.77 37.85
5 0 -2 474 37.84
5 -5 2 531.6 37.83
-5 0 2 535.09 37.88
-5 0 -2 486.01 37.81
-5 5 -2 574.7 37.82
-5 0 -2 535.75 37.86
0 -5 2 566.63 37.88
0 -5 -2 518.24 37.85
-5 5 -2 571.28 37.9
6 -3 2 94.22 6.9
3 -6 2 99.2 6.87
6 -3 -2 86.97 6.89
3 -6 -2 107.54 6.92
-3 6 -2 92.84 6.84
-3 6 -2 101.6 6.95
3 -6 -2 93.3 6.85
-6 3 2 99.93 6.96
-3 -3 2 81.03 6.87
-3 6 2 86.57 6.9
3 -6 -2 84.31 6.85
-3 -3 -2 98.32 6.91
6 -3 -2 80.45 6.89
-6 3 2 95.4 6.87
3 -6 2 106.92 6.96
6 -3 2 99.34 6.91
-6 3 -2 109.07 6.89
-2 6 -2 241.16 17.54
6 -4 -2 269.13 17.51
-6 4 -2 262.32 17.56
4 -6 2 260.24 17.56
-4 -2 -2 226.6 17.51
-2 -4 2 273.44 17.57
-6 2 2 255.81 17.48
2 -6 -2 260.62 17.52
-6 2 2 253.29 17.56
-2 -4 2 216.31 17.45
-6 4 -2 263.25 17.49
6 -2 2 254.12 17.51
4 2 -2 208.53 17.48
6 -2 2 227.44 17.5
4 -6 2 232.39 17.48
6 -4 -2 243.77 17.51
-4 6 2 211.73 17.45
-2 -4 2 219.98 17.5
4 -6 -2 219.88 16.51
-4 -2 2 194.52 16.5
6 -2 -2 218.12 16.55
-6 4 2 232.41 16.52
-2 -4 -2 228.03 16.55
6 -4 2 219.9 16.54
2 -6 2 244.3 16.6
-6 2 -2 250.43 16.53
4 2 2 236.85 16.57
6 -2 -2 233.93 16.55
-4 6 -2 206.35 16.5
-6 4 2 238.85 16.61
2 -6 2 224.1 16.51
-4 -2 2 245.41 16.61
4 -6 -2 230.82 16.56
6 -4 2 230.24 16.55
-6 2 -2 250.46 16.6
-4 6 -2 235.27 16.61
-6 5 -2 170.36 11.91
-1 -5 2 167.21 11.87
6 -5 -2 155.58 11.83
5 1 -2 158.51 11.85
-6 1 2 177.15 11.91
-1 -5 2 169.49 11.8
-6 1 2 161.61 11.81
-6 5 -2 172.61 11.82
-5 -1 -2 167.03 11.87
-5 6 2 174.07 11.91
5 -6 2 161.87 11.83
-1 -5 2 173.08 11.89
6 -1 2 141.68 11.83
6 -1 2 156.17 11.85
5 -6 2 149.97 11.87
1 -6 -2 170.81 11.86
-6 5 2 142.9 10.52
5 -6 -2 148.25 10.53
-5 -1 2 139.76 10.5
1 -6 2 155.95 10.6
-6 1 -2 155.63 10.6
1 -6 2 144.12 10.5
5 1 2 148.97 10.56
6 -5 2 126.46 10.54
6 -1 -2 136.21 10.55
5 -6 -2 152.73 10.56
-1 -5 -2 140.9 10.55
-5 6 -2 152.93 10.61
-6 5 2 150.68 10.6
-5 6 -2 131.84 10.5
6 -5 2 155.18 10.55
-5 -1 2 155.16 10.61
1 -6 2 138.57 10.49
6 -1 -2 135.94 10.55
-1 -5 -2 160.46 10.58
-6 1 -2 148.68 10.52
-6 6 2 13.98 1.12
-6 6 -2 14.45 1.33
6 -6 2 13.19 1.14
-6 0 -2 13.16 1.14
6 0 2 13.76 1.2
6 -6 2 11.99 1.14
6 -6 -2 13.93 1.16
-6 0 2 14.25 1.29
-6 0 -2 15.94 1.27
-6 6 -2 12.68 1.12
0 -6 2 15.44 1.1
6 -6 2 14.6 1.22
6 0 -2 14.72 1.21
-6 6 2 14.43 1.29
0 -6 -2 12.36 1.16
-6 0 2 14.86 1.13
0 -6 -2 14.55 1.2
6 -6 -2 14.37 1.21
0 -6 2 15.96 1.27
7 -3 2 151.46 11.49
7 -4 -2 134.72 11.48
4 -7 2 171.57 11.56
-4 -3 -2 151.07 11.41
-7 3 2 156.47 11.45
7 -3 2 161.96 11.49
-7 3 2 153.61 11.54
-4 -3 -2 155.92 11.5
-7 4 -2 163.95 11.55
3 -7 -2 166.98 11.44
-7 4 -2 173.59 11.47
3 -7 -2 169.07 11.5
4 -7 2 153.74 11.45
-3 7 -2 163.58 11.55
7 -4 -2 157.15 11.48
7 -3 -2 155.06 12.11
-7 4 2 158.68 12.17
-7 4 2 165.29 12.08
-7 3 -2 174.2 12.09
4 -7 -2 164.67 12.06
4 -7 -2 176.58 12.13
3 -7 2 168.61 12.07
7 -4 2 158.61 12.11
7 -3 -2 161.35 12.12
-3 -4 -2 158.06 12.12
-4 7 -2 172.54 12.17
-4 -3 2 189.05 12.2
-4 7 -2 155.23 12.05
7 -4 2 160.11 12.11
3 -7 2 157.81 12.07
4 -7 -2 176.79 12.08
3 -7 2 177.17 12.18
-7 3 -2 173.29 12.17
-4 -3 2 184.3 12.07
7 -5 -2 370.91 26.67
-7 2 2 379.77 26.74
5 2 -2 323.34 26.67
-5 -2 -2 359.53 26.69
-7 2 2 384.99 26.65
-5 -2 -2 324.71 26.62
7 -2 2 357.45 26.69
7 -5 -2 341.56 26.68
5 -7 2 352.35 26.65
-7 5 -2 412.13 26.76
-2 7 -2 401.61 26.75
-2 -5 2 400.42 26.63
2 -7 -2 359.33 26.62
-7 5 -2 397.02 26.66
2 -7 -2 381.39 26.69
-2 -5 2 354.81 26.69
-2 -5 2 412.59 26.75
5 -7 2 370.19 26.73
7 -2 2 371.31 26.69
-5 -2 2 378.4 25.52
-5 -2 2 301.8 25.41
-7 2 -2 381.86 25.43
7 -2 -2 320.25 25.45
-5 7 -2 376.53 25.52
-2 -5 -2 384.42 25.48
-7 2 -2 377.89 25.51
7 -5 2 348.35 25.45
2 -7 2 351.58 25.41
-7 5 2 348.97 25.51
-2 -5 -2 349.45 25.46
-5 7 -2 336.15 25.4
5 -7 -2 380.86 25.47
5 2 2 330.06 25.46
2 -7 2 379.94 25.52
2 -7 2 338.45 25.39
5 -7 -2 339.46 25.41
-7 5 2 345.72 25.42
7 -5 2 359.06 25.46
-7 1 2 11.69 1.05
-7 6 -2 14.35 1.07
7 -1 2 10.88 1.07
7 -6 -2 11.14 1.14
6 -7 2 12.82 1.17
-6 -1 -2 12.51 1.02
-1 -6 2 11.65 1.2
1 -7 -2 12.07 1.13
-1 -6 2 13.42 1
6 1 -2 14.5 1.15
-6 -1 -2 12.36 1.2
-6 7 2 13.41 1.04
-6 7 2 14.19 1.26
-7 6 -2 14.09 1.24
7 -6 -2 12.41 1.1
-1 -6 2 12.34 1.19
6 -7 2 11.52 1.07
7 -1 2 11.9 1.16
-7 1 2 13.88 1.21
1 -7 2 7.62 0.91
7 -6 2 6.4 0.77
7 -6 2 6.91 0.8
-6 7 -2 6.24 0.68
-6 7 -2 7.76 0.94
7 -1 -2 8.38 0.82
6 1 2 8.5 0.86
6 -7 -2 8.04 0.79
1 -7 2 7.99 0.68
-7 1 -2 8.27 0.93
-6 -1 2 5.93 0.66
-7 1 -2 6.9 0.76
-7 6 2 6.8 0.72
-1 -6 -2 7.62 0.79
-6 -1 2 7.55 0.69
6 -7 -2 7.79 0.76
-6 -1 2 7.98 0.96
-7 6 2 6.52 0.94
7 -1 -2 7.1 0.77
-1 -6 -2 8.47 0.85
7 -6 2 8.24 0.8
7 -7 2 28.69 2.25
-7 7 2 31.27 2.33
-7 7 2 29.77 2.16
0 -7 2 31.36 2.12
0 -7 2 26.89 2.27
7 0 -2 29.03 2.2
7 0 2 28.1 2.24
-7 0 2 30.68 2.31
0 -7 -2 27.52 2.19
-7 0 -2 25.65 2.13
-7 7 -2 27.23 2.15
7 0 -2 32.33 2.25
-7 0 2 28.41 2.16
7 -7 -2 29.35 2.18
-7 0 -2 24.12 2.14
7 -7 2 27.33 2.18
7 -7 2 25.48 2.17
-7 0 -2 28.59 2.28
0 -7 -2 30.2 2.23
-7 7 -2 28.65 2.31
-8 4 -2 170.57 11.85
-4 8 2 142.12 11.89
8 -4 -2 157.05 11.88
-8 4 2 163.71 11.96
-4 -4 2 184.26 11.82
-4 -4 -2 154.97 11.89
-4 8 -2 164.82 11.95
4 -8 -2 176.33 11.83
4 -8 2 172.22 11.96
-4 -4 -2 149.53 11.78
4 -8 2 141.98 11.83
8 -4 2 164.06 11.89
-8 4 -2 169.6 11.95
4 -8 2 163.88 11.83
4 -8 -2 176.84 11.89
-4 -4 2 178.02 11.96
8 -4 2 162.15 11.89
-8 4 2 164.17 11.84
-3 -5 2 55.76 4.26
8 -3 2 57.36 4.22
8 -3 2 60.15 4.22
5 -8 2 60.69 4.29
3 -8 -2 60.21 4.21
8 -5 -2 56.19 4.18
-8 3 2 52.73 4.14
5 3 -2 52.84 4.18
-5 -3 -2 57.43 4.1
3 -8 -2 60.97 4.12
-5 8 2 56.16 4.25
-8 5 -2 59.29 4.3
-8 3 2 52.84 4.27
5 -8 2 55.15 4.14
-3 -5 2 63.44 4.12
-5 -3 -2 50.41 4.21
5 -8 2 48 4.14
-3 8 -2 58.27 4.28
8 -5 -2 55.43 4.2
-8 5 -2 57.76 4.16
-3 8 2 53.72 4.39
-5 8 -2 66.3 4.51
5 -8 -2 58.97 4.33
-3 -5 -2 50.72 4.27
5 -8 -2 56.4 4.34
3 -8 2 62.8 4.5
5 -8 -2 62.22 4.41
3 -8 2 59.42 4.32
-8 3 -2 61.46 4.49
8 -5 2 55.36 4.39
8 -3 -2 59.68 4.4
-3 -5 -2 55.9 4.41
3 -8 2 62.71 4.34
8 -5 2 58.84 4.4
8 -3 -2 59.13 4.4
-8 3 -2 61.56 4.37
-5 -3 2 65.67 4.34
-5 -3 2 63.46 4.5
-8 5 2 60.66 4.49
-8 5 2 60.73 4.35
-5 8 -2 53.17 4.31
-8 2 2 17.86 1.52
6 2 -2 18.15 1.47
-8 2 2 17.7 1.37
-2 -6 2 17.2 1.52
8 -2 2 16.78 1.44
-6 8 2 17.18 1.59
-2 -6 2 16.46 1.46
-6 -2 -2 16.18 1.51
-6 8 2 15.99 1.3
2 -8 -2 16.29 1.29
-8 6 -2 17.7 1.6
-2 -6 2 19.3 1.3
8 -6 -2 16.74 1.39
6 -8 2 15 1.5
8 -6 -2 17.14 1.44
-8 6 -2 17.49 1.38
2 -8 -2 16.87 1.53
8 -2 2 14.96 1.42
2 -8 -2 18.43 1.45
6 -8 2 15.78 1.38
-6 -2 2 15.29 1.41
8 -6 2 17.68 1.55
-6 -2 2 16.53 1.43
8 -6 2 20.09 1.56
-6 8 -2 17.84 1.43
-8 6 2 18.01 1.46
8 -2 -2 20.74 1.57
2 -8 2 20.01 1.68
-2 -6 -2 17.54 1.55
6 -8 -2 19.44 1.47
-8 6 2 18.52 1.67
-8 2 -2 18.9 1.49
2 -8 2 18.6 1.44
8 -2 -2 20.22 1.55
6 -8 -2 15.65 1.44
6 -8 -2 20.61 1.57
-6 8 -2 19.02 1.68
-6 -2 2 19.51 1.63
-8 2 -2 18.54 1.67
-2 -6 -2 18.27 1.55
6 2 2 17.59 1.55
8 -7 -2 83.73 6.39
7 -8 2 84.95 6.47
-1 -7 2 90.6 6.33
7 1 -2 89.81 6.44
1 -8 -2 87.47 6.41
-1 -7 2 87.93 6.46
-8 7 -2 83.62 6.36
-1 -7 2 84.01 6.46
7 -8 2 84.68 6.39
8 -7 -2 89.66 6.42
-7 -1 -2 86.7 6.46
-7 8 2 84.92 6.35
-8 1 2 88.18 6.5
-7 8 2 89 6.51
8 -7 -2 93.96 6.49
1 -8 -2 89.88 6.49
-8 1 2 86.16 6.37
-8 7 -2 94 6.52
-7 -1 -2 83.53 6.35
8 -1 2 89.08 6.44
-8 1 -2 70.81 5.84
7 -8 -2 78.46 5.86
8 -1 -2 76.12 5.91
-1 -7 -2 82.68 5.91
-7 -1 2 68.82 5.84
7 -8 -2 89.73 5.93
8 -7 2 76.76 5.89
-7 -1 2 78.24 5.84
7 -8 -2 76.01 5.97
1 -8 2 83.85 5.82
7 1 2 89.75 5.94
-8 1 -2 79.59 5.86
-8 1 -2 84.29 5.98
8 -7 2 87.92 5.9
8 -7 2 73.03 5.9
-8 7 2 75.42 5.85
-1 -7 -2 82.8 5.94
8 -1 -2 89.08 5.93
1 -8 2 81.86 5.97
-7 8 -2 77.48 5.83
-1 -7 -2 72.56 5.89
-8 7 2 83.6 6
-7 8 -2 84.56 6.01
-7 -1 2 86.86 5.99
-8 8 -2 2.15 0.42
8 -8 -2 2.52 0.51
8 -8 -2 2.34 0.53
0 -8 2 2.29 0.34
-8 8 2 2.26 0.44
0 -8 2 1.7 0.48
-8 0 2 1.83 0.67
-8 0 -2 2.19 0.4
-8 0 2 1.98 0.38
0 -8 -2 1.82 0.5
8 -8 -2 2.13 0.48
8 -8 2 3.35 0.64
8 -8 2 2.16 0.46
-8 8 2 1.76 0.71
8 0 -2 2.3 0.54
8 0 2 3.31 0.61
8 0 -2 1.91 0.41
-8 0 -2 2.27 0.42
-8 8 -2 3.67 0.88
0 -8 -2 2.25 0.5
-8 0 -2 2.33 0.7
0 -8 -2 2.17 0.49
8 -8 2 2.27 0.51
-4 -5 2 19.24 1.33
-9 5 -2 17.41 1.43
-5 -4 -2 15.74 1.51
9 -5 -2 16.43 1.45
5 -9 2 15.54 1.38
9 -4 2 16.73 1.53
4 -9 -2 16.53 1.59
9 -4 2 16.64 1.5
-5 9 2 16.85 1.52
-9 4 2 16.71 1.4
-4 -5 2 17.92 1.64
5 -9 2 15.77 1.37
9 -5 -2 16.96 1.47
4 -9 -2 17.74 1.49
-9 5 -2 17.37 1.64
5 -9 2 16.59 1.64
-4 9 -2 19.3 1.61
-5 -4 -2 16.07 1.29
4 -9 -2 17.83 1.35
-9 4 2 15.38 1.61
-9 5 2 20.69 1.57
4 -9 2 19.9 1.52
9 -4 -2 19.8 1.64
-5 9 -2 22.07 1.82
5 -9 -2 21.07 1.67
-5 -4 2 21.83 1.81
-4 -5 -2 17.73 1.43
-9 4 -2 19.96 1.6
-4 -5 -2 17.85 1.67
5 -9 -2 17.78 1.48
-9 4 -2 19.77 1.8
4 -9 2 19.05 1.79
-4 9 2 16.75 1.63
-5 -4 2 22.26 1.52
5 -9 -2 19.78 1.74
-9 5 2 16.42 1.75
5 -9 -2 21.51 1.54
9 -5 2 19.12 1.67
4 -9 2 18.45 1.54
9 -5 2 17.34 1.61
9 -3 2 92.99 7.16
-9 6 -2 97.44 7.23
6 -9 2 93.91 7.09
-3 -6 2 105.3 7.05
9 -6 -2 100.4 7.16
-3 -6 2 102.53 7.23
-6 -3 -2 99.91 7.05
6 3 -2 95.83 7.14
9 -6 -2 104.47 7.14
3 -9 -2 95.49 7.14
3 -9 -2 101.1 7.05
-3 9 -2 109.35 7.26
-9 3 2 94.49 7.22
6 -9 2 95 7.23
-9 6 -2 98.03 7.1
-6 9 2 101.33 7.22
-6 -3 -2 88.91 7.17
3 -9 -2 101.23 7.23
6 -9 2 86.27 7.09
9 -3 2 87.74 7.14
-9 3 2 97.87 7.09
9 -6 2 99.86 7.58
-9 6 2 105.86 7.54
-6 -3 2 114.19 7.7
6 -9 -2 100.72 7.66
6 -9 -2 96.79 7.53
-6 9 -2 114.8 7.71
-9 6 2 105.62 7.69
9 -3 -2 94.38 7.58
-9 3 -2 106.14 7.55
-3 -6 -2 95.8 7.6
9 -3 -2 104.86 7.6
-3 -6 -2 103.74 7.6
-3 -6 -2 87.68 7.45
-9 3 -2 103.75 7.67
3 -9 2 111.06 7.69
9 -6 2 106.74 7.6
-6 -3 2 109.1 7.52
3 -9 2 110.23 7.52
6 -9 -2 104.38 7.6
6 -9 -2 101.85 7.52
9 -7 -2 354.92 26.02
-7 -2 -2 385.17 25.94
2 -9 -2 359.79 25.91
7 2 -2 353.55 26.03
2 -9 -2 379.88 26.08
-9 7 -2 384.37 26.12
-2 -7 2 320.14 26.01
-7 -2 -2 338.09 26.04
7 -9 2 376.55 26.1
2 -9 -2 319.78 25.99
-9 2 2 357.89 25.96
9 -7 -2 370.31 26
-2 -7 2 363.88 26.07
-9 7 -2 400.5 25.98
-9 2 2 385.96 26.1
7 -9 2 336.42 25.97
-2 -7 2 367.66 25.92
-7 9 2 351.74 26.09
9 -2 2 360.01 26.03
9 -2 -2 356.18 23.93
7 -9 -2 322.17 23.86
7 2 2 327.03 23.92
2 -9 2 362.06 23.99
-7 9 -2 355.13 24
-2 -7 -2 341.84 23.9
-9 2 -2 338.16 23.86
-9 7 2 295.54 23.96
7 -9 -2 358.01 23.93
7 -9 -2 340.09 23.85
-7 -2 2 304.03 23.84
9 -7 2 334.64 23.9
2 -9 2 353.02 23.83
-7 -2 2 366.27 24
-9 2 -2 333.54 23.97
7 -9 -2 285.02 23.94
-7 9 -2 310.45 23.82
9 -2 -2 337.21 23.92
9 -7 2 335.94 23.9
-2 -7 -2 281.34 23.89
8 -9 2 53.31 3.89
-8 9 2 47.26 3.83
-8 -1 -2 51.71 3.84
9 -1 2 57.26 3.97
-9 8 -2 56.75 4.1
-9 1 2 51.04 4.02
-1 -8 2 52.55 3.98
1 -9 -2 47.91 4
-1 -8 2 49.49 3.98
9 -8 -2 58.78 3.97
-9 1 2 53.92 3.87
-8 9 2 52.63 4.06
-1 -8 2 53.22 3.8
8 1 -2 54.73 3.97
-9 8 -2 49.68 3.85
9 -8 -2 50.13 3.89
-8 -1 -2 52.69 4
8 -9 2 57.27 4.02
9 -8 -2 45.65 3.96
1 -9 -2 47.75 3.89
8 -9 -2 57.68 4.08
1 -9 2 54.98 3.91
8 1 2 58.87 4.05
-1 -8 -2 47.27 4.05
-9 1 -2 53.6 4.13
9 -1 -2 45.65 4
8 -9 -2 55.52 4.12
9 -1 -2 59.29 4.08
9 -8 2 48.8 3.99
-9 8 2 56.35 4.15
9 -8 2 46.3 4
-8 -1 2 57.67 4.15
-1 -8 -2 51.73 4.01
-8 9 -2 52.22 3.93
9 -8 2 59.01 4.02
-8 -1 2 51.69 3.95
-9 1 -2 53.02 3.96
-8 -1 2 46.35 3.93
8 -9 -2 56.41 3.98
-8 9 -2 59.23 4.18
-9 8 2 56.69 3.96
-9 1 -2 51.33 3.95
1 -9 2 54.1 4.11
8 -9 -2 50.99 3.97
-9 9 2 54.22 3.94
-9 9 2 56.06 4.16
9 -9 -2 55.14 3.99
-9 0 2 47.1 3.94
9 0 2 59.78 4.09
-9 0 2 53.38 4.14
9 -9 2 54.34 3.99
9 0 -2 56.02 4.07
0 -9 2 55.36 4.11
-9 9 -2 58.82 4.21
-9 9 -2 53.5 3.94
0 -9 -2 48.37 3.97
-9 0 -2 44.83 3.91
-9 0 -2 51.82 4.11
9 -9 2 52.52 4.06
9 -9 -2 55.77 4.11
0 -9 2 54.64 4.1
0 -9 2 52.01 3.89
0 -9 -2 48.54 4.08
9 -9 -2 52.58 4.03
-9 0 2 50.91 3.94
-9 0 -2 57.29 3.95
5 -10 2 68.77 4.84
-10 5 -2 60.77 4.65
-10 5 -2 60.78 4.8
5 -10 -2 69.5 4.61
10 -5 -2 65.11 4.7
-5 -5 2 67.99 4.82
-5 -5 -2 58.45 4.54
10 -5 -2 65.48 4.71
5 -10 -2 62.17 4.78
5 -10 -2 65.8 4.7
5 -10 2 63.16 4.6
-5 10 2 55.35 4.71
10 -5 2 63.77 4.72
-10 5 2 58.31 4.79
-5 -5 2 68.63 4.59
5 -10 2 59.49 4.62
-10 5 2 65.27 4.64
10 -5 2 60.9 4.71
-5 -5 -2 53.59 4.71
6 -10 2 16.48 1.42
4 -10 -2 18.64 1.36
-4 10 -2 17.12 1.66
10 -6 -2 17.49 1.54
10 -4 2 16.31 1.56
-4 -6 2 18.47 1.33
-10 6 -2 17.96 1.47
-4 -6 2 18.18 1.7
-10 6 -2 17.46 1.73
4 -10 -2 16.06 1.5
-6 -4 -2 15.93 1.31
6 -10 2 17.07 1.76
10 -4 2 16.23 1.53
-10 4 2 18.04 1.44
4 -10 -2 16.74 1.67
-6 -4 -2 13.93 1.58
6 -10 2 15.69 1.43
10 -6 -2 16.61 1.5
-6 10 2 16.71 1.59
-10 4 2 16.53 1.7
-6 -4 2 15.91 1.2
10 -6 2 14.36 1.42
-10 6 2 16.61 1.28
-6 -4 2 15.41 1.58
6 -10 -2 12.17 1.15
6 -10 -2 14.76 1.23
-10 4 -2 13.4 1.54
-4 -6 -2 13.11 1.38
10 -4 -2 15.12 1.36
4 -10 2 16.2 1.61
-4 -6 -2 13.2 1.08
10 -4 -2 15.59 1.4
6 -10 -2 17.61 1.53
10 -6 2 14.61 1.38
6 -10 -2 14.68 1.42
-10 4 -2 13.27 1.31
-10 6 2 15.43 1.54
-4 10 2 11.7 1.31
4 -10 2 14.25 1.23
7 -10 2 57.47 4.26
10 -3 2 58.07 4.36
7 -10 2 49.04 4.4
3 -10 -2 59.73 4.2
-3 -7 2 58.51 4.42
-7 -3 -2 59.16 4.21
3 -10 -2 53.84 4.3
10 -7 -2 61.45 4.32
7 -10 2 55.06 4.27
10 -7 -2 61.29 4.35
-10 7 -2 56.42 4.47
10 -3 2 54.3 4.33
-10 3 2 61.64 4.47
-7 10 2 52.78 4.41
-10 7 -2 63.36 4.28
7 3 -2 55.49 4.32
3 -10 -2 59.82 4.44
-10 3 2 62.25 4.28
-7 -3 -2 52.97 4.36
-3 -7 2 58.49 4.19
7 -10 -2 57.93 4.64
7 -10 -2 61.74 4.63
-10 3 -2 61.29 4.66
-3 -7 -2 55.35 4.69
-7 10 -2 71.63 4.89
3 -10 2 62.62 4.83
-10 3 -2 62.17 4.82
10 -3 -2 59.96 4.72
3 -10 2 64.61 4.62
-7 -3 2 58.41 4.61
7 -10 -2 70.31 4.76
10 -3 -2 66.77 4.74
-10 7 2 64.68 4.85
10 -7 2 64.07 4.72
10 -7 2 64.26 4.73
-7 -3 2 70.38 4.87
7 -10 -2 57.16 4.78
2 -10 -2 85 6.19
-2 -8 2 86.62 6.2
-8 10 2 88.26 6.45
8 2 -2 86.25 6.36
8 -10 2 86.61 6.43
-10 2 2 97.17 6.47
2 -10 -2 82.44 6.41
10 -2 2 85.32 6.37
-10 8 -2 80.93 6.26
-10 8 -2 93.33 6.49
-8 -2 -2 76.73 6.38
10 -8 -2 83.67 6.35
-10 2 2 86.01 6.27
8 -10 2 74.06 6.27
10 -8 -2 91.76 6.32
-2 -8 2 86.52 6.4
8 -10 2 88.63 6.28
-8 -2 -2 84.9 6.23
-8 -2 2 83.85 6.37
8 -10 -2 93.43 6.54
10 -2 -2 76.13 6.44
10 -8 2 83.54 6.44
-2 -8 -2 80.28 6.43
10 -8 2 94.68 6.46
-10 2 -2 89.76 6.56
8 -10 -2 95.92 6.4
2 -10 2 90.58 6.35
-10 2 -2 79.68 6.39
-8 -2 2 94.01 6.58
-10 8 2 86.8 6.39
10 -2 -2 88.43 6.49
2 -10 2 90.91 6.55
-10 8 2 92.47 6.59
8 2 2 84.73 6.48
-8 10 -2 93.05 6.61
8 -10 -2 87.94 6.41
8 -10 -2 76.07 6.46
10 -9 -2 30.49 2.5
-9 -1 -2 27.23 2.57
10 -1 2 31.78 2.52
9 -10 2 33.08 2.56
-1 -9 2 30.15 2.59
-10 9 -2 29.93 2.66
-10 9 -2 27.31 2.36
9 -10 2 30.39 2.43
1 -10 -2 30.95 2.25
-10 1 2 28.78 2.37
-9 10 2 33.96 2.64
1 -10 -2 30.62 2.58
-9 -1 -2 29.72 2.34
-10 1 2 35.31 2.66
9 1 -2 32.31 2.52
-10 1 2 30.85 2.38
10 -9 -2 32.31 2.46
-1 -9 2 30.76 2.28
-1 -9 2 27.27 2.48
-1 -9 -2 23.11 2.17
10 -1 -2 29.4 2.23
9 -10 -2 26 2.24
-10 9 2 21.74 2.27
-10 1 -2 22.71 2.02
9 -10 -2 29.94 2.24
-10 1 -2 24.13 2.05
-9 -1 2 24.55 2.04
10 -9 2 29.72 2.15
1 -10 2 26.65 2.28
9 1 2 28.71 2.24
9 -10 -2 26.45 2.07
-9 10 -2 22.96 2
-9 10 -2 27.17 2.38
9 -10 -2 28.25 2.11
-10 1 -2 26.1 2.3
-10 9 2 25.06 2.04
-9 -1 2 26.6 2.28
1 -10 2 25.33 1.97
-10 10 2 3 0.48
10 0 2 3.06 0.81
-10 10 2 3.75 0.9
-10 0 -2 3.11 0.53
0 -10 2 4 0.91
0 -10 2 2.7 0.5
-10 10 -2 4.97 1.12
10 0 -2 4.9 0.95
10 -10 -2 3.21 0.64
-10 10 -2 2.89 0.5
10 -10 -2 2.85 0.69
-10 0 2 3.32 0.97
-10 0 -2 3.6 0.92
0 -10 2 2.34 0.61
-10 0 2 2.32 0.48
10 -10 2 3.78 0.67
-11 6 -2 42.42 3.53
-11 5 2 41.62 3.54
-5 -6 2 45.63 3.26
-11 6 -2 44.81 3.36
11 -6 -2 40.72 3.39
11 -5 2 47.12 3.47
5 -11 -2 39.87 3.36
5 -11 -2 46.3 3.28
5 -11 -2 44.19 3.55
11 -6 -2 46.71 3.44
-5 -6 2 46.73 3.56
-6 -5 -2 43.52 3.23
-5 11 -2 50.98 3.64
6 -11 2 44.13 3.33
6 -11 2 36.59 3.27
11 -5 2 45.94 3.44
-11 5 2 45.11 3.34
6 -11 -2 48.5 3.69
6 -11 -2 43.84 3.78
11 -6 2 49.59 3.82
5 -11 2 47.95 3.7
6 -11 -2 50.93 3.94
-6 -5 2 51.65 3.67
-11 5 -2 53.63 3.77
11 -5 -2 56.71 3.86
11 -6 2 49.45 3.82
-11 5 -2 46.55 3.93
11 -5 -2 48.39 3.79
-5 -6 -2 46.57 3.61
5 -11 2 57.47 3.98
-11 6 2 43.55 3.88
-11 6 2 52.89 3.74
-6 -5 2 49.8 3.92
7 -11 2 77.48 5.62
11 -7 -2 77.08 5.69
-11 7 -2 80.76 5.84
11 -4 2 71.48 5.68
4 -11 -2 77.78 5.78
11 -4 2 78.96 5.72
-11 4 2 80.53 5.83
-7 -4 -2 76.68 5.54
-4 -7 2 74.25 5.53
-4 -7 2 72.37 5.76
-7 11 2 71.57 5.74
7 -11 2 73.83 5.79
-7 -4 -2 67.16 5.69
4 -11 -2 79.41 5.55
7 -11 2 73.32 5.6
11 -7 -2 82.71 5.68
-11 7 -2 78.96 5.63
-11 4 2 79.19 5.62
11 -7 2 77.05 5.97
7 -11 -2 74.38 6.04
7 -11 -2 78.99 5.98
7 -11 -2 74.65 5.88
11 -7 2 80.83 6
11 -4 -2 83.87 6
11 -4 -2 80.18 5.99
-7 -4 2 84.1 6.11
-11 7 2 73.1 6.09
4 -11 2 90.71 6.13
-4 -7 -2 75.73 5.96
-11 4 -2 81.04 5.92
-11 7 2 88.27 5.92
4 -11 2 85.84 5.88
-7 -4 2 82.15 5.86
-11 4 -2 73.85 6.08
-4 -7 -2 70.82 5.79
-7 11 -2 93.45 6.19
11 -3 2 7.87 1.22
-11 8 -2 8.01 1.41
11 -8 -2 8.42 1.05
11 -8 -2 9.34 1.09
-8 -3 -2 6.76 1.13
3 -11 -2 8.35 0.76
3 -11 -2 9.24 1.3
8 -11 2 8.1 0.97
-3 -8 2 8.17 0.74
8 -11 2 8.26 1.21
-11 3 2 8.55 1.41
-11 3 2 9.28 0.99
-8 -3 -2 7.79 0.81
8 3 -2 6.82 0.96
-3 -8 2 7.13 1.21
-11 8 -2 7.63 0.96
8 -11 -2 6.11 1.06
11 -3 -2 9.46 1.14
3 -11 2 7.36 1.24
-3 -8 -2 7.13 0.96
-8 -3 2 9.84 1.37
3 -11 2 8.16 0.84
-11 8 2 7.83 1.29
11 -3 -2 8.53 1.04
11 -8 2 7.66 1.05
-11 3 -2 8.96 0.99
-8 -3 2 7.61 0.82
8 -11 -2 7.48 0.94
-8 11 -2 9.47 1.46
8 -11 -2 8.33 1.24
-11 8 2 7.08 0.91
8 -11 -2 7.45 0.85
-11 3 -2 9.7 1.34
11 -8 2 9.46 1.1
-9 11 2 72.42 5.99
-11 2 2 80.35 5.84
-11 9 -2 78.19 5.83
2 -11 -2 79.86 6
-2 -9 2 79.82 5.99
9 2 -2 67.23 5.91
9 -11 2 83.81 6.02
11 -9 -2 88.94 5.96
-11 2 2 89.03 6.09
11 -9 -2 81.24 5.89
9 -11 2 73.43 5.85
11 -2 2 87.62 5.97
-9 -2 -2 71.36 5.96
-11 9 -2 79.72 6.05
2 -11 -2 83.89 5.74
-9 -2 -2 77.09 5.79
9 -11 2 75.77 5.84
-2 -9 2 79.09 5.75
-11 9 2 64.69 4.97
9 2 2 62.42 5.09
9 -11 -2 63.7 5.12
9 -11 -2 73.82 5.11
9 -11 -2 69.42 4.99
-11 9 2 64.87 5.18
-9 -2 2 62.74 4.95
-11 2 -2 61.09 4.97
-11 2 -2 67.47 5.18
-9 -2 2 73.97 5.24
-9 11 -2 74.06 5.27
-11 2 -2 59.36 4.97
2 -11 2 68.19 4.92
11 -9 2 76.45 5.07
9 -11 -2 68.43 5.01
2 -11 2 65.69 5.16
11 -2 -2 69.71 5.12
10 -11 2 71.03 4.9
-10 -1 -2 63.35 4.82
-1 -10 2 66.96 5.04
-11 10 -2 65.68 4.83
11 -1 2 71.71 5
-11 1 2 64.2 4.84
1 -11 -2 63.7 4.72
-11 10 -2 74.68 5.18
-1 -10 2 62.67 4.76
11 -10 -2 72.11 4.91
-10 -1 -2 59.48 4.99
-11 1 2 67.55 5.09
11 -10 -2 71.91 4.99
-10 11 2 54.5 5
-11 1 2 57.84 4.85
1 -11 -2 60.02 4.98
10 1 2 77.53 5.16
11 -1 -2 66.1 5.1
-11 10 2 62.77 5.18
-11 1 -2 67.33 4.98
-10 11 -2 69.61 5.25
10 -11 -2 63.58 4.99
1 -11 2 66.9 5.17
11 -10 2 76.3 5.07
-10 -1 2 64.38 4.97
1 -11 2 64.93 4.9
-10 -1 2 74.5 5.26
1 -11 2 61.86 5.13
10 -11 -2 67.24 5
-11 1 -2 60.62 5.15
10 -11 -2 74.67 5.11
-11 10 2 58.13 4.93
-11 0 -2 2.04 0.5
-11 0 -2 1.26 0.73
11 -11 -2 1.84 0.6
-11 11 2 0.53 0.3
11 0 -2 1.74 0.59
11 0 2 1.91 0.7
-11 11 -2 3.09 1.1
-11 0 2 0.48 0.32
-11 0 2 1.65 0.53
-11 0 2 1.97 0.99
-11 11 -2 0.97 0.31
0 -11 2 0.96 0.4
-11 11 2 1.61 0.74
11 -11 2 2.25 0.62
11 -11 -2 1.8 0.62
0 -11 -2 0.99 0.42
0 -11 2 1.28 0.86
-11 0 -2 0.39 0.46
6 -12 2 0.33 0.41
6 -12 -2 0.48 0.6
12 -6 -2 0.47 0.63
-6 -6 -2 0.04 0.26
-6 -6 2 0.14 0.32
6 -12 -2 -0.15 0.31
6 -12 -2 1.09 0.41
-6 12 2 -0.19 0.55
12 -6 2 -0.32 0.59
12 -6 2 0.34 0.56
-6 -6 -2 0.22 0.5
-6 12 -2 0.9 0.95
-12 6 -2 0.59 0.84
-12 6 -2 0.78 0.58
6 -12 2 -0.09 0.61
12 -6 -2 0 0.59
-12 6 2 -0.26 0.72
-6 -6 2 -0.21 0.88
-12 6 2 -0.1 0.51
-12 7 -2 39.02 2.69
12 -7 -2 36.21 2.78
-12 5 2 28.75 2.88
-12 7 -2 33.42 2.94
12 -7 -2 29.3 2.67
7 -12 2 37.57 2.94
-7 -5 -2 34.66 2.53
5 -12 -2 34.07 2.56
-5 -7 2 34.68 2.9
5 -12 -2 35.77 2.89
7 -12 2 35.66 2.65
12 -5 2 31.73 2.76
-12 5 2 35.73 2.67
12 -5 2 28.64 2.68
-5 -7 2 33.47 2.53
7 -12 -2 22.59 1.99
7 -12 -2 25.74 2.29
12 -7 2 27 2.18
-7 12 -2 30.56 2.5
5 -12 2 27.77 2.38
-5 -7 -2 24.7 1.88
-12 5 -2 25.44 2.09
-5 -7 -2 24.06 2.12
-12 5 -2 23.71 2.35
5 -12 2 25.2 2.01
12 -7 2 25.92 2.21
12 -5 -2 25.26 2.16
-7 -5 2 24.28 2.31
-7 -5 2 24.94 1.96
-12 7 2 27.01 2.1
-12 7 2 22.95 2.32
-4 -8 2 17.68 1.44
12 -4 2 17.24 1.82
-12 8 -2 17.17 2.01
-12 4 2 18.61 2.02
-12 8 -2 19.28 1.65
-4 -8 2 17 1.88
4 -12 -2 19.06 1.92
8 -12 2 18.7 1.9
-8 -4 -2 17.49 1.47
12 -8 -2 19.53 1.78
4 -12 -2 19.08 1.47
8 -12 2 19.06 1.63
-12 4 2 19.69 1.65
12 -8 -2 19.01 1.69
-12 4 -2 15.33 1.38
-12 8 2 14.22 1.3
-8 -4 2 13.4 1.66
-12 8 2 11.11 1.56
12 -8 2 13.13 1.37
4 -12 2 16.03 1.21
-8 -4 2 13.65 1.18
8 -12 -2 10.95 1.2
-12 4 -2 13 1.63
4 -12 2 15.32 1.69
12 -4 -2 11.44 1.3
8 -12 -2 14.89 1.53
8 -12 -2 14.82 1.28
-4 -8 -2 13.25 1.04
12 -8 2 12.89 1.4
12 -4 -2 14.54 1.53
-3 -9 2 25.16 2.3
9 -12 2 21.31 1.99
12 -9 -2 28.4 2.17
-12 3 2 24.68 2.05
3 -12 -2 24.43 2.25
-12 9 -2 22.92 2.01
9 -12 2 24.74 2.24
12 -9 -2 27.18 2.2
-3 -9 2 22.44 1.88
9 -12 2 24.32 2.07
3 -12 -2 24.16 1.89
12 -3 2 27.54 2.28
-12 3 2 26.55 2.43
-9 -3 -2 25.53 1.95
-12 9 -2 26.18 2.46
9 -12 -2 25.12 2.03
9 -12 -2 20.2 2.13
-12 9 2 23.96 2.28
-12 9 2 23.76 1.98
3 -12 2 23.26 2.27
-9 -3 2 23.29 1.93
-12 3 -2 24.1 2.28
-12 3 -2 25.99 2
-9 12 -2 28.85 2.44
12 -3 -2 24.7 2.18
3 -12 2 26.45 1.93
-9 -3 2 24.42 2.35
-12 10 -2 10.71 1.12
12 -10 -2 12.41 1.37
-2 -10 2 10.38 1
-12 2 2 12.81 1.7
-10 -2 -2 11.34 1.09
2 -12 -2 12.41 0.97
2 -12 -2 11.22 1.43
12 -2 2 13.49 1.57
10 -12 2 10.86 1.17
-12 10 -2 10.64 1.68
-12 2 2 11.77 1.15
12 -10 -2 13.3 1.35
-2 -10 2 12.52 1.5
12 -2 -2 5.17 1.01
-10 12 -2 4.84 1.19
-12 2 -2 5.13 0.79
10 -12 -2 4.25 0.7
10 2 2 4.12 0.88
12 -10 2 7.21 1.09
2 -12 2 5.99 0.67
-10 -2 2 4.59 0.77
-12 2 -2 4.17 0.98
2 -12 2 5.04 1.1
10 -12 -2 5.35 0.93
-12 10 2 4.87 0.7
-10 -2 2 7.07 1.44
-12 10 2 5.56 1.15
-12 11 -2 51.94 4.21
-1 -11 2 52.52 3.76
-12 1 2 58.05 4.21
11 -12 2 45.65 3.88
-12 1 2 48.28 3.87
-1 -11 2 44.04 4.03
-11 -1 -2 51.83 3.84
12 -11 -2 50.67 3.92
1 -12 -2 57.97 3.72
11 1 2 45.88 3.72
1 -12 2 49.21 3.47
-12 1 -2 44.35 3.56
12 -1 -2 37.06 3.64
-11 -1 2 47.76 3.56
1 -12 2 51 3.83
12 -11 2 51.37 3.65
-11 12 -2 48.99 3.91
-11 -1 2 47.57 3.9
12 -12 2 2.31 0.58
0 -12 2 2.98 0.55
-12 0 2 4.21 1.08
12 -12 -2 1.57 0.48
-12 12 2 0.23 0.79
-12 12 -2 2.93 1
0 -12 2 1 0.67
12 0 2 2.05 0.7
13 -6 2 1.78 0.63
-6 -7 2 3.78 0.48
7 -13 2 2.99 0.59
-6 13 -2 4 1.08
-13 6 2 3.2 0.66
-13 7 -2 3.16 0.66
6 -13 -2 2.99 0.73
-6 -7 2 2.85 0.94
-7 -6 -2 3.08 0.53
7 -13 2 1.91 0.69
-13 6 2 2 0.85
13 -6 2 1.89 0.55
13 -7 -2 2.55 0.69
13 -7 -2 2.26 0.63
-13 7 -2 3.61 1.05
7 -13 -2 5.33 1.18
13 -6 -2 4.22 0.83
-7 13 -2 4.3 1.08
13 -7 2 3.97 0.95
6 -13 2 4.02 0.83
-13 7 2 2.73 0.91
-7 -6 2 3.21 0.64
-6 -7 -2 2.65 0.67
7 -13 -2 4.06 0.69
-6 -7 -2 3.81 0.51
-13 7 2 3.54 0.7
6 -13 2 4.33 0.75
-7 -6 2 3.56 1.07
13 -7 2 2.94 0.69
-13 6 -2 3.66 0.69
-13 6 -2 3.45 0.97
13 -6 -2 5.25 1.12
-13 5 2 13.62 1.32
-5 -8 2 11.97 1.07
-13 8 -2 10.94 1.69
-5 -8 2 12.02 1.57
-13 5 2 12.4 1.66
5 -13 -2 12.36 1.12
13 -5 2 12.26 1.45
8 -13 2 12.99 1.29
13 -8 -2 12.52 1.45
-8 -5 -2 13.61 1.1
8 -13 2 12.22 1.53
-13 8 -2 14.41 1.32
5 -13 -2 12.32 1.62
13 -8 -2 12.28 1.36
-8 -5 2 13 1.12
-13 5 -2 12.38 1.27
8 -13 -2 10.43 1.4
5 -13 2 11.77 1.65
-13 8 2 12.83 1.28
13 -5 -2 11.9 1.38
8 -13 -2 11.68 1.19
-13 8 2 10.87 1.47
-8 -5 2 10.24 1.59
-13 5 -2 11.01 1.56
5 -13 2 14.12 1.18
13 -8 2 10.28 1.29
-5 -8 -2 12.93 0.97
-8 13 -2 13.62 1.71
-13 4 2 114.52 7.93
4 -13 -2 106.63 7.56
13 -9 -2 119.07 7.75
-13 4 2 107.55 7.66
13 -9 -2 101.89 7.75
13 -4 2 95.66 7.75
-9 -4 -2 108.9 7.58
-4 -9 2 90.62 7.78
9 -13 2 102.77 7.67
-13 9 -2 107.82 7.93
-13 9 -2 98.67 7.64
-4 -9 2 102.03 7.54
4 -13 -2 101 7.81
13 -4 -2 110.15 7.5
13 -9 2 94.84 7.42
4 -13 2 116.28 7.61
4 -13 2 115.79 7.33
-13 4 -2 90.35 7.35
-9 -4 2 103.53 7.32
-13 4 -2 85.94 7.52
9 -13 -2 91.45 7.49
-13 9 2 91.82 7.56
-13 9 2 87.43 7.34
9 -13 -2 108.99 7.38
-9 -4 2 107.47 7.61
-13 10 -2 33.14 3.05
-3 -10 2 34.64 2.55
-13 3 2 36.68 3.04
13 -10 -2 37.31 2.79
13 -3 2 38.87 2.92
-3 -10 2 29.65 2.85
3 -13 -2 28.4 2.8
-10 -3 -2 32.82 2.6
13 -10 -2 31.25 2.77
3 -13 -2 38.06 2.55
-10 -3 2 35.86 3.02
-10 -3 2 35.3 2.64
13 -3 -2 28.82 2.78
10 -13 -2 35.55 2.73
3 -13 2 37.18 2.6
13 -10 2 37.74 2.8
3 -13 2 28.45 2.83
-13 11 -2 4.18 1.09
-13 2 2 4.55 1.06
-2 -11 2 2.52 0.76
-11 -2 2 5.53 0.87
-13 2 -2 5.47 0.82
11 -13 -2 4.63 0.89
2 -13 2 6.53 0.76
13 -11 2 6.3 1.01
-11 -2 2 6 1.19
-11 13 -2 5.96 1.29
-13 1 2 7.93 0.96
-13 1 2 7.87 1.4
-13 12 -2 8.4 1.43
-12 -1 -2 10.89 1.07
-1 -12 2 10.16 0.89
13 -1 2 7.41 1.17
1 -13 2 0.76 0.72
12 1 2 1.54 0.52
-12 13 -2 1.79 0.79
-13 1 -2 0.23 1.2
-13 0 -2 1.19 0.52
-13 0 2 0.27 0.45
13 0 2 0.49 0.51
-13 0 2 0.44 0.79
0 -13 2 1.1 0.4
-13 13 -2 1.06 0.81
13 -13 2 0.13 0.47
-14 7 -2 1.29 0.52
7 -14 -2 0.63 0.52
14 -7 -2 0.38 0.44
-7 -7 2 0.98 0.41
-14 7 2 1.41 0.53
7 -14 2 0.7 0.57
-14 7 -2 0.61 0.79
-14 7 2 0.79 0.74
-7 -7 2 0.97 0.74
7 -14 2 1.23 0.51
14 -7 -2 0.79 0.6
-7 -7 -2 1.11 0.34
-7 14 -2 0.48 0.8
14 -7 2 0.81 0.46
7 -14 -2 1.19 0.48
-8 -6 -2 38.09 2.63
-6 -8 2 38.19 2.64
-14 8 -2 36.54 2.76
8 -14 2 31.84 2.96
-14 6 2 37.12 2.77
6 -14 -2 39.8 2.69
-14 8 -2 28.17 2.98
8 -14 2 37.37 2.78
14 -8 -2 32.07 2.86
6 -14 -2 33.71 2.97
-6 -8 2 28.97 2.9
6 -14 2 36.81 2.85
6 -14 2 34.37 2.5
8 -14 -2 27.66 2.68
8 -14 -2 34.94 2.51
-6 -8 -2 37.11 2.37
-14 6 -2 29.7 2.51
-8 14 -2 26.83 2.8
14 -6 -2 32.46 2.67
-8 -6 2 29.55 2.74
-14 8 2 26.8 2.52
14 -9 -2 15.29 1.59
-14 5 2 14.05 1.47
-9 -5 -2 19.05 1.42
5 -14 -2 17.3 1.77
-14 5 2 13.56 1.81
9 -14 2 18.57 1.61
-5 -9 2 18.35 1.38
-14 9 -2 16.65 1.89
-14 9 -2 16.96 1.49
5 -14 2 13.31 1.59
14 -5 -2 12.61 1.49
9 -14 -2 15.39 1.38
-9 -5 2 13 1.63
-9 -5 2 15.01 1.28
-5 -9 -2 15.11 1.09
-9 14 -2 11.44 1.64
14 -4 2 20.7 2.06
-14 4 2 24.49 2.24
14 -10 -2 24.74 2.01
-14 10 -2 22.84 2.26
-10 14 -2 22.61 2.02
4 -14 2 17.31 1.79
14 -10 2 20.57 1.71
14 -4 -2 15.87 1.72
14 -11 -2 28.47 2.29
-14 3 2 25.38 2.53
11 -14 2 29.88 2.29
14 -11 2 20.82 1.77
-11 -3 2 19.35 1.96
12 -14 -2 2.83 0.61
-13 -1 -2 4.62 0.85
-1 -13 2 4.14 0.67
-13 -1 2 4.25 0.87
1 -14 2 6.24 0.73
-14 1 -2 4.48 0.79
-14 0 -2 2.32 0.52
-14 0 2 1.51 0.42
-15 8 2 19.95 1.68
-11 -4 -2 33.04 2.56
-4 -11 2 31.97 2.5
4 -15 -2 34.25 2.51
-11 -4 2 39.27 3.12
4 -15 2 42.84 3.1
11 -15 -2 39.82 3.17
3 -15 -2 44.28 3.14
-12 -3 -2 41.01 3.23
-3 -12 2 41.99 3.16
3 -15 2 52.28 3.63
-12 -3 2 44.59 3.69
-13 -2 -2 15.86 1.53
-2 -13 2 17.77 1.41
-13 -2 2 22.16 2.07
2 -15 2 27.46 1.99
-14 -1 -2 23.47 2.03
-1 -14 2 25.55 1.92
-14 -1 2 10.73 1.06
-15 0 -2 2.95 0.57
-15 15 2 2.88 0.52
8 -16 -2 5.05 0.86
-8 -8 -2 4.78 0.68
8 -16 2 4.59 0.92
-8 -8 2 4.84 0.81
-7 -9 2 58.55 4.47
7 -16 -2 60.53 4.51
-9 -7 -2 62.89 4.47
-9 -7 2 73.2 5.02
7 -16 2 63.36 5.04
-7 -9 -2 72.01 4.93
9 -16 -2 62.37 5.04
-10 -6 -2 25.49 1.9
6 -16 -2 23.89 1.89
10 -16 2 21.4 2.02
-6 -10 2 22.14 1.84
10 -16 -2 14.71 1.53
6 -16 2 18.47 1.56
-10 -6 2 17.2 1.55
-11 -5 -2 21.01 1.7
-5 -11 2 18.78 1.61
5 -16 -2 19.51 1.61
5 -16 2 27.32 1.97
11 -16 -2 20.42 1.97
-11 -5 2 22.89 1.98
-4 -12 2 50.14 3.82
4 -16 -2 53.34 3.81
-12 -4 -2 51.6 3.9
-12 -4 2 55.06 4.42
4 -16 2 62.4 4.38
3 -16 -2 16.35 1.34
-13 -3 -2 18.23 1.58
-3 -13 2 18.14 1.42
-14 -2 -2 15.46 1.42
-2 -14 2 15.92 1.26
-16 2 -2 15.69 1.32
-14 16 -2 11.75 1.16
-14 -2 2 12.96 1.23
-16 14 2 15.18 1.31
-16 15 -2 0.39 0.27
-1 -15 2 0.8 0.23
-16 15 -2 0.42 0.46
-15 -1 -2 0.56 0.29
-15 16 -2 1.36 0.38
-16 15 2 2.1 0.7
1 -16 2 1.17 0.32
-16 16 -2 0.28 0.42
0 -16 2 -0.02 0.19
-16 0 2 -0.27 0.32
-16 16 2 -0.63 0.8
-16 16 -2 -0.06 0.44
-17 6 2 26.09 1.98
-11 17 2 22.54 1.93
11 -17 2 26.11 2.04
-17 12 -2 16.27 1.41
-17 12 -2 11.53 1.38
-12 17 2 13.14 1.19
-17 5 2 15.47 1.28
-12 17 -2 8.73 0.87
-17 4 2 16.65 1.34
4 -17 -2 13.43 1.09
-13 17 2 12.42 1.2
-4 -13 2 13.57 1.11
-13 -4 2 18.53 1.61
-13 17 -2 21.54 1.61
-17 4 -2 18.56 1.63
-17 13 2 15.85 1.62
-14 17 2 13.33 1.33
-17 14 -2 13.53 1.38
-14 -3 -2 10.23 1.12
-17 3 2 12.51 1.25
-14 17 -2 19.49 1.73
-17 14 2 19.5 1.87
-17 15 -2 3.44 0.74
-15 17 2 2.63 0.46
-17 2 2 3.77 0.63
-15 17 2 5.46 0.94
-15 17 -2 5.45 0.82
-17 15 2 5.1 1
-17 2 -2 6.04 1
-17 1 2 6.95 1.08
-17 16 -2 8.4 1.28
-16 17 2 10.74 1.67
-17 16 -2 7.64 0.99
-16 17 -2 3.87 0.65
-17 0 -2 1.64 0.84
-17 0 2 0.59 0.5
-17 17 -2 1.98 0.68
-17 17 2 -0.06 0.27
-17 17 -2 0.94 0.75
-17 17 2 1.09 1.03
-18 9 2 9.03 1.02
-18 9 -2 7.79 1.1
9 -18 2 9.27 1.01
-9 -9 -2 7.63 0.77
9 -18 -2 11.14 1.02
-9 18 2 9.59 0.96
-10 -8 -2 34.43 2.74
8 -18 -2 36.22 2.81
-18 10 -2 42.55 3.02
-18 8 2 38.17 2.86
-18 10 -2 36.8 3.03
-10 18 2 39.91 2.98
-8 -10 2 33.31 2.76
-10 18 2 37.53 2.82
-8 18 -2 31.86 2.86
-18 8 -2 28.63 2.23
10 -18 -2 25.55 2.14
-11 18 2 10.79 1.24
-18 11 -2 12.04 1.51
-18 11 -2 11.67 1.62
7 -18 -2 9.67 1.04
-7 18 -2 7.33 1.13
-11 18 2 9.55 1.28
-18 7 2 10.93 1.32
-11 -7 -2 11.25 1.03
11 -18 -2 4.24 0.64
-18 7 -2 6.37 0.89
6 -18 -2 8.49 0.81
-12 18 2 7.06 1.1
-18 12 2 8.76 1.12
-6 18 2 9.45 1.18
-12 18 -2 11.8 1.19
-12 18 -2 12.66 1.18
-18 6 -2 10.38 1.14
-12 -6 2 9.99 1.06
-5 18 -2 0.45 0.42
-18 13 -2 2.13 0.92
-13 18 2 1.34 0.54
-18 5 2 2.28 0.75
-13 18 2 2.17 0.62
-18 13 -2 2.45 0.85
-13 -5 -2 1.35 0.42
-13 18 2 0.24 0.47
-13 -5 2 2.67 0.57
-5 18 2 1.54 0.53
-13 18 -2 4.75 0.81
-18 13 2 4.71 0.76
-18 5 -2 3.87 0.71
-18 13 2 4.2 0.83
-18 14 -2 6.08 1.09
-14 18 2 6.15 1.06
-14 18 2 5.93 0.94
-18 14 2 2.29 0.73
-18 4 -2 4.54 0.88
-18 14 2 4.3 0.9
-14 18 -2 1.14 0.47
-18 15 -2 3.99 0.86
-18 3 2 5.09 0.84
-15 18 2 4.18 0.7
-18 3 2 2.61 0.67
-18 15 -2 4.36 0.97
-15 18 2 5.06 0.94
-15 18 -2 0.08 0.85
-15 18 -2 0.28 0.46
-3 18 2 0.09 0.51
-18 15 2 1.42 0.63
-16 18 2 11.03 1.23
-18 2 2 8.83 1.49
-16 18 2 10.62 1.67
-18 2 2 12.67 1.52
-18 16 -2 11.28 1.17
-18 16 -2 8.6 1.46
-18 16 -2 9.57 1.67
-16 18 -2 5.52 0.97
-18 16 2 3.39 0.63
-18 17 -2 4.31 1
-17 18 2 4.37 1.03
-18 1 2 3.71 0.81
-18 1 2 2.56 0.87
-17 18 2 2.91 0.61
-18 17 -2 3.8 0.76
-17 -1 -2 4.11 0.88
-18 1 -2 3.91 0.88
-17 -1 2 2.05 0.49
-18 18 2 2.48 0.49
-18 18 -2 4.01 1
-18 18 2 3.76 1.03
-18 0 -2 4.6 0.84
-18 0 2 3.11 0.7
-10 19 2 6.32 1.18
-19 10 -2 8.46 1.2
-19 9 2 5.99 0.92
-19 10 -2 8.06 1.58
-19 9 2 7.42 1.56
-9 19 -2 9.17 1.16
-10 19 2 8 1.19
-19 9 -2 8.66 1.13
-10 19 -2 4.27 0.83
-19 10 2 5.62 0.81
-19 9 -2 5.96 0.95
-19 10 2 8.4 1.68
-9 19 2 6.05 1.02
-10 19 -2 6.42 1.02
-9 19 2 7.17 1.1
-8 19 -2 15.82 1.9
-11 19 2 20.5 1.87
-19 8 2 20.31 2.01
-19 11 -2 18.91 2.26
-19 11 -2 19.99 2.17
-11 19 2 18.83 2.12
-19 8 -2 9.98 1.35
-19 11 2 14.8 1.35
-8 19 2 13.76 1.27
-19 11 2 10.38 1.26
-19 8 -2 11.16 1.23
-12 19 2 13.77 1.85
-7 19 -2 11.1 1.58
-19 12 -2 14.28 2.03
-12 19 2 13.93 1.64
-19 7 2 15.02 1.82
-19 12 -2 15.89 2.07
-12 19 -2 8.18 1.4
-19 12 2 4.36 0.66
-7 19 2 3.91 0.61
-19 12 2 6.33 0.89
-19 7 -2 6.04 1.07
-19 13 -2 -0.5 0.96
-19 6 2 0.98 0.85
-13 19 2 0.27 0.82
-13 19 2 0.32 0.67
-13 19 2 0.13 0.68
-19 6 2 -0.47 0.35
-6 19 -2 0.72 0.64
-13 -6 -2 0.13 0.25
-19 13 -2 1.66 1.02
-6 19 2 0.55 0.36
-13 19 -2 1.4 0.69
-19 13 2 2.51 0.94
-19 13 2 1.1 0.43
-13 19 -2 2.54 0.81
-19 6 -2 2.21 0.68
-19 13 2 3 0.87
-19 6 -2 2.17 0.78
-6 19 2 2.71 0.8
-14 19 2 0.86 0.83
-19 14 -2 1.64 1.04
-19 5 2 1.48 0.84
-19 14 -2 2.18 1
-14 19 2 1.68 0.7
-14 19 2 0.82 0.7
-5 19 -2 1.5 0.54
-14 19 -2 2.22 0.77
-19 5 -2 0.48 0.77
-14 19 -2 0.87 0.78
-19 14 2 1 0.91
-19 14 2 1.79 0.91
-19 5 -2 0.85 0.53
-19 14 2 0.26 0.34
-5 19 2 1.36 0.66
-19 15 -2 1.41 0.92
-19 4 2 0.57 0.54
-19 15 -2 2.33 0.99
-15 19 2 1.32 0.9
-19 4 2 2.14 0.85
-15 19 2 2.1 0.68
-4 19 2 1.29 0.5
-15 19 -2 3.7 0.82
-15 19 -2 1.78 0.61
-19 15 2 3.29 0.94
-19 4 -2 0.51 0.45
-19 15 2 3.49 0.96
-19 3 2 31.25 2.52
-19 16 -2 26.54 2.54
-16 -3 -2 28.88 2.43
-16 19 2 28.15 2.57
-16 19 2 26.51 2.33
-19 3 2 24.13 2.4
-19 16 -2 26.55 2.7
-16 19 -2 14.31 1.45
-19 17 -2 0.09 0.88
-17 19 2 1.42 0.65
-19 17 -2 1.22 0.63
-19 2 2 1.86 0.77
-17 -2 -2 1.63 0.75
-19 2 2 1.07 0.74
-19 17 -2 0.58 0.82
-17 19 2 1.42 0.88
-17 19 -2 2.62 0.87
-19 17 2 3.12 1.03
-19 2 -2 2.98 0.89
-17 19 -2 2.37 0.76
-19 18 -2 1.88 0.94
-18 -1 -2 3.13 0.76
-19 1 2 2.44 0.73
-18 19 2 2.58 0.62
-19 18 -2 1.39 0.69
-19 18 -2 3.05 0.73
-18 19 2 2.19 0.87
-19 1 2 2.92 0.79
-18 19 -2 2.14 0.93
-18 19 -2 1.89 0.71
-19 1 -2 2.02 0.79
-18 -1 2 1.87 0.8
-18 -1 2 0.84 0.51
-19 18 2 2.31 0.93
-19 0 2 1.6 0.68
-19 19 -2 1.46 0.68
-19 0 2 1.99 0.63
-19 19 2 2 0.9
-19 19 -2 0.87 0.94
-19 19 2 1.19 0.41
-19 0 -2 2.13 0.75
-10 20 -2 41.73 3.38
-20 10 2 37.33 3.24
-10 20 2 43.25 3.47
-20 10 2 40.59 3.47
-20 10 -2 46.17 3.52
-10 20 -2 36.11 3.12
-20 10 -2 39.93 3.38
-10 20 2 38.77 3.19
-11 20 2 33.36 2.78
-11 20 2 35.7 3.05
-9 20 -2 30.88 2.94
-20 9 2 32.57 2.84
-20 11 -2 36.38 3.1
-20 11 -2 34.9 3.03
-20 9 2 30.13 2.98
-20 11 2 23.17 2.26
-20 9 -2 29.36 2.64
-20 11 2 24.4 2.32
-9 20 2 30.4 2.65
-11 20 -2 27.04 2.53
-20 11 2 29.9 2.74
-11 20 -2 27.75 2.26
-20 9 -2 24.78 2.47
-20 9 -2 21.08 2.19
-9 20 2 26.94 2.28
-20 12 -2 22.54 2.42
-20 12 -2 22.36 2.3
-12 20 2 19.45 2.21
-8 20 -2 17.86 2.1
-20 8 2 21.47 2.16
-20 8 2 17.13 2.07
-12 20 2 20.35 1.98
-20 12 2 32.87 2.8
-20 8 -2 23.56 2.36
-20 12 2 23.52 2.35
-20 8 -2 26.03 2.38
-8 20 2 26.84 2.57
-8 20 2 26.43 2.32
-20 12 2 28.05 2.51
-12 20 -2 28.66 2.55
-20 8 -2 31.85 2.65
-12 20 -2 26.62 2.35
-13 20 2 17.85 2.2
-13 20 2 17 1.97
-20 7 2 13.52 1.79
-20 13 -2 22.07 2.4
-7 20 -2 16.52 1.93
-13 20 2 18.02 1.79
-20 7 2 21.08 2.04
-20 13 -2 18.14 2.16
-13 20 -2 16.39 1.99
-20 7 -2 16.54 1.85
-20 13 2 18.09 2.03
-20 13 2 20.72 2.28
-7 20 2 16.78 1.99
-20 13 2 14.96 1.68
-20 7 -2 17.89 2.02
-7 20 2 14.89 1.59
-13 20 -2 15.67 1.76
-20 6 2 2.1 0.86
-20 14 -2 3.33 1.09
-14 20 2 3 0.76
-6 20 -2 1.44 0.78
-14 20 2 2.2 1.01
-14 20 2 1.61 0.92
-20 14 -2 2.35 1.05
-6 20 2 0.16 0.79
-20 14 2 0.82 0.93
-20 14 2 1.19 0.9
-20 6 -2 0.67 0.77
-20 6 -2 1 0.79
-20 14 2 0.29 0.53
-6 20 2 0.06 0.39
-20 6 -2 -0.57 0.46
-14 20 -2 0.51 0.89
-14 20 -2 1.38 0.74
-20 5 2 31.18 2.53
-15 20 2 25.26 2.35
-20 15 -2 28.03 2.74
-15 20 2 24.6 2.5
-15 20 2 27.87 2.59
-20 15 -2 26.86 2.6
-20 5 -2 36.97 3.06
-5 20 2 33.41 3.01
-20 15 2 36.79 3.25
-15 20 -2 33.19 3.07
-20 15 2 37.52 3.15
-15 20 -2 40.18 2.99
-20 4 2 0.57 0.63
-20 4 2 2.57 0.8
-16 20 2 1.79 0.67
-16 20 2 0.77 0.52
-20 16 -2 1.51 0.84
-16 20 2 2.55 0.92
-4 20 -2 0.38 0.48
-20 16 -2 1.08 0.33
-20 16 2 1.04 0.88
-16 20 -2 0.06 0.46
-20 4 -2 1.53 0.86
-16 20 -2 1.25 0.65
-4 20 2 0.94 0.58
-20 16 2 1.07 0.88
-16 20 -2 1.65 0.75
-20 4 -2 0.17 0.37
-20 17 -2 6.86 1.02
-17 20 2 8.95 1.22
-20 17 -2 6.55 1.07
-17 -3 -2 9.46 1.3
-20 3 2 6.49 0.95
-17 20 2 7.62 1.12
-20 3 2 9.44 1.49
-20 17 -2 8.38 1.81
-20 17 2 12.3 1.87
-17 20 -2 14.19 1.54
-17 -3 2 16.85 1.65
-17 20 -2 10.37 1.38
-20 17 2 12.46 1.84
-20 3 -2 14.96 1.78
-18 20 2 3.16 0.88
-18 20 2 4.88 0.72
-20 2 2 4.18 0.77
-20 18 -2 3.04 0.91
-20 18 -2 4.03 0.7
-20 18 -2 3.43 0.91
-18 -2 -2 4.35 0.75
-20 2 2 2.53 0.72
-18 20 -2 3.38 0.76
-18 -2 2 3.65 0.79
-20 18 2 3.33 0.91
-18 20 -2 3.64 0.84
-20 2 -2 4.09 0.82
-19 -1 -2 1.9 0.67
-20 1 2 0.8 0.6
-20 1 2 2.13 0.61
-19 20 2 2.25 0.79
-19 20 2 1.17 0.54
-20 19 -2 0.38 0.5
-20 19 -2 1.41 0.86
-20 19 -2 1.51 0.64
-19 -1 2 1.42 0.67
-20 1 -2 1.03 0.68
-19 20 -2 0.1 0.81
-19 20 -2 1.12 0.64
-19 -1 2 0.86 0.42
-20 19 2 0.83 0.8
-20 20 -2 5.62 0.97
-20 0 2 6.14 0.94
-20 20 2 7.92 0.98
-20 0 -2 7.39 1.17
-20 20 -2 6.51 1.07
-20 0 2 4.95 0.75
-21 10 2 2.7 0.88
-11 21 2 2.6 0.98
-21 11 -2 3.32 1.07
-11 21 2 2.19 0.72
-10 21 -2 1.36 0.64
-21 11 -2 3.12 0.95
-21 10 2 2.13 0.77
-10 21 -2 2.82 0.98
-21 10 -2 3.65 0.93
-21 11 2 2.37 0.73
-10 21 2 3.41 1.02
-21 10 -2 4.86 1.12
-11 21 -2 3.15 0.77
-21 11 2 2.71 0.78
-21 11 2 3.45 0.95
-21 10 -2 2.35 0.66
-11 21 -2 3.57 0.97
-10 21 2 3.04 0.76
-12 21 2 9.83 1.44
-9 21 -2 8.13 1.17
-21 12 -2 11.64 1.93
-12 21 2 8.31 1.26
-21 9 2 9.04 1.55
-21 12 -2 10.86 1.81
-21 9 2 9.49 1.61
-12 21 -2 7.36 1.09
-21 9 -2 4.86 0.88
-21 12 2 4.98 0.87
-12 21 -2 7.2 0.94
-9 21 2 5.89 1.09
-21 12 2 8.77 1.23
-21 12 2 6.07 1.03
-21 9 -2 7.34 1.19
-21 9 -2 7.15 1.54
-9 21 2 6.75 0.91
-21 13 -2 15.79 2.07
-13 21 2 15.1 1.7
-21 8 2 12.34 1.76
-13 21 2 14.88 1.97
-21 8 2 16.77 1.92
-21 13 -2 18.07 2.14
-8 21 -2 15.06 1.86
-13 21 2 14.35 1.77
-21 13 2 9.21 1.65
-21 8 -2 5.06 0.91
-13 21 -2 8.94 1.35
-21 13 2 9.36 1.87
-13 21 -2 9.23 1.15
-8 21 2 8.1 1.28
-21 13 2 7.25 1.31
-21 8 -2 5.74 0.93
-8 21 2 6.27 1.08
-21 8 -2 9.95 1.67
-21 14 -2 13.52 2.08
-7 21 -2 6.89 1.16
-21 7 2 6.59 1.36
-14 21 2 10.31 1.43
-14 21 2 9.01 1.68
-14 21 2 10.12 1.71
-21 14 -2 9.89 1.27
-21 7 2 10.93 1.6
-7 21 2 6.39 1.05
-14 21 -2 6.99 0.89
-21 7 -2 4.32 0.86
-7 21 2 5.21 0.76
-21 14 2 3.73 0.78
-21 14 2 7.53 1.14
-21 14 2 5.59 1.05
-14 21 -2 5.2 1.03
-21 7 -2 5.49 1.02
-15 21 2 6.2 1.13
-15 21 2 6.65 0.9
-21 15 -2 6.86 1.1
-21 15 -2 9.63 1.76
-15 21 2 4.5 1.1
-6 21 -2 5.32 1.02
-21 6 2 8.19 1.02
-15 -6 -2 5.66 1.01
-21 6 -2 3.95 0.83
-21 15 2 5.33 1.03
-21 6 -2 5.59 0.87
-6 21 2 4.1 0.97
-15 21 -2 7.06 1.08
-15 21 -2 7.06 0.92
-21 15 2 4.78 1.02
-21 16 -2 15.24 1.9
-21 16 -2 17.22 2.04
-5 21 -2 13.79 1.59
-21 5 2 19.05 1.81
-16 21 2 16 1.71
-16 21 2 17.01 1.64
-16 21 2 16.62 1.91
-16 -5 -2 14.75 1.55
-21 5 2 12.81 1.51
-16 21 -2 12.81 1.72
-21 16 2 12.56 1.83
-21 5 -2 13.67 1.59
-5 21 2 10.35 1.62
-16 21 -2 13.61 1.57
-21 16 2 14.9 1.94
-17 -4 -2 16.02 1.59
-21 4 2 17.24 1.7
-17 21 2 15.5 1.85
-17 21 2 16.14 1.59
-21 4 2 13.96 1.63
-21 17 -2 17.86 2.08
-21 17 -2 14.56 1.79
-17 21 -2 8.49 1.05
-21 18 -2 8.26 1.03
-21 18 -2 10.36 1.49
-18 21 2 13.04 1.33
-18 -3 -2 11.75 1.29
-21 3 2 9.23 1.36
-21 18 -2 11.41 1.74
-18 21 2 9.3 1.55
-21 3 2 13.29 1.36
-21 18 2 9.92 1.56
-18 21 -2 10.62 1.31
-18 -3 2 11.62 1.37
-21 3 -2 10.52 1.44
-21 18 2 8.79 1.52
-21 2 2 26.04 2.01
-19 21 2 23.36 2.12
-19 -2 -2 24.43 1.97
-21 19 -2 21.54 1.89
-19 21 2 24.76 1.94
-21 19 -2 23.22 2.15
-21 19 -2 20.54 2.05
-21 2 2 21.76 1.99
-21 19 2 26.97 2.34
-21 2 -2 25.79 2.23
-19 21 -2 27.6 2.17
-19 -2 2 27.43 2.22
-19 21 -2 22.33 2.16
-21 20 -2 1.13 0.51
-20 21 2 0.82 0.32
-20 21 2 2.11 0.67
-21 1 2 1.67 0.48
-21 1 2 1.58 0.52
-20 -1 -2 1.89 0.55
-21 20 -2 0.76 0.7
-21 20 2 2.16 0.74
-21 1 -2 2.24 0.57
-20 -1 2 1.78 0.57
-20 21 -2 1.3 0.61
-20 21 -2 1.76 0.59
-21 0 2 12.07 1.2
-21 0 -2 12.6 1.22
-21 21 2 12.43 1.4
-21 0 -2 10.65 1.15
-21 21 -2 12.03 1.28
-21 21 -2 14.16 1.21
-22 11 -2 25.07 2.39
-22 11 2 20.81 2.07
-22 11 -2 22.67 2.28
-22 11 2 23.11 2.3
-11 22 -2 23.58 2.03
-22 11 -2 18.64 1.89
-11 22 -2 23.32 2.28
-11 22 2 21.86 2.03
-11 22 2 23.15 2.31
-22 12 -2 1.43 0.95
-10 22 -2 0.22 0.53
-10 22 -2 0.6 0.84
-12 22 2 0.97 0.64
-22 10 2 0.49 0.67
-12 22 2 0 0.43
-22 10 2 0.72 0.79
-22 10 2 0.1 0.36
-12 22 2 0.73 0.89
-22 12 -2 1.1 0.82
-22 12 -2 0.06 0.3
-22 12 2 0.88 0.76
-12 -10 2 -0.03 0.23
-22 10 -2 -0.27 0.62
-22 10 -2 0.87 0.96
-12 22 -2 -0.11 0.7
-12 22 -2 0.2 0.86
-22 12 2 0.34 0.64
-10 22 2 0.79 0.9
-10 22 2 0.13 0.65
-22 10 -2 0.63 0.77
-22 12 2 0.99 0.84
-9 22 -2 8.06 1.1
-13 22 2 7.95 1.32
-13 22 2 9.16 1.21
-22 13 -2 7.92 1.18
-22 9 2 6.79 1.04
-22 13 -2 8.62 1.7
-22 9 2 8.66 1.51
-9 22 2 4.72 0.91
-9 22 2 3.15 0.73
-22 9 -2 2.5 0.72
-13 22 -2 3.63 0.76
-22 13 2 3.2 0.72
-22 9 -2 3.93 0.98
-13 -9 2 2.24 0.51
-22 13 2 3.69 0.92
-22 9 -2 2.38 0.77
-13 22 -2 5.21 0.98
-22 8 2 8.95 1.43
-14 22 2 7.91 1.24
-14 22 2 7.25 1.35
-22 14 -2 10.15 1.73
-8 22 -2 6.75 1.09
-22 14 -2 9.41 1.15
-22 8 2 6.56 1.39
-14 22 2 6.46 1.15
-14 22 -2 7.09 1.06
-8 22 2 4.49 0.78
-22 14 2 6.25 1.03
-14 22 -2 5.69 0.83
-22 8 -2 4.72 0.81
-8 22 2 6.83 1
-22 14 2 4.42 0.78
-22 8 -2 5.82 1.01
-14 -8 2 7.13 1.19
-22 15 -2 0.94 0.89
-7 22 -2 0.08 0.82
-22 7 2 -0.28 0.39
-15 22 2 -0.07 0.61
-15 22 2 -0.46 0.79
-15 22 2 0.27 0.88
-15 -7 -2 -0.19 0.26
-22 15 -2 -0.26 0.82
-22 7 2 0.74 0.73
-22 15 2 1.96 0.83
-15 -7 2 1.89 0.67
-15 22 -2 1.6 0.88
-22 7 -2 0.82 0.66
-15 22 -2 0.7 0.64
-7 22 2 0.75 0.82
-22 7 -2 1.1 0.68
-22 15 2 1.11 0.85
-7 22 2 0.52 0.43
-22 15 2 0.57 0.52
-16 22 2 2.75 0.9
-16 22 2 2.8 0.89
-22 16 -2 4.2 0.9
-16 22 2 3.98 0.7
-6 22 -2 2.35 0.8
-22 6 2 3.89 0.8
-22 16 -2 3.94 0.93
-22 16 2 5.24 0.91
-22 6 -2 3.88 0.75
-22 16 2 4.36 0.94
-6 22 2 3.04 0.85
-16 -6 2 3.93 0.74
-16 22 -2 4.66 0.79
-16 22 -2 3.26 0.91
-22 17 -2 2.64 0.79
-17 -5 -2 1.84 0.52
-17 22 2 1.88 0.84
-22 5 2 2.51 0.71
-17 22 2 1.17 0.45
-17 22 2 2.75 0.62
-22 17 -2 2.83 0.85
-22 5 -2 1.96 0.65
-17 22 -2 1.55 0.62
-17 -5 2 2.63 0.65
-22 17 2 1.09 0.82
-17 22 -2 2.14 0.68
-22 17 2 1.92 0.82
-18 22 2 3.38 0.64
-22 18 -2 2.54 0.81
-18 -4 -2 3.04 0.57
-18 22 2 2.64 0.79
-22 4 2 1.94 0.51
-22 18 -2 2.61 0.76
-22 4 2 3.72 0.66
-22 4 -2 3 0.69
-18 -4 2 3.85 0.66
-18 22 -2 3.32 0.69
-22 18 2 2.77 0.79
-22 18 2 2.84 0.77
-22 3 2 15.73 1.55
-22 19 -2 16.9 1.75
-19 22 2 18.34 1.73
-22 3 2 18.99 1.61
-19 -3 -2 17.31 1.55
-19 22 2 19.91 1.58
-22 19 -2 18.11 1.77
-22 19 2 18.05 1.74
-22 3 -2 16.34 1.59
-19 -3 2 17.27 1.57
-19 22 -2 17.37 1.58
-20 22 2 0.32 0.27
-22 2 2 0.86 0.41
-22 20 -2 0.35 0.59
-20 22 2 0.66 0.55
-22 20 -2 -0.01 0.2
-20 -2 -2 0.79 0.43
-22 2 2 0.43 0.41
-20 22 -2 0.49 0.5
-20 22 -2 0.06 0.29
-22 20 2 0.42 0.64
-20 -2 2 0.74 0.48
-22 2 -2 0.51 0.49
-22 21 -2 18.16 1.6
-21 22 2 23.05 1.74
-22 1 2 18.48 1.56
-21 -1 -2 18.55 1.57
-21 -1 -2 19.63 1.56
-21 -1 2 21.43 1.77
-22 1 -2 20.82 1.73
-22 21 2 24.27 1.89
-21 22 -2 20.95 1.72
-23 12 -2 4.83 0.9
-23 11 2 5.44 0.88
-12 23 2 5.47 0.75
-11 23 -2 4.97 0.97
-11 23 -2 3.8 0.66
-23 12 -2 4.51 0.96
-23 11 2 4.84 0.77
-12 23 2 4.97 0.96
-11 23 2 9.64 1.12
-23 12 2 5.56 0.94
-23 11 -2 9.7 1.5
-23 11 -2 6.83 1.04
-11 23 2 7.62 1.15
-23 12 2 7.07 1.25
-23 12 2 9.08 1.53
-12 23 -2 8.85 1.48
-12 23 -2 7.86 1.15
-23 11 -2 9.07 1.38
-13 23 2 16.29 1.64
-13 23 2 16.49 1.87
-23 10 2 16.91 1.69
-23 13 -2 18.78 1.94
-23 10 2 16.16 1.84
-10 23 -2 17.41 1.83
-23 13 -2 18.26 1.94
-13 23 -2 11.26 1.35
-10 23 2 9.36 1.62
-23 10 -2 9.6 1.24
-23 10 -2 14.23 1.67
-23 13 2 11.53 1.44
-23 13 2 10.73 1.36
-23 13 2 12.94 1.79
-23 10 -2 10.76 1.51
-10 23 2 11.19 1.36
-13 23 -2 12.04 1.63
-14 23 2 14.26 1.76
-23 14 -2 14.95 1.74
-23 9 2 15.24 1.64
-23 14 -2 15.48 1.82
-23 9 2 10.68 1.59
-14 23 2 14 1.48
-9 23 -2 14.39 1.74
-14 23 -2 6.19 1.02
-9 23 2 7.24 1.1
-23 14 2 9.18 1.43
-23 9 -2 7.01 1.16
-23 14 2 7 1.13
-9 23 2 6.31 0.97
-23 9 -2 7.63 1.38
-23 14 2 8.76 1.6
-14 23 -2 6.96 1.17
-23 9 -2 5.04 1.04
-15 23 2 4.42 0.95
-23 8 2 4.99 0.81
-15 23 2 4.62 0.73
-23 15 -2 6 0.97
-8 23 -2 4.88 0.92
-23 15 -2 4.7 0.9
-8 23 2 1.09 0.76
-23 8 -2 1.99 0.61
-15 23 -2 1.87 0.83
-23 15 2 1.71 0.5
-23 8 -2 2 0.6
-8 23 2 1.31 0.43
-23 15 2 2.52 0.84
-23 15 2 3.16 0.87
-15 23 -2 2.21 0.63
-15 -8 2 2.05 0.56
-16 23 2 8.04 1.23
-23 7 2 10.28 1.34
-23 16 -2 10.77 1.44
-7 23 -2 9.96 1.36
-16 23 2 8.83 1.18
-16 23 2 9.63 1.45
-23 16 -2 11.1 1.57
-16 23 -2 7.34 1.15
-23 16 2 8.28 1.49
-16 -7 2 8.75 1.16
-16 23 -2 7.88 1.39
-23 7 -2 6.6 1.1
-23 16 2 8.73 1.39
-23 17 -2 0.74 0.72
-17 23 2 0.1 0.61
-23 17 -2 0.6 0.72
-6 23 -2 0.22 0.39
-23 6 2 1.23 0.59
-17 23 2 0.49 0.55
-17 -6 2 1.58 0.51
-17 23 -2 0.56 0.55
-17 23 -2 1.13 0.6
-23 17 2 0.9 0.72
-23 17 2 1.02 0.71
-23 6 -2 0.92 0.52
-23 18 -2 16.25 1.75
-18 23 2 14.64 1.51
-23 18 -2 14 1.56
-23 5 2 17.08 1.49
-18 23 2 16.49 1.44
-23 18 2 15.92 1.71
-23 18 2 16.39 1.65
-23 5 -2 15.25 1.5
-18 -5 2 15.89 1.49
-18 23 -2 18.05 1.53
-23 4 2 1.7 0.47
-19 23 2 1.42 0.59
-23 19 -2 1.06 0.53
-23 19 -2 1.8 0.63
-19 23 2 1.54 0.44
-23 19 2 2.21 0.65
-19 -4 2 2.13 0.48
-19 23 -2 2.23 0.54
-23 4 -2 1.24 0.5
-24 12 -2 3.62 0.7
-24 12 2 3.93 0.75
-24 12 2 3.72 0.63
-12 24 -2 2.66 0.46
-24 12 -2 5.63 0.82
-12 24 2 3.95 0.62
-12 24 2 3.38 0.84
-12 24 -2 3.81 0.87
-24 13 -2 11.77 1.42
-24 11 2 11.52 1.42
-13 24 2 11.53 1.25
-11 24 -2 12.05 1.5
-13 24 2 10.51 1.48
-24 11 2 10.83 1.27
-24 13 -2 11.28 1.46
-11 24 2 8.51 1
-24 13 2 6.41 0.99
-13 24 -2 6.17 0.98
-24 11 -2 6.9 1.16
-13 24 -2 6.89 0.99
-24 11 -2 5.58 1.11
-24 13 2 7.58 1.4
-11 24 2 6.39 1
-24 14 -2 2.77 0.72
-14 24 2 3.3 0.77
-24 10 2 2.26 0.58
-10 24 -2 3.56 0.84
-24 10 2 2.08 0.58
-24 14 -2 3.08 0.74
-14 24 2 2.83 0.57
-14 24 -2 2.01 0.57
-10 24 2 2.48 0.5
-24 14 2 2.17 0.49
-14 24 -2 2.1 0.79
-24 14 2 1.76 0.46
-24 14 2 3.17 0.8
-24 10 -2 1.81 0.59
-24 10 -2 1.63 0.47
-24 15 -2 2.43 0.75
-24 9 2 2.32 0.64
-15 24 2 2.66 0.58
-24 15 -2 2.66 0.74
-9 24 -2 2.52 0.75
-24 9 -2 0.57 0.32
-9 24 2 0.2 0.22
-24 9 -2 0.56 0.48
-15 24 -2 1.25 0.75
-24 15 2 1.49 0.74
-15 24 -2 0.55 0.54
-24 15 2 0.72 0.3
-24 15 2 1.1 0.56
-24 16 -2 6.72 1.19
-8 24 -2 6.05 1.04
-24 16 -2 7.08 1.36
-24 8 2 6.8 1.08
-16 24 2 6.69 0.99
-16 24 -2 4.3 0.65
-24 16 2 6.82 1.02
-24 16 2 5.99 1.2
-16 24 -2 5.2 0.78
-16 -8 2 2.98 0.6
-24 8 -2 4.82 0.86
-24 17 -2 6.82 1.18
-17 24 2 7.62 0.97
-24 7 2 7.8 1.06
-24 17 -2 8.03 1.23
-24 17 2 7.99 1.21
-17 24 -2 4.79 0.76
-17 24 -2 8.63 1.01
-24 17 2 8.32 1.09
-17 -7 2 6.11 0.78
-24 7 -2 6.42 0.92
0 0 -3 0.12 0.14
0 0 3 0.02 0.19
0 0 -3 0.15 0.16
0 0 3 0 0.21
1 0 3 2.22 0.33
1 0 -3 1.97 0.27
-1 1 3 1.88 0.31
0 1 3 1.75 0.32
1 -1 -3 1.87 0.29
-1 0 -3 2.5 0.3
0 1 3 2.66 0.43
-1 0 3 1.45 0.27
-1 1 3 2.41 0.41
-1 0 3 2.1 0.43
1 -1 3 2.92 0.46
0 -1 3 2.6 0.43
-1 1 -3 1.57 0.27
-1 1 3 2.14 0.29
1 0 -3 2.03 0.28
0 1 -3 2.05 0.27
0 -1 -3 2.37 0.28
-1 1 -3 1.98 0.25
-1 0 -3 2.53 0.33
0 -1 3 2.4 0.36
1 -1 3 1.97 0.31
0 -1 -3 2.18 0.34
-1 1 -3 2.2 0.27
-1 2 3 12.76 1.08
-1 -1 -3 13.7 1.06
-2 1 -3 14.28 1.07
-1 2 3 13.66 1.13
-1 2 -3 13.48 1.1
-1 -1 3 14.54 1.1
2 -1 3 11.86 1.09
1 1 3 15.39 1.14
1 1 -3 14.26 1.07
-1 -1 3 13.01 1.12
2 -1 -3 13.53 1.09
1 -2 3 15.18 1.15
1 -2 3 16.07 1.11
2 -1 3 15.85 1.16
-1 2 3 11.8 1.05
1 -2 -3 13.9 1.1
-1 -1 3 14.77 1.15
-2 1 3 15.28 1.07
-2 1 3 14.02 1.13
-1 -1 -3 15.9 1.14
-1 2 -3 15.04 1.07
1 -2 -3 12.09 1.06
-2 0 3 64.09 4.81
2 -2 -3 58.73 4.78
-2 0 -3 66.02 4.77
0 2 -3 67.89 4.77
-2 2 -3 58.48 4.8
0 2 3 67.9 4.82
0 -2 3 68.64 4.79
2 0 3 64.03 4.79
-2 2 -3 64.96 4.77
-2 2 3 64.22 4.81
2 -2 3 67.49 4.82
2 0 3 69.55 4.82
-2 0 3 69.77 4.82
-2 0 3 67.55 4.78
-2 2 3 70.01 4.77
2 -2 -3 69.24 4.8
0 -2 3 68.39 4.82
0 2 3 59.16 4.76
2 -2 3 73.14 4.81
0 -2 -3 63.17 4.76
-1 -2 3 20.07 1.55
-2 -1 -3 17.17 1.47
-3 1 3 18.6 1.52
-3 2 -3 17.5 1.52
-1 3 -3 20.28 1.48
-3 2 -3 21.9 1.5
3 -2 -3 19.82 1.52
1 -3 -3 18.92 1.48
-3 1 3 20.22 1.49
3 -2 -3 21.99 1.52
-1 -2 3 19.34 1.5
3 -1 3 21.96 1.56
1 2 3 20.36 1.54
-2 3 3 17.99 1.47
2 -3 3 22.28 1.52
1 -3 -3 19.65 1.47
1 -3 -3 22.85 1.55
3 -1 3 20.68 1.52
1 2 3 17.68 1.45
-1 -2 3 20.65 1.56
-2 3 3 20.14 1.55
-1 3 -3 18.7 1.55
3 -2 3 21.65 1.7
-3 1 -3 19.31 1.7
-3 2 3 21.09 1.71
2 1 3 22.22 1.72
-2 -1 3 23.91 1.75
1 -3 3 24.9 1.75
-2 3 -3 20.09 1.72
-1 3 3 23.82 1.74
2 -3 -3 20.59 1.68
-1 3 3 19.95 1.65
-1 -2 -3 19.9 1.66
3 -1 -3 21.61 1.7
-2 -1 3 26.37 1.74
-3 2 3 23.02 1.72
3 -2 3 24.87 1.7
-3 1 -3 23.9 1.68
-2 3 -3 25.01 1.68
3 -2 3 23.92 1.74
-3 2 3 24.36 1.68
0 -3 3 158.48 10.9
0 3 -3 140.96 10.88
3 -3 3 148.37 10.93
0 -3 3 147.94 10.93
-3 3 -3 164.4 10.89
-3 0 3 141.12 10.93
3 0 -3 150.23 10.91
-3 3 -3 141.91 10.93
0 -3 -3 136.82 10.88
-3 0 3 161.47 10.92
3 -3 -3 154.97 10.9
-3 0 -3 152.51 10.89
3 0 3 158.9 10.93
3 -3 3 169.54 10.92
-3 0 3 154.16 10.89
-3 3 3 142.6 10.88
3 -3 -3 163.8 10.93
0 3 3 151.32 10.93
-3 3 3 139.14 10.92
-2 4 3 27.19 2.17
-2 -2 -3 24.67 2.09
-2 -2 3 28.98 2.17
4 -2 3 29.7 2.18
2 -4 -3 28.81 2.11
4 -2 -3 29.38 2.14
-2 4 3 27.77 2.1
-4 2 -3 31.89 2.14
2 -4 -3 29.79 2.17
-2 4 -3 28.41 2.2
-4 2 3 32.62 2.13
-4 2 3 32.32 2.19
4 -2 -3 28.67 2.16
2 -4 3 30.33 2.14
2 -4 3 28.66 2.18
-2 4 -3 26.63 2.11
4 -2 3 31.11 2.16
2 2 3 25.68 2.15
4 -2 3 26.55 2.15
-4 2 3 27.03 2.14
-4 2 -3 26.87 2.17
-2 -2 3 29.87 2.21
3 1 -3 113.89 9.08
4 -3 -3 124.92 9.08
-3 -1 -3 111.57 9.06
1 3 3 115.56 9.1
-1 -3 3 124.82 9.13
-1 4 -3 121.48 9.05
-4 1 3 121.17 9.08
-3 4 3 125.06 9.06
4 -1 3 139.41 9.12
4 -1 3 121.72 9.1
-4 1 3 110.19 9.11
3 -4 3 133.52 9.09
4 -1 3 123.84 9.09
4 -3 -3 143.02 9.11
1 -4 -3 120.43 9.05
-4 3 -3 129.31 9.12
-3 4 3 118.05 9.1
-4 3 -3 141.08 9.08
1 -4 -3 139.34 9.12
-1 -3 3 128.06 9.11
-1 4 -3 125.24 9.13
-4 1 3 137.31 9.07
3 -4 3 128.44 9.12
-4 3 3 160.04 11
4 -3 3 153.3 11.02
-4 3 3 153.91 11.04
4 -3 3 144.44 11.01
-3 -1 3 159.87 10.99
4 -1 -3 147.49 11.02
4 -1 -3 141.35 11.02
3 1 3 138.11 11.01
-1 4 3 153.71 11.04
3 -4 -3 175.61 11.05
1 -4 3 160.03 11
3 -4 -3 160.22 11
-1 -3 -3 170.35 11.06
1 -4 3 146.63 11.04
-4 3 3 128.46 11.01
-4 1 -3 158.35 11
-4 1 -3 144.34 11.03
-3 -1 3 146.64 11.02
-3 4 -3 154.66 10.99
-3 4 -3 153.64 11.05
-3 -1 3 166.64 11.07
4 -3 3 146.42 11.03
4 0 -3 65.05 4.84
-4 0 3 66.43 4.82
4 -4 -3 69.15 4.83
4 0 3 59.96 4.83
-4 0 3 59.12 4.83
0 -4 3 69.25 4.88
-4 0 3 65.04 4.88
0 -4 -3 58.81 4.78
-4 4 3 63.76 4.86
-4 4 3 69.2 4.87
-4 4 3 67.79 4.81
-4 0 -3 66.67 4.85
-4 4 -3 73.62 4.82
4 0 -3 72.47 4.85
4 -4 3 61.96 4.86
4 -4 3 75.35 4.85
-4 0 -3 69.71 4.82
0 4 3 60.96 4.86
0 -4 3 72.15 4.82
-4 4 -3 71.52 4.89
4 0 3 58.77 4.83
2 -5 -3 34.33 2.3
2 -5 -3 30.07 2.21
-2 -3 3 33.49 2.35
2 3 3 26.73 2.26
-5 3 -3 30.29 2.24
-2 5 -3 29.76 2.32
2 -5 -3 25.6 2.2
3 -5 3 31.21 2.32
-2 5 -3 30.29 2.21
-5 3 -3 29.69 2.32
-3 5 3 29.07 2.2
5 -2 3 30.74 2.27
3 -5 3 31 2.25
5 -2 3 31.31 2.28
-2 -3 3 31.23 2.29
-3 5 3 30.14 2.31
-5 2 3 29.32 2.33
-5 2 3 26.49 2.24
5 -3 -3 33.07 2.29
5 -2 3 30.71 2.27
-5 2 3 31.64 2.24
5 -3 -3 28.09 2.25
-5 3 3 10.2 0.87
5 -3 3 10.23 0.9
-3 5 -3 9.7 0.98
3 -5 -3 11.53 0.94
-5 3 3 8.6 0.89
2 -5 3 10.54 0.88
5 -2 -3 10.29 0.91
3 -5 -3 9.97 0.86
-2 5 3 10.22 0.96
-5 3 3 11.51 0.98
-5 2 -3 10.65 0.89
-3 -2 3 11.66 1.03
-3 5 -3 10.31 0.84
-3 -2 3 10.67 0.93
-2 -3 -3 11.56 0.99
5 -2 -3 10.81 0.9
5 -3 3 10.16 0.91
5 -3 3 10.07 0.92
-5 2 -3 10.9 1
2 -5 3 11.45 0.98
5 -4 -3 31.9 2.45
5 -4 -3 34.14 2.43
-4 5 3 32.71 2.47
-1 -4 3 30.87 2.47
-5 1 3 32.09 2.4
4 1 -3 34.44 2.43
4 -5 3 32.74 2.47
-5 1 3 32.44 2.49
-5 4 -3 32.27 2.5
5 -1 3 34.57 2.46
-4 -1 -3 30 2.38
5 -1 3 30.31 2.43
-5 4 -3 35.33 2.41
1 -5 -3 29.15 2.36
1 -5 -3 34.72 2.48
1 4 3 29.45 2.45
-1 5 -3 30.03 2.37
4 -5 3 34.21 2.43
-1 -4 3 36.3 2.52
-4 -1 -3 29.75 2.43
-4 5 3 34.41 2.39
1 -5 -3 33.99 2.37
-4 -1 3 35.82 2.57
-4 5 -3 34.58 2.57
1 -5 3 34.69 2.55
4 -5 -3 32.89 2.47
-4 5 -3 32.4 2.45
-5 4 3 36.51 2.47
4 -5 -3 37.04 2.52
5 -1 -3 35.29 2.51
-1 5 3 34.08 2.54
-5 1 -3 33.99 2.54
5 -4 3 36.56 2.51
-4 -1 3 29.79 2.48
1 -5 3 34.89 2.47
5 -4 3 29.61 2.5
-5 4 3 31.61 2.5
-4 -1 3 36.05 2.46
-1 -4 -3 28.55 2.42
-5 4 3 27.47 2.52
-5 1 -3 34.32 2.47
5 -4 3 31.82 2.48
0 -5 3 313.89 21.19
5 0 3 319.16 21.25
5 -5 -3 308.63 21.23
0 -5 3 302.25 21.25
-5 0 -3 308.89 21.24
0 5 3 285 21.24
5 -5 -3 317.46 21.21
-5 0 3 298.98 21.19
-5 5 -3 309.13 21.27
-5 5 3 287.9 21.18
5 -5 3 262.5 21.23
-5 5 3 280.18 21.23
5 0 -3 304.6 21.23
-5 5 -3 327.12 21.19
-5 0 3 268.36 21.25
-5 5 3 256.28 21.24
5 0 -3 309.87 21.23
0 -5 -3 248.44 21.15
-5 0 -3 298.54 21.19
5 -5 3 296.14 21.21
-3 6 -3 2.63 0.37
6 -3 3 2.35 0.53
3 -6 -3 1.75 0.34
3 3 3 1.86 0.39
3 -6 -3 2.2 0.37
-3 -3 -3 2.19 0.3
-6 3 3 2.35 0.52
-6 3 -3 3.14 0.57
6 -3 -3 2.06 0.4
6 -3 3 3.03 0.45
-3 6 -3 2.71 0.6
-3 -3 3 2.05 0.35
6 -3 3 2.35 0.42
-6 3 3 1.58 0.4
-3 -3 3 2.55 0.54
3 -6 -3 2.94 0.54
3 -6 3 2.5 0.42
-3 -3 3 2.61 0.54
-2 -4 3 420.18 33.44
6 -2 3 491.1 33.45
2 -6 -3 492.65 33.46
-2 6 -3 464.35 33.48
6 -2 3 464.7 33.44
-6 2 3 477.66 33.41
-6 4 -3 493.81 33.49
4 -6 3 464.73 33.42
-6 2 3 473.55 33.49
-6 4 -3 499.54 33.42
-2 -4 3 465.49 33.49
4 -6 3 461.37 33.48
6 -4 -3 425.02 33.42
2 -6 -3 426.86 33.38
-4 -2 3 530.71 35.96
6 -4 3 475.04 35.89
-6 4 3 469.86 35.86
-6 2 -3 540.29 35.94
2 -6 3 525.12 35.95
-4 6 -3 541.2 35.95
-4 6 -3 477.85 35.85
-6 2 -3 515.78 35.87
2 -6 3 528.75 35.87
4 -6 -3 468.95 35.86
-6 4 3 455.28 35.93
4 -6 -3 535.08 35.92
6 -4 3 480.26 35.9
-4 -2 3 458.06 35.85
-5 -1 -3 127.41 10.26
-1 -5 3 145.29 10.36
6 -1 3 150.62 10.34
-1 -5 3 141.79 10.34
1 5 3 133.26 10.32
-1 -5 3 163.59 10.28
-6 1 3 138.89 10.27
1 -6 -3 160.9 10.25
6 -5 -3 143.79 10.3
-5 -1 -3 126.81 10.26
5 -6 3 149.2 10.3
-6 1 3 127.38 10.35
5 1 -3 133.5 10.3
-6 5 -3 150.84 10.38
-5 6 3 136.44 10.34
5 -6 3 138.69 10.34
5 1 -3 135.21 10.31
6 -5 -3 154.81 10.33
1 -6 -3 150.5 10.34
-6 5 -3 157.97 10.29
-5 6 3 154.07 10.27
-5 -1 -3 126.1 10.31
6 -1 3 131.92 10.3
-1 -5 -3 172.28 11.76
1 -6 3 169.32 11.7
-6 1 -3 163.24 11.7
1 -6 3 176.24 11.79
6 -1 -3 167.28 11.74
6 -5 3 150.28 11.73
6 -5 3 146.14 11.7
1 -6 3 173.24 11.69
5 1 3 167.42 11.75
-5 6 -3 156.66 11.68
6 -5 3 175.92 11.74
-6 1 -3 165.32 11.77
-6 5 3 162.78 11.78
-5 6 -3 166.35 11.79
5 -6 -3 165.51 11.74
6 -1 -3 152.47 11.72
-6 5 3 150.29 11.69
-5 -1 3 156.14 11.68
5 -6 -3 163 11.7
-1 -5 -3 155.52 11.65
-5 -1 3 165.29 11.79
-6 5 3 151.87 11.73
-6 6 -3 108.75 8.18
0 -6 -3 118.87 8.15
6 -6 3 115.19 8.11
-6 0 -3 109.69 8.15
0 -6 3 128.22 8.09
6 0 3 115.08 8.15
0 -6 -3 113.02 8.04
-6 6 -3 97.12 8.07
-6 0 -3 99.91 8.08
0 -6 3 119.04 8.17
6 0 -3 112.96 8.12
6 -6 -3 107.24 8.09
-6 0 3 105.21 8.17
6 -6 3 103.68 8.14
-6 6 3 113.43 8.08
-6 0 3 111.74 8.08
6 0 -3 120.06 8.14
-6 6 3 110.05 8.17
6 -6 -3 114.94 8.14
4 -7 3 81.96 5.65
-4 -3 -3 79.74 5.6
-7 3 3 72.2 5.64
-7 4 -3 80.82 5.75
-3 7 -3 69.64 5.6
-3 7 -3 77.91 5.75
4 -7 3 81.99 5.75
-3 -4 3 72.7 5.68
-7 4 -3 83.78 5.66
3 -7 -3 85.53 5.71
7 -4 -3 77.86 5.69
7 -3 3 73.36 5.68
3 -7 -3 84.55 5.63
3 -7 -3 69.81 5.6
7 -3 3 78.44 5.69
7 -4 -3 71.31 5.67
-7 3 3 78.07 5.75
4 -7 -3 94.27 6.83
7 -3 -3 97.97 6.89
-4 7 -3 92.79 6.94
7 -3 -3 90.99 6.89
3 -7 3 105.12 6.96
-7 4 3 95.3 6.84
4 -7 -3 98.34 6.84
-4 -3 3 100.9 6.84
-4 -3 3 80.83 6.82
-7 4 3 94.69 6.96
-3 -4 -3 92.57 6.8
3 -7 3 79.07 6.83
7 -4 3 95.21 6.89
-7 3 -3 96.31 6.95
-7 3 -3 95.85 6.86
3 -7 3 100.95 6.85
7 -4 3 94.02 6.89
-4 7 -3 95.12 6.82
-5 7 3 86.28 6.36
-7 5 -3 94.94 6.52
-2 -5 3 88.09 6.45
-5 -2 -3 89.4 6.36
5 2 -3 78.49 6.41
7 -2 3 84.63 6.43
-7 5 -3 92.66 6.4
7 -5 -3 96.18 6.43
2 -7 -3 99.48 6.36
-7 2 3 88.33 6.5
2 -7 -3 93.78 6.46
5 -7 3 86.44 6.4
-2 -5 3 87.1 6.49
-7 2 3 94.21 6.4
-5 -2 -3 77.27 6.42
7 -2 3 86.72 6.44
7 -5 -3 74.9 6.43
5 -7 3 86.1 6.48
-5 7 -3 80.35 6.19
-2 -5 -3 76.45 6.15
7 -2 -3 83.08 6.26
7 -2 -3 90.92 6.27
-7 2 -3 89.47 6.32
-7 5 3 97.82 6.34
2 -7 3 89.13 6.2
-5 -2 3 84.82 6.2
-5 -2 3 84.02 6.32
7 -5 3 74.59 6.23
2 -7 3 90.08 6.33
-5 -2 3 77.82 6.21
5 -7 -3 73.66 6.2
5 -7 -3 87.56 6.21
-7 2 -3 86.69 6.22
-5 7 -3 92.06 6.34
2 -7 3 83.62 6.21
-2 -5 -3 93.8 6.3
7 -5 3 84.08 6.24
7 -5 3 85.26 6.25
-7 5 3 83.32 6.21
5 -7 -3 95.79 6.28
-1 -6 3 458.14 31.97
7 -1 3 449.88 31.95
7 -6 -3 387.32 31.9
1 -7 -3 490.29 31.96
6 1 -3 397.69 31.93
-6 7 3 449.82 31.88
-1 -6 3 478.96 32
-7 1 3 426.29 31.98
-6 7 3 394.36 31.97
-7 6 -3 481.61 32.01
6 -7 3 444.94 31.91
-7 1 3 445.74 31.89
-7 6 -3 498.97 31.91
6 -7 3 418.36 31.97
1 -7 -3 482.99 31.86
-6 -1 -3 406.12 31.94
6 -7 -3 441.92 32.08
7 -6 3 462.83 32.11
6 -7 -3 478.8 32.13
-7 6 3 425.54 32.07
1 -7 3 477.18 32.18
-6 -1 3 429.2 32.06
-7 1 -3 443.25 32.08
7 -1 -3 442.99 32.13
6 1 3 452.99 32.13
-7 6 3 485.58 32.18
7 -6 3 395.32 32.11
1 -7 3 483.45 32.07
-6 7 -3 418.95 32.06
1 -7 3 438.46 32.05
-6 -1 3 441.92 32.17
-6 7 -3 453.82 32.17
-1 -6 -3 383.51 32.02
-7 1 -3 442.89 32.15
-1 -6 -3 494.24 32.15
0 -7 3 100.64 6.31
-7 0 -3 79.63 6.31
7 -7 3 91.87 6.36
-7 0 3 80.87 6.43
7 0 3 84.59 6.38
-7 0 -3 82.57 6.4
7 -7 -3 85.75 6.33
-7 7 -3 87.74 6.46
7 -7 3 79.75 6.38
-7 7 3 93.81 6.45
7 -7 -3 90.01 6.39
-7 7 -3 78.78 6.3
0 -7 -3 88.87 6.25
7 0 -3 98.52 6.4
-7 0 -3 82.81 6.32
-7 0 3 81.91 6.31
0 -7 -3 91.09 6.39
-7 7 3 93.95 6.31
7 0 -3 76.52 6.35
0 -7 3 88.65 6.43
8 -4 3 46.3 3.7
-8 4 -3 50.86 3.79
8 -4 3 49.46 3.71
4 -8 3 49.63 3.64
-8 4 3 49.89 3.65
8 -4 -3 47.65 3.7
-4 -4 -3 47.97 3.58
-4 -4 3 53.82 3.64
4 -8 3 54.43 3.8
-4 -4 3 50.79 3.79
4 -8 -3 53.42 3.63
4 -8 3 44.82 3.64
8 -4 -3 44.36 3.68
4 -8 -3 44.39 3.59
-8 4 3 46.52 3.78
-8 4 -3 53.48 3.67
-4 8 -3 49.73 3.78
4 -8 -3 52.19 3.73
-8 5 -3 108 7.72
8 -5 -3 104.88 7.62
8 -3 3 106.46 7.65
3 -8 -3 110.36 7.56
-8 3 3 102.17 7.7
5 -8 3 108.87 7.71
-3 -5 3 92.75 7.62
8 -5 -3 105.84 7.64
-5 -3 -3 105.74 7.55
5 -8 3 104.89 7.59
8 -3 3 106.08 7.65
-3 -5 3 105.71 7.7
-3 8 -3 105.59 7.71
-8 3 3 94.69 7.58
3 -8 -3 105.91 7.65
-8 5 -3 106.3 7.59
-8 5 3 59.54 4.96
8 -3 -3 61.25 4.88
-5 -3 3 58.64 4.79
-8 5 3 68.37 4.83
3 -8 3 61.57 4.82
8 -5 3 66.73 4.88
-8 3 -3 72.16 4.85
3 -8 3 69.14 4.82
-3 -5 -3 62.95 4.76
8 -5 3 67.86 4.89
-5 8 -3 60.47 4.79
5 -8 -3 62.45 4.82
3 -8 3 74.45 4.98
-5 -3 3 66.25 4.82
5 -8 -3 65.27 4.81
-5 8 -3 64.55 4.95
8 -3 -3 64.67 4.89
5 -8 -3 72.61 4.91
-8 3 -3 69.71 4.96
-3 -5 -3 72.42 4.92
-2 -6 3 195.05 12.4
-6 8 3 159.99 12.49
6 -8 3 166.7 12.51
8 -6 -3 170.68 12.44
6 -8 3 168.75 12.42
-8 6 -3 180.47 12.42
8 -2 3 171.24 12.47
-8 2 3 172.21 12.41
6 2 -3 157.64 12.45
8 -6 -3 182.53 12.47
-8 2 3 157.94 12.51
-6 -2 -3 177.32 12.39
8 -2 3 167.7 12.46
2 -8 -3 182.88 12.37
2 -8 -3 183.31 12.47
-8 6 -3 176.21 12.54
-6 -2 -3 154.93 12.45
-2 -6 3 162.55 12.47
-2 -6 3 180.58 12.53
-8 2 -3 201.76 14.86
-2 -6 -3 219.66 14.92
6 -8 -3 227.48 14.92
-8 2 -3 201.83 14.94
8 -2 -3 201.68 14.9
6 -8 -3 182.22 14.84
-2 -6 -3 187.03 14.78
-6 -2 3 183.58 14.82
-6 -2 3 223.4 14.98
-6 8 -3 220.32 14.99
8 -6 3 216.68 14.9
2 -8 3 203.89 14.82
6 -8 -3 207.7 14.84
8 -6 3 209.61 14.89
-8 6 3 181.94 14.84
-6 8 -3 195.12 14.82
-6 -2 3 210.46 14.85
2 -8 3 210.79 14.84
2 -8 3 219.35 14.98
8 -2 -3 200.98 14.91
-8 6 3 224.54 14.98
-8 7 -3 153.81 11.8
-8 1 3 156.54 11.68
8 -7 -3 160.41 11.75
-8 7 -3 161.91 11.68
8 -1 3 167.53 11.76
-1 -7 3 167.44 11.8
-1 -7 3 185.85 11.67
-7 -1 -3 156.75 11.66
-7 -1 -3 147.58 11.75
1 -8 -3 173.64 11.63
1 -8 -3 162.14 11.74
7 1 -3 169.17 11.76
-8 1 3 146.66 11.79
7 -8 3 165.14 11.79
-1 -7 3 158.15 11.77
7 -8 3 152.81 11.7
8 -7 -3 172.23 11.71
-7 8 3 164.43 11.66
-7 8 3 151.78 11.79
8 -7 3 129.17 10.71
8 -1 -3 162.08 10.75
-7 -1 3 145.02 10.68
7 1 3 138.56 10.72
-1 -7 -3 152.82 10.74
8 -1 -3 161.3 10.76
-8 7 3 152.23 10.8
-8 1 -3 148.48 10.78
-7 -1 3 161.06 10.81
-8 7 3 138.03 10.66
1 -8 3 158.77 10.66
-8 1 -3 145.66 10.68
-7 8 -3 133.16 10.65
7 -8 -3 127.89 10.67
7 -8 -3 167.12 10.76
-7 -1 3 138.35 10.65
1 -8 3 163.24 10.81
-7 8 -3 148.47 10.8
-8 1 -3 130.07 10.66
-1 -7 -3 137.24 10.6
7 -8 -3 155.56 10.68
8 -7 3 155.71 10.72
-8 0 -3 241.44 19.17
0 -8 3 285.24 19.07
8 -8 3 250.53 19.17
8 0 3 264.53 19.16
0 -8 3 280.13 19.21
-8 0 3 263.99 19.09
-8 8 -3 269.22 19.22
-8 8 3 251.43 19.07
-8 0 3 272.32 19.22
8 -8 3 287.39 19.13
-8 0 -3 258.7 19.08
-8 8 -3 250.16 19.08
8 -8 -3 257.59 19.1
0 -8 -3 266.5 19.02
0 -8 -3 260.72 19.14
8 0 -3 284.35 19.18
-5 -4 -3 380.68 28.23
-9 4 3 380.43 28.28
5 -9 3 401.32 28.42
9 -5 -3 392.16 28.34
-9 4 3 378.05 28.41
-4 9 -3 414.05 28.43
-4 -5 3 422.34 28.27
4 -9 -3 403.41 28.35
-9 5 -3 420.75 28.3
-9 5 -3 398.23 28.41
5 -9 3 364.26 28.29
5 -9 3 377.64 28.28
9 -4 3 385.66 28.34
9 -5 -3 355.88 28.31
4 -9 -3 408.5 28.26
-4 -5 3 415.58 28.42
9 -4 3 395.29 28.35
-5 -4 3 426.85 30.54
5 -9 -3 410.89 30.54
4 -9 3 376.43 30.55
9 -4 -3 376.43 30.6
4 -9 3 450.01 30.55
-4 -5 -3 392.48 30.5
9 -5 3 421.62 30.61
4 -9 3 462.7 30.71
9 -4 -3 426.06 30.61
-5 -4 3 467.88 30.71
-9 4 -3 436.98 30.68
9 -5 3 411.84 30.61
5 -9 -3 420.75 30.61
-9 5 3 445.18 30.7
-9 5 3 412.04 30.55
-9 4 -3 447.38 30.57
-5 9 -3 449.36 30.7
9 -6 -3 141.72 10.32
9 -3 3 143.9 10.36
-9 6 -3 148.4 10.3
9 -6 -3 143.59 10.35
-6 -3 -3 146.98 10.24
-9 3 3 140.16 10.28
9 -3 3 144.08 10.35
-3 -6 3 139.08 10.4
-9 6 -3 139.21 10.43
6 -9 3 126.12 10.29
-9 3 3 133.42 10.41
3 -9 -3 143.91 10.35
6 -9 3 140.15 10.42
3 -9 -3 149.35 10.25
6 -9 3 142.18 10.3
-3 -6 3 152.11 10.26
-9 6 3 139.45 9.25
9 -3 -3 125.26 9.31
3 -9 3 130.98 9.22
9 -6 3 130.16 9.31
6 -9 -3 139.45 9.33
-3 -6 -3 125.06 9.31
-9 6 3 122.78 9.39
6 -9 -3 138.48 9.24
-6 9 -3 127.68 9.39
9 -3 -3 123.66 9.31
-6 9 -3 116.34 9.2
-3 -6 -3 119.05 9.17
-6 -3 3 129.44 9.24
9 -6 3 119.32 9.29
6 -9 -3 123.33 9.24
-9 3 -3 130.43 9.26
-9 3 -3 125.72 9.37
3 -9 3 125.95 9.24
3 -9 3 133.14 9.4
-7 -2 -3 299.18 25.96
9 -7 -3 389.73 25.96
7 -9 3 362.92 26.05
-9 7 -3 394.08 25.94
-2 -7 3 381.6 26.05
-9 2 3 300.22 26.01
-2 -7 3 308.26 25.97
7 -9 3 348.1 25.93
9 -2 3 362.61 25.99
9 -7 -3 387.38 26
-2 -7 3 395.02 25.9
2 -9 -3 384.63 25.87
-9 2 3 373.16 25.93
2 -9 -3 369.73 25.98
-7 -2 -3 355.44 25.89
-9 7 -3 358.52 26.05
-9 2 -3 389.6 28.58
-2 -7 -3 364.74 28.52
-9 2 -3 378.49 28.48
-7 -2 3 428.58 28.63
-9 7 3 378.16 28.47
7 -9 -3 403.68 28.48
-7 9 -3 339.92 28.44
2 -9 3 427.9 28.47
9 -2 -3 425.17 28.56
7 -9 -3 388.43 28.49
7 -9 -3 445.73 28.57
-2 -7 -3 341.3 28.4
-7 -2 3 383.29 28.48
-9 7 3 382.18 28.61
2 -9 3 410.36 28.61
9 -2 -3 409.56 28.56
9 -7 3 413.32 28.53
-7 9 -3 425.76 28.63
-1 -8 3 114.9 8.21
9 -8 -3 109.49 8.09
-9 1 3 108.41 8.07
1 -9 -3 102.77 8.12
-8 -1 -3 105.06 8.04
-8 -1 -3 100.58 8.15
8 1 -3 128.16 8.18
9 -1 3 115.15 8.17
-1 -8 3 119.32 8.03
8 -9 3 105.08 8.09
-1 -8 3 102.41 8.16
8 -9 3 112.03 8.19
-9 1 3 110.44 8.23
1 -9 -3 112.39 8.2
1 -9 -3 125.69 8
-9 8 -3 117.03 8.26
9 -8 -3 128.18 8.18
-8 9 3 107.86 8.2
-9 8 -3 97.19 8.05
-8 9 3 98.59 8.03
-1 -8 -3 103.42 7.86
1 -9 3 112.94 7.95
1 -9 3 114.13 7.77
-8 9 -3 109.02 7.97
8 -9 -3 114.39 7.9
9 -8 3 116.29 7.86
-9 8 3 111.08 7.79
-9 8 3 105.93 7.96
-8 -1 3 114.67 7.98
-8 9 -3 102.22 7.78
-8 -1 3 100.36 7.8
-1 -8 -3 103.1 7.7
8 1 3 97.62 7.86
-8 -1 3 102.52 7.78
8 -9 -3 119.91 7.82
-9 1 -3 102.14 7.92
-1 -8 -3 105.9 7.9
-9 1 -3 98.23 7.79
-9 1 -3 104.42 7.8
8 -9 -3 102.31 7.81
9 -1 -3 112.79 7.9
0 -9 -3 37.44 2.58
-9 0 3 36.38 2.71
-9 0 3 31.54 2.7
0 -9 3 37.64 2.9
-9 9 -3 34.92 2.69
-9 0 3 41.17 2.98
-9 9 3 32.45 2.88
-9 0 -3 33.5 2.69
9 -9 -3 34.34 2.84
0 -9 3 34.89 2.89
9 -9 -3 36.8 2.73
0 -9 -3 31.84 2.76
0 -9 3 37 2.65
0 -9 -3 36.5 2.91
-9 9 3 33.57 2.68
9 -9 3 30.63 2.78
-9 9 -3 37.99 2.98
-9 0 -3 32.86 2.86
9 0 3 38.9 2.86
9 -9 3 38.62 2.78
-5 -5 3 1.03 0.71
-10 5 3 1.63 0.74
10 -5 3 1.43 0.59
-10 5 -3 1.43 0.47
-10 5 -3 2.13 0.79
10 -5 3 2.01 0.64
5 -10 -3 1.24 0.55
-10 5 3 1.57 0.46
-5 -5 -3 1.58 0.35
-5 10 -3 2.22 0.82
5 -10 3 1.67 0.44
5 -10 3 2.48 0.47
10 -5 -3 1.49 0.54
5 -10 3 1.56 0.63
-6 -4 -3 12.7 1.03
-4 10 -3 13.68 1.45
4 -10 -3 12.78 1.3
10 -6 -3 14.76 1.32
10 -6 -3 11.55 1.24
6 -10 3 12.45 1.18
6 -10 3 12.23 1.49
-10 4 3 12.87 1.18
-10 4 3 10.6 1.41
4 -10 -3 10.1 1.41
6 -10 3 10.88 1.18
10 -4 3 13.17 1.36
10 -4 3 12 1.24
-10 6 -3 13.2 1.2
-4 -6 3 11.85 1.48
4 -10 -3 14.08 1.08
-10 6 -3 13.05 1.48
-4 -6 3 13.73 1.08
-6 -4 3 17.55 1.66
6 -10 -3 14.83 1.33
10 -6 3 16.14 1.48
-6 10 -3 17.05 1.75
6 -10 -3 17.01 1.54
10 -6 3 15.44 1.5
-6 -4 3 15.91 1.32
4 -10 3 16.96 1.7
-10 6 3 15.9 1.64
-10 6 3 17.35 1.4
10 -4 -3 15.39 1.48
-10 4 -3 14.38 1.64
-4 -6 -3 15.46 1.2
-10 4 -3 16.34 1.41
-4 -6 -3 16.33 1.52
10 -4 -3 15 1.45
4 -10 3 15.18 1.35
10 -7 -3 100.32 6.8
3 -10 -3 93.15 6.68
-10 3 3 85.07 6.89
-3 -7 3 94.93 6.69
7 -10 3 88.69 6.89
-3 -7 3 94.7 6.9
-10 3 3 96.15 6.75
-7 -3 -3 93.98 6.69
-10 7 -3 88.89 6.91
7 -10 3 87.17 6.75
10 -3 3 96.05 6.85
10 -7 -3 95.2 6.83
3 -10 -3 82.38 6.79
-10 7 -3 103.28 6.76
7 -10 3 82.95 6.75
3 -10 -3 93.66 6.9
-7 -3 3 77.11 5.23
3 -10 3 71.07 5.19
-3 -7 -3 62.32 4.88
-10 3 -3 68.59 5.01
7 -10 -3 71.25 4.97
-10 7 3 70.67 5.18
-10 3 -3 62.84 5.13
10 -7 3 66.91 5.05
3 -10 3 65.87 4.96
-3 -7 -3 64.27 5.06
-10 7 3 58.83 4.97
-7 10 -3 75.08 5.22
10 -3 -3 75.45 5.1
10 -7 3 61.96 5.03
-7 -3 3 64.65 4.96
7 -10 -3 78.4 5.11
7 -10 -3 66.38 4.98
10 -3 -3 62.67 5.06
7 -10 -3 64.17 5.13
-10 2 3 15.62 1.68
-10 8 -3 17.03 1.47
-2 -8 3 18.01 1.36
-10 8 -3 17.51 1.82
2 -10 -3 18.43 1.74
-8 -2 -3 17.16 1.39
8 -10 3 17.3 1.69
-10 2 3 17.01 1.46
10 -8 -3 17 1.61
8 2 -3 13.79 1.48
-2 -8 3 16.79 1.69
2 -10 -3 16.08 1.53
8 -10 3 17.68 1.5
10 -2 3 19 1.68
2 -10 3 20.3 1.87
10 -8 3 19.64 1.7
-10 8 3 18.03 1.81
-2 -8 -3 16.73 1.38
10 -2 -3 22.31 1.75
-10 2 -3 16.72 1.6
8 -10 -3 22.41 1.79
-8 10 -3 18.48 1.48
8 -10 -3 18.48 1.77
10 -2 -3 19.28 1.68
-8 -2 3 19.44 1.56
8 -10 -3 18.06 1.58
-10 2 -3 17.15 1.8
-2 -8 -3 15.85 1.62
-10 8 3 18.12 1.56
-8 -2 3 22.77 1.94
-10 2 -3 17.71 1.56
-8 10 -3 20.02 1.92
8 -10 -3 19.63 1.59
2 -10 3 19.81 1.52
-2 -8 -3 17.03 1.68
1 -10 -3 92.66 7.39
9 1 -3 85.14 7.42
-10 9 -3 106.41 7.57
-1 -9 3 104.34 7.3
-1 -9 3 108.92 7.54
-10 1 3 105.4 7.36
10 -9 -3 109.46 7.45
-10 9 -3 97.32 7.34
1 -10 -3 108.77 7.26
10 -1 3 108.34 7.47
10 -9 -3 98.57 7.38
9 -10 3 87.98 7.46
9 -10 3 104.86 7.39
1 -10 -3 105.93 7.52
-9 -1 -3 95.14 7.32
-10 1 3 107.22 7.55
-9 10 3 86.73 7.47
-9 -1 3 89.71 5.98
-9 10 -3 87.06 5.98
9 -10 -3 64.72 5.82
-10 9 3 84.07 5.72
-1 -9 -3 73.04 5.77
9 -10 -3 73.12 5.74
-9 10 -3 72.3 5.69
1 -10 3 83.15 5.69
-9 -1 3 79.7 5.74
1 -10 3 76.95 5.9
-1 -9 -3 73.6 5.61
10 -1 -3 77.84 5.85
-10 1 -3 72.06 5.87
-10 1 -3 79.88 5.73
9 -10 -3 86.01 5.76
-10 9 3 64.66 5.87
9 1 3 88.65 5.87
-10 10 -3 202.42 14.55
-10 0 3 218.56 14.58
-10 0 3 199.95 14.38
0 -10 3 193.41 14.48
0 -10 -3 197.53 14.26
0 -10 3 207.72 14.31
10 -10 -3 217.58 14.4
-10 0 3 167.45 14.34
0 -10 3 209.54 14.53
10 0 -3 176.18 14.45
-10 0 -3 204.66 14.36
0 -10 -3 187.88 14.48
10 -10 -3 216.5 14.48
-10 10 -3 183.7 14.34
5 -11 -3 31.51 2.64
-5 -6 3 34.4 2.49
-5 -6 3 35.02 2.83
11 -5 3 35.02 2.73
11 -6 -3 35.47 2.7
-11 5 3 29.17 2.77
5 -11 -3 35.58 2.8
6 -11 3 36.59 2.9
11 -6 -3 30.41 2.63
11 -5 3 28.26 2.61
6 -11 3 31.45 2.57
-11 6 -3 32.29 2.82
6 -11 3 31.02 2.52
-6 -5 -3 33.03 2.45
-11 6 -3 34.84 2.6
-11 5 3 34.78 2.58
11 -6 3 26.67 2.22
-11 5 -3 25.61 2.37
-11 5 -3 26.76 2.14
6 -11 -3 24.85 2.22
11 -5 -3 25.68 2.19
5 -11 3 27.8 2.42
11 -5 -3 28.63 2.26
5 -11 3 23.81 2.07
-5 -6 -3 25.12 1.96
-11 6 3 27.97 2.14
-11 6 3 24.57 2.33
-6 11 -3 28.9 2.45
6 -11 -3 24 2.05
-6 -5 3 28.71 2.45
6 -11 -3 28.9 2.36
-6 -5 3 25.91 2.04
11 -6 3 26.85 2.24
11 -7 -3 25.45 2.05
-7 -4 -3 23.01 1.82
4 -11 -3 21.51 1.98
-11 7 -3 24 1.96
-11 7 -3 21.71 2.23
11 -4 3 23.86 2.12
-11 4 3 19.33 2.14
-4 -7 3 24.09 2.23
7 -11 3 27.27 1.98
11 -7 -3 25.77 2.09
4 -11 -3 24.62 1.84
7 -11 3 24.21 2.19
-11 4 3 24.13 1.96
7 -11 3 24.11 1.94
-4 -7 3 23.25 1.83
7 -11 -3 24.88 1.95
-4 -7 -3 20.79 1.62
11 -7 3 20.94 1.88
4 -11 3 20.53 1.76
-7 11 -3 25.69 2.22
-11 4 -3 21.39 1.83
7 -11 -3 21.65 1.77
-11 7 3 22.38 1.8
-11 4 -3 20.39 2.07
-7 -4 3 22.36 2.14
-7 -4 3 20.75 1.74
4 -11 3 21.44 2.13
-4 -7 -3 22.65 1.92
11 -4 -3 22.44 1.91
11 -7 3 21.38 1.9
-11 7 3 21.58 2.07
7 -11 -3 22.03 2.02
8 -11 3 17.25 1.64
-11 8 -3 20.46 1.66
8 -11 3 18 1.64
-3 -8 3 19.21 1.5
3 -11 -3 20.14 1.49
11 -8 -3 21.66 1.82
-11 8 -3 19.1 1.99
11 -3 3 19.44 1.86
11 -8 -3 20.81 1.74
8 -11 3 17.8 1.88
-3 -8 3 18.55 1.91
3 -11 -3 16.03 1.64
-11 3 3 18.16 1.89
3 -11 -3 19.94 1.88
-11 3 3 19 1.64
-8 -3 -3 19.1 1.53
-3 -8 -3 14.61 1.14
-11 8 3 14.62 1.63
11 -3 -3 15.45 1.48
11 -3 -3 14.65 1.44
3 -11 3 15.5 1.73
-8 -3 3 15.13 1.32
-3 -8 -3 15.14 1.48
8 -11 -3 15.57 1.58
3 -11 3 16.34 1.31
-11 3 -3 15.72 1.4
-8 -3 3 17.27 1.77
8 -11 -3 13.51 1.28
8 -11 -3 16.14 1.36
-8 11 -3 16.95 1.71
-11 3 -3 13.05 1.62
-11 8 3 15.29 1.36
9 -11 3 34.11 3.02
2 -11 -3 40.89 2.73
-11 2 3 34.64 2.86
11 -9 -3 36.51 2.91
-11 9 -3 34.75 2.84
11 -9 -3 40.72 3.01
-11 9 -3 36.7 3.17
-11 2 3 35.17 3.1
-9 -2 -3 34.84 2.79
2 -11 -3 37.26 3.07
-2 -9 3 37.55 2.76
-2 -9 3 38.13 3.08
11 -2 3 38.21 3.03
9 -11 3 37.64 2.88
-11 2 -3 31.17 2.57
11 -2 -3 36.14 2.73
-9 -2 3 34.1 2.56
9 -11 -3 33.8 2.59
-9 11 -3 38.4 2.95
-11 9 3 32.05 2.56
-2 -9 -3 27.98 2.59
-11 9 3 27.58 2.74
-11 2 -3 28.39 2.72
9 -11 -3 35.37 2.57
2 -11 3 36.65 2.52
2 -11 3 34.54 2.82
1 -11 -3 37.02 3.08
-10 -1 -3 35.49 2.84
11 -10 -3 39.8 3.05
1 -11 -3 37.55 2.73
10 -11 3 38.86 2.94
11 -10 -3 40.65 2.95
-1 -10 3 36.37 2.79
-11 10 -3 33.88 2.84
-11 10 -3 38.3 3.22
-11 1 3 39.37 3.19
-1 -10 3 37.81 3.13
-11 1 3 33.68 2.85
-11 1 -3 37.33 2.76
1 -11 3 34.25 2.67
10 -11 -3 34.18 2.77
1 -11 3 31.84 2.92
1 -11 3 35.61 3.02
-10 -1 3 41.7 3.14
-10 11 -3 34.83 3.07
10 -11 -3 30.38 2.73
11 -1 -3 36.27 2.89
-10 -1 3 32.47 2.75
10 -11 -3 38.16 2.92
10 1 3 38.79 2.96
11 -10 3 37.04 2.85
-11 11 -3 3.2 0.49
0 -11 -3 1.82 0.48
0 -11 3 2.96 0.73
-11 0 3 2.17 0.41
11 0 -3 3.17 0.67
-6 12 -3 5.83 1.27
6 -12 -3 4.24 0.68
-12 6 -3 4.79 0.73
-12 6 3 4.54 0.98
-6 -6 3 2.62 0.96
12 -6 -3 3.92 0.76
-12 6 -3 4.63 1.08
-12 6 3 5 0.9
-6 -6 -3 4.37 0.98
6 -12 3 3.57 0.84
6 -12 3 4.45 0.81
12 -6 -3 5.65 1.07
-6 -6 3 4.27 0.66
12 -6 3 3.89 0.74
-6 -6 -3 4.08 0.54
12 -6 3 3.21 0.73
6 -12 -3 3.4 0.77
5 -12 -3 15.12 1.15
12 -5 3 13.72 1.48
12 -7 -3 11.77 1.35
-12 5 3 12 1.57
-5 -7 3 12.81 1.63
-12 7 -3 12 1.34
-12 7 -3 11.1 1.63
7 -12 3 12.12 1.7
-7 -5 -3 11.92 1.09
5 -12 -3 14.66 1.68
7 -12 3 12.67 1.3
-12 5 3 13.58 1.34
12 -7 -3 14.94 1.52
-5 -7 3 12.62 1.12
-7 -5 3 11.47 1.59
-7 -5 3 9.9 0.98
-5 -7 -3 8.64 1.18
7 -12 -3 10 1.12
-12 7 3 10.54 1.4
12 -5 -3 11.06 1.25
12 -5 -3 12.26 1.28
7 -12 -3 12.53 1.48
12 -7 3 9.88 1.2
-12 7 3 12.37 1.19
-12 5 -3 9.84 1.44
-5 -7 -3 9.27 0.85
-12 5 -3 9.47 1.17
12 -7 3 8.38 1.12
7 -12 -3 10.46 1.03
5 -12 3 9.41 1.04
5 -12 3 11.25 1.56
-7 12 -3 12.66 1.73
12 -4 3 54.84 4
8 -12 3 49.71 3.87
-12 8 -3 52.21 3.86
-12 8 -3 47.07 4.09
12 -8 -3 55.06 3.93
-8 -4 -3 49.44 3.74
8 -12 3 47.72 4.07
4 -12 -3 50.95 3.74
-12 4 3 52.9 3.85
-4 -8 3 53.21 4.07
-4 -8 3 49.52 3.74
12 -8 -3 54.37 3.98
4 -12 -3 48.34 4.07
-12 4 3 44.79 4.04
-12 4 -3 29.83 2.88
-12 4 -3 34.42 2.67
4 -12 3 36.71 3
12 -4 -3 33.33 2.8
-12 8 3 33.7 2.65
12 -8 3 35.44 2.77
-8 12 -3 39.78 3.09
8 -12 -3 34.43 2.87
4 -12 3 34.15 2.62
-4 -8 -3 34.61 2.5
8 -12 -3 35.22 2.65
-8 -4 3 34.24 2.62
-4 -8 -3 31.06 2.72
8 -12 -3 32.46 2.73
-9 -3 -3 5.23 0.68
3 -12 -3 5.39 0.59
12 -9 -3 4.97 0.97
9 -12 3 4.08 0.76
12 -9 -3 5.41 1.01
9 -12 3 3.08 0.71
9 -12 3 4.17 0.8
-3 -9 3 4.77 0.63
-3 -9 3 4.13 1.05
12 -3 3 5.1 1.14
-12 3 3 4.93 0.84
3 -12 -3 3.47 0.78
-12 3 3 3.13 0.92
-12 9 -3 5.41 1.21
-12 9 -3 3.75 0.64
-3 -9 -3 1.76 0.49
-9 -3 3 3.69 1.02
-9 12 -3 4.29 1.11
3 -12 3 1.62 0.65
9 -12 -3 3.09 0.59
-12 3 -3 2.09 0.43
-12 3 -3 2.39 0.76
12 -9 3 2.87 0.69
-12 9 3 1.82 0.73
12 -3 -3 2.46 0.65
-12 9 3 2.26 0.5
-9 -3 3 3.25 0.68
9 -12 -3 2.12 0.56
-12 3 -3 2.26 0.48
-12 10 -3 6.71 0.84
12 -2 3 8.64 1.3
-2 -10 3 6.94 0.77
-10 -2 -3 6.93 0.84
-12 2 3 7.13 1.37
10 -12 3 6 0.92
2 -12 -3 6.32 1.21
-12 2 3 6.57 0.86
12 -10 -3 6.88 1.13
2 -12 -3 8.52 0.69
-12 10 -3 7.24 1.52
-2 -10 3 7.6 1.34
-12 10 3 2.5 0.78
10 -12 -3 4.02 0.92
-12 2 -3 3.3 0.52
10 -12 -3 2.16 0.53
-12 2 -3 2.84 0.68
10 -12 -3 2.52 0.56
-12 10 3 4.13 0.58
-1 -11 3 117.67 8.29
-11 -1 -3 117.46 8.34
11 -12 3 106.27 8.37
12 -1 3 120.13 8.52
-12 11 -3 114.73 8.61
-1 -11 3 103.28 8.52
-12 1 3 128.63 8.64
1 -12 -3 111.43 8.23
12 -11 -3 110.58 8.39
11 -12 -3 58.2 4.46
12 0 3 63.77 5.18
0 -12 3 60.14 5.24
-12 0 3 60.86 5.06
-12 12 -3 67.01 5.32
0 -12 3 75.78 4.99
-12 0 3 70.82 5.33
-12 0 -3 75.98 5.07
-13 7 -3 9.82 1.49
7 -13 3 14.04 1.71
13 -7 -3 11.01 1.31
-6 -7 3 12.01 1.69
7 -13 3 11.79 1.27
-13 7 -3 13.24 1.31
6 -13 -3 13.99 1.63
6 -13 -3 13.36 1.16
-13 6 3 12.04 1.32
-7 -6 -3 11.98 1.07
-6 -7 3 12.27 1.12
13 -7 -3 13.65 1.49
13 -6 -3 15.21 1.55
-13 7 3 13.57 1.4
-7 -6 3 13.86 1.22
7 -13 -3 13.12 1.24
6 -13 3 15.29 1.79
-6 -7 -3 13.64 1.12
-7 -6 3 11.94 1.71
-13 6 -3 13.27 1.35
7 -13 -3 15.65 1.71
6 -13 3 14.64 1.34
-13 6 -3 9.79 1.53
-7 13 -3 14.96 1.89
13 -5 3 2.34 0.69
13 -8 -3 3.36 0.78
-13 8 -3 3.24 0.99
-5 -8 3 3.4 0.62
5 -13 -3 2.6 0.74
13 -8 -3 2.09 0.63
-13 5 3 3.88 0.7
5 -13 -3 3.25 0.62
8 -13 3 3.48 0.67
-5 -8 3 3.11 0.97
-8 -5 -3 3.23 0.59
-13 5 3 2.77 0.85
-13 8 -3 4.91 0.9
13 -5 -3 2.55 0.67
-8 -5 3 3.09 1.03
-13 8 3 3.52 0.61
-5 -8 -3 3.34 0.46
-13 5 -3 2.13 0.75
-13 5 -3 2.96 0.59
8 -13 -3 2.48 0.65
8 -13 -3 3.39 0.73
13 -8 3 1.84 0.56
5 -13 3 2.58 0.79
-8 13 -3 4.86 1.21
-13 8 3 2.5 0.78
-8 -5 3 3.23 0.53
5 -13 3 3.53 0.73
13 -9 -3 30.02 2.53
4 -13 -3 31.74 2.25
9 -13 3 31.61 2.43
-13 9 -3 29.86 2.37
13 -9 -3 28.15 2.45
4 -13 -3 25.95 2.59
13 -4 3 27.61 2.5
-13 4 3 23.92 2.57
-4 -9 3 30 2.65
-4 -9 3 31.46 2.26
-13 4 3 31.13 2.39
-13 9 -3 27.09 2.68
-9 -4 -3 33.65 2.29
9 -13 -3 23.61 1.93
-9 -4 3 23.57 1.89
-9 -4 3 24.03 2.29
4 -13 3 26 1.87
4 -13 3 22.13 2.21
13 -9 3 20.98 1.99
-13 9 3 19.23 1.84
-4 -9 -3 24.07 1.71
3 -13 -3 10.52 1.32
13 -10 -3 11.78 1.26
10 -13 3 11.79 1.14
-13 3 3 12.85 1.48
-3 -10 3 12.03 1.49
-13 3 3 9.56 1.09
-13 10 -3 12.03 1.08
3 -13 3 11.91 1.29
13 -3 -3 8.06 1.16
-2 -11 3 21.43 2.1
13 -11 -3 22.19 1.91
-13 11 -3 23.14 2.25
13 -2 3 23.35 2.05
-13 2 3 22.83 2.16
11 -13 -3 30.93 2.47
-11 -2 3 28.11 2.73
2 -13 3 36.29 2.41
-11 13 -3 32.86 2.8
13 -11 3 31.06 2.53
2 -13 3 25.49 2.69
-13 2 -3 30.48 2.45
-11 -2 3 30.99 2.47
-13 1 3 3.38 0.57
-1 -12 3 2.79 0.78
-13 1 3 4.67 0.97
-12 13 -3 6.22 1.23
-12 -1 3 6.12 1.21
13 -12 3 5.29 0.81
-13 0 3 35.52 2.77
-7 -7 3 20.67 2.19
7 -14 3 21.52 2.21
7 -14 3 26.54 1.99
-14 7 -3 22.59 1.94
7 -14 -3 27 1.92
-14 7 3 20 1.93
-7 -7 3 27.44 1.9
14 -7 -3 20.06 2.06
-14 8 -3 14.17 1.29
14 -8 -3 11.86 1.42
-14 6 3 15.77 1.31
-6 -8 3 12.05 1.56
6 -14 -3 12.64 1.5
-8 14 -3 12.22 1.53
6 -14 3 11.66 1.43
-14 8 3 10.69 1.01
-14 6 -3 8.3 0.98
-8 -6 3 11.84 1.41
14 -6 -3 8.36 1.12
8 -14 -3 6.7 1.14
-5 -9 3 14.46 1.51
-14 9 -3 13.7 1.19
-14 9 -3 10.21 1.44
5 -14 -3 12.84 1.44
14 -9 -3 11.87 1.33
5 -14 3 10.92 1.39
-9 -5 3 13.01 1.47
14 -5 -3 9 1.19
4 -14 -3 3.85 0.93
14 -4 3 4.23 0.87
14 -10 -3 7.03 0.92
-14 10 -3 5.44 1.18
-14 4 3 5.97 1.15
-14 10 -3 4.6 0.68
-10 -4 3 12.73 1.58
-10 14 -3 13.83 1.67
-11 14 -3 0.9 0.81
-12 -2 -3 54.22 4.08
-2 -12 3 57.47 4.04
2 -14 -3 51.51 3.95
-14 1 -3 39.27 3.2
-13 -1 3 44.18 3.24
0 -14 3 22.65 1.7
-14 0 -3 18.01 1.7
9 -15 3 6.72 1.1
-9 -6 -3 7.37 0.86
6 -15 -3 6.6 0.87
-6 -9 3 5.8 0.84
-6 -9 -3 6.85 0.66
9 -15 -3 5.51 0.91
6 -15 3 6.5 0.96
-9 -6 3 4.58 0.88
-10 -5 -3 4.16 0.78
-5 -10 3 3.19 0.71
5 -15 -3 4.06 0.69
-10 -5 3 2.19 0.57
10 -15 -3 2.03 0.61
5 -15 3 2.26 0.58
4 -15 -3 0.37 0.36
-4 -11 3 0.21 0.44
-11 -4 -3 0.3 0.49
-11 -4 3 3.06 0.65
4 -15 3 4.36 0.87
11 -15 -3 2.23 0.64
-3 -12 3 1.33 0.47
-12 -3 -3 1.64 0.55
3 -15 -3 1.79 0.35
-12 -3 3 1.38 0.56
3 -15 3 1.96 0.56
-13 -2 -3 6.75 0.93
-2 -13 3 5.95 0.85
2 -15 3 12.5 1.15
-13 -2 3 9.14 1.13
-14 -1 -3 29.55 2.53
-1 -14 3 35.17 2.51
-14 -1 3 6.62 0.77
-15 15 3 3.7 0.63
-15 15 -3 3.07 0.55
8 -16 -3 8.36 1.07
-8 -8 -3 10.2 0.92
-8 -8 3 9.29 1.09
8 -16 3 9.56 1.18
-7 -9 3 3.09 0.59
9 -16 3 2.72 0.67
7 -16 -3 3.74 0.81
-9 -7 -3 2.81 0.52
-7 -9 -3 5.55 0.63
9 -16 -3 4.8 0.89
-9 -7 3 5.37 0.93
7 -16 3 5.76 0.95
-10 -6 -3 17.2 1.47
6 -16 -3 17.6 1.47
-6 -10 3 16.17 1.48
6 -16 3 13.38 1.27
-10 -6 3 11.69 1.22
-6 -10 -3 10.91 0.9
10 -16 -3 11.45 1.25
-11 -5 -3 10.19 1.1
-5 -11 3 9.23 1.04
5 -16 -3 9.6 0.96
11 -16 -3 7.04 0.99
-11 -5 3 8.33 1.03
4 -16 -3 4.41 0.64
-12 -4 -3 5.41 0.88
-4 -12 3 4.61 0.79
-3 -13 3 57.98 4.21
-13 -3 -3 55.48 4.25
-13 16 -3 21.33 1.68
-16 14 -3 -0.12 0.49
-16 2 3 0.89 0.37
-16 14 -3 0.39 0.31
-14 16 -3 1.95 0.45
2 -16 3 2.41 0.57
-16 14 3 1.39 0.5
-16 15 -3 4.22 0.68
-1 -15 3 3.95 0.55
1 -16 3 3.59 0.64
-16 15 3 2.75 0.79
-15 16 -3 3.47 0.61
-17 8 3 1.28 0.35
-17 9 -3 2.41 0.52
-9 17 3 1.44 0.33
-8 17 -3 1.89 0.44
-9 17 3 1.93 0.52
-8 17 3 1.8 0.53
-17 8 -3 1.23 0.49
-9 17 -3 1.85 0.43
-17 7 3 9.71 0.94
-17 10 -3 7.38 1.03
-17 10 -3 10.6 1.08
-10 17 -3 9.88 1.08
-17 10 3 11 1.25
-17 6 3 29.06 2.34
-11 17 3 27.49 2.3
-17 11 -3 30.65 2.42
-17 11 -3 32.82 2.47
-6 17 3 9.18 1.05
-17 12 -3 14.32 1.52
-5 -12 3 18.53 1.42
5 -17 -3 17.66 1.35
-17 12 -3 17.45 1.66
-17 5 3 13.48 1.46
-17 4 3 1.06 0.44
-13 -4 -3 1.55 0.49
-17 13 -3 1.68 0.57
-4 -13 3 1.34 0.37
-13 17 3 1.76 0.59
-13 17 3 0.93 0.35
-17 13 -3 1.37 0.62
-13 17 -3 2.64 0.55
-13 -4 3 0.96 0.36
-17 4 -3 0.04 0.43
4 -17 3 1.98 0.55
-17 13 3 1.21 0.46
-4 17 3 -0.28 0.47
-17 4 -3 1.43 0.48
-13 17 -3 0.15 0.42
-17 3 3 22.66 1.87
-14 17 3 19.08 1.75
-14 -3 -3 19.08 1.78
-17 3 3 26.1 1.89
-17 14 -3 26.21 2.01
-17 14 3 35.79 3.09
-17 3 -3 37.7 3.11
-14 17 -3 42.52 3.05
-17 15 -3 2.13 0.46
-17 2 3 1.56 0.47
-17 15 -3 3.08 0.68
-17 2 3 1.9 0.67
-15 17 3 3.6 0.91
-15 17 3 1.08 0.34
-17 15 -3 1.24 0.55
-17 2 -3 3.3 0.91
-15 17 -3 3.07 0.77
-17 15 3 2.67 0.9
-16 17 3 1.72 0.92
-17 16 -3 1.9 0.64
-17 1 3 1.85 0.83
-17 16 -3 1.33 0.63
-17 16 3 3.34 1
-16 17 -3 3.86 0.8
-17 1 -3 3.87 0.95
-17 0 3 1.09 0.94
-17 17 -3 2.05 0.73
-17 17 3 0.97 0.92
-17 17 -3 1.01 0.65
-17 0 -3 1.07 0.85
-17 0 3 0.43 0.36
-9 -9 -3 0.37 0.2
-18 9 3 1.32 0.61
-9 18 -3 2.07 0.77
-18 9 -3 1.19 0.79
-9 18 3 0.88 0.5
-9 18 3 1.78 0.85
-18 9 3 1.3 0.78
9 -18 -3 0.73 0.42
-9 -9 3 0.79 0.46
-18 9 -3 0.79 0.53
-8 18 -3 14.46 1.58
8 -18 -3 14.88 1.33
-18 8 3 16.64 1.6
-18 10 -3 15.07 1.71
-8 -10 3 13.86 1.33
-10 18 3 16.91 1.56
-18 10 -3 18.68 1.84
-18 8 3 11.31 1.61
-10 18 3 18.29 1.85
-10 18 -3 10.11 1.42
-18 8 -3 11.67 1.47
-18 10 3 10.63 1.65
-8 18 3 8.86 1.02
-18 10 3 7.95 1.1
-10 -8 3 8.65 1.02
-18 7 3 3.29 0.72
-7 18 -3 2.82 0.62
-18 11 -3 5.3 1
-18 11 -3 2.85 0.85
7 -18 -3 2.63 0.58
-7 -11 3 2.94 0.6
-11 -7 -3 2.6 0.58
-11 18 3 4.35 0.84
-18 7 -3 7.71 1.24
-11 -7 3 5.58 0.8
-18 11 3 4.81 0.87
-7 18 3 7.98 1.35
-11 18 -3 8.12 1.28
-11 18 -3 4.18 0.74
-12 18 3 3.06 0.66
-18 12 -3 2.57 0.9
-12 18 3 2.04 0.66
-6 18 -3 1.26 0.46
-18 12 -3 3.71 0.98
-6 -12 3 1.03 0.3
-12 -6 -3 1.83 0.43
-12 18 3 1.67 0.56
-18 12 3 1.48 0.42
-6 18 3 0.62 0.33
-12 18 -3 2.4 0.69
-18 6 -3 2.01 0.67
6 -18 3 1.69 0.45
-18 12 3 3.13 0.9
-18 12 3 1.05 0.43
-12 -6 3 1.04 0.37
-18 6 -3 1.26 0.42
-6 18 3 2.36 0.68
-13 18 3 12.52 1.28
-13 -5 -3 10.54 1.02
-18 5 -3 23.46 2.1
-18 13 3 24.46 2.15
-18 5 -3 25.67 2.14
-13 18 -3 22.85 2.12
-5 18 3 21.68 2.1
-18 13 3 26.48 2.41
-13 18 -3 27.46 2.12
-14 18 3 4.39 0.93
-14 18 3 2.77 0.62
-18 14 -3 3.52 0.9
-18 4 3 4.1 0.79
-18 14 -3 2.99 0.89
-18 4 3 1.77 0.53
-18 4 -3 1.09 0.55
-18 14 3 0.82 0.72
-18 4 -3 1.44 0.75
-14 18 -3 1.46 0.49
-4 18 3 0.95 0.49
-14 18 -3 1.89 0.79
-18 14 3 0.8 0.37
-18 14 3 2.15 0.81
-18 15 -3 1.64 0.87
-18 15 -3 2.02 0.49
-18 15 -3 1.46 0.86
-18 3 3 2.25 0.75
-15 18 3 1.74 0.58
-15 18 3 2.19 0.9
-18 3 3 1.04 0.67
-15 18 -3 0.44 0.41
-18 15 3 0.4 0.61
-15 18 -3 2.46 0.79
-3 18 3 0.34 0.42
-18 3 -3 1.12 0.46
-18 15 3 0.34 0.31
-18 15 3 2.57 0.93
-18 3 -3 2.44 0.89
-18 2 3 1.7 0.72
-16 18 3 2.16 0.98
-18 16 -3 0.89 0.81
-16 18 3 1.91 0.56
-18 16 -3 1.94 0.88
-18 16 -3 2.77 0.71
-18 2 3 2.06 0.81
-18 2 -3 2.44 0.92
-16 18 -3 2.12 0.8
-18 16 3 2.34 1
-16 -2 3 3.55 0.92
-18 17 -3 3.3 0.77
-17 18 3 1.99 0.45
-17 -1 -3 2.94 0.82
-18 1 3 2.2 0.66
-18 17 -3 1.33 0.71
-18 1 3 2.68 0.86
-17 18 3 3.41 0.99
-18 17 -3 2.04 0.88
-17 18 -3 2.5 0.77
-18 17 3 1.88 0.93
-17 18 -3 1.51 0.65
-17 -1 3 2.89 0.88
-18 1 -3 2.52 0.89
-18 0 3 5.76 1
-18 0 -3 7.27 1
-18 18 -3 5.49 1.05
-18 18 -3 7.72 1.27
-18 0 3 9.19 1.09
-18 18 3 7.37 1.14
-10 19 3 4.36 0.82
-9 19 -3 3.36 0.95
-19 10 -3 3.81 0.95
-19 10 -3 5.73 1.16
-10 19 3 5.21 1.12
-19 9 3 3.47 0.88
-19 9 3 3.57 0.97
-19 10 3 4.37 0.83
-9 19 3 4.47 0.79
-10 19 -3 6.27 1.02
-9 19 3 7.3 1.16
-19 9 -3 3.89 0.88
-19 9 -3 5.16 1.12
-19 10 3 5.47 1.1
-8 19 -3 3.89 0.9
-19 8 3 3.83 0.91
-11 19 3 5.62 0.89
-19 8 3 5.67 0.95
-11 19 3 5.72 1.13
-19 11 -3 5.71 1.1
-11 19 3 3.33 0.76
-19 11 -3 4.94 1.11
-19 8 -3 1.37 0.41
-19 11 3 2.35 0.66
-19 8 -3 1.86 0.61
-12 19 3 24.11 2.48
-19 7 3 24.78 2.34
-12 19 3 22.4 2.21
-19 12 -3 26.12 2.57
-7 19 -3 20.28 2.17
-12 19 3 24.68 2.18
-19 12 -3 26.8 2.59
-12 19 -3 23.86 2
-7 19 3 21.12 1.9
-19 7 -3 19.96 1.94
-19 7 -3 26.73 2.31
-19 12 3 27.72 2.55
-19 12 3 17.65 1.92
-7 19 3 24.07 2.23
-19 12 3 18.63 1.98
-12 19 -3 24.18 2.24
-13 19 3 32.02 2.88
-19 13 -3 35.92 3.09
-13 19 3 30.85 2.63
-19 13 -3 30.51 2.95
-19 6 3 32.63 2.79
-13 19 3 28.88 2.79
-6 19 3 26.5 2.45
-19 13 3 25.75 2.41
-13 19 -3 26.18 2.27
-6 19 3 21.94 2.11
-13 19 -3 26.86 2.45
-19 13 3 25.76 2.23
-19 6 -3 26.57 2.3
-19 6 -3 29.43 2.55
-19 13 3 29.37 2.68
-14 19 3 8.31 1.48
-19 14 -3 10 1.33
-14 19 3 10.03 1.72
-19 5 3 12.35 1.67
-14 19 3 10.03 1.4
-19 14 -3 11.86 1.89
-14 19 -3 10.12 1.59
-5 19 3 7.93 1.45
-19 14 3 9.44 1.59
-19 14 3 9.32 1.75
-19 14 3 8.16 1.21
-14 19 -3 10.85 1.43
-19 5 -3 8.99 1.53
-19 5 -3 10.21 1.63
-19 15 -3 11.81 1.27
-15 19 3 14.44 1.91
-19 15 -3 14.87 1.91
-19 4 3 17.26 1.79
-15 19 3 15.49 1.53
-19 4 3 11.58 1.53
-19 15 -3 15.45 2.07
-19 4 -3 10.86 1.44
-15 19 -3 9.26 1.37
-19 4 -3 10.38 1.6
-19 15 3 9.66 1.75
-19 15 3 8.32 1.08
-19 15 3 9.92 1.71
-15 19 -3 10.68 1.54
-16 19 3 2.77 0.95
-19 16 -3 1.8 0.89
-19 3 3 2.06 0.78
-19 3 3 1.53 0.72
-19 16 -3 3.12 0.97
-16 19 3 2.05 0.68
-19 16 -3 3.33 0.69
-16 19 -3 1.08 0.49
-19 3 -3 4.34 0.88
-19 16 3 1.27 0.41
-16 19 -3 4.31 0.8
-19 16 3 2.16 0.81
-19 3 -3 3 0.6
-19 16 3 3.45 0.95
-3 19 3 1.76 0.5
-17 19 3 1.05 0.6
-19 2 3 1.01 0.7
-17 19 3 0.94 0.87
-19 2 3 0.13 0.72
-19 17 -3 -0.12 0.85
-19 17 -3 0.92 0.71
-17 -2 -3 1.31 0.74
-19 17 -3 0.34 0.85
-17 19 -3 0.52 0.5
-19 17 3 -0.03 0.57
-17 19 -3 -0.18 0.7
-19 2 -3 0.5 0.81
-17 -2 3 0.93 0.8
-19 17 3 0.29 0.3
-19 2 -3 0.02 0.36
-19 17 3 0.69 0.87
-18 19 3 9.88 1.14
-19 1 3 10.3 1.44
-19 18 -3 11.27 1.61
-19 1 3 12.77 1.39
-19 18 -3 9.21 1.56
-18 -1 -3 13 1.5
-18 19 3 11.31 1.74
-19 18 -3 12.1 1.46
-19 1 -3 12.14 1.61
-18 19 -3 9.37 1.48
-18 -1 3 13.32 1.64
-18 19 -3 12.08 1.5
-19 18 3 11.25 1.74
-19 19 -3 7.99 1.15
-19 19 -3 9.81 1.35
-19 0 3 7.56 1.01
-19 0 3 8.23 1.38
-19 19 3 9.12 1.49
-19 0 -3 10.93 1.42
-10 20 -3 2.65 1
-10 20 -3 0.95 0.5
-20 10 3 2.16 0.79
-10 20 3 1.82 0.72
-20 10 -3 2.72 0.91
-10 20 3 1.19 0.57
-20 10 3 1.29 0.89
-20 10 -3 2.18 1.06
-10 20 3 2.53 1.01
-11 20 3 7.31 1.19
-11 20 3 6.13 0.94
-20 9 3 6.75 1.11
-20 9 3 7.56 1.04
-9 20 -3 6.26 1.05
-20 11 -3 5.71 1.17
-20 11 -3 9.28 1.72
-11 20 3 4.61 0.92
-11 20 -3 7.22 0.93
-20 9 -3 6.84 1.06
-9 20 3 6.52 0.93
-11 20 -3 8.01 1.15
-20 11 3 10.42 1.84
-9 20 3 9.4 1.27
-20 11 3 5.63 0.91
-8 20 -3 4.57 0.96
-12 20 3 3.47 0.97
-12 20 3 3.96 1.08
-20 12 -3 6.36 1.19
-20 12 -3 4.4 1.03
-20 8 3 2.84 0.91
-12 20 3 6.03 0.89
-20 8 -3 5.14 1.11
-12 20 -3 5.17 0.84
-20 12 3 3.34 0.78
-12 20 -3 5.8 1.03
-20 12 3 5.04 0.83
-8 20 3 4.55 1.03
-20 8 -3 3.43 0.81
-8 20 3 5.58 0.81
-20 12 3 5.29 1.07
-20 8 -3 3.78 0.75
-13 20 3 29.64 2.58
-13 20 3 29.38 2.85
-20 7 3 34.14 2.78
-20 13 -3 32.82 3.03
-13 20 3 30.24 2.92
-20 13 -3 30.64 2.89
-7 20 -3 29.4 2.72
-13 20 -3 31.03 2.64
-20 13 3 27.08 2.62
-20 7 -3 35.4 2.86
-7 20 3 29.72 2.54
-20 13 3 35.51 3.04
-20 13 3 33.28 2.79
-20 7 -3 29.81 2.6
-7 20 3 29.62 2.77
-13 20 -3 31.95 2.81
-14 20 3 24.42 2.63
-20 14 -3 24.22 2.54
-14 20 3 24.72 2.28
-6 20 -3 25.63 2.37
-14 20 3 23.91 2.56
-20 14 -3 31.1 2.75
-20 6 3 28.31 2.44
-14 20 -3 22.8 2.12
-20 6 -3 26.03 2.37
-20 14 3 24.35 2.28
-20 14 3 21.23 2.08
-6 20 3 21.67 1.97
-20 14 3 25.41 2.44
-14 20 -3 22.77 2.32
-6 20 3 20.86 2.25
-20 6 -3 23.07 2.2
-20 15 -3 0.58 0.31
-15 20 3 0.46 0.86
-20 15 -3 0.65 0.86
-15 20 3 0.75 0.68
-15 20 3 -0.16 0.77
-20 5 3 -0.21 0.56
-20 5 3 1.64 0.8
-20 15 -3 1.31 0.96
-5 20 -3 0.43 0.65
-15 20 -3 1.43 0.76
-20 15 3 1.34 0.62
-20 5 -3 1.64 0.79
-20 15 3 1.68 0.91
-20 5 -3 2.07 0.86
-20 15 3 2.31 0.91
-15 -5 3 3.5 0.82
-5 20 3 0.98 0.42
-15 20 -3 1.56 0.91
-5 20 3 -0.28 0.77
-20 16 -3 5.81 1.05
-16 20 3 6.03 1.02
-20 4 3 4.95 0.86
-20 4 3 5.54 0.91
-20 16 -3 6.42 1.13
-16 20 3 6.85 1.18
-20 16 -3 5.22 0.93
-16 20 -3 4.41 0.87
-16 -4 3 8.2 1.46
-20 4 -3 4.91 0.84
-20 16 3 6.86 1.09
-16 20 -3 5.86 0.88
-20 16 3 5.44 1.05
-20 4 -3 5.31 0.91
-20 16 3 5.09 0.97
-20 17 -3 0.3 0.88
-20 17 -3 0.5 0.62
-20 17 -3 -0.22 0.8
-20 3 3 1.2 0.71
-17 20 3 0.8 0.64
-17 -3 -3 1.24 0.68
-20 3 3 0.2 0.66
-17 20 3 0.44 0.8
-20 17 3 0.41 0.31
-17 20 -3 0.26 0.45
-17 -3 3 1.35 0.74
-17 20 -3 -0.23 0.39
-20 17 3 0.65 0.84
-20 17 3 0.65 0.76
-20 3 -3 0.98 0.76
-17 20 -3 0.26 0.68
-20 3 -3 0.32 0.39
-18 20 3 1.48 0.79
-20 2 3 2.66 0.66
-20 2 3 1.08 0.66
-18 20 3 2.29 0.61
-20 18 -3 2.02 0.88
-20 18 -3 2.01 0.68
-18 -2 -3 2.69 0.69
-20 18 -3 1.89 0.85
-18 20 -3 3.08 0.74
-20 2 -3 3 0.77
-18 -2 3 3.05 0.73
-20 18 3 2.78 0.87
-19 20 3 0.13 0.33
-20 1 3 0.91 0.52
-20 19 -3 -0.6 0.52
-20 1 3 0.26 0.56
-20 19 -3 -0.67 0.79
-20 19 -3 0.45 0.62
-19 20 3 -0.04 0.76
-19 -1 -3 0.45 0.62
-20 1 -3 0.04 0.64
-19 -1 3 -0.2 0.19
-19 20 -3 0.72 0.63
-20 19 3 0.1 0.73
-19 20 -3 0.38 0.59
-19 -1 3 0.57 0.62
-20 20 3 11.84 1.51
-20 0 -3 13.12 1.36
-20 20 -3 10.83 1.42
-20 0 3 11.64 1.34
-20 20 -3 13.01 1.38
-10 21 -3 0.98 0.93
-11 21 3 0.78 0.69
-21 10 3 0.75 0.85
-21 11 -3 1.75 0.88
-21 11 -3 0.74 1.02
-21 10 3 1.1 0.74
-10 21 -3 0.33 0.48
-11 21 3 0.59 0.96
-11 21 3 0.56 0.69
-21 11 3 1.52 0.71
-21 10 -3 2.09 0.84
-10 21 3 0.56 0.5
-11 21 -3 1.06 0.91
-21 10 -3 1.28 1.01
-10 21 3 1.67 0.7
-21 10 -3 0.41 0.42
-11 21 -3 1.33 0.7
-21 11 3 2.02 0.94
-10 21 3 1.4 0.98
-9 21 -3 4.42 0.94
-12 21 3 3.8 0.81
-12 21 3 4.59 1.07
-21 9 3 4.03 0.88
-21 9 3 3.56 0.91
-21 12 -3 3.41 0.96
-12 21 3 2.52 0.9
-21 12 -3 4.03 1.09
-21 12 3 2.54 0.69
-12 21 -3 2.5 0.92
-21 9 -3 1 0.64
-9 21 3 0.17 0.73
-9 21 3 2.15 0.69
-21 9 -3 4.02 1.04
-9 21 3 2.27 0.96
-21 9 -3 1.42 0.81
-12 21 -3 2 0.78
-21 12 3 1.59 0.69
-21 12 3 2.83 0.99
-21 8 3 29.8 2.98
-13 21 3 34.45 3.12
-21 13 -3 37.32 3.12
-21 13 -3 37.03 3.21
-8 21 -3 33.65 2.97
-13 21 3 35.44 3.07
-13 21 3 34.75 2.86
-21 8 3 38.23 2.96
-21 13 3 34.19 2.82
-13 21 -3 33.25 2.86
-13 -8 3 28.09 2.56
-8 21 3 32.98 2.65
-21 13 3 37.48 3.06
-13 21 -3 35.07 2.68
-21 8 -3 26.88 2.65
-21 13 3 30.85 2.68
-21 8 -3 32.58 2.66
-8 21 3 30.72 2.83
-21 8 -3 35.9 2.95
-21 14 -3 7.31 1.16
-14 21 3 7.45 1.2
-7 21 -3 8.23 1.13
-14 21 3 7.49 1.35
-21 7 3 9.47 1.59
-14 21 3 6.7 1.22
-21 14 -3 10.93 1.99
-7 21 3 6.62 1.19
-21 7 -3 6.3 1.1
-14 21 -3 6.61 0.92
-21 7 -3 6.74 0.93
-21 14 3 8.96 1.61
-14 21 -3 6.4 1.08
-21 14 3 9.7 1.83
-7 21 3 5.65 1.05
-21 14 3 6.53 0.9
-21 15 -3 4.59 0.98
-15 21 3 6.04 0.83
-21 15 -3 6.41 1.12
-15 21 3 4.31 1.03
-21 6 3 5.02 0.92
-15 21 3 5.47 1.07
-6 21 -3 5.09 1
-21 15 3 3.95 0.98
-21 6 -3 3.67 0.92
-15 21 -3 4.43 0.77
-21 15 3 4.87 0.99
-6 21 3 2.87 0.91
-21 15 3 2.63 0.72
-21 6 -3 3.35 0.78
-15 21 -3 4.63 0.99
-15 -6 3 4.83 0.8
-6 21 3 3.15 0.63
-16 21 3 8.61 1.65
-16 21 3 10.78 1.29
-21 16 -3 9.19 1.51
-21 5 3 12.94 1.53
-21 5 3 8.24 1.3
-16 -5 -3 11.79 1.39
-5 21 -3 8.02 1.25
-21 16 -3 11.66 1.81
-16 21 3 10.9 1.34
-16 21 -3 13.5 1.57
-21 5 -3 10.92 1.55
-16 21 -3 12.85 1.68
-21 5 -3 10.91 1.47
-21 16 3 11.82 1.35
-16 -5 3 15.06 1.58
-21 16 3 13.06 1.85
-21 16 3 13.24 1.73
-21 17 -3 8.05 1.01
-17 21 3 8.88 1.56
-21 17 -3 9.83 1.51
-17 -4 -3 10.97 1.34
-21 17 -3 12.02 1.83
-17 21 3 10.59 1.3
-21 4 3 12.23 1.41
-21 4 3 8.56 1.34
-21 4 -3 8.65 1.17
-21 17 3 5.09 0.73
-21 4 -3 5.69 0.82
-17 21 -3 6.3 0.98
-18 21 3 2.7 0.63
-21 18 -3 1.73 0.79
-21 3 3 3.44 0.67
-21 18 -3 2.14 0.58
-21 18 -3 2.13 0.85
-18 21 3 1.83 0.76
-21 3 3 2.48 0.64
-18 -3 -3 2.27 0.63
-18 21 -3 2.52 0.66
-18 -3 3 3.61 0.67
-21 18 3 1.6 0.65
-21 3 -3 1.83 0.69
-21 18 3 2.59 0.79
-19 -2 -3 7.08 1.03
-21 19 -3 3.78 0.78
-21 2 3 5.16 0.72
-21 2 3 7.06 0.97
-21 19 -3 4.34 0.7
-19 21 3 5.07 0.81
-19 21 3 6.02 0.87
-21 19 -3 5.39 0.89
-19 21 -3 3.96 0.71
-19 -2 3 4.1 0.69
-21 2 -3 4.45 0.71
-21 19 3 5.9 0.86
-20 21 3 1.66 0.68
-21 20 -3 1.24 0.52
-21 20 -3 1.56 0.62
-21 1 3 0.61 0.27
-20 -1 -3 1.02 0.53
-21 1 3 1.18 0.5
-21 1 -3 1.6 0.55
-20 -1 3 2.21 0.56
-20 21 -3 1.96 0.58
-21 20 3 1.61 0.7
-21 0 -3 1.16 0.46
-21 21 3 0.62 0.61
-21 21 -3 1.07 0.49
-21 0 3 0.74 0.42
-22 11 3 4.1 0.77
-11 22 -3 3.42 0.68
-22 11 3 5.23 0.96
-22 11 -3 4.34 1.04
-11 22 3 5.28 0.75
-22 11 -3 3.22 0.87
-11 22 3 4.79 1.01
-11 22 -3 3.59 0.96
-12 22 3 8.12 1.27
-22 12 -3 9.98 1.69
-10 22 -3 8.02 1.46
-12 22 3 6.47 0.95
-22 10 3 7.76 1.44
-22 10 3 8.2 1.62
-22 12 -3 7.46 1.15
-12 22 3 7.92 1.17
-22 12 3 10.37 1.82
-22 12 3 7.91 1.32
-10 22 3 10.32 1.22
-22 10 -3 6.23 1.06
-22 10 -3 8.9 1.47
-10 22 3 9.04 1.27
-12 22 -3 8.78 1.34
-22 10 -3 10.03 1.73
-12 22 -3 9.31 1.18
-22 9 3 0.87 0.73
-22 13 -3 0.36 0.88
-22 9 3 0.73 0.73
-13 22 3 -0.36 0.89
-22 13 -3 0.68 0.85
-9 22 -3 0.64 0.8
-13 22 3 0.37 0.78
-13 22 3 0.37 0.63
-22 9 -3 -0.17 0.59
-22 13 3 1.4 0.89
-13 22 -3 -0.29 0.64
-22 9 -3 0.42 0.68
-22 13 3 0.6 0.7
-13 22 -3 0.28 0.87
-9 22 3 0.49 0.77
-22 13 3 0.36 0.6
-22 9 -3 0.78 0.88
-13 -9 3 -0.09 0.27
-9 22 3 -0.07 0.61
-22 14 -3 18.81 2.14
-14 22 3 16.62 1.92
-8 22 -3 14.4 1.91
-14 22 3 16.78 1.63
-22 14 -3 16.37 1.94
-22 8 3 13.83 1.77
-22 8 3 19.29 1.86
-14 22 3 16.94 1.91
-14 22 -3 14.36 1.77
-14 22 -3 13.94 1.6
-22 14 3 17.89 2.01
-22 14 3 13.12 1.52
-22 8 -3 13.28 1.56
-22 8 -3 15.06 1.81
-8 22 3 13.16 1.73
-8 22 3 14.79 1.52
-22 14 3 15.86 1.78
-14 -8 3 12.72 1.41
-15 22 3 9.56 1.57
-15 22 3 8.14 1.18
-22 15 -3 12.87 1.89
-15 -7 -3 8.28 1.08
-22 7 3 6.51 1.06
-22 7 3 12.22 1.51
-15 22 3 9.84 1.29
-22 15 -3 10.1 1.58
-7 22 -3 10.2 1.57
-22 7 -3 10.45 1.41
-15 -7 3 11.13 1.34
-15 22 -3 10.99 1.63
-22 15 3 11.46 1.66
-15 22 -3 10.42 1.39
-22 15 3 13.11 1.8
-22 15 3 9.12 1.35
-22 7 -3 11.08 1.55
-7 22 3 11.15 1.24
-6 22 -3 4.63 0.83
-22 6 3 6.44 0.84
-16 -6 -3 6 0.97
-22 16 -3 4.05 0.85
-22 16 -3 4.47 0.96
-16 22 3 6.19 0.78
-16 22 3 4.81 0.94
-22 16 3 9.88 1.65
-22 16 3 6.45 1.08
-22 16 3 8.77 1.46
-16 -6 3 9.39 1.22
-16 22 -3 7.57 1.2
-16 22 -3 8.74 1.43
-22 6 -3 6.51 1.2
-22 6 -3 6.81 1.23
-22 17 -3 3.24 0.84
-17 22 3 2.29 0.62
-17 22 3 3.13 0.81
-22 5 3 1.77 0.51
-22 17 -3 2.98 0.77
-22 5 3 2.88 0.69
-17 -5 -3 2.26 0.58
-17 22 -3 3.24 0.72
-22 5 -3 2.16 0.63
-17 22 -3 3.03 0.66
-17 -5 3 3.19 0.63
-22 17 3 3.58 0.8
-22 17 3 3.35 0.82
-22 18 -3 10.37 1.59
-22 4 3 12.27 1.23
-22 18 -3 9.6 1.32
-18 22 3 10.83 1.21
-22 4 3 8.12 1.12
-18 -4 -3 10.56 1.2
-18 22 3 10.04 1.39
-22 4 -3 9.52 1.22
-22 18 3 9.85 1.38
-18 -4 3 12.11 1.23
-18 22 -3 10.73 1.24
-22 18 3 11.27 1.41
-19 22 3 1.83 0.42
-19 -3 -3 2.62 0.52
-19 22 3 1.52 0.67
-22 3 3 1.41 0.47
-22 3 3 1.71 0.49
-22 19 -3 2.04 0.68
-22 19 -3 1.22 0.61
-19 22 -3 2.64 0.62
-22 3 -3 3.03 0.61
-22 19 3 3.49 0.73
-19 -3 3 3.46 0.58
-20 22 3 0.65 0.55
-22 2 3 0.38 0.41
-22 20 -3 1.21 0.47
-20 -2 -3 1.06 0.43
-22 20 -3 0.46 0.24
-22 2 3 0.45 0.23
-20 -2 3 0.95 0.46
-20 22 -3 0.65 0.51
-22 20 3 0.59 0.6
-22 2 -3 0.92 0.47
-11 23 -3 4.72 0.93
-23 11 3 4.81 0.84
-23 12 -3 3.76 0.81
-23 12 -3 3.67 0.9
-12 23 3 3.05 0.65
-12 23 3 3.96 0.91
-23 11 3 4.43 0.71
-23 12 3 3.08 0.66
-12 23 -3 2.61 0.61
-23 12 3 5.16 0.87
-12 23 -3 3.68 0.92
-11 23 3 3.17 0.65
-11 23 3 4.76 0.92
-23 11 -3 3.41 0.78
-23 11 -3 4.74 0.9
-13 23 3 0.97 0.46
-23 10 3 1.82 0.7
-23 13 -3 1.91 0.77
-10 23 -3 1.74 0.8
-23 10 3 2.03 0.69
-23 13 -3 1.6 0.8
-13 23 3 2.6 0.62
-13 23 3 1.97 0.86
-23 10 -3 1.52 0.65
-10 23 3 1.28 0.59
-23 10 -3 0.55 0.43
-23 13 3 1.6 0.58
-23 13 3 0.95 0.37
-23 13 3 2.21 0.8
-23 10 -3 1.8 0.81
-13 23 -3 1.13 0.61
-13 23 -3 2.25 0.86
-23 9 3 3.16 0.73
-23 14 -3 3.86 0.87
-14 23 3 4.58 0.68
-9 23 -3 5.1 0.91
-23 14 -3 5.85 0.9
-23 9 3 4.37 0.75
-14 23 3 3.49 0.71
-23 14 3 2.74 0.63
-14 23 -3 2.95 0.67
-23 14 3 4.26 0.88
-14 23 -3 4.11 0.88
-23 14 3 3.18 0.64
-23 9 -3 4.05 0.84
-23 9 -3 2.7 0.58
-9 23 3 2.26 0.63
-15 23 3 1.07 0.7
-8 23 -3 1.37 0.74
-23 15 -3 1.67 0.8
-23 8 3 1.27 0.65
-23 8 3 0.49 0.42
-15 23 3 2.13 0.6
-23 15 -3 0.77 0.73
-15 23 -3 2.32 0.62
-8 23 3 2.01 0.53
-15 -8 3 1.4 0.42
-23 8 -3 2.04 0.73
-23 15 3 2.86 0.71
-23 8 -3 1.69 0.56
-23 15 3 3.11 0.79
-15 23 -3 3.23 0.82
-23 15 3 1.52 0.55
-16 23 3 2.5 0.75
-23 16 -3 2.59 0.75
-16 23 3 3.31 0.6
-23 16 -3 3.14 0.84
-7 23 -3 2.88 0.67
-23 7 3 3.69 0.68
-23 7 -3 1.99 0.53
-23 7 -3 1.48 0.56
-23 16 3 1.95 0.45
-16 23 -3 2.85 0.79
-16 23 -3 2.19 0.6
-16 -7 3 2.5 0.52
-23 16 3 2.83 0.77
-23 16 3 3.27 0.74
-23 17 -3 2.06 0.74
-23 6 3 2.27 0.6
-23 17 -3 2.42 0.66
-17 23 3 2.76 0.55
-17 23 3 1.74 0.68
-17 -6 -3 1.19 0.34
-17 23 -3 1.96 0.6
-17 -6 3 2.15 0.51
-23 17 3 1.75 0.67
-23 17 3 2.32 0.69
-17 23 -3 1.45 0.54
-23 6 -3 1.51 0.53
-23 18 -3 2.03 0.71
-23 5 3 2.55 0.53
-18 23 3 2.32 0.64
-23 18 -3 1.67 0.61
-18 23 3 2.55 0.49
-23 5 -3 2.52 0.53
-23 18 3 1.95 0.56
-18 -5 3 2.75 0.5
-23 18 3 3.2 0.68
-18 23 -3 2.78 0.6
-23 19 -3 11.12 1.15
-23 19 -3 10.13 1.17
-19 -4 -3 8.96 0.9
-19 23 3 8.38 0.89
-23 4 3 11.54 0.99
-19 23 3 11.74 1.17
-19 23 -3 14.69 1.28
-23 19 3 12.68 1.32
-23 4 -3 12.2 1.23
-19 -4 3 11.7 1.18
-12 24 3 5.67 0.94
-24 12 -3 5.9 1.18
-24 12 3 5.79 1.05
-24 12 -3 6.06 0.88
-24 12 3 6.1 1.21
-12 24 -3 8.11 1.39
-13 24 3 1.42 0.49
-24 11 3 1.19 0.61
-24 13 -3 1.93 0.68
-24 13 -3 1.22 0.65
-11 24 -3 1.98 0.71
-24 11 3 1.69 0.54
-24 11 -3 1.91 0.64
-24 13 3 1.68 0.67
-13 24 -3 1.03 0.37
-24 13 3 1.65 0.52
-11 24 3 2.1 0.54
-13 24 -3 2.7 0.79
-24 11 -3 1.8 0.54
-24 10 3 6.59 1.09
-24 10 3 5.49 1.03
-10 24 -3 5.29 0.88
-14 24 3 5.62 0.97
-24 14 -3 6.11 0.86
-24 14 -3 5.91 1.27
-10 24 3 5.26 0.82
-14 24 -3 6.23 0.86
-14 24 -3 3.89 0.61
-24 14 3 6.34 1.29
-24 10 -3 4.06 0.73
-24 14 3 3.7 0.61
-24 9 3 0.27 0.26
-15 24 3 0.54 0.51
-24 15 -3 0.62 0.67
-24 9 3 0.79 0.54
-24 15 -3 0.56 0.58
-9 24 -3 1.03 0.67
-15 24 3 0.08 0.3
-24 15 3 1.74 0.71
-24 9 -3 0.34 0.33
-15 24 -3 0.88 0.5
-24 15 3 0.54 0.4
-9 24 3 0.69 0.32
-15 24 -3 1.24 0.73
-24 15 3 0.26 0.28
-24 9 -3 0.31 0.47
-16 24 3 0.89 0.49
-16 24 3 0.48 0.3
-24 16 -3 0.76 0.63
-24 8 3 0.99 0.52
-8 24 -3 0.82 0.42
-24 16 -3 1.48 0.71
-24 16 3 1.26 0.61
-24 16 3 0.39 0.22
-24 8 -3 0.19 0.39
-24 16 3 0.4 0.35
-16 24 -3 0.55 0.62
-24 8 -3 0.32 0.25
-16 24 -3 0.56 0.49
-24 7 3 15.66 1.37
-24 17 -3 14.63 1.47
-24 17 -3 14.52 1.53
-17 24 3 14.64 1.33
-17 24 -3 15.61 1.34
-24 17 3 16.8 1.57
-24 7 -3 13.47 1.28
-24 17 3 13.8 1.29
0 0 4 0.27 0.24
0 0 -4 0.27 0.18
0 0 4 0.48 0.26
0 0 -4 0.62 0.21
1 0 4 12.28 1.15
1 -1 4 13.68 1.15
-1 1 4 16.13 1.24
1 0 -4 15.43 1.13
-1 0 4 14.37 1.16
-1 0 4 16.58 1.24
0 1 -4 14.84 1.13
-1 0 -4 13.42 1.12
1 0 -4 13.02 1.14
0 -1 4 14.95 1.16
-1 0 -4 13.87 1.15
-1 1 4 14.23 1.17
0 -1 -4 15 1.13
0 -1 -4 13.64 1.16
1 -1 -4 14.83 1.13
1 0 4 16.75 1.25
1 -1 4 16.12 1.25
0 1 4 14.32 1.16
-1 1 -4 14.44 1.12
0 1 4 15.34 1.23
0 -1 4 14.97 1.23
-1 1 4 15.11 1.13
-1 2 4 0.21 0.18
2 -1 -4 0.27 0.22
-2 1 -4 0.17 0.15
2 -1 4 0.23 0.24
-2 1 4 0.18 0.23
-1 2 4 0.42 0.26
-1 2 -4 0.44 0.21
-1 -1 4 0.44 0.28
-1 -1 -4 0.42 0.21
-2 1 4 0.16 0.16
1 -2 4 0.37 0.25
-1 2 4 0.45 0.25
1 1 4 0.37 0.25
1 1 -4 0.44 0.22
1 1 4 0.64 0.27
1 -2 -4 0.46 0.23
-2 1 4 0.24 0.21
1 -2 -4 0.16 0.22
-1 -1 4 0.59 0.28
-2 1 -4 0.52 0.23
1 -2 4 0.72 0.26
-2 2 -4 1.7 0.38
-2 2 4 1.88 0.33
0 2 -4 2.01 0.36
-2 0 4 1.71 0.37
0 2 4 2.44 0.52
2 0 -4 1.98 0.34
2 -2 -4 1.83 0.35
2 -2 -4 1.84 0.42
-2 0 4 1.91 0.34
0 2 4 1.86 0.37
-2 2 -4 2.89 0.37
-2 2 4 2.51 0.5
-2 0 -4 1.89 0.42
2 0 4 1.9 0.41
0 2 4 1.8 0.3
-2 0 -4 1.92 0.34
-2 0 4 2.35 0.32
2 -2 4 2.47 0.43
0 -2 -4 1.76 0.33
2 0 4 2.12 0.52
0 -2 4 2.18 0.38
0 -2 4 2.38 0.52
-2 3 4 295.26 20.89
3 -2 -4 242.13 20.84
-1 -2 4 296.54 20.89
-1 -2 4 306.91 20.86
3 -1 4 307.18 20.9
-2 -1 -4 292.21 20.89
1 2 4 263.73 20.81
-3 1 4 312.68 20.84
1 -3 -4 293.79 20.84
-2 3 4 275.92 20.82
1 2 4 305.71 20.89
2 -3 4 282.01 20.88
1 -3 -4 266.2 20.82
1 -3 -4 302.15 20.88
-3 1 4 294.57 20.88
2 -3 4 325.24 20.87
-1 3 -4 295.67 20.83
-3 2 -4 297.81 20.84
-2 -1 -4 277.78 20.83
-1 -2 4 307.53 20.89
3 -2 -4 247.23 20.85
3 -1 4 298.66 20.87
-1 3 4 249.4 20.34
-3 1 -4 286.04 20.36
1 -3 4 300.77 20.38
-1 3 4 295.82 20.42
-2 3 -4 278.01 20.35
1 -3 4 292.65 20.41
-1 -2 -4 251.95 20.34
3 -2 4 275.93 20.39
2 1 4 238.7 20.37
3 -1 -4 267.98 20.38
-3 2 4 283.42 20.4
2 -3 -4 282.84 20.36
2 -3 -4 304.73 20.36
-2 -1 4 305.85 20.41
3 -2 4 286.22 20.41
2 -3 -4 308.14 20.41
2 1 4 275.48 20.41
-2 -1 4 260.56 20.4
-2 3 -4 273.09 20.39
3 -1 -4 307.81 20.39
-3 2 4 310.6 20.36
-1 -2 -4 304.57 20.42
-3 0 4 27.63 2
3 -3 -4 24.35 1.94
0 3 4 25.59 2
-3 0 4 25.5 1.93
3 -3 4 28.37 1.97
-3 3 4 26.58 1.92
3 0 4 25.86 2
0 3 -4 24.42 1.92
3 -3 -4 28.04 1.99
-3 3 -4 25.11 1.99
3 -3 4 26.89 2.01
-3 0 -4 27.95 1.94
0 3 4 23.46 1.89
3 0 4 26.61 1.97
-3 3 -4 27.99 1.94
-3 0 4 23.09 1.99
-3 3 4 25.02 2
0 -3 4 24.52 1.95
0 -3 -4 25.55 1.91
-4 2 -4 198.06 16.23
-2 4 4 225.62 16.26
-4 2 4 222.13 16.24
-2 -2 4 235.49 16.26
-2 -2 4 219.84 16.27
-2 4 4 223.21 16.19
2 -4 4 241.22 16.23
-4 2 -4 245.65 16.21
2 2 4 233.26 16.26
2 -4 -4 195.12 16.24
4 -2 4 236.66 16.24
-2 4 -4 225.61 16.26
2 -4 -4 231.69 16.21
-2 4 -4 222.66 16.2
2 -4 4 230.23 16.27
4 -2 -4 221.89 16.23
4 -2 4 236.51 16.27
-2 -2 -4 208.63 16.26
-4 2 4 232.75 16.21
-4 3 -4 31.12 2.29
-3 -1 -4 30.95 2.28
-1 -3 4 32.95 2.31
-4 1 4 31.96 2.35
3 -4 4 34.07 2.33
-1 -3 4 32.55 2.37
4 -1 4 34.19 2.37
4 -3 -4 32.26 2.34
-3 4 4 28.1 2.36
4 -1 4 28.68 2.32
1 -4 -4 27.57 2.26
1 -4 -4 30.74 2.27
-3 4 4 29.45 2.27
3 -4 4 31.83 2.37
1 3 4 27.17 2.34
-4 3 -4 29.24 2.35
-1 -3 4 34.61 2.4
4 -3 -4 30.01 2.3
-4 1 4 32.46 2.29
-4 1 4 30.21 2.33
-1 4 -4 28.38 2.27
4 -1 -4 38.14 2.92
1 -4 4 39.36 2.91
3 -4 -4 43 2.96
3 -4 -4 35.84 2.89
-3 -1 4 41.43 2.9
-3 4 -4 43.94 2.89
-3 -1 4 39.02 2.98
4 -3 4 37.82 2.93
1 -4 4 39.53 2.97
-3 4 -4 37.75 2.95
-1 -3 -4 33.64 2.86
-4 3 4 37.9 2.94
-3 -1 4 40.48 2.96
-1 4 4 41.12 2.97
-1 -3 -4 42.86 2.97
3 1 4 40.33 2.95
-1 4 4 32.81 2.85
-4 1 -4 41.58 2.9
4 -3 4 40.27 2.96
-4 3 4 40.99 2.89
4 -4 4 98.79 6.47
-4 4 4 83.85 6.48
0 -4 4 92.85 6.5
-4 0 4 85.29 6.46
-4 0 4 90.13 6.5
-4 4 -4 89.57 6.49
-4 0 -4 92.19 6.43
0 -4 -4 91.54 6.41
-4 0 4 91.99 6.43
4 -4 -4 87.16 6.44
-4 4 -4 95.4 6.43
4 0 4 87 6.46
4 0 -4 92.17 6.47
0 4 4 81.89 6.48
4 0 -4 74.96 6.45
0 -4 4 92.35 6.44
4 0 4 92.95 6.48
4 -4 -4 88.32 6.47
-4 4 4 90.21 6.43
0 -4 -4 86.5 6.41
4 -4 4 83.67 6.48
0 4 -4 86.78 6.41
-2 5 -4 265.71 18.09
-5 2 4 226.12 18.07
-3 -2 -4 209.15 17.99
2 -5 -4 266.67 18.07
5 -2 4 276.67 18.06
-3 5 4 241.51 18.07
2 -5 -4 259.79 18.01
-2 -3 4 274.13 18.11
5 -2 4 244.67 18.05
-5 3 -4 246.52 18.07
3 -5 4 248.44 18.03
-5 3 -4 266.23 18.02
-5 2 4 251.89 18.01
-3 5 4 252.07 18
-2 -3 4 262.87 18.07
-5 2 4 235.6 18.04
2 3 4 229.63 18.05
5 -2 4 259.16 18.07
3 -5 4 226.81 18.07
5 -3 -4 267.79 18.04
-2 5 -4 254.41 18
-5 3 4 250.51 18.99
2 -5 4 267.59 19
3 -5 -4 263.72 18.94
2 -5 4 281.26 18.95
-5 3 4 236.29 18.96
-3 5 -4 280.09 19.01
3 -5 -4 293.86 19
-2 5 4 249.62 18.99
-3 -2 4 270.68 18.98
5 -2 -4 236.12 18.95
-5 2 -4 244.76 18.98
3 2 4 229.18 18.96
-3 5 -4 249.21 18.92
-2 -3 -4 246.72 18.91
5 -3 4 260.69 18.96
-5 3 4 282.41 18.94
5 -3 4 265.92 18.99
-5 2 -4 293.63 18.95
-3 -2 4 302.33 19.04
5 -3 4 268.2 18.97
5 -1 4 20.89 1.54
5 -4 -4 19.93 1.5
-1 5 -4 19.93 1.43
-5 1 4 17.61 1.49
-4 -1 -4 16.28 1.43
1 -5 -4 19.44 1.43
-5 1 4 17.58 1.45
4 -5 4 17.54 1.55
4 1 -4 16.75 1.47
4 1 -4 19.46 1.52
-5 4 -4 19.17 1.59
-1 -4 4 19.28 1.58
-5 4 -4 20.08 1.47
4 -5 4 19.02 1.51
-5 1 4 20.09 1.58
-4 5 4 17.23 1.54
1 -5 -4 21.26 1.44
5 -4 -4 20.51 1.53
5 -1 4 18.18 1.51
1 4 4 18.58 1.53
-1 -4 4 18.88 1.59
-4 5 4 20 1.45
1 -5 -4 19.51 1.55
-4 -1 -4 17.65 1.45
1 -5 4 25.49 1.89
-5 1 -4 22.71 1.92
1 -5 4 28.96 2
-4 -1 4 25.9 2
-4 5 -4 23.13 1.86
-4 5 -4 24.3 1.98
5 -1 -4 22.82 1.91
4 -5 -4 27.26 1.95
4 -5 -4 26.71 1.89
5 -4 4 23.53 1.94
-4 -1 4 26.18 1.94
-5 4 4 22.15 1.93
-1 -4 -4 27.16 1.84
-1 -4 -4 23.6 1.82
-1 5 4 24.33 1.95
5 -1 -4 23.81 1.92
5 -4 4 23.99 1.91
4 1 4 22.37 1.91
-5 4 4 24.98 1.87
-5 1 -4 25.58 1.88
-5 4 4 22.63 1.92
-4 -1 4 27.62 1.88
5 -5 -4 62.89 4.55
5 -5 -4 69.42 4.59
-5 0 4 63.4 4.63
0 -5 4 63.44 4.62
0 -5 -4 66.27 4.5
-5 5 4 61.77 4.52
-5 5 -4 67.79 4.54
5 -5 4 66.07 4.57
5 0 -4 68.91 4.59
-5 0 4 53.68 4.54
-5 5 4 61.28 4.59
-5 5 -4 61.64 4.62
0 -5 4 64.56 4.54
-5 0 -4 64.69 4.53
-5 0 4 61.2 4.53
5 -5 4 57.82 4.59
5 0 -4 64.57 4.57
0 5 4 57.18 4.59
5 0 4 51.66 4.54
0 -5 4 54.74 4.53
-6 3 4 2.58 0.39
3 -6 -4 2.91 0.43
-3 -3 4 3.04 0.64
-3 6 -4 2.57 0.43
6 -3 4 2.53 0.55
6 -3 4 1.76 0.44
6 -3 4 2.1 0.48
-3 -3 -4 2.17 0.38
-6 3 -4 2.59 0.43
3 -6 4 3.1 0.66
6 -3 -4 2.94 0.45
-3 -3 4 2.83 0.61
-3 -3 4 1.62 0.38
3 -6 -4 2.37 0.37
-6 3 4 1.71 0.34
3 -6 -4 2.99 0.59
-3 -3 -4 3.39 0.53
6 -3 -4 1.58 0.4
-3 6 -4 2.98 0.61
3 -6 4 2.31 0.49
-6 3 4 2.52 0.56
-6 3 -4 2.16 0.57
-3 6 4 2.37 0.43
-2 -4 4 4.93 0.53
-2 -4 4 4.49 0.76
2 4 4 4.46 0.62
6 -2 4 4.71 0.68
-6 2 4 3.91 0.54
-4 6 4 4.39 0.74
-6 2 4 3.58 0.73
2 -6 -4 4.21 0.71
2 -6 -4 4.64 0.48
-6 4 -4 4.85 0.6
-6 4 -4 4.29 0.82
-2 -4 4 4.92 0.77
6 -4 -4 4.94 0.59
-4 6 4 4.55 0.48
-6 2 4 4.27 0.52
4 -6 4 5.14 0.72
6 -2 4 4.83 0.72
4 -6 4 4.08 0.61
-2 6 -4 4.66 0.51
6 -2 4 3.93 0.6
-4 -2 -4 4.77 0.49
2 -6 -4 5.42 0.5
-2 -4 -4 0.88 0.17
-6 4 4 1.66 0.51
4 2 4 0.76 0.25
-6 4 4 2.08 0.37
-4 6 -4 1.38 0.3
6 -2 -4 1.82 0.41
6 -4 4 1.26 0.37
2 -6 4 1.86 0.37
-6 2 -4 1.49 0.37
4 -6 -4 1.02 0.23
-4 6 -4 1.68 0.55
-4 -2 4 1.89 0.36
-4 -2 4 2.5 0.59
6 -2 -4 1.19 0.36
2 -6 4 1.31 0.39
6 -4 4 1.06 0.33
-6 4 4 0.76 0.3
4 -6 -4 1.82 0.35
2 -6 4 1.08 0.26
-2 6 4 1.49 0.38
6 -4 4 1.55 0.42
-6 2 -4 1.27 0.49
-2 -4 -4 1.64 0.31
4 -6 -4 2.02 0.42
-4 -2 4 1.73 0.34
-5 -1 -4 27.83 2.36
-5 6 4 32.04 2.47
5 -6 4 33.45 2.42
-1 -5 4 29.03 2.47
-5 -1 -4 30.83 2.35
5 1 -4 31.85 2.41
-6 1 4 30.02 2.37
6 -5 -4 33.84 2.41
1 5 4 28.55 2.44
-1 -5 4 34.98 2.39
-1 -5 4 31.82 2.49
-6 5 -4 30.45 2.5
-6 1 4 32.36 2.5
5 1 -4 35.11 2.43
-5 6 4 32.6 2.36
6 -1 4 35.33 2.47
5 -6 4 28.76 2.46
6 -5 -4 30.26 2.44
-6 5 -4 34.53 2.39
6 -1 4 30.42 2.42
-5 6 -4 41.95 3.08
6 -5 4 40.52 3
-5 -1 4 37.2 2.95
-6 5 4 38.29 2.95
5 -6 -4 42.08 2.97
1 -6 4 42.24 2.96
-5 -1 4 39.65 3.08
-6 1 -4 41.52 2.97
5 -6 -4 43.07 3.03
-6 5 4 38.54 3.03
1 -6 4 36.63 2.95
-1 -5 -4 42.08 3.06
6 -1 -4 44.12 3.03
-5 6 -4 35.88 2.94
6 -5 4 38.33 3.02
-6 5 4 35.55 3.01
6 -1 -4 42.71 3.02
-1 -5 -4 41.69 2.91
1 -6 4 42.67 3.08
-6 1 -4 35.56 3.01
-1 6 4 37.77 3.04
6 -6 4 89.37 7.28
6 0 -4 100.06 7.27
6 0 -4 110.08 7.29
-6 0 -4 93.28 7.22
6 -6 4 108.32 7.27
0 -6 -4 104.56 7.3
0 -6 -4 108.67 7.19
6 -6 -4 107.28 7.25
0 -6 4 101.02 7.32
-6 6 -4 101.85 7.33
-6 0 4 102.46 7.22
-6 0 -4 85.43 7.21
-6 6 4 94.13 7.21
0 6 4 94.7 7.3
-6 0 4 98.07 7.32
-6 6 4 96.33 7.29
-6 6 -4 95.96 7.22
0 -6 4 102.54 7.23
-3 -4 4 34.49 2.57
-3 7 -4 34.49 2.71
7 -4 -4 31.59 2.61
-7 3 4 32.57 2.57
4 -7 4 35.54 2.58
3 -7 -4 38.17 2.55
3 -7 -4 32.32 2.52
-7 3 4 33.36 2.7
-3 -4 4 32.69 2.71
7 -3 4 35.37 2.64
7 -4 -4 31.19 2.59
-3 -4 4 30.52 2.63
-4 -3 -4 36.01 2.53
-3 7 -4 34.2 2.53
7 -3 4 35.04 2.65
3 -7 -4 36.51 2.66
-7 4 -4 37.75 2.6
-7 4 -4 34.13 2.7
-3 -4 -4 39.25 2.83
3 -7 4 39.5 2.76
-7 3 -4 34.59 2.86
7 -4 4 34.75 2.78
4 -7 -4 41.13 2.85
3 -7 4 39.88 2.88
4 -7 -4 35.36 2.72
7 -3 -4 37.37 2.81
-3 -4 -4 37.76 2.69
-4 -3 4 35.04 2.87
-7 4 4 36.88 2.88
4 -7 -4 33.9 2.71
-4 -3 4 34.81 2.72
-4 -3 4 36.43 2.74
-4 7 -4 37.5 2.72
7 -4 4 36.15 2.79
-4 7 -4 38.78 2.89
-7 4 4 32.75 2.73
7 -4 4 38.72 2.81
3 -7 4 33.35 2.74
-2 -5 4 62.15 4.87
2 -7 -4 72.66 4.73
7 -2 4 63.42 4.82
-7 2 4 62.41 4.87
2 -7 -4 70.25 4.85
5 -7 4 63.92 4.85
-5 -2 -4 65.94 4.73
7 -5 -4 71.27 4.8
2 5 4 58.23 4.81
5 -7 4 64.16 4.78
-2 -5 4 65.24 4.84
-7 5 -4 69.55 4.77
-7 2 4 63.31 4.76
-2 -5 4 68.44 4.76
-5 7 4 59.25 4.71
7 -2 4 59.78 4.8
-7 5 -4 64.92 4.88
-7 2 -4 69.26 5.54
-7 5 4 78.97 5.58
2 -7 4 71.96 5.47
2 -7 4 81.25 5.47
7 -5 4 73.33 5.49
-5 -2 4 75.21 5.45
-7 2 -4 77.81 5.48
7 -2 -4 77.36 5.52
-7 5 4 77.22 5.46
-5 7 -4 69.91 5.44
-5 -2 4 67.44 5.46
7 -5 4 70.45 5.51
-5 7 -4 75.98 5.59
7 -5 4 72.56 5.51
-5 -2 4 69.84 5.57
-2 -5 -4 77.41 5.41
7 -2 -4 79.09 5.54
5 -7 -4 71.65 5.46
5 -7 -4 75.87 5.46
-7 5 4 64.72 5.5
2 -7 4 79.32 5.59
-2 -5 -4 85.16 5.57
5 -7 -4 82.28 5.55
-6 -1 -4 24.04 2.04
6 -7 4 29.27 2.13
-6 7 4 25.76 2.05
7 -6 -4 25.38 2.1
-7 1 4 26.66 2.22
-7 1 4 27.26 2.08
-1 -6 4 27.91 2.07
-1 -6 4 27.76 2.22
7 -6 -4 29.37 2.18
-7 6 -4 26.96 2.26
6 1 -4 28.5 2.14
1 -7 -4 28.48 2.17
6 1 -4 24.75 2.11
6 -7 4 26.88 2.2
-1 -6 4 25.47 2.21
7 -1 4 26.75 2.16
-6 -1 -4 25.73 2.04
-7 6 -4 28.73 2.09
1 -7 -4 29.45 2.02
7 -1 -4 35.12 2.41
-1 -6 -4 34.17 2.45
-7 1 -4 32.85 2.32
7 -6 4 30.84 2.35
1 -7 4 32.67 2.3
6 -7 -4 33.46 2.39
-7 6 4 26.72 2.29
6 -7 -4 30.07 2.32
-7 1 -4 27.45 2.29
6 -7 -4 25.51 2.28
1 -7 4 33.64 2.48
-7 6 4 29.45 2.42
7 -1 -4 31.98 2.39
-1 -6 -4 31.41 2.24
1 -7 4 28.83 2.3
7 -6 4 28.55 2.38
-6 7 -4 29.29 2.29
-6 -1 4 29.69 2.3
-7 1 -4 29.05 2.4
-6 7 -4 30.98 2.47
-6 -1 4 27.38 2.45
-7 7 -4 150.43 12.36
7 0 -4 191.03 12.47
-7 0 -4 149.14 12.36
0 -7 4 174.91 12.38
7 -7 4 156.15 12.44
7 -7 4 181.3 12.42
7 -7 -4 169.26 12.39
-7 0 4 169.22 12.49
-7 7 -4 171.45 12.5
-7 0 -4 161.28 12.37
0 -7 -4 185.38 12.47
7 0 -4 157.16 12.42
0 -7 -4 176.66 12.33
7 -7 -4 195.3 12.47
-7 0 4 170.04 12.38
-7 7 4 182.55 12.37
0 -7 4 175.7 12.49
-8 4 4 184.12 12.58
8 -4 -4 168.86 12.61
4 -8 4 151.7 12.57
4 -8 4 171.73 12.58
-8 4 -4 164.55 12.67
4 -8 -4 187.67 12.66
-4 -4 -4 180.84 12.65
8 -4 4 169.4 12.63
4 -8 -4 174.68 12.55
4 -8 -4 153.02 12.53
-4 -4 -4 178.21 12.53
-4 -4 4 175.37 12.57
8 -4 4 175.57 12.63
4 -8 4 194.86 12.72
-4 8 -4 182.59 12.7
-8 4 4 173.37 12.69
-4 -4 4 181.32 12.71
-4 8 -4 154.67 12.53
-8 4 -4 188.52 12.59
5 -8 4 17.37 1.46
-3 -5 4 16.55 1.41
-8 3 4 17.57 1.46
8 -3 4 17.67 1.58
-5 -3 -4 18.6 1.37
-8 5 -4 18.42 1.49
8 -5 -4 17.13 1.51
3 -8 -4 19.4 1.38
-3 -5 4 15.48 1.53
8 -5 -4 18.36 1.54
-8 3 4 16.39 1.62
-3 -5 4 16.38 1.66
-8 5 -4 15.7 1.67
8 -3 4 18.19 1.54
5 -8 4 19.92 1.65
3 -8 -4 16.67 1.54
8 -3 -4 22.07 1.75
-8 5 4 21.56 1.66
-8 3 -4 23.19 1.69
8 -3 -4 22.85 1.77
5 -8 -4 22.95 1.81
-8 5 4 21.1 1.84
5 -8 -4 20.67 1.64
3 -8 4 18.15 1.65
-8 3 -4 19.72 1.84
-5 -3 4 19.51 1.62
-5 8 -4 19.08 1.61
-3 -5 -4 20.22 1.56
-5 8 -4 20.14 1.88
-5 -3 4 22.89 1.66
3 -8 4 24.7 1.9
5 -8 -4 18.24 1.62
8 -5 4 19.21 1.71
8 -5 4 19.01 1.72
-3 -5 -4 20.72 1.76
3 -8 4 20.53 1.66
-5 -3 4 21.24 1.88
6 -8 4 25.17 2.13
-2 -6 4 25.4 2.17
-8 6 -4 23.56 2.16
-8 2 4 26.27 1.99
-6 -2 -4 24.89 1.92
-2 -6 4 23.05 2.11
8 -6 -4 26.63 2
-8 6 -4 28.37 2
8 -2 4 26.91 2.11
-8 2 4 26.28 2.17
6 -8 4 24.77 2.01
2 -8 -4 24.64 2.06
8 -2 4 21.6 2.01
8 -6 -4 25.08 2.08
2 -8 -4 27.32 1.91
-2 -6 4 25.16 1.95
-8 6 4 20.15 1.73
-6 8 -4 20.31 1.72
-8 6 4 22.74 1.92
2 -8 4 24.74 1.75
2 -8 4 23.93 2
-2 -6 -4 22.72 1.64
-2 -6 -4 23.89 1.91
2 -8 4 21.45 1.74
6 -8 -4 19 1.73
-8 2 -4 21.26 1.91
6 -8 -4 23.68 1.77
-6 8 -4 20.15 1.89
8 -6 4 18.36 1.74
8 -2 -4 20.31 1.85
-6 -2 4 23.25 1.73
8 -2 -4 25.34 1.86
8 -6 4 22.9 1.84
-6 -2 4 22.42 1.96
-8 2 -4 22.23 1.77
-6 -2 4 22.96 1.76
-8 7 -4 16.74 1.66
-8 7 -4 17.15 1.4
8 -7 -4 16.05 1.42
7 -8 4 16.05 1.55
-8 1 4 17.86 1.42
-7 8 4 15.46 1.33
8 -1 4 17.86 1.55
-1 -7 4 16.45 1.36
-8 1 4 16.94 1.61
-7 -1 -4 16.14 1.35
-1 -7 4 17.86 1.58
-1 -7 4 15.42 1.6
7 -8 4 16.39 1.44
1 -8 -4 16.29 1.53
1 -8 -4 16.42 1.28
7 1 -4 16.6 1.43
7 -8 -4 13.3 1.29
-8 7 4 13.11 1.19
-7 -1 4 13.5 1.18
-7 -1 4 11.99 1.39
1 -8 4 12.56 1.17
-7 8 -4 13.3 1.15
8 -7 4 16.5 1.31
8 -7 4 13.74 1.28
-8 1 -4 15.29 1.2
7 -8 -4 11.64 1.15
-7 8 -4 14.46 1.47
-1 -7 -4 13.86 1.31
-7 -1 4 13.52 1.19
7 -8 -4 13.12 1.2
-8 7 4 11.23 1.28
-8 1 -4 13.75 1.19
1 -8 4 14.77 1.48
-8 1 -4 12.88 1.32
-1 -7 -4 14.77 1.05
8 -8 -4 43.39 3.17
-8 0 4 41.48 3.14
-8 8 -4 38.17 3.12
8 -8 4 39.02 3.22
-8 8 -4 42.21 3.34
-8 8 4 45.68 3.13
0 -8 -4 43.22 3.05
0 -8 4 41.9 3.12
-8 0 4 36.12 3.29
0 -8 4 42.42 3.32
8 -8 4 45.42 3.2
0 -8 4 45.22 3.32
-8 0 -4 35.31 3.1
0 -8 -4 45 3.25
-8 0 -4 41.96 3.13
-9 4 4 206.79 14.46
5 -9 4 185.35 14.47
9 -5 -4 204.42 14.51
-4 -5 4 192.52 14.45
-9 5 -4 205.05 14.48
-9 4 4 183.46 14.59
-4 -5 4 222.1 14.64
-9 5 -4 185.24 14.58
9 -4 4 194.81 14.53
4 -9 -4 211.81 14.55
-5 -4 -4 192.92 14.41
-4 9 -4 201.94 14.61
4 -9 -4 219.46 14.44
5 -9 4 201.13 14.47
9 -5 -4 188.72 14.52
9 -4 4 193.06 14.53
5 -9 4 219.43 14.63
-5 -4 4 188.67 13.77
-5 -4 4 195.21 13.93
4 -9 4 199.44 13.94
9 -5 4 185.31 13.84
5 -9 -4 202.09 13.86
-4 -5 -4 180.17 13.71
-9 4 -4 191.51 13.79
9 -4 -4 202.84 13.84
-5 9 -4 200.15 13.93
4 -9 4 184.92 13.78
9 -4 -4 189.03 13.85
-4 -5 -4 179.46 13.84
-9 4 -4 184.37 13.89
5 -9 -4 179.67 13.76
-9 5 4 182.12 13.91
-9 5 4 209.62 13.79
4 -9 4 198.22 13.78
9 -5 4 184.03 13.83
-9 3 4 53.29 4.06
6 -9 4 55.44 4.22
-3 -6 4 60.88 4.26
-6 -3 -4 54.76 4
-9 6 -4 51.11 4.24
9 -3 4 51.11 4.12
-9 3 4 51.92 4.21
6 -9 4 52.84 4.07
3 -9 -4 58.76 4
-9 6 -4 55.11 4.07
9 -6 -4 57.4 4.14
9 -3 4 56.42 4.17
6 -9 4 46.74 4.04
3 -9 -4 57.84 4.17
-3 -6 4 53.55 4.03
9 -6 -4 57.63 4.11
-9 3 -4 60.64 4.56
6 -9 -4 62.09 4.54
-3 -6 -4 59.53 4.47
-9 6 4 62.3 4.55
6 -9 -4 63.72 4.53
9 -3 -4 59.63 4.62
-3 -6 -4 60.51 4.63
3 -9 4 66.19 4.54
-6 -3 4 67.61 4.77
6 -9 -4 62.61 4.64
-6 -3 4 62.58 4.55
9 -6 4 54.56 4.59
-6 9 -4 60.05 4.51
-6 9 -4 63.85 4.74
9 -3 -4 71.25 4.66
-6 -3 4 52.23 4.5
-9 6 4 64.7 4.72
3 -9 4 59.9 4.55
9 -6 4 59.26 4.62
-2 -7 4 46.33 3.43
9 -7 -4 50.19 3.38
-7 -2 -4 38.18 3.19
-9 7 -4 41.61 3.46
-9 2 4 43.57 3.25
9 -7 -4 43.87 3.29
-2 -7 4 43.1 3.21
2 -9 -4 45.63 3.17
7 -9 4 41.9 3.27
-9 7 -4 45.28 3.27
9 -2 4 42.76 3.36
7 -9 4 42.47 3.39
-9 2 4 40.53 3.4
2 -9 -4 41.8 3.34
-2 -7 4 39.85 3.34
9 -2 -4 54.3 3.69
-9 2 -4 43.65 3.56
7 -9 -4 48.97 3.58
-2 -7 -4 44.65 3.65
-9 7 4 39.86 3.69
9 -7 4 52.25 3.67
-7 -2 4 51.25 3.59
2 -9 4 51.12 3.78
-9 2 -4 46.89 3.58
-2 -7 -4 45.92 3.47
-7 9 -4 47.4 3.54
-7 -2 4 41.88 3.54
-9 2 -4 42.76 3.67
9 -2 -4 52.87 3.69
-7 -2 4 42.78 3.74
2 -9 4 44.85 3.55
-9 7 4 52.12 3.57
-7 9 -4 52.23 3.79
7 -9 -4 54.36 3.71
7 -9 -4 47.1 3.58
-9 1 4 13.94 1.63
9 -8 -4 14.99 1.59
9 -8 -4 16.24 1.5
8 -9 4 17.16 1.48
8 1 -4 15.35 1.46
1 -9 -4 17 1.56
8 -9 4 17.04 1.56
1 -9 -4 18.06 1.27
-1 -8 4 16.9 1.59
-9 1 4 14.21 1.42
-8 -1 -4 16.22 1.37
-1 -8 4 18.28 1.72
-9 8 -4 17.04 1.74
-1 -8 4 17.37 1.36
-9 8 -4 14.83 1.38
9 -1 4 17.19 1.59
-8 -1 4 22.55 1.85
9 -8 4 26.55 1.97
-9 8 4 22.33 1.83
-1 -8 -4 23.28 1.7
8 -9 -4 24.71 1.88
-8 -1 4 21.82 1.82
8 -9 -4 20.42 1.83
-1 -8 -4 24.98 1.99
1 -9 4 25.51 2.1
1 -9 4 22.42 1.8
-9 1 -4 22.96 1.86
-8 -1 4 22.12 2.08
-8 9 -4 21.35 1.8
9 -1 -4 22.79 1.92
-9 1 -4 20.86 1.82
9 -1 -4 25.19 1.98
-8 9 -4 24.9 2.13
9 -8 4 19.45 1.87
0 -9 4 48.81 3.47
0 -9 -4 43.49 3.13
9 -9 4 42.7 3.3
9 -9 -4 49.64 3.43
-9 0 4 46.8 3.26
9 0 -4 41.24 3.33
0 -9 4 43.16 3.2
9 -9 -4 45.6 3.27
-9 9 -4 39.67 3.21
-9 0 -4 42.07 3.23
0 -9 -4 40.17 3.33
-9 0 4 36.78 3.23
-9 9 -4 42.91 3.48
0 -9 4 42.36 3.43
-9 0 4 42.34 3.45
-9 9 4 39.69 3.19
10 -5 4 153.64 11.57
-10 5 4 159.99 11.5
-5 -5 4 172.07 11.69
-5 -5 -4 141.38 11.55
-10 5 4 151.2 11.65
-10 5 -4 144.96 11.62
-5 -5 -4 151.95 11.42
10 -5 -4 161.79 11.58
5 -10 -4 156.77 11.47
-10 5 -4 166.44 11.51
5 -10 4 160.01 11.49
-5 -5 4 154.64 11.47
10 -5 4 164.9 11.58
5 -10 -4 167.44 11.59
5 -10 4 175.98 11.7
10 -5 -4 154.84 11.55
5 -10 4 156.34 11.51
-5 10 -4 164.52 11.68
-10 4 4 40.48 2.97
-10 6 -4 44.83 3.01
-10 6 -4 37.93 3.18
-4 -6 4 42.4 3.23
6 -10 4 37.91 2.97
10 -4 4 34.72 3.02
4 -10 -4 41.26 2.9
10 -6 -4 40.09 3.03
-4 -6 4 37.26 2.9
-10 4 4 34.61 3.14
10 -4 4 40.5 3.1
10 -6 -4 36.99 3.07
6 -10 4 38.33 2.96
-6 -4 -4 38.45 2.87
4 -10 -4 34.53 3.03
6 -10 4 40.95 3.22
4 -10 4 40.64 3.14
6 -10 -4 35.38 2.84
4 -10 4 34.88 2.86
-10 6 4 36.51 2.87
-10 4 -4 35.7 3.05
4 -10 4 38.88 2.84
-4 -6 -4 40.24 3
6 -10 -4 40.05 3.01
-4 -6 -4 36.4 2.76
10 -4 -4 35.83 2.96
-6 -4 4 35.96 2.84
10 -4 -4 38.21 2.98
-10 4 -4 40.47 2.91
-6 -4 4 40.9 3.13
10 -6 4 35.87 2.94
-6 10 -4 39.99 3.14
10 -6 4 35.72 2.93
7 -10 4 18.43 1.61
-7 -3 -4 19.33 1.49
-3 -7 4 20.86 1.89
7 -10 4 16.62 1.56
3 -10 -4 21.09 1.46
10 -3 4 18.28 1.69
-3 -7 4 18.94 1.5
7 -10 4 17.02 1.81
-10 7 -4 20.76 1.63
3 -10 -4 18.26 1.72
-10 3 4 19.29 1.6
10 -7 -4 18.66 1.61
-10 7 -4 19.06 1.9
10 -7 -4 16.16 1.71
-10 3 4 15.3 1.77
-7 -3 4 14.52 1.21
-7 -3 4 14.37 1.61
-7 10 -4 14.74 1.62
-10 3 -4 13.61 1.27
10 -7 4 13.35 1.33
7 -10 -4 12.17 1.15
-3 -7 -4 12.23 1.32
-10 7 4 12.05 1.2
10 -3 -4 15.07 1.37
10 -3 -4 13.15 1.35
7 -10 -4 12.57 1.19
3 -10 4 13.38 1.6
-10 3 -4 12.03 1.39
7 -10 -4 15.6 1.46
-10 7 4 13.25 1.41
3 -10 4 12.03 1.18
-3 -7 -4 13.09 1.04
2 -10 -4 32.23 2.29
-10 8 -4 32.22 2.42
-2 -8 4 32.21 2.64
-10 8 -4 28.85 2.67
-10 2 4 29.34 2.42
10 -8 -4 34.21 2.57
-2 -8 4 31.54 2.34
10 -8 -4 30.72 2.47
-8 -2 -4 28.9 2.34
8 -10 4 32.24 2.59
-10 2 4 27.85 2.61
10 -2 4 30.13 2.52
2 -10 -4 28.27 2.5
8 -10 4 31.65 2.45
-10 2 -4 31.58 2.45
-8 -2 4 33.6 2.47
-8 10 -4 35.6 2.75
10 -2 -4 28.27 2.51
-10 8 4 31.95 2.45
8 -10 -4 32.92 2.47
8 -10 -4 26.72 2.58
10 -2 -4 35.26 2.61
2 -10 4 33.47 2.74
-8 10 -4 28.26 2.38
8 -10 -4 30.55 2.45
-2 -8 -4 29.94 2.31
-10 2 -4 32.62 2.46
-2 -8 -4 30.95 2.56
-8 -2 4 33.96 2.73
2 -10 4 30.83 2.42
-1 -9 4 10.85 1.45
10 -1 4 9.87 1.2
-1 -9 4 8.13 1.14
-9 -1 -4 10.46 0.99
1 -10 -4 9.65 1.17
-1 -9 4 9.63 0.94
-10 1 4 9.39 1.36
-10 9 -4 8.33 1
10 -9 -4 10.01 1.12
9 -10 4 7.9 1.14
1 -10 -4 10.27 0.82
-10 1 4 10.19 1.06
1 -10 -4 8.85 1.31
-10 9 -4 9.35 1.47
9 -10 4 10.06 1.17
10 -9 -4 10.9 1.32
1 -10 4 8.44 1.32
-9 10 -4 6.8 0.81
-9 -1 4 7.08 0.86
1 -10 4 7.82 1.3
9 -10 -4 6.67 0.88
-1 -9 -4 8.3 1.07
1 -10 4 7.69 0.86
10 -9 4 9.35 1.09
-1 -9 -4 8.27 0.68
10 -1 -4 9 1.01
9 -10 -4 7.7 0.97
-9 -1 4 7.49 0.94
-10 1 -4 9.52 0.96
-9 10 -4 9.4 1.42
-10 9 4 5.66 0.84
-9 -1 4 7.59 1.31
0 -10 -4 3.65 0.81
-10 0 -4 4.01 0.76
10 -10 -4 5.43 1.14
-10 0 4 2.63 0.5
0 -10 4 3.16 0.88
0 -10 4 2.08 0.59
0 -10 -4 2.84 0.64
10 -10 -4 3.44 0.66
10 -10 4 5.24 0.95
-10 10 -4 3.73 0.65
-10 0 4 3.1 0.67
-10 10 -4 4.23 1.03
-10 0 4 4.65 1.03
0 -10 4 3.87 0.64
6 -11 4 9.85 1.04
-5 -6 4 10.68 1
-11 6 -4 9.93 1.2
6 -11 4 11.27 1.13
11 -6 -4 11.98 1.26
11 -5 4 9.91 1.28
11 -6 -4 9.27 1.16
-6 -5 -4 10.38 1.3
5 -11 -4 9.93 1.24
-5 11 -4 12.51 1.56
-6 -5 -4 10.63 0.91
-5 -6 4 9.99 1.49
6 -11 4 11.75 1.56
-11 5 4 11.93 1.17
-11 5 4 8.43 1.35
11 -5 4 10.14 1.19
-11 6 -4 9.97 1.47
11 -5 -4 12.01 1.36
-5 -6 -4 11.35 1.37
-6 -5 4 11.82 1.14
11 -6 4 12.61 1.33
-11 6 4 13.31 1.44
5 -11 4 11.85 1.22
-6 -5 4 13.91 1.71
5 -11 4 12.73 1.63
6 -11 -4 12.65 1.39
11 -5 -4 12.57 1.32
-11 6 4 13.8 1.26
-11 5 -4 14.75 1.29
6 -11 -4 12.12 1.13
11 -6 4 11.34 1.26
-6 11 -4 14.48 1.69
-5 -6 -4 12.28 1.01
-11 5 -4 12.47 1.47
-11 7 -4 55.77 4.61
4 -11 -4 50.25 4.46
4 -11 -4 63.79 4.33
11 -7 -4 61.03 4.47
11 -4 4 62.61 4.54
7 -11 4 54.16 4.42
-11 4 4 66.06 4.42
-11 4 4 56.27 4.59
7 -11 4 56.53 4.62
-7 -4 -4 59.97 4.31
-4 -7 4 57.51 4.61
-11 7 -4 66.49 4.44
-4 -7 4 56.5 4.33
7 -11 4 57.44 4.39
11 -4 -4 55.46 4.1
7 -11 -4 51.45 3.95
-7 -4 4 52.81 3.95
-11 4 -4 55.31 4
-11 7 4 45.76 4.11
4 -11 4 56.54 4.26
7 -11 -4 51.88 4.09
11 -7 4 52.86 4.07
11 -4 -4 59.14 4.09
4 -11 4 50.59 3.96
-4 -7 -4 52.23 3.86
-7 11 -4 57.76 4.27
-11 7 4 49.48 3.97
-4 -7 -4 52.22 4.08
8 -11 4 21.51 1.75
3 -11 -4 18.37 2.05
-3 -8 4 22.81 2.09
-11 8 -4 19.48 2.08
-3 -8 4 21.13 1.66
-11 3 4 18.58 1.98
8 -11 4 17.76 1.7
11 -8 -4 23.87 1.97
11 -8 -4 22.57 1.87
-11 3 4 18.64 1.76
11 -3 4 21.15 1.93
3 -11 -4 18.75 1.82
-11 8 -4 21.75 1.79
-8 -3 -4 20.58 1.64
3 -11 -4 21.4 1.6
8 -11 4 21.4 1.99
8 -11 -4 24.74 1.99
3 -11 4 20.21 1.73
-8 11 -4 25.53 2.24
-3 -8 -4 20.85 1.61
-11 8 4 21.57 1.76
8 -11 -4 16.95 1.92
-11 3 -4 22.9 1.8
-8 -3 4 21.51 1.78
-3 -8 -4 21.61 1.92
3 -11 4 21.84 2.12
11 -8 4 20.36 1.89
-8 -3 4 22.24 2.14
8 -11 -4 19.75 1.78
11 -3 -4 22.35 1.94
9 -11 4 29.12 2.33
-2 -9 4 30.91 2.23
11 -9 -4 32.75 2.39
-2 -9 4 27.95 2.56
11 -9 -4 29.77 2.43
-9 -2 -4 27.83 2.23
-11 2 4 28.7 2.31
2 -11 -4 23.96 2.32
-11 9 -4 27.87 2.6
2 -11 -4 32.51 2.59
11 -2 4 27.13 2.41
-11 2 4 27.22 2.53
2 -11 -4 31.31 2.16
-11 9 -4 25.74 2.28
9 -11 -4 24.19 2.19
2 -11 4 33.01 2.56
-2 -9 -4 28.95 2.08
-11 9 4 23.31 2.19
-9 -2 4 29.99 2.59
11 -9 4 32.27 2.41
9 -11 -4 23.56 2.36
9 -11 -4 29.69 2.28
-9 -2 4 28.11 2.26
-11 2 -4 28.13 2.25
2 -11 4 29.23 2.2
-2 -9 -4 28.66 2.33
11 -2 -4 26.62 2.35
-9 11 -4 31.86 2.62
10 -11 4 3.63 0.7
-10 -1 -4 3.5 0.74
1 -11 -4 3.03 0.66
-1 -10 4 4.25 0.65
11 -1 4 2.89 0.7
-11 10 -4 3.8 1.03
11 -10 -4 4.19 0.96
-11 1 4 3.18 0.93
-1 -10 4 5.23 1.07
-11 10 -4 3.18 0.62
-11 1 4 3.01 0.56
11 -10 -4 3.92 0.82
1 -11 4 5.06 0.71
-10 -1 4 4.02 0.81
1 -11 4 2.9 0.65
11 -10 4 5.16 1.03
-10 -1 4 3.3 0.93
-11 1 -4 5.24 0.85
-1 -10 -4 3.23 0.72
10 -11 -4 3.13 0.69
1 -11 4 3.97 0.96
10 -11 -4 5.83 1.08
10 -11 -4 4.17 0.73
0 -11 4 35.09 2.51
11 -11 -4 26.86 2.53
0 -11 -4 31.4 2.39
11 -11 -4 32.57 2.72
-11 0 4 27.64 2.53
-11 0 -4 34.5 2.57
0 -11 4 35.31 2.89
11 -11 4 37.48 2.66
-11 11 -4 37.98 2.92
-11 0 4 28.03 2.78
-6 12 -4 0.23 0.89
-12 6 -4 0.65 0.69
6 -12 -4 0.02 0.56
-6 -6 -4 0.26 0.3
-6 -6 4 0 0.87
6 -12 4 0.13 0.49
6 -12 4 0.03 0.67
-12 6 4 -0.05 0.53
12 -6 4 -0.22 0.41
6 -12 -4 0.02 0.44
6 -12 -4 0.95 0.4
-12 6 -4 -0.27 0.51
12 -6 -4 0.34 0.63
12 -6 4 -0.2 0.48
-6 -6 -4 0 0.55
-12 6 4 0.16 0.65
12 -6 -4 -0.01 0.51
-6 -6 4 0.06 0.38
12 -7 -4 21.93 2.05
5 -12 -4 25.84 1.89
-12 5 4 24.65 2.02
7 -12 4 22.44 2.33
12 -5 4 20.08 2.05
-12 7 -4 27.76 2.06
12 -7 -4 25.42 2.12
-5 -7 4 24.71 2.31
-12 7 -4 20.68 2.23
-5 -7 4 22.79 1.88
7 -12 4 24.75 2.04
5 -12 -4 25.75 2.33
-12 5 -4 28.47 2.2
12 -5 -4 23.51 2.23
-7 12 -4 31.64 2.64
5 -12 4 31.45 2.59
12 -5 -4 25.87 2.3
5 -12 4 25.4 2.16
-5 -7 -4 28.24 2.02
7 -12 -4 26.26 2.41
-5 -7 -4 24.77 2.27
-12 7 4 31.22 2.21
-7 -5 4 26.57 2.12
-7 -5 4 29.01 2.55
7 -12 -4 21.61 2.23
7 -12 -4 26.23 2.13
-4 -8 4 34.62 2.53
12 -8 -4 31.9 2.73
4 -12 -4 34.88 2.5
-8 -4 -4 34.98 2.52
-12 4 4 26.94 2.78
-12 8 -4 30.05 2.85
-12 8 -4 37.98 2.67
4 -12 -4 35.55 2.91
12 -8 -4 37.02 2.72
-4 -8 4 33.92 2.9
-12 4 4 34.91 2.65
8 -12 4 31.79 2.64
12 -4 4 30.05 2.72
8 -12 4 29.16 2.84
8 -12 -4 37.24 3.11
-12 8 4 38.59 3
4 -12 4 37.91 3.33
-4 -8 -4 35.22 3.09
12 -4 -4 39.25 3.15
8 -12 -4 40.62 3.01
4 -12 4 39.65 3
-12 4 -4 39.59 3.02
-8 12 -4 44.92 3.41
-4 -8 -4 41.77 2.87
12 -8 4 36.62 3.1
-8 -4 4 39.51 3
12 -9 -4 2.1 0.67
3 -12 -4 1.13 0.55
-12 9 -4 1.12 0.47
9 -12 4 1.25 0.4
9 -12 4 0.74 0.47
-12 3 4 2.55 0.81
12 -9 -4 1.92 0.74
-3 -9 4 2.22 0.95
-12 9 -4 1.73 0.84
9 -12 4 1.39 0.45
-12 3 4 1.84 0.54
12 -3 4 2.35 0.68
9 -12 -4 0.98 0.41
-12 3 -4 0.84 0.6
-12 9 4 1.09 0.38
-9 -3 4 2.45 1.07
-3 -9 -4 1.01 0.43
-12 3 -4 0.4 0.31
-9 12 -4 2.55 1.03
-12 3 -4 1.13 0.4
3 -12 4 0.95 0.6
12 -9 4 2.39 0.7
12 -3 -4 0.71 0.43
12 -3 -4 1.52 0.52
12 -10 -4 7.83 1.1
-10 -2 -4 8.95 0.95
12 -2 4 9.55 1.21
-2 -10 4 8.26 1.37
-12 10 -4 7.99 1.35
10 -12 4 7.53 0.92
-2 -10 4 8.41 0.91
12 -10 -4 7.45 1.22
2 -12 -4 9.22 0.78
2 -12 4 2.26 0.57
-10 -2 4 3.99 0.96
-10 12 -4 4.19 1.03
-12 11 -4 35.41 3.01
12 -11 -4 34.38 2.77
11 -12 4 35.51 2.79
-12 1 4 33.58 2.98
12 -11 -4 38.51 2.92
12 -11 4 60.14 4.38
-11 12 -4 51.71 4.55
-12 1 -4 64.69 4.33
-11 -1 4 55.63 4.32
1 -12 4 66.21 4.28
1 -12 4 52.96 4.53
-11 -1 4 47.92 4.5
-12 0 4 0.84 0.75
12 -12 4 1.35 0.46
-12 12 -4 1.56 0.79
0 -12 4 0.74 0.7
-12 0 4 2.04 0.45
12 -12 -4 0.7 0.51
-13 6 4 4.06 0.69
6 -13 -4 2.78 0.73
-6 -7 4 3.18 1
-7 -6 -4 3.79 0.6
13 -7 -4 1.86 0.63
13 -7 -4 2.27 0.59
-6 -7 4 3.29 0.67
6 -13 -4 3.06 0.68
-7 -6 -4 2.22 0.6
-13 7 -4 2.42 0.61
7 -13 4 3.77 0.73
13 -6 -4 0.34 0.56
-13 7 4 1.04 0.51
6 -13 4 -0.29 0.58
7 -13 -4 -0.17 0.38
6 -13 4 0.52 0.52
7 -13 -4 0.57 0.54
-7 -6 4 0.74 0.43
-13 6 -4 1.12 0.65
13 -6 -4 -0.02 0.45
13 -7 4 0.26 0.46
-13 6 -4 0.76 0.47
-6 -7 -4 1.09 0.35
-13 7 4 -0.32 0.69
-7 -6 4 0.12 0.83
-6 -7 -4 0.26 0.4
-7 13 -4 0.64 1.01
13 -8 -4 15.58 1.62
-5 -8 4 14.2 1.82
5 -13 -4 19.19 1.46
-13 5 4 17.57 1.6
-8 -5 -4 19.3 1.46
-5 -8 4 18.49 1.48
5 -13 -4 15.05 1.87
13 -8 -4 16.56 1.72
8 -13 4 18.28 1.65
-13 8 -4 18.97 1.6
13 -5 -4 9.79 1.2
5 -13 4 12.88 1.56
13 -8 4 8.17 1.09
8 -13 -4 9.53 1.23
-13 5 -4 10.93 1.04
-13 8 4 11.05 1.05
13 -9 -4 42.66 3.12
13 -9 -4 40.2 3.2
4 -13 -4 44.89 2.95
-4 -9 4 35.85 3.28
9 -13 4 35.4 3.07
-13 9 -4 36.91 3.03
-4 -9 -4 40.38 2.74
-9 -4 4 35.06 2.88
9 -13 -4 36.67 2.9
-9 13 -4 39.05 3.26
4 -13 4 36.3 2.87
-9 -4 4 36.19 3.18
13 -3 4 29.59 2.31
-13 10 -4 24.8 2.13
-13 10 -4 31.26 2.49
-13 3 4 28.44 2.17
3 -13 -4 22.23 2.33
-10 -3 4 68.5 5.35
-2 -11 4 2.18 0.74
13 -2 4 3.08 0.72
13 -11 4 4.54 0.78
11 -13 -4 4.86 0.76
-11 13 -4 3.95 0.97
-13 0 -4 0.45 0.5
-13 0 4 0.22 0.32
0 -13 4 0.82 0.5
-7 -7 -4 1.1 0.4
-14 7 4 0.06 0.38
7 -14 -4 -0.15 0.44
-14 7 -4 0.3 0.4
-7 -7 4 0.36 0.69
14 -7 -4 -0.04 0.5
7 -14 4 1.25 0.59
7 -14 -4 1.11 0.46
7 -14 4 -0.11 0.47
-7 -7 4 1.02 0.47
-7 -7 -4 -0.43 0.46
6 -14 -4 20.53 1.92
-14 6 4 19.37 1.66
-14 8 -4 19.5 1.68
-6 -8 4 19.58 1.95
-8 -6 4 20.44 2.01
6 -14 4 18.28 1.97
-8 14 -4 23.61 2.15
10 -14 4 17.7 1.55
3 -14 -4 64.54 4.83
-11 -3 -4 65.36 4.93
-3 -11 4 69.41 4.91
3 -14 4 72.94 4.78
-11 -3 4 64.42 4.8
11 -14 -4 54.56 4.78
-12 -2 -4 1.23 0.52
2 -14 -4 1.4 0.3
-2 -12 4 1.22 0.52
-14 2 -4 0.42 0.35
2 -14 4 2.4 0.59
-12 -2 4 1.17 0.49
-13 -1 -4 29.14 2.42
-1 -13 4 31.12 2.39
-14 1 -4 13.74 1.24
0 -14 4 4.68 0.86
-14 0 -4 3.91 0.68
-7 -8 4 11.52 1.21
8 -15 4 10.42 1.32
7 -15 -4 12.43 1.18
-8 -7 -4 12.66 1.12
8 -15 -4 4.63 0.84
7 -15 4 5.63 0.99
-7 -8 -4 6.32 0.74
-8 -7 4 4.73 0.86
9 -15 4 5.84 0.97
-6 -9 4 6.59 0.94
-9 -6 -4 8.13 0.91
6 -15 -4 7.58 0.88
9 -15 -4 7.48 0.99
-6 -9 -4 8.81 0.8
6 -15 4 7.82 1.06
-9 -6 4 7.3 0.99
-10 -5 -4 29.86 2.17
-5 -10 4 25.71 2.15
5 -15 -4 25.03 2.08
-10 -5 4 27.48 2.32
10 -15 -4 27.96 2.33
-5 -10 -4 30.01 2.14
5 -15 4 29.51 2.35
4 -15 -4 11.77 1.08
-4 -11 4 11.73 1.21
-11 -4 -4 13.58 1.27
11 -15 -4 9.89 1.18
4 -15 4 14.01 1.26
-11 -4 4 11.58 1.24
3 -15 -4 15.13 1.26
-3 -12 4 15.84 1.44
-12 -3 -4 16.47 1.47
-12 -3 4 9.56 1.07
-2 -13 4 20.7 1.6
-13 -2 -4 19.13 1.61
2 -15 -4 15.24 1.36
-13 -2 4 5.62 0.72
-15 14 -4 0.5 0.28
-15 1 4 0.08 0.39
-14 -1 -4 1.05 0.4
-1 -14 4 1.24 0.53
-14 15 4 1.06 0.45
-14 15 -4 0.76 0.36
1 -15 4 1.04 0.55
-15 1 -4 0.03 0.33
-15 14 4 -0.07 0.38
-14 -1 4 0.18 0.42
-15 15 4 2.16 0.64
0 -15 4 1.9 0.57
-15 15 -4 2.97 0.54
-15 0 4 2.05 0.7
8 -16 -4 3.78 0.8
-8 -8 -4 3.65 0.7
-8 -8 4 4.15 0.7
8 -16 4 4.19 0.89
-9 -7 -4 70.43 4.97
-7 -9 4 65.6 5.01
7 -16 -4 66.14 4.98
7 -16 4 61.44 4.59
9 -16 -4 56.02 4.53
-7 -9 -4 66.05 4.45
-9 -7 4 59.3 4.55
-10 -6 -4 14.73 1.34
6 -16 -4 13.36 1.26
-6 -10 4 13.11 1.34
-6 -10 -4 12.83 1
10 -16 -4 11.54 1.25
-10 -6 4 11.29 1.28
6 -16 4 14.32 1.35
5 -16 4 76.14 5.37
-11 -5 4 67.79 5.35
-12 -4 -4 64.12 4.58
-4 -12 4 62.47 4.56
4 -16 -4 57.23 4.47
3 -16 -4 3.85 0.42
-13 -3 4 2.83 0.54
-14 -2 -4 17.77 1.59
-16 14 -4 21.56 1.6
2 -16 4 31.76 2.72
-14 -2 4 37.68 2.83
-14 16 -4 35.87 2.75
-15 16 4 0.61 0.82
-16 15 -4 1.26 0.56
-16 1 4 0.24 0.7
-1 -15 4 0.21 0.36
-16 15 -4 0.12 0.58
-15 -1 -4 -0.09 0.28
1 -16 4 1.02 0.4
-15 16 -4 1.11 0.68
-16 15 4 0.96 0.8
-15 -1 4 1.12 0.84
8 -17 -4 6.61 0.9
-8 17 -4 5.4 0.9
-17 9 -4 6.15 1.08
-9 17 4 5.59 0.84
-9 -8 -4 7.6 0.77
-17 8 4 5.27 0.89
-8 -9 4 6.18 0.95
-9 17 4 5.59 0.86
-17 9 4 5.07 0.84
8 -17 4 5.05 0.81
-8 -9 -4 5.95 0.59
-8 17 4 4.81 0.77
-17 9 4 4.74 0.82
-9 17 -4 6.82 0.96
-9 -8 4 6.23 0.95
-17 8 -4 6.6 1.08
9 -17 -4 5.09 0.82
-8 17 4 7.47 1.2
-7 17 -4 1.75 0.47
-7 -10 4 3.97 0.83
-17 7 4 1.93 0.5
7 -17 -4 3.65 0.71
-17 10 -4 2.96 0.65
-10 17 4 2.57 0.51
-10 17 4 2.45 0.62
-17 10 -4 2.57 0.65
-17 7 -4 3.14 0.67
-17 10 4 2.37 0.49
10 -17 -4 2.39 0.53
-7 17 4 3.78 0.72
-10 17 -4 4.53 0.67
7 -17 4 3.62 0.77
-10 -7 4 3.6 0.64
-17 10 4 2.62 0.71
-6 -11 4 7.23 0.94
-17 11 -4 6.28 1.01
-11 17 4 6.6 0.88
-17 6 4 6.03 0.91
-11 17 4 4.6 0.9
6 -17 -4 6.15 0.79
-11 -6 -4 8.45 0.94
-17 11 -4 6.25 1.29
11 6 4 10.71 1.11
6 -17 4 13.11 1.26
-17 11 4 9.54 1.11
-17 11 4 13.99 1.5
-6 17 4 11.35 1.31
-11 -6 4 12.39 1.21
-17 6 -4 14.45 1.43
-11 17 -4 14.04 1.32
-5 -12 4 5.62 0.81
5 -17 -4 4.1 0.56
-17 12 -4 7.48 1.4
-12 17 4 4.56 0.75
-17 5 4 4.71 0.82
-17 12 -4 3.15 0.66
-12 17 4 6.75 1.1
-5 17 4 5.67 0.96
-17 12 4 7.28 1.16
-12 -5 4 4.83 0.71
-17 12 4 5.67 0.75
-13 -4 -4 10.54 1.03
-17 4 4 10.54 1.1
-13 17 4 8.62 1.03
-4 -13 4 12.55 1.06
-17 13 -4 10.5 1.23
-17 4 -4 7.02 0.88
-17 13 4 5.08 1
-13 17 -4 6.51 0.86
-17 13 4 5.26 0.76
-17 13 4 5.12 0.85
-17 3 4 4.24 0.78
-3 -14 4 3.02 0.54
-14 17 4 4.08 0.64
-17 14 -4 6.1 0.98
-17 14 4 3.46 0.76
-14 17 -4 6.06 0.84
-17 3 -4 4.59 0.78
-17 3 -4 3.64 0.69
3 -17 4 3.26 0.64
-14 -3 4 4.69 0.83
-15 17 4 4.99 1.03
-17 15 -4 3.1 0.78
-17 2 4 4.27 0.83
-17 15 -4 2.51 0.63
-17 15 4 4.19 0.91
-15 17 -4 4.92 0.83
-17 2 -4 2.77 0.62
-17 1 4 -0.11 0.31
-17 16 -4 0.24 0.51
-16 -1 -4 -0.11 0.39
-17 1 4 0.56 0.81
-16 17 4 -0.26 0.28
-17 16 -4 0.17 0.69
-17 16 -4 -0.37 0.58
-16 17 4 1.3 0.93
-17 16 4 1.29 0.85
-16 -1 4 2.47 0.91
-16 17 -4 1.08 0.77
-17 1 -4 0.68 0.46
-17 16 4 0.35 0.33
-17 0 4 1.81 0.84
-17 17 -4 0.47 0.71
-17 17 4 0.28 0.34
-17 0 -4 0.25 0.38
-17 0 4 -0.3 0.27
-17 17 -4 -0.03 0.44
-17 17 -4 0.3 0.48
-17 17 4 0.99 0.87
9 -18 -4 9.87 0.94
-9 18 4 9.33 1.13
-10 18 4 43.65 3.38
-18 10 -4 38.34 3.27
-8 18 -4 35.18 3.21
-10 18 4 43.94 3.16
-18 8 4 36.25 3.31
-18 8 4 41.42 3.2
-10 -8 4 17.82 1.65
-18 8 -4 19.32 1.74
10 8 4 23.62 1.67
-7 18 -4 10.71 1.38
-11 18 4 12.89 1.73
-11 18 4 10.64 1.41
-18 11 -4 12.79 1.73
-18 7 4 13.98 1.55
-18 11 -4 12.22 1.85
-11 18 4 13.42 1.47
-18 7 4 9.04 1.41
-7 18 4 18.83 1.98
-7 18 4 15.44 1.53
-18 11 4 15.28 1.63
-18 6 4 9.37 1.14
-12 18 -4 16.65 1.5
-6 18 4 16.55 1.81
-18 12 4 12.96 1.55
-6 18 4 12.94 1.42
-18 6 -4 19.13 1.96
-18 12 4 16.64 1.99
-12 18 -4 18.53 1.82
-18 5 4 13.55 1.2
-5 18 -4 9.97 1.2
-18 13 4 22.48 2.32
-13 18 -4 30.42 2.48
-13 18 -4 28.86 2.38
-18 5 -4 33.33 2.57
-18 5 -4 27.57 2.31
-5 18 4 27.15 2.43
-18 13 4 27.54 2.3
-18 13 4 28.59 2.65
-13 -5 4 28.58 2.38
-18 14 -4 8.05 1.47
-18 14 -4 8.08 1.02
-14 18 4 8.42 1.26
-18 4 4 7.57 1.21
-18 4 4 10.95 1.39
-18 14 -4 11.16 1.76
-14 18 4 9.38 1.73
-18 14 4 11.78 1.32
-18 4 -4 12.42 1.57
-14 18 -4 13.97 1.57
-14 -4 4 15.61 1.7
-18 14 4 10.78 1.71
-18 4 -4 13.51 1.71
-4 18 4 8.77 1.31
-18 14 4 13.29 1.62
-14 18 -4 11.03 1.45
-18 15 -4 6.8 1.08
-15 18 4 9.16 1.22
-18 3 4 7.29 1.31
-18 3 4 6.43 0.98
-18 15 -4 7.07 1.13
-18 15 -4 7.76 1.21
-15 18 4 4.67 0.78
-18 15 4 6.93 1.44
-18 3 -4 11.06 1.45
-15 18 -4 9.84 1.54
-18 15 4 9.43 1.68
-18 3 -4 9.82 1.56
-18 15 4 9.04 1.13
-18 16 -4 2.43 0.74
-18 16 -4 1.87 0.86
-16 18 4 2.07 0.94
-16 18 4 2.22 0.51
-18 2 4 2.39 0.63
-18 2 4 1.81 0.79
-18 16 -4 3.33 0.89
-18 2 -4 1.17 0.8
-16 -2 4 0.96 0.84
-18 16 4 0.7 0.46
-16 18 -4 0.32 0.74
-16 18 -4 0.75 0.39
-18 16 4 0.81 0.85
-18 2 -4 0.73 0.67
-18 17 -4 9.31 1.61
-18 17 -4 9.29 1.48
-18 1 4 6.89 1.03
-17 18 4 10.22 1.62
-18 17 -4 9.71 1.41
-18 1 4 10.39 1.55
-18 17 4 4.6 0.79
-17 18 -4 7.31 1.28
-18 1 -4 5.66 0.96
-18 1 -4 8.57 1.58
-18 0 4 -0.28 0.76
-18 18 4 0.44 0.31
-18 0 4 -0.12 0.27
-18 0 -4 -0.1 0.33
-18 18 4 0.59 0.81
-18 18 -4 -0.47 0.52
-18 18 -4 0 0.71
-18 0 -4 -0.39 0.73
-18 18 -4 0.03 0.59
-19 10 -4 14.39 1.95
-19 9 4 16.38 1.86
-9 19 -4 15.94 1.95
-10 19 4 16.34 2.2
-10 19 4 15.1 1.8
-19 9 4 15.3 2.13
-10 19 4 18.48 1.79
-19 10 -4 18.02 2.1
-9 19 4 12.54 1.56
-9 19 4 15.61 1.69
-19 10 4 17.67 2.21
-10 19 -4 17.88 2.04
-19 9 -4 17.63 2.08
-19 9 -4 14.41 1.81
-9 19 4 17.79 2.15
-19 10 4 16.08 1.88
-19 11 -4 49.59 4.16
-11 19 4 53.1 4.15
-11 19 4 47.6 4.06
-8 19 -4 46.61 4.02
-19 8 4 47.06 4.09
-19 8 4 55.86 4.02
-19 11 -4 55.24 4.14
-11 19 4 52.3 3.96
-8 19 4 51.12 4.22
-8 19 4 60.7 4.51
-19 11 4 59.78 4.55
-19 11 4 50.84 4.25
-11 19 -4 48.86 4.16
-19 8 -4 63.1 4.5
-11 19 -4 57.03 4.41
-12 19 4 13.58 1.6
-19 7 4 13.66 1.77
-19 12 -4 10.49 1.82
-12 19 4 13.82 1.98
-19 7 4 10.32 1.65
-19 12 -4 14.47 1.98
-7 19 -4 9.78 1.6
-12 19 4 13.21 1.83
-12 19 -4 14.62 1.91
-7 19 4 12.55 1.93
-19 12 4 12.01 1.57
-12 19 -4 14.13 1.57
-7 19 4 14.39 1.51
-19 7 -4 16.99 2
-19 12 4 18.35 2.2
-19 13 -4 8.48 1.21
-6 19 -4 6.89 1.01
-13 19 4 6.95 1.14
-13 19 4 9.68 1.38
-13 19 4 6.84 1.21
-19 6 4 8.85 1.52
-19 13 4 3.08 0.74
-13 19 -4 4.37 0.81
-19 13 4 3.6 1.03
-13 -6 4 3.75 0.73
-19 6 -4 3.57 0.75
-6 19 4 3.42 0.94
-13 19 -4 3.6 0.94
-19 13 4 3.1 0.75
-6 19 4 3.8 0.7
-19 6 -4 3.59 1.04
-14 19 4 1.63 0.83
-19 5 4 2.67 0.84
-14 19 4 2.06 0.72
-19 5 4 0.49 0.56
-19 14 -4 2.77 0.99
-14 19 4 1.14 0.86
-19 14 -4 -0.1 0.85
-19 14 -4 1.54 0.45
-19 5 -4 0.24 0.73
-14 19 -4 0.86 0.73
-14 19 -4 1.16 0.84
-19 5 -4 0.7 0.94
-14 -5 4 0.79 0.77
-5 19 4 -0.24 0.75
-19 14 4 1.13 0.87
-5 19 4 0.25 0.52
-19 14 4 0.27 0.64
-19 14 4 0.82 0.91
-19 4 4 29.37 2.7
-19 4 4 34.56 2.82
-15 19 4 31.37 2.86
-19 15 -4 33.68 2.9
-19 15 -4 35.57 2.99
-19 15 -4 32.6 2.63
-15 19 4 30.35 2.63
-19 4 -4 25.57 2.46
-15 -4 4 29.18 2.33
-19 15 4 21.68 2.21
-15 19 -4 27.39 2.32
-19 4 -4 24.78 2.32
-19 15 4 24.25 2.45
-19 15 4 24.88 2.45
-15 19 -4 24.17 2.3
-19 16 -4 24.79 2.15
-19 16 -4 25.53 2.57
-19 16 -4 22.47 2.38
-19 3 4 25.87 2.24
-19 3 4 22.2 2.24
-16 19 4 24.15 2.43
-16 19 4 24.33 2.11
-19 16 4 21.57 2
-16 -3 4 26.86 2.2
-19 16 4 21.79 2.23
-19 3 -4 22.54 2.12
-16 19 -4 23.06 2.12
-19 16 4 18.75 2.23
-19 3 -4 21.58 2.15
-19 2 4 8.27 1.26
-17 19 4 6.5 1.06
-19 17 -4 4.79 1.03
-19 17 -4 8.12 0.94
-19 2 4 7.45 0.98
-17 19 4 5.68 1.01
-19 17 -4 8.06 1.72
-19 17 4 3.95 0.89
-19 2 -4 3.34 0.79
-19 2 -4 3.13 0.7
-17 -2 4 5.13 0.83
-17 19 -4 3.63 0.78
-19 17 4 2.45 0.52
-19 17 4 1.67 0.6
-18 19 4 -0.42 0.28
-19 18 -4 0.09 0.68
-19 1 4 -0.05 0.68
-19 1 4 0.35 0.43
-18 -1 -4 0.64 0.69
-18 19 4 0.28 0.8
-19 18 -4 -0.68 0.74
-19 18 -4 -0.45 0.73
-19 18 4 -0.45 0.34
-18 19 -4 0.28 0.69
-19 18 4 0.5 0.29
-18 -1 4 1.43 0.73
-19 1 -4 0.57 0.38
-19 1 -4 0.07 0.7
-18 19 -4 -0.64 0.37
-18 19 -4 0.1 0.44
-19 18 4 -0.22 0.78
-19 19 -4 0.95 0.56
-19 19 -4 1.17 0.66
-19 19 4 1.85 0.78
-19 0 -4 2.31 0.69
-19 0 4 1.93 0.69
-19 0 -4 0.08 0.35
-10 20 4 46.19 3.72
-20 10 4 43.62 3.85
-10 20 4 47.08 3.62
-20 10 -4 43.28 3.75
-20 10 -4 46.75 3.83
-10 20 4 47.21 3.81
-10 20 -4 45.05 3.78
-20 10 4 47.64 3.68
-11 20 4 47.77 3.84
-20 11 -4 48.32 3.83
-9 20 -4 44.01 3.72
-20 11 -4 46.55 3.86
-20 9 4 43.74 3.84
-11 20 4 46.32 3.76
-20 9 4 46.82 3.74
-11 20 4 47.96 3.66
-20 9 -4 43.96 3.91
-9 20 4 45.91 3.85
-20 9 -4 55.23 4.05
-9 20 4 45.98 3.79
-9 20 4 52.77 4.06
-11 20 -4 49.55 3.75
-11 20 -4 51.75 3.94
-20 11 4 51.46 4.12
-20 11 4 46.23 3.8
-12 20 4 30.05 2.68
-12 20 4 27.86 2.8
-20 8 4 26.35 2.65
-20 12 -4 30.61 2.78
-12 20 4 29.71 2.51
-8 20 -4 26.99 2.61
-20 8 4 30.26 2.63
-20 12 -4 29.84 2.82
-20 12 4 17.94 1.9
-20 8 -4 17.11 1.93
-8 20 4 19.21 2.17
-8 20 4 19.83 1.87
-20 8 -4 16.47 1.68
-12 20 -4 23.34 2.14
-12 20 -4 22.68 1.85
-20 7 4 7.12 0.98
-13 20 4 6.34 0.88
-13 20 4 5.09 1.06
-7 20 -4 3.46 0.94
-20 7 4 4.95 0.95
-13 20 4 4.88 1.16
-20 13 -4 4.99 1.02
-7 20 4 3.71 0.74
-7 20 4 3.82 0.99
-13 -7 4 4 0.7
-20 13 4 5.54 1.07
-13 20 -4 5.63 1.01
-20 7 -4 5.07 0.8
-20 13 4 4.12 0.78
-20 13 4 4.26 0.86
-13 20 -4 3.71 0.81
-20 7 -4 7.15 1.15
-14 20 4 9.51 1.72
-20 6 4 7.16 1.14
-14 20 4 10.21 1.39
-14 20 4 8.48 1.27
-20 6 4 7.27 1.32
-6 20 -4 9.6 1.52
-20 14 -4 9.14 1.65
-20 14 4 17.27 2.19
-14 20 -4 18.5 2.05
-6 20 4 16.13 1.7
-20 6 -4 17.38 1.79
-20 14 4 15.31 1.75
-20 6 -4 18.96 2.03
-14 20 -4 16.69 1.82
-20 14 4 17.5 2
-14 -6 4 19.12 1.85
-15 20 4 5.52 0.87
-15 20 4 6.35 1.07
-20 5 4 8.75 1.51
-20 15 -4 7.21 0.98
-20 5 4 6.17 0.87
-20 15 -4 8.76 1.72
-5 20 -4 7.67 1.2
-20 15 -4 6.46 1.08
-20 5 -4 4.45 0.98
-20 15 4 3.35 0.95
-20 5 -4 2.31 0.77
-20 15 4 3.18 0.92
-15 -5 4 4.32 0.81
-5 20 4 2.37 0.62
-15 20 -4 2.88 0.76
-15 20 -4 4.19 0.93
-20 15 4 2.5 0.72
-20 16 -4 3.67 0.73
-20 16 -4 4.41 1.01
-16 20 4 4.87 0.79
-20 4 4 5.34 0.86
-20 16 -4 5.18 0.97
-16 20 4 3.53 0.92
-20 4 4 4.5 0.8
-20 16 4 5.53 1
-20 16 4 5.43 0.95
-16 20 -4 5.44 0.87
-20 4 -4 5.07 0.95
-20 16 4 4.34 0.78
-20 4 -4 3.82 0.82
-16 20 -4 4.84 0.86
-20 3 4 4.29 0.82
-17 20 4 6.15 0.98
-20 3 4 7.33 1.28
-17 -3 -4 7.89 1.31
-20 17 -4 6.14 1.08
-20 17 -4 6.04 0.84
-17 20 4 6.79 1.15
-20 17 -4 5.79 1
-20 17 4 3.49 0.86
-17 -3 4 3.58 0.76
-20 17 4 2.37 0.77
-20 3 -4 2.53 0.73
-17 20 -4 1.56 0.71
-20 17 4 1.69 0.56
-20 3 -4 2.6 0.71
-20 18 -4 16.23 1.48
-20 2 4 15.08 1.44
-18 20 4 11.92 1.3
-20 18 -4 15.09 1.86
-18 20 4 15.29 1.72
-18 -2 -4 15.18 1.53
-20 18 -4 13.71 1.69
-20 2 4 12.11 1.52
-18 -2 4 12.69 1.45
-18 20 -4 11.51 1.4
-20 2 -4 11.89 1.46
-20 18 4 11.47 1.59
-19 20 4 3.16 0.74
-20 1 4 3.33 0.62
-20 1 4 1.93 0.37
-20 19 -4 1.94 0.63
-20 19 -4 2.2 0.68
-19 20 -4 5.9 0.79
-20 1 -4 5.45 0.79
-19 -1 4 4.98 0.77
-20 19 4 5.67 0.89
-20 0 4 3.62 0.64
-20 20 -4 2.65 0.63
-20 20 4 2.13 0.71
-20 0 -4 3.66 0.64
-11 21 4 12.77 1.6
-21 10 4 13.47 1.97
-11 21 4 13.06 1.91
-11 21 4 13.69 1.98
-21 11 -4 15.65 1.95
-21 11 -4 14.78 1.97
-21 10 4 15.11 1.74
-10 21 -4 14.95 1.91
-10 21 4 14.85 1.98
-11 21 -4 13.2 1.46
-21 11 4 14.71 2.06
-21 10 -4 14.41 1.78
-21 10 -4 15.92 1.92
-10 21 4 13.19 1.54
-11 21 -4 15.13 1.83
-21 11 4 13.35 1.67
-10 21 4 13.81 1.71
-12 21 4 12.39 1.6
-12 21 4 12.93 1.98
-21 12 -4 15.2 1.94
-12 21 4 14.01 1.91
-21 9 4 14.79 1.77
-21 9 4 13.62 1.89
-21 12 -4 13.21 1.96
-9 21 -4 14.53 1.81
-12 21 -4 17.05 1.66
-9 21 4 11.87 1.56
-21 12 4 12.71 1.59
-21 12 4 17.39 2.07
-21 9 -4 19.47 2.01
-9 21 4 15.82 1.58
-9 21 4 16.21 1.98
-21 9 -4 13.96 1.83
-12 21 -4 16.98 1.88
-21 8 4 25.63 2.33
-13 21 4 23.84 2.19
-21 13 -4 27.19 2.52
-13 21 4 24.78 2.43
-8 21 -4 24.71 2.39
-13 21 4 23.66 2.49
-21 13 -4 26.01 2.48
-21 8 4 21.7 2.37
-8 21 4 27.68 2.33
-21 8 -4 26.6 2.3
-21 13 4 26.6 2.36
-21 13 4 24.51 2.29
-13 21 -4 30.3 2.4
-13 21 -4 30.15 2.57
-14 21 4 11.35 1.69
-7 21 -4 16.34 1.83
-21 14 -4 17.67 2.03
-21 7 4 10.55 1.64
-14 21 4 13.47 1.54
-21 14 -4 12.32 1.8
-21 7 4 15.66 1.76
-14 21 -4 15.64 1.8
-14 21 -4 15.1 1.59
-21 14 4 15.3 1.92
-21 14 4 13.31 1.56
-14 -7 4 14.36 1.52
-21 7 -4 13.75 1.57
-7 21 4 13.96 1.55
-21 7 -4 14.52 1.89
-21 14 4 14.67 1.73
-21 15 -4 3.47 0.89
-21 6 4 5.77 0.9
-6 21 -4 5.1 0.95
-15 21 4 5.15 0.8
-15 21 4 6.66 1.03
-21 15 -4 5.33 1.05
-15 -6 4 8.16 1.16
-21 15 4 3.88 0.78
-15 21 -4 6.11 0.85
-21 6 -4 5.28 1
-21 15 4 5.83 0.95
-21 15 4 5.32 0.99
-15 21 -4 4.72 0.98
-6 21 4 5.87 0.78
-21 6 -4 4.26 0.8
-16 21 4 16.48 1.59
-21 16 -4 13.16 1.35
-21 5 4 18.35 1.74
-16 21 4 15 1.83
-21 5 4 14.47 1.58
-21 16 -4 15.94 1.73
-21 16 -4 17.53 2.02
-16 21 -4 15.7 1.63
-21 5 -4 14.56 1.62
-21 16 4 15.71 1.85
-21 16 4 16.18 1.79
-21 16 4 13.74 1.58
-16 -5 4 17.42 1.59
-5 21 4 13.58 1.38
-16 21 -4 15.94 1.75
-21 5 -4 15.17 1.74
-21 17 -4 34.44 2.89
-17 21 4 32.53 2.94
-21 17 -4 40.24 3.07
-21 17 -4 35.64 2.76
-21 4 4 37.42 2.87
-17 -4 -4 36.07 2.84
-17 21 4 35.61 2.78
-21 4 4 32.34 2.83
-21 17 4 32.45 2.64
-21 17 4 31.11 2.74
-21 4 -4 28.15 2.55
-21 17 4 29.53 2.49
-17 21 -4 35.27 2.61
-17 -4 4 34.15 2.59
-21 4 -4 29.85 2.57
-21 18 -4 2.19 0.75
-21 18 -4 2.29 0.6
-21 3 4 1.91 0.59
-18 21 4 1.85 0.53
-18 -3 -4 3 0.61
-18 21 4 1.77 0.77
-21 18 -4 2.6 0.83
-21 3 4 2.41 0.59
-21 3 -4 2.84 0.6
-21 3 -4 1.66 0.4
-21 18 4 2.15 0.55
-21 18 4 1.11 0.3
-21 18 4 3.7 0.76
-21 2 4 21.27 1.9
-21 19 -4 24.83 1.93
-21 19 -4 22.23 1.98
-21 19 -4 21.21 2
-19 21 4 25.32 2.08
-19 -2 -4 23.29 1.93
-19 21 -4 23.41 1.92
-19 -2 4 22.48 1.94
-21 2 -4 21.58 1.96
-21 19 4 22.23 2
-20 -1 -4 5.36 0.89
-21 1 4 2.8 0.54
-21 20 -4 3.38 0.59
-20 21 4 3.96 0.73
-20 -1 4 3.56 0.6
-20 21 -4 4.35 0.64
-21 1 -4 4.35 0.63
-21 20 4 4.46 0.72
-21 21 4 27.42 2.19
-21 0 -4 25.37 2.09
-21 21 -4 26.54 2.08
-21 0 4 27.06 2.09
-11 22 4 6.32 0.85
-22 11 4 8.44 1.64
-11 22 4 6.17 0.97
-22 11 4 6.94 1.29
-11 22 -4 8.54 1.11
-22 11 -4 8.11 1.12
-22 11 -4 7.18 1.54
-22 12 -4 0.6 0.79
-10 22 -4 1.07 0.76
-12 22 4 0.33 0.82
-12 22 4 0.24 0.61
-22 10 4 0.7 0.67
-22 10 4 0.41 0.75
-22 12 -4 0.29 0.84
-22 10 -4 3.02 0.9
-10 22 4 1.36 0.55
-12 22 -4 2.71 0.89
-22 12 4 3.18 0.87
-22 12 4 1.89 0.62
-22 10 -4 2.49 0.77
-10 22 4 2.13 0.62
-12 22 -4 1.22 0.62
-13 22 4 16.22 1.61
-22 9 4 17.65 1.81
-22 13 -4 17.26 1.97
-9 22 -4 15.52 1.83
-22 9 4 15.6 1.86
-22 13 -4 18.63 1.99
-13 22 4 16.15 1.91
-13 22 -4 23.91 2.22
-13 22 -4 24.41 2.06
-9 22 4 22.86 1.97
-22 9 -4 19.63 2.05
-22 13 4 20.72 1.99
-22 9 -4 25.11 2.29
-22 13 4 25.15 2.41
-22 8 4 20.48 1.92
-14 22 4 17.67 1.73
-8 22 -4 19.8 2.02
-22 8 4 15.92 1.89
-22 14 -4 21.52 2.14
-14 22 4 19.54 2.02
-22 14 -4 19.4 2.02
-14 22 -4 23.27 1.94
-22 14 4 21.27 1.92
-22 14 4 19.58 1.87
-8 22 4 22.18 1.89
-22 8 -4 23.04 2.16
-14 22 -4 22.82 2.18
-22 8 -4 20.2 1.89
-22 7 4 3.7 0.75
-22 15 -4 2.7 0.76
-15 22 4 2.86 0.64
-22 7 4 1.78 0.54
-22 15 -4 4.45 0.94
-7 22 -4 2.44 0.86
-15 22 4 3.5 0.84
-15 -7 4 6.95 1.06
-15 22 -4 8.09 1.4
-22 7 -4 5.63 0.82
-22 15 4 7.91 1.26
-15 22 -4 6.33 1.11
-7 22 4 6.03 1.05
-22 7 -4 5.41 0.95
-22 15 4 6.67 1.16
-22 15 4 9.19 1.49
-16 22 4 19.02 1.69
-6 22 -4 17.66 1.7
-22 6 4 14.92 1.56
-16 -6 -4 19.16 1.67
-22 16 -4 20.52 2.03
-22 16 -4 17.97 1.83
-16 22 4 19.09 1.85
-22 6 4 21.47 1.79
-22 16 4 19.46 1.8
-16 22 -4 19.47 1.8
-22 6 -4 19.3 1.82
-16 22 -4 21.9 2.01
-22 16 4 21.16 1.94
-22 16 4 22.5 2.06
-16 -6 4 20.67 1.81
-6 22 4 19.02 1.68
-22 6 -4 19.58 1.9
-22 5 4 13.8 1.34
-17 22 4 10.62 1.4
-17 -5 -4 11.58 1.29
-22 17 -4 14.4 1.71
-22 5 4 9.47 1.19
-17 22 4 11.98 1.23
-22 17 -4 10.1 1.4
-22 5 -4 11.02 1.28
-22 5 -4 11.06 1.36
-22 17 4 15.33 1.66
-17 -5 4 14.45 1.33
-22 17 4 11.71 1.2
-17 22 -4 13.59 1.36
-17 22 -4 12.07 1.33
-22 17 4 14.93 1.53
-22 4 4 3.55 0.58
-22 4 4 2.93 0.55
-22 18 -4 2.9 0.78
-18 22 4 3.07 0.53
-18 -4 -4 4.89 0.87
-18 22 4 3.8 0.72
-22 18 -4 2.44 0.69
-22 18 4 2.17 0.58
-22 18 4 3.65 0.71
-18 -4 4 2.72 0.56
-18 22 -4 3.49 0.64
-22 4 -4 2.75 0.57
-22 19 -4 19.63 1.78
-22 3 4 18.72 1.66
-19 22 4 19.99 1.79
-19 -3 -4 22.33 1.69
-22 19 -4 20.4 1.73
-19 22 -4 23.69 1.75
-22 19 4 20.64 1.81
-19 -3 4 20.72 1.72
-22 3 -4 17 1.68
-22 2 4 2.08 0.44
-20 22 4 2.14 0.6
-22 20 -4 1.25 0.3
-22 2 -4 5.68 0.87
-20 -2 4 5.86 0.85
-20 22 -4 5.68 0.91
-22 20 4 5.72 1.01
-11 23 -4 5.67 0.95
-12 23 4 5.93 0.73
-23 12 -4 7 1.32
-12 23 4 3.34 0.65
-23 11 4 4.33 0.82
-23 11 4 4.71 0.76
-23 12 -4 6.88 0.95
-23 12 4 4.41 0.83
-11 23 4 4.43 0.65
-23 12 4 2.94 0.64
-23 11 -4 5.08 0.88
-12 23 -4 5.14 0.92
-23 11 -4 3.54 0.76
-13 23 4 6.84 1.01
-23 10 4 6.81 1.15
-23 13 -4 4.72 0.88
-10 23 -4 5.45 0.95
-23 13 -4 6.09 0.94
-23 10 4 6.71 1.24
-13 23 4 6.34 1.15
-10 23 4 6.99 1.05
-13 23 -4 9.3 1.44
-23 13 4 7.88 1.11
-13 23 -4 7.13 1.01
-23 13 4 10.23 1.46
-23 10 -4 8.21 1.35
-23 10 -4 5.99 1.18
-14 23 4 3.64 0.61
-14 23 4 2.98 0.75
-9 23 -4 3.67 0.85
-23 14 -4 3.1 0.79
-23 9 4 3.14 0.68
-23 9 4 2.68 0.65
-23 14 -4 3.28 0.8
-14 23 -4 7.87 1.31
-23 9 -4 5.32 0.86
-9 23 4 6.79 0.98
-23 9 -4 3.26 0.65
-23 14 4 5.21 0.96
-14 23 -4 4.59 0.71
-8 23 -4 10.12 1.31
-15 23 4 8.01 1.08
-23 15 -4 7.61 1.31
-23 8 4 5.99 0.95
-23 8 4 10.3 1.22
-23 15 -4 11.42 1.58
-15 23 4 9.14 1.27
-23 15 4 11.47 1.26
-23 15 4 12.17 1.52
-23 8 -4 11.9 1.38
-23 8 -4 9.48 1.14
-15 23 -4 12.66 1.28
-8 23 4 11.93 1.19
-15 23 -4 13.55 1.51
-23 7 4 4.01 0.63
-16 -7 -4 2.44 0.46
-7 23 -4 2.02 0.54
-23 16 -4 2.92 0.64
-16 23 4 3.15 0.72
-23 16 -4 4.36 0.84
-16 23 4 3.54 0.58
-23 7 -4 2.59 0.53
-23 7 -4 2.06 0.61
-16 -7 4 2.54 0.42
-16 23 -4 3.21 0.61
-23 16 4 4.46 0.77
-7 23 4 3.11 0.56
-23 16 4 2.71 0.51
-23 16 4 2.57 0.56
-16 23 -4 2.95 0.76
-17 -6 -4 0.67 0.39
-17 23 4 0.81 0.44
-23 17 -4 1 0.67
-17 23 4 0.63 0.6
-23 17 -4 0.4 0.58
-23 6 4 1.01 0.49
-23 17 4 0.2 0.5
-23 17 4 0.31 0.25
-17 23 -4 -0.12 0.48
-23 17 4 0.36 0.62
-17 23 -4 0.03 0.42
-17 -6 4 0.35 0.39
-23 6 -4 -0.17 0.45
-23 6 -4 -0.01 0.32
-18 23 4 7.5 1.04
-23 18 -4 7.17 1.03
-23 5 4 8.12 0.89
-18 -5 -4 6.68 0.82
-23 18 -4 7.53 1.24
-18 23 4 6.85 0.76
-23 18 4 3.61 0.79
-18 -5 4 4.61 0.71
-23 5 -4 2.84 0.53
-23 18 4 5.41 0.88
-12 24 -4 1.37 0.78
-24 12 4 0.65 0.47
-24 12 -4 0.53 0.61
-24 12 -4 0.59 0.53
-24 12 4 1.05 0.59
-12 24 4 0.55 0.45
-24 13 -4 4.2 0.72
-24 11 4 5.42 1.02
-24 11 4 6.55 1.01
-24 13 -4 4.16 0.74
-13 24 4 4.94 0.66
-11 24 -4 4.67 0.78
-13 24 -4 8.21 1.33
-11 24 4 6.84 0.94
-24 13 4 6.58 0.98
-24 13 4 8.46 1.24
-24 11 -4 7.52 1.16
-24 10 4 4.28 0.85
-24 10 4 4.71 0.67
-10 24 -4 4.54 0.83
-24 14 -4 3.63 0.73
-24 14 -4 4.72 0.76
-14 24 4 4.76 0.63
-24 14 4 6.6 0.99
-24 14 4 8.08 1.31
-10 24 4 7.89 0.94
-14 24 -4 9.14 1.3
-24 10 -4 7.46 1.13
-24 9 4 8.59 1.06
-15 24 4 6.82 0.95
-24 15 -4 9.02 1.3
-9 24 -4 8.12 1.1
-24 15 -4 7.32 1.11
-15 24 -4 9.21 0.96
-15 24 -4 12.01 1.33
-24 15 4 10.71 1.04
-9 24 4 9.33 0.94
-24 9 -4 8.92 1.1
-24 8 4 3.21 0.55
-24 16 -4 3.16 0.63
-16 24 4 2.19 0.45
-16 24 4 3.58 0.51
-24 8 -4 3.17 0.57
-16 24 -4 5.26 0.73
-24 16 4 3.71 0.52
0 0 -5 0.15 0.21
0 0 5 0.28 0.29
0 0 5 0.05 0.28
0 0 -5 0.1 0.22
0 1 -5 4.93 0.56
0 -1 -5 5.23 0.58
1 0 5 4.82 0.64
0 1 5 6.24 0.72
-1 1 5 6.43 0.73
-1 1 5 5.71 0.56
0 1 5 5.01 0.63
-1 0 5 5.98 0.75
1 0 5 6.51 0.76
-1 0 -5 5.35 0.57
1 0 -5 4.87 0.55
0 -1 5 5.35 0.64
-1 1 -5 4.99 0.55
1 -1 -5 5.18 0.58
-1 0 5 5.54 0.64
0 -1 5 5.55 0.74
-1 0 -5 4.88 0.56
0 -1 -5 6.21 0.57
1 0 -5 5.22 0.53
-1 1 5 5.91 0.65
1 -1 5 4.41 0.59
1 -1 -5 5.3 0.54
1 1 5 69.78 4.67
-1 2 5 67.25 4.66
-2 1 5 57.98 4.61
1 -2 5 64.53 4.61
-1 -1 -5 61.73 4.57
1 1 5 65.66 4.62
-1 2 5 60.76 4.61
-2 1 5 64.16 4.58
1 -2 5 62.86 4.65
2 -1 5 62.37 4.62
-2 1 -5 53 4.59
-1 -1 -5 65.21 4.62
-2 1 5 61.58 4.65
1 -2 -5 60.47 4.61
2 -1 -5 58.06 4.6
-1 2 -5 61.43 4.57
-2 1 -5 65.86 4.58
-1 -1 5 66.4 4.66
1 -2 -5 58.67 4.57
-1 2 5 58.47 4.56
2 -1 5 68.03 4.67
1 1 -5 67 4.57
-1 -1 5 66.67 4.61
0 2 5 1.39 0.36
0 2 -5 1.21 0.27
0 -2 5 1.08 0.34
-2 0 5 1.04 0.34
2 0 5 1.1 0.33
2 0 5 1.33 0.38
-2 0 5 1.72 0.33
2 -2 -5 1.62 0.35
2 -2 -5 1.09 0.31
0 2 5 0.93 0.25
-2 2 -5 0.81 0.28
-2 0 -5 1.71 0.34
0 2 5 1.08 0.35
2 0 -5 0.9 0.25
0 -2 -5 1.03 0.31
0 -2 -5 1.63 0.3
0 -2 5 1.58 0.38
-2 2 -5 0.67 0.18
-2 2 5 1.15 0.33
0 -2 5 1.57 0.36
-2 2 5 1.17 0.28
-2 0 5 0.65 0.25
-2 3 5 38.81 2.96
-3 1 5 43.19 3.06
-1 -2 5 40.4 3.01
1 2 5 40.01 3.06
-1 -2 5 39.9 3.05
3 -2 -5 41.23 3.01
1 -3 -5 41.27 2.97
2 -3 5 40.77 3.06
-2 -1 -5 40.33 2.97
-3 2 -5 40.52 2.98
-2 3 5 41.9 3.07
1 -3 -5 41.71 2.98
1 -3 -5 36.15 3.01
3 -1 5 41.92 3.07
3 -1 5 40.38 3.03
1 2 5 39.79 3.01
3 -2 -5 40.4 3.02
-2 -1 -5 39.76 3.04
1 2 5 37.37 2.95
-3 1 5 43.25 2.98
-1 -2 5 40.97 3.07
-1 3 -5 38.89 2.96
2 -3 5 40.01 3
2 1 5 37.91 2.89
-3 2 5 37.71 2.93
3 -2 5 35.92 2.92
-1 -2 -5 39.94 2.92
3 -2 5 37.96 2.89
-1 3 5 42.39 2.95
-2 3 -5 39.5 2.84
-1 3 5 38.73 2.89
1 -3 5 41.06 2.89
3 -1 -5 38.17 2.87
1 2 -5 37.3 2.83
2 -3 -5 36.35 2.85
-1 3 5 38.63 2.83
-3 1 -5 39.03 2.85
1 -3 5 37.71 2.93
2 -3 -5 35.96 2.88
-1 -2 -5 38.87 2.84
3 -1 -5 42.81 2.89
2 1 5 35.94 2.93
-2 -1 5 38.59 2.91
-3 1 -5 38.2 2.89
2 -3 -5 38.56 2.84
-2 3 -5 36.05 2.89
-2 -1 5 40.43 2.94
-3 2 5 40.7 2.85
0 3 5 11.03 0.91
0 -3 -5 11.96 1.04
3 0 5 12.32 1.04
-3 0 5 11.51 1.1
0 3 5 9.82 0.95
-3 0 5 9.69 1
-3 3 5 10.07 0.93
0 3 5 12.18 1.09
3 -3 -5 11.3 1.02
0 -3 5 11.82 1
0 -3 5 12.47 1.12
3 -3 5 11.83 1.07
3 -3 -5 11.11 0.98
-3 3 5 11.82 1.09
-3 3 -5 11.96 0.96
0 -3 -5 11.96 0.94
-3 0 -5 12.41 0.97
-3 0 -5 11.84 1.04
0 3 -5 10.34 0.93
3 0 5 12.79 1.1
3 -3 5 11.91 1.02
-3 0 5 11.38 0.97
-3 3 -5 10.49 1.02
-2 -2 5 76.03 5.42
4 -2 -5 77.3 5.36
-4 2 -5 72.63 5.33
2 -4 5 70.01 5.4
4 -2 5 70.12 5.37
-2 4 -5 70.19 5.32
-2 4 5 72.32 5.41
-2 -2 -5 72.92 5.32
-2 4 5 67.26 5.3
4 -2 5 77.29 5.42
-4 2 5 73.84 5.39
2 -4 5 75.09 5.36
2 -4 -5 67.28 5.33
-2 -2 5 75.44 5.41
2 -4 -5 74.6 5.32
-2 -2 -5 81.09 5.42
2 2 5 76.61 5.41
-4 2 5 74.94 5.33
2 -4 -5 72.39 5.39
2 2 5 69.47 5.3
3 -4 5 5.02 0.68
3 -4 5 4.46 0.61
-4 1 5 3.12 0.56
-3 4 5 4.41 0.7
4 -3 -5 3.8 0.55
1 -4 -5 4.01 0.5
1 -4 -5 4.45 0.63
4 -1 5 4.62 0.72
-1 -3 5 4.17 0.75
-1 4 -5 3.14 0.49
1 -4 -5 3.88 0.51
-3 -1 -5 3.99 0.52
4 -3 -5 4.21 0.57
-4 1 5 4.55 0.54
-1 -3 5 3.97 0.72
-4 3 -5 3.67 0.53
1 3 5 3.67 0.66
-4 1 5 4.05 0.64
4 -1 5 3.99 0.65
-4 3 -5 3.3 0.58
-3 -1 -5 3.24 0.63
-1 -3 5 4.88 0.59
1 -4 -5 3.16 0.42
-3 4 5 3.74 0.48
-1 -3 -5 5.12 0.67
4 -3 5 5.26 0.68
4 -3 5 5.88 0.73
3 1 5 5.99 0.75
-1 -3 -5 4.07 0.49
-3 4 -5 5.75 0.57
1 -4 5 5.22 0.64
-3 -1 5 4.97 0.72
-3 -1 5 5.62 0.79
-4 3 5 5.5 0.56
-3 4 -5 4.21 0.72
-3 -1 5 4.98 0.58
3 -4 -5 5.54 0.59
3 -4 -5 5.02 0.65
4 -1 -5 4.82 0.61
-4 3 5 5.06 0.71
3 1 5 4.42 0.58
4 -1 -5 4.12 0.58
-1 4 5 4.63 0.47
-1 4 5 5.36 0.74
-4 1 -5 5.67 0.62
-1 -3 -5 4.41 0.53
1 -4 5 5.21 0.75
4 -4 5 130.3 10.31
0 4 5 139.14 10.32
4 0 5 155.66 10.33
4 -4 -5 140.22 10.3
0 -4 5 145.69 10.27
0 -4 5 142.94 10.33
0 -4 -5 142.5 10.24
4 -4 -5 134.98 10.26
-4 4 5 147.2 10.24
-4 4 -5 153.64 10.25
0 -4 -5 131.28 10.23
0 4 -5 136.65 10.23
4 -4 5 146.66 10.29
0 -4 -5 150.61 10.32
-4 0 5 148.45 10.26
-4 4 5 143.45 10.31
-4 0 5 147.22 10.3
-4 0 5 142.31 10.32
-4 4 -5 125.6 10.3
0 -4 -5 134.59 10.23
-4 0 -5 138.47 10.25
4 0 -5 139.16 10.29
4 0 -5 151.97 10.3
4 0 5 142.25 10.29
-5 2 5 258.97 17.26
-2 5 -5 243.28 17.24
-3 -2 -5 238.29 17.33
-5 2 5 237.1 17.3
-2 -3 5 232.03 17.35
-2 -3 5 252.26 17.33
-3 -2 -5 215.56 17.24
2 -5 -5 243.59 17.25
5 -2 5 261.85 17.34
2 -5 -5 212.64 17.24
5 -3 -5 262.04 17.29
-5 3 -5 206.59 17.28
-3 5 5 252.92 17.24
2 3 5 244.33 17.32
5 -2 5 260.84 17.32
2 -5 -5 212.78 17.3
-5 3 -5 260.1 17.26
-3 5 5 254.37 17.34
-3 -2 -5 204.93 17.24
3 -5 5 241.14 17.33
3 -5 5 244.41 17.28
-5 3 5 269.61 17.91
2 -5 5 240.81 17.98
-3 -2 5 257.46 17.91
-5 3 5 216.59 17.94
-3 5 -5 239.91 17.97
-3 -2 5 266.03 18.01
2 -5 5 247.95 17.92
-2 5 5 259.11 17.98
-5 2 -5 251.34 17.91
-3 5 -5 230.84 17.89
-3 -2 5 260.05 17.97
3 2 5 249.65 17.97
5 -3 5 233.87 17.94
5 -3 5 248.57 17.97
-2 -3 -5 241.96 17.97
3 -5 -5 246.55 17.9
3 -5 -5 273.11 17.97
-4 5 5 95.27 7.09
-5 1 5 100.16 7.02
1 -5 -5 107.2 7.11
1 -5 -5 98.74 7
1 -5 -5 95.95 7
-5 4 -5 94.84 7.02
-5 4 -5 87.07 7.07
5 -4 -5 91.6 7.06
4 1 -5 90.75 7.06
5 -1 5 104.97 7.1
4 -5 5 93.5 7.09
-5 1 5 94.72 7.06
4 -5 5 106.4 7.06
-1 -4 5 98.63 7.1
-1 -4 5 98.63 7.13
5 -4 -5 101.62 7.04
-5 1 5 94.49 7.09
5 -1 5 96.93 7.07
-4 -1 -5 90.59 7.01
1 4 5 93.88 7.09
-4 5 5 99.43 7.01
-1 5 -5 94.99 7
-5 1 -5 95.81 6.96
-5 4 5 91.65 7.01
5 -1 -5 108.82 7.03
1 -5 5 98.91 7.05
-1 5 5 103.41 7.05
5 -4 5 86.47 6.99
5 -4 5 91.58 7.02
-1 -4 -5 92.77 6.93
-4 -1 5 100.19 6.96
4 1 5 101.64 7.03
5 -1 -5 95.25 6.99
-4 -1 5 89.15 7.05
4 -5 -5 99.13 7.02
-4 5 -5 90.02 6.94
-4 -1 5 94.69 7.02
-1 -4 -5 91.1 6.93
4 -5 -5 100.63 6.96
-4 5 -5 95.47 7.03
-5 4 5 92.85 6.95
1 -5 5 99.37 6.97
5 0 -5 48.13 3.21
5 -5 5 37.39 3.21
-5 0 -5 40.5 3.13
-5 5 -5 43.12 3.13
5 0 5 37.04 3.16
0 -5 -5 38.69 3.09
-5 0 5 43.19 3.25
0 -5 5 43.72 3.25
-5 5 5 41.79 3.21
-5 0 5 37 3.17
5 -5 -5 45.25 3.16
0 5 5 38.06 3.21
5 0 5 39.55 3.19
-5 5 5 44.28 3.13
5 -5 -5 43.65 3.21
-5 5 -5 39.3 3.22
5 0 -5 44.04 3.19
0 -5 5 42.57 3.16
0 -5 -5 46.82 3.11
-5 0 5 45.65 3.15
0 -5 -5 46.38 3.23
5 -5 5 44.63 3.2
3 3 5 0.41 0.33
-6 3 5 0.11 0.3
-3 6 5 0.61 0.35
-6 3 5 0.67 0.43
-6 3 -5 0.71 0.38
-3 6 5 0.29 0.14
-3 -3 5 0.28 0.58
-6 3 5 0.3 0.33
6 -3 5 0.49 0.35
-3 -3 -5 0.68 0.44
-3 -3 -5 0.28 0.25
-3 6 -5 1.14 0.56
6 -3 5 0.93 0.46
6 -3 -5 0.74 0.36
-3 6 -5 0.73 0.31
3 -6 -5 0.34 0.43
3 -6 5 0.07 0.2
-3 -3 -5 0.31 0.19
3 -6 -5 0.24 0.25
-3 -3 5 0.33 0.24
3 -6 5 0.46 0.38
-6 3 -5 0.44 0.44
-4 -2 -5 31.05 2.52
6 -4 -5 29.27 2.48
-2 -4 5 33.21 2.58
-4 -2 -5 30.94 2.39
2 -6 -5 33.35 2.51
-6 2 5 27.75 2.45
-6 4 -5 28.4 2.5
6 -2 5 33.5 2.51
2 -6 -5 34 2.4
-6 2 5 29.81 2.54
6 -4 -5 36.16 2.47
6 -2 5 33.42 2.5
-4 6 5 31.31 2.39
2 4 5 31.35 2.52
-2 -4 5 31.43 2.55
-2 6 -5 32.01 2.4
-6 4 -5 35.05 2.45
-4 6 5 32.09 2.54
4 2 -5 33.77 2.49
4 -6 5 31.47 2.45
-2 -4 5 32.22 2.44
4 -6 5 34.4 2.56
2 -6 -5 31.91 2.4
-6 2 5 34.52 2.43
2 -6 5 29.32 2.33
-2 -4 -5 29.04 2.14
6 -4 5 27.63 2.27
-4 -2 5 28.88 2.27
-4 -2 5 30.04 2.36
-6 2 -5 29.82 2.2
4 -6 -5 30.75 2.27
4 -6 -5 29.2 2.19
-4 6 -5 26.08 2.16
-2 6 5 32.43 2.32
6 -2 -5 29.47 2.24
4 2 5 26.5 2.23
-6 4 5 27.81 2.18
-4 -2 5 31.7 2.2
-2 -4 -5 30.33 2.32
6 -4 5 27.53 2.23
4 -6 -5 25.5 2.15
-4 6 -5 29.01 2.31
-6 4 5 25.16 2.24
2 -6 5 28.39 2.21
-5 6 5 140.82 10.5
5 1 -5 137.52 10.47
-6 5 -5 131.97 10.5
6 -1 5 120.48 10.46
5 -6 5 142.79 10.5
6 -5 -5 157.04 10.46
-1 -5 5 148.82 10.52
-6 1 5 153.42 10.43
-1 -5 5 143.97 10.53
-6 1 5 143.55 10.52
5 -6 5 161.58 10.47
-5 6 5 152.1 10.41
-5 -1 -5 140.02 10.41
1 5 5 139.74 10.5
-6 5 -5 159.17 10.43
-1 -5 5 155.2 10.45
6 -1 5 138.03 10.47
-5 -1 -5 131.54 10.41
-1 -5 -5 167.54 11.12
-6 5 5 140.73 11.19
1 -6 5 163.72 11.16
5 -6 -5 158.68 11.16
6 -1 -5 131.92 11.19
1 -6 5 158.67 11.25
6 -5 5 152.57 11.21
5 1 5 129.79 11.17
6 -5 5 158.62 11.2
-5 6 -5 154.27 11.14
-5 6 -5 158.03 11.24
6 -1 -5 161.06 11.2
-5 -1 5 159.04 11.26
-6 1 -5 170.06 11.16
-5 -1 5 167.52 11.15
-6 5 5 132.77 11.13
5 -6 -5 175.98 11.23
-1 6 5 155.88 11.24
1 -6 5 137.37 11.15
-6 6 -5 4.5 0.68
6 0 -5 4.19 0.79
0 -6 5 6.2 0.95
0 -6 -5 5.52 0.58
6 0 -5 5.25 0.71
0 -6 5 5.18 0.69
-6 0 -5 4.65 0.59
-6 0 5 6.1 0.71
-6 6 5 5.55 0.67
6 -6 -5 6.23 0.82
-6 0 5 5.2 0.93
0 -6 -5 5.14 0.82
0 6 5 5.19 0.84
0 -6 5 4.42 0.87
-6 6 5 5.32 0.84
6 -6 5 5.28 0.73
6 -6 5 5.66 0.84
6 -6 -5 6.12 0.73
-6 6 -5 4.05 0.89
7 -4 -5 92.69 6.71
-7 3 5 91.83 6.66
-3 -4 5 86.92 6.74
-3 7 -5 91.98 6.64
4 -7 5 98.71 6.79
-7 3 5 91.69 6.77
-4 -3 -5 88.3 6.63
3 -7 -5 89.83 6.64
-7 4 -5 96.34 6.68
-4 7 5 89.72 6.77
-3 -4 5 99.66 6.69
4 -7 5 90.52 6.69
7 -4 -5 89.13 6.74
7 -3 5 87.3 6.72
3 4 5 81.59 6.71
3 -7 -5 93.51 6.64
3 -7 -5 97.72 6.76
-7 4 -5 84.53 6.75
-4 -3 -5 102.04 6.78
-3 -4 5 88.3 6.81
7 -4 5 110.09 7.57
-3 -4 -5 113.24 7.47
7 -3 -5 93.97 7.56
-4 -3 5 93.5 7.55
4 -7 -5 114.16 7.6
4 -7 -5 100.96 7.49
-3 -4 -5 116.77 7.61
-4 -3 5 102.09 7.5
7 -4 5 93.54 7.55
-4 -3 5 111.71 7.66
-4 7 -5 100.5 7.61
3 -7 5 113.13 7.64
4 -7 -5 108.06 7.5
-7 4 5 86.38 7.52
-7 3 -5 115.49 7.53
3 -7 5 104.62 7.52
-7 4 5 107.5 7.51
-3 7 5 104.7 7.62
7 -3 -5 93.77 7.53
-4 -3 5 106.46 7.53
-7 3 -5 90.4 7.56
-7 4 5 91 7.58
-4 7 -5 105.13 7.48
-5 7 5 5.14 0.89
-2 -5 5 4.43 0.88
-5 7 5 3.58 0.47
-2 7 -5 4.19 0.51
-2 -5 5 4.44 0.67
2 5 5 4.43 0.77
7 -5 -5 3.4 0.61
-7 2 5 4.45 0.66
-5 -2 -5 4.58 0.54
2 -7 -5 4.06 0.78
7 -2 5 4.9 0.75
7 -5 -5 4.24 0.71
-7 5 -5 3.53 0.77
-5 -2 -5 3.2 0.45
5 2 -5 2.9 0.58
-7 2 5 4.2 0.76
-7 5 -5 5.63 0.7
5 -7 5 4.88 0.72
-5 -2 5 1.6 0.36
-7 2 -5 3.51 0.52
2 -7 5 2.52 0.45
7 -2 -5 2.71 0.56
-2 7 5 2.51 0.52
-7 5 5 1.69 0.43
5 -7 -5 2.15 0.45
7 -2 -5 2.64 0.55
-7 5 5 2.53 0.44
-5 7 -5 2.73 0.74
5 -7 -5 3.27 0.63
-5 -2 5 1.9 0.7
-2 -5 -5 2.68 0.58
-7 2 -5 1.81 0.46
-5 -2 5 2.76 0.48
7 -5 5 2.64 0.53
7 -5 5 1.95 0.44
2 -7 5 2.91 0.5
5 -7 -5 1.61 0.36
-2 -5 -5 2.29 0.42
-5 7 -5 3.11 0.51
-7 5 5 1.73 0.49
-6 -1 -5 180.88 14.15
7 -6 -5 212.84 14.21
-7 1 5 198.47 14.17
-1 -6 5 197.17 14.27
7 -6 -5 204.17 14.25
-7 1 5 183.27 14.27
1 6 5 187.26 14.25
6 -7 5 178.91 14.25
-7 6 -5 177.73 14.26
-1 -6 5 214.02 14.19
1 -7 -5 210.81 14.14
-1 -6 5 189.26 14.28
-7 6 -5 215.66 14.18
-6 7 5 195.62 14.15
6 1 -5 188.35 14.22
1 -7 -5 210.74 14.27
6 -7 5 197.05 14.2
-6 7 5 194.73 14.26
7 -6 5 176.8 14.63
-6 -1 5 212.36 14.58
-1 7 5 179.35 14.66
7 -6 5 207.57 14.63
1 -7 5 212.92 14.59
7 -1 -5 214.6 14.64
-7 6 5 177.83 14.62
-6 7 -5 189.76 14.56
7 -1 -5 204.65 14.65
-7 1 -5 189.99 14.57
-7 6 5 199.78 14.57
6 -7 -5 217.64 14.65
-1 -6 -5 221.01 14.67
-6 7 -5 199.81 14.68
1 -7 5 211.76 14.69
-1 -6 -5 207.38 14.53
1 -7 5 216.14 14.59
6 -7 -5 198.6 14.58
-6 -1 5 202.94 14.7
-7 0 5 53.13 4.23
7 0 -5 51.66 4.13
-7 7 5 53.18 4.06
7 0 -5 49.04 4.13
0 -7 -5 59.11 4.02
-7 0 -5 55.99 4.08
-7 7 -5 51.09 4.06
7 -7 5 60.22 4.15
7 -7 5 54.41 4.18
-7 7 5 53.34 4.18
0 -7 5 56.88 4.25
-7 0 -5 52.18 4.06
7 -7 -5 57.63 4.11
0 -7 5 56.19 4.09
7 -7 -5 55.45 4.18
-7 0 5 60.95 4.09
-7 7 -5 52.14 4.24
0 -7 -5 59.18 4.21
4 -8 5 253.82 17.42
-4 -4 5 202.93 17.37
-4 8 -5 229.89 17.37
8 -4 5 262.38 17.48
-4 8 -5 249.2 17.53
4 -8 -5 230.69 17.38
-4 -4 5 262.76 17.56
8 -4 -5 228.12 17.44
-8 4 5 203.04 17.48
8 -4 5 240.02 17.46
-8 4 -5 212.09 17.47
4 -8 -5 206.45 17.36
4 -8 -5 253.32 17.49
-4 -4 -5 253.39 17.36
-8 4 5 272.18 17.41
-8 4 -5 267.44 17.42
8 -4 -5 247.63 17.48
4 -8 5 257.94 17.54
-4 -4 5 254.63 17.42
-4 -4 -5 244.42 17.49
-3 -5 5 25.64 2.36
-5 -3 -5 28.17 2.3
-8 3 5 23.46 2.31
-5 -3 -5 26.74 2.1
8 -5 -5 28.45 2.21
-3 -5 5 27.88 2.17
3 -8 -5 28.05 2.29
-8 5 -5 31.33 2.21
5 -8 5 29.97 2.39
-8 3 5 30.5 2.19
5 -8 5 28.57 2.19
-8 5 -5 26.09 2.32
-3 -5 5 24.79 2.26
8 -3 5 26.73 2.25
8 -5 -5 29.67 2.29
3 -8 -5 29.37 2.12
5 -8 -5 27.95 2.26
8 -3 -5 26.35 2.24
3 -8 5 30.19 2.38
-5 -3 5 27.86 2.38
-3 -5 -5 28.12 2.07
5 -8 -5 28.56 2.13
-5 8 -5 25.65 2.34
-5 -3 5 29.42 2.18
8 -3 -5 24.85 2.19
3 -8 5 29.78 2.18
-5 8 -5 26.24 2.1
-8 3 -5 30.27 2.19
3 -8 5 25.78 2.16
-5 -3 5 26.63 2.13
-3 -5 -5 29.85 2.32
-8 5 5 27.65 2.15
5 -8 -5 26.79 2.12
8 -5 5 25.73 2.2
8 -6 -5 238.77 17
-8 6 -5 267.08 16.99
-2 -6 5 224.1 17.05
2 -8 -5 247.3 17.07
-8 6 -5 228.39 17.07
2 -8 -5 257.66 16.94
6 -8 5 228.67 16.99
-2 -6 5 218.39 17.08
8 -6 -5 241.65 17.06
-2 -6 5 257.72 16.98
-8 2 5 222.44 17.08
6 -8 5 220.65 17.07
-6 -2 -5 206.73 16.93
2 6 5 217.4 17.04
-8 2 5 255.17 16.98
-6 8 -5 219.73 16.62
6 -8 -5 213.22 16.5
-2 -6 -5 232.1 16.45
2 -8 5 259.58 16.52
-6 -2 5 217.36 16.52
-8 2 -5 240.6 16.51
8 -2 -5 227.66 16.57
2 -8 5 247.46 16.53
-8 6 5 213.05 16.49
8 -6 5 214.55 16.55
-6 -2 5 254.7 16.68
8 -2 -5 214.25 16.58
2 -8 5 240.15 16.65
-6 -2 5 229.16 16.5
-8 6 5 193.61 16.54
-2 -6 -5 253.9 16.61
-6 8 -5 217.06 16.48
6 -8 -5 234.49 16.51
1 -8 -5 76.82 5.19
-1 -7 5 70.79 5.21
-8 1 5 70.9 5.21
-1 -7 5 58.79 5.17
-7 -1 -5 68.77 5.03
-8 1 5 74.93 5.07
1 -8 -5 72.16 4.99
-8 7 -5 70.49 5.06
-8 7 -5 62.92 5.19
8 -7 -5 59.29 5.14
8 -7 -5 76.69 5.1
-1 -7 5 71.04 5.06
-7 8 5 60.6 5.01
7 -8 5 64.87 5.17
7 -8 5 70.83 5.1
-1 -7 -5 75.95 5.51
8 -7 5 63.29 5.47
-8 1 -5 69.9 5.41
1 -8 5 79.2 5.6
1 -8 5 74.01 5.42
-7 -1 5 69.29 5.4
8 -1 -5 75.45 5.51
-7 8 -5 71.15 5.56
8 -7 5 81.83 5.5
7 -8 -5 77.94 5.42
-8 1 -5 68.29 5.41
-8 7 5 75.39 5.4
-1 -7 -5 74.43 5.34
-7 8 -5 71.55 5.39
-7 -1 5 75.99 5.58
8 -1 -5 75.62 5.49
8 -8 5 26.89 2.12
8 -8 5 21.28 2.11
0 -8 5 25.67 2.28
-8 8 -5 22.36 1.99
-8 0 5 26.77 2.24
8 -8 -5 29.18 2.16
8 0 -5 21.93 2.04
-8 0 -5 26.67 2.01
0 -8 5 26.22 2.01
-8 0 5 28.19 2.03
8 -8 -5 27.26 2.07
-8 8 -5 24.47 2.24
0 -8 5 22.35 2.18
0 -8 -5 25.86 1.91
-8 8 5 26.32 1.98
0 -8 -5 24.88 2.17
-9 5 -5 119.6 9.99
5 -9 5 118.17 9.9
-5 -4 -5 149.33 10.01
-9 4 5 151.56 9.91
-4 -5 5 138.18 9.9
9 -5 -5 121.44 9.93
-5 -4 -5 143.15 9.85
5 -9 5 139.66 9.91
5 -9 5 154.04 10.09
-9 5 -5 154.25 9.93
9 -4 5 141.18 9.98
-4 -5 5 125.84 10.04
9 -5 -5 123.45 9.96
9 -4 5 131.48 9.97
4 -9 -5 144.3 10.01
4 -9 -5 128.24 9.86
9 -4 -5 147.92 11.33
4 -9 5 153.58 11.29
-4 -5 -5 165.48 11.38
5 -9 -5 171.12 11.39
-9 4 -5 156.63 11.29
-4 -5 -5 154.38 11.21
-5 9 -5 166.61 11.44
9 -4 -5 132.36 11.34
-5 -4 5 166.68 11.29
-5 -4 5 149.06 11.43
-9 5 5 160.66 11.28
4 -9 5 162.84 11.29
5 -9 -5 141.78 11.25
9 -5 5 151.5 11.35
-3 -6 5 99.19 8.03
-6 -3 -5 103.45 7.84
3 -9 -5 119.65 7.85
9 -3 5 93.14 7.94
-9 3 5 93.07 8.01
6 -9 5 116.05 7.92
9 -3 5 111.37 7.99
-9 3 5 115.62 7.91
3 -9 -5 121 8.02
9 -6 -5 102.91 7.97
-3 -6 5 112.73 7.89
6 -9 5 108.63 8.05
-9 6 -5 102.07 8.02
-9 6 -5 117.75 7.92
-9 6 5 107.86 8.67
-3 -6 -5 121.12 8.79
-9 3 -5 123.62 8.7
-6 9 -5 108.59 8.64
-6 -3 5 119.24 8.7
3 -9 5 120.75 8.7
9 -6 5 116.39 8.75
6 -9 -5 124.71 8.79
-6 9 -5 117.56 8.84
3 -9 5 126.21 8.87
6 -9 -5 114.36 8.66
6 -9 -5 111.79 8.67
9 -3 -5 131.36 8.8
-3 -6 -5 118.68 8.62
3 -9 5 126.49 8.69
-6 -3 5 121.41 8.87
9 -3 -5 121.56 8.76
9 -7 -5 41.67 3
7 -9 5 38.73 2.98
2 -9 -5 40.52 2.87
-9 7 -5 37.82 3.14
-7 -2 -5 35.88 2.89
2 -9 -5 40.18 3.09
7 -9 5 37.44 3.1
-9 7 -5 44.35 2.98
-9 2 5 34.93 3.09
-9 2 5 38.78 2.96
-2 -7 5 38.31 2.93
-2 -7 5 34.96 3.06
9 -7 5 40.57 2.87
-7 -2 5 34.67 2.77
-7 -2 5 36.44 2.99
9 -2 -5 38.94 2.88
7 -9 -5 37.65 2.76
-9 7 5 32.11 2.74
2 -9 5 36.52 2.73
-9 2 -5 31.73 2.73
-2 -7 -5 34.79 2.65
-7 9 -5 35.21 3
-9 2 -5 35.11 2.78
-7 9 -5 35.17 2.71
7 -9 -5 35.05 2.75
2 -9 5 35.93 2.76
2 -9 5 40 3.03
7 -9 -5 40.86 2.93
-7 -2 5 32.13 2.72
-2 -7 -5 41.43 2.93
9 -2 -5 30.88 2.83
8 -9 5 40.98 3.55
-1 -8 5 44.31 3.41
-9 1 5 48.29 3.46
-1 -8 5 44.12 3.6
8 -9 5 47.88 3.51
-1 -8 5 44.85 3.63
-9 8 -5 41.48 3.62
-8 -1 -5 48.38 3.42
-9 1 5 42.78 3.62
9 -8 -5 50.73 3.59
1 -9 -5 47.3 3.34
1 -9 -5 46.1 3.56
-9 8 -5 43.34 3.43
9 -8 -5 47.2 3.49
-8 -1 5 45.04 3.3
-8 9 -5 44.48 3.28
-1 -8 -5 44.31 3.2
-8 -1 5 42.86 3.52
-9 1 -5 39.78 3.28
-1 -8 -5 43.31 3.4
-9 8 5 43.31 3.29
1 -9 5 45.18 3.3
8 -9 -5 41.34 3.3
9 -1 -5 41.83 3.39
-8 -1 5 40.91 3.3
-8 9 -5 45.9 3.54
-9 1 -5 46.95 3.33
8 -9 -5 45.59 3.34
1 -9 5 45.47 3.54
0 -9 -5 185.89 13.18
9 -9 -5 196.32 13.29
-9 0 5 186.12 13.44
0 -9 5 174.78 13.4
0 -9 5 184.45 13.42
-9 9 -5 161.46 13.24
-9 0 -5 191.46 13.27
0 -9 5 178.63 13.24
-9 0 5 196.8 13.28
-9 9 -5 187.66 13.45
0 -9 -5 173.35 13.34
-10 5 -5 30.21 2.77
10 -5 -5 32.06 2.73
-10 5 -5 39.53 2.71
5 -10 5 34.37 2.68
-10 5 5 37.36 2.67
-5 10 -5 38.28 2.94
-5 -5 5 28.66 2.84
5 -10 -5 35.16 2.8
-5 -5 -5 35.49 2.54
5 -10 -5 30.09 2.58
-5 -5 -5 37.85 2.82
-5 -5 5 33.71 2.63
5 -10 5 35.23 2.66
10 -5 5 31.39 2.73
-10 6 -5 15.07 1.65
4 -10 -5 18.39 1.38
-6 -4 -5 16.6 1.34
-4 -6 5 17.01 1.43
10 -4 5 13.34 1.49
-6 -4 -5 16.7 1.65
6 -10 5 16 1.48
-10 4 5 18.77 1.52
6 -10 5 18.52 1.83
4 -10 -5 14.83 1.64
10 -6 -5 15.69 1.56
-4 -6 5 15.31 1.74
6 -10 5 19.44 1.48
10 -6 -5 18.53 1.6
10 -4 5 15.12 1.57
-10 6 -5 18.41 1.55
-4 -6 -5 12.17 1.02
-6 10 -5 12.5 1.57
6 -10 -5 12.69 1.14
-6 -4 5 13.02 1.56
4 -10 5 12.13 1.17
4 -10 5 13.59 1.66
-10 4 -5 13.14 1.27
4 -10 5 11.94 1.24
10 -4 -5 13.13 1.34
-6 -4 5 12.68 1.21
6 -10 -5 12.87 1.42
-4 -6 -5 12.83 1.43
-10 6 5 12.86 1.21
10 -6 5 11.78 1.32
10 -4 -5 12.27 1.35
-7 -3 -5 48.16 3.72
10 -3 5 50.07 3.9
-10 7 -5 43.36 3.96
7 -10 5 46.45 3.96
3 -10 -5 53.05 3.71
-3 -7 5 47.17 3.75
-10 7 -5 57.15 3.83
7 -10 5 50.15 3.8
3 -10 -5 51.72 3.92
-3 -7 5 45.46 3.98
10 -7 -5 54.59 3.86
-10 3 5 56.91 3.83
10 -3 -5 50.17 3.82
10 -7 5 47.69 3.81
-7 -3 5 47.68 3.73
-3 -7 -5 51.63 3.87
-7 -3 5 49.12 3.97
10 -3 -5 52.66 3.86
7 -10 -5 46.65 3.71
-3 -7 -5 49.68 3.62
-7 10 -5 49.12 3.96
-10 7 5 44.44 3.71
3 -10 5 52.28 3.98
7 -10 -5 55.29 3.89
-10 3 -5 50.28 3.76
3 -10 5 47.94 3.73
-2 -8 5 96.61 7
10 -8 -5 102.06 7.16
2 -10 -5 101.76 6.95
8 -10 5 99.29 7.06
10 -8 -5 107.57 7.08
-10 2 5 95.39 7.03
-10 2 5 81.54 7.15
-2 -8 5 82.01 7.16
-10 8 -5 98.7 7.03
-8 -2 -5 95.97 6.99
-10 8 -5 95.29 7.2
2 -10 -5 93.72 7.12
-10 2 -5 73.85 6.16
8 -10 -5 82.94 6.16
8 -10 -5 92.79 6.33
-2 -8 -5 83.5 6.07
-10 2 -5 78.19 6.17
-8 -2 5 87.24 6.39
8 -10 -5 81.67 6.18
-8 -2 5 84.85 6.19
2 -10 5 79.2 6.15
2 -10 5 91.62 6.4
-2 -8 -5 81.83 6.27
-10 8 5 89.95 6.17
-8 10 -5 85.28 6.39
-10 1 5 52.53 3.6
-10 9 -5 44.62 3.55
1 -10 -5 45.21 3.67
-10 9 -5 46.55 3.79
10 -9 -5 47.77 3.62
1 -10 -5 48.8 3.46
-9 -1 -5 51.56 3.56
-10 1 5 42.03 3.74
-1 -9 5 45.34 3.53
9 -10 5 49.77 3.66
-1 -9 5 44.39 3.77
-9 -1 5 43.23 3.47
-9 -1 5 47.06 3.72
9 -10 -5 49.61 3.49
-1 -9 -5 45.63 3.58
-9 10 -5 47.87 3.73
1 -10 5 46.39 3.46
-9 -1 5 39.32 3.43
1 -10 5 43.81 3.68
-1 -9 -5 48.33 3.36
1 -10 5 47.18 3.7
9 -10 -5 46.34 3.65
0 -10 5 52.36 4
-10 10 -5 55.62 4.29
10 -10 -5 53.99 4.21
0 -10 -5 48.52 4.11
-10 0 5 45.28 4.21
10 -10 -5 56.89 4.07
10 -10 5 61.57 4.15
0 -10 -5 56.5 3.92
-10 0 -5 56.8 4.05
0 -10 5 59.32 4.3
-10 0 5 44.69 3.99
-6 -5 -5 60.03 5.21
-6 -5 -5 74.93 5.06
-5 -6 5 72.7 5.12
6 -11 5 74.86 5.17
-5 -6 5 63.81 5.33
5 -11 -5 66.21 5.24
11 -6 -5 64.29 5.19
-11 6 -5 76.81 5.19
5 -11 -5 71.55 5.08
11 -6 -5 67.04 5.24
11 -5 -5 80.16 6.12
-5 -6 -5 79.8 5.91
11 -5 -5 79.36 6.08
-11 5 -5 81.73 6.03
6 -11 -5 77.02 5.96
-5 -6 -5 83.81 6.13
5 -11 5 81.46 6.03
-6 -5 5 69.82 6.2
6 -11 -5 79.39 6.11
-6 -5 5 81.27 5.99
5 -11 5 92.19 6.29
-6 11 -5 80.55 6.24
-11 6 5 93.52 6.04
-4 -7 5 51.55 4.4
-4 -7 5 59.62 4.17
4 -11 -5 52.61 4.3
-7 -4 -5 59.13 4.35
7 -11 5 50.78 4.39
7 -11 5 48.9 4.2
11 -7 -5 59.66 4.36
7 -11 5 56.46 4.21
4 -11 -5 65.33 4.14
-11 7 -5 48.36 4.34
-7 -4 -5 62.65 4.14
11 -4 -5 65.07 5.42
11 -7 5 63.6 5.39
11 -4 -5 69.89 5.4
7 -11 -5 70.14 5.43
4 -11 5 71.49 5.32
-11 4 -5 73.76 5.34
-11 7 5 70.82 5.31
-7 11 -5 82.82 5.61
-7 -4 5 74.88 5.57
-4 -7 -5 72.3 5.21
-7 -4 5 79.1 5.33
-4 -7 -5 71.94 5.44
7 -11 -5 68.98 5.29
3 -11 -5 96.57 6.32
3 -11 -5 85.67 6.49
8 -11 5 77.72 6.54
-3 -8 5 87.09 6.36
11 -3 5 76.25 6.47
-3 -8 5 94.05 6.63
-11 3 5 90.46 6.41
8 -11 5 81.92 6.41
11 -8 -5 91.99 6.45
-8 -3 -5 87.23 6.34
-11 8 5 88.67 6.83
8 -11 -5 92.02 6.85
11 -8 5 92.45 6.93
-3 -8 -5 99.02 6.75
-8 -3 5 96.46 6.86
3 -11 5 93.61 6.84
3 -11 5 96.92 7.07
-3 -8 -5 96.24 6.95
-8 11 -5 91.73 7.07
8 -11 -5 97.91 6.99
-11 3 -5 80.83 6.83
2 -11 -5 77.23 5.49
11 -9 -5 84.65 5.76
11 -9 -5 76.19 5.64
-2 -9 5 72.34 5.54
-9 -2 -5 72.84 5.54
-11 2 5 80.71 5.6
9 -11 5 71.23 5.61
-2 -9 5 79.96 5.81
-11 9 -5 65.17 5.56
-9 11 -5 67.01 5.38
11 -9 5 78.81 5.28
-2 -9 -5 59.96 5.21
9 -11 -5 68.2 5.17
-9 -2 5 73.92 5.18
-2 -9 -5 76.3 5.04
-9 -2 5 71.37 5.39
-11 2 -5 61.49 5.14
2 -11 5 68.06 5.34
10 -11 5 2.6 0.66
-10 -1 -5 2.95 0.58
-11 1 5 1.36 0.74
11 -10 -5 2.47 0.58
-1 -10 5 3.39 0.54
11 -10 -5 2.28 0.75
-1 -10 5 1.9 0.79
-11 10 -5 2.9 0.78
1 -11 -5 3.51 0.49
-10 11 -5 5.63 1.17
1 -11 5 6.58 1.24
-10 -1 5 5.01 0.8
-10 -1 5 3.79 0.95
-1 -10 -5 6.29 0.6
10 -11 -5 7.25 1.12
-11 1 -5 6.79 0.95
1 -11 5 5.44 0.81
11 -10 5 6.6 1.05
11 -11 -5 4.2 0.94
0 -11 5 3.58 0.84
-11 0 5 2.15 0.78
-11 11 -5 3.89 0.88
12 -6 -5 2.66 0.68
6 -12 -5 2.42 0.58
6 -12 5 2.03 0.75
-6 -6 5 3.91 0.72
-12 6 -5 2.81 0.62
6 -12 5 3.16 0.62
12 -6 -5 3.47 0.67
-6 -6 -5 2.15 0.68
-12 6 5 3.68 0.64
-6 -6 5 3.68 0.99
5 -12 -5 20.22 1.5
-5 -7 5 15.81 1.87
-12 5 5 20.6 1.66
-7 -5 -5 14.91 1.69
12 -7 -5 16.79 1.67
-5 -7 5 17.72 1.52
-12 7 -5 20.04 1.66
7 -12 5 17.97 1.65
7 -12 5 18.66 1.93
12 -7 -5 16.72 1.64
-7 -5 -5 18.59 1.48
5 -12 5 13.64 1.38
-7 -5 5 15.01 1.32
7 -12 -5 15.39 1.29
-7 -5 5 12.79 1.63
5 -12 5 13.65 1.8
-12 7 5 13.5 1.29
-7 12 -5 15 1.77
-5 -7 -5 11.86 1.42
-5 -7 -5 14.62 1.15
-12 5 -5 12.75 1.31
-4 -8 5 36.89 3.1
-8 -4 -5 35.82 2.98
-12 8 -5 37.15 2.87
4 -12 -5 32.95 3.09
12 -8 -5 36.9 2.96
12 -8 -5 35.08 2.92
-12 4 5 36.44 2.85
-4 -8 5 34.94 2.77
4 -12 -5 40.46 2.74
8 -12 -5 25.93 2.05
-8 12 -5 28.54 2.43
4 -12 5 27.71 2.07
-4 -8 -5 20.65 2.09
12 -8 5 20.77 2.08
4 -12 5 28.35 2.41
-8 -4 5 26.71 2.07
-8 -4 5 22.95 2.27
-3 -9 5 5.85 1.18
-12 3 5 4.44 0.77
12 -9 -5 5.45 0.92
-9 -3 -5 5.41 0.77
3 -12 -5 5.19 1.11
-3 -9 5 5.47 0.78
12 -9 -5 4.91 1.03
-12 9 -5 4.16 0.75
9 -12 -5 1.3 0.52
3 -12 5 2.76 0.63
-3 -9 -5 1.71 0.5
-9 -3 5 2.71 0.81
10 -12 5 9.03 0.92
-12 10 -5 5.75 1.11
-12 10 -5 6.96 0.82
-12 2 5 9.59 0.89
2 -12 -5 7.94 1.14
12 -10 5 20.53 1.86
-12 2 -5 19.18 1.76
2 -12 5 18.67 2.01
-10 -2 5 22.41 1.83
10 -12 -5 22.95 1.81
2 -12 5 23.49 1.78
-1 -11 5 16.68 1.65
11 -12 5 16.39 1.44
12 -11 -5 15.39 1.53
1 -12 5 26.04 2.43
-11 -1 5 27.8 2.19
12 -11 5 27.91 2.26
-12 0 5 0.23 0.32
0 -12 -5 0.36 0.28
12 -12 5 0.51 0.54
-12 0 -5 0.93 0.55
0 -12 5 0.32 0.47
0 -12 5 -0.5 0.66
-6 -7 5 7.94 1.29
-13 6 5 9.51 1
7 -13 5 6.93 1.26
-13 7 -5 9.97 1.01
6 -13 -5 8.94 1.26
7 -13 -5 9.94 1.25
-7 -6 5 10.61 1.38
-13 6 -5 8.74 1.01
-13 7 5 10.51 1.02
6 -13 5 10.09 1.39
5 -13 -5 13.85 1.5
-8 -5 -5 11.16 1.32
-5 -8 5 12.45 1.5
13 -8 -5 12.12 1.26
-13 8 -5 14.9 1.25
-8 -5 5 14.6 1.68
-8 13 -5 17.12 1.81
5 -13 5 18.73 1.81
-9 -4 -5 14.06 1.36
13 -9 -5 13.17 1.37
-4 -9 5 12.14 1.46
-13 4 5 11.89 1.2
13 -9 -5 15.22 1.29
-13 9 -5 10.59 1.17
13 -9 5 6.35 0.94
4 -13 5 8.39 1.17
-9 -4 5 8.56 1.25
13 -10 -5 6.21 1.02
13 -10 -5 7.17 0.86
-3 -10 5 7.34 1.16
2 -13 -5 2.99 0.54
-11 -2 -5 2.8 0.61
-2 -11 5 3.18 0.59
-2 -11 -5 0.9 0.3
-13 2 -5 0.25 0.33
2 -13 5 0.65 0.49
2 -13 5 -0.44 0.76
13 -11 5 -0.13 0.5
-11 -2 5 1.05 0.47
-12 -1 -5 7.05 1.02
-1 -12 5 8.74 1.04
1 -13 -5 7.95 0.76
1 -13 5 9.42 1.04
-13 1 -5 7.57 0.96
-1 -12 -5 9.97 0.83
0 -13 5 9.96 1.1
-13 0 -5 7.8 1.02
7 -14 -5 0.36 0.47
-7 -7 5 -0.27 1.1
7 -14 5 1.99 0.64
-14 7 5 0.44 0.44
7 -14 -5 2.25 0.49
-14 6 5 -0.51 0.58
-6 -8 5 0.4 0.45
-8 -6 -5 0.52 0.47
6 -14 -5 0.21 0.55
8 -14 5 0.33 0.49
6 -14 -5 0.76 0.46
-14 8 -5 0.1 0.5
-6 -8 5 0.01 0.96
-6 -8 -5 1.18 0.42
6 -14 5 0.62 0.58
8 -14 -5 1.2 0.49
-8 -6 5 0.49 0.5
6 -14 5 -0.57 0.74
-5 -9 5 6.11 0.9
-9 -5 -5 7.66 0.96
5 -14 -5 7.36 0.84
-9 -5 5 7.09 1.02
9 -14 -5 6.76 1.01
-5 -9 -5 8.43 0.8
5 -14 5 7.75 1.04
-4 -10 5 0.43 0.49
-10 -4 -5 0.95 0.49
4 -14 -5 0.74 0.38
-4 -10 -5 3.25 0.53
-10 -4 5 2.11 0.63
4 -14 5 2.42 0.61
3 -14 -5 22.41 1.83
-3 -11 5 25.22 1.98
-11 -3 -5 24.26 1.98
-11 -3 5 24.79 2.22
3 -14 5 26.98 2.24
-3 -11 -5 30.38 2.06
-2 -12 5 4.81 0.93
2 -14 -5 4.57 0.6
-12 -2 -5 5.22 0.9
-14 2 -5 0.04 0.42
2 -14 5 1.51 0.55
-12 -2 5 0.32 0.34
1 -14 -5 9.5 0.84
-1 -13 5 10.73 1.17
-13 -1 -5 9.73 1.1
-14 14 5 0.18 0.37
-14 0 -5 -0.02 0.31
-14 0 5 -0.75 0.37
0 -14 5 0.15 0.55
-14 14 -5 0.35 0.33
-8 -7 -5 8.69 0.95
-7 -8 5 6.6 0.97
8 -15 5 6.53 0.94
7 -15 -5 7.44 0.94
8 -15 -5 5.63 0.87
7 -15 5 5.07 0.97
-7 -8 -5 7.29 0.82
-8 -7 5 4.99 0.91
6 -15 -5 0.77 0.46
-6 -9 5 0.73 0.51
9 -15 5 0.14 0.36
-9 -6 -5 1.13 0.52
-9 -6 5 0.59 0.54
9 -15 -5 1.23 0.54
6 -15 5 1.5 0.62
-6 -9 -5 1.44 0.43
-5 -10 5 7.03 1.02
5 -15 -5 6.28 0.84
-10 -5 -5 8.18 1.04
-10 -5 5 7.22 1
10 -15 -5 6.36 0.95
5 -15 5 7.26 1.04
4 -15 -5 21.58 1.78
-4 -11 5 23.6 1.91
-11 -4 -5 22.78 1.91
4 -15 5 16.84 1.56
-11 -4 5 16.2 1.51
-4 -11 -5 17.18 1.3
-12 -3 5 6.88 0.8
-13 15 5 9.08 1
-15 2 5 6.42 0.9
2 -15 -5 8.68 0.72
-15 14 -5 12.98 1.23
-1 -14 5 10.68 1.23
-15 1 5 12.52 1.33
-14 15 5 12.38 1.33
-15 14 5 4.39 0.77
-15 15 -5 41.67 3.18
-15 15 5 36.78 3.23
-15 0 5 43.67 3.29
8 -16 5 1.77 0.45
-8 16 -5 1.16 0.42
-8 16 5 -0.03 0.53
-8 16 5 0.73 0.33
-8 16 5 1.41 0.52
-16 9 -5 -0.47 0.34
-16 9 -5 -0.11 0.41
9 -16 5 0.06 0.33
-16 7 5 -0.61 0.36
-9 16 5 -0.13 0.29
-16 7 5 -0.29 0.27
-9 16 5 -0.14 0.4
-9 16 5 0.15 0.49
-7 16 -5 0.65 0.38
-7 -9 5 0.98 0.53
-16 9 5 -0.43 0.43
-7 16 5 0.04 0.31
7 -16 5 0.56 0.47
-7 16 5 0.6 0.52
-16 9 5 -0.15 0.29
-9 16 -5 0.48 0.39
-9 -7 5 0.74 0.52
9 -16 -5 0.49 0.46
9 7 5 -0.05 0.25
-7 -9 -5 0.95 0.39
-16 7 -5 0.02 0.45
-10 16 5 1.59 0.46
-6 16 -5 0.97 0.56
-10 16 5 0.52 0.78
-16 10 -5 2.46 0.47
-16 6 -5 3.06 0.52
-6 16 5 1.23 0.35
-16 10 5 1.23 0.52
10 6 5 1.57 0.33
-10 16 -5 2.39 0.44
-6 16 5 1.72 0.54
-16 10 5 2.12 0.38
-11 16 5 3.18 0.61
-16 11 -5 2.55 0.59
5 -16 -5 4.22 0.65
11 -16 -5 1.83 0.43
-11 16 -5 2.5 0.46
-16 11 5 0.97 0.48
-5 16 5 2.36 0.54
-4 -12 5 10.73 1.14
4 -16 -5 8.17 0.86
-16 12 -5 9.27 1.27
-12 -4 -5 10.09 1.1
-12 16 5 11.28 1.28
-16 12 5 5.02 0.71
-12 16 -5 4.31 0.65
-16 4 -5 6.46 1.03
-16 13 -5 34.57 2.65
-16 13 -5 30.13 2.44
-16 3 5 33.01 2.52
-13 -3 -5 29.86 2.47
3 -16 5 33.52 2.43
-13 -3 5 26.7 2.39
-16 14 -5 16.43 1.65
-2 -14 5 17.13 1.46
-16 2 -5 15.5 1.4
-16 14 5 13.16 1.31
2 -16 5 12.56 1.19
-16 14 5 9.95 1.16
-15 -1 -5 7.27 0.94
-16 15 5 12.25 1.24
-16 1 -5 13.85 1.47
-16 16 5 9.96 1.11
-16 0 -5 12.49 1.34
8 -17 -5 4.31 0.77
-8 17 -5 6.44 1.11
-8 -9 5 4.95 0.82
-17 9 -5 7.01 1.2
-17 8 5 5.6 0.95
-9 -8 -5 5.69 0.72
-9 17 5 6.51 0.81
-17 9 -5 4.12 0.73
-17 8 5 5.46 0.75
-9 17 5 6.37 1.02
-17 9 5 4.11 0.67
-8 17 5 2.01 0.52
-9 -8 5 3.4 0.7
9 -17 -5 2.89 0.52
-8 -9 -5 3 0.46
9 8 5 2.18 0.41
7 -17 -5 1.92 0.47
-10 17 5 3.67 0.83
-10 -7 -5 2.57 0.53
-17 7 5 2.42 0.6
-7 -10 5 1.7 0.56
-7 17 -5 3.21 0.63
-17 10 -5 2.35 0.74
-10 17 5 2.4 0.66
-10 17 5 3.52 0.65
-17 10 -5 2.09 0.66
-10 -7 5 1.1 0.41
-17 10 5 1.43 0.59
-7 17 5 0.53 0.45
10 7 5 1.6 0.46
-7 17 5 2.17 0.86
-17 7 -5 2.48 0.85
-7 17 5 1.9 0.59
-17 10 5 1.45 0.85
-10 17 -5 2.99 0.78
-11 17 5 12.62 1.2
-11 17 5 12.25 1.45
-17 6 5 9.4 1.2
-6 17 -5 7.55 1.1
-11 17 5 11.15 1.34
-6 -11 5 9.74 1.09
-11 -6 -5 11.87 1.09
-17 11 -5 9.25 1.23
11 6 5 11.08 1.24
-17 11 5 9.5 1.65
-11 17 -5 12.93 1.51
-6 17 5 10.97 1.52
-6 17 5 8.83 1.15
-17 11 5 9.83 1.29
-17 6 -5 12.22 1.61
-17 12 -5 0.88 0.33
-17 12 -5 2.58 0.93
-17 5 5 1.52 0.5
-5 17 -5 1.13 0.45
-12 17 5 1.79 0.55
-12 -5 -5 1.54 0.44
-17 5 5 0.73 0.36
-5 -12 5 1.42 0.44
-12 17 5 1.77 0.49
-17 12 -5 0.95 0.53
-12 17 5 2.09 0.85
-17 12 5 1.02 0.54
-17 5 -5 2.01 0.88
-5 17 5 0.64 0.41
-12 17 -5 1.49 0.45
-5 17 5 0.15 0.46
-17 12 5 0.84 0.73
-12 17 -5 2.36 0.67
5 -17 5 0.8 0.37
12 5 5 2.4 0.7
-5 17 5 2.01 0.68
-12 -5 5 -0.07 0.35
-4 -13 5 0.78 0.36
-13 17 5 1.07 0.43
-17 13 -5 1.59 0.47
-4 17 -5 0.62 0.5
-17 4 5 0.78 0.43
-13 17 5 0.89 0.55
-17 13 -5 0.67 0.53
-13 17 5 1.96 0.93
-17 4 5 0.5 0.52
-17 13 -5 2.3 0.93
-13 -4 -5 0.18 0.29
-17 13 5 2.19 0.58
-17 4 -5 2.52 0.85
-13 -4 5 1.94 0.58
-17 13 5 0.83 0.46
-17 13 5 0.78 0.64
-13 17 -5 2.29 0.64
-17 4 -5 1.21 0.48
-4 17 5 1.76 0.42
-13 17 -5 2.71 0.62
-17 14 -5 9.28 1.09
-17 3 5 7.13 0.92
-14 17 5 6.95 0.85
-17 14 5 9.49 1.27
-14 17 -5 11.78 1.11
-3 17 5 8.16 0.94
-15 -2 -5 7.26 0.91
-17 15 -5 7.76 1.01
-15 17 -5 12.36 1.64
-17 2 -5 10.9 1.55
-17 15 5 9.97 1.36
-17 15 5 10.43 1.56
-15 -2 5 13.84 1.66
-16 17 5 41.32 3.36
-17 16 -5 35.71 3.32
-17 16 -5 43.61 3.2
-16 17 -5 32.66 2.62
-17 1 -5 27.57 2.62
-17 16 5 29.33 2.71
-17 16 5 28.35 2.47
-16 -1 5 35.11 2.74
-17 0 -5 28.68 2.59
-17 17 5 30.05 2.5
-17 17 5 33.67 2.77
-17 17 -5 36.77 2.66
-17 17 -5 27.91 2.6
9 9 5 2.76 0.55
-18 9 -5 3.62 0.8
-9 18 -5 3.76 0.98
-18 9 5 4.94 1.07
-18 9 -5 4.92 1.08
-9 18 5 6.03 1.18
-9 18 5 4.01 0.79
-18 9 5 4.5 0.85
-9 18 5 4.01 0.82
-18 10 -5 3.37 0.89
-18 8 5 3.49 0.95
-10 18 5 4.34 0.84
-8 18 -5 4.01 0.93
-10 18 5 5.03 1.14
-18 8 5 4.28 0.86
-18 10 -5 4.17 1.03
-10 18 5 3.83 0.87
-10 18 -5 6 1.07
10 8 5 3.09 0.65
-18 8 -5 4.68 1.12
-8 18 5 3.81 0.78
-18 10 5 3.46 1.03
-18 10 5 3.35 0.81
-8 18 5 4.67 0.81
-8 18 5 4.35 1.13
-18 7 5 14.44 1.76
-18 11 -5 14.23 1.78
-11 18 5 16.47 2.06
-11 18 5 16.23 1.71
-11 18 5 13.7 1.87
-18 7 5 12.71 1.83
-18 11 -5 17.06 2
-7 18 -5 14.43 1.7
-18 11 5 12.52 1.66
-7 18 5 15.25 2
-11 18 -5 15.91 1.83
-7 18 5 11.36 1.44
-7 18 5 12.66 1.47
-18 11 5 15.04 2.14
11 7 5 12.26 1.48
-18 7 -5 15.23 2
-6 18 -5 2.34 0.7
-12 18 5 4.37 0.98
-18 12 -5 2.08 0.82
-12 18 5 2.99 0.73
-18 12 -5 1.75 0.39
-18 6 5 1.24 0.41
-18 6 5 1.81 0.74
-18 6 5 3.24 0.79
-12 18 -5 1.98 0.89
-18 12 5 2 0.94
-18 12 5 0.18 0.56
-18 6 -5 2.16 1.02
-6 18 5 1.19 0.54
-6 18 5 0.65 0.58
-6 18 5 1.46 0.92
-12 18 -5 1.88 0.61
-18 12 5 1.41 0.66
-18 5 5 15.18 1.65
-13 18 5 15.59 1.91
-18 5 5 10.73 1.36
-5 18 -5 10.1 1.32
-18 13 -5 13.73 1.65
-18 13 -5 12.97 1.33
-13 18 5 14.56 1.65
-13 18 5 15.8 1.5
-18 5 -5 17.8 2
-18 5 -5 12.28 1.46
-13 18 -5 16.13 1.86
-13 -5 5 14.9 1.52
-5 18 5 14.12 1.48
-18 13 5 13.83 1.62
-13 18 -5 15.4 1.6
-18 13 5 14.83 1.99
-18 4 5 37.12 3.26
-18 14 -5 38.17 3.33
-14 18 5 46.48 3.46
-18 14 -5 40.45 3.23
-14 18 5 39.75 3.22
-18 4 5 43.6 3.27
-18 14 -5 42.02 3.53
-4 18 5 25.24 2.27
-18 14 5 27.76 2.4
-18 14 5 27.51 2.67
-18 4 -5 26.56 2.45
-14 18 -5 29.98 2.54
-14 18 -5 28.69 2.41
-14 -4 5 32.89 2.53
-18 4 -5 30.84 2.66
-18 14 5 26.95 2.47
-15 18 5 56.89 4.18
-18 15 -5 54.82 4.01
-15 18 5 48.54 3.92
-18 15 -5 50.74 4.09
-18 3 5 50.7 3.98
-18 15 -5 52.93 4.24
-18 3 5 51.24 4.07
-18 15 5 42.33 3.63
-18 3 -5 47.85 3.73
-18 15 5 47.43 3.56
-18 15 5 47.82 3.66
-15 18 -5 49.07 3.62
-15 18 -5 39.25 3.54
-18 3 -5 46.15 3.62
-18 16 -5 4.19 0.8
-18 2 5 3.36 0.56
-16 18 5 4.83 0.95
-16 -2 -5 3.43 0.56
-16 18 5 2.7 0.49
-16 18 -5 4.73 0.85
-18 16 5 2.56 0.62
-18 16 5 4.16 0.91
-18 2 -5 3.9 0.81
-2 18 5 2.45 0.43
-17 18 5 1.66 0.4
-17 18 5 3.9 0.9
-18 1 5 3.21 0.83
-18 17 -5 1.31 0.54
-17 -1 -5 2.8 0.59
-18 17 -5 1.69 0.82
-18 17 -5 2.21 0.74
-17 18 -5 2.9 0.79
-18 17 5 1.92 0.66
-17 -1 5 3.36 0.83
-18 1 -5 2.2 0.76
-18 1 -5 2.06 0.78
-18 17 5 1.85 0.84
-18 0 -5 12.85 1.53
-18 18 -5 10.25 1.36
-18 18 5 10.3 1.6
-18 0 5 11.91 1.58
-18 18 -5 7.6 1.36
-18 18 5 9.11 1.06
-18 0 -5 8.95 1.24
-9 19 -5 2.67 0.97
-10 19 5 2.01 0.9
-19 9 5 1.91 0.95
-10 19 5 1.78 0.77
-10 19 5 3.03 1.16
-19 10 -5 3.22 1.09
-19 9 5 2.86 0.82
-19 10 -5 1.86 0.85
9 10 5 2.12 0.54
-19 10 5 3.54 0.83
-9 19 5 2.61 0.94
-19 9 -5 4.04 1.07
-10 19 -5 5.22 1.11
-19 10 5 4.04 1.05
-9 19 5 3.91 0.84
-9 19 5 5.66 1.21
-19 9 -5 2.8 0.85
-11 19 5 21.93 2.24
-11 19 5 22.16 2.39
-19 8 5 21.37 2.14
-19 8 5 18.02 2.24
-19 11 -5 19.25 2.23
-11 19 5 24.01 2.02
-19 11 -5 19.72 2.28
-8 19 -5 19.77 2.22
-19 8 -5 19.79 2.25
-11 19 -5 19.56 2.14
-19 8 -5 15.02 1.84
-19 11 5 18.54 1.88
-8 19 5 19.37 2.35
-8 19 5 17.95 1.92
-11 19 -5 15.78 1.59
-19 11 5 20.46 2.32
-8 19 5 18.49 1.83
-19 7 5 14.74 1.74
-19 7 5 10.71 1.85
-19 12 -5 14.17 1.97
-19 12 -5 12.03 1.79
-7 19 -5 13.63 1.73
-12 19 5 12.49 1.56
-12 19 5 12.1 1.77
-12 19 5 13.55 1.58
-19 12 5 6.16 0.92
-19 7 -5 7.75 1.21
-19 12 5 9.76 1.86
-12 19 -5 9.63 1.69
-7 19 5 7.76 1.38
-7 19 5 7.03 1.23
-12 19 -5 8.18 1.27
-6 19 -5 1.33 0.74
-19 13 -5 2.68 0.93
-19 6 5 2.31 0.81
-19 6 5 0.83 0.53
-19 13 -5 2.09 0.51
-13 19 5 1.9 0.93
-13 19 5 2.54 0.75
-19 6 5 2.15 0.79
-19 6 -5 2.27 0.65
-19 6 -5 4.39 1.07
-13 19 -5 2.87 0.76
-13 19 -5 4.77 1
-13 -6 5 2.3 0.64
-6 19 5 2.59 0.69
-19 13 5 2 0.69
-19 13 5 1.93 0.56
-19 13 5 3.4 0.98
-6 19 5 2.94 0.7
-14 19 5 8.31 1.17
-19 5 5 5.88 0.85
-5 19 -5 4.33 0.85
-19 14 -5 8.93 1.9
-19 5 5 8.43 1.52
-14 19 5 7.74 1.3
-19 14 -5 7.59 1.18
-19 14 -5 5.51 1.06
-19 5 -5 4.4 1.05
-19 5 -5 3 0.78
-14 -5 5 4.9 0.83
-5 19 5 4.42 0.74
-19 14 5 3.49 0.77
-14 19 -5 4.29 1
-14 19 -5 3.29 0.81
-19 14 5 2.82 0.81
-19 14 5 4.34 1.01
-19 4 5 0.8 0.67
-15 19 5 2.7 0.96
-4 19 -5 0.33 0.47
-19 15 -5 1.22 0.87
-15 19 5 1.73 0.7
-19 15 -5 1.11 0.87
-19 15 -5 1.64 0.69
-19 4 5 1.68 0.76
-15 -4 5 2.6 0.78
-15 19 -5 1.38 0.84
-19 15 5 1.3 0.87
-19 15 5 1.11 0.68
-4 19 5 1.12 0.58
-15 19 -5 1.18 0.72
-19 4 -5 1.72 0.74
-19 15 5 1.63 0.84
-19 4 -5 1.25 0.92
-19 16 -5 35.98 3.13
-19 3 5 38.47 3
-19 3 5 36.61 3.04
-16 19 5 35.82 2.93
-16 19 5 38.37 3.13
-19 16 -5 39.06 3.24
-19 16 -5 37.59 2.98
-19 3 -5 26.32 2.29
-16 19 -5 24.69 2.2
-19 16 5 24.42 2.42
-3 19 5 22.27 2.08
-19 3 -5 27.02 2.43
-16 19 -5 27.91 2.34
-16 -3 5 31.48 2.39
-19 16 5 27.16 2.39
-19 16 5 24.55 2.29
-19 2 5 12.57 1.4
-19 2 5 14.77 1.68
-19 17 -5 14.98 1.68
-19 17 -5 16.99 1.62
-17 19 5 17.63 1.77
-19 17 -5 18.26 1.98
-19 17 5 14.68 1.57
-19 17 5 14.47 1.77
-19 2 -5 12.79 1.64
-17 19 -5 16.31 1.6
-17 -2 5 17.04 1.77
-19 2 -5 13.05 1.69
-19 18 -5 0.36 0.76
-19 1 5 0.26 0.64
-18 19 5 1.43 0.74
-19 1 5 -0.14 0.23
-19 18 -5 0.37 0.47
-18 -1 -5 1.13 0.67
-18 19 5 0.45 0.27
-18 -1 -5 0.43 0.34
-19 18 -5 0.67 0.66
-19 18 5 1.24 0.48
-19 18 5 0.66 0.76
-19 1 -5 1.33 0.62
-18 -1 5 1.77 0.7
-18 19 -5 0.59 0.68
-19 1 -5 0.83 0.65
-19 0 -5 0.12 0.34
-19 19 5 0.02 0.68
-19 19 -5 0.06 0.43
-19 19 5 0.32 0.24
-19 0 -5 0.58 0.62
-19 0 5 1.1 0.62
-19 19 -5 0.31 0.63
-20 10 5 24 2.47
-20 10 -5 23.69 2.41
-20 10 -5 21.3 2.31
-20 10 5 22.89 2.22
-10 20 5 23.78 2.17
-10 20 5 22.35 2.39
-10 20 -5 24.82 2.36
-20 11 -5 16.37 2.09
-20 9 5 15.78 2.11
-20 9 5 17.61 1.93
-11 20 5 17.54 2.07
-11 20 5 18.4 1.78
-9 20 -5 15.44 1.98
-20 11 -5 18.68 2.12
-20 11 5 14.2 1.72
-20 9 -5 12.26 1.83
-9 20 5 14.68 1.59
-20 9 -5 13.65 1.92
-20 11 5 15.9 2.17
-9 20 5 15.25 1.82
-11 20 -5 11.94 1.37
-11 20 -5 15.7 1.93
-12 20 5 7.5 1.33
-20 12 -5 8.77 1.72
-12 20 5 7.39 1.12
-8 20 -5 6.07 1.06
-20 12 -5 5.47 1.03
-20 8 5 8.98 1.43
-20 8 5 5.84 1.04
-8 20 5 4.66 1.01
-20 8 -5 7.85 1.15
-20 8 -5 4.05 0.83
-20 12 5 5.06 0.82
-8 20 5 5.41 0.82
-12 20 -5 7.75 1.09
-20 12 5 7.71 1.21
-12 20 -5 5.39 0.84
-7 20 -5 24.11 2.43
-20 13 -5 23.01 2.44
-20 7 5 24.2 2.46
-20 7 5 29.9 2.43
-13 20 5 28.16 2.24
-13 20 5 24.65 2.46
-20 13 -5 26.49 2.61
-13 20 -5 21.16 1.88
-13 20 -5 20.98 2.14
-20 7 -5 23.58 2.23
-13 -7 5 16.12 1.68
-20 7 -5 17.17 1.74
-7 20 5 19.17 1.83
-20 13 5 19.32 1.86
-20 13 5 23.3 2.29
-7 20 5 18.61 1.94
-14 20 5 1.02 0.67
-20 14 -5 0.97 0.5
-20 6 5 0.61 0.59
-14 20 5 1.06 0.82
-20 14 -5 0.95 0.84
-20 14 -5 2.64 1
-6 20 -5 -0.37 0.78
-20 6 5 0.41 0.67
-20 6 5 1.49 0.77
-6 20 5 0.29 0.63
-20 14 5 0.14 0.63
-20 6 -5 0.86 0.9
-6 20 5 0.36 0.52
-20 14 5 1.06 0.68
-20 6 -5 0.28 0.65
-20 14 5 0.63 0.86
-14 20 -5 1.15 0.86
-14 -6 5 0.62 0.64
-14 20 -5 0.39 0.7
-20 5 5 31.88 2.71
-5 20 -5 30.52 2.71
-15 20 5 34.6 2.7
-15 20 5 33.99 2.87
-20 5 5 37.93 2.81
-20 15 -5 33.87 3
-20 15 -5 31.54 2.66
-20 15 -5 30.57 2.85
-15 20 -5 34.41 2.87
-20 5 -5 33.35 2.89
-20 15 5 35.28 2.98
-5 20 5 31.53 2.65
-20 15 5 32.64 2.81
-15 -5 5 36.09 2.72
-20 5 -5 31.02 2.73
-20 15 5 31.16 2.7
-15 20 -5 31.68 2.7
-16 20 5 45.68 3.5
-20 4 5 49.08 3.54
-16 20 5 48.04 3.68
-20 16 -5 46.16 3.78
-20 4 5 42.69 3.54
-20 16 -5 41.79 3.63
-20 16 -5 44.84 3.51
-20 16 5 42.27 3.49
-16 20 -5 42.03 3.3
-20 16 5 40.61 3.32
-16 20 -5 42.42 3.37
-20 4 -5 41.31 3.41
-20 16 5 42.74 3.4
-4 20 5 42.16 3.23
-16 -4 5 45.53 3.32
-20 4 -5 40.36 3.32
-20 3 5 6.54 1.06
-17 20 5 3.99 0.66
-20 3 5 4.12 0.74
-20 17 -5 4.58 0.87
-17 20 5 5.66 0.92
-20 17 -5 5.02 0.77
-20 17 -5 5.9 1
-20 3 -5 3.99 0.85
-20 17 5 3.73 0.83
-20 17 5 3.57 0.72
-17 20 -5 5.37 0.79
-20 3 -5 4.21 0.73
-20 17 5 3.16 0.75
-20 18 -5 16.78 1.98
-18 20 5 17.65 1.84
-18 -2 -5 18.68 1.67
-20 18 -5 16.79 1.66
-20 2 5 16.46 1.68
-20 18 -5 19.4 1.66
-20 18 5 17.67 1.71
-20 2 -5 14.71 1.56
-20 2 -5 15.04 1.58
-18 -2 5 19.46 1.69
-20 18 5 14.78 1.47
-18 20 -5 17.87 1.66
-19 -1 -5 10.3 1.2
-20 1 5 10.69 1.19
-20 19 -5 7.38 1.21
-19 20 5 10.88 1.36
-20 19 -5 10.09 1.23
-19 20 -5 6.93 1.15
-19 -1 5 7.73 1.12
-20 1 -5 6.24 1.11
-20 19 5 8.14 1.2
-20 20 5 0.69 0.64
-20 0 -5 0.64 0.53
-20 20 -5 0.87 0.54
-20 0 5 0.97 0.52
-10 21 -5 25.49 2.5
-21 10 5 28.49 2.34
-21 10 5 27.35 2.53
-21 11 -5 26.34 2.49
-21 11 -5 24.27 2.51
-11 21 5 26.84 2.54
-11 21 5 26.8 2.28
-21 11 5 31.19 2.86
-11 21 -5 32.21 2.78
-21 10 -5 30.77 2.76
-21 11 5 31.73 2.63
-21 10 -5 31.13 2.76
-10 21 5 32.66 2.84
-10 21 5 30.41 2.56
-21 9 5 44.47 3.82
-9 21 -5 43.64 3.76
-21 9 5 50.6 3.72
-21 12 -5 49.06 3.83
-12 21 5 46.62 3.82
-12 21 5 47.26 3.62
-21 12 -5 48.33 3.82
-21 12 5 47.24 3.6
-9 21 5 47.96 3.74
-21 9 -5 39.25 3.65
-21 12 5 48.84 3.86
-21 9 -5 50.16 3.72
-12 21 -5 48.97 3.75
-12 21 -5 46.14 3.54
-9 21 5 41.85 3.52
-13 21 5 0.47 0.62
-21 8 5 0.05 0.28
-21 13 -5 0.77 0.78
-21 8 5 0.01 0.73
-21 13 -5 1.52 0.88
-21 8 5 1.34 0.75
-8 21 -5 0.02 0.81
-13 21 5 0.33 0.8
-8 21 5 0.47 0.59
-21 13 5 0.18 0.34
-21 13 5 1.31 0.88
-8 21 5 0.23 0.69
-21 8 -5 -0.04 0.4
-21 8 -5 0.55 0.86
-13 21 -5 0.53 0.68
-21 13 5 0.81 0.59
-13 21 -5 1.96 0.88
-21 8 -5 0.45 0.52
-21 7 5 7.36 1.02
-21 7 5 11.24 1.42
-21 14 -5 6.46 1.05
-14 21 5 9.26 1.27
-21 7 5 7.76 1.42
-14 21 5 8.11 1.41
-7 21 -5 10.4 1.59
-14 21 -5 5.17 0.83
-14 21 -5 6.75 1.01
-21 7 -5 5.74 0.99
-21 7 -5 3.43 0.72
-14 -7 5 4.97 0.95
-7 21 5 4.56 0.75
-21 14 5 5.83 0.97
-21 14 5 5.77 0.78
-21 15 -5 11.87 1.88
-21 15 -5 8.53 1.4
-21 15 -5 8.21 0.97
-15 21 5 10.23 1.43
-15 21 5 10.91 1.25
-21 6 5 7.49 1.11
-21 6 5 11.38 1.45
-21 6 5 8.71 1.23
-15 -6 5 7.86 1.14
-15 21 -5 6.71 0.97
-21 15 5 8.1 1.59
-6 21 5 4.28 0.76
-21 15 5 5.27 0.84
-21 15 5 4.69 0.77
-21 6 -5 5.38 0.97
-21 6 -5 5.63 0.79
-15 21 -5 6.3 0.84
-21 16 -5 1.87 0.82
-21 5 5 1.62 0.64
-21 16 -5 1.27 0.53
-16 21 5 0.82 0.59
-21 5 5 1.04 0.58
-16 21 5 0.98 0.71
-5 21 -5 0.11 0.44
-21 16 -5 0.8 0.72
-16 21 -5 0.98 0.77
-21 16 5 0.64 0.58
-21 5 -5 0.95 0.61
-16 -5 5 1.57 0.6
-16 21 -5 0.97 0.6
-21 16 5 0.97 0.75
-21 5 -5 0.73 0.74
-5 21 5 0.84 0.53
-21 16 5 0.93 0.7
-17 21 5 14.04 1.45
-21 17 -5 16.22 1.83
-21 17 -5 15.38 1.5
-21 4 5 14.91 1.54
-17 21 5 16.41 1.69
-21 4 5 16.98 1.54
-17 -4 -5 16.24 1.53
-21 17 -5 14.23 1.64
-21 4 -5 13.54 1.46
-21 17 5 14.33 1.49
-21 17 5 14.91 1.72
-21 4 -5 15.55 1.6
-17 -4 5 17.55 1.55
-17 21 -5 14.94 1.53
-21 17 5 16.4 1.66
-21 3 5 3.63 0.61
-21 18 -5 2.18 0.63
-21 18 -5 2.32 0.61
-21 18 -5 2.92 0.78
-21 3 5 3.23 0.61
-18 -3 -5 3.12 0.62
-18 21 5 4.65 0.79
-21 3 -5 2.32 0.59
-21 3 -5 2.29 0.56
-21 18 5 3.53 0.72
-21 18 5 2.59 0.45
-18 21 -5 2.86 0.65
-21 2 5 1.31 0.49
-19 -2 -5 1.49 0.52
-21 19 -5 1.18 0.53
-19 21 5 1.68 0.66
-21 2 -5 0.01 0.23
-19 -2 5 1.37 0.49
-21 2 -5 0.68 0.49
-21 19 5 1.69 0.64
-19 21 -5 0.49 0.54
-21 20 -5 3.99 0.59
-20 21 5 4.33 0.71
-21 1 5 4.82 0.8
-20 -1 -5 3.49 0.58
-21 1 -5 4.85 0.88
-20 -1 5 5.94 0.85
-21 20 5 4.47 0.73
-20 21 -5 5.64 0.88
-11 22 5 52.95 4.16
-11 22 -5 56.23 4.17
-22 11 -5 53.77 4.14
-22 11 5 54.76 4.05
-11 22 5 52.53 4.01
-22 11 -5 50.15 4.14
-22 11 5 52.2 4.2
-12 22 5 1.46 0.6
-22 12 -5 1.56 0.82
-22 12 -5 2.29 0.78
-22 10 5 2.19 0.68
-22 10 5 1.77 0.75
-10 22 -5 2.21 0.8
-12 22 5 1.22 0.84
-22 12 5 1.84 0.66
-12 22 -5 0.64 0.41
-22 10 -5 1.6 0.69
-22 12 5 1.75 0.82
-12 22 -5 2.13 0.86
-22 10 -5 2.01 0.81
-10 22 5 1.34 0.56
-10 22 5 1.31 0.75
-22 13 -5 11.19 1.57
-22 9 5 13.61 1.51
-13 22 5 11.59 1.34
-13 22 5 12.16 1.62
-22 9 5 11.72 1.52
-22 13 -5 12.24 1.69
-9 22 -5 11.51 1.59
-9 22 5 10.1 1.22
-22 13 5 10.74 1.3
-13 22 -5 12.35 1.58
-22 9 -5 9.22 1.24
-13 22 -5 10.72 1.27
-22 13 5 12.24 1.68
-22 9 -5 12.49 1.58
-9 22 5 9.54 1.2
-22 14 -5 14.45 1.78
-22 8 5 15.86 1.56
-14 22 5 13.64 1.4
-8 22 -5 14.46 1.69
-14 22 5 12.18 1.65
-22 14 -5 11.87 1.57
-22 8 5 11.86 1.54
-22 8 -5 11.23 1.44
-22 8 -5 7.03 0.96
-8 22 5 10.77 1.22
-14 22 -5 12.03 1.49
-14 22 -5 10.82 1.25
-22 14 5 9.99 1.24
-22 7 5 0.69 0.34
-22 7 5 2.49 0.63
-7 22 -5 1.19 0.71
-22 15 -5 2.1 0.82
-15 22 5 1.45 0.74
-22 7 5 1.05 0.48
-15 22 5 1.53 0.55
-22 15 -5 1.36 0.68
-22 7 -5 0.9 0.5
-7 22 5 0.83 0.58
-15 22 -5 1.75 0.78
-15 -7 5 0.82 0.37
-15 22 -5 1.39 0.6
-22 15 5 2.42 0.77
-22 7 -5 1.61 0.73
-22 15 5 1.28 0.56
-22 15 5 0.69 0.39
-22 6 5 19.54 1.7
-16 22 5 18.81 1.61
-22 16 -5 15.64 1.73
-16 22 5 17.2 1.75
-16 -6 -5 19.19 1.67
-22 6 5 16.18 1.54
-22 16 -5 20.13 1.99
-22 16 5 20.07 1.75
-22 6 -5 17.74 1.7
-22 6 -5 19.7 1.82
-16 -6 5 19.63 1.69
-16 22 -5 19.81 1.92
-16 22 -5 20.16 1.75
-22 16 5 19.14 1.72
-22 16 5 22.42 1.98
-6 22 5 20.44 1.67
-22 5 5 5.28 0.93
-22 17 -5 3.65 0.7
-17 22 5 4 0.71
-17 22 5 4.58 0.79
-22 5 5 2.87 0.55
-22 17 -5 4.48 0.81
-17 -5 -5 3.12 0.6
-22 17 5 5.92 0.88
-17 22 -5 5.58 0.68
-22 5 -5 4.22 0.68
-22 17 5 6.47 1.01
-17 22 -5 3.61 0.61
-22 5 -5 3.86 0.63
-22 18 -5 1.12 0.32
-22 4 5 1.29 0.45
-18 22 5 1.6 0.64
-18 -4 -5 1.48 0.48
-22 18 -5 1.3 0.49
-22 18 -5 1.35 0.66
-22 4 5 0.92 0.3
-22 18 5 0.64 0.33
-22 4 -5 0.93 0.34
-22 18 5 0.95 0.26
-22 4 -5 1.64 0.47
-22 3 5 6.58 0.82
-22 19 -5 4.7 0.86
-22 19 -5 4.64 0.58
-22 3 -5 3.04 0.52
-19 22 -5 4.24 0.6
-19 -3 5 4.65 0.75
-22 19 5 3.56 0.62
-12 23 5 17.53 1.69
-23 11 5 18.57 1.81
-11 23 -5 19.18 1.87
-23 12 -5 18.58 1.83
-23 11 5 20.48 1.73
-12 23 5 18.3 1.63
-23 12 -5 17 1.78
-23 11 -5 23.67 2.06
-23 11 -5 19.47 1.96
-23 12 5 23.57 2.08
-12 23 -5 24.15 2.14
-11 23 5 19.96 1.83
-23 12 5 24.95 1.97
-23 13 -5 18.23 1.83
-13 23 5 18.08 1.62
-23 10 5 19.42 1.71
-23 13 -5 19.43 1.84
-13 23 5 18.57 1.78
-10 23 -5 18.28 1.84
-23 10 5 17.16 1.78
-10 23 5 17.43 1.59
-23 13 5 20.92 1.94
-23 10 -5 19.05 1.8
-13 23 -5 19.53 1.89
-23 13 5 16.57 1.64
-23 9 5 7.74 1.14
-23 9 5 6.71 1.12
-9 23 -5 7.76 1.31
-23 14 -5 8.36 1.34
-14 23 5 7.28 1.2
-23 14 -5 5.63 0.85
-14 23 5 6.97 0.98
-14 23 -5 6.62 0.86
-14 23 -5 9.32 1.33
-9 23 5 8.37 1.04
-23 9 -5 7.85 1.29
-23 14 5 7.42 1.05
-23 8 5 22.4 1.75
-8 23 -5 20.47 1.82
-23 15 -5 18.3 1.78
-15 -8 -5 17.21 1.62
-15 23 5 19.97 1.81
-23 15 -5 23.7 1.98
-15 23 5 19.15 1.67
-23 15 5 17.71 1.73
-23 15 5 16 1.54
-15 23 -5 18.54 1.72
-15 23 -5 17.34 1.53
-8 23 5 17 1.53
-23 8 -5 17.21 1.67
-16 23 5 5.56 0.83
-16 -7 -5 4.63 0.8
-16 23 5 5.96 1.07
-23 7 5 6.89 0.94
-23 16 -5 5.57 1.01
-23 16 -5 8.07 1.35
-23 7 -5 4.08 0.67
-16 23 -5 3.54 0.73
-16 23 -5 3.15 0.6
-23 16 5 4.82 0.81
-23 16 5 6.09 1.14
-17 23 5 5.54 1.04
-17 -6 -5 6.5 0.81
-23 17 -5 5.92 0.94
-23 17 -5 8.65 1.19
-17 23 5 5.65 0.74
-23 6 5 6.67 0.83
-23 6 -5 5.47 0.69
-17 23 -5 7.87 0.93
-23 17 5 6.42 0.68
-23 6 -5 5.83 0.78
-24 12 5 23.92 2.16
-12 24 -5 28.82 2.25
-24 12 -5 23.87 2.15
-24 12 5 27.35 2.1
-12 24 5 24.92 2.03
-11 24 -5 4.46 0.81
-24 13 -5 5.9 1.06
-13 24 5 5.67 0.85
-24 11 5 5.43 0.98
-24 11 5 6.49 0.97
-24 11 -5 3.22 0.68
-13 24 -5 3.45 0.78
-11 24 5 3.45 0.55
-24 13 5 5.56 0.88
-24 10 5 11.73 1.19
-24 14 -5 14.2 1.41
-24 14 5 19.26 1.82
0 0 6 1000 68.16
0 0 6 878.6 68.11
0 0 -6 971.3 68.07
1 -1 -6 132.47 10.05
0 -1 -6 137.13 10.05
0 -1 6 133.54 10.09
-1 0 6 138.64 10.13
-1 1 -6 138.84 10.05
1 -1 6 148.4 10.15
-1 1 6 154.56 10.16
1 0 6 141.21 10.14
-1 1 6 137.08 10.1
0 1 6 132.96 10.04
1 0 -6 146.84 10.05
-1 0 -6 146.45 10.05
0 1 -6 148.42 10.05
1 -1 -6 133.77 10.08
-1 1 6 132.42 10.05
-1 0 6 138.62 10.1
1 -1 6 136.02 10.1
1 0 6 136.72 10.1
0 -1 6 147.14 10.15
0 -1 -6 125.78 10.08
2 -1 6 105.42 7.74
1 -2 -6 98.59 7.73
-1 -1 -6 106.13 7.69
-2 1 6 110.8 7.7
1 1 6 112.09 7.79
-1 -1 6 109.73 7.78
1 1 -6 107.96 7.69
-1 2 -6 106.52 7.69
1 -2 6 110.42 7.78
1 -2 6 97.26 7.72
-2 1 6 114.76 7.79
1 1 6 102.25 7.74
2 -1 6 102.39 7.77
-1 -1 6 108.9 7.74
-1 2 6 104.19 7.68
-2 1 -6 109.96 7.7
-1 -1 -6 99.7 7.73
2 -1 -6 91.67 7.71
1 -2 -6 103.28 7.69
-1 2 6 117.73 7.8
-1 2 6 112.82 7.75
-2 0 -6 71.06 5.5
0 -2 6 74.75 5.49
-2 0 6 70.9 5.54
2 -2 -6 70.34 5.45
0 -2 6 77.38 5.55
2 -2 6 72.64 5.5
2 -2 -6 71.68 5.5
-2 2 6 71.25 5.45
0 2 6 69.85 5.44
0 2 6 80.8 5.57
-2 2 6 79.95 5.57
2 -2 -6 76.05 5.49
2 0 6 74.78 5.55
2 -2 6 78.92 5.56
0 -2 -6 70.96 5.5
0 2 6 76.89 5.51
2 0 6 78.21 5.52
-2 2 -6 76.05 5.46
-2 0 -6 73.25 5.46
0 2 -6 79.83 5.46
-2 0 6 78.26 5.47
0 -2 -6 76.9 5.46
3 -1 6 4.95 0.78
-1 -2 6 3.65 0.65
2 -3 6 3.93 0.6
1 -3 -6 3.38 0.55
1 2 6 3.74 0.76
1 -3 -6 3.59 0.58
-3 1 6 4.69 0.73
-2 3 6 3.96 0.79
-1 3 -6 3.32 0.54
-1 -2 6 3.02 0.58
1 2 6 3.4 0.62
-3 1 6 4.41 0.58
-2 3 6 3.73 0.53
-2 -1 -6 3.38 0.58
-3 2 -6 3.43 0.57
1 -3 -6 4.07 0.61
-2 -1 -6 4.87 0.69
-1 -2 6 3.99 0.81
3 -2 -6 4.12 0.64
3 -1 6 5.04 0.7
1 2 6 3.55 0.51
3 -2 -6 3.46 0.61
-1 -2 -6 8.71 0.83
2 1 6 9.35 0.99
2 -3 -6 9.16 0.84
-1 3 6 8.38 0.8
2 -3 -6 8.97 0.86
-3 2 6 8.73 0.82
3 -2 6 8.41 0.89
-1 3 6 7.6 0.9
3 -1 -6 9.9 0.88
-3 1 -6 9.66 0.85
1 -3 6 9.17 1.01
3 -1 -6 8.6 0.86
-1 -2 -6 9.39 0.93
-1 3 6 9.81 1.05
-2 -1 6 8.81 1.03
1 -3 6 9.69 0.92
2 1 6 8.75 0.93
2 -3 -6 8.06 0.91
-3 2 6 9.34 1.04
-2 3 -6 9.06 0.82
3 -2 6 8.01 0.98
-3 1 -6 7.68 0.85
3 -3 6 279.54 21.33
0 -3 6 286.75 21.32
-3 0 6 317.69 21.31
-3 0 6 305.59 21.37
0 3 -6 273.48 21.28
-3 3 -6 314.06 21.3
0 3 6 330.77 21.41
0 -3 6 282.25 21.36
3 -3 -6 292.42 21.35
0 3 6 288.7 21.28
-3 0 -6 305.17 21.3
3 0 6 321.02 21.4
3 -3 6 278.69 21.37
0 -3 6 276.79 21.36
-3 0 -6 304.24 21.36
0 -3 -6 296.13 21.36
-3 3 6 261.57 21.29
3 -3 -6 288.76 21.31
0 -3 -6 302.77 21.29
3 0 6 309.03 21.36
-3 3 6 309.21 21.39
-4 2 6 7.19 0.94
-4 2 6 7.98 0.77
4 -2 -6 8.59 0.83
2 -4 6 7.3 0.93
-4 2 -6 7.15 0.74
2 -4 6 6.93 0.83
-2 -2 6 7.78 0.96
-2 -2 -6 7.65 0.89
2 2 6 7.04 0.67
4 -2 6 7.89 0.87
2 -4 -6 6.88 0.85
-2 -2 -6 7.02 0.74
-2 -2 -6 5.79 0.66
4 -2 6 7.89 0.94
2 -4 -6 6.35 0.77
-2 4 6 6.83 0.7
4 -2 -6 7.41 0.78
-2 4 6 7.73 0.94
-2 4 -6 7.47 0.73
-4 2 -6 7.99 0.79
-2 -2 6 7.3 0.87
2 2 6 7.48 0.93
-1 -3 6 34.72 2.56
4 -1 6 34.46 2.65
1 3 6 32.56 2.63
1 -4 -6 33.02 2.5
-3 -1 -6 35.65 2.62
1 -4 -6 32.28 2.59
-1 -3 6 34.18 2.65
4 -3 -6 33.02 2.53
4 -1 6 32.36 2.58
-3 4 6 33.75 2.65
-3 -1 -6 33.76 2.51
3 -4 6 36.77 2.58
-3 4 6 33.4 2.49
1 -4 -6 29.93 2.48
-4 3 -6 33 2.51
1 -4 -6 34.65 2.5
3 -4 6 33.76 2.63
4 -3 -6 31.41 2.57
-1 4 -6 30.32 2.5
-4 1 6 34.29 2.62
-1 -3 6 34.12 2.63
-4 1 6 33.96 2.52
1 -4 6 37.43 2.77
3 -4 -6 36.44 2.79
3 -4 -6 38.65 2.75
-3 -1 6 39.16 2.85
-3 -1 6 42.16 2.76
-1 -3 -6 33.31 2.69
-4 3 6 39.02 2.84
4 -1 -6 31.48 2.76
4 -3 6 38.09 2.8
1 -4 6 36.87 2.85
-1 -3 -6 35.78 2.8
-3 4 -6 33.03 2.78
4 -3 6 35.88 2.83
-4 1 -6 39.55 2.74
-4 3 6 36.32 2.72
-1 -3 -6 33.41 2.71
3 1 6 40.07 2.86
3 1 6 32.19 2.77
-3 4 -6 38.85 2.73
4 -1 -6 34.41 2.77
-4 1 -6 36.02 2.8
-3 -1 6 35.83 2.8
-1 4 6 35.19 2.68
0 -4 6 5.91 0.83
-4 0 -6 5.61 0.82
0 -4 -6 5.12 0.63
-4 4 -6 4.78 0.71
0 -4 6 5.89 0.74
0 4 -6 5.32 0.64
-4 4 6 5.85 0.87
0 4 6 5.4 0.86
-4 4 -6 5.65 0.66
-4 0 -6 5.08 0.69
0 -4 6 4.92 0.88
0 -4 -6 6.35 0.66
-4 0 6 4.39 0.69
4 -4 -6 5.07 0.7
4 0 6 4.6 0.72
0 -4 -6 5.2 0.8
4 -4 6 4.72 0.81
4 0 6 6.46 0.88
4 0 -6 5.8 0.8
-4 4 6 5.61 0.63
-4 0 6 5.84 0.85
4 -4 6 6.34 0.76
4 -4 -6 5.88 0.71
-4 0 6 6.37 0.73
0 -4 -6 4.54 0.58
-5 2 6 44.23 3.29
-2 5 -6 41.23 3.27
3 -5 6 42.8 3.33
-3 -2 -6 40.96 3.27
-5 2 6 41.03 3.37
2 3 6 44.49 3.41
-2 -3 6 44.85 3.41
5 -2 6 48.69 3.38
-3 -2 -6 42.19 3.27
5 -2 6 47.59 3.42
2 -5 -6 45.27 3.37
5 -3 -6 46.29 3.34
2 -5 -6 45.01 3.29
-3 5 6 47.13 3.43
-3 -2 -6 46.07 3.4
3 -5 6 44.24 3.41
5 -3 -6 37.22 3.34
-3 5 6 44.9 3.26
2 -5 -6 42.04 3.27
-5 3 -6 48.24 3.31
-2 -3 6 46.76 3.43
-2 -3 -6 32.93 2.65
-2 -3 -6 32.99 2.66
3 -5 -6 35.19 2.69
5 -3 6 36.26 2.81
-2 -3 -6 38.21 2.8
3 2 6 37 2.82
-3 5 -6 32.74 2.66
2 -5 6 36.71 2.82
2 -5 6 35.44 2.72
-2 5 6 38.05 2.84
-5 2 -6 37.13 2.7
-5 2 -6 35.41 2.75
3 -5 -6 29.68 2.65
3 -5 -6 35.82 2.77
-5 3 6 36.1 2.69
5 -2 -6 35.27 2.74
-5 3 6 35.24 2.78
5 -2 -6 36.67 2.77
-3 -2 6 36.01 2.82
-3 -2 6 39.32 2.82
5 -3 6 38.29 2.78
-3 -2 6 37.36 2.71
1 -5 -6 47.86 3.47
-1 -4 6 47.06 3.6
5 -1 6 49.85 3.57
-4 5 6 47.24 3.6
-4 -1 -6 39.78 3.46
-4 -1 -6 50.87 3.6
5 -4 -6 46.82 3.55
-5 1 6 44.86 3.56
4 1 -6 46.23 3.56
1 -5 -6 39.8 3.44
-5 1 6 50.01 3.5
-1 -4 6 49.57 3.62
-1 5 -6 46.38 3.47
1 -5 -6 53.9 3.61
-4 5 6 47.16 3.47
5 -4 -6 45.03 3.5
4 -5 6 46.09 3.59
-4 -1 -6 42.35 3.47
4 -5 6 50.42 3.54
-5 4 -6 49.21 3.49
5 -1 6 50.67 3.6
1 -5 -6 44.37 3.46
1 4 6 46.46 3.59
5 -4 6 45.47 3.64
-5 1 -6 49.31 3.63
1 -5 6 48.42 3.58
-5 1 -6 51.14 3.56
-4 -1 6 53.89 3.57
5 -4 6 44.24 3.59
-4 5 -6 50.07 3.54
-4 5 -6 44.64 3.62
4 1 6 51.85 3.67
4 -5 -6 49.18 3.56
-4 -1 6 44.25 3.63
-1 5 6 53.71 3.7
5 -1 -6 49.45 3.61
-1 -4 -6 47.43 3.63
1 -5 6 46.99 3.67
-5 4 6 45.07 3.54
4 -5 -6 42.6 3.59
-1 -4 -6 48.43 3.53
-1 -4 -6 44.5 3.51
-5 4 6 46.88 3.64
-4 -1 6 48.23 3.64
5 0 -6 134.07 8.76
5 -5 6 117.03 8.73
5 -5 -6 115.99 8.75
-5 0 6 127.27 8.7
0 -5 6 125.59 8.81
-5 5 6 124.54 8.69
0 -5 6 125.34 8.72
5 -5 6 106.85 8.76
-5 0 -6 115.32 8.69
0 5 6 119.08 8.79
-5 0 6 118.05 8.75
0 -5 -6 117.48 8.66
0 -5 6 126.25 8.8
-5 5 -6 106.22 8.75
0 -5 -6 117.66 8.67
5 -5 -6 121.9 8.71
-5 5 -6 129.59 8.69
5 0 6 124.33 8.78
-5 0 -6 104.17 8.76
-5 5 6 121.9 8.78
3 -6 6 11.02 1.05
-6 3 -6 10.79 1.04
3 -6 -6 12.59 1.01
-6 3 6 8.94 1.1
3 -6 -6 10.4 0.93
-3 -3 6 9.93 1.22
-3 -3 -6 9.93 0.93
-3 6 -6 10.38 0.96
6 -3 6 11.05 1.14
-3 -3 -6 9.79 1.13
3 -6 6 10.99 1.2
6 -3 6 9.52 1.15
3 3 6 9.14 1.14
6 -3 -6 10.87 1.08
-3 6 6 11.14 1.21
3 -6 -6 12.65 1.19
-6 3 6 10.63 0.99
-3 -3 6 11.57 1.23
-4 -2 -6 26.8 2.11
-2 -4 6 25.53 2.13
6 -2 6 26.2 2.09
6 -4 -6 25.68 2.03
2 -6 -6 25.1 1.95
4 -6 6 26.8 2.04
-2 6 -6 26.04 1.96
4 -6 6 26.39 2.14
2 -6 -6 24.23 1.94
6 -2 6 27.04 2.11
-4 6 6 25.83 2.13
-4 6 6 21.99 1.91
4 2 -6 26.17 2.07
-6 2 6 21.16 2.03
-2 -4 6 26.95 2.17
-6 2 6 26.83 1.99
2 4 6 25.38 2.11
2 -6 -6 25.03 2.09
-6 4 -6 26.31 2
-4 -2 -6 23.62 1.94
-6 4 6 12.19 1.15
-2 6 6 12.76 1.36
-4 -2 6 13.32 1.31
6 -2 -6 11.69 1.24
-4 6 -6 12.44 1.14
-4 -2 6 14.18 1.21
6 -4 6 14.93 1.31
-2 -4 -6 15.47 1.33
-6 4 6 12.97 1.29
6 -2 -6 14.96 1.31
4 -6 -6 14.76 1.32
2 -6 6 13.97 1.37
4 2 6 11.72 1.26
-4 6 -6 11.88 1.32
6 -4 6 12.91 1.31
4 -6 -6 14.2 1.18
-2 -4 -6 12.89 1.08
-4 -2 6 12.96 1.36
-2 -4 -6 13.12 1.1
4 -6 -6 13.22 1.13
-6 2 -6 14.25 1.22
2 -6 6 14.35 1.23
-5 6 6 31.41 2.43
5 -6 6 33.97 2.36
-1 -5 6 31.11 2.31
-6 1 6 24.95 2.32
1 -6 -6 30.18 2.25
6 -5 -6 28.28 2.36
6 -5 -6 32.71 2.34
-1 -5 6 29.58 2.47
6 -1 6 28.96 2.35
-5 -1 -6 31.46 2.27
-5 -1 -6 33.61 2.43
-6 5 -6 34.55 2.31
1 5 6 30.42 2.41
-6 5 -6 25.54 2.36
6 -1 6 27.11 2.35
-6 1 6 26.75 2.36
5 1 -6 26.64 2.34
5 -6 6 27.16 2.4
-5 6 6 29.53 2.26
-6 1 6 32.48 2.31
-5 -1 -6 28.11 2.26
-1 -5 6 31.37 2.47
1 -6 6 31.03 2.47
5 -6 -6 33.26 2.42
5 1 6 27.71 2.36
-1 -5 -6 29.18 2.24
-5 -1 6 29.52 2.43
6 -1 -6 28 2.37
-5 6 -6 27.36 2.27
6 -5 6 29.65 2.4
-1 6 6 31.84 2.45
-6 5 6 29.73 2.4
6 -5 6 29.8 2.37
-5 -1 6 33.16 2.33
-6 5 6 29.68 2.29
-5 6 -6 27.23 2.42
1 -6 6 31.75 2.33
-5 -1 6 25.84 2.35
-6 1 -6 31.99 2.32
5 -6 -6 31.72 2.33
0 -6 6 0.58 0.37
-6 6 6 0.73 0.38
6 0 -6 0.58 0.45
0 -6 -6 0.29 0.25
6 0 6 0.3 0.31
6 -6 6 0.91 0.54
-6 0 6 0.86 0.55
-6 0 -6 0.74 0.41
6 0 -6 0.24 0.33
0 -6 6 0.93 0.59
0 -6 6 0.83 0.51
6 -6 -6 1.12 0.51
6 -6 6 1.16 0.44
0 6 6 1.25 0.46
0 -6 -6 1.09 0.32
-6 0 -6 0.68 0.33
-6 6 -6 0.56 0.56
6 -6 -6 0.95 0.47
-6 6 -6 1.06 0.43
-6 6 6 0.8 0.41
0 -6 -6 1.13 0.59
-6 0 6 0.69 0.44
3 4 6 50.62 4.1
-3 7 -6 53.14 4
-4 7 6 54.2 4.18
4 -7 6 59.32 4.2
7 -4 -6 57.58 4.09
-4 -3 -6 53.24 4.12
7 -3 6 56.08 4.12
-3 -4 6 57.45 4.22
-7 3 6 56.7 4.04
-4 -3 -6 52.42 3.99
3 -7 -6 50.25 3.99
4 -7 6 52.66 4.05
-3 -4 6 52.79 4.06
7 -4 -6 49.02 4.11
3 -7 -6 61.61 4.18
-3 -4 6 53.13 4.14
-7 4 6 39.81 3.41
3 -7 6 45.77 3.4
-4 -3 6 44.75 3.37
7 -3 -6 52.08 3.49
-7 4 6 49.28 3.38
-4 -3 6 45.29 3.54
4 -7 -6 44.2 3.34
-3 7 6 47.08 3.54
4 3 6 38.07 3.41
7 -4 6 42.34 3.44
-4 -3 6 40.23 3.44
7 -3 -6 39.78 3.4
3 -7 6 49.24 3.57
-4 7 -6 44.91 3.51
-3 -4 -6 44.52 3.32
-7 3 -6 51.82 3.41
-4 7 -6 41.31 3.34
4 -7 -6 46.91 3.37
7 -4 6 48.3 3.47
2 -7 -6 0.21 0.19
7 -2 6 -0.24 0.26
-2 -5 6 -0.12 0.6
-5 -2 -6 0.42 0.24
-5 -2 -6 0.14 0.48
2 -7 -6 0.83 0.3
5 2 -6 -0.45 0.34
2 -7 -6 -0.45 0.5
-5 -2 -6 0.44 0.32
2 5 6 0.08 0.35
5 -7 6 0.53 0.46
-7 2 6 0.2 0.22
-2 -5 6 0.07 0.39
-5 7 6 -0.01 0.2
5 -7 6 0.5 0.48
-2 -5 6 0.36 0.46
-2 7 -6 0.09 0.29
7 -5 -6 0.39 0.49
7 -5 -6 0.49 0.49
-7 5 -6 0.77 0.47
-7 2 6 0.31 0.45
7 -2 6 0.11 0.46
-5 7 6 0.54 0.47
-7 2 6 0.18 0.43
-7 5 -6 0.67 0.47
-5 -2 6 2.5 0.53
5 -7 -6 3.14 0.67
-2 7 6 2.6 0.58
7 -2 -6 2.18 0.54
-2 -5 -6 3.64 0.73
7 -5 6 2.53 0.49
2 -7 6 3.11 0.55
-5 -2 6 3 0.78
7 -2 -6 2.53 0.59
-7 5 6 2.62 0.48
2 -7 6 1.62 0.43
-7 2 -6 2.75 0.53
2 -7 6 3.45 0.64
-2 -5 -6 2.6 0.5
5 -7 -6 2.47 0.52
5 -7 -6 2.36 0.46
-5 7 -6 2.56 0.75
7 -5 6 4.16 0.68
-7 5 6 1.75 0.46
-5 7 -6 3.42 0.49
-7 6 -6 120.17 10.21
-1 -6 6 143.17 10.26
-1 -6 6 127.48 10.25
-7 1 6 129.74 10.23
-6 7 6 145.74 10.26
-1 -6 6 155.41 10.18
7 -6 -6 154.05 10.18
1 -7 -6 144.93 10.11
-7 1 6 154.63 10.16
6 -7 6 155.84 10.2
6 -7 6 133.24 10.23
1 6 6 136.55 10.24
-6 -1 -6 134.41 10.23
6 1 -6 123.92 10.18
-6 -1 -6 139.35 10.13
-6 7 -6 134.48 10.29
-7 6 6 132.64 10.26
-7 1 -6 124.89 10.17
-1 7 6 130.64 10.3
7 -6 6 149.27 10.25
1 -7 6 154.27 10.21
7 -1 -6 155.51 10.26
7 -6 6 124.29 10.25
-6 -1 6 152.48 10.2
6 -7 -6 139.73 10.19
7 -1 -6 126.84 10.25
-7 1 -6 132.26 10.18
-1 -6 -6 145.61 10.14
1 -7 6 141.66 10.21
-7 6 6 139.07 10.17
-6 7 -6 141.35 10.17
6 -7 -6 153.71 10.28
-6 -1 6 140.13 10.31
1 -7 6 151.65 10.33
0 -7 -6 140.98 9.32
-7 0 -6 110.76 9.33
7 -7 6 137.45 9.42
-7 7 6 128.31 9.46
-7 7 6 116.3 9.33
7 -7 6 118.24 9.44
-7 0 6 123.21 9.47
-7 0 6 145.03 9.38
7 -7 -6 136 9.47
0 -7 6 114.06 9.46
-7 7 -6 118.56 9.34
0 7 6 133.55 9.5
-7 7 -6 115.27 9.46
0 -7 6 141.42 9.51
7 0 -6 111.05 9.4
7 -7 -6 136.67 9.39
0 -7 -6 147.71 9.5
-7 0 -6 133.32 9.36
0 -7 6 141.18 9.39
-4 -4 -6 77.21 5.62
-4 -4 6 78.68 5.7
4 -8 -6 84.16 5.65
4 -8 6 76.91 5.54
4 -8 6 85.44 5.71
-4 8 -6 66.23 5.46
8 -4 -6 66.06 5.58
-4 -4 6 65.33 5.49
8 -4 6 69.94 5.57
-4 -4 -6 68.37 5.45
8 -4 -6 75.96 5.57
-4 -4 6 75.59 5.54
-8 4 6 76.79 5.52
4 -8 -6 78.12 5.49
-8 4 -6 80.71 5.54
3 -8 -6 65.45 5.26
8 -5 -6 66.97 5.4
5 -8 6 76.2 5.49
3 -8 -6 80.65 5.47
8 -3 6 67.09 5.38
-5 -3 -6 64.24 5.26
8 -5 -6 80.57 5.39
5 -8 6 71.99 5.34
-8 5 -6 77.01 5.34
-3 -5 6 78.11 5.35
-8 3 6 76.27 5.33
-3 -5 6 71.78 5.49
-3 -5 6 59.9 5.38
-5 8 6 76.19 5.47
-5 -3 -6 71.27 5.42
-8 5 6 72.49 5.36
8 -5 6 73.56 5.46
-5 -3 6 70.58 5.39
-5 8 -6 66.32 5.33
5 -8 -6 70.42 5.35
5 -8 -6 73.64 5.35
3 -8 6 77.73 5.39
-5 -3 6 70.73 5.54
8 -3 -6 69.23 5.45
-3 -5 -6 74.23 5.49
-8 3 -6 77.85 5.39
-5 8 -6 69.07 5.51
3 -8 6 81.53 5.57
-3 -5 -6 75.14 5.31
8 -3 -6 72.27 5.43
-5 -3 6 72.01 5.36
2 6 6 4.91 0.88
-6 -2 -6 5.97 0.91
8 -6 -6 6.89 0.95
-2 -6 6 7.64 0.91
6 -8 6 5.97 1.08
-8 6 -6 7.71 0.94
6 -8 6 7.5 0.94
2 -8 -6 7.27 0.72
-6 -2 -6 6.43 0.74
-2 -6 6 5.26 1.07
-8 6 -6 5.87 0.9
-8 2 6 7.87 0.9
2 -8 -6 7.19 1.16
-6 8 6 7.83 1.14
-2 -6 6 7.53 1.11
2 -8 6 7.36 0.97
-8 2 -6 7.41 0.96
-2 -6 -6 8.17 0.78
-6 -2 6 7.64 1.22
8 -2 -6 8.94 1.04
-6 8 -6 7.42 1.19
-6 -2 6 7.37 0.93
-2 8 6 9.48 1.23
2 -8 6 9.43 1.31
8 -6 6 7.42 0.97
6 -8 -6 8.18 0.95
6 -8 -6 8.32 0.88
8 -2 -6 8.58 1
-8 6 6 7.4 0.88
2 -8 6 8.31 0.99
-2 -6 -6 8.28 1.12
6 -8 -6 9.07 1.19
-6 8 -6 7.89 0.87
-8 7 -6 78.24 5.4
-1 -7 6 81.6 5.42
8 -7 -6 74.92 5.43
-1 -7 6 74.51 5.55
1 -8 -6 78.07 5.34
-1 -7 6 65.39 5.52
-8 7 -6 61.95 5.49
7 -8 6 68.32 5.51
-8 1 6 76.32 5.41
1 7 6 65.08 5.49
1 -8 -6 84.28 5.56
-7 -1 -6 71.92 5.37
7 -8 6 70.89 5.44
1 -8 6 75.72 5.27
-1 -7 -6 79.58 5.22
-7 8 -6 63.76 5.2
-7 8 -6 66.88 5.03
7 -8 -6 60.28 5.04
1 -8 6 61.78 5.17
8 -1 -6 58.11 5.09
-7 -1 6 62.66 5.2
-8 7 6 68.27 5.04
1 -8 6 76.68 5.09
-7 -1 6 67.58 5.06
-8 1 -6 67.28 5.05
7 -8 -6 75.5 5.09
-1 -7 -6 71.73 4.99
-8 1 -6 66.5 5.05
-8 7 6 65.32 5.14
8 -7 6 76.82 5.16
8 -8 -6 58.77 4.15
0 -8 6 55.01 4
8 -8 6 55.57 4.07
0 -8 -6 55.34 3.9
-8 0 6 48.57 4.11
0 -8 6 52.74 4.19
-8 0 -6 54.2 3.98
-8 0 6 56.99 4
-8 8 -6 45.23 4.11
0 -8 -6 56.37 4.14
8 -8 -6 56.81 4.02
0 -8 6 47.17 4.12
-8 8 -6 48.25 3.96
4 -9 -6 11.54 1
-9 5 -6 10.97 1.19
5 -9 6 10.55 1.17
-9 4 6 10.94 1.14
9 -4 6 8.12 1.15
-5 -4 -6 10.54 1.34
-5 -4 -6 9.45 0.96
9 -5 -6 12.27 1.26
5 -9 6 12.2 1.54
9 -5 -6 12.75 1.27
-4 -5 6 11.25 1.13
4 -9 -6 10.81 1.38
-4 -5 6 10.63 1.38
-9 5 6 18.05 1.49
5 -9 -6 17.6 1.69
9 -5 6 16.47 1.59
-4 -5 -6 16.92 1.36
4 -9 6 17.67 1.52
-5 -4 6 18.04 1.5
4 -9 6 16.14 1.47
5 -9 -6 17.22 1.41
9 -4 -6 17.84 1.58
-5 -4 6 18.11 1.76
4 -9 6 17.65 1.88
9 -4 -6 14.87 1.53
-5 -4 6 13.74 1.37
-9 4 -6 16.38 1.51
-4 -5 -6 16.08 1.62
6 -9 6 16.98 1.85
-6 -3 -6 16.33 1.44
9 -6 -6 18.55 1.7
-3 -6 6 16.66 1.8
3 -9 -6 19.9 1.82
-9 3 6 16.95 1.6
-9 6 -6 18.55 1.62
-6 -3 -6 17.58 1.71
6 -9 6 17.92 1.6
-3 -6 6 19 1.56
3 -9 -6 17.57 1.45
9 -6 -6 20.11 1.68
6 -9 -6 9.6 1.04
-9 6 6 11.33 1.12
9 -3 -6 10.99 1.24
3 -9 6 11.68 1.21
9 -3 -6 10.34 1.26
9 -6 6 11.92 1.32
3 -9 6 13.31 1.6
-3 -6 -6 12.44 1.43
-6 -3 6 12.28 1.45
-6 -3 6 11.18 1.1
3 -9 6 11.76 1.18
-9 3 -6 11.8 1.21
-3 -6 -6 13 1.03
-6 9 -6 10.42 1.43
6 -9 -6 12.29 1.13
6 -9 -6 13.85 1.44
-6 -3 6 13.77 1.19
2 -9 -6 129.47 8.92
7 -9 6 127.59 9.01
7 -9 6 112.98 9.1
-9 2 6 138.11 9
2 -9 -6 127.88 9.09
9 -7 -6 104.39 9.05
-9 7 -6 134.76 8.99
-2 -7 6 114.42 9.11
9 -7 -6 134.88 9.02
-2 -7 6 125.06 8.98
-7 -2 -6 113.92 9.05
-7 -2 -6 115.06 8.93
2 -9 6 105.38 7.91
7 -9 -6 119.59 8.04
-2 -7 -6 113.35 7.84
2 -9 6 116.77 7.93
-9 2 -6 101.54 7.9
-7 -2 6 91.42 8.04
7 -9 -6 116.71 7.91
-7 9 -6 102.6 8.07
7 -9 -6 108.6 7.91
-7 9 -6 100.84 7.87
-9 7 6 111.21 7.9
9 -7 6 109.32 7.99
-7 -2 6 100.94 7.89
-2 -7 -6 118.38 8.05
1 -9 -6 1.68 0.65
-1 -8 6 1.31 0.51
9 -8 -6 1.46 0.71
-9 8 -6 2.23 0.71
-9 1 6 1.86 0.64
8 -9 6 1.52 0.5
-1 -8 6 2.27 0.72
8 -9 6 3.01 0.66
-9 1 6 2.96 0.62
-9 8 6 1.85 0.4
-1 -8 -6 2.23 0.67
-9 1 -6 1.73 0.4
1 -9 6 2.37 0.68
-8 9 -6 2.62 0.85
8 -9 -6 1.43 0.43
-8 -1 6 1.9 0.5
-8 9 -6 2.48 0.46
8 -9 -6 3.35 0.79
1 -9 6 2.94 0.76
-1 -8 -6 2.9 0.49
9 -8 6 3.5 0.78
-9 1 -6 2.53 0.54
-8 -1 6 2.96 0.78
-9 0 6 67.89 5.21
-9 0 -6 79.89 5.23
0 -9 -6 78.48 5.13
9 -9 -6 74.54 5.24
0 -9 6 65.89 5.37
0 -9 6 58.78 5.33
0 -9 6 75.29 5.22
-9 9 -6 60.73 5.17
5 -10 -6 190.24 13.45
5 -10 6 169.7 13.33
-5 -5 6 184.94 13.34
-5 -5 -6 178.89 13.42
10 -5 -6 178.93 13.39
-5 -5 -6 189.62 13.27
-10 5 6 208 13.35
-10 5 -6 202.11 13.36
-5 -5 6 177.32 13.51
5 -10 6 166.07 13.34
5 -10 -6 179.34 13.29
-4 -6 6 60.1 4.38
4 -10 -6 55.61 4.48
4 -10 -6 54.66 4.3
10 -6 -6 64.35 4.47
-6 -4 -6 59.03 4.51
6 -10 6 55.44 4.38
6 -10 6 62.45 4.64
-4 -6 6 54.38 4.56
-10 6 -6 64.26 4.42
-10 4 6 61.48 4.4
-6 -4 -6 52.13 4.28
-10 4 -6 67.32 4.98
10 -4 -6 64.78 5.03
-10 6 6 59.43 4.94
-6 10 -6 68.01 5.17
-6 -4 6 63.17 5.16
-6 -4 6 72.07 4.99
6 -10 -6 66.76 5.09
4 -10 6 66.33 4.99
-4 -6 -6 75.5 5.12
6 -10 -6 66.23 4.93
10 -6 6 63.02 5.04
-4 -6 -6 68.54 4.87
-7 -3 -6 0.95 0.62
-10 3 6 1.59 0.59
-3 -7 6 1.32 0.51
3 -10 -6 0.86 0.71
10 -7 -6 0.82 0.59
-10 7 -6 0.86 0.6
-3 -7 6 1.11 0.77
10 -7 -6 1.77 0.67
7 -10 6 0.81 0.58
-10 3 6 0.13 0.57
-10 7 -6 0.5 0.58
-7 -3 -6 1.75 0.4
3 -10 6 2.16 0.75
-3 -7 -6 3.03 0.52
7 -10 -6 3.05 0.56
-7 -3 6 1.42 0.76
-3 -7 -6 1.86 0.72
7 -10 -6 2.04 0.69
10 -3 -6 2.39 0.61
-10 7 6 2.58 0.52
-10 3 -6 2.68 0.59
-7 -3 6 3.55 0.63
10 -7 6 2.2 0.64
3 -10 6 3.71 0.64
-7 10 -6 2.3 0.86
8 -10 6 107.19 8.43
-10 8 -6 103.8 8.39
-2 -8 6 107.54 8.38
-10 2 6 124.92 8.43
2 -10 -6 115.79 8.52
2 -10 -6 120.31 8.33
10 -8 -6 114.22 8.44
-8 -2 -6 113.86 8.36
10 -8 -6 127.84 8.55
8 -10 -6 109.1 7.85
2 -10 6 113.46 7.86
10 -8 6 102 7.91
-8 10 -6 106.67 8.02
-2 -8 -6 107.93 7.94
-8 -2 6 104.22 7.86
10 -9 -6 12.41 1.26
-10 1 6 10.36 1.16
1 -10 -6 10.42 1.31
-10 9 -6 11.06 1.11
1 -10 -6 13.72 1.05
9 -10 6 13.27 1.33
-1 -9 6 9.59 1.34
-9 -1 -6 14.13 1.22
-1 -9 6 12.43 1.19
-9 -1 6 5.17 0.65
-9 10 -6 3.97 0.55
-9 -1 6 4.62 1
9 -10 -6 3.79 0.65
-9 10 -6 5.11 1
0 -10 6 21.98 2
-10 0 6 21.81 1.78
10 -10 -6 22.09 1.8
-5 -6 6 8.72 1.39
-11 5 6 12.71 1.24
-6 -5 -6 12.84 1.05
-6 -5 -6 11.55 1.39
6 -11 6 11.04 1.13
5 -11 -6 13.17 1.09
-5 -6 6 12.07 1.19
6 -11 6 13.57 1.64
11 -6 -6 9.66 1.26
-11 6 -6 11.84 1.25
5 -11 -6 10.13 1.34
11 -6 -6 10.61 1.25
-5 -6 -6 21.63 1.61
-5 -6 -6 20.29 1.93
5 -11 6 22.31 2.21
-11 6 6 20.8 1.73
6 -11 -6 21.33 1.69
-6 -5 6 21.59 1.76
11 -5 -6 19.26 1.79
-11 5 -6 18.73 1.76
5 -11 6 21.66 1.8
6 -11 -6 18.48 1.87
-6 -5 6 17.34 1.95
-4 -7 6 85 5.44
-7 -4 -6 78.82 5.36
7 -11 6 64.2 5.61
-7 -4 -6 76.32 5.56
4 -11 -6 72.98 5.54
11 -7 -6 67.26 5.48
-4 -7 6 66.5 5.59
7 -11 -6 93.56 6.58
-4 -7 -6 83.17 6.52
-11 4 -6 80.19 6.42
4 -11 6 94.94 6.46
-11 7 6 75.09 6.39
-7 -4 6 97.42 6.46
-4 -7 -6 97.36 6.34
7 -11 -6 90.67 6.42
-7 11 -6 72.34 6.58
-11 3 6 49.32 3.3
-8 -3 -6 44.77 3.21
3 -11 -6 39.67 3.35
-8 -3 -6 37.75 3.35
-3 -8 6 48.79 3.27
-11 8 -6 46.84 3.3
8 -11 6 36.42 3.24
11 -8 -6 36.87 3.35
8 -11 -6 43.5 3.39
-3 -8 -6 42.74 3.5
-8 -3 6 45.33 3.41
3 -11 6 42.6 3.65
3 -11 6 43.59 3.41
-3 -8 -6 48.83 3.29
8 -11 -6 43.49 3.53
-11 2 6 4.83 0.74
11 -9 -6 2.58 0.68
9 -11 6 4.11 0.74
11 -9 -6 5.24 0.82
-11 9 -6 3.99 0.63
-2 -9 6 3.17 0.79
-2 -9 6 5.24 0.81
11 -9 6 3.19 0.69
2 -11 6 4.21 0.82
-11 2 -6 2.89 0.58
-2 -9 -6 3.18 0.76
9 -11 -6 2.73 0.7
9 -11 -6 1.97 0.51
2 -11 6 2.17 0.67
-9 11 -6 1.28 0.75
-9 -2 6 3.82 0.65
10 -11 6 11.52 1.16
11 -10 -6 10.34 1.27
-1 -10 -6 5.77 0.84
1 -11 6 7.13 1.03
11 -11 6 4.2 0.79
-12 6 -6 92.71 7.64
6 -12 -6 114.47 7.61
6 -12 6 104.07 7.67
-6 -6 6 112.96 7.65
6 -12 6 96.14 7.86
-12 5 6 76.1 5.29
12 -7 -6 76.9 5.35
-7 -5 -6 68.74 5.38
7 -12 6 62.39 5.48
-12 5 -6 42.98 3.45
-12 7 6 48.05 3.45
12 -8 -6 42.74 3.21
-12 8 -6 39.61 3.16
-12 4 6 40.92 3.16
-4 -8 -6 30.68 2.36
8 -12 -6 25.77 2.33
-12 3 6 13.57 1.29
12 -9 -6 14.54 1.44
12 -9 -6 14.91 1.36
9 -12 -6 11.3 1.14
3 -12 6 6.47 1.21
-3 -9 -6 9.2 1.01
3 -12 6 7.44 1.1
12 -10 -6 0.93 0.5
10 -12 6 -0.21 0.52
-12 10 -6 1.06 0.62
-12 2 6 -0.05 0.44
-10 -2 -6 1.94 0.53
-2 -10 6 0.11 0.63
-10 -2 6 1.26 0.4
12 -10 6 0.65 0.48
2 -12 6 2.16 0.56
-1 -11 6 33.44 2.68
1 -12 -6 34.56 2.56
-11 -1 -6 34.39 2.7
1 -12 6 36.23 2.84
-1 -11 -6 41.83 2.72
-12 1 -6 30.51 2.8
0 -12 -6 5.22 0.64
0 -12 6 4.58 0.87
-12 0 -6 5.49 0.84
5 -13 6 24.6 2.13
-8 -5 6 25.8 2.12
-5 -8 -6 28 1.97
8 -13 -6 23.12 2.08
-9 -4 6 22.06 1.91
4 -13 6 23.6 1.96
9 -13 -6 18.55 1.88
-4 -9 -6 25.43 1.76
-3 -10 6 0.75 0.48
3 -13 -6 1.06 0.39
-10 -3 -6 0.86 0.51
-3 -10 -6 0.41 0.35
3 -13 6 0.48 0.51
-10 -3 6 0.51 0.4
-2 -11 6 10.66 1.17
-11 -2 -6 11.7 1.23
2 -13 -6 11.6 1.02
-1 -12 6 7.85 1.06
-12 -1 -6 9.07 1.05
1 -13 -6 8.99 0.84
1 -13 6 7.53 1.05
-1 -12 -6 9.37 0.86
-13 0 -6 14.49 1.29
-7 -7 6 96.65 6.93
7 -14 -6 91.31 6.88
-6 -8 6 7.33 1.03
6 -14 -6 8.14 0.95
-8 -6 -6 9.61 1.02
6 -14 6 2.41 0.59
8 -14 -6 3.25 0.59
-8 -6 6 2.5 0.6
-5 -9 6 0.68 0.52
5 -14 -6 1.07 0.45
-9 -5 -6 0.92 0.56
-5 -9 -6 1.98 0.45
5 -14 6 1.2 0.55
-9 -5 6 1.58 0.54
9 -14 -6 0.86 0.51
-4 -10 6 15.14 1.5
4 -14 -6 17.35 1.41
-10 -4 -6 17.05 1.52
10 -14 -6 18.2 1.65
-10 -4 6 20.51 1.67
3 -14 -6 1.73 0.42
-11 -3 -6 1.78 0.57
-3 -11 6 1.49 0.56
-3 -11 -6 1.84 0.4
3 -14 6 1.82 0.62
-2 -12 6 1.37 0.57
2 -14 -6 1.66 0.38
-12 -2 -6 1.68 0.55
2 -14 6 1.39 0.58
-14 12 6 0.11 0.36
-14 2 -6 -0.21 0.46
-12 14 -6 0.28 0.47
-14 13 -6 6.26 0.72
-14 1 6 4.88 0.83
-13 -1 -6 4.59 0.68
-14 1 -6 1.94 0.5
-13 -1 6 1.07 0.41
-14 14 6 1.52 0.38
-14 14 6 2.36 0.49
7 -15 6 4.69 0.71
6 -15 -6 24.76 1.93
-6 -9 6 22.76 2
-10 15 6 0.03 0.4
5 -15 -6 0.27 0.4
-15 10 -6 -0.25 0.38
-5 -10 6 0.14 0.5
-10 -5 -6 0.32 0.56
-15 10 6 -0.62 0.44
-15 5 -6 -0.08 0.41
-10 -5 6 0.54 0.38
5 -15 6 0.89 0.52
10 -15 -6 -0.04 0.36
-10 15 -6 0.1 0.39
10 5 6 -0.15 0.27
-5 15 6 -0.11 0.28
-15 10 6 -0.01 0.29
-11 15 6 0.88 0.45
-15 4 6 -0.19 0.28
-11 -4 -6 1.44 0.56
-15 11 -6 0.44 0.44
-15 11 -6 0.08 0.27
-4 -11 6 1.39 0.54
4 -15 -6 1.34 0.41
-11 15 -6 0.14 0.43
-15 11 6 -0.65 0.55
-4 -11 -6 0.55 0.31
4 -15 6 0.52 0.49
-15 4 -6 0.06 0.47
-4 15 6 -0.05 0.29
11 4 6 0.03 0.29
-15 11 6 0 0.3
-11 -4 6 0.09 0.33
-12 15 6 3.04 0.6
-3 -12 6 2.7 0.6
3 -15 -6 3.34 0.56
-15 12 -6 1.72 0.54
-12 -3 -6 2.72 0.57
-15 12 -6 1.89 0.4
-12 15 -6 1.58 0.35
12 3 6 2.17 0.39
-15 13 -6 3.74 0.61
2 -15 -6 2.68 0.41
-13 -2 -6 3.16 0.57
13 2 6 3.57 0.71
2 -15 6 5.83 0.83
-13 -2 6 4.66 0.7
-15 2 -6 6.7 1.2
-13 15 -6 7.29 0.88
-15 13 6 5.78 0.84
-14 -1 -6 2.6 0.61
-1 -14 6 3.68 0.68
-15 14 -6 2.28 0.55
-14 15 6 2.32 0.45
-15 1 6 4.04 0.82
14 1 6 1.89 0.45
-14 -1 6 3.71 0.79
-15 14 6 3.75 0.55
-15 14 6 2.59 0.54
1 -15 6 3.01 0.66
-15 1 -6 3.16 0.76
-15 15 -6 14.66 1.64
-15 15 6 11.94 1.33
-15 15 6 13.13 1.55
-15 0 -6 13.14 1.55
-15 0 6 13.55 1.74
-8 16 6 13.43 1.22
-8 -8 6 10.27 1.11
8 -16 -6 10.52 1.08
-16 8 -6 8.35 1.13
-8 16 6 9.79 1.19
-16 8 6 9.47 1.09
-16 8 6 13.38 1.53
-8 16 -6 13.47 1.31
7 -16 -6 19.63 1.61
-7 -9 6 18.61 1.65
-9 16 6 19.59 1.63
-7 16 -6 15.99 1.66
-16 7 6 18.62 1.85
-9 16 6 22.1 1.8
9 7 6 12.53 1.07
9 -16 -6 12.16 1.12
-9 -7 6 10.5 1.1
-7 16 6 11.48 1.19
-10 16 6 -0.3 0.35
-16 6 6 -0.24 0.32
-16 10 -6 -0.56 0.6
-16 6 6 -0.57 0.44
-16 10 -6 0.01 0.34
6 10 6 -0.31 0.35
-16 6 6 -0.11 0.27
6 -16 -6 -0.08 0.38
-10 16 6 -0.42 0.65
-6 -10 6 0.15 0.44
-6 16 -6 0.44 0.4
-10 -6 -6 0.34 0.52
6 10 6 -0.03 0.26
-16 10 -6 -0.03 0.43
-10 16 -6 0.8 0.64
-6 16 6 0.04 0.39
-16 6 -6 -0.37 0.59
-16 10 6 -0.36 0.65
-6 -10 -6 0.34 0.28
10 6 6 0.03 0.43
-16 10 6 0 0.5
10 -16 -6 -0.47 0.3
6 -16 6 0.16 0.34
-6 16 6 -0.2 0.47
-10 -6 6 0.04 0.31
5 -16 -6 0.25 0.35
-11 16 6 0.58 0.76
-16 11 -6 0.47 0.74
-5 -11 6 0.92 0.46
-16 11 -6 0.26 0.3
-16 5 6 -0.12 0.31
-11 16 6 -0.07 0.32
-16 5 6 -0.5 0.37
-16 5 6 -0.23 0.29
-16 11 -6 -0.03 0.43
-5 16 -6 0.69 0.42
-11 -5 -6 0.42 0.49
5 11 6 -0.21 0.35
-5 16 6 0.32 0.41
-11 -5 6 -0.06 0.34
-5 -11 -6 0.19 0.19
-16 11 6 -0.11 0.58
-11 16 -6 0.49 0.29
11 5 6 0 0.53
-11 16 -6 1.1 0.59
-16 5 -6 0.69 0.72
-5 16 6 0.48 0.44
5 -16 6 0.38 0.35
-16 11 6 0.32 0.53
-12 -4 -6 20.38 1.88
-4 -12 6 23.54 1.93
-16 4 6 27 1.97
-12 16 -6 29.54 2.39
-4 16 6 30.91 2.3
-12 16 -6 27.68 2.28
-3 -13 6 7.5 0.86
-13 -3 6 10.33 1.28
-13 16 -6 9.01 1.1
-3 16 6 8.73 1.01
-16 13 6 12.52 1.3
-14 -2 -6 2.53 0.66
-16 14 -6 3.29 0.74
-14 16 6 1.62 0.43
-16 14 -6 3.02 0.81
-16 2 6 3.86 0.86
-14 16 6 3.75 0.89
-16 14 6 7.09 1.1
-16 2 -6 7.59 1.07
-16 14 6 4.34 0.74
-14 16 -6 7.22 1.24
-14 -2 6 5.52 0.92
-2 16 6 4.57 0.76
-15 16 6 12.51 1.77
-16 1 6 14.94 1.8
-15 -1 -6 11.59 1.59
-16 15 -6 15.09 1.59
-15 16 6 12.3 1.37
-16 15 -6 10.56 1.68
-15 16 -6 13.42 1.62
-15 -1 6 13.93 1.77
-16 15 6 13.11 1.45
-16 15 6 11.58 1.62
-16 1 -6 10.57 1.74
-16 16 -6 4.11 0.86
-16 0 -6 4.57 0.96
-16 16 -6 3.2 0.79
-16 16 6 6.83 1.24
-16 16 6 6.17 1
-9 17 6 0.38 0.76
8 -17 -6 -0.25 0.26
-8 -9 6 0.14 0.31
-8 17 -6 0.2 0.75
-17 8 6 -0.68 0.84
-17 9 -6 0.2 0.63
8 9 6 -0.26 0.38
-9 -8 -6 0.28 0.29
-17 8 6 -0.27 0.64
-17 9 -6 -0.78 0.69
-9 17 6 -0.74 0.7
-17 9 6 -0.69 0.9
-8 -9 -6 0.18 0.24
-8 17 6 0.58 0.7
9 8 6 -0.2 0.48
-17 9 6 -0.38 0.65
-8 17 6 -0.09 0.7
-9 -8 6 0.06 0.28
-17 8 -6 -0.32 0.77
-17 8 -6 -0.2 0.46
-9 17 -6 0.1 0.84
-17 7 6 -0.14 0.28
-17 10 -6 -0.08 0.28
7 -17 -6 -0.11 0.26
-10 17 6 0.49 0.87
-7 -10 6 0.41 0.31
7 10 6 0.36 0.31
-17 10 -6 0.95 0.82
-17 7 6 -0.14 0.82
-17 10 -6 0.74 0.66
-17 7 6 0.54 0.59
-10 17 6 0.02 0.65
-7 17 -6 1.16 0.68
-10 -7 -6 0.43 0.32
-10 17 -6 2.02 0.92
10 7 6 1.51 0.64
-17 7 -6 1.07 0.9
-17 10 6 1.61 1.01
-10 17 -6 0.46 0.49
-17 10 6 0.26 0.66
-7 17 6 1.55 0.71
-7 17 6 1.12 0.64
-17 6 6 22.32 1.88
-6 17 -6 20.08 1.86
-17 11 -6 21.67 1.9
-17 6 6 19.49 2.08
11 6 6 27.62 2.25
-11 17 -6 26.64 2.43
-17 11 6 25.14 2.3
-6 17 6 25.96 2.2
-17 11 6 24.7 2.53
-6 17 6 22.04 2.18
-17 6 -6 27.63 2.48
-17 5 6 13.96 1.59
-17 5 6 17.31 1.52
-17 12 -6 17.11 1.6
-17 5 6 16.47 1.54
-5 17 6 19.61 1.94
-5 17 6 20.49 1.89
-12 17 -6 21.3 1.84
-17 5 -6 25.21 2.26
-17 12 6 22.07 2.08
12 5 6 22.59 2.04
-17 12 6 20.69 2.28
-12 17 -6 23.08 2.12
-17 4 6 2.34 0.51
-17 4 6 4.22 0.73
-13 17 6 3.3 0.56
-17 13 -6 5.3 0.94
-17 4 -6 5.22 1.03
-13 17 -6 4.19 0.76
-4 17 6 3.57 0.65
-4 17 6 2.34 0.63
-17 13 6 2.87 0.87
-17 13 6 2.38 0.7
-13 -4 6 2.52 0.7
-17 3 6 9.22 1.41
-14 17 6 6.4 0.94
-14 17 6 10.73 1.73
-14 -3 -6 8.95 1.17
-17 14 6 11.25 1.4
-14 17 -6 12.86 1.56
-3 17 6 10.41 1.31
-17 14 6 12.92 1.5
-14 17 -6 13.75 1.51
-17 14 6 10.41 1.53
-14 -3 6 14.97 1.7
-17 3 -6 14.33 1.82
-3 17 6 12.45 1.33
-17 15 -6 13.19 1.98
-17 15 -6 13.88 1.6
-15 -2 -6 12.76 1.61
-15 17 6 13.84 1.85
-15 17 6 13.85 1.41
-17 2 6 15.08 1.82
-2 17 6 11.61 1.22
-15 -2 6 15.76 1.74
-17 15 6 12.06 1.47
-15 17 -6 13.88 1.58
-15 17 -6 8.5 1.19
-17 15 6 10.44 1.57
-17 2 -6 12.54 1.66
-16 -1 -6 9.55 1.59
-16 17 6 11.93 1.69
-17 16 -6 11.16 1.53
-16 17 6 12.79 1.46
-17 1 6 12.73 1.68
-17 16 -6 10.47 1.83
-16 17 -6 6.68 1.07
-1 17 6 5.76 0.92
-17 0 6 6.95 0.97
-17 0 -6 4.09 0.91
-17 17 6 5.45 0.83
-17 17 -6 3.48 0.87
-17 17 6 5.96 0.96
-17 17 -6 6.29 0.91
-18 9 6 -0.41 0.93
-9 18 6 0.94 0.76
9 9 6 0.14 0.56
-18 9 -6 0.3 0.88
-18 9 -6 1.11 0.78
-9 18 6 0.15 0.83
-9 18 -6 0.55 0.97
-18 9 6 0.41 0.73
-18 8 6 3.05 0.98
8 10 6 2.58 0.58
-8 18 -6 4.6 1
-10 18 6 5.3 0.86
-10 18 6 2.99 0.93
-18 10 -6 3.74 0.95
-18 10 -6 3.75 0.93
-18 8 6 3.75 0.83
-18 10 6 5.85 0.94
10 8 6 5.14 0.85
-18 8 -6 6.82 1.21
-18 10 6 5.88 1.17
-8 18 6 6.76 0.96
-10 18 -6 7.43 1.18
-8 18 6 4.89 0.99
-18 7 6 33.34 2.74
-18 11 -6 32.92 2.95
-11 18 6 35.28 2.73
-11 18 6 32.78 2.88
-7 18 -6 30.56 2.79
-18 7 6 29.57 2.89
-18 11 -6 30.15 2.79
-7 18 6 33.81 2.79
-11 18 -6 35.67 2.98
-18 11 6 32.19 2.83
-7 18 6 31.76 2.89
-18 11 6 35.36 3.2
11 7 6 31.11 2.79
-18 7 -6 35.45 2.99
-18 12 -6 3.12 0.89
-18 6 6 2.54 0.61
-12 18 6 3.96 1.04
-18 6 6 3.23 0.92
-18 12 -6 5.14 1.11
-12 18 6 3.77 0.8
-18 6 6 3.7 0.82
-18 12 -6 3.83 0.68
-6 18 -6 2.1 0.81
-18 6 -6 7.57 1.16
-18 12 6 3.64 1
-12 18 -6 4.54 0.77
12 6 6 4.62 0.84
-18 12 6 5.43 0.89
-6 18 6 6.65 1.01
-12 18 -6 3.97 1.02
-6 18 6 4.84 0.82
-18 5 6 3.89 0.83
-5 18 -6 3.85 0.76
-18 13 -6 4.93 0.95
-13 18 6 6.47 0.86
-18 13 -6 7.51 1.24
-18 5 6 5.17 0.78
-18 5 6 7.51 1.28
-13 18 6 7.04 1.12
-5 18 6 11.11 1.49
-5 18 6 10.63 1.37
-13 -5 6 10.79 1.41
-13 18 -6 12.21 1.79
-18 13 6 8.53 1.46
-18 5 -6 11.14 1.86
-13 18 -6 10.69 1.45
-18 13 6 11.8 1.83
-18 4 6 17.35 1.71
-18 14 -6 16 1.82
-18 14 -6 18.15 1.79
-14 18 6 17.36 1.67
-18 4 6 16.22 1.75
-14 -4 -6 13.24 1.6
-14 18 6 18.78 2.06
-18 14 -6 20.03 2.22
-4 18 6 17.3 1.84
-14 18 -6 20.54 2.07
-14 -4 6 22.33 1.96
-18 14 6 18.11 2.09
-18 4 -6 18.86 2.1
-14 18 -6 17.46 1.84
-18 14 6 15.94 1.82
-4 18 6 18.43 1.72
-18 4 -6 16.83 1.79
-18 14 6 15.96 1.71
-18 3 6 6.37 0.91
-18 15 -6 5.13 1.02
-18 3 6 3.4 0.62
-15 -3 -6 4.92 0.82
-15 18 6 3.81 0.62
-15 18 6 6.06 0.91
-15 18 6 6.64 1.03
-18 15 -6 5.25 0.84
-18 15 -6 5.21 0.83
-15 18 -6 10.5 1.51
-15 18 -6 8.32 1.41
-18 3 -6 9.81 1.47
-3 18 6 8.25 1.24
-18 15 6 9.18 1.61
-15 -3 6 12.32 1.59
-18 3 -6 10.56 1.7
-3 18 6 10.41 1.29
-18 15 6 9.95 1.44
-18 15 6 8.93 1.51
-16 18 6 6.28 1.07
-18 16 -6 6.37 1.04
-16 -2 -6 5.3 0.87
-18 2 6 4.72 0.87
-16 18 6 5.14 0.99
-18 16 -6 5.36 0.86
-18 2 -6 4.01 0.81
-18 16 6 3.54 0.9
-16 -2 6 4.97 0.87
-16 18 -6 3.92 0.83
-18 16 6 4.31 0.8
-18 2 -6 4.54 0.97
-18 17 -6 19.09 1.82
-18 17 -6 17.53 2.09
-17 18 6 19.06 1.76
-17 18 6 19.43 1.97
-17 -1 -6 16.72 1.82
-18 1 6 20.88 1.96
-18 1 -6 18.01 1.89
-18 1 -6 18.69 1.95
-17 -1 6 23.25 2.01
-18 17 6 19.12 1.9
-17 18 -6 18.9 1.89
-18 17 6 18.87 1.96
-18 0 -6 68.95 5.66
-18 0 -6 72.03 5.64
-18 18 6 79.34 5.64
-18 18 -6 70.14 5.7
-18 18 -6 80.49 5.65
-18 18 6 77.9 5.7
-18 0 6 84.19 5.7
-9 19 -6 4.62 0.99
-19 10 -6 4.08 0.96
9 10 6 4.63 0.73
-10 19 6 3.88 0.98
-19 9 6 3.61 0.83
-19 9 6 3.96 1.02
-10 19 6 5.56 0.84
-19 10 -6 4.5 0.94
-10 19 -6 6.55 1.16
-9 19 6 6.79 0.92
-19 10 6 4.63 0.85
-19 9 -6 5.99 1.14
-19 10 6 5 1.11
-9 19 6 3.79 0.98
-19 9 -6 4.25 0.93
10 9 6 5.17 0.81
-11 19 6 3.96 0.98
-19 11 -6 3.84 0.97
-11 19 6 6.32 0.89
-19 8 6 4.7 1.05
-19 8 6 5.2 0.89
8 11 6 3.62 0.65
-19 11 -6 5.49 1.02
-8 19 -6 3.89 0.98
-8 19 6 5.64 0.9
-11 19 -6 6.27 1.11
-19 11 6 5.81 1.15
-19 11 6 4.85 0.89
-8 19 6 4.29 1.02
-19 8 -6 4.06 1.07
-19 7 6 22.17 2.06
-19 12 -6 19.39 2.09
-19 12 -6 19.64 1.73
-12 19 6 20.76 2.16
-12 19 6 22.2 1.94
-19 7 6 18.44 2.18
-19 7 6 16.97 1.75
-19 12 -6 21.54 2.25
-7 19 -6 21.38 2.12
-19 7 -6 21.27 2.32
-7 19 6 19.82 1.92
-7 19 6 20.32 2.22
-19 12 6 20.16 2.06
-12 19 -6 21 1.91
-12 19 -6 22.7 2.25
-19 12 6 21.47 2.39
-19 6 6 19.95 1.97
-13 19 6 24.3 2.37
-13 19 6 22.81 2.12
-19 6 6 19.68 2.25
-19 6 6 25.11 2.23
-6 19 -6 24.33 2.2
-19 13 -6 27.03 2.46
-19 13 -6 23.81 2.04
-19 13 -6 19.79 2.24
-6 19 6 27.39 2.47
-19 6 -6 29.62 2.54
-19 13 6 27.85 2.67
-19 13 6 24.02 2.3
-6 19 6 25.54 2.25
-13 19 -6 28.15 2.31
-13 -6 6 22.15 2.18
-13 19 -6 29.67 2.54
-19 14 -6 0.31 0.81
-14 19 6 1.36 0.69
-19 14 -6 2.44 0.97
-14 19 6 0.58 0.31
-19 5 6 0.39 0.63
-19 5 6 1.27 0.64
-5 19 -6 0.53 0.66
-19 14 -6 1.61 0.72
-14 19 6 0.7 0.86
-14 -5 -6 0.91 0.45
-19 5 6 2.02 0.75
-19 5 -6 0.61 0.64
-5 19 6 0.87 0.79
-19 14 6 1.79 0.86
-14 19 -6 0.95 0.71
-14 19 -6 1.28 0.91
-19 14 6 0.42 0.54
-19 5 -6 1.53 0.92
-14 -5 6 2.08 0.72
-5 19 6 1.01 0.63
-19 14 6 0.21 0.62
-19 4 6 13.9 1.51
-19 15 -6 13.28 1.51
-15 19 6 13.67 1.45
-15 -4 -6 10.06 1.27
-19 15 -6 11.28 1.68
-19 15 -6 15.81 1.93
-19 4 6 12.76 1.51
-15 19 6 13.83 1.77
-19 4 -6 18.49 1.92
-19 15 6 18.76 1.88
-15 -4 6 24.37 2.01
-15 19 -6 19.54 1.91
-4 19 6 17.24 1.84
-15 19 -6 20.79 2.1
-19 4 -6 21.24 2.08
-19 15 6 20.6 1.96
-4 19 6 18.68 1.85
-19 15 6 20.09 2.21
-16 -3 -6 0.47 0.52
-19 3 6 0.2 0.41
-19 16 -6 0.42 0.64
-19 16 -6 1.11 0.83
-19 16 -6 0.05 0.66
-19 3 6 0.05 0.61
-16 19 6 0.99 0.83
-16 19 6 0.08 0.41
-19 3 -6 0.14 0.65
-3 19 6 0.17 0.45
-19 16 6 0.71 0.75
-16 -3 6 1.27 0.7
-19 3 -6 -0.48 0.78
-19 16 6 0.06 0.62
-16 19 -6 0.41 0.64
-16 19 -6 -0.04 0.66
-19 16 6 0.48 0.69
-19 2 6 8.78 1.29
-19 17 -6 9.52 1.31
-17 -2 -6 7.69 1.11
-17 19 6 9.49 1.52
-17 19 6 7.89 0.93
-19 17 -6 10.98 1.65
-19 17 6 4.92 0.91
-17 19 -6 6.99 0.87
-17 -2 6 9.08 1.32
-19 17 6 5.8 1.1
-19 2 -6 6.39 1.16
-19 2 -6 5.26 0.91
-19 1 6 11.62 1.37
-19 18 -6 11.61 1.29
-18 -1 -6 11.48 1.38
-18 -1 -6 8.4 1.21
-19 18 -6 11.9 1.62
-18 19 6 10.94 1.46
-18 19 6 9.69 1.05
-18 -1 6 10.69 1.31
-19 1 -6 7.99 1.18
-19 1 -6 7.58 1.22
-19 18 6 8.71 1.37
-18 19 -6 8.21 1.27
-19 18 6 9.34 1.2
-19 0 -6 0.01 0.49
-19 19 6 0.26 0.66
-19 0 6 0.4 0.57
-19 19 -6 -0.47 0.58
-19 19 6 0.65 0.35
-19 19 -6 -0.25 0.41
-19 0 -6 0.14 0.54
-20 10 -6 0.72 0.78
-10 20 6 0.1 0.67
-10 20 -6 0.74 0.89
-20 10 -6 -0.4 0.85
-20 10 6 0.08 0.69
-10 20 6 0.05 0.85
-20 10 6 0.06 0.9
-11 20 6 7.81 1.16
-11 20 6 8.92 1.37
-9 20 -6 8.58 1.5
-20 11 -6 8.77 1.13
-20 9 6 8.25 1.74
-20 9 6 9.54 1.39
-20 11 -6 9.67 1.72
-20 11 6 7.67 1.34
-20 9 -6 7.72 1.58
-11 20 -6 9.6 1.62
-20 11 6 8.67 1.88
-9 20 6 8.83 1.31
-20 9 -6 7.91 1.17
-9 20 6 8.41 1.19
-8 20 -6 20.75 2.08
-12 20 6 19.17 2.11
-20 12 -6 17.12 2.04
-12 20 6 21.21 1.92
-20 8 6 23.17 2.03
-20 12 -6 20.05 2.2
-20 8 6 19.14 2.15
-20 12 6 21.09 2.29
-20 12 6 18.21 1.9
-12 20 -6 19.19 1.75
-8 20 6 17.41 1.76
-20 8 -6 18.98 2.16
-8 20 6 20.44 2.08
-12 20 -6 19.95 2.1
-20 7 6 4.63 0.73
-13 20 6 6.42 1
-20 7 6 5.03 0.85
-13 20 6 6.71 1.15
-7 20 -6 4.29 0.97
-20 7 6 4.5 0.9
-20 13 -6 5.37 0.92
-20 13 -6 4.87 0.95
-13 20 -6 3.89 0.79
-20 13 6 5.26 0.97
-13 20 -6 4.2 0.97
-20 13 6 4.77 0.76
-7 20 6 2.92 0.7
-20 7 -6 5.92 1.01
-7 20 6 4.53 0.97
-20 6 6 25.15 2.44
-20 6 6 26.56 2.32
-14 20 6 28.67 2.35
-20 14 -6 32.82 2.75
-6 20 -6 27.9 2.51
-20 14 -6 24.39 2.48
-20 14 -6 25.07 2.28
-14 20 6 29.25 2.54
-20 6 6 31.76 2.45
-14 20 -6 21.34 1.93
-6 20 6 23.35 2.07
-14 -6 6 20.61 1.88
-20 14 6 19.11 1.89
-14 20 -6 23.93 2.18
-6 20 6 21.09 1.91
-20 6 -6 18.28 1.83
-20 14 6 23.14 2.24
-20 6 -6 23.2 2.21
-20 15 -6 23.77 1.92
-15 20 6 23.41 1.94
-5 20 -6 16.74 1.89
-20 5 6 20.28 1.98
-15 20 6 21.97 2.15
-20 15 -6 23.55 2.32
-20 15 -6 20.13 2.11
-20 5 6 24.92 2.04
-20 15 6 23.21 2.23
-20 15 6 21.08 1.95
-15 20 -6 22.88 2
-20 5 -6 23.22 2.21
-20 15 6 21.2 1.99
-5 20 6 21.31 1.98
-20 5 -6 21.14 1.99
-15 20 -6 26.06 2.15
-15 -5 6 24.4 2.02
-5 20 6 19.99 1.95
-16 20 6 3.68 0.83
-20 4 6 3.54 0.69
-20 16 -6 4.28 0.73
-16 20 6 3.31 0.62
-20 16 -6 3.61 0.79
-20 4 6 3.92 0.65
-20 16 -6 4.55 0.91
-16 20 -6 2.66 0.8
-20 16 6 2.37 0.76
-16 20 -6 2.52 0.66
-20 4 -6 2.92 0.82
-20 16 6 2.75 0.64
-20 4 -6 2 0.66
-20 16 6 3.18 0.75
-20 3 6 2.85 0.61
-17 20 6 2.97 0.75
-17 20 6 1.18 0.32
-20 17 -6 1.44 0.53
-20 17 -6 2.08 0.63
-20 3 6 1.38 0.32
-20 17 -6 2.67 0.82
-17 -3 -6 1.02 0.33
-17 -3 6 8.08 1.15
-20 3 -6 5.62 0.89
-20 17 6 4.69 0.75
-20 17 6 5.47 1.07
-20 3 -6 5.19 0.76
-20 17 6 6.96 1.23
-17 20 -6 6.31 0.82
-18 -2 -6 12.21 1.36
-20 18 -6 12.33 1.28
-20 18 -6 11.24 1.62
-20 2 6 12.3 1.33
-18 20 6 11.2 1.49
-20 2 -6 11.47 1.38
-18 -2 6 13.95 1.36
-20 18 6 11.13 1.26
-18 20 -6 12.76 1.37
-20 2 -6 10.37 1.31
-20 18 6 12.23 1.39
-20 19 -6 38.72 2.91
-19 20 6 37.47 3.01
-19 -1 -6 37.1 2.92
-20 1 6 38.62 2.96
-19 20 -6 38.24 2.78
-20 19 6 36.79 2.82
-20 1 -6 31.56 2.73
-19 -1 6 36.17 2.76
-20 0 6 15.43 1.4
-20 20 6 15.57 1.47
-20 20 -6 15.79 1.39
-20 0 -6 14.24 1.37
-21 11 -6 5.27 0.96
-21 10 6 5.37 0.82
-10 21 -6 4.36 0.94
-11 21 6 6.36 0.99
-11 21 6 5.86 0.8
-21 11 -6 4.64 0.9
-21 10 6 6.2 0.98
-10 21 6 5.61 0.79
-10 21 6 6.9 1.04
-21 11 6 6.41 0.84
-11 21 -6 4.69 0.98
-21 11 6 7.04 1.03
-21 10 -6 4.39 0.95
-21 12 -6 1.22 0.75
-12 21 6 1.84 0.82
-21 9 6 2.78 0.8
-21 9 6 2.53 0.71
-21 12 -6 1.65 0.8
-9 21 -6 2.15 0.83
-12 21 6 2.66 0.65
-21 12 6 1.7 0.66
-9 21 6 1.92 0.85
-12 21 -6 2.55 0.85
-9 21 6 1.9 0.61
-21 9 -6 1.68 0.82
-21 9 -6 1.49 0.69
-21 12 6 1.84 0.83
-12 21 -6 0.67 0.44
-21 13 -6 19.99 2.11
-13 21 6 17.53 1.91
-8 21 -6 17.07 1.92
-21 8 6 21.33 1.86
-21 8 6 18.37 1.89
-13 21 6 17.77 1.72
-21 13 -6 16.34 1.84
-21 8 -6 14.73 1.73
-21 13 6 15.14 1.58
-13 21 -6 16.48 1.86
-21 13 6 17.63 2.02
-13 21 -6 15.03 1.56
-8 21 6 17.19 1.81
-8 21 6 14.07 1.52
-7 21 -6 6.8 0.97
-14 21 6 5.5 0.89
-14 21 6 4.99 0.73
-21 14 -6 5.48 0.97
-21 7 6 7.78 1.25
-21 14 -6 4.5 0.7
-21 7 6 4.46 0.81
-21 7 6 5.26 1.01
-21 14 -6 4.93 0.88
-7 21 6 4.49 0.83
-21 7 -6 4.18 0.9
-14 21 -6 5.49 0.78
-14 21 -6 4.35 0.92
-21 14 6 6.54 1.37
-7 21 6 4.96 0.73
-21 14 6 4.45 0.7
-21 15 -6 0.56 0.69
-21 6 6 0.82 0.6
-21 15 -6 1.46 0.84
-21 6 6 0.36 0.46
-6 21 -6 1.58 0.65
-15 21 6 0.91 0.74
-21 6 6 0.36 0.55
-21 15 -6 0.43 0.49
-15 21 6 -0.15 0.54
-15 21 -6 0.22 0.58
-21 15 6 0.64 0.55
-21 6 -6 0.24 0.47
-15 21 -6 0.24 0.77
-21 15 6 0.36 0.34
-21 15 6 0.72 0.72
-15 -6 6 0.53 0.48
-21 6 -6 0.18 0.75
-6 21 6 -0.23 0.44
-6 21 6 0.29 0.56
-21 5 6 8.61 1.18
-21 16 -6 9.89 1.53
-21 16 -6 8.43 1.12
-16 21 6 8.25 1.05
-21 5 6 9.99 1.17
-21 16 -6 8.52 1.22
-16 21 6 9.54 1.39
-21 16 6 7.1 0.99
-21 16 6 7.24 1.11
-16 21 -6 6.44 1.13
-21 5 -6 6.76 1.07
-16 21 -6 7.41 1.3
-21 5 -6 7.33 1.28
-21 16 6 7.65 1.35
-16 -5 6 8.52 1.09
-21 17 -6 0.97 0.54
-21 17 -6 0.59 0.49
-21 4 6 0.96 0.31
-17 21 6 1.6 0.67
-21 4 6 1.28 0.52
-17 21 6 0.47 0.31
-21 17 -6 1.29 0.73
-17 -4 -6 1.48 0.56
-21 4 -6 1 0.54
-17 -4 6 2.01 0.53
-21 17 6 1.49 0.57
-17 21 -6 0.36 0.42
-21 17 6 1.55 0.61
-21 4 -6 2.1 0.66
-21 17 6 1.07 0.51
-17 21 -6 1.02 0.54
-21 18 -6 10.79 1.16
-21 3 6 10.93 1.22
-18 21 6 11.33 1.33
-18 -3 -6 12.3 1.21
-21 18 -6 11.24 1.42
-21 3 -6 8.88 1.14
-18 -3 6 11.34 1.11
-21 18 6 10.04 1.21
-21 3 -6 9.22 1.13
-21 18 6 9.92 1.04
-18 21 -6 10.81 1.18
-21 2 6 10.17 1.14
-21 19 -6 12.12 1.16
-19 21 6 12.69 1.3
-19 -2 -6 12.72 1.19
-21 19 6 9.32 1.09
-21 2 -6 6.96 0.96
-19 21 -6 9.27 1.03
-19 -2 6 9.32 0.99
-11 22 6 7.56 1.12
-22 11 -6 8.98 1.45
-11 22 -6 7.83 1.44
-11 22 6 8.35 1.35
-22 11 -6 8 1.4
-22 11 6 7.87 1.22
-22 11 6 8.82 1.4
-22 12 -6 3.34 0.79
-10 22 -6 3.18 0.83
-12 22 6 4.51 0.65
-22 10 6 4 0.71
-12 22 6 3.27 0.82
-22 12 -6 4.08 0.8
-22 10 6 3.92 0.78
-10 22 6 5.94 0.73
-22 12 6 4.64 0.86
-22 10 -6 4.89 0.88
-10 22 6 5.65 0.89
-22 10 -6 3.8 0.77
-12 22 -6 4.51 0.91
-22 12 6 5.88 0.76
-13 22 6 8 1.06
-22 13 -6 8.91 1.45
-22 9 6 8.03 1.31
-22 9 6 10.5 1.23
-13 22 6 8.35 1.33
-9 22 -6 9.49 1.38
-22 13 -6 7.16 1.31
-22 9 -6 7.34 1.28
-22 13 6 10.14 1.49
-9 22 6 7.7 1.06
-22 13 6 8.65 1.22
-13 22 -6 8.48 1.42
-9 22 6 8.75 1.29
-22 14 -6 0.62 0.73
-22 8 6 0.3 0.25
-14 22 6 0.71 0.67
-22 8 6 0.7 0.59
-22 14 -6 -0.3 0.62
-14 22 6 0.44 0.51
-22 8 6 0.94 0.57
-8 22 -6 1.6 0.72
-22 8 -6 -0.16 0.69
-8 22 6 0.09 0.44
-8 22 6 0.01 0.52
-22 14 6 0.49 0.49
-14 22 -6 -0.36 0.49
-22 14 6 1.01 0.65
-14 22 -6 0.19 0.74
-7 22 -6 21.94 1.8
-15 22 6 20.93 1.84
-22 7 6 17.57 1.68
-22 7 6 23.87 1.77
-22 15 -6 20.24 1.79
-22 7 6 16.91 1.61
-15 22 6 20.74 1.71
-22 7 -6 21.5 1.91
-15 22 -6 21.76 1.99
-22 15 6 22.17 2
-15 22 -6 20.85 1.81
-22 15 6 19.91 1.8
-16 22 6 8.55 0.98
-22 6 6 8.69 0.98
-22 6 6 10.58 1.08
-16 22 6 9.19 1.22
-22 16 -6 11.53 1.47
-22 16 -6 8.84 1.18
-16 -6 6 5.94 0.72
-22 6 -6 8.62 1.1
-22 6 -6 5.28 0.75
-22 16 6 7.67 1
-16 22 -6 8.04 0.98
-16 22 -6 7.77 1.15
-17 -5 -6 0.69 0.47
-17 22 6 0.26 0.25
-22 17 -6 0.32 0.27
-22 5 6 0.52 0.43
-17 22 6 0.47 0.6
-22 5 6 0.14 0.24
-22 17 -6 0.49 0.65
-22 17 -6 0.22 0.4
-17 22 -6 0.23 0.33
-22 5 -6 -0.54 0.35
-17 22 -6 -0.27 0.46
-22 17 6 -0.08 0.25
-22 17 6 0.38 0.47
-22 5 -6 -0.02 0.51
-17 -5 6 0.55 0.35
-22 17 6 0.33 0.42
-18 22 6 2.57 0.61
-22 18 -6 1.13 0.32
-18 -4 -6 2.5 0.48
-22 4 6 1.9 0.45
-22 18 -6 1.86 0.61
-22 18 6 0.82 0.31
-22 4 -6 1.28 0.39
-18 22 -6 1.22 0.46
-22 4 -6 1.14 0.4
-18 -4 6 1.85 0.38
-23 11 6 7.18 1.18
-12 23 6 6.42 1.11
-23 11 6 7.35 1.08
-23 12 -6 6.59 1.19
-12 23 6 6.35 0.93
-11 23 -6 5.86 0.86
-23 12 -6 6.13 1.1
-12 23 -6 6.08 0.93
-11 23 6 6.05 0.95
-23 12 6 6.51 1.03
-23 11 -6 5.97 0.86
-11 23 6 5.45 0.95
-23 11 -6 4.8 0.95
-23 12 6 7.54 1.21
-13 23 6 7.21 0.97
-23 10 6 9.28 1.1
-13 23 6 8.43 1.19
-10 23 -6 7.9 1.25
-23 13 -6 8.12 1.2
-23 13 -6 6.89 1.13
-23 10 6 7.54 1.15
-10 23 6 6.77 0.96
-23 10 -6 7.94 1.2
-13 23 -6 8.59 1.32
-23 13 6 8.5 1.31
-23 13 6 8.23 1.1
-14 23 6 2.11 0.64
-14 23 6 2.25 0.5
-9 23 -6 1.17 0.66
-23 9 6 2.29 0.54
-23 14 -6 1.72 0.62
-23 14 -6 1.38 0.57
-23 9 6 1.84 0.54
-23 14 6 1.61 0.66
-14 23 -6 1.95 0.69
-9 23 6 1.2 0.48
-23 9 -6 1.53 0.63
-23 14 6 1.09 0.46
-15 23 6 2.71 0.64
-23 8 6 2.07 0.44
-23 15 -6 1.55 0.55
-15 -8 -6 1.76 0.47
-8 23 -6 1.56 0.5
-23 8 6 2.37 0.5
-23 15 -6 3.46 0.71
-15 23 6 2.06 0.46
-23 15 6 1.86 0.48
-23 8 -6 2.26 0.62
-15 23 -6 1.97 0.62
-23 15 6 2.68 0.65
-23 16 -6 0.64 0.44
-16 23 6 0.51 0.54
-16 23 6 0.49 0.34
-23 16 -6 0.97 0.65
-23 7 6 0.49 0.34
-16 -7 -6 0.23 0.39
-23 16 6 0.75 0.41
-16 23 -6 0.59 0.51
-16 23 -6 0 0.37
-23 7 -6 0.59 0.49
-23 16 6 0.9 0.56
0 0 -7 0.15 0.25
0 0 7 0.55 0.4
0 0 7 0.34 0.41
0 0 -7 0.5 0.39
-1 0 7 8.28 0.98
-1 0 7 9.56 0.9
-1 0 -7 9.05 0.89
1 -1 -7 9.18 0.89
-1 1 7 7.43 0.85
-1 0 7 9.23 1.08
1 0 7 9.5 1.07
1 -1 7 8.91 0.99
-1 1 7 8.83 1.01
0 1 7 8.34 1
0 -1 7 8.73 0.97
-1 1 -7 9.31 0.89
1 -1 7 9.97 1.09
1 -1 -7 7.67 0.88
0 1 7 8.03 0.84
-1 1 7 9.31 1.07
0 -1 -7 10.07 0.9
0 1 -7 9.07 0.88
0 -1 7 9.14 1.1
0 1 7 9.2 1.08
1 0 7 8.36 0.95
1 0 -7 8.94 0.88
1 -2 7 0.74 0.42
-1 2 7 1.09 0.48
1 -2 -7 0.79 0.39
-1 2 7 0.66 0.35
1 1 7 0.61 0.34
2 -1 7 1.6 0.53
1 1 7 1.21 0.52
-1 -1 7 1.06 0.47
1 1 -7 0.93 0.37
-1 -1 -7 1.06 0.38
2 -1 -7 0.56 0.33
-1 2 -7 0.85 0.39
-1 2 7 1.14 0.5
-1 -1 -7 0.86 0.37
1 -2 -7 0.91 0.41
2 -1 7 0.95 0.43
-2 1 -7 1.1 0.39
1 -2 7 0.98 0.47
-1 -1 7 1.05 0.44
-2 1 7 0.91 0.38
1 1 7 1.55 0.47
-2 1 7 1.04 0.43
0 -2 7 0.6 0.42
0 -2 -7 0.35 0.37
0 2 -7 0.75 0.37
0 2 7 0.22 0.45
-2 2 7 0.89 0.48
0 -2 -7 0.83 0.42
-2 2 7 0.65 0.35
2 -2 -7 0.68 0.39
0 2 7 0.57 0.33
2 -2 7 1.08 0.44
0 2 7 0.64 0.43
2 0 7 0.58 0.5
-2 0 7 0.69 0.41
2 -2 7 0.53 0.47
-2 2 -7 1.14 0.4
2 -2 -7 0.85 0.45
-2 0 -7 0.62 0.4
0 -2 7 0.84 0.46
-2 0 7 0.47 0.4
2 0 7 0.37 0.37
-2 0 -7 0.55 0.34
-3 1 7 44.96 3.39
-2 3 7 39.03 3.24
-2 3 7 47.92 3.43
-1 -2 7 42.85 3.38
2 -3 7 44.02 3.39
3 -1 7 42.07 3.34
-3 1 7 46.59 3.28
1 2 7 42.98 3.32
3 -2 -7 43.63 3.31
1 2 7 42.26 3.23
-2 -1 -7 43.3 3.32
2 -3 7 41.85 3.31
1 2 7 45.95 3.42
-3 2 -7 45.78 3.27
-1 -2 7 46 3.33
-1 3 -7 49.38 3.26
3 -1 7 38.2 3.36
1 -3 -7 45.24 3.26
1 -3 -7 42.97 3.29
3 -2 -7 42.06 3.3
1 -3 -7 40.47 3.32
-2 -1 -7 44.33 3.26
-2 3 -7 43.99 3.06
-1 3 7 38.23 3.11
3 -1 -7 39.59 3.12
-1 3 7 39.26 3.03
-3 2 7 38.47 3.04
2 1 7 39.48 3.12
3 -2 7 42.29 3.13
-1 3 7 46.36 3.24
3 -1 -7 33.99 3.06
-2 -1 7 41.94 3.18
3 -2 7 37.53 3.17
-1 -2 -7 44.19 3.06
-3 1 -7 41.24 3.06
1 -3 7 40.48 3.18
1 -3 7 40 3.11
-3 2 7 42.72 3.2
2 -3 -7 42.02 3.08
-1 -2 -7 41.9 3.13
2 -3 -7 42.52 3.12
-2 -1 7 42.84 3.08
2 1 7 38.41 3.19
-3 0 -7 4.98 0.72
0 3 7 6.51 1.01
0 -3 -7 5.13 0.77
0 -3 7 5.51 0.81
0 3 -7 4.37 0.66
3 -3 -7 5.01 0.75
-3 0 7 5.41 0.88
-3 0 -7 5.74 0.74
-3 0 7 5.38 0.74
3 -3 7 4.64 0.78
-3 3 7 5.19 0.94
0 3 7 4.67 0.58
0 -3 7 5.92 0.95
0 3 7 4.01 0.68
3 0 7 5.38 0.92
-3 3 -7 5.33 0.69
0 -3 -7 4.52 0.72
3 0 7 5.16 0.83
3 -3 7 5.04 0.89
3 -3 -7 5.07 0.75
0 -3 -7 3.99 0.56
-3 3 7 4.45 0.65
4 -2 -7 5.81 0.83
-2 -2 -7 7.22 0.8
-4 2 7 8.72 1.06
-4 2 -7 6.17 0.8
-2 -2 -7 6.39 0.71
-4 2 7 8.17 0.83
-2 -2 7 7.21 1.05
2 -4 7 7.9 0.93
-2 4 7 7.58 0.73
-2 -2 -7 7.21 0.92
2 -4 -7 7.47 0.83
2 -4 -7 6.89 0.91
-2 4 -7 7.2 0.78
4 -2 7 7.48 1.02
4 -2 -7 8.92 0.86
2 2 7 7.3 1.06
2 -4 7 6.58 1.01
2 2 7 5.95 0.66
4 -2 7 7.16 0.95
4 -3 -7 20.38 1.58
1 3 7 17.79 1.69
1 -4 -7 15.74 1.58
4 -1 7 19.63 1.66
3 -4 7 19.62 1.61
4 -1 7 19.39 1.63
-1 -3 7 19.3 1.59
1 -4 -7 16.77 1.49
-1 -3 7 17.48 1.67
-3 4 7 19.57 1.72
-3 -1 -7 17.47 1.51
-3 -1 -7 18.27 1.61
-4 3 -7 18.84 1.51
4 -3 -7 17.42 1.56
-1 4 -7 16.61 1.48
3 -4 7 18.6 1.68
-4 1 7 18.74 1.68
-3 4 7 18.06 1.48
1 -4 -7 17.27 1.51
-4 1 7 20.97 1.55
-4 3 7 17.04 1.62
-1 -3 -7 17.3 1.53
1 -4 7 17.56 1.48
-1 -3 -7 16.5 1.41
4 -3 7 17.44 1.52
3 -4 -7 16.27 1.49
-3 -1 7 17.45 1.59
1 -4 7 16.83 1.6
-1 4 7 19.15 1.68
-3 -1 7 19.37 1.48
-1 -3 -7 15.61 1.37
-4 3 7 16.74 1.4
-4 1 -7 14.13 1.43
3 -4 -7 16.58 1.46
-4 1 -7 18.65 1.45
-3 4 -7 18.09 1.42
4 -3 7 15.82 1.57
3 1 7 17.92 1.63
0 -4 -7 5.73 0.73
0 -4 -7 5.06 0.64
4 0 7 4.46 0.87
-4 0 -7 4.24 0.77
0 4 7 5.68 1.01
0 -4 -7 5.02 0.84
0 -4 7 5.33 0.96
-4 0 -7 6.12 0.76
-4 4 -7 5.89 0.75
0 -4 -7 4.19 0.68
-4 0 7 5.65 0.79
4 0 7 4.63 0.75
-4 0 7 5.53 0.96
4 -4 -7 5.44 0.77
-4 4 7 5.79 0.98
4 -4 7 4.72 0.73
4 -4 -7 5.32 0.79
4 0 -7 4.95 0.79
4 -4 7 4.26 0.88
0 -4 7 5.23 0.81
-4 4 7 5.14 0.66
0 -4 7 4.23 0.76
2 -5 -7 52.73 3.92
3 -5 7 55.66 3.88
2 3 7 47.29 3.93
-5 2 7 52.84 3.83
-3 5 7 43.09 3.76
-5 2 7 51.41 3.93
5 -2 7 52 3.93
-5 3 -7 49.16 3.81
-3 -2 -7 49.09 3.79
3 -5 7 50.68 3.94
-2 -3 7 50.88 3.95
5 -3 -7 53.17 3.87
2 -5 -7 48.5 3.79
-2 5 -7 50.88 3.79
-3 5 7 55.47 3.99
5 -2 7 54.04 3.91
2 -5 -7 52.85 3.82
-3 -2 -7 56.45 3.94
-3 -2 -7 49.19 3.79
5 -2 -7 47.91 3.74
-2 -3 -7 46.55 3.67
2 -5 7 50.39 3.84
5 -3 7 54.62 3.84
-2 -3 -7 50.09 3.68
-5 3 7 47.08 3.69
5 -2 -7 42.22 3.75
-3 -2 7 51.65 3.73
3 2 7 54.7 3.85
3 -5 -7 43.14 3.67
-3 5 -7 48.98 3.68
3 -5 -7 48.13 3.78
5 -3 7 52.27 3.79
-2 -3 -7 54.38 3.82
-5 3 7 51.19 3.82
-5 2 -7 52.33 3.71
3 -5 -7 48.99 3.71
2 -5 7 51.28 3.75
-3 -2 7 49.22 3.83
4 -5 7 7 1.03
5 -1 7 5.79 0.95
4 -5 7 6.3 0.86
-5 1 7 7.18 0.87
-1 -4 7 5.56 0.87
-4 -1 -7 5.96 0.7
1 -5 -7 6.24 0.76
-1 -4 7 6.39 1.06
-1 5 -7 6.48 0.76
-4 -1 -7 6.15 0.77
1 4 7 7.48 1.04
5 -4 -7 7.27 0.87
1 -5 -7 6.18 0.68
4 1 -7 6.97 0.96
-4 5 7 7.33 1.07
5 -4 -7 7.2 0.86
-5 1 7 6.21 0.98
1 -5 -7 5.5 0.73
1 -5 -7 5.66 0.92
5 -1 7 6.77 0.88
-5 4 -7 7.99 0.84
-4 -1 -7 5.24 0.89
-4 5 7 6.84 0.74
5 -1 -7 6.16 0.89
-5 4 7 6.76 1.02
-4 -1 7 6.69 0.86
-1 -4 -7 6.71 0.95
1 -5 7 4.77 0.81
-4 5 -7 5.63 0.75
5 -4 7 5.36 0.94
1 -5 7 6.16 1.07
-5 1 -7 5.61 0.8
4 -5 -7 6.05 0.89
4 -5 -7 5.68 0.83
-4 -1 7 6.26 1
-1 -4 -7 5.83 0.68
4 1 7 5.28 0.98
-1 -4 -7 4.46 0.64
-5 4 7 6.19 0.74
-5 1 -7 4.91 0.8
1 -5 7 6.56 0.87
-1 5 7 6.54 1.1
-1 -4 -7 7.53 0.73
5 -4 7 6.95 0.9
5 0 -7 74.11 5.19
-5 5 7 73.58 5.11
0 5 7 70.54 5.26
-5 0 -7 66.08 5.2
-5 5 -7 78.15 5.12
-5 0 7 62.35 5.19
-5 0 -7 69.51 5.11
0 -5 -7 70.23 5.22
5 -5 -7 73.33 5.14
0 -5 -7 69.63 5.09
-5 5 7 70.73 5.24
0 -5 -7 69.54 5.08
0 -5 7 73.83 5.17
5 -5 7 65.95 5.21
5 -5 -7 67.68 5.19
0 -5 7 68.18 5.25
0 -5 7 61.56 5.21
5 -5 7 68.05 5.16
5 0 7 67.81 5.22
3 -6 7 23.51 2
-6 3 7 22.98 1.78
6 -3 7 18.82 1.86
3 -6 -7 20.82 1.73
3 -6 -7 21.74 1.9
-3 6 7 22.13 1.99
6 -3 7 21.95 1.89
-3 -3 -7 20.66 1.73
3 3 7 21.72 1.89
-6 3 -7 24.1 1.81
3 -6 7 22.22 1.83
-3 -3 7 21.68 1.96
3 -6 -7 21.83 1.76
-3 6 -7 21.6 1.74
-3 -3 -7 22.02 1.92
6 -3 -7 23.51 1.87
-3 -3 7 22.8 1.81
-6 3 7 19.43 1.88
6 -2 7 61.25 4.85
2 -6 -7 71.11 4.92
-6 4 -7 75.17 4.81
-4 -2 -7 66.53 4.9
2 4 7 66.11 4.92
2 -6 -7 63.51 4.76
6 -2 7 59.82 4.86
-2 6 -7 66.44 4.76
-4 6 7 65.73 4.93
4 -6 7 68.71 4.94
6 -4 -7 68.5 4.83
-4 -2 -7 66.05 4.76
-2 -4 7 56.78 4.89
-6 2 7 57.57 4.84
4 -6 7 70.34 4.85
-2 -4 7 63.97 4.92
-4 -2 -7 55.89 4.74
4 2 -7 64.46 4.86
2 -6 -7 63.49 4.76
4 -6 -7 66.15 5.11
6 -4 7 71.16 5.12
4 -6 -7 72.17 5.04
-2 -4 -7 66.49 5.13
6 -4 7 61.83 5.11
2 -6 7 74.36 5.19
-6 4 7 67.71 5.12
-6 2 -7 70.03 5.04
-4 -2 7 77.63 5.06
-6 4 7 66.78 5.02
6 -2 -7 61.8 5.06
4 -6 -7 67.02 5.02
-4 -2 7 71.88 5.13
4 2 7 59.23 5.11
-4 6 -7 66.78 5.01
2 -6 7 71.52 5.07
1 -6 -7 51.62 3.63
-1 -5 7 45.93 3.77
5 -6 7 55.71 3.74
-6 5 -7 53.3 3.67
-5 -1 -7 50.27 3.76
-5 6 7 46.24 3.61
-5 6 7 54.42 3.81
-6 1 7 43.41 3.7
-5 -1 -7 48.77 3.63
-1 -5 7 51.65 3.81
6 -5 -7 53.62 3.71
-5 -1 -7 41.71 3.62
1 5 7 52.19 3.8
5 -6 7 41.61 3.74
5 1 -7 42.1 3.69
1 -6 7 48.75 3.42
-5 6 -7 43.03 3.33
-6 5 7 50.06 3.51
-5 -1 7 40.59 3.41
1 -6 7 38.76 3.44
5 1 7 38.44 3.42
6 -1 -7 39.42 3.39
-1 -5 -7 47.54 3.5
6 -5 7 42.71 3.42
1 -6 7 46.05 3.54
-6 5 7 48.09 3.36
5 -6 -7 45.88 3.45
6 -5 7 43.69 3.45
-1 6 7 51.51 3.56
-6 1 -7 44.03 3.37
-1 -5 -7 45.31 3.31
0 -6 -7 3.29 0.75
6 -6 -7 1.75 0.52
6 -6 -7 2.52 0.58
6 -6 7 2.15 0.52
-6 0 7 1.85 0.52
0 6 7 1.84 0.53
0 -6 -7 2.98 0.54
-6 0 -7 2.38 0.45
-6 6 7 2.15 0.46
6 -6 7 3.43 0.67
0 -6 7 2.3 0.67
0 -6 7 2.08 0.59
-6 6 7 1.37 0.52
-6 0 -7 2.3 0.55
-6 0 -7 2.92 0.51
6 0 -7 2.03 0.59
0 -6 7 1.48 0.4
-6 6 -7 2.75 0.53
3 4 7 28.9 2.77
4 -7 7 37.29 2.94
7 -4 -7 40.7 2.8
-3 -4 7 31.98 2.83
4 -7 7 38.18 2.77
-4 -3 -7 34.28 2.66
-3 -4 7 35.98 2.72
-7 4 -7 39.49 2.75
7 -4 -7 31.92 2.77
-3 7 -7 34.7 2.66
-4 7 7 39.63 2.95
-3 -4 7 32.79 2.82
-4 -3 -7 35.98 2.85
7 -3 7 32.09 2.76
3 -7 -7 34.63 2.67
7 -4 7 36.54 2.73
-7 4 7 27.93 2.65
3 -7 7 36.52 2.84
4 -7 -7 36.79 2.75
-3 -4 -7 31.72 2.71
7 -4 7 28.14 2.66
-7 4 7 33.64 2.61
3 -7 7 35.96 2.66
7 -3 -7 29.66 2.67
-7 3 -7 36.31 2.63
7 -3 -7 34.6 2.68
-4 -3 7 35.99 2.63
4 -7 -7 35.38 2.6
-3 -4 -7 34.74 2.56
4 -7 -7 33.57 2.59
-4 7 -7 34.12 2.58
-5 7 7 107.15 7.34
-7 5 -7 109.02 7.19
7 -5 -7 110.72 7.24
-2 -5 7 85.4 7.18
-2 -5 7 82.52 7.28
7 -5 -7 99.62 7.27
-7 2 7 104.33 7.19
2 -7 -7 97.86 7.14
5 -7 7 97.37 7.22
5 -7 7 102.63 7.32
-2 -5 7 97.63 7.29
-5 -2 -7 93.8 7.15
-5 -2 -7 102.2 7.29
2 5 7 84.38 7.25
-2 -5 -7 106.73 7.02
5 -7 -7 94.74 6.88
2 -7 7 100.35 6.91
7 -2 -7 85.63 6.92
-7 2 -7 97.58 6.89
-5 -2 7 98.91 6.89
-5 7 -7 90.77 6.84
-7 5 7 86.92 6.86
-2 -5 -7 90.93 6.83
5 -7 -7 88.44 6.86
-2 7 7 103.91 7.08
7 -5 7 87.5 6.93
-7 5 7 86.3 6.94
5 -7 -7 99.25 6.99
2 -7 7 92.1 7.03
-1 -6 7 4.89 0.76
1 6 7 4.54 0.95
-6 -1 -7 5.07 0.88
1 -7 -7 5.05 0.66
-1 -6 7 3.48 0.71
6 -7 7 4.24 1
-1 -6 7 3.83 0.87
6 1 -7 3.71 0.76
7 -6 -7 5.1 0.88
-6 -1 -7 4.23 0.69
-7 6 -7 4.8 0.85
-6 -1 -7 3.67 0.56
1 -7 -7 6.04 1.12
-7 1 7 5.47 0.87
-6 7 7 5.37 1.05
6 -7 7 6.04 0.95
1 -7 7 6.95 1.2
7 -1 -7 6.33 0.91
-1 -6 -7 5.58 0.66
-7 1 -7 4.03 0.77
-7 6 7 5.42 1.01
-7 1 -7 5.22 0.81
1 -7 7 6.38 0.93
7 -6 7 4.31 0.89
-7 6 7 5.3 0.73
-1 -6 -7 7.56 1.19
-6 7 -7 5.71 0.78
-1 7 7 5.97 1.12
7 -6 7 6.11 0.94
6 -7 -7 6.58 1.02
1 -7 7 4.94 0.73
-6 -1 7 5.79 0.89
1 -7 7 5.26 0.93
6 -7 -7 5.56 0.88
-7 0 -7 22.49 2.06
-7 7 -7 23.43 1.97
0 -7 7 25.14 2.02
7 -7 7 26.66 2.11
-7 7 7 24.99 2.17
7 -7 -7 28.83 2.05
0 -7 -7 24.94 1.91
0 -7 7 22.53 2.11
-7 0 -7 25.89 1.97
0 -7 7 25.56 2.26
7 -7 -7 22.55 2.09
7 -7 7 20.63 2.08
0 7 7 26.5 2.21
-4 -4 7 20.58 1.84
8 -4 -7 24.7 1.97
8 -4 7 20.11 1.9
-8 4 7 22.61 1.9
4 -8 7 23.43 1.93
-4 -4 -7 22.33 1.78
4 -8 7 26.89 2.2
-4 -4 7 22.51 1.84
-8 4 -7 25.77 1.92
4 -8 -7 22.24 1.82
-4 -4 -7 19.03 1.94
-5 8 7 17.34 1.75
5 -8 7 16.88 1.49
-3 -5 7 12.22 1.35
-5 -3 -7 14.84 1.33
8 -5 -7 15.37 1.54
3 -8 -7 15.6 1.34
-3 -5 7 16.23 1.44
-5 -3 -7 14.15 1.54
5 -8 7 16.57 1.76
-8 5 -7 17.83 1.49
-8 3 7 17.47 1.49
3 -8 7 15.22 1.39
-3 -5 -7 14.57 1.22
5 -8 -7 14.27 1.27
-8 3 -7 14.58 1.37
-3 -5 -7 17.82 1.61
-5 -3 7 14.86 1.34
5 -8 -7 11.92 1.22
-5 8 -7 13.62 1.22
3 -8 7 17.38 1.72
8 -3 -7 14.26 1.4
8 -5 7 14.27 1.4
-8 5 7 11.99 1.29
-2 -6 7 30.92 2.44
-6 8 7 32.25 2.64
-6 -2 -7 26.51 2.48
2 -8 -7 29.9 2.33
-8 2 7 35.24 2.46
6 -8 7 31.19 2.48
-8 6 -7 32.92 2.46
8 -6 -7 30.44 2.48
6 -8 7 26.41 2.57
-6 -2 -7 30.13 2.35
2 -8 7 26.57 2.4
8 -2 -7 25.29 2.15
6 -8 -7 25.68 2.07
2 -8 7 25.69 2.13
-6 8 -7 24.5 2.03
-6 -2 7 27.02 2.1
6 -8 -7 29.04 2.29
8 -6 7 25.8 2.2
-2 -6 -7 26.93 2.26
-2 8 7 29.06 2.38
6 -8 -7 24.77 2.05
-8 2 -7 24.66 2.09
-8 6 7 22.83 2.05
7 -8 7 3.85 0.93
1 -8 -7 4.97 0.65
-7 -1 -7 5.3 0.84
8 -7 -7 4.62 0.91
-8 7 -7 4.78 0.85
1 -8 -7 5.17 1.15
8 -7 -7 4.47 0.88
-7 8 7 4.99 1.05
-8 1 7 4.8 0.88
-7 -1 -7 4 0.75
-1 -7 7 5.52 0.86
7 -8 7 5.53 0.99
8 -1 -7 1.66 0.48
-1 8 7 2.33 0.61
-7 8 -7 2.81 0.49
1 -8 7 3.84 0.78
-8 1 -7 3.63 0.59
-1 -7 -7 3.8 0.84
1 -8 7 2.97 0.69
-8 7 7 2.29 0.51
-7 -1 7 3.55 0.61
7 -8 -7 3.57 0.74
8 -7 7 3.81 0.72
1 -8 7 2.53 0.67
-8 1 -7 3.66 0.6
7 -8 -7 3.22 0.6
-8 7 7 1.68 0.4
-1 -7 -7 3.5 0.54
8 -8 7 -0.33 0.56
8 -8 7 -0.49 0.32
8 -8 -7 -0.26 0.54
0 -8 -7 0.47 0.35
0 -8 -7 0 0.69
8 -8 -7 0.11 0.35
-8 0 -7 -0.2 0.28
-8 0 7 -0.09 0.46
-8 0 -7 -0.14 0.41
8 0 -7 -0.02 0.37
-8 0 -7 0.62 0.39
0 -8 7 -0.37 0.48
-8 0 7 -0.89 0.61
-8 8 -7 0.21 0.4
0 -8 7 0.55 0.49
8 -8 -7 0.17 0.47
-8 8 7 -0.34 0.43
-8 8 -7 -0.33 0.6
0 -8 7 0.48 0.56
-5 -4 -7 31.05 2.52
5 -9 7 35.2 2.91
-4 -5 7 31.05 2.62
4 -9 -7 32.42 2.55
9 -5 -7 37.59 2.73
-9 5 -7 35.95 2.66
-5 -4 -7 29.17 2.71
4 -9 -7 33.91 2.8
5 -9 7 31.86 2.63
-9 4 7 35.2 2.65
9 -5 7 23.1 2.27
4 -9 7 32.1 2.57
-5 -4 7 27.66 2.23
-9 5 7 26.22 2.2
5 -9 -7 28.49 2.18
-4 -5 -7 26.4 2.12
9 -4 -7 24.51 2.27
5 -9 -7 29.52 2.39
-9 4 -7 28.3 2.25
-4 -5 -7 30.71 2.43
4 -9 7 28.15 2.22
-6 -3 -7 22.34 1.84
9 -6 -7 20.39 2.01
-9 6 -7 25.9 1.98
6 -9 7 21.08 2.12
-6 -3 -7 20.55 2.02
3 -9 -7 23.4 1.85
-3 -6 7 24.62 1.99
9 -6 -7 26.12 2.05
-9 3 7 24.7 2
6 -9 7 24.25 1.98
3 -9 7 26.84 2.36
9 -6 7 21.21 2.04
-9 6 7 21.36 1.92
9 -3 -7 20.34 1.98
-3 -6 -7 24.84 2.13
6 -9 -7 26 2.19
-9 3 -7 26.45 2
-3 -6 -7 25.62 1.88
3 -9 7 22.57 1.96
6 -9 -7 25.36 1.95
3 -9 7 24.38 1.97
2 -9 -7 22.6 1.99
9 -7 -7 16.36 1.77
7 -9 7 19.87 1.77
-9 7 -7 22.61 1.76
2 -9 -7 18.65 1.58
-7 -2 -7 18.3 1.63
-9 2 7 20.41 1.76
-2 -7 7 21.27 1.75
9 -7 -7 19.43 1.75
-7 9 -7 8.45 0.85
9 -2 -7 10.45 1.05
2 -9 7 9.26 1.11
-9 7 7 10.45 0.92
7 -9 -7 8.45 0.9
9 -8 -7 13.11 1.32
-1 -8 7 13.82 1.32
-9 8 -7 10.7 1.21
1 -9 -7 14.69 1.54
-9 1 7 13.45 1.32
8 -9 7 14.69 1.41
-8 -1 -7 12.46 1.26
1 -9 -7 14.22 1.17
1 -9 7 5.23 0.98
-8 9 -7 6.94 0.73
8 -9 -7 7.74 0.8
-9 9 -7 2.33 0.43
-9 0 -7 2.73 0.66
-9 0 7 3.93 0.64
9 -9 -7 2.95 0.62
-10 5 -7 74.69 5
5 -10 -7 66.02 5.11
10 -5 -7 58.47 5
-5 -5 -7 65.07 4.88
-5 -5 -7 69.51 5.09
-10 5 7 62.26 4.95
5 -10 -7 66.38 4.92
-5 -5 7 70.4 4.99
10 -6 -7 1.67 0.49
10 -6 -7 3.15 0.73
-4 -6 7 2.4 0.6
-6 -4 -7 2.49 0.67
4 -10 -7 3.48 0.63
-6 -4 -7 2.96 0.59
6 -10 7 2.22 0.66
6 -10 7 2.38 0.54
-10 6 -7 3.02 0.65
-4 -6 7 1.12 0.64
4 -10 -7 3.7 0.82
-10 4 7 2.13 0.6
4 -10 7 2.22 0.76
10 -4 -7 1.17 0.52
4 -10 7 1.87 0.47
-6 -4 7 -0.11 0.69
-6 -4 7 1.16 0.46
-10 6 7 1.57 0.44
-4 -6 -7 2.72 0.72
10 -6 7 1.01 0.48
6 -10 -7 1.79 0.71
6 -10 -7 1.98 0.47
-10 4 -7 1.49 0.49
-10 7 -7 36.2 2.73
3 -10 -7 33.29 2.63
-7 -3 -7 32.67 2.64
-10 3 7 36.94 2.74
3 -10 -7 36.03 2.89
10 -7 -7 35.73 2.78
-3 -7 7 36.76 2.75
7 -10 7 29.95 2.7
-7 -3 7 13.81 1.19
-10 3 -7 14.71 1.19
-10 7 7 10.3 1.12
-2 -8 7 24.63 1.99
2 -10 -7 26 1.86
-10 2 7 22.81 1.95
10 -8 -7 22.46 1.96
-10 8 -7 20.97 1.9
-8 -2 -7 25.03 1.93
8 -10 7 21.77 1.98
2 -10 -7 22.98 2.11
-9 -1 -7 3.06 0.69
1 -10 -7 2.1 0.59
-10 1 7 3.74 0.64
10 -9 -7 4.15 0.87
-1 -9 -7 2.17 0.57
0 -10 -7 6.82 0.95
10 -10 -7 9.3 1.07
5 -11 -7 41.07 3.57
6 -11 7 48.69 3.74
-11 6 -7 51.96 3.5
11 -6 -7 40.64 3.51
-11 5 7 45.35 3.47
-5 -6 -7 39.79 2.93
5 -11 7 32.46 2.77
-11 5 -7 33.54 2.77
6 -11 -7 37.54 2.93
4 -11 -7 25.57 2.32
-7 -4 -7 25.38 2.3
11 -7 -7 31.84 2.29
4 -11 7 33.6 3.07
4 -11 7 36.63 2.86
-7 -4 7 38.51 2.86
3 -11 -7 3.76 0.84
11 -8 -7 4.94 0.76
-11 8 -7 4.9 0.72
-11 3 7 3.93 0.75
-3 -8 -7 1.79 0.51
-8 -3 7 2.98 0.59
3 -11 7 1.18 0.53
11 -8 7 0.87 0.5
-11 3 -7 0.11 0.67
-2 -9 -7 11.57 1.26
9 -11 -7 13.57 1.38
11 -9 7 12.22 1.26
-1 -10 7 4.91 0.93
-11 1 -7 0.9 0.39
1 -11 7 1.22 0.55
0 -11 7 14.52 1.52
-11 0 -7 15.63 1.47
0 -11 -7 18.22 1.35
7 -12 -7 36.15 2.76
-7 -5 7 34.45 2.79
-4 -8 -7 8.17 0.83
4 -12 7 7.23 0.98
-8 -4 7 5.2 0.81
8 -12 -7 6.67 0.94
3 -12 -7 115.22 7.95
-9 -3 -7 105.98 7.98
-3 -9 7 106.58 8.01
3 -12 7 90.98 6.73
-10 -2 -7 17.13 1.56
-2 -10 7 15.74 1.56
2 -12 -7 18.18 1.44
-2 -10 -7 22.02 1.6
2 -12 7 16.67 1.71
-1 -11 7 14.92 1.54
1 -12 -7 17.23 1.38
-11 -1 -7 17.5 1.51
-1 -11 -7 16.53 1.32
1 -12 7 13.87 1.46
-12 0 -7 12.99 1.19
-7 -6 -7 2.13 0.55
-6 -7 7 1.51 0.57
6 -13 -7 1.93 0.49
-7 -6 7 1.74 0.55
7 -13 -7 1.63 0.51
-6 -7 -7 1.38 0.47
-8 -5 -7 26.41 2.02
5 -13 -7 24.53 1.98
-5 -8 7 23.33 2.08
-8 -5 7 16.58 1.51
8 -13 -7 19.47 1.54
5 -13 7 15.26 1.48
4 -13 -7 12.21 1.17
-9 -4 -7 12.47 1.26
-4 -9 7 12.14 1.29
9 -13 -7 4.98 0.79
-10 -3 -7 0.44 0.52
-3 -10 7 0.76 0.54
3 -13 -7 0.84 0.42
-10 -3 7 -0.08 0.52
3 -13 7 1.74 0.54
2 -13 -7 9.25 0.95
-11 -2 -7 10.38 1.1
-2 -11 7 8.73 1.11
-2 -11 -7 7.52 0.8
2 -13 7 5.8 0.95
-1 -12 7 2.03 0.58
-12 -1 -7 2.95 0.6
1 -13 -7 3.52 0.63
-13 1 -7 0.51 0.44
-13 13 -7 1.42 0.41
-13 13 7 1.33 0.36
-13 0 7 1.24 0.46
0 -13 7 1.82 0.51
7 -14 -7 2.08 0.52
-7 -7 -7 2.59 0.58
-7 -7 7 1.57 0.5
6 -14 -7 18.34 1.57
-6 -8 7 18.39 1.64
8 -14 -7 14.87 1.26
-8 -6 7 11.07 1.21
-9 14 7 -0.06 0.62
-5 -9 7 0.22 0.49
-9 -5 -7 0.33 0.52
5 -14 -7 0.56 0.46
-14 9 -7 -0.26 0.5
-5 -9 -7 1.01 0.45
9 5 7 -0.02 0.26
-9 -5 7 0.54 0.34
5 -14 7 0.25 0.35
9 -14 -7 0.04 0.38
-5 14 7 0.18 0.41
-5 14 7 0.02 0.32
-9 14 -7 0.67 0.52
-10 14 -7 0.98 0.55
-14 10 7 0.48 0.29
-14 4 -7 0.19 0.39
10 -14 -7 -0.2 0.3
-4 14 7 0.52 0.33
10 4 7 -0.1 0.25
-4 14 7 0.04 0.37
-10 -4 7 0.36 0.38
-14 3 7 16.12 1.44
-14 11 -7 17.35 1.55
-14 11 -7 17.56 1.41
-14 11 7 17.79 1.58
-14 3 -7 19.08 1.65
3 -14 7 20.3 1.65
-14 12 -7 10.84 1.17
-12 -2 -7 10.34 1.02
-12 14 -7 10.9 0.96
-2 14 7 9.43 0.96
-1 -13 7 3.5 0.68
1 -14 -7 3.33 0.52
-13 14 7 4.65 0.79
-14 1 7 4.35 0.78
-1 14 7 4.04 0.61
-1 14 7 3.93 0.71
-1 -13 -7 3.28 0.48
1 -14 7 4.84 0.65
0 14 7 -0.13 0.32
-14 14 -7 -0.19 0.42
-14 0 7 -0.79 0.75
0 -14 7 0.07 0.3
-14 0 -7 -0.57 0.8
-14 14 7 0.15 0.52
0 14 7 -0.19 0.41
14 0 7 -0.52 0.26
-14 14 -7 -0.4 0.7
-14 14 7 0.38 0.43
-8 15 7 0.4 0.36
7 8 7 0.21 0.3
-7 15 -7 0.92 0.46
-7 -8 7 0.68 0.4
-15 8 -7 -0.04 0.34
-15 7 7 0.11 0.58
7 -15 -7 0.78 0.41
-8 15 7 0.69 0.52
-15 8 -7 -0.05 0.42
-15 7 7 -0.13 0.29
7 8 7 0.02 0.27
-15 8 7 -0.15 0.58
-7 15 7 0.51 0.42
-8 -7 7 0.25 0.32
-8 15 -7 1.13 0.51
8 7 7 0.43 0.33
-7 15 7 0.37 0.52
8 -15 -7 0.28 0.38
-15 7 -7 -0.19 0.36
-15 8 7 0.09 0.3
-7 -8 -7 0.5 0.54
8 7 7 0.39 0.35
-15 6 7 7.24 1.12
-15 9 -7 7.26 1.02
-6 -9 7 8.39 0.91
-15 9 7 5.27 0.85
-6 15 7 6.8 1.01
9 6 7 6.35 0.86
-6 -9 -7 8.27 0.92
-9 15 -7 8.57 1.12
-6 15 7 7.96 0.99
-15 9 7 5.91 1.19
-15 5 7 9.24 0.94
-15 5 7 10.82 1.14
-15 5 -7 22.19 2.06
-5 15 7 27.89 2.05
10 5 7 22.13 1.98
-10 15 -7 24.51 2.14
-15 10 7 24.4 2.03
-5 -10 -7 26.41 1.95
-15 11 -7 2.79 0.53
-11 15 7 2.16 0.7
-15 11 -7 2.61 0.76
-11 -4 -7 1.95 0.49
-4 -11 7 1.69 0.46
4 -15 -7 3.05 0.61
-15 4 7 1.23 0.48
-11 15 -7 2.7 0.62
11 4 7 3.68 0.59
-15 11 7 2.79 0.64
-4 15 7 2.68 0.57
-4 15 7 2.16 0.56
-15 4 -7 4.18 0.82
-12 15 7 5.71 0.85
-15 3 7 5.65 0.78
-15 12 -7 6.34 1.06
3 -15 -7 3.58 0.56
-3 -12 7 4.07 0.67
-12 15 7 4.33 0.71
12 3 7 9.97 1.07
-3 15 7 10.23 1.1
-3 15 7 7.87 1.11
-15 12 7 11.55 1.32
-15 3 -7 11.33 1.62
-12 15 -7 7.47 1.09
-12 15 -7 7.69 0.96
-2 -13 7 4.31 0.62
-15 13 7 23 1.91
13 2 7 17.4 1.69
-15 2 -7 22.82 2.11
-13 -2 7 20.13 1.83
-2 15 7 17.8 1.69
-13 15 -7 21.12 1.8
-15 14 -7 9.56 1.45
-15 14 -7 10.6 1.53
-14 15 7 12.04 1.35
-14 15 7 9.98 1.43
-15 1 7 10.31 1.59
-14 -1 -7 9.56 1.61
14 1 7 4.53 0.83
-1 15 7 5.92 0.76
-15 14 7 3.59 0.64
0 15 7 4.44 0.76
-15 0 -7 5.56 1.03
-15 15 7 7.22 1.3
-15 15 -7 5.45 0.87
-15 0 7 4.05 0.94
-15 15 7 6.66 0.96
-16 8 7 0.63 0.5
-16 8 7 -0.04 0.89
-8 16 7 1.93 0.85
-16 8 -7 -0.12 0.27
-8 16 -7 1.41 0.79
-8 16 7 1.44 0.68
-16 8 -7 0.43 0.45
-16 8 -7 0.52 0.51
-8 -8 7 0.18 0.32
-16 8 7 0.07 0.38
8 8 7 1.22 0.5
8 -16 -7 -0.03 0.26
-8 -8 -7 1 0.42
-8 16 7 0.76 0.45
7 9 7 2.61 0.5
-7 16 -7 2.38 0.72
-9 16 7 3.61 0.66
-9 16 7 3.46 0.87
7 9 7 1.71 0.48
-16 9 -7 1.94 0.69
-16 7 7 1.68 0.89
-16 9 -7 1.38 0.49
-9 -7 -7 2.41 0.52
-16 7 7 2.12 0.5
-9 16 -7 5.29 1
-7 16 7 4.1 0.86
-7 16 7 4.72 0.81
-16 9 7 4.9 0.77
9 7 7 5.05 0.73
-16 7 -7 2.67 0.74
-16 9 7 5.74 1.12
-7 -9 -7 3.65 0.63
-16 10 -7 2.48 0.85
-16 6 7 1.36 0.4
6 10 7 1.43 0.38
-6 16 -7 2.51 0.59
-10 16 7 0.99 0.35
-10 16 7 3.57 0.94
-16 6 7 1.04 0.38
-16 6 7 2.45 0.83
6 10 7 2.26 0.46
-10 -6 -7 1.92 0.45
-16 10 -7 0.94 0.46
6 -16 -7 1.05 0.35
-6 -10 7 0.44 0.31
-10 16 -7 5.33 1.01
10 6 7 4.18 0.8
-16 6 -7 5.24 0.91
-16 10 7 4.29 0.78
-6 16 7 5.08 0.9
-6 16 7 4.64 0.83
-11 16 7 0.91 0.41
-16 11 -7 1.97 0.89
-16 5 7 0 0.32
5 11 7 1.82 0.43
-11 16 7 2.54 0.9
-11 -5 -7 0.78 0.35
5 11 7 0.18 0.29
-5 16 -7 1.41 0.47
-5 -11 7 0.45 0.31
-16 11 -7 0.28 0.45
-16 5 7 1.34 0.68
5 -16 -7 0.34 0.27
-16 5 7 1.98 0.55
-5 -11 -7 0.1 0.24
-16 5 -7 0.44 0.89
-11 16 -7 0.41 0.32
11 5 7 0.53 0.68
-16 11 7 0.03 0.73
-11 16 -7 0.66 0.84
-16 11 7 0.3 0.71
-5 16 7 1.68 0.75
-5 16 7 0.52 0.68
4 12 7 14.23 1.29
-16 4 7 14.75 1.47
12 4 7 24.6 2.08
-16 4 -7 26.81 2.33
-4 16 7 21.3 2.11
-12 16 -7 24.26 2.25
-4 16 7 23.91 2.06
-12 16 -7 22.15 1.93
-16 12 7 24.28 2.17
-16 12 7 20.25 2.21
3 13 7 1.78 0.42
-16 13 7 4.28 0.81
13 3 7 5.2 0.84
-13 16 -7 8.28 1.32
-13 -3 7 6.44 1.22
-13 16 -7 7.78 1.19
-3 16 7 7.82 1.14
-16 13 7 7.63 1.33
-3 16 7 4.91 0.87
-16 2 7 10.58 1.56
-16 14 -7 10.43 1.51
-16 14 -7 9.21 1.66
-14 -2 -7 8.44 1.17
-14 16 7 9.77 1.69
-14 16 7 10.51 1.41
-16 14 7 9.52 1.43
14 2 7 9.54 1.29
-14 16 -7 8.31 1.18
-14 -2 7 11.12 1.54
-16 14 7 6.47 1.12
-16 2 -7 11.26 1.73
-14 16 -7 9.15 1.35
-2 16 7 9.64 1.32
-15 16 7 2.07 0.89
-16 1 7 3.56 0.88
-16 15 -7 2.6 0.89
-16 15 -7 3.59 0.84
-15 -1 -7 1.85 0.86
1 15 7 1.7 0.63
-15 16 7 3.03 0.73
-16 15 7 4.59 0.84
-15 16 -7 2.65 0.61
-1 16 7 3.66 0.76
-15 16 -7 1.79 0.48
-16 16 7 23.22 2.15
-16 16 -7 24.97 2.18
-16 16 -7 21.3 2.24
-16 0 -7 24.45 2.27
-16 0 7 25.93 2.26
-16 16 7 23.45 2.29
0 16 7 20.04 2.08
-17 9 -7 7.52 1.06
-17 8 7 8.73 1.34
8 9 7 7.13 1.19
-9 17 7 7.92 1.22
-17 8 7 9.88 1.34
-9 17 7 10.95 1.43
-8 17 -7 8.88 1.55
-17 9 -7 7.52 1.46
-8 17 7 6.26 1.05
-17 9 7 8.09 0.97
-8 17 7 7.03 0.98
-9 17 -7 7.06 1.14
9 8 7 6.19 1.18
-17 8 -7 5 0.95
-17 8 -7 5.9 1.23
-17 10 -7 5.97 0.97
-17 10 -7 7.83 1.04
-17 7 7 8.14 1.33
-17 7 7 8.3 1.21
-7 17 -7 9.2 1.44
-17 10 -7 8.21 1.69
7 10 7 7.63 1.07
-10 17 7 9.19 1.65
-10 17 7 9.45 1.34
-17 10 7 5.47 0.87
10 7 7 4.22 0.85
-17 10 7 4.73 1.15
-17 7 -7 4.82 1
-7 17 7 4.9 0.89
-10 17 -7 5.15 1.07
-7 17 7 4.59 0.99
-17 6 7 3.12 0.65
-17 11 -7 5.7 1.03
-6 17 -7 3.75 0.82
-17 11 -7 4.78 0.81
6 11 7 3.07 0.55
-17 6 7 5 0.76
-11 17 7 5.57 0.8
-17 11 -7 5.39 0.77
-17 6 7 3.7 0.98
-11 17 7 5.97 0.83
6 11 7 4.46 0.72
-11 17 7 4.22 1.01
-17 6 -7 5.8 1.09
-6 17 7 5.05 0.93
-17 11 7 3.87 0.85
-6 17 7 4.57 0.93
-17 11 7 3.97 1.03
-11 17 -7 4.18 1.01
11 6 7 3.94 0.84
-5 17 -7 7.74 1.25
-12 17 7 13.08 1.84
-12 17 7 12.86 1.2
-17 12 -7 8.77 1.26
-17 5 7 10.79 1.61
5 12 7 10.58 1.24
-17 5 7 10.01 1.2
-17 12 -7 14.16 1.99
-17 5 7 9.58 1.36
-17 12 -7 12.09 1.43
-12 17 7 13.04 1.38
-5 17 7 16.08 1.86
-12 17 -7 18.17 2.04
-5 17 7 16.96 1.76
-17 12 7 16.9 2.09
12 5 7 18.1 1.81
-12 17 -7 17.26 1.62
-17 5 -7 18.43 2.03
-17 12 7 16.96 1.89
-17 13 -7 33.18 2.58
-13 17 7 33.52 2.81
4 13 7 26.21 2.41
-17 4 7 30.29 2.58
-13 17 7 26.08 2.39
-13 17 7 34.66 2.52
-4 17 7 33.08 2.94
-13 -4 7 36.24 2.89
-17 13 7 36.43 3.14
-17 13 7 35.52 2.97
-4 17 7 35.57 2.86
-17 4 -7 38.15 3.13
13 4 7 33.81 2.93
-13 17 -7 35.84 2.87
-13 17 -7 36.41 3.06
-3 17 -7 0.73 0.7
-14 17 7 2.3 0.91
-17 3 7 0.33 0.39
-17 3 7 -0.16 0.27
-17 14 -7 0.01 0.43
-14 -3 -7 1.48 0.82
3 14 7 0.64 0.44
-14 17 7 0.35 0.33
-17 14 -7 1.93 0.91
-17 3 7 1.42 0.78
-17 14 -7 1.71 0.74
-17 3 -7 4.98 0.99
-3 17 7 4.09 0.74
-14 17 -7 5.75 0.98
-3 17 7 4.9 0.89
-14 -3 7 5.61 0.91
-17 14 7 3.76 0.79
-17 14 7 4.18 0.88
-14 17 -7 3.39 0.79
-15 17 7 6.39 1.05
-17 15 -7 5.29 1.07
-15 17 7 5.88 0.88
-17 15 -7 6.82 0.94
-17 2 7 4.86 0.94
-15 -2 -7 5.75 0.98
-15 17 -7 9.58 1.23
-2 17 7 8.02 1.4
-15 -2 7 9.56 1.42
-15 17 -7 8.03 0.94
-17 15 7 7.67 1.34
-17 2 -7 7.49 1.08
-17 15 7 5 1.1
-17 15 7 5.56 0.95
-17 16 -7 37.05 2.94
-16 17 7 36.15 2.96
-16 -1 -7 32.98 2.95
-17 1 7 38.71 3.02
-17 16 -7 36.19 3.15
-16 17 7 35.49 3.06
-16 -1 7 35.05 2.64
-17 1 -7 31.03 2.65
-1 17 7 28.67 2.55
-16 17 -7 25.18 2.54
-17 16 7 29.85 2.53
-17 16 7 30.08 2.67
-16 17 -7 31.87 2.57
-17 17 -7 4.65 0.94
-17 0 -7 4.52 0.91
-17 17 7 6.66 0.98
-17 0 7 7.09 0.93
-17 17 7 4.74 0.82
-17 17 -7 7.16 0.88
-18 9 -7 0.94 0.79
-18 9 7 1.14 0.7
-9 18 7 1.46 0.9
-18 9 7 1.73 1
-9 18 7 1.88 0.77
9 9 7 1.49 0.71
-9 18 -7 1.62 0.97
-18 9 -7 1.41 0.84
-9 18 7 0.77 0.36
-18 9 -7 0.46 0.33
-18 10 -7 7.01 1.04
-8 18 -7 5.52 1.06
-10 18 7 7.4 0.96
-18 8 7 5.93 0.92
-18 10 -7 5.7 1.04
8 10 7 5.66 0.85
-18 8 7 6.12 1.12
-10 18 7 6.94 1.13
10 8 7 8.66 1.38
-10 18 -7 9.21 1.24
-8 18 7 9.46 1.19
-8 18 7 8.5 1.39
-18 8 -7 6.4 1.36
-18 10 7 9.12 1.91
-18 10 7 6.09 0.96
-18 8 -7 8.66 1.15
-18 11 -7 1.86 0.66
-18 11 -7 2.66 0.93
-11 18 7 3.83 0.8
-18 7 7 2.91 0.59
-18 7 7 2.5 0.93
-7 18 -7 1.57 0.86
-18 11 -7 2.21 0.83
-11 18 7 2.35 0.47
7 11 7 1.77 0.57
-18 7 7 2.75 0.77
-11 18 -7 3.22 1
-7 18 7 3.94 0.86
-7 18 7 2.57 0.88
-18 11 7 2.97 0.78
11 7 7 3.22 0.84
-11 18 -7 1.81 0.46
-18 11 7 4.13 1.06
-18 7 -7 2.97 0.96
-18 12 -7 0.16 0.77
-12 18 7 0.93 0.45
-12 18 7 0.16 0.7
-18 6 7 0.16 0.58
-18 12 -7 0.68 0.93
-18 6 7 -0.42 0.84
-12 18 7 0.06 0.88
6 12 7 -0.22 0.41
-18 12 -7 0.48 0.7
-18 6 7 0.31 0.69
-6 18 -7 -1.17 0.72
12 6 7 1.76 0.77
-6 18 7 1.73 0.85
-6 18 7 1.15 0.66
-18 6 -7 2.13 0.94
-12 18 -7 1.81 0.64
-18 12 7 2.88 0.97
-12 18 -7 2.97 0.97
-18 12 7 0.74 0.71
-18 13 -7 6.1 0.96
-18 13 -7 7.69 1.35
-13 18 7 9.1 1.22
-5 18 -7 5.27 0.9
-18 5 7 4.91 0.98
-18 5 7 8.47 1.25
-18 5 7 7.24 1.23
-13 18 7 9.03 1.57
-13 18 -7 10.44 1.44
-5 18 7 10.11 1.36
-13 -5 7 10.58 1.34
-5 18 7 10.37 1.65
-18 13 7 11.47 1.83
-13 18 -7 10.96 1.77
-18 5 -7 11.77 1.74
-18 13 7 11.04 1.53
-18 14 -7 0.5 0.7
4 14 7 -0.03 0.41
-18 4 7 -0.17 0.42
-14 18 7 0.67 0.6
-4 18 -7 0.19 0.47
-18 14 -7 0.83 0.9
-18 14 -7 0.32 0.57
-14 18 7 0.22 0.83
-14 18 7 0.34 0.53
-14 -4 -7 0.38 0.74
4 14 7 -0.03 0.5
-18 4 7 0.13 0.57
-18 4 7 0.08 0.66
-18 4 -7 2.73 0.93
-14 18 -7 1.75 0.73
-18 4 -7 1.42 0.61
-18 14 7 1.38 0.46
-4 18 7 1.6 0.82
-18 14 7 1.35 0.84
-14 -4 7 2.58 0.75
-18 14 7 1.02 0.65
-4 18 7 2.57 0.69
-14 18 -7 3.45 0.94
-18 15 -7 6.57 0.97
-15 18 7 8.49 0.87
3 15 7 9.69 0.95
-18 3 -7 20.95 2.05
-15 18 -7 23 2.17
-18 3 -7 24.07 2.2
-18 15 7 21.39 2.04
-15 -3 7 26.58 2.13
-3 18 7 21.36 2.1
-15 18 -7 20.84 2.04
-18 15 7 22.36 2.2
-18 15 7 21.15 2.03
-18 16 -7 3.13 0.74
-16 18 7 4.03 0.73
-18 16 -7 2.82 0.87
-16 18 7 3.04 0.88
-18 2 7 3.24 0.78
-16 -2 -7 2.29 0.79
-2 18 7 3.32 0.76
-16 18 -7 2.92 0.71
-18 16 7 3 0.68
-16 18 -7 2.54 0.59
-18 2 -7 4.12 0.86
-18 2 -7 3.47 0.74
-18 16 7 1.96 0.53
-18 16 7 4.54 0.86
-18 1 7 9.02 1.4
-18 17 -7 9.7 1.5
-17 18 7 8.54 1.33
-17 -1 -7 9.3 1.36
-18 17 -7 9.01 1.28
-17 18 7 8.36 1.48
-17 -1 7 11.68 1.43
-18 1 -7 10.35 1.34
-18 17 7 9.18 1.33
-17 18 -7 10.06 1.28
-18 1 -7 10.21 1.46
-17 18 -7 6.93 1.17
-18 17 7 9.26 1.47
-18 18 -7 35.76 2.69
-18 0 -7 31.89 2.71
-18 18 -7 32.13 2.8
-18 0 7 37.15 2.77
-18 0 -7 32.17 2.73
-18 18 7 34.71 2.82
-18 18 7 34.73 2.71
-19 10 -7 1.13 0.39
-10 19 7 0.94 0.7
-9 19 -7 1.49 0.89
-10 19 7 0.31 0.32
-19 9 7 0.85 0.37
-10 19 7 0.81 0.84
-19 10 -7 0.34 0.8
-19 10 -7 1.7 0.79
-19 9 7 0.36 0.69
-19 9 7 1.26 0.9
9 10 7 0.68 0.65
-19 9 -7 0.68 0.76
-19 10 7 1.31 0.7
-9 19 7 0.94 0.72
-10 19 -7 0.01 0.93
10 9 7 0.94 0.68
-19 10 7 1.25 0.96
-19 9 -7 1.24 0.82
-9 19 7 0.96 0.85
-11 19 7 10.04 1.73
-19 8 7 10.87 1.46
-19 8 7 9.19 1.7
-11 19 7 11.33 1.41
-19 11 -7 10.25 1.5
8 11 7 8.94 1.26
-19 11 -7 9.63 1.2
-8 19 -7 9.59 1.61
-19 11 -7 11.02 1.73
-19 8 7 8.87 1.21
11 8 7 10.7 1.37
-8 19 7 11.61 1.5
-19 11 7 10.94 1.96
-19 11 7 9.9 1.51
-8 19 7 11.95 1.68
-19 8 -7 8.94 1.43
-19 8 -7 11.02 1.75
-11 19 -7 11.83 1.83
-19 12 -7 14 1.82
-19 7 7 17.5 1.79
-12 19 7 18.06 1.71
-19 7 7 15 1.93
7 12 7 14.59 1.54
-19 12 -7 15.83 2.04
-19 7 7 15.02 1.6
-12 19 7 18.86 1.94
-19 12 -7 15.68 1.64
-7 19 -7 14.64 1.88
-7 19 7 15.75 1.66
-7 19 7 16.29 1.86
-19 7 -7 14.21 1.96
-12 19 -7 14.57 1.5
-12 19 -7 17.2 2
-19 12 7 15.33 1.71
-19 12 7 15.52 2
-13 19 7 9.68 1.15
-13 19 7 12.22 1.7
-19 13 -7 12.25 1.45
-19 13 -7 11.59 1.61
-19 6 7 9.35 1.71
-6 19 -7 13.04 1.66
-19 13 -7 14.97 1.92
-19 6 7 12.07 1.42
-13 -6 -7 10.09 1.39
-19 6 7 14.49 1.54
-13 19 7 12.39 1.4
-13 19 -7 16.03 1.96
-13 19 -7 15.33 1.64
-19 13 7 16.57 1.95
-6 19 7 15.01 1.58
-19 6 -7 15.33 1.86
-19 13 7 14.59 1.7
-6 19 7 16.22 1.85
-19 5 7 2.89 0.69
-14 -5 -7 3.72 0.74
-14 19 7 2.95 0.54
-19 14 -7 2.6 0.73
-14 19 7 2.29 0.84
-5 19 -7 2.09 0.7
-14 19 7 3.05 0.7
-19 14 -7 4.12 0.97
-19 5 7 2.56 0.66
-19 5 7 1.8 0.73
-19 14 -7 3.63 0.82
-5 19 7 7 1.02
-14 19 -7 6.15 0.89
-19 5 -7 7.28 1.05
-5 19 7 7.12 0.88
-14 -5 7 7.72 1.2
-19 5 -7 6.11 0.97
-19 14 7 7.72 1.61
-19 14 7 5.71 0.84
-14 19 -7 6.27 1.05
-19 4 7 7.06 0.94
-19 15 -7 9.41 1.66
-15 19 7 10.47 1.1
-15 19 7 9.3 1.49
-19 15 -7 7.37 1.27
-15 -4 -7 7.96 1.27
-19 4 7 6.47 0.93
-15 19 7 8.12 1.04
-19 4 7 8.56 1.26
-19 15 -7 7.53 1.13
-15 -4 7 10.29 1.27
-19 15 7 8.5 1.48
-19 4 -7 6.45 1.2
-19 4 -7 8.13 1.07
-4 19 7 7.77 1.03
-15 19 -7 6.79 1.05
-15 19 -7 7.06 1.19
-19 15 7 6.86 1.02
-19 15 7 6.39 1.21
-16 19 7 38.01 3.02
-16 19 7 38.17 2.86
-16 -3 -7 32.21 2.9
-19 16 -7 37.95 3.07
-19 16 -7 37.08 2.89
-19 3 7 36.19 2.9
-16 19 -7 38.56 3.14
-19 3 -7 40.69 3.12
-3 19 7 36.53 3.14
-16 -3 7 44.52 3.15
-16 19 -7 39.66 3.1
-19 16 7 38.03 3.1
-19 16 7 39.75 3.15
-19 3 -7 41.11 3.21
-19 16 7 38.71 3.17
-17 -2 -7 6.8 1.16
-19 17 -7 8.94 1.44
-17 19 7 9.17 1.09
-19 17 -7 6.77 1.2
-17 19 7 8.74 1.32
-19 2 7 7.7 1.21
-19 17 7 11.04 1.3
-19 2 -7 10.61 1.3
-19 2 -7 10.37 1.41
-17 19 -7 11.22 1.34
-17 -2 7 13.06 1.4
-19 17 7 12.26 1.48
-18 19 7 6.3 0.91
-18 -1 -7 5.57 0.96
-19 1 7 6.25 1.05
-18 19 7 4.58 0.8
-19 18 -7 3.76 0.8
-19 18 -7 5.36 0.71
-18 -1 -7 4.78 0.73
-19 18 7 2.94 0.63
-19 1 -7 3.91 0.65
-18 -1 7 3.37 0.65
-19 18 7 3.85 0.76
-18 19 -7 4.91 0.69
-19 1 -7 3.66 0.72
-19 0 -7 7.62 1.04
-19 0 -7 7.25 1.05
-19 19 7 8.36 0.91
-19 19 7 8.82 1.16
-19 0 7 8.11 1.08
-19 19 -7 7.81 1.05
-20 10 7 7.48 1.36
-10 20 7 7.81 1.23
-20 10 -7 8.39 1.53
-10 20 -7 9.1 1.55
-20 10 -7 6.85 1.02
-20 10 7 8.43 1.14
-10 20 7 8.71 1.13
-20 9 7 3.81 0.72
-11 20 7 3.21 0.73
-20 9 7 3.57 0.9
-9 20 -7 3.85 0.9
-11 20 7 4.14 0.89
-20 11 -7 4.28 0.88
-20 11 -7 3.55 0.83
-20 9 7 4.36 0.78
-9 20 7 5.21 0.78
-11 20 -7 5.21 1.01
-20 9 -7 5.89 0.95
-20 11 7 5.39 0.99
-20 11 7 6.04 0.83
-9 20 7 6.06 0.99
-20 9 -7 3.56 0.85
-20 8 7 8.72 1.59
-8 20 -7 9.26 1.53
-20 12 -7 9.05 1.07
-12 20 7 8.68 1.47
-20 12 -7 9.47 1.45
-20 12 -7 8.95 1.58
-20 8 7 9.61 1.41
-20 8 7 10.32 1.18
-12 20 7 9.14 1.3
-12 20 -7 3.5 0.57
-12 20 -7 5.81 0.99
-20 8 -7 2.76 0.69
-20 8 -7 5.59 0.95
-8 20 7 5.81 0.94
-20 12 7 5.22 0.97
-8 20 7 3.67 0.73
-20 12 7 4.53 0.74
-20 7 7 9.66 1.35
-13 20 7 7.87 1.46
-20 13 -7 10.96 1.61
-13 -7 -7 6.19 0.97
-20 13 -7 7.87 1.43
-13 20 7 7.32 1.22
-7 20 -7 6.72 1.06
-20 7 7 9.24 1.23
-20 7 7 7.4 1.5
-20 13 -7 8.86 1.13
-7 20 7 9.74 1.35
-20 7 -7 14.17 1.68
-7 20 7 12.06 1.64
-20 13 7 12.04 1.73
-20 13 7 11.56 1.43
-13 20 -7 13.51 1.72
-13 20 -7 11.35 1.34
-6 20 -7 -0.38 0.71
-14 20 7 0.41 0.27
-20 14 -7 1.7 0.83
-20 6 7 1.29 0.62
-14 20 7 1.1 0.78
-20 14 -7 0.84 0.7
-20 6 7 0.43 0.6
-20 14 -7 0.43 0.59
-20 6 7 0.89 0.68
-14 20 7 0.3 0.58
-14 -6 -7 0.3 0.48
-14 -6 7 0.51 0.4
-6 20 7 0.45 0.57
-20 14 7 1.06 0.75
-6 20 7 1.37 0.73
-20 6 -7 -0.15 0.3
-14 20 -7 0.06 0.62
-14 20 -7 0.3 0.77
-20 6 -7 0.84 0.77
-20 14 7 0.57 0.57
-15 20 7 17.31 1.61
-15 -5 -7 14.07 1.54
-20 5 7 19.85 1.6
-20 15 -7 22.32 2.01
-20 15 -7 18.77 1.63
-20 15 -7 17.58 1.72
-20 5 7 19.33 1.69
-20 5 7 15.1 1.57
-15 20 7 18.85 1.8
-5 20 7 21.67 2
-20 5 -7 23.41 2.1
-15 -5 7 20.94 1.85
-15 20 -7 22.47 1.9
-20 15 7 19.41 1.83
-20 15 7 22.29 2.15
-15 20 -7 23.41 2.07
-20 5 -7 19.12 1.78
-16 20 7 11.88 1.1
-20 16 -7 12.82 1.21
-16 -4 -7 13.93 1.23
-20 4 -7 21.2 1.83
-4 20 7 20.51 1.85
-16 20 -7 21.06 1.87
-16 -4 7 21.8 1.83
-20 16 7 22.2 2
-20 4 -7 22.27 1.98
-16 20 -7 23.31 1.96
-20 16 7 18.51 1.85
-17 20 7 0.7 0.25
-20 17 -7 0.62 0.54
-20 3 7 0.89 0.5
-17 -3 -7 0.41 0.42
-17 20 7 1.6 0.64
-20 17 -7 1.12 0.72
-20 17 7 0.68 0.5
-20 3 -7 0.74 0.65
-20 3 -7 0.6 0.52
-17 -3 7 1.77 0.53
-20 17 7 0.82 0.36
-17 20 -7 0.69 0.36
-17 20 -7 0.39 0.52
-20 17 7 1.01 0.55
-18 20 7 12.12 1.44
-18 -2 -7 15.38 1.39
-20 2 7 13.7 1.38
-20 18 -7 14.4 1.62
-20 18 -7 15 1.36
-20 2 -7 11.72 1.25
-20 2 -7 10.75 1.14
-20 18 7 10.48 1.26
-18 -2 7 11.48 1.18
-20 18 7 10.33 1.19
-18 20 -7 12.7 1.24
-19 -1 -7 2.81 0.45
-20 19 -7 2 0.42
-19 -1 7 9.07 0.97
-19 20 -7 8.99 1.02
-20 19 7 7.95 1.02
-20 19 7 6.83 0.77
-20 1 -7 7.74 0.92
-20 1 -7 8.11 0.94
-20 20 7 1.92 0.49
-20 0 7 2.09 0.46
-20 0 -7 1.91 0.44
-20 20 -7 2.19 0.49
-21 11 -7 9.54 1.5
-11 21 7 9.3 1.48
-10 21 -7 6.9 1.05
-21 10 7 11.2 1.28
-21 11 -7 8.64 1.37
-11 21 7 9.08 1.21
-21 10 7 9.7 1.5
-21 11 7 9.13 1.49
-11 21 -7 7.88 1.46
-21 10 -7 7.64 1.38
-21 10 -7 8.08 1.36
-10 21 7 8.88 1.38
-21 11 7 8.51 1.28
-10 21 7 8.6 1.14
-12 21 7 9.88 1.45
-21 12 -7 12.15 1.67
-21 9 7 12.4 1.42
-9 21 -7 9.4 1.54
-12 21 7 10.68 1.29
-21 12 -7 11.3 1.46
-21 9 7 10.85 1.59
-9 21 7 13.22 1.4
-9 21 7 12.86 1.58
-21 12 7 12.99 1.43
-21 12 7 13.48 1.72
-21 9 -7 10.08 1.4
-21 9 -7 13.73 1.59
-12 21 -7 13.19 1.62
-21 13 -7 6.21 0.95
-21 8 7 6.38 1.26
-13 21 7 6.38 0.92
-13 21 7 5.75 1.01
-21 13 -7 5.04 0.84
-21 8 7 7.09 0.92
-8 21 -7 6.42 0.97
-21 13 -7 4.23 0.67
-21 8 7 7.99 1.2
-8 21 7 8.82 1.42
-8 21 7 7.57 1.11
-13 21 -7 7.35 0.95
-21 8 -7 9.66 1.42
-21 13 7 10.06 1.23
-13 21 -7 9.43 1.47
-21 13 7 10.19 1.5
-14 21 7 1.86 0.58
-21 7 7 2.87 0.57
-21 14 -7 1.78 0.48
-14 21 7 3.04 0.78
-21 14 -7 2.28 0.7
-21 7 7 2.48 0.62
-21 14 -7 2.75 0.81
-7 21 -7 1.67 0.73
-21 7 7 2.16 0.66
-7 21 7 2.13 0.71
-14 21 -7 1.75 0.57
-21 14 7 1.74 0.58
-21 7 -7 2.06 0.74
-14 21 -7 2.94 0.77
-21 14 7 2.6 0.74
-21 15 -7 1.09 0.6
-15 21 7 1.39 0.69
-15 21 7 1.16 0.51
-21 15 -7 1.04 0.51
-21 15 -7 2.35 0.79
-21 6 7 1.18 0.44
-21 6 7 1.3 0.5
-6 21 -7 0.93 0.48
-21 6 7 1.53 0.54
-21 6 -7 2.31 0.74
-21 15 7 2.23 0.53
-6 21 7 2.75 0.64
-15 21 -7 2.94 0.6
-21 15 7 2.49 0.72
-15 21 -7 2.51 0.75
-21 16 -7 2.82 0.54
-21 5 7 1.28 0.29
-16 21 7 2.78 0.69
-16 21 7 1.83 0.35
-21 16 -7 1.97 0.42
-21 16 -7 2.47 0.7
-16 -5 7 1.9 0.44
-21 16 7 2.28 0.67
-16 21 -7 1.25 0.54
-16 21 -7 2.2 0.66
-21 5 -7 2.96 0.68
-21 16 7 2.14 0.53
-17 -4 -7 12.71 1.22
-17 21 7 11.15 1.3
-21 17 -7 10.77 1.16
-21 4 7 11.27 1.25
-21 17 -7 11.86 1.43
-17 21 -7 13.03 1.24
-21 4 -7 12.09 1.16
-21 17 7 11.74 1.21
-21 4 -7 13.54 1.32
-17 -4 7 13.36 1.2
-21 18 -7 16.86 1.66
-21 18 -7 17.33 1.46
-18 -3 -7 18.23 1.51
-21 3 7 16.38 1.5
-18 21 7 17.85 1.58
-21 3 -7 18.75 1.62
-21 18 7 20.42 1.57
-18 -3 7 19.95 1.56
-21 3 -7 16.92 1.54
-18 21 -7 19.32 1.58
-22 11 7 19.54 1.67
-11 22 7 17.66 1.6
-11 22 -7 19.01 1.83
-11 22 7 18.06 1.74
-22 11 -7 17.4 1.77
-22 11 -7 16.89 1.67
-22 11 7 18.61 1.83
-12 22 7 4.16 0.6
-22 12 -7 3.49 0.74
-12 22 7 3.74 0.76
-10 22 -7 4.04 0.77
-22 10 7 3.86 0.74
-22 10 7 4.24 0.67
-22 12 -7 3.98 0.72
-12 22 -7 4.22 0.81
-10 22 7 4.67 0.78
-22 12 7 3.82 0.66
-22 10 -7 5.04 0.79
-10 22 7 3.47 0.64
-22 12 7 4 0.8
-22 13 -7 16.08 1.66
-22 9 7 14.81 1.54
-9 22 -7 15.32 1.59
-22 9 7 17.65 1.49
-22 13 -7 14.4 1.51
-13 22 7 14.63 1.6
-13 22 7 14.32 1.41
-22 13 7 12.36 1.55
-22 13 7 11.4 1.27
-22 9 -7 12.36 1.37
-9 22 7 10.94 1.33
-13 22 -7 11.91 1.43
-9 22 7 10.04 1.21
-22 14 -7 14.03 1.52
-22 8 7 12.53 1.25
-14 22 7 10.4 1.14
-22 8 7 10.77 1.25
-14 22 7 10 1.34
-8 22 -7 13.86 1.32
-22 14 -7 10.26 1.26
-22 8 -7 7.9 1.19
-14 22 -7 9.01 1.27
-22 14 7 8.85 1.28
-22 14 7 9.34 1.1
-8 22 7 7.03 1
-22 7 7 7.17 0.83
-22 7 7 6.07 0.68
-22 7 7 4.65 0.68
-15 22 7 7.19 1.11
-22 15 -7 5.75 0.89
-22 15 -7 8.83 1.39
-15 22 7 5.96 0.8
-22 7 -7 4.54 0.7
-15 22 -7 3.68 0.72
-22 15 7 4.69 0.82
-15 22 -7 3.1 0.49
-22 15 7 6.29 1.19
-22 16 -7 7.93 0.72
-22 16 -7 8.73 0.8
-22 6 -7 18.74 1.62
-22 16 7 19.58 1.67
-16 22 -7 16.9 1.58
-16 22 -7 17.73 1.48
-22 16 7 16.8 1.53
-22 17 -7 2.8 0.64
-17 22 7 2.17 0.63
-17 -5 -7 1.9 0.48
-22 5 7 3.68 0.68
-22 17 7 1.09 0.3
-23 12 -7 2.52 0.56
-23 11 7 5.56 1.02
-12 23 7 4.08 0.62
-12 23 7 3.35 0.55
-23 12 -7 3.25 0.62
-11 23 -7 3.37 0.72
-23 11 7 5.43 0.88
-23 12 7 6.22 0.9
-11 23 7 5.21 0.83
-23 12 7 6.44 1.12
-23 11 -7 5.7 0.98
-11 23 7 5.15 0.87
-12 23 -7 6.73 1.17
-10 23 -7 20.64 1.75
-13 23 7 19.12 1.57
-23 10 7 18.69 1.67
-23 13 -7 17.24 1.64
-23 13 -7 18.64 1.7
-13 23 7 18.06 1.63
-23 10 7 21.33 1.63
-13 23 -7 25.78 2.17
-23 13 7 26.02 2.05
-23 13 7 25.85 2.19
-23 10 -7 24.57 2.1
0 0 -8 0.61 0.41
0 0 8 -0.06 0.53
0 0 8 0.24 0.38
0 0 8 0.1 0.47
0 0 -8 -0.33 0.23
-1 0 8 33.66 2.66
1 0 -8 34.44 2.5
0 1 -8 35.82 2.51
0 1 8 33.64 2.69
-1 1 8 34.68 2.68
1 -1 -8 30.88 2.48
1 0 8 29.41 2.55
-1 0 -8 31.57 2.49
-1 1 8 33.38 2.61
-1 0 8 32.29 2.49
1 -1 8 31.65 2.58
1 0 8 33.43 2.68
0 1 8 31.08 2.47
1 -1 8 33.54 2.65
-1 1 -8 34.51 2.51
0 -1 8 30.41 2.57
-1 1 8 29.65 2.47
-1 0 8 29.82 2.57
0 1 8 34.15 2.61
0 -1 -8 31.03 2.49
0 -1 8 31.93 2.63
-1 -1 8 42.59 2.97
-2 1 -8 43.01 2.96
-1 2 8 38.94 3.05
-1 2 -8 40.86 2.95
2 -1 8 40.09 3.1
1 1 8 35.92 2.91
-1 -1 -8 39.94 2.95
-1 -1 8 39.27 3.08
-1 -1 8 34.17 3
-2 1 8 37.92 3.11
1 -2 8 32.42 2.97
-1 2 8 35.54 2.91
2 -1 8 39.11 3.04
-1 2 8 40.66 3.16
-2 1 8 33.29 2.92
1 1 8 41.13 3.04
1 1 8 43.92 3.15
1 -2 -8 39.21 2.94
1 -2 8 40.27 3.1
2 -2 8 2.77 0.61
-2 0 8 4.36 0.76
2 -2 8 3.36 0.67
0 2 8 4.4 0.74
2 0 8 3.22 0.67
0 2 8 2.46 0.61
0 -2 8 3.29 0.63
-2 2 8 3.8 0.55
-2 2 -8 4.51 0.61
2 -2 -8 2.7 0.57
-2 0 -8 4.03 0.6
0 2 8 3.2 0.49
2 -2 -8 4.47 0.82
0 2 -8 4.05 0.59
-2 0 8 4.11 0.97
0 -2 8 3.11 0.64
-2 2 8 4.17 1.02
0 -2 -8 3.89 0.73
-2 -1 -8 14.65 1.44
-3 1 8 17.77 1.69
-1 -2 8 17.51 1.57
-3 2 -8 19.24 1.47
1 -3 -8 17.4 1.48
1 2 8 16.18 1.35
3 -1 8 17.7 1.58
-3 1 8 18.02 1.47
1 -3 -8 14.2 1.46
1 -3 -8 17.66 1.45
-2 3 8 19.31 1.73
2 -3 8 13.84 1.49
1 2 8 18.77 1.69
-2 -1 -8 16.9 1.44
-1 -2 8 18.07 1.65
-1 3 -8 17.98 1.44
2 -3 8 17.81 1.68
3 -2 -8 14.89 1.51
3 -1 8 16.03 1.6
-2 3 8 15.15 1.39
-2 -1 8 18.01 1.58
2 1 8 14.06 1.27
-1 3 8 13.64 1.39
1 -3 8 17.52 1.48
-1 -2 -8 13.82 1.37
-1 -2 -8 15.84 1.39
3 -2 8 15.16 1.52
-3 2 8 14 1.34
2 1 8 14.43 1.4
-2 3 -8 17.48 1.39
-3 1 -8 17.47 1.39
1 -3 8 16.58 1.58
-3 2 8 17.41 1.6
-1 3 8 17.82 1.66
3 -2 8 15.78 1.48
3 -1 -8 18.49 1.53
2 -3 -8 13.2 1.36
2 1 8 14.68 1.58
2 -3 -8 14.62 1.4
-1 3 8 13.27 1.27
-3 0 8 9.88 1.03
0 3 8 10.58 1.3
-3 3 8 7.96 0.9
0 -3 -8 9.54 1.02
-3 3 8 8.89 1.26
3 -3 -8 7.11 0.92
-3 0 8 8.7 1.15
-3 0 -8 9.23 0.98
3 -3 8 8.73 1.18
3 0 8 8.45 1.13
0 -3 -8 6.91 0.94
3 -3 8 8.67 1.06
3 -3 -8 9.18 1.02
0 -3 8 10.24 1.23
0 -3 -8 9.37 0.96
3 0 8 9.15 1.04
0 -3 8 9.59 1.11
3 0 -8 8.26 1.06
-3 3 -8 10 0.98
0 3 -8 7.68 0.89
2 2 8 61.1 4.41
-4 2 8 54.64 4.22
-2 4 -8 58.82 4.21
-2 -2 8 58.02 4.36
-2 -2 -8 52.59 4.21
-2 4 8 64.07 4.45
2 -4 8 57.39 4.37
-4 2 8 56.79 4.38
2 -4 -8 50.7 4.28
4 -2 8 52.01 4.33
4 -2 8 57.35 4.32
2 -4 -8 58.29 4.25
2 -4 8 62.8 4.3
-2 -2 -8 50.39 4.19
-4 2 -8 58.34 4.24
4 -3 -8 34.17 3.11
-3 4 8 39.25 3.06
-1 -3 8 42.25 3.26
1 -4 -8 37.55 3.06
-3 -1 -8 38.61 3.1
-1 4 -8 38.25 3.07
-3 4 8 43.87 3.32
1 3 8 40.24 3.27
4 -3 -8 43.21 3.17
4 -1 8 37.36 3.17
3 -4 8 41.79 3.28
-4 1 8 44.25 3.26
1 -4 -8 40.62 3.08
1 -4 -8 38.75 3.18
-4 1 8 47.21 3.15
4 -1 8 40.72 3.22
-4 3 -8 46 3.12
1 -4 -8 44.05 3.12
3 -4 8 39.69 3.17
3 -4 -8 29.93 2.6
3 -4 -8 36.34 2.6
4 -3 8 29.16 2.67
-1 -3 -8 31.02 2.54
1 -4 8 35.82 2.65
-4 3 8 36.52 2.75
-3 4 -8 38.04 2.57
4 -1 -8 31.32 2.63
-3 -1 8 31.94 2.71
-4 3 8 32.44 2.54
3 1 8 36.6 2.76
-4 1 -8 37.17 2.59
1 -4 8 33.4 2.74
-1 -3 -8 29.09 2.52
4 -3 8 32.11 2.65
-1 -3 -8 30.68 2.62
-4 0 -8 9.91 1.04
0 -4 -8 9.98 1
4 0 -8 8.98 1.08
-4 0 8 9.82 1.25
0 -4 -8 9.86 0.94
0 4 8 11.23 1.35
-4 0 8 10.65 1.12
-4 4 -8 11.43 1.05
4 0 8 8.72 1.17
4 -4 8 9.14 1.22
0 -4 8 10.29 1.15
4 -4 8 9.25 1.1
-4 4 8 10.24 0.96
4 -4 -8 7.49 1
0 -4 8 10.68 1.33
0 -4 -8 9.85 1.11
0 -4 -8 8.83 0.94
4 -4 -8 9.95 1.12
-4 4 8 10.93 1.34
5 -2 8 19.88 1.76
-3 -2 -8 18.02 1.71
-3 -2 -8 17.27 1.59
-3 -2 -8 19.8 1.61
2 -5 -8 19.58 1.66
2 -5 -8 16.78 1.6
-2 -3 8 22.99 1.73
2 3 8 22.6 1.86
5 -2 8 17 1.75
-5 2 8 21.3 1.68
-3 5 8 21.16 1.96
-2 -3 8 18.7 1.83
-2 5 -8 19.19 1.62
-5 3 -8 20.82 1.69
3 -5 8 20.54 1.91
5 -3 -8 21.88 1.77
3 -5 8 20.39 1.76
-5 2 8 19.18 1.84
2 -5 -8 19.81 1.78
-3 5 -8 18.72 1.66
5 -3 8 18.46 1.79
3 2 8 19.81 1.85
-2 5 8 24.35 2.05
5 -2 -8 24.5 1.84
-3 -2 8 19.5 1.89
-5 3 8 20.63 1.89
3 -5 -8 20.88 1.73
5 -3 8 20.97 1.84
-2 -3 -8 18.3 1.77
-2 -3 -8 20.38 1.68
2 -5 8 23.01 1.81
2 -5 8 20.92 1.93
-5 3 8 19.19 1.68
-5 2 -8 23.18 1.75
3 -5 -8 20.45 1.79
-2 -3 -8 16.94 1.62
-1 5 -8 29.51 2.37
4 -5 8 31.01 2.58
-5 4 -8 34.57 2.45
4 1 -8 35.18 2.54
-5 1 8 30.78 2.54
-1 -4 8 30.21 2.6
1 -5 -8 28.83 2.38
1 -5 -8 31.58 2.55
5 -4 -8 34.27 2.49
4 -5 8 32.75 2.51
5 -1 8 26.28 2.48
-4 5 8 34.4 2.66
1 4 8 32.07 2.63
-4 -1 -8 27.19 2.35
1 -5 -8 31.05 2.39
-4 -1 -8 30.33 2.39
-4 -1 -8 26.35 2.45
5 -1 -8 31.55 2.57
4 -5 -8 28.8 2.55
1 -5 8 35.77 2.58
-5 4 8 32.52 2.47
-1 -4 -8 32.18 2.47
5 -4 8 31.46 2.56
5 -4 8 32.31 2.63
-1 -4 -8 28.3 2.44
-1 -4 -8 30.69 2.59
-5 1 -8 36.04 2.52
4 1 8 29.67 2.61
4 -5 -8 32.89 2.53
-1 5 8 37.64 2.8
-4 5 -8 35.18 2.49
-4 -1 8 28.91 2.62
-5 4 8 31.27 2.68
1 -5 8 31.7 2.7
0 -5 -8 55.84 4.09
-5 0 -8 53.12 4.11
5 -5 -8 55.2 4.15
-5 5 8 51.31 4.08
5 -5 8 48.69 4.23
-5 0 8 49.01 4.19
5 0 -8 61.68 4.22
5 -5 -8 54.99 4.19
-5 5 8 59.64 4.29
0 5 8 54.68 4.3
0 -5 8 57.03 4.28
5 -5 8 56.98 4.2
0 -5 -8 58.69 4.25
-6 3 -8 102.19 7.05
-3 -3 8 95.08 7.14
-3 6 -8 92.73 7
-3 -3 -8 92.84 7.12
-3 -3 -8 100.3 7.02
6 -3 8 91.55 7.1
3 -6 -8 97.43 7.03
-6 3 8 82.99 7.1
-6 3 8 99.26 7.03
3 3 8 83.52 7.13
3 -6 8 105.81 7.2
3 -6 8 103.7 7.09
-3 -3 8 102.45 7.06
3 -6 -8 99.86 7.03
3 -6 -8 91.25 7.12
-4 -2 -8 73.49 6.09
-2 -4 8 82.24 6.15
-6 2 8 88.52 6.05
4 -6 8 84.39 6.17
4 -6 8 90.37 6.09
2 4 8 78.07 6.15
-4 -2 -8 75.89 5.99
-2 6 -8 74.92 5.97
2 -6 -8 83.07 6.14
2 -6 -8 77.71 6
-6 4 -8 92.13 6.04
-6 4 8 71.65 5.26
-4 -2 8 82.6 5.32
6 -2 -8 69.9 5.34
-6 4 8 67.79 5.37
-4 -2 8 60.36 5.33
-6 2 -8 80.33 5.3
4 -6 -8 70.56 5.36
-4 6 -8 66.51 5.24
4 -6 -8 74.18 5.28
-2 -4 -8 75.26 5.26
-2 -4 -8 66.21 5.37
6 -4 8 72.97 5.36
2 -6 8 76.03 5.45
2 -6 8 77.2 5.33
6 -4 8 59.51 5.33
-6 1 8 8.9 1.06
6 -5 -8 9.62 1.08
-5 -1 -8 8.76 0.89
1 5 8 9.09 1.23
-5 6 8 8.41 1.27
-1 -5 8 8.11 1.26
5 -6 8 7.48 1.14
1 -6 -8 8.34 1.17
-6 5 -8 9.67 1.08
1 -6 -8 8.73 0.94
-5 -1 -8 6.4 0.83
5 -6 8 10.69 1.18
5 1 -8 6.76 0.97
-5 -1 8 8.05 0.99
-1 6 8 5.35 1.15
1 -6 8 6.62 0.97
-6 5 8 6.41 0.79
1 -6 8 7.01 1.24
-6 5 8 6.15 1.11
-1 -5 -8 6.97 0.79
-5 6 -8 6.18 0.8
6 -1 -8 4.43 0.92
-1 -5 -8 5.95 0.98
5 -6 -8 7.23 0.9
6 -5 8 4.5 0.95
5 -6 -8 5.12 0.92
6 -5 8 6.8 1
-6 1 -8 5.76 0.85
0 -6 8 -0.3 0.57
6 -6 -8 0.26 0.43
0 -6 -8 0.46 0.38
-6 6 -8 0.27 0.44
6 -6 -8 0.56 0.5
-6 0 -8 0.32 0.35
-6 0 8 -0.24 0.3
6 0 -8 0.33 0.46
-6 0 -8 0.11 0.28
-6 6 8 0.19 0.47
0 -6 -8 0.12 0.54
-6 0 -8 0.77 0.36
6 -6 8 0.38 0.58
6 0 8 -0.11 0.35
-6 6 8 0.21 0.28
0 -6 8 -0.19 0.5
6 -6 8 0.08 0.4
-6 0 8 0.07 0.53
0 6 8 0.18 0.45
-3 7 -8 7.73 0.82
7 -3 8 7.2 0.98
-3 -4 8 7.93 1.08
-4 -3 -8 10.54 1.11
3 -7 -8 10.25 1.11
4 -7 -8 14.3 1.26
-7 4 8 11.87 1.28
-3 -4 -8 12.5 1.36
7 -4 8 12.62 1.36
3 -7 8 15.83 1.39
-4 7 -8 12.17 1.19
7 -3 -8 12.91 1.37
4 -7 -8 12.95 1.41
3 -7 8 15.07 1.66
-3 -4 -8 15.41 1.26
-7 3 -8 15.86 1.36
-2 -5 8 36.57 2.98
5 -7 8 40.53 3.05
-5 -2 -8 33.54 2.92
-5 7 -8 45.52 3.57
-2 -5 -8 51.23 3.59
-7 2 -8 53.02 3.64
-7 5 8 47.37 3.59
2 -7 8 50.7 3.84
-2 -5 -8 43.17 3.72
7 -2 -8 42.41 3.65
2 -7 8 52.91 3.67
5 -7 -8 47.46 3.71
5 -7 -8 46.94 3.61
7 -5 8 45.51 3.69
1 -7 -8 14.71 1.5
6 -7 8 10.67 1.38
-6 -1 -8 12.82 1.21
-6 7 8 13.35 1.52
7 -6 -8 15.01 1.37
1 6 8 10.53 1.36
-7 1 8 15.81 1.37
1 -7 -8 13.76 1.2
-1 -6 8 11.22 1.43
6 -7 8 15.13 1.43
-6 7 -8 13.24 1.23
7 -1 -8 12.75 1.33
1 -7 8 15.21 1.61
-7 6 8 11.35 1.37
-1 7 8 14.27 1.57
7 -6 8 15.45 1.41
6 -7 -8 14.22 1.31
-7 1 -8 12.42 1.24
-1 -6 -8 14.7 1.46
-1 -6 -8 15.81 1.23
6 -7 -8 12.06 1.32
-6 -1 8 14.96 1.37
-7 0 8 8.91 1
-7 7 -8 7.16 0.85
0 -7 -8 8.02 0.84
0 -7 -8 8.04 1.18
7 -7 -8 8.03 0.93
-7 0 -8 5.77 0.81
0 7 8 6.66 1.08
-7 7 8 6.47 1.03
0 -7 8 5.68 1.14
7 -7 8 9.28 1.13
-8 4 8 75.02 6.25
4 -8 -8 85.9 6.25
4 -8 8 85.06 6.29
-4 -4 -8 86.75 6.22
-8 4 -8 87.37 6.29
4 -8 8 92.73 6.49
4 -8 -8 84.4 6.4
8 -4 -8 83.13 6.33
-5 -3 -8 44.69 3.48
5 -8 8 41.02 3.56
-5 8 8 47.29 3.78
3 -8 -8 48.29 3.7
3 -8 -8 43.61 3.49
-8 3 8 52.02 3.57
8 -5 -8 49.69 3.62
-8 5 -8 46.18 3.55
5 -8 8 44.64 3.72
-5 -3 8 33.82 2.82
-3 -5 -8 39.35 2.8
8 -3 -8 32.83 2.88
-8 3 -8 38.43 2.86
3 -8 8 41.02 3.15
3 -8 8 36.04 2.87
5 -8 -8 35.05 2.83
5 -8 -8 36.75 2.98
-6 -2 -8 6.76 0.91
-2 -6 8 7.01 0.81
8 -6 -8 7.61 0.87
6 -8 -8 4.31 0.65
8 -2 -8 7.32 0.83
-8 6 8 5.19 0.68
-6 8 -8 5.48 0.65
8 -7 -8 9.95 1.03
7 -8 8 11.66 1.2
-1 -7 8 8.06 0.92
8 -7 -8 7.78 0.93
-7 8 8 7.83 1.1
-1 8 8 8.06 1.15
-7 8 -8 5.91 0.74
7 -8 -8 6.94 0.92
1 -8 8 7.51 1.16
0 -8 8 0.41 0.36
-8 8 8 -0.24 0.35
0 8 8 -0.11 0.42
8 -8 -8 -0.14 0.35
-8 0 -8 0.5 0.38
-8 0 8 -0.08 0.39
-8 8 -8 0.11 0.31
0 -8 -8 0.49 0.52
0 -8 -8 0.34 0.37
-8 0 -8 -0.41 0.45
8 -8 8 0.5 0.54
0 -8 8 -0.55 0.37
8 -8 -8 -0.13 0.41
-5 -4 -8 40.88 2.89
5 -9 8 38.15 3.16
-9 5 -8 37.67 2.95
9 -5 -8 39.44 3.01
-9 4 8 39.71 2.94
4 -9 -8 32.41 3.04
5 -9 8 32.92 2.91
4 -9 -8 40.38 2.91
-4 -5 -8 29.41 2.52
5 -9 -8 36.05 2.63
4 -9 8 28.83 2.42
9 -4 -8 28.83 2.48
9 -6 -8 13.85 1.38
-9 6 -8 12.9 1.32
-6 -3 -8 14.01 1.26
-9 3 8 15.51 1.34
6 -9 8 13.32 1.31
3 -9 -8 12.09 1.47
3 -9 -8 13.17 1.25
9 -6 8 4.19 0.78
9 -3 -8 6.35 0.79
-6 -3 8 3.77 0.66
3 -9 8 5.36 0.7
-9 7 -8 20.24 1.61
-7 -2 -8 19.36 1.61
2 -9 -8 21.58 1.58
-2 -7 8 17.27 1.61
-9 2 8 18.73 1.65
2 -9 -8 16.95 1.79
7 -9 8 16.72 1.66
9 -7 -8 18.68 1.64
-7 -2 8 7.03 0.89
2 -9 8 11.04 1.31
7 -9 -8 9.61 0.92
9 -7 8 9.08 1.06
8 -9 8 24.11 1.96
-9 1 8 22.94 1.91
1 -9 -8 22.54 2.07
0 -9 -8 7.37 0.97
9 -9 8 8.44 0.99
10 -5 -8 17.44 1.57
-10 5 8 14.03 1.45
5 -10 -8 20.55 1.7
4 -10 -8 12.32 1.46
10 -6 -8 15.65 1.41
-10 6 -8 16.34 1.38
-10 4 8 15.56 1.36
-4 -6 -8 7.35 1.01
6 -10 -8 8.94 1.05
3 -10 -8 2.54 0.63
-10 3 8 3.7 0.67
-10 7 -8 2.24 0.48
10 -7 -8 2.77 0.56
3 -10 8 0.06 0.47
3 -10 8 0.39 0.34
10 -3 -8 0.17 0.63
-3 -7 -8 0.96 0.45
10 -7 8 0.26 0.5
7 -10 -8 1.09 0.51
8 -10 -8 4.25 0.83
-2 -8 -8 3.88 0.76
0 -10 8 50.4 3.85
5 -11 -8 0.08 0.73
11 -6 -8 0.23 0.54
6 -11 -8 -0.45 0.49
5 -11 8 -0.25 0.53
-5 -6 -8 -0.55 0.55
-6 -5 8 0.54 0.35
4 -11 -8 21.36 1.71
-4 -7 8 17.63 1.72
-7 -4 -8 22.2 1.72
-8 -3 -8 9.15 1.07
-3 -8 8 8.96 1.03
3 -11 -8 9.46 1
8 -11 -8 3 0.59
-2 -9 8 21.38 2.02
-9 -2 -8 26.03 2.04
2 -11 -8 25.79 1.95
2 -11 8 13.86 1.27
-1 -10 8 39.16 3.11
-10 -1 -8 41.14 3.1
1 -11 8 32.88 2.6
-11 0 -8 -0.08 0.32
0 -11 8 0.31 0.39
6 -12 -8 3.78 0.79
-6 -6 -8 3.62 0.7
-7 -5 -8 28.29 2.2
5 -12 -8 26.76 2.2
-5 -7 -8 26.09 1.93
7 -12 -8 21.3 1.94
4 -12 -8 19.69 1.56
-8 -4 -8 18.44 1.6
-4 -8 8 16.2 1.56
8 -12 -8 9.39 0.98
-9 -3 -8 1.32 0.54
-3 -9 8 1.33 0.46
3 -12 -8 1.69 0.48
3 -12 8 0.21 0.34
-10 -2 -8 14.13 1.38
2 -12 -8 15.52 1.33
2 -12 8 5.95 0.76
1 -12 8 8.29 0.9
0 12 8 0.07 0.39
-12 0 8 -0.28 0.32
0 -12 8 0.14 0.32
-12 12 8 0.65 0.4
-12 12 -8 0.01 0.39
0 12 8 0.04 0.29
0 -12 -8 0.44 0.43
-12 12 -8 0.07 0.29
-6 -7 8 0.9 0.35
-13 6 8 -0.32 0.51
-7 -6 8 0.13 0.33
-6 -7 -8 1.17 0.51
7 6 8 0.22 0.38
-13 7 8 -0.47 0.62
7 -13 -8 0.82 0.46
7 6 8 -0.22 0.42
-5 -8 8 3.13 0.61
8 -13 -8 3.02 0.6
-4 13 8 2.06 0.43
-4 13 8 1.47 0.36
-13 3 8 20.15 1.68
-3 -10 8 20 1.71
-13 10 -8 21.55 1.77
-11 -2 -8 6.5 0.75
-2 -11 8 6.93 0.79
2 11 8 5.87 0.83
-13 12 -8 11.28 1.24
1 12 8 12.93 1.24
-1 -12 -8 11.87 0.99
-12 -1 8 7.92 1.03
-1 13 8 12.51 1.17
-12 13 -8 8.31 0.96
-13 13 -8 10.88 1.2
0 13 8 10.88 1.09
0 -13 -8 12.78 1.03
7 -14 -8 -0.01 0.37
-7 -7 -8 0.25 0.54
-14 7 -8 -0.05 0.28
-14 7 -8 -0.24 0.36
7 7 8 0.17 0.34
-14 7 8 0.09 0.39
-7 14 8 0.51 0.53
-7 14 8 -0.03 0.33
-7 14 8 0.67 0.29
7 7 8 -0.17 0.35
-14 7 8 -0.86 0.59
-7 14 -8 0.52 0.48
-7 -7 8 0.26 0.35
6 8 8 3.77 0.64
-14 8 -8 3.87 0.74
-14 8 -8 3.84 0.63
-8 14 8 3.16 0.6
-8 14 8 5.75 0.9
6 8 8 5.5 0.77
-6 14 -8 4.88 0.8
8 6 8 6.79 0.81
-6 14 8 7.39 1.05
8 6 8 5.8 0.88
-14 8 8 4.14 0.81
-6 14 8 7.43 0.9
-9 14 8 26.85 2.29
5 9 8 23.59 2.18
-14 5 8 27.4 2.38
-14 9 -8 29.67 2.22
5 -14 -8 30.05 2.22
-14 9 -8 31.18 2.34
-14 9 8 18.6 1.79
-14 9 8 19.9 1.6
-14 10 -8 12.57 1.41
4 -14 -8 9.97 1
-10 -4 -8 9.31 1.02
4 10 8 8.58 1
-14 4 8 11.23 1.12
-10 14 8 9.81 1.02
-10 14 8 7.27 1.08
-4 14 8 15.42 1.5
10 4 8 10.5 1.22
-4 -10 -8 13.13 1.22
-4 14 8 16.57 1.46
-14 10 8 13.67 1.36
-10 14 -8 14.07 1.5
3 11 8 9.22 0.99
-11 14 8 7.87 1.09
3 11 8 9.49 1.09
3 -14 -8 9.35 0.92
-3 14 8 20.45 1.77
-14 3 -8 20.19 1.81
-3 -11 -8 16.02 1.47
-11 14 -8 17.5 1.63
2 12 8 6.06 0.83
2 -14 -8 4.68 0.61
2 12 8 6.4 0.97
-12 14 8 4.06 0.67
-12 14 -8 3.2 0.5
-2 14 8 2.28 0.44
12 2 8 2.35 0.43
-12 -2 8 2.6 0.54
-2 14 8 4.55 0.75
1 13 8 15.33 1.58
-14 13 -8 19.48 1.75
-14 13 -8 15.94 1.76
-13 14 8 19.8 1.69
-14 1 8 19.78 1.84
-13 14 8 12.67 1.49
1 13 8 14.25 1.46
-13 14 -8 11.71 1.19
13 1 8 11.21 1.05
0 14 8 -0.16 0.67
-14 14 -8 0.18 0.51
-14 14 -8 0.02 0.65
-14 14 -8 -0.7 0.68
-14 14 8 0.38 0.7
-14 14 8 0.16 0.49
0 14 8 0.04 0.48
-14 0 -8 0.48 0.94
14 0 8 -0.24 0.28
-14 0 8 -0.34 0.78
-8 15 8 13.52 1.43
-8 -7 -8 16.37 1.48
-15 7 8 18.5 2.12
-15 8 -8 13.68 1.61
7 8 8 18.36 1.6
7 8 8 20.6 1.65
-8 15 8 21.86 1.96
-15 8 -8 13.62 1.43
-8 15 8 20.37 1.61
-7 15 -8 19.51 1.81
-15 7 -8 8.7 0.99
-7 15 8 10.44 0.94
-15 7 -8 6.75 0.98
-15 7 -8 9.02 0.89
-9 15 8 11.43 1.5
-9 15 8 9.68 1.01
-15 9 -8 9.73 1.11
-15 9 -8 10.53 1.46
-15 6 8 7.98 1.02
6 9 8 9.57 1.05
-6 15 -8 10.49 1.24
6 9 8 9.16 1.19
-15 6 8 8.99 1.68
-9 -6 -8 8.03 0.96
-9 15 8 7.38 1.03
-6 -9 -8 9.71 0.98
-6 15 8 13.93 1.57
-15 9 8 10.14 1.67
-6 15 8 7.26 0.95
-15 6 -8 10.27 1.14
-15 10 -8 23.2 2.01
5 10 8 20.74 1.94
-15 5 8 22.61 2.22
-15 10 -8 25.19 2.32
-15 5 8 21.61 1.98
-10 15 8 23.74 1.95
-10 15 8 27.55 2.27
-5 15 8 23.46 2.08
-15 5 -8 16.04 1.86
10 5 8 18.39 1.83
-10 15 -8 22.27 2.1
-15 10 8 17.76 2.02
-15 10 8 20.16 1.89
-15 4 8 17.9 1.91
-15 4 8 18.66 1.92
-15 11 -8 24.15 2.3
-15 11 -8 20.07 1.88
4 11 8 18.01 1.73
-11 15 8 21.1 2.05
-11 15 8 21.44 1.81
-15 4 -8 23.1 2.21
11 4 8 22.52 1.98
-15 11 8 19.46 2.11
-15 11 8 25.12 2.14
-11 15 -8 23.35 2.21
-4 15 8 23.09 2.2
3 12 8 24.35 2.28
-15 3 8 28.92 2.5
-15 12 -8 30.86 2.7
-12 15 8 27.89 2.52
-15 12 -8 27.77 2.4
-12 15 8 29.22 2.36
-15 3 -8 25.93 2.36
-12 -3 8 17.71 1.89
-15 12 8 25.03 2.17
-3 15 8 20.91 2.16
-12 15 -8 23.47 2.17
-3 15 8 25.53 2.1
-12 15 -8 21.76 1.89
12 3 8 24.24 1.99
-15 13 -8 12.74 1.82
-13 15 8 14.32 1.58
2 13 8 12.19 1.39
-15 13 -8 15.16 1.59
-15 2 8 14.04 1.72
2 13 8 11.64 1.51
-13 15 8 13.01 1.72
-2 15 8 21.46 2.13
-15 13 8 26.68 2.23
-13 15 -8 22.72 2.04
13 2 8 22.15 2
-13 -2 8 24.19 2.15
-13 15 -8 21.08 2.08
-2 15 8 20.21 1.89
-15 2 -8 25.82 2.4
1 14 8 2.22 0.62
-15 14 -8 0.88 0.83
-15 14 -8 0.97 0.79
-15 1 8 1.22 0.84
-14 15 8 2.39 0.72
1 14 8 1.34 0.71
-14 -1 -8 0.99 0.91
-14 15 8 1.51 0.83
-1 15 8 1.09 0.73
-15 14 8 0.01 0.49
-15 14 8 0.49 0.49
14 1 8 0.5 0.56
-15 14 8 1.06 0.71
-14 15 -8 0.99 0.51
-14 15 -8 0.68 0.62
-15 1 -8 0.88 0.93
-14 -1 8 0.69 0.78
-1 15 8 1.57 0.53
-14 15 -8 0.92 0.69
-15 15 8 0.46 0.65
-15 15 8 -0.31 0.75
-15 0 8 -0.13 0.79
-15 15 -8 -0.7 0.74
-15 15 -8 0.75 0.4
-15 15 -8 0.27 0.78
0 15 8 -0.13 0.56
0 15 8 0.37 0.73
-15 0 -8 0.71 0.9
-8 16 -8 17.29 1.99
8 8 8 15.88 1.6
-8 16 8 18.19 1.72
-16 8 -8 12.93 1.42
-16 8 8 14.37 2.14
-16 8 -8 13.14 1.65
-16 8 -8 13.03 1.55
-16 8 8 15.3 1.56
-8 16 8 15.64 1.47
-8 16 8 15.73 1.99
-16 9 -8 43.39 3.7
-9 16 8 47.35 3.52
-9 16 8 51.51 3.78
-16 7 8 51.38 3.89
-16 9 -8 45.78 3.5
-16 7 8 39.75 3.47
-7 16 -8 48.96 3.7
7 9 8 42.22 3.56
7 9 8 46.11 3.53
-16 7 8 43.94 3.51
-16 9 8 57.08 4.47
-16 7 -8 48.88 4.48
-9 16 -8 64.66 4.66
-7 16 8 67.88 4.55
-16 9 8 60.73 4.8
9 7 8 62.27 4.48
-7 16 8 48.35 4.4
-7 16 8 64.08 4.66
-10 16 8 8.04 1.16
-16 6 8 4.33 1.08
-6 16 -8 7.6 1.34
-10 16 8 8.87 1.59
-10 16 8 9.15 1.17
-16 10 -8 7.78 1.63
-16 10 -8 6.84 1.2
6 10 8 6.86 1.17
6 10 8 7.56 1.06
-16 6 8 5.96 1.13
-16 6 8 5.01 0.87
-6 16 8 5.47 0.9
-16 6 -8 4.35 0.89
-6 16 8 5.95 0.94
-16 10 8 5.78 0.9
-6 16 8 4.6 1.04
-10 16 -8 7.32 1.18
-16 10 8 4.97 1.09
10 6 8 6.24 0.9
-11 16 8 17.77 1.91
-16 11 -8 19.27 2.04
-11 16 8 18.83 1.64
-16 5 8 14.42 1.64
5 11 8 15.44 1.56
-16 5 8 14.17 1.98
-16 11 -8 16.98 1.61
5 11 8 13.58 1.43
-11 16 8 13.07 1.45
-5 16 -8 13.97 1.52
-5 16 8 21.45 2.25
11 5 8 26.4 2.16
-16 5 -8 22.47 2.24
-16 11 8 22.78 2.24
-11 16 -8 24.62 2.46
-5 16 8 27.35 2.31
-16 11 8 21.59 2.46
-16 12 -8 22.27 2.42
-12 16 8 22.95 1.96
-16 12 -8 20.23 1.93
-12 16 8 23.43 2.19
-16 4 8 18.3 2.12
-16 4 8 19.22 2
4 12 8 18.18 1.9
-16 12 8 22.04 2.19
-4 16 8 22.44 2.01
-4 16 8 16.61 1.74
-12 16 -8 19.21 2.18
-12 16 -8 19.77 1.79
12 4 8 19.23 1.91
-16 12 8 20.97 2.03
-16 4 -8 21.28 2.23
-4 16 8 19.11 2.06
-13 16 8 1.81 0.88
-16 13 -8 2.42 0.9
-16 13 -8 1.37 0.73
-16 3 8 2.82 0.86
-16 3 8 1.83 0.63
-13 16 8 2.31 0.73
3 13 8 1.61 0.67
-16 3 -8 1.42 0.97
-13 -3 8 1.13 0.73
-13 16 -8 1.44 0.88
-16 13 8 1.45 0.75
-3 16 8 1.46 0.76
-13 16 -8 0.91 0.7
-3 16 8 2.19 0.56
13 3 8 1.75 0.7
-16 13 8 1.17 0.75
-14 16 8 5.97 0.89
-16 14 -8 6.62 0.95
2 14 8 6.35 1.2
-14 16 8 5.18 1.02
-16 14 -8 6.77 1.09
-14 -2 -8 5.53 1.02
-16 2 8 8.19 1.05
-14 -2 8 8.93 1.4
-14 16 -8 8.7 1.45
14 2 8 7.67 1.29
-2 16 8 6.09 0.97
-16 14 8 8.43 1.44
-16 14 8 6.04 1.09
-16 2 -8 10.01 1.58
-14 16 -8 6.75 0.93
-2 16 8 8.2 1.08
-14 16 -8 4.79 1
-15 16 8 0.02 0.84
-16 1 8 -0.87 0.74
-15 -1 -8 0.19 0.84
1 15 8 0.03 0.58
-15 16 8 0.15 0.66
-16 15 -8 0.21 0.8
-16 15 -8 -0.6 0.71
-16 15 8 0.34 0.66
-16 1 -8 0.2 0.86
-15 -1 8 1.34 0.78
-15 16 -8 1.15 0.72
-1 16 8 1.22 0.75
-15 16 -8 0.34 0.68
-15 16 -8 0.88 0.52
-1 16 8 0.91 0.55
-16 15 8 0.54 0.71
-16 16 -8 -0.64 0.7
-16 16 -8 0.6 0.36
0 16 8 -0.38 0.7
-16 0 8 -0.45 0.71
-16 16 8 -0.43 0.61
-16 0 -8 0.33 0.83
0 16 8 0.01 0.53
-16 16 -8 -0.27 0.79
-16 16 8 -0.42 0.79
-17 9 -8 16.26 1.87
-17 8 8 15.39 1.54
-9 17 8 19.48 1.72
-9 17 8 16.92 2.11
-9 17 8 20.23 1.88
-17 9 -8 17.41 1.67
-17 9 -8 16.02 1.89
8 9 8 16.46 1.76
-17 8 8 16.9 1.81
-17 8 8 17.15 2.27
-8 17 -8 16.59 1.99
-8 17 8 21.26 1.83
-17 8 -8 19.02 2.01
-8 17 8 21.61 2.27
9 8 8 19.92 1.91
-17 9 8 20.5 1.97
-17 8 -8 17.24 1.95
-9 17 -8 21.85 2.3
-17 8 -8 16.39 1.71
-17 9 8 19.33 2.43
-8 17 8 23.75 2.03
-10 17 8 7.01 1.24
-17 7 8 4.13 0.71
-17 10 -8 5.15 0.9
-10 17 8 6.5 1.1
7 10 8 3.94 0.75
-17 7 8 3.38 1.03
-17 10 -8 5.47 0.98
-10 17 8 4.97 0.85
-7 17 -8 5.55 0.98
-17 10 -8 5.01 0.81
-17 7 8 5.46 0.82
-7 17 8 6.38 1.07
-10 17 -8 8.1 1.19
-7 17 8 7.35 1.06
-17 10 8 5.92 0.92
-17 7 -8 6.48 1
-7 17 8 4.89 0.91
10 7 8 6.05 0.92
-17 7 -8 4 0.78
-17 10 8 6.18 1.21
-17 6 8 48 4.06
-11 17 8 59.01 4.11
-11 17 8 55.99 4.09
-6 17 -8 52.47 4.14
-17 11 -8 54.04 4.24
-17 6 8 52.38 4.29
-17 6 8 51.15 4.03
6 11 8 51.31 4.05
-11 17 8 56.24 4.21
-17 11 -8 54.81 4.05
-17 11 -8 44.4 4.04
6 11 8 56.86 4.03
-17 11 8 62.33 4.91
-17 11 8 61.17 4.7
-6 17 8 70.33 4.74
-11 17 -8 64.85 4.85
11 6 8 65.75 4.71
-17 6 -8 58.54 4.73
-6 17 8 56.75 4.76
-6 17 8 54.77 4.6
-17 12 -8 0.49 0.46
-17 5 8 -0.29 0.85
5 12 8 0.78 0.65
-17 5 8 0.56 0.64
-12 17 8 0.4 0.6
-17 5 8 0.52 0.4
-5 17 -8 0.45 0.65
-17 12 -8 1.6 0.91
-12 17 8 1.47 0.68
-12 17 8 1.38 0.9
-17 12 -8 1.25 0.71
-12 17 -8 3.57 0.97
-5 17 8 3.55 0.9
-5 17 8 3.15 0.61
-12 17 -8 2.52 0.67
-17 12 8 2.64 0.93
-5 17 8 3.04 0.84
-17 12 8 3.59 0.82
-17 5 -8 3.85 0.98
12 5 8 2.89 0.8
4 13 8 12.14 1.44
-13 17 8 13.39 1.72
-17 4 8 11.26 1.65
4 13 8 8.97 1.04
-13 17 8 9.88 1.11
-17 4 8 12.41 1.45
-13 17 -8 15.04 1.83
-4 17 8 13.3 1.65
-17 4 -8 17.93 1.9
-17 13 8 13.21 1.69
-4 17 8 13.77 1.42
-17 13 8 13.59 1.97
13 4 8 14.92 1.66
-13 17 -8 15.18 1.61
-13 -4 8 14.85 1.58
-17 3 8 26.35 2.27
-14 17 8 26.45 2.33
-17 14 -8 23.74 2.17
3 14 8 24.39 2.17
-17 14 -8 23.1 2.43
-14 17 8 23.6 2.18
-14 -3 -8 23.89 2.26
-14 17 -8 26.38 2.42
-14 17 -8 26.02 2.2
-3 17 8 21.63 2.07
-14 -3 8 29.04 2.32
-17 3 -8 26.84 2.43
-3 17 8 23.12 2.3
-17 14 8 25.89 2.4
-17 14 8 26.35 2.28
-15 -2 -8 5.43 0.93
2 15 8 4.12 0.75
-17 15 -8 4.17 0.8
-15 17 8 3.63 0.77
-17 15 -8 4.94 0.97
-15 17 8 4.53 0.92
-17 2 8 3.82 0.83
-17 15 8 3.39 0.7
-2 17 8 3.9 0.58
-17 15 8 3.54 0.65
-15 17 -8 4.98 0.84
-15 17 -8 2.7 0.61
-15 -2 8 4.71 0.8
-16 -1 -8 4.05 0.85
-17 16 -8 3.21 0.89
-17 16 -8 4.67 0.79
-16 17 8 2.72 0.84
-16 17 8 3.2 0.7
-17 1 8 3.6 0.8
-1 17 8 5.39 0.89
-17 16 8 6.08 0.91
-16 -1 8 8.45 1.27
-17 16 8 6.43 1.16
-16 17 -8 4.91 0.78
-1 17 8 5.14 0.8
-17 1 -8 5.73 0.92
-16 17 -8 4.32 0.84
-17 17 -8 8.85 0.95
-17 17 8 7.87 1.24
-17 0 8 9.02 1.38
-17 17 8 7.82 1.4
-17 0 -8 7.55 1.38
-17 17 -8 7.04 1.49
-18 9 8 15.37 1.79
-9 18 8 18.85 1.66
9 9 8 16.05 1.71
-18 9 -8 15.18 1.56
-9 18 -8 16.06 2.03
-9 18 8 17.85 1.8
-18 9 -8 16.66 1.95
-18 9 8 17.16 2.14
-18 9 8 15.2 1.49
-18 9 -8 15.6 1.86
-9 18 8 17.46 1.98
8 10 8 53.8 4.13
-18 10 -8 48.43 4.21
-10 18 8 56.85 4.31
-18 8 8 56.92 4.17
-18 10 -8 52.5 4.28
-18 8 8 49.72 4.09
-10 18 8 58.36 4.16
-18 8 8 56.86 4.37
-8 18 -8 52.62 4.27
-18 10 -8 52.06 4.1
-10 18 8 57.55 4.17
-8 18 8 53.23 4.25
-18 10 8 55.41 4.16
-18 10 8 56.41 4.41
-18 8 -8 46.8 4.17
-8 18 8 50.98 4.07
-10 18 -8 57.89 4.3
10 8 8 54.18 4.15
-18 8 -8 51.41 4.19
-8 18 8 59.23 4.14
-18 7 8 17.21 1.75
-18 11 -8 16.62 1.87
-11 18 8 20.71 1.82
7 11 8 15.67 1.73
-18 7 8 19.35 1.85
-18 11 -8 17.67 1.75
-18 11 -8 18.37 2.14
-11 18 8 19.87 2.02
-18 7 8 16.27 2.13
-11 18 8 19.38 1.86
-7 18 -8 16.39 1.97
-7 18 8 20.15 1.85
-18 7 -8 19.94 2.11
-11 18 -8 22.72 2.28
11 7 8 21.63 2.08
-18 11 8 22.15 2.06
-7 18 8 20.77 2.16
-18 11 8 20.74 2.35
-7 18 8 25.04 2.1
-18 12 -8 17.32 2.09
-12 18 8 16.69 1.63
-6 18 -8 12.82 1.75
-12 18 8 16.91 1.86
-18 6 8 17.11 1.61
6 12 8 13.72 1.5
-18 12 -8 13.92 1.68
-18 6 8 14.41 1.96
-18 6 8 14.94 1.65
-18 12 -8 14.57 1.64
-12 18 8 18.76 1.73
-12 18 -8 19.02 1.69
-18 12 8 19.54 2.16
-6 18 8 15.19 1.61
-6 18 8 21.99 1.89
-18 12 8 18.36 1.84
-6 18 8 18.69 1.94
-12 18 -8 19.8 2.13
-18 6 -8 19.13 1.98
12 6 8 18.56 1.91
-18 13 -8 12.19 1.43
-13 -5 -8 16.93 1.64
-13 18 8 15.75 1.82
-18 13 -8 16.43 1.54
-18 5 8 12.85 1.34
5 13 8 11.63 1.33
-18 5 8 15.53 1.55
-5 18 -8 12.67 1.61
-13 18 8 15.46 1.5
-13 18 8 17.44 1.67
-18 5 8 12.93 1.83
-18 13 8 20.42 2.14
13 5 8 19 1.8
-13 18 -8 19.93 2.07
-13 18 -8 18.72 1.79
-18 13 8 18.1 1.85
-13 -5 8 15.8 1.65
-18 5 -8 19.88 2.06
-5 18 8 18.26 1.93
-14 18 8 1.53 0.44
-18 4 8 1.87 0.69
-14 18 8 3.13 0.84
-4 18 -8 0.8 0.48
-18 4 8 1.88 0.66
-18 14 -8 3.22 0.73
4 14 8 2.42 0.72
-14 -4 -8 3.08 0.81
-14 18 8 2.1 0.69
-18 14 -8 2.05 0.9
-18 4 -8 1.24 0.44
-18 14 8 2.24 0.83
-14 -4 8 3.07 0.68
-14 18 -8 2.74 0.88
-4 18 8 1.21 0.38
-14 18 -8 1.65 0.69
-4 18 8 2.32 0.78
-18 14 8 2.16 0.68
-18 4 -8 2.73 0.86
-18 3 8 12.02 1.41
-15 18 8 10.83 1.43
-15 -3 -8 10.38 1.49
3 15 8 10.86 1.31
-18 15 -8 10.89 1.69
-18 15 -8 9.52 1.33
-15 18 8 11.04 1.47
-15 18 -8 9.4 1.47
-18 15 8 9.69 1.43
-3 18 8 8.68 1.41
-15 18 -8 6.72 1.24
-18 3 -8 6.89 1.17
-18 15 8 7.15 1.2
-18 3 -8 9.69 1.48
-16 18 8 1.26 0.72
2 16 8 0.35 0.44
-16 18 8 0.77 0.58
-18 2 8 0.81 0.64
-18 16 -8 1.43 0.79
-16 -2 -8 0.95 0.7
-18 16 -8 -0.04 0.58
-18 16 8 2.14 0.65
-16 18 -8 1.88 0.61
-18 2 -8 3.66 0.78
-16 -2 8 3.12 0.69
-2 18 8 2.94 0.74
-16 18 -8 1.98 0.59
-18 16 8 2.3 0.6
-18 2 -8 1.72 0.64
1 17 8 0.15 0.26
-17 18 8 0.79 0.55
-17 -1 -8 1.41 0.65
-18 17 -8 0.23 0.58
-18 1 8 0.68 0.6
-17 18 8 0.55 0.67
-18 17 -8 0.76 0.71
-17 -1 8 0.62 0.61
-18 17 8 0.67 0.64
-18 1 -8 0.83 0.67
-17 18 -8 -0.01 0.49
-18 1 -8 0.57 0.57
-18 17 8 0.47 0.54
-17 18 -8 0.92 0.59
-17 18 -8 -0.2 0.43
-18 0 -8 0.43 0.52
-18 18 -8 0.06 0.57
-18 18 -8 0.69 0.57
-18 18 8 0.48 0.62
-18 18 8 0.59 0.5
-18 0 8 1.23 0.56
-18 0 -8 1.15 0.61
-10 19 8 18.02 1.7
-19 10 -8 16.79 1.91
-19 9 8 17.57 1.74
-19 9 8 17.74 2.02
-9 19 -8 13.26 1.8
-19 9 8 16.07 1.51
-19 10 -8 14.4 1.76
9 10 8 16.3 1.64
-10 19 8 14.4 1.48
-19 10 -8 15.26 1.51
-10 19 8 17.91 1.96
-19 10 8 18.23 2.1
-9 19 8 14.29 1.5
-10 19 -8 17.74 2.04
-19 10 8 19.41 1.78
-9 19 8 18.86 1.76
-9 19 8 18.72 1.94
-19 9 -8 17.34 1.82
10 9 8 16.76 1.68
-19 9 -8 16.27 1.87
-11 19 8 23.72 1.98
-19 8 8 23.79 2.01
-19 11 -8 21.38 1.99
-8 19 -8 20.71 2.19
-19 11 -8 21.14 2.16
-19 8 8 26.27 2.14
-19 11 -8 22.86 2.25
-11 19 8 24.33 2.29
8 11 8 22.6 2.04
-19 8 8 22.62 2.36
-11 19 8 23.71 2.08
11 8 8 27.85 2.36
-8 19 8 25.33 2.46
-8 19 8 28.82 2.37
-11 19 -8 28.51 2.58
-19 11 8 27.67 2.36
-19 8 -8 23.74 2.42
-19 11 8 29.87 2.63
-19 12 -8 3.8 0.9
-12 19 8 3.59 0.75
-19 7 8 3.71 0.91
-7 19 -8 1.99 0.87
-19 12 -8 3.14 0.8
-12 19 8 3.38 0.67
-12 19 8 4.48 0.89
-19 7 8 3.29 0.74
-19 12 -8 4.19 0.74
7 12 8 3.66 0.73
-19 7 8 4.13 0.74
-7 19 8 6.46 1.03
-19 12 8 8.91 1.33
-19 7 -8 9.13 1.5
-12 19 -8 9.77 1.62
-7 19 8 9.07 1.34
-12 19 -8 7.35 0.93
-19 12 8 10.41 1.58
-13 19 8 1.37 0.63
-13 -6 -8 1.11 0.69
-13 19 8 1.3 0.62
-19 6 8 2.07 0.64
-19 13 -8 0.47 0.63
6 13 8 0.36 0.51
-19 6 8 1.06 0.76
-19 13 -8 0.98 0.69
-13 19 8 1.63 0.8
-19 6 8 1.2 0.59
-19 13 -8 1.81 0.86
-6 19 -8 -0.03 0.77
-19 13 8 3.32 0.86
-19 13 8 3.61 0.7
-13 19 -8 3.06 0.67
-13 19 -8 2.63 0.89
-6 19 8 4.15 0.82
-19 6 -8 3.69 0.88
-19 5 8 2.87 0.76
-14 19 8 3.98 0.62
-19 14 -8 4.39 0.9
-19 5 8 4.17 0.71
-5 19 -8 3.42 0.68
-14 -5 -8 3.95 0.75
-14 19 8 5.13 0.88
-19 14 -8 4.63 0.72
-14 19 8 3.3 0.69
-19 14 -8 2.86 0.6
-19 5 8 2.25 0.48
-19 14 8 4.89 0.75
-5 19 8 5.05 0.87
-14 19 -8 5.15 0.77
-14 19 -8 6.21 0.96
-14 -5 8 6.03 0.95
-19 14 8 4.85 0.93
-19 15 -8 4.75 0.86
-15 19 8 5.86 0.88
-15 -4 -8 5.39 0.78
-19 15 -8 5.2 0.74
-15 19 8 3.99 0.72
-19 4 8 5.11 0.84
-19 4 8 4.23 0.72
-19 4 -8 5.09 0.9
-19 15 8 6.72 1.11
-15 19 -8 6.85 1.09
-15 19 -8 6.48 0.98
-19 4 -8 9.24 1.31
-15 -4 8 8.61 1.11
-4 19 8 7.76 1.3
-19 15 8 9 1.44
-16 19 8 4.79 0.8
-19 3 8 5.26 0.75
-16 -3 -8 3.78 0.72
-19 16 -8 4.11 0.85
-16 19 8 4.4 0.68
-19 16 -8 4.29 0.69
-3 19 8 5.87 0.83
-16 19 -8 4.56 0.77
-16 -3 8 6.77 1.02
-16 19 -8 5.21 0.73
-19 3 -8 4.99 0.83
-19 16 8 5.97 0.71
-19 3 -8 3.65 0.66
-19 16 8 5.79 1
-17 19 8 6.59 1.11
-17 -2 -8 6.71 1.04
-19 17 -8 7.1 1.29
-19 2 8 7.39 1.11
-19 17 -8 5.93 1.06
-17 19 8 6.61 0.99
-17 19 -8 6.42 0.96
-19 17 8 5.45 0.97
-17 -2 8 8.17 1.05
-19 2 -8 6.34 1.16
-19 17 8 6.16 0.89
-19 2 -8 5.65 0.97
-19 18 -8 5.74 1.12
-18 -1 -8 6.61 0.92
-19 1 8 8.55 1.08
-18 19 8 8.02 1.1
-18 -1 -8 7.05 1
-18 19 8 7.41 0.92
-19 18 -8 6.26 0.98
-19 1 -8 11.7 1.27
-19 1 -8 10.33 1.18
-19 18 8 12.05 1.23
-18 -1 8 14.48 1.26
-19 18 8 12.36 1.23
-18 19 -8 12.46 1.23
-19 19 8 1.1 0.48
-19 0 -8 0.99 0.46
-19 19 -8 0.76 0.49
-19 0 8 0.88 0.47
-19 19 8 0.82 0.36
-19 0 -8 0.3 0.43
-10 20 8 33.39 2.61
-20 10 8 35.11 2.69
-20 10 -8 30.39 2.76
-10 20 8 31.91 2.76
-20 10 -8 29.3 2.67
-10 20 -8 33.42 2.78
-20 10 8 35.26 2.88
-11 20 8 6.59 0.98
-20 9 8 5.21 0.79
-20 11 -8 3.41 0.81
-20 11 -8 5.38 0.82
-20 9 8 4.02 0.88
-11 20 8 5.09 0.72
-9 20 -8 4.52 0.87
-20 9 8 4.79 0.83
9 11 8 5.78 1.06
-20 11 -8 3.01 0.58
-20 9 -8 3.69 0.76
-20 9 -8 5.75 0.86
-20 11 8 6.99 1
-11 20 -8 5.53 0.96
-9 20 8 4.96 0.76
-20 11 8 5.99 0.8
-9 20 8 5.32 0.88
-12 -8 -8 8.31 1.17
-12 20 8 8.68 1.21
-20 8 8 8.26 1.45
-20 8 8 10.72 1.2
-20 12 -8 7.68 1.28
-8 20 -8 8.4 1.45
-12 20 8 9.32 1.44
8 12 8 9.2 1.23
-20 12 -8 9.01 1.5
-20 8 8 9.95 1.25
-20 12 -8 7.81 1.12
-8 20 8 12.49 1.59
-8 20 8 13.4 1.45
-20 8 -8 12.58 1.57
-20 12 8 14.22 1.46
-12 20 -8 12.84 1.65
-20 12 8 14 1.74
-20 13 -8 13.73 1.59
-20 7 8 17.06 1.58
7 13 8 15.51 1.42
-20 13 -8 14.96 1.48
-13 20 8 15.48 1.47
-20 13 -8 16.45 1.81
-13 20 8 15.71 1.69
-20 7 8 14.57 1.65
-20 7 8 16.51 1.56
-7 20 -8 16.19 1.62
-13 -7 -8 13.4 1.52
-20 13 8 17.69 1.78
-13 20 -8 15.75 1.8
-20 7 -8 16.5 1.69
-20 13 8 15.54 1.56
-13 20 -8 13.12 1.33
-7 20 8 14.65 1.65
-20 14 -8 6.32 1.01
-14 20 8 7.71 1.32
-20 6 8 6.73 1.23
-14 20 8 6.08 0.99
-20 6 8 7.22 0.92
-20 6 8 8.51 1.12
-20 14 -8 9.04 1.55
-14 20 8 6.36 0.8
-20 14 -8 5.9 1.03
-14 -6 -8 6.8 1.02
-6 20 -8 4.79 0.83
-20 14 8 11.81 1.32
-14 20 -8 10.54 1.55
-20 6 -8 12.8 1.46
-6 20 8 11.42 1.43
-14 20 -8 11.39 1.25
-20 14 8 12.61 1.57
-15 20 8 4.48 0.67
-20 15 -8 3.19 0.63
-20 5 8 4.32 0.67
-15 -5 -8 3.33 0.65
-15 20 8 3.53 0.76
-20 5 8 3.95 0.77
-20 15 -8 4.57 0.85
-5 20 8 4.27 0.79
-20 15 8 5.36 0.7
-20 5 -8 5.73 0.83
-20 15 8 6.03 1.25
-15 20 -8 4.59 0.7
-15 -5 8 4.52 0.74
-15 20 -8 4.69 0.83
-20 16 -8 0.07 0.5
-16 -4 -8 0.13 0.48
-16 20 8 0.23 0.62
-20 4 8 0.32 0.51
-20 16 -8 0.89 0.65
-16 20 8 0.61 0.32
-20 16 8 0.68 0.51
-20 4 -8 -0.25 0.28
-16 20 -8 0.17 0.55
-16 -4 8 0.8 0.44
-20 4 -8 0.05 0.63
-16 20 -8 -0.71 0.49
-20 16 8 -0.12 0.45
-4 20 8 -0.01 0.56
-17 -3 -8 4.36 0.81
-20 17 -8 5.63 1.17
-20 3 8 6.54 0.96
-17 20 8 5.68 0.75
-17 20 8 4.11 0.6
-20 17 -8 4.99 0.9
-20 3 -8 2.69 0.46
-17 20 -8 4.21 0.57
-20 18 -8 2.08 0.49
-20 2 8 2.75 0.54
-18 20 8 2.64 0.56
-18 -2 -8 1.62 0.4
-20 18 -8 0.94 0.56
-18 -2 -8 1.82 0.44
-18 -2 8 2.05 0.45
-18 20 -8 1.22 0.44
-20 2 -8 1.69 0.53
-20 2 -8 1.03 0.39
-20 18 8 1.72 0.43
-21 11 -8 2.35 0.68
-11 21 8 1.81 0.58
-21 10 8 2.47 0.71
-21 11 -8 2.14 0.66
-11 21 8 2.47 0.69
-10 21 -8 2.53 0.73
-21 10 8 2.77 0.62
-21 11 8 4.59 0.85
-10 21 8 5.97 0.73
-21 11 8 6.15 1.09
-10 21 8 4.88 0.78
-21 10 -8 5.06 1.08
-21 10 -8 4.53 0.77
-11 21 -8 4.15 0.86
-12 21 8 13.13 1.48
-21 9 8 14.46 1.39
-21 9 8 13.45 1.57
-9 21 -8 12.12 1.5
-12 21 8 12.49 1.32
-21 12 -8 12.42 1.45
-21 12 -8 13.72 1.56
-21 12 8 12.19 1.34
-12 21 -8 12.74 1.51
-21 12 8 14.55 1.6
-21 9 -8 10.59 1.31
-9 21 8 9.88 1.42
-13 21 8 4.7 0.7
-8 21 -8 5.51 0.84
-21 13 -8 7.01 1.3
-21 13 -8 5.29 0.69
-21 13 -8 4.51 0.76
-21 8 8 6.74 0.8
-21 8 8 8.02 1.03
-21 8 8 6.03 1.15
-21 13 8 2.69 0.69
-21 8 -8 2.95 0.73
-13 21 -8 3.09 0.75
-8 21 8 2.39 0.64
-21 13 8 2.32 0.59
-14 -7 -8 0.29 0.27
-21 7 8 1.4 0.46
-14 21 8 0.2 0.47
-21 7 8 0.99 0.56
-21 7 8 0.67 0.41
-21 14 -8 0.49 0.49
-7 21 -8 -0.89 0.5
-21 14 -8 0.4 0.41
-21 14 -8 0.89 0.7
-14 21 8 0.44 0.65
-21 7 -8 1.76 0.67
-14 21 -8 0.87 0.67
-21 14 8 1.5 0.55
-7 21 8 1.69 0.63
-21 14 8 1.79 0.66
-15 21 8 3.48 0.69
-21 6 8 3.04 0.59
-21 6 8 3.28 0.54
-21 15 -8 2.48 0.49
-15 21 8 1.8 0.39
-21 15 -8 3.2 0.75
-21 6 -8 2.11 0.65
-15 21 -8 1.62 0.61
-15 21 -8 1.13 0.42
-6 21 8 0.99 0.55
-21 15 8 2.27 0.53
-21 15 8 2.19 0.6
-16 -5 -8 0.02 0.2
-21 16 -8 0.18 0.41
-21 5 8 0.39 0.47
-16 21 8 0.23 0.55
-21 16 -8 0.5 0.58
-21 16 8 2.09 0.46
-5 21 8 1.31 0.4
-21 5 -8 1.56 0.59
-16 21 -8 1.58 0.52
-21 16 8 2 0.52
-16 21 -8 1.82 0.46
-17 -4 -8 4.6 0.81
-21 17 -8 5.07 1.04
-17 21 8 3.91 0.64
-21 17 -8 3.99 0.69
-21 4 8 3.34 0.57
-17 -4 8 3.69 0.5
-21 17 8 5.32 0.77
-17 21 -8 4.63 0.73
-21 4 -8 5.01 0.88
-22 11 -8 3.84 0.62
-11 22 8 4.46 0.69
-22 11 8 5.58 1.09
-22 11 -8 2.79 0.58
-22 11 8 5.61 0.87
-11 22 -8 4.03 0.75
-10 22 -8 1.76 0.65
-22 10 8 2.23 0.51
-12 22 8 1.86 0.58
-22 10 8 2.27 0.6
-22 12 -8 1.83 0.56
-22 12 -8 2.52 0.61
-12 22 8 2.17 0.51
-22 10 -8 1.81 0.55
-12 22 -8 2.26 0.7
-22 12 8 1.74 0.51
-22 12 8 2.25 0.66
-10 22 8 1.36 0.52
-22 13 -8 1.46 0.52
-22 9 8 2.55 0.58
-22 13 -8 2.68 0.65
-9 22 -8 2.83 0.63
-13 22 8 2.26 0.63
-22 9 8 2.9 0.49
-13 22 8 1.87 0.48
-22 13 8 7.57 1.17
-13 22 -8 4.34 0.79
-22 13 8 5.41 0.92
-9 22 8 4.82 0.89
-22 9 -8 5.71 1.03
-14 22 8 2.33 0.61
-22 8 8 1.96 0.47
-22 8 8 1.36 0.33
-22 14 -8 1.41 0.38
-8 22 -8 2.33 0.46
-22 14 -8 2.58 0.64
-14 22 8 1.82 0.41
-14 22 -8 2.6 0.67
-8 22 8 2.23 0.52
-22 8 -8 2.74 0.62
-22 14 8 2.7 0.48
-22 15 -8 0.05 0.23
-7 22 -8 -0.17 0.35
-15 22 8 1.7 0.57
-22 7 8 0.1 0.2
-22 7 8 0.56 0.2
-15 22 8 0.72 0.21
-22 15 -8 1.38 0.63
-15 22 -8 0.71 0.52
-7 22 8 0.3 0.27
-22 7 -8 0.99 0.52
-22 15 8 1.73 0.55
-22 15 8 0.8 0.44
0 0 9 0.4 0.58
0 0 9 0.2 0.5
0 0 9 0.33 0.42
0 0 -9 0.31 0.53
0 1 9 71.21 5.56
-1 0 -9 79.51 5.49
-1 0 9 73.03 5.62
1 0 9 65.45 5.43
1 -1 9 80.13 5.64
0 -1 9 75.27 5.62
1 0 9 63.18 5.53
-1 0 9 65.36 5.45
-1 1 -9 86.35 5.5
0 -1 9 64.45 5.52
1 0 9 82.79 5.67
0 -1 -9 86.88 5.49
0 1 9 70.84 5.44
-1 1 9 68.81 5.45
1 -1 9 69.18 5.55
0 -1 9 69 5.46
-1 1 9 85.98 5.68
0 1 -9 79.4 5.48
1 1 9 2.77 0.66
1 -2 9 2.1 0.63
2 -1 9 1.82 0.64
2 -1 9 1.68 0.56
1 1 9 2.25 0.39
-2 1 9 2.75 0.53
2 -1 -9 3.48 0.72
1 -2 9 1.51 0.57
-1 2 -9 2.06 0.57
-1 -1 -9 3.05 0.6
-1 -1 9 3.78 0.64
-2 1 9 3.18 0.68
-1 2 9 1.98 0.42
-1 2 9 2.24 0.66
-2 1 -9 2.69 0.62
1 1 9 1.29 0.51
-2 0 9 10.41 1.08
0 2 9 12.42 1.49
2 -2 9 8.55 1.08
0 -2 9 8.82 1.32
2 0 9 8.04 0.92
2 -2 9 11.16 1.34
0 2 -9 10.47 1.09
2 0 9 8.77 1.07
0 -2 9 8.76 1.14
-2 2 9 8.58 0.98
-2 0 9 10.5 1.31
2 -2 -9 10.01 1.22
0 -2 -9 10.6 1.07
-2 0 -9 10.67 1.11
-2 2 -9 11.35 1.13
2 0 9 9.91 1.3
-2 2 9 10.33 1.41
-3 1 9 53.21 3.93
1 2 9 52.61 3.96
-1 3 -9 56.09 3.75
-3 1 9 45.46 3.74
3 -1 9 43 3.8
-3 2 -9 58.22 3.78
-2 -1 -9 51.06 3.75
-1 -2 9 51.06 3.9
-2 3 9 50.39 3.98
3 -1 9 47.82 3.88
1 -3 -9 47.29 3.76
2 -3 9 43.38 3.78
2 -3 9 52.82 3.92
3 -2 -9 44.99 3.8
-3 1 -9 64.37 4.45
1 -3 9 50.95 4.48
3 -1 -9 66.15 4.55
-2 -1 9 55.9 4.56
-1 3 9 62.01 4.66
2 -3 -9 61.61 4.48
-2 -1 9 64.33 4.48
3 -2 9 55.82 4.51
2 1 9 58.38 4.6
3 -2 9 52.94 4.54
-3 2 9 60.2 4.62
1 -3 9 56.57 4.58
-2 3 -9 64.6 4.45
-1 -2 -9 59.26 4.43
3 -3 9 17.49 1.83
-3 0 -9 19.64 1.65
-3 0 9 18.22 1.82
0 -3 9 19.64 1.87
-3 3 9 18.66 1.91
-3 0 9 19.84 1.71
0 3 9 21.01 1.99
3 0 -9 17.51 1.75
0 -3 -9 19.84 1.67
3 0 9 18.35 1.8
3 -3 9 17.9 1.73
3 -3 -9 21.27 1.74
-3 3 -9 21.07 1.69
0 -3 9 19.32 1.79
0 -3 -9 19.07 1.61
-2 -2 -9 0.52 0.31
-4 2 9 1.16 0.54
2 2 9 0.81 0.5
-2 -2 9 1.46 0.55
-2 4 9 0.94 0.63
-4 2 9 1.6 0.46
-4 2 -9 1.47 0.59
-2 -2 9 2.37 0.66
2 -4 9 2.04 0.68
-2 -2 -9 0.86 0.42
2 -4 9 1.59 0.63
-2 4 -9 1.48 0.45
4 -2 9 0.75 0.44
4 -2 -9 2.16 0.66
2 -4 -9 1.97 0.54
4 -2 9 1.22 0.53
-3 -1 -9 37.19 2.9
-1 4 -9 34.7 2.88
3 -4 9 33.09 2.97
-4 1 9 37.95 3.09
3 -4 9 38.48 3.12
3 1 -9 39.82 3.03
-1 -3 9 36.45 3.09
-4 3 -9 41.79 2.95
-4 1 9 40.5 2.96
4 -3 -9 41.69 3.01
1 3 9 33.88 3.1
-3 4 9 41.16 3.2
1 -4 -9 36.91 2.92
1 -4 9 40.47 3.03
-3 -1 9 37.83 3.06
-1 -3 -9 38.73 2.92
4 -1 -9 42.5 3.03
4 -3 9 31.96 3.02
3 -4 -9 38.79 2.95
-4 1 -9 40.16 2.93
-3 4 -9 42.5 2.94
1 -4 9 38.79 3.12
3 1 9 33.22 3.05
-4 3 9 33.39 2.87
-4 3 9 39.13 3.11
4 -3 9 35.76 2.99
4 -4 9 11.64 1.42
-4 4 9 15.01 1.58
-4 4 -9 15.54 1.32
0 -4 9 14.28 1.56
4 0 9 11.66 1.36
0 -4 -9 13.04 1.2
-4 0 9 12.36 1.41
0 -4 -9 10.66 1.17
4 -4 9 13.71 1.36
0 4 9 13.93 1.54
4 -4 -9 14.69 1.37
-4 0 -9 15.25 1.26
-2 -3 9 16.67 1.6
3 -5 9 17.71 1.69
-5 2 9 14.74 1.38
-3 5 9 19 1.84
-2 5 -9 15.54 1.33
-5 2 9 14.92 1.52
-3 -2 -9 14.07 1.32
3 2 -9 13.51 1.46
2 3 9 14.92 1.57
2 -5 -9 14.81 1.35
3 -5 9 18.92 1.57
-2 -3 -9 16.68 1.32
-3 5 -9 14.96 1.3
3 -5 -9 15.76 1.34
-5 3 9 12.74 1.28
-5 3 9 15.27 1.51
2 -5 9 16.76 1.69
-3 -2 9 12.73 1.46
3 2 9 11.67 1.44
-2 5 9 17.08 1.8
5 -3 9 13.86 1.4
5 -4 -9 2.71 0.57
1 -5 -9 1.91 0.41
-5 1 9 3.48 0.77
1 -5 -9 2.93 0.7
5 -1 9 1.5 0.43
-4 -1 -9 3.27 0.55
-4 -1 -9 2 0.46
-5 4 9 4.52 1.03
-1 -4 -9 2.87 0.7
5 -4 9 2.43 0.56
1 -5 9 4.7 1.09
-5 4 9 2.53 0.47
-1 5 9 3.94 0.8
-4 -1 9 2.92 0.72
4 -5 -9 4.35 0.75
5 -1 -9 4.66 0.88
-4 -1 9 4.11 0.7
-4 5 -9 3.92 0.72
5 -4 9 4.59 0.84
1 -5 9 4.39 0.92
5 -5 -9 146.32 9.99
5 -5 9 134.15 10.02
-5 5 9 129.2 10.09
5 -5 9 122.92 10.04
0 5 9 142.72 10.14
0 -5 -9 158.68 9.96
5 0 -9 121.33 10.01
0 -5 9 138.59 10.1
6 -3 -9 0.66 0.61
3 -6 -9 0.32 0.31
3 3 9 0.12 0.38
3 -6 -9 0.39 0.35
-6 3 9 0.8 0.4
6 -3 9 0.43 0.44
-3 -3 -9 -0.59 0.48
3 -6 9 0.89 0.61
3 -6 9 0.92 0.59
-3 6 -9 0.24 0.32
-3 -3 9 -0.01 0.34
-3 -3 -9 1.1 0.47
3 -6 -9 0.12 0.4
-3 -3 9 0.38 0.52
-3 -3 -9 0.04 0.39
-3 -3 -9 -0.1 0.39
-6 3 9 -0.06 0.35
-3 6 9 0.33 0.6
-6 3 -9 0.54 0.52
-2 -4 9 45.53 3.23
2 4 9 36.32 3.2
2 -6 -9 38.64 3.17
-6 4 9 38.24 2.77
6 -4 9 31.4 2.83
4 -6 -9 39.07 2.78
-6 4 9 35.42 2.89
5 -6 9 24.04 1.97
-1 -5 9 24.41 1.97
1 5 9 19.42 1.94
1 -6 -9 20.66 1.89
-5 -1 -9 19.92 1.73
-6 1 -9 22.07 1.94
-5 6 -9 28.14 1.97
-1 6 9 28.86 2.27
6 -5 9 23.05 2.04
6 -1 -9 23.58 2.04
-6 5 9 21.76 2.09
5 -6 -9 24.3 1.98
0 -6 -9 23.73 2.29
0 6 9 29.68 2.42
-6 6 9 30.09 2.36
4 -7 9 15.69 1.72
3 -7 -9 15.92 1.48
-7 3 9 13.51 1.42
4 -7 9 17.18 1.56
-4 -3 -9 19.65 1.51
-7 4 -9 18.2 1.55
7 -4 -9 16.1 1.58
-4 7 9 18.57 1.83
-7 4 9 5.88 0.75
4 -7 -9 6.2 0.87
2 -7 -9 15.42 1.65
-2 -5 9 18.15 1.53
5 -7 9 21.34 1.78
-5 7 -9 8.46 0.86
5 -7 -9 9.15 1.05
-2 -5 -9 8.87 1.04
7 -5 9 9.56 1.01
-6 7 9 48.87 3.65
1 -7 -9 42.53 3.58
-1 -6 -9 33.94 2.76
-7 7 -9 3.02 0.54
7 -7 -9 1.49 0.43
0 7 9 0.73 0.48
7 -7 -9 1.18 0.44
0 -7 -9 2.29 0.56
4 -8 9 6.63 1.16
-8 4 -9 7.42 0.88
8 -4 -9 7.35 0.9
4 -8 9 7.83 0.89
-4 8 9 7.95 1.21
-8 3 9 14.5 1.48
-5 8 9 16.7 1.73
5 -8 9 20.68 1.56
-5 -3 9 9.61 0.97
3 -8 9 9.21 1
-8 3 -9 11.22 1
8 -3 -9 8.71 1.03
6 -8 9 4.5 0.79
8 -6 -9 3.65 0.76
-8 2 9 5.42 0.75
-8 6 -9 4.77 0.72
8 -2 -9 0.44 0.45
2 -8 9 1.53 0.5
-2 8 9 1.65 0.49
8 -6 9 0.33 0.48
-2 -6 -9 1 0.48
-8 1 9 18 1.47
7 -8 9 15.04 1.48
6 -9 -9 7.79 0.85
-8 -1 -9 3.95 0.64
-1 -8 -9 10 1.06
0 -9 -9 0.47 0.43
-9 0 -9 -0.27 0.31
5 -10 -9 1.27 0.48
-5 -5 -9 0.75 0.45
-6 -4 -9 4.66 0.82
4 -10 -9 5.39 0.85
-4 -6 -9 2.4 0.52
3 -10 -9 4.05 0.76
-7 -3 -9 4 0.78
2 -10 -9 17.82 1.45
-8 -2 -9 14.85 1.43
-2 -8 -9 19.84 1.66
-9 -1 -9 4.59 0.66
-1 -9 -9 13.19 1.24
0 -10 -9 26.12 2.08
-6 -5 -9 8.78 0.99
5 -11 -9 7.83 1.01
6 -11 -9 5.98 0.85
-5 -6 -9 7.75 0.89
4 -11 -9 2.18 0.52
-7 -4 -9 2.06 0.53
-4 -7 -9 2.08 0.51
-8 -3 -9 9.05 1.01
3 -11 -9 8.95 1.01
-3 -8 -9 17.59 1.51
-2 -9 -9 6.81 0.89
1 10 9 6.9 0.85
-10 11 9 5.21 0.68
1 10 9 5.45 0.66
-1 11 9 5.91 0.84
-11 11 9 2.08 0.44
0 11 9 1.23 0.53
0 -11 -9 2.27 0.52
0 11 9 1.09 0.35
-6 -6 -9 1.29 0.46
6 -12 -9 1.11 0.42
-12 6 9 0.02 0.45
6 6 9 0 0.33
-6 12 -9 0.19 0.43
-6 12 9 0.57 0.28
6 6 9 0.32 0.29
-12 6 -9 -0.2 0.28
-12 5 9 0.26 0.45
-12 5 9 0.28 0.29
-12 7 -9 0.17 0.27
-7 12 9 0.83 0.27
5 7 9 0.72 0.29
7 -12 -9 0.38 0.32
7 5 9 0.23 0.27
-12 7 9 -0.05 0.42
-5 12 9 0.71 0.29
-7 12 -9 0.6 0.42
-12 5 -9 0.01 0.32
-12 4 9 1.84 0.39
4 8 9 1.51 0.34
-12 8 -9 1.88 0.35
-4 12 9 0.35 0.41
-4 12 9 0.44 0.36
8 -12 -9 -0.06 0.28
-12 4 -9 0.02 0.37
-8 12 -9 0.86 0.43
-12 8 9 -0.02 0.52
-4 12 9 0.91 0.3
8 4 9 0.25 0.29
3 -12 -9 6.28 0.79
3 9 9 5.05 0.7
-9 -3 -9 4.64 0.71
-12 9 -9 4.61 0.69
-9 12 9 6.08 0.74
3 9 9 4.73 0.7
-12 3 9 5.03 0.77
-12 9 -9 4.49 0.88
-3 12 9 6.33 0.89
-3 12 9 4.5 0.65
2 10 9 13.49 1.31
-12 10 -9 11.67 1.32
-10 12 9 14.22 1.21
-12 10 -9 9.82 1.11
-12 2 9 12.34 1.24
2 -12 -9 11.32 1.11
2 10 9 11.76 1.14
-2 12 9 12.26 1.18
-12 10 9 13.96 1.21
-12 11 -9 15.67 1.63
1 11 9 23.72 1.92
1 11 9 20.91 1.7
-12 1 9 21.59 1.79
1 -12 -9 19.17 1.64
-1 12 9 29.54 2.35
-1 -11 -9 24.92 2.11
-12 12 9 1.66 0.69
-12 12 -9 0.38 0.45
0 -12 -9 0.83 0.37
0 12 9 0.81 0.49
0 12 9 0.71 0.76
-12 12 -9 0.74 0.52
-12 0 -9 -0.03 0.32
-12 12 -9 0.48 0.42
-12 0 9 -0.02 0.54
-13 7 -9 2.79 0.48
6 -13 -9 1.69 0.43
-6 13 -9 2.54 0.54
6 7 9 3.11 0.51
-13 6 9 4.06 0.84
-13 6 9 2.3 0.43
-7 13 9 2.1 0.51
-13 7 -9 1.34 0.42
7 6 9 3.15 0.54
-6 -7 -9 5.04 0.75
-13 6 -9 3.84 0.64
-13 7 9 3.83 0.81
-6 13 9 3.17 0.53
-6 13 9 5.41 0.93
-13 8 -9 1.84 0.55
-8 13 9 2.34 0.47
5 8 9 1.81 0.49
-13 5 9 1.56 0.71
-13 8 -9 2.62 0.53
5 -13 -9 1.23 0.4
5 8 9 1.73 0.44
-8 13 9 0.59 0.46
-13 5 9 1.26 0.44
-8 -5 -9 1.55 0.47
-5 13 -9 0.67 0.46
-13 8 9 1.62 0.65
8 5 9 1.82 0.47
-5 13 9 2.1 0.43
-8 13 -9 2.91 0.73
-5 -8 -9 2.24 0.51
8 5 9 2 0.48
-5 13 9 2.26 0.67
-5 13 9 3 0.56
-13 4 9 10.65 1.2
-13 4 9 10.05 1.31
4 9 9 10.13 1.11
-13 9 -9 10.28 1.34
-13 9 -9 10.79 1.13
4 -13 -9 5.95 0.87
4 9 9 6.99 0.96
9 4 9 7.46 0.94
-4 13 9 12.1 1.43
-13 9 9 6.53 0.93
-4 -9 -9 9.07 0.98
-4 13 9 10.02 1.03
-9 13 -9 11.22 1.36
3 -13 -9 20.38 1.74
-13 3 9 23.68 1.94
-3 13 9 36.75 2.8
-3 -10 -9 35.48 2.75
-13 11 -9 5.55 0.94
2 11 9 4.45 0.67
-13 2 9 4.89 0.85
2 -13 -9 3.14 0.62
2 11 9 6.12 0.9
-11 -2 9 0.63 0.37
11 2 9 1.61 0.35
-11 13 -9 1.51 0.34
-11 13 -9 3.42 0.64
-13 12 -9 9.38 1.26
-13 12 -9 8.46 1.56
-12 13 9 12.66 1.56
1 12 9 10.26 1.26
1 12 9 11.2 1.56
-13 1 9 11.18 1.53
-1 13 9 11 1.61
-13 1 -9 10.57 1.59
-1 13 9 11.2 1.22
-12 13 -9 6.37 1.12
-12 13 -9 8.83 1.05
-13 12 9 11.28 1.52
-12 13 -9 7.18 1.1
-12 -1 9 9.21 1.24
7 7 9 9.66 1.32
-14 7 -9 8.93 1.14
-7 14 9 11.4 1.23
-7 14 -9 10.3 1.57
-7 14 9 9.54 1.18
-7 14 9 9.48 1.59
7 7 9 11.51 1.32
-14 7 9 7.6 1.03
-14 7 9 9.44 1.4
-8 14 9 4.43 0.68
-14 8 -9 2.92 0.72
6 8 9 3.93 0.75
-14 6 9 2.94 1.06
6 8 9 3.38 0.67
-14 8 -9 2.66 0.67
-6 14 -9 3.99 0.77
-8 14 9 3.97 0.84
-14 6 9 2.49 0.59
-14 6 -9 0.19 0.38
-14 8 9 1.27 0.35
-14 6 -9 0.98 0.46
-14 8 9 0.42 0.93
8 6 9 1.76 0.69
-14 8 9 1.19 0.41
-6 -8 -9 0.84 0.4
-6 14 9 2.42 0.56
-6 14 9 1.8 0.86
-6 14 9 2.87 0.75
-8 14 -9 3.05 0.97
8 6 9 1.92 0.66
5 9 9 5.15 0.8
-14 9 -9 4.89 0.81
-14 5 9 6.59 1.15
-14 9 -9 6.59 1.01
-5 14 -9 6.65 1.02
-9 14 9 7.01 1.11
-14 5 9 5.2 0.81
-9 14 9 4.23 0.85
5 9 9 6.12 1.04
-14 5 -9 4.7 0.85
-14 5 -9 5.09 0.79
-14 9 9 6.32 1.07
-14 9 9 6.55 1
9 5 9 7.21 1.12
-5 14 9 6.31 1.02
-5 -9 -9 3.95 0.67
4 10 9 8.37 1.28
-10 14 9 8.26 1.24
-14 10 -9 7.92 1.28
-14 4 9 6.98 0.97
-14 4 9 7.32 1.5
-14 10 -9 7.66 1.63
4 10 9 6.37 1
-10 14 9 5.86 0.91
-10 14 -9 6.36 1.06
-14 4 -9 4.46 0.77
-4 14 9 9.23 1.52
-4 14 9 8.42 1.05
-14 10 9 5.29 0.94
-14 10 9 6.9 1.27
10 4 9 6.95 1.07
-14 4 -9 6.27 1.16
3 11 9 7.7 1.24
-11 14 9 9.43 1.34
-11 14 9 6.3 1.19
-14 11 -9 8.35 1.67
-14 3 9 7.14 1.02
-14 11 -9 8.92 1.28
3 11 9 5.61 0.95
-14 3 9 7.34 1.35
-14 11 9 4.42 0.82
-11 14 -9 3.73 0.67
-3 14 9 5.4 0.74
-14 11 9 6.48 0.9
11 3 9 4.14 0.69
-14 3 -9 3.95 0.86
-3 14 9 6.75 1.04
-11 14 -9 5.05 0.98
-14 12 -9 27.49 2.21
2 12 9 23.35 2.15
-12 14 9 21.5 2.08
-12 14 9 27.15 2.26
-14 12 -9 25.08 2.38
2 12 9 22.3 2.26
-14 2 9 25.33 2.35
-12 14 -9 28.72 2.43
-2 14 9 32.03 2.65
-2 14 9 31.4 2.5
-12 14 -9 30.05 2.62
-14 12 9 32.19 2.6
-12 -2 9 27.55 2.48
12 2 9 28.68 2.39
-14 2 -9 30.59 2.65
1 13 9 23.89 2.35
-13 14 9 29.18 2.35
-14 13 -9 24.84 2.26
-14 13 -9 24.42 2.46
1 13 9 25.47 2.25
-14 1 9 27.12 2.38
-13 14 -9 21.69 2.14
-13 -1 9 23.85 2.29
-1 14 9 21.39 2.21
-14 1 -9 28.53 2.49
-13 14 -9 21.77 2.21
-14 13 9 27.81 2.26
-1 14 9 24.39 2.11
-13 14 -9 25.8 2.11
14 0 9 2.47 0.42
-14 14 9 2.84 0.55
-14 14 -9 2.11 0.52
-14 0 9 4.09 0.85
-15 8 -9 5.08 0.79
7 8 9 5.37 0.87
-8 15 9 5.93 1.08
-8 15 9 5.23 0.8
7 8 9 5.07 0.87
-15 8 -9 3.23 0.85
-8 15 9 5.62 0.85
-15 7 9 2.73 1.11
-7 15 -9 5.01 1.01
-15 7 9 4.45 0.72
-15 8 9 2.7 0.52
8 7 9 2.97 0.81
-15 7 -9 1.05 0.62
-7 15 9 3.86 0.68
-15 7 -9 2.57 0.65
-15 8 9 1.88 0.61
-15 7 -9 1.63 0.54
8 7 9 2.97 0.78
-15 8 9 1.94 1.14
-8 15 -9 2.47 1.01
-7 15 9 2.67 0.81
-7 15 9 4.71 1.03
-9 15 9 0.97 0.57
-15 6 9 0.58 0.62
-6 15 -9 0.95 0.77
6 9 9 1.23 0.71
-15 9 -9 0.3 0.65
6 9 9 1.88 0.67
-15 9 -9 1.14 0.84
-9 15 9 1.26 0.9
-15 6 9 -0.63 0.98
-9 15 9 1.75 0.65
-15 9 9 0.14 0.64
-15 6 -9 0.33 0.39
9 6 9 1.46 0.72
-6 15 9 1.68 0.88
-6 15 9 1.96 0.65
-9 15 -9 0.89 0.97
-6 15 9 1.04 0.96
-15 9 9 -0.61 0.91
-15 6 -9 0.95 0.58
-15 6 -9 1.02 0.62
-15 9 9 0.97 0.35
5 10 9 8.2 1.22
-10 15 9 9.46 1.39
-10 15 9 8.01 1.16
-15 10 -9 9.05 1.7
-15 5 9 9.27 1.3
-15 5 9 7.53 1.02
-15 10 -9 8.81 1.34
-5 15 -9 9.9 1.32
5 10 9 8.77 1.35
-10 15 -9 7.89 1.2
-15 10 9 7.66 1.42
-5 15 9 9.18 1.22
-15 5 -9 7.35 1.02
10 5 9 9.03 1.29
-15 10 9 5.64 1.14
-15 5 -9 7.07 0.99
-5 15 9 9.81 1.64
-15 11 -9 5.89 1.09
-11 15 9 9.03 1.27
-15 4 9 7.34 1.13
-15 11 -9 5.57 0.88
4 11 9 6.63 1.2
4 11 9 6.31 1.07
-15 4 9 5.09 0.95
-11 15 9 5.68 1.05
-15 4 -9 5.82 0.88
-15 11 9 8.05 1.19
11 4 9 7.38 1.27
-4 15 9 8.84 1.18
-11 15 -9 7.83 1.2
-4 15 9 8.85 1.23
-15 4 -9 8.4 1.07
-11 15 -9 5.56 0.82
-15 11 9 8.93 1.04
3 12 9 0.89 0.64
-3 15 -9 0.23 0.44
3 12 9 1.15 0.47
-15 3 9 0.95 0.81
-15 12 -9 0.19 0.69
-12 15 9 2.32 0.89
-15 12 -9 1.4 0.96
-15 3 9 1.02 0.8
-12 15 9 1.39 0.67
-3 15 9 2.96 0.73
-15 12 9 1.75 0.76
-15 3 -9 1.96 0.85
12 3 9 1.76 0.69
-3 15 9 3.47 0.89
-15 3 -9 0.95 0.35
-12 15 -9 2.85 0.66
-15 12 9 2.58 0.86
-12 -3 9 1.64 0.62
-12 15 -9 2.48 0.93
-13 15 9 12.38 1.56
-15 2 9 12 1.67
-15 13 -9 11.63 1.84
-15 13 -9 13.01 1.52
2 13 9 12.16 1.44
-13 15 9 12.14 1.67
-15 2 9 10.73 1.41
-13 15 -9 11.6 1.56
-13 -2 9 15.99 1.77
-15 13 9 15.96 1.76
-13 15 -9 14.06 1.85
-13 15 -9 16.4 1.61
13 2 9 15.85 1.57
-15 13 9 12.48 1.55
-2 15 9 18.04 1.68
-15 2 -9 18.19 1.98
-2 15 9 13.64 1.74
-15 14 -9 36.64 3.24
-15 1 9 43.23 3.2
1 14 9 34 3.1
-14 -1 -9 40.79 3.28
-14 15 9 39.25 3.15
1 14 9 38.05 3.06
-14 15 9 36.12 3.11
-15 14 -9 41.01 3.1
-1 15 9 27.31 2.66
-1 15 9 33.79 2.64
-14 15 -9 31.61 2.61
-15 1 -9 36.09 2.85
-14 -1 9 35.08 2.75
-14 15 -9 28.18 2.74
-15 14 9 34.34 2.71
-14 15 -9 28.97 2.64
14 1 9 29.97 2.54
-15 15 9 40.93 3.52
-15 15 9 44.54 3.51
-15 15 -9 45.17 3.64
0 15 9 47.38 3.53
-15 0 -9 47.68 3.66
0 15 9 39.95 3.53
-15 15 -9 45.6 3.5
-15 0 9 49.93 3.61
-16 8 -9 0 0.64
-16 8 -9 -0.33 0.73
-8 16 -9 -0.37 0.91
-16 8 9 0.6 0.51
8 8 9 0.62 0.75
-8 16 9 -0.47 0.76
-8 16 9 -0.17 0.91
-16 8 9 -0.56 0.66
-8 16 9 0.38 0.7
-16 8 -9 -0.96 0.63
-16 7 9 3.79 1.11
-16 7 9 4.49 0.75
-16 7 9 5.15 0.8
-9 16 9 7.19 1.12
-16 9 -9 4.6 0.75
-16 9 -9 5.13 0.96
-9 16 9 4.89 0.89
7 9 9 5.01 0.81
-9 16 9 5.16 0.85
7 9 9 6.64 0.92
-7 16 -9 4.82 1.01
-16 9 -9 5.17 0.8
-16 7 -9 5.74 1.31
-7 16 9 7.44 1.16
-9 16 -9 9.63 1.26
-16 9 9 6.34 0.99
-16 9 9 10.26 1.4
-7 16 9 9.36 1.53
-16 7 -9 7.65 1.4
-16 7 -9 7.47 1.26
9 7 9 8.7 1.44
-16 9 9 7.76 1
-7 16 9 9.13 1.4
-10 16 9 5.31 0.81
-16 10 -9 3.97 0.96
6 10 9 4.55 0.78
-10 16 9 6.5 1.06
-16 10 -9 4.9 0.79
6 10 9 3.29 0.76
-10 16 9 4.91 0.84
-16 6 9 3.66 1.11
-16 6 9 3.45 0.78
-6 16 -9 3.97 0.9
-16 6 -9 3.11 0.68
-16 6 -9 4.2 0.87
-16 10 9 4.64 1.09
10 6 9 2.98 0.76
-6 16 9 5.01 0.81
-6 16 9 4.35 0.99
-16 10 9 3.71 0.64
-10 16 -9 3.58 1.04
-16 10 9 3.58 0.82
-6 16 9 4.4 0.92
-16 11 -9 1.47 0.89
-16 11 -9 0.21 0.4
-11 16 9 2.58 0.94
-11 16 9 1.56 0.7
-16 11 -9 1.54 0.7
-11 16 9 0.45 0.52
-16 5 9 -0.52 0.88
5 11 9 1.27 0.67
-5 16 -9 1.03 0.7
-16 5 9 0.83 0.7
5 11 9 1.3 0.64
-16 11 9 -0.02 0.69
-11 16 -9 0.89 0.36
-16 11 9 0.65 0.31
-16 5 -9 1.15 0.79
-5 16 9 1.1 0.89
-5 16 9 1 0.69
11 5 9 1.13 0.71
-11 16 -9 0.34 0.93
-16 5 -9 0.84 0.49
-16 11 9 0.88 0.92
4 12 9 3.26 0.72
4 12 9 1.84 0.58
-12 16 9 2.63 0.71
-4 16 -9 0.96 0.56
-16 12 -9 2.93 0.76
-16 4 9 2.91 0.82
-12 16 9 2.34 0.91
-16 12 -9 4.86 1.04
-16 4 9 1.66 0.94
-4 16 9 4.37 0.94
12 4 9 3.07 0.77
-16 12 9 3.62 1.01
-12 16 -9 2.29 0.96
-16 4 -9 3.9 0.88
-4 16 9 4.16 0.8
-12 16 -9 3.99 0.7
-16 12 9 4.28 0.84
-16 13 -9 21.37 1.95
-13 16 9 21.82 2.09
-16 3 9 18.41 2.1
-16 13 -9 21.05 2.21
3 13 9 19.41 1.95
-16 3 9 22.62 2.07
-13 16 9 19.85 1.95
-13 16 -9 16.14 1.64
-16 13 9 17.66 1.95
13 3 9 16.57 1.74
-16 13 9 15.53 1.79
-13 -3 9 16.14 1.77
-13 16 -9 15.71 1.97
-3 16 9 14.67 1.79
-16 3 -9 17.83 1.95
-3 16 9 18.12 1.76
-14 16 9 6.03 0.99
2 14 9 4.62 0.83
-16 14 -9 6.12 0.88
-16 2 9 6.45 1.01
-14 16 9 5.93 0.82
-14 -2 -9 5.65 0.99
-16 2 9 7.08 0.94
-16 14 -9 5.53 0.98
-14 16 -9 3.34 0.76
-16 14 9 6.02 1.13
-2 16 9 3.5 0.77
-16 14 9 4.86 0.79
-14 16 -9 4.21 0.78
-14 -2 9 5.45 0.87
-2 16 9 3.72 0.82
-14 16 -9 3.78 0.91
14 2 9 4.31 0.77
-16 2 -9 6.74 1.01
-15 -1 -9 4.4 0.93
-15 16 9 3.49 0.87
-16 15 -9 4.95 0.81
1 15 9 5.13 0.81
-15 16 9 4.05 0.73
-16 1 9 6.53 0.91
-16 15 -9 5.2 0.94
-15 16 -9 6.75 0.86
-16 1 -9 8.81 1.06
-15 -1 9 7.78 1.35
-15 16 -9 6.73 1.13
-1 16 9 5.08 0.88
-16 15 9 5.55 0.95
-15 16 -9 4.66 0.92
-16 15 9 7.81 0.89
-1 16 9 6.78 1.22
-16 0 9 0.55 0.7
-16 16 -9 0.39 0.74
-16 16 -9 0.51 0.33
-16 16 9 0.71 0.64
-16 0 -9 0.07 0.77
0 16 9 0.96 0.64
-16 16 -9 -0.54 0.58
-16 16 9 -0.14 0.54
-17 8 9 13.47 2.09
-9 17 9 15.9 1.9
-17 8 9 13.76 1.54
8 9 9 15.08 1.61
-17 9 -9 14.33 1.61
-17 8 9 15.59 1.66
-8 17 -9 15.01 1.86
-9 17 9 16.68 1.72
-9 17 9 17.99 1.71
-17 9 -9 14.31 1.86
-17 9 -9 13.5 1.72
-17 9 9 12.93 1.65
9 8 9 14.48 1.65
-17 8 -9 12.88 1.67
-17 9 9 11.43 1.38
-17 8 -9 12.76 1.71
-9 17 -9 13.76 1.95
-17 8 -9 12.52 1.48
-8 17 9 14.89 1.69
-8 17 9 16.4 1.66
-8 17 9 13.36 1.9
-17 9 9 13.69 2.1
-7 17 -9 0.89 0.82
-10 17 9 1.55 0.78
-17 10 -9 1.88 0.85
-17 10 -9 1.8 0.71
-17 7 9 1.92 0.65
7 10 9 2.25 0.71
-17 7 9 1.81 0.68
-10 17 9 1.94 0.93
-17 10 -9 1.73 0.68
-17 7 9 1.03 0.95
-10 17 9 2.81 0.75
10 7 9 1.68 0.74
-7 17 9 1.09 0.8
-17 10 9 2.04 0.44
-17 10 9 1.38 0.97
-10 17 -9 1.33 0.96
-17 7 -9 0.77 0.65
-7 17 9 1.38 0.89
-17 10 9 1.31 0.73
-17 7 -9 0.89 0.61
-17 7 -9 1.92 0.79
-7 17 9 2.31 0.75
-17 6 9 14.32 1.54
-17 6 9 16.29 1.74
-17 11 -9 16.9 2.09
-11 17 9 18.96 2.02
6 11 9 19.98 1.72
-17 6 9 14.07 2.06
-11 17 9 19.93 1.78
-17 11 -9 16.75 1.69
-11 17 9 18.79 1.8
-6 17 -9 15.06 1.84
6 11 9 16.62 1.75
-6 17 9 16.32 1.67
-17 6 -9 13.33 1.36
11 6 9 14.09 1.68
-17 11 9 14.15 1.65
-11 17 -9 14.09 1.92
-6 17 9 13.37 1.85
-17 11 9 14.19 1.93
-17 6 -9 14.03 1.71
5 12 9 3.15 0.69
-12 17 9 2.56 0.9
-17 12 -9 2.42 0.71
-17 12 -9 3.41 0.96
-12 17 9 1.61 0.59
-17 5 9 0.63 0.88
-12 17 9 1.82 0.69
-5 17 -9 0.77 0.72
-17 5 9 1.77 0.68
-17 5 -9 4.65 0.87
-5 17 9 3.76 0.77
-17 12 9 2.62 0.92
-12 17 -9 3.5 0.96
-12 17 -9 3.62 0.65
12 5 9 3.96 0.78
-17 12 9 2.69 0.74
-5 17 9 3.35 0.84
-13 -4 -9 11.22 1.5
-17 13 -9 11.69 1.87
4 13 9 9.62 1.39
-17 4 9 9.82 1.5
-13 17 9 11.01 1.65
4 13 9 11.4 1.22
-17 4 9 8.36 1.54
-17 13 -9 9.53 1.31
-13 17 9 11 1.44
-4 17 9 8.29 1.4
-13 -4 9 9 1.25
-13 17 -9 10.37 1.61
-17 4 -9 10.21 1.57
-17 13 9 10.2 1.77
-4 17 9 10.66 1.38
13 4 9 8.91 1.41
-13 17 -9 10.04 1.29
-17 13 9 8.15 1.38
-17 3 9 10.28 1.52
-14 17 9 9.98 1.37
-17 14 -9 9.87 1.34
-14 17 9 11.36 1.6
-14 -3 -9 10.34 1.49
-17 14 -9 10.48 1.69
-17 3 9 10.14 1.39
3 14 9 9.91 1.41
-17 14 9 7.73 1.27
-14 17 -9 7.52 1.24
-3 17 9 10.08 1.3
-14 17 -9 7.71 1.42
-3 17 9 6.85 1.26
-17 3 -9 9.3 1.51
-14 -3 9 9.75 1.34
-17 14 9 9.75 1.54
-15 17 9 4.73 0.76
2 15 9 5.75 0.84
-17 15 -9 6.42 0.98
-17 2 9 8.05 0.93
-15 17 9 5.03 0.94
-15 -2 -9 7.1 0.93
-17 15 -9 5.6 0.81
-17 15 9 6.18 1.17
-15 17 -9 7.26 1.28
-15 17 -9 6.64 1.07
-2 17 9 7.61 1.16
-15 17 -9 4.52 0.78
-2 17 9 7.3 0.88
-17 2 -9 6.22 0.93
-15 -2 9 8.54 1.28
-17 15 9 5.63 0.97
-17 16 -9 9.41 1.21
-16 -1 -9 10.16 1.35
-17 1 9 10.73 1.39
-16 17 9 8.62 1.21
-17 16 -9 9.62 1.55
1 16 9 9.72 1.27
-16 17 9 7.71 1.36
-16 -1 9 10.53 1.31
-16 17 -9 6.73 1.33
-17 16 9 7.09 0.99
-17 1 -9 9.2 1.29
-1 17 9 8.94 1.12
-17 16 9 7.45 1.14
-16 17 -9 7.6 1.11
-16 17 -9 6.82 0.88
-17 0 -9 17.48 1.71
-17 17 9 14.63 1.57
-17 17 9 16.95 1.64
0 17 9 16.04 1.52
-17 17 -9 17.76 1.81
-17 17 -9 17.85 1.58
-17 0 9 20.87 1.69
-9 18 9 -0.48 0.81
-18 9 9 -0.16 0.86
-9 18 -9 -0.32 0.8
-18 9 -9 -0.31 0.59
-18 9 9 0.16 0.52
-9 18 9 -0.43 0.72
-18 9 -9 -0.07 0.74
-18 9 -9 0.46 0.75
9 9 9 0.29 0.63
-18 9 9 -0.37 0.67
-9 18 9 0.51 0.68
-18 8 9 15.07 1.59
-10 18 9 16.6 1.74
-18 8 9 16.62 1.7
-8 18 -9 12.91 1.79
-18 8 9 13.82 2
-10 18 9 15.74 1.9
-18 10 -9 14.93 1.57
8 10 9 15.14 1.63
-18 10 -9 15.08 1.7
-10 18 9 16.17 1.72
-18 10 -9 15.94 1.88
10 8 9 14.58 1.65
-8 18 9 16.94 1.6
-8 18 9 14.71 1.81
-8 18 9 15.94 1.65
-18 10 9 14.24 1.98
-18 8 -9 13.53 1.42
-18 8 -9 14.33 1.63
-18 8 -9 12.59 1.68
-18 10 9 12.83 1.3
-18 10 9 13.42 1.64
-10 18 -9 13.22 1.84
-11 18 9 3.9 0.79
-18 7 9 3.41 0.94
-7 18 -9 3.59 0.88
-18 7 9 3.7 0.7
-18 11 -9 5.01 0.93
-11 18 9 3.66 0.8
-18 7 9 3.68 0.72
-18 11 -9 3.27 0.74
-18 11 -9 4.33 0.73
7 11 9 3.73 0.74
-11 18 9 4.08 0.92
-7 18 9 6.36 0.95
-18 7 -9 5.08 0.83
-18 7 -9 3.58 0.65
-18 11 9 3.12 0.61
-11 18 -9 6.37 1
11 7 9 6.87 1.2
-18 11 9 4.24 0.77
-18 7 -9 5.79 0.89
-18 6 9 10.31 1.21
-6 18 -9 11.11 1.6
-18 12 -9 14.61 1.77
-12 18 9 13.9 1.72
-12 18 9 13.05 1.44
-18 12 -9 10.15 1.24
-12 18 9 14.59 1.54
-18 12 -9 13.25 1.42
-18 6 9 12.65 1.48
6 12 9 13.66 1.46
-18 6 9 10.16 1.74
-18 12 9 10.41 1.43
-12 18 -9 11.06 1.64
-6 18 9 9.1 1.5
12 6 9 12.61 1.46
-18 12 9 11.7 1.78
-6 18 9 11.85 1.4
-12 18 -9 9.43 1.06
-18 6 -9 11.48 1.48
5 13 9 32.31 2.58
-18 5 9 32.37 2.62
-13 -5 -9 32.01 2.66
-18 13 -9 36.46 2.93
-13 18 9 30.84 2.52
-18 13 -9 32.86 2.58
-13 18 9 35.06 2.69
-5 18 -9 28.18 2.64
-18 5 9 28.89 2.73
-13 18 9 35.27 2.77
-18 5 -9 30.53 2.56
-18 13 9 28.79 2.46
13 5 9 29.36 2.49
-18 13 9 32.21 2.7
-13 18 -9 30.4 2.61
-13 18 -9 29.88 2.41
-5 18 9 27.13 2.49
-5 18 9 30.78 2.45
-14 18 9 3.61 0.68
-18 4 9 3.09 0.76
4 14 9 1.99 0.43
-18 14 -9 4.88 0.93
-18 14 9 4.42 0.9
-18 14 9 5.45 0.77
-4 18 9 6.01 1.01
-14 18 -9 5.24 0.76
-18 4 -9 7.51 0.95
-14 -4 9 5.7 1.02
-4 18 9 4.84 0.83
-14 18 -9 4.85 0.92
-18 3 9 1.33 0.37
-18 3 9 1.99 0.67
-15 18 9 1.77 0.6
-15 -3 -9 2.49 0.71
3 15 9 1.49 0.65
-18 15 -9 1.85 0.61
-15 18 9 1.47 0.72
-18 15 -9 1.65 0.76
-15 -3 9 1.82 0.61
-18 15 9 2.02 0.6
-15 18 -9 1.79 0.72
-3 18 9 1.28 0.67
-3 18 9 1.94 0.49
-18 3 -9 1.75 0.72
-18 15 9 1.78 0.63
-15 18 -9 1.01 0.59
-16 18 9 1.78 0.55
-18 2 9 2.59 0.67
-18 16 -9 1.88 0.57
2 16 9 1.49 0.56
-16 18 9 2.07 0.7
-16 -2 -9 2.62 0.68
-18 16 -9 2.01 0.73
-16 18 -9 1.76 0.5
-18 16 9 1.55 0.53
-16 -2 9 2.44 0.61
-2 18 9 1.23 0.39
-18 2 -9 2.75 0.7
-18 2 -9 1.36 0.5
-16 18 -9 2.12 0.57
-17 18 9 4.61 0.9
-17 -1 -9 5.8 1
-18 17 -9 6.4 1.14
-18 17 -9 5.36 0.69
-18 1 9 5.3 0.75
-17 18 9 5.12 0.76
-18 17 9 4 0.68
-18 17 9 5.77 0.89
-18 1 -9 5.31 0.9
-17 18 -9 3.72 0.79
-17 18 -9 5.69 0.86
-18 0 -9 10.33 1.11
-18 0 -9 8.47 1.02
-18 18 9 8.8 1
-18 0 9 11.29 1.11
-18 18 -9 6.69 1
-18 18 9 8.17 0.92
-18 18 -9 8.55 1.03
-10 19 9 20.84 1.81
-10 19 9 20.47 1.81
-19 9 9 20.05 2.08
-19 10 -9 17.9 1.69
9 10 9 18.71 1.79
-19 10 -9 19.87 1.97
-10 19 9 19.78 1.93
-19 10 -9 18.04 1.85
-19 9 9 21.8 1.83
-19 9 9 18.36 1.71
-9 19 -9 16.02 1.9
-10 19 -9 21.97 2.1
-9 19 9 22.66 2.1
-9 19 9 23.27 1.94
-19 10 9 23.27 1.98
-19 10 9 23.19 2.19
-19 9 -9 20.51 1.96
-19 10 9 19.55 1.73
-19 9 -9 18.88 1.78
-19 9 -9 19.51 2.01
-9 19 9 23.25 1.9
10 9 9 21.64 1.9
-8 19 -9 7.62 1.09
-19 8 9 10.91 1.27
-19 11 -9 8.68 1.19
-19 11 -9 8.07 1.25
-19 8 9 8.4 1.59
-19 8 9 9.83 1.26
-11 19 9 10.31 1.52
-11 19 9 10.02 1.28
8 11 9 9.1 1.27
-19 11 -9 10.14 1.59
-11 19 9 9.84 1.31
-19 11 9 9.04 1.27
-8 19 9 8.31 1.4
-11 19 -9 8.52 1.48
-19 8 -9 6.82 1.14
11 8 9 9.34 1.28
-19 8 -9 8.23 1.36
-8 19 9 10.17 1.16
-19 11 9 10.61 1.67
-12 19 9 23.81 2.01
-19 12 -9 21.33 1.93
-19 7 9 23.41 1.95
-19 12 -9 23.44 2.26
-7 19 -9 21.89 2.12
-12 19 9 24.66 2.01
-19 12 -9 19.35 1.96
-19 7 9 23.3 1.99
7 12 9 23.32 2.01
-12 19 9 23.8 2.11
-19 7 9 21.62 2.2
-7 19 9 21.78 1.86
-12 19 -9 23.52 2.18
-7 19 9 20.53 2.02
-19 12 9 23.9 2.22
-19 12 9 23.76 1.99
-19 7 -9 21.71 2.06
12 7 9 23 1.97
-19 13 -9 3.29 0.83
-13 19 9 4.16 0.81
6 13 9 2.72 0.6
-19 6 9 4.56 0.69
-13 19 9 3.65 0.65
-19 6 9 2.64 0.77
-19 13 -9 3.12 0.65
-6 19 -9 3.01 0.74
-13 -6 -9 3.57 0.72
-13 19 9 3.66 0.69
-13 19 -9 2.34 0.8
-19 6 -9 2.23 0.7
-13 19 -9 1.59 0.44
-6 19 9 1.73 0.67
-6 19 9 1.72 0.44
-19 13 9 2.79 0.78
-19 13 9 1.52 0.59
-19 5 9 9.51 1.17
-5 19 -9 6.96 0.92
-14 19 9 5.9 0.76
-14 19 9 9.09 1.24
-14 19 9 10 1.18
-19 5 9 7.03 1.22
-14 -5 -9 9.13 1.14
-19 14 -9 8.13 1.06
5 14 9 4.96 0.77
-5 19 9 4.3 0.63
-19 14 9 6.74 1.02
-5 19 9 6.07 1.05
-14 19 -9 7.61 1.28
-14 -5 9 5.04 0.65
-19 4 9 5.79 0.73
-19 15 -9 5.42 0.7
-15 19 9 5.65 0.81
-15 -4 -9 5.23 0.96
-15 19 9 5.26 0.97
-19 4 9 4.63 0.75
-19 15 -9 4.49 0.82
-15 19 -9 5.33 0.99
-19 4 -9 7.04 0.88
-19 15 9 6.65 0.77
-4 19 9 5.4 0.81
-15 -4 9 6.73 0.93
-15 19 -9 5.76 0.88
-19 15 9 7.39 1.19
-19 16 -9 0.04 0.48
-16 19 9 0.36 0.48
-16 19 9 0 0.6
-19 16 -9 0.59 0.63
-16 -3 -9 0.54 0.53
-19 3 9 0.05 0.57
-19 3 -9 -0.05 0.23
-16 -3 9 1.15 0.49
-19 3 -9 0.46 0.61
-16 19 -9 0.28 0.49
-19 16 9 0.89 0.3
-16 19 -9 0.41 0.47
-19 16 9 0.1 0.44
-19 17 -9 3.26 0.55
-19 2 9 3.05 0.61
-17 19 9 2.87 0.51
-17 -2 -9 3.38 0.58
-17 19 9 2.41 0.61
-19 17 -9 2.51 0.64
-19 2 -9 2.04 0.59
-17 19 -9 2.33 0.5
-19 17 9 1.93 0.47
-17 -2 9 2.37 0.51
-18 -1 -9 16.53 1.41
-18 19 9 16.23 1.36
-18 19 9 14.33 1.36
-18 -1 -9 16.01 1.37
-19 18 -9 19.81 1.41
-19 18 -9 15.02 1.43
-19 1 -9 17.43 1.5
-19 18 9 16.13 1.44
-18 -1 9 18.51 1.48
-18 19 -9 16.56 1.41
-10 20 -9 0.59 0.72
-20 10 9 0.75 0.56
-20 10 -9 0.71 0.62
-20 10 9 0.93 0.27
-20 10 9 0.86 0.7
-20 10 -9 0.61 0.33
-10 20 9 0.28 0.31
-10 20 9 0.86 0.7
-20 10 -9 0.37 0.61
-20 11 -9 12.96 1.53
-20 11 -9 11.23 1.18
-11 20 9 10 1.11
9 11 9 12.99 1.29
-20 11 -9 11.87 1.38
-20 9 9 13.13 1.53
-20 9 9 13.19 1.36
-11 20 9 13.77 1.53
-9 20 -9 13.07 1.46
-20 9 9 12.3 1.13
-11 20 -9 14.08 1.64
-20 9 -9 12.31 1.41
-20 9 -9 11.26 1.34
-20 11 9 15.38 1.73
-9 20 9 13.69 1.5
-20 11 9 14.74 1.42
-12 20 9 0.98 0.4
8 12 9 1.65 0.53
-12 20 9 1.73 0.7
-8 20 -9 1.66 0.7
-20 12 -9 1.1 0.58
-20 12 -9 1.33 0.53
-12 -8 -9 1.56 0.59
-20 8 9 0.92 0.67
-20 8 9 1.93 0.55
-20 12 -9 2.27 0.69
-12 20 9 1.44 0.61
-20 8 9 1.11 0.48
-12 20 -9 1.45 0.74
-20 12 9 1.49 0.56
-8 20 9 1.38 0.61
-20 8 -9 1.69 0.63
-20 12 9 1.79 0.68
-20 7 9 11.53 1.44
-20 13 -9 13.71 1.51
-20 7 9 12.63 1.26
7 13 9 11.3 1.13
-13 20 9 12.36 1.41
-13 -7 -9 12.09 1.27
-13 20 9 11.44 1.1
-13 20 9 10.65 1.17
-20 7 9 9.89 1.04
-20 13 -9 11.65 1.2
-7 20 -9 10.83 1.26
-20 13 9 14.58 1.56
-7 20 9 12.07 1.39
-13 20 -9 13.93 1.53
-20 13 9 13.04 1.35
-20 7 -9 12.09 1.39
-20 14 -9 29.19 2.27
-14 -6 -9 21.72 1.99
-20 6 9 25.33 2.02
-14 20 9 26.11 2.11
-14 20 9 23.26 1.92
-20 14 -9 24.39 1.96
-20 6 9 22.27 2.05
-6 20 9 20.61 1.99
-20 14 9 21.94 1.92
-20 6 -9 25.7 2.05
-20 14 9 25.42 2.11
-14 20 -9 23.65 2.06
-15 20 9 2.84 0.67
-20 5 9 3.62 0.59
-20 5 9 2.86 0.52
-15 -5 -9 2.91 0.56
-20 15 -9 3.67 0.76
-20 15 -9 3.43 0.54
-15 20 9 4.06 0.66
-20 5 -9 2.92 0.66
-5 20 9 1.78 0.6
-20 15 9 1.97 0.51
-20 15 9 2.75 0.62
-15 20 -9 2.18 0.45
-15 20 -9 2.67 0.64
-20 4 9 0.54 0.45
-16 -4 -9 0.87 0.45
-20 16 -9 0.26 0.45
-16 20 9 0.44 0.53
-16 20 9 0.94 0.3
-20 16 -9 0.87 0.57
-16 20 -9 0.26 0.41
-20 16 9 0.67 0.44
-16 -4 9 0.58 0.24
-20 4 -9 0.36 0.57
-16 20 -9 0.77 0.38
-20 16 9 0.74 0.28
-20 17 -9 1.63 0.45
-17 -3 -9 1.33 0.42
-17 20 9 1.56 0.5
-17 -3 -9 0.98 0.39
-20 3 9 1.98 0.51
-20 17 -9 1.81 0.57
-17 20 9 1 0.25
-17 -3 9 1.31 0.32
-17 20 -9 1.4 0.41
-20 3 -9 1.49 0.54
-20 17 9 1.27 0.41
-21 10 9 0.2 0.35
-21 11 -9 0.17 0.18
-21 11 -9 0.3 0.54
-21 10 9 0.72 0.47
-11 21 9 0.91 0.62
-11 -10 -9 0.12 0.29
-21 10 9 0.82 0.6
-21 11 -9 0.41 0.52
-10 21 -9 0.21 0.6
-21 11 9 1.52 0.65
-11 21 -9 0.71 0.68
-21 11 9 1.15 0.48
-10 21 9 0.65 0.52
-21 10 -9 0.09 0.4
-21 10 -9 0.75 0.55
-21 9 9 9.9 1.25
-21 12 -9 8.17 1.01
-12 21 9 10.2 1.22
-21 12 -9 9.15 1.24
-9 21 -9 9.04 1.21
-21 9 9 9.73 1
-12 21 -9 10.55 1.3
-21 9 -9 8.79 1.14
-9 21 9 8.38 1.18
-21 12 9 10.24 1.1
-21 12 9 12.05 1.38
-21 8 9 8.18 0.78
-13 -8 -9 8.65 0.82
-21 13 -9 10.85 0.81
-21 13 -9 7.36 0.83
-21 13 9 15.32 1.39
-21 8 -9 13.64 1.4
-8 21 9 14.07 1.41
-21 13 9 16.11 1.55
-13 21 -9 16.71 1.52
-21 7 9 1.15 0.39
-21 14 -9 1.65 0.63
-14 21 9 1.27 0.57
-21 14 -9 1.32 0.35
-14 -7 -9 0.76 0.28
-21 7 9 1.32 0.46
-21 7 -9 0.94 0.56
-7 21 9 0.71 0.51
-21 14 9 0.84 0.45
-14 21 -9 0.48 0.53
-21 14 9 1.14 0.58
-21 15 -9 1.63 0.39
-21 6 9 2.46 0.47
-15 21 9 2.41 0.58
-21 15 -9 2.96 0.67
-21 15 9 2.45 0.49
-21 6 -9 2.46 0.6
-15 21 -9 2.18 0.55
-21 15 9 4.17 0.88
-6 21 9 2.22 0.5
0 0 10 -0.09 0.31
0 0 10 -0.24 0.41
0 0 10 -0.4 0.51
1 0 10 66.55 4.7
-1 0 10 56.02 4.66
1 -1 -10 62.47 4.59
-1 0 -10 66.8 4.52
0 -1 10 56.01 4.64
0 1 10 67.87 4.73
-1 1 10 62.51 4.71
1 -1 10 54.61 4.64
0 -1 10 49.32 4.45
0 -1 -10 60.61 4.5
1 -2 10 20.12 2.01
1 -2 10 19.8 1.91
1 -2 -10 26.14 2.05
2 -1 10 20.9 2.1
-1 2 10 27.4 2.27
-1 -1 10 22.81 1.94
-2 1 10 27.53 2.23
-1 -1 -10 24.7 1.95
1 -2 10 23.45 2.17
-1 -1 10 22.95 2.15
-2 1 -10 28.45 2.02
1 1 10 24.02 2.2
-1 2 -10 24.94 1.98
0 -2 -10 13.88 1.46
0 2 10 18.38 1.85
-2 0 -10 16.92 1.54
2 -2 10 18.22 1.74
-2 2 -10 17.51 1.59
2 -2 -10 19.28 1.63
-2 0 10 17.24 1.75
0 -2 10 17.05 1.76
0 -2 -10 18.01 1.58
0 -2 10 18.58 1.56
-2 2 10 20 1.85
1 2 10 36.35 2.8
-3 1 10 34.16 2.76
-3 1 10 30.48 2.56
2 -3 10 33.39 2.67
1 -3 -10 31.86 2.59
2 -3 -10 43.82 3.32
3 -1 -10 45.4 3.38
3 -2 10 34.08 3.35
-1 3 10 44.9 3.52
-2 3 -10 47.2 3.28
-3 2 10 40.15 3.44
1 -3 10 47.66 3.46
1 -3 10 40.4 3.34
-3 3 10 7.42 1.15
0 -3 -10 5.66 0.74
0 -3 10 7.86 1.13
-3 0 10 6.91 0.88
3 -3 10 5.65 1.02
-3 0 -10 5.52 0.81
3 0 -10 7.61 0.98
0 -3 10 8.83 0.98
3 -3 -10 8.2 0.97
-3 3 -10 7.59 0.93
0 3 10 8.03 1.17
2 -4 -10 4.55 0.67
-2 -2 10 5.44 0.86
2 2 10 3.89 0.88
-4 2 10 5.47 0.89
-4 1 10 27.84 2.17
-1 -3 10 29.96 2.34
3 1 -10 23.23 2.24
3 -4 10 31.4 2.28
1 3 10 24.51 2.34
4 -3 10 20 1.79
-4 0 10 -0.17 0.35
4 -4 10 0.25 0.35
0 -4 -10 -0.26 0.26
4 -4 -10 0.68 0.42
4 0 -10 0.37 0.44
0 4 10 0.34 0.43
-4 4 10 0.45 0.42
-4 0 10 0.75 0.45
-4 4 -10 0.75 0.43
-4 0 -10 -0.35 0.34
4 0 10 -0.11 0.38
0 -4 10 0.16 0.41
4 -4 10 0.31 0.41
-5 2 10 9.82 0.97
-2 -3 -10 10.13 0.91
-3 5 -10 7.94 0.89
1 -5 -10 13.81 1.34
4 -5 10 16.96 1.47
-5 1 10 17.56 1.4
5 -1 -10 11.81 1.08
4 -5 -10 7.97 0.93
-5 1 -10 8.03 0.91
-5 0 10 1.96 0.45
5 -5 -10 1.2 0.4
-5 5 -10 1.5 0.4
3 -6 10 2.7 0.6
-3 -3 10 4.4 0.72
-6 3 -10 4.69 0.67
6 -3 -10 3.69 0.74
3 -6 10 4.32 0.75
6 -4 -10 9.76 1.02
-4 6 10 9.97 1.19
4 -6 10 10.08 1.07
-2 -4 10 9.2 1
-6 4 -10 9.2 0.99
2 -6 10 9.32 1.24
-4 -2 10 9.91 1.05
2 -6 10 11.04 1.08
-5 6 10 0.57 0.38
-1 -5 10 -0.08 0.38
-6 5 -10 0.7 0.37
-6 1 10 0.91 0.4
5 -6 10 0.85 0.46
6 -5 -10 0.68 0.39
-1 6 10 0.65 0.43
-5 6 -10 0.01 0.35
6 -5 10 -0.19 0.55
-5 -1 10 0.95 0.41
1 -7 -10 1.21 0.45
-6 -1 -10 0.12 0.28
-1 -6 -10 2.76 0.57
0 -7 -10 0.33 0.45
3 -8 -10 2.96 0.54
-5 -3 -10 2.56 0.49
2 -8 -10 0.67 0.42
-6 -2 -10 0.09 0.29
-2 -6 -10 0.32 0.44
-1 -7 -10 13.56 1.3
0 -8 -10 7.34 0.95
4 -9 -10 11.09 1.07
3 -9 -10 12.4 1.11
-6 -3 -10 9.16 1.01
-3 -6 -10 18.13 1.55
-2 -7 -10 17.48 1.53
1 -9 -10 6.91 0.89
-1 -8 -10 9.97 1.08
5 -10 -10 0.28 0.29
-10 5 -10 0.06 0.38
-10 3 10 0.71 0.48
-10 3 10 0.01 0.38
-7 -3 -10 0.17 0.29
-10 7 -10 -0.26 0.4
3 -10 -10 0.52 0.4
3 7 10 0.53 0.3
-3 -7 -10 0.48 0.41
-7 10 -10 -0.33 0.43
10 -7 10 -0.64 0.49
-10 3 -10 0 0.25
-3 10 10 0.46 0.27
2 8 10 1.37 0.34
-10 2 10 0.72 0.53
10 -8 10 2.69 0.49
-2 10 10 3.75 0.54
-9 10 10 0.61 0.29
1 9 10 0.76 0.33
1 9 10 1.16 0.35
-9 -1 -10 0.43 0.3
-10 9 -10 0.97 0.45
1 9 10 0.33 0.44
9 -10 10 -0.15 0.33
-10 9 -10 0 0.31
-10 1 10 0.07 0.33
-10 1 -10 0.41 0.29
10 -9 10 0.41 0.45
-9 10 -10 -0.29 0.39
-9 10 -10 -0.14 0.35
-1 -9 -10 1.27 0.45
-1 10 10 0.02 0.42
-1 10 10 0.85 0.33
-10 9 10 0.78 0.51
-10 0 -10 10.71 1.13
-10 10 -10 11.26 1.3
0 -10 -10 14.29 1.19
0 10 10 16.11 1.4
10 -10 10 13.08 1.36
-10 10 10 12.02 1.18
-6 -5 -10 0.63 0.35
-5 11 -10 0.24 0.44
-11 6 -10 0.81 0.33
5 6 10 0.73 0.37
-6 11 10 1.51 0.35
-11 5 10 1.1 0.38
-11 5 10 1.38 0.63
5 6 10 -0.06 0.28
6 5 10 1.26 0.35
-5 11 10 1.41 0.37
-6 11 -10 1.03 0.47
-11 6 10 1.19 0.34
-5 -6 -10 0.84 0.41
-11 5 -10 1.09 0.36
-11 6 10 1.18 0.56
4 -11 -10 3.54 0.63
-7 -4 -10 3.49 0.58
-11 7 -10 4.75 0.77
11 -7 10 1.65 0.47
-11 7 10 2.42 0.58
-11 7 10 3.66 0.55
3 8 10 2.2 0.43
-11 8 -10 1.6 0.39
3 -11 -10 1.6 0.41
3 8 10 2.29 0.44
-11 3 10 2.56 0.54
-8 -3 -10 1.14 0.34
-11 8 -10 1.8 0.55
-11 3 10 2.53 0.61
11 -8 10 2.56 0.61
-11 3 -10 4.37 0.65
-3 11 10 2.99 0.58
2 9 10 16.92 1.4
2 -11 -10 14.67 1.35
-11 9 -10 14.55 1.33
-11 2 10 17.44 1.53
-2 -9 -10 13.39 1.31
-11 2 -10 13.79 1.32
-2 11 10 18 1.45
-9 11 -10 15.65 1.49
-2 11 10 17.29 1.54
-11 1 10 7.82 1.06
1 -11 -10 8.69 0.92
10 -11 10 9.65 1.13
-10 -1 -10 10.9 0.95
1 10 10 9.91 0.98
-11 10 -10 9.81 0.96
-1 -10 -10 10 1.05
-10 11 -10 10.12 1.19
-11 1 -10 13.92 1.11
-10 11 -10 12.64 1.2
-11 11 -10 7.88 0.79
0 11 10 6.34 0.78
-11 11 -10 7.04 0.89
0 -11 -10 4.78 0.69
-12 6 -10 4.53 0.64
6 6 10 2.89 0.55
-6 12 10 5.43 1
-12 6 10 5.26 1.08
-6 12 -10 4.04 0.74
6 6 10 3.77 0.66
-12 6 10 3.81 0.64
-7 12 10 2.2 0.6
-7 12 10 0.16 0.46
5 7 10 2 0.6
-12 5 10 1.7 0.59
-12 5 10 1.7 0.97
5 7 10 1.34 0.52
-12 7 -10 1.08 0.51
-5 12 -10 1.35 0.51
-12 7 -10 1.62 0.57
-12 7 10 1.69 0.44
-5 12 10 1.88 0.58
-7 12 -10 1.57 0.74
7 5 10 2.35 0.53
-12 7 10 1.56 0.74
-12 5 -10 2.18 0.55
-5 12 10 3.42 0.64
7 5 10 1.32 0.41
4 8 10 15.39 1.61
-8 12 10 16.64 1.65
4 8 10 18.03 1.61
-12 8 -10 14.07 1.79
-12 4 10 17.93 2.06
-12 4 10 17.28 1.73
-12 8 -10 17.33 1.58
8 4 10 9.08 0.99
-4 -8 -10 9.12 0.94
-12 8 10 11.2 0.98
-12 9 -10 21.9 2.17
-9 12 10 23.31 1.97
-12 9 -10 20.91 1.9
3 9 10 20.64 1.87
3 9 10 22.96 1.94
-12 3 10 20.31 2.16
-12 3 10 21.6 2.1
-12 9 10 8.31 0.99
-12 9 10 11.76 1.28
9 3 10 10.75 0.99
-3 -9 -10 10.33 0.96
-12 2 10 8.29 1.07
-12 10 -10 8.26 1.69
2 10 10 7.39 1.07
-10 -2 -10 5.47 0.88
-12 2 10 8.5 1.28
2 10 10 8.28 1.31
-12 10 -10 5.99 1.06
2 10 10 9.25 1.55
-10 12 10 9.53 1.33
-12 10 10 1.29 0.33
-12 10 10 1.15 0.49
10 2 10 1.14 0.31
-2 -10 -10 1.16 0.32
-2 12 10 0.45 0.37
-10 12 -10 1.87 0.49
-10 12 -10 0.37 0.3
1 11 10 70.8 4.83
1 11 10 68.93 4.72
-11 -1 -10 51.32 4.6
-11 12 10 67.83 4.76
-12 11 -10 57.93 4.82
-12 11 -10 59.17 4.64
-11 -1 10 62.45 4.79
-11 12 -10 54.33 4.82
-11 12 -10 62.05 4.82
-12 1 -10 60.17 4.73
-1 12 10 73.77 4.94
-12 11 10 71.96 4.84
0 12 10 1.38 0.7
0 12 10 1.56 0.9
-12 12 -10 2.01 0.59
-12 12 -10 2.02 0.59
-12 0 10 1.11 0.4
-12 12 -10 2.52 0.8
-12 0 10 0.45 0.77
0 12 10 1.02 0.41
-12 12 10 1.16 0.73
-12 0 -10 1.6 0.52
-13 6 10 23.49 2.67
-7 13 10 28.65 2.22
6 7 10 28.15 2.23
-6 13 -10 22.95 2.27
-13 6 10 21.21 2.11
-13 7 -10 24.33 2.14
-13 7 -10 21.93 2.14
-7 13 10 23.6 2.2
6 7 10 25.52 2.13
-13 7 10 23.05 2.64
7 6 10 23.55 2.1
-13 7 10 20.75 2.07
-6 13 10 25.18 2.25
-6 13 10 24.92 2.23
7 6 10 26 2.16
-7 13 -10 27.18 2.41
-13 6 -10 25.22 2.08
5 8 10 2.75 0.73
-13 8 -10 2.41 0.81
5 8 10 3.56 0.8
-13 5 10 3.3 0.8
-13 8 -10 3.24 0.73
-13 5 10 2.59 1.16
-8 13 10 2.53 0.68
-8 13 10 3.14 0.77
-5 13 -10 2.98 0.71
-5 13 10 3.2 0.75
8 5 10 2.03 0.62
8 5 10 2.85 0.66
-13 8 10 0.9 0.96
-8 13 -10 2.6 0.94
-13 8 10 2.17 0.49
-13 5 -10 1.97 0.61
-13 8 10 1.43 0.42
-5 13 10 4.6 0.94
-13 4 10 27.25 2.44
-13 4 10 26.23 2.75
4 9 10 25.78 2.3
4 9 10 26.9 2.36
-9 13 10 27.85 2.36
-13 9 -10 27.63 2.52
-13 9 -10 27.18 2.34
-9 13 -10 23.63 2.33
9 4 10 24.15 2.01
-13 9 10 22.61 2.35
-4 13 10 24.86 2.32
-13 4 -10 24.12 2.02
-13 9 10 21.63 2.03
-4 13 10 24.59 2.14
-13 10 -10 13.66 1.51
-13 10 -10 13.86 1.87
-10 13 10 14.57 1.6
3 10 10 13.64 1.43
3 10 10 13.2 1.57
-10 -3 -10 10.45 1.23
-13 3 10 11.51 1.73
-13 3 10 11.98 1.88
-10 13 -10 10.12 1.64
-13 10 10 6.74 0.87
-13 3 -10 9.46 1.18
-13 2 10 10.29 1.68
-13 2 10 12.12 1.7
2 11 10 10.88 1.34
-13 11 -10 9.07 1.4
2 11 10 14 1.57
-11 13 10 11.74 1.6
-11 -2 -10 10.17 1.16
-13 11 -10 13.78 1.87
-13 11 10 8.91 1.24
-2 13 10 9.55 1.32
-11 -2 10 7.24 1.12
-13 11 10 11.82 1.48
-13 2 -10 9.58 1.11
11 2 10 6.44 1.03
-13 2 -10 9.87 1.45
-11 13 -10 7.58 0.96
-2 13 10 11.53 1.7
-11 13 -10 7.37 1.11
-11 13 -10 7.74 1.26
-13 1 10 18.5 2.02
-12 13 10 18.4 1.96
-13 1 10 18.39 1.82
1 12 10 21.32 2.09
-13 12 -10 18.42 2.08
-13 12 -10 17.59 1.77
-12 -1 -10 17.99 1.61
1 12 10 19.22 1.87
-12 13 -10 13.71 1.46
-1 13 10 14.3 1.77
-13 12 10 13.5 1.65
-13 1 -10 13.53 1.37
-12 13 -10 13.76 1.65
-13 1 -10 15.84 1.78
-12 13 -10 13.64 1.67
-12 -1 10 10.93 1.64
-1 13 10 15.05 1.59
-13 13 -10 35.25 3.05
0 13 10 38.06 3.1
0 13 10 34.79 2.94
-13 13 10 38.92 2.99
-13 0 -10 32.55 2.78
-13 13 -10 33.23 2.93
-13 0 10 40.42 3.1
-13 13 -10 36.96 2.91
-13 0 -10 39.85 3.11
-14 7 10 3.82 1.21
7 7 10 7.65 1.37
-7 14 10 6.78 1.1
-14 7 -10 6.28 0.87
-14 7 -10 6.42 1.33
-7 14 -10 7.19 1.11
-14 7 10 6 0.85
-7 14 10 4.55 0.86
7 7 10 8.39 1.33
-14 6 10 5.36 1.26
-6 14 -10 8.1 1.09
6 8 10 5.13 0.88
-8 14 10 7.66 0.97
-14 6 10 5.03 0.86
-14 8 -10 7.26 0.92
-8 14 10 7.68 1.14
-8 14 10 7.58 1.15
6 8 10 6.15 0.94
-14 8 -10 7 1.03
-14 8 10 4.81 0.69
-14 6 -10 3.39 0.65
-6 14 10 6.71 1.1
-14 8 10 4.55 1.18
-8 14 -10 6.68 1.15
-14 6 -10 6.06 0.8
-14 8 10 4.84 0.69
-14 6 -10 2.79 0.57
8 6 10 4.32 0.81
-9 14 10 20.9 2.19
-14 9 -10 23.82 1.98
5 9 10 22.06 2.02
-5 14 -10 20.3 2.03
-14 5 10 18.61 2.51
-14 5 10 18.84 2.11
5 9 10 22.47 1.98
-14 9 -10 21.46 2.18
-9 14 10 23.59 2.09
-9 -5 -10 17.28 1.75
-14 9 10 18.06 1.81
-14 9 10 15.11 2.18
-9 14 -10 18.93 2.14
9 5 10 19.08 1.78
-14 9 10 17.46 1.58
-14 5 -10 15.32 1.65
-5 14 10 18.62 2.09
-14 5 -10 19.07 1.68
-5 14 10 16.27 1.79
-10 -4 -10 9.16 1.09
4 10 10 10.07 1.46
-10 14 10 10.85 1.57
-10 14 10 11.37 1.58
-14 4 10 8.91 1.89
-14 10 -10 12.47 1.76
-14 10 -10 11.13 1.41
-14 4 10 8.81 1.16
-4 14 -10 7.97 1.21
4 10 10 10.18 1.49
-10 14 -10 9.61 1.29
-14 4 -10 8.19 1.39
-14 10 10 8.19 1.82
-4 14 10 9.84 1.66
10 4 10 11.03 1.3
-14 4 -10 9.19 1.27
-4 14 10 10.01 1.41
-14 10 10 9.13 1.5
-14 10 10 8.8 1.01
-14 3 10 21.16 2.4
-14 11 -10 24.62 2.11
-11 -3 -10 18.67 1.85
-11 14 10 24.27 2.16
-14 3 10 22.58 2.24
-11 14 10 21.87 2.1
3 11 10 22.91 2.01
3 11 10 24.85 2.13
-14 11 -10 25.46 2.44
-11 14 -10 25.7 2.41
-14 3 -10 24.24 2.26
-11 14 -10 20.12 1.98
-14 3 -10 25.83 2.12
-14 11 10 26.16 2.49
-3 14 10 28.59 2.39
-14 11 10 27.11 2.28
-3 14 10 24.59 2.23
11 3 10 24.47 2.12
-12 14 10 8 1.23
-14 12 -10 12.43 1.76
2 12 10 10.46 1.39
-14 2 10 8.57 1.59
-12 -2 -10 7.6 0.98
-14 2 10 10.1 1.65
-12 14 10 9.92 1.44
2 12 10 10.15 1.22
-14 12 -10 10.94 1.29
-12 14 -10 10.83 1.23
-14 2 -10 10.63 1.59
-14 12 10 9.73 1.53
12 2 10 9.84 1.3
-2 14 10 8.71 1.42
-14 12 10 11.05 1.45
-12 14 -10 8.01 1.45
-12 14 -10 9.32 1.7
-12 -2 10 9.21 1.43
-2 14 10 10.15 1.67
-14 2 -10 10.65 1.21
-14 1 10 1.18 0.6
1 13 10 1.23 0.5
-14 13 -10 2.17 0.85
-13 -1 -10 2.17 0.95
-13 -1 -10 0.69 0.4
-13 14 10 0.61 0.48
1 13 10 1.5 0.67
-13 14 10 1.34 0.73
-14 13 -10 1.34 0.43
-14 1 10 0.35 0.79
-14 13 -10 1.8 0.67
13 1 10 1.08 0.52
-14 1 -10 1.01 0.49
-1 14 10 0.44 0.33
-13 14 -10 0.56 0.8
-14 13 10 0.67 0.42
-1 14 10 2.18 0.85
-13 14 -10 1.22 0.78
-13 -1 10 -0.45 0.76
-1 14 10 0.98 0.65
-13 14 -10 1.22 0.65
-14 13 10 0.41 0.68
-14 1 -10 1.87 0.85
-14 0 -10 5.36 0.82
0 14 10 7.6 1.36
-14 0 -10 9.82 1.62
-14 14 -10 7.53 1.46
-14 14 -10 7.22 1.17
-14 14 10 7.22 0.92
0 14 10 7.87 1.22
-14 0 10 7.33 1.02
-14 14 -10 7.3 1.2
-8 15 10 22.01 2.02
-15 8 -10 20.76 2.21
-7 15 -10 20.63 2.26
-15 8 -10 22.69 2.02
-15 7 10 19.46 2.01
-15 7 10 18.88 2.5
7 8 10 24.12 2.05
-8 15 10 25.02 2.25
-15 7 -10 13.18 1.73
-15 8 10 10.03 2.24
-8 15 -10 13.96 1.92
-15 7 -10 12.02 1.37
-15 7 -10 17.23 1.57
-15 8 10 14.83 1.56
-7 15 10 16.22 1.95
-7 15 10 13.56 1.64
8 7 10 16.41 1.63
-15 8 10 13.17 1.49
-9 15 10 0.28 0.69
-9 15 10 0.75 0.93
-9 15 10 1.11 0.7
-15 9 -10 1.36 0.7
-15 9 -10 1.25 0.86
6 9 10 1.32 0.7
-9 -6 -10 0.61 0.47
-15 6 10 -0.33 1.02
-15 9 -10 0.15 0.44
-6 15 -10 0.15 0.79
-15 6 10 0.98 0.66
6 9 10 1.71 0.69
-15 6 -10 1.24 0.67
-6 15 10 0.66 0.67
-15 6 -10 1.04 0.56
-9 15 -10 0.55 0.97
-15 9 10 0.07 0.94
-6 15 10 1.2 0.92
-15 9 10 0.74 0.72
9 6 10 1.69 0.72
-15 9 10 2.16 0.54
-15 6 -10 1.7 0.7
-10 15 10 51.1 3.97
-15 5 10 43.39 4.04
-15 10 -10 51.94 3.76
-5 15 -10 49.24 3.83
-10 15 10 48.35 3.8
-15 5 10 47.52 3.86
5 10 10 50.12 3.81
5 10 10 48.35 3.77
-15 10 -10 49.76 3.95
-15 5 -10 42.46 3.13
-15 10 10 41.28 3.18
-10 15 -10 40.26 3.36
-5 15 10 43.77 3.32
-15 10 10 39.11 3.48
-15 5 -10 36.98 3.19
-5 15 10 39.04 3.17
10 5 10 40.76 3.13
-15 10 10 33.9 3.04
-15 4 10 24.8 2.7
-11 15 10 29.52 2.58
-15 11 -10 29.33 2.37
-15 4 10 29.04 2.52
4 11 10 28.38 2.42
-15 11 -10 29.97 2.74
4 11 10 28.78 2.4
-4 15 -10 25.25 2.34
-11 15 10 27.64 2.44
-15 11 10 26.16 2.3
11 4 10 25.5 2.2
-15 4 -10 24.46 2.34
-15 4 -10 26.11 2.18
-15 11 10 25.23 2.56
-4 15 10 24.9 2.26
-4 15 10 26.98 2.39
-11 15 -10 24.75 2.48
-15 3 10 13.57 1.8
-15 3 10 11.46 1.87
3 12 10 13.55 1.47
-15 12 -10 14.66 1.52
-12 15 10 13.52 1.62
3 12 10 12.17 1.53
-12 15 10 14.2 1.78
-15 12 -10 16.77 2.02
-12 15 -10 11.87 1.28
-15 3 -10 10.17 1.49
-12 -3 10 8.75 1.37
-15 12 10 10.57 1.81
-12 15 -10 9.14 1.64
-15 12 10 9.24 1.47
-3 15 10 12.72 1.42
-3 15 10 11.53 1.64
-15 3 -10 10.54 1.23
-12 15 -10 7.91 1.27
12 3 10 10.31 1.36
-13 15 10 28.31 2.44
-13 15 10 28.05 2.48
-15 13 -10 27.52 2.62
-15 2 10 30.6 2.52
-15 2 10 25.62 2.51
-13 -2 -10 31.38 2.59
2 13 10 28.1 2.32
2 13 10 26.82 2.39
-15 13 -10 29.82 2.39
-13 15 -10 19.29 1.72
-15 2 -10 19.06 1.92
-2 15 10 18.87 1.9
-13 -2 10 18.84 1.91
13 2 10 18.63 1.75
-13 15 -10 16.89 1.89
-15 2 -10 15.83 1.54
-2 15 10 18.99 1.78
-13 15 -10 14.84 1.97
-15 13 10 18.23 1.87
-15 13 10 17.21 1.8
-14 -1 -10 1.47 0.85
1 14 10 0.81 0.39
-14 -1 -10 0.14 0.23
-15 1 10 1.52 0.46
1 14 10 1.43 0.63
-15 1 10 0.43 0.74
-15 14 -10 0.42 0.35
-14 15 10 0.72 0.57
-15 14 -10 0.74 0.59
-14 15 10 0.45 0.62
-15 14 -10 1.28 0.8
-15 14 10 1.03 0.65
-1 15 10 0.89 0.62
14 1 10 0.57 0.52
-14 -1 10 0.93 0.74
-15 1 -10 1.79 0.85
-14 15 -10 0.79 0.64
-1 15 10 1.04 0.73
-14 15 -10 1.08 0.77
-15 14 10 1.01 0.39
-15 1 -10 0.58 0.32
-14 15 -10 1.15 0.76
-15 0 -10 5.36 0.9
-15 15 -10 2.96 0.58
-15 15 -10 4.12 0.86
-15 15 10 3.33 0.69
-15 15 -10 3.11 0.67
0 15 10 4.38 0.72
-15 0 10 3.35 0.8
-16 8 10 0.28 0.65
-8 16 -10 0.78 0.84
-8 16 10 0.21 0.88
-8 16 10 0.49 0.68
-8 -8 -10 0.64 0.44
-16 8 -10 1.37 0.67
8 8 10 1.48 0.73
-16 8 -10 1.15 0.62
-16 8 -10 1.08 0.76
-16 8 10 0.69 0.57
-16 8 10 -0.57 0.97
-16 7 10 51.61 4.01
-9 16 10 53.11 3.82
-7 16 -10 45.83 3.81
7 9 10 47.59 3.69
-16 7 10 42.97 3.62
-16 9 -10 46.34 3.82
-9 16 10 49.17 3.72
-16 9 -10 50.44 3.66
-16 7 10 41.96 3.67
-16 9 10 44.35 3.67
-16 9 10 38.83 3.26
-16 7 -10 40.39 3.35
-16 9 10 44.46 3.37
-16 7 -10 45.18 3.33
-7 16 10 43.04 3.36
-16 7 -10 35.8 3.38
-7 16 10 45.57 3.51
-9 16 -10 45.08 3.52
9 7 10 44.53 3.37
-6 16 -10 2.52 0.83
-16 10 -10 3.67 0.9
-10 16 10 4.29 0.98
-16 6 10 1.6 0.96
-10 -6 -10 1.88 0.4
-10 16 10 4.19 0.8
6 10 10 3.48 0.7
-16 6 10 2.11 0.69
-16 10 10 3.23 0.81
10 6 10 4.65 0.79
-16 10 10 4.57 1.06
-16 6 -10 4.42 0.85
-10 16 -10 6.31 1.07
-6 16 10 4.74 0.98
-16 6 -10 5.38 0.8
-6 16 10 4.32 0.78
-16 11 -10 11.94 1.4
-16 5 10 9.44 1.77
-5 16 -10 10.69 1.5
5 11 10 11.72 1.41
-11 16 10 11.05 1.22
-11 16 10 12.26 1.48
-16 11 -10 13.24 1.88
5 11 10 11.78 1.38
-11 16 10 12.9 1.75
-16 5 10 10.91 1.47
-16 11 10 12.71 1.17
-16 5 -10 11.31 1.56
-16 5 -10 12.53 1.41
-16 11 10 11.35 1.86
11 5 10 13.04 1.47
-11 16 -10 10.45 1.79
-5 16 10 12.62 1.69
-16 11 10 10.36 1.55
-5 16 10 12.8 1.52
-12 16 10 19.26 1.9
-4 16 -10 17.58 1.85
-16 4 10 23.66 2.11
4 12 10 20.22 1.91
-16 12 -10 22.04 1.92
-16 12 -10 24.95 2.24
-16 4 10 18.35 2.2
-12 16 10 20.9 2.18
4 12 10 23.45 1.94
-16 4 -10 20.9 2.01
-12 -4 10 16.57 1.73
-16 12 10 21.23 2.22
-4 16 10 20.94 2.02
-12 16 -10 20.9 1.78
-12 16 -10 19.99 2.16
-4 16 10 21.96 1.95
-16 12 10 19.56 1.92
12 4 10 23.36 1.91
-16 4 -10 21.59 1.81
-16 13 -10 0.93 0.64
-16 3 10 0.29 0.78
-13 16 10 0.75 0.81
-13 16 10 0.25 0.59
-13 -3 -10 1.6 0.82
-16 3 10 0.58 0.73
3 13 10 1.09 0.61
-16 13 -10 0.97 0.87
3 13 10 0.93 0.59
-3 16 -10 0.52 0.37
-16 13 10 1.32 0.81
-13 16 -10 0.49 0.52
-16 13 10 0.32 0.62
-13 16 -10 0.68 0.83
-3 16 10 1.02 0.64
-13 16 -10 0.93 0.63
13 3 10 1.83 0.66
-13 -3 10 1.1 0.66
-3 16 10 1.35 0.75
-16 3 -10 1.88 0.72
-16 3 -10 1.2 0.45
-14 16 10 8.51 1.37
-14 -2 -10 8.63 1.38
-16 2 10 8.52 1.38
2 14 10 6.26 0.93
-16 2 10 8.85 1.23
2 14 10 8.22 1.19
-16 14 -10 8.96 1.54
-16 14 -10 7.9 1.22
-14 16 10 7.62 1.19
-2 16 10 6.54 0.86
-14 16 -10 4.92 0.83
-14 16 -10 4.73 0.76
-16 14 10 5.27 0.77
-16 2 -10 6.97 0.94
-16 14 10 6.26 1.03
-2 16 10 4.98 0.77
-14 16 -10 4.69 0.9
14 2 10 4.08 0.75
-14 -2 10 6.61 1.22
1 15 10 2.72 0.67
-15 16 10 2.38 0.67
-15 -1 -10 4.72 0.85
-16 1 10 3.96 0.8
-16 15 -10 4.92 0.7
-15 16 10 3.82 0.65
-16 15 -10 4.31 0.85
-1 16 10 2.18 0.64
-15 16 -10 2.07 0.63
-15 -1 10 1.66 0.71
-16 1 -10 2.64 0.78
-16 15 10 1.82 0.59
-15 16 -10 1.76 0.6
-15 16 -10 1.74 0.71
0 16 10 -0.07 0.56
-16 0 -10 -0.1 0.67
-16 16 10 0.17 0.35
-16 16 -10 0.32 0.51
-16 16 10 0.04 0.51
-16 16 -10 -0.2 0.66
-16 16 -10 0.4 0.29
-16 0 10 0.21 0.63
-17 8 10 1.9 0.95
-17 9 -10 3.53 0.8
-17 8 10 2.95 0.71
8 9 10 3.2 0.68
-17 8 10 2.19 0.61
-8 17 -10 3.15 0.86
-9 17 10 2.94 0.9
-17 9 -10 4.22 0.71
-17 9 -10 2.7 0.68
-9 17 10 3.23 0.73
-8 17 10 4.2 0.77
-17 8 -10 4.08 0.72
-17 8 -10 2.82 0.78
-17 9 10 3.26 0.75
-17 9 10 3.69 0.65
9 8 10 3.53 0.75
-17 9 10 4.65 1.05
-9 17 -10 2.73 0.92
-8 17 10 4.9 0.92
-17 8 -10 3.2 0.78
-17 7 10 5.65 1.06
-17 7 10 5.92 0.81
-10 17 10 5.51 1
-17 7 10 5.83 0.95
-17 10 -10 6.25 0.82
-17 10 -10 7.24 1.54
7 10 10 6.89 1.17
-7 17 -10 6.64 0.98
-10 17 10 6.59 1.22
-17 7 -10 4.78 0.71
-17 7 -10 3.33 0.71
-17 7 -10 4.03 0.82
-17 10 10 3.91 0.96
-7 17 10 4.26 0.75
-10 17 -10 3.85 0.95
-17 10 10 5.76 0.99
-17 10 10 2.71 0.75
-7 17 10 4.1 0.9
10 7 10 4.4 0.75
-17 11 -10 25.86 2.36
-17 6 10 21.85 2.31
-11 17 10 23.39 2.11
6 11 10 26.03 2.08
-17 11 -10 23.48 2.04
-17 6 10 20.67 2.06
-6 17 -10 22.82 2.19
-11 17 10 24.57 2.31
-17 6 -10 19.8 1.75
-6 17 10 19.54 1.98
-6 17 10 21.48 1.82
-17 6 -10 18.57 1.9
-17 11 10 18.04 1.88
-17 11 10 19.41 2.18
-11 17 -10 19.87 2.07
11 6 10 21.69 1.9
-17 11 10 17.5 1.6
-17 5 10 13.33 1.89
-12 17 10 19.6 1.86
-5 17 -10 14.51 1.71
5 12 10 19.05 1.68
-12 17 10 17.15 1.65
-17 12 -10 18.29 1.95
5 12 10 15.67 1.61
-17 12 -10 17.11 1.64
-17 5 10 16.81 1.7
-12 17 -10 16.32 1.57
12 5 10 20.73 1.81
-17 5 -10 18.44 1.65
-17 12 10 21.05 2.16
-17 5 -10 19.21 1.89
-5 17 10 17.79 1.94
-17 12 10 18.36 1.84
-12 17 -10 20.23 2.02
-5 17 10 20.72 1.86
4 13 10 28.32 2.48
-13 -4 -10 32.78 2.6
-17 13 -10 33.13 2.78
-17 4 10 33.91 2.6
-17 13 -10 30.91 2.48
4 13 10 31.97 2.48
-13 17 10 27.71 2.46
-17 4 10 26.46 2.65
-13 17 10 30.93 2.59
-13 17 -10 26.93 2.13
-17 13 10 24.38 2.19
-13 17 -10 27.83 2.35
-4 17 10 24.54 2.24
-17 13 10 26.16 2.47
-17 4 -10 24.01 2.23
-13 -4 10 23.32 2.08
-4 17 10 28.59 2.22
13 4 10 27.42 2.17
-14 17 10 5.69 1.07
-17 14 -10 7.33 1.13
-17 3 10 6.41 1.23
-17 14 -10 7.54 1.47
-14 -3 -10 7.74 1.32
3 14 10 8.26 0.89
-14 17 10 6.66 0.97
-17 3 10 7.22 1.26
3 14 10 8.05 1.13
-14 -3 10 6.05 1.08
-17 3 -10 6.12 0.87
-3 17 10 6.81 1.14
-3 17 10 4.26 0.78
-17 14 10 5.55 0.75
-14 17 -10 6.34 0.9
-17 14 10 6.91 1.23
-14 17 -10 4.61 0.73
-17 15 -10 7.19 1.41
-17 15 -10 6.89 1.04
-15 17 10 5.93 1.04
-15 17 10 6.44 1.2
-15 -2 -10 6.13 0.88
-17 2 10 6.23 0.87
2 15 10 7.23 1.05
-15 -2 10 7.58 1.16
-2 17 10 7.06 1.05
-15 17 -10 6.13 0.72
-15 17 -10 6.85 1.15
-15 17 -10 4.14 0.71
-17 15 10 3.86 0.73
-17 2 -10 7.1 1.18
-17 15 10 6.1 0.97
1 16 10 6.04 0.97
-17 1 10 5.36 0.76
-17 16 -10 4.33 0.8
-16 17 10 4.77 0.86
-16 17 10 3.83 0.63
-16 -1 -10 5.5 0.79
-17 16 -10 6.28 0.69
-17 1 -10 5.64 0.78
-16 17 -10 3.43 0.71
-17 16 10 5.79 0.67
-16 -1 10 6.39 1.11
-16 17 -10 4.36 0.64
-16 17 -10 3.69 0.63
-1 17 10 5.36 0.98
-17 0 -10 0.31 0.56
-17 17 -10 -0.31 0.54
0 17 10 0.23 0.43
-17 17 10 0.38 0.41
-17 17 10 0.12 0.28
-17 17 -10 0.33 0.45
-17 0 10 0.22 0.53
9 9 10 3.18 0.66
-18 9 -10 3.16 0.63
-9 18 10 2.28 0.67
-18 9 -10 2.61 0.71
-9 18 -10 3.03 0.77
-9 18 10 2.33 0.79
-18 9 10 3.25 0.68
-18 9 10 2.27 0.86
-18 9 -10 2.84 0.75
-18 9 10 3.2 0.61
-10 18 10 7.92 1.03
-18 10 -10 7.85 1.09
-18 10 -10 8.15 1.47
-18 8 10 8.67 1.11
-18 8 10 6.57 1.13
8 10 10 6.54 1.11
-10 18 10 7.65 1.24
-18 10 -10 7.47 1.13
-18 8 10 7.97 1.08
-8 18 -10 7.56 1
-18 8 -10 10.24 1.23
-18 10 10 12.63 1.21
-18 8 -10 9.25 1.41
10 8 10 11.29 1.37
-18 10 10 11.3 1.66
-18 8 -10 9.59 1.41
-18 10 10 10.32 1.36
-8 18 10 11.55 1.37
-10 18 -10 9.88 1.55
-8 18 10 9.69 1.43
-11 18 10 6.85 1.21
-7 18 -10 7.32 0.95
-18 7 10 5.19 0.97
-18 11 -10 7.01 1.09
-18 7 10 6.14 1.1
7 11 10 6.99 1.14
-11 18 10 6.87 0.97
-18 11 -10 9.1 1.42
-18 7 10 5.74 0.82
-11 18 -10 5.5 0.89
-18 7 -10 3.95 0.79
-18 11 10 5.42 0.67
-7 18 10 5.25 0.76
-18 11 10 4.63 0.71
-7 18 10 4.07 0.82
11 7 10 3.42 0.73
-18 7 -10 4.5 0.65
-18 11 10 5.42 0.9
-12 18 10 4.63 0.86
6 12 10 3.93 0.68
-18 12 -10 4.71 0.67
-6 18 -10 3.31 0.77
-12 18 10 3.36 0.68
-18 6 10 2.68 0.82
-18 12 -10 5.12 0.88
-18 6 10 2.82 0.64
-18 12 10 4.25 0.87
-18 6 -10 3.24 0.5
-6 18 10 3.07 0.78
-12 18 -10 3.42 0.83
-18 6 -10 3.21 0.73
-6 18 10 3.18 0.7
12 6 10 4.33 0.69
-18 12 10 3.93 0.69
-18 13 -10 9.61 1.56
-13 -5 -10 8.12 1.25
-13 18 10 6.54 0.96
-18 13 -10 7.71 1.11
5 13 10 6.43 1.01
-13 18 10 7.47 1.13
-18 5 10 6.98 1.1
-18 13 10 4.17 0.85
-18 13 10 4.11 0.67
-13 18 -10 2.85 0.49
-18 5 -10 4.22 0.75
-13 18 -10 3.86 0.82
-5 18 10 3.43 0.66
-5 18 10 5.2 0.78
4 14 10 1.48 0.4
-14 -4 -10 2.82 0.65
-18 14 -10 2.37 0.78
-18 14 -10 2.16 0.57
-18 4 10 2.62 0.63
-14 18 10 1.92 0.71
-14 18 10 1.47 0.55
-18 4 10 0.93 0.6
-18 4 -10 1.7 0.65
-14 18 -10 1.64 0.5
-4 18 10 2.21 0.56
-18 14 10 1.81 0.71
-4 18 10 1.34 0.6
-18 14 10 1.16 0.54
-14 -4 10 1.26 0.39
-14 18 -10 1.87 0.72
-18 3 10 5.19 0.73
-15 -3 -10 6 1.01
-18 3 10 3.98 0.62
-15 18 10 4.02 0.63
-15 18 10 4.69 0.77
-18 15 -10 5.57 0.91
-18 15 -10 5.5 0.81
-3 18 10 4.04 0.69
-18 15 10 4.5 0.78
-15 18 -10 3.82 0.58
-18 15 10 2.99 0.59
-18 3 -10 5.11 0.76
-15 -3 10 5.05 0.87
-3 18 10 4.67 0.81
-15 18 -10 4.23 0.74
-16 -2 -10 10.17 1.15
-18 16 -10 10.25 1.27
-16 18 10 8.11 1.06
-18 16 -10 10.14 1.05
-18 2 10 10.3 1.23
-16 18 10 9.02 1.08
-16 18 -10 3.43 0.59
-2 18 10 4.06 0.69
-18 16 10 4.47 0.83
-16 18 -10 4.49 0.78
-18 2 -10 4.56 0.71
-17 -1 -10 1 0.5
-18 17 -10 0.52 0.46
-18 17 -10 0.32 0.52
-17 18 10 0.82 0.41
-17 -1 -10 0.79 0.39
-18 1 10 1.07 0.49
-17 18 10 0.22 0.25
-17 -1 10 0.66 0.46
-18 1 -10 -0.24 0.2
-17 18 -10 0.1 0.41
-18 1 -10 0.39 0.54
-18 17 10 0.02 0.37
-17 18 -10 -0.2 0.25
-1 18 10 0.26 0.21
-18 0 -10 -0.08 0.19
-18 18 -10 -0.02 0.24
-18 0 10 0.88 0.43
-18 18 10 0.36 0.36
-18 0 -10 0.81 0.48
-18 18 -10 0.46 0.38
-19 10 -10 5.9 1.23
-19 10 -10 4.42 0.74
-19 9 10 5.94 1
9 10 10 5.87 0.98
-19 9 10 7.06 0.88
-19 10 -10 5.48 0.94
-9 19 -10 5.05 0.84
-19 9 10 4.82 0.88
-10 19 10 5.74 1.04
-10 19 10 4.13 0.82
-19 10 10 1.91 0.59
-19 9 -10 2.68 0.65
-9 19 10 2.1 0.69
10 9 10 2.53 0.6
-19 9 -10 1.78 0.61
-19 9 -10 2.22 0.51
-19 10 10 1.21 0.75
-10 19 -10 1.02 0.74
-9 19 10 1.77 0.58
-11 19 10 14.25 1.44
-11 19 10 14.72 1.59
-19 8 10 15.48 1.39
-19 8 10 13.68 1.29
-19 11 -10 13.39 1.37
-19 8 10 13.14 1.66
8 11 10 14.48 1.41
-8 19 -10 13.11 1.54
-19 11 -10 15.69 1.59
-19 11 10 12.55 1.32
-19 8 -10 12.5 1.44
11 8 10 14.06 1.34
-11 19 -10 12.45 1.52
-19 11 10 13.43 1.64
-8 19 10 13.72 1.33
-8 19 10 13.08 1.47
-19 8 -10 11.03 1.13
-12 19 10 10.57 1.22
-7 19 -10 8.82 1.33
-12 19 10 11.72 1.36
-12 -7 -10 11.62 1.25
7 12 10 11.26 1.17
-19 7 10 10.13 1.38
-19 12 -10 12.64 1.54
-19 7 10 10.47 1.22
-19 12 -10 11.46 1.2
-7 19 10 12.44 1.44
-19 7 -10 11.99 1.42
-19 12 10 12.63 1.35
-12 19 -10 13.75 1.54
-19 12 10 13.74 1.62
-7 19 10 12.87 1.27
6 13 10 1.98 0.49
-19 13 -10 3.85 0.75
-13 19 10 2.48 0.69
-13 -6 -10 2.72 0.62
-19 13 -10 2.43 0.55
-19 6 10 2.03 0.67
-19 6 10 2.54 0.57
-13 19 10 2.45 0.58
-6 19 -10 1.86 0.54
-13 19 -10 0.94 0.66
-6 19 10 0.32 0.41
-6 19 10 0.03 0.55
-19 13 10 0.36 0.49
-19 13 10 0.58 0.64
-19 6 -10 0.5 0.58
-13 19 -10 0.12 0.21
-5 19 -10 -0.05 0.31
-19 5 10 0.81 0.49
-19 14 -10 0.44 0.48
-14 19 10 0.01 0.45
-19 14 -10 0.61 0.66
-14 -5 -10 0.73 0.53
-19 5 10 0.23 0.52
5 14 10 -0.14 0.25
-14 19 10 -0.08 0.59
-14 19 -10 0.28 0.62
-19 5 -10 0.26 0.55
-19 14 10 0.68 0.64
-5 19 10 0.22 0.32
-19 14 10 -0.32 0.46
-14 19 -10 0.09 0.25
-5 19 10 0.31 0.52
-19 15 -10 9.42 1.06
-19 4 10 11.29 1.22
-15 19 10 9.64 1.1
-19 15 -10 11.31 1.33
-15 -4 -10 9.2 1.14
-15 19 10 9.88 1.17
-19 4 -10 5.98 1.05
-15 19 -10 6.61 0.99
-19 15 10 4.66 0.89
-19 15 10 5.87 0.8
-15 19 -10 4.86 0.7
-16 19 10 4.3 0.76
-19 16 -10 3.01 0.54
-16 19 10 3.35 0.56
-16 -3 -10 4.68 0.79
-19 3 10 4.73 0.63
-19 16 -10 5.33 1.06
-16 -3 10 1.55 0.31
-16 19 -10 2.06 0.41
-19 16 10 1.87 0.47
-19 3 -10 1.7 0.57
-19 17 -10 4.53 0.73
-19 17 -10 3.65 0.6
-17 -2 -10 4.1 0.74
-17 19 10 4.27 0.65
-17 -2 -10 3.37 0.62
-19 2 -10 3.52 0.57
-17 19 -10 2.85 0.44
-19 17 10 2.64 0.45
-20 10 -10 12.52 1.23
-20 10 10 14.46 1.21
-20 10 -10 10.65 1.01
-10 20 10 14.11 1.34
-10 20 10 10.67 1.05
-10 20 -10 12.78 1.35
-20 10 -10 11.89 1.25
-20 9 10 4.95 0.69
-11 20 10 4.38 0.67
-11 -9 -10 4.89 0.86
-20 9 10 5.84 0.66
-9 20 -10 4.22 0.75
-20 9 10 5.17 0.78
-11 20 10 5.65 0.76
-20 11 -10 5.32 0.72
-20 11 -10 3.81 0.69
-9 20 10 4.81 0.72
-20 11 10 5.74 0.89
-11 20 -10 6.85 0.85
-20 9 -10 5.4 0.92
-20 11 10 4.89 0.82
-9 20 10 3.42 0.56
-12 20 10 1.53 0.38
8 12 10 2.53 0.48
-20 12 -10 1.82 0.59
-20 8 10 2.04 0.42
-12 20 10 1.76 0.6
-12 -8 -10 2.03 0.52
-20 12 -10 1.59 0.45
-20 8 10 1.66 0.62
-8 20 -10 1.72 0.57
-8 20 10 1.7 0.61
-20 12 10 1.82 0.49
-12 20 -10 1.54 0.68
-20 8 -10 1.66 0.55
-20 12 10 2.48 0.63
-20 13 -10 2.53 0.48
7 13 10 2.31 0.4
-13 20 10 3.45 0.6
-20 7 10 4.14 0.74
-20 13 -10 2.68 0.63
-13 20 10 3.03 0.58
-7 20 -10 1.56 0.46
-13 -7 -10 2.81 0.53
-20 7 10 2.77 0.58
-20 7 -10 2.37 0.58
-20 13 10 2.03 0.49
-13 20 -10 2.4 0.64
-7 20 10 1.5 0.53
-20 13 10 3.01 0.67
-20 6 10 5.59 0.79
-20 14 -10 5.18 0.76
-20 14 -10 6.65 1.14
-14 20 10 5.34 0.91
-20 6 10 5.61 0.84
-14 -6 -10 4.89 0.8
-14 20 10 4.55 0.65
-20 14 10 5.7 1
-20 14 10 3.93 0.57
-14 20 -10 3.54 0.65
-20 6 -10 4.94 0.87
-6 20 10 3.06 0.59
-15 20 10 2.8 0.56
-15 20 10 3.13 0.5
-20 5 10 3.12 0.51
-20 15 -10 4.05 0.65
-15 -5 -10 3.52 0.62
-20 15 -10 5.31 1.07
-20 15 10 1.3 0.42
-15 20 -10 1.39 0.45
-20 5 -10 1.66 0.56
0 0 11 -0.44 0.39
0 0 -11 -0.22 0.43
1 0 -11 -0.32 0.45
-1 0 -11 0.12 0.37
1 0 11 -0.2 0.37
1 -1 11 -0.43 0.36
0 -1 11 -0.24 0.36
0 -1 -11 -0.25 0.4
-1 0 11 -0.17 0.39
0 1 11 -0.47 0.4
-1 1 11 -0.35 0.38
1 -1 -11 1.01 0.42
1 1 -11 0.51 0.48
-2 1 11 -0.33 0.39
-1 -1 -11 0.27 0.39
1 1 11 -0.04 0.38
1 -2 11 -0.37 0.75
2 -1 11 -0.4 0.38
1 -2 11 -0.42 0.58
-1 -1 11 -0.18 0.42
-2 1 -11 0.04 0.36
1 -2 -11 0.55 0.41
-1 -1 11 -0.27 0.36
-1 -1 -11 0.17 0.42
-2 2 11 0.29 0.37
2 0 11 -0.1 0.4
0 2 11 0.53 0.39
-2 2 -11 0.27 0.36
0 -2 11 0.28 0.34
2 -2 11 0.4 0.34
-2 0 -11 -0.72 0.38
0 -2 11 0.2 0.38
-2 0 11 -0.07 0.41
-2 3 11 -0.06 0.43
-1 -2 11 -0.48 0.39
2 1 -11 -0.52 0.83
1 2 11 0.51 0.57
2 -3 11 -0.17 0.35
3 -2 -11 -0.7 0.42
-3 2 -11 -0.13 0.36
-2 -1 11 -0.21 0.58
1 -3 11 0.02 0.44
-2 3 -11 0.19 0.36
-1 3 11 -0.08 0.45
3 -2 11 0.1 0.51
1 -3 11 -0.15 0.35
-3 1 -11 -0.17 0.45
-3 3 -11 -0.43 0.4
0 3 11 -0.24 0.67
0 -3 11 -0.33 0.57
0 -5 -11 -0.14 0.34
-2 -4 -11 -0.17 0.29
1 -6 -11 -0.12 0.29
-1 -5 -11 -0.32 0.28
0 -6 -11 -0.25 0.28
-3 -4 -11 0.15 0.3
2 -7 -11 -0.32 0.37
-2 -5 -11 0.07 0.29
1 -7 -11 -0.42 0.28
-1 -6 -11 -0.41 0.27
-7 7 -11 -0.13 0.36
-7 7 11 0.4 0.32
7 -7 11 -0.04 0.35
0 7 11 0.22 0.3
0 -7 -11 0.1 0.3
-7 0 -11 -0.12 0.27
-4 -4 -11 -0.08 0.27
-8 4 11 0.38 0.36
-8 4 11 1.16 0.66
-8 3 11 1.26 0.46
-3 8 11 0.79 0.42
-5 8 -11 -0.36 0.44
-8 5 11 0.55 0.31
2 6 11 1.78 0.34
-2 8 11 0.89 0.31
-8 2 -11 0.32 0.25
-6 8 -11 0.01 0.49
-8 1 11 5.02 0.86
7 -8 11 4.4 0.73
-1 -7 -11 4.52 0.61
-7 8 -11 3.49 0.75
-7 8 -11 4.29 0.63
-8 0 11 4.11 0.78
8 -8 11 3.48 0.63
0 8 11 5.81 0.74
-8 8 -11 4.44 0.95
-8 8 11 3.58 0.63
-8 0 -11 4.97 0.76
-9 5 -11 5.2 0.59
-4 9 -11 4.51 0.84
-9 4 -11 9.61 0.88
-3 9 11 12.92 1.19
9 -6 11 14.43 1.28
7 -9 11 2.21 0.45
-7 9 11 1.76 0.35
-7 9 -11 4.57 0.71
9 -7 11 2.78 0.63
-9 7 11 4.55 0.69
-2 9 11 3.13 0.59
-2 9 11 4.02 0.68
1 8 11 8.9 0.87
-8 9 11 6.8 0.8
-9 1 11 7.07 0.87
-1 9 11 9.07 0.99
-9 8 11 9.07 0.97
9 -8 11 12.24 1.36
-1 9 11 9.85 1.03
-8 9 -11 11.56 1.28
-8 9 -11 8.68 1.17
-9 9 -11 3.76 0.66
0 9 11 5.1 0.93
-9 9 11 5.59 0.72
-9 9 -11 6.52 1.31
-9 9 11 3.54 0.66
9 -9 11 5.35 0.87
-5 10 11 1.08 0.43
-10 5 11 2.53 0.89
-10 5 -11 0.69 0.44
-5 10 -11 1.38 0.6
5 5 11 1.47 0.49
-10 5 11 1.35 0.59
-5 10 11 0.97 0.36
-10 6 -11 13.29 1.4
-6 10 11 15.62 1.32
-10 6 -11 14 1.27
-4 10 11 7.55 0.86
10 -6 11 7.49 1.03
6 4 11 9.68 0.9
3 7 11 6.24 0.79
-7 10 11 4.66 0.7
-10 7 -11 5.47 0.72
10 -7 11 10.36 1.43
-10 3 -11 14.36 1.31
-3 10 11 11.98 1.23
-7 10 -11 13.2 1.63
-10 7 11 10.41 1.36
-10 7 11 12.75 1.29
-8 10 11 4.41 0.69
2 8 11 5.11 0.95
-10 2 11 6.97 1.11
8 -10 11 3.77 0.7
-8 10 11 5.97 0.88
2 8 11 7.41 1.13
-10 8 -11 6.61 0.99
-10 2 11 5.09 0.96
-8 -2 -11 6.66 1.06
-2 10 11 0.41 0.5
-10 8 11 2.04 0.47
-10 2 -11 2.38 0.6
10 -8 11 2.57 0.85
-2 10 11 1.76 0.44
-8 10 -11 2.08 0.8
-10 8 11 1.32 0.49
-2 10 11 2.26 0.59
-8 10 -11 1.42 0.52
1 9 11 0.1 0.73
9 -10 11 -0.21 0.7
-10 9 -11 0.15 0.32
1 9 11 0.95 0.58
1 -10 -11 -0.34 0.25
-9 10 11 0.72 0.33
-10 9 -11 0.01 0.44
-10 9 -11 0.68 0.85
-10 1 11 0.15 0.57
-9 10 11 0.28 0.46
-10 1 11 0.35 0.66
1 9 11 0.25 0.57
-9 -1 -11 0.87 0.64
-1 10 11 -0.14 0.66
-10 1 -11 0.41 0.6
-9 10 -11 0.22 0.63
-1 10 11 0.78 0.47
-10 9 11 0.7 0.39
-10 9 11 0.51 0.36
-10 9 11 0.97 0.63
-9 10 -11 -0.06 0.7
-9 -1 11 -0.1 0.34
10 -9 11 -0.49 0.83
-1 -9 -11 -0.26 0.24
-9 10 -11 0.02 0.35
-1 10 11 0.65 0.59
-10 10 -11 0.87 0.35
0 10 11 1.67 0.84
0 10 11 0.77 0.63
-10 10 11 1.01 0.55
0 10 11 1.8 0.6
-10 10 -11 0.96 0.78
-10 10 11 1.52 0.42
-10 0 -11 1.65 0.65
10 -10 11 1.47 0.84
-10 0 11 1.53 0.6
-10 10 -11 1.24 0.64
-10 0 11 1.73 0.61
5 6 11 11.11 1.42
-5 11 -11 9.16 1.4
-11 6 -11 10.3 1.25
-11 5 11 10.66 1.49
-11 5 11 11.34 2.15
5 6 11 7.58 1.02
-6 11 11 10.78 1.3
-11 6 -11 8.66 1.24
-11 5 -11 4.27 0.78
6 5 11 5.22 0.77
-5 11 11 5.55 0.75
-4 11 -11 13.66 1.61
4 7 11 20.21 1.78
-7 11 11 18.59 1.7
-11 4 11 20.33 2.41
-11 4 11 18.8 1.93
-11 7 -11 15.24 1.56
4 7 11 16.36 1.58
-11 7 -11 16.5 1.83
-4 11 11 10.21 1.08
-4 11 11 12.63 1.3
-11 3 11 43.33 3.56
3 8 11 40.04 3.18
-11 8 -11 40.54 3.37
-11 8 -11 34.73 3.12
-8 -3 -11 43.74 3.2
3 8 11 43.97 3.28
-11 3 11 42.38 3.31
-8 11 11 38.82 3.2
-11 8 11 36.23 2.53
-3 11 11 36.36 2.65
8 3 11 28.78 2.42
-3 11 11 25.59 2.43
-11 9 -11 16.96 1.97
-9 11 11 13.63 1.51
2 9 11 14.06 1.57
-9 -2 -11 15.45 1.55
9 -11 11 10.51 1.54
-11 9 -11 11.88 1.32
-11 2 11 14.08 1.69
2 9 11 14.42 1.54
-11 2 11 12.93 1.94
-9 11 -11 10.27 1.42
-2 11 11 14 1.3
-11 9 11 11.61 1.26
-2 11 11 13.61 1.74
-11 9 11 10.9 1.42
-11 9 11 13.46 1.28
-9 11 -11 14.1 1.77
-11 2 -11 15.82 1.45
-2 11 11 12.94 1.49
1 10 11 12.87 1.44
-11 10 -11 10.62 1.25
-10 11 11 11.59 1.53
-10 -1 -11 13.53 1.52
-11 10 -11 11.11 1.34
-11 1 11 11.94 1.64
-11 10 -11 15.06 1.94
1 10 11 15.57 1.79
-11 1 11 13.4 1.8
1 10 11 11.82 1.56
-1 11 11 19.49 1.84
-10 -1 11 16.19 1.69
-1 11 11 18.95 1.67
-1 11 11 20.85 2.09
-10 11 -11 18.54 1.96
-11 1 -11 20.53 1.77
-10 11 -11 17.31 1.95
-11 10 11 19.02 1.81
-11 10 11 16.59 1.59
-11 0 11 6.98 1.3
0 11 11 5.94 0.86
-11 11 -11 4.88 0.72
0 11 11 7.17 1.11
-11 0 -11 6.03 0.83
-11 11 -11 4.59 0.93
0 11 11 5.8 1.07
-11 11 11 3.88 0.81
-11 11 11 5.44 0.77
-11 0 11 3.61 0.89
-11 11 -11 5.74 0.91
-12 6 -11 31.98 2.6
-12 6 11 35.63 2.7
-6 12 -11 29.02 2.79
6 6 11 32.87 2.66
-12 6 11 34.78 3.28
-6 12 11 28.75 2.63
-6 12 11 33.32 2.67
6 6 11 29.77 2.61
-12 7 -11 6.93 1.21
5 7 11 8.17 1.44
5 7 11 6.79 1.18
-7 12 11 5.35 0.88
-12 5 11 6.02 1.29
-12 7 -11 6.47 1.41
-5 12 -11 6.09 0.97
-12 5 11 5.68 0.94
7 5 11 9.38 1.4
-12 7 11 10.64 1.43
-12 5 -11 10.01 1.39
-5 12 11 10.67 1.51
-7 12 -11 11.23 1.34
7 5 11 8.75 1.28
-5 12 11 12.3 1.5
-12 7 11 8.85 1.97
4 8 11 18.73 1.78
-12 8 -11 15.58 1.9
-12 8 -11 15.62 1.64
4 8 11 16.04 1.69
-8 12 11 15.17 1.75
-8 -4 -11 15.59 1.67
-12 4 11 15.01 1.9
-12 4 11 13.1 2.3
-4 12 -11 13.09 1.6
-12 8 11 12.72 1.88
-12 8 11 12.54 1.38
-8 12 -11 10.98 1.69
-4 12 11 13.05 1.61
8 4 11 9.02 1.22
-12 8 11 7.56 1.03
-4 12 11 7.94 1.06
-4 12 11 11 1.4
8 4 11 10.78 1.28
-12 4 -11 13.15 1.41
-12 3 11 66.73 4.8
-12 3 11 65.59 4.99
3 9 11 61.25 4.7
-12 9 -11 52.81 4.67
-9 -3 -11 64.3 4.71
-9 12 11 61.43 4.72
-12 9 -11 63.9 4.87
3 9 11 63.27 4.73
-9 12 -11 64.95 4.82
-3 12 11 69.24 4.82
-9 12 -11 50.46 4.66
-12 3 -11 65.64 4.66
9 3 11 57.17 4.6
-3 12 11 65.04 4.7
-12 9 11 61.29 4.65
-12 9 11 67.4 4.93
-12 9 11 58 4.63
2 10 11 35.61 3.03
-12 2 11 37.88 3.19
-12 10 -11 41.66 3.29
-10 -2 -11 40.17 3.04
-12 10 -11 34.93 2.98
-12 2 11 39.34 3.3
2 10 11 37.69 3.05
-10 12 11 36.22 3.08
-10 12 -11 32.42 2.94
-12 10 11 33.96 2.75
-12 2 -11 38.88 2.86
-12 2 -11 33.29 2.88
-12 10 11 37.46 2.91
-2 12 11 39.58 2.92
-2 12 11 33.1 2.75
-12 10 11 35.79 2.99
-2 12 11 40.33 3.04
-10 12 -11 37.65 3.03
10 2 11 29.75 2.72
-11 12 11 4.06 0.82
1 11 11 6.33 1.14
-12 11 -11 4.69 0.77
1 11 11 5.34 0.83
-12 1 11 3.62 0.96
-12 11 -11 4.65 0.75
-12 1 11 3.46 0.95
-11 12 11 4.07 0.69
-11 -1 -11 5.6 0.8
-12 11 -11 6.45 1.05
-11 -1 11 5.32 0.93
-11 12 -11 4.09 0.92
-11 -1 11 6.24 0.95
-12 11 11 6.56 0.84
-12 11 11 5.03 0.87
-1 12 11 5.37 0.86
-12 1 -11 6.6 1
-12 11 11 5.56 0.96
-11 12 -11 6.05 0.97
-1 12 11 8.53 1.13
-12 1 -11 6.86 0.85
-11 12 -11 5.44 0.96
-1 12 11 5.54 0.77
0 12 11 2.21 0.71
-12 12 -11 1.79 0.6
0 12 11 1.18 0.85
-12 0 11 0.28 0.83
-12 12 -11 1.52 0.78
-12 0 -11 1.95 0.82
-12 12 11 1.43 0.36
-12 12 -11 1.37 0.8
0 12 11 1.95 0.59
-12 0 11 1.44 0.71
-12 12 11 0.16 0.67
-12 0 -11 2.03 0.68
6 7 11 0.27 0.67
-7 13 11 0.1 0.84
-7 13 11 -0.17 0.71
-13 7 -11 0.2 0.75
6 7 11 0.73 0.76
-6 13 -11 0.11 0.84
-7 13 11 0.66 0.33
-13 6 11 -0.1 0.74
-13 7 -11 0.63 0.71
7 6 11 0.31 0.72
-6 13 11 0.27 0.92
-13 6 -11 0.19 0.67
7 6 11 -0.35 0.66
-7 13 -11 -0.25 0.91
-13 7 11 0.18 0.62
-13 7 11 0.37 0.3
-13 6 -11 0.05 0.68
-6 13 11 0.3 0.32
-6 13 11 0.46 0.75
-8 13 11 11.54 1.59
-13 5 11 9 1.47
-13 8 -11 13.62 1.54
-8 -5 -11 12.57 1.46
5 8 11 13.91 1.63
-13 5 11 11.45 1.64
-5 13 -11 11.11 1.63
-8 13 11 11.71 1.59
-13 8 -11 12.31 1.72
5 8 11 11.8 1.46
-13 8 11 12.16 1.55
-5 13 11 11.56 1.56
-8 13 -11 11.91 1.8
8 5 11 12.5 1.53
-13 8 11 10.9 1.44
-13 8 11 9.96 1.25
-13 5 -11 13.7 1.44
-5 13 11 12.81 1.85
8 5 11 12.63 1.44
4 9 11 19.21 1.94
-13 4 11 20.28 2.35
-9 13 11 15.96 1.82
-4 13 -11 19.28 1.89
-13 9 -11 20.79 1.93
4 9 11 20.12 2
-9 13 11 21.61 1.96
-9 -4 -11 21.7 1.87
-13 4 11 19.09 2.06
-13 9 -11 20.23 2.2
-13 9 11 19.64 1.75
-13 4 -11 17.25 1.78
-13 9 11 18.15 1.82
-9 13 -11 17.86 2.12
9 4 11 16.68 1.73
-4 13 11 19.43 2.08
-4 13 11 19.97 1.86
-13 9 11 17.62 2.32
-10 -3 -11 5.79 0.81
-10 13 11 4.28 0.8
3 10 11 4.67 0.79
-13 3 11 3.27 0.98
-13 3 11 2.32 0.89
-13 10 -11 5.61 0.77
-13 10 -11 4.78 0.99
-3 13 -11 3.79 0.66
3 10 11 4.81 0.83
-13 10 11 2.22 1
-13 3 -11 1.83 0.73
-13 10 11 2.6 0.55
-10 13 -11 2.06 0.71
-13 10 11 2.36 0.74
-3 13 11 2.6 0.91
10 3 11 2.59 0.68
-10 13 -11 2.35 0.94
-13 3 -11 2.84 0.71
-3 13 11 1.95 0.45
-3 13 11 2.75 0.76
2 11 11 10.27 1.45
-13 11 -11 9.21 1.29
2 11 11 9.85 1.41
-13 2 11 7.79 1.13
-11 13 11 9.69 1.41
-11 -2 -11 11.93 1.34
-13 11 -11 12.08 1.89
-13 2 11 8.55 1.75
-11 13 -11 13.81 1.8
-2 13 11 12.06 1.3
-11 13 -11 13.3 1.3
11 2 11 11.65 1.4
-13 11 11 17.27 1.81
-13 11 11 13.3 1.65
-13 11 11 14.73 1.33
-2 13 11 15.87 1.83
-2 13 11 14.89 1.64
-11 13 -11 12.51 1.71
-13 2 -11 13.61 1.68
-13 2 -11 13.86 1.53
-11 -2 11 11.53 1.54
-12 13 11 7.16 0.92
-13 12 -11 6.9 1.2
-13 12 -11 6.72 1.15
-13 12 -11 5.95 1
1 12 11 5.63 0.82
-13 1 11 7.87 1.06
1 12 11 8.45 0.93
-13 1 11 4.59 0.97
-12 -1 -11 7.57 1.2
-13 12 11 7.15 0.9
-12 -1 11 7.05 1.06
-1 13 11 8.19 1.37
-13 1 -11 9.16 1.11
-1 13 11 9.84 1.49
12 1 11 6.98 0.9
-13 12 11 7.94 0.97
-13 12 11 7.8 1.07
-12 13 -11 7.41 1.53
-13 1 -11 8.51 1.26
-12 13 -11 6.83 1.08
-12 -1 11 6.96 0.94
-12 13 -11 7.05 1.18
-1 13 11 9.42 1.1
-13 0 11 0.9 0.82
0 13 11 3.78 0.68
-13 13 -11 2.99 0.67
0 13 11 5.02 0.75
-13 13 -11 3.83 0.84
-13 13 11 2.59 0.7
-13 13 -11 2.52 0.84
-13 0 -11 4.49 0.69
-13 0 11 2.88 0.64
-13 0 -11 4.76 0.92
-14 7 11 -1.65 1.05
-7 14 11 0.31 0.9
7 7 11 -0.22 0.68
-7 14 11 0.07 0.33
7 7 11 0.47 0.69
-14 7 -11 0.56 0.75
-7 14 -11 -0.03 0.84
-14 7 11 0.26 0.63
-14 7 -11 0.06 0.68
-14 7 -11 -0.03 0.36
-14 7 11 0.19 0.33
-7 14 11 -0.28 0.74
6 8 11 14.96 1.65
-8 -6 -11 14.76 1.57
-14 8 -11 14.42 1.86
-14 6 11 13.17 1.67
6 8 11 15.56 1.69
-6 14 -11 13.28 1.82
-14 8 -11 15.31 1.63
-8 14 11 14.94 1.66
-14 6 11 10.44 2.14
-8 14 11 15.24 1.93
-14 6 -11 15.72 1.58
-14 8 11 13.49 1.55
-14 6 -11 11.97 1.57
-14 8 11 9.05 2.01
8 6 11 13.95 1.57
-8 14 -11 14.25 1.93
-14 8 11 13 1.41
-6 14 11 15.97 1.91
-6 14 11 14.72 1.63
-9 14 11 0.3 0.88
-14 9 -11 0.83 0.67
-9 -5 -11 1.36 0.68
-14 9 -11 1.1 0.82
-9 14 11 0.39 0.36
-5 14 -11 -0.27 0.72
-14 5 11 0.02 0.99
5 9 11 1.03 0.68
-9 14 11 1.14 0.73
-14 5 11 -0.18 0.74
5 9 11 0.21 0.71
-14 5 -11 2.4 0.68
-9 14 -11 1.65 0.96
-14 9 11 2.78 0.61
-5 14 11 1.89 0.88
-14 9 11 1.64 1.05
-14 5 -11 1.49 0.61
-14 5 -11 0.63 0.44
9 5 11 1.72 0.7
-5 14 11 1.34 0.72
-14 9 11 0.88 0.69
-5 14 11 0.93 0.34
-14 4 11 24.53 2.3
4 10 11 23.91 2.2
-14 4 11 24.14 2.56
-14 10 -11 25.73 2.48
-10 14 11 24.64 2.26
4 10 11 24.94 2.2
-14 10 -11 26.35 2.16
-4 14 -11 20.69 2.18
-10 -4 -11 27.2 2.13
-10 14 11 23.92 2.32
-4 14 11 34.09 2.74
-14 4 -11 28.93 2.58
10 4 11 29.51 2.54
-14 10 11 31.06 2.97
-14 10 11 29.65 2.47
-10 14 -11 28.85 2.79
-14 10 11 29.78 2.62
-4 14 11 33.05 2.59
-14 4 -11 31.86 2.54
-14 3 11 26.13 2.65
-11 14 11 31.6 2.43
-14 3 11 27.11 2.53
-11 14 11 23.73 2.35
-11 -3 -11 29.11 2.31
-14 11 -11 26.31 2.33
-14 11 -11 30.26 2.64
3 11 11 28.11 2.39
3 11 11 29.1 2.39
11 3 11 27.66 2.3
-14 3 -11 26.01 2.36
-11 14 -11 27.03 2.55
-3 14 11 30.34 2.5
-14 11 11 28.32 2.39
-14 11 11 25.96 2.2
-14 11 11 30.8 2.7
-3 14 11 27.24 2.32
-11 14 -11 24.2 2.4
-11 14 -11 23.88 2.14
-14 3 -11 30.06 2.3
-14 2 11 1.8 0.82
-12 -2 -11 2.29 0.61
-14 2 11 1.17 0.86
-12 14 11 2.21 0.7
2 12 11 2.21 0.66
-14 12 -11 2.13 0.62
2 12 11 2.63 0.69
-14 12 -11 2.58 0.9
-12 14 -11 0.66 0.58
-14 12 11 0.21 0.65
-12 14 -11 0.44 0.81
-12 14 -11 0.78 0.73
-14 2 -11 1.07 0.61
-14 12 11 1.15 0.38
-14 12 11 0.94 0.74
-2 -12 -11 0.69 0.36
12 2 11 0.74 0.58
-2 14 11 0.74 0.78
-2 14 11 0.32 0.4
-2 14 11 1.26 0.63
-14 2 -11 0.63 0.75
-12 -2 11 -0.4 0.69
-14 1 11 2.06 0.73
1 13 11 1.54 0.62
-14 13 -11 2.16 0.55
-13 -1 -11 2.45 0.8
-14 13 -11 2.31 0.63
-13 -1 -11 1.5 0.55
1 13 11 1.67 0.64
-14 1 11 0.14 0.75
-14 13 -11 1.15 0.76
-13 14 11 1.3 0.63
-1 14 11 1.1 0.77
-14 13 11 0.64 0.27
-1 14 11 2.27 0.64
-14 13 11 1.2 0.64
-13 14 -11 1.03 0.63
-13 -1 11 0.56 0.76
-14 1 -11 1.65 0.77
-13 14 -11 1.21 0.74
13 1 11 1.3 0.46
-13 14 -11 0.64 0.78
-14 1 -11 1.35 0.57
-1 14 11 1.01 0.46
-1 -13 -11 1.52 0.54
-14 13 11 1.2 0.41
-14 0 -11 0.8 0.48
-14 0 11 0 0.7
0 14 11 0.93 0.57
-14 14 -11 0.95 0.58
-14 0 -11 0.33 0.71
0 14 11 0.63 0.47
-14 14 -11 1 0.74
-14 14 -11 0.43 0.64
-14 14 11 0.9 0.59
-15 8 -11 -0.04 0.35
-15 7 11 -0.77 0.96
-8 15 11 0.69 0.67
-8 15 11 0.56 0.9
-15 7 11 0.54 0.58
-8 -7 -11 1.52 0.64
7 8 11 1.38 0.72
-7 15 -11 0.58 0.82
-15 8 -11 0.38 0.63
-15 8 -11 1.46 0.8
7 8 11 1.66 0.7
-15 7 11 0.67 0.35
-15 8 11 0.53 0.56
-15 8 11 -0.95 0.98
-15 7 -11 1.49 0.75
8 7 11 0.93 0.66
-7 15 11 0.54 0.63
-15 7 -11 1.01 0.45
-15 8 11 0.98 0.61
-15 7 -11 1.13 0.66
-8 15 -11 0.29 0.87
-7 15 11 1.48 0.88
-15 6 11 0.77 0.63
-15 6 11 0.81 0.97
6 9 11 1.65 0.66
-9 -6 -11 2.83 0.65
-9 15 11 2.3 0.95
-15 9 -11 3.35 0.69
6 9 11 2.34 0.68
-9 15 11 1.67 0.72
-6 15 -11 1.65 0.8
-15 9 -11 1.73 0.82
-6 15 11 3.69 0.72
-15 6 -11 2.37 0.69
-15 9 11 6.19 1.08
-15 9 11 4.03 1.05
-9 15 -11 4.3 0.98
9 6 11 3.17 0.72
-15 6 -11 3.1 0.71
-15 9 11 3.45 0.77
-15 6 -11 4.7 0.75
-6 15 11 5.73 0.97
-15 5 11 11.16 1.39
-10 -5 -11 12.85 1.3
-15 5 11 9.31 1.55
5 10 11 11.89 1.44
-15 10 -11 13.69 1.83
-10 15 11 11.49 1.46
-10 15 11 9.72 1.77
-15 10 -11 12.11 1.36
5 10 11 11.09 1.41
-5 15 -11 12.54 1.55
-10 15 -11 8.52 1.15
-15 10 11 7.49 1.43
10 5 11 8.99 1.25
-5 15 11 8.09 1.27
-5 15 11 7.89 1.1
-15 5 -11 8.5 1.35
-15 10 11 10.08 1.13
-15 10 11 8.14 1.23
-15 5 -11 9.46 1.32
-4 15 -11 2.64 0.73
-11 15 11 2.87 0.89
-11 -4 -11 2.99 0.6
-15 4 11 2.63 0.78
4 11 11 3.86 0.69
4 11 11 3.52 0.69
-15 4 11 1.83 0.89
-15 11 -11 4.88 0.72
-11 15 11 2.88 0.71
-4 15 11 1.69 0.63
-15 11 11 0.29 0.65
-4 15 11 1.48 0.79
-11 15 -11 1.03 0.33
-11 15 -11 0.41 0.49
11 4 11 2.26 0.65
-11 15 -11 1.36 0.86
-15 4 -11 1.74 0.73
-15 11 11 0.81 0.93
-15 4 -11 2.75 0.67
-15 11 11 1.37 0.49
-15 12 -11 3.97 0.92
-15 12 -11 3.8 0.68
-15 3 11 2.46 0.89
-12 15 11 3.24 0.78
3 12 11 4.15 0.7
-15 3 11 3.68 0.81
-3 15 -11 2.08 0.51
3 12 11 3.93 0.7
-12 15 11 3.19 0.69
-12 -3 -11 2.98 0.57
12 3 11 4.1 0.72
-15 12 11 3.34 0.93
-12 -3 11 2.42 0.62
-15 12 11 2.71 0.71
-3 15 11 2.99 0.67
-15 3 -11 4.51 0.82
-3 15 11 3.78 0.82
-12 15 -11 3.02 0.86
-12 15 -11 2.1 0.69
-15 3 -11 4.52 0.69
-12 15 -11 3.27 0.6
-15 12 11 4.52 0.69
-13 -2 -11 6.52 0.89
-13 -2 -11 8.39 1.4
-15 13 -11 7.83 1.41
2 13 11 7.57 1.16
-15 2 11 6.56 1.34
-15 13 -11 7.02 1.07
-13 15 11 7.17 1.22
2 13 11 9.51 1.18
-15 2 11 6.33 0.94
-13 15 11 5.62 0.96
-15 2 -11 7.9 1.36
-15 13 11 10.15 1.3
-15 13 11 6.19 1.23
-13 15 -11 7.38 1.34
-13 15 -11 7.9 1.04
-2 15 11 6.57 1.17
-13 15 -11 8.23 1.15
-15 2 -11 7.8 1.09
-13 -2 11 7.66 1.29
13 2 11 7.94 1.17
-2 15 11 8.04 1.32
-14 -1 -11 2.9 0.48
1 14 11 3.65 0.58
-15 1 11 4.7 0.78
1 14 11 3.64 0.65
-15 1 11 5.16 0.86
-14 15 11 5.05 0.7
-15 14 -11 4.13 0.66
-15 14 -11 3.59 0.81
-14 -1 -11 5.72 0.87
-15 1 -11 4.28 0.79
14 1 11 2.57 0.49
-14 15 -11 3.21 0.77
-14 15 -11 3.64 0.64
-15 1 -11 3.71 0.55
-15 14 11 4.07 0.66
-14 15 -11 4.25 0.8
-1 15 11 3.76 0.65
-14 -1 11 2.91 0.73
-15 15 -11 8.45 1.02
0 15 11 9.48 1.17
-15 0 -11 11.33 1.33
-15 15 -11 9.76 1.15
0 -15 -11 8.64 1.02
-15 15 11 8.94 1.16
-15 0 11 10.23 1.35
-15 15 -11 10.33 1.45
-8 16 -11 8.25 1.38
-16 8 -11 8.76 1.22
-8 -8 -11 9.57 1.12
-8 16 11 8.86 1.22
8 8 11 8.91 1.29
-16 8 -11 6.15 0.98
-16 8 11 8.26 1.12
-16 8 -11 9.64 1.41
-8 16 11 9.24 1.55
-16 8 11 8.27 1.17
-7 16 -11 1.25 0.78
-16 9 -11 2.41 0.79
-16 7 11 1 0.9
-16 7 11 2.19 0.59
-9 16 11 2.76 0.65
-9 -7 -11 2.25 0.56
-16 9 -11 1.7 0.63
-9 16 11 2.71 0.85
7 9 11 2.29 0.64
-16 7 -11 1.54 0.65
-16 9 11 1.03 0.65
-7 16 11 1.24 0.81
-16 9 11 0.03 0.87
-16 7 -11 1.52 0.64
-9 16 -11 0.69 0.84
-16 7 -11 0.94 0.6
9 7 11 0.37 0.62
-16 9 11 1.81 0.58
-7 -9 -11 2.22 0.57
-7 16 11 1.4 0.61
-10 16 11 1.5 0.63
-16 10 -11 2.84 0.65
-16 10 -11 2.36 0.81
-16 6 11 1.85 0.6
6 10 11 1.7 0.58
-6 16 -11 2.05 0.77
-10 -6 -11 1.86 0.49
6 10 11 2.18 0.66
-10 16 11 1.6 0.85
-16 6 11 0.84 0.87
-6 16 11 2.66 0.79
10 6 11 1.68 0.63
-16 6 -11 1.01 0.45
-16 10 11 0.96 0.65
-16 6 -11 2.15 0.7
-16 10 11 2.07 0.55
-16 10 11 1.35 0.86
-10 16 -11 2.02 0.86
-6 16 11 1.55 0.61
-16 6 -11 1.96 0.64
-16 5 11 0.87 0.79
-16 11 -11 1.97 0.62
5 11 11 1.92 0.62
-11 16 11 2.79 0.67
-11 -5 -11 2.13 0.46
-5 16 -11 1.45 0.73
5 11 11 3.18 0.65
-16 5 11 2.79 0.7
-16 11 -11 3.16 0.85
-11 16 11 2.52 0.86
-16 5 -11 4.56 0.71
-16 11 11 3.4 0.72
-5 16 11 4.35 0.85
11 5 11 4.12 0.73
-16 11 11 3.55 0.95
-5 16 11 3.96 0.7
-11 16 -11 4.09 0.92
-16 11 11 4.85 0.87
-16 5 -11 2.63 0.77
-16 12 -11 11.95 1.67
4 12 11 10.13 1.27
-16 12 -11 10.69 1.2
-12 16 11 10.59 1.51
4 12 11 10.51 1.24
-12 -4 -11 7.32 0.87
-16 4 11 10.39 1.34
-16 4 11 7.3 1.11
-4 16 -11 7.26 1.08
-12 16 11 10.09 1.25
-4 16 11 7.72 1.29
-16 4 -11 8.21 1.11
-12 16 -11 6.53 0.81
-16 12 11 8.58 1.56
-12 16 -11 7.46 1.31
-16 12 11 6.55 1.22
-16 12 11 7 0.78
-4 16 11 7.54 1.1
-16 4 -11 8.06 1.28
12 4 11 9.18 1.2
-16 13 -11 24.25 2.21
-13 -3 -11 22.27 1.99
-16 3 11 22.43 1.98
3 13 11 18.98 1.81
-16 3 11 16.88 2.07
-13 16 11 21.87 1.89
-16 13 -11 22.97 1.83
3 13 11 21.39 1.86
-13 16 11 21.28 1.95
-16 13 11 18.3 1.8
-13 16 -11 16.5 1.74
13 3 11 16.48 1.52
-13 -3 11 15.38 1.47
-3 16 11 15.55 1.65
-16 3 -11 15.25 1.62
-3 16 11 15.18 1.53
-16 3 -11 15.47 1.43
-13 16 -11 13.25 1.51
-16 13 11 14.88 1.55
-13 16 -11 16.46 1.45
-16 2 11 17.13 1.68
-16 2 11 14.66 1.52
-14 -2 -11 17.39 1.65
-16 14 -11 15.76 1.71
2 14 11 15.75 1.49
2 14 11 16.01 1.42
-16 14 -11 15.63 1.48
-14 16 11 16.36 1.56
-14 16 -11 13.79 1.5
-14 -2 11 14.78 1.43
-14 16 -11 13.98 1.29
-16 14 11 13.64 1.37
-16 2 -11 10.81 1.13
-16 2 -11 13.15 1.43
-14 16 -11 12.41 1.47
-2 16 11 14.14 1.38
-16 15 -11 3.2 0.57
-15 16 11 3.32 0.6
1 15 11 3.02 0.59
-16 15 -11 3.27 0.72
-16 1 11 3.5 0.69
-15 -1 -11 4.21 0.75
1 -16 -11 3.23 0.58
-15 -1 11 5.32 0.75
-15 16 -11 3.68 0.73
-16 15 11 4.94 0.66
-1 16 11 4.67 0.67
-15 16 -11 5.18 0.65
-16 1 -11 5.45 0.77
-15 16 -11 5.15 0.89
-16 16 -11 20.13 1.85
0 16 11 18.89 1.73
-16 0 -11 22.24 1.86
-16 0 11 23.16 1.79
-16 16 11 19.55 1.74
-16 16 -11 19.35 1.69
-17 8 11 1.82 0.57
-8 17 -11 1.26 0.69
-9 17 11 2.52 0.6
8 9 11 3 0.62
-17 8 11 1.49 0.81
-17 9 -11 3.16 0.61
-9 17 11 2.19 0.78
-17 9 -11 3.02 0.72
-17 8 11 1.71 0.46
-9 -8 -11 2.28 0.4
-17 9 -11 0.85 0.41
-8 -9 -11 2.38 0.47
-17 9 11 2.11 0.61
-17 8 -11 2.49 0.67
-17 8 -11 3.14 0.62
-8 17 11 2.89 0.62
-17 8 -11 1.8 0.6
-9 17 -11 3.19 0.81
-17 9 11 3.49 0.6
-8 17 11 3.09 0.78
9 8 11 2.63 0.64
-17 9 11 2.4 0.87
7 10 11 1.41 0.52
-17 7 11 -0.26 0.73
-17 10 -11 0.37 0.54
-17 7 11 0.25 0.22
-17 7 11 0.67 0.5
-10 17 11 0.68 0.54
-10 -7 -11 0.52 0.28
-17 10 -11 0.02 0.34
-17 10 -11 0.81 0.7
-7 17 -11 -0.05 0.68
-10 17 11 1.45 0.76
10 7 11 2.18 0.62
-17 7 -11 1.25 0.53
-10 17 -11 2.7 0.79
-17 7 -11 2.13 0.68
-17 7 -11 1.72 0.57
-7 17 11 1.99 0.6
-17 10 11 2.71 0.53
-17 10 11 1.77 0.77
-17 10 11 2.01 0.63
-7 -10 -11 1.74 0.47
-7 17 11 2.27 0.73
-17 11 -11 4.33 0.82
6 11 11 3.79 0.63
-17 6 11 3.13 0.6
-11 17 11 3.84 0.66
-17 6 11 2.82 0.81
-6 17 -11 3.23 0.73
-17 11 -11 4.69 0.65
-11 17 11 3.25 0.8
-17 11 11 5.01 0.76
11 6 11 3.83 0.69
-17 6 -11 3.73 0.75
-11 17 -11 5.48 0.87
-6 17 11 4.83 0.8
-17 11 11 4.06 0.89
-6 17 11 4.21 0.68
-17 11 11 2.79 0.68
-17 6 -11 4.22 0.65
-17 5 11 4.97 0.74
5 12 11 5.75 0.97
-17 12 -11 7.85 1.45
-12 17 11 4.96 0.69
-17 12 -11 4.64 0.68
-12 -5 -11 4.49 0.78
-5 17 -11 3.28 0.7
-12 17 11 5.15 0.82
-5 17 11 1.83 0.69
-12 17 -11 2.51 0.73
-17 12 11 2.71 0.45
-5 17 11 1.62 0.57
-17 5 -11 2.09 0.54
-17 5 -11 2.11 0.67
-17 12 11 2.03 0.77
12 5 11 2.63 0.62
-17 12 11 1.38 0.59
-13 17 11 3.51 0.74
4 13 11 5.84 0.89
-13 -4 -11 3.9 0.74
4 13 11 3.12 0.6
-17 4 11 2.48 0.75
-17 13 -11 3.66 0.8
-17 4 11 4.07 0.69
-13 17 11 3.65 0.61
-17 13 -11 3.24 0.62
-13 17 -11 1.96 0.39
-13 17 -11 3.46 0.73
-17 13 11 3.8 0.78
-4 17 11 3.45 0.69
-4 17 11 2.06 0.57
-17 13 11 1.88 0.57
13 4 11 2.45 0.58
-17 4 -11 1.81 0.44
-17 4 -11 3.21 0.69
-14 17 11 8.91 1.15
-14 17 11 9.41 1.16
-14 -3 -11 10.4 1.32
-17 14 -11 11.41 1.49
-17 14 -11 11.41 1.13
-17 3 11 10.21 1.17
3 14 11 9.73 0.98
3 14 11 10.52 1.13
-17 3 11 12.07 1.31
-17 14 11 11.68 1.17
-14 -3 11 10.22 1
-17 14 11 8.62 1.12
-14 17 -11 8.76 0.99
-17 3 -11 9.39 1.19
-3 17 11 9.66 1.13
-14 17 -11 10.73 1.29
-15 -2 -11 15.93 1.51
-15 17 11 14.14 1.37
-17 2 11 16.52 1.5
-17 15 -11 14.12 1.36
2 -17 -11 14.13 1.37
2 15 11 14.63 1.37
-17 15 -11 14.76 1.56
-2 17 11 11.68 1.21
-15 17 -11 12.12 1.19
-17 2 -11 11.37 1.25
-15 17 -11 11.52 1.15
-15 -2 11 13.4 1.2
-17 15 11 10.2 1.18
1 16 11 19.83 1.73
-17 16 -11 20.02 1.7
-16 -1 -11 22.1 1.8
-17 16 -11 21.27 1.86
-16 17 11 21.15 1.75
-17 1 11 23.17 1.79
-16 17 -11 20.97 1.75
-16 -1 11 23.15 1.81
-17 1 -11 23.41 1.88
-17 16 11 21.41 1.8
-1 17 11 21.13 1.77
-17 17 -11 6.5 0.78
-17 0 -11 7.46 0.96
0 17 11 6.35 0.75
-17 17 11 6.06 0.86
-17 17 -11 5.07 0.83
-17 0 11 8.12 0.88
-9 18 11 2.49 0.56
9 9 11 3.4 0.62
-9 18 -11 2.59 0.67
-9 18 11 2.54 0.69
-18 9 11 3.04 0.53
-18 9 -11 2.05 0.47
-18 9 -11 2.92 0.66
-18 9 11 2.23 0.49
-18 9 11 2.99 0.79
-18 9 -11 2.64 0.56
-18 8 11 0.91 0.27
-8 18 -11 0.67 0.64
-18 10 -11 0.82 0.64
-10 18 11 0.96 0.66
-18 8 11 1.41 0.65
-18 10 -11 1.08 0.51
-10 18 11 1.17 0.53
8 10 11 1.57 0.52
-18 8 11 0.96 0.5
-18 10 11 0.81 0.74
-10 18 -11 0.39 0.68
-8 18 11 0.54 0.63
-8 -10 -11 0.35 0.2
-8 18 11 0.53 0.51
-18 8 -11 -0.05 0.47
-18 10 11 0.41 0.52
10 8 11 0.56 0.54
-18 8 -11 0.76 0.55
-18 10 11 1.12 0.39
-18 8 -11 0.18 0.49
-18 11 -11 1.89 0.53
-18 7 11 1.83 0.53
-18 7 11 1.76 0.68
-11 18 11 1.55 0.53
7 11 11 1.73 0.55
-11 18 11 2.36 0.67
-7 18 -11 1.79 0.66
-18 11 -11 3.01 0.71
-18 11 11 3.22 0.75
-18 11 11 3.25 0.51
-18 7 -11 2.29 0.64
-7 18 11 3.34 0.61
-7 18 11 2.55 0.66
-18 11 11 2.71 0.56
-18 7 -11 2.37 0.53
11 7 11 2.05 0.59
-11 18 -11 2.31 0.72
-12 18 11 0.03 0.62
-12 -6 -11 0.69 0.58
-18 12 -11 0.99 0.68
-18 6 11 0.41 0.46
-18 6 11 -0.24 0.62
6 12 11 -0.12 0.48
-18 12 -11 0.26 0.49
-12 18 11 0.3 0.48
-12 18 -11 -0.03 0.66
-6 -12 -11 0.13 0.24
-18 6 -11 0.21 0.58
-18 12 11 -0.1 0.5
-18 6 -11 0.03 0.37
-6 18 11 -0.06 0.59
12 6 11 -0.22 0.48
-6 18 11 0.2 0.49
-18 12 11 0.15 0.65
-18 12 11 0.25 0.19
-13 -5 -11 4 0.66
-18 5 11 2.54 0.68
-18 5 11 3.21 0.59
5 13 11 3.09 0.52
-18 13 -11 4.12 0.77
-13 18 11 2.82 0.67
-13 18 11 3.66 0.59
-18 13 -11 4.09 0.58
-5 18 11 1.92 0.52
-18 13 11 1.76 0.5
-18 5 -11 2.41 0.61
-5 18 11 3.11 0.63
-18 13 11 2.42 0.67
-5 -13 -11 1.62 0.31
-13 18 -11 3.35 0.67
-18 4 11 9.91 1.13
-14 18 11 9.56 1.15
-18 4 11 12.6 1.21
-18 14 -11 11.97 1.12
-18 14 -11 13.84 1.46
-14 18 11 9.58 1.11
-14 -4 -11 10.98 1.24
-18 14 11 8.13 1
-18 4 -11 7.42 1.02
-4 18 11 7.13 0.93
-14 18 -11 8.56 1.1
-18 14 11 5.66 0.95
-15 18 11 11.67 1.18
-15 -3 -11 13 1.25
-18 15 -11 13.04 1.18
-18 3 11 13.93 1.27
-18 15 -11 11.99 1.37
3 -18 -11 12.49 1.17
-18 15 11 10.33 1.03
-3 18 11 9.32 0.97
-18 3 -11 9.75 1.09
-15 18 -11 8.32 0.84
-15 18 -11 10.76 1
-16 -2 -11 0.73 0.43
2 -18 -11 0.17 0.21
-18 16 -11 0.58 0.51
-16 18 11 0.42 0.39
-18 16 -11 0.12 0.41
-18 2 11 0.85 0.45
-2 18 11 0.23 0.27
-18 16 11 0.62 0.41
-16 18 -11 0.37 0.31
-16 -2 11 0.73 0.23
-18 2 -11 0.67 0.52
-16 18 -11 0.71 0.32
-9 19 -11 3.01 0.67
-10 19 11 2.77 0.51
-19 10 -11 2.5 0.56
-19 9 11 4.49 0.66
-10 19 11 2.65 0.62
-19 10 -11 3.15 0.48
9 10 11 2.9 0.52
-19 9 11 2.81 0.69
-9 19 11 3.65 0.55
-19 9 -11 4.16 0.69
-19 10 11 4.25 0.67
-19 10 11 4.25 0.75
-10 19 -11 3.58 0.73
10 9 11 3.91 0.6
-9 19 11 4.47 0.68
-19 10 11 4.1 0.54
-11 -8 -11 1.36 0.52
-19 8 11 1.4 0.64
-19 11 -11 2.21 0.47
-11 19 11 2.35 0.57
-19 8 11 2.2 0.45
8 11 11 1.54 0.49
-19 11 -11 1.86 0.58
-11 19 11 1.26 0.46
-8 19 -11 1.64 0.6
-19 11 11 2.95 0.64
-19 8 -11 2.24 0.53
-8 19 11 2.98 0.62
-19 8 -11 3.18 0.54
-11 19 -11 3.88 0.71
-19 11 11 3.4 0.56
11 8 11 3.92 0.57
-8 19 11 2.84 0.48
-19 7 11 0.36 0.57
-19 12 -11 0.41 0.42
-19 7 11 0.41 0.44
-19 12 -11 0.79 0.56
-7 19 -11 -0.45 0.44
-12 -7 -11 0.3 0.49
-12 19 11 0.27 0.52
7 12 11 0.5 0.43
-12 19 11 0.68 0.43
-19 12 11 0 0.57
-19 12 11 -0.2 0.43
-19 7 -11 0.2 0.17
-12 19 -11 0.11 0.6
-7 19 11 -0.06 0.38
-19 7 -11 0.04 0.48
-7 19 11 -0.01 0.53
-19 6 11 2.04 0.46
-19 13 -11 3.11 0.47
-19 13 -11 2.88 0.63
6 13 11 1.7 0.38
-19 6 11 2.18 0.56
-13 -6 -11 2.12 0.52
-13 19 11 1.74 0.54
-13 19 11 2.34 0.46
-13 19 -11 1.11 0.57
-6 19 11 1.09 0.54
-19 13 11 0.61 0.41
-6 19 11 0.45 0.34
-19 13 11 1.74 0.58
-19 6 -11 0.76 0.51
-14 19 11 4.69 0.75
-19 5 11 5.5 0.81
-14 -5 -11 4.54 0.82
-19 5 11 4.61 0.62
-19 14 -11 6.73 1.07
-19 14 -11 4.66 0.72
-14 19 11 4.18 0.71
-19 14 11 3.07 0.48
-14 19 -11 3.11 0.58
-19 5 -11 2.66 0.53
2 -4 12 0.73 0.56
3 -4 12 0.68 0.47
-4 3 -12 0.53 0.62
1 -4 -12 0.05 0.51
-1 -3 -12 -0.1 0.56
-3 4 -12 0.37 0.52
0 -4 12 1.07 0.56
4 -4 12 0.48 0.44
0 -4 -12 -0.22 0.42
-4 0 12 1.16 0.46
-4 4 -12 0.24 0.42
-4 4 -12 0.38 0.43
-3 5 12 0.51 0.28
2 -5 -12 0.46 0.43
-2 -3 12 1.12 0.4
-5 3 -12 0.38 0.42
3 -5 12 0.64 0.38
-5 2 12 1.27 0.44
-2 -3 -12 -0.09 0.43
-2 5 12 0.48 0.28
2 -5 12 0.57 0.37
-3 5 -12 0.38 0.43
-5 4 -12 0.82 0.43
1 -5 -12 1.96 0.47
-4 5 -12 1.89 0.45
1 -5 12 0.85 0.41
-4 5 -12 1.7 0.47
5 -5 12 11.07 1.2
-5 5 -12 12.07 1.22
-5 5 -12 11.61 1.17
-5 5 12 9.64 1.03
0 -5 -12 12.44 1.22
3 -6 -12 1.36 0.47
-3 6 -12 0.91 0.44
-3 -3 -12 -0.04 0.41
-6 3 12 0.38 0.29
-6 3 -12 0.25 0.41
2 -6 -12 7.01 1.03
2 -6 12 3.36 0.67
5 -6 12 13.28 1.32
-6 5 -12 9.43 1.17
1 -6 -12 13.93 1.38
-6 5 -12 10.5 1.28
-5 6 12 11.56 1.13
-1 -5 -12 10.78 1.27
-5 -1 12 12.98 1.36
-6 5 12 12.06 1.16
-5 6 -12 13.08 1.31
-5 6 -12 12.9 1.35
-1 6 12 11.65 1.15
-6 6 -12 9.36 1.3
0 6 12 8.71 1.05
-6 6 -12 7.95 1.22
-6 6 12 8.85 1.08
6 -6 12 9.26 1.26
0 -6 -12 10.64 1.32
3 4 12 10.16 0.92
-3 7 -12 8.22 1.01
-7 4 -12 8.87 1.07
-3 7 -12 10.9 1.14
-4 7 -12 11.07 1.16
3 -7 12 9.91 1.06
-4 -3 12 9.19 1.05
4 -7 -12 10.67 1.16
-7 5 -12 2.72 0.53
-7 5 -12 3.44 0.65
-7 2 12 1.81 0.43
-5 -2 -12 2.65 0.45
2 5 12 4.41 0.74
7 -5 12 7.28 1.11
-7 5 12 7.91 1.11
-2 -5 -12 6.27 1.05
-5 -2 12 10.11 1.1
-5 7 -12 9.03 1.15
1 6 12 41.61 3.23
6 -7 12 40.4 3.34
-7 6 -12 42.94 3.4
1 -7 -12 45.05 3.42
-6 7 12 40.57 3.23
-6 7 -12 51.8 3.85
-1 7 12 51.39 3.75
-6 7 -12 51.47 3.9
-1 -6 -12 44.3 3.8
7 -6 12 50.61 3.86
-7 6 12 50.79 3.75
-6 -1 12 44.8 3.83
0 7 12 17.77 1.61
7 -7 12 15.3 1.8
0 -7 -12 18.23 1.81
-7 7 12 17.96 1.59
-7 0 -12 13.04 1.46
-7 7 -12 14.86 1.87
-7 7 -12 14.35 1.74
-8 4 -12 21.98 1.81
-8 4 -12 20.98 1.67
-4 8 -12 20.86 1.82
-8 5 -12 15.56 1.84
5 -8 12 16.87 1.74
-8 3 12 20.34 1.78
3 5 12 20.05 1.67
3 -8 -12 22.14 2.09
-5 8 12 19.79 1.69
8 -5 12 18.26 1.72
-8 3 -12 19.01 1.53
-5 8 -12 20.11 1.71
-5 -3 12 16.08 1.59
5 -8 -12 19.16 1.7
2 -8 -12 10.47 1.62
-6 8 12 8.8 1.13
-8 2 12 10.37 1.9
-6 -2 -12 6.52 1.13
6 -8 12 6.26 1.32
-8 6 -12 8.31 1.51
-8 2 12 7.24 1.02
2 6 12 8.59 1.28
8 -6 12 4.84 0.87
-8 2 -12 4.81 0.88
-6 8 -12 8.09 1.08
-6 8 -12 5.52 1.2
-2 -6 -12 6.3 1.01
-8 6 12 7.55 1.24
1 7 12 27.1 2.23
-8 1 12 29.79 2.64
1 -8 -12 26.76 2.5
-8 7 -12 20.32 2.21
7 -8 12 24.24 2.35
-8 7 -12 26.75 2.5
-7 -1 -12 25.4 2.21
-7 8 12 24.49 2.14
-8 7 12 25.32 2.11
-8 1 -12 21.8 2.06
-7 8 -12 23.56 2.32
8 -7 12 24.1 2.35
-1 -7 -12 23.4 2.22
-7 -1 12 24.2 2.21
-1 8 12 26.9 2.13
-7 8 -12 22.97 2.35
-8 8 -12 21.19 2.27
0 -8 -12 19.57 2.11
-8 8 12 18.8 1.86
-8 0 12 21.08 2.16
-8 8 -12 17.5 2
0 8 12 22.97 1.93
-8 0 -12 18.92 1.9
8 -8 12 19.1 2.14
-4 9 -12 4.52 0.83
5 -9 12 3.14 0.67
-9 4 12 4.15 0.84
-9 5 -12 4.34 0.76
-9 5 -12 4.01 0.59
-9 4 12 6.75 1.29
-5 9 12 4.97 0.77
4 5 12 6.12 1.07
-5 9 -12 2.84 0.86
-9 5 12 2.58 0.76
-9 5 12 2.59 0.95
-4 -5 -12 0.26 0.42
5 4 12 2.57 0.54
9 -5 12 0.82 0.58
-4 9 12 2.61 0.59
-4 9 12 1.74 0.45
-9 4 -12 1.01 0.45
-9 4 -12 1.85 0.53
-5 9 -12 1.43 0.53
4 -9 12 0.86 0.43
-9 6 -12 11.17 1.25
-9 6 -12 17.86 1.84
-6 9 12 17.36 1.46
-3 9 -12 13.77 1.47
-6 9 12 13.52 1.3
6 -9 12 13.81 1.57
-9 3 -12 15.88 1.35
-6 9 -12 12.1 1.51
-3 -6 -12 9.92 1.29
9 -6 12 14.64 1.66
-3 9 12 14.33 1.26
-6 -3 12 13.26 1.31
6 3 12 10.53 1.19
2 7 12 24.26 2.05
7 -9 12 19.08 2.07
-9 7 -12 17.56 1.87
-7 9 12 17.83 1.72
-7 -2 -12 24.17 1.97
-7 9 12 22.95 1.87
-9 7 -12 24.34 2.23
2 7 12 17.04 1.74
-9 2 12 25.54 2.52
-9 2 -12 23.34 2.01
-9 7 12 25.73 2.09
-2 9 12 20.1 1.93
-7 9 -12 24.41 2.29
-7 -2 12 21.13 2.03
9 -7 12 22.11 2.29
-9 7 12 24.44 2.14
-2 -7 -12 22.84 2.05
-7 9 -12 19.8 2.19
-2 9 12 23.77 2.02
-8 9 12 1.59 0.62
-9 8 -12 1.19 0.88
-8 -1 -12 0.41 0.73
-1 9 -12 0.18 0.42
-8 9 12 0.98 0.42
-9 1 12 0.8 0.63
1 -9 -12 1.33 0.95
8 -9 12 0.4 0.82
-9 1 12 1.01 0.95
-9 8 -12 0.44 0.32
1 8 12 0.68 0.71
-9 8 -12 0.78 0.73
1 8 12 0.19 0.54
-1 9 12 0.5 0.57
-9 8 12 1.15 0.62
-8 -1 12 1.06 0.73
-8 -1 12 0.65 0.33
-9 8 12 0.69 0.29
-9 1 -12 -0.44 0.65
8 -9 -12 0.34 0.44
-1 9 12 0.21 0.54
-1 -8 -12 0.74 0.81
8 1 12 0.25 0.31
9 -8 12 0.22 0.9
-1 9 12 0.79 0.67
-8 9 -12 0.19 0.83
-8 9 -12 0.71 0.79
0 9 12 2.67 0.67
-9 9 12 2.18 0.63
-9 9 -12 2.7 0.91
-9 9 12 1.37 0.5
0 9 12 2.04 0.83
9 -9 12 2.49 0.91
0 -9 -12 3.26 0.95
-9 0 12 2.99 0.64
-9 0 -12 2.61 0.76
-9 9 -12 2.3 0.84
-9 0 12 3.08 0.94
0 9 12 2.71 0.76
-9 9 12 1.96 0.51
-5 10 -12 4.72 0.93
-5 10 12 6.61 1.1
-10 5 -12 5.7 1.16
-10 5 -12 3.39 0.67
-10 5 12 5.48 0.94
5 5 12 4.04 0.75
-10 5 12 4.54 1.19
10 -5 12 3.25 0.73
-10 4 12 27.55 2.33
-6 10 12 26.35 2.13
4 6 12 20.98 2.03
-4 10 -12 23.49 2.22
4 6 12 27.57 2.26
-6 -4 -12 27.82 2.22
-6 10 12 24.49 2.15
-10 4 12 26.66 2.9
-10 6 -12 25.05 2.31
-10 6 -12 20.83 2.05
-10 6 12 33.9 2.7
-4 10 12 31.08 2.53
-4 10 12 29.87 2.55
6 4 12 30.61 2.52
-10 4 -12 28.6 2.54
-6 10 -12 34.19 2.85
-10 6 12 34.15 3.07
10 -6 12 28 2.65
-10 7 -12 13.35 1.74
7 -10 12 8.84 1.53
-10 3 12 11.32 2.24
3 7 12 10.93 1.35
-7 10 12 13.16 1.37
-7 10 12 11.58 1.37
-3 10 -12 9.32 1.33
-10 3 12 12.41 1.62
-10 7 -12 9.55 1.23
3 7 12 14.07 1.54
-7 -3 -12 11.7 1.56
7 3 12 8.26 1.14
-10 3 -12 10.33 1.3
10 -7 12 8.05 1.56
-7 -3 12 7.79 1.07
-7 10 -12 9.47 1.23
-10 7 12 11.7 1.91
-3 10 12 10.44 1.28
-3 10 12 9.2 1.28
-10 7 12 8.92 1.41
-7 10 -12 7.38 1.44
-3 -7 -12 5.84 1.14
2 8 12 19.27 1.84
-8 -2 -12 20.32 1.89
-10 8 -12 14.99 1.75
-8 10 12 18.42 1.7
-10 2 12 18.58 1.88
-10 8 -12 20.18 2.1
-10 2 12 16.51 2.28
8 -10 12 16.23 1.91
2 8 12 17.11 1.75
-8 10 12 17.82 1.74
-10 8 -12 14.21 1.58
-2 10 12 24.58 2.26
-8 -2 12 22.71 2.21
-2 -8 -12 23.35 2.28
-10 8 12 24.27 2.18
-2 10 12 25.62 2.23
-10 8 12 28.68 2.43
10 -8 12 28 2.55
-8 10 -12 25.66 2.45
-2 10 12 23.41 2.2
-8 10 -12 22.87 2.31
-10 2 -12 26.93 2.19
-9 10 12 1.42 0.67
-10 9 -12 2.55 0.81
-10 9 -12 3.84 1.01
-9 10 12 3.45 0.67
-9 -1 -12 2.55 0.76
1 9 12 2.66 0.77
-10 1 12 1.23 0.94
9 -10 12 2.9 0.91
-10 9 -12 1.68 0.54
1 -10 -12 2.6 1
1 9 12 2.26 0.69
-10 1 12 1.52 0.79
-1 10 12 0.73 0.65
-9 -1 12 1.33 0.79
-1 -9 -12 1.53 0.89
-1 10 12 1.22 0.89
-10 9 12 0.96 0.52
-1 10 12 1.69 0.67
9 -10 -12 0.35 0.47
-9 10 -12 2.07 0.88
10 -9 12 1.78 0.96
-9 10 -12 1.76 0.83
-10 1 -12 1.74 0.74
-10 9 12 1.86 0.63
-9 -1 12 1.29 0.5
10 -10 12 1.23 0.92
0 10 12 0.57 0.66
-10 10 -12 0.61 0.45
0 10 12 0.58 0.64
-10 10 12 -0.05 0.64
-10 10 -12 1.14 0.81
-10 10 -12 1.42 0.87
-10 10 12 1.61 0.62
-10 0 12 -0.27 0.86
-10 0 -12 0.96 0.7
0 -10 -12 0.78 0.91
-10 0 12 0.34 0.76
5 6 12 8 1.34
-11 6 -12 9.02 1.47
-11 5 12 7.23 1.05
-11 5 12 8.77 1.46
-11 6 -12 6.96 1.19
5 6 12 7.29 1.24
6 -11 12 4.8 1.08
-6 11 12 10.02 1.21
-5 11 -12 5.76 1.01
-6 11 12 7.62 1.37
6 5 12 12.54 1.44
-11 6 12 8.76 1.43
6 5 12 9.25 1.23
-11 5 -12 10.41 1.41
-11 6 12 11.27 1.57
-6 11 -12 11.16 1.68
-5 11 12 13.27 1.33
-5 11 12 10.62 1.5
-11 5 -12 11.96 1.38
-11 4 12 61.89 4.52
-4 11 -12 47.17 4.13
-11 7 -12 46.27 4.02
4 7 12 55.44 4.12
-7 -4 -12 58.49 4.12
-11 7 -12 50.42 4.19
-11 4 12 56.79 4.17
-7 11 12 53.76 4.09
4 7 12 51.37 4.07
-7 11 12 52.01 4.05
-7 11 -12 36.32 3.44
-11 7 12 47.33 3.87
-11 7 12 44.11 3.48
-4 11 12 41.86 3.45
-11 4 -12 46.09 3.43
-4 11 12 46.7 3.42
-7 11 -12 47.63 3.64
7 4 12 42.68 3.41
-4 11 12 42.26 3.41
-8 11 12 19.53 1.97
-11 8 -12 21.49 2.19
8 -11 12 17.1 1.98
-8 -3 -12 22.93 2.03
3 8 12 22.46 1.99
-11 3 12 21.96 2.07
-8 11 12 21.98 1.86
-11 8 -12 18.33 1.81
-11 3 12 19.02 2.5
3 8 12 20.88 1.94
-3 11 -12 18.24 1.85
-8 11 -12 17.93 1.96
-11 3 -12 17.06 1.68
-8 11 -12 14.86 1.81
-3 11 12 15.87 1.73
8 3 12 15.54 1.63
-11 8 12 14.58 1.7
-3 11 12 17.9 1.95
-3 11 12 18.95 1.67
-11 8 12 16.48 2.16
9 -11 12 10.37 1.58
-11 9 -12 8.86 1.29
-9 11 12 11.28 1.23
-11 9 -12 12.14 1.85
-11 9 -12 8.46 1.38
-11 2 12 8.87 1.36
2 9 12 11.14 1.47
2 9 12 10.51 1.44
-9 -2 -12 11.35 1.47
-11 2 12 8.84 1.56
-9 11 12 10.45 1.41
-2 11 12 15.31 1.83
-9 -2 12 12.85 1.55
-9 11 -12 10.86 1.64
9 2 12 10.17 1.27
-2 11 12 13.9 1.52
-11 9 12 13.2 1.42
-11 9 12 12.91 1.5
-2 11 12 13.74 1.54
-11 2 -12 13.87 1.49
-9 11 -12 13.68 1.8
-2 -9 -12 12.87 1.64
-11 10 -12 3.74 0.87
-11 10 -12 3.97 0.95
-10 -1 -12 4.08 0.78
-11 10 -12 2.96 0.64
-11 1 12 3.03 0.97
1 10 12 2.25 0.7
1 -11 -12 3.38 1
-10 11 12 2.85 0.75
1 10 12 2.8 0.73
-11 1 12 3.31 0.91
-10 11 12 5.93 1.05
-11 10 12 1.11 0.59
-11 1 -12 0.58 0.66
-11 1 -12 0.29 0.67
-10 11 -12 0.55 0.77
-1 11 12 0.52 0.62
-11 10 12 1.17 0.59
-1 11 12 1.02 0.71
-10 -1 12 0.79 0.76
-11 10 12 -0.09 0.66
-10 11 -12 0.19 0.8
-1 11 12 1.71 0.93
10 1 12 0.27 0.3
-1 -10 -12 0.59 0.84
-10 -1 12 -0.07 0.65
-10 11 -12 0.97 0.41
10 -11 -12 0.34 0.47
-11 0 -12 2.98 0.83
0 11 12 3.55 0.73
-11 11 -12 2.52 0.63
-11 11 12 1.64 0.73
-11 0 -12 3.22 0.72
-11 0 12 1.85 0.85
-11 11 12 3.48 0.63
-11 11 -12 2.92 0.84
0 -11 -12 2.69 0.9
-11 11 -12 2.76 0.86
0 11 12 2.12 0.68
-6 12 12 41.86 3.16
6 6 12 41.14 3.23
-6 12 -12 37.64 3.35
-6 12 12 39.2 3.23
-12 6 12 43.14 3.31
-12 6 -12 43.31 3.22
-6 12 12 37.18 3.25
-12 6 -12 37.04 3.33
-12 6 12 44.35 3.7
6 6 12 42.56 3.25
5 7 12 18.51 1.83
-12 5 12 17.08 2.4
-12 7 -12 18.27 2.02
5 7 12 19.22 1.85
-5 12 -12 17.34 1.91
-7 -5 -12 19.16 1.85
-12 7 -12 17.52 1.75
-7 12 12 17.49 1.82
-7 12 12 18.8 1.68
-12 5 12 18.27 1.98
7 5 12 12.71 1.54
-12 5 -12 13.78 1.53
-5 12 12 13.09 1.52
-12 7 12 13.02 2.04
-12 7 12 12.27 1.58
-7 12 -12 13.44 1.85
-12 5 -12 11.18 1.53
-5 12 12 13.87 1.74
7 5 12 13.79 1.53
-8 -4 -12 14.02 1.58
-8 12 12 13.84 1.31
-4 12 -12 11.53 1.56
-12 4 12 10.18 2.06
4 8 12 13.4 1.5
8 -12 12 10.15 1.51
-8 12 12 12.24 1.55
-12 8 -12 11.47 1.38
-12 8 -12 14.35 1.79
4 8 12 13.53 1.62
-12 4 12 11.45 1.64
-4 12 12 16.86 1.85
-12 8 12 13.91 1.55
-8 12 -12 14.48 1.88
-12 4 -12 15.54 1.6
-4 12 12 13.72 1.64
-12 8 12 12.93 2.09
-8 12 -12 12.66 1.65
8 4 12 14.6 1.6
-4 12 12 16.96 1.54
-9 -3 -12 55.22 3.92
-3 12 -12 45.91 3.88
-9 12 12 50.4 3.93
-12 9 -12 54.67 4.11
-9 12 12 47.74 3.84
-12 3 12 49.11 4.17
3 9 12 50.78 3.91
-12 9 -12 46.55 3.86
-12 3 12 51.66 4
3 9 12 55.21 3.95
-9 12 -12 39.11 3.4
9 3 12 38.49 3.29
-12 9 12 45.18 3.74
-12 3 -12 44.63 3.33
-3 12 12 42.39 3.3
-3 12 12 43.73 3.34
-12 9 12 42.26 3.32
-3 12 12 46.68 3.52
-12 9 12 41.06 3.3
-9 12 -12 41.96 3.49
-10 12 12 1.25 0.68
-10 12 12 1.69 0.54
-12 2 12 -0.73 0.74
-10 -2 -12 1 0.67
-12 10 -12 0.86 0.64
-12 10 -12 0.71 0.59
2 10 12 0.98 0.67
2 10 12 1.57 0.67
-12 10 -12 2.08 0.92
-2 12 -12 1.08 0.45
-12 2 12 -0.42 0.89
-2 12 12 1.88 0.88
-2 12 12 1.73 0.6
-10 12 -12 0.77 0.35
-10 12 -12 1.53 0.83
10 2 12 1.7 0.55
-12 10 12 1.71 0.57
-12 10 12 1.24 0.9
10 -12 -12 0.89 0.51
-10 12 -12 2.09 0.76
-2 -10 -12 1.67 0.73
-10 -2 12 1.19 0.53
-12 2 -12 2.41 0.69
-12 10 12 0.82 0.67
-10 -2 12 2.03 0.6
-12 2 -12 1.05 0.67
-2 12 12 1.82 0.69
-12 1 12 8.05 1.61
-12 1 12 8.84 1.75
-12 11 -12 11.43 1.5
-11 12 12 9.43 1.45
-12 11 -12 12.6 1.74
1 -12 -12 12.02 1.73
-11 -1 -12 13.17 1.43
-11 12 12 12.35 1.26
1 11 12 11.65 1.37
-12 11 -12 11.55 1.31
1 11 12 10.57 1.42
-11 12 -12 11.19 1.7
-12 11 12 13.78 1.45
-12 11 12 10.37 1.49
-11 -1 12 11.96 1.58
-1 12 12 11.69 1.49
-11 12 -12 10.86 1.28
-12 1 -12 13.77 1.46
-12 11 12 12.09 1.31
-1 -11 -12 13.19 1.65
-11 12 -12 10.65 1.66
-1 12 12 16.06 1.77
-1 12 12 12.14 1.4
-12 1 -12 11.44 1.62
-12 12 -12 0.47 0.74
-12 12 -12 -0.03 0.57
-12 0 12 -0.27 0.72
12 0 12 0.1 0.21
0 12 12 0.43 0.61
-12 12 12 0.45 0.49
-12 12 -12 -0.15 0.77
0 12 12 -0.1 0.6
-12 12 12 1.08 0.44
-12 0 -12 0.32 0.61
-12 12 12 -0.7 0.61
-12 0 -12 -0.02 0.75
0 -12 -12 -0.73 0.78
6 7 12 22.99 2.09
-13 6 12 19.78 2.54
-7 13 12 23.46 2.24
-6 13 -12 21.61 2.23
-13 6 12 24.27 2.16
6 7 12 23.01 2.1
-7 13 12 22.88 1.94
-13 7 -12 25.46 2.08
-7 -6 -12 23.83 2.04
-13 7 -12 21.74 2.26
-7 13 12 21.28 2.12
-13 7 12 20.76 2.03
7 6 12 24.29 2.08
-13 7 12 16.95 2.43
-6 13 12 21.76 2.24
-13 6 -12 24.42 2
-6 13 12 20.32 2.04
-6 13 12 25.69 1.93
-7 13 -12 22.56 2.18
7 6 12 22.84 2.03
-13 6 -12 19.62 2.13
-8 13 12 40.26 3.36
-13 5 12 46.39 3.51
5 8 12 46.15 3.45
-13 8 -12 46.09 3.44
-8 13 12 40.55 3.47
-8 13 12 43.66 3.45
-8 -5 -12 46.1 3.46
5 8 12 44.27 3.45
-13 8 -12 43.76 3.58
-13 5 12 45.39 3.8
-5 13 -12 42.39 3.53
-8 13 -12 44.93 3.52
-5 13 12 46.99 3.56
-13 8 12 38.89 3.69
-13 5 -12 46.13 3.36
-5 13 12 45.11 3.32
8 5 12 41.21 3.36
-5 13 12 43.72 3.37
-13 8 12 38.22 3.33
4 9 12 11.59 1.4
-9 13 12 12.03 1.21
-4 13 -12 13.38 1.52
-13 4 12 9.75 1.59
-9 13 12 9.87 1.48
-13 4 12 9.6 1.37
-9 -4 -12 13.2 1.41
-13 9 -12 10.23 1.34
4 9 12 11.96 1.43
-13 9 -12 12.68 1.74
-13 9 12 7.97 1.15
-4 13 12 6.83 1.32
-4 13 12 7.37 1.11
-9 13 -12 9.06 1.16
9 4 12 7.76 1.25
-13 9 12 7.19 1.25
-4 13 12 9.34 1.14
-13 9 12 8.06 1.25
-13 4 -12 7.54 1.22
-9 13 -12 6.91 1.32
-13 3 12 1.4 0.76
-3 13 -12 2.14 0.65
-10 13 12 2.23 0.71
-13 10 -12 3.1 0.89
3 10 12 2.98 0.69
-10 13 12 2.18 0.5
-13 10 -12 2.75 0.63
3 10 12 2.94 0.68
-10 -3 -12 3.42 0.7
-13 3 12 1.29 0.9
-10 13 -12 0.88 0.72
-10 13 -12 1.92 0.86
-13 3 -12 1.6 0.68
-13 3 -12 1.5 0.63
-10 -3 12 0.64 0.31
-3 13 12 1.72 0.86
-3 -10 -12 0.99 0.42
-13 10 12 1 0.66
10 3 12 0.42 0.6
-13 10 12 0.74 0.96
-10 13 -12 0.24 0.27
-3 13 12 1.24 0.56
-13 10 12 1.76 0.56
-3 13 12 1.7 0.66
2 11 12 2.65 0.66
2 11 12 2.14 0.64
-13 11 -12 1.86 0.86
-11 13 12 1.85 0.46
-13 11 -12 1.69 0.6
-13 2 12 0.38 0.83
-13 11 -12 1.77 0.6
-2 13 -12 1.08 0.42
-11 13 12 1.36 0.67
-11 -2 -12 2.3 0.66
-13 2 12 0.22 0.73
-11 13 -12 2.94 0.53
-13 2 -12 3.17 0.8
-2 -11 -12 2.79 0.64
-11 13 -12 2.17 0.78
-11 -2 12 1.9 0.64
-13 11 12 4.28 0.92
11 2 12 2.27 0.6
-2 13 12 5.21 0.91
-2 13 12 3.38 0.69
-2 13 12 2.46 0.63
-11 13 -12 3.57 0.88
-13 2 -12 4.46 0.71
-13 11 12 2.74 0.72
-13 12 -12 3.31 0.77
-12 13 12 4.54 0.77
-12 -1 -12 4.95 0.71
-13 12 -12 4.17 0.85
1 12 12 3.92 0.72
-12 -1 -12 4.2 0.85
-13 1 12 3.95 0.86
-12 13 12 4.5 0.76
1 -13 -12 3.47 0.87
1 12 12 4.36 0.71
-13 1 12 3.39 0.83
-13 12 -12 3.92 0.67
-12 13 -12 3.16 0.63
-1 13 12 3.72 0.67
-12 13 -12 2.71 0.85
-13 12 12 3.42 0.58
-1 13 12 3.1 0.67
-13 1 -12 3.81 0.82
-13 12 12 4.08 0.72
-1 -12 -12 3.46 0.76
-12 13 -12 3.3 0.79
-12 -1 12 1.6 0.74
12 1 12 2.29 0.45
-12 -1 12 5.63 1.01
-13 13 -12 9.22 1.16
-13 13 -12 10.17 1.48
-13 13 12 7.48 0.89
-13 0 -12 10.64 1.2
-13 13 12 8.14 1.28
0 13 12 9.08 1.24
-13 0 -12 10.28 1.42
-13 0 12 6.98 1
-13 13 -12 9.05 1.39
0 -13 -12 8.86 1.36
-13 0 12 8.94 1.26
0 13 12 9.46 1.24
-14 7 -12 47.81 4.04
-7 14 12 57.04 4.09
7 7 12 50.82 3.94
-14 7 -12 54.23 3.95
-7 14 12 51.91 3.96
-14 7 12 48.46 3.94
-7 14 -12 46.93 4.05
-7 -7 -12 53.12 3.94
-14 7 12 57.09 4.24
-14 8 -12 12.23 1.38
6 8 12 11.21 1.43
-14 8 -12 11.87 1.66
-8 14 12 9.18 1.05
6 8 12 12.74 1.41
-8 14 12 11.53 1.41
-14 6 12 11.83 1.52
-14 6 12 9.82 1.36
-8 14 12 11.94 1.64
-6 14 -12 9.69 1.57
-8 -6 -12 12.58 1.4
-6 14 12 6.99 1.19
-14 6 -12 6.52 1.28
-6 14 12 6.72 0.87
-6 14 12 8.29 1.45
-14 8 12 4.62 1.06
-14 8 12 6.73 1.14
-8 14 -12 8.89 1.13
-14 8 12 4.8 0.84
8 6 12 7.07 1.17
-14 6 -12 6.82 0.85
5 9 12 8.27 1.25
5 9 12 8.22 1.26
-9 -5 -12 7.21 1.17
-9 14 12 6.81 1.28
-9 14 12 5.66 0.77
-9 14 12 5.56 0.93
-14 9 -12 8.71 1.57
-14 5 12 6.59 1.13
-14 9 -12 7.32 1.12
-5 14 -12 5.2 0.94
9 5 12 6.46 1.18
-14 9 12 6.57 1.14
-5 14 12 6.24 1.19
-9 14 -12 4.06 0.93
-14 9 12 6.8 1.07
-9 14 -12 8.9 1.09
-14 5 -12 5.04 0.88
-5 14 12 6.04 1
-5 14 12 7.12 0.88
-14 5 -12 7.56 1.24
-14 9 12 5.78 1.1
-4 14 -12 7.51 1.33
-14 4 12 6.51 0.96
4 10 12 8.47 1.21
-10 -4 -12 9.68 1.2
-14 10 -12 10.19 1.67
-14 4 12 7.39 1.16
-10 14 12 8.26 1.26
-14 10 -12 9.32 1.12
4 10 12 9.04 1.24
-10 14 12 7.88 1.13
-4 14 12 7.33 1.25
-10 14 -12 6.11 1.22
-14 10 12 6.63 0.89
-14 4 -12 9.06 1.22
-14 10 12 8.06 1.13
-4 14 12 9.48 1.44
-10 14 -12 7.89 1.07
-14 10 12 6.78 1.14
-14 4 -12 7.65 1.17
-4 14 12 7.26 0.95
10 4 12 7.09 1.14
-14 3 12 -0.65 0.66
-14 11 -12 0.3 0.32
3 11 12 1.51 0.59
-14 11 -12 1.25 0.53
-14 3 12 -0.31 0.8
-11 -3 -12 1.21 0.6
-3 14 -12 1.18 0.5
-14 11 -12 1.58 0.81
-11 14 12 0.79 0.28
-11 14 12 0.23 0.37
-11 14 12 0.38 0.6
3 11 12 0.93 0.58
-14 11 12 1.97 0.53
-3 14 12 1.36 0.48
-14 3 -12 2.1 0.61
-3 -11 -12 0.08 0.3
-14 11 12 0.06 0.86
-11 -3 12 0.85 0.34
-3 14 12 1.98 0.61
-14 3 -12 1.96 0.71
11 3 12 1.39 0.59
-11 14 -12 1.01 0.68
-11 14 -12 1.62 0.82
11 -14 -12 0.97 0.53
-11 14 -12 0.66 0.31
-3 14 12 2.18 0.8
-14 11 12 0.94 0.63
-14 2 12 2.92 0.77
-12 -2 -12 4.05 0.83
2 12 12 4.32 0.69
-14 12 -12 3.71 0.69
-12 -2 -12 3.76 0.66
-12 14 12 3.86 0.71
-14 2 12 2.57 0.81
2 12 12 5.17 0.69
-14 12 -12 4.65 0.66
-14 12 -12 5.88 0.93
2 -14 -12 3.05 0.84
-12 14 -12 3.84 0.82
-2 14 12 4.79 0.85
-14 12 12 4.64 0.81
-12 14 -12 3.41 0.75
-14 12 12 2.57 0.52
-12 -2 12 2.58 0.64
-2 14 12 2.36 0.55
-12 14 -12 2.82 0.55
-14 2 -12 3.13 0.64
-14 2 -12 3.56 0.77
-14 12 12 3.31 0.67
-2 14 12 3.85 0.66
12 2 12 3.43 0.6
-2 -12 -12 1.92 0.46
1 13 12 0.11 0.55
-13 14 12 0.34 0.22
-13 -1 -12 0.31 0.67
-13 -1 -12 -0.04 0.5
-13 14 12 -0.84 0.53
-14 13 -12 0.02 0.51
1 13 12 -0.29 0.54
1 -14 -12 -0.01 0.67
-14 13 -12 0.65 0.5
-14 13 -12 0.21 0.68
-14 1 12 -0.41 0.62
-14 1 12 0.07 0.61
-14 1 -12 1.06 0.67
-14 1 -12 1.04 0.55
-1 14 12 0.16 0.47
-14 13 12 -0.13 0.55
13 1 12 0.33 0.29
-13 14 -12 0.87 0.71
-1 14 12 1.43 0.57
-13 14 -12 0.78 0.67
-14 13 12 0.85 0.28
-1 -13 -12 0.95 0.51
-13 14 -12 0.57 0.53
-13 -1 12 0.16 0.59
0 14 12 10.75 1.16
0 -14 -12 9.74 1.19
-14 14 -12 8.96 1.15
-14 0 -12 9.21 1.27
-14 14 12 8.95 1.18
-14 0 12 9.46 1.29
-14 14 -12 9.74 1.08
-14 14 -12 9.76 1.42
-14 0 -12 9.72 1.09
0 14 12 9.49 1.06
-15 8 -12 10.66 1.56
-15 7 12 9.35 1.29
7 8 12 11.76 1.35
-15 8 -12 11.21 1.29
-8 15 12 11.25 1.34
-7 15 -12 9.89 1.4
-8 15 12 11.44 1.58
-15 7 12 10.43 1.3
-8 -7 -12 12.76 1.3
-7 15 12 13.67 1.68
-7 -8 -12 14.65 1.41
-15 7 -12 14.04 1.42
-7 15 12 14.38 1.46
-15 8 12 11.45 1.8
-15 8 12 12.15 1.36
-15 7 -12 12.99 1.58
-8 15 -12 12.82 1.65
8 7 12 13.39 1.42
-15 9 -12 31.9 2.46
-6 15 -12 28.9 2.56
-15 9 -12 31.49 2.69
6 9 12 30.71 2.49
-9 -6 -12 30.57 2.45
-9 15 12 31.1 2.64
6 9 12 31.42 2.47
-9 15 12 31.41 2.52
-15 6 12 27.61 2.8
-15 6 12 31.15 2.54
-15 9 12 19.58 1.84
-6 15 12 22.05 1.9
-6 -9 -12 22.49 1.83
-15 6 -12 17.65 1.84
-15 6 -12 24.35 1.88
-6 15 12 21.6 1.98
-15 9 12 20.74 1.83
9 6 12 20.48 1.83
-9 15 -12 21.98 2.09
-15 9 12 20.55 2.15
-15 5 12 4.45 0.99
5 10 12 4.64 0.7
-5 15 -12 4.79 0.83
5 10 12 5.56 0.69
-10 15 12 4.56 0.83
-15 10 -12 5.13 0.72
-10 -5 -12 4.44 0.67
-15 10 -12 4.52 0.88
-15 10 12 4.29 0.95
-15 10 12 4.5 0.73
-15 5 -12 7.14 1.11
-5 15 12 5.04 0.88
-10 15 -12 4.67 0.9
-5 15 12 5.24 0.74
-15 10 12 5.82 1.01
-15 5 -12 4.25 0.74
10 5 12 4.4 0.7
4 11 12 3.26 0.61
4 11 12 2.24 0.57
-11 15 12 2.18 0.59
-15 11 -12 3.1 0.61
-15 4 12 3.28 0.69
-15 4 12 1.36 0.81
-15 11 -12 3.43 0.83
-4 15 -12 1.96 0.62
-11 -4 -12 2.97 0.57
-11 15 12 3.05 0.65
-15 11 12 2.67 0.88
-11 15 -12 3.08 0.81
11 4 12 2.78 0.62
-4 15 12 3.79 0.68
-15 11 12 3.19 0.54
-15 4 -12 3.75 0.66
-15 11 12 1.55 0.62
-15 4 -12 1.58 0.66
-4 15 12 3.39 0.76
-15 3 12 4.52 0.74
-15 12 -12 4.87 0.87
-12 -3 -12 3.61 0.58
3 12 12 3.83 0.63
-12 -3 -12 4.17 0.76
-12 15 12 4.81 0.69
3 12 12 3.16 0.62
-15 12 -12 3.94 0.61
3 -15 -12 3.85 0.8
-15 3 12 2.79 0.82
-15 12 12 3.4 0.82
12 3 12 2.23 0.59
-15 3 -12 3.79 0.72
-12 15 -12 2.57 0.66
-3 15 12 3.76 0.74
-15 12 12 2.46 0.6
-12 15 -12 2.31 0.4
-12 -3 12 1.93 0.38
-12 15 -12 3.21 0.78
-3 15 12 3.67 0.61
-15 2 12 1.86 0.63
-13 -2 -12 2.02 0.49
2 -15 -12 2.74 0.69
-15 2 12 1.62 0.65
-13 15 12 2.74 0.59
-13 -2 -12 2.72 0.69
2 13 12 3.64 0.57
-15 13 -12 2.47 0.54
2 13 12 3.43 0.58
-15 13 -12 3.42 0.76
13 2 12 1.74 0.47
-15 13 12 2.1 0.58
-13 15 -12 2.43 0.66
-2 15 12 2.61 0.56
-13 15 -12 3.08 0.74
-13 -2 12 2.57 0.54
-13 15 -12 1.99 0.5
-15 2 -12 2.54 0.57
-15 2 -12 2.48 0.66
1 14 12 2.91 0.56
1 14 12 2.75 0.48
-14 -1 -12 2.32 0.43
-15 14 -12 2.61 0.53
-15 1 12 3.3 0.67
1 -15 -12 2.49 0.62
-14 -1 -12 2.58 0.64
-14 15 12 3.54 0.59
-15 14 -12 2.7 0.69
-15 1 12 2.07 0.6
-15 1 -12 2.12 0.48
-15 14 12 2.29 0.55
-14 -1 12 2.55 0.6
-1 15 12 1.83 0.49
-14 15 -12 2.62 0.64
-15 1 -12 2.23 0.64
-14 15 -12 2.59 0.66
-14 15 -12 1.58 0.5
0 -15 -12 0.35 0.26
-15 0 -12 0.02 0.54
-15 15 -12 -0.3 0.42
-15 15 12 -0.49 0.45
0 15 12 0.03 0.2
-15 0 -12 0 0.23
-15 15 -12 0.12 0.56
-15 0 12 0.14 0.47
0 15 12 0.17 0.44
-15 15 -12 0.53 0.28
-8 16 12 19.55 1.69
-16 8 12 18.1 1.65
-8 16 12 20.46 1.86
-8 -8 -12 18.24 1.62
8 8 12 18.8 1.68
-16 8 -12 17.19 1.81
-8 16 -12 16.91 1.77
-16 8 -12 19.36 1.65
-16 8 12 20.92 2.08
-9 16 12 7.29 1.12
-16 9 -12 7.99 1.03
-16 7 12 6.45 1.04
7 9 12 7.52 1.1
-7 16 -12 6.76 1.19
-16 9 -12 7.59 1.37
-16 7 12 7.06 1.03
-9 -7 -12 7.87 0.96
-9 16 12 7.21 1.19
-7 16 12 6.19 0.75
-7 16 12 5.97 0.86
-9 16 -12 5.52 0.9
-16 9 12 4.19 0.91
-7 -9 -12 5.87 0.95
-16 9 12 5.13 0.83
-16 7 -12 5.84 0.97
9 7 12 5.71 1.01
-16 9 12 5.88 0.97
-16 6 12 0.74 0.56
-16 10 -12 0.73 0.69
-10 -6 -12 0.66 0.44
-10 16 12 0.6 0.67
-16 6 12 -0.88 0.73
6 10 12 1.16 0.5
-10 16 12 0.39 0.54
-16 10 -12 0.57 0.52
-6 16 -12 0.69 0.64
-16 10 12 1.04 0.46
-6 16 12 0.85 0.53
-16 10 12 0.69 0.52
-6 -10 -12 0.99 0.49
-16 10 12 0.96 0.75
10 6 12 0.98 0.55
-6 16 12 0.54 0.67
-16 6 -12 0.28 0.5
-10 16 -12 0.46 0.72
-16 6 -12 0.73 0.54
-5 16 -12 0.06 0.54
-16 11 -12 0.27 0.51
5 11 12 0.13 0.47
-11 16 12 -0.31 0.59
-16 11 -12 0.51 0.7
-11 -5 -12 0.21 0.41
-16 5 12 0.45 0.55
-11 16 12 -0.49 0.53
-16 5 -12 0.16 0.53
-11 16 -12 -0.25 0.26
-5 16 12 -0.39 0.48
-5 16 12 0.27 0.61
-16 11 12 0.65 0.4
-16 11 12 -0.22 0.73
-11 16 -12 -0.14 0.68
-16 5 -12 0.04 0.57
-16 11 12 -0.32 0.51
11 5 12 0.1 0.53
4 12 12 2.83 0.55
-12 -4 -12 2.84 0.68
-16 12 -12 2.71 0.57
-12 16 12 2.05 0.58
4 12 12 3.15 0.57
-12 -4 -12 2.41 0.42
4 -16 -12 2.53 0.69
-16 12 -12 3.04 0.76
-16 4 12 3.35 0.64
-12 16 12 2.3 0.5
-16 12 12 1.71 0.34
-12 16 -12 2.82 0.72
-4 16 12 2.46 0.54
12 4 12 1.48 0.54
-16 12 12 1.36 0.52
-4 16 12 2.96 0.65
-16 4 -12 2.07 0.65
-16 12 12 2.24 0.76
12 -16 -12 0.73 0.38
-16 4 -12 2.9 0.55
3 -16 -12 0.97 0.6
-16 13 -12 1.6 0.47
3 13 12 1.61 0.51
-13 -3 -12 1.01 0.28
-13 16 12 1.74 0.52
-16 13 -12 2.45 0.73
-16 3 12 1.78 0.58
-16 3 12 0.77 0.57
3 13 12 1.91 0.47
-13 -3 -12 2.53 0.64
-16 13 12 0.34 0.19
-16 3 -12 1.59 0.47
-3 16 12 1.17 0.47
-16 3 -12 1.57 0.59
-13 -3 12 0.63 0.23
-16 13 12 1.57 0.5
-13 16 -12 1.01 0.27
-13 16 -12 0.68 0.42
13 3 12 1.35 0.46
-13 16 -12 1.07 0.63
-16 13 12 0.25 0.48
-14 -2 -12 1.22 0.56
-14 16 12 0.28 0.48
2 -16 -12 0.78 0.52
-16 2 12 0.81 0.34
2 14 12 1.14 0.42
-16 14 -12 0.85 0.44
-16 14 -12 1.05 0.58
2 14 12 0.76 0.32
-16 2 12 0.58 0.51
-16 2 -12 0.32 0.3
-14 16 -12 -0.02 0.44
-14 -2 12 0.41 0.33
-16 14 12 -0.17 0.44
-14 16 -12 0.09 0.33
-16 2 -12 0.08 0.54
-2 16 12 0.41 0.43
-14 16 -12 0.37 0.54
-16 15 -12 0.51 0.41
1 -16 -12 0.29 0.27
1 15 12 0.38 0.41
-15 -1 -12 0.37 0.47
-16 1 12 0.54 0.46
-15 16 12 -0.29 0.43
-16 15 -12 0.74 0.53
-16 15 12 0.25 0.43
-1 16 12 0.29 0.39
-15 16 -12 0.74 0.37
-16 1 -12 0.04 0.15
-15 16 -12 0.4 0.47
-15 16 -12 0.77 0.27
-15 -1 12 1.24 0.4
-16 1 -12 0.4 0.51
-16 0 -12 4.47 0.8
-16 16 12 3.92 0.76
-16 16 -12 4.1 0.83
0 16 12 5.21 0.7
-16 0 12 5.85 0.76
-16 16 -12 4.17 0.66
-17 8 12 0.18 0.44
-9 17 12 0.29 0.44
-8 17 -12 -0.35 0.58
8 9 12 -0.16 0.5
-17 9 -12 0.53 0.58
-9 17 12 -0.02 0.6
-17 9 -12 0.22 0.47
-9 -8 -12 0.11 0.32
-17 8 12 -0.9 0.69
-17 9 12 0.34 0.72
-9 17 -12 -0.07 0.6
-8 17 12 0.58 0.6
-8 -9 -12 0.48 0.36
-17 8 -12 -0.05 0.27
-17 9 12 0.62 0.24
-17 8 -12 0.02 0.5
-17 9 12 0.22 0.43
-8 17 12 0.34 0.48
9 8 12 0.69 0.51
-17 8 -12 0.67 0.5
-17 7 12 1.76 0.5
-17 10 -12 1.94 0.51
-17 10 -12 1.68 0.62
-17 7 12 1.27 0.72
-10 17 12 1.39 0.49
-10 -7 -12 1.47 0.31
7 10 12 1.15 0.49
-10 17 12 1.58 0.64
-7 17 -12 1.62 0.61
-17 10 12 1.86 0.42
-17 7 -12 0.96 0.49
-7 17 12 1.73 0.5
10 7 12 1.22 0.52
-17 10 12 1.38 0.68
-10 17 -12 1.23 0.66
-7 -10 -12 1.25 0.41
-17 10 12 1.01 0.41
-7 17 12 1.65 0.62
-17 7 -12 0.61 0.34
-11 17 12 5.81 0.92
-17 6 12 4.65 0.8
-17 6 12 5.18 0.97
-17 11 -12 7.53 1.25
-17 11 -12 6.6 0.88
6 11 12 5.76 0.85
-11 17 12 4.31 0.72
-6 17 -12 4.3 0.7
-11 -6 -12 6.47 1.03
-6 -11 -12 4.95 0.73
11 -17 -12 4.61 0.71
-6 17 12 4.74 0.87
-6 17 12 5.64 1.03
-17 11 12 5.6 0.68
-11 17 -12 5.01 0.79
-17 6 -12 5.39 0.83
-17 11 12 6.33 1.27
11 6 12 6.19 0.92
-17 6 -12 5.19 0.88
-17 11 12 5.19 0.9
-17 12 -12 6.95 1.19
5 12 12 4.88 0.81
-17 5 12 3.33 0.71
-17 12 -12 5.51 0.88
-17 5 12 5.58 0.99
-12 -5 -12 5.86 1.01
-12 17 12 4.68 0.66
-12 17 12 4.34 0.83
5 -17 -12 6.29 1.04
-12 17 -12 6.53 1.07
-17 5 -12 5.83 0.8
-5 -12 -12 5.82 0.77
-5 17 12 6.25 1.01
-5 17 12 5.34 0.86
12 5 12 6.35 0.88
-17 12 12 4.81 0.9
-17 12 12 6.72 1.25
-17 5 -12 5.81 0.98
4 -17 -12 0.43 0.5
-17 13 -12 0.6 0.63
-13 17 12 0.04 0.24
-13 -4 -12 0.88 0.55
-17 4 12 -0.02 0.5
-17 4 12 0.53 0.5
-17 13 -12 0.29 0.45
-13 17 12 -0.31 0.46
4 13 12 0.21 0.37
-17 4 -12 0.17 0.3
-17 13 12 1.17 0.49
-13 17 -12 0.8 0.56
-17 13 12 -0.01 0.42
-17 4 -12 0.44 0.51
-4 -13 -12 0.33 0.34
-4 17 12 0.19 0.43
-14 17 12 1.71 0.5
-17 3 12 2.61 0.5
-14 -3 -12 2.22 0.58
-17 3 12 2.18 0.52
-17 14 -12 1.9 0.46
3 -17 -12 1.98 0.52
-17 14 -12 2.77 0.65
-17 14 12 1.83 0.43
-3 17 12 1.65 0.43
-17 14 12 0.74 0.27
-14 17 -12 0.32 0.17
-15 -2 -12 0.44 0.48
-15 17 12 0.42 0.41
-17 2 12 1.01 0.45
2 -17 -12 0.31 0.24
-17 15 -12 1.06 0.52
-17 15 -12 1 0.38
-15 -2 12 0.22 0.15
-17 2 -12 0.43 0.46
-15 17 -12 0.68 0.24
-17 15 12 0.2 0.39
-15 17 -12 0.48 0.19
-2 17 12 0.39 0.37
-18 9 12 0.62 0.36
9 9 12 0.17 0.45
-18 9 -12 -0.11 0.41
-9 -9 -12 -0.05 0.13
-18 9 12 0.25 0.63
-9 18 12 0.1 0.41
-18 9 -12 -0.25 0.4
-9 18 -12 0.45 0.53
-9 18 12 0.65 0.5
-10 18 12 1.99 0.46
-18 10 -12 1.59 0.51
-10 18 12 1.79 0.54
-18 8 12 2.06 0.68
-8 18 -12 1.55 0.56
-18 8 12 1.76 0.44
-18 10 -12 1.86 0.46
8 10 12 1.49 0.47
-18 10 12 2.91 0.67
-8 18 12 2.52 0.57
10 8 12 2.4 0.5
-8 18 12 1.71 0.48
-18 10 12 3.6 0.53
-18 8 -12 1.93 0.45
-10 18 -12 2.72 0.65
-18 10 12 1.95 0.38
10 -18 -12 2.49 0.54
-18 11 -12 9.44 1.19
7 -18 -12 9.26 1.09
-11 -7 -12 8.98 1.03
-18 11 -12 9.8 0.95
7 11 12 8.21 0.92
-11 18 12 7.72 0.99
-7 18 -12 6.31 0.94
-18 7 12 8.02 0.96
-11 18 12 7.65 0.92
-18 7 12 7.76 1.22
-18 11 12 9.45 1.26
-11 18 -12 9.74 1.13
-18 7 -12 8.57 0.87
11 -18 -12 7.01 0.91
-7 18 12 8.23 0.93
-18 11 12 7.97 0.81
-7 18 12 8.31 1.04
11 7 12 9.66 0.96
6 -18 -12 1.35 0.53
-18 12 -12 1.47 0.6
6 12 12 1.61 0.42
-12 -6 -12 1.11 0.49
-18 12 -12 1.74 0.45
-12 18 12 1.09 0.41
-18 6 12 0.86 0.52
-18 6 12 1.32 0.44
-12 18 12 1.16 0.4
-18 6 -12 0.59 0.4
12 -18 -12 0.22 0.26
-6 18 12 0.62 0.41
-18 12 12 1.49 0.56
-18 12 12 0.56 0.35
-18 6 -12 0.39 0.26
-6 -12 -12 0.22 0.17
-12 18 -12 0.65 0.54
-6 18 12 0.47 0.5
5 -18 -12 2.25 0.51
-13 18 12 1.76 0.41
-18 13 -12 2.96 0.64
5 13 12 1.78 0.37
-18 5 12 2.58 0.51
-13 -5 -12 2.19 0.53
-18 13 -12 2.6 0.47
-18 5 12 1.9 0.45
-18 13 12 2.82 0.45
-13 18 -12 2.62 0.56
-18 5 -12 2.03 0.47
-5 18 12 2.73 0.44
0 0 -13 0.1 0.43
0 0 13 1.24 0.46
-1 1 13 4.3 0.84
0 -1 -13 3.44 0.62
-1 0 -13 5.67 0.99
-1 1 -13 3.38 0.61
1 -2 -13 6.43 0.93
-1 2 -13 6.02 0.89
2 -1 13 4.89 0.88
-2 2 -13 0.98 0.56
2 -2 -13 0.31 0.42
-2 0 -13 1.32 0.66
-2 0 13 2.35 0.64
0 2 -13 0.49 0.4
0 -2 -13 1.54 0.63
2 0 13 0.94 0.44
2 -2 13 1.76 0.58
0 -2 13 2.57 0.79
2 0 -13 0.04 0.5
-1 3 -13 6.2 1.01
-2 -1 -13 8.86 1.38
1 -3 -13 8.04 1.17
-3 2 -13 9.34 1.34
-1 -2 -13 9.47 1.37
-3 2 13 8.17 1.07
3 -2 13 6.65 1.09
-3 1 -13 10.85 1.38
2 -3 -13 5.76 1.04
-2 3 -13 8.39 1.13
0 -3 -13 21.2 1.97
-3 0 -13 17.81 1.95
0 -3 13 23.54 2.16
3 -3 13 18.26 1.94
-3 3 -13 20.25 1.95
2 -4 -13 5.05 0.81
-2 -2 -13 6.68 0.95
-2 4 -13 4.78 0.8
2 -4 13 8.16 1.54
-4 2 -13 6.56 0.91
-2 4 13 5.48 0.84
-4 3 -13 5 0.94
1 -4 -13 8.3 1.44
-1 -3 13 8.95 1.67
-4 3 -13 5.92 1.29
3 -4 13 8.45 1.56
-3 -1 -13 6.88 0.96
-3 4 13 5.97 0.9
-3 4 -13 6.21 0.93
1 -4 13 8.86 1.55
-4 3 13 4.73 0.81
-1 4 13 6.08 0.87
-1 -3 -13 5.99 0.97
4 -3 13 6.36 1.18
-4 1 -13 7.54 1.33
-4 4 -13 7.62 1.08
4 -4 13 8.36 1.61
0 4 13 5.79 0.92
0 -4 -13 8.83 1.51
-4 0 13 10.52 1.81
-4 0 -13 5.68 0.94
-4 4 -13 8.39 1.65
-4 4 13 7.96 1.06
0 -4 13 9.63 1.58
-5 3 -13 29.9 2.9
-5 3 -13 36.64 2.98
2 -5 -13 32.93 3
-3 5 13 35.74 2.86
-3 -2 -13 33.96 2.96
3 -5 13 40.61 3.15
-2 -3 13 38.54 3.16
-5 2 13 41.32 3.26
2 -5 13 35.53 3
-5 2 -13 32.81 2.82
-3 5 -13 31.81 2.81
-5 3 13 28.18 2.61
-2 -3 -13 34.98 2.9
-2 5 13 33.29 2.68
-3 -2 13 39.1 3.01
-3 5 -13 38.69 2.99
3 -5 -13 27.91 2.74
-5 3 13 35.3 2.88
1 -5 -13 3.1 0.9
-5 4 -13 3.43 0.88
5 -4 -13 -0.08 0.8
-4 -1 -13 1.99 0.68
-1 -4 13 3.29 0.89
-1 5 -13 1.63 0.52
4 -5 13 3.49 0.99
-4 5 13 2.72 0.66
-5 4 -13 3.32 0.91
1 4 13 1.95 0.49
-5 1 13 4.34 1.15
5 -4 13 2.64 0.83
-5 1 -13 1.9 0.69
1 -5 13 3.75 0.93
4 -5 -13 1.85 0.54
-1 5 13 2.76 0.65
-1 -4 -13 2.45 0.87
-4 5 -13 3.2 0.97
-5 4 13 2.83 0.66
-4 -1 13 3.49 1.02
-4 5 -13 2.78 0.87
-5 0 13 10.72 2.02
0 5 13 9.88 1.27
-5 0 -13 9.67 1.29
0 -5 -13 9.01 1.68
-5 5 -13 11.61 1.9
0 -5 13 11.01 1.53
5 -5 13 9.02 1.87
-5 5 13 9.7 1.38
-5 5 -13 10.39 1.72
6 -3 13 3.48 0.69
-3 -3 13 4.69 0.95
-3 6 -13 3.68 0.82
3 -6 -13 4.24 0.87
-6 3 -13 3.69 0.75
3 3 13 3.51 0.69
-3 6 13 3.32 0.75
-6 3 -13 3.83 0.82
-3 6 -13 4.44 0.9
3 -6 13 4.16 0.95
-6 3 13 5.39 1.1
-6 3 13 5.75 1.01
-3 -3 -13 4.59 0.87
-2 6 -13 13.63 1.63
-6 2 13 15.9 1.54
-4 6 13 16.99 1.71
-4 -2 -13 16.21 1.76
2 4 13 15.18 1.52
-2 -4 13 17.82 1.93
-6 2 13 20.79 2.36
-6 4 -13 17.09 1.83
4 -6 13 17.28 2.1
-6 4 -13 15.9 1.89
2 -6 -13 19.18 2
-2 -4 -13 17.94 2.03
-4 6 -13 18.78 2.22
-4 -2 13 20.51 2.19
-6 4 13 19.87 1.81
-2 6 13 17.95 1.8
-6 4 13 20.26 2.02
4 -6 -13 15.73 1.82
-4 6 -13 18.44 2
2 -6 13 19.72 2.01
-6 2 -13 17.7 1.84
6 -4 13 15.31 1.88
5 -6 13 13.78 1.99
-6 5 -13 12.15 1.76
1 -6 -13 12.33 1.93
-5 6 13 11.79 1.52
1 5 13 12.41 1.41
-6 1 13 13.1 2.31
-6 5 -13 12.71 1.87
-1 -5 13 12.99 1.6
-5 -1 -13 11.12 1.4
-5 6 -13 12.71 1.73
-6 5 13 10.95 1.55
-5 6 -13 12.99 1.99
-1 -5 -13 12.25 1.81
6 -5 13 8.97 1.73
-5 -1 13 13.84 2.02
-6 5 13 12.82 1.52
-1 6 13 12.05 1.46
1 -6 13 13.18 1.61
-6 1 -13 11.65 1.41
5 -6 -13 8.52 1.29
0 -6 13 17.77 1.79
6 -6 13 17.64 2.21
-6 6 -13 18.77 2.23
0 -6 -13 19.04 2.12
0 6 13 17.11 1.74
-6 0 -13 15.21 1.61
-6 6 -13 17.94 2.02
-6 0 13 18.56 2.29
-6 0 -13 13.61 1.53
-6 6 13 18.12 1.82
-3 -4 13 3.43 0.83
3 -7 -13 2.54 0.89
-3 7 -13 2.5 0.78
-7 3 13 1.98 1.07
-7 4 -13 1.99 0.82
7 -3 13 1.45 0.59
-7 3 13 2.7 0.71
-7 4 -13 2.17 0.77
-4 -3 -13 1.41 0.55
4 -7 13 3.49 0.93
3 4 13 2.38 0.62
-3 7 -13 2.13 0.79
-4 -3 -13 2.47 0.74
-4 7 13 3.05 0.79
-4 7 -13 2.27 0.88
4 3 13 1.7 0.49
-7 4 13 3.19 1.03
3 -7 13 2.11 0.82
-3 -4 -13 2.26 0.8
-7 4 13 2.09 0.73
-4 7 -13 2.63 0.86
7 -4 13 0.57 0.72
-7 3 -13 1.78 0.66
-3 7 13 2.15 0.72
-7 3 -13 1.62 0.43
4 -7 -13 2.3 0.8
-7 3 -13 2.55 0.74
-4 -3 13 2 0.79
-7 5 -13 14.95 2.02
-5 -2 -13 12.73 1.45
2 5 13 13.8 1.6
-2 -5 13 15.2 1.73
-7 5 -13 15.02 1.79
2 -7 -13 15.48 2.05
-2 7 -13 13.6 1.64
-5 -2 -13 13.69 1.56
-5 7 13 14.91 1.64
-2 7 -13 12.7 1.59
-7 2 13 15.36 1.56
-7 2 13 17 2.33
5 -7 13 16.12 1.99
-5 7 -13 13.01 1.93
-5 -2 13 13.19 1.81
5 -7 -13 12.38 1.56
2 -7 13 13.32 1.63
7 -5 13 10.28 1.8
-5 7 -13 12.66 1.91
-7 2 -13 11.78 1.46
-7 5 13 12.77 1.61
-2 7 13 13.87 1.56
-2 -5 -13 14.28 1.73
-7 6 -13 4.13 0.92
-1 7 -13 2.34 0.6
-7 1 13 5.69 1.04
-7 1 13 4.35 1.17
6 -7 13 3.65 0.99
-6 -1 -13 3.24 0.67
-6 7 13 5.07 0.84
1 6 13 4.98 0.81
1 -7 -13 5.18 1.09
-1 -6 13 2.54 0.74
-6 -1 -13 3.07 0.63
6 -7 -13 2.55 0.61
1 -7 13 3.59 0.81
-7 1 -13 2.88 0.63
7 -6 13 4.79 1.1
-6 -1 13 3.75 1.02
-1 -6 -13 3.94 0.96
-7 1 -13 2.84 0.62
-6 7 -13 3.81 1.02
-6 7 -13 5.71 1.06
-7 6 13 3.24 0.79
-1 7 13 4.33 0.8
7 -7 13 15.99 2.04
-7 0 -13 13.59 1.43
-7 7 13 16.03 1.65
-7 0 -13 9.4 1.31
0 -7 -13 17.35 1.92
-7 7 -13 16 1.89
-7 0 13 12.15 1.29
-7 7 13 11.05 1.35
-7 0 13 16.32 2.09
0 -7 13 12.83 1.55
4 -8 -13 8.64 1.22
-8 4 -13 9.69 1.41
-8 4 -13 8.93 1.45
4 -8 13 9.32 1.51
8 -4 13 8.63 1.39
-4 -4 13 8.93 1.48
-4 -4 -13 9.44 1.47
4 4 13 10.04 1.31
-4 -4 -13 7.2 1.21
-4 8 -13 9.62 1.56
-4 8 -13 8.58 1.48
-8 4 13 9.43 2
-8 4 -13 7.88 1.08
-4 8 13 9.86 1.44
-5 8 13 15.6 1.69
-8 3 13 17.12 2.37
5 -8 13 14.31 1.84
-5 -3 -13 13.85 1.51
-8 5 -13 15.64 1.98
-8 3 13 16.22 1.74
-3 8 -13 12.78 1.73
-3 -5 13 14.93 1.7
3 -8 -13 15.44 2.07
-3 8 -13 14.67 1.73
-8 5 -13 12.22 1.31
-5 -3 -13 13.4 1.55
3 5 13 13.92 1.63
-8 5 -13 15.03 1.72
-8 5 13 15.03 1.81
-8 5 13 18.84 2.31
-5 8 -13 18.25 2.09
-8 3 -13 16.42 1.58
-5 -3 13 16.56 1.92
-5 8 -13 15.83 1.94
-3 8 13 17.67 1.78
8 -5 13 15.75 1.94
-3 -5 -13 18.13 1.87
3 -8 13 14.42 1.8
5 3 13 15.82 1.54
5 -8 -13 16.51 1.9
-8 3 -13 12.94 1.45
-8 3 -13 12.55 1.59
-2 8 -13 25.01 2.32
-2 8 -13 21.67 2.35
-6 8 13 27.32 2.36
2 6 13 28.25 2.35
-8 6 -13 30.27 2.71
-6 -2 -13 26.24 2.31
2 -8 -13 28.4 2.64
-8 6 -13 26.4 2.49
-2 -6 13 23.56 2.3
-8 2 13 29.69 2.41
6 -8 13 28.1 2.53
-8 2 13 31.62 2.86
6 -8 -13 24.31 2.25
2 -8 13 21.19 2.24
-2 8 13 28.01 2.25
-6 -2 13 25.16 2.49
-8 6 13 26.24 2.3
-8 6 13 29.81 2.56
-2 -6 -13 25.67 2.39
-2 8 13 21.32 2.02
8 -6 13 25.06 2.5
-8 2 -13 22.35 2.08
-6 8 -13 27.17 2.52
-6 8 -13 25.48 2.44
-1 8 -13 5.01 1.03
1 -8 -13 5.27 1.12
-7 8 13 5.26 0.89
-1 -7 13 4.96 1.06
7 -8 13 5.93 1.07
-8 1 13 4.83 0.88
-8 1 13 3.82 1.13
1 7 13 4.89 0.87
-8 7 -13 5.96 1.01
-7 -1 -13 5.29 0.83
-7 -1 13 4.26 1.01
-7 8 -13 5.11 1.04
-8 1 -13 4.75 0.75
-1 8 13 3.18 0.68
-1 8 13 5.25 0.89
1 -8 13 3.69 0.74
-7 8 -13 8.21 1.73
-1 -7 -13 4.43 1
-8 7 13 5.26 0.87
0 8 13 1.9 0.76
0 8 -13 1.27 0.47
-8 8 -13 0.29 0.28
-8 8 -13 2.57 1.01
-8 0 -13 0.24 0.41
-8 0 -13 1.29 0.7
-8 8 -13 1.98 0.87
0 8 -13 -0.15 0.42
-8 0 13 1.26 0.63
8 -8 13 2.2 0.99
-8 0 13 0.49 0.98
-8 8 13 0.87 0.33
0 8 13 0.4 0.62
-8 8 13 0.96 0.72
0 -8 13 1.15 0.5
0 -8 -13 1.35 0.94
8 -8 -13 0.08 0.49
-9 5 -13 33.26 2.81
4 5 13 39.36 2.93
-9 4 13 41.1 3.54
-5 -4 -13 32.56 2.9
-4 9 -13 37.23 3.06
-5 9 13 36.94 2.96
9 -4 13 34.76 2.99
-5 9 13 36.77 2.89
-9 5 -13 34.42 2.95
-9 5 -13 35.86 3.09
-9 4 13 39.9 3.04
-4 -5 13 32.59 2.95
-4 9 -13 34.7 3.03
4 -9 -13 38.27 3.2
5 -9 13 36.43 3.04
-5 -4 -13 39.4 2.95
-9 4 -13 29.44 2.61
-9 5 13 34.65 2.79
9 -5 13 32.01 2.88
5 4 13 33.47 2.72
4 -9 13 30.74 2.79
-5 -4 13 32.34 2.79
-4 -5 -13 32.77 2.8
-4 9 13 33.48 2.75
-9 4 -13 33.49 2.8
-5 9 -13 34.86 2.91
5 -9 -13 33.15 2.96
-9 5 13 34.9 3.21
-4 9 13 35.36 2.69
-5 9 -13 33.45 2.88
3 6 13 16.51 1.74
3 -9 -13 17.7 2.19
-9 6 -13 14.47 1.53
-6 9 13 16.01 1.74
-3 -6 13 15.25 1.6
-9 6 -13 17.44 2.07
6 -9 13 15.03 1.93
-9 3 13 18.65 1.87
-6 -3 -13 18.15 1.75
-3 9 -13 17.53 1.79
-9 6 -13 16.23 1.85
-3 9 -13 14.63 1.73
-6 9 13 16.18 1.61
-9 3 13 17.18 2.45
-3 -6 -13 19.32 1.94
-9 6 13 19.61 2.37
-6 -3 13 16.36 1.94
-6 9 -13 18.4 2.08
9 -6 13 16.3 2.04
6 3 13 16.66 1.62
6 -9 -13 16.59 1.95
-3 9 13 17.16 1.69
-3 9 13 18.19 1.74
-9 6 13 17.29 1.8
-6 9 -13 15.64 2
3 -9 13 14 1.73
-9 3 -13 14.99 1.58
-7 9 13 10.07 1.25
-7 -2 -13 13.05 1.51
-9 7 -13 12.16 1.66
-7 9 13 10.4 1.43
-2 9 -13 10.31 1.31
-9 7 -13 10.3 1.17
2 -9 -13 12.1 1.86
-2 -7 13 8.7 1.1
2 7 13 9.47 1.41
-2 9 -13 7.79 1.25
2 7 13 9.54 1.3
-9 2 13 9.87 2.06
7 -9 13 12.68 1.75
-9 2 13 9.95 1.62
-2 9 13 13.71 1.59
2 -9 13 8.62 1.32
9 -7 13 12.74 1.91
-9 2 -13 11.63 1.38
-9 7 13 12.95 1.62
7 -9 -13 10.6 1.51
-7 9 -13 13.32 1.8
-7 9 -13 12.19 1.83
-2 -7 -13 12.36 1.72
-7 -2 13 9.99 1.7
-2 9 13 12.41 1.48
7 2 13 9.93 1.13
8 -9 13 30.73 2.61
-8 -1 -13 32.45 2.44
-9 1 13 28.37 2.55
-9 1 13 28.09 2.72
-8 9 13 25.05 2.3
1 8 13 27.72 2.4
-8 9 13 25.77 2.34
1 -9 -13 28.75 2.66
-9 8 -13 31.31 2.71
1 8 13 26.97 2.38
-9 8 -13 27.76 2.55
-9 8 -13 23.93 2.2
-9 1 -13 25.68 2.14
-1 9 13 24.43 2.18
-9 8 13 26.59 2.35
-1 9 13 21.91 2.13
-8 9 -13 21.66 2.31
-1 -8 -13 21.37 2.38
-9 8 13 21.15 2.16
-8 9 -13 22.8 2.37
9 -8 13 27.16 2.51
-8 -1 13 21.48 2.45
0 9 13 10.28 1.43
-9 9 13 9.31 1.18
0 9 13 10.2 1.4
9 -9 13 13.69 1.85
-9 9 13 8.97 1.25
-9 0 13 9.69 1.47
-9 0 13 9.78 1.32
-9 9 13 10.15 1.4
-9 9 -13 9.54 1.63
-9 0 -13 11.63 1.38
0 -9 -13 8.42 1.23
-9 9 -13 13.25 1.89
-10 5 -13 27.77 2.36
-5 10 -13 29.22 2.61
-5 10 -13 28.7 2.6
-5 10 13 30.85 2.49
-10 5 -13 29.66 2.57
-10 5 13 32.01 2.56
-5 -5 13 25.09 2.41
-5 -5 -13 34.49 2.53
5 -10 13 27.11 2.53
10 -5 13 30.51 2.58
-10 5 13 30.72 2.94
-5 10 13 30.4 2.45
5 -10 -13 30.37 2.73
-5 -5 -13 23.7 2.37
5 5 13 31.11 2.5
-6 10 13 10.89 1.54
4 -10 -13 12.8 1.96
-4 10 -13 12.23 1.63
-6 10 13 12.82 1.45
-4 10 -13 10.79 1.46
-10 6 -13 11.6 1.49
-10 4 13 11.79 1.64
-10 6 -13 11.46 1.29
-10 6 -13 13.7 1.78
-10 4 13 12.04 2.12
4 6 13 11.47 1.36
6 -10 13 12.34 1.62
4 6 13 12.58 1.51
-4 -6 13 9.76 1.19
-6 -4 -13 14.03 1.53
-6 10 -13 16.02 1.81
-10 6 13 15.5 1.76
10 -6 13 16.02 1.94
-4 -6 -13 14.24 1.71
-4 10 13 15.58 1.69
-10 4 -13 15.42 1.68
-6 -4 13 14.44 1.71
-10 6 13 15.5 2.18
-10 4 -13 16.3 1.56
6 -10 -13 14.76 1.94
-4 10 13 16.09 1.62
-6 10 -13 17.48 1.97
4 -10 13 12.83 1.62
6 4 13 17.09 1.63
7 -10 13 26.25 2.47
3 -10 -13 28.35 2.68
-10 7 -13 30.14 2.61
-7 10 13 26.4 2.32
-10 7 -13 25.62 2.26
-10 3 13 26.91 2.47
3 7 13 27.15 2.34
-7 10 13 27.21 2.34
-10 7 -13 25.39 2.42
-3 10 -13 24.35 2.36
-10 3 13 26.57 2.77
-7 -3 -13 29.87 2.41
3 7 13 28.78 2.34
-10 7 13 21.52 2.54
-3 10 13 21.33 2.01
-7 10 -13 22.65 2.21
7 3 13 21.91 1.97
7 -10 -13 19.4 2.18
10 -7 13 22.97 2.29
-10 3 -13 21.85 1.96
-3 10 13 22.07 2.04
-10 7 13 22.88 2.05
-7 10 -13 24.48 2.26
-7 -3 13 19.08 2.16
-3 -7 -13 21.82 2.18
-10 8 -13 5.45 0.76
-8 10 13 5.01 0.8
-10 8 -13 6.25 0.96
-10 2 13 3.72 0.92
2 -10 -13 5.61 1.09
-10 8 -13 7.18 1.07
-8 10 13 4.53 0.82
2 8 13 5.61 0.85
2 8 13 7.58 0.91
8 -10 13 6.3 0.98
-10 2 13 5.39 1.12
-2 10 13 7.23 1.34
-8 10 -13 8.46 1.49
-10 2 -13 7.99 1.32
8 -10 -13 8.09 1.03
-2 10 13 10.26 1.42
-2 10 13 6.97 1.29
-8 10 -13 9.92 1.17
-10 8 13 7.08 1.33
-8 -2 13 6.64 1.1
-2 -8 -13 7.31 1.11
-10 8 13 9.2 1.82
8 2 13 7.87 1.06
10 -8 13 10.43 1.83
-9 10 13 2.36 0.65
1 9 13 2.14 0.71
-10 9 -13 2.38 0.58
-1 10 -13 1.03 0.44
-9 10 13 1.66 0.7
-9 -1 -13 2.28 0.72
-10 1 13 0.99 0.92
1 -10 -13 1.4 0.92
9 -10 13 2.2 0.84
-10 9 -13 2.6 0.89
1 9 13 2.59 0.73
-10 9 -13 2.67 0.84
-10 1 -13 0.27 0.39
-9 10 -13 1.82 0.85
-9 -1 13 0.65 0.61
-10 9 13 2.42 0.81
-10 9 13 1.2 0.55
-1 10 13 1.26 0.65
-9 -1 13 0.33 0.85
-9 10 -13 1.56 0.79
9 1 13 0.38 0.3
-10 9 13 1.13 0.61
9 -10 -13 0.76 0.48
-1 10 13 0.87 0.65
-1 -9 -13 1.04 0.85
-9 10 -13 0.49 0.3
-10 1 -13 1.95 0.7
-10 10 -13 24.53 2.03
-10 0 -13 28.42 2.22
-10 10 -13 27.94 2.3
-10 10 13 25.79 2.21
-10 0 -13 22.48 2.12
0 10 13 22.64 2.12
-10 10 -13 26.56 2.43
0 -10 -13 24.58 2.4
-10 0 13 23.2 2.47
-10 0 13 24.31 2.3
-10 10 13 24.68 2.13
0 10 13 26.06 2.17
-11 5 13 12.32 1.55
-11 5 13 11.36 2.04
-11 6 -13 12.41 1.7
5 -11 -13 10.32 1.78
-6 11 13 13.94 1.45
-5 11 -13 9.34 1.46
-6 -5 -13 12.98 1.53
6 -11 13 9.95 1.51
5 6 13 12.95 1.44
-5 11 -13 11.2 1.59
5 6 13 11.6 1.46
-11 6 -13 10.8 1.3
-6 11 13 11.62 1.48
5 -11 13 8.97 1.35
6 5 13 12.52 1.39
-5 11 13 11.41 1.44
-6 11 -13 10.24 1.54
-5 11 13 13.53 1.41
-5 -6 -13 11.34 1.46
-11 5 -13 11.09 1.32
6 5 13 10.69 1.27
-11 6 13 11.91 1.51
6 -11 -13 11.67 1.74
-6 -5 13 8.84 1.13
-11 6 13 10.01 1.36
-6 11 -13 10.17 1.61
-11 5 -13 10.53 1.6
-7 -4 -13 21.25 1.87
7 -11 13 17.04 1.91
-7 11 13 17.11 1.8
-11 7 -13 16.8 1.69
-7 11 13 18.69 1.73
4 -11 -13 17.11 2.16
-11 7 -13 20.35 2.06
-11 4 13 18.36 1.93
-11 7 -13 17.56 1.7
-4 11 -13 17.53 1.86
-11 4 13 14.93 2.3
4 7 13 19.65 1.81
4 7 13 18.34 1.82
-11 7 13 17.28 2.32
-11 4 -13 20.21 1.73
-7 11 -13 19.51 2.05
-7 11 -13 18.49 1.94
-4 11 13 22.02 1.77
-11 4 -13 15.81 1.75
-7 -4 13 16.14 1.72
-4 -7 -13 15.37 1.73
-4 11 13 18.72 1.77
-11 7 13 19.25 1.85
7 4 13 18.96 1.8
-4 11 13 19.16 1.78
7 -11 -13 16.86 2.03
-8 -3 -13 2.41 0.73
3 8 13 2.65 0.7
-11 8 -13 1.46 0.72
8 -11 13 2.32 0.79
-8 11 13 1.56 0.6
-11 3 13 0.48 0.8
-3 11 -13 1.57 0.69
3 -11 -13 0.86 0.92
-11 3 13 0.1 0.95
-11 8 -13 1.92 0.61
3 8 13 2.72 0.69
-8 11 13 0.26 0.67
-11 8 -13 2.67 0.84
-3 11 13 0.86 0.61
-11 8 13 0.7 0.29
-8 11 -13 1.65 0.76
-11 8 13 1.33 0.62
-3 11 13 0.33 0.63
-11 3 -13 0.1 0.3
-8 -3 13 1.19 0.68
-11 8 13 0.49 0.97
-3 11 13 1.22 0.82
8 -11 -13 0.06 0.76
3 -11 13 -0.05 0.29
8 3 13 0.47 0.61
-11 3 -13 0.62 0.64
-8 11 -13 0.41 0.81
-3 -8 -13 1.19 0.74
2 9 13 17.43 1.69
-11 2 13 14.66 1.89
-11 9 -13 19.75 1.97
2 -11 -13 15.52 2.01
-11 9 -13 17.25 1.81
-9 11 13 18.25 1.66
-2 11 -13 15.19 1.57
2 9 13 16.15 1.69
-11 2 13 13.26 2.04
-11 9 -13 16.05 1.57
-9 -2 -13 18.42 1.73
-9 11 13 15.8 1.73
-11 9 13 15.32 1.48
-11 9 13 16.99 2.13
-9 11 -13 16.34 1.83
-11 9 13 15.27 1.55
9 2 13 14.5 1.45
-9 11 -13 15.87 1.81
-11 2 -13 16.31 1.59
9 -11 -13 14.12 1.61
-9 -2 13 14.22 1.81
-2 11 13 15.86 1.57
-2 11 13 15.21 1.6
-2 -9 -13 14.61 1.8
-11 1 13 16.03 2.13
1 -11 -13 19.09 2.09
1 10 13 18.93 1.76
-10 11 13 19.87 1.81
-11 10 -13 20.89 1.97
-11 10 -13 19.53 1.73
-11 1 13 18.36 1.99
-11 10 -13 23.54 2.15
-10 11 13 18.88 1.88
1 10 13 19.95 1.83
-10 -1 -13 21.83 1.88
-11 1 -13 11.44 1.33
-1 11 13 12.24 1.37
-1 -10 -13 12.23 1.7
-10 11 -13 10.75 1.12
-11 1 -13 15.41 1.48
-10 -1 13 12.69 1.76
-11 10 13 12.14 1.48
-1 11 13 12.58 1.48
-10 11 -13 13.45 1.64
-10 11 -13 14.47 1.69
-11 10 13 12.77 1.41
-10 -1 13 12.72 1.47
0 11 13 14 1.45
-11 0 -13 13.44 1.61
-11 11 -13 13.74 1.37
-11 11 -13 14.93 1.78
-11 11 -13 14.37 1.65
-11 0 -13 15.81 1.53
-11 0 13 11.5 1.67
-11 0 13 13.02 1.81
0 -11 -13 14.25 1.72
-11 11 13 14.72 1.42
0 11 13 14.27 1.52
-11 11 13 13.64 1.57
-6 -6 -13 5.41 0.8
-12 6 -13 4.25 0.84
6 -12 13 2.49 0.63
-12 6 13 3.59 1.04
-6 12 -13 4.16 0.85
6 -12 -13 2.79 0.87
-6 12 -13 2.67 0.65
-12 6 13 5.21 0.8
-6 12 13 3.42 0.73
6 6 13 4.46 0.76
-6 12 13 2.52 0.62
6 6 13 4.23 0.72
-12 6 -13 4.15 0.7
-12 7 -13 2.58 0.81
-12 7 -13 2.31 0.61
-7 12 13 1.09 0.66
5 -12 -13 1.89 0.9
5 7 13 3.06 0.72
-7 -5 -13 3.08 0.74
7 -12 13 1.89 0.68
-5 12 -13 1.97 0.77
5 7 13 3.38 0.7
-12 5 13 3.03 0.77
-5 12 13 2.69 0.64
7 5 13 2.41 0.66
-7 12 -13 1.78 0.81
-5 -7 -13 2.38 0.69
-12 7 13 0.74 0.92
-12 5 -13 2.62 0.66
7 -12 -13 0.77 0.83
-5 12 13 2.03 0.75
-12 5 -13 2.09 0.69
-5 12 13 1.44 0.65
-12 7 13 2.09 0.66
-7 12 -13 1.14 0.66
-12 8 -13 15.81 1.88
4 8 13 14.58 1.59
-12 8 -13 15.03 1.48
4 -12 -13 10.5 1.88
-8 -4 -13 15.93 1.6
-8 12 13 15.57 1.54
4 8 13 14.94 1.59
-4 12 -13 14.88 1.66
-12 4 13 12.58 1.73
-8 12 13 12.47 1.6
-8 12 -13 15.55 1.7
-8 -4 13 10.14 1.2
-4 12 13 16.04 1.44
-4 12 13 16.1 1.69
-4 12 13 12.93 1.49
8 -12 -13 12.53 1.73
-12 8 13 13.4 1.4
-12 4 -13 14.9 1.41
-12 8 13 10.92 1.9
8 4 13 14.35 1.44
-12 4 -13 9.82 1.23
-8 12 -13 13.77 1.63
-4 -8 -13 10.31 1.25
-12 9 -13 20.05 1.88
-12 3 13 19.13 2.09
-9 12 13 19.58 1.98
-12 9 -13 21.05 1.84
3 -12 -13 20.27 2.2
3 9 13 22.37 1.95
-3 12 -13 21.6 1.97
-9 12 13 22.12 1.89
-12 3 13 17.29 2.22
-12 9 -13 25.19 2.18
3 9 13 22.34 1.9
-9 -3 -13 23.29 1.92
-9 12 -13 21.55 2.02
-3 -9 -13 18.87 1.83
9 -12 -13 18.81 1.99
-12 9 13 18.43 1.79
-3 12 13 20.61 1.82
-12 9 13 20.28 2.33
-3 12 13 18.36 1.8
-3 12 13 24.02 2.06
-9 -3 13 17.54 1.78
-12 3 -13 22.52 1.8
-9 12 -13 19.6 1.93
9 3 13 21 1.8
-12 9 13 17.95 1.7
-12 2 13 7.42 1.59
2 10 13 10.35 1.22
2 10 13 11.53 1.29
-10 -2 -13 11.64 1.37
-12 10 -13 10.72 1.24
-12 2 13 7.99 1.53
2 -12 -13 10.61 1.63
-12 10 -13 12.25 1.75
-10 12 13 9.67 1.39
-12 10 -13 11.16 1.34
-2 12 -13 10.21 1.1
-10 12 13 11.55 1.32
-2 12 13 9.05 1.26
-2 12 13 8.06 1.19
-12 10 13 10.92 1.75
-12 2 -13 6.68 1.05
10 -12 -13 8.21 1.1
10 2 13 9.54 1.05
-10 -2 13 9.55 1.34
-10 12 -13 8.4 1.47
-12 2 -13 10.34 1.25
-2 -10 -13 9.32 1.34
-12 10 13 8.46 1.22
-10 12 -13 9.02 1.46
-12 10 13 8.33 1.14
-10 -2 13 6.92 0.98
-11 -1 -13 16.31 1.54
1 11 13 14.21 1.48
-12 1 13 11.87 1.69
-12 11 -13 15.16 1.45
1 11 13 15.93 1.55
-12 11 -13 19.09 1.91
-12 11 -13 15.03 1.64
-11 -1 -13 16.03 1.69
-11 12 13 13.85 1.59
-11 12 13 16.57 1.52
1 -12 -13 15.91 1.75
-12 1 13 11.68 1.8
-11 12 -13 13.24 1.27
-1 12 13 14.72 1.41
-11 -1 13 12.01 1.53
-12 11 13 13.62 1.48
-11 -1 13 13.45 1.64
-11 12 -13 14.09 1.62
-1 12 13 13.69 1.47
-12 11 13 14.75 1.45
-12 11 13 15.8 1.45
-12 1 -13 14.91 1.5
-12 1 -13 14.07 1.48
-11 12 -13 13.99 1.64
-1 -11 -13 13.57 1.58
-12 0 13 11.66 1.55
-12 0 -13 13.46 1.51
-12 0 13 9.08 1.5
-12 12 -13 12.71 1.28
-12 12 13 12.97 1.42
0 12 13 12.69 1.32
-12 0 -13 15.76 1.4
-12 12 -13 13.89 1.56
-12 12 -13 12.76 1.52
-12 12 13 12.39 1.33
0 12 13 13.02 1.35
0 -12 -13 12.23 1.53
6 -13 -13 -0.67 0.69
-13 7 -13 1.29 0.71
-13 7 -13 0.61 0.58
6 7 13 0.31 0.58
-13 6 13 0.05 0.59
-7 -6 -13 -0.17 0.62
-6 13 -13 -0.11 0.29
-13 6 13 -1.43 0.84
-7 13 13 0.69 0.57
-6 13 -13 0.95 0.7
-7 13 13 -0.55 0.6
6 7 13 0.24 0.62
-7 13 13 1.61 0.57
-6 13 13 1.24 0.55
-6 13 13 1.22 0.72
7 -13 -13 -0.36 0.71
-7 13 -13 0 0.41
-6 13 13 -0.58 0.58
-13 6 -13 -0.01 0.59
-6 -7 -13 0.01 0.6
-7 13 -13 0.82 0.71
7 6 13 0.27 0.56
-13 6 -13 0.1 0.64
-13 7 13 0.34 0.57
-5 13 -13 3.53 0.81
-8 13 13 6.75 1.04
-8 -5 -13 4.64 0.72
5 8 13 4.83 0.7
-13 5 13 3.16 0.75
-13 5 13 3.66 0.99
-13 8 -13 4.21 0.66
-13 8 -13 4.38 0.86
-8 13 13 2.52 0.69
5 -13 -13 4.66 0.91
5 8 13 3.26 0.7
-13 5 -13 3.51 0.67
-5 13 13 2.63 0.81
8 -13 -13 2.33 0.83
8 5 13 2.66 0.63
-5 13 13 3.75 0.69
-5 13 13 3.25 0.62
-8 13 -13 3.02 0.84
-8 13 -13 1.97 0.64
-13 5 -13 2.14 0.59
-5 -8 -13 3.18 0.65
-13 8 13 3.96 0.61
-13 8 13 2.1 0.89
-9 13 13 4.83 0.78
4 -13 -13 3.91 0.92
4 9 13 6.32 0.75
-4 13 -13 4.35 0.83
-13 9 -13 4.95 0.67
4 9 13 5.15 0.73
-13 9 -13 7.11 1.48
-9 -4 -13 4.82 0.74
-13 4 13 3.66 0.92
-13 4 13 4.03 0.81
-4 13 13 4.91 0.9
-4 13 13 3.85 0.69
-4 13 13 4.69 0.68
-13 4 -13 4.84 0.71
9 4 13 3.93 0.67
-9 13 -13 4.21 0.88
-9 13 -13 3.44 0.75
-13 9 13 4.29 0.96
9 -13 -13 3.65 0.88
-13 9 13 4.32 0.78
-13 9 13 4.12 0.64
-13 10 -13 5.08 0.79
-10 13 13 6.8 0.97
-10 13 13 5.28 0.78
-10 -3 -13 5 0.73
3 10 13 5.53 0.75
-13 10 -13 5.3 0.69
-3 13 -13 3.98 0.72
-13 10 -13 6.57 0.94
3 -13 -13 5.28 0.93
3 10 13 4.94 0.7
-13 3 13 4.86 0.91
-13 3 13 4.57 0.85
-3 13 13 2.74 0.63
-10 13 -13 2.44 0.8
-13 3 -13 3.99 0.65
-13 10 13 2.96 0.61
10 -13 -13 2.08 0.67
-13 10 13 3.62 0.88
-3 13 13 2.97 0.62
10 3 13 2.4 0.59
-3 -10 -13 1.99 0.48
-13 10 13 3.25 0.58
-13 3 -13 1.97 0.5
-10 13 -13 3.53 0.73
-10 -3 13 3.8 0.6
-11 13 13 5.31 0.75
-13 2 13 4.6 0.87
-11 13 13 6.02 0.91
-13 2 13 3.39 0.8
-11 -2 -13 5.34 0.85
2 11 13 6.17 1.06
2 -13 -13 4.75 0.85
-11 -2 -13 5.58 0.98
2 11 13 5.01 0.92
-13 11 -13 3.92 0.71
-13 11 -13 5.71 0.93
-13 11 -13 7.83 1.4
-11 -2 13 4.63 0.76
-11 -2 13 1.85 0.47
-13 2 -13 2.41 0.65
-11 13 -13 3 0.73
-13 11 13 3.56 0.79
-11 13 -13 2.96 0.8
-2 13 13 3.25 0.6
-2 -11 -13 2.8 0.62
-13 2 -13 3.74 0.65
11 2 13 3.19 0.51
-13 11 13 2.68 0.63
-13 11 13 2.67 0.56
-2 13 13 2.66 0.6
1 -13 -13 1.29 0.65
-13 1 13 -0.19 0.62
-12 13 13 1.07 0.41
1 12 13 1.38 0.52
-13 12 -13 0.94 0.63
1 12 13 1.75 0.54
-12 13 13 0.56 0.55
-12 -1 -13 1.34 0.68
-13 1 13 -0.11 0.66
-13 12 -13 1.49 0.52
-13 12 -13 1.75 0.7
-12 -1 -13 1.48 0.54
-1 -12 -13 0.39 0.57
-12 -1 13 -0.12 0.55
-13 12 13 1.03 0.44
-1 13 13 0.71 0.53
-12 13 -13 0.81 0.69
-13 1 -13 1.02 0.55
-1 13 13 0.5 0.51
-12 13 -13 0.6 0.42
-12 -1 13 1.31 0.49
-12 13 -13 1.07 0.64
-13 1 -13 0.84 0.62
-13 12 13 0.05 0.56
0 13 13 6.45 0.96
-13 13 13 5.95 0.76
-13 13 -13 6.82 0.88
-13 0 -13 6.81 1.09
-13 0 13 6.81 1.07
0 -13 -13 5.8 0.81
-13 13 13 5.84 1.06
0 13 13 7.19 0.98
-13 13 -13 6.46 1.2
-13 13 -13 6.51 1.09
-13 0 13 5.11 0.79
-13 0 -13 6.95 0.97
7 7 13 1.42 0.57
-14 7 -13 1.87 0.59
-7 14 13 1.1 0.56
-14 7 -13 1.44 0.67
-7 -7 -13 1.69 0.59
-14 7 13 0.22 0.81
7 -14 -13 1.14 0.68
-14 7 13 1.85 0.57
-7 14 13 1.53 0.44
-7 14 -13 1.7 0.68
-7 14 13 1.4 0.69
-14 8 -13 1.13 0.55
-8 14 13 0.4 0.54
6 -14 -13 0.51 0.7
-8 14 13 1.31 0.4
-8 -6 -13 0.9 0.55
-14 6 13 0.44 0.57
-14 6 13 -0.8 0.74
6 8 13 1 0.54
-8 14 13 0.25 0.56
-14 8 -13 1.6 0.69
-6 14 -13 0.4 0.66
8 -14 -13 0.11 0.68
-14 8 13 0.41 0.24
-6 -8 -13 0.92 0.56
-14 8 13 0.56 0.74
-14 8 13 1.09 0.47
-8 14 -13 0.54 0.71
-14 6 -13 1.14 0.57
-6 14 13 0.77 0.42
-8 14 -13 0.19 0.31
8 6 13 0.93 0.54
-6 14 13 1.38 0.73
-14 6 -13 0.75 0.58
-6 14 13 0.85 0.57
-14 5 13 -0.47 0.71
-14 9 -13 0.62 0.7
-9 14 13 0.4 0.35
-14 9 -13 0.3 0.49
5 -14 -13 0.24 0.7
-5 14 -13 0.63 0.66
5 9 13 0.61 0.5
-9 14 13 0.3 0.57
-14 5 13 -0.36 0.58
-9 -5 -13 1.05 0.54
5 9 13 0.49 0.56
-9 14 -13 0.79 0.47
-14 9 13 0.66 0.31
-14 9 13 1.36 0.49
-14 5 -13 1.47 0.58
-5 14 13 1.58 0.57
-5 14 13 1.85 0.72
-5 14 13 0.57 0.43
9 -14 -13 1.12 0.72
-9 14 -13 1.32 0.71
-14 5 -13 0.27 0.31
-14 9 13 0.83 0.74
9 5 13 1.07 0.53
-14 5 -13 -0.05 0.31
-5 -9 -13 1.56 0.54
-10 -4 -13 6.55 1.02
-14 10 -13 5.71 0.95
-10 14 13 5.91 0.7
-14 4 13 6.33 0.95
-14 10 -13 6.83 1.36
-4 14 -13 7.04 1.03
-14 4 13 5.11 0.81
-10 14 13 5.3 0.74
4 -14 -13 5.9 0.9
4 10 13 6.86 1.06
4 10 13 6.94 0.99
-14 4 -13 3.79 0.63
-14 10 13 1.99 0.53
10 -14 -13 2.53 0.7
-14 10 13 3.07 0.54
-14 10 13 2.94 0.84
-10 14 -13 3.43 0.78
-4 14 13 2.69 0.51
-4 14 13 2.28 0.74
-10 14 -13 2.28 0.62
-4 14 13 1.97 0.58
10 4 13 2.59 0.58
-14 3 13 6.89 0.91
3 11 13 6.96 0.93
3 11 13 7.37 1.03
-14 3 13 5.39 0.83
-11 -3 -13 6.84 1.21
3 -14 -13 6.74 0.89
-3 14 -13 4.76 0.74
-14 11 -13 8.65 1.37
-11 14 13 6.46 1.04
-14 11 -13 6.75 0.93
-11 -3 -13 7.39 0.95
-11 14 13 5.38 0.67
-3 14 13 5.06 0.86
-11 14 -13 5.64 1.14
-14 3 -13 5.32 0.95
-11 14 -13 7.6 0.92
11 3 13 6.98 0.98
-14 11 13 6.94 1.33
-14 11 13 5.91 0.94
-14 11 13 5.2 1.01
-14 3 -13 7.52 1.02
-3 14 13 6.53 0.97
2 12 13 3.42 0.55
2 12 13 3.05 0.56
-12 -2 -13 2.29 0.67
-14 12 -13 4.37 0.79
-14 2 13 3.08 0.67
2 -14 -13 2.77 0.68
-12 14 13 2.28 0.46
-12 14 13 3.24 0.59
-14 2 13 1.96 0.7
-12 -2 -13 3.26 0.56
-14 12 -13 2.66 0.53
-2 14 13 3.9 0.71
-12 14 -13 3.54 0.74
-12 14 -13 2.83 0.49
-12 -2 13 3.49 0.62
-14 12 13 4.24 0.63
-12 14 -13 3.73 0.69
12 2 13 3.5 0.58
-14 2 -13 5.32 0.88
-14 12 13 4.45 0.72
-2 14 13 4.34 0.62
-14 2 -13 4.03 0.68
-14 1 13 5.05 1.02
-14 13 -13 4.02 0.73
-13 -1 -13 5.36 0.8
-13 -1 -13 4.03 0.71
-14 13 -13 5.34 0.83
-14 13 -13 3.95 0.65
1 -14 -13 4 0.69
1 13 13 5.37 0.77
-14 1 13 4.81 0.71
1 13 13 5.09 0.88
-13 14 13 4.17 0.64
-13 14 -13 2.12 0.64
-1 14 13 1.96 0.42
-1 14 13 2.81 0.53
-14 13 13 2.19 0.54
-13 -1 13 2.88 0.54
-13 14 -13 2.81 0.64
-13 14 -13 2.56 0.43
-1 -13 -13 2.02 0.42
-14 1 -13 2.83 0.54
-14 1 -13 2.44 0.62
-14 0 -13 4.76 0.75
-14 14 -13 3.36 0.68
-14 14 -13 4.76 0.7
-14 0 13 3.83 0.61
-14 14 13 4.29 0.6
0 14 13 4.81 0.83
-14 14 -13 4.61 0.69
-14 0 -13 4.31 0.63
0 -14 -13 4.58 0.7
0 14 13 4.24 0.59
7 -15 -13 1.08 0.62
-8 -7 -13 1.58 0.49
-15 7 13 0.37 0.72
-15 8 -13 1.65 0.64
-8 15 13 1.84 0.63
-15 7 13 1.35 0.53
-7 15 -13 1.71 0.64
-8 15 13 1.6 0.53
-15 8 -13 2.28 0.54
7 8 13 1.42 0.52
-15 8 13 1.82 0.74
-7 -8 -13 2.43 0.53
-15 7 -13 2.46 0.55
8 -15 -13 2.17 0.69
-7 15 13 2.94 0.7
-15 7 -13 1.87 0.59
-8 15 -13 2.4 0.68
-7 15 13 1.79 0.56
-15 8 13 1.72 0.49
8 7 13 1.99 0.52
-15 6 13 4.62 0.69
-6 15 -13 5.4 0.78
-15 9 -13 6.96 0.91
-9 15 13 5.59 0.96
-15 6 13 3.33 0.82
-9 15 13 3.64 0.63
6 -15 -13 5.26 0.82
6 9 13 5.55 0.9
-9 -6 -13 6.23 0.89
-15 9 -13 6.1 1.27
-9 15 -13 3.5 0.75
-15 9 13 3.07 0.54
-15 9 13 2.42 0.76
-6 15 13 2.84 0.72
-15 6 -13 3.2 0.6
-6 -9 -13 3.41 0.57
-6 15 13 2.77 0.58
9 6 13 2.93 0.56
9 -15 -13 2.58 0.7
5 -15 -13 5.42 0.85
5 10 13 5.75 0.94
-15 10 -13 7.33 1.33
-15 5 13 6.74 0.79
-15 10 -13 6.09 0.9
-15 5 13 5.84 0.89
-10 -5 -13 6.23 0.88
-10 15 13 5.37 0.94
-5 15 13 4.12 0.74
-15 10 13 4.05 0.79
-5 -10 -13 3.73 0.58
10 5 13 5.41 0.92
-10 15 -13 4.2 0.77
10 -15 -13 3.16 0.7
-15 10 13 4.33 0.79
-5 15 13 3.17 0.61
-15 10 13 3.78 0.66
-15 5 -13 5.07 0.64
4 -15 -13 0.82 0.62
-15 11 -13 1.13 0.44
4 11 13 1.49 0.5
-15 4 13 0.14 0.61
-15 4 13 0.74 0.57
-4 15 -13 0.93 0.37
-11 -4 -13 0.84 0.59
-11 15 13 0.97 0.51
-15 11 -13 1.95 0.69
4 11 13 0.97 0.47
-11 -4 -13 0.88 0.45
11 -15 -13 0.84 0.41
-15 4 -13 1.19 0.41
-11 15 -13 1.92 0.67
11 4 13 1.64 0.52
-15 11 13 2.09 0.69
-4 15 13 2.54 0.53
-4 -11 -13 1.96 0.48
-15 11 13 1.59 0.48
-15 4 -13 2.1 0.54
-15 11 13 1.98 0.42
-15 12 -13 2.08 0.69
-12 -3 -13 1 0.57
-15 3 13 1.12 0.56
-15 3 13 1.34 0.62
3 12 13 1.73 0.48
3 -15 -13 1.17 0.59
3 12 13 1.32 0.47
-12 15 13 1.87 0.52
-15 12 -13 1.16 0.45
-12 -3 -13 1.46 0.43
-3 15 13 2.53 0.53
-15 3 -13 3.09 0.5
-12 15 -13 1.6 0.5
-15 12 13 1.85 0.5
-15 3 -13 2.53 0.54
-12 15 -13 2.72 0.67
-15 12 13 2.11 0.35
12 3 13 3.42 0.61
2 13 13 2.72 0.5
-13 -2 -13 2.13 0.41
-15 13 -13 2.29 0.47
-13 15 13 2.18 0.52
-13 -2 -13 2.37 0.58
-15 13 -13 3.81 0.69
-15 2 13 2.59 0.51
-15 2 13 2.63 0.57
2 13 13 2.55 0.45
2 -15 -13 2.49 0.57
-13 15 -13 2.72 0.59
-15 2 -13 2.17 0.47
-13 15 -13 1.87 0.53
-2 15 13 2.72 0.51
-15 13 13 2.32 0.49
-15 2 -13 2.09 0.54
1 -15 -13 0.34 0.36
1 14 13 0.38 0.42
-15 1 13 0.14 0.47
-14 -1 -13 0.08 0.48
-14 15 13 -0.11 0.42
-15 14 -13 0.11 0.37
-15 14 -13 0.62 0.52
-14 -1 -13 0.22 0.25
1 14 13 0.16 0.22
-14 15 -13 1.23 0.38
-15 1 -13 1.06 0.33
-14 15 -13 0.95 0.48
-14 -1 13 0.82 0.28
-15 1 -13 1.03 0.47
-15 14 13 0.74 0.42
-1 15 13 1.83 0.46
-14 15 -13 0.75 0.23
-15 0 -13 4.2 0.77
-15 15 -13 4.07 0.85
-15 15 13 4.04 0.74
-15 15 -13 3.95 0.5
-15 0 13 4.34 0.6
0 15 13 4.45 0.73
-16 8 13 0.03 0.41
-8 16 13 0.18 0.53
-16 8 -13 0.17 0.46
-8 16 13 -0.11 0.46
8 8 13 0.23 0.45
-8 16 -13 -0.08 0.55
-8 -8 -13 0.39 0.39
8 -16 -13 0.36 0.59
-16 8 13 -0.42 0.64
-16 8 -13 0.44 0.49
7 -16 -13 1.14 0.61
-7 16 -13 0.79 0.55
-16 7 13 0.35 0.43
-9 16 13 0.76 0.47
-9 -7 -13 0.97 0.38
-16 9 -13 0.74 0.55
-9 16 13 0.82 0.47
7 9 13 1.05 0.47
-16 7 13 0.35 0.64
-16 9 -13 0.8 0.47
-7 16 13 0.47 0.48
-16 7 -13 -0.12 0.28
9 -16 -13 0.74 0.55
-9 16 -13 -0.01 0.63
-16 7 -13 0.58 0.47
-7 16 13 0.63 0.55
-7 -9 -13 0.52 0.39
-16 9 13 -0.09 0.57
9 7 13 0.3 0.44
-16 9 13 0.46 0.42
6 10 13 9.38 1
-16 6 13 7.74 1.29
-6 16 -13 6.78 1.02
-16 10 -13 9.82 1.23
-10 16 13 9.21 1.06
-16 10 -13 9.48 1.01
-10 -6 -13 8.91 0.9
6 -16 -13 9.66 1.19
-16 6 13 9.5 1.09
-6 -10 -13 9.15 1.01
-16 10 13 10.13 1.01
-10 16 -13 10.62 1.3
10 6 13 10.31 1.09
-16 10 13 10.29 1.39
10 -16 -13 9.19 1.15
-6 16 13 11.55 1.12
-6 16 13 10.44 1.19
-16 6 -13 11.46 1.07
5 -16 -13 1.56 0.57
-11 16 13 0.98 0.48
5 11 13 1.03 0.42
-16 11 -13 1.75 0.61
-16 11 -13 1.7 0.47
-11 16 13 -0.13 0.41
-16 5 13 1.03 0.5
-11 -5 -13 0.87 0.33
-5 16 -13 0.57 0.32
-11 -5 -13 1.16 0.5
-16 5 13 0.57 0.57
-16 11 13 0.49 0.29
-5 16 13 0.23 0.46
-16 5 -13 -0.01 0.24
-5 -11 -13 0.15 0.39
-16 11 13 0.69 0.59
-16 5 -13 0.59 0.43
11 -16 -13 0.29 0.33
-11 16 -13 0.56 0.59
11 5 13 0.54 0.43
-16 11 13 0.36 0.29
4 -16 -13 8.42 1.04
4 12 13 7.39 0.86
-12 16 13 8.05 0.93
-12 -4 -13 5.72 0.69
-16 12 -13 9.75 1.21
-12 -4 -13 7.62 0.96
-16 4 13 6.82 1.07
-16 12 -13 6.98 0.84
-16 4 13 8.95 1.04
-12 16 -13 7.82 1.07
-4 -12 -13 6.47 0.82
-16 12 13 9.25 0.99
12 4 13 6.69 0.8
-16 12 13 7.1 0.82
-16 4 -13 8.19 0.86
-4 16 13 7.87 0.93
-16 13 -13 3.88 0.67
3 13 13 4.56 0.6
-16 3 13 4.06 0.78
-16 3 13 3.63 0.57
-13 -3 -13 3.46 0.58
-13 16 13 3.86 0.55
-16 13 -13 6.08 1.07
3 -16 -13 3.45 0.58
-3 -13 -13 6.05 0.73
-13 16 -13 7.37 0.91
-16 3 -13 5.45 0.75
-16 3 -13 6.05 0.69
-3 16 13 6.97 0.82
-16 13 13 5.71 0.77
-16 14 -13 5.23 0.93
-16 14 -13 4.58 0.61
-14 -2 -13 4.52 0.74
2 -16 -13 3.71 0.58
-16 2 -13 2.38 0.33
-9 17 13 0.26 0.43
-17 9 -13 0.37 0.41
-9 17 13 0.04 0.37
-8 17 -13 0.11 0.5
-17 8 13 -0.05 0.59
8 -17 -13 0.74 0.46
-17 9 -13 0.24 0.4
-17 8 13 0.76 0.38
8 9 13 0.78 0.43
-9 -8 -13 0.33 0.21
-17 9 13 0.65 0.37
-9 17 -13 0.48 0.51
-8 17 13 0.48 0.44
-8 -9 -13 0.5 0.24
9 8 13 0.58 0.43
-17 8 -13 0.7 0.41
-8 17 13 0.45 0.45
9 -17 -13 0.53 0.48
-17 9 13 0.8 0.6
-17 10 -13 1.63 0.53
-17 10 -13 1.78 0.45
7 10 13 2.23 0.46
-10 17 13 1.57 0.46
7 -17 -13 1.79 0.54
-10 -7 -13 1.88 0.52
-7 17 -13 1.3 0.47
-17 7 13 1.68 0.42
-17 7 13 1.79 0.58
-7 -10 -13 0.44 0.27
-10 17 -13 0.38 0.55
-17 7 -13 0.79 0.41
10 -17 -13 0.41 0.43
-7 17 13 0.79 0.47
-7 17 13 0.64 0.42
-17 10 13 0.94 0.31
-17 10 13 0.85 0.56
10 7 13 0.74 0.41
-11 17 13 2.18 0.44
6 11 13 1.44 0.4
-17 11 -13 1.46 0.44
-17 6 13 1.68 0.56
-11 -6 -13 2.15 0.51
-17 6 13 1.67 0.48
-17 11 -13 2.36 0.57
6 -17 -13 2.25 0.53
-6 17 -13 0.88 0.3
-17 11 13 1.97 0.56
-11 17 -13 1.25 0.54
-17 6 -13 1.31 0.39
-6 -11 -13 1.09 0.29
-6 17 13 1.24 0.4
-17 11 13 1.85 0.33
11 6 13 1.45 0.37
11 -17 -13 0.83 0.29
-17 12 -13 5.19 0.73
-12 -5 -13 4.68 0.82
0 0 -14 1.22 0.76
0 0 14 0.98 0.81
1 -1 14 7.76 1.56
-1 1 -14 5.37 0.97
1 0 -14 4.39 0.82
1 0 14 8.1 1.42
0 1 14 7.81 1.33
0 -1 -14 6.29 1.01
0 -1 14 5.57 1.09
-1 0 14 6.46 1.1
-1 0 -14 5.97 1.04
1 -1 -14 4.83 0.86
0 1 -14 4.78 0.85
2 -1 -14 3.01 0.65
1 1 14 2.58 0.59
-1 -1 -14 3.37 0.98
-1 2 -14 2.48 0.8
1 -2 -14 1.95 0.76
1 1 -14 2.05 0.63
-2 1 -14 3.52 0.94
2 -1 14 3.03 0.85
-1 2 14 1.71 0.45
-1 -1 14 2.35 1.06
1 -2 14 2.34 1.02
-2 1 14 3.75 0.94
-2 2 14 21.74 2.08
-2 0 -14 28.78 2.48
2 -2 -14 25.94 2.29
0 -2 -14 28 2.52
0 2 -14 23.66 2.26
-2 2 14 29.4 2.5
-2 2 -14 27.69 2.46
2 0 -14 21.88 2.16
2 0 14 26.63 2.28
2 -2 14 28.54 2.65
-2 0 14 29.14 2.75
-1 3 -14 8.52 1.49
3 -2 -14 9.15 1.17
-1 -2 14 10.32 2.15
-3 1 14 10.9 1.89
-3 2 -14 9.06 1.64
1 -3 -14 8.49 1.16
-2 3 14 8.91 1.26
-3 2 -14 9.6 1.68
3 -1 14 8.67 1.47
-2 -1 -14 7.23 1.17
-2 3 14 11.05 1.29
2 -3 14 9.97 1.95
1 -3 14 9.69 2.02
-1 -2 -14 7.2 1.11
2 -3 -14 8.59 1.42
-3 1 -14 8.87 1.15
-3 2 14 11.66 1.71
3 -2 14 9.45 1.62
3 -1 -14 5.66 0.99
-1 3 14 8.42 1.23
-3 2 14 8.09 1.05
-3 1 -14 8.7 1.47
-2 -1 14 10.03 1.39
-2 3 -14 6.49 1.08
1 2 -14 7.93 1.14
-1 3 14 6.82 0.99
-3 3 14 2.96 0.81
-3 0 14 1.54 1.09
0 3 14 1.55 0.59
-3 3 -14 2.03 1.01
3 -3 14 2.01 1
-3 0 14 0.65 0.37
0 -3 14 1.37 1.08
-3 3 14 1.18 0.64
-3 0 -14 2.79 0.88
3 0 -14 0.92 0.41
-3 0 -14 1.53 0.57
-3 3 -14 1.65 0.94
3 -3 -14 2.28 0.71
0 3 -14 1.24 0.67
0 -3 -14 2.32 0.94
3 0 14 1.68 0.53
-2 -2 14 1.98 1.07
-4 2 14 2.9 0.65
-4 2 -14 2.34 0.84
2 -4 -14 2.53 0.85
-2 4 -14 2.53 1.02
4 -2 14 2.05 0.82
-4 2 14 1.61 0.94
-2 4 -14 1.92 0.86
2 -4 14 2.36 1.08
-2 -2 -14 2.99 0.97
-4 2 -14 1.85 0.92
-2 4 14 2.68 0.74
-4 1 14 8.86 1.07
3 -4 14 12.27 2.13
1 3 14 9.42 1.2
-1 -3 14 10.88 2.05
4 -3 -14 8.68 1.13
-4 3 -14 10.27 1.78
-3 4 14 9.8 1.18
-1 4 -14 8.71 1.48
-4 3 -14 10.63 1.84
4 -1 14 9.12 1.33
-4 1 14 9.16 1.91
1 -4 -14 8.51 1.2
-3 4 14 8.73 1.45
-3 -1 -14 10.36 1.7
1 -4 14 10.58 2.01
-1 -3 -14 10.75 1.8
-4 3 14 13.38 1.87
3 -4 -14 10.59 1.53
-1 4 14 9.53 1.43
-4 1 -14 10.25 1.46
4 -3 14 10.41 1.82
-4 1 -14 11.3 1.71
-4 3 14 11.28 1.49
-3 4 -14 12.54 2.07
-3 -1 14 9.36 2.07
-3 4 -14 9.9 1.79
0 -4 -14 1.04 0.91
-4 0 14 0.46 1.01
0 4 -14 0.56 0.6
0 -4 -14 0.08 0.43
0 4 14 0.47 0.65
-4 0 -14 0.75 0.44
-4 0 14 0.72 0.32
-4 4 -14 1.05 0.91
-4 4 14 0.46 0.66
4 0 -14 0.53 0.69
4 -4 -14 1.12 0.63
4 0 14 0.62 0.4
-4 4 14 2.05 0.73
4 -4 14 0.22 0.93
0 -4 14 0.88 1.02
-4 0 -14 0.52 0.32
-4 0 -14 1.1 0.86
-4 4 -14 0.74 0.95
-3 -2 -14 1.79 0.46
2 -5 -14 2.41 0.88
5 -2 14 1.36 0.78
-3 -2 -14 3.12 0.94
2 3 14 2.76 0.64
-5 3 -14 2.46 0.93
-3 5 14 2.48 0.75
3 -5 14 2.01 1.03
-5 3 -14 2.12 0.92
-2 5 -14 3.95 1.1
-5 2 14 2.54 0.75
-2 -3 14 1.9 1
-5 2 14 1.67 0.97
-2 5 -14 2.45 0.85
3 -5 -14 4.03 0.89
-5 2 -14 3.15 0.86
-2 -3 -14 2.28 0.47
3 2 14 2.52 0.51
5 -3 14 3.74 0.97
2 -5 14 5.18 1.13
-3 5 -14 4.78 1.07
-3 5 -14 3.81 0.91
-2 -3 -14 4.66 1.02
-5 3 14 3.43 0.8
-5 2 -14 4.01 0.98
-5 3 14 4.1 1.02
-3 -2 14 2.65 1.05
-2 5 14 3.7 0.79
4 -5 14 10.19 1.99
-5 4 -14 8.64 1.8
-4 5 14 9.26 1.13
-5 1 14 11.5 1.45
-5 4 -14 8.7 1.21
-5 1 14 9.8 1.2
-1 -4 14 8.91 1.77
1 4 14 7.86 1.34
-4 -1 -14 9.42 1.68
-4 -1 -14 6.9 1.01
-4 5 14 8.3 1.47
-1 5 -14 9.71 1.44
1 -5 -14 10.92 1.83
-1 -4 -14 7.51 1.07
-4 -1 14 5.4 1.14
-5 4 14 5.15 0.84
-5 1 -14 4.86 0.78
1 -5 14 6.41 1.11
-1 5 14 7.03 1.28
-5 1 -14 4.07 0.76
-1 -4 -14 3.41 0.65
-5 5 -14 2.24 0.9
-5 0 14 1.7 1.04
-5 5 14 2.44 0.74
-5 0 14 1.11 0.4
-5 5 14 1.32 0.73
-5 0 -14 1.14 0.51
0 5 -14 2.3 0.62
0 -5 14 1.21 0.96
-5 5 -14 2.09 0.99
-5 0 -14 2.74 0.91
0 -5 -14 2.14 0.94
0 5 14 1.49 0.68
5 -5 14 1.63 1.01
3 -6 -14 4.4 0.95
3 -6 14 5.46 1.07
-6 3 14 5.68 0.89
-6 3 -14 4.39 0.96
-3 -3 14 5.36 1.08
6 -3 14 4.53 0.96
-3 6 14 4.97 0.83
-3 -3 -14 3.4 0.68
-6 3 -14 4.49 0.97
3 3 14 4.05 0.74
-3 6 -14 5.02 1.01
-3 6 -14 4.75 0.99
-6 3 14 4.75 1.07
-3 -3 -14 4.92 0.97
-4 6 14 -0.24 0.71
-6 4 -14 0.62 0.86
-6 4 -14 -0.4 0.87
6 -2 14 -0.38 0.65
-4 -2 -14 1.13 0.83
-4 -2 -14 0.1 0.55
6 -4 -14 0.2 0.44
-2 6 -14 0.89 0.8
2 4 14 -0.13 0.67
-2 -4 14 0.21 0.88
4 -6 14 -0.09 0.95
-2 6 -14 0.09 0.84
2 -6 -14 0.33 0.9
-6 2 14 0.26 1.02
-4 6 14 1.14 0.46
-6 4 -14 -0.24 0.26
-6 2 14 0.42 0.73
6 -4 14 0.41 0.86
-6 4 14 0.51 0.73
-2 -4 -14 0.46 0.51
2 4 -14 -0.19 0.45
-6 2 -14 1.96 0.9
4 -6 -14 1.08 0.82
-6 2 -14 0.12 0.72
-6 4 14 0.84 0.92
-4 6 -14 1.02 0.99
-4 -2 14 0.26 0.97
-6 2 -14 0.44 0.46
2 -6 14 0.69 0.92
-4 6 -14 0.82 0.92
-2 -4 -14 0.48 0.86
-2 6 14 0.73 0.69
4 2 14 0.95 0.44
-5 -1 -14 2.78 0.9
-1 6 -14 2.66 0.74
-5 6 14 1.95 0.75
1 -6 -14 1.91 0.93
-6 5 -14 2.7 0.91
-5 -1 -14 2.1 0.6
-1 6 -14 2.31 0.88
-6 1 14 0.66 0.98
-6 1 14 1.65 0.68
5 -6 14 2.21 1.03
-1 -5 14 1.46 0.91
1 5 14 1.63 0.69
-6 5 -14 1.92 0.96
-6 5 14 1.69 0.76
6 -5 14 1.62 0.93
1 -6 14 1.63 0.9
-1 6 14 1.02 0.68
-5 -1 14 2.21 0.97
-5 6 -14 3.99 1.06
-6 5 14 3.31 0.95
-6 1 -14 0.98 0.5
-6 1 -14 2.02 0.58
5 -6 -14 3.59 0.79
-6 1 -14 3.35 0.91
-5 6 -14 2.97 0.96
-1 -5 -14 2.5 0.93
1 5 -14 0.71 0.46
-6 6 -14 1.75 0.91
-6 0 14 1.9 0.51
-6 0 -14 1.7 0.59
-6 0 -14 2.68 0.9
0 6 -14 1.42 0.59
6 -6 -14 2.89 0.61
0 6 14 1.63 0.72
-6 0 14 0.9 0.96
0 -6 14 1.62 0.88
0 -6 -14 1.57 0.9
-6 6 -14 2.6 1.01
-6 6 14 0.5 0.67
6 -6 14 2.31 1.05
-4 7 14 11.56 1.47
-7 4 -14 11.97 1.82
-7 3 14 13.43 1.99
-3 -4 14 9.88 1.76
-4 -3 -14 9.71 1.28
-7 3 14 11.77 1.57
7 -3 14 11.3 1.65
-4 -3 -14 11.68 1.67
-7 4 -14 11.54 1.69
-3 7 -14 11.07 1.63
4 -7 14 11.95 1.83
-3 7 -14 11.68 1.8
3 4 14 10.98 1.5
3 -7 -14 11.44 1.79
-7 4 -14 8.83 1.13
-4 7 -14 9.51 1.71
-3 -4 -14 11.63 1.72
3 -7 14 12.01 1.77
4 -7 -14 11.31 1.65
-3 7 14 8.49 1.42
-7 4 14 10.77 2.07
-7 4 14 9.45 1.57
-4 7 -14 11.49 1.73
-7 3 -14 12.16 1.63
-4 -3 14 11.11 1.76
4 3 14 10.84 1.39
-3 -4 -14 10.14 1.24
-7 3 -14 9.53 1.2
7 -4 14 10.63 1.77
-7 3 -14 10.44 1.7
-2 7 -14 4.74 0.87
7 -2 14 3 0.7
-5 -2 -14 3.05 0.91
-7 2 14 3 1.09
2 -7 -14 5.7 1.06
5 -7 14 3.63 0.97
2 5 14 3.47 0.75
-7 5 -14 5.07 1.02
-7 5 -14 4.44 0.93
-2 -5 14 2.19 0.89
-2 7 -14 3.3 0.89
-7 2 14 2.56 0.84
-5 -2 -14 3.67 0.7
-5 7 14 4.64 0.82
-7 2 -14 1.62 0.67
-7 2 -14 2.73 0.89
-2 -5 -14 3.23 0.93
2 -7 14 2.15 0.85
-5 7 -14 2.37 0.94
-2 -5 -14 0.97 0.6
7 -5 14 2.44 0.94
5 2 14 1.34 0.5
-2 7 14 0.69 0.67
-7 5 14 1.5 0.75
-7 2 -14 1.89 0.58
-7 5 14 2.7 1.03
-5 -2 14 1.87 0.93
5 -7 -14 2.99 0.84
-5 7 -14 2.17 0.94
6 -7 14 17.68 2.06
-7 6 -14 14.82 1.84
-1 -6 14 12.96 1.91
-7 6 -14 17.95 2.18
-6 -1 -14 16.93 1.86
-7 1 14 14.08 2.16
1 -7 -14 16 2.02
-7 1 14 16.81 1.73
-1 7 -14 14.77 1.9
-6 7 14 14.89 1.69
-6 -1 -14 14.29 1.56
1 6 14 12.9 1.62
-1 7 -14 14.85 1.64
-7 1 -14 18.98 2
-6 -1 14 15.21 2.12
1 -7 14 15.81 2
-7 6 14 21 2.22
6 -7 -14 22.2 1.87
-7 1 -14 16.25 1.64
-1 7 14 15.33 1.78
-1 -6 -14 16.8 2.07
-6 7 -14 19.82 2.23
-6 7 -14 17.84 2.11
7 -6 14 19.2 2.21
-7 6 14 16.47 1.82
0 -7 -14 18.14 2.07
0 -7 14 15.17 1.95
-7 7 14 17.49 1.85
7 -7 -14 16.64 1.66
-7 0 -14 16.01 1.66
-7 0 14 16.36 2.09
0 7 -14 17.03 1.99
-7 7 -14 20.23 2.27
7 -7 14 20.93 2.2
-7 0 14 19.43 1.72
-7 0 -14 19.37 1.92
-7 7 14 20.89 1.89
-7 7 -14 17.93 2.05
0 7 14 16.38 1.77
-4 8 -14 1.02 0.8
-4 8 14 1.59 0.69
-4 -4 14 1.57 0.84
-8 4 -14 1.25 0.55
-4 8 -14 2.11 0.83
4 4 14 1.05 0.68
-4 -4 -14 1.46 0.86
-8 4 -14 2.21 0.84
-8 4 14 1.5 0.97
-8 4 14 1.35 0.78
-4 -4 -14 0.97 0.63
8 -4 14 0.91 0.83
4 -8 -14 1.17 0.84
-8 4 -14 1.55 0.81
-4 8 14 0.89 0.42
4 -8 14 0.92 0.8
-8 3 14 4.5 0.86
-8 3 14 4.3 1.14
8 -3 14 3.42 0.83
-5 -3 -14 4.28 0.74
5 -8 14 4.93 0.97
-3 -5 14 3.12 0.88
3 -8 -14 4.82 1.01
-8 5 -14 3.32 0.63
-5 -3 -14 5.03 0.93
-3 8 -14 4.93 0.89
3 5 14 3.75 0.76
-8 5 -14 5.09 0.96
-5 8 14 5.34 0.8
-8 5 -14 6.19 1
-3 8 -14 3.27 0.87
-3 8 14 3.17 0.75
8 -5 14 2.85 0.94
3 -8 14 1.66 0.81
-3 -5 -14 2.87 0.92
-8 3 -14 2.88 0.84
-5 8 -14 3.35 0.94
5 -8 -14 3.27 0.89
-5 8 -14 3.3 0.92
-8 5 14 3.38 1.04
-8 3 -14 2.19 0.75
-3 -5 -14 2.27 0.66
-8 5 14 1.87 0.76
-5 -3 14 2.21 0.9
5 3 14 2.16 0.67
-3 8 14 1.71 0.51
-8 3 -14 2.06 0.6
-6 -2 -14 8.92 1.51
-2 -6 14 7.26 1.06
-6 -2 -14 7.42 1.21
2 -8 -14 7.36 1.14
-2 8 -14 9.09 1.37
-8 6 -14 10.71 1.67
6 -8 14 8.35 1.7
-8 6 -14 6.9 1.05
-6 8 14 8.11 1.35
2 6 14 7.13 1.25
-8 2 14 7.76 1.41
-2 8 -14 7.57 1.54
-8 6 -14 6.81 0.99
-8 2 14 6.79 1.2
6 -8 -14 11.15 1.56
-6 8 -14 10.62 1.21
-8 6 14 7.75 1.37
8 -6 14 8.08 1.66
-8 6 14 6.59 1.19
-2 -6 -14 8.97 1.55
-8 2 -14 8.6 1.44
-2 8 14 7.53 1.11
-6 8 -14 8.77 1.74
6 2 14 7.32 1.04
-2 8 14 7.13 1.38
2 -8 14 6.77 1.05
-6 -2 14 7.82 1.13
-8 2 -14 7.55 1.15
1 7 14 1.66 0.69
1 -8 -14 1.87 0.89
-1 8 -14 1.78 0.77
-1 -7 14 2.3 0.78
-8 7 -14 1.38 0.4
-8 7 -14 2.15 0.85
-8 1 14 2.67 0.8
7 -8 14 2.67 0.95
-1 8 -14 2.25 0.65
-7 -1 -14 2.81 0.75
-8 1 14 1.3 0.92
1 7 14 1.69 0.52
-8 7 -14 2.95 0.9
-7 -1 -14 2.98 0.66
-7 8 14 2.47 0.68
7 -8 -14 4.11 0.76
-7 8 -14 1.93 0.85
8 -7 14 2.87 0.99
1 7 -14 2.97 0.81
-7 -1 14 1.2 0.85
1 -8 14 2.33 0.77
-1 -7 -14 2.54 0.88
-8 1 -14 2.64 0.72
-8 7 14 2.07 0.69
-8 1 -14 1.83 0.62
-7 8 -14 2.56 0.96
-1 8 14 3.41 0.73
-1 8 14 2.64 0.62
-7 -1 14 1.51 0.42
-8 7 14 3.17 0.93
-8 8 14 9.37 1.28
-8 8 -14 6.89 1.05
-8 0 -14 7.94 1.21
-8 0 -14 8.75 1.13
0 8 14 9.07 1.24
0 -8 -14 7.44 1.11
0 8 14 6.93 1.25
0 -8 14 8.56 1.32
-8 0 14 7.6 1.12
8 -8 -14 6.09 1
-8 8 -14 10.9 1.78
0 8 -14 8.42 1.4
-8 0 14 8.62 1.31
8 -8 14 9.69 1.79
-4 -5 14 0.23 0.76
-9 4 14 -0.04 0.93
-5 -4 -14 0.8 0.62
4 -9 -14 0.67 0.81
-9 5 -14 0.68 0.55
5 -9 14 0.79 0.77
-5 -4 -14 1.36 0.76
-9 5 -14 0.77 0.79
-5 9 14 0.61 0.58
-9 5 -14 1.16 0.79
-9 4 14 -0.09 0.71
-4 9 -14 -0.04 0.72
9 -4 14 0.2 0.74
4 5 14 0.29 0.65
-5 9 14 0.87 0.64
-4 9 -14 0.32 0.78
-9 4 -14 1.04 0.55
-4 -5 -14 0.24 0.61
-9 5 14 0.57 0.97
-5 9 -14 0.97 0.8
5 4 14 0.58 0.66
-5 9 -14 1.35 0.77
-4 9 14 0.71 0.61
-4 -5 -14 0.96 0.8
9 -5 14 0.58 0.83
4 -9 14 0.73 0.76
5 -9 -14 0.54 0.82
-4 9 14 1.21 0.66
-9 4 -14 0.54 0.76
-9 5 14 0.74 0.74
-5 -4 14 -0.07 0.77
-9 4 -14 0.93 0.72
-9 6 -14 3.28 0.88
-3 9 -14 2.94 0.8
3 -9 -14 2.21 0.92
-6 -3 -14 2.65 0.64
-3 9 -14 1.77 0.73
-6 9 14 2.11 0.58
-9 3 14 2.18 1.04
3 6 14 2.58 0.7
-6 -3 -14 2.77 0.74
3 6 14 1.43 0.45
-9 6 -14 2.06 0.6
9 -3 14 1.36 0.66
-9 3 14 0.99 0.75
-6 9 14 3.12 0.68
-9 6 -14 3.21 0.86
-3 -6 14 1.49 0.73
6 -9 14 3.12 0.86
3 -9 14 1.53 0.74
-6 9 -14 1.67 0.84
-3 9 14 1.24 0.64
-6 9 -14 1.13 0.81
-9 3 -14 1.35 0.68
-3 -6 -14 1.14 0.62
-3 9 14 1.33 0.65
9 -6 14 1.75 0.87
-6 -3 14 0.06 0.8
6 3 14 1.8 0.65
-3 -6 -14 1.7 0.85
-9 3 -14 0.53 0.6
-9 6 14 0.98 0.95
6 -9 -14 2.21 0.84
-9 3 -14 1.06 0.56
-9 6 14 1 0.7
-2 -7 14 4.01 0.79
-9 7 -14 4.54 0.66
-9 7 -14 5.63 0.94
7 -9 14 5.09 0.95
-9 2 14 4.47 1.09
-7 9 14 4.41 0.7
-7 -2 -14 5.56 0.99
-2 9 -14 3.89 0.85
-9 7 -14 6.58 1.01
-2 9 -14 4.15 0.82
2 -9 -14 5.27 1
-7 9 14 4.12 0.66
2 7 14 4.38 0.76
-7 -2 -14 4.52 0.73
2 7 14 4.57 0.7
-9 2 14 2.3 0.83
-9 7 14 4.09 1.04
-9 7 14 3.66 0.74
-2 9 14 3.72 0.74
-7 9 -14 4.01 0.86
9 -7 14 5.53 0.99
7 2 14 3.44 0.6
7 -9 -14 5.57 0.9
-7 9 -14 6.1 0.95
-2 9 14 5.48 0.75
-9 2 -14 3.71 0.67
2 -9 14 2.87 0.77
-2 -7 -14 3.43 0.9
-9 2 -14 3.4 0.64
-7 -2 14 3.21 0.91
-1 -8 14 7.53 1.12
1 8 14 7.79 1.25
8 -9 14 8.98 1.66
-1 9 -14 5.35 1.01
-8 -1 -14 8.31 1.19
-8 9 14 7.41 1.18
1 8 14 7.79 1.24
-9 8 -14 6.9 0.91
-9 1 14 6.02 1.08
-9 1 14 6.19 0.97
-9 8 -14 8.45 1.45
-1 9 -14 6.02 1.25
-8 9 14 7.43 1.01
1 -9 -14 7.64 1.09
-9 8 -14 9.86 1.69
-9 8 14 7.38 1.23
1 8 -14 6.43 1.15
8 -9 -14 9.36 1.2
1 -9 14 5.24 1.18
-9 8 14 7.73 1.64
-8 -1 14 5.52 0.92
-9 1 -14 6.64 1.13
-1 9 14 7.41 1.24
-8 9 -14 7.38 1.03
9 -8 14 8.49 1.74
-1 -8 -14 8.13 1.06
-8 9 -14 8.21 1.62
-1 9 14 7.35 1.24
-9 9 14 2.37 0.49
-9 0 14 3.02 0.85
9 -9 14 4.04 0.89
0 9 -14 2.07 0.51
0 -9 14 2.22 0.49
-9 9 -14 1.88 0.37
0 9 14 3.45 0.68
-9 0 14 2.42 0.71
0 -9 -14 3.91 0.89
-10 5 -14 1.15 0.55
5 5 14 0.3 0.31
5 -10 -14 -0.31 0.76
-5 -5 -14 0.58 0.63
5 5 14 0.61 0.62
-5 10 -14 0.28 0.72
-5 10 14 1.22 0.55
-5 -5 14 0.14 0.67
-10 5 -14 1.27 0.73
-5 10 -14 0.57 0.74
-10 5 -14 0.87 0.67
5 -10 14 0.39 0.71
-10 5 14 -0.51 0.85
-5 10 14 -0.24 0.62
-5 -5 -14 0.93 0.67
-10 5 14 -1.14 0.66
-6 10 14 5.01 0.78
4 6 14 4.19 0.63
-10 6 -14 5.06 0.9
-4 -6 14 5.33 1.08
-10 6 -14 3.87 0.84
-6 -4 -14 6.41 0.8
4 6 14 4.22 0.74
6 -10 14 3.82 0.84
-4 10 -14 4.06 0.85
4 -10 -14 6.4 1.01
-6 -4 -14 3.99 0.68
-10 4 14 4.21 1.05
-6 10 14 4.37 0.69
-10 6 -14 5.17 0.71
-4 10 -14 4.89 0.87
-10 4 14 5.33 0.86
6 -10 -14 3.01 0.89
-10 4 -14 2.6 0.7
4 -10 14 3.01 0.74
-10 6 14 2.77 0.71
-4 10 14 3.54 0.64
6 4 14 3.06 0.68
-4 -6 -14 3.27 0.67
-10 6 14 4.61 1.02
-6 10 -14 2.89 0.78
-10 4 -14 1.86 0.58
-6 -4 14 2.66 0.78
-4 10 14 3.02 0.71
-6 10 -14 3.2 0.85
-4 -6 -14 2.87 0.8
-10 4 -14 3.2 0.61
-10 7 -14 9.88 1.24
-10 7 -14 12.63 1.68
7 -10 14 11.04 1.59
-3 -7 14 9.97 1.17
-10 3 14 8.32 1.24
-3 10 -14 9.49 1.4
-10 3 14 7.85 1.08
-7 10 14 10.7 1.23
3 7 14 9.83 1.3
-7 -3 -14 12.5 1.39
-10 7 -14 11.01 1.49
3 7 14 11.96 1.26
-7 10 14 10.37 1.34
3 -10 -14 9.9 1.22
-3 10 -14 9.3 1.42
3 -10 14 7.75 1.22
-7 -3 14 6.35 0.99
-3 -7 -14 6.46 1.1
-3 -7 -14 6.5 1.01
7 3 14 8.4 1.19
-10 3 -14 8.13 1.09
-10 7 14 7.85 1.16
7 -10 -14 7.67 1.08
-7 10 -14 8.61 1.48
-10 3 -14 5.72 0.99
-3 10 14 8.39 1.09
-3 10 14 9.08 1.27
-7 10 -14 8.63 1.46
-10 7 14 8.18 1.23
-2 10 -14 1.21 0.64
2 8 14 1.76 0.62
-10 8 -14 1.85 0.76
-10 8 -14 2.01 0.55
-8 10 14 1.12 0.61
2 8 14 1.38 0.63
8 -10 14 2.49 0.8
-10 2 14 0.34 0.71
2 -10 -14 1.07 0.82
-8 -2 -14 0.15 0.36
-10 2 14 0.14 0.86
-2 10 -14 0.73 0.52
-8 -2 -14 2.57 0.66
-2 -8 14 1.01 0.36
-8 10 14 1.45 0.54
-8 10 -14 2.07 0.73
8 2 14 1.32 0.45
-2 10 14 2.18 0.64
2 -10 14 1.42 0.5
-10 2 -14 2.87 0.63
-2 10 14 1.93 0.57
8 -10 -14 1.57 0.74
-8 10 -14 2.09 0.81
2 8 -14 0.91 0.39
-8 -2 14 0.68 0.77
-10 8 14 1.5 0.6
-10 8 14 1.84 0.92
-2 -8 -14 1.57 0.76
-10 9 -14 5.3 0.88
-10 1 14 3.89 0.94
-1 10 -14 4.81 0.77
-10 1 14 5.43 0.88
-9 -1 -14 6.49 1.15
-9 10 14 6.02 1.07
-10 9 -14 6.75 0.92
1 9 14 6.55 1.13
1 -10 -14 5.36 0.95
-10 9 -14 7.38 1.44
-9 10 14 6.5 1.06
1 9 14 5.64 1.06
9 -10 -14 3.36 0.57
-9 -1 14 2.96 0.57
-10 9 14 4.02 0.81
-10 9 14 2.74 0.48
-1 10 14 4.16 0.69
-10 1 -14 3.95 0.68
-9 -1 14 2.28 0.8
-1 10 14 5.03 0.66
-1 -9 -14 4.51 0.86
-10 9 14 4.26 0.61
-10 10 14 4.38 0.67
0 10 14 6.08 0.99
-10 0 14 3.43 0.85
-10 10 -14 7.28 1.4
-10 10 -14 5.06 0.69
-10 0 14 4.1 0.77
0 10 14 6.52 1.1
-10 10 14 4.12 0.7
-10 10 -14 5.78 0.84
-10 10 14 6.11 1.01
5 6 14 5.02 0.71
-5 11 -14 3.41 0.75
-11 6 -14 4.23 0.67
-5 -6 14 4.86 0.77
-11 6 -14 5.03 0.85
-6 -5 -14 5.85 0.76
6 -11 14 4.25 0.78
-6 11 14 5.56 1.03
-5 11 -14 3.98 0.8
-11 5 14 3.41 0.75
5 6 14 5.38 0.94
5 -11 -14 3.38 0.83
-6 11 14 4.78 0.74
-11 6 -14 3.49 0.63
-11 5 14 3.88 0.99
-6 -5 14 3.31 0.64
5 -11 14 3.19 0.71
-5 -6 -14 2.7 0.59
-5 11 14 4.17 0.65
-6 11 -14 3.62 0.76
-11 6 14 3.04 0.71
-11 6 14 2.15 0.87
-11 5 -14 3.9 0.63
-6 11 -14 3.56 0.77
6 5 14 4.31 0.69
6 -11 -14 3.32 0.86
-11 5 -14 4.1 0.77
-5 11 14 3.58 0.71
-5 -6 -14 4.96 0.74
-4 -7 14 0.66 0.29
-4 11 -14 0.53 0.53
-7 -4 -14 0.85 0.61
-11 4 14 -0.93 0.8
-11 7 -14 0.17 0.61
4 7 14 0.93 0.59
-4 11 -14 0.47 0.67
-11 7 -14 0.43 0.53
-7 11 14 0.78 0.53
-11 7 -14 1.13 0.76
-7 -4 -14 0.39 0.33
-11 4 14 -0.5 0.67
-7 11 14 -0.01 0.61
4 7 14 0.71 0.59
4 -11 -14 -0.18 0.79
7 -11 14 0.69 0.69
-11 7 14 0.08 0.82
-4 11 14 0.64 0.62
-11 7 14 0.45 0.58
4 -11 14 0.96 0.54
-7 -4 14 1.05 0.63
7 -11 -14 -0.1 0.76
-7 11 -14 0.89 0.74
-4 -7 -14 0.67 0.6
7 4 14 1.16 0.58
-7 11 -14 1.28 0.69
-11 4 -14 0.82 0.52
-11 4 -14 1 0.54
-4 -7 -14 1.06 0.63
-4 11 14 1.37 0.52
-11 8 -14 13.54 1.67
3 8 14 13.31 1.41
-11 8 -14 12.22 1.31
-8 11 14 13.11 1.35
-8 11 14 12.61 1.38
-3 11 -14 12.28 1.41
-11 8 -14 13.48 1.51
-8 -3 -14 13.92 1.37
-11 3 14 9.27 1.78
3 -11 -14 11.23 1.67
3 8 14 12.28 1.35
-11 3 14 10.61 1.53
-3 -8 -14 9.18 1.41
-11 8 14 8.84 1.67
-8 -3 14 9.49 1.4
8 -11 -14 10.88 1.53
-3 11 14 9.21 1.17
-3 -8 -14 7.83 1.13
-11 3 -14 11.3 1.18
-11 8 14 10.19 1.22
-8 11 -14 8.4 1.43
8 3 14 8.27 1.15
-3 11 14 8.72 1.2
-8 11 -14 9.55 1.44
2 9 14 7.46 1.12
-11 2 14 7.7 0.96
-11 9 -14 7.43 1.04
-9 -2 -14 7.49 1.19
2 9 14 7.95 1.12
2 -11 -14 8.98 1.06
-11 9 -14 8.71 1.56
-11 2 14 8.27 1.09
-9 11 14 6.33 1.16
-11 9 -14 8.14 1.29
-9 11 14 7.62 1.07
-2 11 -14 6.6 1
-11 9 14 5.31 0.94
-2 11 14 5.6 0.68
-11 9 14 4.86 0.91
-9 11 -14 4.6 0.84
-11 2 -14 5.54 0.7
9 2 14 4.42 0.75
-9 -2 14 3.1 0.8
-2 11 14 4.84 0.71
-9 11 -14 5.49 0.82
9 -11 -14 7.47 1.08
-2 -9 -14 4.18 0.81
1 -11 -14 -0.05 0.7
1 10 14 -0.02 0.5
1 10 14 0.56 0.55
-1 11 -14 0.36 0.32
-11 10 -14 0.65 0.46
-10 -1 -14 0.83 0.55
-10 11 14 0.03 0.54
-11 10 -14 1.01 0.74
-10 11 14 0.86 0.49
-11 10 -14 0.35 0.66
-11 1 14 -0.24 0.68
-10 -1 -14 0.69 0.51
-10 11 -14 0.87 0.66
-10 11 -14 0.41 0.22
-10 -1 14 0.63 0.44
-1 11 14 0.55 0.54
-10 -1 14 -0.05 0.65
-10 11 -14 0.99 0.69
-11 1 -14 -0.02 0.3
10 -11 -14 0.29 0.36
-1 11 14 0.91 0.48
-11 10 14 0.25 0.45
-11 10 14 0.92 0.48
-11 10 14 2.02 0.53
-11 1 -14 1.52 0.56
-1 -10 -14 0.76 0.66
0 -11 -14 0.03 0.65
-11 0 -14 0.24 0.53
-11 11 -14 0.24 0.34
0 11 14 0.04 0.46
-11 0 -14 -0.11 0.39
-11 11 -14 0.13 0.66
-11 11 14 0.2 0.47
-11 11 14 -0.15 0.54
-11 11 -14 0.02 0.64
-11 0 14 -0.29 0.63
0 11 14 -0.03 0.52
-6 12 14 0.34 0.56
6 -12 14 1.14 0.54
-6 12 14 1.34 0.51
-12 6 -14 0.19 0.38
6 -12 -14 -0.07 0.64
-6 -6 -14 0.22 0.33
-12 6 14 0.68 0.58
-12 6 -14 1.65 0.52
6 6 14 1.21 0.54
-6 12 -14 1.13 0.67
-12 6 -14 1 0.66
-6 12 -14 0.36 0.54
-12 6 14 0.01 0.74
-6 12 14 -0.24 0.34
-6 -6 -14 0.74 0.58
-12 5 14 7.39 1.11
5 7 14 8.81 1.18
-7 12 14 8.01 1.23
-7 -5 -14 9.18 1.19
-5 12 -14 8.87 1.26
5 -12 -14 8.08 1.38
-12 7 -14 10.23 1.4
-7 12 14 9.97 1.16
-12 7 -14 8.99 1.11
-12 5 14 7.4 1.22
5 7 14 9.89 1.17
-5 -7 -14 7.39 1.1
-7 12 -14 6.8 1.2
7 5 14 6.74 1.09
-7 12 -14 7.9 1.34
-5 12 14 7.26 1.14
7 -12 -14 6.69 0.98
-12 7 14 8.07 1.06
-12 5 -14 8.39 1.11
-12 7 14 7.27 1.16
-5 12 14 7.15 1.08
-12 5 -14 6.36 1.17
-12 8 -14 15.76 1.65
-4 12 -14 15.36 1.5
-12 4 14 12.02 1.52
4 -12 -14 12.13 1.63
-12 8 -14 13.75 1.34
-8 12 14 14.19 1.38
-8 12 14 12.71 1.44
4 8 14 13.44 1.38
-12 8 -14 12.02 1.25
4 8 14 15.87 1.43
-12 4 14 11.55 1.77
-8 -4 -14 14.85 1.43
-8 -4 14 8.71 1.03
-4 12 14 9.29 1.21
-4 12 14 9.54 1.16
-8 12 -14 9.95 1.3
-12 4 -14 11.41 1.21
8 4 14 9.06 1.12
-12 8 14 9.44 1.13
-12 8 14 7.98 1.58
8 -12 -14 10.9 1.48
-4 -8 -14 8.02 1.03
-4 -8 -14 10.01 1.2
-8 12 -14 10.95 1.43
-12 9 -14 1.33 0.73
-12 3 14 -1.09 0.71
-9 -3 -14 0.62 0.55
-9 12 14 0.77 0.49
3 9 14 0.52 0.53
-12 3 14 -0.82 0.6
-12 9 -14 0.33 0.48
-9 12 14 -0.13 0.54
3 9 14 0.42 0.5
-12 9 -14 0.94 0.55
3 -12 -14 -0.79 0.67
-3 12 -14 1.13 0.57
-3 12 14 0.22 0.54
-9 12 -14 0.15 0.69
9 3 14 0.69 0.47
-3 -9 -14 0.66 0.54
9 -12 -14 1.15 0.63
-12 3 -14 0.14 0.53
-3 12 14 0.49 0.49
-3 -9 -14 0.22 0.53
-9 12 -14 0.42 0.61
-12 9 14 0.75 0.46
-12 9 14 0.26 0.21
-9 -3 14 0.87 0.51
-12 9 14 0.5 0.76
-12 10 -14 8.29 1.36
-10 12 14 7.54 0.95
-12 10 -14 7.18 1.11
2 10 14 6.38 0.99
2 10 14 7.52 1.02
-12 2 14 6.22 0.93
-12 2 14 5.13 0.83
2 -12 -14 6.12 0.89
-10 -2 -14 6.76 1.1
-10 -2 -14 6.09 1.05
-10 12 14 5.79 1.06
-12 10 -14 6.82 0.94
-12 10 14 3.37 0.71
-10 12 -14 3.48 0.7
-2 -10 -14 3.2 0.64
-10 -2 14 2.38 0.61
10 -12 -14 1.99 0.45
-2 12 14 3.54 0.58
-2 12 14 2.89 0.54
-12 10 14 2.96 0.53
-12 10 14 2.63 0.44
-10 12 -14 4.28 0.76
1 11 14 4.73 0.9
1 -12 -14 5.67 0.81
-11 -1 -14 5.58 0.95
-12 11 -14 6.81 0.85
-11 -1 -14 5.1 0.93
-12 1 14 5.73 0.84
-12 11 -14 7 1.12
-11 12 14 5.76 1.05
-11 12 14 5.97 0.91
1 11 14 5.22 0.98
-12 11 -14 6.84 1.29
-12 11 14 3.25 0.54
-1 12 14 3.07 0.58
-1 -11 -14 4.01 0.68
-12 11 14 2.2 0.54
-1 12 14 3.81 0.56
-11 12 -14 2.95 0.69
-11 12 -14 3.23 0.72
-11 -1 14 2.52 0.45
-11 -1 14 2.44 0.63
-12 1 -14 4.54 0.6
-12 12 14 0.26 0.38
0 12 14 0 0.45
-12 0 -14 -0.16 0.41
-12 12 -14 0.36 0.58
-12 12 -14 0.23 0.29
-12 12 14 -0.51 0.48
-12 0 14 -0.67 0.47
-12 12 -14 -0.09 0.6
0 12 14 -0.08 0.42
-12 0 14 -0.16 0.54
-12 0 -14 0.24 0.47
0 -12 -14 -0.31 0.55
-13 7 -14 3.22 0.72
-13 7 -14 4.61 0.61
-7 13 14 4.1 0.66
-6 13 -14 3.75 0.75
-13 6 14 3.12 0.84
-7 13 14 5.96 0.83
6 7 14 4.22 0.62
6 -13 -14 4.65 0.77
-13 6 14 5.42 0.7
-7 -6 -14 3.78 0.63
-7 13 -14 2.59 0.67
-13 7 14 3.21 0.59
-13 6 -14 1.77 0.6
-7 13 -14 1.34 0.44
-6 13 14 2.99 0.5
-13 7 14 1.62 0.73
-13 6 -14 2.25 0.56
7 -13 -14 1.64 0.67
7 6 14 2.41 0.56
-6 13 14 1.94 0.57
-6 -7 -14 2.53 0.56
-8 -5 -14 1.09 0.53
-5 13 -14 0.58 0.6
-13 8 -14 1.46 0.65
5 8 14 1.02 0.49
-8 13 14 0.16 0.52
-13 5 14 0.11 0.56
5 -13 -14 0.47 0.66
-13 8 -14 1.28 0.45
-13 5 14 0.24 0.7
-13 8 14 1.34 0.48
-13 8 14 1.19 0.71
-5 -8 -14 1.64 0.54
-13 5 -14 1.4 0.55
8 -13 -14 1.47 0.68
-8 13 -14 1.98 0.71
8 5 14 0.91 0.49
-8 13 -14 1.19 0.54
-5 13 14 1.62 0.45
-13 5 -14 0.56 0.37
-5 13 14 1.35 0.54
-9 13 14 26.05 1.97
4 -13 -14 22.98 2.13
-4 13 -14 22.96 2.03
-9 13 14 24.77 2.04
4 9 14 24.78 2
-13 4 14 23.48 2.08
-13 9 -14 22.95 1.94
4 9 14 24.59 2
-13 4 14 23.31 2.23
-13 9 -14 26.51 2.18
-9 -4 -14 26.07 1.99
-4 13 14 18.37 1.59
-13 9 14 19.15 1.94
-9 13 -14 18.44 1.74
-4 13 14 17.4 1.54
-9 13 -14 16.62 1.68
-4 -9 -14 18.5 1.58
-13 9 14 15.12 1.54
9 4 14 17.15 1.55
9 -13 -14 20.68 1.75
-13 4 -14 21.4 1.62
-10 13 14 8.87 1.11
-13 10 -14 8.54 0.99
-10 -3 -14 8.52 1.03
3 10 14 9.64 1.05
-10 -3 -14 7.84 1.18
-13 10 -14 11.02 1.43
3 10 14 8.43 1.01
-10 13 14 10.66 0.96
-13 3 14 7.69 1.2
-3 13 -14 7.12 0.86
-13 3 14 7.39 1.32
3 -13 -14 8.3 1.25
10 -13 -14 6.22 0.79
10 3 14 5.22 0.75
-13 10 14 6.56 1.17
-3 13 14 6.43 0.86
-10 13 -14 4.93 0.82
-3 13 14 5.78 0.93
-3 -10 -14 5.49 0.88
-10 13 -14 3.85 0.74
-13 3 -14 6.73 0.96
-13 10 14 5.25 0.85
-13 2 14 -0.66 0.51
-13 11 -14 0.4 0.42
-11 13 14 -0.06 0.49
2 -13 -14 0.41 0.58
2 11 14 0.41 0.42
-13 11 -14 0.82 0.66
2 11 14 0.48 0.46
-11 -2 -14 0.1 0.47
-13 11 -14 0.67 0.38
-13 2 14 -0.1 0.57
-11 13 14 1.04 0.34
-11 -2 -14 0.22 0.53
-2 13 14 0.47 0.46
-13 2 -14 0.78 0.5
-2 13 14 0.42 0.4
-13 11 14 0.76 0.37
-11 13 -14 0.23 0.6
-11 -2 14 0.77 0.27
-13 11 14 0.71 0.4
-13 2 -14 -0.05 0.26
-11 13 -14 0.84 0.54
-11 -2 14 0.35 0.28
-2 -11 -14 0.54 0.36
-13 12 -14 6.05 0.8
-13 12 -14 5.02 0.7
-12 -1 -14 4.86 0.86
1 -13 -14 5.55 1
-13 1 14 4.76 0.68
-12 13 14 5.39 0.9
-12 -1 -14 5.53 0.82
-13 1 14 5.25 1.05
1 12 14 5.54 0.85
-13 12 -14 5.78 1.14
-12 13 14 5.34 0.63
1 12 14 5.26 0.79
-12 13 -14 2.8 0.63
-13 1 -14 3.39 0.53
-12 -1 14 3.18 0.52
-1 13 14 2.9 0.51
-12 13 -14 2.23 0.61
-1 -12 -14 2.23 0.47
-1 13 14 2.66 0.45
-12 -1 14 2.65 0.45
-13 12 14 2.83 0.42
-13 12 14 2.25 0.49
-13 0 14 0.24 0.33
-13 0 -14 0.12 0.4
-13 13 14 0.32 0.4
-13 13 -14 0.29 0.51
0 13 14 0.19 0.34
-13 13 14 0.35 0.19
-13 0 -14 0.08 0.35
-13 13 -14 0.34 0.19
-13 0 14 0.74 0.27
0 -13 -14 0.37 0.39
0 13 14 0.17 0.42
-13 13 -14 0.49 0.44
-7 14 14 0.31 0.47
-14 7 14 0.05 0.64
-7 14 14 0.67 0.29
7 -14 -14 0.2 0.57
-7 -7 -14 0.98 0.47
-14 7 14 1.07 0.51
-14 7 -14 0.87 0.48
7 7 14 1.02 0.45
-14 7 -14 0.94 0.54
-7 14 -14 0.8 0.6
-14 6 14 8.46 1.37
6 -14 -14 9.56 1.22
-14 6 14 9.23 1.12
-14 8 -14 9.3 1.22
-8 14 14 8.53 1.1
6 8 14 9.55 1.03
-6 14 -14 9.63 1.14
-14 8 -14 9.12 0.98
-8 14 14 7.61 0.84
-8 -6 -14 10.6 1.02
8 6 14 9.47 1
-6 -8 -14 10.31 1.05
-14 8 14 9.02 1.04
-14 8 14 8.52 1.33
-6 14 14 7.88 0.85
-6 14 14 9.66 1.06
-8 14 -14 10.5 1.26
8 -14 -14 9.87 1.22
5 9 14 12.45 1.21
-14 9 -14 13.05 1.49
5 -14 -14 13.58 1.4
-14 5 14 11.09 1.48
-14 9 -14 11.47 1.19
-14 5 14 11.99 1.29
-9 14 14 12.58 1.25
-5 14 -14 13.78 1.27
-9 -5 -14 13.8 1.2
9 5 14 9.35 1.04
-5 14 14 8.19 0.86
-14 9 14 9.06 1.4
-5 -9 -14 9.65 1.03
9 -14 -14 11.31 1.19
-9 14 -14 8.73 1.28
-5 14 14 10.01 1.06
-14 9 14 8.32 1.05
-14 5 -14 11.35 1.09
4 10 14 10.32 1.04
-10 -4 -14 11.23 1.04
-14 4 14 8.89 1.34
-10 14 14 9.76 1.08
-10 -4 -14 9.7 1.12
-14 4 14 10 1.14
-14 10 -14 10.22 1.02
4 -14 -14 10.2 1.23
-4 14 -14 7.75 0.9
-4 14 14 11.4 1.16
-10 14 -14 11.62 1.34
10 -14 -14 10.44 1.05
-14 10 14 12.86 1.46
-4 -10 -14 12.73 1.12
-14 4 -14 13.8 1.17
10 4 14 11.74 1.09
-10 14 -14 9.35 1.12
-14 10 14 9.99 1.12
-14 11 -14 2.83 0.48
-11 -3 -14 2.98 0.58
-11 14 14 2.22 0.51
-14 3 14 2.92 0.58
3 11 14 4.27 0.74
3 11 14 2.63 0.46
-11 -3 -14 2.94 0.49
3 -14 -14 3.51 0.64
-14 11 -14 3.56 0.7
-14 3 14 2.42 0.63
-3 14 14 1.49 0.33
-11 14 -14 1.98 0.6
-11 14 -14 1.93 0.5
-14 11 14 2.01 0.39
-3 -11 -14 3.21 0.48
-3 14 14 1.97 0.48
-14 3 -14 2.63 0.52
2 12 14 7.24 0.84
-14 12 -14 6.77 0.76
2 -14 -14 6.22 0.93
-14 2 14 7.06 0.99
-14 2 14 6.92 0.92
2 12 14 6.35 0.8
-12 14 14 6.74 0.87
-12 -2 -14 6.28 0.86
-12 -2 -14 7.1 0.81
-12 14 -14 3.16 0.59
-12 14 -14 4.33 0.65
-14 12 14 4 0.53
-14 2 -14 5.23 0.76
-14 12 14 3.98 0.57
-2 14 14 3.1 0.5
-2 -12 -14 4.84 0.71
-2 14 14 4.61 0.78
-13 -1 -14 3.87 0.68
-14 1 14 4.07 0.57
-13 14 14 5.39 0.75
-13 -1 -14 5.73 0.68
1 13 14 5.97 0.72
-14 1 14 6.23 0.72
-14 13 -14 5.71 1.03
-14 13 -14 4.7 0.55
1 13 14 5.59 0.64
1 -14 -14 5.21 0.74
-13 14 -14 5.74 0.88
-1 14 14 4.03 0.49
-15 8 -14 6.79 0.96
-8 -7 -14 7.59 0.85
-15 7 14 7.9 1.26
-8 15 14 6.81 0.91
-15 7 14 8.19 0.99
7 -15 -14 7.02 1.03
-7 15 -14 7.66 1.01
-15 8 -14 9.14 0.91
7 8 14 7.55 0.89
-8 15 -14 8.34 1.05
-15 8 14 7.9 1.14
8 7 14 9.39 0.94
-7 -8 -14 8.94 0.92
-15 8 14 7.85 0.95
8 -15 -14 9.66 1.11
-7 15 14 8.63 1
-15 7 -14 10.68 0.98
-15 6 14 3.57 0.57
-6 15 -14 3.18 0.56
6 9 14 4.25 0.73
-15 6 14 4.48 0.74
-9 15 14 2.98 0.53
-15 9 -14 4.38 0.71
-15 9 -14 4.98 0.95
-9 -6 -14 4.2 0.69
6 -15 -14 4.35 0.67
9 -15 -14 6.23 0.89
9 6 14 5.56 0.74
-6 -9 -14 4.9 0.71
-15 9 14 4.43 0.76
-9 15 -14 4.61 0.73
-6 15 14 3.89 0.59
-15 9 14 5.1 1.08
-15 6 -14 5.72 0.76
5 10 14 17.78 1.45
-10 -5 -14 16.33 1.39
-15 5 14 18 1.64
-15 10 -14 18.4 1.63
-15 5 14 18.15 1.51
5 -15 -14 18.64 1.57
-10 15 14 16.73 1.45
-15 10 -14 15.77 1.41
-10 -5 -14 16.47 1.49
-15 10 14 16.48 1.47
-15 5 -14 19.46 1.49
-5 -10 -14 17.68 1.46
10 5 14 17.01 1.44
-5 15 14 17.24 1.5
-15 10 14 19.29 1.68
-10 15 -14 19.31 1.61
-11 -4 -14 8.29 0.97
-15 4 14 9.92 1.03
-15 4 14 9.08 1.16
-11 15 14 9.18 0.96
4 -15 -14 10.05 1.1
-15 11 -14 11.37 1.2
-11 -4 -14 8.87 0.87
4 11 14 8.02 0.91
-15 11 -14 9.39 0.89
-15 11 14 6.53 0.71
-4 15 14 6.68 0.85
-15 11 14 7.51 0.83
-4 -11 -14 6.44 0.78
-11 15 -14 7.78 0.95
-15 4 -14 7.18 0.85
-15 3 14 6.17 0.85
-15 12 -14 7.25 0.72
-12 -3 -14 5.77 0.63
3 -15 -14 6.2 0.86
-12 -3 -14 5.86 0.79
-3 -12 -14 6.92 0.79
-15 3 -14 7.14 0.76
-12 15 -14 6.96 0.92
0 0 15 0.33 0.35
0 0 -15 -0.23 0.76
0 0 15 -0.71 0.94
-1 0 -15 22.89 2.24
1 0 15 23.71 2.42
-1 1 15 24.53 2.38
1 -1 15 24.98 2.51
1 -1 -15 20.57 2.19
0 1 15 26.2 2.37
-1 1 -15 21.67 2.19
-1 0 15 23.39 2.49
0 -1 15 24.15 2.55
0 -1 -15 20.22 2.21
1 0 -15 21.34 2.12
0 1 -15 21.2 2.22
1 1 -15 6.16 0.97
-1 -1 -15 7.46 1.5
-2 1 15 6.58 0.96
-2 1 -15 5.32 1.05
-1 -1 -15 5.65 1.04
-2 1 -15 9.25 1.17
-1 2 15 9.23 1.64
2 -1 15 4.72 1.08
2 -1 -15 6.37 0.96
-2 1 15 8.49 1.21
1 -2 -15 7.63 1.05
-1 2 -15 7.88 1.07
-1 -1 15 7.79 1.22
1 -2 15 6.46 1.16
-1 2 15 8.48 1.19
1 1 15 8.59 1.52
-2 0 15 1.57 0.96
-2 2 15 1.82 0.67
2 0 -15 1.6 0.71
-2 2 -15 1.82 0.94
0 2 15 1.94 0.6
0 2 15 2.1 0.78
2 -2 15 1.29 0.96
0 2 -15 2.01 0.8
2 -2 -15 1.63 0.77
0 -2 -15 2.12 0.85
2 0 15 2.16 0.88
-2 2 -15 1.67 0.88
-2 2 15 1.15 0.92
0 -2 15 2.28 1.11
-2 0 -15 2.39 0.85
-2 0 -15 2.31 0.91
-2 3 15 0.76 0.77
-3 1 15 0.37 0.5
1 2 15 0.04 0.53
-3 2 -15 0.1 0.89
2 -3 15 0.36 0.94
3 -1 15 -0.4 0.85
-2 -1 -15 -0.72 0.83
-3 1 15 -0.25 0.92
2 1 -15 0.21 0.64
-1 -2 15 -0.47 1.02
-1 3 -15 0.68 0.99
3 -2 -15 0.32 0.66
-3 2 -15 -0.46 0.85
1 2 15 0.67 0.53
-1 3 -15 0.35 0.78
-2 3 15 -0.85 0.68
-2 -1 -15 0.4 0.65
1 -3 -15 -0.28 0.75
3 -2 15 0.46 0.89
-2 3 -15 1.37 0.95
-3 1 -15 0.88 0.84
-1 -2 -15 1.08 0.57
1 2 -15 0.68 0.7
-3 1 -15 1.26 0.87
-2 -1 15 0.9 1.05
2 1 15 2.36 0.69
2 -3 -15 1.92 0.81
-3 2 15 1.46 0.7
1 -3 15 1.6 1.08
-1 3 15 1.36 0.65
2 1 15 0.4 0.3
-2 3 -15 0.92 0.81
3 -1 -15 1.03 0.64
-1 3 15 1.22 0.71
-1 -2 -15 1.88 0.89
-3 2 15 1.24 0.95
0 -3 -15 1.21 0.87
-3 3 -15 2.1 0.94
3 0 -15 2 0.62
3 -3 15 1.75 0.94
0 3 -15 1.84 0.77
0 -3 15 2.19 1.04
3 -3 -15 3.34 0.78
-3 3 15 2.47 0.91
0 3 15 1.86 0.69
0 3 15 1.67 0.47
-3 0 15 2.26 1
3 0 15 1.87 0.8
-3 0 -15 2.45 0.91
-3 3 15 0.99 0.73
-3 0 -15 1.66 0.77
-3 3 -15 2.25 0.93
-2 -2 -15 0.04 0.35
2 -4 -15 0 0.75
-4 2 -15 -0.3 0.84
-4 2 -15 0.18 0.85
4 -2 -15 0.28 0.55
-4 2 15 -0.38 0.7
2 2 -15 0.09 0.57
-4 2 15 -0.52 0.89
-2 -2 -15 -0.01 0.27
-2 4 -15 0.35 0.77
-2 4 -15 0.84 0.93
2 2 15 0.2 0.35
-2 4 15 -0.79 0.65
2 -4 15 -0.35 0.97
2 2 15 0.65 0.54
4 -2 15 0.62 0.87
-2 -2 15 -1.03 0.93
-2 4 15 1.02 0.51
-2 -2 -15 0.68 0.84
-4 3 -15 27.19 2.48
-3 4 15 24.67 2.27
4 -3 -15 24.23 2.22
-4 3 -15 26.09 2.44
-1 -3 15 25.64 2.63
1 3 15 23.86 2.22
-1 4 -15 21.48 2.32
-4 1 15 22.96 2.58
3 -4 15 29.87 2.61
4 -1 15 24.45 2.41
1 -4 -15 21.95 2.39
-3 4 15 26.84 2.37
-3 -1 -15 26.09 2.44
-4 1 15 25.21 2.13
-1 4 -15 28.47 2.61
-1 -3 -15 28.26 2.55
-4 1 -15 25.7 2.56
-4 1 -15 28.11 2.56
-4 3 15 27.79 2.48
1 -4 15 30.61 2.76
3 -4 -15 26.57 2.49
-1 4 15 25.38 2.39
-3 4 -15 30.96 2.73
-3 4 -15 26.81 2.53
1 3 -15 26.5 2.38
-3 -1 15 28.91 2.73
4 -3 15 28.4 2.64
-4 3 15 29.28 2.75
0 4 -15 8.58 1.42
-4 4 15 7.55 1.45
-4 4 15 11.64 1.78
0 -4 -15 7.84 1.12
-4 0 -15 7.53 1.3
4 -4 15 8.48 1.71
-4 4 -15 8.72 1.14
-4 4 -15 10.5 1.76
-4 0 15 8.45 1.25
0 -4 15 10.22 1.31
4 0 15 6.88 1.23
-4 0 -15 8.3 1.15
0 4 15 7.17 0.98
5 -3 -15 10.68 1.3
-3 -2 -15 14.36 1.78
2 3 15 14.13 1.49
-5 2 15 14.38 1.63
2 -5 -15 12.67 1.73
-3 -2 -15 11.27 1.26
-5 3 -15 15.07 1.73
5 -2 15 13.2 1.81
-3 5 15 11.35 1.28
-5 2 15 12.66 2
3 -5 15 15.82 2.03
-2 5 -15 13.44 1.71
-2 5 -15 16.49 2.05
-5 3 -15 14.78 1.9
-2 -3 15 13.38 1.88
-3 5 15 12.12 1.56
5 -3 15 11.8 1.82
-5 2 -15 11.11 1.73
-3 -2 15 11.09 1.84
-5 3 15 10.55 1.47
-3 5 -15 10.36 1.63
3 2 15 10.82 1.22
2 -5 15 11.47 1.9
-2 -3 -15 8.99 1.08
-5 3 15 11.54 1.95
-2 -3 -15 12.55 1.7
2 3 -15 9.28 1.19
3 -5 -15 11.04 1.62
-2 5 15 9.01 1.45
-3 5 -15 13.95 1.9
-5 2 -15 10.96 1.73
-4 -1 -15 9.95 1.19
4 -5 15 12.32 2.02
5 -1 15 10.07 1.56
5 -4 -15 13.88 1.4
-1 5 -15 11.33 1.85
1 4 15 10.19 1.45
1 -5 -15 11.7 1.79
-1 5 -15 12.15 1.58
-1 -4 15 10.17 1.88
-5 1 15 12.91 1.42
-4 -1 -15 11.07 1.77
-4 5 15 13.62 1.55
-5 4 -15 13.3 1.92
-5 1 15 12.26 1.99
-5 4 -15 12.2 1.74
-4 5 15 9.97 1.52
1 4 -15 13.78 1.43
1 -5 15 13.15 1.92
-5 1 -15 13.37 1.76
-5 4 15 11.81 1.86
-1 -4 -15 12.52 1.75
-1 5 15 9.93 1.47
-4 5 -15 16.21 2.03
5 -4 15 12.57 1.9
-4 -1 15 12.82 1.96
-5 1 -15 9.06 1.17
-5 4 15 10.1 1.59
4 -5 -15 12.64 1.64
-5 1 -15 11.06 1.6
-4 5 -15 13.54 1.8
-5 0 -15 13.38 1.51
0 5 -15 17.15 1.76
0 5 -15 16.2 2
0 -5 15 14.71 2.03
5 -5 15 17.26 2.13
-5 5 -15 19.18 2.17
-5 0 15 18.24 2.07
-5 0 15 13.19 1.42
-5 0 -15 17.4 1.88
5 -5 -15 18.98 1.78
0 5 15 14.26 1.7
-5 5 15 14.99 1.77
-5 5 15 18.91 2.02
0 -5 -15 17.73 1.89
-5 5 -15 17.37 1.94
-6 3 15 -0.62 0.69
-6 3 15 -0.11 0.88
-3 6 -15 0.55 0.86
3 3 -15 -0.55 0.4
3 3 15 0.33 0.61
-6 3 -15 0.25 0.8
3 -6 -15 0.6 0.77
-3 -3 15 -0.69 0.82
-3 6 -15 0.96 0.76
-6 3 -15 0.23 0.37
3 -6 15 0.03 0.86
-3 -3 -15 0.62 0.84
6 -3 15 0.52 0.81
-6 3 -15 0.62 0.8
6 -3 -15 0.33 0.37
-3 -3 -15 0.01 0.53
-4 -2 -15 41.11 3.37
4 -6 15 48.89 3.7
-2 -4 15 42.55 3.64
-2 6 -15 43.01 3.52
-4 6 15 40.87 3.45
-2 6 -15 41.85 3.59
2 4 15 43.93 3.42
2 -6 -15 42.11 3.58
-6 2 15 46.66 3.51
-4 -2 -15 47.29 3.57
-6 2 15 45.44 3.68
6 -2 15 43.92 3.55
-6 4 -15 46.37 3.66
-6 4 -15 44.01 3.57
6 -4 15 41.97 3.43
-2 6 15 38.4 3.18
-2 -4 -15 36.72 3.11
-4 6 -15 47.13 3.5
2 -6 15 44.21 3.38
-6 4 15 44.5 3.44
4 2 15 36.58 3.09
-6 4 15 42.62 3.24
-6 2 -15 41.35 3.33
-6 2 -15 38.69 3.3
-6 2 -15 35.36 3.08
-2 -4 -15 39.61 3.34
-4 -2 15 41.5 3.42
-4 6 -15 39.57 3.29
4 -6 -15 41.57 3.34
-6 1 15 13.06 1.49
6 -1 15 9.26 1.29
5 -6 15 12.7 1.95
6 -5 -15 12.71 1.29
-1 6 -15 12.36 1.59
-6 5 -15 13.16 1.73
-1 -5 15 11.39 1.75
-6 5 -15 14.4 1.82
-5 6 15 9.25 1.45
1 5 15 11.54 1.42
-5 -1 -15 11.23 1.31
-6 1 15 12.38 1.94
-5 -1 -15 12.75 1.73
-5 6 15 12.53 1.37
1 -6 -15 12.04 1.69
-1 6 -15 11.12 1.73
-6 5 15 15.27 1.96
6 -5 15 15.33 1.82
-6 5 15 11.7 1.55
1 -6 15 13.99 1.81
-5 -1 15 12.72 1.89
-5 6 -15 14.27 1.69
1 5 -15 12.46 1.37
-1 -5 -15 14.78 1.79
-1 -5 -15 12.29 1.32
-6 1 -15 16.29 1.78
5 -6 -15 15.44 1.71
-6 1 -15 11.63 1.4
-6 1 -15 11.8 1.36
-1 6 15 12.48 1.52
0 -6 -15 3.66 0.9
6 -6 15 5.03 1.02
-6 6 -15 4.56 0.98
-6 0 -15 5.14 0.95
-6 0 15 3.71 0.96
-6 0 -15 3.74 0.66
0 -6 -15 2.44 0.56
-6 6 15 2.6 0.73
0 -6 15 3.04 0.87
-6 6 15 3.56 0.84
0 6 15 2.99 0.74
-6 6 -15 4 0.9
0 6 -15 4.81 0.76
0 6 -15 3.1 0.86
-6 0 15 4.54 0.83
6 -6 -15 4.33 0.77
-7 4 -15 29.23 2.48
-3 -4 15 26.4 2.56
4 -7 15 30.15 2.6
7 -3 15 29.26 2.5
-4 -3 -15 29.72 2.52
-7 4 -15 23.77 2.18
-7 4 -15 30.14 2.57
-3 7 -15 26.73 2.44
-4 7 15 27.21 2.35
3 -7 -15 28.69 2.48
-4 -3 -15 26.52 2.28
3 4 15 27.99 2.33
-7 3 15 30.43 2.46
-7 3 15 28.44 2.64
-3 7 -15 26.47 2.55
-7 3 -15 27.68 2.39
-4 7 -15 24.28 2.33
-3 -4 -15 27.05 2.41
3 -7 15 26.8 2.4
-3 -4 -15 24.03 2.15
-3 7 15 23.82 2.2
-4 7 -15 26.8 2.47
-4 -3 15 24.77 2.46
4 3 15 25.29 2.2
-7 4 15 27.88 2.54
7 -4 15 28.71 2.48
-7 3 -15 22.9 2.1
4 -7 -15 26.79 2.41
-7 4 15 27.51 2.3
-7 3 -15 24.84 2.32
-5 7 15 3.65 0.76
2 5 15 5.58 0.78
-2 7 -15 7.55 1.29
5 -7 15 4.59 0.96
-5 -2 -15 5.93 0.99
2 -7 -15 5.42 0.93
-7 2 15 3.64 0.82
-2 -5 15 4.19 0.93
-7 5 -15 5.56 0.96
-7 5 -15 4.38 0.91
-2 7 -15 5.35 0.93
-5 -2 -15 5.1 0.73
7 -2 15 4.16 0.78
-7 2 15 6.14 1.05
-7 2 -15 6.39 1.04
-2 7 15 4.85 0.82
5 -7 -15 5.44 0.97
-2 -5 -15 8.15 1.05
-5 7 -15 6.99 1
-7 5 15 6.92 0.89
5 2 15 8.01 0.94
-7 5 15 5.53 1.02
-5 -2 15 6.05 1.01
-5 7 -15 9.41 1.77
7 -5 15 8.23 1.63
-2 -5 -15 4.91 0.78
-7 2 -15 6.4 1.19
2 -7 15 6.9 1.45
-7 2 -15 6.14 0.98
6 -7 15 67.93 4.71
-6 -1 -15 61.39 4.6
-6 7 15 57.07 4.5
-7 6 -15 63.89 4.68
-7 1 15 64.14 4.53
-7 6 -15 60.6 4.6
-6 -1 -15 53.51 4.43
-7 1 15 61.42 4.66
1 -7 -15 61.5 4.62
1 6 15 55.86 4.48
-1 7 -15 57.61 4.52
-1 7 -15 55.42 4.6
-1 -6 15 55.85 4.6
7 -6 15 64.89 4.81
1 6 -15 58.73 4.75
-1 7 15 58.37 4.6
-1 -6 -15 65 4.75
-6 -1 15 61.2 4.79
-7 1 -15 54.9 4.57
1 -7 15 58.76 4.72
-1 -6 -15 55.84 4.58
-7 6 15 64.89 4.8
-6 7 -15 61.94 4.72
-7 1 -15 64.27 4.72
-7 6 15 61.34 4.64
6 -7 -15 62.67 4.71
-6 7 -15 70.26 4.85
0 7 -15 10.28 1.58
-7 7 -15 11.16 1.57
-7 7 15 9.88 1.39
7 -7 -15 11.03 1.24
-7 7 15 12.9 1.48
-7 0 15 11.6 1.2
-7 7 -15 13.56 1.79
0 -7 -15 11.41 1.65
0 -7 15 8.9 1.5
-7 0 -15 8.97 1.23
-7 0 15 11.43 1.68
0 7 -15 10.03 1.17
7 -7 15 13.49 1.83
0 -7 -15 9.7 1.24
0 7 15 9.49 1.37
-7 0 -15 11.71 1.56
-4 8 -15 1.05 0.76
-4 8 -15 1.53 0.69
-8 4 15 0.15 0.8
-4 -4 -15 -0.09 0.53
-4 -4 -15 0.56 0.79
4 4 15 0.71 0.61
8 -4 15 0.95 0.78
-4 8 15 0.32 0.6
-8 4 -15 0.37 0.51
4 -8 -15 1.1 0.72
-8 4 -15 1.24 0.7
-4 -4 15 -0.66 0.75
4 -8 15 0.77 0.76
-8 4 -15 0.95 0.78
-8 4 15 -0.43 0.65
-3 -5 15 26.49 2.49
-8 5 -15 25.57 2.22
-5 8 15 27.09 2.33
-3 8 -15 25.63 2.4
-3 8 -15 27.26 2.51
-8 5 -15 28.63 2.45
3 -8 -15 28.38 2.46
-8 3 15 28.68 2.64
3 5 15 28.86 2.31
-5 -3 -15 29.85 2.5
8 -3 15 27.39 2.45
5 -8 15 29.85 2.52
-8 5 -15 29.99 2.5
-5 -3 -15 25.81 2.28
-8 3 15 31.65 2.43
-8 3 -15 34.38 2.72
-8 5 15 32.98 2.65
-8 3 -15 29.06 2.52
8 -5 15 36.01 2.79
-8 3 -15 28.19 2.65
5 3 15 34.4 2.57
-5 8 -15 31.93 2.79
-5 8 -15 32.24 2.65
5 -8 -15 32.8 2.75
3 -8 15 32.96 2.72
-3 -5 -15 30.29 2.55
-3 8 15 30.9 2.59
-8 5 15 32.77 2.84
-3 -5 -15 32.16 2.74
-5 -3 15 29.71 2.71
2 6 15 21.42 1.9
-8 6 -15 21.87 2.06
-2 8 -15 19.89 1.96
-2 -6 15 17.88 2.06
6 -8 15 22.86 2.19
-6 -2 -15 19.34 1.83
2 -8 -15 21.67 2.07
-6 8 15 19.72 1.91
-6 -2 -15 22.01 2.07
-8 2 15 22.45 2.2
-2 8 -15 21.06 2.1
-8 2 15 20.8 1.97
-8 6 -15 23.05 2.12
2 -8 15 19.81 2
-8 2 -15 19.14 1.72
-2 -6 -15 21.17 2.01
-2 8 15 17.76 1.82
-8 2 -15 21.31 1.97
-6 -2 15 18.96 2.06
8 -6 15 22.71 2.08
-8 6 15 19.37 1.85
-8 6 15 22.72 2.21
6 -8 -15 22.39 2.06
-6 8 -15 21.98 1.96
-6 8 -15 20.87 2.14
2 6 -15 19.85 2.08
6 2 15 17.12 1.64
-2 -6 -15 20.11 1.8
-8 7 -15 20.13 1.98
-7 -1 -15 18.17 1.74
-7 8 15 17.05 1.64
7 -8 15 20.53 2
-8 7 -15 19.21 1.82
-1 -7 15 14.96 1.75
-1 8 -15 16.17 1.83
-7 -1 -15 15.98 1.58
-1 8 -15 15.03 1.62
-8 1 15 16.86 1.73
-8 1 15 15.45 1.91
1 7 15 16.52 1.64
1 -8 -15 16.8 1.8
1 -8 15 16.68 1.77
-7 -1 15 16.68 1.88
-1 8 15 15.9 1.65
-8 7 15 16.88 1.7
-8 1 -15 18.7 1.75
-7 8 -15 18.02 1.84
-8 7 15 18.85 1.93
-8 1 -15 16.24 1.58
-7 8 -15 20.55 2.01
7 -8 -15 17.52 1.73
-1 -7 -15 17.21 1.79
1 7 -15 17.03 1.85
-1 -7 -15 16.07 1.6
-8 8 -15 27.58 2.24
-8 8 -15 29.9 2.37
0 8 -15 23.95 2.23
-8 0 -15 23.26 2.06
0 -8 15 23.02 2.16
0 8 15 23.91 2.08
-8 8 15 23.71 2.05
0 8 15 21.84 1.96
-8 8 15 27.07 2.11
0 -8 -15 26.27 2.25
-8 0 15 26.23 2.03
-8 0 15 24.26 2.26
0 -8 -15 24.42 2.05
-8 0 -15 23.26 2.01
-5 -4 -15 11.03 1.25
4 -9 -15 11.52 1.44
-4 9 -15 12.48 1.59
-5 -4 -15 11.88 1.53
-9 5 -15 11.14 1.25
-9 4 15 10.98 1.62
-9 5 -15 12 1.52
-5 9 15 12.86 1.33
-9 4 15 11.39 1.43
5 -9 15 13.43 1.59
-4 9 -15 10.25 1.46
-9 5 -15 13.51 1.51
4 5 15 11.72 1.36
-4 -5 15 9.49 1.55
5 -9 -15 13.45 1.58
-5 -4 15 9.44 1.56
-9 5 15 11.43 1.48
-4 -5 -15 12.78 1.52
-5 9 -15 13.59 1.63
-4 9 15 11.55 1.19
-9 5 15 12.26 1.66
5 4 15 13.15 1.38
-5 9 -15 10.72 1.4
-9 4 -15 12.43 1.28
-9 4 -15 12.65 1.52
-4 9 15 13.66 1.35
-9 4 -15 11.16 1.49
-4 -5 -15 12.37 1.33
4 -9 15 12.98 1.55
-9 3 15 -1.21 0.64
-3 9 -15 -0.33 0.68
-9 3 15 -1.09 0.74
-6 9 15 0.02 0.3
-3 -6 15 -0.27 0.62
3 6 15 -0.2 0.56
-9 6 -15 0.02 0.71
3 6 15 -0.21 0.22
-6 -3 -15 1.14 0.69
-6 -3 -15 -0.32 0.5
-9 6 -15 0.34 0.71
-6 9 15 -0.06 0.52
-9 6 -15 -0.15 0.47
3 -9 -15 0.3 0.71
-3 9 -15 -0.8 0.63
6 -9 15 0.67 0.72
3 -9 15 0.3 0.65
-9 3 -15 0.5 0.49
6 -9 -15 0.1 0.69
-9 6 15 -0.21 0.56
-3 9 15 0.2 0.52
-6 -3 15 -0.83 0.69
6 3 15 0.21 0.52
-9 3 -15 0.14 0.66
-6 9 -15 0.56 0.67
3 6 -15 -0.06 0.67
-9 3 -15 -0.18 0.49
-3 -6 -15 -0.65 0.52
-3 9 15 -0.3 0.46
-9 6 15 -0.14 0.74
-3 -6 -15 0.68 0.69
-6 9 -15 0.21 0.7
-2 9 -15 26.74 2.38
-9 7 -15 32.65 2.55
-7 -2 -15 27.61 2.3
-7 -2 -15 27.81 2.35
7 -9 15 33.74 2.53
-2 9 -15 26.93 2.5
-9 7 -15 30.15 2.44
-9 2 15 30.22 2.59
-9 2 15 30.08 2.46
-9 7 -15 25.91 2.23
-2 -7 15 26.11 2.4
2 -9 -15 29.94 2.53
2 7 15 28.96 2.33
-7 9 15 30.56 2.34
-7 9 -15 29.02 2.54
7 -9 -15 33.7 2.56
2 -9 15 28.39 2.49
-2 9 15 30.27 2.37
2 7 -15 30.08 2.53
-2 -7 -15 30.39 2.55
-2 -7 -15 28.99 2.39
-2 9 15 31.07 2.43
-7 9 -15 32.03 2.52
-9 7 15 30.64 2.43
-9 2 -15 26.59 2.39
-9 2 -15 28.39 2.37
-9 7 15 31.96 2.61
-7 -2 15 29.45 2.56
-9 1 15 12.27 1.63
-8 9 15 15.3 1.36
-1 9 -15 13.92 1.5
-9 8 -15 15.29 1.56
1 -9 -15 13.33 1.62
1 8 15 13.72 1.36
1 8 15 12.74 1.25
-9 1 15 13.24 1.48
-1 -8 15 12.8 1.39
-1 9 -15 11.16 1.23
-9 8 -15 16.35 1.73
-8 -1 -15 13.55 1.34
-9 1 -15 15.02 1.46
-8 9 -15 18.9 1.83
-1 9 15 16.96 1.45
-8 9 -15 18.38 1.71
-8 -1 15 13.79 1.68
-9 8 15 18.47 1.68
1 8 -15 14.78 1.56
-1 9 15 14.22 1.44
-9 8 15 16.77 1.52
-1 -8 -15 16 1.72
8 -9 -15 14.88 1.45
1 -9 15 13.62 1.54
-1 -8 -15 14.75 1.47
0 -9 -15 -0.03 0.48
0 9 -15 0.29 0.38
-9 0 -15 0.35 0.48
0 9 15 0.35 0.49
-9 0 -15 -0.13 0.34
-9 0 15 -0.08 0.42
-9 9 15 0.26 0.26
0 -9 15 0.22 0.38
9 -9 -15 -0.01 0.45
0 9 15 0.41 0.5
-9 0 15 -0.5 0.66
-9 9 -15 0.15 0.3
0 9 -15 0.17 0.39
-9 9 -15 0.71 0.68
-9 9 -15 0.28 0.65
-9 9 15 0.68 0.49
0 -9 -15 -0.15 0.66
-10 5 -15 0.62 0.5
-5 -5 -15 0.74 0.64
-10 5 -15 0.23 0.62
-5 10 -15 0.59 0.64
5 5 15 -0.21 0.53
-10 5 -15 0.37 0.6
-5 -5 -15 0.2 0.48
-10 5 15 -0.21 0.58
-10 5 15 0.04 0.67
-5 -5 15 -0.22 0.62
5 -10 -15 0.27 0.64
5 -10 15 0.68 0.63
-5 10 -15 -0.01 0.61
-5 10 15 0.1 0.5
-5 10 15 1.15 0.48
-10 6 -15 0.47 0.65
-10 4 15 -0.73 0.6
-4 10 -15 0.53 0.59
-6 -4 -15 0.76 0.5
-10 6 -15 -0.1 0.63
-10 6 -15 0.1 0.47
4 6 15 0.13 0.53
-6 10 15 0.18 0.45
-10 4 15 -0.67 0.72
4 6 15 -0.05 0.2
-4 -6 15 0.36 0.54
-6 10 15 0.79 0.46
6 -10 15 0.91 0.65
-6 -4 -15 0.39 0.48
4 -10 -15 0.42 0.65
-4 10 -15 0.32 0.62
-10 4 -15 -0.05 0.49
-10 6 15 0.02 0.55
-10 4 -15 0.42 0.47
4 -10 15 0.67 0.59
6 4 15 0.65 0.51
-10 6 15 -0.04 0.69
-6 10 -15 -0.09 0.63
-10 4 -15 0.47 0.55
-4 10 15 0.32 0.51
-6 10 -15 0.92 0.63
-4 10 15 1.08 0.5
-4 -6 -15 0.53 0.51
4 6 -15 0.8 0.6
-4 -6 -15 0.81 0.64
6 -10 -15 0.46 0.65
-6 -4 15 -0.29 0.61
-10 7 -15 1.02 0.7
-3 10 -15 0.5 0.59
-10 7 -15 1.07 0.66
-7 10 15 1.12 0.46
-10 7 -15 0.54 0.46
3 -10 -15 0.43 0.67
-3 10 -15 0.3 0.58
7 -10 15 1.92 0.67
-7 -3 -15 0.59 0.51
3 7 15 0.33 0.3
-7 -3 -15 0.49 0.33
3 7 15 0.85 0.52
-3 -7 15 0.82 0.45
-10 3 15 -0.05 0.69
-7 10 15 0.39 0.4
-10 3 15 -0.58 0.61
3 7 -15 2.22 0.54
-3 10 15 2.46 0.57
7 3 15 2.67 0.5
-10 7 15 2.41 0.79
-7 10 -15 2.81 0.71
-3 10 15 2.57 0.56
7 -10 -15 3.59 0.75
-10 7 15 3.1 0.6
-3 -7 -15 2.95 0.71
3 -10 15 2.28 0.62
-7 10 -15 3.25 0.7
-3 -7 -15 2.19 0.57
-10 3 -15 3.17 0.55
-7 -3 15 2.13 0.7
-8 10 15 0.54 0.44
-2 -8 15 0.5 0.31
-10 8 -15 0.23 0.38
-10 8 -15 0.72 0.69
-8 -2 -15 0.16 0.51
-10 2 15 -1 0.58
-2 10 -15 -0.07 0.42
-10 8 -15 0.17 0.65
-8 -2 -15 0.31 0.43
2 8 15 0.04 0.4
-8 10 15 0.55 0.33
-2 10 -15 0.65 0.48
2 8 15 0.04 0.49
2 -10 -15 -0.48 0.63
-10 2 15 -0.51 0.65
-2 -8 -15 0.15 0.49
-2 10 15 0.51 0.51
-8 -2 15 -0.53 0.61
-8 10 -15 0.26 0.59
-8 10 -15 0.53 0.62
-10 8 15 0.31 0.49
-2 10 15 0.03 0.46
-10 2 -15 -0.23 0.46
-10 2 -15 0.32 0.45
-10 8 15 0.07 0.66
-2 -8 -15 0.26 0.63
8 2 15 0.19 0.22
2 8 -15 0.29 0.33
2 -10 15 0.33 0.43
-9 10 15 5.21 0.62
-10 9 -15 5.7 0.6
-10 1 15 8.49 1.29
-9 10 -15 10.23 1.26
-10 9 15 10.29 1.09
-10 9 15 10.56 1.16
-9 -1 15 7.95 1.39
-1 10 15 9.87 1.15
-10 1 -15 10.5 1.14
-9 10 -15 11.07 1.35
-1 -9 -15 10.67 1.34
-1 -9 -15 8.66 1.11
-1 10 15 11.12 1.12
-10 0 -15 17.33 1.42
-10 0 15 14.02 1.62
-10 0 15 13.69 1.31
-10 10 -15 15.75 1.54
0 10 15 15.13 1.4
0 -10 -15 13.91 1.36
0 -10 -15 16.24 1.56
0 10 15 16.64 1.41
-10 10 -15 18.99 1.7
-10 10 15 14.53 1.41
5 -11 -15 -0.03 0.59
-6 11 15 0.57 0.44
-5 11 -15 0.33 0.58
-6 11 15 0.23 0.48
-6 -5 -15 0.3 0.29
5 6 15 0.47 0.48
-5 11 -15 0.41 0.52
-11 6 -15 0.28 0.6
-11 6 -15 0.32 0.45
-5 -6 15 0.47 0.31
-6 -5 -15 -0.02 0.5
-11 5 15 -0.38 0.67
6 -11 15 0.79 0.56
-11 6 -15 0.53 0.38
-11 5 15 -0.49 0.54
-5 -6 -15 0.56 0.39
-5 -6 -15 0.01 0.47
-11 6 15 -0.46 0.63
-11 5 -15 0.28 0.54
6 5 15 -0.13 0.47
-11 6 15 0.01 0.53
-5 11 15 -0.19 0.51
-6 11 -15 0.2 0.56
-6 -5 15 0.68 0.42
-5 11 15 0.33 0.44
5 -11 15 1.15 0.54
6 -11 -15 0.23 0.61
5 6 -15 0.64 0.35
-6 11 -15 0.26 0.58
-11 5 -15 0.3 0.47
-11 5 -15 -0.09 0.28
-7 -4 -15 0.73 0.53
-4 11 -15 0.94 0.59
4 7 15 1.07 0.31
-7 11 15 0.65 0.47
-4 11 -15 0.56 0.44
-11 7 -15 1.37 0.52
-4 -7 15 0.25 0.22
4 7 15 0.42 0.48
-11 7 -15 0.64 0.62
-11 4 15 -0.18 0.67
-11 7 -15 0.78 0.45
-11 4 15 -0.02 0.55
-7 11 15 1.14 0.45
4 -11 -15 0.5 0.64
4 7 -15 0.15 0.27
7 -11 -15 1 0.62
7 4 15 0.67 0.45
-4 11 15 0.79 0.44
-11 7 15 0.59 0.51
-11 7 15 0.64 0.67
-4 -7 -15 1.35 0.51
-7 11 -15 0.72 0.56
-7 -4 15 1.03 0.5
-4 -7 -15 0.54 0.47
-7 11 -15 1.1 0.64
-11 4 -15 0.38 0.34
-11 4 -15 0.73 0.48
-4 11 15 0.82 0.51
4 -11 15 0.29 0.43
-8 11 15 -0.24 0.41
-11 3 15 -0.87 0.62
-11 8 -15 0.04 0.42
3 -11 -15 -0.47 0.61
-8 -3 -15 -0.14 0.5
-8 11 15 0.23 0.43
-8 -3 -15 -0.23 0.28
-11 8 -15 0.13 0.63
-3 11 -15 0.34 0.46
3 8 15 0.11 0.37
-3 11 -15 -0.13 0.25
-11 8 -15 0.01 0.53
3 8 15 0.03 0.45
-11 8 15 0.31 0.46
3 -11 15 0.06 0.26
-11 3 -15 0.73 0.45
-8 -3 15 0.62 0.54
8 3 15 0.43 0.31
-3 11 15 0.31 0.49
-8 11 -15 0.29 0.56
8 -11 -15 1.83 0.56
-3 11 15 0.36 0.42
-8 11 -15 0.82 0.64
-11 8 15 0.26 0.65
-3 -8 -15 1.06 0.55
-3 -8 -15 0.52 0.47
-11 2 15 3.97 0.73
-11 9 -15 6.03 0.72
2 -11 -15 5.69 0.8
-11 9 -15 7.58 1.3
2 9 15 5.91 0.94
-11 2 15 6.46 0.85
-9 11 15 5.56 0.76
-9 11 15 5.21 0.85
-11 9 -15 6.32 1.04
2 9 15 6.47 0.88
-9 -2 -15 6.9 0.92
-11 9 15 6.9 0.96
-9 11 -15 6.04 1.12
-2 -9 -15 4.82 0.72
-9 11 -15 4.98 0.76
9 -11 -15 4.14 0.69
-2 11 15 4.94 0.91
-2 11 15 4.93 0.79
-11 9 15 4.99 0.86
-11 2 -15 5.9 0.93
-2 -9 -15 5.11 0.85
-9 -2 15 4.91 1.02
-11 10 -15 3.69 0.67
-11 1 15 3.83 0.71
1 10 15 4.79 0.8
1 10 15 4.39 0.58
1 -11 -15 4.5 0.68
-11 1 15 2.67 0.57
-10 -1 -15 3.91 0.59
-11 10 -15 4.92 0.77
-10 11 15 4.08 0.56
-10 -1 15 2.97 0.66
-1 11 15 2.81 0.5
-10 11 -15 4.29 0.7
-11 1 -15 4.2 0.58
-1 11 15 3.99 0.56
-1 -10 -15 3.74 0.54
-11 10 15 3.28 0.52
-1 -10 -15 3.04 0.63
-10 11 -15 3.68 0.65
-11 11 -15 1.17 0.57
-11 11 -15 0.85 0.56
-11 0 -15 0.41 0.44
0 -11 -15 0.34 0.4
0 -11 -15 0.66 0.51
-11 11 15 0.58 0.39
-11 11 15 0.3 0.19
0 11 15 0.74 0.41
-11 0 15 0.18 0.53
-11 0 15 0.44 0.22
0 11 15 0.45 0.38
-6 12 -15 5.17 0.7
-6 12 15 4.77 0.63
-6 -6 -15 3.87 0.59
-12 6 -15 3.32 0.58
-12 6 15 3.47 0.61
-12 6 15 2.23 0.68
6 -12 -15 3.75 0.69
-6 12 15 4.2 0.79
-6 12 -15 3.42 0.71
-12 6 -15 4.59 0.77
6 6 15 3.74 0.54
-12 5 15 1.66 0.54
-12 7 -15 2.27 0.61
5 7 15 2.26 0.47
-12 7 -15 1.59 0.44
-12 5 15 1.18 0.67
-7 -5 -15 1.83 0.51
5 -12 -15 1.05 0.59
-7 12 15 1.31 0.49
-7 12 15 2.32 0.45
-5 12 -15 2.17 0.59
-7 12 -15 1.89 0.63
-5 12 15 1.71 0.49
-12 5 -15 2.32 0.48
-5 12 15 1.5 0.45
7 -12 -15 1.98 0.6
-12 5 -15 1.28 0.36
-12 7 15 1.45 0.51
-7 12 -15 1.95 0.52
-5 -7 -15 2.97 0.52
-12 7 15 1.3 0.64
7 5 15 2.65 0.48
4 -12 -15 0.82 0.6
-8 12 15 1.33 0.4
-8 -4 -15 0.16 0.29
4 8 15 0.77 0.41
-12 8 -15 1.08 0.59
-4 12 -15 0.66 0.49
-12 4 15 0.51 0.64
-12 4 15 0.54 0.53
-8 12 15 0.78 0.44
-8 -4 -15 0.89 0.47
-12 8 -15 0.75 0.41
-12 8 -15 0.54 0.26
-8 12 -15 -0.05 0.62
-12 8 15 -0.82 0.56
-12 4 -15 -0.01 0.43
-8 -4 15 0.47 0.23
-4 -8 -15 0.15 0.25
8 4 15 -0.08 0.35
-12 8 15 0.11 0.44
-8 12 -15 0.2 0.52
-4 -8 -15 -0.24 0.45
8 -12 -15 1.13 0.52
-4 12 15 -0.18 0.45
-4 12 15 -0.22 0.4
-3 12 -15 1.05 0.31
3 9 15 1.51 0.44
-9 12 15 1.79 0.41
-12 3 15 1.11 0.61
3 -12 -15 1.25 0.58
-12 9 -15 2.39 0.64
-12 9 -15 1.65 0.39
3 9 15 1.79 0.41
-9 -3 -15 1.61 0.48
-12 9 -15 1.14 0.35
-9 12 15 0.92 0.41
-12 3 15 1.08 0.51
-9 12 -15 1.24 0.54
-9 12 -15 1.93 0.64
-9 -3 15 1.3 0.31
-3 -9 -15 1.2 0.34
-12 9 15 1.34 0.42
-12 9 15 2.03 0.55
-12 3 -15 2.01 0.52
-3 12 15 1.25 0.44
-3 12 15 1.47 0.41
-3 -9 -15 1.79 0.44
-12 10 -15 1.97 0.44
2 10 15 2.03 0.42
-12 10 -15 1.43 0.31
-10 12 15 2.17 0.4
-12 2 15 1.46 0.51
-10 -2 -15 2.13 0.51
-12 10 -15 2.5 0.64
2 -12 -15 1.85 0.58
2 10 15 1.98 0.47
-10 12 15 1.6 0.36
-12 2 15 1.34 0.55
-12 2 -15 2.81 0.52
-2 12 15 1.64 0.45
-2 -10 -15 1.61 0.41
-2 -10 -15 1.94 0.43
-10 -2 15 3.01 0.59
-12 10 15 2.42 0.44
-10 12 -15 2.33 0.62
-12 10 15 1.89 0.44
-10 12 -15 1.76 0.55
-2 12 15 2.47 0.47
-12 1 15 8.74 1.09
-12 11 -15 9.34 0.91
-11 12 15 8.87 0.82
1 -12 -15 7.88 1.02
1 11 15 7.28 0.87
-12 1 15 7.04 0.8
1 -12 -15 7.44 0.85
-11 -1 -15 9.9 0.92
1 11 15 8.7 0.87
-1 -11 -15 7.61 0.88
-1 -11 -15 7.64 0.83
-11 12 -15 7.82 1.05
-11 -1 15 7.05 0.81
-12 1 -15 9.35 0.93
-1 12 15 7.75 0.86
-1 12 15 7.46 0.84
-12 11 15 7.1 0.84
-11 12 -15 9.05 1.01
0 12 15 8.09 0.84
0 -12 -15 8.03 0.88
-12 0 15 6.95 0.82
-12 12 -15 9.53 0.89
-12 12 15 8.24 0.76
-12 0 -15 9.27 0.9
0 -12 -15 8.11 0.83
-12 12 -15 8.95 1.06
0 12 15 7.42 0.83
-7 -6 -15 1.18 0.43
-7 13 15 0.99 0.43
-13 6 15 0.19 0.47
-13 7 -15 0.99 0.4
-13 7 -15 0.96 0.48
-6 13 -15 1.11 0.53
-7 13 15 0.9 0.33
6 7 15 0.63 0.38
6 -13 -15 0.84 0.52
-13 6 15 0.48 0.62
-7 13 -15 1.65 0.54
-6 13 15 1.11 0.42
-13 7 15 0.95 0.57
-6 13 15 1.3 0.34
-13 6 -15 1.07 0.39
7 -13 -15 0.77 0.53
7 6 15 1.23 0.39
-6 -7 -15 1.32 0.44
-13 6 -15 0.53 0.3
-13 7 15 1.29 0.46
-5 13 -15 0.25 0.45
5 -13 -15 -0.1 0.53
-13 8 -15 0.18 0.38
-8 -5 -15 0.15 0.42
-8 13 15 -0.17 0.4
-8 -5 -15 -0.16 0.29
-13 5 15 -0.84 0.55
-13 5 15 -0.36 0.44
-8 13 15 0.39 0.29
5 8 15 0.02 0.38
-13 8 -15 -0.17 0.51
-13 8 15 -0.25 0.41
-8 13 -15 -0.32 0.56
-5 13 15 -0.03 0.31
-5 -8 -15 0.42 0.4
8 5 15 0.03 0.35
-8 13 -15 -0.07 0.27
8 -13 -15 0.38 0.46
-5 13 15 -0.28 0.39
-13 8 15 0.2 0.58
-13 5 -15 0.08 0.43
-13 4 15 -0.7 0.52
-13 4 15 -0.37 0.44
4 9 15 0.04 0.37
-13 9 -15 0.07 0.35
-9 -4 -15 -0.16 0.39
-9 13 15 0.54 0.26
-13 9 -15 0.23 0.55
-9 13 15 -0.02 0.36
-4 13 -15 0.45 0.27
4 -13 -15 -0.62 0.5
-9 -4 -15 -0.18 0.25
-13 4 -15 0.14 0.44
-13 9 15 0.24 0.47
9 4 15 0.06 0.2
-13 9 15 -0.18 0.35
-4 13 15 0.32 0.32
9 -13 -15 0.58 0.29
-4 -9 -15 0.09 0.4
-9 13 -15 0.34 0.36
-9 13 -15 0.39 0.55
-4 13 15 0.08 0.39
3 -13 -15 3.59 0.61
-13 3 15 3.15 0.54
3 10 15 4.32 0.7
-13 3 15 3.04 0.62
-10 13 15 4.13 0.6
-10 -3 -15 4.07 0.71
-10 13 15 3.71 0.49
-13 10 -15 4.85 0.55
-13 10 -15 5.35 1
-10 13 -15 4.79 0.81
-3 -10 -15 6.97 0.76
-3 13 15 4.9 0.66
-10 13 -15 5.3 0.88
-13 3 -15 6.64 0.8
-13 10 15 4.35 0.61
-3 13 15 5.67 0.74
-13 10 15 5.33 0.75
2 11 15 8.92 0.85
-13 11 -15 10.78 1.15
-11 -2 -15 8.46 0.88
-13 2 15 7.7 0.85
-13 2 15 8.46 1.01
2 -13 -15 8.28 0.99
-11 13 -15 7.1 0.92
-13 11 15 7.11 0.79
-11 13 -15 8.61 0.96
-2 13 15 6.53 0.75
-13 2 -15 8.75 0.85
-2 -11 -15 8.73 0.84
-7 14 -15 0.19 0.46
-14 7 -15 0.15 0.37
7 -14 -15 0.26 0.44
-7 -7 -15 0.04 0.34
7 7 15 -0.1 0.33
-14 7 15 -0.62 0.51
-14 7 -15 -0.21 0.2
-7 14 15 0.21 0.14
-14 7 15 -0.42 0.4
-8 -6 -15 2.31 0.42
-14 8 -15 2.64 0.41
-6 -8 -15 2.76 0.42
-14 6 -15 2.44 0.46
0 0 -16 -0.41 0.71
0 0 16 -0.16 0.83
0 0 -16 -0.27 0.81
-1 0 16 0.25 0.86
-1 1 16 0.39 0.32
0 -1 16 0.56 0.86
-1 1 -16 0.8 0.82
0 1 16 0.56 0.84
0 1 -16 0.48 0.73
-1 0 16 0.25 0.39
-1 0 -16 0.45 0.74
0 -1 -16 0.35 0.68
-1 1 -16 -0.17 0.69
1 0 16 0.44 0.83
-1 1 16 0.37 0.86
0 1 -16 0.54 0.86
0 1 16 0.24 0.29
1 -1 16 0.32 0.85
-1 0 -16 0.65 0.77
1 -1 -16 -0.05 0.7
0 -1 -16 0.55 0.77
1 0 -16 -0.14 0.72
2 -1 -16 0.55 0.74
1 1 16 0.46 0.27
-1 2 16 0.12 0.53
2 -1 16 0.89 0.84
1 -2 -16 0.14 0.71
-1 2 -16 0.24 0.71
-1 2 16 0.73 0.8
-1 -1 -16 0.49 0.7
1 1 -16 -0.03 0.72
-2 1 16 0.1 0.85
-2 1 16 0.42 0.36
-2 1 -16 1.09 0.81
1 -2 16 0.14 0.83
1 1 16 0.67 0.75
-1 -1 16 0.08 0.85
-1 2 -16 0.69 0.88
-1 -1 -16 0.51 0.75
-2 1 -16 -0.08 0.75
-2 2 -16 6.36 0.92
-2 0 -16 6.79 0.95
0 2 16 5.06 0.95
0 -2 -16 3.51 0.78
0 -2 -16 5.36 0.87
-2 0 -16 2.66 0.83
0 -2 16 4.18 0.98
2 -2 16 5.05 0.99
0 2 -16 4.08 0.84
0 2 -16 4.43 0.96
-2 0 16 5.06 1
-2 2 -16 5.01 0.95
2 -2 -16 4.09 0.83
2 0 -16 4.25 0.85
2 0 16 3.28 0.89
-2 2 16 4.78 1
-2 2 16 3.52 0.68
0 2 16 3.55 0.82
1 -3 -16 11.53 1.5
-1 -2 16 12.13 1.91
2 -3 16 12.4 1.75
1 -3 -16 10.83 1.42
3 -1 16 13.28 1.73
-2 -1 -16 10 1.43
1 2 16 10.83 1.3
-3 2 -16 12.23 1.63
-3 1 16 12.21 1.7
3 -2 -16 11.55 1.45
-2 3 16 13.6 1.67
-2 3 16 12.21 1.43
-3 1 16 9.98 1.14
1 2 16 11.82 1.23
-1 3 -16 14.01 1.83
-1 3 -16 11.71 1.54
-3 2 -16 12.49 1.75
2 1 -16 10.79 1.49
-2 -1 -16 12.18 1.64
3 -2 16 13.05 1.77
-3 2 16 13.69 1.79
-1 3 16 12.64 1.47
-2 -1 16 13.04 1.93
2 -3 -16 11.24 1.52
-1 3 16 11.64 1.44
3 -1 -16 11.58 1.51
-3 1 -16 12.51 1.65
-2 3 -16 11.58 1.49
1 -3 16 14.99 1.91
-1 -2 -16 10.33 1.33
-3 1 -16 12.84 1.69
-3 2 16 11.88 1.4
2 1 16 11.47 1.48
1 2 -16 11.09 1.56
-1 -2 -16 12.48 1.61
-2 3 -16 14.71 1.82
0 -3 -16 1.64 0.77
0 3 16 0.88 0.41
-3 3 -16 2.9 0.8
3 0 16 1.59 0.71
0 -3 -16 0.78 0.42
3 -3 -16 2.05 0.73
3 0 -16 0.93 0.61
-3 0 -16 1.65 0.68
3 -3 16 2.05 0.84
-3 3 -16 2.25 0.85
0 3 -16 2.23 0.77
0 3 -16 2.39 0.88
0 -3 16 2.11 0.91
-3 3 16 1.2 0.67
-3 0 -16 2.24 0.81
-3 0 16 1.28 0.81
0 3 16 1.22 0.62
-3 3 16 1.68 0.84
-2 4 -16 0.98 0.72
4 -2 16 0.58 0.78
-2 -2 -16 -0.11 0.21
4 -2 -16 -0.27 0.57
-2 4 -16 0.4 0.82
-4 2 -16 0.13 0.74
2 2 -16 -0.08 0.58
-4 2 16 -0.08 0.61
-2 -2 16 -0.94 0.84
-2 -2 -16 0.56 0.77
-2 4 16 0.55 0.48
2 2 16 -0.37 0.3
2 -4 -16 -0.1 0.66
-4 2 16 0.06 0.8
2 -4 16 -0.6 0.85
2 2 16 0.76 0.41
-4 2 -16 -0.19 0.75
-2 -2 -16 -0.04 0.31
-2 4 16 -0.96 0.6
-1 -3 16 29.97 2.59
-3 4 16 27.5 2.4
1 -4 -16 25.81 2.37
1 3 16 26.75 2.25
-1 4 -16 28.28 2.58
4 -3 -16 25.29 2.32
-4 1 16 27.94 2.49
-4 3 -16 28.61 2.47
-3 4 16 25.26 2.3
4 -1 16 27.39 2.37
-1 4 -16 25.83 2.39
-3 -1 -16 27.31 2.44
-4 3 -16 27.3 2.44
3 -4 16 30.68 2.6
-4 1 16 23.95 2.15
-3 4 -16 26.14 2.42
-4 1 -16 29.19 2.51
1 3 -16 26.8 2.43
-4 3 16 27.71 2.39
-4 3 16 29.58 2.6
-1 -3 -16 28.32 2.48
1 -4 16 30.1 2.65
1 3 -16 29.17 2.66
3 -4 -16 26.35 2.43
4 -3 16 28.5 2.55
-3 4 -16 30.69 2.65
-4 1 -16 26.54 2.42
-1 4 16 26.42 2.38
-3 -1 16 31.36 2.64
-4 4 -16 9.58 1.43
0 4 16 7.57 1.22
4 -4 16 9.18 1.56
4 -4 -16 9.81 1.36
-4 4 16 8.49 1.31
-4 4 16 10.67 1.45
-4 0 -16 6.54 1.15
-4 4 -16 10.02 1.64
4 0 16 7.08 1.13
0 4 -16 9.65 1.69
0 -4 -16 9.16 1.36
-4 0 16 7.9 1.63
0 4 -16 9.25 1.39
-4 0 -16 8.88 1.51
0 -4 16 8.8 1.63
5 -2 16 6.05 1.25
-3 5 16 3.85 0.71
-5 2 16 4.51 0.73
5 -3 -16 2.84 0.57
-3 5 16 3.98 0.71
-3 -2 -16 4.7 0.88
-5 3 -16 6.51 0.9
-2 5 -16 6.05 0.86
-2 -3 16 4.99 0.93
-5 3 -16 5.3 0.87
2 3 16 4.08 0.68
-3 -2 -16 3.31 0.5
-5 2 16 4.98 0.89
-2 5 16 4.95 0.8
-5 3 16 6.35 0.97
3 2 16 5.85 0.79
3 -5 -16 4.88 0.86
2 3 -16 6.17 0.9
5 -3 16 7.52 1.5
-5 2 -16 6.96 0.97
-2 -3 -16 7.46 0.94
-3 -2 16 7.34 1.04
-3 5 -16 7.31 1.53
-3 5 -16 5.39 0.87
-5 3 16 4.78 0.83
-5 2 -16 7.08 1.28
2 -5 16 7.02 1
1 4 16 1.61 0.62
-4 -1 -16 2.53 0.83
-5 1 16 2.33 0.83
-1 -4 16 2.05 0.82
-5 1 16 2.17 0.51
-4 5 16 2.41 0.6
-5 4 -16 3.29 0.84
5 -1 16 2.32 0.65
-1 5 -16 3.05 0.82
1 -5 -16 3.44 0.77
-1 5 -16 2.77 0.77
-5 4 -16 2.78 0.8
5 -4 -16 1.81 0.6
-4 5 16 0.84 0.63
-4 -1 -16 1.52 0.43
4 -5 16 2.62 0.89
-5 1 -16 2.29 0.64
-4 5 -16 3.42 0.79
-5 4 16 2.47 0.68
-1 5 16 0.89 0.63
-5 4 16 3.11 0.84
5 -4 16 3.18 0.85
-4 -1 16 1.97 0.83
-1 -4 -16 2.59 0.77
-4 5 -16 2.3 0.84
1 -5 16 2.55 0.83
1 4 -16 2.92 0.8
-5 1 -16 3.1 0.83
1 4 -16 2.61 0.65
4 -5 -16 2.13 0.72
-5 0 -16 8.15 1.39
0 -5 -16 7.5 1.35
-5 5 16 9.46 1.38
-5 5 -16 7.53 1.64
-5 5 -16 8.05 1
5 -5 -16 7.77 1.19
-5 0 -16 5.82 0.89
5 -5 16 8.21 1.61
0 5 16 5.88 1.12
0 5 -16 6.32 1.36
-5 5 16 7.06 0.87
0 5 -16 6.77 1.21
-5 0 16 6.86 1.02
0 -5 16 8.38 1.03
-3 -3 -16 10.67 1.11
-3 6 -16 13.05 1.73
-3 -3 16 10.29 1.63
3 -6 -16 11.03 1.45
6 -3 16 13.15 1.53
-3 -3 -16 11.22 1.52
-3 6 16 8.54 1.3
3 3 16 11.49 1.22
-6 3 16 9.6 1.62
-6 3 -16 11.22 1.47
-6 3 -16 11.54 1.44
-3 6 -16 10.67 1.37
-6 3 16 10.19 1.42
3 -6 16 12.05 1.67
6 -2 16 6.26 1.16
-6 2 16 6.57 1.17
-2 6 -16 6.6 1.15
-2 -4 16 5.78 0.94
4 -6 16 7.59 1.53
-2 6 -16 6.15 0.92
-6 4 -16 6.29 0.92
2 4 16 5.08 0.76
-6 4 -16 7.07 1.41
-6 2 16 6.72 0.95
-4 -2 -16 6.36 0.91
2 -6 -16 5.91 0.85
-4 6 16 4.56 0.76
6 -4 16 9.09 1.48
-2 -4 -16 5.94 0.81
4 2 16 4.89 0.7
-6 2 -16 6.48 1.09
4 -6 -16 7.58 1.25
-2 6 16 5.02 0.77
-4 -2 16 8.12 0.99
-6 2 -16 5.08 0.74
2 4 -16 5.36 0.92
-2 -4 -16 6.35 0.94
-6 2 -16 7.62 1.3
-6 4 16 7.1 1.38
-4 6 -16 9.03 1.58
2 -6 16 6.87 0.96
-6 4 16 6.92 1.16
-4 6 -16 7.01 0.9
6 -5 -16 1.78 0.45
-1 6 -16 1.77 0.71
1 5 16 1.13 0.58
-6 5 -16 2.16 0.75
-5 6 16 1.4 0.4
-6 5 -16 2.36 0.77
-6 1 16 1.49 0.77
-6 1 16 1.54 0.48
-5 -1 -16 1.65 0.48
-1 -5 16 1.5 0.74
-5 -1 -16 3.03 0.77
5 -6 16 2.96 0.86
-5 6 16 1.84 0.63
-1 6 -16 1.58 0.63
1 -6 -16 2.27 0.73
1 5 -16 2.27 0.46
-1 6 16 1.39 0.61
-6 1 -16 2.48 0.48
1 5 -16 2.13 0.71
-5 6 -16 2.93 0.75
-6 5 16 2.08 0.75
-6 1 -16 2.86 0.75
1 -6 16 2.51 0.75
-6 1 -16 1.18 0.43
-5 6 -16 3.41 0.84
-1 -5 -16 1.42 0.37
-6 5 16 1.43 0.63
-1 -5 -16 2.9 0.74
5 -6 -16 2.12 0.68
-5 -1 16 1.78 0.76
6 -5 16 3.57 0.81
-6 0 -16 0.71 0.47
0 6 16 0.7 0.53
0 6 -16 1.67 0.7
0 6 -16 1.28 0.5
-6 0 16 1.01 0.73
6 -6 16 1.77 0.82
-6 0 -16 1.51 0.74
-6 6 -16 1.53 0.76
0 -6 -16 0.92 0.68
0 -6 16 1.42 0.7
-6 6 16 1.3 0.58
6 -6 -16 1.39 0.53
-6 6 16 0.03 0.57
-6 6 -16 1.27 0.68
-4 -3 -16 1.56 0.51
-7 4 -16 1.82 0.67
3 4 16 1.28 0.57
4 -7 16 2.33 0.75
-3 7 -16 2.56 0.65
-3 -4 16 0.89 0.72
-3 7 -16 2.13 0.73
7 -3 16 2.16 0.69
-4 7 16 1.98 0.6
-7 4 -16 2.13 0.74
3 -7 -16 1.86 0.67
-4 -3 -16 2.07 0.74
-7 3 16 1.65 0.65
-7 3 16 1.57 0.72
4 3 16 1.26 0.47
-7 3 -16 1.71 0.63
-7 3 -16 1.79 0.71
-3 -4 -16 2.27 0.74
-7 4 16 1.17 0.73
-3 7 16 0.64 0.55
-3 -4 -16 1.48 0.48
7 -4 16 1.9 0.73
-4 -3 16 1.5 0.77
-4 7 -16 1.38 0.61
-7 4 16 1.16 0.6
-7 3 -16 1.36 0.4
4 -7 -16 0.59 0.64
-4 7 -16 2.01 0.74
3 -7 16 2.21 0.72
-7 2 16 -0.09 0.73
-7 2 16 -0.59 0.56
7 -2 16 -0.01 0.46
-7 5 -16 -0.03 0.23
-2 -5 16 -0.21 0.66
5 -7 16 1.31 0.76
-7 5 -16 0.62 0.67
-5 7 16 -0.52 0.51
-2 7 -16 0.25 0.66
2 5 16 0.02 0.53
-5 -2 -16 0.32 0.47
2 -7 -16 -0.04 0.69
-7 5 -16 0.25 0.68
-5 -2 -16 0.72 0.7
-2 7 -16 0.03 0.59
-2 -5 -16 0.68 0.67
7 -5 16 1.63 0.73
-5 7 -16 1.12 0.75
5 2 16 0.53 0.23
-7 5 16 0.61 0.72
-5 7 -16 0.99 0.65
5 -7 -16 1.05 0.64
-7 2 -16 1.06 0.71
-2 7 16 -0.38 0.53
-2 -5 -16 1 0.45
-5 -2 16 0.13 0.67
-7 2 -16 0.68 0.44
-7 5 16 -0.72 0.56
2 -7 16 0.66 0.67
-7 2 -16 0.57 0.45
2 5 -16 0.53 0.68
-1 7 -16 0.98 0.64
1 6 16 0.84 0.51
-1 7 -16 0.14 0.52
1 -7 -16 0.91 0.66
-7 1 16 0.83 0.42
-7 6 -16 0.78 0.69
-6 -1 -16 1.71 0.69
-6 -1 -16 0.81 0.46
-6 7 16 0.07 0.54
-7 6 -16 0.58 0.64
7 -6 -16 0.15 0.32
-1 -6 16 0.75 0.64
-7 1 16 0.06 0.69
6 -7 16 1.94 0.75
-7 1 -16 1.36 0.69
-7 6 16 1.6 0.66
-7 6 16 0.29 0.56
-6 -1 16 1.09 0.71
-6 7 -16 1.16 0.64
1 6 -16 1.35 0.67
-1 -6 -16 0.92 0.66
6 -7 -16 2.45 0.59
-1 -6 -16 0.92 0.4
-1 7 16 0.49 0.52
-6 7 -16 1.82 0.72
1 -7 16 1.98 0.65
1 6 -16 0.26 0.31
-7 1 -16 1.14 0.46
7 -6 16 2.03 0.73
0 -7 16 1.46 0.61
0 -7 -16 1.19 0.35
-7 7 -16 1.88 0.67
-7 0 16 1.07 0.7
0 -7 -16 0.81 0.64
0 7 16 1.26 0.51
0 7 -16 1.41 0.64
-7 0 -16 1.36 0.63
-7 7 -16 2.13 0.71
0 7 -16 0.5 0.31
7 -7 -16 0.91 0.34
-7 7 16 1.36 0.56
-7 0 -16 0.98 0.47
-7 7 16 1.38 0.38
-8 4 16 2.68 0.65
-4 -4 -16 4.35 0.78
-8 4 16 3.3 0.77
-4 -4 16 3.71 0.74
-4 8 -16 4.1 0.74
4 -8 16 4.75 0.75
-8 4 -16 4.26 0.75
-8 4 -16 2.87 0.47
-8 4 -16 2.9 0.66
-4 8 -16 3.66 0.71
-4 -4 -16 3.07 0.55
-4 8 16 3.01 0.59
4 -8 -16 3.59 0.72
4 4 16 3.2 0.58
-3 8 -16 1.26 0.62
-3 -5 16 0.89 0.63
-8 3 16 1.06 0.68
-8 5 -16 1.12 0.61
-5 8 16 0.53 0.5
3 -8 -16 1.6 0.63
-5 -3 -16 1.05 0.47
-8 3 16 -0.21 0.55
-8 5 -16 0.48 0.26
-8 5 -16 1.76 0.67
5 -8 16 2.13 0.69
-5 -3 -16 1.67 0.7
3 5 16 0.8 0.51
-3 8 -16 1.2 0.64
-3 -5 -16 2.1 0.69
-8 3 -16 2 0.47
-8 3 -16 2.35 0.7
3 5 -16 3.04 0.73
-8 5 16 1.95 0.56
-8 5 16 1.89 0.71
-5 8 -16 2.84 0.71
-5 -3 16 1.58 0.69
-3 -5 -16 2.24 0.49
-3 8 16 1.29 0.55
3 -8 16 3.03 0.67
5 -8 -16 2.87 0.67
5 3 16 1.63 0.39
-5 8 -16 2.32 0.63
-8 3 -16 1.28 0.51
2 6 16 0.12 0.49
-2 8 -16 -0.06 0.6
-8 6 -16 0.11 0.62
-2 -6 16 -0.5 0.57
-6 8 16 -0.32 0.49
-6 -2 -16 -0.14 0.44
2 -8 -16 0.05 0.6
-2 8 -16 -0.46 0.51
-8 2 16 -0.41 0.66
-6 -2 -16 0.39 0.61
-8 6 -16 0.02 0.18
-8 2 16 -0.33 0.5
-8 6 -16 -0.06 0.62
6 -8 16 1.11 0.68
-8 2 -16 0.08 0.23
6 2 16 -0.13 0.18
2 -8 16 0.58 0.59
-6 8 -16 0.5 0.67
2 6 -16 0.13 0.62
-8 6 16 0.08 0.52
-2 -6 -16 0.01 0.64
6 -8 -16 1.42 0.57
-8 2 -16 0.18 0.43
-8 2 -16 0.22 0.62
-2 8 16 0.01 0.49
-6 -2 16 -0.09 0.62
-6 8 -16 0.43 0.62
-8 6 16 0.6 0.64
-2 -6 -16 0.22 0.43
-7 -1 -16 3.42 0.54
-1 -7 16 4.16 0.7
-8 7 -16 4.06 0.71
-7 8 16 3.7 0.61
1 7 16 2.69 0.57
-7 -1 -16 2.95 0.61
1 -8 -16 5.51 0.77
-8 7 -16 4.45 0.75
-1 8 -16 2.77 0.66
-8 1 16 4.24 0.77
-8 1 16 3.67 0.66
-1 -7 -16 4.75 0.73
7 -8 -16 6.31 0.74
1 7 -16 4.9 0.76
-1 -7 -16 5.11 0.77
-1 8 16 4.74 0.66
-7 8 -16 6.52 1.24
-7 8 -16 4.89 0.78
-8 1 -16 3.9 0.68
-8 7 16 6.64 0.96
1 -8 16 3.62 0.71
-8 1 -16 5.14 0.79
-8 7 16 5.78 0.69
-7 -1 16 3.85 0.77
-8 8 16 1.35 0.51
0 -8 -16 1.8 0.61
0 8 -16 1.84 0.55
-8 8 -16 2.93 0.68
-8 8 -16 2.51 0.67
0 8 16 1.74 0.48
0 -8 -16 1.39 0.38
-8 0 16 2.09 0.66
0 -8 16 1.71 0.5
-8 0 -16 2.04 0.46
-8 0 -16 0.77 0.34
-5 -4 -16 2.14 0.64
4 -9 -16 2.21 0.63
-9 4 16 1.95 0.55
-4 9 -16 2.29 0.63
4 5 16 2.13 0.51
-9 5 -16 2.15 0.6
-9 4 16 1.65 0.65
-5 -4 -16 2.22 0.48
-5 9 16 2.26 0.52
-9 5 -16 1.57 0.61
-4 -5 16 2.09 0.6
5 -9 16 2.99 0.63
-4 9 -16 1.85 0.6
-9 5 -16 2.17 0.4
-9 5 16 1.18 0.65
-9 5 16 1.01 0.54
-9 4 -16 1.34 0.5
-4 9 16 1.28 0.51
-9 4 -16 1.38 0.43
-9 4 -16 0.84 0.58
-5 9 -16 1.52 0.59
-4 -5 -16 1.37 0.45
4 -9 16 1.83 0.59
5 -9 -16 1.17 0.59
-4 -5 -16 1.8 0.65
5 4 16 1.45 0.42
-5 9 -16 1.27 0.57
4 5 -16 1.58 0.62
-5 -4 16 1 0.6
-6 -3 -16 1.57 0.47
-9 6 -16 1.73 0.62
-3 -6 16 1.61 0.54
-6 -3 -16 1.69 0.5
-3 9 -16 1.37 0.53
-9 3 16 0.76 0.52
-9 6 -16 1.58 0.62
3 -9 -16 1.95 0.64
-9 3 16 1.78 0.72
3 6 16 1.76 0.48
6 -9 16 2.64 0.65
-6 9 16 1.87 0.51
-3 9 -16 2.04 0.6
-6 9 -16 1.34 0.59
-9 6 16 2 0.65
-3 -6 -16 1.9 0.65
-3 -6 -16 1.78 0.46
-9 6 16 1.5 0.53
-6 9 -16 1.8 0.63
-3 9 16 1.62 0.49
3 6 -16 1.34 0.57
-9 3 -16 1.64 0.5
6 -9 -16 2.26 0.61
-6 -3 16 1.67 0.62
3 -9 16 2.33 0.57
-9 3 -16 1.85 0.47
-9 7 -16 2.17 0.62
-7 -2 -16 1.57 0.45
-7 9 16 1.86 0.49
-9 2 16 2.08 0.69
-2 9 -16 2.11 0.55
-2 -7 16 1.42 0.46
-9 7 -16 2.18 0.62
2 -9 -16 2.25 0.63
-9 2 16 1.83 0.48
-2 9 -16 1.28 0.4
-7 -2 -16 1.12 0.32
2 7 16 1.44 0.48
-2 9 16 4.22 0.57
2 -9 16 4.11 0.85
-9 7 16 3.06 0.58
-7 9 -16 3.26 0.63
-9 7 16 3.5 0.63
-2 -7 -16 3.56 0.53
2 7 -16 3.27 0.57
7 -9 -16 5.61 0.76
-7 -2 16 3.29 0.66
-2 -7 -16 3.5 0.64
-7 9 -16 3.9 0.68
-9 2 -16 3.34 0.53
-8 -1 -16 0.08 0.41
1 -9 -16 -0.01 0.56
-1 9 -16 0.16 0.36
-9 8 -16 0.67 0.54
-9 1 16 0.17 0.59
-9 8 -16 0.44 0.61
-8 9 16 0.22 0.45
-9 1 16 0.28 0.25
-1 -8 16 0.11 0.3
1 8 16 -0.18 0.43
-1 9 -16 0.25 0.26
1 -9 -16 0.28 0.24
-1 -8 -16 0.71 0.39
-1 -8 -16 0.89 0.55
8 -9 -16 0.21 0.3
1 8 -16 0.47 0.32
-9 1 -16 0.88 0.42
1 -9 16 1 0.4
-8 9 -16 1.02 0.6
-8 -1 16 0.57 0.57
-8 9 -16 1.56 0.58
-1 9 16 0.89 0.45
-9 1 -16 -0.17 0.39
-9 8 16 1.01 0.48
0 -9 -16 2.98 0.45
-9 9 16 3.71 0.55
-9 0 16 3.57 0.65
-9 9 -16 3.32 0.62
-9 0 -16 3.67 0.51
0 -9 -16 3.22 0.62
0 9 16 3.9 0.53
-9 9 -16 3.45 0.69
-5 -5 -16 4.42 0.57
-10 5 -16 4.28 0.65
-5 -5 -16 4.8 0.68
5 -10 -16 4.84 0.71
5 5 16 3.94 0.72
5 5 -16 5.12 0.85
-5 -5 16 4.54 0.79
-10 5 16 4 0.62
5 -10 16 6.2 0.89
-10 5 -16 4.25 0.88
-10 5 16 4.11 0.72
-5 10 -16 4.53 0.93
-5 10 -16 4.13 0.66
-10 5 -16 4.86 0.7
-5 10 16 4.13 0.59
-4 10 -16 0.28 0.46
-4 -6 16 0.24 0.32
-10 4 16 -0.12 0.46
-4 10 -16 0.43 0.5
-10 4 16 -0.07 0.61
-10 6 -16 0.75 0.3
-6 10 16 0.44 0.43
-6 -4 -16 0.93 0.44
4 6 16 0.79 0.41
-6 -4 -16 0.36 0.24
4 -10 -16 0.4 0.52
-10 6 -16 0.72 0.46
-10 6 -16 0.35 0.52
-4 -6 -16 0.68 0.42
-4 10 16 0.9 0.43
6 -10 -16 1.09 0.52
-4 -6 -16 1.07 0.47
-10 4 -16 1.08 0.41
4 -10 16 1.22 0.47
-6 -4 16 0.94 0.48
-10 6 16 0.96 0.49
-6 10 -16 0.78 0.52
-10 6 16 0.79 0.6
-10 4 -16 0.31 0.25
6 4 16 0.89 0.3
4 6 -16 0.66 0.34
-6 10 -16 1.21 0.5
-7 -3 -16 0.22 0.38
-10 7 -16 0.02 0.18
3 -10 -16 -0.69 0.56
-7 10 16 -0.39 0.41
-10 7 -16 0.07 0.49
-10 7 -16 -0.12 0.55
3 7 16 -0.34 0.4
-10 3 16 -0.53 0.6
-3 10 -16 0.46 0.4
-10 3 16 -0.6 0.43
-3 -7 16 0.06 0.21
-3 10 -16 -0.33 0.33
-7 10 -16 -0.17 0.48
7 3 16 0.03 0.15
7 -10 -16 0.17 0.41
-3 10 16 -0.03 0.17
-10 7 16 -0.32 0.5
-3 10 16 -0.42 0.42
-3 -7 -16 -0.33 0.49
3 -10 16 0.02 0.34
3 7 -16 -0.01 0.23
-7 10 -16 -0.39 0.55
-10 7 16 -0.49 0.45
-7 -3 16 -0.09 0.48
-10 3 -16 -0.26 0.39
-3 -7 -16 -0.06 0.38
-8 -2 -16 4.62 0.72
-10 2 16 5.07 0.75
-10 2 16 4.19 0.69
2 -10 -16 4.89 0.7
-10 8 -16 4.86 0.86
-10 8 -16 4.94 1.01
2 8 16 5.01 0.79
-8 10 -16 5.09 0.98
-10 8 16 5.1 0.69
-2 -8 -16 6.09 0.92
-8 -2 16 6 0.95
-2 10 16 4.87 0.82
-10 2 -16 5.45 0.77
-10 8 16 5.38 0.86
-8 10 -16 5.84 0.99
-2 -8 -16 4.67 0.69
-9 -1 -16 0.75 0.38
-10 9 -16 0.76 0.57
1 -10 -16 0.66 0.24
-10 1 16 0.61 0.52
-9 10 16 0.79 0.37
-10 9 -16 0.98 0.5
1 9 16 0.83 0.39
1 -10 -16 1.35 0.55
-1 10 16 1.02 0.41
-9 10 -16 1.43 0.56
-9 -1 16 0.76 0.47
-10 9 16 1.42 0.45
-10 1 -16 1.36 0.4
-1 -9 -16 1.02 0.49
-1 -9 -16 1.01 0.36
-9 10 -16 1.03 0.54
0 -10 -16 1.38 0.33
0 10 16 1.83 0.4
-10 0 -16 2.24 0.43
0 -10 -16 2.16 0.49
-10 0 16 1.82 0.51
-10 10 -16 2.63 0.62
-10 10 -16 2.12 0.53
-10 10 16 1.72 0.4
6 5 -16 0.22 0.22
-11 5 16 -0.26 0.51
5 6 16 0.41 0.34
5 -11 -16 0.01 0.49
-6 11 16 0.17 0.35
-6 11 16 -0.06 0.22
-5 11 -16 1.09 0.48
-5 11 -16 -0.03 0.28
-11 5 16 0.15 0.42
-6 -5 -16 0.06 0.37
-11 6 -16 0.47 0.31
-11 6 -16 0.35 0.42
6 -11 -16 0.16 0.48
-5 -6 -16 0.03 0.29
-6 11 -16 0.27 0.39
-11 6 16 -0.5 0.52
-11 5 -16 0.31 0.36
-11 5 -16 0.19 0.22
-5 11 16 0.18 0.34
-11 6 16 -0.21 0.43
-6 11 -16 0.44 0.49
-5 -6 -16 0.25 0.38
-6 -5 16 0.17 0.17
-5 11 16 0 0.15
6 5 16 0.67 0.29
-11 4 16 1.41 0.61
-11 4 16 1.76 0.45
4 -11 -16 1.7 0.56
-11 7 -16 1.22 0.27
-11 7 -16 2.09 0.52
-4 11 -16 1.61 0.44
-7 -4 -16 1.61 0.4
4 7 16 2.2 0.4
-7 11 16 1.62 0.4
-11 4 -16 1.6 0.4
-4 -7 -16 1.47 0.38
-4 11 16 1.53 0.38
-7 11 -16 1.22 0.46
-7 11 -16 1.97 0.57
-4 -7 -16 0.56 0.24
7 -11 -16 2.07 0.45
-11 7 16 1.24 0.46
-7 -4 16 0.98 0.25
-11 7 16 1.71 0.54
-11 3 16 -0.06 0.35
-11 8 -16 0.34 0.51
-3 11 -16 0.33 0.23
-11 8 -16 0.54 0.26
-8 11 16 0.28 0.34
-11 8 -16 0.13 0.15
-8 -3 -16 0.02 0.39
3 -11 -16 0.33 0.5
-11 3 16 -0.21 0.55
3 8 16 0.31 0.36
-8 11 -16 1.05 0.47
-8 -3 16 1.02 0.28
-11 3 -16 1.43 0.4
-3 -8 -16 0.8 0.28
-3 -8 -16 1.2 0.37
-3 11 16 1.39 0.38
-11 8 16 1.42 0.43
-8 11 -16 1.63 0.56
-11 8 16 1.43 0.36
-11 9 -16 0.91 0.32
-9 -2 -16 0.9 0.4
-11 2 16 0.89 0.52
2 -11 -16 1.03 0.49
-2 -9 -16 1.1 0.31
-11 2 -16 1.29 0.38
-2 -9 -16 1.25 0.34
-9 -2 16 1.05 0.29
-9 11 -16 0.86 0.55
0 0 -17 -0.31 0.67
0 0 17 -0.08 0.71
0 0 -17 -0.22 0.62
-1 0 17 1.1 0.7
0 1 17 0.7 0.67
-1 1 17 0.47 0.7
0 -1 -17 0.38 0.63
0 1 -17 1.06 0.65
1 0 -17 0.99 0.64
1 0 -17 1.31 0.68
1 -1 -17 0.68 0.63
-1 0 -17 0.85 0.61
-1 1 -17 0.52 0.63
1 0 17 0.97 0.7
0 -1 17 0.53 0.71
1 -1 17 1.07 0.71
0 -1 -17 0.46 0.63
1 -1 -17 0.25 0.65
-1 1 -17 1.01 0.68
0 1 -17 0.41 0.7
-1 0 -17 0.39 0.65
-1 2 -17 1.59 0.71
-2 1 -17 1.06 0.66
2 -1 -17 0.85 0.62
-1 -1 -17 0.31 0.55
1 1 -17 1.83 0.73
-1 -1 17 1.42 0.72
-1 2 -17 1.59 0.68
-2 1 17 1.52 0.7
-1 2 17 1.05 0.29
2 -1 17 1.55 0.71
1 -2 17 1.42 0.72
1 1 -17 1.65 0.63
1 -2 -17 0.93 0.59
2 -1 -17 1.55 0.68
1 -2 -17 1.04 0.66
-2 1 -17 1.2 0.69
1 1 17 1.25 0.57
-1 2 17 1.61 0.63
-1 -1 -17 1.08 0.69
2 -2 -17 -0.12 0.63
2 -2 17 0.14 0.68
0 2 17 0.35 0.22
0 2 17 0.6 0.46
-2 0 17 -0.04 0.69
0 -2 -17 0.51 0.61
-2 2 -17 -0.16 0.66
-2 2 17 0.31 0.27
2 0 17 -0.18 0.57
-2 0 -17 0.11 0.58
2 0 -17 -0.11 0.67
0 -2 17 -0.29 0.66
-2 2 -17 -0.04 0.59
0 -2 -17 0.05 0.46
2 0 -17 0.13 0.55
0 2 -17 -0.18 0.67
-2 0 -17 0.29 0.67
0 2 -17 1.01 0.65
-2 2 17 0.31 0.68
2 -2 -17 0.15 0.62
1 -3 -17 0.03 0.6
-1 -2 17 -0.18 0.72
2 1 -17 0.33 0.48
2 -3 17 0.47 0.67
-2 3 17 0.5 0.52
-2 3 17 0.45 0.44
2 1 -17 0.29 0.7
-1 3 -17 0.5 0.72
1 -3 -17 0.31 0.34
-2 -1 -17 0.23 0.64
1 2 17 0.13 0.27
-3 1 17 0.05 0.69
3 -1 17 -0.08 0.62
-2 -1 -17 0.06 0.36
-1 3 -17 0.29 0.63
3 -2 -17 0.08 0.53
-3 2 -17 -0.07 0.6
-3 2 -17 0.23 0.67
1 2 17 0.37 0.2
-3 1 17 0.16 0.26
3 -2 -17 -0.08 0.62
-1 3 17 0.54 0.34
-3 1 -17 0.05 0.67
-2 -1 17 0.55 0.7
2 -3 -17 0.6 0.51
-1 3 17 0.56 0.42
-3 1 -17 0.25 0.6
-2 3 -17 0.8 0.69
1 2 -17 0.98 0.57
-3 2 17 0.38 0.29
-1 -2 -17 0.73 0.68
-1 -2 -17 0.09 0.26
2 -3 -17 0.21 0.61
3 -1 -17 0.03 0.67
1 -3 17 0.46 0.73
3 -1 -17 0.66 0.47
1 2 -17 0.08 0.67
2 1 17 0.17 0.34
-3 2 17 0.52 0.65
-2 3 -17 0.42 0.63
3 -2 17 0.74 0.66
-3 0 -17 2.5 0.72
3 0 -17 1.8 0.43
3 0 -17 2.49 0.74
0 -3 17 2.3 0.79
-3 3 17 2.47 0.51
-3 3 17 3.03 0.67
3 -3 17 2.61 0.72
3 0 17 1.77 0.51
-3 0 17 3.02 0.72
0 3 17 2.19 0.42
3 -3 -17 1.88 0.64
0 3 -17 2.21 0.76
0 -3 -17 2.8 0.71
-3 0 -17 1.44 0.51
-3 3 -17 2.05 0.69
0 3 -17 2.62 0.63
3 -3 -17 2.97 0.66
-3 3 -17 3.44 0.71
2 -4 17 1.87 0.75
-4 2 17 0.94 0.3
-4 2 -17 1.16 0.68
2 -4 -17 1.31 0.62
-2 -2 -17 1.98 0.69
-2 4 -17 0.85 0.61
-2 4 -17 1.69 0.71
4 -2 -17 0.85 0.37
-4 2 -17 1.32 0.61
2 2 -17 1.78 0.72
4 -2 17 1.58 0.66
-2 4 17 1.57 0.53
-2 -2 17 2.21 0.74
-4 2 17 1.75 0.68
2 2 -17 0.96 0.37
3 1 -17 0.78 0.71
-3 4 17 1.24 0.39
3 -4 17 1.63 0.66
1 3 17 0.89 0.32
1 -4 -17 0.81 0.59
-4 3 -17 1.43 0.66
4 -1 17 0.78 0.51
-3 -1 -17 1.51 0.68
4 -3 -17 1.02 0.46
-4 3 -17 1.44 0.63
-1 4 -17 1.58 0.58
-3 4 17 0.48 0.51
-1 4 -17 1.18 0.7
-4 1 17 0.94 0.66
-1 -3 17 2 0.71
4 -1 -17 0.06 0.33
1 3 -17 0.42 0.68
-4 1 -17 0.17 0.48
3 -4 -17 0.94 0.38
-3 4 -17 1.17 0.69
-1 4 17 0.9 0.49
-1 -3 -17 0.93 0.67
3 -4 -17 0.54 0.59
-4 3 17 0.57 0.45
1 3 -17 1.44 0.45
4 -3 17 1.12 0.66
-3 -1 17 0.87 0.74
1 -4 17 1.31 0.72
-4 3 17 0.82 0.67
-4 1 -17 1 0.66
-3 4 -17 1.26 0.59
0 4 -17 0.4 0.47
-4 4 -17 0.14 0.62
-4 4 17 -0.64 0.48
-4 4 -17 -0.17 0.62
0 4 17 -0.34 0.44
0 -4 -17 -0.3 0.63
4 -4 -17 0.4 0.5
0 -4 17 0.1 0.65
-4 4 17 0.79 0.52
4 0 17 -0.24 0.24
-4 0 17 -0.34 0.71
-4 0 -17 -0.35 0.63
0 4 -17 -0.81 0.65
4 -4 17 0.24 0.64
-4 0 -17 -0.12 0.23
2 -5 -17 2.35 0.66
-5 3 -17 2.06 0.61
-5 2 17 2.11 0.71
5 -2 17 1.96 0.57
-2 -3 17 2.77 0.72
-2 5 -17 2.2 0.55
-3 -2 -17 2.5 0.69
-3 5 17 1.51 0.53
-2 5 -17 2.3 0.71
3 -5 17 3.04 0.73
-5 3 -17 2.92 0.69
3 2 -17 2.36 0.72
2 -5 17 3.02 0.71
3 -5 -17 2.38 0.64
-3 5 -17 2.84 0.71
5 -3 17 2.62 0.66
-2 -3 -17 2.64 0.71
-2 5 17 1.83 0.53
-3 -2 17 2.4 0.71
-5 3 17 1.52 0.47
-5 2 -17 1.61 0.53
-5 3 17 2.03 0.72
-3 5 -17 2.43 0.64
-5 2 -17 2.6 0.68
2 3 -17 2.36 0.76
-4 5 17 -0.88 0.48
5 -1 17 -0.22 0.27
-1 5 -17 0.69 0.49
-5 4 -17 0.05 0.57
-4 5 17 0.41 0.26
1 -5 -17 0.46 0.65
5 -4 -17 0.46 0.29
-5 4 -17 0.96 0.62
4 -5 17 0.52 0.7
1 4 17 0.09 0.38
-1 5 -17 -0.11 0.63
-1 -4 17 -0.26 0.63
-4 -1 -17 0.09 0.62
-5 1 17 0.17 0.62
5 -4 17 0.01 0.62
-4 -1 17 0.13 0.69
-1 5 17 -0.33 0.45
-5 1 -17 0.22 0.63
-5 1 -17 -0.04 0.27
-1 -4 -17 0.45 0.63
-4 5 -17 0.3 0.65
4 -5 -17 0.29 0.23
1 -5 17 0.42 0.64
4 -5 -17 0.28 0.52
1 4 -17 0.18 0.6
-4 5 -17 0.24 0.6
-5 4 17 0.69 0.6
1 4 -17 0.27 0.27
-5 4 17 -0.43 0.47
0 5 -17 0.4 0.31
-5 0 -17 -0.1 0.6
-5 0 -17 -0.11 0.19
-5 0 17 -0.82 0.68
-5 5 -17 0.03 0.57
-5 5 -17 0.11 0.59
-5 5 17 0.55 0.34
-5 5 17 -0.61 0.46
0 5 -17 -0.21 0.57
0 -5 17 0.23 0.62
0 -5 -17 -0.17 0.62
0 5 17 -0.54 0.44
5 -5 17 0.45 0.6
5 -5 -17 0.28 0.34
-3 6 -17 0.24 0.66
-3 -3 -17 -0.01 0.19
-3 -3 -17 -0.13 0.61
-3 6 -17 0.2 0.51
3 -6 17 0.38 0.62
6 -3 17 -0.18 0.52
3 3 17 0.27 0.18
3 -6 -17 -0.14 0.56
-6 3 -17 -0.48 0.58
-6 3 -17 -0.04 0.47
-3 -3 17 0.38 0.6
3 3 -17 -0.11 0.55
-6 3 17 -0.26 0.38
-6 3 17 -0.16 0.59
-3 6 17 -0.42 0.45
-6 4 -17 3.81 0.68
-6 2 17 4.91 0.75
-2 6 -17 3.26 0.59
-4 6 17 3.09 0.56
4 2 -17 4.56 0.75
-4 -2 -17 4.42 0.7
-2 6 -17 3.77 0.72
-6 2 17 2.71 0.47
2 -6 -17 3.38 0.63
-6 4 -17 2.98 0.63
-2 -4 17 5.08 1.08
2 4 17 3.97 0.58
2 -6 17 3.92 0.69
4 -6 -17 3.17 0.61
2 4 -17 3.55 0.69
-4 6 -17 3.12 0.71
-4 6 -17 2.78 0.59
-2 6 17 2.96 0.54
-6 2 -17 3.41 0.67
6 -4 17 3.11 0.69
-6 4 17 2.69 0.55
-4 -2 17 3.49 0.71
-6 4 17 2.83 0.67
-2 -4 -17 2.89 0.67
1 5 17 2.44 0.47
-5 -1 -17 2.72 0.58
1 -6 -17 3.23 0.67
-6 1 17 2.75 0.72
-1 -5 17 2.79 0.63
-5 6 17 2.29 0.53
-1 6 -17 1.94 0.45
-6 5 -17 2.7 0.62
-1 6 -17 2.44 0.62
-6 5 -17 3.41 0.65
-6 5 17 2.4 0.52
1 -6 17 2.46 0.62
6 -5 17 3.33 0.68
1 5 -17 2.66 0.64
-1 -5 -17 3.27 0.67
-5 -1 17 2.18 0.7
-1 6 17 2.35 0.5
-5 6 -17 3.76 0.7
-5 6 -17 2.72 0.64
-6 1 -17 2.81 0.65
5 -6 -17 2.42 0.48
-6 5 17 3.86 0.82
0 6 -17 0.4 0.24
-6 0 17 1.09 0.65
-6 6 17 1.01 0.46
-6 0 -17 1.23 0.56
-6 6 -17 1.58 0.56
6 -6 -17 0.28 0.27
0 6 -17 1.22 0.55
0 -6 17 1.35 0.55
-6 0 -17 0.65 0.21
6 -6 17 2.27 0.61
0 6 17 0.98 0.41
-6 6 -17 1.74 0.58
0 -6 -17 1.1 0.6
-7 4 -17 2.83 0.6
-3 -4 17 2.01 0.57
4 3 -17 1.51 0.58
-3 7 -17 2.12 0.57
-4 -3 -17 2.92 0.58
-7 3 17 1.83 0.39
-3 7 -17 1.33 0.51
3 -7 -17 2.46 0.58
-4 7 17 1.82 0.47
-7 3 17 2.59 0.62
3 4 17 1.22 0.27
-7 4 -17 1.68 0.51
-7 4 17 2.86 0.64
-7 3 -17 2.73 0.59
-7 3 -17 1.56 0.39
-3 -4 -17 3.39 0.65
-3 7 17 1.89 0.49
-4 -3 17 2.32 0.6
3 4 -17 1.95 0.6
3 -7 17 3.57 0.63
4 -7 -17 2.47 0.59
-7 4 17 2.86 0.5
-4 7 -17 2.88 0.58
-4 7 -17 3.57 0.64
-7 2 17 0.82 0.59
-7 5 -17 1.3 0.56
-5 -2 -17 0.78 0.23
-5 -2 -17 1.15 0.52
-2 7 -17 0.7 0.4
2 -7 -17 0.88 0.58
5 -7 17 2.24 0.62
-7 5 -17 1.38 0.52
-2 -5 17 1 0.58
-2 7 -17 0.88 0.55
5 2 -17 1.42 0.58
-7 2 17 0.33 0.2
2 5 17 1.35 0.36
-5 7 17 0.93 0.43
5 -7 -17 1.9 0.5
2 -7 17 2.09 0.57
-2 7 17 1.45 0.45
2 5 -17 1.62 0.58
-7 5 17 2.09 0.53
-5 7 -17 1.85 0.57
-2 -5 -17 1.85 0.59
-5 7 -17 2.42 0.65
-7 5 17 1.79 0.48
-5 -2 17 2 0.62
-7 2 -17 1.74 0.56
6 -7 17 0.95 0.59
-6 -1 -17 -0.03 0.45
-7 6 -17 -0.06 0.52
1 -7 -17 -0.8 0.55
1 6 17 -0.06 0.37
-6 7 17 -0.81 0.42
-1 7 -17 0.2 0.23
-7 6 -17 -0.1 0.53
-7 1 17 -0.43 0.57
-6 -1 -17 -0.08 0.2
-1 7 -17 -0.53 0.48
-1 -6 17 -0.06 0.46
-6 -1 17 -0.48 0.55
-7 1 -17 0.02 0.18
-7 6 17 -0.75 0.41
-6 7 -17 0.28 0.55
1 6 -17 -0.39 0.49
-7 1 -17 0.05 0.45
1 -7 17 -0.01 0.47
-7 6 17 0.32 0.25
-1 7 17 -0.25 0.39
6 -7 -17 0.12 0.25
-6 7 -17 0.17 0.53
-1 -6 -17 -0.38 0.53
0 -7 -17 0.94 0.56
0 -7 17 0.65 0.43
-7 0 17 0.57 0.6
-7 7 17 0.47 0.42
-7 7 -17 0.81 0.52
0 7 17 0.75 0.38
0 7 -17 0.44 0.45
-7 7 -17 0.87 0.52
-7 0 -17 0.24 0.31
-7 0 -17 0.54 0.24
-8 4 17 3.36 0.63
-8 4 17 2.46 0.46
-4 8 -17 3.6 0.59
-4 8 17 2.43 0.48
-8 4 -17 3.29 0.56
4 4 -17 3.4 0.62
-4 -4 17 3.52 0.58
4 -8 -17 2.96 0.6
-4 -4 -17 2.67 0.54
-4 8 -17 3.53 0.57
5 -8 17 0.69 0.52
-8 3 17 -0.14 0.52
-3 -5 17 0.1 0.45
3 5 17 0.22 0.25
5 3 -17 0.09 0.51
-5 -3 -17 0 0.24
-8 5 -17 -0.02 0.48
-3 8 -17 -0.28 0.47
-8 3 17 0.15 0.26
-5 -3 -17 0.08 0.4
3 -8 -17 -0.57 0.47
-5 8 17 -0.18 0.41
-8 5 -17 -0.09 0.44
-3 8 -17 -0.34 0.38
-8 5 17 0.12 0.47
-3 -5 -17 0.28 0.51
-3 -5 -17 0.17 0.17
-8 3 -17 0.04 0.15
-8 3 -17 -0.07 0.16
-5 8 -17 0.1 0.48
5 -8 -17 0.2 0.44
3 -8 17 0.53 0.46
-8 3 -17 -0.07 0.39
-5 8 -17 -0.26 0.46
-3 8 17 -0.03 0.39
-8 5 17 -0.08 0.4
-5 -3 17 -0.16 0.47
3 5 -17 0.04 0.47
-6 -2 -17 4.3 0.56
-8 2 17 5.14 1.05
-2 8 -17 4.88 0.84
-2 -6 17 4.58 0.74
6 2 -17 5.53 1
2 6 17 4.88 0.65
-8 6 -17 5.45 0.91
-6 8 17 4.22 0.76
-8 6 -17 5.42 0.85
2 -8 -17 6.58 1.04
-6 8 -17 6.49 1.01
2 6 -17 4.54 0.81
-2 -6 -17 5.43 0.87
-6 -2 17 5.69 0.96
-2 8 17 5.04 0.75
-6 8 -17 6.79 0.92
-8 2 -17 3.39 0.59
-8 6 17 5.19 0.79
-8 6 17 4.38 0.65
2 -8 17 6.57 0.83
0 0 -18 76.63 5.75
0 0 -18 79.84 5.76
0 0 18 78.8 5.76
-1 1 -18 13.91 1.4
0 -1 -18 15.1 1.42
-1 0 -18 15.41 1.44
1 -1 18 15.3 1.41
1 0 -18 16.44 1.34
1 0 -18 14.83 1.41
-1 0 18 15.91 1.43
0 1 -18 14.97 1.44
1 -1 -18 15.07 1.37
1 -1 -18 13.46 1.32
-1 1 18 13.04 1.32
0 -1 18 15.74 1.46
0 1 -18 15.64 1.38
-1 1 -18 15.67 1.4
-1 -1 -18 37.07 2.59
2 -1 18 27.51 2.5
-2 1 -18 35.59 2.58
-2 1 -18 26.68 2.49
-1 -1 18 34.3 2.58
-1 2 -18 32.81 2.54
-1 2 -18 33.87 2.59
1 -2 18 34.68 2.59
2 -1 -18 31.11 2.53
1 -2 -18 33.54 2.56
-2 1 18 33.32 2.55
1 1 -18 33.36 2.59
0 -2 -18 8.61 1.11
2 0 -18 9.23 1.16
-2 2 -18 8.8 1.11
-2 2 -18 8.47 1.07
-2 0 -18 10.81 1.23
0 -2 18 10.75 1.19
0 2 -18 9.15 0.97
0 2 -18 9.87 1.18
2 -2 -18 9.77 1
2 -2 18 9.88 1.13
-2 0 18 11.28 1.19
