#------------------------------------------------------------------------------
#$Date: 2019-11-03 12:12:47 +0200 (Sun, 03 Nov 2019) $
#$Revision: 221360 $
#$URL: file:///home/coder/svn-repositories/cod/cif/4/12/82/4128231.cif $
#------------------------------------------------------------------------------
#
# This file is available in the Crystallography Open Database (COD),
# http://www.crystallography.net/
#
# All data on this site have been placed in the public domain by the
# contributors.
#
data_4128231
loop_
_publ_author_name
'Wei, Yong-Sheng'
'Zhang, Mei'
'Kitta, Mitsunori'
'Liu, Zheng'
'Horike, Satoshi'
'Xu, Qiang'
_publ_section_title
;
 A Single-Crystal Open-Capsule Metal-Organic Framework.
;
_journal_issue                   19
_journal_name_full               'Journal of the American Chemical Society'
_journal_page_first              7906
_journal_page_last               7916
_journal_paper_doi               10.1021/jacs.9b02417
_journal_volume                  141
_journal_year                    2019
_chemical_formula_moiety         '0.5(C88 H40 Fe6 N14 O26)'
_chemical_formula_sum            'C44 H20 Fe3 N7 O13'
_chemical_formula_weight         1022.22
_space_group_crystal_system      hexagonal
_space_group_IT_number           194
_space_group_name_Hall           '-P 6c 2c'
_space_group_name_H-M_alt        'P 63/m m c'
_symmetry_space_group_name_Hall  '-P 6c 2c'
_symmetry_space_group_name_H-M   'P 63/m m c'
_atom_sites_solution_hydrogens   geom
_atom_sites_solution_primary     direct
_audit_creation_date             2018-07-08
_audit_creation_method
;
Olex2 1.2
(compiled 2016.09.09 svn.r3337 for OlexSys, GUI svn.r5227)
;
_cell_angle_alpha                90
_cell_angle_beta                 90
_cell_angle_gamma                120
_cell_formula_units_Z            2
_cell_length_a                   16.8853(4)
_cell_length_b                   16.8853(4)
_cell_length_c                   14.8612(5)
_cell_measurement_reflns_used    5842
_cell_measurement_temperature    150(2)
_cell_measurement_theta_max      29.9790
_cell_measurement_theta_min      2.3850
_cell_volume                     3669.46(17)
_computing_molecular_graphics    'Olex2 (Dolomanov et al., 2009)'
_computing_publication_material  'Olex2 (Dolomanov et al., 2009)'
_computing_structure_refinement  'ShelXL (Sheldrick, 2015)'
_computing_structure_solution    'SIR2004 (Burla et al., 2007)'
_diffrn_ambient_temperature      150.15
_diffrn_measured_fraction_theta_full 0.997
_diffrn_measured_fraction_theta_max 0.998
_diffrn_measurement_device_type  'Xcalibur, Atlas, Gemini ultra'
_diffrn_radiation_type           MoK\a
_diffrn_radiation_wavelength     0.71073
_diffrn_reflns_av_R_equivalents  0.0369
_diffrn_reflns_av_unetI/netI     0.0211
_diffrn_reflns_Laue_measured_fraction_full 0.997
_diffrn_reflns_Laue_measured_fraction_max 0.998
_diffrn_reflns_limit_h_max       20
_diffrn_reflns_limit_h_min       -19
_diffrn_reflns_limit_k_max       19
_diffrn_reflns_limit_k_min       -17
_diffrn_reflns_limit_l_max       9
_diffrn_reflns_limit_l_min       -18
_diffrn_reflns_number            13573
_diffrn_reflns_point_group_measured_fraction_full 0.997
_diffrn_reflns_point_group_measured_fraction_max 0.998
_diffrn_reflns_theta_full        26.000
_diffrn_reflns_theta_max         25.992
_diffrn_reflns_theta_min         1.954
_exptl_absorpt_coefficient_mu    0.629
_exptl_absorpt_correction_T_max  1.00000
_exptl_absorpt_correction_T_min  0.95758
_exptl_absorpt_correction_type   multi-scan
_exptl_absorpt_process_details
'CrysAlisPro 1.171.39.43c (Rigaku Oxford Diffraction, 2018)'
_exptl_crystal_colour            'clear red'
_exptl_crystal_colour_lustre     clear
_exptl_crystal_colour_primary    red
_exptl_crystal_density_diffrn    0.925
_exptl_crystal_description       plate
_exptl_crystal_F_000             1030
_exptl_crystal_size_max          0.5
_exptl_crystal_size_mid          0.03
_exptl_crystal_size_min          0.01
_refine_diff_density_max         0.446
_refine_diff_density_min         -0.307
_refine_diff_density_rms         0.067
_refine_ls_extinction_method     none
_refine_ls_goodness_of_fit_ref   1.066
_refine_ls_hydrogen_treatment    constr
_refine_ls_matrix_type           full
_refine_ls_number_parameters     75
_refine_ls_number_reflns         1387
_refine_ls_number_restraints     7
_refine_ls_restrained_S_all      1.083
_refine_ls_R_factor_all          0.0465
_refine_ls_R_factor_gt           0.0416
_refine_ls_shift/su_max          0.000
_refine_ls_shift/su_mean         0.000
_refine_ls_structure_factor_coef Fsqd
_refine_ls_weighting_details
;
 w=1/[\s^2^(Fo^2^)+(0.0930P)^2^+1.3982P]
 where P=(Fo^2^+2Fc^2^)/3
;
_refine_ls_weighting_scheme      calc
_refine_ls_wR_factor_gt          0.1281
_refine_ls_wR_factor_ref         0.1318
_reflns_Friedel_coverage         0.000
_reflns_number_gt                1232
_reflns_number_total             1387
_reflns_threshold_expression     'I > 2\s(I)'
_iucr_refine_instructions_details
;
TITL wei-2_1_a.res in P6(3)/mmc
REM Old TITL exp_6381 in P63/mmc #194
REM SHELXT solution in P6(3)/mmc
REM R1 0.170, Rweak 0.008, Alpha 0.048, Orientation as input
REM Formula found by SHELXT: C45 O16 Fe3
CELL 0.71073 16.8853 16.8853 14.8612 90 90 120
ZERR 2 0.0004 0.0004 0.0005 0 0 0
LATT 1
SYMM -Y,+X-Y,+Z
SYMM +Y-X,-X,+Z
SYMM -X,-Y,0.5+Z
SYMM +Y,-X+Y,0.5+Z
SYMM -Y+X,+X,0.5+Z
SYMM +Y,+X,-Z
SYMM -Y+X,-Y,-Z
SYMM -X,-X+Y,-Z
SYMM -Y,-X,0.5-Z
SYMM +Y-X,+Y,0.5-Z
SYMM +X,+X-Y,0.5-Z
SFAC C H Fe N O
UNIT 88 40 6 14 26
DFIX 1.5 0.01 N1 C3
ISOR 0.01 0.01 N1
EADP N3 C8
EXYZ N3 C8
 
L.S. 10 0 18
PLAN  10
TEMP -123
BOND $H
MORE -1
CONF
fmap 2
acta 52
OMIT -3 52
REM <olex2.extras>
REM <HklSrc "%.\\MIL-88B-NH2-tpy.hkl">
REM </olex2.extras>
 
WGHT    0.093000    1.398200
FVAR       2.85675
FE1   3    0.731498    0.462996    0.250000    10.25000    0.02195    0.02416 =
         0.02265    0.00000    0.00000    0.01208
O1    5    0.666667    0.333333    0.250000    10.08333    0.01964    0.01964 =
         0.01548    0.00000    0.00000    0.00982
O2    5    0.653893    0.476778    0.345774    11.00000    0.04991    0.03555 =
         0.07350   -0.01775    0.02916    0.01078
N1    4    0.397727    0.309493    0.470779    10.25000    0.11078    0.09450 =
         0.13707   -0.03582    0.05375    0.04603
AFIX 137
H1A   2    0.348323    0.288693    0.507747    10.16667   -1.20000
H1B   2    0.435503    0.289487    0.491150    10.16667   -1.20000
H1C   2    0.378762    0.288076    0.414057    10.16667   -1.20000
AFIX   0
N2    4    0.806433    0.612867    0.250000    10.25000    0.02334    0.02678 =
         0.06017    0.00000    0.00000    0.01339
C1    1    0.574020    0.425980    0.372388    10.50000    0.03888    0.03888 =
         0.04505   -0.01083    0.01083    0.01743
C2    1    0.536328    0.463672    0.439101    10.50000    0.04788    0.04788 =
         0.06270   -0.02047    0.02047    0.01942
C3    1    0.447888    0.411514    0.469769    11.00000    0.05802    0.06854 =
         0.14573   -0.05760    0.04688    0.00482
C4    1    0.897419    0.661651    0.250000    10.50000    0.03358    0.03383 =
         0.14544    0.00000    0.00000    0.02026
AFIX  43
H4    2    0.930264    0.629532    0.250000    10.50000   -1.20000
AFIX   0
C5    1    0.946930    0.755959    0.250000    10.50000    0.03040    0.03364 =
         0.16650    0.00000    0.00000    0.01649
AFIX  43
H5    2    1.011868    0.786800    0.250000    10.50000   -1.20000
AFIX   0
C6    1    0.902532    0.805064    0.250000    10.25000    0.02717    0.02988 =
         0.08276    0.00000    0.00000    0.01494
C7    1    0.953397    0.906794    0.250000    10.25000    0.03084    0.03358 =
         0.07610    0.00000    0.00000    0.01679
PART 1
C8    1    0.905904    0.952952    0.250000    10.16667    0.02420    0.02857 =
         0.08780    0.00000    0.00000    0.01210
AFIX  43
H8    2    0.840939    0.920470    0.250000    10.16667   -1.20000
AFIX   0
PART 0
PART 2
N3    4    0.905904    0.952952    0.250000    10.08333    0.02420    0.02857 =
         0.08780    0.00000    0.00000    0.01210
HKLF 4
 
REM  wei-2_1_a.res in P6(3)/mmc
REM R1 =  0.0416 for    1232 Fo > 4sig(Fo)  and  0.0465 for all    1387 data
REM     75 parameters refined using      7 restraints
 
END  
     
WGHT      0.0930      1.3981 

REM Highest difference peak  0.446,  deepest hole -0.307,  1-sigma level  0.067
Q1    1   0.3655  0.1827  0.4804  10.50000  0.05    0.45
Q2    1   0.3389  0.2274  0.5319  11.00000  0.05    0.40
Q3    1   0.3787  0.3426  0.4099  11.00000  0.05    0.35
Q4    1   0.3234  0.2584  0.5995  11.00000  0.05    0.27
Q5    1   0.4836  0.4159  0.5019  11.00000  0.05    0.26
Q6    1   0.4654  0.4429  0.4381  11.00000  0.05    0.26
Q7    1   0.7815  0.5629  0.2500  10.25000  0.05    0.23
Q8    1   0.3037  0.2490  0.4848  11.00000  0.05    0.22
Q9    1   0.6607  0.4531  0.3706  11.00000  0.05    0.20
Q10   1   0.6172  0.4693  0.3283  11.00000  0.05    0.19

  REM The information below was added by Olex2.
  REM
  REM R1 = 0.0416 for 1232 Fo > 4sig(Fo) and 0.0465 for all 13573 data
  REM n/a parameters refined using n/a restraints
  REM Highest difference peak 0.45, deepest hole -0.31
  REM Mean Shift 0, Max Shift 0.000.
  
  REM +++ Tabular Listing of Refinement Information +++
  REM R1_all = 0.0465
  REM R1_gt = 0.0416
  REM wR_ref = 0.1318
  REM GOOF = 1.066
  REM Shift_max = 0.000
  REM Shift_mean = 0
  REM Reflections_all = 13573
  REM Reflections_gt = 1232
  REM Parameters = n/a
  REM Hole = -0.31
  REM Peak = 0.45
  REM Flack = n/a
  
  
;
_cod_data_source_file            ja9b02417_si_003.cif
_cod_data_source_block           Fe-MIL-88B-tpy
_cod_original_cell_volume        3669.5(2)
_cod_database_code               4128231
_shelxl_version_number           2013-2
_shelx_space_group_comment
;
The symmetry employed for this shelxl refinement is uniquely defined
by the following loop, which should always be used as a source of
symmetry information in preference to the above space-group names.
They are only intended as comments.
;
_olex2_refinement_description
;
1. Fixed Uiso
 At 1.2 times of:
  All C(H) groups, All N(H,H,H) groups
2. Shared sites
{N3, C8}
3. Restrained distances
 N1-C3
 1.5 with sigma of 0.01
4. Uiso/Uaniso restraints and constraints
Uanis(N1) \\sim Ueq: with sigma of 0.01 and sigma for terminal atoms of 0.01
Uanis(N3) = Uanis(C8)
5. Others
 Fixed Sof: N1(0.25) H1A(0.16667) H1B(0.16667) H1C(0.16667) C8(0.16667)
 H8(0.16667) N3(0.08333)
6.a Aromatic/amide H refined with riding coordinates:
 C4(H4), C5(H5), C8(H8)
6.b Idealised Me refined as rotating group:
 N1(H1A,H1B,H1C)
;
_platon_squeeze_void_probe_radius 1.20
loop_
_space_group_symop_operation_xyz
'x, y, z'
'-y, x-y, z'
'-x+y, -x, z'
'-x, -y, z+1/2'
'y, -x+y, z+1/2'
'x-y, x, z+1/2'
'y, x, -z'
'x-y, -y, -z'
'-x, -x+y, -z'
'-y, -x, -z+1/2'
'-x+y, y, -z+1/2'
'x, x-y, -z+1/2'
'-x, -y, -z'
'y, -x+y, -z'
'x-y, x, -z'
'x, y, -z-1/2'
'-y, x-y, -z-1/2'
'-x+y, -x, -z-1/2'
'-y, -x, z'
'-x+y, y, z'
'x, x-y, z'
'y, x, z-1/2'
'x-y, -y, z-1/2'
'-x, -x+y, z-1/2'
loop_
_atom_site_label
_atom_site_type_symbol
_atom_site_fract_x
_atom_site_fract_y
_atom_site_fract_z
_atom_site_U_iso_or_equiv
_atom_site_adp_type
_atom_site_occupancy
_atom_site_site_symmetry_order
_atom_site_calc_flag
_atom_site_refinement_flags_posn
_atom_site_refinement_flags_adp
_atom_site_refinement_flags_occupancy
_atom_site_disorder_assembly
_atom_site_disorder_group
Fe1 Fe 0.73150(2) 0.46300(3) 0.2500 0.0227(2) Uani 1 4 d S T P . .
O1 O 0.6667 0.3333 0.2500 0.0183(8) Uani 1 12 d S T P . .
O2 O 0.65389(12) 0.47678(11) 0.34577(13) 0.0577(6) Uani 1 1 d . . . . .
N1 N 0.3977(10) 0.3095(6) 0.4708(11) 0.116(5) Uani 0.25 1 d D U . . .
H1A H 0.3483 0.2887 0.5077 0.140 Uiso 0.1667 1 calc GR . . . .
H1B H 0.4355 0.2895 0.4912 0.140 Uiso 0.1667 1 calc GR . . . .
H1C H 0.3788 0.2881 0.4141 0.140 Uiso 0.1667 1 calc GR . . . .
N2 N 0.80643(11) 0.6129(2) 0.2500 0.0364(8) Uani 1 4 d S T P . .
C1 C 0.57402(11) 0.42598(11) 0.3724(2) 0.0418(7) Uani 1 2 d S T P . .
C2 C 0.53633(13) 0.46367(13) 0.4391(3) 0.0548(10) Uani 1 2 d S T P . .
C3 C 0.4479(2) 0.4115(2) 0.4698(3) 0.1027(16) Uani 1 1 d D . . . .
C4 C 0.8974(3) 0.6617(3) 0.2500 0.0694(13) Uani 1 2 d S T P . .
H4 H 0.9303 0.6295 0.2500 0.083 Uiso 1 2 calc RS T P . .
C5 C 0.9469(2) 0.7560(3) 0.2500 0.0766(15) Uani 1 2 d S T P . .
H5 H 1.0119 0.7868 0.2500 0.092 Uiso 1 2 calc RS T P . .
C6 C 0.90253(15) 0.8051(3) 0.2500 0.0463(11) Uani 1 4 d S T P A .
C7 C 0.95340(16) 0.9068(3) 0.2500 0.0465(11) Uani 1 4 d S T P . .
C8 C 0.9059(3) 0.95295(14) 0.2500 0.0473(11) Uani 0.6667 4 d S T P A 1
H8 H 0.8409 0.9205 0.2500 0.057 Uiso 0.6667 4 calc RS T P A 1
N3 N 0.9059(3) 0.95295(14) 0.2500 0.0473(11) Uani 0.3333 4 d S T P A 2
loop_
_atom_site_aniso_label
_atom_site_aniso_U_11
_atom_site_aniso_U_22
_atom_site_aniso_U_33
_atom_site_aniso_U_23
_atom_site_aniso_U_13
_atom_site_aniso_U_12
Fe1 0.0219(3) 0.0242(3) 0.0226(3) 0.000 0.000 0.01208(17)
O1 0.0196(12) 0.0196(12) 0.0155(18) 0.000 0.000 0.0098(6)
O2 0.0499(10) 0.0356(9) 0.0735(12) -0.0178(8) 0.0292(9) 0.0108(7)
N1 0.111(8) 0.094(7) 0.137(8) -0.036(6) 0.054(7) 0.046(6)
N2 0.0233(12) 0.0268(17) 0.060(2) 0.000 0.000 0.0134(8)
C1 0.0389(12) 0.0389(12) 0.0451(16) -0.0108(7) 0.0108(7) 0.0174(14)
C2 0.0479(14) 0.0479(14) 0.063(2) -0.0205(9) 0.0205(9) 0.0194(16)
C3 0.0580(19) 0.069(2) 0.146(3) -0.058(2) 0.047(2) 0.0048(16)
C4 0.0336(18) 0.0338(18) 0.145(4) 0.000 0.000 0.0203(15)
C5 0.0304(18) 0.0336(18) 0.166(5) 0.000 0.000 0.0165(15)
C6 0.0272(15) 0.030(2) 0.083(3) 0.000 0.000 0.0149(11)
C7 0.0308(16) 0.034(2) 0.076(3) 0.000 0.000 0.0168(12)
C8 0.024(2) 0.0286(15) 0.088(3) 0.000 0.000 0.0121(10)
N3 0.024(2) 0.0286(15) 0.088(3) 0.000 0.000 0.0121(10)
loop_
_atom_type_symbol
_atom_type_description
_atom_type_scat_dispersion_real
_atom_type_scat_dispersion_imag
_atom_type_scat_source
C C 0.0033 0.0016 'International Tables Vol C Tables 4.2.6.8 and 6.1.1.4'
H H 0.0000 0.0000 'International Tables Vol C Tables 4.2.6.8 and 6.1.1.4'
Fe Fe 0.3463 0.8444 'International Tables Vol C Tables 4.2.6.8 and 6.1.1.4'
N N 0.0061 0.0033 'International Tables Vol C Tables 4.2.6.8 and 6.1.1.4'
O O 0.0106 0.0060 'International Tables Vol C Tables 4.2.6.8 and 6.1.1.4'
loop_
_geom_angle_atom_site_label_1
_geom_angle_atom_site_label_2
_geom_angle_atom_site_label_3
_geom_angle
_geom_angle_site_symmetry_1
_geom_angle_site_symmetry_3
O1 Fe1 O2 95.71(5) . 16_556
O1 Fe1 O2 95.71(5) . 20_655
O1 Fe1 O2 95.71(5) . .
O1 Fe1 O2 95.71(5) . 11_655
O1 Fe1 N2 180.0 . .
O2 Fe1 O2 168.58(10) 16_556 20_655
O2 Fe1 O2 89.30(12) 16_556 .
O2 Fe1 O2 89.29(12) 20_655 11_655
O2 Fe1 O2 89.57(12) . 20_655
O2 Fe1 O2 89.57(12) 16_556 11_655
O2 Fe1 O2 168.58(10) . 11_655
O2 Fe1 N2 84.29(5) 16_556 .
O2 Fe1 N2 84.29(5) 11_655 .
O2 Fe1 N2 84.29(5) 20_655 .
O2 Fe1 N2 84.29(5) . .
Fe1 O1 Fe1 120.0 3_665 2_655
Fe1 O1 Fe1 120.0 2_655 .
Fe1 O1 Fe1 120.0 3_665 .
C1 O2 Fe1 133.11(16) . .
H1A N1 H1B 109.5 . .
H1A N1 H1C 109.5 . .
H1B N1 H1C 109.5 . .
C3 N1 H1A 109.5 . .
C3 N1 H1B 109.5 . .
C3 N1 H1C 109.5 . .
C4 N2 Fe1 122.39(19) 20_655 .
C4 N2 Fe1 122.39(19) . .
C4 N2 C4 115.2(4) . 20_655
O2 C1 O2 124.5(3) . 19_665
O2 C1 C2 117.76(13) 19_665 .
O2 C1 C2 117.76(13) . .
C3 C2 C1 120.50(16) . .
C3 C2 C1 120.50(16) 19_665 .
C3 C2 C3 119.0(3) 19_665 .
C2 C3 N1 123.3(6) . .
C2 C3 C3 120.51(16) . 7_556
C3 C3 N1 112.4(5) 7_556 .
N2 C4 H4 118.0 . .
N2 C4 C5 124.0(3) . .
C5 C4 H4 118.0 . .
C4 C5 H5 120.0 . .
C6 C5 C4 120.0(3) . .
C6 C5 H5 120.0 . .
C5 C6 C5 116.7(4) . 20_655
C5 C6 C7 121.7(2) . .
C5 C6 C7 121.7(2) 20_655 .
C8 C7 C6 119.5(2) . .
C8 C7 C6 119.5(2) 2_765 .
C8 C7 C8 120.9(4) . 2_765
N3 C7 C6 119.5(2) 2_765 .
C7 C8 C7 119.1(4) . 3_675
C7 C8 H8 120.5 . .
C7 C8 H8 120.5 3_675 .
loop_
_geom_bond_atom_site_label_1
_geom_bond_atom_site_label_2
_geom_bond_distance
_geom_bond_site_symmetry_2
Fe1 O1 1.8961(5) .
Fe1 O2 2.0254(15) .
Fe1 O2 2.0254(15) 11_655
Fe1 O2 2.0253(15) 16_556
Fe1 O2 2.0254(15) 20_655
Fe1 N2 2.192(3) .
O1 Fe1 1.8960(5) 3_665
O1 Fe1 1.8960(5) 2_655
O2 C1 1.247(2) .
N1 H1A 0.9100 .
N1 H1B 0.9100 .
N1 H1C 0.9100 .
N1 C3 1.492(8) .
N2 C4 1.332(4) 20_655
N2 C4 1.332(4) .
C1 O2 1.247(2) 19_665
C1 C2 1.483(4) .
C2 C3 1.378(3) 19_665
C2 C3 1.378(3) .
C3 C3 1.393(5) 7_556
C4 H4 0.9500 .
C4 C5 1.380(5) .
C5 H5 0.9500 .
C5 C6 1.368(4) .
C6 C5 1.368(4) 20_655
C6 C7 1.488(6) .
C7 C8 1.370(3) 2_765
C7 C8 1.370(3) .
C7 N3 1.370(3) 2_765
C8 C7 1.369(3) 3_675
C8 H8 0.9500 .
loop_
_geom_torsion_atom_site_label_1
_geom_torsion_atom_site_label_2
_geom_torsion_atom_site_label_3
_geom_torsion_atom_site_label_4
_geom_torsion
_geom_torsion_site_symmetry_1
_geom_torsion_site_symmetry_4
Fe1 O2 C1 O2 5.1(6) . 19_665
Fe1 O2 C1 C2 -173.8(3) . .
Fe1 N2 C4 C5 180.0 . .
O2 Fe1 O1 Fe1 -135.07(6) . 3_665
O2 Fe1 O1 Fe1 -44.93(6) 20_655 3_665
O2 Fe1 O1 Fe1 135.07(6) 20_655 2_655
O2 Fe1 O1 Fe1 -135.07(6) 11_655 2_655
O2 Fe1 O1 Fe1 44.93(6) 11_655 3_665
O2 Fe1 O1 Fe1 -44.93(6) 16_556 2_655
O2 Fe1 O1 Fe1 135.07(6) 16_556 3_665
O2 Fe1 O1 Fe1 44.93(6) . 2_655
O2 C1 C2 C3 -178.7(4) 19_665 19_665
O2 C1 C2 C3 0.3(6) . 19_665
O2 C1 C2 C3 178.7(4) . .
O2 C1 C2 C3 -0.3(6) 19_665 .
N2 C4 C5 C6 0.0 . .
C1 C2 C3 N1 25.4(11) . .
C1 C2 C3 C3 -177.9(6) . 7_556
C3 C2 C3 N1 -156.1(9) 19_665 .
C3 C2 C3 C3 0.6(11) 19_665 7_556
C4 N2 C4 C5 0.0 20_655 .
C4 C5 C6 C5 0.0 . 20_655
C4 C5 C6 C7 180.0 . .
C5 C6 C7 C8 180.0 20_655 2_765
C5 C6 C7 C8 180.0 . .
C5 C6 C7 C8 0.0 . 2_765
C5 C6 C7 C8 0.0 20_655 .
C5 C6 C7 N3 180.0 20_655 2_765
C5 C6 C7 N3 0.0 . 2_765
C6 C7 C8 C7 180.0 . 3_675
C8 C7 C8 C7 0.0 2_765 3_675
N3 C7 C8 C7 0.0 2_765 3_675
loop_
_platon_squeeze_void_nr
_platon_squeeze_void_average_x
_platon_squeeze_void_average_y
_platon_squeeze_void_average_z
_platon_squeeze_void_volume
_platon_squeeze_void_count_electrons
_platon_squeeze_void_content
1 -0.010 -0.009 -0.008 1672 374 ' '
loop_
_refln_index_h
_refln_index_k
_refln_index_l
_refln_F_squared_meas
_refln_F_squared_sigma
_refln_scale_group_code
0 0 -16 23068 892 1
0 0 -14 23713 830 1
0 0 -12 65549 2740 1
0 0 -12 64911 2749 1
0 0 -10 298297 9350 1
0 0 -8 296064 12711 1
0 0 -6 174921 3745 1
0 0 -4 707420 35287 1
0 0 -2 532555 12157 1
1 0 -17 7421 348 1
-1 1 -17 7575 351 1
0 1 -17 7133 349 1
0 1 -16 1800 185 1
1 0 -16 2180 187 1
-1 0 -16 1373 175 1
-1 1 -16 1761 187 1
0 1 -15 8839 394 1
-1 0 -15 9005 388 1
-1 1 -15 9517 396 1
1 -1 -15 9073 387 1
0 -1 -15 9401 384 1
1 0 -15 8924 394 1
1 0 -14 497 152 1
0 1 -14 522 154 1
0 -1 -14 870 150 1
1 -1 -14 853 150 1
-1 1 -14 598 149 1
-1 0 -14 932 151 1
1 0 -13 13118 492 1
1 0 -13 12393 478 1
-1 0 -13 12571 487 1
0 1 -13 13152 493 1
0 -1 -13 12977 488 1
1 -1 -13 13040 488 1
0 1 -13 13319 484 1
-1 1 -13 12941 491 1
0 -1 -12 2262 129 1
1 -1 -12 1947 115 1
1 0 -12 1749 135 1
1 -1 -12 1954 131 1
-1 0 -12 2242 132 1
0 1 -12 1896 140 1
-1 1 -12 2137 131 1
1 0 -12 1889 125 1
0 1 -12 1897 128 1
1 -1 -11 47040 1719 1
-1 0 -11 50001 1720 1
1 0 -11 48839 1714 1
1 -1 -11 48628 1711 1
-1 1 -11 48176 1722 1
1 0 -11 47679 1722 1
0 1 -11 48702 1723 1
0 1 -11 50315 1717 1
0 -1 -11 49469 1718 1
1 0 -10 11031 607 1
1 -1 -10 10575 602 1
-1 0 -10 10878 610 1
-1 1 -10 10840 614 1
1 0 -10 10591 614 1
1 -1 -10 11134 612 1
0 1 -10 10339 613 1
0 -1 -10 10647 609 1
0 -1 -9 107047 3928 1
1 0 -9 108068 3925 1
1 0 -9 108893 3931 1
-1 1 -9 109774 3931 1
0 1 -9 108294 3932 1
1 -1 -9 109063 3930 1
1 -1 -9 108387 3922 1
-1 0 -9 108103 3929 1
1 0 -8 2228 91 1
1 0 -8 1252 85 1
-1 0 -8 1628 88 1
1 -1 -8 1579 73 1
1 -1 -8 1849 90 1
-1 1 -8 1650 89 1
0 1 -8 1908 91 1
0 -1 -8 1230 85 1
-1 0 -7 43430 1687 1
0 -1 -7 44015 1686 1
0 1 -7 43831 1690 1
1 -1 -7 44696 1687 1
-1 1 -7 44797 1689 1
1 0 -7 43607 1685 1
1 0 -7 45040 1690 1
1 -1 -7 43459 1682 1
0 -1 -6 13876 95 1
0 1 -6 14207 107 1
1 -1 -6 13843 98 1
1 0 -6 13709 86 1
1 0 -6 14300 103 1
1 0 -5 21222 591 1
0 1 -5 20450 591 1
1 -1 -5 19376 587 1
0 -1 -5 21221 587 1
1 0 -5 20324 586 1
0 1 -4 42111 4086 1
1 0 -4 41325 4083 1
1 0 -4 42673 4085 1
0 -1 -4 41994 4082 1
1 -1 -4 41278 4084 1
1 -1 -4 41462 4080 1
0 -1 -3 45189 2880 1
1 -1 -3 45167 2879 1
1 0 -3 45463 2882 1
1 -1 -3 44101 2882 1
1 0 -3 45819 2884 1
0 1 -3 41901 2884 1
1 0 -2 61267 93 1
1 -1 -2 61092 85 1
1 0 -2 60748 87 1
1 0 -1 673373 9955 1
1 0 1 680234 10707 1
1 0 1 718593 10707 1
-1 0 1 717774 10707 1
-1 2 -18 3823 270 1
1 1 -18 3834 269 1
2 -1 -16 5288 266 1
-1 2 -16 5323 280 1
1 1 -16 5524 275 1
-2 1 -16 5409 271 1
1 1 -14 6841 316 1
-1 2 -14 7051 305 1
-1 2 -14 6998 314 1
-2 1 -14 6391 306 1
2 -1 -14 7129 309 1
1 -2 -14 7374 305 1
-1 -1 -14 7129 302 1
1 -2 -12 15509 648 1
2 -1 -12 15750 640 1
1 1 -12 15435 657 1
-1 -1 -12 15439 645 1
-1 2 -12 15495 654 1
2 -1 -12 15205 650 1
1 1 -12 15020 646 1
-2 1 -12 15849 652 1
1 -2 -10 32726 988 1
2 -1 -10 31744 1001 1
-1 -1 -10 32823 997 1
-1 2 -10 32496 1004 1
1 -2 -10 30893 996 1
1 1 -10 33159 1005 1
1 1 -10 32356 997 1
-2 1 -10 32565 1001 1
2 -1 -10 32989 993 1
1 -2 -8 55902 2245 1
2 -1 -8 56548 2250 1
-1 2 -8 56268 2252 1
-1 -1 -8 57182 2246 1
1 1 -8 56330 2247 1
1 1 -8 56133 2252 1
2 -1 -8 56524 2243 1
2 -1 -6 24830 643 1
-1 2 -6 25511 651 1
2 -1 -6 24573 649 1
1 1 -6 25274 652 1
1 -2 -6 24944 644 1
1 1 -6 24779 648 1
2 -1 -4 4342 174 1
1 1 -4 3926 182 1
1 -2 -4 4251 169 1
2 -1 -4 4477 184 1
1 1 -4 4365 183 1
2 -1 -2 262095 6153 1
2 -1 -2 260121 6151 1
1 1 -2 264834 6153 1
1 1 0 43955 5091 1
1 1 0 40473 5092 1
-1 -1 2 280677 6198 1
1 1 2 263700 6199 1
2 -1 2 256773 6202 1
1 1 2 253856 6198 1
0 2 -18 1433 219 1
-2 2 -18 1761 229 1
0 2 -17 1078 202 1
-2 2 -17 973 194 1
2 0 -17 627 186 1
-2 2 -16 453 167 1
0 2 -16 702 172 1
2 0 -16 366 174 1
-2 0 -15 971 158 1
2 0 -15 987 169 1
-2 2 -15 1218 167 1
2 -2 -15 1236 166 1
0 2 -15 1118 171 1
2 0 -14 3274 222 1
-2 2 -14 3780 227 1
2 -2 -14 3532 215 1
0 2 -14 3473 235 1
-2 0 -14 3473 220 1
0 2 -14 3743 218 1
0 -2 -13 758 126 1
0 2 -13 695 132 1
2 -2 -13 817 129 1
2 0 -13 704 124 1
-2 2 -13 794 141 1
2 0 -13 762 148 1
-2 0 -13 692 134 1
0 2 -13 567 139 1
0 -2 -12 6839 269 1
2 0 -12 7082 287 1
-2 0 -12 6531 274 1
2 -2 -12 6689 273 1
2 0 -12 6920 270 1
0 2 -12 6667 285 1
0 2 -12 7065 276 1
-2 2 -12 6521 282 1
2 0 -11 2058 136 1
0 2 -11 2032 147 1
2 0 -11 1902 150 1
0 2 -11 2089 153 1
2 -2 -11 1785 124 1
-2 0 -11 2011 146 1
-2 2 -11 1950 154 1
2 -2 -11 1934 148 1
0 -2 -11 2042 139 1
-2 2 -10 2069 153 1
2 -2 -10 2159 127 1
2 0 -10 2267 157 1
0 2 -10 2196 150 1
2 0 -10 1903 143 1
0 -2 -10 1962 137 1
-2 0 -10 1920 142 1
0 2 -10 2219 154 1
2 -2 -10 2033 146 1
2 0 -9 2769 163 1
2 -2 -9 2718 140 1
0 2 -9 2238 161 1
2 0 -9 2596 151 1
0 -2 -9 2613 147 1
2 -2 -9 2556 155 1
0 2 -9 2658 157 1
-2 2 -9 2657 160 1
2 -2 -8 26274 839 1
2 -2 -8 27812 830 1
0 -2 -8 28316 836 1
0 2 -8 28279 845 1
2 0 -8 27652 844 1
2 0 -8 27355 837 1
0 2 -7 253 92 1
2 -2 -7 204 63 1
2 0 -7 206 83 1
2 0 -7 277 93 1
2 -2 -7 271 87 1
0 -2 -7 189 72 1
2 0 -6 14788 691 1
0 2 -6 15297 698 1
2 -2 -6 15062 684 1
2 -2 -6 14582 690 1
0 -2 -6 14862 686 1
2 0 -6 14944 696 1
2 0 -5 16039 535 1
0 -2 -5 15063 528 1
2 -2 -5 16140 534 1
2 -2 -5 15948 527 1
2 0 -5 16253 540 1
0 2 -5 15873 540 1
0 -2 -4 10002 109 1
2 -2 -4 10071 126 1
2 0 -4 10434 127 1
2 0 -4 10316 141 1
2 -2 -4 9968 111 1
2 -2 -3 20496 413 1
2 -2 -3 20978 419 1
2 0 -3 20796 425 1
2 0 -3 21563 422 1
0 2 -2 251814 7025 1
2 0 -2 251807 7025 1
2 -2 -2 244715 7023 1
0 2 -1 8276 86 1
0 2 -1 7440 94 1
2 -2 -1 8405 87 1
2 -2 -1 7851 80 1
2 0 -1 7983 91 1
2 0 0 34610 118 1
0 2 0 34330 108 1
0 2 0 34699 114 1
2 -2 0 33714 117 1
2 0 1 8471 99 1
0 2 1 8631 86 1
2 0 1 8477 99 1
-2 0 1 8364 94 1
2 0 2 255237 7381 1
2 0 2 264916 7381 1
-1 3 -18 38 199 1
-2 3 -18 47 200 1
1 2 -18 103 192 1
2 1 -18 60 195 1
2 1 -17 996 195 1
-1 3 -17 905 200 1
-2 3 -17 606 190 1
-3 2 -17 464 175 1
1 2 -17 802 191 1
1 2 -16 12 163 1
-2 3 -16 12 168 1
-3 2 -16 12 160 1
-3 1 -16 128 158 1
-1 3 -16 20 171 1
2 1 -16 51 162 1
3 -1 -16 83 163 1
2 1 -15 1122 177 1
-3 2 -15 1334 167 1
-1 3 -15 1189 164 1
1 2 -15 1128 183 1
-2 3 -15 1244 167 1
-1 3 -15 1339 186 1
-3 1 -15 1380 170 1
3 -2 -15 1334 165 1
-2 3 -15 1272 180 1
3 -1 -15 1349 177 1
1 2 -14 354 151 1
3 -1 -14 285 144 1
3 -2 -14 271 137 1
-3 1 -14 398 137 1
-2 -1 -14 329 134 1
-3 2 -14 277 142 1
-1 3 -14 209 144 1
-2 3 -14 168 149 1
-1 3 -14 244 152 1
1 2 -14 312 146 1
2 1 -14 304 150 1
-1 -2 -13 3752 187 1
1 2 -13 3688 198 1
2 1 -13 3343 187 1
-2 -1 -13 3784 191 1
-3 2 -13 3676 200 1
2 -3 -13 3364 192 1
3 -2 -13 3691 202 1
-2 3 -13 3790 208 1
1 -3 -13 3475 190 1
-3 1 -13 3689 197 1
3 -1 -13 3663 204 1
2 1 -13 3564 207 1
-1 3 -13 3714 201 1
-1 3 -13 3808 208 1
1 2 -13 3706 211 1
1 -3 -12 877 122 1
-3 1 -12 1088 132 1
-1 -2 -12 963 119 1
2 1 -12 876 125 1
1 2 -12 1029 147 1
-2 3 -12 1014 142 1
3 -1 -12 889 139 1
3 -1 -12 871 113 1
-1 3 -12 1013 136 1
-2 -1 -12 1035 123 1
-1 3 -12 972 145 1
1 2 -12 942 129 1
2 -3 -12 855 128 1
2 1 -12 1090 142 1
3 -2 -12 983 137 1
-3 2 -12 984 131 1
2 1 -11 1791 155 1
2 -3 -11 1758 140 1
-3 1 -11 2044 152 1
-1 -2 -11 2016 139 1
-1 3 -11 1968 155 1
1 -3 -11 1832 136 1
-2 3 -11 1788 153 1
1 2 -11 1998 161 1
-2 -1 -11 2012 141 1
1 2 -11 1942 154 1
3 -2 -11 1847 150 1
2 1 -11 1987 150 1
3 -1 -11 2187 159 1
3 -1 -11 1873 135 1
-3 2 -11 1838 156 1
2 -3 -10 440 97 1
-1 3 -10 676 111 1
2 1 -10 383 112 1
3 -1 -10 387 102 1
1 -3 -10 516 71 1
1 2 -10 588 111 1
-1 -2 -10 507 96 1
-2 -1 -10 541 98 1
1 -3 -10 693 88 1
2 -3 -10 523 76 1
1 2 -10 586 114 1
2 1 -10 357 107 1
3 -2 -10 472 108 1
3 -2 -10 504 86 1
3 -1 -10 333 109 1
-2 3 -10 371 116 1
-1 -2 -9 1708 102 1
2 1 -9 1522 123 1
2 -3 -9 1368 109 1
-2 3 -9 1634 125 1
3 -1 -9 1795 125 1
1 2 -9 1621 119 1
3 -2 -9 1534 102 1
1 2 -9 1498 122 1
2 -3 -9 1437 86 1
-1 3 -9 1555 124 1
3 -2 -9 1692 120 1
1 -3 -9 1559 102 1
3 -1 -9 1599 106 1
2 1 -9 1451 116 1
3 -2 -8 2999 153 1
2 1 -8 2905 158 1
1 2 -8 2888 155 1
1 -3 -8 2893 134 1
-1 3 -8 3053 153 1
3 -1 -8 3183 141 1
2 -3 -8 2953 123 1
3 -1 -8 2873 152 1
1 2 -8 2882 151 1
2 -3 -8 3101 139 1
-1 -2 -8 3252 134 1
3 -2 -8 3126 132 1
2 1 -8 3012 149 1
1 2 -7 31103 1217 1
1 -3 -7 31024 1208 1
2 1 -7 31620 1216 1
3 -1 -7 30716 1218 1
3 -2 -7 31621 1208 1
2 -3 -7 31259 1211 1
3 -2 -7 31557 1216 1
-1 3 -7 32441 1220 1
2 -3 -7 31327 1203 1
2 1 -7 32222 1220 1
1 2 -7 33336 1221 1
3 -1 -7 31773 1211 1
3 -2 -6 209 73 1
3 -2 -6 95 91 1
3 -1 -6 375 89 1
1 2 -6 398 102 1
1 2 -6 341 100 1
3 -1 -6 133 92 1
2 1 -6 139 92 1
2 1 -6 87 95 1
1 -3 -6 99 59 1
2 -3 -6 226 75 1
-1 3 -6 123 84 1
2 -3 -6 265 53 1
3 -2 -5 30175 851 1
2 -3 -5 28313 845 1
3 -2 -5 30355 844 1
2 1 -5 30178 852 1
2 1 -5 28346 853 1
2 -3 -5 28839 837 1
3 -1 -5 29087 852 1
3 -1 -5 29376 847 1
1 2 -5 28715 851 1
2 1 -4 5499 116 1
3 -1 -4 5658 116 1
3 -2 -4 5849 109 1
1 2 -4 6028 115 1
1 -3 -4 5542 82 1
2 -3 -4 5742 95 1
3 -1 -4 5868 102 1
3 -2 -4 5464 89 1
1 -3 -3 118049 6623 1
-3 2 -3 121049 6625 1
3 -1 -3 123249 6629 1
1 2 -3 113288 6632 1
2 -3 -3 121366 6626 1
3 -2 -3 114343 6630 1
1 2 -3 118947 6632 1
3 -2 -3 121073 6626 1
3 -1 -3 118587 6632 1
2 1 -3 122145 6631 1
3 -1 -2 10621 1226 1
1 2 -2 10956 1228 1
3 -1 -2 10452 1230 1
-3 2 -2 10694 1223 1
2 1 -2 8587 1228 1
3 -2 -2 11243 1224 1
3 -2 -2 10605 1227 1
2 1 -2 9841 1228 1
2 -3 -2 11990 1222 1
2 1 -1 642 93 1
-3 1 -1 377 82 1
2 -3 -1 509 76 1
3 -2 -1 579 89 1
1 2 -1 597 88 1
1 2 -1 494 99 1
3 -1 -1 618 89 1
3 -2 -1 500 82 1
1 2 0 140 50 1
3 -2 0 130 80 1
1 2 0 128 63 1
3 -2 0 97 68 1
2 1 0 132 62 1
2 -3 0 99 57 1
2 1 0 100 65 1
3 -1 1 551 99 1
1 2 1 542 82 1
-1 3 1 483 66 1
1 2 1 500 69 1
2 1 1 611 91 1
2 1 1 559 82 1
3 -2 2 10401 1228 1
3 -1 2 10896 1227 1
1 2 2 11110 1221 1
2 1 2 11184 1222 1
1 2 2 9831 1218 1
3 -1 2 10669 1227 1
2 1 2 10471 1224 1
-2 -1 2 11090 1222 1
2 1 3 119027 6888 1
-1 -2 3 129213 6885 1
-2 -1 3 124737 6887 1
2 1 3 127347 6889 1
3 -1 3 136187 6893 1
1 2 3 119557 6886 1
-3 3 -18 167 196 1
0 3 -18 1 200 1
3 0 -18 57 195 1
0 3 -17 1002 202 1
3 0 -17 1237 201 1
-3 3 -17 1237 196 1
3 0 -16 86 172 1
-3 3 -16 23 165 1
0 3 -16 29 161 1
0 3 -15 1416 170 1
-3 0 -15 1629 164 1
0 3 -15 1546 182 1
-3 3 -15 1534 178 1
3 0 -15 1809 180 1
0 3 -14 540 161 1
-3 3 -14 605 151 1
-3 0 -14 598 139 1
0 3 -14 595 145 1
3 0 -14 496 157 1
3 -3 -14 861 151 1
0 3 -13 8164 363 1
3 0 -13 7469 338 1
-3 3 -13 7829 357 1
0 3 -13 7949 351 1
3 -3 -13 8486 349 1
3 0 -13 7626 358 1
-3 0 -13 7988 348 1
0 -3 -12 0 102 1
-3 3 -12 15 126 1
0 3 -12 101 126 1
0 3 -12 110 127 1
3 0 -12 0 129 1
3 0 -12 0 114 1
3 -3 -12 21 112 1
-3 0 -12 153 112 1
0 3 -11 4142 201 1
3 -3 -11 4227 195 1
0 3 -11 4084 202 1
-3 0 -11 4292 188 1
3 0 -11 3893 188 1
-3 3 -11 3976 194 1
0 -3 -11 4284 184 1
3 0 -11 4082 205 1
3 0 -10 1932 138 1
0 -3 -10 1613 113 1
0 3 -10 1822 136 1
3 -3 -10 1529 102 1
3 -3 -10 1626 128 1
3 0 -10 1675 124 1
0 3 -10 1444 133 1
3 -3 -9 1964 149 1
0 -3 -9 2190 133 1
3 0 -9 2266 158 1
0 3 -9 2229 152 1
3 -3 -9 2109 126 1
0 3 -9 2192 158 1
3 0 -9 2121 148 1
0 3 -8 94 96 1
3 -3 -8 14 63 1
3 0 -8 53 96 1
0 -3 -8 2 63 1
0 3 -8 64 90 1
3 0 -8 2 91 1
3 -3 -8 3 86 1
0 3 -7 24092 765 1
3 -3 -7 23706 758 1
0 3 -7 25104 764 1
3 0 -7 23254 764 1
3 -3 -7 24727 748 1
0 -3 -7 23966 750 1
3 0 -7 24130 759 1
0 -3 -6 8239 360 1
-3 3 -6 8153 353 1
3 -3 -6 8284 360 1
3 0 -6 8168 372 1
0 3 -6 6920 376 1
0 3 -6 7694 379 1
3 0 -6 8070 378 1
3 -3 -6 7473 370 1
3 -3 -5 14862 829 1
-3 3 -5 14325 817 1
3 0 -5 14702 831 1
0 -3 -5 14691 821 1
0 3 -5 14977 834 1
3 -3 -5 14363 821 1
3 0 -5 15257 836 1
3 -3 -4 23680 588 1
0 3 -4 24178 602 1
0 -3 -4 23288 587 1
3 0 -4 24589 600 1
3 0 -4 24311 603 1
0 3 -4 23098 601 1
3 -3 -4 24191 597 1
3 -3 -3 100900 4056 1
0 3 -3 93685 4060 1
3 0 -3 95529 4059 1
3 -3 -3 94566 4051 1
3 -3 -2 2463 195 1
3 -3 -2 2744 203 1
0 3 -2 3041 209 1
3 0 -2 2815 209 1
0 3 -2 2620 206 1
0 3 -1 12570 358 1
0 3 -1 12525 353 1
3 -3 -1 13017 356 1
3 0 -1 12014 359 1
3 -3 -1 12552 353 1
3 -3 0 43953 3372 1
0 3 0 47749 3368 1
0 3 0 40267 3370 1
3 0 0 45944 3373 1
0 3 1 12202 337 1
3 0 1 13195 347 1
-3 0 1 11597 343 1
3 0 1 12705 348 1
3 -3 1 10816 348 1
-3 0 2 3060 216 1
3 0 2 3101 218 1
3 0 2 2940 222 1
0 3 2 2764 202 1
3 0 3 95318 3992 1
3 0 3 97637 3993 1
0 3 3 92519 3985 1
0 -3 4 21908 530 1
-2 4 -16 233 178 1
-4 2 -16 6 163 1
4 -2 -16 89 167 1
2 2 -16 86 172 1
-2 4 -16 138 161 1
2 2 -14 163 162 1
-2 4 -14 48 147 1
-4 2 -14 55 145 1
2 2 -14 58 148 1
-2 4 -14 39 143 1
4 -2 -14 10 155 1
2 2 -12 397 129 1
2 -4 -12 396 110 1
4 -2 -12 410 127 1
-2 -2 -12 397 103 1
-2 4 -12 184 128 1
2 2 -12 390 132 1
2 2 -10 460 120 1
-2 4 -10 517 120 1
4 -2 -10 430 96 1
2 2 -10 295 110 1
-2 -2 -10 538 89 1
2 -4 -10 450 97 1
4 -2 -10 340 115 1
2 2 -8 2742 140 1
2 2 -8 2762 146 1
2 -4 -8 2696 100 1
2 -4 -8 2516 121 1
4 -2 -8 2819 138 1
-2 4 -8 2931 136 1
4 -2 -8 2987 127 1
4 -2 -6 32645 1353 1
4 -2 -6 29459 1345 1
2 -4 -6 34006 1335 1
2 -4 -6 32753 1343 1
2 2 -6 30474 1354 1
2 2 -6 30314 1352 1
2 2 -4 62791 2203 1
4 -2 -4 62018 2203 1
2 -4 -4 65910 2193 1
4 -2 -4 63657 2198 1
2 2 -2 13402 481 1
4 -2 -2 12207 479 1
-4 2 -2 11994 474 1
4 -2 -2 12607 476 1
2 -4 -2 12702 466 1
2 2 0 9197 186 1
2 2 0 8488 179 1
4 -2 0 7438 186 1
4 -2 2 12548 489 1
2 2 2 13201 482 1
2 2 2 12647 476 1
2 2 4 62351 2172 1
-2 -2 4 64401 2170 1
3 1 -17 798 199 1
4 -1 -17 1044 201 1
-4 3 -17 1172 194 1
1 3 -17 1292 206 1
-3 4 -17 1234 205 1
-1 4 -17 1153 205 1
-3 4 -16 860 174 1
-1 4 -16 706 177 1
-4 3 -16 839 178 1
4 -1 -16 865 183 1
-3 4 -16 897 187 1
1 3 -16 673 186 1
3 1 -16 968 186 1
-1 4 -16 790 184 1
4 -1 -15 1076 173 1
1 3 -15 1246 186 1
-1 4 -15 1174 183 1
-4 3 -15 1512 182 1
1 3 -15 1574 170 1
3 1 -15 1611 185 1
-3 4 -15 1181 181 1
-4 1 -15 1182 161 1
-1 4 -15 1337 171 1
1 3 -14 3023 209 1
4 -1 -14 2829 201 1
-3 4 -14 2887 207 1
-4 3 -14 2788 198 1
4 -3 -14 2814 185 1
-1 4 -14 2812 194 1
1 3 -14 2720 192 1
-4 1 -14 2782 185 1
-1 4 -14 2599 200 1
3 1 -14 3057 212 1
4 -3 -13 2978 188 1
-4 1 -13 2673 178 1
-3 -1 -13 2950 171 1
-1 4 -13 2614 192 1
1 3 -13 2814 193 1
-4 3 -13 3072 193 1
4 -1 -13 2811 197 1
3 1 -13 2669 199 1
3 1 -13 2739 183 1
-3 4 -13 2797 189 1
-1 4 -13 2654 190 1
1 3 -13 2864 196 1
1 3 -12 3034 197 1
4 -1 -12 3236 182 1
-3 -1 -12 3562 182 1
3 -4 -12 3043 186 1
-1 4 -12 3344 198 1
-4 3 -12 3046 196 1
3 1 -12 3207 189 1
4 -3 -12 3554 198 1
1 3 -12 3395 204 1
4 -1 -12 3305 206 1
3 1 -12 3466 210 1
-1 4 -12 3150 201 1
-3 4 -12 3060 196 1
-1 4 -11 7860 342 1
4 -3 -11 9386 342 1
1 -4 -11 8374 325 1
3 1 -11 8411 338 1
1 3 -11 8365 344 1
-3 4 -11 8741 345 1
4 -1 -11 8134 332 1
1 3 -11 8309 347 1
-1 -3 -11 8252 324 1
3 1 -11 8420 347 1
4 -1 -11 8588 348 1
-1 4 -11 9089 349 1
3 -4 -11 8897 335 1
3 -4 -10 689 103 1
1 -4 -10 572 88 1
-1 -3 -10 609 80 1
-3 4 -10 593 111 1
1 3 -10 647 113 1
1 3 -10 692 120 1
4 -3 -10 567 86 1
4 -1 -10 693 101 1
3 1 -10 447 113 1
-1 4 -10 480 110 1
3 1 -10 550 119 1
4 -1 -10 661 121 1
4 -3 -10 608 108 1
3 -4 -9 10206 400 1
3 1 -9 10484 428 1
1 3 -9 10774 427 1
4 -1 -9 10577 417 1
-1 4 -9 10566 428 1
4 -3 -9 11117 409 1
4 -3 -9 11024 423 1
-1 -3 -9 11115 408 1
4 -1 -9 10889 428 1
3 1 -9 10998 422 1
1 3 -9 10527 423 1
1 -4 -9 10987 409 1
3 -4 -9 11002 414 1
3 1 -8 816 110 1
-1 4 -8 584 108 1
4 -1 -8 731 97 1
4 -3 -8 732 104 1
1 3 -8 697 110 1
3 -4 -8 719 89 1
4 -3 -8 728 80 1
1 3 -8 740 103 1
1 -4 -8 680 77 1
3 1 -8 648 107 1
4 -1 -8 622 113 1
3 -4 -8 742 66 1
-1 -3 -8 678 72 1
4 -1 -7 10327 456 1
-1 -3 -7 9813 436 1
-1 4 -7 9291 452 1
1 -4 -7 10329 435 1
3 -4 -7 10597 430 1
3 1 -7 10648 455 1
1 3 -7 10244 454 1
3 -4 -7 10157 443 1
4 -3 -7 10223 437 1
4 -1 -7 10001 445 1
4 -3 -7 10022 449 1
1 3 -7 9722 452 1
3 1 -7 9922 450 1
4 -3 -6 26451 935 1
4 -3 -6 25640 925 1
-4 3 -6 27053 921 1
3 -4 -6 25906 919 1
3 -4 -6 26051 930 1
3 1 -6 27057 937 1
4 -1 -6 26340 933 1
4 -1 -6 26545 939 1
1 -4 -6 25502 923 1
3 1 -6 26318 939 1
1 3 -6 26560 939 1
4 -1 -5 784 109 1
3 -4 -5 918 48 1
1 -4 -5 814 52 1
4 -1 -5 799 90 1
3 1 -5 898 98 1
4 -3 -5 876 72 1
-4 3 -5 891 56 1
1 3 -5 808 100 1
3 -4 -5 881 78 1
-1 4 -5 738 95 1
3 1 -5 929 98 1
4 -3 -5 779 94 1
1 -4 -4 85546 3019 1
4 -3 -4 80416 3029 1
1 3 -4 89307 3033 1
3 -4 -4 84781 3025 1
4 -1 -4 83815 3033 1
3 1 -4 88637 3032 1
1 3 -4 84626 3032 1
4 -3 -4 86309 3024 1
4 -1 -4 82788 3029 1
-4 3 -4 82043 3022 1
-1 4 -4 86001 3032 1
3 1 -3 17271 866 1
4 -1 -3 16382 868 1
4 -3 -3 15992 864 1
3 -4 -3 17077 859 1
4 -3 -3 15631 858 1
-4 3 -3 17701 858 1
1 3 -3 17579 867 1
4 -1 -3 17416 866 1
3 -4 -2 825 250 1
1 3 -2 761 258 1
4 -3 -2 689 258 1
4 -3 -2 715 251 1
1 3 -2 721 262 1
3 1 -2 878 264 1
4 -1 -2 832 257 1
3 1 -2 560 262 1
3 -4 -1 43313 1646 1
-4 1 -1 43912 1649 1
1 3 -1 43350 1648 1
4 -1 -1 41821 1650 1
1 3 -1 41309 1649 1
4 -3 -1 41916 1650 1
4 -3 -1 41299 1647 1
-1 4 -1 42363 1648 1
3 1 -1 45272 1651 1
1 3 0 7033 325 1
-1 4 0 6857 321 1
4 -1 0 7367 331 1
3 -4 0 7230 327 1
4 -3 0 7915 329 1
4 -3 0 7795 332 1
1 3 0 7397 321 1
3 1 0 6551 327 1
3 1 1 41914 1626 1
-1 4 1 42339 1619 1
-4 1 1 41462 1625 1
3 1 1 41248 1624 1
4 -1 1 42353 1627 1
1 3 1 42826 1618 1
1 3 1 41379 1622 1
4 -1 2 854 276 1
-3 -1 2 820 270 1
4 -1 2 778 279 1
3 1 2 857 270 1
1 3 2 916 256 1
1 3 2 814 264 1
3 1 2 982 274 1
-1 4 2 906 256 1
4 -1 3 16847 850 1
-3 -1 3 15902 844 1
4 -1 3 17002 850 1
3 1 3 16869 845 1
1 3 3 16809 836 1
3 1 3 16592 846 1
4 -3 3 16200 853 1
1 3 3 15400 840 1
1 3 4 85791 3112 1
3 1 4 98347 3120 1
3 1 4 84698 3116 1
4 -1 4 85832 3121 1
-1 -3 4 85045 3110 1
-1 -3 5 840 61 1
4 0 -17 2 184 1
0 4 -17 127 199 1
-4 4 -17 5 181 1
0 4 -16 5919 326 1
-4 4 -16 6391 320 1
0 4 -16 6273 312 1
4 0 -16 6526 325 1
4 0 -15 2 167 1
0 4 -15 56 180 1
0 4 -15 238 159 1
-4 4 -15 74 162 1
0 4 -14 7801 345 1
-4 4 -14 7065 345 1
-4 0 -14 7832 335 1
0 4 -14 7698 355 1
4 0 -14 7735 350 1
4 0 -13 2233 155 1
0 4 -13 2315 179 1
-4 0 -13 2061 145 1
0 4 -13 2047 162 1
-4 4 -13 1740 166 1
4 0 -13 1946 173 1
4 -4 -13 1943 160 1
4 -4 -12 15281 575 1
0 4 -12 15751 588 1
-4 4 -12 15315 584 1
4 0 -12 15421 587 1
0 4 -12 15994 584 1
4 0 -12 15911 577 1
4 -4 -11 123 101 1
0 4 -11 1 117 1
0 4 -11 142 124 1
4 0 -11 100 108 1
4 0 -11 48 121 1
0 4 -10 24967 985 1
0 4 -10 24968 982 1
0 -4 -10 26128 967 1
4 0 -10 25106 977 1
4 -4 -10 25915 977 1
4 0 -10 24959 985 1
4 -4 -9 243 69 1
4 0 -9 280 109 1
0 -4 -9 238 67 1
0 4 -9 319 111 1
0 4 -9 192 101 1
4 -4 -9 227 97 1
4 0 -9 289 104 1
0 4 -8 18121 583 1
4 -4 -8 18029 562 1
0 -4 -8 17720 564 1
4 0 -8 17459 577 1
4 0 -8 17776 586 1
0 4 -8 16978 582 1
4 -4 -8 18458 576 1
0 4 -7 637 104 1
4 -4 -7 804 62 1
0 -4 -7 576 53 1
4 0 -7 857 105 1
4 -4 -7 675 89 1
4 0 -7 590 87 1
4 0 -6 75827 2965 1
4 0 -6 76086 2961 1
4 -4 -6 73749 2948 1
4 -4 -6 75437 2958 1
0 -4 -6 74905 2948 1
0 4 -6 73486 2963 1
0 4 -5 45844 1456 1
4 0 -5 45734 1458 1
0 4 -5 47461 1458 1
0 -4 -5 46013 1440 1
4 -4 -5 46300 1442 1
4 0 -5 45492 1454 1
4 -4 -5 43167 1451 1
4 0 -4 74136 2130 1
4 -4 -4 71719 2126 1
4 0 -4 71352 2133 1
0 4 -4 75344 2132 1
4 -4 -4 72158 2119 1
4 -4 -3 5839 274 1
4 0 -3 6327 281 1
0 4 -3 5980 277 1
0 4 -3 5226 279 1
4 -4 -3 6226 263 1
0 4 -2 55635 941 1
4 -4 -2 54718 938 1
4 -4 -2 56562 934 1
0 4 -2 54620 939 1
4 0 -2 55955 943 1
0 4 -1 18028 324 1
4 -4 -1 18104 329 1
0 4 -1 17600 330 1
4 0 -1 18092 334 1
4 -4 0 39038 1002 1
0 4 0 39597 999 1
4 0 0 38004 1003 1
0 4 0 40338 995 1
0 4 1 20464 344 1
4 0 1 18897 354 1
-4 0 1 18620 349 1
4 -4 1 18455 353 1
4 0 1 19005 351 1
0 4 1 18136 333 1
4 0 2 61176 973 1
4 0 2 57067 973 1
-4 0 2 53924 969 1
4 -4 2 55189 974 1
0 4 2 57036 963 1
-4 0 3 6200 268 1
0 4 3 5484 252 1
4 0 3 5712 274 1
4 0 3 5656 269 1
0 4 4 72827 2119 1
4 0 4 72883 2130 1
4 0 4 71817 2131 1
0 -4 5 45194 1419 1
3 2 -17 2 198 1
-3 5 -17 1 187 1
2 3 -17 2 194 1
-5 3 -17 1 180 1
-2 5 -17 2 194 1
-5 2 -16 693 164 1
5 -2 -16 608 182 1
-5 3 -16 615 176 1
-2 5 -16 464 186 1
3 2 -16 668 188 1
2 3 -16 403 183 1
-3 5 -16 724 185 1
-3 5 -16 463 175 1
-2 5 -16 454 169 1
2 3 -15 328 165 1
5 -2 -15 1 165 1
3 2 -15 13 177 1
-5 2 -15 71 148 1
-3 5 -15 195 161 1
-2 5 -15 1 162 1
-3 5 -15 45 164 1
5 -3 -15 59 156 1
-2 5 -15 49 169 1
2 3 -15 204 179 1
-5 3 -15 84 159 1
3 2 -14 2184 186 1
-2 5 -14 2138 198 1
-3 5 -14 2016 191 1
-5 3 -14 2032 182 1
-5 2 -14 2273 179 1
2 3 -14 2006 200 1
2 3 -14 2145 177 1
5 -3 -14 2038 179 1
3 2 -14 1998 200 1
5 -2 -14 2126 193 1
-2 5 -14 2193 186 1
3 2 -13 141 136 1
5 -3 -13 202 139 1
-2 5 -13 134 151 1
-3 5 -13 107 151 1
3 2 -13 224 155 1
2 3 -13 251 155 1
-2 5 -13 159 145 1
5 -2 -13 235 144 1
2 3 -13 278 147 1
-2 5 -12 3706 206 1
-3 5 -12 3431 204 1
5 -3 -12 3534 198 1
2 3 -12 3248 207 1
3 2 -12 3336 209 1
-3 -2 -12 3570 178 1
2 3 -12 3585 208 1
3 2 -12 3094 196 1
5 -2 -12 3559 205 1
3 -5 -11 338 103 1
2 3 -11 205 123 1
3 2 -11 212 122 1
-2 -3 -11 294 78 1
-3 5 -11 486 122 1
3 2 -11 402 125 1
-3 -2 -11 258 90 1
5 -2 -11 350 131 1
-2 5 -11 315 129 1
5 -3 -11 308 123 1
2 3 -11 386 126 1
5 -2 -11 285 105 1
5 -2 -10 5179 243 1
2 3 -10 4915 238 1
3 -5 -10 4910 218 1
2 -5 -10 5248 215 1
5 -3 -10 5028 237 1
-3 5 -10 4629 234 1
5 -2 -10 5004 224 1
5 -3 -10 5148 216 1
-2 -3 -10 5321 212 1
3 2 -10 5379 244 1
2 3 -10 5264 238 1
3 2 -10 5193 235 1
-2 5 -10 5458 239 1
2 3 -9 2611 152 1
3 -5 -9 2526 129 1
3 2 -9 2626 156 1
5 -3 -9 2467 149 1
5 -2 -9 2814 154 1
3 2 -9 2586 154 1
5 -3 -9 2562 127 1
2 3 -9 2620 154 1
5 -2 -9 2410 136 1
-2 5 -9 2571 152 1
2 -5 -9 2690 125 1
-2 5 -8 5989 263 1
5 -3 -8 6575 262 1
5 -3 -8 6681 246 1
3 2 -8 6516 264 1
2 -5 -8 7273 244 1
2 3 -8 7093 265 1
3 2 -8 6816 266 1
5 -2 -8 6426 251 1
2 3 -8 6828 265 1
5 -2 -8 6744 269 1
3 -5 -8 7001 248 1
5 -2 -7 82 82 1
3 2 -7 209 102 1
5 -2 -7 41 96 1
2 3 -7 122 97 1
3 -5 -7 127 67 1
5 -3 -7 163 78 1
5 -3 -7 64 92 1
2 -5 -7 75 60 1
3 2 -7 13 99 1
2 -5 -6 532 62 1
3 -5 -6 532 73 1
-5 3 -6 440 61 1
5 -3 -6 444 83 1
5 -2 -6 575 87 1
5 -3 -6 553 103 1
5 -2 -6 480 109 1
2 3 -6 478 99 1
3 2 -6 422 103 1
2 -5 -5 31771 927 1
2 3 -5 30784 944 1
-5 3 -5 29475 930 1
5 -2 -5 31377 938 1
3 2 -5 32032 944 1
3 -5 -5 31621 930 1
5 -3 -5 30398 934 1
5 -2 -5 29663 943 1
2 3 -5 30431 944 1
5 -3 -5 29343 941 1
-5 3 -4 5541 207 1
3 2 -4 5773 226 1
5 -3 -4 5633 213 1
5 -2 -4 5838 230 1
2 3 -4 5743 228 1
2 3 -4 5945 229 1
2 -5 -4 5779 197 1
5 -2 -4 5647 216 1
3 -5 -4 5986 203 1
5 -3 -4 5707 223 1
3 2 -4 5768 227 1
5 -2 -3 2251 156 1
3 2 -3 2347 164 1
2 3 -3 2206 165 1
-5 2 -3 2241 149 1
-5 3 -3 2137 149 1
5 -3 -3 2272 163 1
5 -3 -3 2432 149 1
3 -5 -3 2332 137 1
5 -2 -3 2305 166 1
3 2 -3 2605 164 1
-5 3 -2 7436 162 1
5 -2 -2 7881 181 1
3 2 -2 8031 178 1
2 3 -2 7958 172 1
2 3 -2 7673 175 1
-5 2 -2 8059 168 1
3 -5 -2 7301 154 1
5 -3 -2 7533 177 1
5 -3 -2 7958 167 1
5 -2 -2 7910 170 1
5 -3 -1 15198 618 1
5 -2 -1 14866 615 1
-5 2 -1 14113 613 1
2 3 -1 17171 615 1
3 2 -1 14955 613 1
3 2 -1 16451 618 1
2 3 -1 15363 611 1
3 -5 -1 15077 607 1
5 -3 -1 14487 612 1
5 -3 0 13172 672 1
3 2 0 12646 667 1
2 3 0 13954 670 1
5 -2 0 12594 671 1
5 -3 0 13026 672 1
-5 2 0 13135 669 1
2 3 0 12333 665 1
3 2 0 12083 671 1
3 2 1 14136 591 1
3 2 1 13408 595 1
2 3 1 15724 588 1
2 3 1 14939 594 1
5 -3 1 14931 598 1
5 -2 1 14814 599 1
2 3 2 7279 163 1
2 3 2 7427 151 1
5 -2 2 7503 179 1
3 2 2 7562 166 1
-2 5 2 7783 144 1
3 2 2 7855 162 1
3 2 3 2389 157 1
5 -2 3 2667 182 1
2 3 3 2543 148 1
2 3 3 2357 158 1
-3 -2 3 2276 158 1
5 -3 3 2597 180 1
3 2 3 2811 169 1
5 -2 4 6118 236 1
2 3 4 5901 210 1
2 3 4 5826 216 1
-2 -3 4 5889 212 1
3 2 4 5887 222 1
3 2 4 5674 218 1
5 -3 4 5990 235 1
-3 -2 4 5963 218 1
-2 -3 5 26622 892 1
-3 -2 5 31293 897 1
3 2 5 33750 903 1
2 3 5 28936 896 1
4 1 -17 3757 269 1
5 -1 -17 3997 265 1
-1 5 -17 3897 266 1
-4 5 -17 3668 263 1
1 4 -17 3291 264 1
-5 4 -17 3116 243 1
5 -1 -16 1743 206 1
-1 5 -16 1852 221 1
1 4 -16 1620 216 1
-4 5 -16 1418 206 1
-1 5 -16 1602 198 1
1 4 -16 1683 204 1
-5 4 -16 1540 199 1
4 1 -16 2045 213 1
-5 1 -15 5148 262 1
-4 5 -15 5454 284 1
5 -1 -15 4754 280 1
-1 5 -15 5684 276 1
-1 5 -15 5266 287 1
4 1 -15 5904 288 1
1 4 -15 5505 274 1
-5 4 -15 5450 276 1
1 4 -15 5258 284 1
-1 5 -14 1870 182 1
5 -1 -14 2101 187 1
-5 4 -14 2038 173 1
-5 1 -14 1793 162 1
1 4 -14 2221 189 1
-4 5 -14 1889 186 1
4 1 -14 1846 191 1
1 4 -14 2135 186 1
-1 5 -14 2036 186 1
1 4 -13 9329 395 1
5 -4 -13 9579 385 1
4 1 -13 9094 384 1
4 1 -13 8084 397 1
1 4 -13 8721 397 1
-1 5 -13 8989 400 1
-4 5 -13 8754 395 1
5 -1 -13 8178 396 1
-4 -1 -13 8857 376 1
-1 5 -13 8974 397 1
1 4 -12 2130 175 1
4 1 -12 2361 157 1
5 -4 -12 2082 160 1
1 4 -12 2376 168 1
-1 5 -12 2288 174 1
5 -1 -12 2322 177 1
5 -1 -12 2038 151 1
-1 5 -12 1963 172 1
4 1 -12 2202 175 1
-4 5 -12 2014 164 1
1 4 -11 14281 543 1
5 -1 -11 14848 532 1
5 -4 -11 14311 535 1
-1 5 -11 13858 542 1
4 1 -11 14926 545 1
4 1 -11 14173 534 1
-1 5 -11 14372 541 1
4 -5 -11 15102 528 1
5 -1 -11 14465 543 1
1 4 -11 13941 538 1
-1 5 -10 9994 402 1
4 -5 -10 10146 387 1
1 4 -10 9573 397 1
5 -4 -10 10019 394 1
5 -1 -10 10225 405 1
1 4 -10 10069 403 1
4 1 -10 9619 401 1
4 1 -10 10050 394 1
-1 5 -10 9480 400 1
5 -1 -10 9820 389 1
1 4 -9 13756 539 1
4 1 -9 13515 531 1
5 -1 -9 14152 527 1
5 -4 -9 14186 514 1
5 -4 -9 14160 530 1
-1 -4 -9 13760 513 1
5 -1 -9 13609 536 1
1 -5 -9 13946 513 1
-1 5 -9 13926 535 1
4 -5 -9 13700 522 1
4 1 -9 13842 539 1
1 4 -9 13731 533 1
-1 5 -9 13784 536 1
5 -4 -8 10378 374 1
4 1 -8 10435 397 1
4 1 -8 10184 391 1
1 4 -8 10293 394 1
1 -5 -8 9999 370 1
5 -4 -8 9968 389 1
-1 -4 -8 9982 372 1
5 -1 -8 10904 387 1
5 -1 -8 10260 396 1
-1 5 -8 10356 394 1
4 -5 -8 10434 382 1
-5 4 -8 10202 365 1
4 1 -7 14862 545 1
5 -4 -7 14683 542 1
4 -5 -7 15717 536 1
5 -1 -7 14425 540 1
5 -1 -7 15201 551 1
4 -5 -7 15245 521 1
5 -4 -7 15403 530 1
-1 -4 -7 14683 527 1
4 1 -7 14558 550 1
1 -5 -7 15094 525 1
-5 4 -7 15168 524 1
1 4 -7 14930 548 1
5 -1 -6 15821 618 1
4 1 -6 16677 618 1
-5 4 -6 16362 595 1
4 1 -6 16668 616 1
5 -1 -6 15945 610 1
4 -5 -6 16276 591 1
-1 5 -6 15928 614 1
1 4 -6 15799 616 1
1 -5 -6 16607 594 1
1 4 -6 16517 615 1
5 -4 -6 17877 600 1
5 -4 -6 15929 610 1
4 -5 -6 16801 606 1
4 -5 -5 97310 2929 1
5 -4 -5 95870 2926 1
1 4 -5 100420 2940 1
-5 4 -5 92216 2924 1
1 4 -5 94819 2938 1
1 -5 -5 95778 2919 1
-1 5 -5 97905 2938 1
4 -5 -5 95787 2919 1
5 -1 -5 98498 2935 1
5 -4 -5 94529 2934 1
5 -1 -5 95735 2939 1
4 1 -5 97325 2937 1
5 -4 -4 1327 60 1
5 -4 -4 1766 86 1
4 -5 -4 1355 67 1
5 -1 -4 1454 91 1
1 4 -4 1478 92 1
-1 5 -4 1389 88 1
4 1 -4 1680 92 1
5 -1 -4 1872 92 1
4 -5 -3 31771 1564 1
1 4 -3 26422 1569 1
-1 5 -3 30888 1571 1
5 -1 -3 31332 1570 1
5 -4 -3 31131 1569 1
4 1 -3 27994 1572 1
4 1 -3 32711 1572 1
-1 5 -3 32460 1569 1
1 4 -3 31252 1570 1
5 -4 -3 29748 1563 1
5 -1 -3 28862 1573 1
-1 5 -2 20296 784 1
5 -4 -2 20750 779 1
-1 5 -2 19978 781 1
1 4 -2 19418 782 1
4 -5 -2 18173 779 1
5 -4 -2 18969 784 1
1 4 -2 19915 785 1
5 -1 -2 19588 785 1
4 1 -2 19692 786 1
4 1 -2 19437 787 1
5 -4 -1 25706 1060 1
4 -5 -1 25935 1059 1
-5 1 -1 24486 1060 1
1 4 -1 26330 1062 1
5 -1 -1 23528 1062 1
-1 5 -1 25904 1056 1
1 4 -1 25099 1058 1
4 1 -1 23232 1062 1
5 -4 -1 24612 1063 1
-1 5 -1 23236 1060 1
4 -5 0 33687 928 1
4 1 0 32739 929 1
5 -1 0 35325 934 1
4 1 0 35410 932 1
-1 5 0 34747 925 1
1 4 0 34048 923 1
-1 5 0 34389 921 1
1 4 0 33546 928 1
5 -4 0 33762 933 1
1 4 1 23339 1041 1
5 -1 1 25743 1048 1
-5 1 1 23937 1045 1
4 1 1 24325 1047 1
5 -4 1 25676 1049 1
1 4 1 25078 1035 1
-1 5 1 24615 1033 1
4 1 1 22503 1043 1
4 -5 1 24466 1046 1
-4 -1 2 20492 791 1
-5 1 2 19846 792 1
1 4 2 20928 787 1
5 -1 2 19874 795 1
5 -1 2 19459 795 1
4 1 2 21359 792 1
4 1 2 19629 794 1
-1 5 2 18267 781 1
1 4 2 19734 779 1
4 1 3 32511 1635 1
-1 5 3 32135 1622 1
5 -1 3 30250 1637 1
5 -1 3 31402 1637 1
1 4 3 34115 1628 1
-4 -1 3 32353 1632 1
1 4 3 31345 1621 1
4 1 3 31592 1633 1
5 -1 4 1212 95 1
4 1 4 1359 90 1
4 1 4 1222 82 1
-1 5 4 1247 38 1
5 -1 4 1344 102 1
-4 -1 4 1692 76 1
1 4 4 1372 63 1
4 1 5 92504 2999 1
1 4 5 96983 2993 1
5 -1 5 95706 3004 1
4 1 5 97046 3002 1
-1 -4 5 103266 2992 1
-1 -4 6 14521 529 1
0 5 -17 7537 396 1
5 0 -17 7927 390 1
-5 5 -17 8217 389 1
5 0 -16 1873 222 1
-5 5 -16 2229 221 1
0 5 -16 2198 226 1
0 5 -16 2438 221 1
0 5 -15 12347 514 1
5 0 -15 11719 511 1
0 5 -15 12129 504 1
-5 5 -15 12002 506 1
-5 5 -14 2808 203 1
-5 0 -14 2522 181 1
0 5 -14 2309 196 1
5 0 -14 2637 212 1
0 5 -14 2109 208 1
0 5 -13 7476 363 1
0 5 -13 7833 355 1
5 0 -13 7542 349 1
-5 5 -13 7235 355 1
5 0 -13 7320 367 1
5 -5 -12 12725 472 1
0 5 -12 11649 485 1
0 5 -12 12484 489 1
5 0 -12 12830 479 1
5 0 -12 12178 488 1
0 5 -11 18905 749 1
5 0 -11 20122 745 1
0 5 -11 19254 753 1
5 0 -11 19388 754 1
5 -5 -11 20450 742 1
0 5 -10 9353 391 1
5 0 -10 9111 396 1
0 5 -10 8972 388 1
5 0 -10 9001 385 1
5 -5 -10 9256 381 1
5 0 -9 30951 1064 1
0 5 -9 29447 1067 1
5 -5 -9 30325 1060 1
5 0 -9 30163 1071 1
5 0 -8 6112 263 1
5 0 -8 5822 269 1
0 -5 -8 6073 236 1
0 5 -8 5932 265 1
5 -5 -8 6411 258 1
5 -5 -8 6076 236 1
0 5 -7 57207 2036 1
5 -5 -7 58970 2030 1
5 -5 -7 62033 2018 1
5 0 -7 58308 2034 1
5 0 -7 60591 2040 1
0 -5 -7 59161 2018 1
0 5 -7 59369 2037 1
0 5 -6 17300 733 1
0 -5 -6 17153 710 1
5 -5 -6 16844 724 1
5 0 -6 17010 730 1
0 5 -6 16928 734 1
5 0 -6 17401 736 1
5 -5 -6 17353 713 1
5 -5 -5 180961 6347 1
5 0 -5 177302 6356 1
5 0 -5 175924 6351 1
5 -5 -5 175100 6339 1
0 5 -5 177803 6353 1
5 0 -4 21605 726 1
5 -5 -4 20002 709 1
5 -5 -4 19791 718 1
0 5 -4 21842 725 1
5 -5 -3 45176 1942 1
5 -5 -3 44863 1948 1
0 5 -3 44755 1950 1
0 5 -3 45750 1952 1
5 0 -3 44267 1952 1
5 0 -2 34809 1248 1
0 5 -2 33490 1247 1
5 -5 -2 33303 1243 1
0 5 -2 37307 1244 1
5 0 -2 34851 1248 1
0 5 -1 83482 3728 1
5 0 -1 89500 3735 1
0 5 -1 85794 3731 1
5 -5 -1 84156 3732 1
0 5 0 6874 173 1
0 5 0 7424 160 1
5 0 0 8049 185 1
5 -5 0 8059 183 1
-5 0 1 75826 3638 1
5 0 1 82791 3641 1
5 -5 1 80995 3640 1
0 5 1 82935 3634 1
0 5 1 79791 3628 1
0 5 2 36708 1313 1
5 0 2 36792 1323 1
-5 0 2 37750 1321 1
5 0 2 35530 1323 1
5 -5 2 37580 1324 1
5 0 3 49820 2152 1
5 0 3 43180 2148 1
0 5 4 20177 716 1
5 0 4 22640 735 1
5 0 4 21129 731 1
5 0 5 172920 6601 1
0 5 5 189498 6587 1
5 0 5 181533 6600 1
0 -5 6 19656 807 1
-3 6 -16 138 173 1
-3 6 -16 366 195 1
-6 3 -16 4 163 1
3 3 -16 45 182 1
-3 6 -14 363 164 1
6 -3 -14 426 161 1
3 3 -14 696 169 1
3 3 -14 469 162 1
-3 6 -14 317 159 1
-3 6 -12 2851 199 1
3 3 -12 2666 189 1
6 -3 -12 2573 191 1
3 3 -12 2693 192 1
6 -3 -10 2180 156 1
6 -3 -10 1999 129 1
-3 6 -10 2183 145 1
3 3 -10 1979 155 1
3 3 -10 2306 151 1
6 -3 -8 2387 158 1
3 3 -8 2291 159 1
3 -6 -8 2164 126 1
6 -3 -8 2292 137 1
3 3 -8 2228 158 1
3 -6 -6 1981 121 1
3 3 -6 2058 159 1
6 -3 -6 2113 153 1
6 -3 -6 2107 139 1
-6 3 -6 1907 124 1
3 3 -4 10094 349 1
3 -6 -4 9622 323 1
3 3 -4 10074 347 1
6 -3 -4 9227 344 1
-6 3 -4 9492 336 1
6 -3 -4 10164 338 1
6 -3 -2 5114 304 1
3 3 -2 5315 300 1
6 -3 -2 5190 296 1
3 3 -2 5380 303 1
3 -6 -2 4976 280 1
-6 3 -2 4986 292 1
3 3 0 24920 1158 1
6 -3 0 25126 1164 1
3 3 0 22520 1161 1
6 -3 2 4805 299 1
3 3 2 4717 286 1
3 3 2 4994 280 1
-3 -3 4 10709 345 1
3 3 4 9854 340 1
6 -3 4 9547 360 1
3 3 4 10040 349 1
-3 -3 6 2061 134 1
3 3 6 2071 144 1
-4 6 -17 1322 205 1
4 2 -17 1633 225 1
-2 6 -17 1255 215 1
-6 4 -17 1343 200 1
-4 6 -17 1455 210 1
-2 6 -17 1333 208 1
2 4 -17 1494 228 1
2 4 -16 893 197 1
2 4 -16 1157 189 1
4 2 -16 1362 215 1
6 -2 -16 1245 204 1
-4 6 -16 1061 193 1
-4 6 -16 1012 199 1
-6 4 -16 1333 190 1
-2 6 -16 1084 192 1
-6 2 -16 1358 184 1
-2 6 -16 1054 203 1
-6 2 -15 1504 173 1
-6 4 -15 1614 173 1
2 4 -15 1914 189 1
4 2 -15 1440 199 1
2 4 -15 1461 197 1
-2 6 -15 1432 185 1
6 -2 -15 1364 191 1
-4 6 -15 1308 187 1
-2 6 -15 1527 195 1
2 4 -14 2095 200 1
2 4 -14 2120 196 1
-2 6 -14 2163 199 1
4 2 -14 2299 214 1
-2 6 -14 2148 202 1
4 2 -14 2178 185 1
-4 6 -14 2086 203 1
6 -2 -14 2382 201 1
6 -4 -14 2200 186 1
6 -2 -13 6155 296 1
-2 6 -13 5546 297 1
6 -4 -13 6022 288 1
-2 6 -13 5871 298 1
4 2 -13 5749 286 1
-4 6 -13 6167 297 1
4 2 -13 6415 310 1
2 4 -13 5716 288 1
2 4 -13 5891 299 1
2 4 -12 1889 180 1
-4 6 -12 2202 172 1
-2 6 -12 1918 173 1
2 4 -12 2065 179 1
6 -2 -12 1840 174 1
-2 6 -12 1937 168 1
4 2 -12 2254 186 1
6 -4 -12 1887 170 1
4 2 -12 1801 164 1
6 -2 -11 4682 224 1
-2 6 -11 4935 221 1
-4 6 -11 4584 220 1
2 4 -11 4448 217 1
6 -4 -11 4594 213 1
-2 6 -11 4647 218 1
4 2 -11 4303 217 1
2 4 -11 4105 213 1
4 2 -11 4312 210 1
6 -2 -11 4464 199 1
2 4 -10 4339 211 1
-2 6 -10 4023 205 1
4 2 -10 3743 203 1
2 4 -10 3798 202 1
6 -2 -10 3998 190 1
6 -2 -10 3737 209 1
4 2 -10 4040 207 1
6 -4 -10 3882 202 1
6 -4 -9 8796 387 1
-2 -4 -9 9198 367 1
4 -6 -9 8416 372 1
4 2 -9 9145 392 1
2 4 -9 9031 393 1
6 -2 -9 9404 394 1
6 -2 -9 8658 380 1
2 4 -9 8829 392 1
4 2 -9 8958 394 1
6 -4 -9 9591 372 1
6 -2 -8 6857 279 1
6 -2 -8 6995 268 1
6 -4 -8 6609 256 1
4 2 -8 6461 277 1
2 -6 -8 6549 248 1
4 -6 -8 6729 257 1
-6 4 -8 7211 247 1
6 -4 -8 7037 274 1
4 2 -8 6976 277 1
2 4 -8 6901 279 1
6 -4 -7 4181 181 1
6 -4 -7 4082 159 1
-2 6 -7 3855 179 1
6 -2 -7 4167 185 1
4 2 -7 4353 182 1
6 -2 -7 4314 173 1
2 4 -7 4170 184 1
4 2 -7 4403 186 1
2 -6 -7 4235 147 1
-6 4 -7 4281 149 1
4 -6 -7 4275 159 1
-6 4 -6 6146 250 1
2 4 -6 5094 272 1
4 -6 -6 5324 250 1
2 4 -6 5538 273 1
6 -4 -6 4910 268 1
6 -2 -6 4828 269 1
6 -2 -6 5247 265 1
6 -4 -6 4925 253 1
-2 6 -6 5095 266 1
2 -6 -6 5102 239 1
4 2 -6 5272 271 1
-6 4 -5 14537 569 1
6 -4 -5 14766 572 1
6 -2 -5 14399 586 1
2 4 -5 14668 585 1
2 4 -5 14087 584 1
4 -6 -5 15081 569 1
6 -2 -5 14770 579 1
6 -4 -5 13929 582 1
2 -6 -5 14859 559 1
4 2 -5 16032 589 1
4 -6 -4 20527 918 1
4 2 -4 20432 931 1
6 -4 -4 20913 930 1
6 -2 -4 19033 931 1
6 -2 -4 20331 927 1
2 4 -4 20364 931 1
6 -4 -4 19481 922 1
4 2 -4 20485 933 1
-6 4 -4 19201 919 1
2 4 -3 9764 242 1
4 -6 -3 9678 228 1
4 2 -3 9704 247 1
6 -2 -3 9411 240 1
6 -4 -3 9023 234 1
4 2 -3 9169 248 1
-6 2 -3 9257 235 1
6 -4 -3 9158 241 1
6 -2 -3 9715 251 1
2 4 -3 8709 243 1
6 -4 -2 7229 282 1
2 4 -2 8087 293 1
4 2 -2 7062 288 1
2 4 -2 7587 286 1
-6 2 -2 7559 284 1
6 -4 -2 7859 292 1
6 -2 -2 7470 291 1
4 -6 -2 7876 277 1
6 -2 -2 8446 290 1
4 -6 -1 5801 120 1
2 4 -1 6333 143 1
6 -4 -1 5941 141 1
6 -4 -1 6475 133 1
6 -2 -1 6321 141 1
4 2 -1 6297 138 1
2 4 -1 5968 128 1
4 2 -1 6912 147 1
-6 2 -1 6319 139 1
2 4 0 21652 1115 1
4 2 0 19999 1118 1
2 4 0 22741 1110 1
4 2 0 20394 1114 1
6 -4 0 22224 1120 1
6 -4 0 21648 1117 1
-6 2 0 21099 1115 1
-2 6 0 21151 1111 1
6 -2 0 22975 1119 1
4 -6 0 22697 1114 1
2 4 1 5997 111 1
4 2 1 6035 134 1
4 2 1 5863 131 1
6 -4 1 6318 152 1
6 -2 1 6123 152 1
2 4 1 5917 131 1
6 -4 1 6526 142 1
-2 6 1 6303 114 1
-2 6 2 7843 271 1
2 4 2 7558 272 1
4 2 2 8203 292 1
6 -2 2 7299 294 1
2 4 2 7448 284 1
4 2 2 7900 285 1
2 4 3 9791 224 1
2 4 3 9816 235 1
4 2 3 9617 237 1
6 -2 3 9142 248 1
4 2 3 8685 241 1
-4 -2 3 9451 238 1
-2 6 3 9314 218 1
6 -2 3 8922 249 1
4 2 4 20165 933 1
6 -2 4 21522 940 1
6 -4 4 19271 940 1
-4 -2 4 19986 929 1
4 2 4 19790 929 1
2 4 4 20525 927 1
2 4 4 20083 920 1
4 2 5 14238 564 1
4 2 5 13587 568 1
-4 -2 5 14522 562 1
2 4 5 14370 561 1
6 -2 5 14051 576 1
-2 -4 5 15134 559 1
2 4 6 5362 263 1
-2 -4 6 5423 257 1
4 2 6 5709 273 1
-1 6 -17 0 211 1
5 1 -17 0 204 1
-6 5 -17 1 192 1
1 5 -17 0 198 1
6 -1 -17 155 201 1
-5 6 -17 1 200 1
-1 6 -17 69 188 1
-5 6 -16 9408 425 1
5 1 -16 9168 427 1
-1 6 -16 8800 424 1
6 -1 -16 8814 422 1
-6 5 -16 9251 420 1
-1 6 -16 8855 410 1
1 5 -16 8652 411 1
1 5 -16 7996 418 1
1 5 -15 9 172 1
5 1 -15 43 187 1
1 5 -15 245 184 1
-1 6 -15 6 185 1
-1 6 -15 55 162 1
6 -1 -15 9 178 1
-6 5 -15 81 162 1
-5 6 -15 12 167 1
-1 6 -14 9593 406 1
1 5 -14 9305 401 1
1 5 -14 9796 397 1
-1 6 -14 9597 396 1
5 1 -14 9107 402 1
-6 5 -14 9254 396 1
6 -1 -14 9715 399 1
-5 6 -14 9658 399 1
-1 6 -13 40 157 1
6 -1 -13 163 154 1
1 5 -13 239 149 1
-1 6 -13 0 155 1
-5 6 -13 0 148 1
5 1 -13 17 145 1
5 1 -13 148 159 1
1 5 -13 105 149 1
-1 6 -12 12115 485 1
1 5 -12 12121 486 1
5 1 -12 11635 479 1
6 -1 -12 11549 489 1
5 1 -12 12459 493 1
1 5 -12 12101 489 1
-1 6 -12 11540 487 1
6 -1 -12 11486 470 1
6 -5 -12 11349 474 1
1 5 -11 2665 178 1
-1 6 -11 2696 178 1
5 1 -11 2881 191 1
5 1 -11 2389 173 1
6 -5 -11 2739 171 1
6 -1 -11 2566 187 1
1 5 -11 2304 180 1
-1 6 -11 2512 179 1
6 -1 -11 2412 166 1
1 5 -10 18571 727 1
5 -6 -10 18238 711 1
6 -1 -10 18263 716 1
1 5 -10 18107 728 1
6 -1 -10 19330 730 1
-1 6 -10 18434 726 1
6 -5 -10 20189 721 1
5 1 -10 19574 725 1
5 1 -10 18324 729 1
1 5 -9 345 117 1
6 -1 -9 160 117 1
6 -1 -9 274 101 1
5 1 -9 91 111 1
5 -6 -9 155 88 1
5 1 -9 197 116 1
6 -5 -9 245 100 1
-1 6 -9 219 111 1
-1 -5 -8 27603 1018 1
-1 6 -8 27794 1042 1
-1 6 -8 26840 1040 1
6 -1 -8 28786 1044 1
5 -6 -8 28235 1030 1
5 1 -8 28298 1044 1
6 -5 -8 28610 1035 1
6 -5 -8 28057 1021 1
6 -1 -8 27823 1035 1
1 5 -8 27390 1041 1
5 1 -8 28800 1041 1
6 -1 -7 183 107 1
1 -6 -7 117 43 1
1 5 -7 38 96 1
6 -5 -7 144 92 1
6 -1 -7 2 97 1
5 1 -7 174 98 1
-1 6 -7 127 94 1
1 5 -7 121 104 1
-1 6 -7 131 94 1
-1 -5 -7 98 50 1
5 1 -7 124 103 1
6 -5 -7 44 62 1
5 -6 -7 19 81 1
6 -1 -6 70491 2537 1
1 -6 -6 69104 2510 1
1 5 -6 68159 2534 1
6 -1 -6 70626 2531 1
6 -5 -6 69500 2518 1
6 -5 -6 66441 2528 1
5 -6 -6 70361 2511 1
5 1 -6 64630 2534 1
1 5 -6 71554 2535 1
5 -6 -6 69174 2523 1
-1 6 -6 69557 2534 1
5 1 -6 69247 2532 1
-1 6 -5 17202 636 1
6 -5 -5 14494 630 1
6 -1 -5 16331 634 1
6 -5 -5 16212 620 1
5 1 -5 16496 636 1
5 -6 -5 17048 625 1
1 5 -5 17030 636 1
6 -1 -5 16050 638 1
6 -5 -4 72336 2751 1
6 -1 -4 72515 2760 1
5 1 -4 73116 2762 1
6 -1 -4 73543 2765 1
1 5 -4 73098 2761 1
6 -5 -4 70208 2758 1
-1 6 -4 70093 2759 1
-1 6 -4 72899 2761 1
5 -6 -4 69568 2753 1
-1 6 -3 2516 128 1
1 5 -3 2601 122 1
6 -5 -3 2588 123 1
5 -6 -3 2354 109 1
6 -1 -3 2862 129 1
6 -5 -3 2318 107 1
-1 6 -3 2114 116 1
5 1 -3 2521 129 1
1 5 -3 2445 131 1
5 1 -3 2437 137 1
1 5 -2 43530 1549 1
5 -6 -2 46748 1548 1
6 -1 -2 44503 1554 1
6 -5 -2 44876 1553 1
-1 6 -2 44892 1548 1
6 -5 -2 43820 1548 1
5 1 -2 44053 1555 1
-6 1 -2 44229 1551 1
5 1 -2 40771 1553 1
-1 6 -2 43169 1551 1
1 5 -2 42839 1552 1
-1 6 -1 7378 236 1
-1 6 -1 7412 245 1
5 1 -1 7700 250 1
6 -5 -1 8423 245 1
1 5 -1 7509 240 1
-6 1 -1 7940 247 1
1 5 -1 7707 245 1
5 -6 -1 7354 244 1
6 -5 -1 7951 251 1
6 -1 -1 7972 255 1
6 -1 -1 9627 255 1
-1 6 0 45606 1968 1
-1 6 0 45500 1963 1
5 -6 0 46150 1971 1
6 -5 0 47093 1975 1
1 5 0 46345 1965 1
6 -1 0 48072 1976 1
5 1 0 44782 1972 1
5 1 0 46368 1974 1
5 1 1 8543 257 1
-5 -1 1 7529 253 1
5 1 1 7516 258 1
1 5 1 8081 250 1
5 -6 1 7816 258 1
-1 6 1 8081 244 1
-6 1 1 8316 256 1
-1 6 1 8262 235 1
6 -1 1 7857 261 1
1 5 1 8323 239 1
6 -5 1 8335 266 1
-1 6 2 44319 1532 1
5 1 2 46326 1551 1
5 1 2 44061 1548 1
-6 1 2 45244 1548 1
1 5 2 45231 1535 1
-5 -1 2 41808 1547 1
1 5 2 41185 1542 1
6 -1 2 43504 1550 1
6 -5 2 45611 1553 1
-1 6 2 41907 1538 1
6 -1 2 43035 1551 1
5 1 3 2722 123 1
6 -1 3 2559 133 1
5 1 3 2692 134 1
1 5 3 2445 83 1
6 -1 3 2742 141 1
1 5 3 2485 108 1
-1 6 3 2314 93 1
-5 -1 3 2439 117 1
6 -1 4 68722 2757 1
5 1 4 71543 2753 1
6 -1 4 68408 2756 1
1 5 4 68834 2745 1
5 1 4 73873 2756 1
-1 6 4 72960 2740 1
-5 -1 4 76020 2752 1
1 5 5 15820 614 1
5 1 5 16104 628 1
5 1 5 16963 627 1
6 -1 5 16510 633 1
-1 6 5 16115 607 1
-1 -5 6 65388 2417 1
1 5 6 67930 2419 1
0 6 -17 5356 308 1
0 6 -17 5220 318 1
-6 6 -17 5704 315 1
6 0 -17 5185 318 1
-6 6 -16 4779 282 1
0 6 -16 4977 288 1
6 0 -16 4561 297 1
0 6 -16 4720 299 1
0 6 -15 8771 399 1
0 6 -15 8758 411 1
-6 6 -15 9047 401 1
6 0 -15 8091 402 1
0 6 -14 5430 287 1
-6 6 -14 5406 283 1
0 6 -14 5800 285 1
6 0 -14 5150 290 1
6 0 -13 5212 268 1
0 6 -13 5390 284 1
0 6 -13 5187 289 1
6 0 -13 5033 281 1
0 6 -12 517 143 1
6 0 -12 520 153 1
0 6 -12 368 156 1
6 0 -12 454 132 1
6 0 -11 22253 786 1
6 -6 -11 22287 781 1
6 0 -11 22685 800 1
0 6 -11 22409 798 1
0 6 -11 21883 794 1
6 0 -10 651 133 1
6 -6 -10 778 119 1
0 6 -10 891 134 1
6 0 -10 757 129 1
6 0 -9 17942 679 1
0 6 -9 18321 686 1
6 -6 -9 18257 676 1
6 0 -9 19401 691 1
6 0 -8 19948 705 1
0 6 -8 19153 700 1
6 -6 -8 20433 691 1
6 0 -8 19212 696 1
0 6 -8 19342 700 1
0 6 -7 44653 1520 1
6 -6 -7 39076 1495 1
0 6 -7 42365 1519 1
6 0 -7 43496 1516 1
6 0 -7 43928 1522 1
6 -6 -7 40432 1508 1
6 0 -6 74252 2848 1
6 -6 -6 75107 2830 1
0 6 -6 71414 2848 1
6 -6 -6 72796 2841 1
6 0 -6 70892 2851 1
6 0 -5 25443 900 1
0 6 -5 24786 898 1
6 0 -5 21502 899 1
6 -6 -5 25289 882 1
6 -6 -5 25295 892 1
6 0 -4 140922 4665 1
0 6 -4 141077 4665 1
0 6 -4 142548 4663 1
6 -6 -4 147599 4652 1
6 -6 -4 134582 4659 1
6 -6 -3 39454 1178 1
6 0 -3 33626 1182 1
0 6 -3 36381 1181 1
6 0 -3 39016 1184 1
0 6 -3 37300 1179 1
0 6 -2 387 91 1
0 6 -2 310 79 1
6 0 -2 311 105 1
6 -6 -2 547 90 1
6 0 -2 462 99 1
0 6 -1 65500 2307 1
6 -6 -1 65451 2312 1
6 0 -1 66369 2316 1
0 6 -1 67609 2312 1
0 6 0 10657 172 1
6 0 0 10298 200 1
6 -6 0 10821 198 1
0 6 0 10842 186 1
0 6 1 81184 2427 1
-6 0 1 66421 2430 1
6 0 1 62457 2429 1
6 -6 1 68318 2431 1
6 0 1 69901 2433 1
0 6 1 68573 2418 1
6 0 2 518 98 1
0 6 2 349 67 1
6 -6 2 430 109 1
6 0 2 504 99 1
-6 0 2 403 99 1
0 6 2 438 40 1
0 6 3 39134 1243 1
6 0 3 39549 1257 1
6 0 3 37461 1254 1
-6 0 3 41872 1255 1
6 0 4 138553 4468 1
0 6 4 130710 4454 1
6 0 4 149081 4472 1
0 6 5 25659 905 1
6 0 5 25598 922 1
6 0 5 24443 924 1
0 6 6 74138 2901 1
0 -6 6 76820 2901 1
6 0 6 75505 2919 1
-7 4 -17 620 189 1
-4 7 -17 326 201 1
3 4 -17 353 217 1
4 3 -17 342 214 1
-4 7 -17 482 200 1
-3 7 -17 618 216 1
-3 7 -17 750 207 1
3 4 -16 117 196 1
7 -3 -16 21 193 1
3 4 -16 21 180 1
4 3 -16 21 195 1
-4 7 -16 21 189 1
-7 4 -16 144 174 1
-3 7 -16 21 187 1
-3 7 -16 138 191 1
-4 7 -16 21 192 1
-7 3 -16 141 169 1
3 4 -15 780 197 1
7 -3 -15 1167 187 1
3 4 -15 1176 182 1
4 3 -15 1064 177 1
-3 7 -15 983 188 1
-3 7 -15 1087 197 1
-4 7 -15 1206 184 1
-4 7 -15 1131 193 1
4 3 -15 1541 201 1
-3 7 -14 490 176 1
-4 7 -14 379 174 1
4 3 -14 475 180 1
4 3 -14 533 166 1
3 4 -14 680 167 1
3 4 -14 480 179 1
7 -4 -14 130 162 1
-3 7 -14 497 171 1
7 -3 -14 360 169 1
-3 7 -13 117 161 1
-4 7 -13 157 157 1
7 -4 -13 262 156 1
4 3 -13 198 162 1
-3 7 -13 250 150 1
3 4 -13 134 151 1
3 4 -13 185 163 1
4 3 -13 527 164 1
7 -3 -13 101 160 1
-3 7 -12 1991 181 1
3 4 -12 1887 180 1
4 3 -12 1904 177 1
7 -4 -12 1883 177 1
7 -3 -12 1789 182 1
3 4 -12 2076 187 1
4 3 -12 2100 197 1
-4 7 -12 1649 171 1
-3 7 -11 162 131 1
4 3 -11 158 138 1
3 4 -11 243 132 1
-4 7 -11 76 124 1
7 -3 -11 122 141 1
3 4 -11 147 142 1
7 -4 -11 73 137 1
4 3 -11 28 130 1
7 -3 -10 1069 120 1
3 4 -10 1316 146 1
4 3 -10 1341 142 1
4 3 -10 1114 146 1
3 4 -10 1186 148 1
-4 7 -10 1197 131 1
7 -4 -10 1342 144 1
7 -3 -10 1224 145 1
7 -4 -9 2092 152 1
7 -4 -9 2281 129 1
3 4 -9 2088 156 1
4 3 -9 2251 154 1
7 -3 -9 1872 153 1
7 -3 -9 2258 143 1
4 3 -9 2036 155 1
-7 4 -8 1207 80 1
7 -4 -8 1364 100 1
7 -4 -8 1329 130 1
7 -3 -8 1426 109 1
4 3 -8 1514 129 1
-3 7 -8 1413 111 1
4 -7 -8 1204 84 1
7 -3 -8 1160 125 1
3 4 -8 1329 124 1
7 -4 -7 3557 169 1
3 -7 -7 3346 152 1
-7 4 -7 3650 161 1
7 -4 -7 3387 190 1
7 -3 -7 3458 194 1
3 4 -7 3655 189 1
4 -7 -7 3741 160 1
7 -3 -7 3953 181 1
4 3 -7 3667 193 1
3 4 -7 3321 189 1
-7 3 -7 3623 162 1
3 -7 -6 188 47 1
7 -3 -6 304 77 1
7 -4 -6 145 103 1
4 -7 -6 146 57 1
7 -4 -6 163 80 1
-7 3 -6 168 72 1
4 3 -6 231 106 1
3 4 -6 189 99 1
7 -3 -6 149 101 1
-7 4 -6 83 66 1
4 3 -6 277 100 1
3 4 -6 258 104 1
4 3 -5 46 96 1
3 -7 -5 42 41 1
-7 4 -5 43 74 1
7 -3 -5 15 88 1
4 3 -5 46 98 1
7 -4 -5 43 99 1
3 4 -5 46 97 1
7 -3 -5 1 102 1
3 4 -5 11 102 1
7 -4 -5 8 83 1
-7 3 -5 42 83 1
4 -7 -5 7 57 1
4 3 -4 7982 329 1
-7 4 -4 8334 316 1
-7 3 -4 8135 317 1
7 -4 -4 8199 320 1
4 -7 -4 7032 305 1
3 4 -4 8753 331 1
7 -3 -4 8408 329 1
3 -7 -4 8405 299 1
7 -4 -4 8053 330 1
4 3 -4 8469 330 1
7 -3 -4 8600 324 1
-7 3 -3 4 91 1
7 -4 -3 4 101 1
4 -7 -3 7 59 1
4 3 -3 15 101 1
3 4 -3 5 107 1
7 -3 -3 3 98 1
7 -3 -3 3 102 1
7 -4 -3 4 91 1
3 4 -3 5 94 1
-7 4 -3 4 85 1
7 -3 -2 1354 211 1
-7 3 -2 2172 214 1
7 -3 -2 1419 216 1
3 4 -2 1586 215 1
4 -7 -2 1581 194 1
7 -4 -2 1476 215 1
4 3 -2 1538 214 1
3 4 -2 1354 212 1
7 -4 -2 1533 211 1
4 3 -2 1858 219 1
3 4 -1 404 97 1
7 -4 -1 437 104 1
4 3 -1 393 96 1
-7 3 -1 612 91 1
4 3 -1 407 95 1
7 -3 -1 536 99 1
7 -3 -1 508 102 1
3 4 -1 510 91 1
7 -4 -1 586 95 1
4 3 0 5467 170 1
3 4 0 4972 172 1
7 -4 0 5272 179 1
7 -3 0 5315 176 1
4 3 0 4962 176 1
3 4 0 5348 162 1
7 -4 0 5172 179 1
7 -3 1 414 108 1
7 -4 1 654 108 1
3 4 1 356 92 1
4 3 1 461 88 1
4 3 1 441 93 1
3 4 1 502 77 1
7 -3 1 437 96 1
-3 7 2 1380 184 1
4 3 2 1466 195 1
3 4 2 1443 191 1
4 3 2 1477 206 1
7 -3 2 1547 220 1
3 4 2 1602 206 1
7 -3 3 4 114 1
4 3 3 5 80 1
3 4 3 5 79 1
4 3 3 5 96 1
7 -3 3 4 106 1
-3 7 3 4 48 1
7 -4 3 51 110 1
3 4 3 5 67 1
-3 7 4 8470 307 1
-4 7 4 8581 307 1
7 -3 4 8069 345 1
7 -4 4 10113 352 1
3 4 4 8379 329 1
-4 -3 4 7868 328 1
4 3 4 8468 332 1
4 3 4 8262 326 1
3 4 4 7953 319 1
-3 -4 5 46 76 1
7 -3 5 11 105 1
4 3 5 36 79 1
3 4 5 4 64 1
3 4 5 46 81 1
-4 -3 5 46 85 1
4 3 5 1 89 1
7 -4 5 43 109 1
3 4 6 179 83 1
4 3 6 204 85 1
-4 -3 6 239 70 1
-3 -4 6 90 70 1
-2 7 -17 2070 238 1
-5 7 -17 2044 230 1
5 2 -17 2129 240 1
7 -2 -17 2181 233 1
-5 7 -17 2653 230 1
-2 7 -17 1547 225 1
-7 5 -17 2113 217 1
2 5 -17 1908 235 1
-2 7 -16 297 177 1
5 2 -16 5 193 1
-2 7 -16 334 196 1
2 5 -16 5 189 1
-5 7 -16 4 192 1
-7 5 -16 240 175 1
7 -2 -16 442 190 1
2 5 -16 294 191 1
2 5 -15 3479 259 1
-2 7 -15 3343 236 1
-2 7 -15 3243 242 1
5 2 -15 3491 251 1
2 5 -15 3403 245 1
7 -2 -15 3845 247 1
-5 7 -15 3691 246 1
2 5 -14 35 182 1
2 5 -14 0 169 1
-2 7 -14 0 165 1
7 -2 -14 0 169 1
-2 7 -14 0 169 1
5 2 -14 17 154 1
-5 7 -14 11 171 1
5 2 -14 0 175 1
2 5 -13 9473 388 1
2 5 -13 9504 383 1
-2 7 -13 8939 385 1
5 2 -13 8528 387 1
7 -5 -13 8687 375 1
-2 7 -13 9392 388 1
7 -2 -13 8793 385 1
5 2 -13 8990 377 1
-5 7 -13 9026 383 1
-2 7 -12 523 154 1
5 2 -12 577 163 1
-5 7 -12 615 149 1
2 5 -12 380 150 1
-2 7 -12 755 159 1
7 -5 -12 690 150 1
7 -2 -12 723 166 1
5 2 -12 792 147 1
2 5 -12 621 160 1
7 -5 -11 7077 311 1
2 5 -11 7296 319 1
7 -2 -11 6903 320 1
7 -2 -11 7323 303 1
2 5 -11 7680 323 1
5 2 -11 7128 314 1
-2 7 -11 6180 312 1
5 2 -11 7614 324 1
-2 7 -11 7375 317 1
5 2 -10 484 134 1
-2 7 -10 457 130 1
7 -5 -10 473 128 1
7 -2 -10 263 117 1
5 2 -10 299 127 1
2 5 -10 307 127 1
7 -2 -10 270 130 1
5 2 -9 22945 843 1
7 -2 -9 21367 845 1
5 2 -9 22958 847 1
2 5 -9 22539 843 1
-2 7 -9 20525 840 1
7 -2 -9 22427 834 1
-2 7 -9 23291 844 1
7 -5 -9 22973 840 1
7 -2 -8 68 98 1
5 2 -8 86 108 1
7 -5 -8 77 110 1
-2 7 -8 8 101 1
2 5 -8 18 101 1
2 5 -8 38 109 1
7 -5 -8 28 74 1
-2 7 -8 88 106 1
7 -2 -8 32 112 1
5 -7 -8 16 78 1
5 2 -8 68 112 1
2 5 -7 25886 969 1
5 -7 -7 25026 952 1
7 -5 -7 24020 962 1
2 5 -7 25082 968 1
7 -2 -7 24547 969 1
-7 5 -7 26164 948 1
5 2 -7 25299 967 1
-2 7 -7 24969 967 1
7 -5 -7 25698 952 1
7 -2 -7 26018 963 1
5 2 -6 6085 252 1
7 -5 -6 5433 245 1
7 -2 -6 5977 259 1
5 -7 -6 4701 227 1
7 -5 -6 5840 231 1
2 5 -6 6185 253 1
7 -2 -6 6158 246 1
-2 7 -6 5788 247 1
2 5 -6 5735 252 1
5 2 -5 14979 460 1
7 -2 -5 15764 465 1
7 -5 -5 14571 458 1
5 -7 -5 15310 444 1
-2 7 -5 16164 458 1
7 -5 -5 15718 446 1
2 5 -5 15346 461 1
7 -2 -5 15677 456 1
5 2 -5 14892 463 1
5 2 -4 2557 197 1
2 5 -4 2825 196 1
-7 2 -4 3011 188 1
7 -2 -4 2474 195 1
-2 7 -4 2674 192 1
5 2 -4 2382 197 1
7 -5 -4 2850 197 1
7 -5 -4 2706 183 1
7 -2 -4 3000 199 1
5 -7 -4 2796 178 1
-2 7 -3 80814 2666 1
7 -2 -3 76873 2669 1
-7 2 -3 78528 2663 1
7 -5 -3 78177 2660 1
5 2 -3 83094 2670 1
-2 7 -3 77323 2662 1
2 5 -3 78755 2665 1
7 -5 -3 77108 2667 1
7 -2 -3 77936 2666 1
5 2 -3 74813 2667 1
5 -7 -3 76853 2657 1
2 5 -3 84582 2669 1
-2 7 -2 1042 108 1
-7 2 -2 1314 119 1
5 -7 -2 566 95 1
2 5 -2 673 112 1
7 -5 -2 676 101 1
7 -2 -2 882 121 1
7 -5 -2 609 114 1
2 5 -2 808 107 1
5 2 -2 898 118 1
5 2 -1 72151 2490 1
7 -5 -1 72612 2487 1
2 5 -1 75212 2488 1
7 -5 -1 76121 2491 1
7 -2 -1 75291 2490 1
-7 2 -1 75078 2488 1
5 -7 -1 72277 2483 1
-2 7 -1 72689 2484 1
2 5 -1 77417 2484 1
5 2 -1 78749 2489 1
2 5 0 18514 449 1
2 5 0 16447 440 1
-7 2 0 17865 449 1
7 -2 0 17964 455 1
-2 7 0 18543 442 1
7 -5 0 17500 454 1
7 -2 0 19866 459 1
7 -5 0 16805 450 1
5 2 0 18539 449 1
5 -7 0 17506 446 1
5 2 0 18640 454 1
2 5 1 78546 2553 1
7 -2 1 79605 2567 1
5 2 1 75906 2563 1
7 -5 1 74180 2566 1
2 5 1 83156 2561 1
5 2 1 72984 2560 1
-2 7 1 74092 2554 1
5 2 2 829 102 1
2 5 2 667 74 1
2 5 2 735 96 1
7 -2 2 580 119 1
5 2 2 761 106 1
7 -5 2 596 121 1
-2 7 2 693 80 1
-2 7 2 605 55 1
2 5 3 77987 2669 1
2 5 3 77884 2677 1
-2 7 3 80180 2669 1
5 2 3 80900 2684 1
5 2 3 77806 2680 1
7 -2 3 76125 2688 1
7 -2 3 82534 2689 1
-5 -2 3 80022 2681 1
2 5 4 2991 186 1
-2 7 4 2533 163 1
5 2 4 2527 195 1
5 2 4 2822 194 1
7 -2 4 2746 203 1
2 5 4 2935 167 1
-5 -2 4 2987 191 1
7 -2 4 2420 202 1
-5 -2 5 14078 445 1
5 2 5 15296 447 1
7 -2 5 14800 459 1
2 5 5 15645 441 1
5 2 5 16292 454 1
7 -2 6 5952 264 1
5 2 6 6023 257 1
2 5 6 6016 241 1
5 2 6 6275 250 1
-2 -5 6 5791 236 1
-2 -5 7 25026 936 1
1 6 -17 2592 250 1
-7 6 -17 2227 232 1
1 6 -17 2373 233 1
-1 7 -17 1908 235 1
-1 7 -17 2387 240 1
6 1 -17 2311 248 1
7 -1 -17 2234 248 1
-6 7 -17 2331 242 1
7 -1 -16 1246 209 1
1 6 -16 1064 209 1
-6 7 -16 1547 205 1
6 1 -16 879 206 1
-7 6 -16 1570 205 1
-1 7 -16 1400 208 1
-1 7 -16 854 206 1
1 6 -16 961 200 1
-6 7 -15 4898 285 1
-1 7 -15 4803 284 1
-1 7 -15 5324 301 1
1 6 -15 5243 287 1
1 6 -15 5057 297 1
-7 6 -15 4767 281 1
7 -1 -15 5422 301 1
6 1 -15 4386 296 1
1 6 -14 2117 206 1
-1 7 -14 2139 204 1
-1 7 -14 2004 204 1
7 -1 -14 2022 210 1
1 6 -14 2199 211 1
6 1 -14 2240 222 1
-6 7 -14 1752 195 1
6 1 -13 2394 209 1
7 -1 -13 2560 207 1
-1 7 -13 2511 211 1
-1 7 -13 2389 208 1
1 6 -13 2207 205 1
1 6 -13 2084 202 1
6 1 -13 2367 185 1
7 -1 -12 4408 230 1
-1 7 -12 4898 255 1
6 1 -12 4353 233 1
1 6 -12 4448 252 1
-1 7 -12 4159 251 1
1 6 -12 5148 256 1
7 -1 -12 4599 256 1
6 1 -12 4370 257 1
6 1 -11 327 131 1
-1 7 -11 143 138 1
6 1 -11 419 151 1
7 -1 -11 149 149 1
1 6 -11 225 141 1
7 -6 -11 360 131 1
7 -1 -11 292 128 1
6 1 -10 20572 767 1
7 -6 -10 20373 753 1
6 1 -10 20703 758 1
7 -1 -10 19732 752 1
7 -1 -10 20121 765 1
1 6 -10 19963 762 1
-1 7 -10 19930 762 1
7 -6 -9 2268 156 1
1 6 -9 2027 167 1
6 1 -9 2188 162 1
-1 7 -9 2563 168 1
6 -7 -9 2006 142 1
1 6 -9 2355 169 1
-1 7 -9 2114 161 1
7 -1 -9 2257 173 1
6 1 -9 2244 175 1
7 -1 -9 2041 158 1
6 1 -8 15361 557 1
1 6 -8 16414 556 1
7 -6 -8 14721 543 1
6 1 -8 15010 549 1
6 -7 -8 15845 538 1
7 -1 -8 15257 556 1
-1 7 -8 15521 552 1
-1 7 -8 15191 552 1
1 6 -8 15022 553 1
7 -1 -8 15013 548 1
1 6 -7 24279 890 1
7 -6 -7 25380 870 1
7 -1 -7 25107 888 1
1 6 -7 25680 891 1
6 1 -7 23429 887 1
-1 7 -7 25920 892 1
7 -1 -7 23776 892 1
6 -7 -7 25866 879 1
7 -6 -7 23885 883 1
6 1 -7 23432 891 1
7 -6 -6 8908 338 1
6 -7 -6 7474 341 1
7 -1 -6 8838 362 1
7 -6 -6 8607 353 1
-1 7 -6 9243 358 1
7 -1 -6 9409 357 1
6 1 -6 8392 355 1
1 6 -6 10042 361 1
7 -6 -5 32433 1075 1
1 6 -5 32007 1089 1
6 -7 -5 31665 1079 1
7 -1 -5 32002 1088 1
7 -1 -5 33247 1094 1
6 1 -5 32390 1091 1
-1 7 -5 31800 1089 1
-1 7 -5 32229 1088 1
7 -6 -5 32347 1085 1
-1 7 -4 3588 182 1
7 -1 -4 3043 186 1
7 -6 -4 3478 178 1
-1 7 -4 3227 175 1
6 1 -4 3151 187 1
1 6 -4 3462 184 1
7 -6 -4 3288 161 1
6 1 -4 3548 184 1
1 6 -4 3364 179 1
7 -1 -4 3409 185 1
6 -7 -4 3216 165 1
1 6 -3 21021 762 1
7 -1 -3 20335 766 1
7 -6 -3 19597 756 1
6 1 -3 19965 769 1
7 -6 -3 20050 763 1
6 -7 -3 20502 759 1
6 1 -3 19843 767 1
-1 7 -3 20431 761 1
1 6 -3 20480 766 1
-1 7 -3 20694 764 1
-1 7 -2 77821 2715 1
7 -6 -2 78537 2711 1
6 1 -2 74295 2718 1
1 6 -2 74590 2715 1
7 -6 -2 78811 2717 1
1 6 -2 79134 2712 1
-1 7 -2 77729 2711 1
6 -7 -2 78843 2712 1
6 1 -2 83042 2720 1
7 -1 -2 79685 2719 1
7 -1 -2 73123 2718 1
-7 1 -2 78651 2715 1
6 1 -1 264 108 1
7 -6 -1 369 109 1
7 -1 -1 387 103 1
6 -7 -1 442 95 1
1 6 -1 218 78 1
-1 7 -1 279 76 1
1 6 -1 247 97 1
7 -1 -1 409 102 1
-1 7 -1 389 94 1
-7 1 -1 320 101 1
6 -7 0 137946 4777 1
-1 7 0 135757 4773 1
1 6 0 139502 4770 1
-1 7 0 138837 4768 1
7 -6 0 138631 4780 1
6 1 0 135821 4778 1
6 1 0 140401 4781 1
7 -1 0 144306 4782 1
1 6 0 120645 4774 1
-6 -1 1 193 101 1
-7 1 1 324 95 1
6 1 1 253 109 1
7 -1 1 375 105 1
6 1 1 402 104 1
6 -7 1 373 110 1
-1 7 1 243 81 1
7 -6 1 353 108 1
1 6 1 453 64 1
-1 7 1 392 55 1
1 6 1 304 87 1
7 -6 2 81461 2785 1
-1 7 2 74873 2771 1
7 -1 2 86427 2785 1
1 6 2 74506 2774 1
7 -1 2 83551 2785 1
-7 1 2 80745 2781 1
6 1 2 76860 2780 1
-6 -1 2 81059 2781 1
6 1 2 84457 2785 1
1 6 2 79841 2766 1
-1 7 2 80331 2763 1
-7 1 3 19511 774 1
7 -1 3 20579 781 1
6 1 3 20740 776 1
7 -6 3 20417 782 1
6 1 3 20998 779 1
7 -1 3 20740 780 1
-1 7 3 20022 761 1
1 6 3 20548 755 1
-6 -1 3 22321 776 1
1 6 3 21241 767 1
-1 7 4 3263 148 1
7 -1 4 3352 189 1
1 6 4 3135 159 1
-6 -1 4 3293 173 1
7 -1 4 3337 189 1
6 1 4 3310 176 1
6 1 4 3349 181 1
6 1 5 30094 1137 1
6 1 5 31884 1133 1
-1 7 5 37634 1117 1
7 -1 5 30943 1139 1
1 6 5 33013 1122 1
7 -1 5 30466 1138 1
-6 -1 5 32877 1132 1
7 -1 6 9215 367 1
6 1 6 8749 359 1
-1 -6 6 8584 339 1
1 6 6 9169 342 1
-7 7 -16 3098 237 1
0 7 -16 3290 247 1
0 7 -16 2772 242 1
7 0 -16 3214 247 1
0 7 -15 779 186 1
7 0 -15 732 200 1
0 7 -15 950 194 1
-7 7 -15 851 181 1
7 0 -14 3255 234 1
0 7 -14 3389 239 1
0 7 -14 3499 230 1
7 0 -13 883 155 1
7 0 -13 784 183 1
0 7 -13 700 172 1
0 7 -13 863 177 1
0 7 -12 322 149 1
7 0 -12 359 143 1
7 0 -12 16 148 1
0 7 -11 4120 231 1
7 0 -11 3931 217 1
7 0 -11 4144 237 1
7 0 -10 355 129 1
0 7 -10 490 126 1
7 0 -10 621 134 1
7 -7 -10 282 111 1
0 7 -10 595 135 1
7 -7 -9 1831 133 1
0 7 -9 1804 156 1
7 0 -9 1869 158 1
0 7 -9 1865 159 1
7 0 -9 1823 152 1
7 0 -8 2849 165 1
0 7 -8 2700 163 1
7 0 -8 2463 164 1
0 7 -8 2496 160 1
7 -7 -8 2348 145 1
7 -7 -7 3393 159 1
0 7 -7 3383 173 1
7 0 -7 3374 175 1
7 0 -7 3419 175 1
7 0 -6 2639 145 1
7 -7 -6 2619 106 1
0 7 -6 2573 139 1
7 -7 -6 2579 134 1
7 0 -6 2564 143 1
7 -7 -5 13336 503 1
0 7 -5 11733 505 1
0 7 -5 11807 507 1
7 -7 -5 11813 486 1
7 0 -5 12239 509 1
7 -7 -4 82 88 1
0 7 -4 71 92 1
7 0 -4 143 110 1
0 7 -4 74 102 1
7 0 -3 17634 639 1
0 7 -3 18397 638 1
7 -7 -3 16324 632 1
7 0 -3 17692 640 1
0 7 -3 17705 633 1
0 7 -2 19552 738 1
7 -7 -2 19378 737 1
7 0 -2 18469 741 1
7 0 -2 20526 744 1
0 7 -2 18544 733 1
0 7 -1 45785 1553 1
-7 0 -1 41819 1554 1
7 -7 -1 45115 1555 1
7 0 -1 46040 1559 1
0 7 -1 47269 1547 1
0 7 0 3376 111 1
7 -7 0 3184 137 1
0 7 0 3948 131 1
7 0 0 3451 149 1
0 7 1 48184 1674 1
7 0 1 61138 1696 1
7 0 1 47144 1691 1
0 7 1 51707 1683 1
-7 0 1 44718 1687 1
7 -7 1 45982 1689 1
7 -7 2 20062 766 1
7 0 2 19002 766 1
7 0 2 20883 767 1
0 7 2 19038 752 1
0 7 2 20053 742 1
-7 0 2 20175 763 1
-7 0 3 16740 616 1
7 0 3 16158 619 1
7 0 3 16908 619 1
0 7 3 17487 604 1
7 0 4 120 102 1
-7 0 4 81 93 1
0 7 4 108 64 1
7 0 4 79 115 1
0 7 5 11455 467 1
7 0 5 11402 490 1
7 0 5 12228 492 1
7 0 6 2840 150 1
7 0 6 2502 145 1
-4 8 -16 4757 287 1
-4 8 -16 4632 290 1
4 4 -16 4629 296 1
4 4 -16 4362 281 1
-4 8 -14 4318 260 1
4 4 -14 4663 260 1
4 4 -14 4435 281 1
8 -4 -14 4681 260 1
-4 8 -14 4359 264 1
-4 8 -12 2028 181 1
4 4 -12 2431 191 1
4 4 -12 2031 190 1
8 -4 -12 2335 186 1
4 4 -10 1952 163 1
8 -4 -10 1607 166 1
4 4 -10 1536 162 1
-8 4 -8 21308 740 1
8 -4 -8 22542 747 1
8 -4 -8 20291 759 1
4 4 -8 18792 757 1
4 4 -8 21015 760 1
8 -4 -6 26076 917 1
4 4 -6 26968 919 1
4 -8 -6 25998 892 1
8 -4 -6 27716 909 1
-8 4 -6 28065 905 1
4 4 -6 26574 918 1
4 -8 -4 10746 579 1
-8 4 -4 10820 593 1
8 -4 -4 10934 604 1
4 4 -4 11021 604 1
8 -4 -4 10949 597 1
4 4 -2 16091 712 1
4 4 -2 17292 710 1
8 -4 -2 17033 716 1
8 -4 -2 17320 711 1
-8 4 -2 17339 708 1
8 -4 0 1718 351 1
4 4 0 1424 347 1
4 4 0 1795 339 1
8 -4 0 1351 349 1
4 4 2 16817 675 1
8 -4 2 15763 687 1
8 -4 2 16396 687 1
4 4 2 15874 680 1
4 4 4 11013 593 1
-4 8 4 11231 581 1
-4 -4 4 10465 598 1
8 -4 4 10218 613 1
4 4 4 10860 602 1
4 4 6 26780 933 1
-4 -4 6 28549 930 1
4 4 6 27226 926 1
-3 8 -16 917 208 1
5 3 -16 1174 217 1
-5 8 -16 1161 216 1
3 5 -16 968 223 1
8 -3 -16 1279 212 1
-5 8 -16 844 208 1
3 5 -16 1179 210 1
-3 8 -16 1085 218 1
3 5 -15 820 203 1
-3 8 -15 1011 202 1
-3 8 -15 1130 200 1
5 3 -15 1364 218 1
3 5 -15 1205 205 1
8 -3 -15 1189 191 1
5 3 -15 1118 195 1
-5 8 -15 1132 199 1
3 5 -14 3779 244 1
-3 8 -14 3839 249 1
5 3 -14 3577 237 1
3 5 -14 3720 258 1
-5 8 -14 3770 249 1
8 -3 -14 4053 247 1
-3 8 -14 3631 246 1
5 3 -14 3798 260 1
-3 8 -13 382 165 1
5 3 -13 636 172 1
3 5 -13 366 160 1
5 3 -13 302 168 1
-3 8 -13 527 169 1
3 5 -13 130 166 1
8 -3 -13 377 170 1
-5 8 -13 472 173 1
8 -5 -13 617 161 1
3 5 -12 4560 237 1
-3 8 -12 4058 236 1
5 3 -12 4034 229 1
8 -5 -12 4750 235 1
8 -3 -12 4112 245 1
-5 8 -12 4033 227 1
3 5 -12 3706 239 1
-3 8 -12 3451 228 1
5 3 -12 4455 247 1
5 3 -11 122 156 1
8 -5 -11 16 133 1
5 3 -11 12 143 1
-3 8 -11 158 135 1
-5 8 -11 46 140 1
3 5 -11 15 146 1
8 -3 -11 16 147 1
3 5 -11 72 137 1
8 -3 -10 2663 193 1
-3 8 -10 2577 185 1
8 -3 -10 2753 175 1
3 5 -10 2872 198 1
8 -5 -10 2695 189 1
5 3 -10 3141 198 1
5 3 -10 3119 194 1
5 3 -9 4331 206 1
8 -3 -9 3958 199 1
8 -5 -9 4170 194 1
8 -3 -9 4120 182 1
-3 8 -9 4330 197 1
5 3 -9 3252 193 1
3 5 -9 3992 197 1
-8 3 -9 4012 164 1
3 5 -8 17538 641 1
8 -3 -8 17221 631 1
3 5 -8 17478 642 1
8 -3 -8 16722 644 1
8 -5 -8 16763 622 1
5 3 -8 17416 642 1
-8 3 -8 16633 622 1
8 -5 -8 16959 638 1
-3 8 -8 18595 641 1
5 -8 -7 8155 340 1
8 -5 -7 8560 350 1
-8 5 -7 7556 341 1
5 3 -7 8118 365 1
3 5 -7 8069 364 1
8 -3 -7 8626 355 1
3 5 -7 8564 368 1
-8 3 -7 7474 346 1
8 -5 -7 7752 363 1
5 3 -7 8575 368 1
8 -3 -7 7720 369 1
-3 8 -7 8510 363 1
5 3 -6 2432 150 1
8 -3 -6 2499 146 1
3 5 -6 2649 150 1
8 -5 -6 2673 132 1
8 -5 -6 2709 153 1
5 3 -6 2567 153 1
8 -3 -6 2317 158 1
3 5 -6 2777 156 1
-3 8 -6 2554 150 1
-8 3 -6 2511 133 1
-8 5 -6 2892 125 1
5 -8 -6 2532 119 1
8 -3 -5 12963 460 1
-8 3 -5 13775 456 1
5 3 -5 13147 469 1
8 -3 -5 13158 466 1
8 -5 -5 13113 465 1
5 3 -5 13259 466 1
3 5 -5 13904 466 1
5 -8 -5 13152 443 1
8 -5 -5 13421 454 1
8 -3 -4 14866 590 1
5 3 -4 15137 589 1
-8 3 -4 15637 581 1
5 3 -4 14498 587 1
8 -5 -4 14243 579 1
3 5 -4 15489 586 1
8 -5 -4 14571 587 1
8 -3 -4 14975 584 1
5 -8 -4 14804 568 1
-8 3 -3 2651 158 1
3 5 -3 2668 157 1
8 -5 -3 2833 170 1
5 3 -3 2701 163 1
3 5 -3 2975 170 1
5 -8 -3 2374 134 1
8 -3 -3 2549 166 1
8 -3 -3 2592 160 1
8 -5 -3 2603 153 1
5 3 -2 25751 899 1
8 -3 -2 25639 902 1
-8 3 -2 26261 895 1
8 -5 -2 25834 900 1
5 -8 -2 27020 886 1
8 -3 -2 25701 898 1
3 5 -2 26428 894 1
5 3 -2 25469 896 1
8 -5 -2 25140 894 1
3 5 -2 23599 896 1
3 5 -1 5234 157 1
8 -3 -1 5619 173 1
8 -5 -1 5671 173 1
5 3 -1 5472 168 1
5 -8 -1 5736 151 1
5 3 -1 5860 176 1
-8 3 -1 5644 159 1
8 -5 -1 5994 170 1
3 5 -1 6070 166 1
5 3 0 20821 796 1
5 3 0 20211 801 1
8 -5 0 21544 804 1
3 5 0 19309 790 1
3 5 0 24610 802 1
8 -3 0 22081 803 1
-8 3 0 22239 799 1
-3 8 0 21197 791 1
8 -5 0 21044 800 1
-3 8 1 6150 149 1
8 -5 1 5482 167 1
3 5 1 5291 145 1
8 -5 1 5626 173 1
5 3 1 5103 163 1
8 -3 1 5520 170 1
5 3 1 5165 158 1
3 5 1 5672 161 1
8 -3 1 5554 172 1
-3 8 2 25496 888 1
5 3 2 27139 905 1
3 5 2 28219 891 1
5 3 2 25389 897 1
3 5 2 23975 897 1
8 -3 2 24885 908 1
3 5 3 2883 134 1
-3 8 3 2650 127 1
-5 -3 3 2651 157 1
8 -3 3 2292 163 1
3 5 3 2756 153 1
8 -3 3 2694 170 1
5 3 3 2422 162 1
5 3 3 2467 146 1
8 -3 4 16648 601 1
3 5 4 14177 573 1
-5 -3 4 15066 586 1
5 3 4 14794 589 1
3 5 4 16308 585 1
5 3 4 15781 584 1
-3 8 4 14784 566 1
8 -5 4 15197 599 1
3 5 5 13929 460 1
5 3 5 13689 459 1
5 3 5 13395 466 1
8 -5 5 13765 479 1
3 5 5 12707 448 1
-5 -3 5 13982 463 1
8 -3 5 13072 475 1
-3 -5 5 13762 457 1
8 -3 6 2670 161 1
3 5 6 2633 134 1
5 3 6 2455 135 1
-5 -3 6 2326 131 1
-3 -5 6 2659 124 1
5 3 6 2794 146 1
3 5 7 8166 355 1
5 3 7 8303 365 1
-3 -5 7 8493 351 1
-8 6 -16 199 186 1
6 2 -16 371 213 1
2 6 -16 241 195 1
-2 8 -16 229 199 1
2 6 -16 11 203 1
8 -2 -16 419 201 1
-6 8 -16 123 202 1
-2 8 -16 56 212 1
-6 8 -15 164 182 1
-2 8 -15 133 191 1
6 2 -15 33 196 1
8 -2 -15 210 186 1
2 6 -15 167 195 1
-2 8 -15 36 186 1
2 6 -15 89 189 1
6 2 -14 291 163 1
6 2 -14 437 186 1
8 -2 -14 357 181 1
-6 8 -14 277 178 1
2 6 -14 540 173 1
-2 8 -14 559 182 1
-2 8 -14 502 182 1
2 6 -14 794 189 1
2 6 -13 1994 199 1
6 2 -13 2078 185 1
2 6 -13 1969 201 1
6 2 -13 2168 213 1
8 -2 -13 1938 206 1
-2 8 -13 2168 200 1
-2 8 -13 2043 199 1
-6 8 -13 2203 204 1
6 2 -12 839 154 1
6 2 -12 1161 184 1
2 6 -12 866 164 1
8 -2 -12 1441 178 1
-2 8 -12 1103 171 1
2 6 -12 1147 176 1
8 -6 -12 1023 159 1
6 2 -11 651 144 1
8 -2 -11 701 157 1
8 -6 -11 522 138 1
8 -2 -11 758 137 1
2 6 -11 725 148 1
6 2 -11 672 152 1
-2 8 -11 450 150 1
-2 8 -10 30 130 1
2 6 -10 0 128 1
6 2 -10 151 132 1
6 2 -10 0 137 1
8 -2 -10 0 121 1
-2 8 -10 0 126 1
8 -2 -10 0 135 1
8 -6 -10 78 127 1
6 2 -9 10596 421 1
8 -2 -9 10686 407 1
8 -6 -9 10659 407 1
6 2 -9 10363 413 1
-2 8 -9 10856 418 1
2 6 -9 11347 418 1
-2 8 -9 10651 415 1
2 6 -9 9892 414 1
8 -2 -9 10199 417 1
6 2 -8 1710 134 1
8 -6 -8 1415 122 1
8 -2 -8 1477 128 1
2 6 -8 1451 134 1
-2 8 -8 1224 121 1
2 6 -8 1306 133 1
-2 8 -8 1333 124 1
8 -2 -8 1364 136 1
-2 8 -7 755 118 1
2 6 -7 491 117 1
6 2 -7 786 116 1
8 -6 -7 519 83 1
8 -2 -7 588 116 1
8 -6 -7 401 108 1
6 -8 -7 704 89 1
8 -2 -7 580 115 1
2 6 -7 618 115 1
8 -6 -6 860 120 1
2 6 -6 622 119 1
-2 8 -6 646 116 1
-2 8 -6 725 115 1
8 -2 -6 652 124 1
8 -6 -6 507 90 1
6 2 -6 644 122 1
6 -8 -6 673 90 1
6 2 -6 550 113 1
8 -2 -6 616 115 1
6 2 -5 35 102 1
-8 2 -5 44 87 1
2 6 -5 18 102 1
8 -2 -5 37 108 1
-2 8 -5 27 94 1
8 -6 -5 36 77 1
-2 8 -5 37 94 1
8 -2 -5 42 99 1
6 2 -5 58 99 1
8 -6 -5 36 98 1
6 -8 -5 16 75 1
2 6 -4 466 106 1
6 2 -4 412 111 1
8 -2 -4 524 114 1
-2 8 -4 400 100 1
-8 2 -4 461 98 1
-2 8 -4 394 103 1
8 -2 -4 472 103 1
6 2 -4 525 115 1
2 6 -4 364 104 1
8 -6 -4 446 88 1
6 -8 -4 340 83 1
8 -6 -4 398 116 1
-8 2 -3 4014 232 1
-2 8 -3 4024 225 1
8 -6 -3 4110 238 1
-2 8 -3 3640 230 1
2 6 -3 4390 240 1
2 6 -3 3983 233 1
8 -6 -3 4262 226 1
8 -2 -3 3724 237 1
6 2 -3 4345 244 1
6 -8 -3 4232 223 1
6 2 -3 4371 240 1
2 6 -2 16648 546 1
-8 2 -2 15919 543 1
6 2 -2 16019 546 1
8 -2 -2 15771 546 1
2 6 -2 16110 538 1
8 -6 -2 16032 539 1
6 -8 -2 15955 535 1
8 -6 -2 15813 547 1
-2 8 -2 15464 535 1
-2 8 -2 17504 542 1
-2 8 -1 22171 1026 1
-8 2 -1 22405 1031 1
8 -2 -1 21550 1036 1
2 6 -1 23127 1026 1
6 -8 -1 22065 1026 1
6 2 -1 19328 1031 1
8 -2 -1 22290 1035 1
-2 8 -1 21864 1021 1
8 -6 -1 21899 1029 1
2 6 -1 22488 1031 1
8 -6 -1 22524 1035 1
6 2 -1 22337 1032 1
8 -2 0 1220 167 1
2 6 0 1244 148 1
8 -6 0 1357 171 1
-2 8 0 1188 137 1
2 6 0 1095 159 1
6 2 0 1209 162 1
6 2 0 901 165 1
-8 2 0 993 161 1
6 -8 0 1386 159 1
-2 8 0 1028 151 1
8 -2 0 1294 169 1
8 -2 1 21263 1065 1
2 6 1 25684 1060 1
-2 8 1 23118 1051 1
-2 8 1 21557 1044 1
8 -6 1 21343 1064 1
6 2 1 22780 1061 1
6 2 1 25443 1067 1
6 2 2 16370 544 1
-6 -2 2 15891 541 1
8 -6 2 16724 548 1
2 6 2 16240 534 1
-2 8 2 16013 526 1
6 2 2 15933 538 1
2 6 2 15984 523 1
8 -2 2 15563 545 1
-2 8 2 15902 517 1
6 2 3 3968 240 1
2 6 3 4369 228 1
6 2 3 4391 235 1
8 -2 3 4032 242 1
2 6 3 4112 211 1
8 -2 3 3958 244 1
-2 8 3 4403 214 1
-6 -2 3 4150 235 1
8 -6 3 3849 243 1
2 6 4 498 86 1
2 6 4 516 59 1
6 2 4 397 107 1
-2 8 4 360 61 1
-6 -2 4 435 95 1
6 2 4 421 101 1
8 -2 4 396 110 1
8 -2 4 445 115 1
-6 -2 5 35 90 1
8 -2 5 33 108 1
6 2 5 20 99 1
2 6 5 4 77 1
6 2 5 2 102 1
2 6 6 644 91 1
6 2 6 598 108 1
8 -2 6 677 129 1
-2 -6 6 682 84 1
-6 -2 6 691 104 1
6 2 6 561 121 1
-2 -6 7 666 80 1
2 6 7 507 82 1
6 2 7 814 116 1
7 1 -16 713 222 1
-7 8 -16 792 206 1
1 7 -16 743 212 1
-8 7 -16 663 194 1
8 -1 -16 744 216 1
-1 8 -16 446 202 1
1 7 -16 962 223 1
-1 8 -16 727 210 1
-1 8 -15 166 188 1
1 7 -15 515 199 1
7 1 -15 289 192 1
-1 8 -15 263 192 1
-7 8 -15 339 183 1
1 7 -15 232 183 1
8 -1 -15 123 197 1
8 -1 -14 2728 225 1
1 7 -14 2535 221 1
-1 8 -14 2472 218 1
7 1 -14 2717 222 1
1 7 -14 2349 225 1
-7 8 -14 2355 212 1
-1 8 -14 2273 221 1
-1 8 -13 167 169 1
1 7 -13 158 169 1
1 7 -13 4 168 1
7 1 -13 8 155 1
7 1 -13 52 176 1
8 -1 -13 48 168 1
8 -1 -12 163 142 1
7 1 -12 359 150 1
8 -1 -12 3 170 1
1 7 -12 1 161 1
7 1 -12 280 173 1
-1 8 -12 207 157 1
7 1 -11 4 161 1
1 7 -11 4 144 1
8 -1 -11 16 145 1
8 -7 -11 57 125 1
-1 8 -11 4 142 1
8 -1 -11 120 138 1
-1 8 -11 174 145 1
7 1 -11 59 137 1
8 -7 -10 278 128 1
-1 8 -10 261 135 1
1 7 -10 141 133 1
7 1 -10 243 148 1
8 -1 -10 207 123 1
8 -1 -10 291 149 1
7 1 -10 205 132 1
-1 8 -10 170 142 1
1 7 -10 191 141 1
1 7 -9 2372 180 1
8 -1 -9 2191 182 1
7 1 -9 2157 185 1
-1 8 -9 2215 176 1
8 -7 -9 2280 165 1
-1 8 -9 2650 178 1
1 7 -9 2239 174 1
7 1 -9 2459 181 1
8 -1 -9 2539 173 1
-1 8 -8 2231 154 1
7 1 -8 2675 168 1
8 -1 -8 2462 162 1
1 7 -8 2765 163 1
7 1 -8 2980 168 1
7 -8 -8 2761 143 1
-1 8 -8 2355 156 1
8 -7 -8 2182 149 1
1 7 -8 2664 162 1
8 -1 -8 2416 174 1
8 -7 -7 439 107 1
7 1 -7 450 119 1
7 -8 -7 153 90 1
8 -1 -7 547 111 1
8 -1 -7 459 123 1
1 7 -7 418 106 1
-1 8 -7 480 111 1
7 1 -6 15863 613 1
8 -7 -6 15775 591 1
8 -1 -6 16390 617 1
-1 8 -6 15692 610 1
7 -8 -6 15344 599 1
8 -7 -6 14590 605 1
1 7 -6 15836 611 1
-1 8 -6 15126 609 1
8 -1 -6 16321 612 1
-1 8 -5 3 94 1
7 1 -5 112 100 1
1 7 -5 87 97 1
8 -1 -5 131 107 1
1 7 -5 106 97 1
7 1 -5 5 102 1
8 -1 -5 88 101 1
8 -7 -5 9 72 1
7 -8 -5 4 84 1
8 -7 -5 4 98 1
-1 8 -5 3 94 1
8 -7 -4 20962 848 1
8 -1 -4 22391 853 1
1 7 -4 24051 854 1
1 7 -4 23799 850 1
7 -8 -4 21904 843 1
-1 8 -4 22429 852 1
8 -7 -4 23936 840 1
7 1 -4 23630 855 1
-1 8 -4 24348 850 1
7 1 -4 23504 857 1
1 7 -3 2338 136 1
-8 1 -3 2531 137 1
-1 8 -3 2517 133 1
1 7 -3 2516 144 1
-1 8 -3 2586 141 1
8 -1 -3 2297 151 1
7 -8 -3 2712 137 1
8 -7 -3 2776 147 1
7 1 -3 2530 144 1
8 -7 -3 2730 130 1
7 1 -3 2531 145 1
7 1 -2 8133 384 1
7 -8 -2 8601 376 1
-8 1 -2 8105 379 1
1 7 -2 7972 381 1
-1 8 -2 7392 371 1
7 1 -2 7587 383 1
-1 8 -2 7450 378 1
8 -1 -2 8000 388 1
1 7 -2 7667 373 1
8 -7 -2 8509 385 1
8 -1 -2 8393 386 1
1 7 -1 2064 136 1
1 7 -1 2285 156 1
7 1 -1 1935 163 1
8 -7 -1 1944 154 1
-1 8 -1 2186 150 1
7 -8 -1 1802 146 1
-1 8 -1 1744 132 1
-8 1 -1 2574 151 1
8 -1 -1 2237 165 1
8 -1 -1 2380 156 1
7 -8 0 4009 160 1
1 7 0 3620 142 1
8 -1 0 3936 170 1
7 1 0 3964 167 1
-1 8 0 3983 155 1
1 7 0 3869 161 1
8 -7 0 4068 172 1
7 1 0 4109 170 1
-1 8 0 3623 135 1
-1 8 1 2070 135 1
8 -1 1 2270 158 1
-8 1 1 2030 148 1
-7 -1 1 1977 148 1
7 -8 1 2046 154 1
7 1 1 1903 157 1
1 7 1 2198 124 1
-1 8 1 1895 116 1
1 7 1 1936 142 1
8 -7 1 1993 155 1
7 1 1 1888 154 1
8 -7 2 8850 403 1
-1 8 2 8739 382 1
1 7 2 9105 388 1
7 1 2 8233 397 1
-8 1 2 9203 395 1
7 1 2 7002 397 1
1 7 2 7981 372 1
-7 -1 2 8830 397 1
-1 8 2 8223 369 1
8 -1 2 8436 400 1
8 -1 2 7694 397 1
1 7 3 2591 103 1
7 1 3 2566 153 1
-1 8 3 2548 119 1
8 -7 3 2686 153 1
8 -1 3 2739 153 1
8 -1 3 2866 150 1
7 1 3 2584 149 1
-7 -1 3 2457 142 1
-8 1 3 2662 140 1
1 7 3 2661 125 1
-7 -1 4 22971 892 1
1 7 4 25678 885 1
8 -1 4 25553 904 1
8 -1 4 24125 901 1
7 1 4 25915 900 1
7 1 4 24132 896 1
-1 8 4 23372 878 1
8 -1 5 3 107 1
7 1 5 1 104 1
-1 8 5 16 53 1
1 7 5 21 68 1
7 1 5 111 105 1
8 -1 5 3 105 1
-7 -1 5 29 93 1
7 1 6 16446 599 1
1 7 6 14735 580 1
7 1 6 14787 601 1
8 -1 6 16084 606 1
7 1 7 339 112 1
8 -1 7 345 116 1
0 8 -16 128 212 1
0 8 -16 350 203 1
-8 8 -16 47 192 1
8 0 -16 188 212 1
0 8 -15 839 207 1
0 8 -15 534 193 1
-8 8 -15 711 190 1
8 0 -15 845 210 1
0 8 -14 1070 195 1
0 8 -14 1335 217 1
8 0 -14 1449 211 1
8 0 -13 1398 199 1
8 0 -13 1212 180 1
0 8 -13 1481 200 1
0 8 -12 2781 209 1
8 0 -12 2968 215 1
8 0 -12 2952 193 1
8 0 -11 2795 204 1
0 8 -11 2853 225 1
0 8 -11 3284 214 1
8 0 -11 3247 226 1
8 0 -10 1 132 1
8 0 -10 132 150 1
0 8 -10 131 140 1
0 8 -10 196 135 1
8 0 -9 263 130 1
0 8 -9 356 129 1
0 8 -9 487 131 1
8 0 -9 304 137 1
8 -8 -9 146 114 1
8 0 -8 428 127 1
8 -8 -8 249 109 1
0 8 -8 192 123 1
8 0 -8 349 127 1
0 8 -8 278 122 1
8 0 -7 432 123 1
8 -8 -7 373 108 1
8 0 -7 467 117 1
0 8 -7 452 113 1
8 -8 -6 763 109 1
0 8 -6 858 102 1
0 8 -6 692 106 1
8 0 -6 835 116 1
0 8 -5 3991 182 1
8 -8 -5 3601 171 1
0 8 -5 3380 179 1
8 0 -5 3543 186 1
8 0 -4 562 103 1
0 8 -4 464 98 1
8 -8 -4 429 99 1
8 0 -4 475 109 1
0 8 -4 226 97 1
0 8 -3 408 98 1
0 8 -3 597 94 1
8 0 -3 157 101 1
8 0 -3 157 103 1
8 -8 -3 576 91 1
0 8 -2 9059 305 1
0 8 -2 9046 314 1
8 0 -2 9131 317 1
8 -8 -2 9031 312 1
8 0 -2 9548 324 1
0 8 -1 7275 369 1
-8 0 -1 6125 366 1
0 8 -1 6561 358 1
8 -8 -1 6911 371 1
8 0 -1 6887 375 1
8 -8 0 25125 946 1
0 8 0 25330 930 1
8 0 0 25967 949 1
0 8 0 23711 938 1
0 8 1 6547 363 1
-8 0 1 6802 372 1
8 0 1 7171 378 1
8 -8 1 6688 377 1
8 0 1 6457 375 1
0 8 1 6908 351 1
8 0 2 8812 315 1
8 0 2 9349 317 1
0 8 2 9172 298 1
8 -8 2 9249 315 1
0 8 2 8687 281 1
-8 0 2 9210 307 1
0 8 3 158 69 1
8 0 3 430 100 1
8 0 3 321 99 1
-8 0 3 540 94 1
0 8 4 479 72 1
8 0 4 582 110 1
-8 0 4 375 97 1
8 0 4 407 105 1
8 0 5 4678 201 1
8 0 5 3626 194 1
0 8 5 3783 160 1
8 0 6 1019 119 1
8 0 6 693 119 1
8 0 7 645 122 1
-4 9 -16 2876 248 1
4 5 -16 2982 248 1
-4 9 -16 2600 242 1
-5 9 -16 2761 241 1
-5 9 -16 2717 246 1
4 5 -16 2810 261 1
5 4 -16 2684 255 1
5 4 -16 2736 246 1
5 4 -15 7664 392 1
-4 9 -15 7394 393 1
4 5 -15 7821 391 1
9 -4 -15 8163 395 1
4 5 -15 8443 407 1
5 4 -15 7942 401 1
-4 9 -15 7875 398 1
-5 9 -15 8027 396 1
-5 9 -15 8301 396 1
-4 9 -14 2149 219 1
4 5 -14 2154 221 1
4 5 -14 2321 214 1
5 4 -14 1797 212 1
9 -5 -14 2090 204 1
-4 9 -14 2010 214 1
5 4 -14 2212 208 1
-5 9 -14 2117 214 1
9 -4 -14 1770 203 1
-4 9 -13 10460 434 1
9 -4 -13 10530 428 1
-5 9 -13 10336 434 1
5 4 -13 11051 432 1
4 5 -13 9328 434 1
-4 9 -13 9518 427 1
5 4 -13 9340 434 1
9 -5 -13 10063 427 1
4 5 -13 9625 427 1
5 4 -12 2306 201 1
4 5 -12 1849 201 1
5 4 -12 1814 198 1
4 5 -12 2030 187 1
9 -4 -12 1889 196 1
9 -5 -12 1598 189 1
9 -5 -11 12465 475 1
9 -4 -11 12121 478 1
5 4 -11 11606 476 1
4 5 -11 11868 475 1
5 4 -11 10979 479 1
5 4 -10 2358 183 1
4 5 -10 1655 167 1
9 -5 -10 2456 172 1
-4 9 -10 2268 171 1
9 -4 -10 2376 180 1
5 4 -9 10380 444 1
4 5 -9 10137 438 1
-4 9 -9 10033 435 1
9 -4 -9 10251 440 1
4 5 -9 10100 440 1
9 -5 -9 10343 438 1
9 -4 -9 10339 422 1
-4 9 -8 10695 376 1
-9 4 -8 9895 354 1
5 4 -8 10503 382 1
9 -5 -8 10348 378 1
9 -4 -8 10634 361 1
9 -5 -8 9847 359 1
5 4 -8 10210 379 1
4 5 -8 10311 378 1
-9 5 -8 10304 350 1
9 -4 -8 10177 377 1
4 5 -8 10839 377 1
9 -4 -7 42462 1603 1
4 5 -7 44341 1613 1
4 5 -7 43287 1615 1
9 -5 -7 41578 1599 1
9 -5 -7 43436 1612 1
5 4 -7 43086 1616 1
9 -4 -7 39470 1610 1
5 4 -7 46078 1615 1
-9 4 -7 42797 1598 1
-9 5 -7 44995 1596 1
4 5 -6 28043 1101 1
9 -4 -6 27267 1100 1
5 4 -6 27394 1101 1
4 5 -6 26396 1100 1
9 -4 -6 28025 1092 1
9 -5 -6 27433 1089 1
-9 4 -6 27845 1089 1
9 -5 -6 26028 1099 1
-9 5 -6 27135 1085 1
5 4 -6 27823 1100 1
-9 4 -5 51649 1782 1
9 -4 -5 51884 1784 1
5 4 -5 53113 1791 1
4 5 -5 50331 1789 1
-9 5 -5 54725 1780 1
9 -4 -5 53237 1792 1
5 4 -5 53160 1790 1
9 -5 -5 50069 1789 1
5 -9 -5 52736 1768 1
9 -5 -5 54024 1783 1
4 5 -4 18664 628 1
5 4 -4 18965 628 1
5 -9 -4 17648 606 1
9 -4 -4 17603 624 1
-9 4 -4 18618 622 1
9 -4 -4 17877 631 1
9 -5 -4 17826 631 1
9 -5 -4 17813 622 1
5 4 -3 49447 1634 1
4 5 -3 49004 1633 1
9 -4 -3 49435 1639 1
4 5 -3 52385 1636 1
9 -5 -3 49234 1630 1
9 -4 -3 48200 1632 1
5 4 -3 48912 1635 1
9 -5 -3 49283 1637 1
5 -9 -3 49189 1618 1
-9 4 -3 49517 1629 1
9 -4 -2 11371 584 1
5 4 -2 9920 575 1
9 -4 -2 11589 578 1
9 -5 -2 11426 576 1
9 -5 -2 10801 582 1
4 5 -2 10793 574 1
-9 4 -2 10446 572 1
4 5 -2 11103 578 1
5 4 -2 11892 582 1
9 -5 -1 24054 719 1
5 4 -1 25478 717 1
9 -4 -1 23639 719 1
4 5 -1 23911 714 1
9 -4 -1 25034 725 1
5 4 -1 23739 720 1
4 5 -1 22865 718 1
9 -5 -1 24343 723 1
5 4 0 3778 152 1
4 5 0 3669 150 1
9 -5 0 3711 157 1
9 -4 0 3466 148 1
4 5 0 3751 132 1
5 4 0 3336 135 1
9 -5 0 3527 149 1
4 5 1 25398 729 1
9 -4 1 23997 742 1
4 5 1 25729 738 1
-4 9 1 24802 725 1
5 4 1 25517 732 1
9 -5 1 23899 741 1
5 4 1 23426 736 1
9 -5 2 10786 572 1
5 4 2 11703 561 1
4 5 2 11058 565 1
5 4 2 10129 564 1
9 -4 2 11036 572 1
9 -4 2 10614 574 1
4 5 2 9856 555 1
-4 9 2 10910 550 1
5 4 3 51223 1639 1
-4 9 3 50808 1621 1
5 4 3 51715 1631 1
4 5 3 47859 1635 1
9 -4 3 49591 1645 1
4 5 3 47582 1626 1
9 -5 3 46330 1643 1
-4 9 4 17781 587 1
-5 -4 4 15949 605 1
9 -5 4 18522 623 1
4 5 4 17369 608 1
5 4 4 17264 611 1
-5 9 4 17628 587 1
9 -4 4 18306 622 1
5 4 4 18542 603 1
4 5 4 17909 597 1
5 4 5 53425 1771 1
-4 -5 5 53089 1773 1
4 5 5 51469 1775 1
9 -4 5 50975 1788 1
-5 -4 5 57135 1778 1
4 5 5 52023 1766 1
5 4 5 49081 1777 1
9 -5 5 52330 1788 1
9 -5 6 28257 1162 1
4 5 6 28443 1145 1
5 4 6 28658 1148 1
5 4 6 33728 1143 1
-5 -4 6 27052 1144 1
9 -4 6 28016 1160 1
-4 -5 6 27093 1141 1
-4 -5 7 37966 1516 1
4 5 7 42529 1522 1
5 4 7 42797 1525 1
-5 -4 7 41447 1519 1
-3 9 -16 3175 252 1
3 6 -16 3367 262 1
9 -3 -16 3066 255 1
-6 9 -16 3243 257 1
6 3 -16 3244 261 1
-3 9 -16 3531 261 1
3 6 -16 3511 252 1
-3 9 -15 201 200 1
3 6 -15 29 206 1
6 3 -15 5 184 1
6 3 -15 5 202 1
-6 9 -15 4 203 1
-3 9 -15 156 200 1
9 -3 -15 22 187 1
3 6 -15 278 196 1
6 3 -14 3604 241 1
-6 9 -14 3341 251 1
6 3 -14 3849 271 1
3 6 -14 3911 257 1
3 6 -14 3750 259 1
9 -3 -14 3473 246 1
-3 9 -14 4082 259 1
-3 9 -14 3377 259 1
3 6 -13 269 181 1
6 3 -13 428 181 1
6 3 -13 529 172 1
-3 9 -13 329 176 1
-6 9 -13 464 173 1
9 -3 -13 293 175 1
9 -6 -13 399 155 1
3 6 -13 168 176 1
3 6 -12 4894 270 1
9 -3 -12 5508 278 1
6 3 -12 5345 281 1
-6 9 -12 5121 271 1
-3 9 -12 5491 280 1
9 -6 -12 5465 260 1
6 3 -12 5221 270 1
-3 9 -11 736 152 1
9 -6 -11 645 148 1
6 3 -11 328 156 1
6 3 -11 583 169 1
9 -3 -11 433 155 1
3 6 -11 666 164 1
-3 9 -11 739 160 1
3 6 -10 2255 180 1
6 3 -10 2632 189 1
6 3 -10 2645 180 1
-3 9 -10 2431 173 1
3 6 -10 2261 170 1
9 -3 -10 2361 186 1
9 -3 -10 2535 155 1
9 -6 -10 2345 168 1
-3 9 -10 2266 170 1
-3 9 -9 425 126 1
-9 3 -9 423 94 1
6 3 -9 261 138 1
3 6 -9 356 130 1
9 -3 -9 443 126 1
3 6 -9 369 142 1
9 -3 -9 411 145 1
-3 9 -9 196 133 1
9 -6 -9 733 136 1
-3 9 -8 17701 628 1
9 -3 -8 16108 619 1
-9 3 -8 16318 610 1
3 6 -8 17245 629 1
9 -3 -8 16095 630 1
6 3 -8 16728 628 1
9 -6 -8 15995 623 1
3 6 -8 16267 627 1
6 3 -7 739 120 1
9 -6 -7 1018 123 1
-3 9 -7 934 119 1
9 -3 -7 795 121 1
-9 3 -7 897 99 1
3 6 -7 1043 123 1
9 -6 -7 919 100 1
9 -3 -7 1097 129 1
-3 9 -7 834 113 1
6 3 -7 791 126 1
3 6 -7 805 125 1
9 -6 -6 17280 633 1
6 3 -6 18299 650 1
6 3 -6 17146 647 1
9 -3 -6 17448 650 1
-3 9 -6 16906 643 1
9 -6 -6 16246 645 1
9 -3 -6 17247 642 1
-9 3 -6 18160 637 1
3 6 -6 17620 648 1
6 -9 -6 16833 626 1
3 6 -5 2819 156 1
6 3 -5 3210 162 1
9 -6 -5 2758 139 1
9 -3 -5 2610 153 1
9 -3 -5 2484 159 1
6 -9 -5 2587 123 1
9 -6 -5 2919 161 1
-9 3 -5 2647 142 1
-3 9 -5 2776 149 1
6 3 -5 2968 158 1
3 6 -4 35202 1282 1
-9 3 -4 32901 1275 1
6 3 -4 33318 1281 1
-3 9 -4 34087 1278 1
3 6 -4 34078 1279 1
9 -3 -4 34839 1279 1
9 -6 -4 35127 1272 1
9 -3 -4 35029 1285 1
6 -9 -4 34898 1265 1
9 -6 -4 36815 1284 1
-3 9 -4 33379 1275 1
6 3 -4 35681 1283 1
9 -3 -3 180 110 1
3 6 -3 266 114 1
3 6 -3 218 105 1
9 -3 -3 200 104 1
9 -6 -3 164 115 1
6 -9 -3 128 78 1
9 -6 -3 203 99 1
6 3 -3 163 113 1
-3 9 -3 156 96 1
-9 3 -3 166 102 1
-3 9 -2 15650 523 1
3 6 -2 15933 530 1
6 -9 -2 15255 517 1
3 6 -2 15311 524 1
6 3 -2 16626 531 1
9 -6 -2 15149 533 1
6 3 -2 15899 531 1
-9 3 -2 15722 527 1
9 -3 -2 15476 530 1
9 -6 -2 15586 525 1
-3 9 -1 755 99 1
6 3 -1 644 110 1
6 3 -1 786 119 1
3 6 -1 863 111 1
3 6 -1 594 101 1
6 -9 -1 689 95 1
9 -6 -1 725 119 1
9 -3 -1 712 124 1
-9 3 -1 624 99 1
9 -6 -1 641 112 1
-3 9 0 7957 351 1
6 3 0 7476 361 1
3 6 0 7912 362 1
-9 3 0 8219 362 1
3 6 0 6981 350 1
9 -3 0 7207 363 1
9 -6 0 7620 368 1
9 -6 0 7847 366 1
9 -3 0 7237 367 1
6 3 0 7450 364 1
3 6 1 738 107 1
6 3 1 734 112 1
9 -3 1 773 117 1
3 6 1 632 83 1
9 -3 1 640 116 1
-3 9 1 714 87 1
9 -6 1 569 124 1
6 3 1 642 111 1
6 3 2 14470 512 1
-3 9 2 16138 502 1
6 3 2 14502 517 1
3 6 2 14371 512 1
3 6 2 15701 502 1
9 -3 2 16537 527 1
9 -6 2 15229 523 1
-3 9 3 206 62 1
9 -3 3 149 112 1
-3 9 3 143 41 1
3 6 3 176 98 1
6 3 3 197 102 1
6 3 3 155 99 1
-6 -3 3 195 95 1
3 6 3 241 69 1
9 -3 3 97 107 1
9 -3 4 34904 1266 1
3 6 4 32635 1240 1
3 6 4 34612 1252 1
6 3 4 34145 1260 1
6 3 4 33652 1253 1
9 -3 4 34532 1267 1
-6 -3 4 34999 1256 1
-3 9 4 34146 1237 1
6 3 5 2931 142 1
-6 -3 5 2939 142 1
3 6 5 2592 134 1
9 -3 5 2676 163 1
9 -6 5 2799 167 1
6 3 5 2748 154 1
6 3 6 18258 639 1
-3 -6 6 17439 633 1
3 6 6 16841 634 1
9 -3 6 17105 655 1
6 3 6 17239 646 1
-6 -3 6 17137 639 1
9 -3 7 970 134 1
3 6 7 953 98 1
-3 -6 7 1063 94 1
6 3 7 930 116 1
6 3 7 849 103 1
2 7 -16 2 204 1
-2 9 -16 5 210 1
7 2 -16 118 212 1
2 7 -16 56 213 1
-2 9 -16 5 214 1
-7 9 -16 182 198 1
9 -2 -16 5 212 1
-2 9 -15 80 196 1
7 2 -15 246 209 1
2 7 -15 134 192 1
-2 9 -15 288 199 1
9 -2 -15 375 191 1
-7 9 -15 57 191 1
2 7 -15 1 200 1
2 7 -14 102 185 1
7 2 -14 149 202 1
7 2 -14 223 174 1
-7 9 -14 459 186 1
9 -2 -14 215 183 1
2 7 -14 6 183 1
-2 9 -14 51 179 1
-2 9 -13 195 171 1
7 2 -13 378 165 1
7 2 -13 538 190 1
2 7 -13 410 177 1
9 -2 -13 465 178 1
-2 9 -12 521 160 1
7 2 -12 521 153 1
2 7 -12 454 170 1
-2 9 -12 295 155 1
7 2 -12 368 172 1
9 -2 -12 723 177 1
9 -2 -11 1 157 1
-2 9 -11 22 144 1
2 7 -11 1 148 1
2 7 -11 18 155 1
7 2 -11 95 167 1
7 2 -11 106 154 1
9 -7 -11 371 138 1
-2 9 -11 27 156 1
9 -2 -11 1 131 1
-2 9 -10 496 140 1
-2 9 -10 467 150 1
2 7 -10 575 149 1
2 7 -10 268 144 1
7 2 -10 300 145 1
9 -2 -10 333 132 1
7 2 -10 378 153 1
9 -2 -10 429 158 1
9 -7 -10 304 131 1
7 2 -9 2338 179 1
2 7 -9 1920 169 1
2 7 -9 2271 168 1
-2 9 -9 1880 164 1
9 -7 -9 1785 159 1
9 -2 -9 2193 162 1
9 -2 -9 2274 177 1
7 2 -9 2107 175 1
-2 9 -9 2122 170 1
2 7 -8 20 126 1
-2 9 -8 22 114 1
9 -7 -8 199 118 1
7 2 -8 90 120 1
9 -2 -8 51 118 1
2 7 -8 13 117 1
9 -2 -8 92 139 1
2 7 -7 129 119 1
-2 9 -7 49 106 1
7 2 -7 143 124 1
9 -7 -7 68 115 1
9 -2 -7 219 119 1
9 -2 -7 168 121 1
7 -9 -7 240 88 1
-2 9 -7 398 117 1
2 7 -6 560 122 1
-9 2 -6 592 112 1
-2 9 -6 489 117 1
9 -7 -6 497 118 1
9 -2 -6 503 120 1
7 2 -6 542 126 1
7 2 -6 562 122 1
9 -7 -6 519 94 1
7 -9 -6 605 96 1
9 -2 -6 546 128 1
-2 9 -6 583 124 1
7 2 -5 400 117 1
2 7 -5 443 105 1
-2 9 -5 701 111 1
7 -9 -5 403 84 1
9 -2 -5 653 113 1
2 7 -5 616 107 1
9 -7 -5 431 113 1
-9 2 -5 417 104 1
7 2 -5 309 107 1
9 -7 -5 739 88 1
-2 9 -5 467 106 1
9 -2 -5 404 117 1
9 -2 -4 1342 129 1
7 -9 -4 1653 109 1
9 -2 -4 1554 128 1
-9 2 -4 1531 121 1
7 2 -4 1658 131 1
-2 9 -4 1431 121 1
2 7 -4 1470 127 1
9 -7 -4 1499 126 1
9 -7 -4 1574 107 1
7 2 -4 1721 138 1
2 7 -4 1654 125 1
-2 9 -4 1307 122 1
-2 9 -3 271 88 1
7 -9 -3 345 92 1
2 7 -3 559 105 1
7 2 -3 274 102 1
7 2 -3 320 106 1
9 -7 -3 415 106 1
9 -2 -3 380 106 1
-9 2 -3 369 96 1
9 -7 -3 375 86 1
2 7 -3 415 95 1
-2 9 -3 348 96 1
9 -7 -2 553 104 1
2 7 -2 252 87 1
7 2 -2 120 106 1
9 -2 -2 337 101 1
7 -9 -2 569 81 1
-2 9 -2 121 93 1
9 -7 -2 431 92 1
-2 9 -2 496 83 1
-9 2 -2 123 91 1
2 7 -2 573 97 1
9 -7 -1 1200 142 1
2 7 -1 1224 128 1
2 7 -1 1152 122 1
9 -2 -1 1373 134 1
-2 9 -1 1158 107 1
7 2 -1 1280 136 1
9 -2 -1 1204 143 1
-2 9 -1 1331 124 1
-9 2 -1 1220 128 1
7 2 -1 840 134 1
7 -9 -1 1186 121 1
-2 9 0 1752 123 1
2 7 0 1485 128 1
-2 9 0 1654 103 1
9 -2 0 1710 137 1
7 2 0 1697 134 1
9 -7 0 1774 142 1
9 -2 0 1838 139 1
7 -9 0 2048 135 1
7 2 0 1933 135 1
-9 2 0 1512 130 1
2 7 0 1791 113 1
-2 9 1 1189 116 1
-2 9 1 1129 91 1
2 7 1 1095 105 1
7 2 1 1102 136 1
2 7 1 857 126 1
9 -7 1 1276 140 1
7 2 1 1294 138 1
9 -2 1 1311 140 1
2 7 2 560 92 1
-2 9 2 518 47 1
9 -2 2 252 106 1
-7 -2 2 357 87 1
7 2 2 588 101 1
2 7 2 466 60 1
7 2 2 120 103 1
9 -7 2 597 110 1
-2 9 2 512 72 1
-9 2 2 329 89 1
2 7 3 231 81 1
7 2 3 433 108 1
9 -7 3 521 108 1
2 7 3 347 59 1
7 2 3 396 105 1
-2 9 3 419 67 1
9 -2 3 279 116 1
9 -2 3 503 110 1
-7 -2 3 399 96 1
-7 -2 4 1431 121 1
7 2 4 1346 132 1
-2 9 4 1547 87 1
2 7 4 1487 106 1
9 -2 4 1865 142 1
7 2 4 1625 121 1
9 -7 4 1358 133 1
9 -2 4 1739 136 1
9 -2 5 547 118 1
7 2 5 347 106 1
-7 -2 5 352 99 1
2 7 5 577 87 1
7 2 5 370 107 1
9 -2 5 585 118 1
9 -2 6 570 130 1
7 2 6 743 136 1
2 7 6 629 95 1
7 2 6 595 117 1
-7 -2 6 703 117 1
9 -2 7 161 128 1
7 2 7 193 117 1
7 2 7 107 102 1
-1 9 -16 200 203 1
1 8 -16 0 206 1
1 8 -16 0 209 1
8 1 -16 0 219 1
-8 9 -16 374 200 1
9 -1 -16 370 217 1
-1 9 -16 597 210 1
-9 8 -16 1 189 1
1 8 -15 1446 221 1
-1 9 -15 1049 210 1
-1 9 -15 1218 222 1
1 8 -15 2115 230 1
8 1 -15 1302 226 1
-8 9 -15 1531 206 1
9 -1 -15 1374 219 1
1 8 -14 526 187 1
-1 9 -14 417 196 1
8 1 -14 662 201 1
9 -1 -14 674 205 1
8 1 -13 4907 266 1
-1 9 -13 5254 281 1
1 8 -13 5046 277 1
8 1 -13 5037 286 1
9 -1 -13 4495 278 1
-1 9 -12 1159 187 1
1 8 -12 1434 191 1
1 8 -12 1290 194 1
8 1 -12 1585 177 1
8 1 -12 1147 195 1
9 -1 -12 1485 202 1
-1 9 -12 1713 186 1
9 -1 -12 1363 174 1
1 8 -11 2527 207 1
-1 9 -11 2713 203 1
9 -1 -11 2493 187 1
9 -1 -11 3220 219 1
1 8 -11 2830 202 1
8 1 -11 2955 213 1
8 1 -11 2958 201 1
-1 9 -11 2885 203 1
1 8 -10 4433 237 1
8 1 -10 4073 242 1
9 -1 -10 4547 225 1
1 8 -10 4566 238 1
8 1 -10 4159 230 1
9 -1 -10 3941 241 1
9 -8 -10 4270 222 1
-1 9 -10 4395 230 1
-1 9 -10 4058 234 1
-1 9 -9 1754 169 1
1 8 -9 1944 171 1
1 8 -9 1838 172 1
9 -8 -9 1975 164 1
9 -1 -9 1749 165 1
8 1 -9 1918 177 1
-1 9 -9 1632 160 1
8 1 -9 2078 175 1
9 -1 -9 2120 178 1
1 8 -8 724 138 1
9 -1 -8 585 135 1
1 8 -8 648 130 1
9 -8 -8 832 125 1
9 -1 -8 743 146 1
8 1 -8 464 138 1
8 1 -8 972 143 1
-1 9 -8 727 128 1
8 -9 -7 2300 142 1
-1 9 -7 2189 156 1
8 1 -7 2324 172 1
9 -1 -7 2276 171 1
9 -8 -7 2058 161 1
9 -1 -7 2327 161 1
1 8 -7 2036 160 1
-1 9 -7 2169 155 1
1 8 -6 2080 136 1
9 -1 -6 1997 146 1
9 -8 -6 2031 142 1
-1 9 -6 1876 135 1
8 1 -6 2068 147 1
8 -9 -6 1828 123 1
-1 9 -6 2156 138 1
9 -1 -6 1882 147 1
1 8 -6 1908 135 1
1 8 -5 6985 281 1
9 -8 -5 7359 281 1
8 1 -5 7399 288 1
8 -9 -5 7008 273 1
1 8 -5 7382 280 1
9 -1 -5 6903 284 1
8 1 -5 6708 290 1
-1 9 -5 6902 283 1
9 -8 -5 6302 261 1
-1 9 -5 6935 278 1
1 8 -4 1569 129 1
-1 9 -4 1403 117 1
9 -8 -4 1654 128 1
1 8 -4 1672 121 1
-9 1 -4 1735 126 1
-1 9 -4 1898 131 1
9 -1 -4 1677 137 1
8 -9 -4 1678 112 1
8 1 -4 1552 137 1
8 1 -4 1853 132 1
8 1 -3 11627 488 1
1 8 -3 10635 483 1
9 -8 -3 11155 485 1
9 -1 -3 11720 489 1
-1 9 -3 11881 484 1
-1 9 -3 11430 476 1
8 1 -3 12384 491 1
8 -9 -3 11713 480 1
9 -1 -3 11945 492 1
-9 1 -3 11539 483 1
1 8 -3 11278 479 1
1 8 -2 9514 307 1
1 8 -2 8663 294 1
-1 9 -2 9021 301 1
9 -1 -2 9267 310 1
-9 1 -2 8641 301 1
-1 9 -2 8702 292 1
9 -8 -2 8460 303 1
8 1 -2 8417 309 1
9 -1 -2 8813 307 1
8 -9 -2 9203 302 1
8 1 -2 7620 303 1
9 -1 -1 11843 454 1
1 8 -1 10757 446 1
1 8 -1 11283 439 1
8 -9 -1 11155 448 1
-9 1 -1 11554 450 1
9 -1 -1 10466 454 1
8 1 -1 11520 454 1
-1 9 -1 11127 434 1
9 -8 -1 11383 453 1
-1 9 -1 11665 447 1
1 8 0 6030 236 1
9 -1 0 5348 262 1
-1 9 0 5482 240 1
8 -9 0 5535 252 1
8 1 0 5109 255 1
-1 9 0 5433 230 1
9 -8 0 5042 256 1
-8 -1 0 5022 249 1
1 8 0 5898 249 1
8 1 0 5661 258 1
-1 9 1 10990 422 1
9 -8 1 11349 450 1
9 -1 1 10881 452 1
1 8 1 11201 438 1
8 1 1 12707 452 1
8 1 1 10961 447 1
8 -9 1 11257 447 1
1 8 1 11009 426 1
-8 -1 1 10763 443 1
-9 1 1 10187 445 1
-1 9 1 11470 436 1
-9 1 2 8445 296 1
8 1 2 8013 303 1
8 1 2 8666 306 1
1 8 2 8586 272 1
9 -1 2 8973 307 1
9 -8 2 8636 306 1
-1 9 2 8225 268 1
-8 -1 2 9743 300 1
9 -1 2 9309 307 1
1 8 2 8423 290 1
-1 9 2 9135 284 1
9 -1 3 11482 501 1
-9 1 3 12230 496 1
1 8 3 11801 483 1
-8 -1 3 11690 494 1
9 -1 3 11847 502 1
8 1 3 11848 501 1
9 -8 3 11674 505 1
-1 9 3 12113 480 1
9 -1 4 1698 136 1
-1 9 4 1721 95 1
-8 -1 4 1358 120 1
9 -1 4 1550 134 1
8 1 4 1776 131 1
8 1 4 1780 131 1
1 8 4 1631 103 1
1 8 5 6601 253 1
-8 -1 5 6818 272 1
9 -1 5 6687 282 1
8 1 5 6700 279 1
9 -1 5 7030 284 1
8 1 5 6900 275 1
9 -1 6 2122 149 1
8 1 6 1985 145 1
9 -1 6 1974 149 1
8 1 6 1781 134 1
8 1 7 2328 156 1
9 -1 7 2182 171 1
8 1 7 2276 166 1
0 9 -15 1693 230 1
9 0 -15 2181 236 1
0 9 -14 1696 222 1
9 0 -14 2167 230 1
0 9 -13 5506 299 1
9 0 -13 5610 306 1
0 9 -13 5494 296 1
0 9 -12 7792 371 1
9 0 -12 7269 379 1
9 0 -12 7305 356 1
0 9 -12 7665 368 1
9 0 -11 14393 545 1
0 9 -11 13239 549 1
0 9 -11 13922 550 1
9 0 -11 13490 553 1
0 9 -10 547 151 1
0 9 -10 702 152 1
9 0 -10 863 151 1
9 0 -10 481 155 1
9 0 -9 3629 209 1
9 0 -9 3282 217 1
0 9 -9 3398 215 1
0 9 -9 3535 211 1
0 9 -8 2667 185 1
9 0 -8 3049 190 1
9 0 -8 3309 195 1
9 -9 -8 3145 172 1
0 9 -7 1245 138 1
0 9 -7 1290 142 1
9 -9 -7 1009 121 1
9 0 -7 1326 150 1
9 0 -7 1151 142 1
0 9 -6 1629 137 1
0 9 -6 1232 134 1
9 0 -6 1180 144 1
9 -9 -6 1186 131 1
0 9 -5 1353 129 1
9 -9 -5 1058 126 1
9 0 -5 1421 136 1
0 9 -5 1107 131 1
9 0 -4 6432 284 1
9 -9 -4 6555 278 1
9 0 -4 6619 284 1
0 9 -4 6169 281 1
0 9 -4 6412 274 1
0 9 -3 4882 252 1
9 0 -3 4811 250 1
9 -9 -3 4697 243 1
9 0 -3 4714 250 1
0 9 -3 4873 239 1
9 0 -2 10069 451 1
-9 0 -2 10139 443 1
0 9 -2 12693 450 1
9 -9 -2 10248 448 1
9 0 -2 9589 452 1
0 9 -2 10322 437 1
0 9 -1 16714 615 1
9 -9 -1 17190 631 1
0 9 -1 14908 623 1
-9 0 -1 15566 627 1
9 0 -1 15503 633 1
9 -9 0 2790 189 1
9 0 0 2472 196 1
0 9 0 2801 176 1
0 9 0 2387 157 1
9 -9 1 16494 657 1
0 9 1 17294 634 1
-9 0 1 16746 654 1
0 9 1 17002 646 1
9 0 1 15654 656 1
9 0 1 16194 657 1
0 9 2 10634 433 1
9 0 2 9764 447 1
9 0 2 10503 450 1
9 -9 2 10125 450 1
-9 0 2 10912 446 1
9 0 3 4521 250 1
0 9 3 4817 226 1
9 0 3 4267 246 1
-9 0 3 4926 244 1
9 0 4 6436 277 1
0 9 4 6202 247 1
9 0 4 5623 270 1
-9 0 4 6029 266 1
9 0 5 1088 135 1
9 0 5 1331 138 1
9 0 6 1568 147 1
9 0 6 1305 140 1
9 0 7 1190 152 1
9 0 7 1255 141 1
9 0 8 3262 189 1
-5 10 -16 11858 517 1
-5 10 -16 12527 523 1
5 5 -16 11691 527 1
5 5 -16 12626 515 1
5 5 -14 16925 679 1
10 -5 -14 17682 678 1
5 5 -14 17644 693 1
-5 10 -14 15756 678 1
-5 10 -14 16716 686 1
10 -5 -12 19808 788 1
5 5 -12 21009 796 1
5 5 -10 29561 1070 1
10 -5 -10 29864 1065 1
-5 10 -10 28979 1065 1
5 5 -10 30933 1071 1
5 5 -8 20947 848 1
10 -5 -8 22007 832 1
-10 5 -8 22543 826 1
10 -5 -8 21566 847 1
5 5 -8 20952 849 1
5 5 -6 112083 3898 1
5 5 -6 116582 3900 1
10 -5 -6 114438 3889 1
10 -5 -6 111247 3899 1
-10 5 -6 112985 3885 1
5 5 -4 104291 3651 1
-10 5 -4 99073 3642 1
10 -5 -4 100137 3647 1
10 -5 -4 97416 3653 1
5 5 -2 62561 2075 1
5 5 -2 64069 2072 1
10 -5 -2 64369 2079 1
10 -5 -2 64987 2074 1
5 5 0 64262 2304 1
10 -5 0 58477 2307 1
5 5 0 66885 2299 1
10 -5 0 61757 2305 1
5 5 2 68532 2081 1
5 5 2 60794 2085 1
10 -5 2 63064 2093 1
10 -5 4 96421 3789 1
5 5 4 101683 3780 1
5 5 4 109523 3773 1
10 -5 6 117254 4011 1
5 5 6 116240 3995 1
-5 -5 6 116533 3993 1
5 5 8 21096 810 1
-6 10 -16 1136 215 1
-4 10 -16 1096 220 1
-6 10 -16 704 216 1
4 6 -16 710 223 1
6 4 -16 1098 234 1
-4 10 -16 729 220 1
4 6 -16 1328 222 1
10 -4 -16 1502 229 1
-4 10 -15 8812 407 1
4 6 -15 8275 399 1
4 6 -15 8073 409 1
-4 10 -15 8038 405 1
10 -4 -15 8356 400 1
-6 10 -15 8091 402 1
6 4 -15 8086 395 1
6 4 -15 8586 417 1
-6 10 -14 3386 242 1
6 4 -14 3585 240 1
4 6 -14 3324 252 1
6 4 -14 3516 260 1
4 6 -14 3020 241 1
-4 10 -14 3296 240 1
10 -4 -14 3298 246 1
4 6 -13 6864 337 1
10 -4 -13 6988 340 1
6 4 -13 6800 331 1
10 -6 -13 6341 318 1
6 4 -13 6744 348 1
-4 10 -13 6826 339 1
10 -6 -12 5856 295 1
10 -4 -12 5896 308 1
6 4 -12 5880 303 1
6 4 -12 6332 321 1
-4 10 -12 5829 302 1
4 6 -12 6667 315 1
-4 10 -12 5977 311 1
-4 10 -11 10376 446 1
10 -6 -11 10101 437 1
6 4 -11 9681 440 1
10 -4 -11 10070 442 1
4 6 -11 9736 443 1
4 6 -11 9629 442 1
-6 10 -11 9760 440 1
-4 10 -11 10232 440 1
-4 10 -10 5736 287 1
4 6 -10 5970 288 1
4 6 -10 5835 291 1
6 4 -10 7030 297 1
10 -4 -10 5757 292 1
10 -6 -10 5956 287 1
-4 10 -10 5871 285 1
4 6 -9 7759 345 1
4 6 -9 7907 348 1
6 4 -9 7296 347 1
10 -4 -9 8087 329 1
10 -4 -9 8102 349 1
-4 10 -9 7796 344 1
10 -6 -9 7106 338 1
6 4 -9 7114 341 1
10 -6 -8 186 136 1
10 -4 -8 258 117 1
4 6 -8 82 137 1
6 4 -8 232 128 1
10 -4 -8 628 142 1
6 4 -8 229 132 1
-10 4 -8 277 105 1
-4 10 -8 238 113 1
4 6 -8 266 135 1
4 6 -7 39739 1460 1
6 4 -7 40131 1459 1
10 -4 -7 39601 1451 1
-10 4 -7 41871 1447 1
10 -4 -7 39418 1461 1
4 6 -7 40188 1461 1
10 -6 -7 40423 1445 1
10 -6 -7 40738 1459 1
-4 10 -7 37859 1455 1
6 4 -7 39404 1460 1
-10 4 -6 9407 366 1
4 6 -6 9765 380 1
6 4 -6 9663 382 1
10 -4 -6 9674 373 1
10 -4 -6 9379 381 1
10 -6 -6 9091 365 1
10 -6 -6 9597 379 1
6 4 -6 9681 378 1
6 4 -5 53907 1984 1
10 -4 -5 54096 1978 1
10 -6 -5 55204 1974 1
6 4 -5 53878 1983 1
10 -4 -5 54070 1986 1
10 -6 -5 54914 1985 1
-10 4 -5 54225 1975 1
4 6 -5 53320 1981 1
6 -10 -4 18461 707 1
10 -4 -4 18158 726 1
6 4 -4 17113 728 1
10 -4 -4 18233 732 1
10 -6 -4 18055 722 1
-10 4 -4 20000 725 1
4 6 -4 18605 729 1
10 -6 -4 18597 732 1
4 6 -4 18339 727 1
4 6 -3 44844 1761 1
10 -6 -3 46508 1767 1
6 4 -3 47925 1765 1
10 -4 -3 45699 1762 1
10 -6 -3 47275 1759 1
6 4 -3 41718 1763 1
6 -10 -3 46172 1747 1
10 -4 -3 45867 1768 1
-10 4 -3 44618 1757 1
4 6 -3 48134 1766 1
4 6 -2 6878 295 1
10 -6 -2 6239 301 1
6 4 -2 6400 296 1
-10 4 -2 6834 292 1
10 -4 -2 6900 300 1
4 6 -2 6254 290 1
10 -4 -2 6486 300 1
6 4 -2 6593 295 1
10 -6 -2 6396 293 1
-4 10 -1 17915 817 1
4 6 -1 18619 820 1
4 6 -1 17287 825 1
10 -4 -1 18241 828 1
6 4 -1 16799 827 1
10 -6 -1 17521 830 1
6 4 -1 18897 825 1
10 -6 -1 16556 826 1
-10 4 -1 18015 824 1
4 6 0 12679 597 1
6 4 0 12716 607 1
10 -4 0 12959 609 1
10 -6 0 13461 611 1
6 4 0 12799 602 1
10 -6 0 14652 610 1
-4 10 0 12982 595 1
4 6 0 14333 607 1
-4 10 1 17862 798 1
4 6 1 17692 810 1
10 -4 1 17603 815 1
4 6 1 17308 799 1
10 -6 1 18901 818 1
6 4 1 14395 802 1
10 -4 1 16706 815 1
6 4 1 19444 814 1
10 -6 1 18241 816 1
10 -4 2 6691 308 1
6 4 2 8333 313 1
10 -4 2 6153 308 1
4 6 2 6285 300 1
4 6 2 7589 290 1
-4 10 2 6536 284 1
6 4 2 6803 296 1
-4 10 3 46409 1752 1
6 4 3 47161 1763 1
4 6 3 44821 1765 1
6 4 3 45694 1769 1
4 6 3 46024 1755 1
10 -4 3 45226 1777 1
10 -6 4 17814 742 1
4 6 4 19007 730 1
4 6 4 18285 717 1
6 4 4 20028 728 1
6 4 4 17299 733 1
-6 -4 4 19697 731 1
10 -4 4 18433 744 1
6 4 5 53077 2000 1
10 -4 5 53446 2018 1
6 4 5 56963 2010 1
4 6 5 49761 2002 1
10 -6 5 55202 2020 1
-6 -4 5 64546 2010 1
6 4 6 9433 361 1
10 -6 6 9576 386 1
4 6 6 9145 363 1
10 -4 6 8868 384 1
6 4 6 9907 373 1
-4 -6 6 10220 361 1
-6 -4 6 9355 367 1
10 -4 7 40181 1506 1
6 4 7 43207 1496 1
4 6 7 39896 1488 1
-4 -6 7 42957 1485 1
-6 -4 7 39881 1487 1
6 4 8 288 112 1
-3 10 -15 1261 220 1
3 7 -15 1449 227 1
-7 10 -15 1328 216 1
-3 10 -15 1082 209 1
7 3 -15 1329 202 1
7 3 -15 1218 222 1
3 7 -15 1439 222 1
10 -3 -15 1165 218 1
7 3 -14 2895 222 1
-3 10 -14 2171 222 1
3 7 -14 2602 243 1
7 3 -14 2162 238 1
-7 10 -14 2304 230 1
10 -3 -14 2386 236 1
3 7 -14 2469 229 1
-7 10 -13 3245 224 1
7 3 -13 2720 228 1
-3 10 -13 2529 216 1
3 7 -13 3008 230 1
7 3 -13 2967 216 1
10 -3 -13 2900 231 1
-3 10 -13 3105 224 1
10 -7 -12 803 169 1
-3 10 -12 990 180 1
-3 10 -12 973 172 1
3 7 -12 759 184 1
10 -3 -12 724 188 1
3 7 -12 935 194 1
7 3 -12 556 185 1
7 3 -12 755 175 1
7 3 -11 4088 245 1
-3 10 -11 3935 248 1
-3 10 -11 4179 241 1
10 -3 -11 3919 253 1
10 -7 -11 3941 234 1
3 7 -11 3576 244 1
7 3 -11 3743 247 1
3 7 -11 3882 248 1
-3 10 -10 680 162 1
10 -7 -10 758 137 1
3 7 -10 380 154 1
7 3 -10 733 161 1
10 -3 -10 482 135 1
3 7 -10 853 156 1
-3 10 -10 406 157 1
10 -3 -10 587 166 1
-3 10 -9 29 127 1
10 -7 -9 7 132 1
10 -3 -9 17 149 1
-10 3 -9 128 107 1
3 7 -9 29 135 1
10 -3 -9 46 121 1
7 3 -9 222 144 1
3 7 -9 356 142 1
3 7 -8 16834 646 1
-3 10 -8 16024 641 1
7 3 -8 15786 643 1
10 -3 -8 16498 637 1
3 7 -8 16802 647 1
7 3 -8 17010 650 1
-10 3 -8 16111 626 1
10 -7 -8 16426 641 1
-3 10 -8 16603 642 1
10 -3 -8 16014 647 1
7 3 -7 5955 273 1
3 7 -7 5667 269 1
-3 10 -7 6251 267 1
10 -3 -7 5773 263 1
10 -3 -7 5526 274 1
-3 10 -7 5513 263 1
7 3 -7 5629 273 1
-10 3 -7 6229 257 1
10 -7 -7 5995 269 1
-3 10 -6 11269 436 1
7 3 -6 11682 442 1
3 7 -6 10835 437 1
7 3 -6 11158 443 1
10 -3 -6 11187 437 1
10 -7 -6 10602 420 1
10 -3 -6 10793 441 1
-10 3 -6 11107 429 1
10 -7 -6 11298 439 1
-3 10 -6 11947 436 1
-3 10 -5 11072 406 1
10 -7 -5 10334 394 1
-3 10 -5 10742 401 1
7 3 -5 11202 414 1
7 3 -5 9561 406 1
-10 3 -5 10760 400 1
10 -7 -5 10688 409 1
10 -3 -5 11026 408 1
7 -10 -5 11118 386 1
3 7 -5 10377 405 1
10 -3 -5 10532 414 1
3 7 -5 10389 406 1
10 -7 -4 13702 518 1
10 -7 -4 13305 507 1
3 7 -4 13930 519 1
7 3 -4 12407 515 1
10 -3 -4 13276 515 1
-3 10 -4 12089 507 1
-3 10 -4 12280 512 1
10 -3 -4 12750 518 1
-10 3 -4 13266 511 1
7 -10 -4 12927 496 1
3 7 -4 13441 513 1
7 3 -4 12526 517 1
-3 10 -3 16529 643 1
7 -10 -3 16979 632 1
10 -7 -3 16542 650 1
3 7 -3 19179 651 1
10 -7 -3 16618 641 1
3 7 -3 16282 642 1
7 3 -3 17396 649 1
-10 3 -3 17625 645 1
-3 10 -3 18298 638 1
10 -3 -3 16896 649 1
10 -3 -3 16243 650 1
3 7 -2 9250 295 1
10 -7 -2 8464 298 1
-10 3 -2 8396 291 1
10 -3 -2 8362 296 1
3 7 -2 9105 289 1
7 -10 -2 8385 279 1
7 3 -2 8258 292 1
-3 10 -2 8404 286 1
-3 10 -2 7946 278 1
7 3 -2 8371 295 1
10 -7 -2 8440 289 1
7 3 -1 1383 124 1
-3 10 -1 1044 92 1
3 7 -1 1428 116 1
10 -7 -1 1380 126 1
-3 10 -1 1505 109 1
-10 3 -1 1355 117 1
10 -3 -1 1540 124 1
3 7 -1 1428 107 1
10 -7 -1 1081 114 1
7 3 -1 1658 122 1
7 -10 -1 1717 110 1
-3 10 0 106 88 1
10 -7 0 60 113 1
3 7 0 1 101 1
-3 10 0 1 66 1
10 -3 0 71 106 1
3 7 0 1 83 1
10 -3 0 119 112 1
7 3 0 1 102 1
-10 3 0 98 93 1
7 3 0 1 102 1
7 3 1 1248 117 1
-3 10 1 1374 96 1
10 -7 1 1516 131 1
7 3 1 1051 117 1
-3 10 1 1265 73 1
3 7 1 1284 91 1
10 -3 1 1250 126 1
10 -3 1 1388 115 1
10 -7 2 8596 288 1
7 3 2 7521 275 1
3 7 2 8683 277 1
7 3 2 8295 283 1
10 -3 2 8407 290 1
-3 10 2 8194 259 1
3 7 2 7930 257 1
-3 10 2 7680 245 1
7 3 3 17565 641 1
-3 10 3 17447 619 1
3 7 3 16198 618 1
10 -7 3 16287 644 1
10 -3 3 14935 640 1
7 3 3 17819 635 1
10 -3 3 16985 645 1
-7 -3 3 17995 637 1
3 7 3 17236 632 1
7 3 4 13029 521 1
7 3 4 12746 527 1
10 -3 4 15291 535 1
10 -3 4 13439 535 1
-7 -3 4 12388 522 1
3 7 4 13410 518 1
3 7 5 10871 390 1
-7 -3 5 10252 397 1
7 3 5 10120 401 1
7 3 5 10832 396 1
10 -3 5 10874 412 1
7 3 6 11288 432 1
10 -3 6 11031 452 1
3 7 6 11249 426 1
-7 -3 6 11197 433 1
7 3 6 12212 446 1
-7 -3 7 5110 235 1
10 -3 7 5734 266 1
7 3 7 5202 234 1
7 3 7 5491 252 1
7 3 8 17633 681 1
2 8 -15 1234 221 1
2 8 -15 1494 230 1
-8 10 -15 1750 225 1
8 2 -15 1526 242 1
10 -2 -15 1590 214 1
-2 10 -15 1669 223 1
8 2 -14 145 177 1
2 8 -14 1 194 1
-8 10 -14 136 188 1
8 2 -14 1 203 1
10 -2 -14 1 191 1
-2 10 -14 1 189 1
8 2 -13 3611 239 1
2 8 -13 3455 255 1
-2 10 -13 3531 248 1
2 8 -13 3050 248 1
8 2 -13 3342 259 1
-2 10 -13 3645 254 1
10 -2 -13 3420 254 1
2 8 -12 0 170 1
8 2 -12 141 158 1
-2 10 -12 253 170 1
2 8 -12 0 175 1
-2 10 -12 0 168 1
8 2 -12 216 174 1
10 -2 -12 419 185 1
2 8 -11 1266 179 1
-2 10 -11 1228 180 1
8 2 -11 1085 172 1
2 8 -11 942 179 1
10 -2 -11 1111 159 1
8 2 -11 1177 182 1
-2 10 -11 1220 182 1
10 -2 -11 1412 190 1
2 8 -10 1594 172 1
10 -8 -10 1348 165 1
-2 10 -10 1761 182 1
-2 10 -10 1406 173 1
8 2 -10 1767 182 1
10 -2 -10 1683 167 1
8 2 -10 1540 188 1
2 8 -10 1428 176 1
10 -2 -10 1056 188 1
2 8 -9 12677 519 1
2 8 -9 13104 521 1
10 -2 -9 13569 515 1
-2 10 -9 13359 518 1
10 -8 -9 12798 510 1
8 2 -9 13474 526 1
10 -2 -9 13351 529 1
-2 10 -8 228 128 1
-2 10 -8 103 123 1
2 8 -8 120 125 1
8 2 -8 83 143 1
10 -2 -8 229 129 1
10 -8 -8 188 129 1
-10 2 -8 159 116 1
2 8 -8 264 132 1
10 -2 -8 90 132 1
-10 2 -7 6324 262 1
2 8 -7 5788 273 1
10 -2 -7 5300 275 1
8 2 -7 6222 280 1
10 -2 -7 5717 272 1
8 2 -7 5921 278 1
-2 10 -7 5738 269 1
-2 10 -7 5928 269 1
10 -8 -7 6738 270 1
2 8 -6 343 116 1
-2 10 -6 142 113 1
2 8 -6 300 119 1
8 -10 -6 333 93 1
8 2 -6 130 121 1
-2 10 -6 148 112 1
-10 2 -6 81 103 1
10 -2 -6 164 118 1
10 -8 -6 256 118 1
10 -2 -6 196 121 1
8 2 -6 228 116 1
10 -2 -5 9610 370 1
8 2 -5 9756 371 1
8 2 -5 9614 370 1
2 8 -5 9553 363 1
8 -10 -5 9387 348 1
2 8 -5 10038 369 1
10 -8 -5 8596 361 1
10 -2 -5 9575 368 1
-2 10 -5 8577 357 1
10 -8 -5 8965 348 1
-10 2 -5 9540 359 1
-2 10 -5 9241 363 1
10 -2 -4 320 120 1
2 8 -4 159 110 1
2 8 -4 280 108 1
8 2 -4 240 111 1
-10 2 -4 103 103 1
10 -8 -4 226 111 1
-2 10 -4 259 102 1
-2 10 -4 283 111 1
10 -8 -4 174 98 1
8 2 -4 205 116 1
8 -10 -4 148 92 1
-2 10 -3 11851 460 1
2 8 -3 11188 457 1
8 2 -3 10602 464 1
10 -8 -3 10741 452 1
10 -8 -3 11096 463 1
2 8 -3 11339 464 1
8 2 -3 11588 467 1
8 -10 -3 11243 451 1
-10 2 -3 11157 462 1
-2 10 -3 11135 453 1
10 -2 -3 11169 464 1
10 -2 -2 1 111 1
-2 10 -2 54 87 1
2 8 -2 1 109 1
2 8 -2 37 95 1
10 -8 -2 11 117 1
10 -2 -2 9 110 1
-10 2 -2 41 101 1
8 -10 -2 33 87 1
8 2 -2 43 117 1
-2 10 -2 62 105 1
2 8 -1 17251 662 1
2 8 -1 17982 653 1
8 2 -1 16735 667 1
8 -10 -1 17392 658 1
10 -2 -1 18043 669 1
10 -8 -1 17322 669 1
-2 10 -1 17554 659 1
8 2 -1 15687 664 1
10 -2 -1 17472 672 1
-10 2 -1 17638 664 1
-2 10 -1 16627 648 1
-2 10 0 16325 489 1
10 -2 0 15904 504 1
2 8 0 15932 493 1
8 2 0 17778 504 1
10 -2 0 17192 502 1
-2 10 0 16761 477 1
2 8 0 17080 484 1
8 -10 0 16649 495 1
10 -8 0 17230 506 1
-10 2 0 14731 495 1
8 2 0 17441 500 1
2 8 1 17112 652 1
-2 10 1 16946 643 1
10 -8 1 17365 664 1
10 -2 1 17065 664 1
-2 10 1 17207 634 1
8 2 1 17791 660 1
2 8 1 15593 637 1
-8 -2 1 17575 655 1
8 2 1 17843 659 1
2 8 2 9 65 1
10 -2 2 51 118 1
-8 -2 2 60 103 1
-10 2 2 3 93 1
10 -8 2 50 106 1
2 8 2 1 97 1
8 2 2 23 116 1
8 2 2 26 112 1
-2 10 2 56 84 1
2 8 3 11179 463 1
8 2 3 10843 471 1
-8 -2 3 12222 475 1
-2 10 3 12236 454 1
10 -2 3 10901 480 1
10 -2 3 11351 479 1
8 2 3 11374 478 1
10 -8 3 11393 482 1
10 -2 4 192 126 1
8 2 4 227 112 1
8 2 4 217 115 1
10 -2 4 224 124 1
10 -8 4 33 115 1
2 8 4 232 90 1
-8 -2 4 279 110 1
10 -2 5 9104 368 1
8 2 5 8942 363 1
-8 -2 5 8502 354 1
10 -2 5 9602 368 1
2 8 5 9518 342 1
8 2 5 9565 358 1
8 2 6 369 120 1
10 -2 6 187 127 1
8 2 6 171 115 1
-8 -2 6 344 107 1
8 2 7 6045 266 1
8 2 7 5957 272 1
1 9 -15 261 208 1
9 1 -15 201 215 1
-1 10 -15 89 204 1
10 -1 -15 35 212 1
10 -1 -14 4578 298 1
1 9 -14 4821 291 1
9 1 -14 5047 299 1
-1 10 -14 5211 302 1
-1 10 -14 4319 290 1
-1 10 -13 103 179 1
-1 10 -13 1 194 1
1 9 -13 1 181 1
1 9 -13 51 181 1
10 -1 -13 35 191 1
9 1 -13 1 174 1
9 1 -13 115 201 1
1 9 -12 15646 605 1
10 -1 -12 13625 582 1
9 1 -12 14067 588 1
9 1 -12 13632 605 1
10 -1 -12 14658 607 1
-1 10 -12 14100 599 1
-1 10 -12 14956 603 1
1 9 -12 14404 602 1
1 9 -11 0 180 1
-1 10 -11 135 157 1
9 1 -11 0 157 1
10 -1 -11 22 156 1
1 9 -11 339 172 1
9 1 -11 177 184 1
10 -1 -11 122 176 1
-1 10 -11 0 166 1
-1 10 -10 16028 619 1
9 1 -10 15032 622 1
9 1 -10 15884 617 1
10 -1 -10 16405 611 1
1 9 -10 15335 615 1
-1 10 -10 15629 617 1
10 -1 -10 15921 625 1
1 9 -10 15749 618 1
1 9 -9 888 163 1
-1 10 -9 738 144 1
1 9 -9 849 154 1
10 -1 -9 632 145 1
9 1 -9 861 161 1
10 -9 -9 916 145 1
10 -1 -9 613 158 1
9 1 -9 595 163 1
-1 10 -8 8355 362 1
-1 10 -8 8598 358 1
9 1 -8 8760 369 1
10 -1 -8 8782 367 1
1 9 -8 8631 360 1
10 -9 -8 8583 351 1
10 -1 -8 8845 360 1
9 1 -7 738 146 1
1 9 -7 486 136 1
1 9 -7 504 138 1
10 -9 -7 653 126 1
-1 10 -7 437 130 1
-1 10 -7 427 125 1
10 -1 -7 585 139 1
10 -1 -7 501 135 1
1 9 -6 6236 274 1
10 -9 -6 5761 265 1
9 1 -6 5459 272 1
9 -10 -6 5769 255 1
10 -1 -6 5265 274 1
9 1 -6 5166 275 1
-1 10 -6 5910 265 1
10 -1 -6 5225 273 1
1 9 -6 5807 270 1
-1 10 -6 6177 271 1
-10 1 -5 1254 126 1
-1 10 -5 1150 123 1
10 -1 -5 1065 130 1
1 9 -5 1137 128 1
-1 10 -5 1446 137 1
9 -10 -5 963 117 1
9 1 -5 1472 149 1
1 9 -5 1262 133 1
10 -9 -5 1445 134 1
9 1 -5 1041 125 1
10 -9 -4 13519 534 1
9 1 -4 13878 539 1
10 -1 -4 14114 540 1
9 1 -4 14216 541 1
9 -10 -4 14240 529 1
-1 10 -4 13709 528 1
1 9 -4 13753 530 1
-1 10 -4 13976 536 1
1 9 -4 13795 536 1
-10 1 -4 13371 531 1
9 1 -3 479 112 1
10 -1 -3 264 117 1
1 9 -3 445 120 1
10 -9 -3 505 115 1
9 1 -3 653 118 1
-10 1 -3 652 110 1
10 -1 -3 581 114 1
-1 10 -3 422 95 1
-1 10 -3 430 115 1
1 9 -3 618 105 1
9 -10 -3 652 114 1
1 9 -2 26704 947 1
10 -1 -2 27811 959 1
9 1 -2 22878 955 1
1 9 -2 28617 956 1
-1 10 -2 26883 945 1
-1 10 -2 27068 952 1
9 -10 -2 26617 952 1
10 -9 -2 26594 956 1
-10 1 -2 27092 956 1
9 1 -2 26635 961 1
10 -1 -2 27170 962 1
10 -9 -1 1605 141 1
-1 10 -1 1495 128 1
-1 10 -1 1574 103 1
1 9 -1 1832 133 1
1 9 -1 1548 111 1
9 1 -1 1579 140 1
-10 1 -1 1603 126 1
10 -1 -1 1772 145 1
10 -1 -1 2080 140 1
9 -10 -1 1664 130 1
10 -1 0 65129 2305 1
-1 10 0 62470 2291 1
1 9 0 63719 2284 1
-9 -1 0 60614 2297 1
1 9 0 63678 2294 1
-1 10 0 64679 2282 1
9 1 0 67532 2304 1
10 -9 0 63188 2301 1
9 1 0 63343 2302 1
9 -10 0 62362 2298 1
-1 10 1 1547 86 1
-9 -1 1 1491 120 1
1 9 1 1566 93 1
10 -1 1 1795 144 1
1 9 1 1699 123 1
9 -10 1 1476 133 1
9 1 1 1465 138 1
9 1 1 1423 131 1
-1 10 1 1579 114 1
10 -9 1 1484 140 1
-10 1 1 1495 125 1
-1 10 2 27420 969 1
1 9 2 25871 972 1
-9 -1 2 28570 984 1
10 -1 2 27188 988 1
9 1 2 30781 992 1
10 -1 2 28161 988 1
10 -9 2 26534 987 1
9 1 2 24840 983 1
-10 1 2 29491 983 1
-1 10 3 472 83 1
-10 1 3 403 106 1
10 -1 3 606 123 1
10 -9 3 401 128 1
9 1 3 523 122 1
10 -1 3 641 124 1
9 1 3 538 124 1
1 9 3 433 93 1
-9 -1 3 494 114 1
1 9 4 12724 505 1
9 1 4 14157 528 1
9 1 4 12772 523 1
10 -1 4 13668 531 1
10 -1 4 14165 530 1
-9 -1 4 14585 524 1
9 1 5 1317 140 1
10 -1 5 1430 145 1
-9 -1 5 1145 129 1
9 1 5 993 143 1
10 -1 5 1461 148 1
9 1 6 5542 269 1
10 -1 6 5529 280 1
10 -1 6 6404 279 1
9 1 6 5610 277 1
9 1 7 522 129 1
9 1 7 413 135 1
10 -1 7 611 134 1
9 1 8 8274 349 1
10 -1 8 8822 358 1
0 10 -15 3336 272 1
10 0 -15 2950 273 1
0 10 -14 1920 222 1
10 0 -14 1786 228 1
0 10 -14 1766 216 1
0 10 -13 9260 419 1
10 0 -13 8239 419 1
0 10 -13 9513 421 1
10 0 -12 3255 230 1
0 10 -12 3409 254 1
0 10 -12 3003 246 1
10 0 -12 3073 249 1
0 10 -11 26347 1014 1
0 10 -11 28003 1015 1
10 0 -11 28127 1023 1
10 0 -11 27270 1008 1
0 10 -10 8164 377 1
10 0 -10 8003 369 1
10 0 -10 7711 386 1
0 10 -10 8311 377 1
10 0 -9 10333 442 1
10 0 -9 10124 449 1
0 10 -9 10438 440 1
0 10 -8 3056 191 1
0 10 -8 2681 195 1
10 0 -8 3059 203 1
10 0 -8 3158 199 1
10 -10 -7 9566 380 1
10 0 -7 9493 398 1
0 10 -7 9801 396 1
0 10 -7 9163 389 1
0 10 -6 4411 235 1
10 0 -6 4475 240 1
10 -10 -6 4133 220 1
0 10 -6 4403 231 1
0 10 -5 16075 595 1
10 0 -5 15558 596 1
10 -10 -5 15986 588 1
10 0 -5 15422 597 1
0 10 -5 15525 588 1
0 10 -4 2999 182 1
10 0 -4 2890 185 1
10 0 -4 2811 187 1
10 -10 -4 3264 177 1
0 10 -4 3062 173 1
0 10 -3 33697 1132 1
-10 0 -3 33661 1132 1
10 0 -3 33358 1137 1
10 -10 -3 32079 1128 1
10 0 -3 33514 1140 1
0 10 -3 33124 1123 1
10 0 -2 8583 368 1
-10 0 -2 8166 356 1
10 0 -2 7700 365 1
10 -10 -2 8865 363 1
0 10 -2 8279 347 1
0 10 -2 8324 358 1
10 -10 -1 59721 1961 1
0 10 -1 59097 1947 1
-10 0 -1 58580 1960 1
10 0 -1 64136 1969 1
0 10 -1 58230 1956 1
10 -10 0 36417 1447 1
0 10 0 36263 1429 1
10 0 0 38140 1452 1
0 10 0 36283 1440 1
-10 0 1 57334 1941 1
10 0 1 61263 1946 1
0 10 1 58247 1932 1
10 -10 1 60569 1944 1
10 0 1 58538 1946 1
10 0 2 9002 377 1
0 10 2 8154 352 1
-10 0 2 8747 369 1
10 0 2 8117 372 1
10 -10 2 8821 375 1
0 10 3 34091 1133 1
10 0 3 32066 1148 1
10 0 3 33951 1152 1
-10 0 3 34081 1146 1
10 0 4 3256 196 1
10 0 4 3224 189 1
-10 0 4 3010 180 1
10 0 5 16125 613 1
10 0 5 16024 605 1
10 0 6 4444 248 1
10 0 6 4337 237 1
10 0 7 8902 369 1
10 0 7 8523 375 1
10 0 8 3090 197 1
6 5 -15 7266 385 1
-5 11 -15 6411 365 1
5 6 -15 7244 375 1
6 5 -15 7496 366 1
5 6 -15 7529 388 1
11 -5 -15 6999 371 1
-6 11 -15 7477 372 1
-6 11 -15 6883 372 1
-5 11 -14 2263 225 1
6 5 -14 2031 220 1
6 5 -14 1818 225 1
5 6 -14 1649 232 1
5 6 -14 2229 233 1
11 -5 -14 1595 214 1
5 6 -13 13820 546 1
-5 11 -13 12657 538 1
-5 11 -13 12243 536 1
11 -5 -13 11617 534 1
11 -6 -13 12040 528 1
6 5 -13 12439 534 1
6 5 -13 11790 541 1
-5 11 -12 1488 194 1
11 -6 -12 1521 190 1
6 5 -12 1574 192 1
-6 11 -12 1529 186 1
-5 11 -12 1891 191 1
5 6 -12 1712 206 1
11 -5 -12 1657 190 1
5 6 -11 19098 724 1
5 6 -11 19374 724 1
6 5 -11 18735 717 1
11 -6 -11 17906 710 1
11 -5 -11 18223 718 1
-5 11 -11 18854 717 1
-6 11 -11 17668 714 1
5 6 -10 4613 262 1
6 5 -10 4231 256 1
5 6 -10 4884 267 1
6 5 -10 4816 262 1
-5 11 -10 4451 256 1
11 -5 -10 4277 259 1
11 -6 -10 4965 258 1
-6 11 -10 4725 254 1
5 6 -9 23091 823 1
6 5 -9 22709 821 1
11 -5 -9 21365 817 1
6 5 -9 21342 823 1
11 -6 -9 21682 816 1
5 6 -9 21202 821 1
-5 11 -9 21016 814 1
5 6 -8 3212 201 1
11 -6 -8 2558 199 1
5 6 -8 2774 194 1
6 5 -8 2724 194 1
11 -5 -8 2838 180 1
6 5 -8 2931 205 1
11 -5 -8 3133 206 1
-5 11 -8 2893 190 1
-11 5 -8 2943 160 1
6 5 -7 10158 444 1
6 5 -7 11151 451 1
11 -6 -7 10973 435 1
11 -5 -7 11604 456 1
11 -6 -7 11184 452 1
5 6 -7 11185 449 1
11 -5 -7 11279 441 1
-11 5 -7 11429 432 1
5 6 -7 12033 453 1
6 5 -6 14404 515 1
6 5 -6 13911 515 1
11 -6 -6 13729 501 1
11 -5 -6 13167 504 1
5 6 -6 13423 512 1
11 -5 -6 13331 513 1
11 -6 -6 13391 515 1
-11 5 -6 13366 495 1
5 6 -5 61574 2312 1
-11 5 -5 62217 2302 1
6 5 -5 63439 2314 1
11 -6 -5 64165 2317 1
11 -6 -5 64724 2306 1
11 -5 -5 63170 2317 1
11 -5 -5 63585 2307 1
11 -5 -4 9964 383 1
5 6 -4 9647 371 1
5 6 -4 9920 377 1
11 -6 -4 9481 378 1
11 -5 -4 9075 368 1
11 -6 -4 9191 366 1
-11 5 -4 9967 363 1
6 5 -4 9076 370 1
6 5 -3 41122 1541 1
11 -6 -3 41772 1547 1
5 6 -3 42333 1544 1
6 5 -3 42568 1547 1
5 6 -3 40346 1539 1
11 -5 -3 39786 1546 1
11 -5 -3 40244 1540 1
11 -6 -3 39268 1538 1
11 -5 -2 8895 313 1
11 -6 -2 9470 320 1
6 5 -2 9767 317 1
5 6 -2 9248 307 1
6 5 -2 9318 311 1
11 -5 -2 9701 312 1
11 -6 -2 9495 311 1
5 6 -2 10672 319 1
5 6 -1 51037 1918 1
6 5 -1 51185 1913 1
11 -6 -1 55642 1925 1
5 6 -1 58830 1915 1
11 -5 -1 52536 1919 1
11 -6 -1 54858 1919 1
6 5 -1 55127 1921 1
11 -5 -1 54496 1925 1
5 6 0 10178 393 1
6 5 0 10325 395 1
11 -6 0 9212 395 1
5 6 0 9564 381 1
11 -5 0 9918 397 1
11 -6 0 10297 395 1
6 5 0 9367 383 1
5 6 1 55541 1888 1
6 5 1 54645 1888 1
11 -6 1 53602 1894 1
11 -5 1 54080 1892 1
5 6 1 52176 1877 1
11 -6 1 52377 1890 1
6 5 1 49366 1878 1
-5 11 1 55235 1873 1
-5 11 2 9624 284 1
5 6 2 8652 303 1
6 5 2 9413 307 1
11 -5 2 9036 313 1
11 -5 2 9227 310 1
5 6 2 9949 294 1
6 5 2 9513 296 1
11 -5 3 39653 1523 1
6 5 3 40691 1510 1
5 6 3 39789 1505 1
5 6 3 37587 1515 1
11 -5 3 39282 1527 1
6 5 3 45323 1521 1
11 -6 4 9446 387 1
5 6 4 10142 375 1
6 5 4 10050 364 1
6 5 4 9312 376 1
11 -5 4 9627 386 1
-6 -5 4 9826 371 1
11 -5 5 63236 2449 1
11 -6 5 65884 2451 1
5 6 5 77574 2441 1
6 5 5 62959 2437 1
-6 -5 5 65238 2435 1
-5 -6 5 66075 2434 1
6 5 6 13825 517 1
5 6 6 14246 514 1
11 -5 6 13043 533 1
-5 -6 6 14103 511 1
11 -6 6 13761 536 1
-6 -5 6 14875 516 1
-5 -6 7 10965 417 1
5 6 7 11741 426 1
6 5 7 11687 431 1
-6 -5 7 9087 418 1
11 -5 7 12203 452 1
6 5 8 2304 162 1
7 4 -15 112 199 1
-7 11 -15 184 198 1
4 7 -15 120 208 1
-4 11 -15 135 206 1
4 7 -15 268 223 1
7 4 -15 164 212 1
11 -4 -15 1 204 1
-4 11 -14 6848 342 1
7 4 -14 6304 359 1
7 4 -14 5958 336 1
11 -4 -14 7206 345 1
4 7 -14 6224 333 1
-4 11 -14 6399 334 1
7 4 -13 270 199 1
-4 11 -13 51 188 1
-4 11 -13 363 183 1
11 -4 -13 345 182 1
4 7 -13 316 183 1
7 4 -13 306 172 1
4 7 -12 7183 349 1
4 7 -12 6867 350 1
7 4 -12 6583 342 1
7 4 -12 6332 356 1
11 -4 -12 6778 347 1
11 -7 -12 6616 333 1
-7 11 -12 6995 341 1
-4 11 -12 7046 343 1
-4 11 -12 6722 346 1
-4 11 -11 220 160 1
11 -7 -11 190 163 1
7 4 -11 250 164 1
11 -4 -11 100 166 1
-4 11 -11 189 163 1
4 7 -11 230 163 1
4 7 -11 74 178 1
4 7 -10 9231 394 1
7 4 -10 9103 387 1
11 -7 -10 9318 387 1
-4 11 -10 9175 386 1
11 -4 -10 8825 393 1
4 7 -10 9242 394 1
-4 11 -9 304 138 1
11 -4 -9 24 152 1
-4 11 -9 23 144 1
4 7 -9 96 151 1
4 7 -9 168 145 1
11 -7 -9 115 148 1
11 -4 -9 0 136 1
7 4 -9 55 147 1
7 4 -9 0 150 1
-4 11 -8 3912 219 1
7 4 -8 3555 213 1
4 7 -8 4317 224 1
4 7 -8 4170 217 1
-11 4 -8 4380 197 1
7 4 -8 3918 225 1
11 -4 -8 3687 201 1
-4 11 -8 4279 213 1
11 -4 -8 3568 221 1
11 -7 -8 4554 225 1
-4 11 -7 9909 367 1
-4 11 -7 8604 363 1
7 4 -7 9828 377 1
7 4 -7 9239 375 1
11 -4 -7 8729 363 1
-11 4 -7 8778 350 1
11 -4 -7 9202 377 1
11 -7 -7 8365 365 1
4 7 -7 9056 371 1
-4 11 -6 22196 868 1
4 7 -6 22853 870 1
-11 4 -6 23723 861 1
7 4 -6 23466 873 1
7 4 -6 22946 874 1
11 -4 -6 22664 866 1
11 -7 -6 22704 856 1
11 -4 -6 22701 875 1
-4 11 -6 21789 863 1
11 -7 -6 22473 871 1
7 4 -5 29 125 1
-4 11 -5 72 114 1
4 7 -5 13 118 1
4 7 -5 160 113 1
-4 11 -5 220 108 1
11 -7 -5 16 93 1
11 -7 -5 153 125 1
11 -4 -5 4 117 1
7 4 -5 53 120 1
11 -4 -5 125 122 1
-11 4 -5 124 114 1
-4 11 -4 33166 1126 1
11 -7 -4 33532 1133 1
4 7 -4 32979 1129 1
4 7 -4 31793 1126 1
7 4 -4 31639 1129 1
11 -4 -4 32187 1127 1
11 -7 -4 32716 1121 1
11 -4 -4 32219 1133 1
-4 11 -4 31513 1119 1
-11 4 -4 35269 1125 1
7 4 -3 688 125 1
11 -4 -3 674 141 1
4 7 -3 696 118 1
11 -4 -3 692 129 1
7 -11 -3 678 100 1
-11 4 -3 781 119 1
-4 11 -3 624 118 1
11 -7 -3 744 122 1
7 4 -3 658 130 1
4 7 -3 724 132 1
11 -7 -3 707 131 1
-4 11 -2 23277 806 1
11 -4 -2 21270 816 1
4 7 -2 24454 814 1
7 4 -2 23239 816 1
11 -7 -2 23874 819 1
11 -4 -2 22603 814 1
4 7 -2 23785 807 1
11 -7 -2 23131 811 1
-11 4 -2 22800 808 1
7 4 -2 24226 813 1
-4 11 -1 143 96 1
11 -7 -1 124 117 1
4 7 -1 32 107 1
7 4 -1 175 113 1
7 4 -1 142 105 1
4 7 -1 125 101 1
11 -7 -1 179 110 1
-11 4 -1 106 107 1
11 -4 -1 50 118 1
4 7 0 10778 345 1
7 4 0 11036 348 1
-4 11 0 10064 328 1
4 7 0 11231 331 1
11 -7 0 9833 350 1
11 -7 0 11102 347 1
7 4 0 10943 341 1
11 -4 0 10602 347 1
11 -7 1 162 115 1
4 7 1 154 89 1
11 -4 1 239 121 1
7 4 1 257 110 1
4 7 1 137 110 1
11 -4 1 121 114 1
7 4 1 202 116 1
-4 11 1 8 79 1
7 4 2 22136 787 1
-4 11 2 24038 778 1
7 4 2 24096 799 1
4 7 2 20558 789 1
11 -4 2 23293 802 1
11 -4 2 22791 799 1
4 7 2 22479 778 1
11 -7 2 22399 803 1
7 4 3 750 112 1
7 4 3 783 132 1
4 7 3 583 117 1
-7 -4 3 607 117 1
11 -4 3 526 136 1
4 7 4 35082 1145 1
7 4 4 35196 1153 1
7 4 4 31423 1141 1
11 -4 4 32357 1155 1
-7 -4 4 33966 1147 1
11 -4 4 32641 1158 1
7 4 5 5 96 1
-7 -4 5 69 108 1
4 7 5 33 103 1
7 4 5 110 121 1
11 -7 5 79 128 1
11 -4 5 4 125 1
11 -7 6 22874 900 1
4 7 6 23750 877 1
7 4 6 22771 886 1
11 -4 6 21675 896 1
-4 -7 6 22077 873 1
-7 -4 6 27185 887 1
7 4 7 8452 343 1
-7 -4 7 8470 333 1
11 -4 7 8430 361 1
7 4 8 4060 207 1
-3 11 -15 1083 224 1
3 8 -15 1210 226 1
8 3 -15 1138 216 1
8 3 -15 957 231 1
-8 11 -15 1407 221 1
11 -3 -15 1403 235 1
-3 11 -14 127 188 1
-3 11 -14 104 193 1
3 8 -14 11 194 1
8 3 -14 11 177 1
-8 11 -14 224 192 1
8 3 -14 0 208 1
11 -3 -14 13 197 1
-3 11 -13 1800 221 1
-3 11 -13 1944 215 1
3 8 -13 1752 222 1
3 8 -13 2034 224 1
8 3 -13 1741 205 1
8 3 -13 1801 224 1
11 -3 -13 1466 216 1
-3 11 -12 7 177 1
3 8 -12 157 182 1
3 8 -12 8 174 1
-3 11 -12 195 182 1
8 3 -12 201 169 1
8 3 -12 78 198 1
11 -3 -12 54 179 1
-3 11 -11 274 162 1
-3 11 -11 232 159 1
3 8 -11 212 177 1
11 -3 -11 394 166 1
8 3 -11 234 158 1
3 8 -11 358 176 1
8 3 -11 402 190 1
11 -8 -11 218 150 1
-3 11 -10 167 156 1
3 8 -10 187 165 1
11 -8 -10 408 152 1
8 3 -10 27 159 1
11 -3 -10 8 128 1
11 -3 -10 8 156 1
3 8 -10 8 160 1
-3 11 -9 215 142 1
-3 11 -9 177 145 1
11 -8 -9 249 132 1
8 3 -9 175 154 1
3 8 -9 155 145 1
11 -3 -9 197 138 1
-11 3 -9 2 114 1
3 8 -9 149 162 1
11 -3 -9 319 164 1
3 8 -8 6127 303 1
-3 11 -8 6499 299 1
8 3 -8 6847 307 1
-3 11 -8 6881 307 1
11 -3 -8 6721 298 1
11 -3 -8 6474 310 1
11 -8 -8 6291 300 1
-11 3 -8 6637 287 1
3 8 -8 6764 306 1
8 3 -8 6466 315 1
-3 11 -7 7907 314 1
11 -3 -7 7405 315 1
3 8 -7 7373 316 1
8 3 -7 7516 323 1
-3 11 -7 6969 315 1
11 -3 -7 7926 327 1
8 3 -7 7544 323 1
-11 3 -7 7543 305 1
11 -8 -7 7466 320 1
-3 11 -6 3 123 1
3 8 -6 3 128 1
11 -3 -6 3 141 1
11 -3 -6 59 130 1
11 -8 -6 2 130 1
11 -8 -6 2 107 1
8 3 -6 71 130 1
3 8 -6 180 123 1
-11 3 -6 116 121 1
-3 11 -6 3 117 1
8 3 -6 2 135 1
-3 11 -5 5247 248 1
11 -8 -5 5405 256 1
3 8 -5 4978 252 1
3 8 -5 4663 246 1
8 3 -5 5673 260 1
11 -3 -5 4996 254 1
8 3 -5 5776 259 1
11 -8 -5 5141 233 1
11 -3 -5 5370 260 1
-3 11 -5 5282 243 1
-11 3 -5 5371 247 1
-3 11 -4 5 101 1
-3 11 -4 127 120 1
3 8 -4 257 123 1
11 -3 -4 70 120 1
8 3 -4 292 127 1
3 8 -4 87 110 1
8 -11 -4 38 91 1
11 -3 -4 161 123 1
11 -8 -4 214 106 1
11 -8 -4 193 128 1
8 3 -4 258 120 1
-11 3 -4 315 114 1
3 8 -3 12811 449 1
11 -3 -3 11187 449 1
3 8 -3 13035 444 1
8 3 -3 10895 448 1
-3 11 -3 11586 443 1
11 -8 -3 11997 453 1
-3 11 -3 11791 434 1
11 -8 -3 11198 440 1
8 -11 -3 11799 433 1
-11 3 -3 11910 446 1
-3 11 -2 653 93 1
8 3 -2 672 118 1
-3 11 -2 643 114 1
8 3 -2 502 121 1
3 8 -2 812 115 1
8 -11 -2 780 100 1
3 8 -2 725 108 1
11 -3 -2 801 125 1
-11 3 -2 835 118 1
11 -8 -2 699 117 1
11 -8 -2 723 131 1
-3 11 -1 8 101 1
8 -11 -1 55 93 1
8 3 -1 150 119 1
3 8 -1 61 108 1
8 3 -1 7 113 1
-3 11 -1 8 81 1
11 -8 -1 179 117 1
3 8 -1 7 94 1
11 -3 -1 43 110 1
11 -3 -1 8 118 1
-11 3 -1 8 101 1
-3 11 0 2437 150 1
3 8 0 2413 137 1
8 3 0 2500 167 1
11 -3 0 2632 168 1
8 3 0 1934 162 1
11 -8 0 2501 173 1
-11 3 0 2383 153 1
3 8 0 2648 165 1
-3 11 0 2264 125 1
11 -3 0 2265 167 1
11 -3 1 8 119 1
-3 11 1 139 89 1
8 3 1 6 110 1
3 8 1 45 104 1
8 3 1 33 111 1
11 -3 1 8 107 1
11 -8 1 116 119 1
3 8 1 148 78 1
-3 11 2 723 86 1
-8 -3 2 719 112 1
11 -3 2 921 136 1
3 8 2 574 107 1
8 3 2 538 126 1
11 -8 2 595 125 1
8 3 2 839 118 1
8 3 3 12611 438 1
11 -8 3 10979 449 1
8 3 3 11770 443 1
11 -3 3 10269 442 1
11 -3 3 11974 450 1
3 8 3 12780 434 1
-8 -3 3 11091 435 1
11 -8 4 27 123 1
-8 -3 4 141 113 1
8 3 4 0 103 1
3 8 4 79 105 1
8 3 4 214 129 1
11 -3 4 41 114 1
11 -3 4 255 136 1
11 -3 5 5679 267 1
3 8 5 4765 235 1
8 3 5 5068 257 1
11 -3 5 5667 263 1
8 3 5 5676 247 1
-8 -3 5 5955 251 1
-8 -3 6 94 114 1
8 3 6 2 115 1
8 3 6 34 128 1
11 -3 6 81 144 1
11 -3 7 7332 326 1
-8 -3 7 7674 302 1
8 3 7 7148 310 1
11 -3 8 6958 315 1
8 3 8 6315 298 1
2 9 -15 647 218 1
-2 11 -15 734 214 1
-2 11 -15 784 221 1
9 2 -15 468 229 1
-9 11 -15 390 202 1
11 -2 -15 452 224 1
-2 11 -14 2129 240 1
-2 11 -14 2179 219 1
2 9 -14 2047 222 1
2 9 -14 1523 229 1
9 2 -14 2166 242 1
11 -2 -14 1367 226 1
9 2 -14 1975 222 1
2 9 -13 1117 206 1
-2 11 -13 1104 193 1
-2 11 -13 1164 207 1
2 9 -13 1301 223 1
9 2 -13 1259 198 1
9 2 -13 1265 219 1
11 -2 -13 851 211 1
2 9 -12 2529 216 1
2 9 -12 2893 226 1
9 2 -12 2433 212 1
-2 11 -12 3006 218 1
9 2 -12 2823 239 1
11 -2 -12 2657 228 1
-2 11 -12 2524 219 1
-2 11 -11 3659 235 1
-2 11 -11 3263 225 1
2 9 -11 3272 235 1
2 9 -11 3231 228 1
9 2 -11 3470 233 1
11 -2 -11 3309 215 1
9 2 -11 3098 240 1
11 -2 -11 3716 241 1
2 9 -10 997 170 1
2 9 -10 724 173 1
9 2 -10 931 183 1
11 -2 -10 782 155 1
-2 11 -10 600 161 1
9 2 -10 813 186 1
11 -2 -10 820 179 1
11 -2 -9 6474 327 1
9 2 -9 7035 324 1
-11 2 -9 6289 296 1
-2 11 -9 6789 316 1
-2 11 -9 6459 315 1
11 -9 -9 6713 305 1
11 -2 -9 6186 307 1
2 9 -9 6248 322 1
2 9 -9 6986 323 1
-2 11 -8 9738 394 1
-11 2 -8 9364 379 1
9 2 -8 9387 396 1
2 9 -8 9722 391 1
11 -2 -8 9401 386 1
11 -2 -8 9482 399 1
-2 11 -8 9115 389 1
11 -9 -8 10505 394 1
11 -2 -7 2611 192 1
2 9 -7 2638 186 1
-2 11 -7 2492 183 1
2 9 -7 2790 186 1
11 -2 -7 2612 187 1
11 -9 -7 2882 185 1
-2 11 -7 2702 180 1
9 2 -7 2969 198 1
9 2 -7 2826 196 1
-11 2 -7 2687 177 1
-2 11 -6 4049 234 1
2 9 -6 4196 236 1
11 -9 -6 4100 230 1
11 -2 -6 4104 241 1
9 2 -6 4081 241 1
9 2 -6 4143 234 1
11 -2 -6 3833 238 1
-11 2 -6 3947 222 1
-2 11 -6 3786 225 1
2 9 -6 3690 225 1
11 -2 -5 259 137 1
2 9 -5 301 122 1
9 2 -5 618 136 1
11 -2 -5 470 136 1
2 9 -5 331 116 1
11 -9 -5 659 133 1
-11 2 -5 450 121 1
9 2 -5 398 134 1
9 -11 -5 467 106 1
11 -9 -5 482 103 1
-2 11 -5 123 117 1
-2 11 -5 334 119 1
2 9 -4 13316 489 1
9 2 -4 12127 494 1
11 -9 -4 12870 495 1
-2 11 -4 12764 493 1
11 -2 -4 13485 501 1
2 9 -4 13554 497 1
9 2 -4 12910 499 1
9 -11 -4 12869 482 1
-11 2 -4 13137 493 1
-2 11 -4 13076 484 1
9 -11 -3 4018 217 1
-2 11 -3 3951 227 1
2 9 -3 4217 230 1
2 9 -3 4133 218 1
11 -2 -3 4110 229 1
11 -9 -3 4139 229 1
9 2 -3 3786 230 1
9 2 -3 3864 230 1
-11 2 -3 4039 225 1
-2 11 -3 3970 212 1
-2 11 -2 9045 386 1
2 9 -2 9636 391 1
-2 11 -2 9213 375 1
2 9 -2 9315 380 1
9 -11 -2 8691 382 1
11 -2 -2 9465 396 1
11 -9 -2 9227 395 1
11 -2 -2 9223 400 1
9 2 -2 9403 396 1
-11 2 -2 9253 389 1
11 -2 -1 16759 686 1
-2 11 -1 15871 670 1
11 -2 -1 16419 684 1
2 9 -1 16502 666 1
9 2 -1 16394 682 1
-11 2 -1 16798 679 1
9 -11 -1 16921 674 1
11 -9 -1 16856 682 1
9 2 -1 15166 679 1
2 9 -1 18992 680 1
-2 11 -1 15633 660 1
2 9 0 10724 399 1
2 9 0 11941 415 1
9 2 0 12932 427 1
-2 11 0 11072 394 1
11 -9 0 11600 423 1
11 -2 0 11412 424 1
-2 11 0 10974 405 1
11 -2 0 11252 426 1
9 -11 0 12111 416 1
-11 2 0 11852 419 1
9 2 0 11068 420 1
-9 -2 0 11051 415 1
9 2 1 15663 673 1
-2 11 1 15614 656 1
11 -2 1 16094 677 1
11 -9 1 16276 675 1
2 9 1 17108 664 1
9 2 1 17154 672 1
-9 -2 1 15974 666 1
2 9 2 8856 373 1
9 2 2 9027 381 1
-11 2 2 8756 377 1
11 -9 2 9267 390 1
11 -2 2 8462 388 1
9 2 2 9893 390 1
-2 11 2 8622 363 1
-9 -2 2 9126 383 1
2 9 3 4097 210 1
9 2 3 4044 223 1
9 2 3 3965 228 1
11 -9 3 3997 232 1
11 -2 3 3639 233 1
11 -2 3 4022 233 1
-9 -2 3 4091 221 1
2 9 4 12904 476 1
9 2 4 12914 491 1
11 -2 4 12620 499 1
9 2 4 12909 495 1
11 -2 4 12640 498 1
11 -9 4 12975 502 1
-9 -2 4 13597 493 1
9 2 5 305 117 1
11 -2 5 508 144 1
-9 -2 5 347 117 1
9 2 5 521 133 1
11 -2 5 830 134 1
11 -2 6 3793 235 1
9 2 6 3736 232 1
9 2 6 4003 221 1
11 -2 6 4062 240 1
-9 -2 6 3686 215 1
11 -2 7 3194 200 1
9 2 7 2497 188 1
9 2 7 2816 172 1
9 2 8 10212 412 1
11 -2 8 10168 420 1
-1 11 -14 656 215 1
1 10 -14 703 219 1
-1 11 -14 844 216 1
1 10 -14 961 222 1
10 1 -14 1412 225 1
11 -1 -14 571 233 1
-1 11 -13 5865 321 1
1 10 -13 6074 321 1
10 1 -13 4782 316 1
11 -1 -13 5663 323 1
1 10 -13 5133 319 1
-1 11 -13 5903 319 1
10 1 -13 5133 305 1
-1 11 -12 3351 243 1
1 10 -12 2947 243 1
-1 11 -12 3036 237 1
11 -1 -12 3459 234 1
1 10 -12 3049 251 1
10 1 -12 3844 236 1
10 1 -12 2980 252 1
11 -1 -12 2706 261 1
1 10 -11 13949 555 1
-1 11 -11 13250 553 1
1 10 -11 13705 556 1
10 1 -11 13938 547 1
-1 11 -11 13899 553 1
10 1 -11 13260 557 1
11 -1 -11 13630 561 1
11 -1 -11 14192 544 1
1 10 -10 6668 321 1
1 10 -10 6496 329 1
10 1 -10 6599 325 1
11 -1 -10 6434 319 1
10 1 -10 5664 332 1
11 -1 -10 6507 333 1
-1 11 -10 6816 325 1
10 1 -9 13060 529 1
11 -1 -9 12217 522 1
10 1 -9 12211 534 1
1 10 -9 12919 529 1
11 -1 -9 12506 532 1
-1 11 -9 13686 530 1
-1 11 -9 12267 528 1
-1 11 -8 1365 160 1
-1 11 -8 1554 161 1
1 10 -8 1662 172 1
10 1 -8 1526 171 1
11 -1 -8 1620 175 1
11 -1 -8 1529 166 1
11 -10 -8 1245 145 1
1 10 -8 1346 169 1
1 10 -7 9599 401 1
-1 11 -7 10695 411 1
1 10 -7 10069 409 1
11 -10 -7 10070 396 1
10 1 -7 10287 412 1
10 1 -7 8890 405 1
11 -1 -7 10175 408 1
11 -1 -7 9941 413 1
-1 11 -7 10607 404 1
-1 11 -6 3725 212 1
1 10 -6 3392 212 1
1 10 -6 3016 202 1
10 1 -6 3390 222 1
11 -1 -6 3215 213 1
-1 11 -6 3551 205 1
10 1 -6 3258 216 1
11 -10 -6 3278 203 1
10 -11 -6 3432 190 1
-11 1 -6 2956 200 1
1 10 -5 12020 461 1
-1 11 -5 12646 468 1
1 10 -5 11837 468 1
10 1 -5 11516 468 1
11 -10 -5 12459 466 1
11 -1 -5 12293 471 1
-1 11 -5 11794 461 1
10 -11 -5 12091 455 1
10 1 -5 10860 469 1
-11 1 -5 11621 462 1
-1 11 -4 6062 272 1
10 1 -4 5736 275 1
11 -1 -4 6434 281 1
-1 11 -4 6487 264 1
11 -10 -4 6094 272 1
10 1 -4 5854 275 1
10 -11 -4 5981 260 1
11 -1 -4 5722 280 1
1 10 -4 6067 261 1
-11 1 -4 6048 270 1
1 10 -4 6020 274 1
-1 11 -3 17783 658 1
1 10 -3 17389 647 1
1 10 -3 17288 657 1
-11 1 -3 16485 655 1
11 -1 -3 17123 663 1
-1 11 -3 17773 645 1
11 -10 -3 16904 656 1
10 1 -3 18999 665 1
11 -1 -3 16747 663 1
10 -11 -3 17334 653 1
10 1 -3 15494 659 1
10 -11 -2 12044 485 1
-1 11 -2 11788 485 1
1 10 -2 11880 488 1
-1 11 -2 11515 473 1
10 1 -2 9717 487 1
11 -1 -2 12235 499 1
11 -1 -2 11012 491 1
11 -10 -2 11045 488 1
10 1 -2 12779 498 1
1 10 -2 11468 474 1
-11 1 -2 11736 488 1
1 10 -1 42121 1477 1
1 10 -1 41073 1466 1
10 -11 -1 41398 1477 1
11 -1 -1 42216 1486 1
-1 11 -1 40307 1473 1
-1 11 -1 41039 1463 1
10 1 -1 45796 1490 1
11 -10 -1 41407 1482 1
11 -1 -1 40161 1485 1
-11 1 -1 44460 1482 1
11 -10 0 12338 497 1
11 -1 0 12340 501 1
10 1 0 12395 499 1
-10 -1 0 12153 492 1
10 -11 0 12433 493 1
1 10 0 12316 472 1
10 1 0 12690 500 1
-1 11 0 12693 485 1
1 10 0 14108 490 1
11 -10 1 42121 1498 1
10 1 1 39552 1497 1
-1 11 1 39814 1483 1
-11 1 1 38664 1493 1
10 1 1 42874 1499 1
1 10 1 45871 1489 1
10 -11 1 41724 1495 1
11 -1 1 45464 1504 1
-10 -1 1 45028 1497 1
1 10 2 11384 477 1
10 1 2 11645 496 1
11 -10 2 10914 493 1
-1 11 2 11841 472 1
11 -1 2 11397 493 1
11 -1 2 11577 498 1
10 1 2 11503 492 1
-10 -1 2 11688 489 1
-11 1 2 11737 485 1
1 10 3 17280 641 1
10 1 3 17006 657 1
10 1 3 16759 659 1
11 -1 3 16686 660 1
11 -1 3 17036 661 1
-11 1 3 17799 657 1
11 -10 3 17565 663 1
-10 -1 3 17266 656 1
11 -1 4 6344 286 1
10 1 4 6088 280 1
10 1 4 6093 275 1
11 -1 4 6056 280 1
-10 -1 4 5969 271 1
10 1 5 12830 479 1
11 -1 5 11941 479 1
10 1 5 11437 469 1
11 -1 5 12333 476 1
-10 -1 5 11728 466 1
10 1 6 3316 211 1
11 -1 6 3323 215 1
10 1 6 3082 215 1
11 -1 6 3538 216 1
11 -1 7 10137 400 1
10 1 7 9414 393 1
10 1 7 9829 398 1
10 1 8 1307 158 1
11 -1 8 1191 168 1
0 11 -14 5275 322 1
0 11 -14 6004 326 1
11 0 -14 5314 333 1
0 11 -13 1 205 1
0 11 -13 264 192 1
11 0 -13 1 207 1
0 11 -12 12342 513 1
11 0 -12 11253 497 1
11 0 -12 11525 524 1
0 11 -12 11327 512 1
0 11 -11 127 193 1
11 0 -11 2 173 1
0 11 -11 137 179 1
11 0 -11 2 199 1
11 0 -10 24355 946 1
0 11 -10 24467 948 1
11 0 -10 24658 959 1
0 11 -9 132 154 1
11 0 -9 157 173 1
11 0 -9 1 154 1
0 11 -9 110 159 1
11 0 -8 9899 409 1
0 11 -8 9678 405 1
11 0 -8 8465 411 1
0 11 -8 10035 410 1
0 11 -7 80 148 1
0 11 -7 102 132 1
11 0 -7 0 152 1
0 11 -6 20541 776 1
11 0 -6 20064 779 1
11 -11 -6 20347 766 1
11 0 -6 18516 779 1
0 11 -6 20919 770 1
11 0 -5 2558 186 1
11 -11 -5 3029 171 1
11 0 -5 2281 186 1
0 11 -5 2761 175 1
0 11 -5 2698 191 1
0 11 -4 20916 719 1
0 11 -4 18620 706 1
11 -11 -4 19747 713 1
11 0 -4 19031 722 1
11 0 -4 19112 721 1
-11 0 -4 18606 713 1
11 -11 -3 795 137 1
0 11 -3 459 132 1
0 11 -3 847 116 1
11 0 -3 918 145 1
11 0 -3 528 136 1
-11 0 -3 689 125 1
0 11 -2 36929 1333 1
11 0 -2 34613 1340 1
11 0 -2 34976 1340 1
-11 0 -2 34665 1334 1
11 -11 -2 35869 1334 1
0 11 -2 35552 1321 1
0 11 -1 25 91 1
0 11 -1 25 122 1
11 0 -1 103 132 1
-11 0 -1 25 120 1
11 -11 -1 34 127 1
11 -11 0 48876 1837 1
11 0 0 48863 1842 1
0 11 0 48875 1830 1
0 11 1 25 108 1
11 0 1 25 130 1
11 -11 1 26 132 1
11 0 1 14 132 1
-11 0 1 1 108 1
11 0 2 34803 1374 1
-11 0 2 36617 1372 1
11 0 2 35824 1377 1
0 11 2 38110 1359 1
11 -11 2 36168 1375 1
11 0 3 652 143 1
11 0 3 796 142 1
-11 0 3 662 130 1
11 0 4 20563 726 1
11 0 4 18940 720 1
-11 0 4 18604 715 1
11 0 5 2530 192 1
11 0 5 2871 195 1
11 0 6 19789 775 1
11 0 6 20593 784 1
11 0 7 0 146 1
11 0 7 440 156 1
11 0 8 9850 414 1
-6 12 -14 5390 307 1
6 6 -14 4803 298 1
12 -6 -14 4912 302 1
-6 12 -14 5173 305 1
6 6 -12 14360 551 1
6 6 -12 12697 549 1
-6 12 -12 13158 547 1
12 -6 -12 12183 540 1
6 6 -10 15996 673 1
6 6 -10 17624 682 1
12 -6 -10 16624 675 1
-6 12 -10 17323 673 1
6 6 -8 22946 866 1
6 6 -8 23758 870 1
12 -6 -8 21232 866 1
12 -6 -6 2978 181 1
12 -6 -6 2848 194 1
6 6 -6 2941 193 1
12 -6 -4 23539 944 1
6 6 -4 24211 942 1
6 6 -4 23495 937 1
12 -6 -4 23588 934 1
12 -6 -2 26440 1071 1
6 6 -2 27287 1061 1
12 -6 -2 26435 1064 1
6 6 -2 28432 1069 1
6 6 0 69290 2817 1
12 -6 0 66828 2821 1
6 6 0 68686 2808 1
12 -6 0 67816 2819 1
-6 12 2 27004 1022 1
6 6 2 26377 1041 1
12 -6 2 27725 1049 1
6 6 2 25427 1031 1
12 -6 4 23090 900 1
6 6 4 21890 886 1
12 -6 6 2860 196 1
6 6 6 2677 169 1
-6 -6 6 2989 170 1
12 -5 -14 1593 226 1
-5 12 -14 2059 241 1
-5 12 -14 1835 227 1
5 7 -14 1415 232 1
7 5 -14 1769 231 1
7 5 -14 1435 235 1
12 -5 -13 1391 211 1
-5 12 -13 1730 221 1
-5 12 -13 1522 205 1
12 -7 -13 1403 198 1
-7 12 -13 1209 197 1
5 7 -13 1866 224 1
7 5 -13 1574 202 1
5 7 -13 1489 218 1
-5 12 -12 5693 302 1
5 7 -12 5992 311 1
7 5 -12 5325 298 1
5 7 -12 4833 304 1
12 -5 -12 5681 301 1
12 -7 -12 5096 288 1
-7 12 -12 5069 292 1
-5 12 -12 5787 305 1
-5 12 -11 1625 188 1
12 -7 -11 1465 189 1
5 7 -11 1876 214 1
-7 12 -11 1929 198 1
7 5 -11 1451 195 1
5 7 -11 1655 201 1
7 5 -11 1666 198 1
12 -5 -11 1905 207 1
5 7 -10 2587 220 1
7 5 -10 2384 209 1
12 -7 -10 2562 202 1
5 7 -10 2855 224 1
7 5 -10 2164 208 1
12 -5 -10 2304 211 1
-5 12 -10 2622 202 1
5 7 -9 3231 229 1
5 7 -9 3088 229 1
7 5 -9 3013 216 1
-5 12 -9 3183 220 1
7 5 -9 3002 230 1
12 -5 -9 2834 225 1
12 -7 -9 3055 219 1
-5 12 -9 3052 211 1
-5 12 -8 7064 340 1
7 5 -8 6190 336 1
5 7 -8 7864 345 1
-12 5 -8 6722 315 1
7 5 -8 6782 341 1
12 -5 -8 6531 322 1
12 -5 -8 6513 346 1
12 -7 -8 6987 341 1
-5 12 -8 7454 335 1
5 7 -8 7066 341 1
-5 12 -7 4 120 1
12 -5 -7 4 159 1
7 5 -7 72 146 1
12 -7 -7 69 152 1
5 7 -7 238 150 1
12 -5 -7 290 130 1
7 5 -7 69 142 1
12 -7 -7 6 120 1
-12 5 -7 69 106 1
12 -5 -6 33 145 1
7 5 -6 118 133 1
12 -7 -6 5 141 1
5 7 -6 225 142 1
12 -5 -6 81 124 1
7 5 -6 58 138 1
12 -7 -6 16 120 1
-12 5 -6 5 106 1
-5 12 -6 5 116 1
5 7 -5 582 128 1
12 -5 -5 643 139 1
5 7 -5 824 135 1
12 -7 -5 734 144 1
12 -5 -5 435 129 1
7 5 -5 740 135 1
12 -7 -5 619 123 1
-12 5 -5 652 119 1
12 -7 -4 9314 386 1
5 7 -4 9306 385 1
7 5 -4 9048 379 1
12 -7 -4 9308 374 1
12 -5 -4 9508 382 1
5 7 -4 9627 380 1
-12 5 -4 9645 374 1
12 -5 -4 10001 392 1
-5 12 -3 309 110 1
7 5 -3 371 122 1
12 -5 -3 201 129 1
5 7 -3 262 118 1
12 -7 -3 348 128 1
12 -5 -3 462 122 1
12 -7 -3 337 124 1
5 7 -3 95 131 1
-12 5 -3 404 118 1
7 5 -3 80 128 1
-5 12 -2 14229 539 1
12 -7 -2 13920 555 1
12 -5 -2 13755 552 1
5 7 -2 15595 553 1
5 7 -2 13756 539 1
7 5 -2 14216 550 1
7 5 -2 13228 543 1
12 -5 -2 13805 548 1
12 -7 -2 14676 548 1
-5 12 -1 3859 180 1
5 7 -1 4073 197 1
12 -7 -1 4090 202 1
5 7 -1 4244 182 1
12 -5 -1 3928 195 1
7 5 -1 3794 187 1
12 -7 -1 3827 195 1
12 -5 -1 3877 197 1
7 5 -1 4183 193 1
-5 12 0 7709 288 1
5 7 0 7756 306 1
7 5 0 8315 308 1
12 -7 0 6868 312 1
5 7 0 6963 287 1
12 -5 0 7569 308 1
12 -7 0 7335 305 1
7 5 0 7629 300 1
-5 12 1 4073 169 1
5 7 1 4246 201 1
7 5 1 3954 199 1
12 -5 1 4382 206 1
5 7 1 4107 179 1
12 -7 1 3940 208 1
7 5 1 4575 193 1
12 -7 1 4428 209 1
-5 12 2 14001 533 1
7 5 2 17413 566 1
5 7 2 13770 551 1
12 -5 2 14390 561 1
12 -5 2 13472 556 1
5 7 2 15441 540 1
12 -7 2 14358 561 1
7 5 2 12821 544 1
12 -5 3 404 133 1
5 7 3 407 112 1
7 5 3 253 123 1
12 -5 3 509 123 1
7 5 3 276 103 1
7 5 4 8867 358 1
5 7 4 8936 367 1
7 5 4 9104 374 1
-7 -5 4 10528 371 1
12 -5 4 9354 386 1
-7 -5 5 439 116 1
12 -5 5 586 146 1
5 7 5 618 124 1
7 5 5 865 130 1
12 -7 5 799 136 1
12 -7 6 166 147 1
12 -5 6 280 145 1
5 7 6 67 112 1
7 5 6 60 125 1
-5 -7 6 226 109 1
-7 -5 6 22 117 1
-7 -5 7 112 116 1
7 5 7 7 125 1
12 -5 7 86 155 1
7 5 8 6348 310 1
-4 12 -14 96 198 1
-4 12 -14 50 197 1
4 8 -14 201 203 1
4 8 -14 21 196 1
8 4 -14 21 206 1
8 4 -14 21 198 1
12 -4 -14 20 207 1
-4 12 -13 3449 250 1
-4 12 -13 3343 254 1
8 4 -13 3118 244 1
4 8 -13 3252 259 1
8 4 -13 2858 256 1
4 8 -13 3387 259 1
-8 12 -13 3654 251 1
12 -4 -13 3052 257 1
-4 12 -12 150 183 1
4 8 -12 131 197 1
8 4 -12 42 179 1
4 8 -12 181 182 1
-4 12 -12 157 187 1
12 -4 -12 87 180 1
12 -4 -11 2690 218 1
4 8 -11 2435 218 1
12 -8 -11 2547 205 1
4 8 -11 2818 222 1
8 4 -11 2990 222 1
-4 12 -11 2849 208 1
12 -4 -10 32 167 1
4 8 -10 233 171 1
12 -8 -10 382 158 1
8 4 -10 148 175 1
4 8 -10 69 160 1
8 4 -10 23 176 1
-4 12 -10 250 163 1
8 4 -9 2555 213 1
12 -8 -9 2056 195 1
-4 12 -9 2439 197 1
4 8 -9 2246 199 1
12 -4 -9 2406 188 1
4 8 -9 2446 204 1
8 4 -9 2361 209 1
12 -4 -9 2304 204 1
-4 12 -9 2219 195 1
-4 12 -8 48 132 1
12 -8 -8 484 159 1
-4 12 -8 239 155 1
4 8 -8 403 160 1
-12 4 -8 132 126 1
8 4 -8 236 146 1
4 8 -8 416 148 1
12 -4 -8 499 147 1
12 -4 -8 459 159 1
8 4 -8 372 158 1
-4 12 -7 356 134 1
-4 12 -7 289 131 1
12 -4 -7 553 157 1
4 8 -7 526 149 1
12 -8 -7 465 150 1
12 -4 -7 392 141 1
8 4 -7 109 154 1
8 4 -7 540 152 1
-12 4 -7 499 124 1
-4 12 -6 1151 138 1
4 8 -6 1442 152 1
-4 12 -6 1155 144 1
8 4 -6 1156 158 1
12 -4 -6 1181 146 1
12 -8 -6 1314 160 1
12 -8 -6 1139 131 1
8 4 -6 1092 160 1
-12 4 -6 1267 136 1
12 -4 -6 992 156 1
4 8 -6 1328 159 1
-4 12 -5 5349 251 1
12 -8 -5 4575 259 1
4 8 -5 4313 255 1
4 8 -5 4696 256 1
8 4 -5 4907 262 1
8 4 -5 4605 259 1
12 -4 -5 5044 256 1
12 -8 -5 4723 245 1
-4 12 -5 4807 246 1
12 -4 -5 4962 264 1
-12 4 -5 5112 252 1
-4 12 -4 219 120 1
8 4 -4 273 131 1
4 8 -4 424 124 1
-4 12 -4 394 105 1
12 -4 -4 238 144 1
4 8 -4 336 121 1
12 -4 -4 490 134 1
-12 4 -4 462 121 1
12 -8 -4 501 116 1
12 -8 -4 387 137 1
-4 12 -3 13593 545 1
4 8 -3 12828 549 1
4 8 -3 13047 544 1
12 -8 -3 13207 556 1
8 4 -3 12125 551 1
12 -4 -3 13546 553 1
8 4 -3 13304 550 1
12 -8 -3 13710 544 1
8 -12 -3 12871 530 1
-12 4 -3 13190 544 1
-4 12 -3 13324 534 1
12 -4 -3 14042 560 1
8 4 -2 72 121 1
-4 12 -2 8 111 1
12 -8 -2 3 126 1
4 8 -2 5 129 1
8 4 -2 9 124 1
-4 12 -2 11 91 1
4 8 -2 9 107 1
12 -4 -2 4 122 1
12 -8 -2 11 114 1
-12 4 -2 0 104 1
4 8 -1 5968 306 1
8 4 -1 5435 307 1
-4 12 -1 5633 290 1
4 8 -1 5130 288 1
12 -8 -1 5120 304 1
12 -4 -1 5625 304 1
8 4 -1 5395 304 1
12 -8 -1 5673 302 1
-4 12 -1 5693 279 1
-12 4 -1 5891 299 1
12 -4 0 1179 134 1
-4 12 0 891 108 1
-4 12 0 966 82 1
8 4 0 999 122 1
4 8 0 927 128 1
8 4 0 1109 129 1
12 -4 0 1222 135 1
12 -8 0 1165 137 1
4 8 0 678 107 1
-4 12 1 5743 288 1
4 8 1 5952 306 1
8 4 1 6056 315 1
12 -4 1 6101 318 1
12 -4 1 5602 314 1
4 8 1 5160 285 1
12 -8 1 5634 316 1
8 4 1 5914 304 1
-4 12 2 13 85 1
4 8 2 4 113 1
12 -8 2 1 128 1
12 -4 2 0 125 1
8 4 2 8 128 1
8 4 2 41 109 1
12 -4 2 3 114 1
-8 -4 3 12531 535 1
8 4 3 12749 542 1
12 -8 3 13363 549 1
8 4 3 14369 536 1
4 8 3 12392 532 1
12 -4 3 12495 550 1
12 -4 4 722 146 1
8 4 4 330 114 1
4 8 4 336 106 1
8 4 4 320 129 1
12 -4 4 34 129 1
-8 -4 4 249 119 1
4 8 5 4544 237 1
12 -4 5 4852 262 1
8 4 5 4857 252 1
8 4 5 4662 239 1
-8 -4 5 5013 243 1
12 -4 6 1068 168 1
12 -8 6 1577 175 1
-8 -4 6 1357 140 1
8 4 6 1492 147 1
8 4 7 570 139 1
-8 -4 7 524 125 1
12 -4 7 403 155 1
12 -4 8 389 162 1
8 4 8 76 138 1
-3 12 -14 242 214 1
9 3 -14 0 214 1
3 9 -14 0 214 1
9 3 -14 186 214 1
3 9 -14 154 204 1
-3 12 -14 158 209 1
12 -3 -14 190 208 1
3 9 -13 31 199 1
12 -3 -13 76 202 1
9 3 -13 17 184 1
3 9 -13 17 207 1
9 3 -13 147 218 1
-3 12 -13 63 199 1
-3 12 -13 110 210 1
9 3 -12 0 183 1
-3 12 -12 413 191 1
12 -3 -12 439 200 1
-3 12 -12 286 178 1
3 9 -12 414 198 1
3 9 -12 126 195 1
9 3 -12 0 205 1
-3 12 -11 1 171 1
9 3 -11 131 184 1
3 9 -11 1 184 1
3 9 -11 1 175 1
12 -3 -11 1 181 1
12 -3 -10 36 169 1
-3 12 -10 216 164 1
3 9 -10 184 167 1
12 -9 -10 50 151 1
12 -3 -10 224 156 1
3 9 -10 170 168 1
9 3 -10 0 177 1
12 -3 -9 0 170 1
-3 12 -9 389 152 1
-3 12 -9 110 154 1
3 9 -9 8 162 1
9 3 -9 270 169 1
3 9 -9 0 165 1
12 -3 -9 0 154 1
9 3 -9 23 161 1
12 -9 -9 0 151 1
-12 3 -9 148 134 1
-3 12 -8 756 148 1
-3 12 -8 824 158 1
9 3 -8 1011 172 1
12 -3 -8 943 159 1
12 -9 -8 1312 161 1
9 3 -8 1065 163 1
12 -3 -8 1054 174 1
-12 3 -8 1020 145 1
3 9 -8 1402 164 1
-3 12 -7 2993 189 1
-3 12 -7 2799 185 1
12 -3 -7 2764 208 1
3 9 -7 2941 201 1
3 9 -7 2694 187 1
9 3 -7 2678 202 1
12 -3 -7 2787 191 1
12 -9 -7 2981 194 1
9 3 -7 2714 201 1
-12 3 -7 2842 178 1
-3 12 -6 1112 141 1
3 9 -6 1350 158 1
9 3 -6 1155 161 1
3 9 -6 1275 150 1
12 -3 -6 1209 154 1
-12 3 -6 1075 140 1
12 -3 -6 1323 169 1
12 -9 -6 1205 153 1
-3 12 -6 1166 149 1
9 3 -6 1209 166 1
9 3 -5 149 146 1
-3 12 -5 198 136 1
3 9 -5 0 134 1
12 -3 -5 147 136 1
9 3 -5 22 130 1
3 9 -5 0 134 1
12 -3 -5 0 131 1
12 -9 -5 0 133 1
12 -9 -5 0 107 1
-3 12 -5 33 110 1
-12 3 -5 0 126 1
-3 12 -4 3016 175 1
3 9 -4 3024 174 1
12 -9 -4 3121 186 1
9 3 -4 3015 192 1
12 -3 -4 2815 179 1
-12 3 -4 3205 179 1
3 9 -4 3032 186 1
9 3 -4 2923 177 1
-3 12 -4 2954 164 1
12 -3 -4 2954 178 1
12 -9 -4 2932 167 1
9 3 -3 1060 140 1
-3 12 -3 1181 120 1
9 -12 -3 1305 120 1
12 -9 -3 1120 147 1
3 9 -3 1116 132 1
12 -3 -3 1280 146 1
3 9 -3 1228 138 1
-3 12 -3 1076 133 1
-12 3 -3 1184 133 1
-3 12 -2 63 94 1
-3 12 -2 97 110 1
3 9 -2 295 120 1
9 -12 -2 282 112 1
9 3 -2 192 121 1
12 -9 -2 224 133 1
3 9 -2 42 106 1
12 -3 -2 5 134 1
9 3 -2 195 126 1
12 -3 -2 235 126 1
-12 3 -2 76 113 1
-3 12 -1 4 85 1
9 3 -1 5 123 1
-3 12 -1 4 110 1
3 9 -1 5 117 1
9 3 -1 5 124 1
3 9 -1 5 101 1
12 -3 -1 81 128 1
9 -12 -1 21 105 1
12 -3 -1 434 120 1
12 -9 -1 4 133 1
-12 3 -1 4 112 1
-3 12 0 131 103 1
12 -9 0 15 130 1
3 9 0 21 119 1
9 3 0 21 119 1
9 3 0 15 122 1
-12 3 0 3 114 1
12 -3 0 17 116 1
3 9 0 19 92 1
12 -3 0 19 129 1
12 -3 1 4 131 1
-3 12 1 14 93 1
3 9 1 5 119 1
12 -9 1 4 128 1
9 3 1 16 123 1
9 3 1 86 119 1
12 -3 1 4 128 1
-9 -3 1 5 114 1
-3 12 2 74 94 1
12 -3 2 288 132 1
3 9 2 218 112 1
-9 -3 2 0 115 1
9 3 2 235 128 1
9 3 2 31 128 1
12 -9 2 371 132 1
9 3 3 1033 132 1
12 -9 3 1300 153 1
3 9 3 1179 120 1
9 3 3 1404 153 1
12 -3 3 1143 147 1
12 -3 3 1117 144 1
-9 -3 3 1241 136 1
12 -3 4 2727 191 1
3 9 4 3154 158 1
-9 -3 4 3319 183 1
9 3 4 3045 174 1
12 -9 4 3212 197 1
9 3 4 3062 178 1
12 -3 4 3153 191 1
12 -9 5 0 134 1
12 -3 5 0 136 1
-9 -3 5 0 121 1
9 3 5 0 133 1
9 3 5 67 124 1
12 -3 5 0 132 1
12 -3 6 1378 172 1
9 3 6 1304 139 1
-9 -3 6 1223 135 1
9 3 6 1492 161 1
-9 -3 7 3065 180 1
9 3 7 2937 199 1
12 -3 7 2672 205 1
12 -3 8 722 171 1
9 3 8 1158 157 1
-2 12 -14 1223 233 1
2 10 -14 1631 238 1
-2 12 -14 1455 221 1
2 10 -14 912 223 1
10 2 -14 902 214 1
10 2 -14 1361 221 1
12 -2 -14 1088 215 1
2 10 -13 531 209 1
2 10 -13 14 199 1
10 2 -13 14 191 1
-2 12 -13 78 201 1
10 2 -13 14 195 1
12 -2 -13 44 200 1
-2 12 -13 236 196 1
2 10 -12 1676 214 1
12 -2 -12 1278 217 1
-2 12 -12 1782 227 1
10 2 -12 1606 210 1
2 10 -12 1573 223 1
-2 12 -12 1765 226 1
10 2 -12 1529 211 1
-2 12 -11 89 175 1
2 10 -11 34 191 1
2 10 -11 109 182 1
10 2 -11 39 182 1
12 -2 -11 14 185 1
12 -2 -11 41 161 1
10 2 -11 8 199 1
2 10 -10 3385 238 1
2 10 -10 3467 235 1
12 -2 -10 3474 245 1
10 2 -10 3238 236 1
-2 12 -10 4527 242 1
12 -2 -10 3414 221 1
12 -2 -9 418 177 1
-2 12 -9 594 178 1
2 10 -9 347 166 1
10 2 -9 429 168 1
12 -2 -9 420 155 1
-2 12 -9 471 166 1
-12 2 -9 548 139 1
12 -10 -8 5204 262 1
10 2 -8 4885 275 1
12 -2 -8 4951 268 1
2 10 -8 5258 271 1
10 2 -8 5202 288 1
2 10 -8 5074 270 1
12 -2 -8 5303 286 1
-2 12 -8 5830 277 1
-12 2 -8 5171 250 1
-2 12 -8 5005 267 1
12 -2 -7 7 168 1
-2 12 -7 14 148 1
-2 12 -7 7 135 1
2 10 -7 1 142 1
2 10 -7 12 152 1
10 2 -7 49 157 1
12 -2 -7 286 150 1
12 -10 -7 80 138 1
-12 2 -7 7 137 1
10 2 -7 63 156 1
-2 12 -6 2982 200 1
2 10 -6 2658 191 1
12 -10 -6 2737 199 1
2 10 -6 2584 205 1
10 2 -6 2582 206 1
-2 12 -6 2743 185 1
12 -2 -6 2960 215 1
12 -2 -6 2710 206 1
-12 2 -6 2741 191 1
10 2 -6 2572 205 1
12 -10 -5 1212 151 1
-2 12 -5 1251 131 1
2 10 -5 1087 160 1
2 10 -5 1094 146 1
10 2 -5 1090 159 1
10 2 -5 1044 157 1
12 -2 -5 1396 162 1
-2 12 -5 910 147 1
-12 2 -5 1241 147 1
2 10 -4 4735 224 1
10 2 -4 4249 218 1
12 -10 -4 4225 223 1
-2 12 -4 4292 216 1
12 -2 -4 4556 222 1
-12 2 -4 4530 216 1
10 2 -4 4162 224 1
10 -12 -4 4448 202 1
2 10 -4 4431 208 1
-2 12 -4 4423 205 1
10 2 -3 175 131 1
-2 12 -3 37 123 1
-2 12 -3 37 99 1
10 2 -3 38 132 1
2 10 -3 38 138 1
2 10 -3 98 109 1
12 -2 -3 399 134 1
12 -10 -3 139 133 1
12 -2 -3 259 136 1
10 -12 -3 33 114 1
-12 2 -3 212 124 1
-2 12 -2 6468 269 1
2 10 -2 6471 275 1
2 10 -2 6477 264 1
10 -12 -2 6646 269 1
12 -2 -2 7350 289 1
12 -10 -2 6323 283 1
12 -2 -2 7123 290 1
10 2 -2 6900 288 1
-12 2 -2 6968 277 1
-2 12 -2 6283 255 1
10 -12 -1 18 119 1
2 10 -1 229 118 1
10 2 -1 16 129 1
10 2 -1 16 125 1
2 10 -1 218 94 1
12 -2 -1 18 129 1
12 -2 -1 18 135 1
-2 12 -1 38 112 1
-12 2 -1 17 117 1
12 -10 -1 19 136 1
12 -2 0 6226 270 1
10 2 0 5907 260 1
-2 12 0 6041 243 1
12 -2 0 6315 265 1
10 2 0 6169 269 1
2 10 0 6101 249 1
-10 -2 0 5645 251 1
-12 2 0 5751 257 1
10 -12 0 6161 256 1
12 -10 0 6020 269 1
12 -2 1 84 135 1
-2 12 1 17 100 1
2 10 1 16 116 1
10 2 1 385 135 1
10 2 1 16 126 1
12 -10 1 257 135 1
-10 -2 1 48 120 1
-2 12 2 6867 262 1
10 2 2 6460 286 1
2 10 2 6529 274 1
12 -10 2 7455 298 1
12 -2 2 6813 293 1
-10 -2 2 7326 286 1
10 2 2 6341 290 1
-12 2 2 7244 279 1
12 -10 3 33 137 1
2 10 3 243 110 1
12 -2 3 337 140 1
10 2 3 194 131 1
12 -2 3 450 141 1
10 2 3 187 132 1
-10 -2 3 289 124 1
10 2 4 4373 219 1
10 2 4 4636 228 1
12 -2 4 4447 229 1
12 -2 4 4498 233 1
-10 -2 4 5169 224 1
12 -10 4 4209 229 1
12 -2 5 1274 163 1
10 2 5 984 157 1
12 -2 5 936 154 1
-10 -2 5 839 133 1
10 2 5 1109 146 1
10 2 6 2780 191 1
12 -2 6 2725 206 1
10 2 6 2692 204 1
12 -2 6 2768 205 1
-10 -2 6 2695 187 1
10 2 7 6 137 1
12 -2 7 7 150 1
10 2 7 269 154 1
10 2 8 5199 277 1
12 -2 8 5643 285 1
-1 12 -14 1175 229 1
1 11 -14 1342 227 1
1 11 -14 870 226 1
-1 12 -14 881 220 1
11 1 -14 796 229 1
12 -1 -14 737 228 1
-1 12 -13 2851 244 1
1 11 -13 2748 248 1
-1 12 -13 2007 234 1
1 11 -13 2106 236 1
11 1 -13 2291 225 1
12 -1 -13 2187 240 1
11 1 -13 2731 258 1
1 11 -12 1703 217 1
-1 12 -12 1755 220 1
11 1 -12 1294 209 1
-1 12 -12 1346 208 1
11 1 -12 1312 223 1
12 -1 -12 1531 214 1
1 11 -12 1501 207 1
1 11 -11 4074 252 1
1 11 -11 3636 259 1
-1 12 -11 3712 245 1
12 -1 -11 3829 241 1
11 1 -11 3769 245 1
12 -1 -11 3384 257 1
11 1 -11 3597 269 1
1 11 -10 3662 240 1
-1 12 -10 3838 252 1
12 -1 -10 3567 237 1
11 1 -10 3376 241 1
-12 1 -10 3571 221 1
12 -1 -10 3779 256 1
11 1 -10 4103 271 1
1 11 -9 6276 301 1
-1 12 -9 6548 314 1
11 1 -9 6217 312 1
12 -1 -9 5854 305 1
-12 1 -9 6104 289 1
-1 12 -9 5978 306 1
12 -1 -9 6073 321 1
1 11 -9 6487 308 1
1 11 -8 3499 218 1
-1 12 -8 3497 237 1
12 -1 -8 3479 226 1
11 1 -8 3348 236 1
-1 12 -8 3568 225 1
12 -1 -8 3262 234 1
1 11 -8 3473 235 1
-12 1 -8 3321 209 1
1 11 -7 3430 206 1
1 11 -7 3502 215 1
-1 12 -7 3229 216 1
-12 1 -7 3332 198 1
12 -11 -7 3457 207 1
11 1 -7 3028 213 1
12 -1 -7 3018 215 1
11 1 -7 3426 225 1
-1 12 -7 3531 208 1
11 1 -6 2539 203 1
1 11 -6 3202 201 1
-1 12 -6 2965 198 1
-12 1 -6 3013 193 1
11 1 -6 3108 204 1
1 11 -6 2807 189 1
12 -1 -6 3155 206 1
12 -11 -6 3027 193 1
-1 12 -6 3257 191 1
-1 12 -5 10258 408 1
1 11 -5 9540 398 1
1 11 -5 10177 413 1
11 1 -5 9747 414 1
12 -1 -5 10199 415 1
12 -11 -5 9475 402 1
11 1 -5 9759 416 1
11 -12 -5 9956 393 1
12 -1 -5 8987 415 1
-12 1 -5 9854 403 1
-1 12 -5 9266 398 1
11 -12 -4 1812 155 1
-1 12 -4 1661 166 1
-1 12 -4 1434 142 1
1 11 -4 1578 158 1
12 -1 -4 1746 173 1
12 -1 -4 1888 164 1
1 11 -4 1779 143 1
11 1 -4 2049 173 1
11 1 -4 1610 164 1
12 -11 -4 1800 158 1
-12 1 -4 1808 151 1
-1 12 -3 6640 316 1
1 11 -3 6444 318 1
1 11 -3 6819 308 1
12 -1 -3 6416 324 1
12 -11 -3 6214 320 1
11 1 -3 6334 326 1
11 1 -3 5810 321 1
12 -1 -3 6351 326 1
-11 -1 -3 6704 320 1
-1 12 -3 6438 299 1
-12 1 -3 6313 319 1
11 -12 -3 6149 311 1
1 11 -2 7778 298 1
11 -12 -2 6708 286 1
11 1 -2 5953 296 1
12 -1 -2 7669 304 1
12 -1 -2 7084 306 1
11 1 -2 7837 309 1
12 -11 -2 6577 294 1
-11 -1 -2 6756 293 1
-1 12 -2 6831 288 1
-12 1 -2 7026 294 1
1 11 -2 6741 275 1
-1 12 -2 6961 270 1
-1 12 -1 5867 279 1
1 11 -1 6216 279 1
12 -1 -1 5766 291 1
11 -12 -1 5688 285 1
12 -1 -1 5937 295 1
12 -11 -1 6073 288 1
-12 1 -1 5931 282 1
11 1 -1 5686 291 1
1 11 0 6878 303 1
-1 12 0 6388 302 1
12 -1 0 6364 317 1
12 -11 0 6808 315 1
11 1 0 6781 320 1
11 1 0 6719 320 1
11 -12 0 6416 309 1
-11 -1 0 6077 307 1
11 1 1 5815 290 1
-1 12 1 5834 266 1
1 11 1 5804 270 1
12 -1 1 5718 290 1
12 -11 1 6365 291 1
11 1 1 5751 284 1
11 -12 1 5718 283 1
-11 -1 1 5637 278 1
-12 1 1 5572 274 1
-1 12 2 6795 270 1
1 11 2 6947 272 1
11 1 2 7020 295 1
12 -1 2 7131 302 1
11 1 2 7013 301 1
12 -1 2 6350 291 1
12 -11 2 6565 293 1
-11 -1 2 6889 287 1
-12 1 2 6643 283 1
1 11 3 6311 294 1
11 1 3 6184 318 1
-11 -1 3 6935 321 1
12 -1 3 6513 323 1
11 1 3 6540 322 1
12 -1 3 6270 326 1
12 -11 3 6126 326 1
-12 1 3 5872 308 1
11 1 4 1563 160 1
11 1 4 1462 170 1
12 -1 4 1449 167 1
12 -1 4 1811 174 1
-11 -1 4 1513 150 1
11 1 5 10227 428 1
-11 -1 5 9316 414 1
12 -1 5 10553 427 1
11 1 5 10565 422 1
12 -1 5 9782 425 1
12 -1 6 2639 205 1
12 -1 6 3080 212 1
11 1 6 3071 209 1
11 1 6 3198 198 1
11 1 7 2990 203 1
12 -1 7 3196 219 1
11 1 7 3260 216 1
12 -1 7 3723 228 1
12 -1 8 3243 225 1
11 1 8 3324 214 1
11 1 8 3234 229 1
12 0 -13 2755 262 1
0 12 -13 2001 261 1
0 12 -13 2724 251 1
0 12 -12 373 202 1
0 12 -12 25 203 1
12 0 -12 524 193 1
12 0 -12 247 208 1
0 12 -11 5112 294 1
12 0 -11 5977 297 1
12 0 -11 5219 317 1
12 0 -10 56 188 1
0 12 -10 183 169 1
12 0 -10 2 180 1
0 12 -9 10768 457 1
0 12 -9 11021 448 1
12 0 -9 10651 452 1
12 0 -9 9794 458 1
0 12 -8 283 166 1
0 12 -8 74 157 1
12 0 -8 212 167 1
0 12 -7 11929 482 1
0 12 -7 11004 487 1
12 0 -7 11514 491 1
12 0 -6 2361 206 1
0 12 -6 2217 190 1
0 12 -6 1948 178 1
12 0 -6 2707 199 1
-12 0 -6 2315 179 1
0 12 -5 7256 346 1
0 12 -5 7296 331 1
12 0 -5 7330 351 1
12 -12 -5 6776 334 1
12 0 -5 7187 360 1
-12 0 -5 7612 339 1
12 0 -4 6183 267 1
0 12 -4 5787 258 1
12 -12 -4 5991 258 1
12 0 -4 5748 266 1
0 12 -4 5924 242 1
-12 0 -4 6119 261 1
0 12 -3 16576 650 1
0 12 -3 17543 663 1
12 0 -3 16917 670 1
12 0 -3 19313 680 1
12 -12 -3 16870 661 1
-12 0 -3 16714 662 1
-12 0 -2 13 128 1
12 0 -2 36 154 1
0 12 -2 3 136 1
12 -12 -2 61 133 1
12 0 -2 29 140 1
12 -12 -1 14794 637 1
0 12 -1 19078 642 1
-12 0 -1 16091 642 1
12 0 -1 15958 648 1
0 12 0 34 126 1
12 -12 0 19 138 1
12 0 0 43 141 1
0 12 1 16405 628 1
12 0 1 16147 648 1
12 0 1 16431 649 1
12 -12 1 15716 644 1
-12 0 1 17504 644 1
0 12 2 13 119 1
12 -12 2 14 148 1
12 0 2 64 140 1
12 0 2 23 145 1
-12 0 2 64 128 1
12 0 3 16261 652 1
12 0 3 17295 657 1
-12 0 3 16541 644 1
12 0 4 6544 273 1
12 0 4 5669 261 1
-12 0 4 5726 254 1
12 0 5 7480 365 1
12 0 5 7598 355 1
12 0 6 2389 200 1
12 0 6 2729 217 1
12 0 7 10882 471 1
12 0 7 11253 482 1
12 0 8 13 157 1
12 0 9 11112 463 1
6 7 -14 294 211 1
-7 13 -14 391 213 1
-6 13 -14 641 200 1
-6 13 -14 683 214 1
13 -6 -14 548 213 1
7 6 -14 596 212 1
-7 13 -14 208 209 1
-6 13 -13 1190 210 1
-6 13 -13 1500 214 1
-7 13 -13 1047 208 1
13 -6 -13 1498 224 1
13 -7 -13 1504 219 1
6 7 -13 1104 211 1
7 6 -13 928 213 1
6 7 -13 972 225 1
-6 13 -12 431 188 1
13 -6 -12 327 186 1
7 6 -12 477 183 1
6 7 -12 265 199 1
13 -7 -12 475 194 1
6 7 -12 303 196 1
7 6 -12 464 195 1
-7 13 -12 375 181 1
6 7 -11 5661 308 1
7 6 -11 5190 299 1
6 7 -11 5323 313 1
-6 13 -11 5429 298 1
7 6 -11 5177 309 1
13 -6 -11 5476 308 1
13 -7 -11 5982 308 1
-7 13 -11 5282 302 1
6 7 -10 3 188 1
-7 13 -10 215 164 1
13 -6 -10 67 178 1
13 -7 -10 251 178 1
6 7 -10 16 179 1
7 6 -10 150 172 1
-6 13 -10 296 178 1
7 6 -10 225 176 1
-6 13 -10 76 164 1
6 7 -9 7084 329 1
7 6 -9 7352 335 1
6 7 -9 7486 333 1
7 6 -9 7161 337 1
13 -6 -9 7021 333 1
13 -7 -9 6975 330 1
-6 13 -9 7226 320 1
6 7 -8 1360 187 1
13 -6 -8 1228 189 1
7 6 -8 1469 191 1
13 -7 -8 1106 188 1
6 7 -8 1382 175 1
7 6 -8 1525 193 1
-6 13 -8 1252 166 1
13 -7 -7 5618 284 1
7 6 -7 5748 300 1
7 6 -7 6241 308 1
13 -6 -7 6286 294 1
6 7 -7 6308 306 1
13 -6 -7 6615 307 1
13 -7 -7 5554 305 1
6 7 -6 10610 413 1
7 6 -6 10362 415 1
13 -6 -6 10226 405 1
13 -7 -6 10077 420 1
13 -7 -6 9699 398 1
13 -6 -6 10591 423 1
6 7 -5 2661 193 1
13 -6 -5 2753 200 1
13 -7 -5 2700 183 1
13 -7 -5 2869 203 1
13 -6 -5 2399 182 1
7 6 -5 2712 192 1
6 7 -5 2481 189 1
13 -6 -4 11594 470 1
13 -7 -4 11344 468 1
6 7 -4 11822 466 1
7 6 -4 11361 468 1
6 7 -4 11582 460 1
7 6 -4 10713 458 1
13 -6 -4 11116 457 1
13 -7 -4 11015 455 1
13 -7 -3 6480 293 1
6 7 -3 7519 294 1
7 6 -3 7071 293 1
6 7 -3 6351 282 1
7 6 -3 7212 290 1
13 -6 -3 6652 284 1
13 -7 -3 6693 285 1
13 -6 -3 6846 297 1
13 -6 -2 12898 483 1
7 6 -2 12714 477 1
6 7 -2 13111 480 1
13 -7 -2 13250 485 1
6 7 -2 14325 474 1
13 -6 -2 13115 477 1
13 -7 -2 13233 477 1
7 6 -2 12284 468 1
6 7 -1 18818 654 1
7 6 -1 17672 653 1
13 -6 -1 18504 661 1
13 -7 -1 18441 660 1
-6 13 -1 17127 638 1
6 7 -1 18815 643 1
13 -6 -1 18188 656 1
7 6 -1 19653 648 1
13 -7 -1 17543 653 1
-6 13 0 9 102 1
6 7 0 27 106 1
7 6 0 66 120 1
6 7 0 129 132 1
7 6 0 5 120 1
13 -7 0 1 134 1
13 -6 0 50 138 1
13 -7 0 63 134 1
13 -6 0 0 139 1
-6 13 1 17859 623 1
6 7 1 16898 640 1
7 6 1 18433 643 1
13 -7 1 18000 650 1
13 -6 1 17567 644 1
13 -7 1 18250 648 1
6 7 1 18767 629 1
7 6 1 17982 632 1
6 7 2 11854 451 1
7 6 2 12695 456 1
13 -6 2 12642 462 1
7 6 2 12697 442 1
6 7 3 7264 289 1
7 6 3 7049 287 1
13 -6 3 6206 294 1
13 -6 4 10633 462 1
13 -7 4 10530 461 1
6 7 4 11588 448 1
7 6 4 11305 452 1
-7 -6 4 11362 446 1
13 -6 5 2704 204 1
13 -7 5 2737 199 1
-7 -6 5 2435 168 1
6 7 5 2784 181 1
7 6 5 2801 180 1
-6 -7 5 2389 165 1
6 7 6 9779 394 1
7 6 6 10745 398 1
13 -6 6 9780 415 1
13 -7 6 9895 418 1
-6 -7 6 10148 388 1
-7 -6 6 9723 389 1
13 -7 7 5600 313 1
7 6 7 5895 288 1
13 -6 7 5581 316 1
-7 -6 7 6712 280 1
13 -5 -14 266 211 1
-5 13 -14 24 213 1
-5 13 -14 1 197 1
5 8 -14 1 220 1
8 5 -14 1 200 1
5 8 -14 359 223 1
8 5 -14 1 233 1
-8 13 -14 87 207 1
13 -5 -13 2112 241 1
-5 13 -13 1862 232 1
5 8 -13 1915 239 1
8 5 -13 1540 227 1
-5 13 -13 2088 223 1
5 8 -13 1949 249 1
-8 13 -13 1636 231 1
-5 13 -12 1337 204 1
13 -8 -12 1082 205 1
8 5 -12 1057 212 1
5 8 -12 1314 215 1
5 8 -12 1309 221 1
13 -5 -12 1341 217 1
-8 13 -12 1191 203 1
-5 13 -11 2952 226 1
13 -5 -11 3068 237 1
5 8 -11 3035 243 1
13 -8 -11 2789 219 1
8 5 -11 2752 226 1
5 8 -11 3069 248 1
8 5 -11 3160 240 1
-5 13 -10 1270 187 1
-5 13 -10 945 184 1
13 -5 -10 1072 196 1
5 8 -10 1245 196 1
8 5 -10 973 191 1
13 -8 -10 1132 181 1
5 8 -10 823 187 1
8 5 -10 1513 209 1
-5 13 -9 1975 192 1
13 -5 -9 2564 224 1
5 8 -9 2385 212 1
8 5 -9 2494 216 1
13 -8 -9 2310 199 1
5 8 -9 2485 212 1
-5 13 -9 2501 213 1
8 5 -9 2578 216 1
-5 13 -8 2951 193 1
13 -5 -8 2327 203 1
5 8 -8 2616 197 1
8 5 -8 2897 204 1
13 -8 -8 2784 202 1
-5 13 -8 2549 194 1
5 8 -8 3090 205 1
13 -5 -8 2769 190 1
8 5 -8 2791 210 1
-13 5 -8 2643 168 1
-5 13 -7 9303 406 1
5 8 -7 9631 410 1
8 5 -7 9298 408 1
8 5 -7 10542 416 1
13 -5 -7 10132 403 1
13 -8 -7 10728 415 1
13 -5 -7 10433 422 1
-13 5 -7 9662 385 1
-5 13 -7 10163 400 1
-5 13 -6 268 139 1
5 8 -6 84 142 1
8 5 -6 24 153 1
13 -5 -6 387 161 1
5 8 -6 91 144 1
-13 5 -6 239 122 1
13 -5 -6 159 148 1
13 -8 -6 232 160 1
13 -8 -6 168 121 1
8 5 -6 144 149 1
-5 13 -6 271 133 1
5 8 -5 352 141 1
13 -5 -5 639 158 1
5 8 -5 575 143 1
13 -5 -5 531 141 1
-5 13 -5 520 142 1
13 -8 -5 560 156 1
13 -8 -5 468 139 1
8 5 -5 498 153 1
-5 13 -5 567 124 1
-13 5 -5 279 128 1
-5 13 -4 0 128 1
5 8 -4 239 140 1
13 -5 -4 285 152 1
5 8 -4 50 132 1
13 -5 -4 55 144 1
-13 5 -4 135 125 1
13 -8 -4 230 134 1
-5 13 -4 120 105 1
8 5 -4 206 142 1
13 -8 -4 327 153 1
-13 5 -3 18548 710 1
-5 13 -3 18659 709 1
13 -5 -3 18664 724 1
13 -8 -3 18066 722 1
5 8 -3 18032 719 1
8 5 -3 17369 717 1
5 8 -3 17123 707 1
8 5 -3 18076 714 1
13 -5 -3 18340 716 1
13 -8 -3 18502 712 1
-5 13 -3 17601 699 1
-5 13 -2 7445 303 1
13 -5 -2 7735 325 1
5 8 -2 7575 315 1
8 5 -2 7146 316 1
5 8 -2 8049 307 1
13 -8 -2 7463 324 1
13 -5 -2 7271 312 1
8 5 -2 7602 315 1
13 -8 -2 7128 311 1
-5 13 -2 7438 289 1
5 8 -1 5323 261 1
-5 13 -1 5148 247 1
8 5 -1 5053 264 1
5 8 -1 5398 248 1
13 -5 -1 5464 263 1
8 5 -1 5716 259 1
13 -8 -1 5408 261 1
13 -8 -1 5592 269 1
5 8 0 2078 162 1
8 5 0 1629 154 1
13 -8 0 1877 168 1
13 -5 0 1994 167 1
-5 13 0 1876 132 1
5 8 0 1803 133 1
8 5 0 1649 149 1
-5 13 1 5779 242 1
5 8 1 5367 265 1
8 5 1 5602 270 1
13 -5 1 5117 273 1
13 -5 1 5757 277 1
13 -8 1 5333 273 1
8 5 1 6015 261 1
8 5 2 7909 307 1
5 8 2 8007 315 1
8 5 2 7799 322 1
13 -5 2 7044 326 1
13 -5 2 7369 322 1
13 -8 2 7384 325 1
13 -8 3 17746 724 1
8 5 3 17407 704 1
5 8 3 17990 710 1
8 5 3 19230 720 1
13 -5 3 17127 718 1
13 -5 3 17985 727 1
-8 -5 3 19449 712 1
13 -5 4 332 146 1
5 8 4 326 121 1
8 5 4 0 138 1
-8 -5 4 262 118 1
5 8 5 524 126 1
8 5 5 587 141 1
13 -5 5 495 152 1
-8 -5 5 541 136 1
13 -5 6 160 154 1
-8 -5 6 275 132 1
8 5 6 131 137 1
13 -8 6 109 159 1
-5 -8 6 159 112 1
8 5 7 10123 407 1
13 -5 7 10251 425 1
-8 -5 7 10068 394 1
13 -5 8 2565 205 1
8 5 8 2751 178 1
13 -4 -14 118 221 1
-4 13 -14 229 220 1
-4 13 -14 401 211 1
4 9 -14 3 226 1
9 4 -14 3 218 1
4 9 -14 117 217 1
9 4 -14 383 230 1
-9 13 -14 3 197 1
13 -4 -13 296 210 1
-4 13 -13 151 192 1
4 9 -13 82 205 1
9 4 -13 146 205 1
-9 13 -13 30 198 1
4 9 -13 62 200 1
9 4 -13 43 215 1
-4 13 -13 232 199 1
13 -4 -12 688 206 1
-4 13 -12 647 193 1
4 9 -12 987 219 1
9 4 -12 708 211 1
4 9 -12 690 204 1
13 -4 -11 1 190 1
-4 13 -11 338 178 1
4 9 -11 200 195 1
9 4 -11 1 183 1
4 9 -11 422 183 1
9 4 -11 301 205 1
-4 13 -10 710 182 1
13 -4 -10 768 195 1
4 9 -10 960 202 1
9 4 -10 622 189 1
13 -9 -10 874 185 1
4 9 -10 745 180 1
9 4 -10 958 195 1
-4 13 -10 1321 197 1
-4 13 -9 1401 187 1
13 -4 -9 1486 199 1
4 9 -9 1782 211 1
-4 13 -9 1522 187 1
4 9 -9 1484 189 1
13 -9 -9 1609 194 1
13 -4 -9 1591 178 1
9 4 -9 1721 196 1
9 4 -9 1628 201 1
-4 13 -8 1295 177 1
-4 13 -8 1350 182 1
13 -4 -8 1405 201 1
4 9 -8 1404 188 1
13 -9 -8 1417 174 1
13 -4 -8 1425 169 1
9 4 -8 1558 194 1
9 4 -8 1234 182 1
-13 4 -8 1226 162 1
-4 13 -7 1487 162 1
-4 13 -7 1362 168 1
13 -4 -7 1403 185 1
4 9 -7 1237 178 1
9 4 -7 1498 183 1
4 9 -7 1075 179 1
13 -4 -7 1193 165 1
13 -9 -7 1201 174 1
9 4 -7 1155 174 1
-13 4 -7 1396 153 1
-4 13 -6 73 127 1
-4 13 -6 92 136 1
4 9 -6 140 151 1
13 -4 -6 2 166 1
-13 4 -6 217 133 1
9 4 -6 19 155 1
4 9 -6 219 141 1
13 -4 -6 302 142 1
13 -9 -6 261 148 1
9 4 -6 161 158 1
-4 13 -5 27 125 1
-4 13 -5 27 136 1
4 9 -5 17 135 1
13 -4 -5 33 151 1
9 4 -5 22 148 1
4 9 -5 26 132 1
13 -4 -5 5 141 1
13 -9 -5 125 118 1
9 4 -5 66 150 1
13 -9 -5 25 150 1
-13 4 -5 11 133 1
9 4 -4 2641 190 1
13 -9 -4 2840 186 1
-4 13 -4 2203 175 1
4 9 -4 2463 183 1
13 -4 -4 2486 189 1
13 -4 -4 2697 193 1
4 9 -4 2645 174 1
13 -9 -4 2416 167 1
-4 13 -4 2514 162 1
-13 4 -4 2692 173 1
9 4 -3 216 136 1
-4 13 -3 176 126 1
13 -9 -3 385 143 1
4 9 -3 47 135 1
9 4 -3 339 132 1
13 -4 -3 207 151 1
4 9 -3 207 121 1
13 -4 -3 277 141 1
13 -9 -3 264 124 1
-13 4 -3 302 126 1
-4 13 -3 196 101 1
-4 13 -2 1477 119 1
9 4 -2 1560 150 1
4 9 -2 1436 150 1
13 -9 -2 1480 158 1
9 4 -2 1449 149 1
4 9 -2 1603 132 1
13 -4 -2 1547 159 1
-4 13 -2 1606 138 1
-13 4 -2 1650 147 1
-4 13 -1 1408 144 1
9 4 -1 1069 155 1
4 9 -1 1432 166 1
9 4 -1 1279 157 1
13 -9 -1 1249 161 1
13 -4 -1 1144 160 1
4 9 -1 896 130 1
13 -4 -1 1117 161 1
-13 4 -1 1346 151 1
-4 13 0 5077 218 1
13 -4 0 4509 250 1
9 4 0 4641 241 1
4 9 0 4541 213 1
13 -4 0 4886 242 1
13 -9 0 5296 251 1
9 4 0 4747 238 1
-4 13 1 1187 130 1
13 -4 1 965 160 1
13 -9 1 1090 165 1
4 9 1 975 152 1
9 4 1 1116 158 1
9 4 1 1164 152 1
13 -4 1 1001 159 1
4 9 2 1563 145 1
13 -4 2 1561 157 1
-9 -4 2 1644 143 1
9 4 2 1572 148 1
13 -9 2 1450 166 1
9 4 2 1561 145 1
13 -4 2 1238 155 1
9 4 3 301 128 1
-9 -4 3 160 122 1
4 9 3 296 117 1
9 4 3 225 145 1
13 -9 3 108 140 1
13 -4 3 255 152 1
-9 -4 4 2208 168 1
13 -4 4 2798 198 1
9 4 4 2284 166 1
4 9 4 2447 165 1
9 4 4 2322 185 1
13 -9 4 2808 191 1
13 -4 4 2886 194 1
13 -4 5 27 154 1
9 4 5 41 135 1
13 -4 5 5 158 1
-9 -4 5 57 126 1
13 -4 6 333 154 1
-9 -4 6 45 131 1
9 4 6 171 147 1
9 4 7 1593 167 1
-9 -4 7 1329 153 1
13 -4 7 1386 189 1
13 -4 8 1458 191 1
9 4 8 1020 165 1
9 4 9 1741 181 1
13 -3 -13 384 218 1
-3 13 -13 49 203 1
-3 13 -13 4 203 1
3 10 -13 219 209 1
10 3 -13 87 205 1
3 10 -13 4 202 1
10 3 -13 364 218 1
13 -3 -12 2 205 1
-3 13 -12 377 197 1
10 3 -12 358 193 1
3 10 -12 445 200 1
3 10 -12 103 199 1
10 3 -12 441 203 1
13 -3 -11 341 207 1
-3 13 -11 11 177 1
3 10 -11 129 187 1
10 3 -11 18 184 1
3 10 -11 55 198 1
13 -3 -10 1646 210 1
-3 13 -10 1381 207 1
-3 13 -10 1377 183 1
3 10 -10 1701 206 1
10 3 -10 1433 207 1
3 10 -10 1500 203 1
13 -3 -10 1585 181 1
10 3 -10 1466 207 1
13 -3 -9 796 189 1
-3 13 -9 1031 175 1
10 3 -9 1223 188 1
3 10 -9 881 175 1
13 -3 -9 1230 176 1
13 -10 -9 1010 174 1
10 3 -9 1091 189 1
-13 3 -9 1281 159 1
-3 13 -9 1254 183 1
-3 13 -8 5218 276 1
3 10 -8 5101 283 1
10 3 -8 5128 280 1
13 -3 -8 5371 270 1
10 3 -8 5042 290 1
13 -3 -8 4965 289 1
-13 3 -8 5075 259 1
-3 13 -8 4917 262 1
3 10 -8 4885 273 1
13 -10 -8 4845 268 1
-3 13 -7 2572 182 1
-3 13 -7 2368 200 1
13 -3 -7 2270 209 1
3 10 -7 2221 201 1
10 3 -7 1829 199 1
10 3 -7 2283 212 1
3 10 -7 2020 189 1
13 -3 -7 2262 195 1
13 -10 -7 2028 190 1
-13 3 -7 2154 181 1
13 -10 -6 116 144 1
-3 13 -6 98 132 1
-3 13 -6 1 141 1
3 10 -6 7 164 1
13 -3 -6 75 154 1
10 3 -6 7 156 1
3 10 -6 41 136 1
13 -3 -6 136 153 1
10 3 -6 7 159 1
-13 3 -6 103 134 1
13 -10 -5 440 154 1
-3 13 -5 501 124 1
3 10 -5 82 155 1
13 -3 -5 250 152 1
10 3 -5 607 165 1
3 10 -5 368 140 1
13 -3 -5 395 157 1
-3 13 -5 317 150 1
-13 3 -5 474 142 1
10 3 -5 569 159 1
10 3 -4 1 140 1
-3 13 -4 197 110 1
-3 13 -4 92 139 1
13 -10 -4 356 153 1
3 10 -4 38 141 1
3 10 -4 1 131 1
13 -3 -4 1 141 1
-13 3 -4 228 142 1
10 3 -4 146 144 1
-3 13 -3 1308 127 1
10 3 -3 1274 166 1
-3 13 -3 1584 151 1
3 10 -3 1710 162 1
13 -10 -3 1486 167 1
3 10 -3 1185 144 1
13 -3 -3 1418 170 1
-13 3 -3 1214 149 1
-3 13 -2 5496 277 1
3 10 -2 5807 286 1
3 10 -2 5566 271 1
10 3 -2 5567 295 1
13 -3 -2 6230 295 1
13 -10 -2 5841 293 1
10 3 -2 5970 297 1
10 -13 -2 5817 273 1
13 -3 -2 6127 301 1
-13 3 -2 5955 283 1
-3 13 -2 5233 257 1
13 -10 -1 1 139 1
-3 13 -1 101 123 1
10 3 -1 8 141 1
3 10 -1 34 129 1
10 3 -1 8 135 1
3 10 -1 111 112 1
13 -3 -1 10 132 1
13 -3 -1 172 139 1
-13 3 -1 42 119 1
-3 13 0 5562 241 1
3 10 0 5624 249 1
13 -3 0 5353 266 1
10 3 0 5814 265 1
13 -3 0 5657 264 1
-10 -3 0 5653 254 1
13 -10 0 5496 266 1
10 3 0 5480 262 1
-13 3 0 5311 250 1
13 -3 1 10 153 1
-3 13 1 39 111 1
13 -10 1 11 146 1
10 3 1 153 141 1
3 10 1 12 130 1
10 3 1 180 137 1
-10 -3 1 8 117 1
13 -3 1 1 134 1
10 3 2 5443 285 1
13 -10 2 5306 296 1
3 10 2 6239 279 1
-10 -3 2 6093 287 1
10 3 2 5770 295 1
13 -3 2 5577 302 1
10 3 3 1291 155 1
3 10 3 1278 134 1
13 -10 3 1113 160 1
10 3 3 1340 165 1
-10 -3 3 1489 154 1
13 -3 3 1631 175 1
13 -3 3 1356 162 1
13 -3 4 1 146 1
10 3 4 77 128 1
13 -10 4 353 155 1
10 3 4 261 144 1
13 -3 4 310 152 1
-10 -3 4 126 127 1
13 -10 5 654 169 1
13 -3 5 372 157 1
10 3 5 441 152 1
13 -3 5 643 164 1
10 3 5 358 145 1
-10 -3 5 422 136 1
10 3 6 235 157 1
13 -3 6 150 157 1
-10 -3 6 7 134 1
-10 -3 7 2118 173 1
13 -3 7 1689 195 1
10 3 7 1718 183 1
10 3 8 4945 267 1
13 -3 8 5458 289 1
-2 13 -13 119 210 1
2 11 -13 0 223 1
-2 13 -13 93 208 1
2 11 -13 0 215 1
11 2 -13 27 208 1
11 2 -13 0 225 1
13 -2 -13 289 218 1
13 -2 -12 228 227 1
-2 13 -12 390 197 1
2 11 -12 1 202 1
2 11 -12 23 194 1
11 2 -12 180 200 1
11 2 -12 335 236 1
13 -2 -11 305 206 1
-2 13 -11 12 191 1
2 11 -11 147 189 1
2 11 -11 7 204 1
11 2 -11 17 191 1
13 -2 -11 13 178 1
13 -2 -10 343 197 1
-2 13 -10 304 203 1
-2 13 -10 879 180 1
2 11 -10 271 173 1
11 2 -10 165 190 1
13 -2 -10 283 176 1
13 -2 -9 332 198 1
-2 13 -9 100 179 1
-2 13 -9 187 164 1
2 11 -9 140 181 1
2 11 -9 101 168 1
11 2 -9 21 179 1
13 -2 -9 12 165 1
-13 2 -9 49 154 1
11 2 -9 48 182 1
-2 13 -8 3010 226 1
13 -2 -8 2585 234 1
2 11 -8 2578 223 1
2 11 -8 2375 217 1
11 2 -8 2650 227 1
13 -2 -8 2575 220 1
-13 2 -8 2884 205 1
-2 13 -8 3011 219 1
11 2 -8 2416 225 1
13 -2 -7 31 173 1
-2 13 -7 25 169 1
-2 13 -7 28 141 1
2 11 -7 10 161 1
-13 2 -7 10 139 1
11 2 -7 217 171 1
13 -2 -7 122 170 1
13 -11 -7 5 140 1
2 11 -7 10 159 1
11 2 -7 92 164 1
11 2 -6 449 160 1
13 -11 -6 197 146 1
-2 13 -6 427 155 1
-2 13 -6 476 140 1
2 11 -6 494 155 1
2 11 -6 682 147 1
11 2 -6 530 164 1
13 -2 -6 536 165 1
-13 2 -6 477 146 1
11 2 -5 2395 205 1
-2 13 -5 2348 176 1
-2 13 -5 2012 188 1
2 11 -5 1877 195 1
13 -11 -5 2007 187 1
2 11 -5 1818 170 1
11 2 -5 2578 205 1
13 -2 -5 2188 195 1
-13 2 -5 1871 181 1
11 2 -4 603 163 1
-2 13 -4 881 144 1
-2 13 -4 590 130 1
2 11 -4 785 159 1
13 -2 -4 646 161 1
2 11 -4 614 142 1
11 2 -4 659 158 1
13 -11 -4 501 155 1
13 -2 -4 892 159 1
-13 2 -4 713 144 1
11 -13 -3 0 124 1
-2 13 -3 171 136 1
-2 13 -3 0 112 1
11 2 -3 43 151 1
2 11 -3 77 150 1
13 -2 -3 121 145 1
2 11 -3 14 124 1
11 2 -3 0 141 1
13 -2 -3 40 142 1
13 -11 -3 110 144 1
-13 2 -3 118 135 1
13 -11 -2 886 160 1
-2 13 -2 716 135 1
2 11 -2 996 145 1
11 2 -2 916 158 1
2 11 -2 915 124 1
13 -2 -2 881 154 1
11 -13 -2 830 136 1
13 -2 -2 819 165 1
-13 2 -2 929 146 1
-2 13 -1 1 125 1
13 -11 -1 160 142 1
2 11 -1 61 135 1
11 2 -1 110 143 1
11 -13 -1 1 130 1
11 2 -1 2 148 1
13 -2 -1 1 150 1
13 -2 -1 74 155 1
-13 2 -1 26 131 1
-2 13 0 179 124 1
2 11 0 141 126 1
11 2 0 73 146 1
11 2 0 183 141 1
13 -11 0 125 138 1
13 -2 0 187 149 1
13 -2 0 190 154 1
-11 -2 0 187 127 1
11 -13 0 41 129 1
-13 2 0 5 123 1
13 -2 1 153 145 1
-2 13 1 220 119 1
2 11 1 198 123 1
11 2 1 125 140 1
13 -11 1 63 145 1
11 2 1 2 146 1
-11 -2 1 210 128 1
13 -2 2 901 163 1
2 11 2 873 136 1
-11 -2 2 874 142 1
13 -11 2 902 159 1
11 2 2 1012 156 1
11 2 2 800 157 1
-13 2 2 989 146 1
13 -11 3 14 161 1
11 2 3 192 142 1
2 11 3 37 122 1
13 -2 3 35 148 1
-11 -2 3 79 131 1
11 2 3 42 144 1
13 -2 3 219 160 1
13 -11 4 687 173 1
13 -2 4 783 170 1
11 2 4 559 151 1
11 2 4 796 159 1
13 -2 4 785 173 1
-11 -2 4 632 150 1
11 2 5 2048 175 1
13 -2 5 1774 193 1
11 2 5 2088 194 1
13 -2 5 2192 197 1
-11 -2 5 1972 170 1
11 2 6 623 155 1
13 -2 6 593 160 1
11 2 6 449 167 1
13 -2 6 549 167 1
-11 -2 6 602 153 1
13 -2 7 1 160 1
11 2 7 108 160 1
13 -2 8 2186 218 1
11 2 8 2835 213 1
13 -2 9 190 166 1
-1 13 -13 238 222 1
1 12 -13 322 230 1
-1 13 -13 411 216 1
1 12 -13 4 211 1
13 -1 -13 62 228 1
12 1 -13 131 212 1
12 1 -13 346 227 1
1 12 -12 97 218 1
-1 13 -12 410 202 1
1 12 -12 156 189 1
12 1 -12 87 195 1
13 -1 -12 6 208 1
12 1 -12 6 211 1
-1 13 -11 523 194 1
13 -1 -11 243 212 1
12 1 -11 529 203 1
13 -1 -11 264 183 1
1 12 -11 849 200 1
12 1 -11 203 221 1
13 -1 -10 17 190 1
-1 13 -10 106 198 1
-1 13 -10 133 179 1
1 12 -10 5 175 1
12 1 -10 129 184 1
13 -1 -10 155 173 1
-13 1 -10 29 160 1
13 -1 -9 1671 226 1
-1 13 -9 1531 203 1
-13 1 -9 1527 173 1
1 12 -9 1517 209 1
-1 13 -9 1508 190 1
1 12 -9 1328 188 1
12 1 -9 2178 205 1
13 -1 -9 1286 191 1
13 -1 -8 1586 213 1
-1 13 -8 2032 209 1
1 12 -8 2038 206 1
-1 13 -8 1997 193 1
1 12 -8 2403 191 1
12 1 -8 1825 206 1
13 -1 -8 2235 201 1
-13 1 -8 1834 177 1
12 1 -8 2118 204 1
12 1 -7 453 175 1
-1 13 -7 493 179 1
-1 13 -7 329 152 1
-13 1 -7 363 150 1
1 12 -7 474 160 1
12 1 -7 191 167 1
1 12 -7 130 161 1
13 -1 -7 147 166 1
12 1 -6 1411 185 1
-1 13 -6 1743 184 1
1 12 -6 1385 177 1
-1 13 -6 1636 168 1
1 12 -6 1255 164 1
13 -12 -6 1110 168 1
12 1 -6 1418 188 1
13 -1 -6 1474 180 1
-13 1 -6 1392 170 1
12 1 -5 7 165 1
-1 13 -5 100 154 1
1 12 -5 7 158 1
13 -1 -5 115 166 1
-1 13 -5 62 123 1
1 12 -5 74 131 1
12 1 -5 125 164 1
13 -1 -5 38 159 1
13 -12 -5 64 152 1
-13 1 -5 120 147 1
1 12 -4 2750 176 1
-1 13 -4 3036 190 1
12 1 -4 2732 211 1
1 12 -4 2433 195 1
13 -1 -4 2828 205 1
12 -13 -4 2600 179 1
-12 -1 -4 2364 189 1
12 1 -4 2549 199 1
13 -1 -4 2708 203 1
-1 13 -4 2621 165 1
13 -12 -4 2645 181 1
-13 1 -4 2378 189 1
13 -12 -3 723 147 1
-1 13 -3 751 153 1
1 12 -3 679 158 1
12 1 -3 403 166 1
1 12 -3 649 120 1
13 -1 -3 486 163 1
12 1 -3 906 160 1
13 -1 -3 952 158 1
12 -13 -3 658 145 1
-12 -1 -3 791 139 1
-13 1 -3 637 153 1
-12 -1 -2 713 144 1
12 -13 -2 568 149 1
-1 13 -2 664 143 1
12 1 -2 818 175 1
1 12 -2 760 148 1
13 -12 -2 681 154 1
13 -1 -2 449 158 1
12 1 -2 552 153 1
13 -1 -2 597 160 1
-13 1 -2 595 151 1
-1 13 -1 3206 187 1
1 12 -1 3214 188 1
13 -1 -1 3564 213 1
12 1 -1 2816 204 1
12 -13 -1 2740 190 1
13 -12 -1 3106 203 1
13 -1 -1 3528 216 1
-13 1 -1 3374 196 1
13 -12 0 168 145 1
-12 -1 0 82 138 1
-1 13 0 57 130 1
1 12 0 9 128 1
12 -13 0 12 136 1
12 1 0 7 141 1
12 1 0 73 153 1
13 -1 0 20 155 1
-1 13 1 2826 172 1
1 12 1 3214 184 1
13 -1 1 3248 205 1
12 -13 1 2920 201 1
13 -12 1 3203 208 1
12 1 1 2859 202 1
12 1 1 2672 205 1
-12 -1 1 3058 195 1
-13 1 1 3493 190 1
12 1 2 659 161 1
13 -1 2 761 168 1
1 12 2 978 132 1
13 -12 2 550 160 1
12 1 2 588 165 1
13 -1 2 602 163 1
-12 -1 2 706 149 1
-13 1 2 633 136 1
13 -12 3 812 164 1
12 1 3 605 156 1
-12 -1 3 497 148 1
13 -1 3 779 162 1
12 1 3 699 159 1
13 -1 3 647 162 1
-13 1 3 775 148 1
12 1 4 2394 193 1
12 1 4 2592 197 1
13 -1 4 2651 205 1
13 -1 4 2512 199 1
-12 -1 4 2357 186 1
12 1 5 2 145 1
13 -1 5 200 161 1
12 1 5 147 166 1
13 -1 5 36 174 1
-12 -1 5 7 139 1
12 1 6 1244 174 1
13 -1 6 1548 186 1
12 1 6 1863 197 1
13 -1 6 1492 193 1
13 -1 7 401 170 1
12 1 7 175 154 1
12 1 7 98 173 1
13 -1 7 261 168 1
12 1 8 1920 206 1
13 -1 8 2017 199 1
13 -1 9 1129 187 1
0 13 -12 1267 220 1
13 0 -12 1775 221 1
13 0 -12 1623 240 1
0 13 -11 895 206 1
13 0 -11 996 212 1
13 0 -11 697 228 1
0 13 -10 4062 287 1
0 13 -10 4000 291 1
13 0 -10 4413 288 1
13 0 -10 4977 314 1
-13 0 -10 4442 271 1
0 13 -9 2205 221 1
0 13 -9 2223 206 1
13 0 -9 1721 202 1
-13 0 -9 1915 183 1
0 13 -8 10421 437 1
0 13 -8 10922 453 1
13 0 -8 10991 451 1
-13 0 -8 10771 436 1
13 0 -7 474 193 1
0 13 -7 301 155 1
0 13 -7 583 180 1
13 0 -7 134 171 1
-13 0 -7 89 162 1
0 13 -6 3883 214 1
13 0 -6 3326 243 1
0 13 -6 3340 232 1
13 0 -6 3457 238 1
-13 0 -6 3496 219 1
0 13 -5 104 164 1
13 0 -5 103 166 1
0 13 -5 45 136 1
13 0 -5 3 169 1
-13 0 -5 18 151 1
0 13 -4 3176 232 1
13 0 -4 3268 236 1
0 13 -4 3155 197 1
13 0 -4 3508 238 1
13 -13 -4 3175 215 1
-13 0 -4 3510 223 1
13 0 -3 130 161 1
13 -13 -3 0 150 1
13 0 -3 10 164 1
-13 0 -3 134 143 1
0 13 -2 15060 584 1
13 0 -2 14991 597 1
13 0 -2 16214 603 1
-13 0 -2 15396 590 1
13 -13 -2 14561 582 1
13 0 -1 4386 231 1
0 13 -1 4122 209 1
13 -13 -1 4091 217 1
-13 0 -1 4191 216 1
13 0 0 12380 542 1
0 13 0 14963 524 1
13 -13 0 12580 535 1
0 13 1 4142 199 1
13 0 1 4161 231 1
13 0 1 4277 239 1
13 -13 1 4444 231 1
-13 0 1 4795 226 1
13 -13 2 15100 598 1
-13 0 2 15627 593 1
13 0 2 15248 602 1
13 0 2 15249 600 1
13 0 3 64 160 1
13 0 3 21 156 1
-13 0 3 167 143 1
13 0 4 3331 240 1
13 0 4 3036 229 1
-13 0 4 3928 234 1
13 0 5 3 167 1
13 0 5 31 165 1
13 0 6 3621 231 1
13 0 6 3971 249 1
13 0 7 263 164 1
13 0 7 75 167 1
13 0 8 10528 438 1
-7 14 -12 829 207 1
14 -7 -12 826 209 1
7 7 -12 1192 217 1
7 7 -12 641 219 1
7 7 -10 12084 533 1
7 7 -10 13008 543 1
14 -7 -10 12189 538 1
-7 14 -10 13463 531 1
7 7 -8 12395 538 1
7 7 -8 12573 538 1
14 -7 -8 12173 536 1
7 7 -6 8749 384 1
14 -7 -6 9244 374 1
14 -7 -6 9583 401 1
7 7 -4 1779 177 1
14 -7 -4 1118 151 1
14 -7 -4 1257 174 1
7 7 -4 1198 164 1
7 7 -2 28605 995 1
14 -7 -2 28260 1000 1
7 7 -2 26786 982 1
14 -7 -2 27475 992 1
-7 14 0 88643 2984 1
7 7 0 90966 3002 1
14 -7 0 86664 3007 1
14 -7 0 88625 3002 1
7 7 0 86890 2991 1
7 7 2 25842 925 1
7 7 4 1281 160 1
14 -7 4 1559 182 1
-7 -7 6 9691 383 1
7 7 6 9689 386 1
14 -7 6 9372 414 1
-6 14 -13 1570 228 1
14 -6 -13 1200 227 1
6 8 -13 1179 230 1
8 6 -13 1356 224 1
6 8 -13 886 239 1
8 6 -13 1731 253 1
-8 14 -13 1349 227 1
-6 14 -12 233 190 1
14 -6 -12 37 209 1
6 8 -12 217 217 1
14 -8 -12 78 199 1
8 6 -12 9 210 1
6 8 -12 167 217 1
8 6 -12 107 204 1
-8 14 -12 1 179 1
-6 14 -11 53 183 1
-6 14 -11 246 184 1
6 8 -11 216 190 1
8 6 -11 1 188 1
14 -8 -11 299 191 1
6 8 -11 317 204 1
8 6 -11 94 196 1
14 -6 -11 106 191 1
-8 14 -11 1 178 1
-6 14 -10 501 179 1
14 -6 -10 751 204 1
6 8 -10 729 189 1
-6 14 -10 915 198 1
8 6 -10 441 201 1
14 -8 -10 573 197 1
6 8 -10 551 197 1
8 6 -10 546 201 1
-6 14 -9 13 164 1
-6 14 -9 170 170 1
6 8 -9 99 176 1
14 -6 -9 361 187 1
8 6 -9 34 182 1
14 -8 -9 195 173 1
6 8 -9 75 184 1
8 6 -9 143 178 1
-6 14 -8 349 168 1
6 8 -8 381 175 1
8 6 -8 316 168 1
14 -6 -8 594 188 1
14 -8 -8 302 180 1
6 8 -8 296 176 1
8 6 -8 384 184 1
-6 14 -8 319 153 1
8 6 -7 701 174 1
14 -6 -7 706 183 1
14 -8 -7 612 174 1
6 8 -7 754 167 1
-6 14 -7 758 162 1
14 -6 -7 882 156 1
8 6 -7 1052 179 1
-6 14 -7 937 146 1
-6 14 -6 218 156 1
6 8 -6 596 164 1
14 -6 -6 343 177 1
6 8 -6 122 152 1
14 -8 -6 475 169 1
14 -6 -6 144 151 1
14 -8 -6 529 145 1
8 6 -6 336 161 1
-6 14 -6 439 138 1
-6 14 -5 7009 307 1
14 -8 -5 7035 323 1
6 8 -5 7564 325 1
6 8 -5 6943 312 1
8 6 -5 7422 321 1
14 -6 -5 6940 313 1
14 -8 -5 6825 307 1
-6 14 -5 6498 297 1
14 -6 -5 7082 329 1
-6 14 -4 7227 304 1
14 -6 -4 6877 322 1
8 6 -4 7506 321 1
6 8 -4 6631 305 1
8 6 -4 7172 314 1
14 -8 -4 6818 321 1
14 -6 -4 6534 306 1
14 -8 -4 6420 305 1
6 8 -4 7678 319 1
-6 14 -3 3817 203 1
6 8 -3 3911 223 1
8 6 -3 4681 224 1
14 -8 -3 4608 234 1
6 8 -3 4120 208 1
8 6 -3 4002 209 1
14 -8 -3 4207 216 1
14 -6 -3 3766 215 1
14 -6 -3 4244 230 1
8 6 -2 1072 153 1
-6 14 -2 965 139 1
14 -8 -2 821 163 1
6 8 -2 1199 158 1
8 6 -2 1156 161 1
14 -6 -2 1273 169 1
14 -8 -2 1031 154 1
6 8 -2 1471 149 1
14 -6 -2 1020 164 1
-6 14 -1 1038 152 1
14 -6 -1 1150 177 1
8 6 -1 1192 159 1
6 8 -1 1119 172 1
14 -8 -1 886 173 1
8 6 -1 1122 168 1
6 8 -1 1052 153 1
14 -6 -1 1027 172 1
14 -8 -1 1305 169 1
-6 14 0 3325 149 1
6 8 0 3234 158 1
8 6 0 2859 165 1
6 8 0 2745 178 1
8 6 0 2943 186 1
14 -8 0 3203 191 1
14 -6 0 3055 194 1
14 -8 0 3598 184 1
14 -8 1 877 177 1
8 6 1 1290 162 1
6 8 1 1049 161 1
8 6 1 1217 174 1
14 -6 1 1135 176 1
14 -8 2 1274 169 1
6 8 2 1048 151 1
8 6 2 1188 158 1
8 6 2 1131 139 1
14 -6 2 1188 165 1
14 -6 2 1367 177 1
6 8 3 4537 227 1
8 6 3 4504 232 1
14 -6 3 4839 245 1
14 -6 3 5159 246 1
14 -6 4 7789 326 1
6 8 4 6492 300 1
8 6 4 5972 305 1
-8 -6 4 7585 303 1
6 8 5 7373 297 1
14 -8 5 6990 321 1
8 6 5 6407 302 1
14 -6 5 6369 316 1
-8 -6 5 6818 297 1
-8 -6 6 549 135 1
14 -6 6 376 171 1
14 -8 6 403 159 1
8 6 6 448 145 1
-6 -8 6 246 127 1
14 -8 7 981 189 1
14 -6 7 642 182 1
8 6 7 1004 158 1
-8 -6 7 808 147 1
14 -6 8 3 192 1
-5 14 -13 70 185 1
14 -5 -13 253 214 1
-9 14 -13 349 205 1
5 9 -13 0 207 1
9 5 -13 0 217 1
5 9 -13 356 212 1
-5 14 -12 3616 257 1
14 -5 -12 3508 274 1
5 9 -12 4493 281 1
5 9 -12 3760 276 1
9 5 -12 3492 271 1
-9 14 -12 4065 264 1
9 5 -12 3171 270 1
-5 14 -11 11 184 1
-5 14 -11 129 188 1
5 9 -11 7 208 1
9 5 -11 67 193 1
14 -9 -11 164 192 1
5 9 -11 7 207 1
9 5 -11 43 197 1
14 -5 -11 8 195 1
-5 14 -10 6055 329 1
5 9 -10 6155 333 1
5 9 -10 6006 329 1
9 5 -10 6260 337 1
9 5 -10 6883 345 1
14 -5 -10 5898 336 1
-5 14 -10 6140 322 1
14 -9 -10 6201 330 1
-5 14 -9 99 162 1
-5 14 -9 58 168 1
14 -5 -9 33 186 1
5 9 -9 222 193 1
9 5 -9 3 180 1
5 9 -9 18 177 1
14 -9 -9 124 182 1
9 5 -9 42 198 1
-5 14 -8 7795 342 1
5 9 -8 6708 341 1
9 5 -8 7232 350 1
-14 5 -8 7012 313 1
9 5 -8 7050 346 1
14 -5 -8 7092 327 1
14 -5 -8 7243 353 1
-5 14 -8 7493 333 1
14 -9 -8 7380 348 1
-5 14 -7 13 163 1
5 9 -7 51 172 1
14 -5 -7 13 183 1
9 5 -7 11 171 1
5 9 -7 16 164 1
14 -5 -7 73 156 1
14 -9 -7 16 165 1
9 5 -7 16 174 1
-5 14 -7 18 141 1
-14 5 -7 2 127 1
-5 14 -6 16565 634 1
14 -9 -6 15822 641 1
5 9 -6 14548 635 1
9 5 -6 16272 645 1
5 9 -6 15647 635 1
9 5 -6 16802 647 1
14 -5 -6 15513 636 1
14 -5 -6 16036 650 1
-5 14 -6 15401 624 1
-14 5 -6 15374 624 1
-5 14 -5 3125 219 1
5 9 -5 3480 225 1
14 -9 -5 3456 236 1
5 9 -5 3120 220 1
9 5 -5 3461 230 1
14 -5 -5 3352 224 1
14 -9 -5 3197 211 1
-5 14 -5 3344 208 1
-14 5 -5 3406 209 1
14 -5 -5 3573 247 1
-5 14 -4 9794 408 1
5 9 -4 9146 416 1
14 -9 -4 9263 422 1
5 9 -4 9438 409 1
14 -5 -4 9425 417 1
9 5 -4 9434 419 1
14 -9 -4 8931 406 1
-5 14 -4 9461 401 1
-14 5 -4 9789 410 1
14 -5 -4 10047 431 1
9 5 -3 1574 167 1
-5 14 -3 1731 151 1
14 -9 -3 1457 180 1
5 9 -3 1498 172 1
9 5 -3 1526 165 1
5 9 -3 1543 151 1
14 -5 -3 1358 166 1
14 -5 -3 1839 184 1
14 -9 -3 1638 153 1
-5 14 -3 1381 136 1
-5 14 -2 7975 366 1
5 9 -2 7761 380 1
9 5 -2 7785 383 1
5 9 -2 7994 366 1
14 -9 -2 7750 388 1
14 -5 -2 7447 382 1
9 5 -2 8070 376 1
14 -9 -2 8323 379 1
-5 14 -1 1692 158 1
9 5 -1 1994 177 1
5 9 -1 2141 184 1
9 5 -1 2032 185 1
14 -9 -1 2041 195 1
14 -5 -1 1887 192 1
5 9 -1 1839 157 1
-5 14 0 14398 538 1
5 9 0 15180 557 1
9 5 0 13927 561 1
14 -5 0 13264 566 1
14 -5 0 13696 561 1
14 -9 0 14409 566 1
9 5 0 14038 552 1
14 -9 1 1980 189 1
14 -5 1 2140 190 1
5 9 1 1739 171 1
9 5 1 1945 171 1
9 5 1 1685 184 1
14 -5 1 2050 191 1
14 -9 2 7880 395 1
9 5 2 8817 382 1
5 9 2 8111 379 1
9 5 2 7211 388 1
14 -5 2 8480 400 1
14 -5 2 8300 396 1
14 -5 3 1446 178 1
9 5 3 1600 151 1
5 9 3 1471 157 1
9 5 3 1612 168 1
14 -5 3 1007 170 1
-9 -5 3 1454 153 1
14 -9 3 1827 181 1
-9 -5 4 10456 423 1
5 9 4 9705 415 1
14 -9 4 8665 433 1
9 5 4 10388 430 1
14 -5 4 9708 438 1
14 -5 5 3532 231 1
9 5 5 2963 219 1
-9 -5 5 3066 209 1
14 -5 6 15439 647 1
9 5 6 14884 630 1
-9 -5 6 16625 626 1
14 -5 7 63 179 1
9 5 7 16 150 1
-9 -5 7 15 133 1
9 5 8 6867 321 1
14 -5 8 7055 346 1
14 -4 -13 1615 247 1
4 10 -13 2166 248 1
10 4 -13 1653 241 1
4 10 -13 1744 241 1
-4 14 -13 1615 238 1
14 -4 -12 635 215 1
-4 14 -12 1100 203 1
4 10 -12 742 219 1
10 4 -12 1218 219 1
4 10 -12 759 216 1
-4 14 -11 3866 270 1
4 10 -11 4599 289 1
14 -4 -11 3824 282 1
10 4 -11 4208 273 1
4 10 -11 3958 273 1
10 4 -11 3744 276 1
-4 14 -11 3968 271 1
-4 14 -10 1927 206 1
-4 14 -10 1546 196 1
14 -4 -10 1861 228 1
4 10 -10 1938 219 1
10 4 -10 1858 219 1
4 10 -10 1987 215 1
10 4 -10 1715 222 1
14 -10 -9 9588 429 1
4 10 -9 9331 435 1
10 4 -9 10142 438 1
14 -4 -9 10482 425 1
10 4 -9 9157 440 1
14 -4 -9 9642 447 1
-4 14 -9 9827 430 1
-4 14 -9 10090 428 1
-4 14 -8 4296 242 1
14 -10 -8 4113 244 1
4 10 -8 4009 255 1
10 4 -8 3616 244 1
14 -4 -8 4049 227 1
10 4 -8 4040 252 1
4 10 -8 3774 240 1
14 -4 -8 4148 255 1
-14 4 -8 4017 220 1
-4 14 -8 3961 228 1
-4 14 -7 9674 415 1
4 10 -7 9257 423 1
14 -10 -7 9945 422 1
4 10 -7 10932 422 1
10 4 -7 9760 424 1
14 -4 -7 9106 415 1
10 4 -7 9533 426 1
14 -4 -7 9979 430 1
-14 4 -7 10433 408 1
-4 14 -7 9273 406 1
-4 14 -6 1914 171 1
-4 14 -6 2190 191 1
4 10 -6 1824 192 1
14 -4 -6 2503 222 1
10 4 -6 2089 198 1
4 10 -6 2022 191 1
10 4 -6 2096 195 1
14 -4 -6 2491 204 1
14 -10 -6 2331 196 1
-14 4 -6 2224 176 1
-4 14 -5 9189 404 1
4 10 -5 9426 410 1
4 10 -5 9589 404 1
10 4 -5 9423 411 1
14 -10 -5 10104 416 1
14 -4 -5 9813 413 1
10 4 -5 9080 413 1
14 -4 -5 9228 424 1
-4 14 -5 9754 393 1
-14 4 -5 9839 402 1
10 4 -4 462 162 1
-4 14 -4 160 118 1
14 -10 -4 0 159 1
4 10 -4 139 140 1
-4 14 -4 334 142 1
14 -4 -4 86 171 1
4 10 -4 104 142 1
14 -4 -4 477 162 1
-14 4 -4 80 143 1
-4 14 -3 7583 316 1
4 10 -3 7330 326 1
4 10 -3 7907 316 1
10 4 -3 7340 327 1
14 -10 -3 7328 333 1
14 -4 -3 7327 330 1
10 4 -3 7476 330 1
-14 4 -3 8058 322 1
-4 14 -3 7761 301 1
-4 14 -2 6267 257 1
4 10 -2 7334 279 1
10 4 -2 6023 276 1
4 10 -2 6069 256 1
14 -4 -2 5722 273 1
14 -10 -2 6576 283 1
10 4 -2 6783 282 1
-14 4 -2 6894 270 1
-14 4 -1 22772 837 1
-4 14 -1 22007 826 1
14 -4 -1 22917 851 1
4 10 -1 22431 838 1
10 4 -1 23507 846 1
14 -4 -1 21627 842 1
14 -10 -1 22507 846 1
10 4 -1 22113 840 1
-4 14 0 4742 200 1
4 10 0 4686 220 1
14 -4 0 4859 235 1
10 4 0 4743 222 1
14 -4 0 4396 232 1
14 -10 0 5090 243 1
10 4 0 4514 224 1
4 10 1 23136 835 1
10 4 1 21341 836 1
10 4 1 21390 843 1
14 -4 1 22677 851 1
14 -4 1 23315 850 1
-10 -4 1 22598 839 1
14 -10 1 23043 850 1
10 4 2 6862 267 1
14 -10 2 6160 283 1
4 10 2 5958 264 1
10 4 2 6611 288 1
14 -4 2 6353 287 1
14 -4 2 6504 286 1
-10 -4 2 6974 272 1
10 4 3 7786 324 1
4 10 3 6888 314 1
14 -10 3 8177 345 1
10 4 3 7637 336 1
14 -4 3 8294 348 1
-10 -4 3 7797 325 1
14 -4 4 0 163 1
10 4 4 464 137 1
10 4 4 0 150 1
14 -4 4 232 166 1
-10 -4 4 202 142 1
14 -10 4 169 163 1
-10 -4 5 9838 405 1
10 4 5 9233 408 1
14 -4 5 8664 416 1
14 -4 5 10119 427 1
14 -10 5 9798 425 1
14 -4 6 2441 212 1
-10 -4 6 2190 181 1
10 4 6 2014 191 1
-10 -4 7 10073 397 1
14 -4 7 8770 420 1
10 4 7 9290 405 1
10 4 8 4477 237 1
14 -4 8 4049 261 1
-3 14 -12 507 214 1
3 11 -12 645 220 1
14 -3 -12 630 218 1
11 3 -12 493 208 1
3 11 -12 871 202 1
14 -3 -11 1106 220 1
-3 14 -11 1740 218 1
-3 14 -11 1419 208 1
3 11 -11 1819 231 1
11 3 -11 1404 217 1
3 11 -11 1391 209 1
-3 14 -10 1589 218 1
14 -3 -10 1291 218 1
-3 14 -10 966 198 1
11 3 -10 1276 211 1
3 11 -10 1261 206 1
14 -3 -10 1389 197 1
11 3 -10 1250 226 1
-3 14 -9 3464 264 1
-3 14 -9 4251 262 1
3 11 -9 3763 274 1
11 3 -9 4184 276 1
14 -3 -9 3961 263 1
11 3 -9 3701 281 1
14 -3 -9 3829 283 1
-14 3 -9 3678 246 1
3 11 -9 4035 267 1
-14 3 -8 1057 168 1
-3 14 -8 1103 191 1
-3 14 -8 1365 174 1
14 -3 -8 1359 204 1
3 11 -8 1271 203 1
11 3 -8 1238 208 1
3 11 -8 1325 185 1
14 -11 -8 1382 184 1
14 -3 -8 1719 192 1
11 3 -8 1586 212 1
-3 14 -7 6961 314 1
3 11 -7 7125 320 1
3 11 -7 6213 307 1
14 -11 -7 6887 308 1
11 3 -7 6956 323 1
14 -3 -7 6446 309 1
11 3 -7 6710 321 1
-3 14 -7 6180 295 1
14 -3 -7 6258 322 1
-14 3 -7 6919 299 1
14 -11 -6 394 169 1
-3 14 -6 179 162 1
-3 14 -6 193 143 1
3 11 -6 150 184 1
14 -3 -6 297 194 1
11 3 -6 446 169 1
3 11 -6 433 158 1
14 -3 -6 533 168 1
-14 3 -6 296 149 1
11 3 -6 331 165 1
11 3 -5 10 162 1
-3 14 -5 80 127 1
-3 14 -5 238 159 1
14 -11 -5 6 154 1
3 11 -5 99 162 1
11 3 -5 402 172 1
3 11 -5 144 143 1
14 -3 -5 176 157 1
-14 3 -5 4 150 1
11 3 -4 302 160 1
-3 14 -4 458 121 1
3 11 -4 399 155 1
14 -11 -4 382 153 1
11 3 -4 351 154 1
3 11 -4 252 138 1
14 -3 -4 178 165 1
-14 3 -4 409 142 1
-3 14 -3 3523 210 1
3 11 -3 3492 224 1
11 3 -3 3031 234 1
3 11 -3 3372 198 1
14 -3 -3 3501 231 1
14 -11 -3 3526 228 1
-14 3 -3 3582 216 1
14 -3 -3 3514 236 1
-3 14 -2 3236 195 1
3 11 -2 3176 203 1
11 3 -2 2714 210 1
11 3 -2 2951 208 1
14 -11 -2 3140 210 1
14 -3 -2 2798 212 1
14 -3 -2 3491 226 1
-14 3 -2 3272 198 1
11 -14 -2 3079 183 1
-3 14 -1 9116 380 1
14 -3 -1 9200 409 1
3 11 -1 10081 394 1
11 3 -1 9274 400 1
14 -3 -1 9194 398 1
14 -11 -1 10081 403 1
11 3 -1 8449 395 1
-11 -3 -1 8794 390 1
-14 3 -1 9499 389 1
-3 14 0 4073 203 1
3 11 0 4090 228 1
14 -3 0 4248 247 1
11 3 0 3906 233 1
14 -3 0 3877 236 1
-11 -3 0 3875 223 1
-14 3 0 4344 224 1
11 3 0 3720 231 1
14 -11 0 4023 244 1
11 3 1 7925 381 1
14 -11 1 9085 399 1
3 11 1 9697 375 1
14 -3 1 9054 397 1
11 3 1 9520 394 1
14 -3 1 8876 391 1
-11 -3 1 8799 378 1
3 11 2 3412 187 1
14 -3 2 3104 209 1
11 3 2 2850 207 1
11 3 2 2855 203 1
-11 -3 2 2522 193 1
14 -11 2 3103 217 1
3 11 3 3261 195 1
11 3 3 2965 206 1
11 3 3 3535 227 1
-11 -3 3 3219 212 1
14 -3 3 3134 229 1
14 -3 3 2972 225 1
14 -11 3 3250 227 1
14 -3 4 174 171 1
11 3 4 143 148 1
11 3 4 389 162 1
-11 -3 4 348 149 1
14 -3 4 155 156 1
14 -11 4 427 173 1
14 -3 5 4 176 1
-11 -3 5 190 150 1
11 3 5 53 138 1
11 3 5 116 168 1
14 -3 5 87 172 1
-11 -3 6 452 149 1
11 3 6 480 164 1
14 -3 6 379 168 1
14 -3 6 368 175 1
14 -3 7 5912 305 1
11 3 7 6618 305 1
14 -3 8 1185 200 1
11 3 8 1656 193 1
14 -3 9 3497 271 1
11 3 9 3956 260 1
14 -2 -12 1 215 1
2 12 -12 1 216 1
-2 14 -12 1 200 1
2 12 -12 308 212 1
12 2 -12 229 213 1
12 2 -12 34 223 1
14 -2 -11 785 226 1
-2 14 -11 576 214 1
-2 14 -11 444 203 1
2 12 -11 554 209 1
12 2 -11 445 198 1
14 -2 -11 521 192 1
14 -2 -10 269 202 1
-2 14 -10 118 194 1
-2 14 -10 78 178 1
2 12 -10 269 195 1
12 2 -10 318 196 1
14 -2 -10 388 189 1
14 -2 -9 14 206 1
-2 14 -9 219 179 1
2 12 -9 23 191 1
2 12 -9 0 183 1
12 2 -9 143 186 1
14 -2 -9 154 178 1
-2 14 -9 144 186 1
-14 2 -9 2 165 1
12 2 -9 234 203 1
-2 14 -8 448 190 1
14 -2 -8 0 188 1
-2 14 -8 306 161 1
2 12 -8 220 186 1
2 12 -8 0 174 1
12 2 -8 43 177 1
14 -2 -8 201 176 1
-14 2 -8 0 167 1
12 2 -8 0 201 1
12 2 -7 38 176 1
-2 14 -7 6 174 1
-2 14 -7 97 145 1
14 -2 -7 51 192 1
2 12 -7 6 183 1
2 12 -7 6 157 1
12 2 -7 71 176 1
14 -2 -7 1 173 1
-14 2 -7 6 152 1
12 2 -6 5 176 1
-2 14 -6 110 156 1
2 12 -6 255 178 1
14 -12 -6 4 158 1
2 12 -6 236 155 1
12 2 -6 54 173 1
14 -2 -6 72 176 1
-2 14 -6 177 145 1
-14 2 -6 329 155 1
12 2 -5 830 184 1
-2 14 -5 1079 149 1
2 12 -5 766 181 1
2 12 -5 705 143 1
12 2 -5 732 180 1
14 -12 -5 850 163 1
14 -2 -5 699 174 1
-2 14 -5 986 170 1
-14 2 -5 878 156 1
-2 14 -4 264 152 1
12 2 -4 140 169 1
-2 14 -4 208 122 1
2 12 -4 2 151 1
14 -2 -4 219 172 1
2 12 -4 175 141 1
12 2 -4 17 172 1
14 -2 -4 97 169 1
14 -12 -4 95 159 1
-14 2 -4 106 151 1
14 -12 -3 364 163 1
-2 14 -3 394 153 1
2 12 -3 274 156 1
12 2 -3 307 163 1
14 -2 -3 330 170 1
12 2 -3 176 162 1
14 -2 -3 85 169 1
-12 -2 -3 276 147 1
-14 2 -3 237 152 1
12 -14 -2 740 138 1
-2 14 -2 495 143 1
14 -12 -2 1068 168 1
2 12 -2 802 153 1
12 2 -2 633 167 1
-14 2 -2 875 159 1
14 -2 -2 581 180 1
14 -2 -2 818 170 1
-12 -2 -2 780 149 1
12 -14 -1 570 150 1
-2 14 -1 530 139 1
2 12 -1 444 151 1
12 2 -1 691 174 1
14 -12 -1 666 163 1
12 2 -1 567 162 1
14 -2 -1 376 159 1
14 -2 -1 263 173 1
-14 2 -1 473 146 1
14 -2 0 570 165 1
-2 14 0 313 126 1
2 12 0 416 137 1
12 2 0 595 164 1
12 2 0 715 165 1
14 -2 0 579 164 1
14 -12 0 478 155 1
-12 -2 0 867 146 1
-14 2 0 589 146 1
14 -2 1 514 174 1
14 -12 1 575 169 1
2 12 1 385 144 1
12 2 1 609 167 1
12 2 1 453 162 1
-12 -2 1 688 154 1
12 2 2 899 168 1
14 -2 2 484 167 1
2 12 2 975 142 1
-14 2 2 913 150 1
12 2 2 562 162 1
-12 -2 2 688 148 1
14 -12 2 640 170 1
12 2 3 55 153 1
14 -2 3 241 166 1
12 2 3 301 164 1
14 -2 3 208 165 1
14 -12 3 270 171 1
-12 -2 3 407 163 1
14 -12 4 94 184 1
12 2 4 119 158 1
12 2 4 25 168 1
14 -2 4 16 176 1
-12 -2 4 110 158 1
14 -2 4 116 169 1
14 -2 5 796 172 1
12 2 5 671 173 1
14 -2 5 826 177 1
-12 -2 5 596 152 1
12 2 5 864 158 1
12 2 6 228 157 1
14 -2 6 167 165 1
12 2 6 171 174 1
14 -2 6 267 175 1
-12 -2 6 244 155 1
14 -2 7 91 174 1
12 2 7 4 176 1
14 -2 8 55 175 1
12 2 8 387 186 1
14 -2 9 118 189 1
14 -1 -12 1286 235 1
13 1 -12 1379 243 1
-1 14 -12 1604 219 1
1 13 -12 1941 233 1
13 1 -12 1600 228 1
14 -1 -11 24 218 1
-1 14 -11 205 213 1
-1 14 -11 26 198 1
1 13 -11 110 198 1
13 1 -11 28 202 1
14 -1 -11 26 202 1
13 1 -11 145 220 1
14 -1 -10 3119 250 1
-1 14 -10 3093 247 1
1 13 -10 2758 256 1
-1 14 -10 2919 236 1
1 13 -10 3044 239 1
13 1 -10 3280 246 1
14 -1 -10 3250 251 1
-14 1 -10 3043 222 1
14 -1 -9 5 196 1
-1 14 -9 332 190 1
1 13 -9 157 201 1
-1 14 -9 156 180 1
1 13 -9 9 184 1
13 1 -9 40 189 1
14 -1 -9 5 193 1
-14 1 -9 346 169 1
13 1 -8 2014 229 1
-1 14 -8 2439 220 1
1 13 -8 2468 228 1
-1 14 -8 2163 209 1
1 13 -8 2210 210 1
13 1 -8 2320 227 1
14 -1 -8 2204 227 1
-14 1 -8 2128 198 1
13 1 -7 722 203 1
-1 14 -7 405 179 1
1 13 -7 786 183 1
-1 14 -7 579 168 1
1 13 -7 760 168 1
13 1 -7 674 193 1
14 -1 -7 1124 188 1
-14 1 -7 748 170 1
-1 14 -6 46 176 1
1 13 -6 10 164 1
14 -1 -6 171 178 1
-1 14 -6 11 134 1
13 1 -6 82 194 1
1 13 -6 10 154 1
-13 -1 -6 61 150 1
13 1 -6 105 172 1
-14 1 -6 63 161 1
14 -1 -6 4 172 1
-1 14 -5 9 166 1
13 1 -5 1 182 1
1 13 -5 153 164 1
-1 14 -5 0 147 1
14 -1 -5 73 191 1
-13 -1 -5 104 155 1
1 13 -5 1 150 1
13 1 -5 1 174 1
14 -1 -5 0 178 1
-14 1 -5 37 167 1
14 -13 -5 175 163 1
14 -13 -4 312 162 1
-1 14 -4 285 159 1
1 13 -4 260 165 1
13 1 -4 440 183 1
14 -1 -4 61 169 1
-14 1 -4 617 172 1
13 1 -4 328 169 1
14 -1 -4 362 179 1
-13 -1 -4 145 157 1
-1 14 -3 1 150 1
1 13 -3 0 152 1
14 -13 -3 9 163 1
13 1 -3 10 183 1
14 -1 -3 35 182 1
13 1 -3 0 180 1
14 -1 -3 315 172 1
-13 -1 -3 63 155 1
-14 1 -3 259 159 1
13 -14 -3 121 146 1
-1 14 -2 1786 178 1
1 13 -2 2496 185 1
13 -14 -2 1953 181 1
13 1 -2 2175 198 1
14 -13 -2 2008 185 1
13 1 -2 2213 198 1
14 -1 -2 1697 198 1
14 -1 -2 2119 195 1
-13 -1 -2 2328 185 1
-14 1 -2 2355 189 1
13 -14 -1 24 147 1
1 13 -1 0 146 1
-1 14 -1 214 142 1
13 1 -1 0 169 1
14 -1 -1 0 174 1
14 -1 -1 0 171 1
14 -13 -1 0 157 1
-14 1 -1 0 153 1
13 1 0 5415 273 1
-1 14 0 5385 247 1
14 -1 0 4887 277 1
1 13 0 4885 247 1
14 -13 0 5708 275 1
13 1 0 6092 283 1
13 -14 0 5248 258 1
-13 -1 0 5170 261 1
14 -1 1 38 159 1
1 13 1 272 127 1
13 1 1 88 169 1
14 -13 1 28 162 1
13 1 1 108 161 1
-13 -1 1 97 157 1
-14 1 1 0 134 1
13 1 2 2258 201 1
14 -1 2 2066 200 1
13 1 2 2046 199 1
14 -1 2 2272 201 1
14 -13 2 2002 203 1
-13 -1 2 2411 195 1
-14 1 2 2565 193 1
13 1 3 181 167 1
14 -13 3 0 168 1
14 -1 3 272 185 1
-13 -1 3 62 150 1
13 1 3 126 162 1
14 -1 3 43 173 1
-14 1 3 95 155 1
13 1 4 1 161 1
13 1 4 191 175 1
14 -1 4 171 170 1
14 -1 4 123 164 1
-13 -1 4 342 154 1
13 1 5 1 168 1
14 -1 5 332 176 1
13 1 5 17 178 1
14 -1 5 45 182 1
-13 -1 5 113 157 1
13 1 6 10 165 1
14 -1 6 11 176 1
13 1 6 50 180 1
14 -1 6 11 182 1
14 -1 7 614 183 1
13 1 7 952 181 1
14 -1 7 563 195 1
14 -1 8 2265 219 1
13 1 8 2550 223 1
14 -1 9 5 176 1
0 14 -11 4441 300 1
0 14 -11 4291 284 1
14 0 -11 4849 297 1
14 0 -11 4358 305 1
14 0 -10 3581 281 1
0 14 -10 3691 273 1
0 14 -10 3792 253 1
14 0 -10 3359 259 1
-14 0 -10 3632 241 1
0 14 -9 10156 468 1
0 14 -9 10756 483 1
14 0 -9 11023 475 1
-14 0 -9 10390 460 1
0 14 -8 4381 272 1
14 0 -8 4246 291 1
0 14 -8 4491 294 1
-14 0 -8 4348 266 1
0 14 -7 5356 292 1
0 14 -7 5685 308 1
14 0 -7 5494 312 1
14 0 -7 5647 323 1
-14 0 -7 5295 291 1
0 14 -6 4356 253 1
0 14 -6 4352 269 1
14 0 -6 5850 299 1
14 0 -6 4553 296 1
-14 0 -6 4696 265 1
0 14 -5 4269 255 1
14 0 -5 4259 268 1
14 0 -5 3679 266 1
-14 0 -5 4613 255 1
14 0 -4 11130 497 1
0 14 -4 11948 489 1
-14 0 -4 10816 489 1
14 0 -4 10811 505 1
14 -14 -3 4741 278 1
14 0 -3 4726 295 1
14 0 -3 5391 311 1
0 14 -3 5350 284 1
-14 0 -3 5746 293 1
0 14 -2 7265 343 1
14 -14 -2 7231 345 1
14 0 -2 8182 366 1
-14 0 -2 7143 347 1
14 0 -2 7193 360 1
14 0 -1 17956 771 1
0 14 -1 17519 748 1
14 -14 -1 18108 759 1
-14 0 -1 19581 762 1
14 0 0 11314 522 1
0 14 0 11767 497 1
14 -14 0 11581 516 1
14 0 1 18862 785 1
14 0 1 18172 783 1
14 -14 1 18586 780 1
-14 0 1 19161 778 1
14 0 2 6913 353 1
14 0 2 6813 346 1
-14 0 2 7685 344 1
-14 0 3 5258 288 1
14 0 3 4916 300 1
14 0 3 5758 309 1
-14 0 4 11956 504 1
14 0 4 11788 518 1
14 0 4 11188 507 1
14 0 5 5166 287 1
14 0 5 4266 271 1
14 0 6 4421 289 1
14 0 6 4878 278 1
14 0 7 5098 296 1
14 0 7 5757 313 1
14 0 8 4524 293 1
-8 15 -12 3374 256 1
-7 15 -12 3374 252 1
-8 15 -12 3105 271 1
-7 15 -12 2936 260 1
15 -7 -12 3189 262 1
7 8 -12 2997 257 1
8 7 -12 3178 260 1
15 -8 -12 3282 264 1
7 8 -12 3416 271 1
8 7 -12 2749 266 1
-7 15 -11 0 202 1
7 8 -11 0 204 1
15 -7 -11 0 198 1
8 7 -11 14 203 1
15 -8 -11 0 214 1
7 8 -11 120 212 1
8 7 -11 0 220 1
-7 15 -11 126 189 1
-8 15 -11 0 189 1
-7 15 -10 1615 204 1
-7 15 -10 1851 214 1
7 8 -10 1126 213 1
8 7 -10 1320 215 1
15 -7 -10 1763 216 1
15 -8 -10 1375 223 1
7 8 -10 1322 216 1
8 7 -10 1439 226 1
-8 15 -10 1076 198 1
-7 15 -9 1648 205 1
7 8 -9 1930 210 1
8 7 -9 2103 220 1
-7 15 -9 2266 197 1
15 -7 -9 1714 221 1
15 -8 -9 1584 215 1
7 8 -9 1714 213 1
-8 15 -9 1733 195 1
8 7 -9 1817 212 1
-7 15 -8 3470 241 1
7 8 -8 3321 245 1
7 8 -8 3148 247 1
8 7 -8 3368 248 1
15 -7 -8 3365 255 1
8 7 -8 3662 248 1
15 -8 -8 3635 257 1
-7 15 -8 2812 221 1
-7 15 -7 794 175 1
15 -7 -7 744 194 1
15 -8 -7 591 191 1
7 8 -7 508 171 1
15 -7 -7 749 155 1
8 7 -7 528 185 1
-7 15 -7 879 157 1
-7 15 -6 10866 436 1
15 -7 -6 9895 449 1
15 -8 -6 9853 448 1
7 8 -6 10339 447 1
7 8 -6 10051 438 1
8 7 -6 10150 438 1
15 -7 -6 9753 430 1
15 -8 -6 9711 426 1
-7 15 -6 10081 425 1
-7 15 -5 755 162 1
7 8 -5 395 171 1
8 7 -5 854 175 1
15 -7 -5 589 180 1
15 -7 -5 600 167 1
7 8 -5 582 158 1
15 -8 -5 850 163 1
15 -8 -5 502 190 1
8 7 -5 546 179 1
-7 15 -4 13638 571 1
15 -7 -4 13767 591 1
15 -8 -4 14685 591 1
7 8 -4 14279 588 1
8 7 -4 15217 588 1
7 8 -4 14644 582 1
8 7 -4 13818 579 1
15 -7 -4 14613 581 1
15 -8 -4 14519 579 1
-7 15 -3 1477 153 1
15 -8 -3 1445 185 1
7 8 -3 1415 178 1
8 7 -3 1428 186 1
15 -7 -3 1820 186 1
15 -8 -3 1506 173 1
7 8 -3 1400 161 1
8 7 -3 1410 165 1
15 -7 -3 1615 192 1
-7 15 -2 14156 591 1
7 8 -2 14506 610 1
8 7 -2 14414 611 1
15 -7 -2 14531 620 1
15 -8 -2 14440 619 1
7 8 -2 14850 597 1
8 7 -2 13687 599 1
15 -7 -2 14295 611 1
15 -8 -2 14706 609 1
-7 15 -1 4591 231 1
7 8 -1 4382 256 1
8 7 -1 4740 261 1
15 -7 -1 4735 270 1
15 -8 -1 4653 266 1
7 8 -1 4176 235 1
15 -7 -1 4874 264 1
8 7 -1 4849 243 1
15 -8 -1 4676 257 1
8 7 0 963 148 1
7 8 0 812 165 1
8 7 0 1020 171 1
15 -7 0 731 168 1
15 -8 0 1286 179 1
15 -7 0 966 178 1
15 -8 0 806 170 1
7 8 1 4457 256 1
8 7 1 4369 257 1
15 -7 1 4688 265 1
15 -8 1 5085 270 1
7 8 2 14334 595 1
15 -7 2 14741 605 1
15 -8 2 13034 606 1
15 -7 3 1486 187 1
7 8 3 1430 168 1
8 7 3 1341 164 1
15 -7 4 14534 585 1
15 -8 4 13341 582 1
7 8 4 13752 565 1
8 7 4 14242 570 1
-8 -7 4 14210 562 1
15 -7 5 290 193 1
15 -8 5 621 178 1
7 8 5 555 157 1
8 7 5 466 159 1
-7 -8 5 510 142 1
-8 -7 5 649 147 1
15 -7 6 9793 455 1
8 7 6 10463 432 1
15 -8 6 10025 459 1
-7 -8 6 9715 425 1
-8 -7 6 10957 431 1
15 -7 7 507 191 1
15 -8 7 476 199 1
-6 15 -12 1725 221 1
-6 15 -12 2569 237 1
15 -6 -12 1751 237 1
6 9 -12 2034 243 1
9 6 -12 1792 244 1
6 9 -12 1794 246 1
9 6 -12 1751 249 1
-9 15 -12 2305 222 1
-6 15 -11 2727 237 1
-6 15 -11 2986 250 1
15 -6 -11 3013 264 1
6 9 -11 2947 256 1
9 6 -11 2908 250 1
15 -9 -11 3214 258 1
-9 15 -11 2880 238 1
6 9 -11 2778 252 1
9 6 -11 3365 262 1
-6 15 -10 603 188 1
-6 15 -10 873 196 1
6 9 -10 564 195 1
15 -6 -10 328 205 1
9 6 -10 505 218 1
15 -9 -10 498 201 1
6 9 -10 201 199 1
9 6 -10 833 211 1
-6 15 -9 4858 273 1
6 9 -9 3786 277 1
6 9 -9 3982 279 1
9 6 -9 3852 284 1
9 6 -9 4445 280 1
15 -6 -9 4318 286 1
-6 15 -9 4489 262 1
15 -9 -9 4076 274 1
-6 15 -8 166 158 1
-6 15 -8 234 181 1
9 6 -8 2 182 1
15 -6 -8 2 192 1
6 9 -8 118 174 1
15 -9 -8 228 186 1
9 6 -8 430 181 1
-6 15 -7 8452 373 1
15 -9 -7 7193 378 1
15 -6 -7 7710 384 1
6 9 -7 8663 378 1
9 6 -7 8393 386 1
9 6 -7 8210 382 1
15 -6 -7 8228 367 1
-6 15 -7 8714 367 1
6 9 -7 7922 371 1
-6 15 -6 828 167 1
6 9 -6 909 169 1
15 -6 -6 713 190 1
6 9 -6 855 166 1
15 -6 -6 959 172 1
15 -9 -6 1057 185 1
-6 15 -6 1114 161 1
9 6 -6 736 177 1
15 -6 -5 14969 592 1
-6 15 -5 14904 573 1
6 9 -5 14505 584 1
15 -9 -5 14350 590 1
6 9 -5 14582 575 1
9 6 -5 14237 577 1
15 -6 -5 14476 576 1
15 -9 -5 14626 571 1
-6 15 -5 15431 562 1
-6 15 -4 4436 251 1
15 -6 -4 4879 278 1
6 9 -4 4649 268 1
9 6 -4 4231 272 1
15 -9 -4 4759 277 1
6 9 -4 4881 256 1
9 6 -4 5084 265 1
15 -6 -4 4603 260 1
15 -9 -4 4359 254 1
-6 15 -4 4644 242 1
-6 15 -3 3810 207 1
6 9 -3 3873 233 1
9 6 -3 3629 227 1
15 -9 -3 4148 240 1
6 9 -3 3741 211 1
9 6 -3 3800 218 1
15 -9 -3 3716 221 1
15 -6 -3 3320 222 1
15 -6 -3 3438 232 1
15 -6 -2 1495 195 1
-6 15 -2 1234 152 1
9 6 -2 1629 168 1
6 9 -2 1324 168 1
15 -9 -2 1470 183 1
9 6 -2 1084 173 1
15 -6 -2 1586 186 1
15 -9 -2 996 166 1
6 9 -2 1483 158 1
-6 15 -1 3389 187 1
6 9 -1 3720 220 1
9 6 -1 3537 215 1
15 -6 -1 3577 222 1
15 -9 -1 3541 226 1
15 -9 -1 3574 216 1
9 6 -1 3221 208 1
9 6 0 1658 176 1
6 9 0 1605 191 1
9 6 0 2254 205 1
15 -6 0 1783 198 1
15 -9 0 2060 210 1
6 9 1 3596 208 1
9 6 1 3513 222 1
15 -6 1 3512 231 1
15 -6 1 3358 228 1
15 -9 1 3693 238 1
9 6 1 4283 213 1
15 -9 2 1395 181 1
6 9 2 1283 164 1
9 6 2 1300 167 1
15 -6 2 1467 176 1
15 -6 2 1189 184 1
15 -9 3 3857 234 1
15 -6 3 3629 231 1
6 9 3 3204 212 1
9 6 3 3407 222 1
15 -6 3 3549 225 1
-9 -6 3 3728 209 1
6 9 4 4966 253 1
9 6 4 4870 266 1
-9 -6 4 4633 256 1
15 -6 4 4747 285 1
15 -6 5 15447 616 1
9 6 5 14999 600 1
-9 -6 5 15770 594 1
15 -6 6 848 200 1
9 6 6 921 169 1
15 -9 6 1070 201 1
-9 -6 6 1090 158 1
9 6 7 7304 368 1
15 -6 7 7737 390 1
-9 -6 7 10020 368 1
15 -6 8 2 189 1
-5 15 -12 378 206 1
-5 15 -12 410 199 1
15 -5 -12 380 233 1
5 10 -12 409 209 1
10 5 -12 2 210 1
5 10 -12 2 219 1
10 5 -12 228 226 1
-5 15 -11 6165 349 1
5 10 -11 5982 345 1
5 10 -11 6620 348 1
10 5 -11 6555 356 1
10 5 -11 5894 351 1
15 -5 -11 6155 362 1
-5 15 -11 6586 348 1
-5 15 -10 1181 193 1
-5 15 -10 1761 225 1
15 -5 -10 999 219 1
5 10 -10 1173 216 1
10 5 -10 1543 222 1
5 10 -10 1463 221 1
15 -10 -10 1504 214 1
10 5 -10 1406 224 1
-5 15 -9 8926 391 1
15 -10 -9 8354 388 1
5 10 -9 8515 390 1
10 5 -9 8277 395 1
10 5 -9 8251 405 1
15 -5 -9 7518 400 1
-5 15 -9 8495 381 1
-5 15 -8 2639 209 1
-5 15 -8 2775 225 1
5 10 -8 2909 237 1
15 -5 -8 2836 244 1
10 5 -8 2642 224 1
5 10 -8 2867 228 1
15 -5 -8 2679 218 1
15 -10 -8 2904 230 1
10 5 -8 2469 230 1
-15 5 -8 2649 192 1
-5 15 -7 6347 321 1
5 10 -7 6300 330 1
15 -10 -7 6364 331 1
5 10 -7 5897 318 1
10 5 -7 5980 329 1
15 -5 -7 5870 318 1
10 5 -7 6477 337 1
15 -5 -7 6929 351 1
-5 15 -7 5875 307 1
-15 5 -7 6359 307 1
-5 15 -6 5453 300 1
5 10 -6 5261 306 1
15 -10 -6 6130 315 1
5 10 -6 5692 303 1
10 5 -6 5447 312 1
-5 15 -6 5877 289 1
15 -5 -6 6118 305 1
10 5 -6 5586 310 1
15 -5 -6 5210 319 1
-15 5 -6 5558 289 1
-5 15 -5 10807 458 1
5 10 -5 11255 469 1
5 10 -5 10705 459 1
15 -10 -5 10458 469 1
-5 15 -5 11194 451 1
15 -5 -5 11126 466 1
10 5 -5 11712 471 1
-15 5 -5 10997 454 1
15 -5 -5 10796 477 1
-5 15 -4 4747 241 1
15 -5 -4 4438 266 1
5 10 -4 4676 256 1
5 10 -4 4643 242 1
15 -10 -4 4380 259 1
15 -5 -4 4581 254 1
10 5 -4 4093 255 1
15 -10 -4 4541 233 1
-5 15 -4 4476 225 1
-15 5 -4 4789 246 1
-5 15 -3 3384 214 1
15 -5 -3 3740 238 1
10 5 -3 3007 231 1
5 10 -3 4038 236 1
10 5 -3 3600 240 1
5 10 -3 3221 208 1
15 -10 -3 3394 235 1
15 -5 -3 2950 225 1
-5 15 -2 126 141 1
10 5 -2 217 158 1
5 10 -2 246 165 1
10 5 -2 77 155 1
15 -10 -2 30 166 1
15 -5 -2 90 160 1
5 10 -2 115 139 1
-5 15 -1 15508 620 1
5 10 -1 15888 636 1
10 5 -1 16497 645 1
15 -5 -1 15806 641 1
15 -10 -1 15354 644 1
10 5 -1 16274 633 1
15 -10 0 3262 233 1
15 -5 0 3129 228 1
5 10 0 3197 215 1
10 5 0 3169 223 1
15 -5 0 3385 234 1
10 5 0 2750 209 1
5 10 1 16097 628 1
10 5 1 15524 637 1
15 -5 1 15950 645 1
15 -5 1 16337 644 1
15 -10 1 15802 648 1
10 5 1 15377 629 1
5 10 2 65 147 1
10 5 2 19 155 1
15 -10 2 57 173 1
15 -5 2 6 164 1
10 5 2 60 132 1
15 -5 2 90 159 1
-10 -5 2 56 146 1
15 -5 3 3329 242 1
15 -10 3 3692 242 1
5 10 3 3321 214 1
10 5 3 3186 229 1
15 -5 3 3312 238 1
-10 -5 3 3550 224 1
15 -10 4 4739 273 1
10 5 4 4755 259 1
-10 -5 4 4972 250 1
15 -5 4 4323 265 1
15 -5 5 11165 470 1
10 5 5 10162 452 1
15 -10 5 10151 468 1
-10 -5 5 11344 451 1
15 -5 6 5445 308 1
10 5 6 5644 298 1
-10 -5 6 5046 278 1
15 -5 7 6362 340 1
10 5 7 6335 321 1
-10 -5 7 5898 299 1
10 5 8 3035 219 1
15 -5 8 2794 240 1
-4 15 -12 3938 300 1
-4 15 -12 4153 290 1
15 -4 -12 3685 307 1
4 11 -12 4265 299 1
11 4 -12 4531 299 1
4 11 -12 4284 299 1
11 4 -12 3978 300 1
-4 15 -11 56 213 1
-4 15 -11 0 199 1
15 -4 -11 60 220 1
4 11 -11 0 211 1
11 4 -11 284 199 1
4 11 -11 68 206 1
11 4 -11 0 222 1
-4 15 -10 8122 412 1
4 11 -10 8230 408 1
11 4 -10 8559 412 1
11 4 -10 9231 436 1
15 -4 -10 8237 422 1
-4 15 -10 8506 401 1
-4 15 -9 32 187 1
-4 15 -9 0 172 1
15 -4 -9 0 203 1
4 11 -9 68 191 1
11 4 -9 91 193 1
4 11 -9 7 182 1
15 -4 -9 315 183 1
11 4 -9 7 202 1
-4 15 -8 14837 588 1
4 11 -8 14881 590 1
15 -11 -8 13891 584 1
4 11 -8 13551 583 1
11 4 -8 13688 593 1
15 -4 -8 13237 579 1
11 4 -8 14637 600 1
-4 15 -8 14729 576 1
15 -4 -8 13887 600 1
-15 4 -8 13538 570 1
15 -11 -7 5 182 1
-4 15 -7 2 154 1
-4 15 -7 6 173 1
4 11 -7 65 178 1
15 -4 -7 16 197 1
11 4 -7 143 195 1
4 11 -7 94 167 1
15 -4 -7 102 173 1
11 4 -7 17 175 1
-15 4 -7 54 158 1
-4 15 -6 9977 428 1
4 11 -6 11316 439 1
4 11 -6 10649 428 1
11 4 -6 10198 443 1
15 -11 -6 10363 438 1
15 -4 -6 10235 436 1
11 4 -6 9717 434 1
15 -4 -6 9950 447 1
-15 4 -6 10696 423 1
-4 15 -6 10007 414 1
11 4 -5 617 183 1
-4 15 -5 603 146 1
-4 15 -5 558 166 1
15 -11 -5 608 172 1
4 11 -5 450 163 1
11 4 -5 186 170 1
15 -4 -5 544 192 1
4 11 -5 535 150 1
15 -4 -5 638 170 1
-15 4 -5 542 155 1
-4 15 -4 6817 334 1
4 11 -4 7651 352 1
4 11 -4 7097 335 1
15 -11 -4 6904 347 1
15 -4 -4 7035 350 1
11 4 -4 7204 348 1
-15 4 -4 7155 334 1
-4 15 -3 111 151 1
11 4 -3 68 160 1
4 11 -3 1 157 1
11 4 -3 1 162 1
15 -11 -3 171 171 1
4 11 -3 95 134 1
15 -4 -3 200 176 1
-15 4 -3 77 149 1
-4 15 -2 17589 637 1
15 -4 -2 17583 664 1
4 11 -2 17745 652 1
11 4 -2 16625 655 1
15 -4 -2 17137 655 1
15 -11 -2 16101 653 1
11 4 -2 17644 654 1
-15 4 -2 17995 648 1
15 -11 -1 412 186 1
-4 15 -1 281 142 1
4 11 -1 444 162 1
11 4 -1 124 158 1
11 4 -1 101 164 1
15 -4 -1 424 163 1
15 -4 -1 394 182 1
4 11 0 34971 1317 1
15 -4 0 33230 1332 1
11 4 0 33622 1326 1
-11 -4 0 32692 1317 1
15 -4 0 34405 1328 1
15 -11 0 32400 1325 1
11 4 0 33293 1319 1
15 -4 1 453 178 1
4 11 1 429 145 1
11 4 1 223 165 1
15 -11 1 198 170 1
11 4 1 142 161 1
15 -4 1 413 169 1
-11 -4 1 221 155 1
11 4 2 18112 648 1
15 -11 2 17535 662 1
4 11 2 17383 641 1
11 4 2 16134 654 1
15 -4 2 17612 667 1
15 -4 2 17142 660 1
-11 -4 2 17656 649 1
11 4 3 1 153 1
4 11 3 1 138 1
15 -11 3 52 166 1
11 4 3 1 166 1
15 -4 3 324 181 1
-11 -4 3 233 161 1
11 4 4 7005 342 1
15 -11 4 6912 345 1
15 -4 4 6182 340 1
15 -4 4 7322 354 1
-11 -4 4 6730 333 1
15 -4 5 828 193 1
11 4 5 573 171 1
15 -11 5 415 190 1
15 -4 5 587 182 1
-11 -4 5 884 175 1
15 -4 6 10801 442 1
11 4 6 9658 428 1
-11 -4 6 10377 416 1
15 -4 7 65 192 1
11 4 7 2 170 1
-11 -4 7 17 146 1
11 4 8 13895 575 1
15 -4 8 13726 585 1
15 -4 9 43 198 1
-3 15 -11 2490 248 1
15 -3 -11 2144 265 1
-3 15 -11 1894 236 1
12 3 -11 2145 237 1
3 12 -11 2099 242 1
12 3 -11 2175 249 1
-3 15 -10 95 197 1
-3 15 -10 251 191 1
15 -3 -10 36 214 1
12 3 -10 336 197 1
3 12 -10 0 195 1
15 -3 -10 1 194 1
12 3 -10 331 211 1
-3 15 -9 5101 290 1
3 12 -9 5246 301 1
3 12 -9 4918 284 1
12 3 -9 5357 297 1
15 -3 -9 4814 283 1
12 3 -9 4918 295 1
15 -3 -9 5537 312 1
-15 3 -9 5037 263 1
-3 15 -9 5645 278 1
-3 15 -8 311 187 1
-3 15 -8 464 172 1
3 12 -8 0 202 1
15 -3 -8 184 193 1
12 3 -8 465 197 1
3 12 -8 141 175 1
15 -3 -8 200 173 1
12 3 -8 107 196 1
-15 3 -8 246 159 1
12 3 -7 3319 278 1
-3 15 -7 3902 264 1
3 12 -7 3555 267 1
3 12 -7 3367 251 1
12 3 -7 3858 276 1
15 -12 -7 3633 261 1
15 -3 -7 3518 264 1
15 -3 -7 3790 287 1
-15 3 -7 3875 250 1
-3 15 -7 3932 249 1
12 3 -6 227 185 1
-3 15 -6 301 182 1
-3 15 -6 300 144 1
3 12 -6 284 178 1
15 -12 -6 484 174 1
15 -3 -6 512 192 1
12 3 -6 521 185 1
3 12 -6 461 159 1
15 -3 -6 43 176 1
-15 3 -6 343 168 1
12 3 -5 559 181 1
-3 15 -5 640 164 1
-3 15 -5 667 149 1
3 12 -5 900 181 1
15 -12 -5 499 174 1
12 3 -5 513 188 1
3 12 -5 830 157 1
15 -3 -5 464 180 1
-15 3 -5 591 167 1
-15 3 -4 234 167 1
-3 15 -4 340 164 1
12 3 -4 310 176 1
3 12 -4 276 163 1
12 3 -4 67 181 1
3 12 -4 118 144 1
15 -3 -4 0 180 1
15 -12 -4 240 168 1
15 -3 -3 5203 301 1
-3 15 -3 5243 268 1
3 12 -3 4468 268 1
15 -3 -3 4767 288 1
15 -12 -3 4857 283 1
12 3 -3 4097 278 1
-15 3 -3 4664 270 1
15 -12 -2 120 165 1
-3 15 -2 141 140 1
3 12 -2 174 159 1
12 3 -2 239 179 1
12 3 -2 21 169 1
15 -3 -2 8 169 1
-15 3 -2 25 156 1
15 -3 -2 50 186 1
-3 15 -1 10119 405 1
15 -3 -1 9787 437 1
3 12 -1 10018 420 1
12 3 -1 10923 436 1
15 -3 -1 9307 429 1
12 3 -1 10423 432 1
-15 3 -1 10597 422 1
-12 -3 -1 9115 418 1
15 -12 -1 10122 433 1
15 -3 0 3281 242 1
3 12 0 3358 218 1
12 3 0 2975 233 1
12 3 0 3037 226 1
15 -12 0 3108 236 1
15 -3 0 3403 236 1
-12 -3 0 3282 222 1
-15 3 0 3421 224 1
12 3 1 9733 437 1
15 -12 1 10866 451 1
3 12 1 12490 438 1
15 -3 1 9875 457 1
12 3 1 10610 451 1
15 -3 1 9909 447 1
-12 -3 1 10094 437 1
-12 -3 2 77 154 1
3 12 2 155 140 1
15 -12 2 62 172 1
15 -3 2 6 175 1
12 3 2 120 168 1
12 3 2 45 165 1
12 3 3 4741 280 1
12 3 3 4906 293 1
15 -12 3 4838 296 1
15 -3 3 4679 296 1
15 -3 3 4761 295 1
-12 -3 3 5447 284 1
15 -12 4 0 186 1
12 3 4 0 159 1
15 -3 4 126 188 1
12 3 4 9 165 1
15 -3 4 356 183 1
-12 -3 4 420 164 1
15 -3 5 699 187 1
12 3 5 518 189 1
15 -3 5 782 187 1
-12 -3 5 674 170 1
12 3 6 590 185 1
15 -3 6 256 181 1
15 -3 6 422 200 1
-12 -3 6 520 158 1
15 -3 7 3539 265 1
12 3 7 2946 255 1
15 -3 8 128 189 1
12 3 8 251 173 1
12 3 9 5448 295 1
15 -3 9 5550 300 1
15 -2 -11 731 242 1
-2 15 -11 482 217 1
-2 15 -11 816 211 1
2 13 -11 601 214 1
13 2 -11 294 215 1
-2 15 -10 2573 255 1
15 -2 -10 2227 253 1
2 13 -10 2177 245 1
-2 15 -10 2272 227 1
2 13 -10 2066 237 1
13 2 -10 2328 243 1
15 -2 -10 2212 240 1
13 2 -10 2337 248 1
13 2 -9 161 213 1
-2 15 -9 292 201 1
15 -2 -9 123 212 1
-2 15 -9 498 183 1
2 13 -9 410 203 1
2 13 -9 0 193 1
-15 2 -9 173 185 1
13 2 -9 148 187 1
15 -2 -9 181 202 1
-15 2 -8 1690 203 1
13 2 -8 1873 237 1
-2 15 -8 2135 236 1
-2 15 -8 1820 198 1
2 13 -8 1862 224 1
15 -2 -8 2049 234 1
2 13 -8 2300 210 1
13 2 -8 1762 224 1
15 -2 -8 1746 220 1
13 2 -7 1140 209 1
-2 15 -7 1172 203 1
-2 15 -7 1094 177 1
2 13 -7 980 202 1
2 13 -7 1035 185 1
13 2 -7 1280 201 1
15 -2 -7 1228 204 1
-15 2 -7 1282 182 1
13 2 -6 631 195 1
-2 15 -6 639 176 1
-2 15 -6 541 157 1
2 13 -6 685 195 1
2 13 -6 565 163 1
13 2 -6 933 194 1
15 -2 -6 526 184 1
-15 2 -6 1050 179 1
-13 -2 -5 37 170 1
-2 15 -5 23 168 1
13 2 -5 15 182 1
2 13 -5 23 171 1
15 -2 -5 99 187 1
2 13 -5 25 154 1
13 2 -5 36 190 1
15 -2 -5 6 184 1
15 -13 -5 22 169 1
-15 2 -5 100 167 1
15 -13 -4 1278 176 1
-2 15 -4 1534 182 1
13 2 -4 1101 210 1
2 13 -4 1684 183 1
15 -2 -4 1330 205 1
13 2 -4 1270 210 1
15 -2 -4 1101 200 1
-13 -2 -4 1350 177 1
-15 2 -4 1251 189 1
15 -13 -3 850 186 1
-2 15 -3 690 166 1
2 13 -3 1114 174 1
13 2 -3 1119 191 1
13 2 -3 590 182 1
15 -2 -3 1077 204 1
15 -2 -3 480 191 1
-13 -2 -3 949 169 1
-15 2 -3 1069 181 1
15 -2 -2 6001 302 1
-2 15 -2 5296 269 1
2 13 -2 5255 274 1
15 -2 -2 5967 298 1
-13 -2 -2 5102 269 1
13 2 -2 6069 302 1
-15 2 -2 5922 279 1
15 -13 -2 5621 290 1
-2 15 -1 317 150 1
2 13 -1 248 153 1
13 -15 -1 261 154 1
13 2 -1 396 182 1
13 2 -1 588 177 1
15 -2 -1 87 182 1
15 -13 -1 53 172 1
15 -2 -1 245 186 1
-15 2 -1 204 156 1
15 -2 0 3353 237 1
15 -13 0 3196 228 1
2 13 0 2818 204 1
-15 2 0 2959 203 1
13 2 0 3630 237 1
13 2 0 2850 224 1
15 -2 0 3150 225 1
-13 -2 0 2839 213 1
15 -2 1 342 173 1
-13 -2 1 144 161 1
2 13 1 69 146 1
15 -13 1 55 173 1
13 2 1 166 177 1
13 2 1 315 178 1
15 -2 2 5594 298 1
13 2 2 5750 298 1
13 2 2 5254 290 1
15 -13 2 5950 295 1
-13 -2 2 5992 287 1
13 2 3 732 175 1
15 -13 3 382 195 1
15 -2 3 964 196 1
13 2 3 701 191 1
15 -2 3 940 189 1
-13 -2 3 1097 181 1
13 2 4 1406 189 1
13 2 4 1452 197 1
15 -2 4 1335 195 1
-13 -2 4 1278 171 1
15 -2 4 1359 198 1
15 -2 5 32 188 1
13 2 5 82 181 1
13 2 5 26 170 1
15 -2 5 13 200 1
-13 -2 5 53 162 1
15 -2 6 962 196 1
13 2 6 1005 200 1
15 -2 6 917 204 1
15 -2 7 1159 197 1
13 2 7 1218 208 1
15 -2 8 2127 226 1
13 2 8 1806 224 1
15 -2 9 249 191 1
15 -1 -10 2946 283 1
-1 15 -10 3533 280 1
1 14 -10 3186 278 1
-1 15 -10 3235 256 1
1 14 -10 3294 261 1
14 1 -10 2610 266 1
15 -1 -10 2781 268 1
-14 -1 -10 2531 244 1
-1 15 -9 7469 360 1
-1 15 -9 7636 376 1
1 14 -9 7115 377 1
1 14 -9 7621 369 1
14 1 -9 7413 379 1
15 -1 -9 6954 379 1
14 1 -9 7710 392 1
15 -1 -9 6601 388 1
-14 -1 -9 6737 358 1
-15 1 -9 7350 359 1
-1 15 -8 4301 252 1
-1 15 -8 4599 282 1
14 1 -8 4117 283 1
1 14 -8 3928 277 1
1 14 -8 3660 256 1
14 1 -8 3925 277 1
15 -1 -8 3717 270 1
-14 -1 -8 4305 255 1
-15 1 -8 3999 259 1
-1 15 -7 8524 369 1
-1 15 -7 7966 384 1
1 14 -7 8298 388 1
1 14 -7 8160 374 1
14 1 -7 7790 390 1
15 -1 -7 8862 394 1
14 1 -7 7806 396 1
-14 -1 -7 8366 373 1
-15 1 -7 8351 381 1
1 14 -6 3130 230 1
-1 15 -6 3286 244 1
14 1 -6 3199 261 1
1 14 -6 3110 248 1
15 -1 -6 3826 269 1
14 1 -6 3192 249 1
15 -1 -6 3251 253 1
-14 -1 -6 2847 233 1
-15 1 -6 3426 237 1
-1 15 -5 8100 375 1
1 14 -5 8890 385 1
14 1 -5 7749 386 1
15 -1 -5 8214 384 1
14 1 -5 8299 390 1
15 -1 -5 7677 392 1
-14 -1 -5 8173 375 1
-15 1 -5 8262 374 1
-1 15 -4 2158 204 1
1 14 -4 2182 206 1
15 -14 -4 2293 211 1
14 1 -4 2358 231 1
15 -1 -4 1874 225 1
14 1 -4 2355 228 1
15 -1 -4 1946 223 1
-14 -1 -4 1946 200 1
-15 1 -4 2194 201 1
15 -14 -3 11030 456 1
-1 15 -3 11006 449 1
1 14 -3 10478 452 1
14 1 -3 11281 470 1
15 -1 -3 11128 470 1
-14 -1 -3 10941 458 1
14 1 -3 10643 472 1
-15 1 -3 11387 461 1
15 -1 -3 10727 477 1
15 -1 -2 5786 317 1
-1 15 -2 6319 289 1
15 -14 -2 5465 300 1
1 14 -2 5763 288 1
14 1 -2 5743 306 1
15 -1 -2 6092 308 1
14 -15 -2 5586 280 1
-14 -1 -2 5786 293 1
-15 1 -2 6418 295 1
14 1 -2 6511 320 1
14 1 -1 11553 504 1
15 -1 -1 11926 507 1
-1 15 -1 11303 474 1
1 14 -1 11375 475 1
15 -14 -1 11652 496 1
15 -1 -1 12219 508 1
14 -15 -1 11414 488 1
-15 1 -1 12589 495 1
14 1 0 12280 516 1
1 14 0 12671 498 1
15 -1 0 12232 519 1
15 -14 0 12126 508 1
14 1 0 11775 516 1
-14 -1 0 12598 509 1
14 -15 0 12584 505 1
14 1 1 11254 492 1
15 -1 1 12252 504 1
14 1 1 11556 503 1
15 -14 1 11626 496 1
-14 -1 1 12176 495 1
-15 1 1 11037 482 1
14 1 2 6336 310 1
15 -1 2 5308 309 1
14 1 2 6309 319 1
15 -1 2 5683 306 1
-14 -1 2 5579 293 1
-15 1 2 6591 297 1
15 -14 2 5697 304 1
14 1 3 11116 463 1
15 -1 3 11043 470 1
14 1 3 10877 466 1
15 -1 3 10690 465 1
-14 -1 3 10876 454 1
14 1 4 2455 210 1
14 1 4 1719 215 1
15 -1 4 1972 223 1
15 -1 4 2411 218 1
-14 -1 4 2361 207 1
14 1 5 8426 399 1
15 -1 5 8888 403 1
14 1 5 8464 390 1
15 -1 5 8252 394 1
14 1 6 3166 234 1
15 -1 6 3235 245 1
14 1 6 3090 260 1
15 -1 6 3062 253 1
15 -1 7 7789 375 1
14 1 7 7612 380 1
15 -1 7 8838 396 1
15 -1 8 3365 255 1
14 1 8 4153 274 1
0 15 -10 7806 392 1
0 15 -10 7685 408 1
15 0 -10 7536 401 1
-15 0 -10 8091 383 1
0 15 -9 79 210 1
0 15 -9 3 194 1
15 0 -9 328 208 1
-15 0 -9 77 188 1
0 15 -8 11216 461 1
0 15 -8 10952 473 1
15 0 -8 10109 476 1
15 0 -8 10228 491 1
-15 0 -8 10664 458 1
-15 0 -7 493 186 1
0 15 -7 782 193 1
15 0 -7 566 226 1
15 0 -7 725 218 1
0 15 -6 11014 481 1
15 0 -6 10675 493 1
15 0 -6 11194 493 1
-15 0 -6 10872 480 1
0 15 -5 906 194 1
15 0 -5 394 218 1
-15 0 -5 238 186 1
15 0 -5 596 195 1
0 15 -4 10661 470 1
15 0 -4 10730 487 1
-15 0 -4 10603 474 1
15 0 -4 11170 495 1
0 15 -3 979 186 1
15 0 -3 1327 214 1
15 0 -3 1213 208 1
-15 0 -3 961 191 1
15 0 -2 9305 451 1
0 15 -2 9812 428 1
15 -15 -2 10192 434 1
15 0 -2 10072 449 1
-15 0 -2 10817 446 1
0 15 -1 665 163 1
15 0 -1 696 197 1
15 -15 -1 634 184 1
-15 0 -1 1014 179 1
15 0 0 16555 673 1
15 -15 0 17410 662 1
15 0 1 817 207 1
15 -15 1 995 192 1
15 0 1 595 198 1
-15 0 1 661 183 1
15 0 2 9860 456 1
15 0 2 10142 453 1
-15 0 2 10546 443 1
15 0 3 1119 197 1
15 0 3 918 204 1
-15 0 3 1201 195 1
15 0 4 10730 480 1
15 0 4 10383 469 1
15 0 5 513 197 1
15 0 5 434 208 1
15 0 6 10618 494 1
15 0 6 11355 486 1
15 0 7 531 196 1
15 0 7 507 215 1
15 0 8 10966 494 1
-8 16 -10 228 201 1
8 8 -10 5 223 1
16 -8 -10 4 211 1
-8 16 -10 4 186 1
8 8 -10 237 207 1
-8 16 -8 147 183 1
8 8 -8 19 197 1
16 -8 -8 76 204 1
8 8 -8 7 184 1
-8 16 -8 73 164 1
-8 16 -6 22 164 1
8 8 -6 1 183 1
16 -8 -6 20 160 1
16 -8 -6 239 197 1
8 8 -6 88 176 1
-8 16 -4 22 154 1
8 8 -4 377 181 1
16 -8 -4 209 164 1
8 8 -4 327 165 1
16 -8 -4 708 198 1
-8 16 -2 3297 198 1
16 -8 -2 3420 238 1
8 8 -2 3532 229 1
8 8 -2 3260 206 1
16 -8 -2 3241 232 1
8 8 0 550 179 1
16 -8 0 767 192 1
16 -8 0 948 188 1
8 8 2 3120 225 1
8 8 4 369 164 1
16 -8 4 227 182 1
16 -8 6 4 190 1
-8 -8 6 157 155 1
-7 16 -11 4701 306 1
7 9 -11 4498 302 1
7 9 -11 4857 316 1
9 7 -11 4824 316 1
9 7 -11 4588 316 1
16 -7 -11 4946 315 1
-9 16 -11 5194 293 1
-7 16 -11 4770 293 1
16 -9 -11 5284 319 1
-7 16 -10 85 190 1
-7 16 -10 324 204 1
7 9 -10 594 208 1
9 7 -10 276 205 1
16 -7 -10 109 209 1
16 -9 -10 2 218 1
7 9 -10 829 211 1
9 7 -10 2 213 1
-9 16 -10 301 186 1
-7 16 -9 4280 274 1
9 7 -9 4477 281 1
7 9 -9 3645 284 1
9 7 -9 4082 280 1
16 -7 -9 4177 290 1
16 -9 -9 3756 278 1
7 9 -9 3807 276 1
-7 16 -9 4049 265 1
-7 16 -8 2293 204 1
-7 16 -8 2238 221 1
9 7 -8 2122 228 1
16 -7 -8 2525 247 1
7 9 -8 2438 215 1
16 -9 -8 2263 232 1
9 7 -8 1968 225 1
-7 16 -7 8051 361 1
16 -9 -7 7301 372 1
7 9 -7 8059 379 1
7 9 -7 6649 358 1
9 7 -7 7704 369 1
-7 16 -7 8086 347 1
16 -7 -7 7875 383 1
-7 16 -6 4497 268 1
16 -7 -6 4828 290 1
16 -9 -6 4992 288 1
7 9 -6 5066 284 1
7 9 -6 4167 263 1
9 7 -6 4203 272 1
16 -7 -6 4440 259 1
-7 16 -6 4168 247 1
-7 16 -5 15005 583 1
16 -7 -5 14455 604 1
7 9 -5 14876 599 1
16 -9 -5 14267 600 1
9 7 -5 15446 600 1
7 9 -5 12912 579 1
9 7 -5 15206 592 1
16 -7 -5 13134 583 1
16 -9 -5 14533 580 1
-7 16 -5 14802 571 1
-7 16 -4 5586 283 1
16 -7 -4 5889 307 1
7 9 -4 6200 307 1
9 7 -4 5477 304 1
16 -9 -4 5737 305 1
7 9 -4 5711 282 1
9 7 -4 5449 285 1
16 -7 -4 5556 287 1
16 -9 -4 5515 291 1
-7 16 -3 21260 793 1
16 -7 -3 21819 823 1
7 9 -3 21819 811 1
9 7 -3 19234 808 1
16 -9 -3 19929 815 1
7 9 -3 21084 799 1
16 -7 -3 20670 806 1
9 7 -3 20758 800 1
16 -9 -3 21096 801 1
-7 16 -2 871 153 1
9 7 -2 554 162 1
16 -7 -2 1277 206 1
16 -9 -2 1026 189 1
7 9 -2 843 174 1
9 7 -2 698 175 1
16 -7 -2 953 190 1
16 -9 -2 701 175 1
7 9 -2 922 158 1
7 9 -1 13807 620 1
9 7 -1 15392 628 1
16 -7 -1 13903 628 1
16 -9 -1 15413 637 1
16 -7 -1 14102 625 1
16 -9 -1 14733 621 1
9 7 -1 15337 614 1
9 7 0 327 138 1
7 9 0 885 165 1
9 7 0 316 167 1
16 -7 0 266 167 1
16 -9 0 644 180 1
7 9 1 13620 618 1
9 7 1 14881 628 1
16 -7 1 16422 637 1
16 -9 1 14634 637 1
16 -7 2 859 201 1
16 -9 2 1055 199 1
7 9 2 746 164 1
9 7 2 371 177 1
16 -7 2 838 183 1
7 9 3 21909 800 1
9 7 3 20493 801 1
-9 -7 3 19737 794 1
16 -7 3 21370 820 1
16 -7 4 5117 306 1
7 9 4 5457 275 1
9 7 4 5655 286 1
-9 -7 4 5779 274 1
16 -7 5 14316 595 1
16 -9 5 14272 595 1
9 7 5 13346 571 1
-7 -9 5 13911 560 1
-9 -7 5 14755 568 1
16 -7 6 4409 294 1
9 7 6 3815 257 1
16 -9 6 4597 290 1
-9 -7 6 4884 255 1
16 -9 7 7584 366 1
16 -7 7 6698 362 1
16 -7 8 2227 238 1
-6 16 -11 382 192 1
-6 16 -11 10 218 1
6 10 -11 77 212 1
16 -6 -11 504 232 1
10 6 -11 234 224 1
6 10 -11 275 220 1
10 6 -11 165 227 1
-6 16 -10 8860 412 1
16 -10 -10 8822 417 1
6 10 -10 7763 407 1
10 6 -10 8985 421 1
6 10 -10 8906 416 1
10 6 -10 7919 419 1
16 -6 -10 8291 430 1
-6 16 -10 8456 399 1
-6 16 -9 1 175 1
-6 16 -9 194 185 1
10 6 -9 118 210 1
16 -6 -9 169 211 1
6 10 -9 1 208 1
16 -10 -9 1 193 1
10 6 -9 60 200 1
-6 16 -8 9832 439 1
16 -10 -8 9531 440 1
6 10 -8 9337 439 1
10 6 -8 9310 445 1
6 10 -8 10277 442 1
10 6 -8 9446 451 1
-6 16 -8 9766 428 1
16 -6 -8 9137 453 1
-6 16 -7 1479 192 1
-6 16 -7 1623 203 1
6 10 -7 2221 218 1
10 6 -7 1832 233 1
16 -6 -7 2020 231 1
6 10 -7 1758 206 1
16 -6 -7 1907 209 1
10 6 -7 1694 213 1
16 -10 -7 2332 228 1
-6 16 -6 17286 680 1
6 10 -6 18345 695 1
16 -10 -6 17839 697 1
6 10 -6 17487 682 1
10 6 -6 17512 690 1
16 -6 -6 18014 685 1
-6 16 -6 16567 668 1
16 -6 -6 16404 702 1
-6 16 -5 4298 247 1
6 10 -5 3580 261 1
16 -10 -5 3940 271 1
6 10 -5 3919 245 1
16 -6 -5 3561 253 1
10 6 -5 4112 263 1
16 -6 -5 3645 279 1
-6 16 -5 4075 224 1
-6 16 -4 22603 854 1
16 -6 -4 22823 876 1
6 10 -4 23934 869 1
10 6 -4 21693 866 1
16 -10 -4 22425 874 1
6 10 -4 22358 851 1
16 -6 -4 22083 863 1
10 6 -4 22501 863 1
16 -10 -4 22568 852 1
-6 16 -3 1978 181 1
10 6 -3 1778 197 1
6 10 -3 1828 203 1
16 -10 -3 2095 210 1
10 6 -3 1853 206 1
16 -6 -3 2001 208 1
6 10 -3 1941 177 1
16 -10 -3 1889 191 1
16 -6 -3 1945 225 1
-6 16 -2 9869 377 1
6 10 -2 9556 396 1
16 -6 -2 10373 412 1
10 6 -2 9574 399 1
16 -10 -2 9012 402 1
16 -6 -2 10027 402 1
10 6 -2 9959 393 1
10 6 -1 420 158 1
6 10 -1 147 168 1
10 6 -1 210 168 1
16 -6 -1 544 183 1
16 -10 -1 272 181 1
6 10 0 19099 714 1
10 6 0 18381 720 1
16 -6 0 19511 725 1
16 -10 0 19467 729 1
10 6 0 19847 711 1
16 -10 1 9 175 1
6 10 1 99 157 1
10 6 1 10 164 1
10 6 1 153 147 1
16 -6 1 34 180 1
16 -6 1 336 180 1
16 -10 2 9872 411 1
6 10 2 8732 383 1
10 6 2 10099 400 1
16 -6 2 9840 400 1
16 -6 2 9538 406 1
-10 -6 2 10402 393 1
16 -6 3 1866 224 1
6 10 3 1789 176 1
10 6 3 2131 205 1
16 -6 3 1883 207 1
-10 -6 3 1630 183 1
16 -10 3 1744 219 1
16 -10 4 22096 874 1
10 6 4 23439 863 1
-10 -6 4 23013 856 1
16 -6 4 21419 874 1
10 6 5 3762 246 1
16 -6 5 3728 274 1
-10 -6 5 3703 238 1
16 -6 6 18404 688 1
10 6 6 16329 661 1
-10 -6 6 16420 655 1
16 -6 7 1852 236 1
-10 -6 7 1541 187 1
10 6 7 2008 207 1
16 -6 8 10243 474 1
-5 16 -11 3468 275 1
-5 16 -11 3546 256 1
5 11 -11 2584 266 1
16 -5 -11 2506 278 1
11 5 -11 3359 268 1
5 11 -11 2690 255 1
11 5 -11 3303 285 1
-5 16 -10 2513 246 1
-5 16 -10 2482 234 1
16 -5 -10 1705 258 1
11 5 -10 2821 252 1
5 11 -10 2358 249 1
11 5 -10 2171 253 1
-5 16 -9 6549 338 1
16 -11 -9 6123 337 1
5 11 -9 6620 342 1
5 11 -9 6233 334 1
11 5 -9 6432 349 1
-5 16 -9 6060 323 1
11 5 -9 5791 342 1
16 -5 -9 5804 354 1
-5 16 -8 982 180 1
-5 16 -8 1110 200 1
5 11 -8 1009 207 1
16 -5 -8 1033 224 1
11 5 -8 1454 225 1
5 11 -8 1243 200 1
16 -5 -8 1397 194 1
11 5 -8 1269 210 1
16 -11 -8 1222 201 1
-5 16 -7 10199 425 1
5 11 -7 8842 422 1
16 -11 -7 9388 424 1
5 11 -7 9484 415 1
11 5 -7 8027 423 1
16 -5 -7 9234 420 1
11 5 -7 9153 429 1
-5 16 -7 9115 401 1
16 -5 -7 9571 441 1
-16 5 -7 9205 403 1
-5 16 -6 177 147 1
-5 16 -6 0 173 1
16 -11 -6 0 181 1
5 11 -6 36 193 1
11 5 -6 96 188 1
16 -5 -6 0 205 1
5 11 -6 43 168 1
16 -5 -6 0 175 1
-16 5 -6 371 160 1
11 5 -6 175 188 1
16 -5 -5 13772 581 1
-5 16 -5 14322 559 1
5 11 -5 13884 569 1
5 11 -5 13444 551 1
16 -11 -5 13500 571 1
16 -5 -5 13739 567 1
11 5 -5 14350 570 1
-16 5 -5 14350 556 1
-16 5 -4 169 156 1
11 5 -4 147 172 1
-5 16 -4 73 159 1
5 11 -4 176 177 1
16 -11 -4 165 181 1
5 11 -4 63 154 1
16 -5 -4 0 175 1
16 -5 -4 191 190 1
-5 16 -3 8040 378 1
5 11 -3 9221 399 1
11 5 -3 8007 395 1
16 -5 -3 7594 391 1
16 -11 -3 7844 402 1
11 5 -3 8048 392 1
-5 16 -2 1264 169 1
11 5 -2 1042 185 1
5 11 -2 1535 195 1
11 5 -2 1642 206 1
16 -5 -2 1226 197 1
16 -11 -2 1561 205 1
5 11 -1 11004 456 1
16 -5 -1 10437 468 1
11 5 -1 10198 463 1
16 -5 -1 10600 463 1
16 -11 -1 10864 468 1
11 5 -1 10103 450 1
5 11 0 4561 252 1
11 5 0 4558 264 1
16 -5 0 5011 285 1
16 -5 0 4687 267 1
16 -11 0 4898 278 1
11 5 0 5429 264 1
11 5 1 9765 456 1
16 -11 1 11059 476 1
5 11 1 11412 458 1
11 5 1 10955 472 1
16 -5 1 10492 485 1
16 -5 1 11101 478 1
-11 -5 1 11366 464 1
5 11 2 1138 175 1
11 5 2 1645 200 1
16 -5 2 1148 218 1
16 -5 2 1376 201 1
11 5 2 1458 180 1
16 -11 2 1349 198 1
-11 -5 2 1165 176 1
16 -11 3 8437 411 1
11 5 3 8085 396 1
16 -5 3 8389 407 1
16 -5 3 7681 400 1
-11 -5 3 8245 385 1
16 -5 4 157 196 1
11 5 4 172 179 1
16 -11 4 126 185 1
-11 -5 4 1 160 1
16 -5 5 13983 585 1
11 5 5 13449 570 1
16 -11 5 13399 584 1
-11 -5 5 15558 570 1
16 -5 6 0 195 1
11 5 6 1 177 1
-11 -5 6 1 164 1
16 -5 7 8319 425 1
11 5 7 9783 413 1
-11 -5 7 8511 386 1
16 -5 8 1370 230 1
-4 16 -11 2061 252 1
-4 16 -11 1858 230 1
16 -4 -11 1792 261 1
12 4 -11 1921 249 1
4 12 -11 2209 254 1
12 4 -11 1259 248 1
-4 16 -10 1076 222 1
-4 16 -10 1060 206 1
16 -4 -10 814 227 1
12 4 -10 942 225 1
4 12 -10 1027 215 1
12 4 -10 1042 219 1
-4 16 -9 3474 254 1
-4 16 -9 3145 245 1
4 12 -9 3999 272 1
16 -4 -9 3146 276 1
12 4 -9 3029 266 1
4 12 -9 3047 251 1
16 -4 -9 3095 252 1
12 4 -9 2434 262 1
-4 16 -8 2883 242 1
-4 16 -8 2614 228 1
4 12 -8 2470 241 1
16 -4 -8 2387 254 1
12 4 -8 2371 244 1
4 12 -8 3089 244 1
16 -4 -8 2749 242 1
-16 4 -8 2994 220 1
12 4 -8 2630 256 1
12 4 -7 2508 246 1
-4 16 -7 2843 241 1
16 -12 -7 3106 241 1
4 12 -7 3558 252 1
16 -4 -7 3266 270 1
12 4 -7 2694 246 1
4 12 -7 3172 229 1
16 -4 -7 2900 243 1
-4 16 -7 3354 218 1
-16 4 -7 2791 218 1
12 4 -6 1862 227 1
-4 16 -6 2275 212 1
4 12 -6 2010 220 1
16 -12 -6 1798 221 1
12 4 -6 1689 223 1
16 -4 -6 1836 242 1
4 12 -6 2085 208 1
16 -4 -6 1938 219 1
-16 4 -6 2037 198 1
12 4 -5 602 195 1
-4 16 -5 326 167 1
4 12 -5 539 187 1
16 -12 -5 528 189 1
12 4 -5 445 190 1
16 -4 -5 665 205 1
4 12 -5 746 171 1
16 -4 -5 1087 193 1
-16 4 -5 323 159 1
-4 16 -4 2367 201 1
12 4 -4 2353 214 1
4 12 -4 2297 205 1
16 -12 -4 2742 219 1
16 -4 -4 2626 219 1
-16 4 -4 2336 201 1
-4 16 -3 2968 203 1
12 4 -3 3302 232 1
4 12 -3 3149 224 1
12 4 -3 3041 232 1
16 -4 -3 3371 233 1
16 -12 -3 3207 230 1
-16 4 -3 3173 214 1
-4 16 -2 4209 255 1
16 -4 -2 4807 303 1
4 12 -2 4635 274 1
12 4 -2 3969 276 1
16 -4 -2 4395 275 1
16 -12 -2 4008 274 1
12 4 -2 4638 273 1
-16 4 -2 4290 264 1
4 12 -1 8530 358 1
16 -4 -1 8508 383 1
12 4 -1 8507 373 1
16 -4 -1 8339 363 1
-12 -4 -1 8183 351 1
16 -12 -1 7502 368 1
12 4 -1 7692 357 1
16 -4 0 3704 258 1
4 12 0 3782 231 1
12 4 0 3492 245 1
16 -12 0 3157 255 1
16 -4 0 3643 248 1
-12 -4 0 3041 226 1
12 4 0 3432 239 1
12 4 1 8225 355 1
16 -12 1 8189 363 1
4 12 1 7556 345 1
12 4 1 7697 363 1
16 -4 1 8446 372 1
16 -4 1 8504 367 1
-12 -4 1 8687 355 1
12 4 2 4568 275 1
4 12 2 4304 262 1
16 -12 2 4506 293 1
12 4 2 4876 287 1
16 -4 2 4505 293 1
16 -4 2 4476 295 1
-12 -4 2 4706 275 1
-12 -4 3 3054 215 1
12 4 3 3174 216 1
12 4 3 2690 226 1
16 -12 3 3230 234 1
16 -4 3 3356 241 1
16 -4 4 2634 233 1
16 -12 4 2310 229 1
12 4 4 1998 208 1
16 -4 4 2501 221 1
-12 -4 4 2501 197 1
16 -12 5 649 202 1
16 -4 5 720 196 1
12 4 5 604 185 1
16 -4 5 597 194 1
-12 -4 5 809 174 1
12 4 6 2019 216 1
16 -4 6 1772 229 1
-12 -4 6 2033 188 1
16 -4 7 3050 255 1
12 4 7 3257 241 1
-12 -4 7 2712 216 1
16 -4 8 3307 263 1
12 4 8 2510 242 1
16 -4 9 3263 270 1
-3 16 -10 286 216 1
13 3 -10 207 231 1
-3 16 -10 218 193 1
16 -3 -10 148 227 1
3 13 -10 483 235 1
13 3 -10 315 210 1
3 13 -10 513 206 1
16 -3 -10 603 205 1
13 3 -9 1046 223 1
-3 16 -9 1102 215 1
-3 16 -9 1222 200 1
3 13 -9 1360 226 1
16 -3 -9 1285 241 1
13 3 -9 1457 227 1
3 13 -9 982 209 1
16 -3 -9 1316 220 1
13 3 -8 449 213 1
-3 16 -8 356 211 1
-3 16 -8 701 188 1
3 13 -8 643 207 1
16 -3 -8 1 232 1
13 3 -8 569 212 1
3 13 -8 676 194 1
16 -3 -8 355 196 1
-16 3 -8 425 174 1
13 3 -7 1538 231 1
-3 16 -7 1351 211 1
-3 16 -7 1144 187 1
3 13 -7 1197 212 1
16 -3 -7 1094 225 1
13 3 -7 1297 212 1
3 13 -7 1220 200 1
16 -3 -7 1393 206 1
-16 3 -7 1522 200 1
13 3 -6 3 194 1
-3 16 -6 4 192 1
3 13 -6 76 188 1
13 3 -6 200 196 1
3 13 -6 126 172 1
16 -13 -6 74 178 1
16 -3 -6 4 193 1
-16 3 -6 35 173 1
-3 16 -5 258 168 1
13 3 -5 231 190 1
3 13 -5 2 181 1
13 3 -5 118 188 1
16 -3 -5 450 193 1
16 -13 -5 611 182 1
-16 3 -5 142 170 1
-3 16 -4 0 169 1
13 3 -4 0 186 1
3 13 -4 206 174 1
13 3 -4 118 192 1
16 -3 -4 0 216 1
16 -3 -4 0 188 1
16 -13 -4 0 176 1
-16 3 -4 23 162 1
16 -13 -3 2433 223 1
-3 16 -3 2173 200 1
3 13 -3 2787 207 1
13 3 -3 2580 227 1
16 -3 -3 2557 224 1
16 -3 -3 2828 237 1
-13 -3 -3 2253 207 1
-16 3 -3 2179 202 1
-3 16 -2 513 158 1
3 13 -2 569 180 1
16 -13 -2 552 187 1
13 3 -2 796 196 1
13 3 -2 404 200 1
16 -3 -2 236 189 1
16 -3 -2 754 215 1
-16 3 -2 467 170 1
3 13 -1 2838 210 1
13 3 -1 2401 227 1
16 -13 -1 2222 224 1
13 3 -1 2544 231 1
16 -3 -1 2653 219 1
16 -3 -1 2672 233 1
-13 -3 -1 2749 216 1
-16 3 -1 2531 208 1
-16 3 0 2287 206 1
16 -3 0 2493 239 1
3 13 0 2190 200 1
13 3 0 2101 223 1
13 3 0 2002 216 1
16 -3 0 1854 214 1
16 -13 0 2310 216 1
-13 -3 0 2433 212 1
16 -13 1 2422 229 1
16 -3 1 2399 235 1
3 13 1 2199 200 1
13 3 1 2569 232 1
16 -3 1 2818 233 1
13 3 1 2183 214 1
-13 -3 1 2857 216 1
13 3 2 411 179 1
16 -3 2 630 202 1
13 3 2 717 193 1
16 -13 2 473 188 1
-13 -3 2 666 180 1
13 3 3 2324 213 1
16 -13 3 2227 231 1
13 3 3 2754 235 1
16 -3 3 2111 226 1
16 -3 3 2856 241 1
-13 -3 3 2721 222 1
16 -3 4 119 190 1
16 -13 4 0 197 1
13 3 4 173 180 1
16 -3 4 0 188 1
-13 -3 4 180 171 1
16 -3 5 517 188 1
13 3 5 84 183 1
16 -3 5 114 189 1
-13 -3 5 189 162 1
16 -3 6 4 192 1
13 3 6 183 193 1
16 -3 6 252 203 1
-13 -3 6 50 172 1
16 -3 7 1643 218 1
13 3 7 1463 223 1
13 3 8 342 195 1
16 -3 8 676 202 1
16 -3 9 683 222 1
13 3 9 1030 217 1
14 2 -10 3360 290 1
-2 16 -10 3086 272 1
16 -2 -10 2835 294 1
2 14 -10 3534 292 1
-2 16 -10 3648 269 1
2 14 -10 3053 270 1
14 2 -10 3658 278 1
16 -2 -10 3273 277 1
14 2 -9 13 212 1
-2 16 -9 13 208 1
2 14 -9 13 223 1
-2 16 -9 21 192 1
16 -2 -9 13 226 1
2 14 -9 23 202 1
14 2 -9 155 215 1
16 -2 -9 30 206 1
-16 2 -9 141 183 1
-2 16 -8 4000 249 1
14 2 -8 3615 282 1
-2 16 -8 3686 262 1
2 14 -8 3466 274 1
16 -2 -8 3544 293 1
2 14 -8 3509 258 1
14 2 -8 3533 278 1
16 -2 -8 3682 275 1
-14 -2 -8 4306 266 1
-16 2 -8 3905 256 1
14 2 -7 393 218 1
-2 16 -7 410 194 1
2 14 -7 470 210 1
2 14 -7 289 185 1
14 2 -7 136 197 1
16 -2 -7 1 198 1
-14 -2 -7 199 190 1
-16 2 -7 438 183 1
-2 16 -6 5362 299 1
2 14 -6 4746 306 1
14 2 -6 4507 305 1
16 -2 -6 4567 308 1
14 2 -6 4896 316 1
-14 -2 -6 5007 289 1
-16 2 -6 4517 291 1
-2 16 -5 220 186 1
14 2 -5 365 203 1
2 14 -5 88 183 1
16 -2 -5 65 220 1
14 2 -5 218 208 1
16 -2 -5 269 192 1
-16 2 -5 275 179 1
-14 -2 -5 261 174 1
-2 16 -4 3363 242 1
2 14 -4 4090 254 1
16 -14 -4 3052 247 1
14 2 -4 3633 269 1
14 2 -4 3916 276 1
16 -2 -4 3665 265 1
16 -2 -4 3283 268 1
-16 2 -4 3763 252 1
-14 -2 -4 3128 246 1
-2 16 -3 262 169 1
2 14 -3 537 177 1
16 -14 -3 623 177 1
14 2 -3 464 200 1
14 2 -3 393 193 1
16 -2 -3 427 196 1
16 -2 -3 441 213 1
-14 -2 -3 359 177 1
-16 2 -3 486 187 1
16 -14 -2 6570 342 1
-2 16 -2 6078 320 1
16 -2 -2 6100 354 1
2 14 -2 5795 323 1
14 2 -2 5664 347 1
16 -2 -2 6390 351 1
-14 -2 -2 6263 337 1
-16 2 -2 6372 335 1
2 14 -1 611 171 1
14 2 -1 462 188 1
14 2 -1 394 192 1
16 -2 -1 536 191 1
16 -2 -1 467 202 1
-16 2 -1 644 179 1
16 -14 -1 622 185 1
14 2 0 5798 325 1
2 14 0 5302 305 1
16 -2 0 5163 332 1
16 -14 0 5650 325 1
14 2 0 5777 331 1
16 -2 0 6063 333 1
-14 -2 0 6221 323 1
-16 2 0 5371 309 1
16 -2 1 717 202 1
14 2 1 827 200 1
16 -14 1 524 189 1
14 2 1 433 187 1
-14 -2 1 113 171 1
14 2 2 7002 357 1
16 -2 2 6709 365 1
14 2 2 6062 361 1
16 -14 2 6478 363 1
-14 -2 2 6313 350 1
14 2 3 456 180 1
16 -2 3 481 195 1
14 2 3 608 189 1
16 -2 3 219 187 1
16 -14 3 397 197 1
-14 -2 3 633 176 1
16 -2 4 3629 266 1
14 2 4 3120 243 1
14 2 4 3697 267 1
16 -2 4 3020 258 1
-14 -2 4 3574 246 1
16 -2 5 133 195 1
14 2 5 388 208 1
16 -2 5 236 197 1
-14 -2 5 101 170 1
16 -2 6 4375 294 1
14 2 6 4348 297 1
16 -2 6 4697 307 1
16 -2 7 270 203 1
14 2 7 637 202 1
16 -2 8 3689 274 1
14 2 8 3488 264 1
16 -2 9 145 210 1
-1 16 -9 6287 343 1
-1 16 -9 5342 344 1
1 15 -9 5837 359 1
1 15 -9 6139 344 1
15 1 -9 6862 361 1
16 -1 -9 5639 354 1
15 1 -9 5897 369 1
-15 -1 -9 6086 337 1
-16 1 -9 6632 346 1
15 1 -8 1659 262 1
-1 16 -8 2409 246 1
1 15 -8 2157 242 1
1 15 -8 2051 230 1
15 1 -8 2189 250 1
16 -1 -8 2271 249 1
-15 -1 -8 2143 223 1
-16 1 -8 1890 230 1
-1 16 -7 7513 377 1
1 15 -7 7255 376 1
15 1 -7 7165 382 1
16 -1 -7 6778 375 1
15 1 -7 6829 386 1
16 -1 -7 6676 389 1
-15 -1 -7 7187 360 1
-16 1 -7 7332 370 1
-1 16 -6 5410 319 1
1 15 -6 5361 328 1
15 1 -6 5695 333 1
16 -1 -6 4838 325 1
15 1 -6 5362 334 1
16 -1 -6 4747 342 1
-15 -1 -6 5610 312 1
-16 1 -6 5413 311 1
-1 16 -5 8226 387 1
1 15 -5 8281 391 1
15 1 -5 8247 404 1
16 -1 -5 7970 402 1
15 1 -5 8256 409 1
-15 -1 -5 8450 387 1
-16 1 -5 8172 388 1
16 -1 -5 8374 417 1
-1 16 -4 5050 277 1
1 15 -4 4356 271 1
15 1 -4 4954 294 1
15 1 -4 4614 308 1
16 -1 -4 5183 297 1
16 -1 -4 4856 314 1
-15 -1 -4 4784 281 1
-16 1 -4 5050 284 1
16 -1 -3 7491 385 1
-1 16 -3 7104 352 1
16 -15 -3 7760 360 1
1 15 -3 7869 354 1
15 1 -3 7591 376 1
16 -1 -3 7279 375 1
-15 -1 -3 7727 370 1
-16 1 -3 7227 359 1
15 1 -3 7964 382 1
-15 -1 -2 1782 213 1
16 -15 -2 2014 218 1
-1 16 -2 2062 206 1
1 15 -2 2238 208 1
15 1 -2 2086 242 1
15 1 -2 1722 227 1
16 -1 -2 1561 224 1
16 -1 -2 1877 230 1
-16 1 -2 2164 218 1
15 1 -1 12948 515 1
16 -1 -1 12556 522 1
1 15 -1 13269 494 1
16 -15 -1 12394 505 1
16 -1 -1 11855 516 1
15 -16 -1 11859 495 1
-16 1 -1 11683 498 1
16 -1 0 530 209 1
16 -15 0 670 190 1
15 1 0 470 195 1
15 1 0 863 207 1
-15 -1 0 818 192 1
15 1 1 12107 497 1
16 -1 1 11090 504 1
15 1 1 13206 511 1
16 -15 1 12038 497 1
-15 -1 1 12153 490 1
-16 1 1 10874 483 1
16 -15 2 2031 214 1
15 1 2 1515 213 1
16 -1 2 1841 232 1
15 1 2 1813 227 1
16 -1 2 1897 224 1
-15 -1 2 1909 203 1
-16 1 2 1778 211 1
15 1 3 6079 343 1
15 1 3 7371 363 1
16 -1 3 7125 355 1
16 -1 3 7259 371 1
-15 -1 3 7344 344 1
15 1 4 4695 291 1
16 -1 4 5127 299 1
15 1 4 4447 280 1
16 -1 4 4832 288 1
-15 -1 4 4854 276 1
15 1 5 8213 392 1
16 -1 5 7422 388 1
15 1 5 8152 382 1
16 -1 5 7414 383 1
16 -1 6 5031 325 1
15 1 6 5941 343 1
16 -1 6 5655 339 1
16 -1 7 7096 371 1
15 1 7 6932 373 1
16 -1 7 6991 386 1
15 1 8 2285 255 1
0 16 -8 2286 245 1
16 0 -8 1638 257 1
16 0 -8 1604 240 1
-16 0 -8 2001 235 1
0 16 -7 7358 381 1
16 0 -7 7617 389 1
16 0 -7 7731 403 1
-16 0 -7 7779 382 1
0 16 -6 960 220 1
16 0 -6 390 235 1
16 0 -6 722 215 1
-16 0 -6 1098 206 1
0 16 -5 10411 471 1
16 0 -5 9070 472 1
-16 0 -5 9184 459 1
16 0 -5 9441 484 1
0 16 -4 1787 211 1
16 0 -4 1748 249 1
16 0 -4 1536 230 1
-16 0 -4 2212 221 1
16 0 -3 4955 334 1
0 16 -3 5092 299 1
16 0 -3 5657 331 1
-16 0 -3 5414 311 1
0 16 -2 2681 236 1
16 0 -2 1951 254 1
16 0 -2 2706 267 1
-16 0 -2 2076 238 1
16 -16 -1 1966 222 1
16 0 -1 2441 246 1
-16 0 -1 2043 225 1
16 0 0 6829 350 1
16 -16 0 6553 335 1
16 0 1 1942 234 1
16 0 1 1786 226 1
-16 0 1 1895 209 1
16 0 2 2213 254 1
16 0 2 2659 261 1
-16 0 2 2214 240 1
16 0 3 5432 325 1
16 0 3 5107 331 1
-16 0 3 6043 321 1
16 0 4 2151 247 1
16 0 4 2009 231 1
16 0 5 9773 475 1
16 0 5 9230 463 1
16 0 6 891 212 1
16 0 6 690 225 1
16 0 7 7147 378 1
-8 17 -10 664 205 1
-9 17 -10 1314 217 1
-8 17 -10 644 224 1
8 9 -10 634 215 1
9 8 -10 968 221 1
17 -8 -10 528 229 1
17 -9 -10 766 228 1
8 9 -10 686 233 1
9 8 -10 406 221 1
-9 17 -10 903 203 1
-8 17 -9 21 191 1
-9 17 -9 0 215 1
-8 17 -9 273 207 1
8 9 -9 1 218 1
9 8 -9 298 222 1
17 -8 -9 1 232 1
17 -9 -9 174 217 1
8 9 -9 1 208 1
9 8 -9 44 209 1
-9 17 -9 321 180 1
-9 17 -8 1542 210 1
-8 17 -8 1006 198 1
9 8 -8 1242 226 1
17 -8 -8 1287 234 1
17 -9 -8 809 225 1
8 9 -8 1217 209 1
9 8 -8 959 211 1
-9 17 -8 1275 192 1
-8 17 -8 1019 193 1
-8 17 -7 1446 199 1
8 9 -7 1047 227 1
17 -8 -7 1098 225 1
8 9 -7 1422 199 1
-8 17 -7 1532 184 1
17 -9 -7 1082 223 1
9 8 -7 1051 213 1
-8 17 -6 1594 193 1
8 9 -6 1732 228 1
9 8 -6 1582 214 1
17 -8 -6 1555 202 1
17 -8 -6 1718 228 1
8 9 -6 1709 206 1
9 8 -6 1788 215 1
17 -9 -6 1882 243 1
-8 17 -6 1585 183 1
17 -9 -5 1789 225 1
-8 17 -5 1706 189 1
8 9 -5 1989 224 1
9 8 -5 1973 219 1
17 -8 -5 1596 200 1
17 -9 -5 1482 200 1
8 9 -5 1594 202 1
17 -8 -5 1607 239 1
9 8 -5 1835 205 1
17 -8 -4 3046 253 1
-8 17 -4 2882 207 1
17 -9 -4 2637 248 1
8 9 -4 2533 231 1
9 8 -4 2590 236 1
17 -8 -4 2977 231 1
17 -9 -4 2672 220 1
8 9 -4 2709 217 1
9 8 -4 2706 220 1
-9 17 -3 2362 191 1
9 8 -3 2680 206 1
-8 17 -3 2706 200 1
17 -8 -3 2386 237 1
17 -9 -3 2102 229 1
8 9 -3 2857 230 1
9 8 -3 2334 219 1
17 -8 -3 2542 215 1
17 -9 -3 2183 207 1
8 9 -3 2663 207 1
9 8 -2 2847 208 1
17 -8 -2 3082 249 1
17 -9 -2 2825 240 1
8 9 -2 3163 237 1
9 8 -2 2942 224 1
17 -8 -2 2794 223 1
17 -9 -2 3045 226 1
8 9 -1 174 173 1
17 -8 -1 309 188 1
9 8 -1 109 177 1
17 -9 -1 149 188 1
17 -8 -1 332 179 1
17 -9 -1 218 184 1
8 9 0 1096 186 1
9 8 0 835 186 1
17 -8 0 901 195 1
17 -8 0 954 187 1
17 -9 0 1007 199 1
17 -9 1 0 193 1
8 9 1 38 165 1
9 8 1 0 179 1
17 -8 1 77 175 1
17 -9 2 3210 247 1
8 9 2 3097 217 1
9 8 2 2907 230 1
17 -8 3 2547 229 1
8 9 3 2201 206 1
9 8 3 2242 210 1
8 9 4 2467 215 1
9 8 4 2969 227 1
17 -8 4 2601 245 1
-9 -8 4 2539 203 1
17 -8 5 1581 229 1
17 -9 5 1295 228 1
9 8 5 1365 193 1
-8 -9 5 1460 181 1
-9 -8 5 1815 181 1
17 -9 6 2197 243 1
17 -8 6 1416 229 1
-9 -8 6 1644 188 1
17 -9 7 1302 224 1
17 -8 7 938 231 1
17 -8 8 1491 252 1
-7 17 -10 1470 217 1
-7 17 -10 1468 232 1
7 10 -10 1520 232 1
10 7 -10 1558 247 1
17 -7 -10 1492 250 1
7 10 -10 1645 244 1
17 -10 -10 982 235 1
10 7 -10 1307 240 1
-10 17 -10 1357 213 1
-7 17 -9 1298 207 1
-7 17 -9 1474 216 1
10 7 -9 1975 238 1
17 -7 -9 1627 240 1
7 10 -9 1634 217 1
17 -10 -9 1818 233 1
10 7 -9 1597 232 1
-7 17 -8 295 173 1
-7 17 -8 128 199 1
7 10 -8 304 208 1
10 7 -8 1 215 1
17 -7 -8 313 214 1
7 10 -8 267 199 1
17 -10 -8 1 210 1
10 7 -8 225 213 1
-7 17 -7 4729 279 1
17 -7 -7 4350 296 1
7 10 -7 4130 272 1
7 10 -7 4178 294 1
10 7 -7 4537 290 1
-7 17 -7 4495 260 1
17 -10 -7 4503 293 1
-7 17 -6 105 152 1
17 -10 -6 8 208 1
10 7 -6 12 182 1
-7 17 -6 203 170 1
7 10 -6 12 198 1
17 -7 -6 14 214 1
17 -7 -6 87 184 1
7 10 -6 1 173 1
-7 17 -5 7997 363 1
17 -7 -5 7734 392 1
7 10 -5 7523 383 1
10 7 -5 7499 383 1
17 -10 -5 7758 389 1
7 10 -5 7340 367 1
10 7 -5 7676 373 1
17 -7 -5 7741 369 1
10 7 -4 5 167 1
-7 17 -4 21 153 1
17 -10 -4 138 199 1
7 10 -4 387 188 1
10 7 -4 12 181 1
17 -7 -4 1 181 1
17 -10 -4 5 170 1
7 10 -4 102 169 1
17 -7 -4 1 195 1
-7 17 -3 7991 360 1
7 10 -3 7887 384 1
17 -7 -3 8326 403 1
10 7 -3 7997 384 1
17 -10 -3 7821 395 1
17 -7 -3 7434 377 1
10 7 -3 7857 374 1
17 -10 -3 8569 373 1
17 -7 -2 588 193 1
10 7 -2 253 175 1
7 10 -2 594 181 1
10 7 -2 291 188 1
17 -10 -2 722 200 1
17 -7 -2 430 185 1
10 7 -1 141 157 1
17 -7 -1 185 185 1
7 10 -1 361 178 1
10 7 -1 162 186 1
17 -7 -1 480 187 1
17 -10 -1 177 189 1
7 10 0 4450 277 1
10 7 0 4854 283 1
17 -7 0 4871 281 1
17 -10 0 4506 296 1
17 -10 1 164 190 1
7 10 1 343 175 1
10 7 1 355 186 1
17 -7 1 472 187 1
17 -7 2 120 204 1
7 10 2 366 177 1
17 -10 2 486 204 1
10 7 2 516 182 1
17 -7 2 384 192 1
17 -10 3 7440 384 1
7 10 3 8157 366 1
10 7 3 7674 374 1
-10 -7 3 7488 360 1
17 -7 3 8221 394 1
17 -7 4 87 195 1
10 7 4 5 182 1
-10 -7 4 20 161 1
17 -7 5 7820 377 1
10 7 5 7591 359 1
-10 -7 5 6762 345 1
17 -7 6 14 208 1
10 7 6 37 178 1
17 -10 6 6 221 1
-10 -7 6 34 160 1
17 -7 7 4117 297 1
17 -7 8 91 213 1
-6 17 -10 2 198 1
-6 17 -10 132 213 1
11 6 -10 128 218 1
17 -6 -10 267 245 1
6 11 -10 2 225 1
11 6 -10 258 226 1
-6 17 -9 4177 279 1
17 -11 -9 4191 291 1
6 11 -9 3658 284 1
11 6 -9 3942 297 1
17 -6 -9 4427 296 1
6 11 -9 3581 281 1
11 6 -9 4143 294 1
-6 17 -9 4033 262 1
-6 17 -8 765 178 1
-6 17 -8 606 205 1
6 11 -8 723 208 1
11 6 -8 898 225 1
17 -6 -8 977 234 1
6 11 -8 667 203 1
11 6 -8 1124 219 1
17 -11 -8 929 221 1
17 -11 -7 3027 259 1
-6 17 -7 2669 214 1
-6 17 -7 2960 241 1
6 11 -7 3330 257 1
11 6 -7 2624 255 1
17 -6 -7 3045 264 1
6 11 -7 3162 240 1
17 -6 -7 2790 239 1
11 6 -7 2872 249 1
-6 17 -6 4741 279 1
17 -6 -6 4923 304 1
6 11 -6 5212 307 1
6 11 -6 4913 280 1
17 -11 -6 4724 302 1
17 -6 -6 4879 286 1
11 6 -6 5539 305 1
11 6 -5 3142 242 1
-6 17 -5 3327 220 1
17 -11 -5 3291 251 1
6 11 -5 3197 236 1
17 -6 -5 3061 232 1
6 11 -5 2818 218 1
17 -6 -5 3185 255 1
-6 17 -4 6756 309 1
17 -6 -4 6623 349 1
6 11 -4 5983 326 1
11 6 -4 6689 334 1
17 -11 -4 6077 325 1
17 -6 -4 6895 325 1
11 6 -4 6409 321 1
-6 17 -3 3775 232 1
17 -6 -3 3908 272 1
11 6 -3 4108 263 1
6 11 -3 3095 257 1
17 -11 -3 3244 270 1
11 6 -3 3865 257 1
17 -6 -3 3758 262 1
11 6 -2 1214 186 1
6 11 -2 1053 191 1
11 6 -2 1500 200 1
17 -6 -2 1448 205 1
17 -11 -2 1342 213 1
6 11 -1 5256 298 1
11 6 -1 4993 305 1
17 -6 -1 5081 305 1
17 -11 -1 5354 315 1
11 6 -1 4788 290 1
17 -11 0 4 188 1
17 -6 0 266 198 1
6 11 0 18 170 1
11 6 0 105 168 1
11 6 0 60 187 1
17 -6 0 105 185 1
6 11 1 5214 287 1
11 6 1 5544 312 1
17 -6 1 5179 317 1
17 -6 1 5606 319 1
-11 -6 1 5025 297 1
17 -11 1 5332 319 1
6 11 2 934 175 1
11 6 2 1179 205 1
17 -11 2 1024 213 1
17 -6 2 985 205 1
17 -6 2 1072 213 1
-11 -6 2 1071 176 1
17 -6 3 3590 281 1
17 -11 3 3453 270 1
11 6 3 3620 258 1
17 -6 3 3665 263 1
-11 -6 3 4042 249 1
11 6 4 6918 321 1
17 -11 4 6338 332 1
-11 -6 4 5856 307 1
17 -6 4 6115 335 1
17 -11 5 2948 263 1
11 6 5 2916 229 1
17 -6 5 3364 261 1
-11 -6 5 3244 221 1
17 -6 6 5198 317 1
11 6 6 4586 288 1
-11 -6 6 5524 283 1
11 6 7 3085 235 1
17 -6 7 2789 261 1
-11 -6 7 2879 213 1
17 -6 8 709 216 1
-5 17 -9 400 204 1
-5 17 -9 144 190 1
5 12 -9 170 209 1
17 -5 -9 806 240 1
12 5 -9 75 225 1
5 12 -9 335 205 1
12 5 -9 206 224 1
17 -12 -8 3330 257 1
-5 17 -8 3006 252 1
-5 17 -8 3054 233 1
5 12 -8 2849 260 1
12 5 -8 3263 273 1
17 -5 -8 2957 283 1
5 12 -8 3408 254 1
17 -5 -8 3169 250 1
12 5 -8 2994 270 1
12 5 -7 11 214 1
-5 17 -7 39 194 1
17 -12 -7 6 202 1
5 12 -7 6 208 1
12 5 -7 6 202 1
17 -5 -7 32 213 1
5 12 -7 158 184 1
17 -5 -7 46 189 1
-17 5 -7 5 174 1
12 5 -6 2474 248 1
-5 17 -6 2385 231 1
5 12 -6 2840 238 1
17 -12 -6 2004 228 1
12 5 -6 1891 238 1
17 -5 -6 2522 254 1
5 12 -6 2034 223 1
17 -5 -6 2776 232 1
-17 5 -6 2634 213 1
-17 5 -5 788 175 1
12 5 -5 599 203 1
-5 17 -5 562 186 1
5 12 -5 595 203 1
17 -12 -5 601 200 1
17 -5 -5 625 230 1
17 -5 -5 930 194 1
-5 17 -4 2773 218 1
12 5 -4 2351 240 1
5 12 -4 2659 238 1
17 -12 -4 2556 240 1
17 -5 -4 2766 232 1
17 -5 -4 2614 244 1
-5 17 -3 46 158 1
12 5 -3 3 188 1
5 12 -3 72 187 1
12 5 -3 3 192 1
17 -5 -3 4 188 1
17 -12 -3 4 196 1
5 12 -2 7037 333 1
12 5 -2 6436 342 1
17 -5 -2 5941 337 1
17 -12 -2 6236 343 1
12 5 -2 5919 331 1
17 -5 -1 261 203 1
17 -12 -1 2 190 1
5 12 -1 329 174 1
12 5 -1 144 184 1
12 5 -1 49 188 1
17 -5 -1 64 190 1
5 12 0 4392 259 1
12 5 0 4232 280 1
17 -5 0 4217 283 1
17 -5 0 4724 280 1
-12 -5 0 4353 254 1
12 5 0 4316 260 1
17 -12 0 4159 275 1
5 12 1 47 162 1
17 -5 1 2 200 1
12 5 1 60 182 1
12 5 1 108 164 1
17 -12 1 71 193 1
17 -5 1 2 190 1
-12 -5 1 2 167 1
17 -12 2 5939 342 1
5 12 2 6387 314 1
12 5 2 5917 336 1
17 -5 2 6575 355 1
17 -5 2 6332 343 1
-12 -5 2 6464 323 1
17 -5 3 60 204 1
17 -12 3 241 201 1
12 5 3 70 195 1
17 -5 3 3 199 1
-12 -5 3 69 178 1
17 -12 4 2564 244 1
17 -5 4 2962 256 1
12 5 4 2233 226 1
-12 -5 4 2677 223 1
17 -12 5 659 213 1
17 -5 5 1104 213 1
12 5 5 938 195 1
-12 -5 5 680 178 1
17 -5 6 2250 243 1
12 5 6 2495 240 1
-12 -5 6 2419 216 1
17 -5 7 184 208 1
12 5 7 6 195 1
-12 -5 7 249 171 1
17 -5 8 2564 248 1
17 -5 9 291 225 1
13 4 -9 524 216 1
-4 17 -9 227 211 1
-4 17 -9 283 194 1
4 13 -9 194 219 1
17 -4 -9 221 233 1
13 4 -9 567 220 1
4 13 -9 114 206 1
17 -4 -9 293 215 1
13 4 -8 0 221 1
-4 17 -8 394 200 1
-4 17 -8 328 182 1
4 13 -8 94 213 1
17 -4 -8 69 225 1
13 4 -8 0 216 1
4 13 -8 0 195 1
-17 4 -8 117 181 1
17 -4 -8 1 207 1
13 4 -7 611 221 1
-4 17 -7 302 192 1
4 13 -7 199 201 1
13 4 -7 506 225 1
17 -4 -7 290 238 1
4 13 -7 239 181 1
17 -4 -7 346 197 1
-17 4 -7 369 183 1
13 4 -6 205 201 1
-4 17 -6 1 180 1
4 13 -6 16 196 1
13 4 -6 94 208 1
17 -13 -6 100 197 1
17 -4 -6 4 226 1
17 -4 -6 377 197 1
-17 4 -6 127 173 1
-4 17 -5 277 185 1
13 4 -5 15 203 1
4 13 -5 83 191 1
13 4 -5 1 206 1
17 -4 -5 173 190 1
17 -13 -5 1 185 1
-17 4 -5 206 176 1
-4 17 -4 306 170 1
13 4 -4 212 199 1
4 13 -4 521 187 1
17 -4 -4 404 203 1
17 -13 -4 220 190 1
-17 4 -4 53 178 1
17 -13 -3 855 194 1
-4 17 -3 665 167 1
13 4 -3 930 204 1
4 13 -3 537 185 1
13 4 -3 954 210 1
17 -4 -3 486 194 1
17 -4 -3 1046 226 1
-13 -4 -3 506 189 1
-17 4 -3 360 177 1
17 -13 -2 618 200 1
4 13 -2 548 186 1
13 4 -2 744 189 1
13 4 -2 617 201 1
17 -4 -2 602 207 1
17 -4 -2 647 214 1
17 -4 -1 1868 226 1
4 13 -1 1627 202 1
17 -13 -1 1819 220 1
13 4 -1 2292 222 1
13 4 -1 1979 219 1
17 -4 -1 2079 221 1
-13 -4 -1 1809 200 1
17 -4 0 275 198 1
4 13 0 317 168 1
13 4 0 10 188 1
13 4 0 178 185 1
17 -4 0 105 201 1
17 -13 0 153 193 1
-13 -4 0 36 173 1
17 -13 1 2013 221 1
17 -4 1 1776 227 1
4 13 1 2034 194 1
13 4 1 1726 213 1
17 -4 1 1563 226 1
13 4 1 2198 208 1
-13 -4 1 1981 205 1
13 4 2 574 184 1
17 -13 2 786 215 1
-13 -4 2 913 191 1
17 -4 2 591 213 1
13 4 2 662 196 1
17 -4 2 490 220 1
17 -13 3 540 207 1
13 4 3 941 205 1
17 -4 3 727 206 1
-13 -4 3 529 182 1
17 -4 4 41 206 1
17 -13 4 270 207 1
13 4 4 289 198 1
17 -4 4 198 199 1
-13 -4 4 278 186 1
17 -4 5 174 211 1
13 4 5 1 189 1
17 -4 5 1 198 1
-13 -4 5 116 175 1
13 4 6 198 204 1
17 -4 6 324 205 1
-13 -4 6 214 177 1
-13 -4 7 395 183 1
17 -4 7 585 214 1
13 4 7 331 206 1
17 -4 8 149 217 1
13 4 8 382 207 1
17 -4 9 300 226 1
14 3 -8 3 220 1
-3 17 -8 3 214 1
3 14 -8 3 219 1
17 -3 -8 157 231 1
14 3 -8 3 216 1
3 14 -8 258 200 1
17 -3 -8 55 220 1
-17 3 -8 182 191 1
14 3 -7 175 218 1
-3 17 -7 562 194 1
3 14 -7 297 209 1
17 -3 -7 467 228 1
14 3 -7 434 221 1
17 -3 -7 566 212 1
-17 3 -7 461 196 1
-3 17 -6 297 196 1
14 3 -6 126 219 1
3 14 -6 0 196 1
14 3 -6 263 204 1
17 -3 -6 132 204 1
-14 -3 -6 316 200 1
-17 3 -6 197 188 1
-3 17 -5 118 184 1
14 3 -5 539 203 1
3 14 -5 0 195 1
14 3 -5 113 207 1
17 -3 -5 138 223 1
17 -3 -5 223 205 1
-14 -3 -5 31 199 1
-17 3 -5 553 179 1
17 -14 -5 509 202 1
17 -14 -4 0 200 1
-3 17 -4 156 185 1
3 14 -4 0 181 1
14 3 -4 221 204 1
14 3 -4 177 202 1
17 -3 -4 0 216 1
17 -3 -4 164 212 1
-14 -3 -4 26 177 1
-17 3 -4 525 173 1
-3 17 -3 1 176 1
3 14 -3 194 185 1
17 -14 -3 57 192 1
14 3 -3 392 210 1
17 -3 -3 70 205 1
-17 3 -3 299 181 1
17 -3 -3 64 214 1
-14 -3 -3 103 190 1
3 14 -2 0 182 1
14 3 -2 225 202 1
17 -14 -2 0 184 1
14 3 -2 0 193 1
17 -3 -2 0 197 1
17 -3 -2 55 214 1
-17 3 -2 16 176 1
17 -3 -1 174 221 1
3 14 -1 173 173 1
14 3 -1 268 207 1
14 3 -1 359 195 1
17 -3 -1 68 208 1
17 -14 -1 1 198 1
-14 -3 -1 384 178 1
-17 3 -1 1 175 1
17 -14 0 893 206 1
17 -3 0 760 211 1
3 14 0 666 183 1
14 3 0 922 207 1
17 -3 0 649 198 1
14 3 0 974 203 1
-14 -3 0 757 203 1
17 -3 1 250 205 1
17 -14 1 138 192 1
14 3 1 190 206 1
17 -3 1 1 208 1
14 3 1 1 194 1
-14 -3 1 410 192 1
14 3 2 104 185 1
17 -14 2 0 200 1
17 -3 2 0 201 1
14 3 2 87 204 1
-14 -3 2 128 180 1
17 -14 3 245 205 1
14 3 3 45 178 1
14 3 3 478 188 1
17 -3 3 119 212 1
17 -3 3 160 198 1
-14 -3 3 283 189 1
17 -3 4 201 210 1
14 3 4 152 206 1
17 -3 4 0 207 1
-14 -3 4 54 186 1
17 -3 5 560 210 1
14 3 5 261 204 1
17 -3 5 714 221 1
-14 -3 5 372 192 1
17 -3 6 0 204 1
14 3 6 72 212 1
17 -3 6 0 217 1
-14 -3 6 16 175 1
17 -3 7 453 219 1
14 3 7 386 213 1
14 3 8 3 208 1
17 -3 8 3 218 1
15 2 -8 2090 265 1
-2 17 -8 2212 246 1
2 15 -8 1950 245 1
15 2 -8 1863 251 1
17 -2 -8 2042 239 1
-15 -2 -8 1359 213 1
-17 2 -8 1926 220 1
-2 17 -7 2317 229 1
15 2 -7 1403 253 1
2 15 -7 1908 233 1
15 2 -7 2498 259 1
17 -2 -7 1833 243 1
-15 -2 -7 2141 221 1
-17 2 -7 1857 232 1
-2 17 -6 2033 226 1
2 15 -6 2270 236 1
15 2 -6 2534 262 1
17 -2 -6 2261 274 1
15 2 -6 2035 250 1
17 -2 -6 2247 244 1
-15 -2 -6 2259 228 1
-17 2 -6 2355 226 1
-2 17 -5 3855 270 1
2 15 -5 3789 265 1
15 2 -5 3474 284 1
17 -2 -5 3757 296 1
15 2 -5 3256 279 1
17 -2 -5 4107 283 1
-15 -2 -5 4017 260 1
-17 2 -5 4022 268 1
-2 17 -4 1647 212 1
2 15 -4 1919 211 1
15 2 -4 1655 249 1
15 2 -4 2110 234 1
17 -2 -4 2096 252 1
17 -2 -4 1893 247 1
-15 -2 -4 1821 217 1
-17 2 -4 2337 227 1
-2 17 -3 1938 204 1
2 15 -3 2463 215 1
15 2 -3 2075 242 1
15 2 -3 1823 232 1
17 -15 -3 2105 226 1
17 -2 -3 2006 236 1
17 -2 -3 1886 238 1
-15 -2 -3 1618 212 1
-17 2 -3 1954 218 1
17 -15 -2 4153 277 1
2 15 -2 3572 256 1
15 2 -2 3540 283 1
17 -2 -2 3616 289 1
17 -2 -2 3928 295 1
-17 2 -2 3500 257 1
-15 -2 -2 3147 266 1
17 -15 -1 2950 244 1
2 15 -1 3191 228 1
15 2 -1 2237 240 1
15 2 -1 3548 251 1
17 -2 -1 3105 252 1
17 -2 -1 3197 266 1
-17 2 -1 2925 231 1
17 -2 0 2435 258 1
15 2 0 2994 251 1
17 -15 0 2487 237 1
17 -2 0 2697 249 1
15 2 0 2623 239 1
-15 -2 0 3052 232 1
-17 2 0 2925 237 1
15 2 1 2935 250 1
17 -2 1 2888 256 1
17 -15 1 3317 249 1
15 2 1 3152 265 1
-15 -2 1 3287 235 1
15 2 2 3630 283 1
17 -15 2 3530 277 1
17 -2 2 2976 280 1
15 2 2 3560 285 1
-15 -2 2 4214 280 1
15 2 3 1838 218 1
15 2 3 2037 223 1
17 -2 3 1710 237 1
17 -2 3 2328 247 1
-15 -2 3 1992 211 1
17 -2 4 1837 240 1
15 2 4 2487 241 1
17 -2 4 1937 247 1
-15 -2 4 1726 209 1
17 -2 5 3507 274 1
15 2 5 3977 285 1
17 -2 5 3577 269 1
-15 -2 5 3460 251 1
17 -2 6 2261 249 1
15 2 6 1745 243 1
17 -2 6 2704 265 1
17 -2 7 2235 254 1
15 2 7 1869 239 1
17 -2 8 1998 246 1
15 2 8 1951 243 1
-1 17 -7 18 220 1
1 16 -7 17 218 1
16 1 -7 456 239 1
17 -1 -7 133 234 1
16 1 -7 139 221 1
17 -1 -7 301 226 1
-16 -1 -7 479 203 1
-17 1 -7 2 207 1
-1 17 -6 6322 349 1
1 16 -6 5574 346 1
16 1 -6 5969 358 1
17 -1 -6 6001 366 1
16 1 -6 5698 365 1
-16 -1 -6 6688 353 1
-17 1 -6 6798 350 1
17 -1 -6 5719 370 1
-1 17 -5 792 214 1
1 16 -5 1046 207 1
16 1 -5 1038 241 1
17 -1 -5 414 236 1
16 1 -5 413 213 1
17 -1 -5 549 222 1
-16 -1 -5 897 213 1
-17 1 -5 463 196 1
17 -1 -4 7206 382 1
-1 17 -4 6972 353 1
1 16 -4 7097 349 1
16 1 -4 6261 369 1
17 -1 -4 6851 365 1
-16 -1 -4 6646 343 1
-17 1 -4 6601 349 1
16 1 -4 6988 379 1
-1 17 -3 49 187 1
1 16 -3 99 180 1
16 1 -3 162 219 1
16 1 -3 34 212 1
17 -1 -3 62 212 1
17 -1 -3 163 222 1
-16 -1 -3 10 193 1
-17 1 -3 14 193 1
1 16 -2 4420 269 1
17 -16 -2 3681 276 1
17 -1 -2 4133 297 1
16 1 -2 3724 294 1
16 1 -2 3893 295 1
17 -1 -2 3875 302 1
-17 1 -2 3707 278 1
-16 -1 -2 4092 283 1
17 -1 -1 1 222 1
16 1 -1 64 203 1
17 -16 -1 0 194 1
17 -1 -1 1 209 1
-17 1 -1 297 182 1
17 -1 0 2504 261 1
17 -16 0 3500 256 1
16 1 0 3339 277 1
16 1 0 3485 264 1
-16 -1 0 3444 251 1
17 -16 1 250 194 1
16 1 1 1 212 1
17 -1 1 72 213 1
16 1 1 187 217 1
-16 -1 1 1 186 1
-17 1 1 271 190 1
-17 1 2 3911 272 1
16 1 2 3533 286 1
17 -1 2 4243 295 1
16 1 2 4083 290 1
17 -1 2 4309 307 1
-16 -1 2 3715 270 1
16 1 3 113 208 1
17 -1 3 63 206 1
16 1 3 214 213 1
17 -1 3 36 220 1
-16 -1 3 37 187 1
16 1 4 6859 367 1
17 -1 4 6371 358 1
16 1 4 6032 344 1
17 -1 4 6765 358 1
-16 -1 4 6902 342 1
17 -1 5 759 221 1
16 1 5 668 232 1
17 -1 5 438 235 1
17 -1 6 6465 364 1
16 1 6 6724 375 1
17 -1 6 5868 361 1
17 -1 7 234 215 1
16 1 7 2 221 1
17 -1 7 251 227 1
0 17 -6 4240 293 1
17 0 -6 2747 297 1
17 0 -6 3868 302 1
-17 0 -6 4047 284 1
0 17 -5 4447 279 1
17 0 -5 3609 306 1
17 0 -5 3691 294 1
-17 0 -5 3951 276 1
0 17 -4 3278 238 1
17 0 -4 2706 267 1
17 0 -4 2645 265 1
-17 0 -4 2549 244 1
0 17 -3 4022 270 1
17 0 -3 3953 304 1
17 0 -3 4138 298 1
-17 0 -3 3938 279 1
17 0 -2 1503 238 1
17 0 -2 1209 235 1
-17 0 -2 1302 216 1
17 0 -1 1670 261 1
-17 0 -1 2066 227 1
17 0 0 184 222 1
17 0 1 2055 248 1
17 0 1 1883 246 1
-17 0 1 1828 221 1
17 0 2 1165 233 1
17 0 2 1056 235 1
-17 0 2 892 203 1
17 0 3 4470 294 1
17 0 3 3650 286 1
17 0 4 2773 260 1
17 0 4 2497 252 1
17 0 5 3937 287 1
17 0 5 3629 303 1
17 0 6 3668 286 1
-9 18 -8 1474 229 1
18 -9 -8 1226 237 1
9 9 -8 1608 234 1
-9 18 -8 1541 205 1
-9 18 -6 5340 288 1
18 -9 -6 5233 329 1
9 9 -6 4884 306 1
9 9 -6 4763 295 1
-9 18 -4 8526 351 1
9 9 -4 8602 383 1
18 -9 -4 8037 389 1
9 9 -4 7826 365 1
18 -9 -4 7866 365 1
9 9 -2 8623 411 1
18 -9 -2 7835 416 1
18 -9 -2 8758 404 1
9 9 0 5024 265 1
18 -9 0 5071 277 1
18 -9 0 5455 284 1
9 9 2 7441 373 1
18 -9 4 7382 351 1
9 9 4 6815 328 1
-9 -9 4 6838 320 1
18 -9 6 4871 323 1
-8 18 -9 3 187 1
-10 18 -9 2 211 1
-8 18 -9 3 211 1
10 8 -9 3 223 1
18 -8 -9 74 237 1
8 10 -9 22 214 1
18 -10 -9 2 230 1
10 8 -9 11 225 1
-10 18 -9 67 190 1
-8 18 -8 747 191 1
-8 18 -8 769 214 1
8 10 -8 621 218 1
10 8 -8 361 211 1
18 -8 -8 463 241 1
8 10 -8 624 207 1
10 8 -8 801 221 1
18 -10 -8 440 224 1
-10 18 -8 310 187 1
-8 18 -7 13 195 1
8 10 -7 13 204 1
18 -8 -7 77 221 1
8 10 -7 322 212 1
10 8 -7 192 205 1
18 -10 -7 15 222 1
18 -10 -6 1393 233 1
-8 18 -6 1413 200 1
8 10 -6 1684 233 1
10 8 -6 1701 228 1
8 10 -6 1208 214 1
18 -8 -6 1572 235 1
10 8 -6 1523 224 1
10 8 -5 89 195 1
-8 18 -5 111 170 1
18 -10 -5 278 225 1
18 -8 -5 162 220 1
8 10 -5 29 197 1
10 8 -5 205 221 1
18 -8 -5 8 196 1
8 10 -5 15 180 1
-8 18 -4 3714 242 1
10 8 -4 3308 251 1
18 -8 -4 3325 287 1
18 -10 -4 3218 274 1
8 10 -4 3639 272 1
10 8 -4 3679 260 1
18 -8 -4 3236 255 1
18 -10 -4 3340 246 1
10 8 -3 23 175 1
18 -8 -3 39 217 1
8 10 -3 300 197 1
18 -10 -3 290 201 1
10 8 -3 154 193 1
18 -8 -3 44 187 1
18 -10 -3 193 174 1
18 -8 -2 1380 227 1
8 10 -2 2104 222 1
10 8 -2 1961 218 1
18 -10 -2 2007 239 1
18 -8 -2 1819 218 1
18 -10 -2 2168 217 1
8 10 -1 98 195 1
10 8 -1 201 190 1
18 -8 -1 401 216 1
18 -10 -1 214 200 1
18 -8 -1 375 190 1
18 -10 0 260 199 1
8 10 0 353 186 1
10 8 0 745 202 1
18 -8 0 334 210 1
18 -8 0 648 197 1
18 -10 1 316 220 1
8 10 1 265 182 1
10 8 1 326 192 1
18 -8 1 506 206 1
18 -10 2 1625 236 1
8 10 2 2138 208 1
10 8 2 1908 217 1
18 -8 3 210 205 1
8 10 3 218 178 1
10 8 3 226 196 1
18 -10 3 185 209 1
-10 -8 3 526 173 1
10 8 4 3786 263 1
18 -8 4 4253 301 1
-10 -8 4 3995 254 1
18 -8 5 33 209 1
10 8 5 290 195 1
-8 -10 5 327 171 1
-10 -8 5 221 171 1
18 -10 6 1602 237 1
18 -8 6 1552 245 1
-10 -8 6 2184 208 1
18 -8 7 61 236 1
18 -10 7 168 218 1
18 -8 8 904 237 1
18 -11 -8 506 229 1
-7 18 -8 620 190 1
-7 18 -8 378 210 1
7 11 -8 513 223 1
11 7 -8 270 223 1
18 -7 -8 443 223 1
7 11 -8 489 213 1
11 7 -8 717 217 1
18 -11 -7 48 222 1
-7 18 -7 267 191 1
7 11 -7 20 211 1
18 -7 -7 158 211 1
7 11 -7 115 199 1
11 7 -7 177 204 1
11 7 -6 1556 218 1
-7 18 -6 1332 203 1
18 -11 -6 1665 230 1
7 11 -6 1642 240 1
18 -7 -6 1378 217 1
7 11 -6 1565 212 1
18 -7 -6 1627 252 1
11 7 -5 1574 219 1
-7 18 -5 1309 196 1
18 -11 -5 1209 230 1
7 11 -5 1311 226 1
11 7 -5 1058 227 1
18 -7 -5 1328 218 1
18 -7 -5 1789 240 1
-7 18 -4 1892 196 1
11 7 -4 1715 209 1
7 11 -4 2059 229 1
18 -11 -4 1860 229 1
11 7 -4 2103 220 1
18 -7 -4 1960 216 1
18 -7 -4 1242 241 1
18 -7 -3 1154 233 1
11 7 -3 1464 206 1
7 11 -3 1539 220 1
11 7 -3 1110 206 1
18 -11 -3 1265 221 1
18 -7 -3 1704 216 1
18 -7 -2 552 221 1
11 7 -2 508 193 1
7 11 -2 735 196 1
11 7 -2 661 218 1
18 -7 -2 594 210 1
18 -11 -2 662 217 1
18 -11 -1 1 208 1
7 11 -1 316 186 1
11 7 -1 8 198 1
18 -7 -1 406 204 1
18 -11 0 78 210 1
7 11 0 77 182 1
11 7 0 0 194 1
18 -7 0 0 191 1
18 -11 1 361 211 1
7 11 1 193 176 1
11 7 1 57 193 1
18 -7 1 505 222 1
18 -7 1 15 201 1
18 -7 2 725 216 1
7 11 2 592 179 1
11 7 2 661 201 1
18 -11 2 614 221 1
18 -7 2 752 208 1
-11 -7 2 683 187 1
18 -11 3 1288 226 1
18 -7 3 1597 238 1
11 7 3 1139 197 1
-11 -7 3 1496 197 1
18 -11 4 1990 251 1
18 -7 4 2035 239 1
11 7 4 1700 217 1
-11 -7 4 1994 208 1
11 7 5 1740 215 1
18 -7 5 1152 226 1
-11 -7 5 1319 201 1
18 -7 6 838 239 1
11 7 6 1654 213 1
-11 -7 6 1557 196 1
18 -7 7 135 223 1
18 -7 8 797 236 1
18 -12 -8 1320 242 1
-6 18 -8 1291 227 1
6 12 -8 1665 237 1
12 6 -8 1293 246 1
18 -6 -8 1420 254 1
6 12 -8 1876 228 1
12 6 -8 1432 243 1
12 6 -7 144 204 1
-6 18 -7 175 200 1
18 -12 -7 150 212 1
6 12 -7 119 220 1
12 6 -7 0 212 1
18 -6 -7 528 238 1
6 12 -7 135 197 1
18 -6 -7 333 201 1
12 6 -6 67 201 1
-6 18 -6 283 191 1
18 -12 -6 135 212 1
6 12 -6 500 215 1
18 -6 -6 5 196 1
18 -6 -6 189 240 1
12 6 -5 1019 212 1
-6 18 -5 902 193 1
6 12 -5 1078 219 1
18 -12 -5 571 203 1
18 -6 -5 989 209 1
18 -6 -5 880 234 1
-6 18 -4 9 183 1
12 6 -4 568 197 1
6 12 -4 338 203 1
12 6 -4 60 216 1
18 -12 -4 346 201 1
18 -6 -4 229 187 1
18 -6 -4 475 222 1
18 -6 -3 900 224 1
12 6 -3 534 199 1
6 12 -3 740 201 1
12 6 -3 550 213 1
18 -6 -3 666 206 1
18 -12 -3 668 204 1
18 -12 -2 482 204 1
12 6 -2 483 193 1
6 12 -2 769 196 1
12 6 -2 516 209 1
18 -6 -2 556 200 1
18 -12 -1 346 212 1
6 12 -1 3 183 1
12 6 -1 446 188 1
12 6 -1 3 206 1
18 -6 -1 311 212 1
18 -12 0 178 208 1
6 12 0 241 180 1
18 -6 0 420 207 1
12 6 0 473 192 1
18 -6 0 484 202 1
-12 -6 0 217 180 1
6 12 1 146 170 1
12 6 1 3 193 1
18 -6 1 227 208 1
18 -12 1 388 212 1
18 -6 1 2 198 1
-12 -6 1 29 174 1
18 -12 2 570 211 1
12 6 2 711 201 1
18 -6 2 424 197 1
-12 -6 2 791 182 1
18 -6 2 744 217 1
18 -6 3 790 217 1
18 -12 3 719 218 1
12 6 3 1004 204 1
18 -6 3 584 210 1
-12 -6 3 791 196 1
18 -12 4 217 211 1
18 -6 4 0 218 1
12 6 4 0 194 1
-12 -6 4 128 183 1
12 6 5 947 209 1
18 -6 5 645 217 1
-12 -6 5 1013 199 1
18 -12 5 676 234 1
18 -6 6 72 207 1
12 6 6 190 202 1
-12 -6 6 0 186 1
18 -6 7 0 219 1
-12 -6 7 184 181 1
18 -6 8 1296 243 1
13 5 -8 694 233 1
-5 18 -8 735 214 1
5 13 -8 810 232 1
13 5 -8 739 238 1
18 -5 -8 784 265 1
5 13 -8 747 214 1
18 -5 -8 785 223 1
13 5 -7 96 216 1
-5 18 -7 2 203 1
5 13 -7 406 210 1
18 -13 -7 85 212 1
13 5 -7 334 221 1
18 -5 -7 2 234 1
18 -5 -7 8 206 1
-18 5 -7 453 190 1
-18 5 -6 535 193 1
13 5 -6 569 223 1
-5 18 -6 437 199 1
5 13 -6 555 219 1
13 5 -6 275 206 1
18 -13 -6 464 216 1
18 -5 -6 5 242 1
18 -5 -6 250 211 1
-5 18 -5 133 188 1
13 5 -5 0 209 1
5 13 -5 28 210 1
18 -13 -5 194 206 1
18 -5 -5 226 195 1
18 -5 -5 0 221 1
-5 18 -4 503 187 1
13 5 -4 393 199 1
5 13 -4 435 203 1
18 -5 -4 774 200 1
18 -13 -4 478 208 1
18 -13 -3 532 207 1
13 5 -3 533 198 1
5 13 -3 783 210 1
13 5 -3 794 222 1
18 -5 -3 385 199 1
18 -5 -2 124 224 1
18 -13 -2 189 205 1
5 13 -2 0 198 1
13 5 -2 378 194 1
13 5 -2 593 211 1
18 -5 -2 275 185 1
-13 -5 -2 42 190 1
18 -5 -1 285 212 1
5 13 -1 132 185 1
18 -13 -1 0 200 1
13 5 -1 64 190 1
13 5 -1 49 209 1
18 -5 -1 65 213 1
-13 -5 -1 0 188 1
18 -5 0 36 209 1
5 13 0 197 179 1
13 5 0 57 204 1
13 5 0 13 186 1
18 -13 0 9 205 1
18 -5 0 7 202 1
-13 -5 0 13 182 1
18 -13 1 0 198 1
5 13 1 90 179 1
18 -5 1 59 206 1
13 5 1 380 207 1
18 -5 1 194 207 1
-13 -5 1 30 195 1
18 -13 2 36 223 1
13 5 2 348 211 1
18 -5 2 1 213 1
18 -5 2 187 212 1
-13 -5 2 25 190 1
18 -5 3 312 220 1
13 5 3 670 215 1
18 -5 3 851 214 1
18 -13 3 346 206 1
-13 -5 3 715 189 1
18 -5 4 455 218 1
13 5 4 401 209 1
18 -13 4 694 220 1
-13 -5 4 613 193 1
18 -13 5 269 218 1
18 -5 5 0 215 1
13 5 5 0 203 1
-13 -5 5 427 184 1
18 -5 6 224 211 1
13 5 6 182 208 1
-13 -5 6 427 185 1
18 -5 7 152 229 1
13 5 7 306 211 1
-13 -5 7 152 189 1
18 -5 8 704 234 1
14 4 -7 1657 246 1
-4 18 -7 1675 225 1
4 14 -7 1359 225 1
14 4 -7 1416 246 1
18 -4 -7 1379 270 1
18 -4 -7 1692 240 1
-18 4 -7 1229 203 1
-4 18 -6 69 208 1
14 4 -6 576 232 1
4 14 -6 332 215 1
14 4 -6 227 224 1
18 -4 -6 317 220 1
18 -4 -6 26 214 1
-18 4 -6 194 192 1
-4 18 -5 3160 252 1
14 4 -5 3826 270 1
4 14 -5 4046 271 1
14 4 -5 3256 279 1
18 -4 -5 3674 271 1
-14 -4 -5 3950 271 1
18 -14 -5 3998 270 1
-18 4 -5 3562 250 1
18 -14 -4 311 215 1
-4 18 -4 417 191 1
14 4 -4 352 216 1
4 14 -4 581 213 1
18 -4 -4 434 207 1
18 -4 -4 294 218 1
-14 -4 -4 78 198 1
-18 4 -4 468 191 1
-18 4 -3 3467 237 1
18 -14 -3 2782 247 1
4 14 -3 3262 244 1
14 4 -3 2182 249 1
14 4 -3 2918 264 1
18 -4 -3 2734 248 1
18 -4 -3 2587 273 1
-14 -4 -3 2515 228 1
18 -4 -2 0 223 1
4 14 -2 56 190 1
18 -14 -2 247 203 1
14 4 -2 1 205 1
14 4 -2 66 214 1
18 -4 -2 0 195 1
18 -4 -1 1052 246 1
4 14 -1 629 197 1
14 4 -1 469 219 1
14 4 -1 373 194 1
18 -14 -1 674 209 1
18 -4 -1 996 219 1
-14 -4 -1 857 208 1
18 -14 0 0 206 1
18 -4 0 122 227 1
4 14 0 226 183 1
14 4 0 0 202 1
14 4 0 11 195 1
18 -4 0 143 211 1
-14 -4 0 0 193 1
18 -14 1 875 218 1
18 -4 1 212 232 1
14 4 1 676 216 1
18 -4 1 781 218 1
14 4 1 364 195 1
-14 -4 1 739 203 1
14 4 2 1 201 1
18 -4 2 101 218 1
18 -4 2 63 212 1
18 -14 2 1 214 1
-14 -4 2 201 186 1
18 -14 3 2823 275 1
14 4 3 2953 259 1
-14 -4 3 3258 246 1
18 -4 3 2920 266 1
18 -4 4 109 210 1
18 -14 4 71 213 1
14 4 4 775 214 1
18 -4 4 30 215 1
-14 -4 4 328 196 1
18 -4 5 3532 277 1
14 4 5 3441 273 1
18 -4 5 3529 282 1
-14 -4 5 4010 245 1
14 4 6 297 214 1
18 -4 6 7 224 1
-14 -4 6 191 189 1
18 -4 7 1216 238 1
14 4 7 1206 230 1
-3 18 -6 139 202 1
15 3 -6 3 226 1
3 15 -6 3 212 1
15 3 -6 108 226 1
18 -3 -6 2 232 1
-15 -3 -6 3 213 1
-18 3 -6 2 197 1
-3 18 -5 1011 207 1
3 15 -5 1167 224 1
15 3 -5 1001 238 1
15 3 -5 1111 233 1
18 -3 -5 1322 250 1
18 -3 -5 1014 235 1
-15 -3 -5 1179 224 1
-18 3 -5 1078 212 1
-3 18 -4 1 201 1
3 15 -4 25 186 1
18 -15 -4 2 209 1
15 3 -4 214 224 1
15 3 -4 1 237 1
18 -3 -4 77 210 1
18 -3 -4 208 222 1
-15 -3 -4 1 206 1
-18 3 -4 248 196 1
3 15 -3 1609 217 1
15 3 -3 2147 248 1
18 -15 -3 1843 231 1
18 -3 -3 1194 235 1
18 -3 -3 1896 258 1
-15 -3 -3 1560 217 1
-18 3 -3 1309 208 1
3 15 -2 0 196 1
15 3 -2 161 204 1
15 3 -2 171 230 1
18 -3 -2 1 220 1
18 -15 -2 84 212 1
18 -3 -2 1 218 1
-18 3 -2 1 195 1
18 -15 -1 770 213 1
18 -3 -1 449 237 1
3 15 -1 687 199 1
15 3 -1 340 215 1
15 3 -1 517 211 1
18 -3 -1 364 215 1
-15 -3 -1 535 205 1
18 -3 0 51 217 1
18 -15 0 327 210 1
15 3 0 302 215 1
18 -3 0 0 212 1
15 3 0 0 198 1
-15 -3 0 0 206 1
18 -3 1 288 215 1
15 3 1 504 215 1
18 -3 1 440 217 1
-15 -3 1 739 207 1
18 -15 1 380 206 1
15 3 1 213 201 1
15 3 2 5 204 1
18 -3 2 156 221 1
15 3 2 0 214 1
18 -15 2 109 221 1
-15 -3 2 0 201 1
15 3 3 1074 226 1
18 -15 3 1687 232 1
18 -3 3 1324 235 1
18 -3 3 1230 237 1
-15 -3 3 1559 226 1
18 -3 4 57 217 1
15 3 4 74 220 1
18 -3 4 244 230 1
-15 -3 4 218 190 1
18 -3 5 1092 235 1
15 3 5 1051 232 1
18 -3 5 909 234 1
-15 -3 5 1150 209 1
15 3 6 3 216 1
18 -3 6 2 222 1
18 -3 6 327 229 1
-2 18 -5 1745 229 1
2 16 -5 1275 224 1
16 2 -5 1199 247 1
16 2 -5 1593 247 1
18 -2 -5 1147 256 1
18 -2 -5 1411 240 1
-16 -2 -5 1447 228 1
-18 2 -5 1630 220 1
-2 18 -4 561 207 1
2 16 -4 805 218 1
16 2 -4 702 244 1
16 2 -4 239 232 1
18 -2 -4 443 223 1
18 -2 -4 224 240 1
-16 -2 -4 649 223 1
-18 2 -4 567 203 1
2 16 -3 2079 226 1
16 2 -3 2375 254 1
16 2 -3 2233 258 1
18 -2 -3 1934 253 1
18 -2 -3 1511 252 1
-16 -2 -3 1570 225 1
-18 2 -3 1511 227 1
18 -16 -2 388 210 1
2 16 -2 224 202 1
16 2 -2 2 228 1
18 -2 -2 71 214 1
18 -2 -2 107 234 1
-16 -2 -2 42 218 1
-18 2 -2 1 199 1
18 -2 -1 1599 255 1
18 -16 -1 1523 231 1
16 2 -1 1066 244 1
18 -2 -1 1048 239 1
16 2 -1 933 237 1
-18 2 -1 1288 208 1
-18 2 0 191 202 1
18 -16 0 476 205 1
18 -2 0 611 241 1
16 2 0 387 225 1
18 -2 0 261 221 1
16 2 0 450 219 1
-16 -2 0 518 211 1
16 2 1 1028 221 1
18 -2 1 926 228 1
16 2 1 1000 234 1
-16 -2 1 1237 227 1
18 -16 1 1108 225 1
16 2 2 230 208 1
18 -2 2 326 230 1
18 -16 2 1 219 1
16 2 2 2 228 1
-16 -2 2 30 204 1
16 2 3 2128 245 1
16 2 3 1734 240 1
18 -2 3 2056 251 1
18 -2 3 1923 252 1
-16 -2 3 1775 224 1
18 -2 4 857 242 1
16 2 4 437 230 1
18 -2 4 342 242 1
-16 -2 4 449 206 1
18 -2 5 1371 249 1
16 2 5 932 244 1
18 -2 5 1642 247 1
-1 18 -4 220 206 1
1 17 -4 286 209 1
17 1 -4 319 244 1
17 1 -4 11 239 1
18 -1 -4 12 232 1
18 -1 -4 383 235 1
-17 -1 -4 196 209 1
-18 1 -4 73 212 1
1 17 -3 1556 217 1
17 1 -3 1511 248 1
17 1 -3 1259 257 1
18 -1 -3 1462 246 1
18 -1 -3 1217 254 1
-17 -1 -3 1670 236 1
-18 1 -3 1490 223 1
17 1 -2 0 234 1
18 -1 -2 135 241 1
17 1 -2 0 231 1
18 -1 -2 147 246 1
-17 -1 -2 222 201 1
-18 1 -2 143 204 1
18 -1 -1 476 241 1
18 -1 -1 588 242 1
17 1 -1 870 240 1
-18 1 -1 669 207 1
17 1 0 17 212 1
18 -1 0 16 244 1
18 -17 0 1 210 1
17 1 0 178 217 1
-17 -1 0 17 211 1
17 1 1 118 218 1
18 -1 1 119 219 1
17 1 1 16 222 1
-17 -1 1 73 193 1
-18 1 1 433 215 1
17 1 2 223 221 1
18 -1 2 95 221 1
17 1 2 101 231 1
18 -1 2 70 222 1
-17 -1 2 23 196 1
17 1 3 1536 240 1
17 1 3 1742 259 1
18 -1 3 1508 246 1
18 -1 3 1703 259 1
-17 -1 3 1735 228 1
18 -1 4 12 233 1
17 1 4 118 236 1
18 -1 4 234 234 1
-18 0 -1 1978 236 1
18 0 -1 1639 261 1
18 0 0 2 241 1
18 0 1 1754 256 1
18 0 1 1524 239 1
-18 0 1 1327 226 1
19 -10 -7 2947 280 1
-10 19 -7 2838 249 1
-9 19 -7 2774 250 1
9 10 -7 3055 277 1
10 9 -7 2805 272 1
9 10 -7 2906 259 1
19 -9 -7 2761 285 1
10 9 -7 2712 256 1
19 -9 -6 554 234 1
-10 19 -6 1339 209 1
-9 19 -6 1175 212 1
19 -10 -6 1163 249 1
9 10 -6 1330 237 1
10 9 -6 1193 233 1
9 10 -6 990 211 1
10 9 -6 907 217 1
-10 19 -5 5605 309 1
-9 19 -5 6393 319 1
9 10 -5 5375 329 1
10 9 -5 6146 343 1
19 -9 -5 6075 353 1
19 -10 -5 5346 342 1
9 10 -5 5508 319 1
10 9 -5 5416 326 1
19 -9 -5 5177 323 1
10 9 -4 431 203 1
19 -9 -4 657 228 1
19 -10 -4 683 232 1
9 10 -4 763 213 1
10 9 -4 413 212 1
19 -9 -4 564 205 1
19 -10 -4 732 204 1
9 10 -3 7691 371 1
10 9 -3 6815 368 1
19 -9 -3 6365 375 1
19 -10 -3 6900 377 1
19 -9 -3 7549 362 1
19 -10 -3 6943 357 1
9 10 -2 1667 217 1
10 9 -2 1613 223 1
19 -9 -2 1260 235 1
19 -10 -2 1404 232 1
19 -9 -2 1200 219 1
19 -10 -2 1549 214 1
9 10 -1 6459 351 1
10 9 -1 5497 345 1
19 -9 -1 6566 373 1
19 -10 -1 6261 366 1
19 -9 -1 5733 347 1
19 -10 0 2138 252 1
9 10 0 2347 228 1
10 9 0 2245 230 1
19 -9 0 1984 239 1
19 -9 0 2336 247 1
9 10 1 5793 336 1
10 9 1 6247 341 1
19 -9 1 5715 359 1
19 -10 1 6547 367 1
19 -10 2 1256 246 1
9 10 2 1860 218 1
10 9 2 810 200 1
9 10 3 6781 352 1
10 9 3 6538 354 1
-10 -9 3 7469 349 1
10 9 4 708 200 1
-9 -10 4 389 183 1
-10 -9 4 702 190 1
19 -9 4 792 232 1
19 -9 5 6112 360 1
19 -10 5 5809 360 1
-10 -9 5 5542 315 1
19 -10 6 419 246 1
19 -9 6 711 233 1
19 -10 7 3068 279 1
19 -9 7 2847 294 1
-8 19 -7 14 204 1
19 -11 -7 106 230 1
8 11 -7 16 225 1
8 11 -7 3 215 1
19 -8 -7 384 230 1
11 8 -7 19 220 1
11 8 -6 810 217 1
-8 19 -6 620 197 1
19 -11 -6 847 237 1
8 11 -6 830 229 1
11 8 -6 530 234 1
8 11 -6 932 218 1
19 -8 -6 943 252 1
19 -8 -5 480 232 1
11 8 -5 173 199 1
-8 19 -5 9 182 1
19 -11 -5 259 225 1
8 11 -5 447 225 1
11 8 -5 561 216 1
19 -8 -5 372 219 1
19 -8 -4 2727 278 1
11 8 -4 2553 244 1
8 11 -4 3236 261 1
19 -11 -4 3238 269 1
11 8 -4 2851 258 1
19 -8 -4 2819 256 1
11 8 -3 299 194 1
19 -8 -3 389 229 1
8 11 -3 883 223 1
11 8 -3 178 209 1
19 -11 -3 614 219 1
19 -8 -3 425 209 1
19 -8 -2 2709 258 1
8 11 -2 2585 237 1
11 8 -2 2233 244 1
19 -11 -2 2374 255 1
19 -8 -2 2379 244 1
19 -11 -1 22 218 1
8 11 -1 9 188 1
11 8 -1 3 206 1
19 -8 -1 294 228 1
19 -8 -1 91 203 1
19 -11 0 1947 253 1
8 11 0 2071 219 1
11 8 0 2481 239 1
19 -8 0 1942 239 1
19 -11 1 159 216 1
8 11 1 311 201 1
11 8 1 262 196 1
19 -8 1 4 220 1
19 -8 2 2259 255 1
8 11 2 2163 226 1
11 8 2 2850 236 1
19 -11 2 2037 255 1
-11 -8 2 2266 228 1
19 -11 3 266 237 1
19 -8 3 298 225 1
11 8 3 631 204 1
-11 -8 3 222 182 1
19 -11 4 2991 275 1
11 8 4 2409 250 1
19 -8 4 2547 267 1
-11 -8 4 2796 228 1
19 -8 5 225 237 1
11 8 5 343 210 1
-11 -8 5 171 193 1
19 -8 6 914 243 1
19 -8 7 15 236 1
12 7 -7 260 218 1
-7 19 -7 6 211 1
19 -12 -7 21 234 1
7 12 -7 131 217 1
19 -7 -7 6 241 1
12 7 -6 106 219 1
-7 19 -6 17 203 1
19 -12 -6 17 219 1
7 12 -6 15 205 1
19 -7 -6 17 212 1
19 -7 -6 311 234 1
-7 19 -5 21 192 1
12 7 -5 8 205 1
7 12 -5 270 215 1
12 7 -5 30 218 1
19 -12 -5 11 215 1
19 -7 -5 11 218 1
19 -7 -5 120 234 1
19 -7 -4 7 229 1
12 7 -4 467 207 1
7 12 -4 250 206 1
12 7 -4 9 218 1
19 -12 -4 6 213 1
19 -7 -4 7 213 1
19 -7 -3 96 214 1
12 7 -3 80 197 1
7 12 -3 0 205 1
12 7 -3 0 217 1
19 -7 -3 0 203 1
19 -12 -3 107 217 1
19 -12 -2 8 219 1
19 -7 -2 9 215 1
12 7 -2 77 192 1
7 12 -2 11 200 1
12 7 -2 154 209 1
19 -7 -2 100 209 1
19 -12 -1 6 222 1
7 12 -1 394 192 1
12 7 -1 51 210 1
19 -7 -1 23 210 1
19 -12 0 115 214 1
7 12 0 32 181 1
12 7 0 53 215 1
19 -7 0 21 212 1
19 -7 0 0 207 1
-12 -7 0 0 199 1
7 12 1 6 187 1
12 7 1 349 216 1
19 -12 1 308 219 1
19 -7 1 6 209 1
19 -7 1 466 231 1
-12 -7 1 285 189 1
19 -7 2 146 232 1
12 7 2 197 209 1
19 -7 2 9 216 1
-12 -7 2 11 183 1
19 -12 2 204 206 1
19 -7 3 0 227 1
19 -12 3 0 215 1
12 7 3 0 203 1
-12 -7 3 154 188 1
19 -7 4 267 224 1
12 7 4 151 206 1
19 -12 4 74 221 1
-12 -7 4 276 190 1
19 -12 5 11 240 1
12 7 5 195 204 1
19 -7 5 11 236 1
-12 -7 5 12 197 1
19 -7 6 17 223 1
-12 -7 6 29 196 1
19 -7 7 418 234 1
-6 19 -6 538 204 1
13 6 -6 71 223 1
6 13 -6 397 225 1
19 -13 -6 447 231 1
19 -6 -6 125 218 1
19 -6 -6 226 240 1
-6 19 -5 1243 212 1
13 6 -5 1323 232 1
6 13 -5 1617 227 1
19 -13 -5 1198 239 1
19 -6 -5 1239 227 1
19 -6 -5 1554 256 1
13 6 -4 0 203 1
6 13 -4 421 212 1
13 6 -4 121 222 1
19 -6 -4 29 209 1
19 -13 -4 281 219 1
19 -6 -4 116 238 1
19 -13 -3 1649 247 1
13 6 -3 1743 227 1
6 13 -3 1675 227 1
13 6 -3 1482 246 1
19 -6 -3 1571 241 1
19 -13 -2 406 215 1
6 13 -2 574 209 1
13 6 -2 514 198 1
13 6 -2 2 221 1
19 -6 -2 621 214 1
19 -6 -1 426 224 1
19 -13 -1 281 208 1
6 13 -1 698 209 1
13 6 -1 477 223 1
19 -6 -1 169 203 1
-13 -6 -1 386 202 1
6 13 0 41 188 1
19 -6 0 533 219 1
13 6 0 367 209 1
19 -13 0 378 220 1
19 -6 0 257 213 1
-13 -6 0 30 189 1
13 6 1 349 208 1
19 -6 1 681 234 1
19 -6 1 140 213 1
-13 -6 1 520 194 1
19 -13 1 558 220 1
19 -13 2 981 223 1
13 6 2 529 215 1
19 -6 2 156 216 1
-13 -6 2 613 204 1
19 -6 2 368 223 1
19 -6 3 1510 261 1
13 6 3 1613 248 1
19 -13 3 1746 256 1
19 -6 3 1718 240 1
-13 -6 3 1619 220 1
19 -13 4 320 234 1
19 -6 4 0 232 1
13 6 4 344 218 1
-13 -6 4 184 203 1
13 6 5 1358 227 1
19 -6 5 938 247 1
19 -13 5 1126 242 1
-13 -6 5 1787 218 1
19 -6 6 262 229 1
13 6 6 71 217 1
-13 -6 6 166 194 1
-5 19 -5 1602 224 1
14 5 -5 1628 247 1
5 14 -5 1445 237 1
19 -5 -5 1215 231 1
19 -5 -5 1185 249 1
19 -14 -5 1722 235 1
19 -14 -4 2640 262 1
14 5 -4 2741 263 1
5 14 -4 2282 243 1
14 5 -4 2048 266 1
19 -5 -4 2673 257 1
-14 -5 -4 2535 246 1
19 -5 -3 1386 239 1
19 -14 -3 1074 231 1
5 14 -3 681 216 1
14 5 -3 931 223 1
14 5 -3 1350 247 1
19 -5 -3 1318 223 1
19 -5 -2 1049 234 1
5 14 -2 945 217 1
19 -14 -2 960 238 1
14 5 -2 1168 230 1
14 5 -2 1097 239 1
19 -5 -2 1182 223 1
-14 -5 -2 1163 200 1
19 -5 -1 720 250 1
5 14 -1 413 206 1
14 5 -1 203 212 1
14 5 -1 287 215 1
19 -14 -1 204 215 1
19 -5 -1 227 222 1
-14 -5 -1 390 199 1
19 -5 0 16 230 1
5 14 0 234 187 1
14 5 0 15 220 1
19 -5 0 16 214 1
-14 -5 0 15 200 1
19 -14 0 253 206 1
19 -14 1 140 219 1
19 -5 1 563 228 1
14 5 1 612 222 1
19 -5 1 19 236 1
-14 -5 1 464 212 1
14 5 2 1065 227 1
19 -14 2 1044 230 1
19 -5 2 1353 229 1
19 -5 2 1100 243 1
-14 -5 2 1171 215 1
19 -5 3 1004 249 1
19 -14 3 1432 239 1
14 5 3 962 222 1
19 -5 3 1551 244 1
-14 -5 3 1230 216 1
19 -5 4 2414 284 1
19 -14 4 2702 287 1
14 5 4 2868 252 1
-14 -5 4 3279 260 1
19 -5 5 1342 252 1
14 5 5 1515 233 1
-14 -5 5 1179 212 1
-4 19 -5 19 201 1
4 15 -5 23 218 1
15 4 -5 54 226 1
15 4 -5 11 225 1
19 -4 -5 48 226 1
-15 -4 -5 53 210 1
-19 4 -5 48 206 1
-19 4 -4 4798 313 1
19 -4 -4 4765 339 1
4 15 -4 5306 323 1
19 -4 -4 5834 338 1
15 4 -4 5240 340 1
-15 -4 -4 5847 328 1
19 -15 -4 4873 334 1
4 15 -3 260 212 1
15 4 -3 28 223 1
19 -15 -3 11 214 1
15 4 -3 252 224 1
19 -4 -3 443 224 1
-15 -4 -3 161 209 1
19 -4 -3 222 240 1
19 -4 -2 2243 273 1
4 15 -2 2814 254 1
15 4 -2 2789 262 1
15 4 -2 2911 262 1
19 -15 -2 2273 249 1
19 -4 -2 2604 252 1
19 -15 -1 288 216 1
19 -4 -1 471 224 1
4 15 -1 669 204 1
15 4 -1 684 233 1
15 4 -1 453 216 1
19 -4 -1 100 220 1
-15 -4 -1 795 196 1
19 -15 0 2805 257 1
19 -4 0 2581 263 1
15 4 0 2950 266 1
19 -4 0 2881 263 1
15 4 0 2418 258 1
-15 -4 0 2921 246 1
19 -4 1 369 227 1
15 4 1 776 227 1
19 -15 1 242 216 1
19 -4 1 286 226 1
-15 -4 1 293 206 1
19 -15 2 2262 258 1
15 4 2 2925 265 1
19 -4 2 2300 269 1
19 -4 2 2837 271 1
-15 -4 2 2370 245 1
19 -4 3 75 221 1
19 -15 3 11 221 1
15 4 3 78 213 1
-15 -4 3 179 206 1
15 4 4 5268 330 1
19 -4 4 5136 339 1
19 -4 4 5345 349 1
-15 -4 4 5259 309 1
19 -4 5 187 233 1
15 4 5 78 224 1
19 -4 5 48 247 1
-15 -4 5 223 206 1
3 16 -3 505 223 1
16 3 -3 639 235 1
19 -3 -3 267 235 1
19 -16 -3 695 216 1
19 -3 -3 873 251 1
-16 -3 -3 290 220 1
-19 3 -3 614 214 1
-19 3 -2 2166 228 1
19 -3 -2 1473 261 1
19 -16 -2 1894 247 1
3 16 -2 1488 228 1
16 3 -2 2157 249 1
16 3 -2 891 236 1
19 -3 -2 1895 253 1
19 -3 -1 445 239 1
19 -16 -1 23 221 1
16 3 -1 216 235 1
19 -3 -1 420 235 1
16 3 -1 31 221 1
-16 -3 -1 795 212 1
19 -3 0 868 245 1
16 3 0 1098 249 1
19 -3 0 1451 250 1
19 -16 0 724 233 1
16 3 0 921 241 1
-16 -3 0 1527 231 1
16 3 1 384 223 1
19 -16 1 514 225 1
19 -3 1 767 230 1
16 3 1 254 229 1
19 -3 1 99 234 1
-16 -3 1 399 216 1
19 -16 2 1904 254 1
19 -3 2 2070 267 1
16 3 2 1605 250 1
-16 -3 2 2047 238 1
16 3 3 677 228 1
19 -3 3 466 241 1
-16 -3 3 500 205 1
19 -3 3 513 238 1
10 10 -4 7501 379 1
20 -10 -4 5959 385 1
20 -10 -4 5999 357 1
10 10 -2 9675 475 1
20 -10 -2 10718 496 1
20 -10 -2 10765 472 1
10 10 0 13422 595 1
20 -10 0 12249 612 1
10 10 2 9935 449 1
20 -10 2 9446 479 1
20 -10 4 5584 371 1
-10 -10 4 6469 340 1
20 -9 -5 3761 327 1
20 -11 -5 4102 316 1
9 11 -5 4810 311 1
11 9 -5 4485 310 1
11 9 -5 4494 296 1
20 -9 -4 2140 264 1
9 11 -4 2477 256 1
11 9 -4 2526 247 1
20 -11 -4 1956 260 1
20 -9 -4 2031 243 1
9 11 -3 4274 315 1
11 9 -3 5826 327 1
20 -9 -3 4774 325 1
20 -11 -3 5017 332 1
20 -9 -3 4758 311 1
9 11 -2 1508 243 1
11 9 -2 1462 239 1
20 -9 -2 877 263 1
20 -9 -2 2129 238 1
20 -11 -2 1345 258 1
9 11 -1 7275 386 1
11 9 -1 8400 402 1
20 -9 -1 8106 420 1
20 -9 -1 7507 390 1
20 -11 -1 8303 421 1
20 -11 0 3307 281 1
9 11 0 3601 256 1
11 9 0 3169 263 1
20 -9 0 3147 274 1
20 -9 0 3262 274 1
9 11 1 7646 388 1
11 9 1 8398 401 1
20 -11 1 7727 414 1
9 11 2 1621 232 1
11 9 2 1351 239 1
20 -11 2 1348 266 1
-11 -9 2 1640 226 1
20 -11 3 4137 334 1
20 -9 3 5377 341 1
11 9 3 5089 313 1
-11 -9 3 5538 306 1
11 9 4 2245 240 1
-9 -11 4 2508 224 1
20 -9 4 2024 270 1
-11 -9 4 2537 225 1
20 -9 5 3953 325 1
-11 -9 5 4869 292 1
20 -8 -4 1142 247 1
12 8 -4 1455 234 1
8 12 -4 1487 241 1
12 8 -4 1474 235 1
20 -12 -4 894 253 1
20 -8 -4 1396 244 1
20 -8 -3 599 240 1
8 12 -3 877 228 1
12 8 -3 1025 238 1
20 -8 -3 532 221 1
20 -12 -3 635 247 1
20 -12 -2 1523 251 1
20 -8 -2 586 240 1
8 12 -2 1119 221 1
12 8 -2 987 231 1
20 -8 -2 1120 240 1
20 -12 -1 1266 256 1
8 12 -1 483 208 1
12 8 -1 739 230 1
20 -8 -1 965 245 1
20 -8 -1 836 222 1
20 -12 0 1250 244 1
8 12 0 1280 228 1
12 8 0 2095 238 1
20 -8 0 1865 238 1
20 -8 1 994 248 1
8 12 1 752 217 1
12 8 1 576 227 1
20 -12 1 964 247 1
20 -8 1 1317 238 1
-12 -8 1 812 211 1
20 -8 2 1400 263 1
12 8 2 1320 236 1
-12 -8 2 1223 216 1
20 -12 2 1143 244 1
20 -12 3 430 241 1
20 -8 3 601 257 1
12 8 3 620 222 1
-12 -8 3 947 209 1
12 8 4 1374 236 1
20 -12 4 1084 258 1
20 -8 4 1015 266 1
-12 -8 4 1219 220 1
20 -7 -4 1352 259 1
13 7 -4 1071 236 1
7 13 -4 865 238 1
13 7 -4 1239 248 1
20 -7 -4 877 237 1
20 -13 -4 944 242 1
20 -13 -3 1879 260 1
20 -7 -3 1340 258 1
13 7 -3 1659 235 1
7 13 -3 1633 238 1
13 7 -3 1409 247 1
20 -7 -3 1549 248 1
20 -13 -2 28 227 1
7 13 -2 296 221 1
13 7 -2 108 228 1
20 -7 -2 467 228 1
20 -13 -1 443 230 1
7 13 -1 434 209 1
13 7 -1 405 217 1
20 -7 -1 373 234 1
-13 -7 -1 436 204 1
7 13 0 309 205 1
13 7 0 744 225 1
20 -13 0 510 236 1
20 -7 0 713 248 1
20 -7 0 331 223 1
-13 -7 0 299 198 1
13 7 1 566 224 1
20 -7 1 672 232 1
20 -13 1 428 243 1
20 -7 1 952 243 1
-13 -7 1 401 194 1
20 -7 2 622 249 1
20 -13 2 253 230 1
13 7 2 211 220 1
20 -7 2 102 229 1
-13 -7 2 375 214 1
20 -7 3 1544 263 1
20 -13 3 1456 263 1
13 7 3 1429 249 1
-13 -7 3 1698 226 1
20 -13 4 766 247 1
20 -7 4 848 243 1
13 7 4 979 233 1
-13 -7 4 1004 219 1
20 -14 -3 25 240 1
6 14 -3 316 227 1
14 6 -3 22 228 1
14 6 -3 5 233 1
20 -6 -3 25 230 1
20 -6 -2 1112 256 1
20 -14 -2 1462 253 1
6 14 -2 1528 227 1
14 6 -2 1638 247 1
14 6 -2 1262 246 1
20 -6 -2 1844 247 1
-14 -6 -2 1232 214 1
20 -6 -1 114 241 1
6 14 -1 190 207 1
14 6 -1 458 228 1
20 -14 -1 32 231 1
20 -6 -1 54 230 1
-14 -6 -1 1 202 1
20 -6 0 835 252 1
14 6 0 0 221 1
20 -6 0 83 228 1
20 -14 0 165 235 1
-14 -6 0 0 211 1
20 -14 1 461 226 1
14 6 1 225 220 1
20 -6 1 332 236 1
20 -6 1 1 229 1
-14 -6 1 212 207 1
20 -6 2 1257 262 1
20 -14 2 1420 252 1
14 6 2 1704 246 1
20 -6 2 1127 253 1
-14 -6 2 1300 219 1
20 -14 3 248 230 1
20 -6 3 99 239 1
14 6 3 22 222 1
20 -6 3 25 245 1
-14 -6 3 22 196 1
20 -15 0 2929 276 1
20 -5 0 2592 286 1
15 5 0 3004 276 1
20 -5 0 2859 282 1
-15 -5 0 2379 262 1
